# generated using pymatgen
data_Nb8P15O56
_symmetry_space_group_name_H-M   'P 1'
_cell_length_a   11.95277981
_cell_length_b   11.95277981
_cell_length_c   11.95278032
_cell_angle_alpha   59.55510093
_cell_angle_beta   59.55510093
_cell_angle_gamma   59.55510257
_symmetry_Int_Tables_number   1
_chemical_formula_structural   Nb8P15O56
_chemical_formula_sum   'Nb8 P15 O56'
_cell_volume   1195.29914974
_cell_formula_units_Z   1
loop_
 _symmetry_equiv_pos_site_id
 _symmetry_equiv_pos_as_xyz
  1  'x, y, z'
loop_
 _atom_site_type_symbol
 _atom_site_label
 _atom_site_symmetry_multiplicity
 _atom_site_fract_x
 _atom_site_fract_y
 _atom_site_fract_z
 _atom_site_occupancy
  Nb  Nb0  1  0.00903300  0.48588300  0.00761500  1
  Nb  Nb1  1  0.00374100  0.49775600  0.49697900  1
  Nb  Nb2  1  0.49697900  0.00374100  0.49775600  1
  Nb  Nb3  1  0.00018000  0.00018000  0.00018000  1
  Nb  Nb4  1  0.00761500  0.00903300  0.48588300  1
  Nb  Nb5  1  0.48588300  0.00761500  0.00903300  1
  Nb  Nb6  1  0.49957900  0.49957900  0.49957900  1
  Nb  Nb7  1  0.49775600  0.49697900  0.00374100  1
  P  P0  1  0.19468400  0.41435400  0.69360500  1
  P  P1  1  0.30046700  0.30046700  0.30046700  1
  P  P2  1  0.80407700  0.30425000  0.08717600  1
  P  P3  1  0.91239000  0.19619700  0.69588300  1
  P  P4  1  0.58595100  0.30528800  0.80477600  1
  P  P5  1  0.69360500  0.19468400  0.41435400  1
  P  P6  1  0.69588300  0.91239000  0.19619700  1
  P  P7  1  0.80467800  0.80467800  0.80467800  1
  P  P8  1  0.30425000  0.08717600  0.80407700  1
  P  P9  1  0.30528800  0.80477600  0.58595100  1
  P  P10  1  0.41435400  0.69360500  0.19468400  1
  P  P11  1  0.08717600  0.80407700  0.30425000  1
  P  P12  1  0.19619700  0.69588300  0.91239000  1
  P  P13  1  0.69574000  0.69574000  0.69574000  1
  P  P14  1  0.80477600  0.58595100  0.30528800  1
  O  O0  1  0.74813500  0.25043900  0.25038800  1
  O  O1  1  0.32050500  0.45992200  0.59508900  1
  O  O2  1  0.40240600  0.38334900  0.18263800  1
  O  O3  1  0.12104300  0.46165500  0.81617700  1
  O  O4  1  0.18263800  0.40240600  0.38334900  1
  O  O5  1  0.38334900  0.18263800  0.40240600  1
  O  O6  1  0.09796700  0.46092400  0.61931600  1
  O  O7  1  0.25043900  0.25038800  0.74813500  1
  O  O8  1  0.25059900  0.25059900  0.25059900  1
  O  O9  1  0.87445800  0.40385200  0.03830300  1
  O  O10  1  0.96090500  0.32008500  0.62099700  1
  O  O11  1  0.95540700  0.12164100  0.60235200  1
  O  O12  1  0.90055200  0.17858800  0.04095400  1
  O  O13  1  0.95990500  0.10003400  0.82076200  1
  O  O14  1  0.67872700  0.37526900  0.04159400  1
  O  O15  1  0.74931300  0.25590200  0.75177300  1
  O  O16  1  0.25590200  0.75177300  0.74931300  1
  O  O17  1  0.81617700  0.12104300  0.46165500  1
  O  O18  1  0.54040300  0.40211900  0.67899300  1
  O  O19  1  0.53676700  0.38034700  0.90188800  1
  O  O20  1  0.59508900  0.32050500  0.45992200  1
  O  O21  1  0.90102800  0.87738900  0.67768700  1
  O  O22  1  0.82076200  0.95990500  0.10003400  1
  O  O23  1  0.61931600  0.09796700  0.46092400  1
  O  O24  1  0.54390800  0.17916500  0.87654900  1
  O  O25  1  0.62099700  0.96090500  0.32008500  1
  O  O26  1  0.67768700  0.90102800  0.87738900  1
  O  O27  1  0.87738900  0.67768700  0.90102800  1
  O  O28  1  0.60235200  0.95540700  0.12164100  1
  O  O29  1  0.75177300  0.74931300  0.25590200  1
  O  O30  1  0.74826800  0.74826800  0.74826800  1
  O  O31  1  0.11300200  0.32957100  0.08641800  1
  O  O32  1  0.40385200  0.03830300  0.87445800  1
  O  O33  1  0.32957100  0.08641800  0.11300200  1
  O  O34  1  0.37526900  0.04159400  0.67872700  1
  O  O35  1  0.38034700  0.90188800  0.53676700  1
  O  O36  1  0.46165500  0.81617700  0.12104300  1
  O  O37  1  0.08641800  0.11300200  0.32957100  1
  O  O38  1  0.17858800  0.04095400  0.90055200  1
  O  O39  1  0.40211900  0.67899300  0.54040300  1
  O  O40  1  0.46092400  0.61931600  0.09796700  1
  O  O41  1  0.17916500  0.87654900  0.54390800  1
  O  O42  1  0.45992200  0.59508900  0.32050500  1
  O  O43  1  0.25038800  0.74813500  0.25043900  1
  O  O44  1  0.04095400  0.90055200  0.17858800  1
  O  O45  1  0.32008500  0.62099700  0.96090500  1
  O  O46  1  0.03830300  0.87445800  0.40385200  1
  O  O47  1  0.10003400  0.82076200  0.95990500  1
  O  O48  1  0.04159400  0.67872700  0.37526900  1
  O  O49  1  0.12164100  0.60235200  0.95540700  1
  O  O50  1  0.61566900  0.82084300  0.59975400  1
  O  O51  1  0.90188800  0.53676700  0.38034700  1
  O  O52  1  0.82084300  0.59975400  0.61566900  1
  O  O53  1  0.87654900  0.54390800  0.17916500  1
  O  O54  1  0.67899300  0.54040300  0.40211900  1
  O  O55  1  0.59975400  0.61566900  0.82084300  1
loop_
_geom_bond_atom_site_label_1
_geom_bond_atom_site_label_2
_geom_bond_distance
_geom_bond_site_symmetry_2
Nb0 O31 1.723982 1_555
Nb0 O53 2.056883 1_455
Nb0 O3 2.070325 1_554
Nb0 O49 2.075192 1_554
Nb0 O9 2.078283 1_455
Nb0 O27 2.184212 1_454
Nb1 O4 1.967675 1_555
Nb1 O10 2.027799 1_455
Nb1 O6 2.028454 1_555
Nb1 O51 2.031971 1_455
Nb1 O48 2.033675 1_555
Nb1 O52 2.046201 1_455
Nb2 O5 1.967675 1_555
Nb2 O25 2.027799 1_545
Nb2 O23 2.028454 1_555
Nb2 O35 2.031971 1_545
Nb2 O34 2.033675 1_555
Nb2 O50 2.046201 1_545
Nb3 O38 2.023518 1_554
Nb3 O12 2.023518 1_455
Nb3 O44 2.023518 1_545
Nb3 O22 2.031098 1_445
Nb3 O47 2.031099 1_544
Nb3 O13 2.031099 1_454
Nb4 O37 1.723982 1_555
Nb4 O41 2.056883 1_545
Nb4 O17 2.070325 1_455
Nb4 O11 2.075192 1_455
Nb4 O46 2.078283 1_545
Nb4 O21 2.184212 1_445
Nb5 O33 1.723982 1_555
Nb5 O24 2.056883 1_554
Nb5 O36 2.070325 1_545
Nb5 O28 2.075192 1_545
Nb5 O32 2.078283 1_554
Nb5 O26 2.184212 1_544
Nb6 O1 2.028025 1_555
Nb6 O20 2.028026 1_555
Nb6 O42 2.028026 1_555
Nb6 O54 2.036351 1_555
Nb6 O39 2.036351 1_555
Nb6 O18 2.036351 1_555
Nb7 O2 1.967675 1_555
Nb7 O45 2.027799 1_554
Nb7 O40 2.028454 1_555
Nb7 O19 2.031971 1_554
Nb7 O14 2.033675 1_555
Nb7 O55 2.046201 1_554
O0 P2 1.583939 1_555
O0 P5 1.591223 1_555
O1 P0 1.526590 1_555
O2 P1 1.587401 1_555
O3 P0 1.506352 1_555
O4 P1 1.587401 1_555
O5 P1 1.587401 1_555
O6 P0 1.523809 1_555
O7 P8 1.583939 1_555
O7 P0 1.591223 1_555
O8 P1 1.464936 1_555
O9 P2 1.509448 1_555
O10 P3 1.526830 1_555
O11 P3 1.507015 1_555
O12 P2 1.526782 1_555
O13 P3 1.526620 1_555
O14 P2 1.527063 1_555
O15 P3 1.583927 1_555
O15 P4 1.587392 1_555
O16 P12 1.583927 1_555
O16 P9 1.587392 1_555
O17 P5 1.506352 1_555
O18 P4 1.524413 1_555
O19 P4 1.525510 1_555
O20 P5 1.526590 1_555
O21 P7 1.513777 1_555
O22 P6 1.526620 1_555
O23 P5 1.523809 1_555
O24 P4 1.510407 1_555
O25 P6 1.526830 1_555
O26 P7 1.513777 1_555
O27 P7 1.513777 1_555
O28 P6 1.507015 1_555
O29 P6 1.583927 1_555
O29 P14 1.587392 1_555
O30 P13 1.543077 1_555
O30 P7 1.657115 1_555
O32 P8 1.509448 1_555
O34 P8 1.527063 1_555
O35 P9 1.525510 1_555
O36 P10 1.506352 1_555
O38 P8 1.526782 1_555
O39 P9 1.524413 1_555
O40 P10 1.523809 1_555
O41 P9 1.510407 1_555
O42 P10 1.526590 1_555
O43 P11 1.583939 1_555
O43 P10 1.591223 1_555
O44 P11 1.526782 1_555
O45 P12 1.526830 1_555
O46 P11 1.509448 1_555
O47 P12 1.526620 1_555
O48 P11 1.527063 1_555
O49 P12 1.507015 1_555
O50 P13 1.546648 1_555
O51 P14 1.525510 1_555
O52 P13 1.546648 1_555
O53 P14 1.510407 1_555
O54 P14 1.524413 1_555
O55 P13 1.546648 1_555
