# generated using pymatgen
data_Tl3In7Se10
_symmetry_space_group_name_H-M   'P 1'
_cell_length_a   6.76621700
_cell_length_b   10.76650674
_cell_length_c   16.65851092
_cell_angle_alpha   102.31467848
_cell_angle_beta   91.13898374
_cell_angle_gamma   97.79228343
_symmetry_Int_Tables_number   1
_chemical_formula_structural   Tl3In7Se10
_chemical_formula_sum   'Tl6 In14 Se20'
_cell_volume   1173.18394395
_cell_formula_units_Z   2
loop_
 _symmetry_equiv_pos_site_id
 _symmetry_equiv_pos_as_xyz
  1  'x, y, z'
loop_
 _atom_site_type_symbol
 _atom_site_label
 _atom_site_symmetry_multiplicity
 _atom_site_fract_x
 _atom_site_fract_y
 _atom_site_fract_z
 _atom_site_occupancy
  Tl  Tl0  1  0.25019900  0.49983700  0.74998200  1
  Tl  Tl1  1  0.65112800  0.10032100  0.94958400  1
  Tl  Tl2  1  0.34887200  0.89967900  0.05041600  1
  Tl  Tl3  1  0.74980100  0.50016300  0.25001800  1
  Tl  Tl4  1  0.84914000  0.89939100  0.55026600  1
  Tl  Tl5  1  0.15086000  0.10060900  0.44973400  1
  In  In0  1  0.54956900  0.19996600  0.64989900  1
  In  In1  1  0.94994200  0.80017400  0.85009900  1
  In  In2  1  0.24958600  0.00006200  0.75004700  1
  In  In3  1  0.35051800  0.39991300  0.05005900  1
  In  In4  1  0.54976900  0.69985000  0.65011100  1
  In  In5  1  0.64948200  0.60008700  0.94994100  1
  In  In6  1  0.75041400  0.99993800  0.24995300  1
  In  In7  1  0.95022200  0.30009300  0.84997800  1
  In  In8  1  0.05005800  0.19982600  0.14990100  1
  In  In9  1  0.04977800  0.69990700  0.15002200  1
  In  In10  1  0.15005800  0.60020900  0.45003300  1
  In  In11  1  0.45043100  0.80003400  0.35010100  1
  In  In12  1  0.45023100  0.30015000  0.34988900  1
  In  In13  1  0.84994200  0.39979100  0.54996700  1
  Se  Se0  1  0.64199700  0.03077700  0.73458400  1
  Se  Se1  1  0.73500500  0.43846200  0.70382800  1
  Se  Se2  1  0.04095700  0.63018900  0.93497000  1
  Se  Se3  1  0.13396900  0.03889800  0.90330900  1
  Se  Se4  1  0.06503200  0.76186400  0.69625400  1
  Se  Se5  1  0.15796400  0.16950400  0.66641200  1
  Se  Se6  1  0.44170100  0.23157400  0.13526000  1
  Se  Se7  1  0.46542000  0.36171300  0.89621700  1
  Se  Se8  1  0.53458000  0.63828700  0.10378300  1
  Se  Se9  1  0.55829900  0.76842600  0.86474000  1
  Se  Se10  1  0.84203600  0.83049600  0.33358800  1
  Se  Se11  1  0.86603100  0.96110200  0.09669100  1
  Se  Se12  1  0.93496800  0.23813600  0.30374600  1
  Se  Se13  1  0.95904300  0.36981100  0.06503000  1
  Se  Se14  1  0.24315300  0.43173700  0.53413800  1
  Se  Se15  1  0.26499500  0.56153800  0.29617200  1
  Se  Se16  1  0.33587300  0.83729800  0.50402100  1
  Se  Se17  1  0.35800300  0.96922300  0.26541600  1
  Se  Se18  1  0.66412700  0.16270200  0.49597900  1
  Se  Se19  1  0.75684700  0.56826300  0.46586200  1
loop_
_geom_bond_atom_site_label_1
_geom_bond_atom_site_label_2
_geom_bond_distance
_geom_bond_site_symmetry_2
In0 Se5 2.652523 1_555
In0 Se18 2.657218 1_555
In0 Se0 2.658830 1_555
In0 Se1 2.659388 1_555
In1 Se9 2.648424 1_555
In1 Se3 2.656818 1_665
In1 Se4 2.657096 1_655
In1 Se2 2.665015 1_655
In2 Se5 2.647641 1_555
In2 Se3 2.649141 1_555
In2 Se4 2.654458 1_545
In2 Se0 2.655354 1_555
In3 Se13 2.647897 1_455
In3 Se6 2.654372 1_555
In3 Se8 2.654787 1_555
In3 Se7 2.656638 1_554
In4 Tl4 3.458778 1_555
In4 Tl0 3.463012 1_555
In5 Se2 2.647897 1_655
In5 Se9 2.654372 1_555
In5 Se7 2.654787 1_555
In5 Se8 2.656638 1_556
In6 Se10 2.647641 1_555
In6 Se11 2.649141 1_555
In6 Se12 2.654458 1_565
In6 Se17 2.655354 1_555
In7 Tl1 3.456937 1_555
In7 Tl0 3.463853 1_655
In8 Se6 2.648424 1_555
In8 Se11 2.656818 1_445
In8 Se12 2.657096 1_455
In8 Se13 2.665015 1_455
In9 Tl2 3.456937 1_555
In9 Tl3 3.463853 1_455
In10 Se14 2.647374 1_555
In10 Se16 2.647822 1_555
In10 Se15 2.656962 1_555
In10 Se19 2.661729 1_455
In11 Se10 2.652523 1_555
In11 Se16 2.657218 1_555
In11 Se17 2.658830 1_555
In11 Se15 2.659388 1_555
In12 Tl5 3.458778 1_555
In12 Tl3 3.463012 1_555
In13 Se19 2.647374 1_555
In13 Se18 2.647822 1_555
In13 Se1 2.656962 1_555
In13 Se14 2.661729 1_655
