# generated using pymatgen
data_Te6H6S(Cl13O2)2
_symmetry_space_group_name_H-M   'P 1'
_cell_length_a   8.86235828
_cell_length_b   8.86235828
_cell_length_c   17.82811713
_cell_angle_alpha   81.91710376
_cell_angle_beta   81.91710376
_cell_angle_gamma   82.35701067
_symmetry_Int_Tables_number   1
_chemical_formula_structural   Te6H6S(Cl13O2)2
_chemical_formula_sum   'Te6 H6 S1 Cl26 O4'
_cell_volume   1363.37428249
_cell_formula_units_Z   1
loop_
 _symmetry_equiv_pos_site_id
 _symmetry_equiv_pos_as_xyz
  1  'x, y, z'
loop_
 _atom_site_type_symbol
 _atom_site_label
 _atom_site_symmetry_multiplicity
 _atom_site_fract_x
 _atom_site_fract_y
 _atom_site_fract_z
 _atom_site_occupancy
  Te  Te0  1  0.92536800  0.54534300  0.46190900  1
  Te  Te1  1  0.92401200  0.54542500  0.96251400  1
  Te  Te2  1  0.92512700  0.92512700  0.27240800  1
  Te  Te3  1  0.54534300  0.92536800  0.46190900  1
  Te  Te4  1  0.54542500  0.92401200  0.96251400  1
  Te  Te5  1  0.92631600  0.92631600  0.77231600  1
  H  H0  1  0.69941100  0.56242500  0.28102500  1
  H  H1  1  0.56064000  0.56064000  0.34841200  1
  H  H2  1  0.56242500  0.69941100  0.28102500  1
  H  H3  1  0.70334200  0.56584700  0.78689800  1
  H  H4  1  0.56530600  0.56530600  0.85533300  1
  H  H5  1  0.56584700  0.70334200  0.78689800  1
  S  S0  1  0.45404000  0.45404000  0.64605600  1
  Cl  Cl0  1  0.89890100  0.19643200  0.26841400  1
  Cl  Cl1  1  0.53772800  0.19613500  0.44771500  1
  Cl  Cl2  1  0.93512400  0.27681900  0.46730300  1
  Cl  Cl3  1  0.53763900  0.19520800  0.94861300  1
  Cl  Cl4  1  0.90022800  0.19698100  0.76847500  1
  Cl  Cl5  1  0.19613500  0.53772800  0.44771500  1
  Cl  Cl6  1  0.89842900  0.53698600  0.09753500  1
  Cl  Cl7  1  0.93362700  0.27675800  0.96747900  1
  Cl  Cl8  1  0.92038000  0.59015200  0.29563300  1
  Cl  Cl9  1  0.59014000  0.59014000  0.45881900  1
  Cl  Cl10  1  0.19520800  0.53763900  0.94861300  1
  Cl  Cl11  1  0.90026500  0.53734800  0.59665000  1
  Cl  Cl12  1  0.19643200  0.89890100  0.26841400  1
  Cl  Cl13  1  0.53698600  0.89842900  0.09753500  1
  Cl  Cl14  1  0.92348700  0.58881300  0.79693000  1
  Cl  Cl15  1  0.58920700  0.58920700  0.96456900  1
  Cl  Cl16  1  0.27681900  0.93512400  0.46730300  1
  Cl  Cl17  1  0.93415500  0.93415500  0.13912600  1
  Cl  Cl18  1  0.59015200  0.92038000  0.29563300  1
  Cl  Cl19  1  0.53734800  0.90026500  0.59665000  1
  Cl  Cl20  1  0.19698100  0.90022800  0.76847500  1
  Cl  Cl21  1  0.88671100  0.88671100  0.44298700  1
  Cl  Cl22  1  0.27675800  0.93362700  0.96747900  1
  Cl  Cl23  1  0.93460400  0.93460400  0.63914400  1
  Cl  Cl24  1  0.58881300  0.92348700  0.79693000  1
  Cl  Cl25  1  0.88705100  0.88705100  0.94278400  1
  O  O0  1  0.50591100  0.29091800  0.65969100  1
  O  O1  1  0.29091800  0.50591100  0.65969100  1
  O  O2  1  0.58214700  0.58214700  0.29044500  1
  O  O3  1  0.58564400  0.58564400  0.79684600  1
loop_
_geom_bond_atom_site_label_1
_geom_bond_atom_site_label_2
_geom_bond_distance
_geom_bond_site_symmetry_2
H0 O2 1.024511 1_555
H1 O2 1.019579 1_555
H2 O2 1.024511 1_555
H3 O3 1.028739 1_555
H4 O3 1.027212 1_555
H5 O3 1.028739 1_555
Cl0 Te2 2.376573 1_545
Cl1 Te3 2.370190 1_545
Cl2 Te0 2.358647 1_555
Cl3 Te4 2.374001 1_545
Cl4 Te5 2.371242 1_545
Cl5 Te0 2.370190 1_455
Cl6 Te1 2.377367 1_554
Cl7 Te1 2.360774 1_555
Cl8 H0 2.062181 1_555
Cl8 Te0 2.940814 1_555
Cl8 Te2 2.944293 1_555
Cl9 H1 2.078149 1_555
Cl9 Te0 2.951795 1_555
Cl9 Te3 2.951795 1_555
Cl10 Te1 2.374001 1_455
Cl11 Te0 2.372977 1_555
Cl12 Te2 2.376573 1_455
Cl13 Te4 2.377367 1_554
Cl14 H3 2.023319 1_555
Cl14 Te1 2.923467 1_555
Cl14 Te5 2.964365 1_555
Cl15 H4 2.031335 1_555
Cl15 Te1 2.936516 1_555
Cl15 Te4 2.936516 1_555
Cl16 Te3 2.358647 1_555
Cl17 Te2 2.356640 1_555
Cl18 H2 2.062181 1_555
Cl18 Te3 2.940814 1_555
Cl18 Te2 2.944293 1_555
Cl19 Te3 2.372977 1_555
Cl20 Te5 2.371242 1_455
Cl21 Te0 2.975495 1_555
Cl21 Te3 2.975495 1_555
Cl21 Te2 2.988084 1_555
Cl22 Te4 2.360774 1_555
Cl23 Te5 2.356056 1_555
Cl24 H5 2.023319 1_555
Cl24 Te4 2.923467 1_555
Cl24 Te5 2.964365 1_555
Cl25 Te4 2.977680 1_555
Cl25 Te1 2.977680 1_555
Cl25 Te5 2.985945 1_555
O0 S0 1.454694 1_555
O1 S0 1.454694 1_555
