# generated using pymatgen
data_Ce5CuSe8
_symmetry_space_group_name_H-M   'P 1'
_cell_length_a   7.67891856
_cell_length_b   7.67891856
_cell_length_c   7.67891856
_cell_angle_alpha   110.44649867
_cell_angle_beta   110.44649867
_cell_angle_gamma   107.53779337
_symmetry_Int_Tables_number   1
_chemical_formula_structural   Ce5CuSe8
_chemical_formula_sum   'Ce5 Cu1 Se8'
_cell_volume   348.26416278
_cell_formula_units_Z   1
loop_
 _symmetry_equiv_pos_site_id
 _symmetry_equiv_pos_as_xyz
  1  'x, y, z'
loop_
 _atom_site_type_symbol
 _atom_site_label
 _atom_site_symmetry_multiplicity
 _atom_site_fract_x
 _atom_site_fract_y
 _atom_site_fract_z
 _atom_site_occupancy
  Ce  Ce0  1  0.11612500  0.23942500  0.62225500  1
  Ce  Ce1  1  0.25000000  0.75000000  0.50000000  1
  Ce  Ce2  1  0.61717000  0.49387000  0.37774500  1
  Ce  Ce3  1  0.50613000  0.88387500  0.12330000  1
  Ce  Ce4  1  0.76057500  0.38283000  0.87670000  1
  Cu  Cu0  1  0.00000000  0.00000000  0.00000000  1
  Se  Se0  1  0.86449000  0.76379500  0.26087500  1
  Se  Se1  1  0.39638500  0.13551000  0.89930500  1
  Se  Se2  1  0.02264200  0.65191100  0.75789800  1
  Se  Se3  1  0.23620500  0.49707900  0.10069500  1
  Se  Se4  1  0.34808900  0.10598700  0.37073100  1
  Se  Se5  1  0.50292100  0.60361500  0.73912500  1
  Se  Se6  1  0.73525600  0.97735800  0.62926900  1
  Se  Se7  1  0.89401300  0.26474400  0.24210200  1
loop_
_geom_bond_atom_site_label_1
_geom_bond_atom_site_label_2
_geom_bond_distance
_geom_bond_site_symmetry_2
Ce0 Se7 2.930211 1_455
Ce0 Se1 2.969251 1_555
Ce0 Se5 2.970932 1_555
Ce0 Se6 3.040559 1_445
Ce0 Se0 3.113387 1_445
Ce0 Se3 3.117288 1_556
Ce0 Se4 3.173965 1_555
Ce0 Se2 3.349720 1_555
Ce1 Se0 2.945066 1_455
Ce1 Se1 2.945066 1_565
Ce1 Se3 2.945068 1_555
Ce1 Se5 2.945070 1_555
Ce1 Se2 3.194140 1_555
Ce1 Se6 3.194140 1_555
Ce1 Se7 3.194140 1_455
Ce1 Se4 3.194140 1_565
Ce2 Se2 2.930211 1_655
Ce2 Se3 2.969247 1_555
Ce2 Se0 2.970927 1_555
Ce2 Se4 3.040559 1_555
Ce2 Se5 3.113382 1_555
Ce2 Se1 3.117289 1_554
Ce2 Se6 3.173965 1_555
Ce2 Se7 3.349720 1_555
Ce3 Se4 2.930211 1_565
Ce3 Se5 2.969256 1_554
Ce3 Se3 2.970933 1_555
Ce3 Se7 3.040559 1_565
Ce3 Se1 3.113387 1_564
Ce3 Se0 3.117289 1_555
Ce3 Se2 3.173965 1_554
Ce3 Se6 3.349720 1_555
Ce4 Se6 2.930211 1_545
Ce4 Se0 2.969251 1_556
Ce4 Se1 2.970927 1_555
Ce4 Se2 3.040559 1_655
Ce4 Se3 3.113389 1_656
Ce4 Se5 3.117284 1_555
Ce4 Se7 3.173965 1_556
Ce4 Se4 3.349720 1_555
Cu0 Se2 2.768600 1_544
Cu0 Se6 2.768600 1_444
Cu0 Se4 2.768600 1_555
Cu0 Se7 2.768600 1_455
