# generated using pymatgen
data_Sn(BiTe2)2
_symmetry_space_group_name_H-M   'P 1'
_cell_length_a   14.96982210
_cell_length_b   14.96982210
_cell_length_c   23.35708444
_cell_angle_alpha   56.58329310
_cell_angle_beta   56.58329310
_cell_angle_gamma   17.11080720
_symmetry_Int_Tables_number   1
_chemical_formula_structural   Sn(BiTe2)2
_chemical_formula_sum   'Sn5 Bi10 Te20'
_cell_volume   1279.08308091
_cell_formula_units_Z   5
loop_
 _symmetry_equiv_pos_site_id
 _symmetry_equiv_pos_as_xyz
  1  'x, y, z'
loop_
 _atom_site_type_symbol
 _atom_site_label
 _atom_site_symmetry_multiplicity
 _atom_site_fract_x
 _atom_site_fract_y
 _atom_site_fract_z
 _atom_site_occupancy
  Sn  Sn0  1  0.20172900  0.20172900  0.59571700  1
  Sn  Sn1  1  0.19754500  0.19754500  0.32691900  1
  Sn  Sn2  1  0.79666500  0.79666500  0.40256400  1
  Sn  Sn3  1  0.83280000  0.83280000  0.10369700  1
  Sn  Sn4  1  0.57876000  0.57876000  0.08617600  1
  Bi  Bi0  1  0.41028800  0.41028800  0.91264600  1
  Bi  Bi1  1  0.19055100  0.19055100  0.87955500  1
  Bi  Bi2  1  0.01173000  0.01173000  0.71672700  1
  Bi  Bi3  1  0.79823300  0.79823300  0.68337900  1
  Bi  Bi4  1  0.60060400  0.60060400  0.80374600  1
  Bi  Bi5  1  0.60296800  0.60296800  0.51822700  1
  Bi  Bi6  1  0.39321000  0.39321000  0.48450800  1
  Bi  Bi7  1  0.98560300  0.98560300  0.28175500  1
  Bi  Bi8  1  0.69847500  0.69847500  0.10786800  1
  Bi  Bi9  1  0.39440900  0.39440900  0.19949600  1
  Te  Te0  1  0.82526300  0.82526300  0.97289100  1
  Te  Te1  1  0.59831500  0.59831500  0.93396200  1
  Te  Te2  1  0.42413600  0.42413600  0.77380800  1
  Te  Te3  1  0.19400500  0.19400500  0.74017800  1
  Te  Te4  1  0.00868900  0.00868900  0.85743600  1
  Te  Te5  1  0.01822900  0.01822900  0.57768200  1
  Te  Te6  1  0.78204700  0.78204700  0.82118100  1
  Te  Te7  1  0.79163600  0.79163600  0.54278200  1
  Te  Te8  1  0.60920800  0.60920800  0.65709400  1
  Te  Te9  1  0.61446700  0.61446700  0.38183800  1
  Te  Te10  1  0.38365100  0.38365100  0.62355900  1
  Te  Te11  1  0.39192000  0.39192000  0.34339000  1
  Te  Te12  1  0.20678600  0.20678600  0.45870300  1
  Te  Te13  1  0.22787800  0.22787800  0.17257700  1
  Te  Te14  1  0.97779500  0.97779500  0.42484300  1
  Te  Te15  1  0.98616300  0.98616300  0.14670900  1
  Te  Te16  1  0.80519400  0.80519400  0.26230700  1
  Te  Te17  1  0.57470800  0.57470800  0.22334500  1
  Te  Te18  1  0.41726600  0.41726600  0.05286100  1
  Te  Te19  1  0.16907500  0.16907500  0.02987700  1
loop_
_geom_bond_atom_site_label_1
_geom_bond_atom_site_label_2
_geom_bond_distance
_geom_bond_site_symmetry_2
Sn0 Te12 3.119345 1_555
Sn0 Te7 3.147663 1_545
Sn0 Te7 3.147663 1_455
Sn0 Te8 3.184974 1_545
Sn0 Te8 3.184974 1_455
Sn0 Te3 3.252381 1_555
Sn1 Te9 3.023331 1_545
Sn1 Te9 3.023331 1_455
Sn1 Te13 3.193172 1_555
Sn1 Te12 3.238442 1_555
Sn1 Te16 3.469484 1_455
Sn1 Te16 3.469484 1_545
Sn2 Te12 3.142190 1_565
Sn2 Te12 3.142190 1_655
Sn2 Te16 3.142371 1_555
Sn2 Te7 3.194558 1_555
Sn2 Te11 3.237523 1_565
Sn2 Te11 3.237523 1_655
Sn3 Te18 3.052167 1_655
Sn3 Te18 3.052167 1_565
Sn3 Te0 3.184918 1_554
Sn3 Te16 3.319635 1_555
Sn3 Te13 3.410399 1_655
Sn3 Te13 3.410399 1_565
Sn4 Te17 3.138639 1_555
Sn4 Te19 3.149929 1_655
Sn4 Te19 3.149929 1_565
Sn4 Te15 3.186983 1_545
Sn4 Te15 3.186983 1_455
Sn4 Te1 3.268409 1_554
Bi0 Te2 3.033690 1_555
Bi0 Te0 3.054649 1_455
Bi0 Te0 3.054649 1_545
Bi0 Te4 3.305340 1_655
Bi0 Te4 3.305340 1_565
Bi0 Te18 3.394410 1_556
Bi1 Te6 3.169011 1_545
Bi1 Te6 3.169011 1_455
Bi1 Te1 3.188461 1_545
Bi1 Te1 3.188461 1_455
Bi1 Te3 3.199617 1_555
Bi1 Te19 3.200842 1_556
Bi2 Te2 3.100215 1_545
Bi2 Te2 3.100215 1_455
Bi2 Te5 3.144591 1_555
Bi2 Te4 3.237274 1_555
Bi2 Te8 3.278883 1_545
Bi2 Te8 3.278883 1_455
Bi3 Te6 2.978484 1_555
Bi3 Te10 3.061287 1_655
Bi3 Te10 3.061287 1_565
Bi3 Te7 3.396587 1_555
Bi3 Te3 3.417888 1_565
Bi3 Te3 3.417888 1_655
Bi4 Te1 3.004251 1_555
Bi4 Te4 3.183771 1_655
Bi4 Te4 3.183771 1_565
Bi4 Te3 3.199624 1_565
Bi4 Te3 3.199624 1_655
Bi4 Te8 3.290306 1_555
Bi5 Te9 3.009362 1_555
Bi5 Te5 3.049847 1_655
Bi5 Te5 3.049847 1_565
Bi5 Te8 3.349932 1_555
Bi5 Te12 3.402963 1_655
Bi5 Te12 3.402963 1_565
Bi6 Te14 3.047249 1_455
Bi6 Te14 3.047249 1_545
Bi6 Te10 3.099139 1_555
Bi6 Te11 3.317527 1_555
Bi6 Te7 3.361027 1_455
Bi6 Te7 3.361027 1_545
Bi7 Te17 3.125932 1_565
Bi7 Te17 3.125932 1_655
Bi7 Te15 3.145077 1_555
Bi7 Te11 3.205850 1_655
Bi7 Te11 3.205850 1_565
Bi7 Te14 3.219107 1_555
Bi8 Te13 3.076879 1_565
Bi8 Te13 3.076879 1_655
Bi8 Te17 3.113442 1_555
Bi8 Te19 3.286589 1_565
Bi8 Te19 3.286589 1_655
Bi8 Te0 3.293686 1_554
Bi9 Te18 3.099476 1_555
Bi9 Te16 3.126071 1_455
Bi9 Te16 3.126071 1_545
Bi9 Te15 3.182531 1_545
Bi9 Te15 3.182531 1_455
Bi9 Te11 3.320469 1_555
