# generated using pymatgen
data_Na13Ca7S12Cl2O48F
_symmetry_space_group_name_H-M   'P 1'
_cell_length_a   9.68839500
_cell_length_b   9.70031377
_cell_length_c   13.90301573
_cell_angle_alpha   89.94385112
_cell_angle_beta   90.24721758
_cell_angle_gamma   119.67458836
_symmetry_Int_Tables_number   1
_chemical_formula_structural   Na13Ca7S12Cl2O48F
_chemical_formula_sum   'Na13 Ca7 S12 Cl2 O48 F1'
_cell_volume   1135.23977239
_cell_formula_units_Z   1
loop_
 _symmetry_equiv_pos_site_id
 _symmetry_equiv_pos_as_xyz
  1  'x, y, z'
loop_
 _atom_site_type_symbol
 _atom_site_label
 _atom_site_symmetry_multiplicity
 _atom_site_fract_x
 _atom_site_fract_y
 _atom_site_fract_z
 _atom_site_occupancy
  Na  Na0  1  0.23224600  0.22836300  0.38888700  1
  Na  Na1  1  0.01099300  0.74136200  0.87105200  1
  Na  Na2  1  0.00109400  0.76925400  0.38362900  1
  Na  Na3  1  0.32257200  0.66924500  0.74734200  1
  Na  Na4  1  0.33166300  0.67140500  0.98427700  1
  Na  Na5  1  0.31764900  0.65921600  0.50502900  1
  Na  Na6  1  0.28024200  0.00513800  0.62587500  1
  Na  Na7  1  0.73141800  0.99362100  0.87074100  1
  Na  Na8  1  0.67484100  0.32798300  0.74617800  1
  Na  Na9  1  0.66074600  0.33321500  0.26081000  1
  Na  Na10  1  0.67460500  0.33737100  0.99386600  1
  Na  Na11  1  0.66415600  0.32946900  0.50478000  1
  Na  Na12  1  0.99418800  0.27324200  0.63008800  1
  Ca  Ca0  1  0.25515300  0.26066500  0.87011100  1
  Ca  Ca1  1  0.32744900  0.66243500  0.25589100  1
  Ca  Ca2  1  0.27509100  0.01039600  0.12446300  1
  Ca  Ca3  1  0.76732300  0.00271400  0.38037200  1
  Ca  Ca4  1  0.98975800  0.26408300  0.12291300  1
  Ca  Ca5  1  0.73389900  0.72270300  0.62872900  1
  Ca  Ca6  1  0.73790800  0.72275000  0.12279600  1
  S  S0  1  0.02705800  0.64456900  0.62356100  1
  S  S1  1  0.03980900  0.64454500  0.12779200  1
  S  S2  1  0.36517500  0.39107800  0.62451000  1
  S  S3  1  0.35794500  0.39550700  0.12601500  1
  S  S4  1  0.39847700  0.03354500  0.87876300  1
  S  S5  1  0.40585800  0.02452600  0.37263200  1
  S  S6  1  0.61474200  0.96778500  0.62258600  1
  S  S7  1  0.60608000  0.96245300  0.12853300  1
  S  S8  1  0.62619300  0.60073100  0.87754200  1
  S  S9  1  0.62289900  0.60044800  0.37381200  1
  S  S10  1  0.97090000  0.36695200  0.87884300  1
  S  S11  1  0.96963600  0.37349200  0.37236700  1
  Cl  Cl0  1  0.99968800  0.99959200  0.16679200  1
  Cl  Cl1  1  0.99557200  0.99612100  0.81714200  1
  O  O0  1  0.26988600  0.34753900  0.71493100  1
  O  O1  1  0.25299200  0.33192500  0.54262300  1
  O  O2  1  0.25895500  0.36593600  0.21351200  1
  O  O3  1  0.24727300  0.33089100  0.04185900  1
  O  O4  1  0.14944400  0.46059100  0.87613900  1
  O  O5  1  0.14554800  0.48131400  0.36951100  1
  O  O6  1  0.10275700  0.54293300  0.61979600  1
  O  O7  1  0.11540600  0.54125100  0.11801300  1
  O  O8  1  0.08080000  0.74386200  0.71160700  1
  O  O9  1  0.10652100  0.73790300  0.21809200  1
  O  O10  1  0.07567700  0.75215300  0.53901300  1
  O  O11  1  0.08934800  0.75735100  0.04604800  1
  O  O12  1  0.45976400  0.57036300  0.62068500  1
  O  O13  1  0.45828900  0.57299500  0.11636700  1
  O  O14  1  0.32279700  0.85809900  0.87599200  1
  O  O15  1  0.33917500  0.84844800  0.36999700  1
  O  O16  1  0.52185700  0.67216200  0.87580100  1
  O  O17  1  0.51624300  0.67225900  0.37046400  1
  O  O18  1  0.42779900  0.88403200  0.11906700  1
  O  O19  1  0.43857400  0.88520100  0.61762200  1
  O  O20  1  0.33280000  0.08359900  0.96289100  1
  O  O21  1  0.36339400  0.09820600  0.79101000  1
  O  O22  1  0.36185700  0.07798900  0.28177100  1
  O  O23  1  0.34505900  0.07139600  0.45551200  1
  O  O24  1  0.67799500  0.91825800  0.53763800  1
  O  O25  1  0.66542100  0.91047400  0.70822400  1
  O  O26  1  0.66972400  0.91061700  0.04820600  1
  O  O27  1  0.63654300  0.89992600  0.22029300  1
  O  O28  1  0.57317900  0.10853400  0.89191300  1
  O  O29  1  0.58397000  0.10587400  0.37659300  1
  O  O30  1  0.45984600  0.32106400  0.13123100  1
  O  O31  1  0.47570300  0.32618300  0.62426800  1
  O  O32  1  0.68307000  0.14221600  0.62352700  1
  O  O33  1  0.67893100  0.13788100  0.13045100  1
  O  O34  1  0.52939400  0.42364000  0.88869600  1
  O  O35  1  0.52952200  0.42529000  0.37565900  1
  O  O36  1  0.92242100  0.25530500  0.96371600  1
  O  O37  1  0.90675100  0.27275700  0.79029300  1
  O  O38  1  0.92444400  0.26574400  0.45658400  1
  O  O39  1  0.91786700  0.26692900  0.28419400  1
  O  O40  1  0.90262400  0.47289100  0.89227300  1
  O  O41  1  0.88523900  0.46534500  0.37283500  1
  O  O42  1  0.84809000  0.54170100  0.62403700  1
  O  O43  1  0.86362700  0.54441900  0.13079300  1
  O  O44  1  0.73882600  0.66186500  0.96130200  1
  O  O45  1  0.71912000  0.63424700  0.78771900  1
  O  O46  1  0.72786000  0.66266200  0.45967600  1
  O  O47  1  0.72651200  0.65278800  0.28605100  1
  F  F0  1  0.98806900  0.99901600  0.40078700  1
loop_
_geom_bond_atom_site_label_1
_geom_bond_atom_site_label_2
_geom_bond_distance
_geom_bond_site_symmetry_2
Na0 O1 2.327792 1_555
Na0 O23 2.450981 1_555
Na0 O35 2.556236 1_555
Na0 O2 2.729472 1_555
Na0 O22 2.785037 1_555
Na0 O5 2.972581 1_555
Na1 O40 2.294638 1_455
Na1 O8 2.317032 1_555
Na1 O11 2.527432 1_556
Na1 O14 2.650283 1_555
Na1 O44 2.671213 1_455
Na1 O45 2.735527 1_455
Na2 O10 2.306749 1_555
Na2 O46 2.550775 1_455
Na2 O41 2.587705 1_455
Na2 O9 2.600335 1_555
Na2 O47 2.681380 1_455
Na2 O15 2.977977 1_555
Na3 O14 2.560786 1_555
Na3 O6 2.563044 1_555
Na3 O19 2.565737 1_555
Na3 O4 2.602667 1_555
Na3 O16 2.614294 1_555
Na3 O12 2.659590 1_555
Na3 O8 2.815222 1_555
Na3 O0 2.936938 1_555
Na3 O25 3.020229 1_555
Na4 O16 2.383393 1_555
Na4 O14 2.387703 1_555
Na4 O4 2.442823 1_555
Na4 O18 2.593034 1_556
Na4 O7 2.617393 1_556
Na4 O13 2.631647 1_556
Na5 O6 2.419241 1_555
Na5 O19 2.465033 1_555
Na5 O12 2.525352 1_555
Na5 O5 2.537379 1_555
Na5 O15 2.560270 1_555
Na5 O17 2.647203 1_555
Na5 O10 2.938507 1_555
Na6 O19 2.342798 1_545
Na6 O21 2.450112 1_555
Na6 O23 2.455144 1_555
Na6 O10 2.564771 1_545
Na6 O8 2.596692 1_545
Na6 O31 2.728733 1_555
Na7 O28 2.318650 1_565
Na7 O25 2.375936 1_555
Na7 O26 2.573992 1_556
Na7 O36 2.621747 1_565
Na7 O37 2.631431 1_565
Na7 O16 2.753684 1_555
Na8 O32 2.512125 1_555
Na8 O31 2.556137 1_555
Na8 O42 2.563419 1_555
Na8 O37 2.625012 1_555
Na8 O28 2.745841 1_555
Na8 O21 2.795637 1_555
Na8 O40 2.804832 1_555
Na8 O45 2.843043 1_555
Na8 O34 2.845195 1_555
Na9 O41 2.452248 1_555
Na9 O35 2.471498 1_555
Na9 O29 2.527243 1_555
Na9 O30 2.605936 1_555
Na9 O33 2.691853 1_555
Na9 O43 2.713763 1_555
Na9 O22 2.739899 1_555
Na9 O47 2.860655 1_555
Na9 O39 2.881535 1_555
Na10 O28 2.395122 1_555
Na10 O40 2.398174 1_555
Na10 O34 2.441943 1_555
Na10 O43 2.710565 1_556
Na10 O33 2.724854 1_556
Na10 O30 2.776565 1_556
Na10 O36 2.911314 1_555
Na10 O44 2.925837 1_555
Na11 O31 2.462268 1_555
Na11 O32 2.525792 1_555
Na11 O42 2.551795 1_555
Na11 O29 2.609840 1_555
Na11 O41 2.631369 1_555
Na11 O35 2.639133 1_555
Na12 O6 2.290572 1_655
Na12 O37 2.385575 1_555
Na12 O38 2.493659 1_555
Na12 O1 2.588724 1_655
Na12 O32 2.629426 1_555
Na12 O0 2.667175 1_655
Ca0 O0 2.294601 1_555
Ca0 O34 2.336944 1_555
Ca0 O3 2.495556 1_556
Ca0 O21 2.538173 1_555
Ca0 O20 2.539017 1_555
Ca0 O4 2.604734 1_555
Ca0 Cl1 2.655176 1_445
Ca1 O15 2.363581 1_555
Ca1 O5 2.375024 1_555
Ca1 O17 2.386348 1_555
Ca1 O7 2.618416 1_555
Ca1 O9 2.633362 1_555
Ca1 O18 2.668919 1_555
Ca1 O2 2.677651 1_555
Ca1 O13 2.689967 1_555
Ca1 O27 2.774821 1_555
Ca2 O22 2.315377 1_555
Ca2 O20 2.340400 1_554
Ca2 O18 2.343894 1_545
Ca2 O11 2.463068 1_545
Ca2 O30 2.636767 1_555
Ca2 O9 2.661922 1_545
Ca2 Cl0 2.685745 1_445
Ca3 F0 2.174047 1_545
Ca3 O24 2.347682 1_545
Ca3 O29 2.432879 1_555
Ca3 O38 2.468934 1_555
Ca3 O27 2.506372 1_545
Ca3 O39 2.606320 1_555
Ca3 O17 2.913565 1_545
Ca4 O36 2.294459 1_554
Ca4 O7 2.339843 1_655
Ca4 O39 2.355079 1_555
Ca4 O3 2.517211 1_655
Ca4 O2 2.605290 1_655
Ca4 O33 2.632583 1_555
Ca4 Cl0 2.684172 1_545
Ca5 O12 2.315565 1_555
Ca5 O45 2.349503 1_555
Ca5 O46 2.415474 1_555
Ca5 O25 2.487184 1_555
Ca5 O42 2.497026 1_555
Ca5 O24 2.549959 1_555
Ca6 O44 2.323366 1_554
Ca6 O47 2.355720 1_555
Ca6 O13 2.357714 1_555
Ca6 O26 2.452591 1_555
Ca6 O43 2.563798 1_555
Ca6 Cl0 2.695234 1_555
Ca6 O27 2.728168 1_555
Cl1 Na1 2.655581 1_655
Cl1 Na7 2.657162 1_555
O0 S2 1.494637 1_555
O1 S2 1.476404 1_555
O2 S3 1.489585 1_555
O3 S3 1.495551 1_555
O4 S10 1.504474 1_455
O5 S11 1.495218 1_455
O6 S0 1.492980 1_555
O7 S1 1.512167 1_555
O8 S0 1.482393 1_555
O9 S1 1.493208 1_555
O10 S0 1.486053 1_555
O11 S1 1.483781 1_555
O12 S2 1.513067 1_555
O13 S3 1.506888 1_555
O14 S4 1.483180 1_565
O15 S5 1.497784 1_565
O16 S8 1.481820 1_555
O17 S9 1.505788 1_555
O18 S7 1.508859 1_555
O19 S6 1.484890 1_555
O20 S4 1.523849 1_555
O21 S4 1.484400 1_555
O22 S5 1.503143 1_555
O23 S5 1.467479 1_555
O24 S6 1.516599 1_555
O25 S6 1.493876 1_555
O26 S7 1.481313 1_555
O27 S7 1.501660 1_555
O28 S4 1.485228 1_555
O29 S5 1.501489 1_555
O30 S3 1.485452 1_555
O31 S2 1.486764 1_555
O32 S6 1.480635 1_545
O33 S7 1.485047 1_545
O34 S8 1.503365 1_555
O35 S9 1.477881 1_555
O36 S10 1.511460 1_555
O37 S10 1.473128 1_555
O38 S11 1.484578 1_555
O39 S11 1.518773 1_555
O40 S10 1.484246 1_555
O41 S11 1.477816 1_555
O42 S0 1.512994 1_655
O43 S1 1.489184 1_655
O44 S8 1.499400 1_555
O45 S8 1.481512 1_555
O46 S9 1.485486 1_555
O47 S9 1.502976 1_555
F0 Na2 2.306512 1_655
F0 Na0 2.316199 1_665
