# generated using pymatgen
data_Bi32P10Pb3O76
_symmetry_space_group_name_H-M   'P 1'
_cell_length_a   11.47358697
_cell_length_b   11.47358697
_cell_length_c   16.54691218
_cell_angle_alpha   80.29788396
_cell_angle_beta   80.29788396
_cell_angle_gamma   60.65829125
_symmetry_Int_Tables_number   1
_chemical_formula_structural   Bi32P10Pb3O76
_chemical_formula_sum   'Bi32 P10 Pb3 O76'
_cell_volume   1862.29674977
_cell_formula_units_Z   1
loop_
 _symmetry_equiv_pos_site_id
 _symmetry_equiv_pos_as_xyz
  1  'x, y, z'
loop_
 _atom_site_type_symbol
 _atom_site_label
 _atom_site_symmetry_multiplicity
 _atom_site_fract_x
 _atom_site_fract_y
 _atom_site_fract_z
 _atom_site_occupancy
  Bi  Bi0  1  0.07858700  0.70656700  0.18731200  1
  Bi  Bi1  1  0.51508600  0.23493900  0.59322100  1
  Bi  Bi2  1  0.94886100  0.29097900  0.80571600  1
  Bi  Bi3  1  0.70902100  0.05113900  0.19428400  1
  Bi  Bi4  1  0.94058500  0.61604700  0.79354900  1
  Bi  Bi5  1  0.33136800  0.34949400  0.97271300  1
  Bi  Bi6  1  0.65050600  0.66863200  0.02728700  1
  Bi  Bi7  1  0.83585800  0.92272200  0.60723900  1
  Bi  Bi8  1  0.63111300  0.27455100  0.78883700  1
  Bi  Bi9  1  0.76197100  0.81849600  0.40236400  1
  Bi  Bi10  1  0.10470000  0.49509600  0.39008800  1
  Bi  Bi11  1  0.72544900  0.36888700  0.21116300  1
  Bi  Bi12  1  0.52970300  0.57687500  0.59701200  1
  Bi  Bi13  1  0.50490400  0.89530000  0.60991200  1
  Bi  Bi14  1  0.42312500  0.47029700  0.40298800  1
  Bi  Bi15  1  0.42597800  0.69661500  0.20284700  1
  Bi  Bi16  1  0.07727800  0.16414200  0.39276100  1
  Bi  Bi17  1  0.76506100  0.48491400  0.40677900  1
  Bi  Bi18  1  0.32764800  0.99674200  0.00261300  1
  Bi  Bi19  1  0.30338500  0.57402200  0.79715300  1
  Bi  Bi20  1  0.85865400  0.60420900  0.60084800  1
  Bi  Bi21  1  0.98778800  0.01221200  0.00000000  1
  Bi  Bi22  1  0.59923600  0.93188900  0.82660900  1
  Bi  Bi23  1  0.00325800  0.67235200  0.99738700  1
  Bi  Bi24  1  0.39579100  0.14134600  0.39915200  1
  Bi  Bi25  1  0.06811100  0.40076400  0.17339100  1
  Bi  Bi26  1  0.65250900  0.34749100  0.00000000  1
  Bi  Bi27  1  0.18870000  0.89774200  0.60177800  1
  Bi  Bi28  1  0.10225800  0.81130000  0.39822200  1
  Bi  Bi29  1  0.29343300  0.92141300  0.81268800  1
  Bi  Bi30  1  0.38395300  0.05941500  0.20645100  1
  Bi  Bi31  1  0.18150400  0.23802900  0.59763600  1
  P  P0  1  0.73921900  0.69548000  0.20852500  1
  P  P1  1  0.86083700  0.25038500  0.59993600  1
  P  P2  1  0.74961500  0.13916300  0.40006400  1
  P  P3  1  0.30452000  0.26078100  0.79147500  1
  P  P4  1  0.18175400  0.57701200  0.58488000  1
  P  P5  1  0.97517500  0.34660000  0.99268700  1
  P  P6  1  0.65340000  0.02482500  0.00731300  1
  P  P7  1  0.42298800  0.81824600  0.41512000  1
  P  P8  1  0.97904900  0.91981000  0.80044000  1
  P  P9  1  0.08019000  0.02095100  0.19956000  1
  Pb  Pb0  1  0.39190000  0.38069200  0.19147300  1
  Pb  Pb1  1  0.61930800  0.60810000  0.80852700  1
  Pb  Pb2  1  0.33193700  0.66806300  0.00000000  1
  O  O0  1  0.62524200  0.03050000  0.64146500  1
  O  O1  1  0.11601500  0.50581900  0.25907400  1
  O  O2  1  0.30077000  0.92694000  0.46794300  1
  O  O3  1  0.97328800  0.03124200  0.14700400  1
  O  O4  1  0.59708400  0.54245800  0.12988900  1
  O  O5  1  0.54810400  0.74586100  0.46660100  1
  O  O6  1  0.11489000  0.87521300  0.74121100  1
  O  O7  1  0.85377300  0.00623000  0.44515500  1
  O  O8  1  0.83227500  0.74850300  0.68794100  1
  O  O9  1  0.20889700  0.00553700  0.14261800  1
  O  O10  1  0.60755500  0.77997700  0.16600200  1
  O  O11  1  0.60336000  0.93834300  0.97452700  1
  O  O12  1  0.07306000  0.69923000  0.53205700  1
  O  O13  1  0.02518200  0.14287000  0.24949400  1
  O  O14  1  0.25154100  0.02731400  0.63800100  1
  O  O15  1  0.84261800  0.60774700  0.43654700  1
  O  O16  1  0.81311400  0.39330700  0.54922200  1
  O  O17  1  0.85529200  0.62322300  0.14101500  1
  O  O18  1  0.99446300  0.79110300  0.85738200  1
  O  O19  1  0.06676800  0.79731500  0.04207700  1
  O  O20  1  0.20898100  0.56556500  0.93463600  1
  O  O21  1  0.38153600  0.71476800  0.39812800  1
  O  O22  1  0.39225300  0.15738100  0.56345300  1
  O  O23  1  0.12478700  0.88511000  0.25878900  1
  O  O24  1  0.45705200  0.89148400  0.33607800  1
  O  O25  1  0.29089800  0.63972800  0.16049800  1
  O  O26  1  0.92499100  0.42966700  0.90805900  1
  O  O27  1  0.52673000  0.47787000  0.72102500  1
  O  O28  1  0.44067700  0.40935700  0.04007100  1
  O  O29  1  0.51016700  0.11653900  0.25840800  1
  O  O30  1  0.84944500  0.37164500  0.05558300  1
  O  O31  1  0.18417200  0.23243500  0.46304500  1
  O  O32  1  0.49418100  0.88398500  0.74092600  1
  O  O33  1  0.73955200  0.10955800  0.31366700  1
  O  O34  1  0.12310300  0.55037000  0.10294000  1
  O  O35  1  0.78953200  0.25231600  0.38872900  1
  O  O36  1  0.23144900  0.61114600  0.35908900  1
  O  O37  1  0.80277300  0.94151800  0.02484600  1
  O  O38  1  0.28114700  0.26407600  0.14090900  1
  O  O39  1  0.62835500  0.15055500  0.94441700  1
  O  O40  1  0.34323700  0.34959600  0.36662600  1
  O  O41  1  0.88346100  0.48983300  0.74159200  1
  O  O42  1  0.65824800  0.26093800  0.14987300  1
  O  O43  1  0.22002300  0.39244500  0.83399800  1
  O  O44  1  0.10851600  0.54294800  0.66392200  1
  O  O45  1  0.25149700  0.16772500  0.31205900  1
  O  O46  1  0.96875800  0.02671200  0.85299600  1
  O  O47  1  0.28523200  0.61846400  0.60187200  1
  O  O48  1  0.37677700  0.14470800  0.85898500  1
  O  O49  1  0.52213000  0.47327000  0.27897500  1
  O  O50  1  0.25413900  0.45189600  0.53339900  1
  O  O51  1  0.06165700  0.39664000  0.02547300  1
  O  O52  1  0.38885400  0.76855100  0.64091100  1
  O  O53  1  0.99377000  0.14622700  0.55484500  1
  O  O54  1  0.76756500  0.81582800  0.53695500  1
  O  O55  1  0.72378300  0.58260200  0.27179700  1
  O  O56  1  0.74768400  0.21046800  0.61127100  1
  O  O57  1  0.57033300  0.07500900  0.09194100  1
  O  O58  1  0.65040400  0.65676300  0.63337400  1
  O  O59  1  0.43443500  0.79101900  0.06536400  1
  O  O60  1  0.96950000  0.37475800  0.35853500  1
  O  O61  1  0.21662300  0.22751200  0.74729500  1
  O  O62  1  0.59064300  0.55932300  0.95992900  1
  O  O63  1  0.89044200  0.26044800  0.68633300  1
  O  O64  1  0.36027200  0.70910200  0.83950200  1
  O  O65  1  0.44963000  0.87689700  0.89706000  1
  O  O66  1  0.20268500  0.93323200  0.95792300  1
  O  O67  1  0.45754200  0.40291600  0.87011100  1
  O  O68  1  0.05848200  0.19722700  0.97515400  1
  O  O69  1  0.73592400  0.71885300  0.85909100  1
  O  O70  1  0.85713000  0.97481800  0.75050600  1
  O  O71  1  0.41739800  0.27621700  0.72820300  1
  O  O72  1  0.97268600  0.74845900  0.36199900  1
  O  O73  1  0.77248800  0.78337700  0.25270500  1
  O  O74  1  0.60669300  0.18688600  0.45077800  1
  O  O75  1  0.73906200  0.34175200  0.85012700  1
loop_
_geom_bond_atom_site_label_1
_geom_bond_atom_site_label_2
_geom_bond_distance
_geom_bond_site_symmetry_2
Bi0 O25 2.153718 1_555
Bi0 O34 2.264423 1_555
Bi0 O1 2.276022 1_555
Bi0 O19 2.450697 1_555
Bi1 O0 2.130783 1_555
Bi1 O22 2.152095 1_555
Bi1 O71 2.337043 1_555
Bi1 O74 2.449327 1_555
Bi1 O56 2.606957 1_555
Bi2 O41 2.160788 1_555
Bi2 O75 2.201712 1_555
Bi2 O63 2.320321 1_555
Bi2 O26 2.408261 1_555
Bi3 O29 2.160788 1_555
Bi3 O42 2.201712 1_555
Bi3 O33 2.320321 1_555
Bi3 O57 2.408261 1_555
Bi4 O41 2.192146 1_555
Bi4 O8 2.212145 1_555
Bi4 O69 2.222576 1_555
Bi4 O44 2.578030 1_655
Bi4 O26 2.662741 1_555
Bi4 O18 2.771981 1_555
Bi5 O28 2.204617 1_556
Bi5 O20 2.207898 1_555
Bi5 O67 2.245944 1_555
Bi6 O62 2.204617 1_554
Bi6 O59 2.207898 1_555
Bi6 O4 2.245944 1_555
Bi7 O0 2.129707 1_565
Bi7 O8 2.223266 1_555
Bi7 O54 2.280444 1_555
Bi7 O70 2.617690 1_555
Bi7 O7 2.700819 1_565
Bi8 O75 2.186297 1_555
Bi8 O67 2.198665 1_555
Bi8 O27 2.228894 1_555
Bi8 O39 2.726647 1_555
Bi8 O71 2.792218 1_555
Bi9 O15 2.132071 1_555
Bi9 O72 2.160917 1_555
Bi9 O54 2.233417 1_555
Bi9 O73 2.549001 1_555
Bi10 O1 2.136019 1_555
Bi10 O36 2.359448 1_555
Bi10 O40 2.410541 1_555
Bi10 O72 2.535247 1_455
Bi10 O15 2.655275 1_455
Bi10 O60 2.683327 1_455
Bi10 O31 2.796902 1_555
Bi11 O42 2.186297 1_555
Bi11 O4 2.198665 1_555
Bi11 O49 2.228894 1_555
Bi11 O30 2.726647 1_555
Bi11 O55 2.792218 1_555
Bi12 O52 2.153019 1_555
Bi12 O27 2.175105 1_555
Bi12 O58 2.197912 1_555
Bi12 O47 2.593671 1_555
Bi12 O5 2.701438 1_555
Bi13 O32 2.136019 1_555
Bi13 O52 2.359448 1_555
Bi13 O58 2.410541 1_555
Bi13 O14 2.535247 1_565
Bi13 O22 2.655265 1_565
Bi13 O0 2.683327 1_565
Bi13 O54 2.796902 1_555
Bi14 O36 2.153019 1_555
Bi14 O49 2.175105 1_555
Bi14 O40 2.197912 1_555
Bi14 O21 2.593671 1_555
Bi14 O50 2.701438 1_555
Bi15 O25 2.197886 1_555
Bi15 O4 2.226611 1_555
Bi15 O59 2.357110 1_555
Bi15 O49 2.445488 1_555
Bi15 O10 2.637237 1_555
Bi16 O60 2.129707 1_455
Bi16 O45 2.223266 1_555
Bi16 O31 2.280444 1_555
Bi16 O13 2.617690 1_555
Bi16 O53 2.700819 1_455
Bi17 O60 2.130783 1_555
Bi17 O15 2.152086 1_555
Bi17 O55 2.337043 1_555
Bi17 O16 2.449327 1_555
Bi17 O35 2.606957 1_555
Bi18 O66 2.167122 1_554
Bi18 O59 2.217924 1_555
Bi18 O65 2.235979 1_554
Bi18 O9 2.472575 1_565
Bi19 O64 2.197886 1_555
Bi19 O67 2.226611 1_555
Bi19 O20 2.357110 1_555
Bi19 O27 2.445488 1_555
Bi19 O43 2.637237 1_555
Bi20 O58 2.150888 1_555
Bi20 O8 2.252869 1_555
Bi20 O54 2.263986 1_555
Bi20 O41 2.460506 1_555
Bi20 O15 2.747866 1_555
Bi21 O19 2.197642 1_645
Bi21 O66 2.197642 1_644
Bi21 O46 2.449334 1_554
Bi21 O3 2.449334 1_555
Bi21 O37 2.571778 1_545
Bi21 O68 2.571778 1_654
Bi22 O69 2.192591 1_555
Bi22 O65 2.200582 1_555
Bi22 O32 2.291950 1_555
Bi22 O11 2.470214 1_555
Bi22 O48 2.576072 1_565
Bi23 O19 2.167122 1_556
Bi23 O20 2.217924 1_555
Bi23 O34 2.235979 1_556
Bi23 O18 2.472575 1_455
Bi24 O40 2.150888 1_555
Bi24 O45 2.252869 1_555
Bi24 O31 2.263986 1_555
Bi24 O29 2.460506 1_555
Bi24 O22 2.747864 1_555
Bi25 O38 2.192591 1_555
Bi25 O34 2.200582 1_555
Bi25 O1 2.291950 1_555
Bi25 O51 2.470214 1_555
Bi25 O17 2.576072 1_455
Bi26 O28 2.185266 1_555
Bi26 O62 2.185266 1_554
Bi26 O75 2.510276 1_554
Bi26 O42 2.510276 1_555
Bi26 O30 2.725506 1_555
Bi26 O39 2.725506 1_554
Bi27 O14 2.141436 1_565
Bi27 O52 2.175299 1_555
Bi27 O6 2.337107 1_555
Bi27 O2 2.425328 1_555
Bi27 O53 2.706209 1_465
Bi27 O47 2.831101 1_555
Bi28 O72 2.141436 1_455
Bi28 O36 2.175299 1_555
Bi28 O23 2.337107 1_555
Bi28 O12 2.425328 1_555
Bi28 O7 2.706209 1_465
Bi28 O21 2.831101 1_555
Bi29 O64 2.153718 1_555
Bi29 O65 2.264423 1_555
Bi29 O32 2.276022 1_555
Bi29 O66 2.450697 1_555
Bi30 O29 2.192146 1_555
Bi30 O45 2.212145 1_555
Bi30 O38 2.222576 1_555
Bi30 O24 2.578030 1_545
Bi30 O57 2.662741 1_555
Bi30 O9 2.771981 1_555
Bi31 O22 2.132070 1_555
Bi31 O14 2.160917 1_555
Bi31 O31 2.233417 1_555
Bi31 O61 2.549001 1_555
O1 Pb0 2.868138 1_555
O2 P7 1.589356 1_555
O3 P9 1.567678 1_655
O5 P7 1.575257 1_555
O6 P8 1.588746 1_455
O7 P2 1.562624 1_555
O9 P9 1.559173 1_555
O10 P0 1.552450 1_555
O11 P6 1.566290 1_566
O12 P4 1.589356 1_555
O13 P9 1.544787 1_555
O16 P1 1.582446 1_555
O17 P0 1.561240 1_555
O18 P8 1.559173 1_555
O19 Pb2 2.674448 1_555
O20 Pb2 2.666826 1_556
O21 P7 1.557506 1_555
O23 P9 1.588746 1_565
O24 P7 1.532517 1_555
O25 Pb0 2.598111 1_555
O25 Pb2 2.611116 1_555
O26 P5 1.576366 1_555
O27 Pb1 2.874077 1_555
O28 Pb0 2.475417 1_555
O28 Pb2 2.606342 1_555
O29 Pb0 2.756501 1_555
O30 P5 1.560525 1_554
O32 Pb1 2.868138 1_555
O33 P2 1.558916 1_555
O35 P2 1.549884 1_555
O37 P6 1.550395 1_565
O38 Pb0 2.550887 1_555
O39 P6 1.560525 1_556
O40 Pb0 2.853090 1_555
O41 Pb1 2.756501 1_555
O42 Pb0 2.682413 1_555
O43 P3 1.552450 1_555
O44 P4 1.532517 1_555
O46 P8 1.567678 1_545
O47 P4 1.557506 1_555
O48 P3 1.561240 1_555
O49 Pb0 2.874077 1_555
O50 P4 1.575257 1_555
O51 P5 1.566290 1_454
O53 P1 1.562624 1_555
O55 P0 1.584325 1_555
O56 P1 1.549884 1_555
O57 P6 1.576366 1_555
O58 Pb1 2.853090 1_555
O59 Pb2 2.666826 1_555
O61 P3 1.554672 1_555
O62 Pb1 2.475417 1_555
O62 Pb2 2.606342 1_556
O63 P1 1.558916 1_555
O64 Pb1 2.598111 1_555
O64 Pb2 2.611116 1_556
O66 Pb2 2.674448 1_556
O68 P5 1.550395 1_455
O69 Pb1 2.550887 1_555
O70 P8 1.544787 1_555
O71 P3 1.584325 1_555
O73 P0 1.554672 1_555
O74 P2 1.582446 1_555
O75 Pb1 2.682413 1_555
