# generated using pymatgen
data_Mg3Ru2
_symmetry_space_group_name_H-M   'P 1'
_cell_length_a   6.90535348
_cell_length_b   6.90535348
_cell_length_c   6.90535348
_cell_angle_alpha   90.00000000
_cell_angle_beta   90.00000000
_cell_angle_gamma   90.00000000
_symmetry_Int_Tables_number   1
_chemical_formula_structural   Mg3Ru2
_chemical_formula_sum   'Mg12 Ru8'
_cell_volume   329.27423096
_cell_formula_units_Z   4
loop_
 _symmetry_equiv_pos_site_id
 _symmetry_equiv_pos_as_xyz
  1  'x, y, z'
loop_
 _atom_site_type_symbol
 _atom_site_label
 _atom_site_symmetry_multiplicity
 _atom_site_fract_x
 _atom_site_fract_y
 _atom_site_fract_z
 _atom_site_occupancy
  Mg  Mg0  1  0.62500000  0.29392738  0.54392738  1
  Mg  Mg1  1  0.70607262  0.04392738  0.87500000  1
  Mg  Mg2  1  0.54392738  0.62500000  0.29392738  1
  Mg  Mg3  1  0.95607262  0.37500000  0.79392738  1
  Mg  Mg4  1  0.29392738  0.54392738  0.62500000  1
  Mg  Mg5  1  0.45607262  0.12500000  0.20607262  1
  Mg  Mg6  1  0.04392738  0.87500000  0.70607262  1
  Mg  Mg7  1  0.79392738  0.95607262  0.37500000  1
  Mg  Mg8  1  0.12500000  0.20607262  0.45607262  1
  Mg  Mg9  1  0.37500000  0.79392738  0.95607262  1
  Mg  Mg10  1  0.87500000  0.70607262  0.04392738  1
  Mg  Mg11  1  0.20607262  0.45607262  0.12500000  1
  Ru  Ru0  1  0.67504170  0.67504170  0.67504170  1
  Ru  Ru1  1  0.92504170  0.57495830  0.42504170  1
  Ru  Ru2  1  0.57495830  0.42504170  0.92504170  1
  Ru  Ru3  1  0.42504170  0.92504170  0.57495830  1
  Ru  Ru4  1  0.17504170  0.82495830  0.32495830  1
  Ru  Ru5  1  0.82495830  0.32495830  0.17504170  1
  Ru  Ru6  1  0.32495830  0.17504170  0.82495830  1
  Ru  Ru7  1  0.07495830  0.07495830  0.07495830  1
loop_
_geom_bond_atom_site_label_1
_geom_bond_atom_site_label_2
_geom_bond_distance
_geom_bond_site_symmetry_2
Mg0 Ru0 2.804486 1_555
Mg0 Ru2 2.804486 1_555
Mg0 Mg7 2.857338 1_545
Mg0 Mg5 2.857338 1_555
Mg0 Ru5 2.905364 1_555
Mg0 Ru3 2.905364 1_545
Mg0 Mg4 2.918946 1_555
Mg0 Mg3 2.918946 1_555
Mg0 Mg2 2.918946 1_555
Mg0 Mg1 2.918946 1_555
Mg0 Ru1 2.955114 1_555
Mg0 Ru6 2.955114 1_555
Mg1 Ru2 2.804486 1_555
Mg1 Ru6 2.804486 1_555
Mg1 Mg6 2.857338 1_645
Mg1 Mg10 2.857338 1_546
Mg1 Ru7 2.905364 1_656
Mg1 Ru0 2.905364 1_545
Mg1 Mg3 2.918946 1_555
Mg1 Mg5 2.918946 1_556
Mg1 Mg9 2.918946 1_545
Mg1 Ru5 2.955114 1_556
Mg1 Ru3 2.955114 1_545
Mg2 Ru0 2.804486 1_555
Mg2 Ru1 2.804486 1_555
Mg2 Mg9 2.857338 1_554
Mg2 Ru4 2.905364 1_555
Mg2 Ru2 2.905364 1_554
Mg2 Mg4 2.918946 1_555
Mg2 Mg7 2.918946 1_555
Mg2 Ru3 2.955114 1_555
Mg2 Ru5 2.955114 1_555
Mg3 Ru2 2.804486 1_555
Mg3 Ru5 2.804486 1_556
Mg3 Mg4 2.857338 1_655
Mg3 Mg8 2.857338 1_655
Mg3 Ru1 2.905364 1_555
Mg3 Ru6 2.905364 1_655
Mg3 Ru0 2.955114 1_555
Mg3 Ru7 2.955114 1_656
Mg4 Ru0 2.804486 1_555
Mg4 Ru3 2.804486 1_555
Mg4 Mg8 2.857338 1_555
Mg4 Ru6 2.905364 1_555
Mg4 Ru1 2.905364 1_455
Mg4 Mg9 2.918946 1_555
Mg4 Mg6 2.918946 1_555
Mg4 Ru2 2.955114 1_555
Mg4 Ru4 2.955114 1_555
Mg5 Ru6 2.804486 1_554
Mg5 Ru7 2.804486 1_555
Mg5 Mg7 2.857338 1_545
Mg5 Ru3 2.905364 1_545
Mg5 Ru5 2.905364 1_555
Mg5 Mg8 2.918946 1_555
Mg5 Mg9 2.918946 1_544
Mg5 Ru4 2.955114 1_545
Mg5 Ru2 2.955114 1_554
Mg6 Ru3 2.804486 1_555
Mg6 Ru4 2.804486 1_555
Mg6 Ru7 2.905364 1_566
Mg6 Ru0 2.905364 1_455
Mg6 Mg9 2.918946 1_555
Mg6 Mg7 2.918946 1_455
Mg6 Mg8 2.918946 1_565
Mg6 Ru6 2.955114 1_565
Mg6 Ru1 2.955114 1_455
Mg7 Ru1 2.804486 1_555
Mg7 Ru4 2.804486 1_655
Mg7 Ru3 2.905364 1_555
Mg7 Ru5 2.905364 1_565
Mg7 Mg8 2.918946 1_665
Mg7 Ru7 2.955114 1_665
Mg7 Ru0 2.955114 1_555
Mg8 Ru4 2.804486 1_545
Mg8 Ru7 2.804486 1_555
Mg8 Ru1 2.905364 1_455
Mg8 Ru6 2.905364 1_555
Mg8 Ru5 2.955114 1_455
Mg8 Ru3 2.955114 1_545
Mg9 Ru6 2.804486 1_565
Mg9 Ru3 2.804486 1_555
Mg9 Ru2 2.905364 1_555
Mg9 Ru4 2.905364 1_556
Mg9 Ru7 2.955114 1_566
Mg9 Ru0 2.955114 1_555
Mg10 Ru1 2.804486 1_555
Mg10 Ru5 2.804486 1_555
Mg10 Mg6 2.857338 1_654
Mg10 Ru7 2.905364 1_665
Mg10 Ru0 2.905364 1_554
Mg10 Mg7 2.918946 1_555
Mg10 Mg2 2.918946 1_555
Mg10 Mg3 2.918946 1_554
Mg10 Mg11 2.918946 1_655
Mg10 Ru4 2.955114 1_655
Mg10 Ru2 2.955114 1_554
Mg11 Ru5 2.804486 1_455
Mg11 Ru7 2.804486 1_555
Mg11 Mg9 2.857338 1_554
Mg11 Mg2 2.857338 1_555
Mg11 Ru2 2.905364 1_554
Mg11 Ru4 2.905364 1_555
Mg11 Mg5 2.918946 1_555
Mg11 Mg8 2.918946 1_555
Mg11 Mg3 2.918946 1_454
Mg11 Ru6 2.955114 1_554
Mg11 Ru1 2.955114 1_455
Ru0 Ru1 2.537346 1_555
Ru0 Ru2 2.537346 1_555
Ru0 Ru3 2.537346 1_555
Ru1 Ru5 2.537346 1_555
Ru1 Ru4 2.537346 1_655
Ru2 Ru5 2.537346 1_556
Ru2 Ru6 2.537346 1_555
Ru3 Ru6 2.537346 1_565
Ru3 Ru4 2.537346 1_555
Ru4 Ru7 2.537346 1_565
Ru5 Ru7 2.537346 1_655
Ru6 Ru7 2.537346 1_556
