# generated using pymatgen
data_Al(HO)3
_symmetry_space_group_name_H-M   'P 1'
_cell_length_a   8.79621800
_cell_length_b   5.20362900
_cell_length_c   9.33846881
_cell_angle_alpha   89.09115950
_cell_angle_beta   90.00000000
_cell_angle_gamma   90.00000000
_symmetry_Int_Tables_number   1
_chemical_formula_structural   Al(HO)3
_chemical_formula_sum   'Al8 H24 O24'
_cell_volume   427.38900268
_cell_formula_units_Z   8
loop_
 _symmetry_equiv_pos_site_id
 _symmetry_equiv_pos_as_xyz
  1  'x, y, z'
loop_
 _atom_site_type_symbol
 _atom_site_label
 _atom_site_symmetry_multiplicity
 _atom_site_fract_x
 _atom_site_fract_y
 _atom_site_fract_z
 _atom_site_occupancy
  Al  Al0  1  0.66873400  0.98365500  0.50635200  1
  Al  Al1  1  0.33126600  0.01634500  0.49364800  1
  Al  Al2  1  0.16873400  0.51634500  0.49364800  1
  Al  Al3  1  0.83126600  0.48365500  0.50635200  1
  Al  Al4  1  0.16882600  0.97638500  0.99323700  1
  Al  Al5  1  0.83117400  0.02361500  0.00676300  1
  Al  Al6  1  0.66882600  0.52361500  0.00676300  1
  Al  Al7  1  0.33117400  0.47638500  0.99323700  1
  H  H0  1  0.98837000  0.80506500  0.37841900  1
  H  H1  1  0.01163000  0.19493500  0.62158100  1
  H  H2  1  0.48837000  0.69493500  0.62158100  1
  H  H3  1  0.51163000  0.30506500  0.37841900  1
  H  H4  1  0.86242900  0.14946200  0.31002100  1
  H  H5  1  0.13757100  0.85053800  0.68997900  1
  H  H6  1  0.36242900  0.35053800  0.68997900  1
  H  H7  1  0.63757100  0.64946200  0.31002100  1
  H  H8  1  0.13361800  0.17121100  0.30248100  1
  H  H9  1  0.86638200  0.82878900  0.69751900  1
  H  H10  1  0.63361800  0.32878900  0.69751900  1
  H  H11  1  0.36638200  0.67121100  0.30248100  1
  H  H12  1  0.01741400  0.30400400  0.11230200  1
  H  H13  1  0.98258600  0.69599600  0.88769800  1
  H  H14  1  0.51741400  0.19599600  0.88769800  1
  H  H15  1  0.48258600  0.80400400  0.11230200  1
  H  H16  1  0.34276300  0.14206900  0.19667500  1
  H  H17  1  0.65723700  0.85793100  0.80332500  1
  H  H18  1  0.84276300  0.35793100  0.80332500  1
  H  H19  1  0.15723700  0.64206900  0.19667500  1
  H  H20  1  0.13933900  0.32900800  0.79886400  1
  H  H21  1  0.86066100  0.67099200  0.20113600  1
  H  H22  1  0.63933900  0.17099200  0.20113600  1
  H  H23  1  0.36066100  0.82900800  0.79886400  1
  O  O0  1  0.99055500  0.61710400  0.38157000  1
  O  O1  1  0.00944500  0.38289600  0.61843000  1
  O  O2  1  0.49055500  0.88289600  0.61843000  1
  O  O3  1  0.50944500  0.11710400  0.38157000  1
  O  O4  1  0.82456800  0.16963900  0.40771200  1
  O  O5  1  0.17543200  0.83036100  0.59228800  1
  O  O6  1  0.32456800  0.33036100  0.59228800  1
  O  O7  1  0.67543200  0.66963900  0.40771200  1
  O  O8  1  0.19753700  0.22386000  0.38140200  1
  O  O9  1  0.80246300  0.77614000  0.61859800  1
  O  O10  1  0.69753700  0.27614000  0.61859800  1
  O  O11  1  0.30246300  0.72386000  0.38140200  1
  O  O12  1  0.00931300  0.11639500  0.11878000  1
  O  O13  1  0.99068700  0.88360500  0.88122000  1
  O  O14  1  0.50931300  0.38360500  0.88122000  1
  O  O15  1  0.49068700  0.61639500  0.11878000  1
  O  O16  1  0.32604000  0.15366100  0.09399700  1
  O  O17  1  0.67396000  0.84633900  0.90600300  1
  O  O18  1  0.82604000  0.34633900  0.90600300  1
  O  O19  1  0.17396000  0.65366100  0.09399700  1
  O  O20  1  0.19566900  0.27749500  0.88405200  1
  O  O21  1  0.80433100  0.72250500  0.11594800  1
  O  O22  1  0.69566900  0.22250500  0.11594800  1
  O  O23  1  0.30433100  0.77749500  0.88405200  1
loop_
_geom_bond_atom_site_label_1
_geom_bond_atom_site_label_2
_geom_bond_distance
_geom_bond_site_symmetry_2
Al0 O10 1.878821 1_565
Al0 O7 1.889381 1_555
Al0 O9 1.900676 1_555
Al0 O4 1.906779 1_565
Al0 O3 1.943606 1_565
Al0 O2 1.951763 1_555
Al1 O11 1.878821 1_545
Al1 O6 1.889381 1_555
Al1 O8 1.900676 1_555
Al1 O5 1.906779 1_545
Al1 O2 1.943606 1_545
Al1 O3 1.951763 1_555
Al2 O8 1.878821 1_555
Al2 O5 1.889381 1_555
Al2 O11 1.900676 1_555
Al2 O6 1.906779 1_555
Al2 O1 1.943606 1_555
Al2 O0 1.951763 1_455
Al3 O9 1.878821 1_555
Al3 O4 1.889381 1_555
Al3 O10 1.900676 1_555
Al3 O7 1.906779 1_555
Al3 O0 1.943606 1_555
Al3 O1 1.951763 1_655
Al4 O20 1.870765 1_565
Al4 O23 1.888101 1_555
Al4 O19 1.912448 1_556
Al4 O16 1.917357 1_566
Al4 O13 1.949025 1_455
Al4 O12 1.975118 1_566
Al5 O21 1.870765 1_545
Al5 O22 1.888101 1_555
Al5 O18 1.912448 1_554
Al5 O17 1.917357 1_544
Al5 O12 1.949025 1_655
Al5 O13 1.975118 1_544
Al6 O22 1.870765 1_555
Al6 O21 1.888101 1_555
Al6 O17 1.912448 1_554
Al6 O18 1.917357 1_554
Al6 O15 1.949025 1_555
Al6 O14 1.975118 1_554
Al7 O23 1.870765 1_555
Al7 O20 1.888101 1_555
Al7 O16 1.912448 1_556
Al7 O19 1.917357 1_556
Al7 O14 1.949025 1_555
Al7 O15 1.975118 1_556
H0 O0 0.978244 1_555
H1 O1 0.978244 1_555
H2 O2 0.978244 1_555
H3 O3 0.978244 1_555
H4 O4 0.978385 1_555
H5 O5 0.978385 1_555
H6 O6 0.978385 1_555
H7 O7 0.978385 1_555
H8 O8 0.969924 1_555
H9 O9 0.969924 1_555
H10 O10 0.969924 1_555
H11 O11 0.969924 1_555
H12 O12 0.979757 1_555
H13 O13 0.979757 1_555
H14 O14 0.979757 1_555
H15 O15 0.979757 1_555
H16 O16 0.971002 1_555
H17 O17 0.971002 1_555
H18 O18 0.971002 1_555
H19 O19 0.971002 1_555
H20 O20 0.971319 1_555
H21 O21 0.971319 1_555
H22 O22 0.971319 1_555
H23 O23 0.971319 1_555
