# generated using pymatgen
data_MnP2O7
_symmetry_space_group_name_H-M   'P 1'
_cell_length_a   5.01705600
_cell_length_b   6.30931234
_cell_length_c   8.46170891
_cell_angle_alpha   110.34020132
_cell_angle_beta   90.14665044
_cell_angle_gamma   92.95130577
_symmetry_Int_Tables_number   1
_chemical_formula_structural   MnP2O7
_chemical_formula_sum   'Mn2 P4 O14'
_cell_volume   250.75382545
_cell_formula_units_Z   2
loop_
 _symmetry_equiv_pos_site_id
 _symmetry_equiv_pos_as_xyz
  1  'x, y, z'
loop_
 _atom_site_type_symbol
 _atom_site_label
 _atom_site_symmetry_multiplicity
 _atom_site_fract_x
 _atom_site_fract_y
 _atom_site_fract_z
 _atom_site_occupancy
  Mn  Mn0  1  0.23935200  0.29246100  0.72709600  1
  Mn  Mn1  1  0.76064800  0.70753900  0.27290400  1
  P  P0  1  0.70452000  0.93716600  0.65686900  1
  P  P1  1  0.21904800  0.35695800  0.13845900  1
  P  P2  1  0.78095200  0.64304200  0.86154100  1
  P  P3  1  0.29548000  0.06283400  0.34313100  1
  O  O0  1  0.74150100  0.87173300  0.82265200  1
  O  O1  1  0.06181100  0.57410000  0.79719300  1
  O  O2  1  0.76358100  0.72467900  0.05199100  1
  O  O3  1  0.56626100  0.46735900  0.76579800  1
  O  O4  1  0.23641900  0.27532100  0.94800900  1
  O  O5  1  0.58466200  0.99070600  0.34094900  1
  O  O6  1  0.74572100  0.71938500  0.50576700  1
  O  O7  1  0.25427900  0.28061500  0.49423300  1
  O  O8  1  0.25849900  0.12826700  0.17734800  1
  O  O9  1  0.41533800  0.00929400  0.65905100  1
  O  O10  1  0.43373900  0.53264100  0.23420200  1
  O  O11  1  0.93818900  0.42590000  0.20280700  1
  O  O12  1  0.90191900  0.13377800  0.67234500  1
  O  O13  1  0.09808100  0.86622200  0.32765500  1
loop_
_geom_bond_atom_site_label_1
_geom_bond_atom_site_label_2
_geom_bond_distance
_geom_bond_site_symmetry_2
Mn0 O3 1.890657 1_555
Mn0 O12 1.892611 1_455
Mn0 O4 1.909636 1_555
Mn0 O1 1.932807 1_555
Mn0 O9 1.937241 1_555
Mn0 O7 1.947485 1_555
Mn1 O10 1.890657 1_555
Mn1 O13 1.892611 1_655
Mn1 O2 1.909636 1_555
Mn1 O11 1.932807 1_555
Mn1 O5 1.937241 1_555
Mn1 O6 1.947485 1_555
O0 P0 1.606825 1_555
O0 P2 1.608890 1_555
O1 P2 1.540647 1_455
O2 P2 1.515991 1_554
O3 P2 1.514421 1_555
O4 P1 1.515991 1_556
O5 P3 1.540995 1_565
O6 P0 1.541032 1_555
O7 P3 1.541032 1_555
O8 P3 1.606825 1_555
O8 P1 1.608890 1_555
O9 P0 1.540995 1_545
O10 P1 1.514421 1_555
O11 P1 1.540647 1_655
O12 P0 1.515477 1_545
O13 P3 1.515477 1_565
