# generated using pymatgen
data_V25O32
_symmetry_space_group_name_H-M   'P 1'
_cell_length_a   9.61736501
_cell_length_b   9.61736501
_cell_length_c   8.67943986
_cell_angle_alpha   63.83038470
_cell_angle_beta   63.83038470
_cell_angle_gamma   79.17065008
_symmetry_Int_Tables_number   1
_chemical_formula_structural   V25O32
_chemical_formula_sum   'V25 O32'
_cell_volume   646.62241556
_cell_formula_units_Z   1
loop_
 _symmetry_equiv_pos_site_id
 _symmetry_equiv_pos_as_xyz
  1  'x, y, z'
loop_
 _atom_site_type_symbol
 _atom_site_label
 _atom_site_symmetry_multiplicity
 _atom_site_fract_x
 _atom_site_fract_y
 _atom_site_fract_z
 _atom_site_occupancy
  V  V0  1  0.37842000  0.62158000  0.00000000  1
  V  V1  1  0.37928500  0.86571300  0.13463600  1
  V  V2  1  0.11670400  0.61733100  0.38291300  1
  V  V3  1  0.25369200  0.24452000  0.12523400  1
  V  V4  1  0.63079600  0.36920400  0.00000000  1
  V  V5  1  0.60872400  0.86308200  0.25262300  1
  V  V6  1  0.87352100  0.61888000  0.24613000  1
  V  V7  1  0.13414100  0.86585900  0.50000000  1
  V  V8  1  0.87437300  0.37508400  0.12733500  1
  V  V9  1  0.87070100  0.87758400  0.38220800  1
  V  V10  1  0.61068900  0.11790100  0.38307700  1
  V  V11  1  0.37670400  0.39148900  0.35849800  1
  V  V12  1  0.60851100  0.62329600  0.64150200  1
  V  V13  1  0.38266900  0.88329600  0.61708700  1
  V  V14  1  0.12241600  0.12929900  0.61779200  1
  V  V15  1  0.13428700  0.62071500  0.86536400  1
  V  V16  1  0.60898000  0.39102000  0.50000000  1
  V  V17  1  0.87763100  0.12236900  0.50000000  1
  V  V18  1  0.38112000  0.12647900  0.75387000  1
  V  V19  1  0.13691800  0.39127600  0.74737700  1
  V  V20  1  0.12031500  0.87968500  0.00000000  1
  V  V21  1  0.75548000  0.74630800  0.87476600  1
  V  V22  1  0.88209900  0.38931100  0.61692300  1
  V  V23  1  0.62491600  0.12562700  0.87266500  1
  V  V24  1  0.88437900  0.11562100  0.00000000  1
  O  O0  1  0.11958000  0.63530400  0.11979800  1
  O  O1  1  0.62263800  0.87789900  0.00515400  1
  O  O2  1  0.88595400  0.62100900  0.00700000  1
  O  O3  1  0.11996800  0.85333600  0.26796400  1
  O  O4  1  0.34973800  0.62044900  0.25059200  1
  O  O5  1  0.64098600  0.11249600  0.11937200  1
  O  O6  1  0.86349100  0.86129800  0.15721700  1
  O  O7  1  0.38203400  0.37536400  0.12923400  1
  O  O8  1  0.36713500  0.87736700  0.37769900  1
  O  O9  1  0.63280500  0.62046000  0.39680500  1
  O  O10  1  0.12422100  0.11035100  0.39120900  1
  O  O11  1  0.12263300  0.63286500  0.62230100  1
  O  O12  1  0.85379800  0.11461400  0.26860400  1
  O  O13  1  0.61851100  0.36011800  0.26319400  1
  O  O14  1  0.62198600  0.87094300  0.48401200  1
  O  O15  1  0.86900600  0.63533200  0.48314300  1
  O  O16  1  0.12905700  0.37801400  0.51598800  1
  O  O17  1  0.36466800  0.13099400  0.51685700  1
  O  O18  1  0.37955100  0.65026200  0.74940800  1
  O  O19  1  0.14666400  0.88003200  0.73203600  1
  O  O20  1  0.84948800  0.37996900  0.38638700  1
  O  O21  1  0.88964900  0.87577900  0.60879100  1
  O  O22  1  0.37954000  0.36719500  0.60319500  1
  O  O23  1  0.62003100  0.15051200  0.61361300  1
  O  O24  1  0.62463600  0.61796600  0.87076600  1
  O  O25  1  0.13870200  0.13650900  0.84278300  1
  O  O26  1  0.36469600  0.88042000  0.88020200  1
  O  O27  1  0.63988200  0.38148900  0.73680600  1
  O  O28  1  0.88538600  0.14620200  0.73139600  1
  O  O29  1  0.37899100  0.11404600  0.99300000  1
  O  O30  1  0.12210100  0.37736200  0.99484600  1
  O  O31  1  0.88750400  0.35901400  0.88062800  1
loop_
_geom_bond_atom_site_label_1
_geom_bond_atom_site_label_2
_geom_bond_distance
_geom_bond_site_symmetry_2
O0 V20 2.109335 1_555
O0 V6 2.127490 1_455
O0 V2 2.200859 1_555
O0 V15 2.215132 1_554
O0 V0 2.238291 1_555
O1 V21 1.973583 1_554
O1 V5 2.033548 1_555
O1 V1 2.102652 1_555
O1 V23 2.140069 1_564
O2 V21 1.956051 1_554
O2 V6 2.016682 1_555
O2 V8 2.124773 1_555
O2 V15 2.150828 1_654
O3 V2 2.037116 1_555
O3 V7 2.133379 1_555
O3 V9 2.163738 1_455
O3 V20 2.224203 1_555
O3 V1 2.239973 1_555
O4 V11 1.993428 1_555
O4 V2 2.016746 1_555
O4 V0 2.063464 1_555
O4 V1 2.136163 1_555
O5 V24 2.100823 1_555
O5 V23 2.161240 1_554
O5 V5 2.168820 1_545
O5 V10 2.199378 1_555
O5 V4 2.218266 1_555
O6 V9 2.058170 1_555
O6 V6 2.105834 1_555
O6 V24 2.209925 1_565
O6 V5 2.212806 1_555
O6 V20 2.229891 1_655
O7 V3 1.941192 1_555
O7 V11 2.040968 1_555
O7 V0 2.127721 1_555
O7 V4 2.150285 1_555
O8 V7 2.012875 1_555
O8 V5 2.093459 1_555
O8 V1 2.112592 1_555
O8 V13 2.173507 1_555
O9 V16 1.997377 1_555
O9 V12 2.043772 1_555
O9 V6 2.098521 1_555
O9 V5 2.131031 1_555
O10 V3 1.996370 1_555
O10 V14 2.045944 1_555
O10 V7 2.113384 1_545
O10 V17 2.132425 1_455
O11 V7 2.012875 1_555
O11 V19 2.093459 1_555
O11 V15 2.112592 1_555
O11 V2 2.173507 1_555
O12 V9 2.052986 1_545
O12 V10 2.098957 1_555
O12 V17 2.153212 1_555
O12 V24 2.213156 1_555
O12 V8 2.254055 1_555
O13 V10 2.091330 1_555
O13 V11 2.107873 1_555
O13 V16 2.164150 1_555
O13 V4 2.197660 1_555
O13 V8 2.211400 1_555
O14 V13 2.078212 1_555
O14 V5 2.102107 1_555
O14 V10 2.138221 1_565
O14 V12 2.155436 1_555
O14 V9 2.156329 1_555
O15 V9 2.096942 1_555
O15 V6 2.112931 1_555
O15 V22 2.134501 1_555
O15 V2 2.147456 1_655
O15 V12 2.260597 1_555
O16 V2 2.078212 1_555
O16 V19 2.102107 1_555
O16 V22 2.138221 1_455
O16 V11 2.155436 1_555
O16 V14 2.156329 1_555
O17 V14 2.096942 1_555
O17 V18 2.112931 1_555
O17 V10 2.134501 1_555
O17 V13 2.147456 1_545
O17 V11 2.260597 1_555
O18 V12 1.993428 1_555
O18 V13 2.016746 1_555
O18 V0 2.063464 1_556
O18 V15 2.136163 1_555
O19 V13 2.037116 1_555
O19 V7 2.133379 1_555
O19 V14 2.163738 1_565
O19 V20 2.224203 1_556
O19 V15 2.239973 1_555
O20 V6 2.073386 1_555
O20 V16 2.078961 1_555
O20 V8 2.174674 1_555
O20 V22 2.198370 1_555
O20 V17 2.238729 1_555
O21 V21 1.996370 1_555
O21 V9 2.045944 1_555
O21 V7 2.113384 1_655
O21 V17 2.132425 1_565
O22 V16 1.997377 1_555
O22 V11 2.043772 1_555
O22 V18 2.098521 1_555
O22 V19 2.131031 1_555
O23 V18 2.073386 1_555
O23 V16 2.078961 1_555
O23 V23 2.174674 1_555
O23 V10 2.198370 1_555
O23 V17 2.238729 1_555
O24 V21 1.941192 1_555
O24 V12 2.040968 1_555
O24 V0 2.127721 1_556
O24 V4 2.150285 1_556
O25 V14 2.058170 1_555
O25 V18 2.105834 1_555
O25 V24 2.209925 1_456
O25 V19 2.212806 1_555
O25 V20 2.229891 1_546
O26 V20 2.109335 1_556
O26 V18 2.127490 1_565
O26 V13 2.200859 1_555
O26 V1 2.215132 1_556
O26 V0 2.238291 1_556
O27 V22 2.091330 1_555
O27 V12 2.107873 1_555
O27 V16 2.164150 1_555
O27 V4 2.197660 1_556
O27 V23 2.211400 1_555
O28 V14 2.052986 1_655
O28 V22 2.098957 1_555
O28 V17 2.153212 1_555
O28 V24 2.213156 1_556
O28 V23 2.254055 1_555
O29 V3 1.956051 1_556
O29 V18 2.016682 1_555
O29 V23 2.124773 1_555
O29 V1 2.150828 1_546
O30 V3 1.973583 1_556
O30 V19 2.033548 1_555
O30 V15 2.102652 1_555
O30 V8 2.140069 1_456
O31 V24 2.100823 1_556
O31 V8 2.161240 1_556
O31 V19 2.168820 1_655
O31 V22 2.199378 1_555
O31 V4 2.218266 1_556
