# generated using pymatgen
data_K2PtC4(SN)4
_symmetry_space_group_name_H-M   'P 1'
_cell_length_a   15.27173600
_cell_length_b   4.47118000
_cell_length_c   11.48446783
_cell_angle_alpha   77.37136063
_cell_angle_beta   90.00000000
_cell_angle_gamma   90.00000000
_symmetry_Int_Tables_number   1
_chemical_formula_structural   K2PtC4(SN)4
_chemical_formula_sum   'K4 Pt2 C8 S8 N8'
_cell_volume   765.21880482
_cell_formula_units_Z   2
loop_
 _symmetry_equiv_pos_site_id
 _symmetry_equiv_pos_as_xyz
  1  'x, y, z'
loop_
 _atom_site_type_symbol
 _atom_site_label
 _atom_site_symmetry_multiplicity
 _atom_site_fract_x
 _atom_site_fract_y
 _atom_site_fract_z
 _atom_site_occupancy
  K  K0  1  0.81154300  0.65504100  0.96131500  1
  K  K1  1  0.18845700  0.34495900  0.03868500  1
  K  K2  1  0.68845700  0.65504100  0.46131500  1
  K  K3  1  0.31154300  0.34495900  0.53868500  1
  Pt  Pt0  1  0.00000000  0.00000000  0.00000000  1
  Pt  Pt1  1  0.50000000  0.00000000  0.50000000  1
  C  C0  1  0.65563600  0.22112000  0.21171400  1
  C  C1  1  0.15563600  0.77888000  0.28828600  1
  C  C2  1  0.84436400  0.22112000  0.71171400  1
  C  C3  1  0.92241500  0.01035000  0.22461200  1
  C  C4  1  0.34436400  0.77888000  0.78828600  1
  C  C5  1  0.57758500  0.01035000  0.72461200  1
  C  C6  1  0.07758500  0.98965000  0.77538800  1
  C  C7  1  0.42241500  0.98965000  0.27538800  1
  S  S0  1  0.66044900  0.16028300  0.07673700  1
  S  S1  1  0.16044900  0.83971700  0.42326300  1
  S  S2  1  0.83955100  0.16028300  0.57673700  1
  S  S3  1  0.90681600  0.82381600  0.35609700  1
  S  S4  1  0.40681600  0.17618400  0.14390300  1
  S  S5  1  0.59318400  0.82381600  0.85609700  1
  S  S6  1  0.09318400  0.17618400  0.64390300  1
  S  S7  1  0.33955100  0.83971700  0.92326300  1
  N  N0  1  0.65293800  0.26295800  0.31055200  1
  N  N1  1  0.06523600  0.85727000  0.87829100  1
  N  N2  1  0.43476400  0.85727000  0.37829100  1
  N  N3  1  0.93476400  0.14273000  0.12170900  1
  N  N4  1  0.56523600  0.14273000  0.62170900  1
  N  N5  1  0.15293800  0.73704200  0.18944800  1
  N  N6  1  0.84706200  0.26295800  0.81055200  1
  N  N7  1  0.34706200  0.73704200  0.68944800  1
loop_
_geom_bond_atom_site_label_1
_geom_bond_atom_site_label_2
_geom_bond_distance
_geom_bond_site_symmetry_2
K0 N6 2.773553 1_555
K0 N6 2.936384 1_565
K0 N3 3.215009 1_556
K0 S0 3.270005 1_556
K0 Pt0 3.340537 1_666
K0 S5 3.570891 1_555
K0 S0 3.673431 1_566
K1 N5 2.773553 1_555
K1 N5 2.936384 1_545
K1 N1 3.215009 1_554
K1 S7 3.270005 1_554
K1 Pt0 3.340537 1_555
K1 S4 3.570891 1_555
K1 S7 3.673431 1_544
K2 N0 2.773553 1_555
K2 N0 2.936384 1_565
K2 N4 3.215009 1_555
K2 S2 3.270005 1_555
K2 Pt1 3.340537 1_565
K2 S3 3.570891 1_555
K2 S2 3.673431 1_565
K3 N7 2.773553 1_555
K3 N7 2.936384 1_545
K3 N2 3.215009 1_555
K3 S1 3.270005 1_555
K3 Pt1 3.340537 1_555
K3 S6 3.570891 1_555
K3 S1 3.673431 1_545
C0 N0 1.190796 1_555
C0 S0 1.633003 1_555
C1 N5 1.190796 1_555
C1 S1 1.633003 1_555
C2 N6 1.190796 1_555
C2 S2 1.633003 1_555
C3 N3 1.215180 1_555
C3 S3 1.575394 1_545
C4 N7 1.190796 1_555
C4 S7 1.633003 1_555
C5 N4 1.215180 1_555
C5 S5 1.575394 1_545
C6 N1 1.215180 1_555
C6 S6 1.575394 1_565
C7 N2 1.215180 1_555
C7 S4 1.575394 1_565
N1 Pt0 1.934837 1_566
N2 Pt1 1.934837 1_565
N3 Pt0 1.934837 1_655
N4 Pt1 1.934837 1_555
