# generated using pymatgen
data_Sm2Th8O19
_symmetry_space_group_name_H-M   'P 1'
_cell_length_a   3.91437800
_cell_length_b   3.91437800
_cell_length_c   27.74481900
_cell_angle_alpha   90.00000000
_cell_angle_beta   90.00000000
_cell_angle_gamma   90.00000000
_symmetry_Int_Tables_number   1
_chemical_formula_structural   Sm2Th8O19
_chemical_formula_sum   'Sm2 Th8 O19'
_cell_volume   425.11596965
_cell_formula_units_Z   1
loop_
 _symmetry_equiv_pos_site_id
 _symmetry_equiv_pos_as_xyz
  1  'x, y, z'
loop_
 _atom_site_type_symbol
 _atom_site_label
 _atom_site_symmetry_multiplicity
 _atom_site_fract_x
 _atom_site_fract_y
 _atom_site_fract_z
 _atom_site_occupancy
  Sm  Sm0  1  0.00000000  0.50000000  0.94485900  1
  Sm  Sm1  1  0.50000000  0.00000000  0.05514100  1
  Th  Th0  1  0.00000000  0.50000000  0.14888400  1
  Th  Th1  1  0.50000000  0.00000000  0.24950400  1
  Th  Th2  1  0.00000000  0.50000000  0.34990100  1
  Th  Th3  1  0.00000000  0.50000000  0.55000800  1
  Th  Th4  1  0.50000000  0.00000000  0.44999200  1
  Th  Th5  1  0.50000000  0.00000000  0.65009900  1
  Th  Th6  1  0.50000000  0.00000000  0.85111600  1
  Th  Th7  1  0.00000000  0.50000000  0.75049600  1
  O  O0  1  0.00000000  0.00000000  0.39995400  1
  O  O1  1  0.50000000  0.50000000  0.50000000  1
  O  O2  1  0.00000000  0.00000000  0.60004600  1
  O  O3  1  0.50000000  0.50000000  0.70006700  1
  O  O4  1  0.00000000  0.00000000  0.80156300  1
  O  O5  1  0.50000000  0.50000000  0.89838000  1
  O  O6  1  0.00000000  0.00000000  0.90446600  1
  O  O7  1  0.50000000  0.50000000  0.00000000  1
  O  O8  1  0.50000000  0.50000000  0.10162000  1
  O  O9  1  0.00000000  0.00000000  0.09553400  1
  O  O10  1  0.00000000  0.00000000  0.19843700  1
  O  O11  1  0.50000000  0.50000000  0.19998600  1
  O  O12  1  0.50000000  0.50000000  0.29993300  1
  O  O13  1  0.00000000  0.00000000  0.29963900  1
  O  O14  1  0.50000000  0.50000000  0.40000100  1
  O  O15  1  0.00000000  0.00000000  0.50000000  1
  O  O16  1  0.50000000  0.50000000  0.59999900  1
  O  O17  1  0.00000000  0.00000000  0.70036100  1
  O  O18  1  0.50000000  0.50000000  0.80001400  1
loop_
_geom_bond_atom_site_label_1
_geom_bond_atom_site_label_2
_geom_bond_distance
_geom_bond_site_symmetry_2
O0 Th4 2.399573 1_455
O0 Th4 2.399573 1_555
O0 Th2 2.399814 1_545
O0 Th2 2.399814 1_555
O1 Th4 2.399092 1_565
O1 Th4 2.399092 1_555
O1 Th3 2.399092 1_555
O1 Th3 2.399092 1_655
O2 Th3 2.399573 1_555
O2 Th3 2.399573 1_545
O2 Th5 2.399814 1_555
O2 Th5 2.399814 1_455
O3 Th5 2.398450 1_565
O3 Th5 2.398450 1_555
O3 Th7 2.405866 1_555
O3 Th7 2.405866 1_655
O4 Th6 2.391813 1_455
O4 Th6 2.391813 1_555
O4 Th7 2.416203 1_545
O4 Th7 2.416203 1_555
O5 Sm0 2.343828 1_555
O5 Sm0 2.343828 1_655
O5 Th6 2.355882 1_555
O5 Th6 2.355882 1_565
O6 Sm0 2.255338 1_545
O6 Sm0 2.255338 1_555
O6 Th6 2.453883 1_455
O6 Th6 2.453883 1_555
O7 Sm0 2.484172 1_654
O7 Sm0 2.484172 1_554
O7 Sm1 2.484172 1_565
O7 Sm1 2.484172 1_555
O8 Sm1 2.343828 1_555
O8 Sm1 2.343828 1_565
O8 Th0 2.355882 1_555
O8 Th0 2.355882 1_655
O9 Sm1 2.255338 1_555
O9 Sm1 2.255338 1_455
O9 Th0 2.453883 1_555
O9 Th0 2.453883 1_545
O10 Th0 2.391813 1_555
O10 Th0 2.391813 1_545
O10 Th1 2.416203 1_555
O10 Th1 2.416203 1_455
O11 Th1 2.391255 1_555
O11 Th1 2.391255 1_565
O11 Th0 2.416773 1_555
O11 Th0 2.416773 1_655
O12 Th2 2.398450 1_555
O12 Th2 2.398450 1_655
O12 Th1 2.405866 1_555
O12 Th1 2.405866 1_565
O13 Th1 2.401131 1_455
O13 Th1 2.401131 1_555
O13 Th2 2.403174 1_555
O13 Th2 2.403174 1_545
O14 Th4 2.398819 1_565
O14 Th4 2.398819 1_555
O14 Th2 2.400569 1_655
O14 Th2 2.400569 1_555
O15 Th4 2.399092 1_455
O15 Th4 2.399092 1_555
O15 Th3 2.399092 1_555
O15 Th3 2.399092 1_545
O16 Th3 2.398819 1_555
O16 Th3 2.398819 1_655
O16 Th5 2.400569 1_565
O16 Th5 2.400569 1_555
O17 Th7 2.401131 1_555
O17 Th7 2.401131 1_545
O17 Th5 2.403174 1_555
O17 Th5 2.403174 1_455
O18 Th7 2.391255 1_555
O18 Th7 2.391255 1_655
O18 Th6 2.416773 1_555
O18 Th6 2.416773 1_565
