# generated using pymatgen
data_LiTi2O4
_symmetry_space_group_name_H-M   'P 1'
_cell_length_a   2.93089500
_cell_length_b   4.78894300
_cell_length_c   4.83256870
_cell_angle_alpha   89.05255360
_cell_angle_beta   90.00000000
_cell_angle_gamma   90.00000000
_symmetry_Int_Tables_number   1
_chemical_formula_structural   LiTi2O4
_chemical_formula_sum   'Li1 Ti2 O4'
_cell_volume   67.82012480
_cell_formula_units_Z   1
loop_
 _symmetry_equiv_pos_site_id
 _symmetry_equiv_pos_as_xyz
  1  'x, y, z'
loop_
 _atom_site_type_symbol
 _atom_site_label
 _atom_site_symmetry_multiplicity
 _atom_site_fract_x
 _atom_site_fract_y
 _atom_site_fract_z
 _atom_site_occupancy
  Li  Li0  1  0.50000000  0.50000000  0.00000000  1
  Ti  Ti0  1  0.00000000  0.00000000  0.00000000  1
  Ti  Ti1  1  0.50000000  0.50000000  0.50000000  1
  O  O0  1  0.00000000  0.66801700  0.73458300  1
  O  O1  1  0.50000000  0.17938200  0.78400900  1
  O  O2  1  0.50000000  0.82061800  0.21599100  1
  O  O3  1  0.00000000  0.33198300  0.26541700  1
loop_
_geom_bond_atom_site_label_1
_geom_bond_atom_site_label_2
_geom_bond_distance
_geom_bond_site_symmetry_2
Li0 O2 1.870834 1_555
Li0 O1 1.870834 1_554
Li0 O3 2.099049 1_555
Li0 O0 2.099049 1_654
Li0 O3 2.099049 1_655
Li0 O0 2.099049 1_554
O0 Ti1 2.027377 1_555
O0 Ti1 2.027377 1_455
O0 Ti0 2.059183 1_566
O1 Ti0 1.986291 1_556
O1 Ti0 1.986291 1_656
O1 Ti1 2.042441 1_555
O2 Ti0 1.986291 1_665
O2 Ti0 1.986291 1_565
O2 Ti1 2.042441 1_555
O3 Ti1 2.027377 1_455
O3 Ti1 2.027377 1_555
O3 Ti0 2.059183 1_555
