# generated using pymatgen
data_RbNa10Al11Si13O48
_symmetry_space_group_name_H-M   'P 1'
_cell_length_a   12.22004100
_cell_length_b   12.26570352
_cell_length_c   12.74578328
_cell_angle_alpha   89.90914540
_cell_angle_beta   89.49384362
_cell_angle_gamma   89.97143550
_symmetry_Int_Tables_number   1
_chemical_formula_structural   RbNa10Al11Si13O48
_chemical_formula_sum   'Rb1 Na10 Al11 Si13 O48'
_cell_volume   1910.35514469
_cell_formula_units_Z   1
loop_
 _symmetry_equiv_pos_site_id
 _symmetry_equiv_pos_as_xyz
  1  'x, y, z'
loop_
 _atom_site_type_symbol
 _atom_site_label
 _atom_site_symmetry_multiplicity
 _atom_site_fract_x
 _atom_site_fract_y
 _atom_site_fract_z
 _atom_site_occupancy
  Rb  Rb0  1  0.01715000  0.50569400  0.52517800  1
  Na  Na0  1  0.19015800  0.79091100  0.20267900  1
  Na  Na1  1  0.80532500  0.80317400  0.20688800  1
  Na  Na2  1  0.18900400  0.20785500  0.20203400  1
  Na  Na3  1  0.80512300  0.19498000  0.20544300  1
  Na  Na4  1  0.80737900  0.50225200  0.80441300  1
  Na  Na5  1  0.49848000  0.18375400  0.78763000  1
  Na  Na6  1  0.19541600  0.80957600  0.77708600  1
  Na  Na7  1  0.80972900  0.82608900  0.78574000  1
  Na  Na8  1  0.17946500  0.17991100  0.78161700  1
  Na  Na9  1  0.82258100  0.16893600  0.78987800  1
  Al  Al0  1  0.62911800  0.00003700  0.18064300  1
  Al  Al1  1  0.99519900  0.62617100  0.18154100  1
  Al  Al2  1  0.99463100  0.37523200  0.18161500  1
  Al  Al3  1  0.19310400  0.00021200  0.61341100  1
  Al  Al4  1  0.00334600  0.80785100  0.61332200  1
  Al  Al5  1  0.81210800  0.00089000  0.61741700  1
  Al  Al6  1  0.00222600  0.19473700  0.61068300  1
  Al  Al7  1  0.36046500  0.99641500  0.82879100  1
  Al  Al8  1  0.63725000  0.99741600  0.83365200  1
  Al  Al9  1  0.00478900  0.63904800  0.82479600  1
  Al  Al10  1  0.00429300  0.36278700  0.82649800  1
  Si  Si0  1  0.36572800  0.81471300  0.00457100  1
  Si  Si1  1  0.18638800  0.62959600  0.99966100  1
  Si  Si2  1  0.62873700  0.81166400  0.00779000  1
  Si  Si3  1  0.18590800  0.37215900  0.00061900  1
  Si  Si4  1  0.81149300  0.63371900  0.99967500  1
  Si  Si5  1  0.36481600  0.18614600  0.00212100  1
  Si  Si6  1  0.81057800  0.36957200  0.00019000  1
  Si  Si7  1  0.62855500  0.19051500  0.00385200  1
  Si  Si8  1  0.36549000  0.00000200  0.17673200  1
  Si  Si9  1  0.18806600  0.00100300  0.37157900  1
  Si  Si10  1  0.00083200  0.81708500  0.36941200  1
  Si  Si11  1  0.81228900  0.00130500  0.37584800  1
  Si  Si12  1  0.00072100  0.18595700  0.37022800  1
  O  O0  1  0.30131100  0.69855400  0.01794700  1
  O  O1  1  0.22128900  0.50053600  0.98671500  1
  O  O2  1  0.69023600  0.69207300  0.00814800  1
  O  O3  1  0.29997200  0.30098300  0.01820200  1
  O  O4  1  0.49579800  0.21661900  0.99552200  1
  O  O5  1  0.33333100  0.88771700  0.11148800  1
  O  O6  1  0.11424400  0.64998600  0.10515000  1
  O  O7  1  0.87793000  0.65782100  0.10590000  1
  O  O8  1  0.33429200  0.10989000  0.10577200  1
  O  O9  1  0.65970200  0.87608300  0.11570300  1
  O  O10  1  0.11485300  0.35176900  0.10668800  1
  O  O11  1  0.87639100  0.34449900  0.10672400  1
  O  O12  1  0.65858900  0.12081400  0.10809400  1
  O  O13  1  0.49035400  0.00233100  0.21218500  1
  O  O14  1  0.98860800  0.50053100  0.24040800  1
  O  O15  1  0.27768500  0.00424100  0.27325300  1
  O  O16  1  0.00012600  0.73459900  0.27045400  1
  O  O17  1  0.72549600  0.00475500  0.27968300  1
  O  O18  1  0.99982700  0.26454300  0.26803900  1
  O  O19  1  0.11319800  0.89175700  0.34528600  1
  O  O20  1  0.89010100  0.89274800  0.35082000  1
  O  O21  1  0.11295300  0.11083500  0.34861700  1
  O  O22  1  0.89050000  0.10987700  0.35382600  1
  O  O23  1  0.24678500  0.99828500  0.48143800  1
  O  O24  1  0.00349900  0.75561100  0.48018800  1
  O  O25  1  0.00283500  0.25119900  0.47902200  1
  O  O26  1  0.75610300  0.99896500  0.48853100  1
  O  O27  1  0.12434700  0.87782700  0.63176700  1
  O  O28  1  0.88308800  0.87914000  0.63413000  1
  O  O29  1  0.12214500  0.12211200  0.62585900  1
  O  O30  1  0.88108800  0.12436900  0.62972800  1
  O  O31  1  0.28544900  0.00432500  0.71759800  1
  O  O32  1  0.72316500  0.00201800  0.72731000  1
  O  O33  1  0.00506300  0.69825700  0.70280200  1
  O  O34  1  0.00542400  0.29641600  0.70831400  1
  O  O35  1  0.98867900  0.50057900  0.81124000  1
  O  O36  1  0.49939600  0.00570200  0.81443400  1
  O  O37  1  0.32181400  0.87993600  0.90341800  1
  O  O38  1  0.67246600  0.87971900  0.90690000  1
  O  O39  1  0.12399200  0.67625400  0.89644400  1
  O  O40  1  0.87537100  0.67583100  0.89325100  1
  O  O41  1  0.12320100  0.32459500  0.89818300  1
  O  O42  1  0.87381500  0.32673900  0.89390000  1
  O  O43  1  0.32794400  0.12654800  0.89495700  1
  O  O44  1  0.66561400  0.13017300  0.89574700  1
  O  O45  1  0.49654000  0.78897600  0.00278500  1
  O  O46  1  0.78389500  0.50144800  0.98435300  1
  O  O47  1  0.68985600  0.30975300  0.00844200  1
loop_
_geom_bond_atom_site_label_1
_geom_bond_atom_site_label_2
_geom_bond_distance
_geom_bond_site_symmetry_2
Na0 O6 2.328623 1_555
Na0 O19 2.386225 1_555
Na0 O5 2.404921 1_555
Na0 O16 2.565185 1_555
Na1 O9 2.312758 1_555
Na1 O7 2.368143 1_555
Na1 O20 2.384729 1_555
Na1 O16 2.657158 1_655
Na1 O17 2.813324 1_565
Na2 O10 2.329149 1_555
Na2 O21 2.394536 1_555
Na2 O8 2.462810 1_555
Na2 O18 2.549767 1_455
Na3 O12 2.370232 1_555
Na3 O11 2.383268 1_555
Na3 O22 2.404680 1_555
Na3 O18 2.657688 1_555
Na3 O17 2.695407 1_555
Na4 O35 2.218053 1_555
Na4 O46 2.308850 1_555
Na4 O40 2.555666 1_555
Na4 O42 2.569312 1_555
Na5 O36 2.209996 1_555
Na5 O44 2.558858 1_555
Na5 O43 2.579651 1_555
Na5 O4 2.680778 1_555
Na6 O27 2.215511 1_555
Na6 O39 2.391739 1_555
Na6 O37 2.402701 1_555
Na6 O31 2.733778 1_565
Na6 O33 2.866670 1_555
Na7 O28 2.219720 1_555
Na7 O38 2.363769 1_555
Na7 O40 2.434719 1_555
Na7 O32 2.517271 1_565
Na8 O29 2.228007 1_555
Na8 O41 2.412174 1_555
Na8 O43 2.418584 1_555
Na8 O31 2.639252 1_555
Na8 O34 2.732413 1_555
Na9 O30 2.225758 1_555
Na9 O44 2.383131 1_555
Na9 O42 2.433158 1_555
Na9 O32 2.515623 1_555
Na9 O34 2.911239 1_655
Al0 O17 1.735080 1_555
Al0 O13 1.739473 1_555
Al0 O9 1.770398 1_545
Al0 O12 1.780351 1_555
Al1 O14 1.714558 1_555
Al1 O16 1.750068 1_655
Al1 O6 1.767511 1_655
Al1 O7 1.776641 1_555
Al2 O14 1.712171 1_555
Al2 O18 1.748463 1_555
Al2 O10 1.768848 1_655
Al2 O11 1.779617 1_555
Al3 O29 1.734847 1_555
Al3 O27 1.735161 1_545
Al3 O31 1.751042 1_555
Al3 O23 1.800263 1_545
Al4 O27 1.728112 1_555
Al4 O28 1.728323 1_455
Al4 O33 1.761731 1_555
Al4 O24 1.814780 1_555
Al5 O28 1.740339 1_545
Al5 O30 1.741670 1_555
Al5 O32 1.765375 1_555
Al5 O26 1.785379 1_545
Al6 O29 1.726712 1_555
Al6 O30 1.729009 1_455
Al6 O34 1.763878 1_555
Al6 O25 1.814351 1_555
Al7 O31 1.697278 1_565
Al7 O36 1.709804 1_565
Al7 O37 1.776915 1_555
Al7 O43 1.847873 1_565
Al8 O36 1.707391 1_565
Al8 O32 1.707999 1_565
Al8 O38 1.772879 1_555
Al8 O44 1.845962 1_565
Al9 O33 1.715082 1_555
Al9 O35 1.719042 1_455
Al9 O39 1.785939 1_555
Al9 O40 1.855293 1_455
Al10 O35 1.711727 1_455
Al10 O34 1.713337 1_555
Al10 O41 1.785236 1_555
Al10 O42 1.857712 1_455
O0 Si0 1.636052 1_555
O0 Si1 1.658180 1_554
O1 Si3 1.642027 1_556
O1 Si1 1.647410 1_555
O2 Si2 1.647861 1_555
O2 Si4 1.648015 1_554
O3 Si5 1.628148 1_555
O3 Si3 1.661007 1_555
O4 Si5 1.645247 1_556
O4 Si7 1.657725 1_556
O5 Si8 1.659141 1_565
O5 Si0 1.676186 1_555
O6 Si1 1.620945 1_554
O7 Si4 1.612622 1_554
O8 Si5 1.657421 1_555
O8 Si8 1.667867 1_555
O9 Si2 1.634709 1_555
O10 Si3 1.619448 1_555
O11 Si6 1.613345 1_555
O12 Si7 1.623456 1_555
O13 Si8 1.595454 1_555
O15 Si8 1.626129 1_555
O15 Si9 1.657461 1_555
O16 Si10 1.618280 1_555
O17 Si11 1.628431 1_555
O18 Si12 1.619246 1_655
O19 Si9 1.659199 1_565
O19 Si10 1.676840 1_555
O20 Si10 1.658959 1_655
O20 Si11 1.665413 1_565
O21 Si9 1.656891 1_555
O21 Si12 1.672938 1_555
O22 Si12 1.653941 1_655
O22 Si11 1.661634 1_555
O23 Si9 1.579315 1_565
O24 Si10 1.600175 1_555
O24 Rb0 3.122336 1_555
O25 Si12 1.602517 1_555
O25 Rb0 3.182611 1_555
O26 Si11 1.586653 1_565
O33 Rb0 3.276689 1_555
O34 Rb0 3.468966 1_555
O37 Si0 1.612059 1_556
O38 Si2 1.618901 1_556
O39 Si1 1.629280 1_555
O40 Si4 1.641822 1_555
O41 Si3 1.628727 1_556
O42 Si6 1.640695 1_556
O43 Si5 1.617844 1_556
O44 Si7 1.625830 1_556
O45 Si0 1.629215 1_555
O45 Si2 1.641196 1_555
O46 Si6 1.662270 1_556
O46 Si4 1.669359 1_555
O47 Si7 1.644910 1_555
O47 Si6 1.650394 1_555
