# generated using pymatgen
data_H4SO5
_symmetry_space_group_name_H-M   'P 1'
_cell_length_a   6.93861300
_cell_length_b   7.16583889
_cell_length_c   8.38609907
_cell_angle_alpha   76.42660013
_cell_angle_beta   89.88166565
_cell_angle_gamma   89.60430647
_symmetry_Int_Tables_number   1
_chemical_formula_structural   H4SO5
_chemical_formula_sum   'H16 S4 O20'
_cell_volume   405.30957130
_cell_formula_units_Z   4
loop_
 _symmetry_equiv_pos_site_id
 _symmetry_equiv_pos_as_xyz
  1  'x, y, z'
loop_
 _atom_site_type_symbol
 _atom_site_label
 _atom_site_symmetry_multiplicity
 _atom_site_fract_x
 _atom_site_fract_y
 _atom_site_fract_z
 _atom_site_occupancy
  H  H0  1  0.65899100  0.05137500  0.04532400  1
  H  H1  1  0.82893300  0.38901500  0.61056200  1
  H  H2  1  0.32485900  0.60197300  0.90097300  1
  H  H3  1  0.17992600  0.60445700  0.39721100  1
  H  H4  1  0.65232000  0.65853400  0.14177100  1
  H  H5  1  0.85977400  0.72733900  0.20652500  1
  H  H6  1  0.63278900  0.75968700  0.29975800  1
  H  H7  1  0.18371500  0.10108800  0.40322300  1
  H  H8  1  0.33660600  0.26966200  0.30459800  1
  H  H9  1  0.11447800  0.23717100  0.22098800  1
  H  H10  1  0.30884700  0.10746600  0.90786500  1
  H  H11  1  0.15581900  0.26404500  0.79445800  1
  H  H12  1  0.38274900  0.22493000  0.72226400  1
  H  H13  1  0.88491100  0.78305600  0.76138700  1
  H  H14  1  0.79450100  0.91142200  0.58054900  1
  H  H15  1  0.66975500  0.72474600  0.70040700  1
  S  S0  1  0.65209700  0.24124700  0.46728400  1
  S  S1  1  0.16374200  0.76622600  0.03639300  1
  S  S2  1  0.34204600  0.75460600  0.54145900  1
  S  S3  1  0.84115400  0.29308800  0.94963600  1
  O  O0  1  0.79998900  0.09444600  0.45971100  1
  O  O1  1  0.31787400  0.90470200  0.03900400  1
  O  O2  1  0.18754000  0.89723800  0.52934700  1
  O  O3  1  0.68984100  0.12957100  0.93594000  1
  O  O4  1  0.76045900  0.42189300  0.50013500  1
  O  O5  1  0.26391200  0.57508200  0.01328300  1
  O  O6  1  0.24760300  0.56710100  0.50535100  1
  O  O7  1  0.73397200  0.45976100  0.97186900  1
  O  O8  1  0.51594600  0.16820100  0.60079000  1
  O  O9  1  0.02363600  0.83188300  0.90648300  1
  O  O10  1  0.49580600  0.81899800  0.42098800  1
  O  O11  1  0.97514000  0.20553900  0.07993100  1
  O  O12  1  0.55653900  0.31959700  0.30941200  1
  O  O13  1  0.06982200  0.70030200  0.20065700  1
  O  O14  1  0.42173500  0.68533400  0.70815300  1
  O  O15  1  0.93688800  0.32676700  0.78560200  1
  O  O16  1  0.70944600  0.75454400  0.19419100  1
  O  O17  1  0.19359600  0.23318400  0.32400700  1
  O  O18  1  0.29830300  0.23310800  0.82154000  1
  O  O19  1  0.80127200  0.77633500  0.66534400  1
loop_
_geom_bond_atom_site_label_1
_geom_bond_atom_site_label_2
_geom_bond_distance
_geom_bond_site_symmetry_2
H0 O3 0.980220 1_554
H1 O4 1.018173 1_555
H1 O15 1.614740 1_555
H2 O5 1.008626 1_556
H3 O6 1.000330 1_555
H4 O16 0.984957 1_555
H5 O16 1.060597 1_555
H5 O13 1.471181 1_655
H6 O16 1.039767 1_555
H6 O10 1.520147 1_555
H7 O17 1.023510 1_555
H7 O2 1.589840 1_545
H8 O17 1.030731 1_555
H8 O12 1.572582 1_555
H9 O17 1.019172 1_555
H9 O11 1.587138 1_455
H10 O18 1.016562 1_555
H10 O1 1.604212 1_546
H11 O18 1.025868 1_555
H11 O15 1.578129 1_455
H12 O18 1.029703 1_555
H12 O8 1.497476 1_555
H13 O19 1.004165 1_555
H13 O9 1.654944 1_655
H14 O19 1.058927 1_555
H14 O0 1.457785 1_565
H15 O19 1.004187 1_555
O0 S0 1.476425 1_555
O1 S1 1.467595 1_555
O2 S2 1.463166 1_555
O3 S3 1.602845 1_555
O4 S0 1.580693 1_555
O5 S1 1.583550 1_555
O6 S2 1.590726 1_555
O7 S3 1.451208 1_555
O8 S0 1.465374 1_555
O9 S1 1.452846 1_556
O10 S2 1.468112 1_555
O11 S3 1.458144 1_554
O12 S0 1.468748 1_555
O13 S1 1.496842 1_555
O14 S2 1.476479 1_555
O15 S3 1.494787 1_555
