# generated using pymatgen
data_Nd2Ti4O11
_symmetry_space_group_name_H-M   'P 1'
_cell_length_a   7.25229843
_cell_length_b   7.25229843
_cell_length_c   12.75546689
_cell_angle_alpha   72.42801720
_cell_angle_beta   72.42801720
_cell_angle_gamma   41.13881088
_symmetry_Int_Tables_number   1
_chemical_formula_structural   Nd2Ti4O11
_chemical_formula_sum   'Nd4 Ti8 O22'
_cell_volume   417.78855113
_cell_formula_units_Z   2
loop_
 _symmetry_equiv_pos_site_id
 _symmetry_equiv_pos_as_xyz
  1  'x, y, z'
loop_
 _atom_site_type_symbol
 _atom_site_label
 _atom_site_symmetry_multiplicity
 _atom_site_fract_x
 _atom_site_fract_y
 _atom_site_fract_z
 _atom_site_occupancy
  Nd  Nd0  1  0.20308535  0.19229831  0.90602859  1
  Nd  Nd1  1  0.19229831  0.20308535  0.40602859  1
  Nd  Nd2  1  0.79691465  0.80770169  0.09397141  1
  Nd  Nd3  1  0.80770169  0.79691465  0.59397141  1
  Ti  Ti0  1  0.94787261  0.83248178  0.80940618  1
  Ti  Ti1  1  0.58293544  0.47830919  0.59739200  1
  Ti  Ti2  1  0.16751822  0.05212739  0.69059382  1
  Ti  Ti3  1  0.05212739  0.16751822  0.19059382  1
  Ti  Ti4  1  0.47830919  0.58293544  0.09739200  1
  Ti  Ti5  1  0.41706456  0.52169081  0.40260800  1
  Ti  Ti6  1  0.83248178  0.94787261  0.30940618  1
  Ti  Ti7  1  0.52169081  0.41706456  0.90260800  1
  O  O0  1  0.94534001  0.61502154  0.77712722  1
  O  O1  1  0.38708520  0.92921860  0.09666797  1
  O  O2  1  0.58128915  0.28275655  0.05604261  1
  O  O3  1  0.61502154  0.94534001  0.27712722  1
  O  O4  1  0.81517700  0.09506471  0.66804948  1
  O  O5  1  0.41892460  0.85899656  0.56127121  1
  O  O6  1  0.41871085  0.71724345  0.94395739  1
  O  O7  1  0.92921860  0.38708520  0.59666797  1
  O  O8  1  0.18482300  0.90493529  0.33195052  1
  O  O9  1  0.34734878  0.65265122  0.75000000  1
  O  O10  1  0.58107540  0.14100344  0.43872879  1
  O  O11  1  0.14100344  0.58107540  0.93872879  1
  O  O12  1  0.61291480  0.07078140  0.90333203  1
  O  O13  1  0.38497846  0.05465999  0.72287278  1
  O  O14  1  0.09506471  0.81517700  0.16804948  1
  O  O15  1  0.07078140  0.61291480  0.40333203  1
  O  O16  1  0.71724345  0.41871085  0.44395739  1
  O  O17  1  0.85899656  0.41892460  0.06127121  1
  O  O18  1  0.28275655  0.58128915  0.55604261  1
  O  O19  1  0.65265122  0.34734878  0.25000000  1
  O  O20  1  0.90493529  0.18482300  0.83195052  1
  O  O21  1  0.05465999  0.38497846  0.22287278  1
loop_
_geom_bond_atom_site_label_1
_geom_bond_atom_site_label_2
_geom_bond_distance
_geom_bond_site_symmetry_2
Nd0 O12 2.371302 1_555
Nd0 O17 2.377694 1_456
Nd0 O13 2.399675 1_555
Nd0 O0 2.403465 1_455
Nd0 O6 2.425807 1_545
Nd0 O1 2.580135 1_546
Nd0 O11 2.647837 1_555
Nd0 O20 2.648086 1_455
Nd1 O15 2.371302 1_555
Nd1 O5 2.377694 1_545
Nd1 O21 2.399675 1_555
Nd1 O3 2.403465 1_545
Nd1 O16 2.425807 1_455
Nd1 O7 2.580135 1_455
Nd1 O10 2.647837 1_555
Nd1 O8 2.648086 1_545
Nd2 O1 2.371302 1_555
Nd2 O11 2.377694 1_654
Nd2 O3 2.399675 1_555
Nd2 O21 2.403465 1_655
Nd2 O2 2.425807 1_565
Nd2 O12 2.580135 1_564
Nd2 O17 2.647837 1_555
Nd2 O14 2.648086 1_655
Nd3 O7 2.371302 1_555
Nd3 O10 2.377694 1_565
Nd3 O0 2.399675 1_555
Nd3 O13 2.403465 1_565
Nd3 O18 2.425807 1_655
Nd3 O15 2.580135 1_655
Nd3 O5 2.647837 1_555
Nd3 O4 2.648086 1_565
O0 Ti0 1.759925 1_555
O1 Ti3 1.868847 1_565
O1 Ti4 2.057128 1_555
O2 Ti4 1.892550 1_555
O2 Ti7 1.921333 1_554
O3 Ti6 1.759925 1_555
O4 Ti1 1.930564 1_555
O4 Ti0 2.004429 1_545
O4 Ti2 2.429040 1_655
O5 Ti2 1.933831 1_565
O5 Ti1 1.966191 1_555
O6 Ti7 1.892550 1_555
O6 Ti4 1.921333 1_556
O7 Ti2 1.868847 1_655
O7 Ti1 2.057128 1_555
O8 Ti5 1.930564 1_555
O8 Ti3 2.004429 1_565
O8 Ti6 2.429040 1_455
O9 Ti0 2.061173 1_455
O9 Ti2 2.061173 1_565
O9 Ti7 2.128633 1_555
O9 Ti1 2.128633 1_555
O10 Ti6 1.933831 1_545
O10 Ti5 1.966191 1_555
O11 Ti0 1.933831 1_455
O11 Ti7 1.966191 1_555
O12 Ti0 1.868847 1_545
O12 Ti7 2.057128 1_555
O13 Ti2 1.759925 1_555
O14 Ti4 1.930564 1_555
O14 Ti6 2.004429 1_455
O14 Ti3 2.429040 1_565
O15 Ti6 1.868847 1_455
O15 Ti5 2.057128 1_555
O16 Ti5 1.892550 1_555
O16 Ti1 1.921333 1_555
O17 Ti3 1.933831 1_655
O17 Ti4 1.966191 1_555
O18 Ti1 1.892550 1_555
O18 Ti5 1.921333 1_555
O19 Ti6 2.061173 1_545
O19 Ti3 2.061173 1_655
O19 Ti5 2.128633 1_555
O19 Ti4 2.128633 1_555
O20 Ti7 1.930564 1_555
O20 Ti2 2.004429 1_655
O20 Ti0 2.429040 1_545
O21 Ti3 1.759925 1_555
