# generated using pymatgen
data_NaLaTiO4
_symmetry_space_group_name_H-M   'P 1'
_cell_length_a   3.78824400
_cell_length_b   3.78824400
_cell_length_c   13.21042100
_cell_angle_alpha   90.00000000
_cell_angle_beta   90.00000000
_cell_angle_gamma   90.00000000
_symmetry_Int_Tables_number   1
_chemical_formula_structural   NaLaTiO4
_chemical_formula_sum   'Na2 La2 Ti2 O8'
_cell_volume   189.58001198
_cell_formula_units_Z   2
loop_
 _symmetry_equiv_pos_site_id
 _symmetry_equiv_pos_as_xyz
  1  'x, y, z'
loop_
 _atom_site_type_symbol
 _atom_site_label
 _atom_site_symmetry_multiplicity
 _atom_site_fract_x
 _atom_site_fract_y
 _atom_site_fract_z
 _atom_site_occupancy
  Na  Na0  1  0.50000000  0.00000000  0.58330700  1
  Na  Na1  1  0.00000000  0.50000000  0.41669300  1
  La  La0  1  0.00000000  0.50000000  0.10919400  1
  La  La1  1  0.50000000  0.00000000  0.89080600  1
  Ti  Ti0  1  0.50000000  0.00000000  0.27496200  1
  Ti  Ti1  1  0.00000000  0.50000000  0.72503800  1
  O  O0  1  0.00000000  0.50000000  0.93069700  1
  O  O1  1  0.50000000  0.00000000  0.06930300  1
  O  O2  1  0.00000000  0.50000000  0.59187600  1
  O  O3  1  0.50000000  0.00000000  0.40812400  1
  O  O4  1  0.00000000  0.00000000  0.23866900  1
  O  O5  1  0.50000000  0.50000000  0.23866900  1
  O  O6  1  0.00000000  0.00000000  0.76133100  1
  O  O7  1  0.50000000  0.50000000  0.76133100  1
loop_
_geom_bond_atom_site_label_1
_geom_bond_atom_site_label_2
_geom_bond_distance
_geom_bond_site_symmetry_2
Na0 O3 2.314241 1_555
Na0 O2 2.681084 1_545
Na0 O2 2.681084 1_645
Na0 O2 2.681084 1_555
Na0 O2 2.681084 1_655
Na1 O2 2.314241 1_555
Na1 O3 2.681084 1_555
Na1 O3 2.681084 1_565
Na1 O3 2.681084 1_465
Na1 O3 2.681084 1_455
La0 O0 2.358021 1_554
La0 O4 2.552103 1_555
La0 O5 2.552103 1_555
La0 O5 2.552103 1_455
La0 O4 2.552103 1_565
La0 O1 2.730037 1_455
La0 O1 2.730037 1_555
La0 O1 2.730037 1_565
La0 O1 2.730037 1_465
La1 O1 2.358021 1_556
La1 O7 2.552103 1_555
La1 O7 2.552103 1_545
La1 O6 2.552103 1_555
La1 O6 2.552103 1_655
La1 O0 2.730037 1_645
La1 O0 2.730037 1_655
La1 O0 2.730037 1_555
La1 O0 2.730037 1_545
O0 Ti1 2.716842 1_555
O1 Ti0 2.716842 1_555
O2 Ti1 1.759126 1_555
O3 Ti0 1.759126 1_555
O4 Ti0 1.953859 1_455
O4 Ti0 1.953859 1_555
O5 Ti0 1.953859 1_565
O5 Ti0 1.953859 1_555
O6 Ti1 1.953859 1_555
O6 Ti1 1.953859 1_545
O7 Ti1 1.953859 1_555
O7 Ti1 1.953859 1_655
