# generated using pymatgen
data_Co8(BiO4)5
_symmetry_space_group_name_H-M   'P 1'
_cell_length_a   7.93542100
_cell_length_b   7.98130884
_cell_length_c   8.29262106
_cell_angle_alpha   108.69690165
_cell_angle_beta   109.46910992
_cell_angle_gamma   107.22316007
_symmetry_Int_Tables_number   1
_chemical_formula_structural   Co8(BiO4)5
_chemical_formula_sum   'Co8 Bi5 O20'
_cell_volume   418.59531409
_cell_formula_units_Z   1
loop_
 _symmetry_equiv_pos_site_id
 _symmetry_equiv_pos_as_xyz
  1  'x, y, z'
loop_
 _atom_site_type_symbol
 _atom_site_label
 _atom_site_symmetry_multiplicity
 _atom_site_fract_x
 _atom_site_fract_y
 _atom_site_fract_z
 _atom_site_occupancy
  Co  Co0  1  0.42282800  0.75751200  0.59386100  1
  Co  Co1  1  0.10939400  0.77480600  0.27126000  1
  Co  Co2  1  0.78423800  0.28093700  0.11188900  1
  Co  Co3  1  0.29573200  0.09986300  0.77539900  1
  Co  Co4  1  0.00419000  0.02027200  0.02088700  1
  Co  Co5  1  0.71833600  0.88943300  0.21540000  1
  Co  Co6  1  0.22812500  0.73245900  0.89368600  1
  Co  Co7  1  0.88769200  0.21922300  0.72782800  1
  Bi  Bi0  1  0.65311500  0.52641800  0.85595500  1
  Bi  Bi1  1  0.10004900  0.29294600  0.46483400  1
  Bi  Bi2  1  0.84754500  0.68074700  0.52959300  1
  Bi  Bi3  1  0.32148400  0.46166800  0.11525600  1
  Bi  Bi4  1  0.48700400  0.13273900  0.33471200  1
  O  O0  1  0.32346900  0.69116100  0.33473100  1
  O  O1  1  0.56553400  0.26041700  0.91985700  1
  O  O2  1  0.93129300  0.24497200  0.97243200  1
  O  O3  1  0.05730600  0.77590500  0.01838200  1
  O  O4  1  0.33170800  0.28137600  0.67350400  1
  O  O5  1  0.26649700  0.89044300  0.56934200  1
  O  O6  1  0.91471400  0.55082700  0.21324200  1
  O  O7  1  0.34328000  0.65822300  0.73547600  1
  O  O8  1  0.00075800  0.96598200  0.30190600  1
  O  O9  1  0.03216700  0.05935300  0.75222500  1
  O  O10  1  0.11667800  0.46664100  0.82424100  1
  O  O11  1  0.67865200  0.34758700  0.29597300  1
  O  O12  1  0.76466700  0.03654600  0.08569900  1
  O  O13  1  0.66302400  0.68858800  0.28517300  1
  O  O14  1  0.79629800  0.10876400  0.46249600  1
  O  O15  1  0.26364400  0.27055300  0.27056400  1
  O  O16  1  0.71001400  0.34301700  0.65761500  1
  O  O17  1  0.44229400  0.80524900  0.12098200  1
  O  O18  1  0.29379800  0.98503700  0.93970400  1
  O  O19  1  0.64447400  0.70033600  0.65589600  1
loop_
_geom_bond_atom_site_label_1
_geom_bond_atom_site_label_2
_geom_bond_distance
_geom_bond_site_symmetry_2
Co0 O7 1.788896 1_555
Co0 O0 1.847562 1_555
Co0 O5 1.858910 1_555
Co0 O19 1.894499 1_555
Co1 O6 1.769594 1_455
Co1 O8 1.952514 1_555
Co1 O0 1.977222 1_555
Co1 O3 2.001142 1_555
Co1 O5 2.077974 1_555
Co2 O6 1.832184 1_555
Co2 O1 1.843067 1_554
Co2 O12 1.844586 1_555
Co2 O2 1.914860 1_554
Co2 O11 1.977687 1_555
Co3 O1 1.828233 1_555
Co3 O5 1.855371 1_545
Co3 O18 1.871570 1_545
Co3 O4 1.896035 1_555
Co3 O9 1.951313 1_555
Co4 O3 2.109198 1_545
Co4 O15 2.141814 1_555
Co4 O2 2.152622 1_454
Co4 O12 2.168149 1_455
Co4 O9 2.417521 1_554
Co4 O8 2.510356 1_545
Co4 O18 2.665810 1_544
Co5 O13 1.855891 1_555
Co5 O12 1.867688 1_565
Co5 O17 1.873679 1_555
Co5 O8 1.935728 1_655
Co5 O14 1.964632 1_565
Co6 O18 1.798101 1_555
Co6 O17 1.832084 1_556
Co6 O10 1.838732 1_555
Co6 O7 1.878510 1_555
Co6 O3 2.002442 1_556
Co7 O14 1.859707 1_555
Co7 O2 1.870613 1_555
Co7 O10 1.932619 1_655
Co7 O9 1.964843 1_655
Co7 O16 1.987398 1_555
Bi0 O16 2.096338 1_555
Bi0 O4 2.279433 1_555
Bi0 O1 2.316057 1_555
Bi0 O19 2.478061 1_555
Bi0 O3 2.772238 1_656
Bi1 O4 2.113000 1_555
Bi1 O8 2.251344 1_545
Bi1 O15 2.378975 1_555
Bi1 O14 2.413208 1_455
Bi1 O7 2.616696 1_555
Bi2 O13 2.100814 1_555
Bi2 O19 2.210778 1_555
Bi2 O11 2.340104 1_555
Bi2 O9 2.585458 1_665
Bi3 O0 2.119955 1_555
Bi3 O15 2.331311 1_555
Bi3 O13 2.349999 1_555
Bi3 O10 2.439666 1_554
Bi3 O17 2.602016 1_555
Bi3 O2 2.655585 1_454
Bi4 O11 2.119198 1_555
Bi4 O16 2.306459 1_555
Bi4 O15 2.352781 1_555
Bi4 O14 2.420310 1_555
Bi4 O17 2.482079 1_545
Bi4 O18 2.752534 1_544
