# generated using pymatgen
data_C2IO
_symmetry_space_group_name_H-M   'P 1'
_cell_length_a   6.03636000
_cell_length_b   6.03636000
_cell_length_c   39.41842000
_cell_angle_alpha   90.00000000
_cell_angle_beta   90.00000000
_cell_angle_gamma   90.00000000
_symmetry_Int_Tables_number   1
_chemical_formula_structural   C2IO
_chemical_formula_sum   'C32 I16 O16'
_cell_volume   1436.31427812
_cell_formula_units_Z   16
loop_
 _symmetry_equiv_pos_site_id
 _symmetry_equiv_pos_as_xyz
  1  'x, y, z'
loop_
 _atom_site_type_symbol
 _atom_site_label
 _atom_site_symmetry_multiplicity
 _atom_site_fract_x
 _atom_site_fract_y
 _atom_site_fract_z
 _atom_site_occupancy
  C  C0  1  0.82270900  0.14203200  0.84536100  1
  C  C1  1  0.04819100  0.09128600  0.67488300  1
  C  C2  1  0.47773900  0.74819400  0.04958600  1
  C  C3  1  0.14203200  0.82270900  0.15463900  1
  C  C4  1  0.52226100  0.25180600  0.54958600  1
  C  C5  1  0.85391400  0.67375400  0.93362400  1
  C  C6  1  0.17375400  0.64608600  0.18362400  1
  C  C7  1  0.02226100  0.24819400  0.70041400  1
  C  C8  1  0.35391400  0.82624600  0.31637600  1
  C  C9  1  0.09128600  0.04819100  0.32511700  1
  C  C10  1  0.35796800  0.32270900  0.59536100  1
  C  C11  1  0.97773900  0.75180600  0.20041400  1
  C  C12  1  0.64203200  0.67729100  0.09536100  1
  C  C13  1  0.32270900  0.35796800  0.40463900  1
  C  C14  1  0.32624600  0.14608600  0.56637600  1
  C  C15  1  0.24819400  0.02226100  0.29958600  1
  C  C16  1  0.59128600  0.45180900  0.92488300  1
  C  C17  1  0.82624600  0.35391400  0.68362400  1
  C  C18  1  0.95180900  0.90871400  0.17488300  1
  C  C19  1  0.67375400  0.85391400  0.06637600  1
  C  C20  1  0.40871400  0.54819100  0.42488300  1
  C  C21  1  0.90871400  0.95180900  0.82511700  1
  C  C22  1  0.85796800  0.17729100  0.65463900  1
  C  C23  1  0.25180600  0.52226100  0.45041400  1
  C  C24  1  0.17729100  0.85796800  0.34536100  1
  C  C25  1  0.74819400  0.47773900  0.95041400  1
  C  C26  1  0.14608600  0.32624600  0.43362400  1
  C  C27  1  0.75180600  0.97773900  0.79958600  1
  C  C28  1  0.67729100  0.64203200  0.90463900  1
  C  C29  1  0.45180900  0.59128600  0.07511700  1
  C  C30  1  0.54819100  0.40871400  0.57511700  1
  C  C31  1  0.64608600  0.17375400  0.81637600  1
  I  I0  1  0.69821400  0.20103200  0.50582700  1
  I  I1  1  0.24032400  0.33311100  0.08277100  1
  I  I2  1  0.33311100  0.24032400  0.91722900  1
  I  I3  1  0.16688900  0.74032400  0.83277100  1
  I  I4  1  0.83311100  0.25967600  0.33277100  1
  I  I5  1  0.75967600  0.66688900  0.58277100  1
  I  I6  1  0.25967600  0.83311100  0.66722900  1
  I  I7  1  0.20103200  0.69821400  0.49417300  1
  I  I8  1  0.66688900  0.75967600  0.41722900  1
  I  I9  1  0.19821400  0.29896800  0.74417300  1
  I  I10  1  0.29896800  0.19821400  0.25582700  1
  I  I11  1  0.70103200  0.80178600  0.75582700  1
  I  I12  1  0.79896800  0.30178600  0.99417300  1
  I  I13  1  0.74032400  0.16688900  0.16722900  1
  I  I14  1  0.30178600  0.79896800  0.00582700  1
  I  I15  1  0.80178600  0.70103200  0.24417300  1
  O  O0  1  0.69946400  0.50536600  0.68976000  1
  O  O1  1  0.99463400  0.19946400  0.43976000  1
  O  O2  1  0.49463400  0.30053600  0.81024000  1
  O  O3  1  0.37112400  0.26933100  0.37798800  1
  O  O4  1  0.73066900  0.62887600  0.12201200  1
  O  O5  1  0.26933100  0.37112400  0.62201200  1
  O  O6  1  0.80053600  0.00536600  0.06024000  1
  O  O7  1  0.12887600  0.76933100  0.37201200  1
  O  O8  1  0.00536600  0.80053600  0.93976000  1
  O  O9  1  0.87112400  0.23066900  0.87201200  1
  O  O10  1  0.62887600  0.73066900  0.87798800  1
  O  O11  1  0.19946400  0.99463400  0.56024000  1
  O  O12  1  0.76933100  0.12887600  0.62798800  1
  O  O13  1  0.23066900  0.87112400  0.12798800  1
  O  O14  1  0.50536600  0.69946400  0.31024000  1
  O  O15  1  0.30053600  0.49463400  0.18976000  1
loop_
_geom_bond_atom_site_label_1
_geom_bond_atom_site_label_2
_geom_bond_distance
_geom_bond_site_symmetry_2
C0 O9 1.214627 1_555
C0 C21 1.491575 1_545
C1 C7 1.390835 1_555
C1 C22 1.491575 1_455
C1 I6 2.037023 1_545
C2 C29 1.390835 1_555
C2 I14 2.048742 1_555
C3 O13 1.214627 1_555
C4 I0 2.048742 1_555
C5 O8 1.216546 1_655
C6 O15 1.216546 1_555
C7 I9 2.048742 1_555
C8 O14 1.216546 1_555
C9 I4 2.037023 1_455
C10 O5 1.214627 1_555
C10 C30 1.491575 1_555
C11 C18 1.390835 1_555
C11 C6 1.498426 1_655
C11 I15 2.048742 1_555
C12 O4 1.214627 1_555
C12 C29 1.491575 1_555
C13 O3 1.214627 1_555
C13 C20 1.491575 1_555
C14 O11 1.216546 1_545
C14 C4 1.498426 1_555
C15 C9 1.390835 1_555
C15 C8 1.498426 1_545
C15 I10 2.048742 1_555
C16 C25 1.390835 1_555
C16 C28 1.491575 1_555
C16 I2 2.037023 1_555
C17 O0 1.216546 1_555
C17 C7 1.498426 1_655
C18 C3 1.491575 1_655
C18 I13 2.037023 1_565
C19 O6 1.216546 1_565
C19 C2 1.498426 1_555
C20 C23 1.390835 1_555
C20 I8 2.037023 1_555
C21 C27 1.390835 1_555
C21 I3 2.037023 1_655
C22 O12 1.214627 1_555
C23 C26 1.498426 1_555
C23 I7 2.048742 1_555
C24 O7 1.214627 1_555
C24 C9 1.491575 1_565
C25 C5 1.498426 1_555
C25 I12 2.048742 1_555
C26 O1 1.216546 1_455
C27 C31 1.498426 1_565
C27 I11 2.048742 1_555
C28 O10 1.214627 1_555
C29 I1 2.037023 1_555
C30 C4 1.390835 1_555
C30 I5 2.037023 1_555
C31 O2 1.216546 1_555
