# generated using pymatgen
data_Eu3(GaNi)4
_symmetry_space_group_name_H-M   'P 1'
_cell_length_a   6.42537367
_cell_length_b   6.42537367
_cell_length_c   6.42537367
_cell_angle_alpha   109.47122063
_cell_angle_beta   109.47122063
_cell_angle_gamma   109.47122063
_symmetry_Int_Tables_number   1
_chemical_formula_structural   Eu3(GaNi)4
_chemical_formula_sum   'Eu3 Ga4 Ni4'
_cell_volume   204.20824730
_cell_formula_units_Z   1
loop_
 _symmetry_equiv_pos_site_id
 _symmetry_equiv_pos_as_xyz
  1  'x, y, z'
loop_
 _atom_site_type_symbol
 _atom_site_label
 _atom_site_symmetry_multiplicity
 _atom_site_fract_x
 _atom_site_fract_y
 _atom_site_fract_z
 _atom_site_occupancy
  Eu  Eu0  1  0.50000000  0.00000000  0.50000000  1
  Eu  Eu1  1  -0.00000000  0.50000000  0.50000000  1
  Eu  Eu2  1  0.50000000  0.50000000  -0.00000000  1
  Ga  Ga0  1  0.00000000  -0.00000000  0.60885766  1
  Ga  Ga1  1  0.39114234  0.39114234  0.39114234  1
  Ga  Ga2  1  0.00000000  0.60885766  -0.00000000  1
  Ga  Ga3  1  0.60885766  -0.00000000  0.00000000  1
  Ni  Ni0  1  -0.00000000  0.00000000  0.24280942  1
  Ni  Ni1  1  0.75719058  0.75719058  0.75719058  1
  Ni  Ni2  1  0.24280942  0.00000000  0.00000000  1
  Ni  Ni3  1  -0.00000000  0.24280942  -0.00000000  1
loop_
_geom_bond_atom_site_label_1
_geom_bond_atom_site_label_2
_geom_bond_distance
_geom_bond_site_symmetry_2
Eu0 Ga0 3.051641 1_655
Eu0 Ga1 3.051641 1_555
Eu0 Ga3 3.051641 1_556
Eu0 Ga2 3.051641 1_545
Eu0 Ni1 3.084292 1_545
Eu0 Ni2 3.084292 1_555
Eu0 Ni3 3.084292 1_656
Eu0 Ni0 3.084292 1_555
Eu0 Ga1 3.508371 1_545
Eu0 Ga2 3.508371 1_656
Eu0 Ga0 3.508371 1_555
Eu0 Ga3 3.508371 1_555
Eu1 Ga1 3.051641 1_555
Eu1 Ga3 3.051641 1_455
Eu1 Ga2 3.051641 1_556
Eu1 Ga0 3.051641 1_565
Eu1 Ni3 3.084292 1_555
Eu1 Ni1 3.084292 1_455
Eu1 Ni2 3.084292 1_566
Eu1 Ni0 3.084292 1_555
Eu1 Ga3 3.508371 1_566
Eu1 Ga1 3.508371 1_455
Eu1 Ga0 3.508371 1_555
Eu1 Ga2 3.508371 1_555
Eu2 Ga1 3.051641 1_555
Eu2 Ga0 3.051641 1_554
Eu2 Ga2 3.051641 1_655
Eu2 Ga3 3.051641 1_565
Eu2 Ni2 3.084292 1_555
Eu2 Ni0 3.084292 1_665
Eu2 Ni1 3.084292 1_554
Eu2 Ni3 3.084292 1_555
Eu2 Ga1 3.508371 1_554
Eu2 Ga0 3.508371 1_665
Eu2 Ga3 3.508371 1_555
Eu2 Ga2 3.508371 1_555
Ga0 Ni0 2.351997 1_555
Ga0 Ni1 2.477174 1_445
Ga0 Ni2 2.477174 1_556
Ga0 Ni3 2.477174 1_556
Ga1 Ni1 2.351997 1_555
Ga1 Ni2 2.477174 1_555
Ga1 Ni0 2.477174 1_555
Ga1 Ni3 2.477174 1_555
Ga2 Ni3 2.351997 1_555
Ga2 Ni1 2.477174 1_454
Ga2 Ni2 2.477174 1_565
Ga2 Ni0 2.477174 1_565
Ga3 Ni2 2.351997 1_555
Ga3 Ni1 2.477174 1_544
Ga3 Ni3 2.477174 1_655
Ga3 Ni0 2.477174 1_655
Ni0 Ni3 2.547700 1_555
Ni0 Ni1 2.547700 1_444
Ni0 Ni2 2.547700 1_555
Ni1 Ni2 2.547700 1_666
Ni1 Ni3 2.547700 1_666
Ni2 Ni3 2.547700 1_555
