# generated using pymatgen
data_LiMgCr3(SO4)6
_symmetry_space_group_name_H-M   'P 1'
_cell_length_a   8.35178900
_cell_length_b   8.86981377
_cell_length_c   12.18108042
_cell_angle_alpha   84.78941031
_cell_angle_beta   89.86191894
_cell_angle_gamma   89.82206901
_symmetry_Int_Tables_number   1
_chemical_formula_structural   LiMgCr3(SO4)6
_chemical_formula_sum   'Li2 Mg2 Cr6 S12 O48'
_cell_volume   898.62470988
_cell_formula_units_Z   2
loop_
 _symmetry_equiv_pos_site_id
 _symmetry_equiv_pos_as_xyz
  1  'x, y, z'
loop_
 _atom_site_type_symbol
 _atom_site_label
 _atom_site_symmetry_multiplicity
 _atom_site_fract_x
 _atom_site_fract_y
 _atom_site_fract_z
 _atom_site_occupancy
  Li  Li0  1  0.66346600  0.27896300  0.09512600  1
  Li  Li1  1  0.33653400  0.72103700  0.90487400  1
  Mg  Mg0  1  0.49886300  0.21363400  0.85417500  1
  Mg  Mg1  1  0.50113700  0.78636600  0.14582500  1
  Cr  Cr0  1  0.00554000  0.30191600  0.15352600  1
  Cr  Cr1  1  0.00257100  0.71367900  0.35601100  1
  Cr  Cr2  1  0.50047400  0.80454100  0.64887500  1
  Cr  Cr3  1  0.49952600  0.19545900  0.35112500  1
  Cr  Cr4  1  0.99742900  0.28632100  0.64398900  1
  Cr  Cr5  1  0.99446000  0.69808400  0.84647400  1
  S  S0  1  0.85667600  0.64629800  0.60442500  1
  S  S1  1  0.79021300  0.99942000  0.25285300  1
  S  S2  1  0.64781000  0.14378900  0.60438500  1
  S  S3  1  0.35362300  0.14706700  0.10441200  1
  S  S4  1  0.85731800  0.35730000  0.89660400  1
  S  S5  1  0.29085100  0.50141100  0.74887200  1
  S  S6  1  0.70914900  0.49858900  0.25112800  1
  S  S7  1  0.14268200  0.64270000  0.10339600  1
  S  S8  1  0.64637700  0.85293300  0.89558800  1
  S  S9  1  0.35219000  0.85621100  0.39561500  1
  S  S10  1  0.20978700  0.00058000  0.74714700  1
  S  S11  1  0.14332400  0.35370200  0.39557500  1
  O  O0  1  0.80213200  0.60796400  0.30867300  1
  O  O1  1  0.68743900  0.65649100  0.63868100  1
  O  O2  1  0.96658900  0.71099800  0.68433100  1
  O  O3  1  0.88194300  0.73527100  0.49713900  1
  O  O4  1  0.93297000  0.92946100  0.30855600  1
  O  O5  1  0.65483600  0.97471000  0.62571200  1
  O  O6  1  0.68897700  0.05893100  0.34031300  1
  O  O7  1  0.60880300  0.01186600  0.90434400  1
  O  O8  1  0.84234400  0.12948500  0.17144700  1
  O  O9  1  0.29588300  0.10643400  0.80961100  1
  O  O10  1  0.53415600  0.18959900  0.51381700  1
  O  O11  1  0.81285300  0.19174600  0.57071800  1
  O  O12  1  0.18609000  0.15632200  0.14371700  1
  O  O13  1  0.59628600  0.21482000  0.70167500  1
  O  O14  1  0.46918000  0.21221800  0.18604000  1
  O  O15  1  0.38191500  0.24204100  0.00143400  1
  O  O16  1  0.90271900  0.28409800  0.79716700  1
  O  O17  1  0.69516000  0.30781800  0.93394900  1
  O  O18  1  0.97465000  0.31206200  0.98490700  1
  O  O19  1  0.42749800  0.43064900  0.80728600  1
  O  O20  1  0.65876900  0.37300100  0.33204000  1
  O  O21  1  0.89411800  0.48526800  0.59416000  1
  O  O22  1  0.81090900  0.43493900  0.16133600  1
  O  O23  1  0.15303000  0.47523100  0.12823800  1
  O  O24  1  0.84697000  0.52476900  0.87176200  1
  O  O25  1  0.18909100  0.56506100  0.83866400  1
  O  O26  1  0.10588200  0.51473200  0.40584000  1
  O  O27  1  0.34123100  0.62699900  0.66796000  1
  O  O28  1  0.57250200  0.56935100  0.19271400  1
  O  O29  1  0.02535000  0.68793800  0.01509300  1
  O  O30  1  0.30484000  0.69218200  0.06605100  1
  O  O31  1  0.09728100  0.71590200  0.20283300  1
  O  O32  1  0.61808500  0.75795900  0.99856600  1
  O  O33  1  0.53082000  0.78778200  0.81396000  1
  O  O34  1  0.40371400  0.78518000  0.29832500  1
  O  O35  1  0.81391000  0.84367800  0.85628300  1
  O  O36  1  0.18714700  0.80825400  0.42928200  1
  O  O37  1  0.46584400  0.81040100  0.48618300  1
  O  O38  1  0.70411700  0.89356600  0.19038900  1
  O  O39  1  0.15765600  0.87051500  0.82855300  1
  O  O40  1  0.39119700  0.98813400  0.09565600  1
  O  O41  1  0.31102300  0.94106900  0.65968700  1
  O  O42  1  0.34516400  0.02529000  0.37428800  1
  O  O43  1  0.06703000  0.07053900  0.69144400  1
  O  O44  1  0.11805700  0.26472900  0.50286100  1
  O  O45  1  0.03341100  0.28900200  0.31566900  1
  O  O46  1  0.31256100  0.34350900  0.36131900  1
  O  O47  1  0.19786800  0.39203600  0.69132700  1
loop_
_geom_bond_atom_site_label_1
_geom_bond_atom_site_label_2
_geom_bond_distance
_geom_bond_site_symmetry_2
Li0 O17 1.974033 1_554
Li0 O14 2.021894 1_555
Li0 O22 2.073374 1_555
Li0 O8 2.150476 1_555
Li1 O30 1.974033 1_556
Li1 O33 2.021894 1_555
Li1 O25 2.073374 1_555
Li1 O39 2.150476 1_555
Mg0 O13 2.025364 1_555
Mg0 O9 2.044709 1_555
Mg0 O19 2.044864 1_555
Mg0 O7 2.052613 1_555
Mg0 O15 2.075385 1_556
Mg0 O17 2.119791 1_555
Mg1 O34 2.025364 1_555
Mg1 O38 2.044709 1_555
Mg1 O28 2.044864 1_555
Mg1 O40 2.052613 1_555
Mg1 O32 2.075385 1_554
Mg1 O30 2.119791 1_555
Cr0 O23 1.974679 1_555
Cr0 O45 1.982219 1_555
Cr0 O12 1.992697 1_555
Cr0 O22 2.012766 1_455
Cr0 O8 2.048266 1_455
Cr0 O18 2.064522 1_454
Cr1 O26 2.006318 1_555
Cr1 O36 2.006808 1_555
Cr1 O3 2.014245 1_455
Cr1 O31 2.023327 1_555
Cr1 O0 2.031427 1_455
Cr1 O4 2.031993 1_455
Cr2 O5 1.988168 1_555
Cr2 O37 1.999425 1_555
Cr2 O41 2.000851 1_555
Cr2 O33 2.019414 1_555
Cr2 O1 2.047939 1_555
Cr2 O27 2.061008 1_555
Cr3 O42 1.988168 1_555
Cr3 O10 1.999425 1_555
Cr3 O6 2.000851 1_555
Cr3 O14 2.019414 1_555
Cr3 O46 2.047939 1_555
Cr3 O20 2.061008 1_555
Cr4 O21 2.006318 1_555
Cr4 O11 2.006808 1_555
Cr4 O44 2.014245 1_655
Cr4 O16 2.023327 1_555
Cr4 O47 2.031427 1_655
Cr4 O43 2.031993 1_655
Cr5 O24 1.974679 1_555
Cr5 O2 1.982219 1_555
Cr5 O35 1.992697 1_555
Cr5 O25 2.012766 1_655
Cr5 O39 2.048266 1_655
Cr5 O29 2.064522 1_656
O0 S6 1.471868 1_555
O1 S0 1.477599 1_555
O2 S0 1.492794 1_555
O3 S0 1.479050 1_555
O4 S1 1.479795 1_555
O5 S2 1.499597 1_565
O6 S1 1.491145 1_545
O7 S8 1.456545 1_545
O8 S1 1.515594 1_545
O9 S10 1.453998 1_555
O10 S2 1.484731 1_555
O11 S2 1.489413 1_555
O12 S3 1.482203 1_555
O13 S2 1.455350 1_555
O14 S3 1.538342 1_555
O15 S3 1.465206 1_555
O16 S4 1.473629 1_555
O17 S4 1.482625 1_555
O18 S4 1.484078 1_555
O19 S5 1.456375 1_555
O20 S6 1.480137 1_555
O21 S0 1.477483 1_555
O22 S6 1.530373 1_555
O23 S7 1.491037 1_555
O24 S4 1.491037 1_555
O25 S5 1.530373 1_555
O26 S11 1.477483 1_555
O27 S5 1.480137 1_555
O28 S6 1.456375 1_555
O29 S7 1.484078 1_555
O30 S7 1.482625 1_555
O31 S7 1.473629 1_555
O32 S8 1.465206 1_555
O33 S8 1.538342 1_555
O34 S9 1.455350 1_555
O35 S8 1.482203 1_555
O36 S9 1.489413 1_555
O37 S9 1.484731 1_555
O38 S1 1.453998 1_555
O39 S10 1.515594 1_565
O40 S3 1.456545 1_565
O41 S10 1.491145 1_565
O42 S9 1.499597 1_545
O43 S10 1.479795 1_555
O44 S11 1.479050 1_555
O45 S11 1.492794 1_555
O46 S11 1.477599 1_555
O47 S5 1.471868 1_555
