# generated using pymatgen
data_PH3O4
_symmetry_space_group_name_H-M   'P 1'
_cell_length_a   5.19689800
_cell_length_b   5.81023700
_cell_length_c   10.85223497
_cell_angle_alpha   85.44467921
_cell_angle_beta   90.00000000
_cell_angle_gamma   90.00000000
_symmetry_Int_Tables_number   1
_chemical_formula_structural   PH3O4
_chemical_formula_sum   'P4 H12 O16'
_cell_volume   326.65038247
_cell_formula_units_Z   4
loop_
 _symmetry_equiv_pos_site_id
 _symmetry_equiv_pos_as_xyz
  1  'x, y, z'
loop_
 _atom_site_type_symbol
 _atom_site_label
 _atom_site_symmetry_multiplicity
 _atom_site_fract_x
 _atom_site_fract_y
 _atom_site_fract_z
 _atom_site_occupancy
  P  P0  1  0.80356200  0.79208700  0.65756500  1
  P  P1  1  0.30356200  0.20791300  0.84243500  1
  P  P2  1  0.19643800  0.20791300  0.34243500  1
  P  P3  1  0.69643800  0.79208700  0.15756500  1
  H  H0  1  0.64611900  0.74467500  0.46987100  1
  H  H1  1  0.14611900  0.25532500  0.03012900  1
  H  H2  1  0.35388100  0.25532500  0.53012900  1
  H  H3  1  0.85388100  0.74467500  0.96987100  1
  H  H4  1  0.94022500  0.15142400  0.66750500  1
  H  H5  1  0.44022500  0.84857600  0.83249500  1
  H  H6  1  0.05977500  0.84857600  0.33249500  1
  H  H7  1  0.55977500  0.15142400  0.16750500  1
  H  H8  1  0.13912900  0.55507700  0.67353300  1
  H  H9  1  0.63912900  0.44492300  0.82646700  1
  H  H10  1  0.86087100  0.44492300  0.32646700  1
  H  H11  1  0.36087100  0.55507700  0.17353300  1
  O  O0  1  0.62704800  0.69052100  0.55709400  1
  O  O1  1  0.12704800  0.30947900  0.94290600  1
  O  O2  1  0.37295200  0.30947900  0.44290600  1
  O  O3  1  0.87295200  0.69052100  0.05709400  1
  O  O4  1  0.79683900  0.06032200  0.63012000  1
  O  O5  1  0.29683900  0.93967800  0.86988000  1
  O  O6  1  0.20316100  0.93967800  0.36988000  1
  O  O7  1  0.70316100  0.06032200  0.13012000  1
  O  O8  1  0.68947400  0.70907800  0.78242000  1
  O  O9  1  0.18947400  0.29092200  0.71758000  1
  O  O10  1  0.31052600  0.29092200  0.21758000  1
  O  O11  1  0.81052600  0.70907800  0.28242000  1
  O  O12  1  0.08998200  0.71903600  0.64186500  1
  O  O13  1  0.58998200  0.28096400  0.85813500  1
  O  O14  1  0.91001800  0.28096400  0.35813500  1
  O  O15  1  0.41001800  0.71903600  0.14186500  1
loop_
_geom_bond_atom_site_label_1
_geom_bond_atom_site_label_2
_geom_bond_distance
_geom_bond_site_symmetry_2
H0 O0 0.978520 1_555
H1 O1 0.978520 1_554
H2 O2 0.978520 1_555
H3 O3 0.978520 1_556
H4 O4 1.016939 1_555
H4 O9 1.643189 1_655
H5 O5 1.016939 1_555
H5 O8 1.643189 1_555
H6 O6 1.016939 1_555
H6 O11 1.643189 1_455
H7 O7 1.016939 1_555
H7 O10 1.643189 1_555
H8 O12 1.019247 1_555
H8 O9 1.592492 1_555
H9 O13 1.019247 1_555
H9 O8 1.592492 1_555
H10 O14 1.019247 1_555
H10 O11 1.592492 1_555
H11 O15 1.019247 1_555
H11 O10 1.592492 1_555
O0 P0 1.575044 1_555
O1 P1 1.575044 1_555
O2 P2 1.575044 1_555
O3 P3 1.575044 1_555
O4 P0 1.563696 1_545
O5 P1 1.563696 1_565
O6 P2 1.563696 1_565
O7 P3 1.563696 1_545
O8 P0 1.521924 1_555
O9 P1 1.521924 1_555
O10 P2 1.521924 1_555
O11 P3 1.521924 1_555
O12 P0 1.560861 1_455
O13 P1 1.560861 1_555
O14 P2 1.560861 1_655
O15 P3 1.560861 1_555
