# generated using pymatgen
data_Lu(BO2)3
_symmetry_space_group_name_H-M   'P 1'
_cell_length_a   7.37937200
_cell_length_b   12.18230800
_cell_length_c   15.84999200
_cell_angle_alpha   90.00000000
_cell_angle_beta   90.00000000
_cell_angle_gamma   90.00000000
_symmetry_Int_Tables_number   1
_chemical_formula_structural   Lu(BO2)3
_chemical_formula_sum   'Lu16 B48 O96'
_cell_volume   1424.87913424
_cell_formula_units_Z   16
loop_
 _symmetry_equiv_pos_site_id
 _symmetry_equiv_pos_as_xyz
  1  'x, y, z'
loop_
 _atom_site_type_symbol
 _atom_site_label
 _atom_site_symmetry_multiplicity
 _atom_site_fract_x
 _atom_site_fract_y
 _atom_site_fract_z
 _atom_site_occupancy
  Lu  Lu0  1  0.25000000  0.91132200  0.54872900  1
  Lu  Lu1  1  0.75000000  0.41132200  0.95127100  1
  Lu  Lu2  1  0.75000000  0.06331600  0.82653200  1
  Lu  Lu3  1  0.25000000  0.51036700  0.37897800  1
  Lu  Lu4  1  0.75000000  0.08867800  0.45127100  1
  Lu  Lu5  1  0.25000000  0.58867800  0.04872900  1
  Lu  Lu6  1  0.25000000  0.23667500  0.37167100  1
  Lu  Lu7  1  0.75000000  0.48963300  0.62102200  1
  Lu  Lu8  1  0.75000000  0.76332500  0.62832900  1
  Lu  Lu9  1  0.25000000  0.98963300  0.87897800  1
  Lu  Lu10  1  0.25000000  0.56331600  0.67346800  1
  Lu  Lu11  1  0.75000000  0.73667500  0.12832900  1
  Lu  Lu12  1  0.25000000  0.93668400  0.17346800  1
  Lu  Lu13  1  0.25000000  0.26332500  0.87167100  1
  Lu  Lu14  1  0.75000000  0.43668400  0.32653200  1
  Lu  Lu15  1  0.75000000  0.01036700  0.12102200  1
  B  B0  1  0.57623900  0.64215300  0.39025900  1
  B  B1  1  0.57012600  0.81568600  0.28196900  1
  B  B2  1  0.42376100  0.14215300  0.10974100  1
  B  B3  1  0.92987400  0.81568600  0.28196900  1
  B  B4  1  0.42109900  0.51614000  0.84890500  1
  B  B5  1  0.07623900  0.35784700  0.60974100  1
  B  B6  1  0.42655600  0.15403000  0.55559900  1
  B  B7  1  0.92655600  0.65403000  0.94440100  1
  B  B8  1  0.07012600  0.31568600  0.21803100  1
  B  B9  1  0.94104300  0.17551600  0.96680600  1
  B  B10  1  0.07890100  0.98386000  0.34890500  1
  B  B11  1  0.07012600  0.18431400  0.71803100  1
  B  B12  1  0.92109900  0.01614000  0.65109500  1
  B  B13  1  0.43151400  0.87158500  0.74102800  1
  B  B14  1  0.92655600  0.84597000  0.44440100  1
  B  B15  1  0.57890100  0.01614000  0.65109500  1
  B  B16  1  0.42987400  0.31568600  0.21803100  1
  B  B17  1  0.42376100  0.35784700  0.60974100  1
  B  B18  1  0.42655600  0.34597000  0.05559900  1
  B  B19  1  0.92376100  0.64215300  0.39025900  1
  B  B20  1  0.56848600  0.12841500  0.25897200  1
  B  B21  1  0.55895700  0.32448400  0.46680600  1
  B  B22  1  0.42109900  0.98386000  0.34890500  1
  B  B23  1  0.07344400  0.15403000  0.55559900  1
  B  B24  1  0.57344400  0.84597000  0.44440100  1
  B  B25  1  0.57344400  0.65403000  0.94440100  1
  B  B26  1  0.07890100  0.51614000  0.84890500  1
  B  B27  1  0.06848600  0.62841500  0.24102800  1
  B  B28  1  0.05895700  0.67551600  0.53319400  1
  B  B29  1  0.92109900  0.48386000  0.15109500  1
  B  B30  1  0.44104300  0.67551600  0.53319400  1
  B  B31  1  0.42987400  0.18431400  0.71803100  1
  B  B32  1  0.43151400  0.62841500  0.24102800  1
  B  B33  1  0.44104300  0.82448400  0.03319400  1
  B  B34  1  0.93151400  0.37158500  0.75897200  1
  B  B35  1  0.57890100  0.48386000  0.15109500  1
  B  B36  1  0.07344400  0.34597000  0.05559900  1
  B  B37  1  0.57623900  0.85784700  0.89025900  1
  B  B38  1  0.06848600  0.87158500  0.74102800  1
  B  B39  1  0.94104300  0.32448400  0.46680600  1
  B  B40  1  0.92987400  0.68431400  0.78196900  1
  B  B41  1  0.07623900  0.14215300  0.10974100  1
  B  B42  1  0.57012600  0.68431400  0.78196900  1
  B  B43  1  0.55895700  0.17551600  0.96680600  1
  B  B44  1  0.93151400  0.12841500  0.25897200  1
  B  B45  1  0.92376100  0.85784700  0.89025900  1
  B  B46  1  0.56848600  0.37158500  0.75897200  1
  B  B47  1  0.05895700  0.82448400  0.03319400  1
  O  O0  1  0.04515900  0.38082800  0.40271800  1
  O  O1  1  0.92608900  0.76538800  0.37116100  1
  O  O2  1  0.45484100  0.38082800  0.40271800  1
  O  O3  1  0.47601800  0.26960700  0.77808700  1
  O  O4  1  0.52624700  0.78913800  0.52384900  1
  O  O5  1  0.93266800  0.12118500  0.04842500  1
  O  O6  1  0.06279800  0.56935300  0.93246500  1
  O  O7  1  0.56733200  0.12118500  0.04842500  1
  O  O8  1  0.42608900  0.26538800  0.12883900  1
  O  O9  1  0.47375300  0.21086200  0.47615100  1
  O  O10  1  0.53514500  0.57578900  0.31393800  1
  O  O11  1  0.25000000  0.45521000  0.84314800  1
  O  O12  1  0.06733200  0.62118500  0.45157500  1
  O  O13  1  0.43130800  0.60037600  0.78185400  1
  O  O14  1  0.25000000  0.39660800  0.57770200  1
  O  O15  1  0.52398200  0.73039300  0.22191300  1
  O  O16  1  0.02398200  0.26960700  0.77808700  1
  O  O17  1  0.97375300  0.71086200  0.02384900  1
  O  O18  1  0.93130800  0.10037600  0.71814600  1
  O  O19  1  0.03514500  0.07578900  0.18606200  1
  O  O20  1  0.07391100  0.23461200  0.62883900  1
  O  O21  1  0.97601800  0.76960700  0.72191300  1
  O  O22  1  0.43266800  0.62118500  0.45157500  1
  O  O23  1  0.56279800  0.43064700  0.06753500  1
  O  O24  1  0.06869200  0.60037600  0.78185400  1
  O  O25  1  0.75000000  0.90077200  0.45206500  1
  O  O26  1  0.06279800  0.93064700  0.43246500  1
  O  O27  1  0.47375300  0.28913800  0.97615100  1
  O  O28  1  0.75000000  0.36048000  0.72391300  1
  O  O29  1  0.42608900  0.23461200  0.62883900  1
  O  O30  1  0.04515900  0.11917200  0.90271800  1
  O  O31  1  0.75000000  0.64052900  0.75437400  1
  O  O32  1  0.52398200  0.76960700  0.72191300  1
  O  O33  1  0.57391100  0.73461200  0.87116100  1
  O  O34  1  0.25000000  0.04479000  0.34314800  1
  O  O35  1  0.95484100  0.61917200  0.59728200  1
  O  O36  1  0.93720200  0.06935300  0.56753500  1
  O  O37  1  0.93266800  0.37881500  0.54842500  1
  O  O38  1  0.56814700  0.06413600  0.33766100  1
  O  O39  1  0.25000000  0.10339200  0.07770200  1
  O  O40  1  0.06814700  0.56413600  0.16233900  1
  O  O41  1  0.56869200  0.39962400  0.21814600  1
  O  O42  1  0.03514500  0.42421100  0.68606200  1
  O  O43  1  0.02624700  0.21086200  0.47615100  1
  O  O44  1  0.25000000  0.09922800  0.54793500  1
  O  O45  1  0.93185300  0.06413600  0.33766100  1
  O  O46  1  0.96485500  0.92421100  0.81393800  1
  O  O47  1  0.06869200  0.89962400  0.28185400  1
  O  O48  1  0.45484100  0.11917200  0.90271800  1
  O  O49  1  0.95484100  0.88082800  0.09728200  1
  O  O50  1  0.56279800  0.06935300  0.56753500  1
  O  O51  1  0.75000000  0.30503100  0.43179700  1
  O  O52  1  0.43185300  0.93586400  0.66233900  1
  O  O53  1  0.06814700  0.93586400  0.66233900  1
  O  O54  1  0.97601800  0.73039300  0.22191300  1
  O  O55  1  0.02624700  0.28913800  0.97615100  1
  O  O56  1  0.93185300  0.43586400  0.83766100  1
  O  O57  1  0.25000000  0.63952000  0.27608700  1
  O  O58  1  0.75000000  0.13952000  0.22391300  1
  O  O59  1  0.93130800  0.39962400  0.21814600  1
  O  O60  1  0.54515900  0.61917200  0.59728200  1
  O  O61  1  0.25000000  0.69496900  0.56820300  1
  O  O62  1  0.56814700  0.43586400  0.83766100  1
  O  O63  1  0.96485500  0.57578900  0.31393800  1
  O  O64  1  0.75000000  0.54479000  0.15685200  1
  O  O65  1  0.25000000  0.14052900  0.74562600  1
  O  O66  1  0.75000000  0.60339200  0.42229800  1
  O  O67  1  0.53514500  0.92421100  0.81393800  1
  O  O68  1  0.46485500  0.42421100  0.68606200  1
  O  O69  1  0.43720200  0.93064700  0.43246500  1
  O  O70  1  0.25000000  0.40077200  0.04793500  1
  O  O71  1  0.56869200  0.10037600  0.71814600  1
  O  O72  1  0.02398200  0.23039300  0.27808700  1
  O  O73  1  0.47601800  0.23039300  0.27808700  1
  O  O74  1  0.92608900  0.73461200  0.87116100  1
  O  O75  1  0.75000000  0.85947100  0.25437400  1
  O  O76  1  0.43720200  0.56935300  0.93246500  1
  O  O77  1  0.56733200  0.37881500  0.54842500  1
  O  O78  1  0.25000000  0.80503100  0.06820300  1
  O  O79  1  0.43185300  0.56413600  0.16233900  1
  O  O80  1  0.43266800  0.87881500  0.95157500  1
  O  O81  1  0.52624700  0.71086200  0.02384900  1
  O  O82  1  0.57391100  0.76538800  0.37116100  1
  O  O83  1  0.75000000  0.19496900  0.93179700  1
  O  O84  1  0.75000000  0.59922800  0.95206500  1
  O  O85  1  0.54515900  0.88082800  0.09728200  1
  O  O86  1  0.07391100  0.26538800  0.12883900  1
  O  O87  1  0.06733200  0.87881500  0.95157500  1
  O  O88  1  0.75000000  0.95521000  0.65685200  1
  O  O89  1  0.93720200  0.43064700  0.06753500  1
  O  O90  1  0.25000000  0.35947100  0.24562600  1
  O  O91  1  0.75000000  0.89660800  0.92229800  1
  O  O92  1  0.46485500  0.07578900  0.18606200  1
  O  O93  1  0.97375300  0.78913800  0.52384900  1
  O  O94  1  0.25000000  0.86048000  0.77608700  1
  O  O95  1  0.43130800  0.89962400  0.28185400  1
loop_
_geom_bond_atom_site_label_1
_geom_bond_atom_site_label_2
_geom_bond_distance
_geom_bond_site_symmetry_2
Lu0 O53 2.265575 1_555
Lu0 O52 2.265575 1_555
Lu0 O44 2.289163 1_565
Lu0 O69 2.315088 1_555
Lu0 O26 2.315088 1_555
Lu0 O4 2.554740 1_555
Lu0 O93 2.554740 1_455
Lu0 O61 2.653691 1_555
Lu1 O62 2.265575 1_555
Lu1 O56 2.265575 1_555
Lu1 O84 2.289163 1_555
Lu1 O23 2.315088 1_556
Lu1 O89 2.315088 1_556
Lu1 O55 2.554740 1_655
Lu1 O27 2.554740 1_555
Lu1 O83 2.653691 1_555
Lu2 O71 2.223770 1_555
Lu2 O18 2.223770 1_555
Lu2 O83 2.314307 1_555
Lu2 O46 2.329244 1_545
Lu2 O67 2.329244 1_545
Lu2 O91 2.535448 1_545
Lu2 O30 2.581716 1_655
Lu2 O48 2.581716 1_555
Lu3 O2 2.217400 1_555
Lu3 O0 2.217400 1_555
Lu3 O12 2.227916 1_555
Lu3 O22 2.227916 1_555
Lu3 O57 2.266078 1_555
Lu3 O10 2.474982 1_555
Lu3 O63 2.474982 1_455
Lu3 O90 2.801184 1_555
Lu4 O38 2.265575 1_555
Lu4 O45 2.265575 1_555
Lu4 O25 2.289163 1_545
Lu4 O50 2.315088 1_555
Lu4 O36 2.315088 1_555
Lu4 O43 2.554740 1_655
Lu4 O9 2.554740 1_555
Lu4 O51 2.653691 1_555
Lu5 O40 2.265575 1_555
Lu5 O79 2.265575 1_555
Lu5 O70 2.289163 1_555
Lu5 O76 2.315088 1_554
Lu5 O6 2.315088 1_554
Lu5 O17 2.554740 1_455
Lu5 O81 2.554740 1_555
Lu5 O78 2.653691 1_555
Lu6 O73 2.233349 1_555
Lu6 O72 2.233349 1_555
Lu6 O43 2.359569 1_555
Lu6 O9 2.359569 1_555
Lu6 O0 2.368761 1_555
Lu6 O2 2.368761 1_555
Lu6 O34 2.380918 1_555
Lu6 O90 2.495814 1_555
Lu7 O35 2.217400 1_555
Lu7 O60 2.217400 1_555
Lu7 O77 2.227916 1_555
Lu7 O37 2.227916 1_555
Lu7 O28 2.266078 1_555
Lu7 O68 2.474982 1_555
Lu7 O42 2.474982 1_655
Lu7 O31 2.801184 1_555
Lu8 O32 2.233349 1_555
Lu8 O21 2.233349 1_555
Lu8 O4 2.359569 1_555
Lu8 O93 2.359569 1_555
Lu8 O60 2.368761 1_555
Lu8 O35 2.368761 1_555
Lu8 O88 2.380918 1_555
Lu8 O31 2.495814 1_555
Lu9 O30 2.217400 1_565
Lu9 O48 2.217400 1_565
Lu9 O80 2.227916 1_555
Lu9 O87 2.227916 1_555
Lu9 O94 2.266078 1_555
Lu9 O46 2.474982 1_455
Lu9 O67 2.474982 1_555
Lu9 O65 2.801184 1_565
Lu10 O13 2.223770 1_555
Lu10 O24 2.223770 1_555
Lu10 O61 2.314307 1_555
Lu10 O68 2.329244 1_555
Lu10 O42 2.329244 1_555
Lu10 O14 2.535448 1_555
Lu10 O35 2.581716 1_455
Lu10 O60 2.581716 1_555
Lu11 O54 2.233349 1_555
Lu11 O15 2.233349 1_555
Lu11 O17 2.359569 1_555
Lu11 O81 2.359569 1_555
Lu11 O85 2.368761 1_555
Lu11 O49 2.368761 1_555
Lu11 O64 2.380918 1_555
Lu11 O75 2.495814 1_555
Lu12 O95 2.223770 1_555
Lu12 O47 2.223770 1_555
Lu12 O78 2.314307 1_555
Lu12 O19 2.329244 1_565
Lu12 O92 2.329244 1_565
Lu12 O39 2.535448 1_565
Lu12 O49 2.581716 1_455
Lu12 O85 2.581716 1_555
Lu13 O16 2.233349 1_555
Lu13 O3 2.233349 1_555
Lu13 O27 2.359569 1_555
Lu13 O55 2.359569 1_555
Lu13 O30 2.368761 1_555
Lu13 O48 2.368761 1_555
Lu13 O11 2.380918 1_555
Lu13 O65 2.495814 1_555
Lu14 O59 2.223770 1_555
Lu14 O41 2.223770 1_555
Lu14 O51 2.314307 1_555
Lu14 O63 2.329244 1_555
Lu14 O10 2.329244 1_555
Lu14 O66 2.535448 1_555
Lu14 O0 2.581716 1_655
Lu14 O2 2.581716 1_555
Lu15 O49 2.217400 1_545
Lu15 O85 2.217400 1_545
Lu15 O7 2.227916 1_555
Lu15 O5 2.227916 1_555
Lu15 O58 2.266078 1_555
Lu15 O19 2.474982 1_655
Lu15 O92 2.474982 1_555
Lu15 O75 2.801184 1_545
B0 O66 1.457741 1_555
B0 O22 1.460213 1_555
B0 O10 1.486244 1_555
B0 O82 1.531596 1_555
B1 O95 1.447413 1_555
B1 O15 1.449723 1_555
B1 O75 1.495893 1_555
B1 O82 1.541027 1_555
B2 O39 1.457741 1_555
B2 O7 1.460213 1_555
B2 O92 1.486244 1_555
B2 O8 1.531596 1_555
B3 O47 1.447413 1_655
B3 O54 1.449723 1_555
B3 O75 1.495893 1_555
B3 O1 1.541027 1_555
B4 O11 1.467465 1_555
B4 O62 1.471608 1_555
B4 O13 1.479254 1_555
B4 O76 1.479345 1_555
B5 O14 1.457741 1_555
B5 O37 1.460213 1_455
B5 O42 1.486244 1_555
B5 O20 1.531596 1_555
B6 O50 1.452825 1_555
B6 O44 1.468994 1_555
B6 O9 1.478633 1_555
B6 O29 1.520289 1_555
B7 O6 1.452825 1_655
B7 O84 1.468994 1_555
B7 O17 1.478633 1_556
B7 O74 1.520289 1_555
B8 O59 1.447413 1_455
B8 O72 1.449723 1_555
B8 O90 1.495893 1_555
B8 O86 1.541027 1_555
B9 O30 1.446819 1_655
B9 O5 1.454461 1_556
B9 O55 1.527487 1_655
B9 O83 1.533473 1_555
B10 O34 1.467465 1_565
B10 O45 1.471608 1_465
B10 O47 1.479254 1_555
B10 O26 1.479345 1_555
B11 O18 1.447413 1_455
B11 O16 1.449723 1_555
B11 O65 1.495893 1_555
B11 O20 1.541027 1_555
B12 O88 1.467465 1_545
B12 O53 1.471608 1_645
B12 O18 1.479254 1_555
B12 O36 1.479345 1_555
B13 O32 1.449406 1_555
B13 O94 1.456447 1_555
B13 O52 1.472670 1_555
B13 O67 1.526858 1_555
B14 O26 1.452825 1_655
B14 O25 1.468994 1_555
B14 O93 1.478633 1_555
B14 O1 1.520289 1_555
B15 O88 1.467465 1_545
B15 O52 1.471608 1_545
B15 O71 1.479254 1_555
B15 O50 1.479345 1_555
B16 O41 1.447413 1_555
B16 O73 1.449723 1_555
B16 O90 1.495893 1_555
B16 O8 1.541027 1_555
B17 O14 1.457741 1_555
B17 O77 1.460213 1_555
B17 O68 1.486244 1_555
B17 O29 1.531596 1_555
B18 O23 1.452825 1_555
B18 O70 1.468994 1_555
B18 O27 1.478633 1_554
B18 O8 1.520289 1_555
B19 O66 1.457741 1_555
B19 O12 1.460213 1_655
B19 O63 1.486244 1_555
B19 O1 1.531596 1_555
B20 O73 1.449406 1_555
B20 O58 1.456447 1_555
B20 O38 1.472670 1_555
B20 O92 1.526858 1_555
B21 O2 1.446819 1_555
B21 O77 1.454461 1_555
B21 O9 1.527487 1_555
B21 O51 1.533473 1_555
B22 O34 1.467465 1_565
B22 O38 1.471608 1_565
B22 O95 1.479254 1_555
B22 O69 1.479345 1_555
B23 O36 1.452825 1_455
B23 O44 1.468994 1_555
B23 O43 1.478633 1_555
B23 O20 1.520289 1_555
B24 O69 1.452825 1_555
B24 O25 1.468994 1_555
B24 O4 1.478633 1_555
B24 O82 1.520289 1_555
B25 O76 1.452825 1_555
B25 O84 1.468994 1_555
B25 O81 1.478633 1_556
B25 O33 1.520289 1_555
B26 O11 1.467465 1_555
B26 O56 1.471608 1_455
B26 O24 1.479254 1_555
B26 O6 1.479345 1_555
B27 O54 1.449406 1_455
B27 O57 1.456447 1_555
B27 O40 1.472670 1_555
B27 O63 1.526858 1_455
B28 O35 1.446819 1_455
B28 O12 1.454461 1_555
B28 O93 1.527487 1_455
B28 O61 1.533473 1_555
B29 O64 1.467465 1_555
B29 O40 1.471608 1_655
B29 O59 1.479254 1_555
B29 O89 1.479345 1_555
B30 O60 1.446819 1_555
B30 O22 1.454461 1_555
B30 O4 1.527487 1_555
B30 O61 1.533473 1_555
B31 O71 1.447413 1_555
B31 O3 1.449723 1_555
B31 O65 1.495893 1_555
B31 O29 1.541027 1_555
B32 O15 1.449406 1_555
B32 O57 1.456447 1_555
B32 O79 1.472670 1_555
B32 O10 1.526858 1_555
B33 O85 1.446819 1_555
B33 O80 1.454461 1_554
B33 O81 1.527487 1_555
B33 O78 1.533473 1_555
B34 O16 1.449406 1_655
B34 O28 1.456447 1_555
B34 O56 1.472670 1_555
B34 O42 1.526858 1_655
B35 O64 1.467465 1_555
B35 O79 1.471608 1_555
B35 O41 1.479254 1_555
B35 O23 1.479345 1_555
B36 O89 1.452825 1_455
B36 O70 1.468994 1_555
B36 O55 1.478633 1_554
B36 O86 1.520289 1_555
B37 O91 1.457741 1_555
B37 O80 1.460213 1_555
B37 O67 1.486244 1_555
B37 O33 1.531596 1_555
B38 O21 1.449406 1_455
B38 O94 1.456447 1_555
B38 O53 1.472670 1_555
B38 O46 1.526858 1_455
B39 O0 1.446819 1_655
B39 O37 1.454461 1_555
B39 O43 1.527487 1_655
B39 O51 1.533473 1_555
B40 O24 1.447413 1_655
B40 O21 1.449723 1_555
B40 O31 1.495893 1_555
B40 O74 1.541027 1_555
B41 O39 1.457741 1_555
B41 O5 1.460213 1_455
B41 O19 1.486244 1_555
B41 O86 1.531596 1_555
B42 O13 1.447413 1_555
B42 O32 1.449723 1_555
B42 O31 1.495893 1_555
B42 O33 1.541027 1_555
B43 O48 1.446819 1_555
B43 O7 1.454461 1_556
B43 O27 1.527487 1_555
B43 O83 1.533473 1_555
B44 O72 1.449406 1_655
B44 O58 1.456447 1_555
B44 O45 1.472670 1_555
B44 O19 1.526858 1_655
B45 O91 1.457741 1_555
B45 O87 1.460213 1_655
B45 O46 1.486244 1_555
B45 O74 1.531596 1_555
B46 O3 1.449406 1_555
B46 O28 1.456447 1_555
B46 O62 1.472670 1_555
B46 O68 1.526858 1_555
B47 O49 1.446819 1_455
B47 O87 1.454461 1_554
B47 O17 1.527487 1_455
B47 O78 1.533473 1_555
