# generated using pymatgen
data_NaPH3NO3
_symmetry_space_group_name_H-M   'P 1'
_cell_length_a   5.80625806
_cell_length_b   5.80625806
_cell_length_c   6.14105200
_cell_angle_alpha   90.00000000
_cell_angle_beta   90.00000000
_cell_angle_gamma   120.00000070
_symmetry_Int_Tables_number   1
_chemical_formula_structural   NaPH3NO3
_chemical_formula_sum   'Na2 P2 H6 N2 O6'
_cell_volume   179.29413037
_cell_formula_units_Z   2
loop_
 _symmetry_equiv_pos_site_id
 _symmetry_equiv_pos_as_xyz
  1  'x, y, z'
loop_
 _atom_site_type_symbol
 _atom_site_label
 _atom_site_symmetry_multiplicity
 _atom_site_fract_x
 _atom_site_fract_y
 _atom_site_fract_z
 _atom_site_occupancy
  Na  Na0  1  0.00000000  0.00000000  0.49930700  1
  Na  Na1  1  0.00000000  0.00000000  0.99930700  1
  P  P0  1  0.66666700  0.33333300  0.80764700  1
  P  P1  1  0.33333300  0.66666700  0.30764700  1
  H  H0  1  0.84498800  0.49176900  0.16246900  1
  H  H1  1  0.64678100  0.15501200  0.16246900  1
  H  H2  1  0.50823100  0.35321900  0.16246900  1
  H  H3  1  0.15501200  0.50823100  0.66246900  1
  H  H4  1  0.35321900  0.84498800  0.66246900  1
  H  H5  1  0.49176900  0.64678100  0.66246900  1
  N  N0  1  0.66666700  0.33333300  0.10176700  1
  N  N1  1  0.33333300  0.66666700  0.60176700  1
  O  O0  1  0.37482300  0.14796400  0.74999400  1
  O  O1  1  0.77314100  0.62517700  0.74999400  1
  O  O2  1  0.85203600  0.22685900  0.74999400  1
  O  O3  1  0.62517700  0.85203600  0.24999400  1
  O  O4  1  0.22685900  0.37482300  0.24999400  1
  O  O5  1  0.14796400  0.77314100  0.24999400  1
loop_
_geom_bond_atom_site_label_1
_geom_bond_atom_site_label_2
_geom_bond_distance
_geom_bond_site_symmetry_2
Na0 O4 2.439022 1_555
Na0 O3 2.439022 1_445
Na0 O5 2.439022 1_545
Na0 O1 2.444328 1_445
Na0 O0 2.444328 1_555
Na0 O2 2.444328 1_455
Na1 O1 2.439022 1_445
Na1 O0 2.439022 1_555
Na1 O2 2.439022 1_455
Na1 O4 2.444328 1_556
Na1 O3 2.444328 1_446
Na1 O5 2.444328 1_546
H0 N0 1.051074 1_555
H1 N0 1.051072 1_555
H2 N0 1.051077 1_555
H3 N1 1.051074 1_555
H4 N1 1.051072 1_555
H5 N1 1.051077 1_555
N0 P0 1.806206 1_554
N1 P1 1.806206 1_555
O0 P0 1.526880 1_555
O1 P0 1.526881 1_555
O2 P0 1.526876 1_555
O3 P1 1.526880 1_555
O4 P1 1.526881 1_555
O5 P1 1.526876 1_555
