# generated using pymatgen
data_Rb2ZrFe(PO4)3
_symmetry_space_group_name_H-M   'P 1'
_cell_length_a   10.25453100
_cell_length_b   10.25453100
_cell_length_c   10.25453100
_cell_angle_alpha   90.00000000
_cell_angle_beta   90.00000000
_cell_angle_gamma   90.00000000
_symmetry_Int_Tables_number   1
_chemical_formula_structural   Rb2ZrFe(PO4)3
_chemical_formula_sum   'Rb8 Zr4 Fe4 P12 O48'
_cell_volume   1078.31937095
_cell_formula_units_Z   4
loop_
 _symmetry_equiv_pos_site_id
 _symmetry_equiv_pos_as_xyz
  1  'x, y, z'
loop_
 _atom_site_type_symbol
 _atom_site_label
 _atom_site_symmetry_multiplicity
 _atom_site_fract_x
 _atom_site_fract_y
 _atom_site_fract_z
 _atom_site_occupancy
  Rb  Rb0  1  0.07059500  0.07059500  0.07059500  1
  Rb  Rb1  1  0.21103400  0.71103400  0.78896600  1
  Rb  Rb2  1  0.28896600  0.28896600  0.28896600  1
  Rb  Rb3  1  0.42940500  0.92940500  0.57059500  1
  Rb  Rb4  1  0.57059500  0.42940500  0.92940500  1
  Rb  Rb5  1  0.71103400  0.78896600  0.21103400  1
  Rb  Rb6  1  0.78896600  0.21103400  0.71103400  1
  Rb  Rb7  1  0.92940500  0.57059500  0.42940500  1
  Zr  Zr0  1  0.14273200  0.35726800  0.64273200  1
  Zr  Zr1  1  0.35726800  0.64273200  0.14273200  1
  Zr  Zr2  1  0.64273200  0.14273200  0.35726800  1
  Zr  Zr3  1  0.85726800  0.85726800  0.85726800  1
  Fe  Fe0  1  0.08681700  0.91318300  0.41318300  1
  Fe  Fe1  1  0.41318300  0.08681700  0.91318300  1
  Fe  Fe2  1  0.58681700  0.58681700  0.58681700  1
  Fe  Fe3  1  0.91318300  0.41318300  0.08681700  1
  P  P0  1  0.03846300  0.72486500  0.13195800  1
  P  P1  1  0.13195800  0.03846300  0.72486500  1
  P  P2  1  0.22486500  0.36804200  0.96153700  1
  P  P3  1  0.27513500  0.63195800  0.46153700  1
  P  P4  1  0.36804200  0.96153700  0.22486500  1
  P  P5  1  0.46153700  0.27513500  0.63195800  1
  P  P6  1  0.53846300  0.77513500  0.86804200  1
  P  P7  1  0.63195800  0.46153700  0.27513500  1
  P  P8  1  0.72486500  0.13195800  0.03846300  1
  P  P9  1  0.77513500  0.86804200  0.53846300  1
  P  P10  1  0.86804200  0.53846300  0.77513500  1
  P  P11  1  0.96153700  0.22486500  0.36804200  1
  O  O0  1  0.00328400  0.08244100  0.34951200  1
  O  O1  1  0.02644300  0.95173400  0.79346700  1
  O  O2  1  0.02084700  0.80319700  0.25882300  1
  O  O3  1  0.04826600  0.29346700  0.47355700  1
  O  O4  1  0.08279600  0.18212600  0.73208800  1
  O  O5  1  0.08244100  0.34951200  0.00328400  1
  O  O6  1  0.15048800  0.99671600  0.58244100  1
  O  O7  1  0.18212600  0.73208800  0.08279600  1
  O  O8  1  0.19680300  0.75882300  0.47915300  1
  O  O9  1  0.20653300  0.52644300  0.54826600  1
  O  O10  1  0.23208800  0.41720400  0.81787400  1
  O  O11  1  0.24117700  0.97915300  0.30319700  1
  O  O12  1  0.25882300  0.02084700  0.80319700  1
  O  O13  1  0.26791200  0.58279600  0.31787400  1
  O  O14  1  0.29346700  0.47355700  0.04826600  1
  O  O15  1  0.30319700  0.24117700  0.97915300  1
  O  O16  1  0.31787400  0.26791200  0.58279600  1
  O  O17  1  0.34951200  0.00328400  0.08244100  1
  O  O18  1  0.41755900  0.65048800  0.50328400  1
  O  O19  1  0.41720400  0.81787400  0.23208800  1
  O  O20  1  0.45173400  0.70653300  0.97355700  1
  O  O21  1  0.47915300  0.19680300  0.75882300  1
  O  O22  1  0.47355700  0.04826600  0.29346700  1
  O  O23  1  0.49671600  0.91755900  0.84951200  1
  O  O24  1  0.50328400  0.41755900  0.65048800  1
  O  O25  1  0.52644300  0.54826600  0.20653300  1
  O  O26  1  0.52084700  0.69680300  0.74117700  1
  O  O27  1  0.54826600  0.20653300  0.52644300  1
  O  O28  1  0.58279600  0.31787400  0.26791200  1
  O  O29  1  0.58244100  0.15048800  0.99671600  1
  O  O30  1  0.65048800  0.50328400  0.41755900  1
  O  O31  1  0.68212600  0.76791200  0.91720400  1
  O  O32  1  0.69680300  0.74117700  0.52084700  1
  O  O33  1  0.70653300  0.97355700  0.45173400  1
  O  O34  1  0.73208800  0.08279600  0.18212600  1
  O  O35  1  0.74117700  0.52084700  0.69680300  1
  O  O36  1  0.75882300  0.47915300  0.19680300  1
  O  O37  1  0.76791200  0.91720400  0.68212600  1
  O  O38  1  0.79346700  0.02644300  0.95173400  1
  O  O39  1  0.80319700  0.25882300  0.02084700  1
  O  O40  1  0.81787400  0.23208800  0.41720400  1
  O  O41  1  0.84951200  0.49671600  0.91755900  1
  O  O42  1  0.91755900  0.84951200  0.49671600  1
  O  O43  1  0.91720400  0.68212600  0.76791200  1
  O  O44  1  0.95173400  0.79346700  0.02644300  1
  O  O45  1  0.97915300  0.30319700  0.24117700  1
  O  O46  1  0.97355700  0.45173400  0.70653300  1
  O  O47  1  0.99671600  0.58244100  0.15048800  1
loop_
_geom_bond_atom_site_label_1
_geom_bond_atom_site_label_2
_geom_bond_distance
_geom_bond_site_symmetry_2
Fe0 O42 2.042687 1_455
Fe0 O6 2.042687 1_555
Fe0 O0 2.042687 1_565
Fe0 O8 2.057969 1_555
Fe0 O2 2.057969 1_555
Fe0 O11 2.057969 1_555
Fe1 O23 2.042687 1_545
Fe1 O29 2.042687 1_555
Fe1 O17 2.042687 1_556
Fe1 O21 2.057969 1_555
Fe1 O12 2.057969 1_555
Fe1 O15 2.057969 1_555
Fe2 O18 2.042687 1_555
Fe2 O30 2.042687 1_555
Fe2 O24 2.042687 1_555
Fe2 O35 2.057969 1_555
Fe2 O32 2.057969 1_555
Fe2 O26 2.057969 1_555
Fe3 O41 2.042687 1_554
Fe3 O47 2.042687 1_555
Fe3 O5 2.042687 1_655
Fe3 O36 2.057969 1_555
Fe3 O39 2.057969 1_555
Fe3 O45 2.057969 1_555
O0 P11 1.533756 1_455
O0 Rb0 2.944779 1_555
O1 P1 1.567353 1_565
O1 Zr3 2.091888 1_455
O1 Rb1 3.110870 1_555
O1 Rb0 3.125147 1_566
O2 P0 1.539579 1_555
O2 Rb7 3.102967 1_455
O2 Rb5 3.217871 1_455
O2 Rb0 3.391853 1_565
O3 P11 1.567353 1_455
O3 Zr0 2.091888 1_555
O3 Rb2 3.110870 1_555
O3 Rb7 3.125147 1_455
O4 P1 1.558828 1_555
O4 Zr0 2.107837 1_555
O4 Rb6 3.035324 1_455
O5 P2 1.533756 1_554
O5 Rb0 2.944779 1_555
O6 P1 1.533756 1_565
O6 Rb3 2.944779 1_555
O7 P0 1.558828 1_555
O7 Zr1 2.107837 1_555
O7 Rb1 3.035324 1_554
O8 P3 1.539579 1_555
O8 Rb3 3.102967 1_555
O8 Rb1 3.217871 1_555
O8 Rb7 3.391853 1_455
O9 P3 1.567353 1_555
O9 Zr0 2.091888 1_555
O9 Rb1 3.110870 1_555
O9 Rb7 3.125147 1_455
O10 P2 1.558828 1_555
O10 Zr0 2.107837 1_555
O10 Rb1 3.035324 1_555
O11 P4 1.539579 1_555
O11 Rb0 3.102967 1_565
O11 Rb2 3.217871 1_565
O11 Rb3 3.391853 1_555
O12 P1 1.539579 1_555
O12 Rb3 3.102967 1_545
O12 Rb1 3.217871 1_545
O12 Rb0 3.391853 1_556
O13 P3 1.558828 1_555
O13 Zr1 2.107837 1_555
O13 Rb2 3.035324 1_555
O14 P2 1.567353 1_554
O14 Zr1 2.091888 1_555
O14 Rb2 3.110870 1_555
O14 Rb4 3.125147 1_554
O15 P2 1.539579 1_555
O15 Rb0 3.102967 1_556
O15 Rb2 3.217871 1_556
O15 Rb4 3.391853 1_555
O16 P5 1.558828 1_555
O16 Zr0 2.107837 1_555
O16 Rb2 3.035324 1_555
O17 P4 1.533756 1_545
O17 Rb0 2.944779 1_555
O18 P3 1.533756 1_555
O18 Rb3 2.944779 1_555
O19 P4 1.558828 1_555
O19 Zr1 2.107837 1_555
O19 Rb5 3.035324 1_555
O20 P6 1.567353 1_555
O20 Zr1 2.091888 1_556
O20 Rb1 3.110870 1_555
O20 Rb4 3.125147 1_555
O21 P5 1.539579 1_555
O21 Rb4 3.102967 1_555
O21 Rb6 3.217871 1_555
O21 Rb3 3.391853 1_545
O22 P4 1.567353 1_545
O22 Zr2 2.091888 1_555
O22 Rb2 3.110870 1_555
O22 Rb3 3.125147 1_545
O23 P6 1.533756 1_555
O23 Rb3 2.944779 1_555
O24 P5 1.533756 1_555
O24 Rb4 2.944779 1_555
O25 P7 1.567353 1_555
O25 Zr1 2.091888 1_555
O25 Rb5 3.110870 1_555
O25 Rb4 3.125147 1_554
O26 P6 1.539579 1_555
O26 Rb3 3.102967 1_555
O26 Rb1 3.217871 1_555
O26 Rb4 3.391853 1_555
O27 P5 1.567353 1_555
O27 Zr2 2.091888 1_555
O27 Rb6 3.110870 1_555
O27 Rb3 3.125147 1_545
O28 P7 1.558828 1_555
O28 Zr2 2.107837 1_555
O28 Rb2 3.035324 1_555
O29 P8 1.533756 1_556
O29 Rb4 2.944779 1_555
O30 P7 1.533756 1_555
O30 Rb7 2.944779 1_555
O31 P6 1.558828 1_555
O31 Zr3 2.107837 1_555
O31 Rb5 3.035324 1_556
O32 P9 1.539579 1_555
O32 Rb7 3.102967 1_555
O32 Rb5 3.217871 1_555
O32 Rb3 3.391853 1_555
O33 P9 1.567353 1_555
O33 Zr2 2.091888 1_565
O33 Rb5 3.110870 1_555
O33 Rb3 3.125147 1_555
O34 P8 1.558828 1_555
O34 Zr2 2.107837 1_555
O34 Rb5 3.035324 1_545
O35 P10 1.539579 1_555
O35 Rb4 3.102967 1_555
O35 Rb6 3.217871 1_555
O35 Rb7 3.391853 1_555
O36 P7 1.539579 1_555
O36 Rb7 3.102967 1_555
O36 Rb5 3.217871 1_555
O36 Rb4 3.391853 1_554
O37 P9 1.558828 1_555
O37 Zr3 2.107837 1_555
O37 Rb6 3.035324 1_565
O38 P8 1.567353 1_556
O38 Zr3 2.091888 1_545
O38 Rb6 3.110870 1_555
O38 Rb0 3.125147 1_656
O39 P8 1.539579 1_555
O39 Rb4 3.102967 1_554
O39 Rb6 3.217871 1_554
O39 Rb0 3.391853 1_655
O40 P11 1.558828 1_555
O40 Zr2 2.107837 1_555
O40 Rb6 3.035324 1_555
O41 P10 1.533756 1_555
O41 Rb4 2.944779 1_555
O42 P9 1.533756 1_555
O42 Rb7 2.944779 1_555
O43 P10 1.558828 1_555
O43 Zr3 2.107837 1_555
O43 Rb1 3.035324 1_655
O44 P0 1.567353 1_655
O44 Zr3 2.091888 1_554
O44 Rb5 3.110870 1_555
O44 Rb0 3.125147 1_665
O45 P11 1.539579 1_555
O45 Rb0 3.102967 1_655
O45 Rb2 3.217871 1_655
O45 Rb7 3.391853 1_555
O46 P10 1.567353 1_555
O46 Zr0 2.091888 1_655
O46 Rb6 3.110870 1_555
O46 Rb7 3.125147 1_555
O47 P0 1.533756 1_655
O47 Rb7 2.944779 1_555
