# generated using pymatgen
data_La5CoRe3O16
_symmetry_space_group_name_H-M   'P 1'
_cell_length_a   5.68551450
_cell_length_b   5.67167608
_cell_length_c   10.25499293
_cell_angle_alpha   86.75491532
_cell_angle_beta   93.60176596
_cell_angle_gamma   89.52737669
_symmetry_Int_Tables_number   1
_chemical_formula_structural   La5CoRe3O16
_chemical_formula_sum   'La5 Co1 Re3 O16'
_cell_volume   329.48107082
_cell_formula_units_Z   1
loop_
 _symmetry_equiv_pos_site_id
 _symmetry_equiv_pos_as_xyz
  1  'x, y, z'
loop_
 _atom_site_type_symbol
 _atom_site_label
 _atom_site_symmetry_multiplicity
 _atom_site_fract_x
 _atom_site_fract_y
 _atom_site_fract_z
 _atom_site_occupancy
  La  La0  1  0.02831000  0.48243700  0.19905000  1
  La  La1  1  0.97169000  0.51756300  0.80095000  1
  La  La2  1  0.51090400  0.96499900  0.20352900  1
  La  La3  1  0.48909600  0.03500100  0.79647100  1
  La  La4  1  0.00000000  0.00000000  0.50000000  1
  Co  Co0  1  0.50000000  0.50000000  0.00000000  1
  Re  Re0  1  0.44494600  0.55527900  0.60571200  1
  Re  Re1  1  0.55505400  0.44472100  0.39428800  1
  Re  Re2  1  0.00000000  0.00000000  0.00000000  1
  O  O0  1  0.30270000  0.68728100  0.43359200  1
  O  O1  1  0.69730000  0.31271900  0.56640800  1
  O  O2  1  0.21933800  0.77725500  0.67651000  1
  O  O3  1  0.78066200  0.22274500  0.32349000  1
  O  O4  1  0.54761100  0.45563900  0.80018600  1
  O  O5  1  0.45238900  0.54436100  0.19981400  1
  O  O6  1  0.92224700  0.06520300  0.81766500  1
  O  O7  1  0.07775300  0.93479700  0.18233500  1
  O  O8  1  0.22598800  0.29682100  0.63602500  1
  O  O9  1  0.77401200  0.70317900  0.36397500  1
  O  O10  1  0.69605200  0.78055600  0.63504700  1
  O  O11  1  0.30394800  0.21944400  0.36495300  1
  O  O12  1  0.81000800  0.70245900  0.00187700  1
  O  O13  1  0.18999200  0.29754100  0.99812300  1
  O  O14  1  0.71368600  0.18560500  0.03474100  1
  O  O15  1  0.28631400  0.81439500  0.96525900  1
loop_
_geom_bond_atom_site_label_1
_geom_bond_atom_site_label_2
_geom_bond_distance
_geom_bond_site_symmetry_2
La0 O3 2.414035 1_455
La0 O5 2.439008 1_555
La0 O12 2.561190 1_455
La0 O13 2.580138 1_554
La0 O7 2.580518 1_555
La0 O11 2.629547 1_555
La0 O9 2.652440 1_455
La1 O2 2.414035 1_655
La1 O4 2.439008 1_555
La1 O13 2.561190 1_655
La1 O12 2.580138 1_556
La1 O6 2.580518 1_555
La1 O10 2.629547 1_555
La1 O8 2.652440 1_655
La2 O5 2.413627 1_555
La2 O14 2.433139 1_565
La2 O3 2.450756 1_565
La2 O7 2.466846 1_555
La2 O9 2.554911 1_555
La2 O11 2.587406 1_565
La3 O4 2.413627 1_555
La3 O15 2.433139 1_545
La3 O2 2.450756 1_545
La3 O6 2.466846 1_555
La3 O8 2.554911 1_555
La3 O10 2.587406 1_545
La4 O3 2.420568 1_455
La4 O2 2.420568 1_545
La4 O8 2.550911 1_555
La4 O9 2.550911 1_445
La4 O11 2.567956 1_555
La4 O10 2.567956 1_445
La4 O1 2.608656 1_455
La4 O0 2.608656 1_545
Co0 O12 2.111197 1_555
Co0 O13 2.111197 1_554
Co0 O5 2.112413 1_555
Co0 O4 2.112413 1_554
Co0 O15 2.149538 1_554
Co0 O14 2.149538 1_555
O0 Re0 1.997789 1_555
O0 Re1 2.053408 1_555
O1 Re1 1.997789 1_555
O1 Re0 2.053408 1_555
O2 Re0 1.987790 1_555
O3 Re1 1.987790 1_555
O4 Re0 2.087613 1_555
O5 Re1 2.087613 1_555
O6 Re2 1.908837 1_656
O7 Re2 1.908837 1_565
O8 Re0 1.955084 1_555
O9 Re1 1.955084 1_555
O10 Re0 1.944452 1_555
O11 Re1 1.944452 1_555
O12 Re2 2.010985 1_665
O13 Re2 2.010985 1_556
O14 Re2 1.992991 1_655
O15 Re2 1.992991 1_566
