# generated using pymatgen
data_Li16Nb2N8O
_symmetry_space_group_name_H-M   'P 1'
_cell_length_a   9.19828903
_cell_length_b   9.19828903
_cell_length_c   9.19828912
_cell_angle_alpha   38.11314659
_cell_angle_beta   38.11314659
_cell_angle_gamma   38.11314649
_symmetry_Int_Tables_number   1
_chemical_formula_structural   Li16Nb2N8O
_chemical_formula_sum   'Li16 Nb2 N8 O1'
_cell_volume   266.18965542
_cell_formula_units_Z   1
loop_
 _symmetry_equiv_pos_site_id
 _symmetry_equiv_pos_as_xyz
  1  'x, y, z'
loop_
 _atom_site_type_symbol
 _atom_site_label
 _atom_site_symmetry_multiplicity
 _atom_site_fract_x
 _atom_site_fract_y
 _atom_site_fract_z
 _atom_site_occupancy
  Li  Li0  1  0.58279600  0.58279600  0.58279600  1
  Li  Li1  1  0.41720400  0.41720400  0.41720400  1
  Li  Li2  1  0.92228500  0.92228500  0.92228500  1
  Li  Li3  1  0.07771500  0.07771500  0.07771500  1
  Li  Li4  1  0.31671500  0.66764500  0.94433600  1
  Li  Li5  1  0.94433600  0.31671500  0.66764500  1
  Li  Li6  1  0.66764500  0.94433600  0.31671500  1
  Li  Li7  1  0.68328500  0.33235500  0.05566400  1
  Li  Li8  1  0.05566400  0.68328500  0.33235500  1
  Li  Li9  1  0.33235500  0.05566400  0.68328500  1
  Li  Li10  1  0.16843300  0.82731500  0.57907200  1
  Li  Li11  1  0.17268500  0.42092800  0.83156700  1
  Li  Li12  1  0.42092800  0.83156700  0.17268500  1
  Li  Li13  1  0.83156700  0.17268500  0.42092800  1
  Li  Li14  1  0.82731500  0.57907200  0.16843300  1
  Li  Li15  1  0.57907200  0.16843300  0.82731500  1
  Nb  Nb0  1  0.24937500  0.24937500  0.24937500  1
  Nb  Nb1  1  0.75062500  0.75062500  0.75062500  1
  N  N0  1  0.32670800  0.32670800  0.32670800  1
  N  N1  1  0.67329200  0.67329200  0.67329200  1
  N  N2  1  0.91173700  0.22582300  0.53603600  1
  N  N3  1  0.53603600  0.91173700  0.22582300  1
  N  N4  1  0.22582300  0.53603600  0.91173700  1
  N  N5  1  0.08826300  0.77417700  0.46396400  1
  N  N6  1  0.46396400  0.08826300  0.77417700  1
  N  N7  1  0.77417700  0.46396400  0.08826300  1
  O  O0  1  0.00000000  0.00000000  0.00000000  1
loop_
_geom_bond_atom_site_label_1
_geom_bond_atom_site_label_2
_geom_bond_distance
_geom_bond_site_symmetry_2
Li0 N2 2.159261 1_555
Li0 N4 2.159261 1_555
Li0 N3 2.159261 1_555
Li0 N1 2.312951 1_555
Li1 N5 2.159261 1_555
Li1 N7 2.159261 1_555
Li1 N6 2.159261 1_555
Li1 N0 2.312951 1_555
Li2 O0 1.986287 1_666
Li2 N4 2.221314 1_655
Li2 N3 2.221314 1_556
Li2 N2 2.221314 1_565
Li3 O0 1.986287 1_555
Li3 N7 2.221314 1_455
Li3 N6 2.221314 1_554
Li3 N5 2.221314 1_545
Li4 N1 2.042762 1_555
Li4 O0 2.048516 1_566
Li4 N4 2.193792 1_555
Li4 N0 2.216340 1_556
Li5 N1 2.042762 1_555
Li5 O0 2.048516 1_656
Li5 N2 2.193792 1_555
Li5 N0 2.216340 1_655
Li6 N1 2.042762 1_555
Li6 O0 2.048516 1_665
Li6 N3 2.193792 1_555
Li6 N0 2.216340 1_565
Li7 N0 2.042762 1_555
Li7 O0 2.048516 1_655
Li7 N7 2.193792 1_555
Li7 N1 2.216340 1_554
Li8 N0 2.042762 1_555
Li8 O0 2.048516 1_565
Li8 N5 2.193792 1_555
Li8 N1 2.216340 1_455
Li9 N0 2.042762 1_555
Li9 O0 2.048516 1_556
Li9 N6 2.193792 1_555
Li9 N1 2.216340 1_545
Li10 N4 2.058088 1_555
Li10 N5 2.124600 1_555
Li10 N2 2.176308 1_465
Li10 N3 2.338103 1_555
Li11 N6 2.058088 1_555
Li11 N4 2.124600 1_555
Li11 N7 2.176308 1_456
Li11 N5 2.338103 1_555
Li12 N5 2.058088 1_555
Li12 N3 2.124600 1_555
Li12 N6 2.176309 1_564
Li12 N7 2.338103 1_555
Li13 N7 2.058088 1_555
Li13 N2 2.124600 1_555
Li13 N5 2.176308 1_645
Li13 N6 2.338103 1_555
Li14 N3 2.058088 1_555
Li14 N7 2.124600 1_555
Li14 N4 2.176308 1_654
Li14 N2 2.338103 1_555
Li15 N2 2.058088 1_555
Li15 N6 2.124600 1_555
Li15 N3 2.176309 1_546
Li15 N4 2.338103 1_555
N0 Nb0 1.976523 1_555
N1 Nb1 1.976523 1_555
N2 Nb0 1.979538 1_655
N3 Nb0 1.979538 1_565
N4 Nb0 1.979538 1_556
N5 Nb1 1.979538 1_455
N6 Nb1 1.979538 1_545
N7 Nb1 1.979538 1_554
