# generated using pymatgen
data_K3WC4N4OF
_symmetry_space_group_name_H-M   'P 1'
_cell_length_a   8.08284700
_cell_length_b   8.27434968
_cell_length_c   8.71191524
_cell_angle_alpha   94.38000463
_cell_angle_beta   100.77550869
_cell_angle_gamma   92.50370077
_symmetry_Int_Tables_number   1
_chemical_formula_structural   K3WC4N4OF
_chemical_formula_sum   'K6 W2 C8 N8 O2 F2'
_cell_volume   569.70993347
_cell_formula_units_Z   2
loop_
 _symmetry_equiv_pos_site_id
 _symmetry_equiv_pos_as_xyz
  1  'x, y, z'
loop_
 _atom_site_type_symbol
 _atom_site_label
 _atom_site_symmetry_multiplicity
 _atom_site_fract_x
 _atom_site_fract_y
 _atom_site_fract_z
 _atom_site_occupancy
  K  K0  1  0.71336500  0.32774900  0.50909100  1
  K  K1  1  0.28663500  0.67225100  0.49090900  1
  K  K2  1  0.79656800  0.15661500  0.00099200  1
  K  K3  1  0.20343200  0.84338500  0.99900800  1
  K  K4  1  0.26287200  0.26692900  0.77824300  1
  K  K5  1  0.73712800  0.73307100  0.22175700  1
  W  W0  1  0.25630100  0.25075600  0.27804000  1
  W  W1  1  0.74369900  0.74924400  0.72196000  1
  C  C0  1  0.65280700  0.53035300  0.81490200  1
  C  C1  1  0.02136200  0.37090100  0.28143800  1
  C  C2  1  0.34719300  0.46964700  0.18509800  1
  C  C3  1  0.47168900  0.11721800  0.22890100  1
  C  C4  1  0.52831100  0.88278200  0.77109900  1
  C  C5  1  0.86390700  0.98119100  0.68251800  1
  C  C6  1  0.97863800  0.62909900  0.71856200  1
  C  C7  1  0.13609300  0.01880900  0.31748200  1
  N  N0  1  0.89594000  0.43745600  0.28320800  1
  N  N1  1  0.39034100  0.59569500  0.14772600  1
  N  N2  1  0.07324900  0.88960500  0.32682300  1
  N  N3  1  0.92675100  0.11039500  0.67317700  1
  N  N4  1  0.58904100  0.04498900  0.20860600  1
  N  N5  1  0.60965900  0.40430500  0.85227400  1
  N  N6  1  0.41095900  0.95501100  0.79139400  1
  N  N7  1  0.10406000  0.56254400  0.71679200  1
  O  O0  1  0.34888600  0.31529700  0.47761400  1
  O  O1  1  0.65111400  0.68470300  0.52238600  1
  F  F0  1  0.85172900  0.82336000  0.95515900  1
  F  F1  1  0.14827100  0.17664000  0.04484100  1
loop_
_geom_bond_atom_site_label_1
_geom_bond_atom_site_label_2
_geom_bond_distance
_geom_bond_site_symmetry_2
K0 N3 2.827461 1_555
K0 N0 2.848861 1_555
K0 O0 2.903787 1_555
K0 O1 3.014880 1_555
K1 N2 2.827461 1_555
K1 N7 2.848861 1_555
K1 O1 2.903787 1_555
K1 O0 3.014880 1_555
K2 N5 2.847024 1_554
K2 N4 2.862259 1_555
K3 N1 2.847024 1_556
K3 N6 2.862259 1_555
K4 N7 2.852151 1_555
K4 O0 2.884377 1_555
K4 N6 2.893230 1_545
K4 N3 2.911720 1_455
K4 N5 2.915247 1_555
K5 N0 2.852151 1_555
K5 O1 2.884377 1_555
K5 N4 2.893230 1_565
K5 N2 2.911720 1_655
K5 N1 2.915247 1_555
C0 N5 1.173865 1_555
C0 W1 2.192238 1_555
C1 N0 1.176671 1_455
C1 W0 2.185572 1_555
C2 N1 1.173865 1_555
C2 W0 2.192238 1_555
C3 N4 1.176549 1_555
C3 W0 2.193070 1_555
C4 N6 1.176549 1_555
C4 W1 2.193070 1_555
C5 N3 1.178505 1_565
C5 W1 2.192747 1_555
C6 N7 1.176671 1_655
C6 W1 2.185572 1_555
C7 N2 1.178505 1_545
C7 W0 2.192747 1_555
O0 W0 1.790234 1_555
O1 W1 1.790234 1_555
F0 W1 2.089395 1_555
F0 K3 2.792453 1_655
F0 K5 2.796350 1_556
F0 K2 2.822705 1_566
F1 W0 2.089395 1_555
F1 K2 2.792453 1_455
F1 K4 2.796350 1_554
F1 K3 2.822705 1_544
