# generated using pymatgen
data_Cs2CO3
_symmetry_space_group_name_H-M   'P 1'
_cell_length_a   10.39933932
_cell_length_b   6.16631086
_cell_length_c   7.98879759
_cell_angle_alpha   82.98084348
_cell_angle_beta   90.00000000
_cell_angle_gamma   90.00000000
_symmetry_Int_Tables_number   1
_chemical_formula_structural   Cs2CO3
_chemical_formula_sum   'Cs8 C4 O12'
_cell_volume   508.44670573
_cell_formula_units_Z   4
loop_
 _symmetry_equiv_pos_site_id
 _symmetry_equiv_pos_as_xyz
  1  'x, y, z'
loop_
 _atom_site_type_symbol
 _atom_site_label
 _atom_site_symmetry_multiplicity
 _atom_site_fract_x
 _atom_site_fract_y
 _atom_site_fract_z
 _atom_site_occupancy
  Cs  Cs0  1  0.91658007  0.24175391  0.81826894  1
  Cs  Cs1  1  0.41658007  0.75824609  0.68173106  1
  Cs  Cs2  1  0.08341993  0.75824609  0.18173106  1
  Cs  Cs3  1  0.58341993  0.24175391  0.31826894  1
  Cs  Cs4  1  0.28367488  0.26153585  0.97725929  1
  Cs  Cs5  1  0.78367488  0.73846415  0.52274071  1
  Cs  Cs6  1  0.71632512  0.73846415  0.02274071  1
  Cs  Cs7  1  0.21632512  0.26153585  0.47725929  1
  C  C0  1  0.58033324  0.24581586  0.73667168  1
  C  C1  1  0.91966676  0.24581586  0.23667168  1
  C  C2  1  0.41966676  0.75418414  0.26332832  1
  C  C3  1  0.08033324  0.75418414  0.76332832  1
  O  O0  1  0.84957153  0.07663968  0.21541947  1
  O  O1  1  0.34957153  0.92336032  0.28458053  1
  O  O2  1  0.15042847  0.92336032  0.78458053  1
  O  O3  1  0.65042847  0.07663968  0.71541947  1
  O  O4  1  0.87382165  0.40176870  0.31408957  1
  O  O5  1  0.62617835  0.40176870  0.81408957  1
  O  O6  1  0.12617835  0.59823130  0.68591043  1
  O  O7  1  0.37382165  0.59823130  0.18591043  1
  O  O8  1  0.46361878  0.25846772  0.67741103  1
  O  O9  1  0.96361878  0.74153228  0.82258897  1
  O  O10  1  0.53638122  0.74153228  0.32258897  1
  O  O11  1  0.03638122  0.25846772  0.17741103  1
loop_
_geom_bond_atom_site_label_1
_geom_bond_atom_site_label_2
_geom_bond_distance
_geom_bond_site_symmetry_2
Cs0 O3 3.094656 1_555
Cs0 O9 3.119093 1_545
Cs0 O9 3.124723 1_555
Cs0 O11 3.141155 1_656
Cs0 O2 3.157556 1_645
Cs0 O5 3.175997 1_555
Cs0 O6 3.183220 1_655
Cs0 O0 3.286197 1_556
Cs1 O2 3.094656 1_555
Cs1 O8 3.119093 1_565
Cs1 O8 3.124723 1_555
Cs1 O10 3.141155 1_555
Cs1 O3 3.157556 1_565
Cs1 O6 3.175997 1_555
Cs1 O5 3.183220 1_555
Cs1 O1 3.286197 1_555
Cs2 O1 3.094656 1_555
Cs2 O11 3.119093 1_565
Cs2 O11 3.124723 1_555
Cs2 O9 3.141155 1_454
Cs2 O0 3.157556 1_465
Cs2 O7 3.175997 1_555
Cs2 O4 3.183220 1_455
Cs2 O2 3.286197 1_554
Cs3 O0 3.094656 1_555
Cs3 O10 3.119093 1_545
Cs3 O10 3.124723 1_555
Cs3 O8 3.141155 1_555
Cs3 O1 3.157556 1_545
Cs3 O4 3.175997 1_555
Cs3 O7 3.183220 1_555
Cs3 O3 3.286197 1_555
Cs4 O7 2.968769 1_556
Cs4 O11 3.027089 1_556
Cs4 O8 3.041588 1_555
Cs4 O2 3.069593 1_545
Cs4 O1 3.097492 1_546
Cs4 O6 3.351031 1_555
Cs5 O4 2.968769 1_555
Cs5 O10 3.027089 1_555
Cs5 O9 3.041588 1_555
Cs5 O3 3.069593 1_565
Cs5 O0 3.097492 1_565
Cs5 O5 3.351031 1_555
Cs6 O5 2.968769 1_554
Cs6 O9 3.027089 1_554
Cs6 O10 3.041588 1_555
Cs6 O0 3.069593 1_565
Cs6 O3 3.097492 1_564
Cs6 O4 3.351031 1_555
Cs7 O6 2.968769 1_555
Cs7 O8 3.027089 1_555
Cs7 O11 3.041588 1_555
Cs7 O1 3.069593 1_545
Cs7 O2 3.097492 1_545
Cs7 O7 3.351031 1_555
C0 O5 1.296129 1_555
C0 O3 1.300662 1_555
C0 O8 1.301685 1_555
C1 O4 1.296129 1_555
C1 O0 1.300662 1_555
C1 O11 1.301685 1_655
C2 O7 1.296129 1_555
C2 O1 1.300662 1_555
C2 O10 1.301685 1_555
C3 O6 1.296129 1_555
C3 O2 1.300662 1_555
C3 O9 1.301685 1_455
