# generated using pymatgen
data_Sr24Ta8O43
_symmetry_space_group_name_H-M   'P 1'
_cell_length_a   6.03834200
_cell_length_b   6.05689034
_cell_length_c   39.05068628
_cell_angle_alpha   85.77241381
_cell_angle_beta   87.17397991
_cell_angle_gamma   60.63033484
_symmetry_Int_Tables_number   1
_chemical_formula_structural   Sr24Ta8O43
_chemical_formula_sum   'Sr24 Ta8 O43'
_cell_volume   1241.13016275
_cell_formula_units_Z   1
loop_
 _symmetry_equiv_pos_site_id
 _symmetry_equiv_pos_as_xyz
  1  'x, y, z'
loop_
 _atom_site_type_symbol
 _atom_site_label
 _atom_site_symmetry_multiplicity
 _atom_site_fract_x
 _atom_site_fract_y
 _atom_site_fract_z
 _atom_site_occupancy
  Sr  Sr0  1  0.63072200  0.60587100  0.02604500  1
  Sr  Sr1  1  0.28763600  0.28243000  0.06288200  1
  Sr  Sr2  1  0.25725300  0.23811100  0.15098200  1
  Sr  Sr3  1  0.98282200  0.88365600  0.09848300  1
  Sr  Sr4  1  0.96614900  0.89416000  0.18869000  1
  Sr  Sr5  1  0.90866500  0.89423500  0.28221400  1
  Sr  Sr6  1  0.65184900  0.51897100  0.21593200  1
  Sr  Sr7  1  0.48435900  0.49760700  0.41434900  1
  Sr  Sr8  1  0.56420800  0.58857600  0.31244000  1
  Sr  Sr9  1  0.15485700  0.07452900  0.52497700  1
  Sr  Sr10  1  0.15972500  0.15850300  0.43573000  1
  Sr  Sr11  1  0.23607400  0.19078700  0.34675800  1
  Sr  Sr12  1  0.85000200  0.75105400  0.57212500  1
  Sr  Sr13  1  0.87083500  0.73785400  0.48140300  1
  Sr  Sr14  1  0.72696400  0.75075300  0.66526400  1
  Sr  Sr15  1  0.47612400  0.31589800  0.77157300  1
  Sr  Sr16  1  0.53504800  0.37926300  0.58703000  1
  Sr  Sr17  1  0.40800300  0.42090100  0.68025100  1
  Sr  Sr18  1  0.13961800  0.99457700  0.73044900  1
  Sr  Sr19  1  0.10017400  0.01343300  0.82021600  1
  Sr  Sr20  1  0.03143900  0.03132300  0.91088500  1
  Sr  Sr21  1  0.77879100  0.64668500  0.83390800  1
  Sr  Sr22  1  0.68144000  0.70139100  0.92826300  1
  Sr  Sr23  1  0.34472800  0.28731300  0.97268700  1
  Ta  Ta0  1  0.00100700  0.98746400  0.99668400  1
  Ta  Ta1  1  0.61739900  0.57857100  0.12470400  1
  Ta  Ta2  1  0.25819200  0.27235100  0.25171600  1
  Ta  Ta3  1  0.87978100  0.89951600  0.37772500  1
  Ta  Ta4  1  0.50224400  0.44054000  0.50256100  1
  Ta  Ta5  1  0.12722100  0.15605200  0.62693400  1
  Ta  Ta6  1  0.75761500  0.69675200  0.75001300  1
  Ta  Ta7  1  0.37568000  0.42086900  0.87334100  1
  O  O0  1  0.38735800  0.93199100  0.10382900  1
  O  O1  1  0.68012100  0.16872600  0.02319100  1
  O  O2  1  0.84426400  0.52059100  0.08268900  1
  O  O3  1  0.83844500  0.68074200  0.15059300  1
  O  O4  1  0.39337100  0.46484800  0.10530900  1
  O  O5  1  0.16627700  0.70788100  0.03019100  1
  O  O6  1  0.61344400  0.11058000  0.23200600  1
  O  O7  1  0.38462000  0.67162000  0.16671800  1
  O  O8  1  0.89345900  0.21198800  0.38475400  1
  O  O9  1  0.30613400  0.56752700  0.25777500  1
  O  O10  1  0.12277000  0.20544600  0.21304600  1
  O  O11  1  0.84295300  0.21861200  0.14410600  1
  O  O12  1  0.23859400  0.76585600  0.35899900  1
  O  O13  1  0.89938900  0.50499200  0.26742400  1
  O  O14  1  0.29665800  0.78625500  0.47550600  1
  O  O15  1  0.31604500  0.02697400  0.28830200  1
  O  O16  1  0.79882000  0.75841200  0.34019400  1
  O  O17  1  0.51689200  0.09330300  0.39457100  1
  O  O18  1  0.76727600  0.36436200  0.46650900  1
  O  O19  1  0.68753500  0.57008000  0.53195800  1
  O  O20  1  0.30412800  0.31780100  0.47879400  1
  O  O21  1  0.99605100  0.67025200  0.41661000  1
  O  O22  1  0.49419300  0.00893900  0.61254200  1
  O  O23  1  0.22816100  0.57802000  0.53899000  1
  O  O24  1  0.55874000  0.03944800  0.72153400  1
  O  O25  1  0.13132700  0.48026600  0.62695300  1
  O  O26  1  0.02740300  0.06455200  0.58754300  1
  O  O27  1  0.69789700  0.10105300  0.52765500  1
  O  O28  1  0.03801100  0.59713000  0.71676700  1
  O  O29  1  0.75994500  0.36645400  0.64092400  1
  O  O30  1  0.89988600  0.85748600  0.78035200  1
  O  O31  1  0.57173100  0.57321200  0.72265200  1
  O  O32  1  0.22205400  0.93336000  0.66713900  1
  O  O33  1  0.45450200  0.83232000  0.78349300  1
  O  O34  1  0.74803900  0.26784600  0.86224000  1
  O  O35  1  0.40029200  0.73850100  0.87451500  1
  O  O36  1  0.90881300  0.32416100  0.96803800  1
  O  O37  1  0.28270600  0.33285900  0.83275600  1
  O  O38  1  0.90425300  0.36879300  0.77782700  1
  O  O39  1  0.01104100  0.65813000  0.88453900  1
  O  O40  1  0.34381500  0.85945800  0.97180300  1
  O  O41  1  0.87126300  0.87526900  0.96227800  1
  O  O42  1  0.41845400  0.19565900  0.91192400  1
loop_
_geom_bond_atom_site_label_1
_geom_bond_atom_site_label_2
_geom_bond_distance
_geom_bond_site_symmetry_2
O0 Ta1 2.028313 1_555
O0 Sr1 2.401162 1_565
O0 Sr2 2.525378 1_565
O0 Sr3 2.618580 1_455
O1 Ta0 1.978471 1_644
O1 Sr0 2.525363 1_555
O1 Sr1 2.586034 1_555
O1 Sr23 2.695404 1_554
O2 Ta1 2.020720 1_555
O2 Sr1 2.453339 1_655
O2 Sr0 2.506359 1_555
O2 Sr3 2.823426 1_555
O3 Ta1 2.054779 1_555
O3 Sr4 2.419350 1_555
O3 Sr3 2.630361 1_555
O3 Sr2 2.632613 1_655
O3 Sr6 3.028320 1_555
O4 Ta1 1.992478 1_555
O4 Sr1 2.332285 1_555
O4 Sr2 2.518765 1_555
O4 Sr3 2.539400 1_455
O5 Ta0 1.928747 1_554
O5 Sr0 2.558003 1_555
O5 Sr1 2.561667 1_555
O5 Sr3 2.905714 1_455
O5 Sr23 3.256528 1_554
O6 Ta2 2.010169 1_555
O6 Sr4 2.519655 1_545
O6 Sr5 2.532519 1_545
O6 Sr6 2.624076 1_555
O7 Ta1 2.029052 1_555
O7 Sr4 2.356687 1_455
O7 Sr6 2.394264 1_555
O8 Ta3 1.973902 1_545
O8 Sr11 2.441910 1_655
O8 Sr7 2.500437 1_555
O8 Sr10 2.522357 1_655
O9 Ta2 1.978127 1_555
O9 Sr5 2.445587 1_455
O9 Sr6 2.499316 1_555
O9 Sr8 2.750395 1_555
O10 Ta2 1.910572 1_555
O10 Sr6 2.531415 1_455
O10 Sr2 2.542723 1_555
O10 Sr4 2.730563 1_445
O11 Ta1 2.031744 1_555
O11 Sr4 2.373986 1_545
O11 Sr2 2.589440 1_655
O11 Sr3 2.589838 1_545
O12 Ta3 2.023611 1_455
O12 Sr8 2.487768 1_555
O12 Sr11 2.575633 1_565
O12 Sr7 2.635804 1_555
O13 Ta2 2.014371 1_655
O13 Sr8 2.493629 1_555
O13 Sr5 2.495692 1_555
O13 Sr6 2.536105 1_555
O14 Ta4 2.072526 1_555
O14 Sr10 2.441627 1_565
O14 Sr9 2.526207 1_565
O14 Sr13 2.724228 1_455
O14 Sr7 2.906858 1_555
O15 Ta2 1.897098 1_555
O15 Sr8 2.460098 1_545
O15 Sr11 2.486734 1_555
O15 Sr5 2.963071 1_445
O16 Ta3 1.944889 1_555
O16 Sr8 2.446424 1_555
O16 Sr5 2.521043 1_555
O16 Sr11 3.123306 1_565
O16 Sr11 3.144815 1_655
O17 Ta3 2.015169 1_545
O17 Sr11 2.424397 1_555
O17 Sr10 2.511377 1_555
O17 Sr7 2.534537 1_555
O18 Ta4 1.976207 1_555
O18 Sr10 2.378411 1_655
O18 Sr7 2.543044 1_555
O18 Sr13 2.732084 1_555
O18 Sr9 3.110960 1_655
O19 Ta4 2.075045 1_555
O19 Sr12 2.466640 1_555
O19 Sr13 2.597537 1_555
O19 Sr16 2.700146 1_555
O19 Sr9 2.963622 1_655
O19 Sr9 3.174812 1_565
O20 Ta4 1.982105 1_555
O20 Sr10 2.393392 1_555
O20 Sr13 2.609861 1_455
O20 Sr9 2.643241 1_555
O20 Sr7 3.031872 1_555
O21 Ta3 1.888107 1_555
O21 Sr7 2.599792 1_655
O21 Sr13 2.608014 1_555
O21 Sr10 2.805090 1_655
O22 Ta5 2.008570 1_555
O22 Sr16 2.504708 1_555
O22 Sr12 2.506836 1_545
O22 Sr14 2.512868 1_545
O23 Ta4 2.011685 1_555
O23 Sr12 2.355425 1_455
O23 Sr16 2.494829 1_555
O23 Sr9 2.831041 1_565
O23 Sr13 2.959465 1_455
O24 Ta6 2.081756 1_545
O24 Sr17 2.509632 1_555
O24 Sr15 2.537291 1_555
O24 Sr18 2.678407 1_545
O24 Sr14 2.742635 1_545
O25 Ta5 1.976061 1_555
O25 Sr17 2.625951 1_555
O25 Sr14 2.638465 1_455
O25 Sr16 2.655315 1_555
O25 Sr12 2.695910 1_455
O26 Ta5 1.892459 1_555
O26 Sr9 2.530580 1_555
O26 Sr16 2.629481 1_455
O26 Sr12 2.709765 1_445
O27 Ta4 2.004587 1_555
O27 Sr12 2.461293 1_545
O27 Sr9 2.681340 1_655
O27 Sr13 2.708990 1_545
O27 Sr16 2.812193 1_555
O28 Ta6 1.952676 1_455
O28 Sr17 2.394839 1_555
O28 Sr14 2.611674 1_455
O28 Sr18 2.850902 1_555
O28 Sr15 3.175099 1_555
O29 Ta5 2.012916 1_655
O29 Sr17 2.459458 1_555
O29 Sr14 2.492773 1_555
O29 Sr16 2.536520 1_555
O30 Ta6 2.044568 1_555
O30 Sr19 2.510213 1_665
O30 Sr21 2.628708 1_555
O30 Sr18 2.691628 1_655
O30 Sr15 2.711383 1_565
O31 Ta6 2.005326 1_555
O31 Sr17 2.418961 1_555
O31 Sr15 2.597445 1_555
O31 Sr18 2.630343 1_555
O31 Sr14 2.735603 1_555
O32 Ta5 1.905529 1_565
O32 Sr18 2.516006 1_555
O32 Sr14 2.684448 1_555
O32 Sr17 2.749728 1_555
O33 Ta6 2.044927 1_555
O33 Sr19 2.337688 1_565
O33 Sr21 2.620825 1_555
O33 Sr18 2.669666 1_555
O33 Sr15 2.996787 1_565
O33 Sr15 3.134589 1_555
O34 Ta7 2.005348 1_555
O34 Sr20 2.470616 1_655
O34 Sr19 2.530549 1_655
O34 Sr21 2.558726 1_555
O35 Ta7 2.004884 1_555
O35 Sr20 2.511617 1_565
O35 Sr21 2.563841 1_555
O35 Sr22 2.691742 1_555
O35 Sr19 2.729746 1_565
O36 Ta0 2.081260 1_645
O36 Sr22 2.475497 1_555
O36 Sr23 2.544834 1_655
O36 Sr20 2.794265 1_655
O36 Sr0 2.871704 1_556
O37 Ta7 1.901843 1_555
O37 Sr15 2.593531 1_555
O37 Sr21 2.683219 1_455
O37 Sr19 2.735395 1_555
O38 Ta6 1.990244 1_555
O38 Sr19 2.437729 1_655
O38 Sr21 2.707800 1_555
O38 Sr15 2.780592 1_555
O38 Sr18 2.789186 1_645
O39 Ta7 1.999602 1_555
O39 Sr22 2.482834 1_455
O39 Sr21 2.503947 1_455
O39 Sr20 2.609881 1_565
O40 Ta0 2.041703 1_555
O40 Sr22 2.438742 1_555
O40 Sr23 2.596953 1_565
O40 Sr0 2.668204 1_556
O40 Sr20 2.907230 1_565
O41 Ta0 1.908243 1_655
O41 Sr22 2.393287 1_555
O41 Sr20 2.506449 1_665
O42 Ta7 1.894017 1_555
O42 Sr23 2.446294 1_555
O42 Sr22 2.654500 1_545
O42 Sr20 2.958137 1_555
