# generated using pymatgen
data_Na3Sr4Al5F26
_symmetry_space_group_name_H-M   'P 1'
_cell_length_a   10.39771200
_cell_length_b   10.39771200
_cell_length_c   18.60185600
_cell_angle_alpha   90.00000000
_cell_angle_beta   90.00000000
_cell_angle_gamma   90.00000000
_symmetry_Int_Tables_number   1
_chemical_formula_structural   Na3Sr4Al5F26
_chemical_formula_sum   'Na12 Sr16 Al20 F104'
_cell_volume   2011.09157257
_cell_formula_units_Z   4
loop_
 _symmetry_equiv_pos_site_id
 _symmetry_equiv_pos_as_xyz
  1  'x, y, z'
loop_
 _atom_site_type_symbol
 _atom_site_label
 _atom_site_symmetry_multiplicity
 _atom_site_fract_x
 _atom_site_fract_y
 _atom_site_fract_z
 _atom_site_occupancy
  Na  Na0  1  0.75000000  0.25000000  0.49597900  1
  Na  Na1  1  0.75000000  0.25000000  0.99597900  1
  Na  Na2  1  0.50000000  0.50000000  0.50000000  1
  Na  Na3  1  0.00000000  0.50000000  0.00000000  1
  Na  Na4  1  0.25000000  0.25000000  0.50220100  1
  Na  Na5  1  0.25000000  0.75000000  0.50402100  1
  Na  Na6  1  0.75000000  0.75000000  0.49779900  1
  Na  Na7  1  0.50000000  0.00000000  0.00000000  1
  Na  Na8  1  0.00000000  0.00000000  0.50000000  1
  Na  Na9  1  0.25000000  0.25000000  0.99779900  1
  Na  Na10  1  0.25000000  0.75000000  0.00402100  1
  Na  Na11  1  0.75000000  0.75000000  0.00220100  1
  Sr  Sr0  1  0.28743700  0.99714400  0.19450300  1
  Sr  Sr1  1  0.50285600  0.28743700  0.30549700  1
  Sr  Sr2  1  0.78743700  0.49714400  0.80549700  1
  Sr  Sr3  1  0.78204700  0.49732800  0.17445800  1
  Sr  Sr4  1  0.28204700  0.99732800  0.82554200  1
  Sr  Sr5  1  0.49714400  0.71256300  0.69450300  1
  Sr  Sr6  1  0.49732800  0.71795300  0.32554200  1
  Sr  Sr7  1  0.71256300  0.00285600  0.80549700  1
  Sr  Sr8  1  0.71795300  0.00267200  0.17445800  1
  Sr  Sr9  1  0.99714400  0.21256300  0.30549700  1
  Sr  Sr10  1  0.00267200  0.78204700  0.32554200  1
  Sr  Sr11  1  0.00285600  0.78743700  0.69450300  1
  Sr  Sr12  1  0.50267200  0.28204700  0.67445800  1
  Sr  Sr13  1  0.21256300  0.50285600  0.19450300  1
  Sr  Sr14  1  0.99732800  0.21795300  0.67445800  1
  Sr  Sr15  1  0.21795300  0.50267200  0.82554200  1
  Al  Al0  1  0.01498900  0.25591800  0.12763000  1
  Al  Al1  1  0.01030300  0.74719400  0.13420500  1
  Al  Al2  1  0.98969700  0.25280600  0.86579500  1
  Al  Al3  1  0.48969700  0.75280600  0.13420500  1
  Al  Al4  1  0.25280600  0.51030300  0.63420500  1
  Al  Al5  1  0.50000000  0.50000000  0.00000000  1
  Al  Al6  1  0.48501100  0.24408200  0.12763000  1
  Al  Al7  1  0.24719400  0.98969700  0.63420500  1
  Al  Al8  1  0.24408200  0.01498900  0.37237000  1
  Al  Al9  1  0.00000000  0.00000000  0.00000000  1
  Al  Al10  1  0.75591800  0.98501100  0.62763000  1
  Al  Al11  1  0.51030300  0.24719400  0.86579500  1
  Al  Al12  1  0.98501100  0.74408200  0.87237000  1
  Al  Al13  1  0.00000000  0.50000000  0.50000000  1
  Al  Al14  1  0.50000000  0.00000000  0.50000000  1
  Al  Al15  1  0.74408200  0.51498900  0.62763000  1
  Al  Al16  1  0.51498900  0.75591800  0.87237000  1
  Al  Al17  1  0.75280600  0.01030300  0.36579500  1
  Al  Al18  1  0.74719400  0.48969700  0.36579500  1
  Al  Al19  1  0.25591800  0.48501100  0.37237000  1
  F  F0  1  0.34379500  0.39617100  0.57821500  1
  F  F1  1  0.04721400  0.87371500  0.06612300  1
  F  F2  1  0.34070100  0.50425900  0.96325800  1
  F  F3  1  0.12275000  0.99717700  0.30242500  1
  F  F4  1  0.45038100  0.36858200  0.06036200  1
  F  F5  1  0.84091600  0.10526100  0.57403000  1
  F  F6  1  0.60382900  0.84379500  0.07821500  1
  F  F7  1  0.38650900  0.66686900  0.82779600  1
  F  F8  1  0.62628500  0.04721400  0.43387700  1
  F  F9  1  0.50425900  0.15929900  0.53674200  1
  F  F10  1  0.66686900  0.11349100  0.67220400  1
  F  F11  1  0.88650900  0.16686900  0.17220400  1
  F  F12  1  0.50282300  0.12275000  0.19757500  1
  F  F13  1  0.36050800  0.14309400  0.08759400  1
  F  F14  1  0.32498100  0.12784000  0.31240900  1
  F  F15  1  0.87280200  0.99042400  0.29443300  1
  F  F16  1  0.65908400  0.39473900  0.57403000  1
  F  F17  1  0.17649200  0.62418900  0.69501100  1
  F  F18  1  0.10526100  0.65908400  0.92597000  1
  F  F19  1  0.86858200  0.54961900  0.56036200  1
  F  F20  1  0.63748900  0.14783400  0.90604200  1
  F  F21  1  0.13141800  0.45038100  0.43963800  1
  F  F22  1  0.14783400  0.86251100  0.59395800  1
  F  F23  1  0.67501900  0.87216000  0.68759100  1
  F  F24  1  0.12719800  0.00957600  0.70556700  1
  F  F25  1  0.37371500  0.95278600  0.56612300  1
  F  F26  1  0.84070100  0.00425900  0.03674200  1
  F  F27  1  0.85216600  0.13748900  0.40604200  1
  F  F28  1  0.00957600  0.37280200  0.79443300  1
  F  F29  1  0.62719800  0.50957600  0.29443300  1
  F  F30  1  0.62275000  0.49717700  0.69757500  1
  F  F31  1  0.87371500  0.45278600  0.43387700  1
  F  F32  1  0.34091600  0.60526100  0.42597000  1
  F  F33  1  0.95038100  0.86858200  0.93963800  1
  F  F34  1  0.87725000  0.00282300  0.69757500  1
  F  F35  1  0.86251100  0.35216600  0.90604200  1
  F  F36  1  0.14309400  0.13949200  0.41240600  1
  F  F37  1  0.89617100  0.65620500  0.07821500  1
  F  F38  1  0.37216000  0.32498100  0.18759100  1
  F  F39  1  0.65620500  0.60382900  0.42178500  1
  F  F40  1  0.33668500  0.12044800  0.67141800  1
  F  F41  1  0.35690600  0.36050800  0.41240600  1
  F  F42  1  0.11349100  0.83313100  0.82779600  1
  F  F43  1  0.49042400  0.12719800  0.79443300  1
  F  F44  1  0.63949200  0.85690600  0.91240600  1
  F  F45  1  0.66331500  0.87955200  0.32858200  1
  F  F46  1  0.10382900  0.34379500  0.92178500  1
  F  F47  1  0.83668500  0.62044800  0.32858200  1
  F  F48  1  0.37725000  0.50282300  0.30242500  1
  F  F49  1  0.49717700  0.87725000  0.80242500  1
  F  F50  1  0.87581100  0.17649200  0.80498900  1
  F  F51  1  0.82498100  0.62784000  0.68759100  1
  F  F52  1  0.89473900  0.34091600  0.07403000  1
  F  F53  1  0.36858200  0.04961900  0.43963800  1
  F  F54  1  0.17501900  0.37216000  0.31240900  1
  F  F55  1  0.15929900  0.99574100  0.96325800  1
  F  F56  1  0.54721400  0.37371500  0.93387700  1
  F  F57  1  0.36251100  0.85216600  0.09395800  1
  F  F58  1  0.37280200  0.49042400  0.70556700  1
  F  F59  1  0.12044800  0.16331500  0.82858200  1
  F  F60  1  0.50957600  0.87280200  0.20556700  1
  F  F61  1  0.37955200  0.33668500  0.82858200  1
  F  F62  1  0.85690600  0.86050800  0.58759400  1
  F  F63  1  0.95278600  0.12628500  0.93387700  1
  F  F64  1  0.87216000  0.82498100  0.81240900  1
  F  F65  1  0.64309400  0.63949200  0.58759400  1
  F  F66  1  0.12628500  0.54721400  0.56612300  1
  F  F67  1  0.12418900  0.82350800  0.19501100  1
  F  F68  1  0.99042400  0.62719800  0.20556700  1
  F  F69  1  0.67649200  0.12418900  0.30498900  1
  F  F70  1  0.13949200  0.35690600  0.08759400  1
  F  F71  1  0.83313100  0.38650900  0.67220400  1
  F  F72  1  0.39617100  0.15620500  0.92178500  1
  F  F73  1  0.35216600  0.63748900  0.59395800  1
  F  F74  1  0.63141800  0.95038100  0.56036200  1
  F  F75  1  0.15620500  0.10382900  0.57821500  1
  F  F76  1  0.62784000  0.67501900  0.81240900  1
  F  F77  1  0.65929900  0.49574100  0.03674200  1
  F  F78  1  0.99574100  0.34070100  0.53674200  1
  F  F79  1  0.45278600  0.62628500  0.06612300  1
  F  F80  1  0.39473900  0.84091600  0.92597000  1
  F  F81  1  0.16686900  0.61349100  0.32779600  1
  F  F82  1  0.62044800  0.66331500  0.17141800  1
  F  F83  1  0.32350800  0.87581100  0.69501100  1
  F  F84  1  0.82350800  0.37581100  0.30498900  1
  F  F85  1  0.13748900  0.64783400  0.09395800  1
  F  F86  1  0.00425900  0.65929900  0.46325800  1
  F  F87  1  0.12784000  0.17501900  0.18759100  1
  F  F88  1  0.15908400  0.89473900  0.42597000  1
  F  F89  1  0.00282300  0.62275000  0.80242500  1
  F  F90  1  0.99717700  0.37725000  0.19757500  1
  F  F91  1  0.54961900  0.63141800  0.93963800  1
  F  F92  1  0.61349100  0.33313100  0.17220400  1
  F  F93  1  0.37581100  0.67649200  0.19501100  1
  F  F94  1  0.33313100  0.88650900  0.32779600  1
  F  F95  1  0.64783400  0.36251100  0.40604200  1
  F  F96  1  0.86050800  0.64309400  0.91240600  1
  F  F97  1  0.04961900  0.13141800  0.06036200  1
  F  F98  1  0.87955200  0.83668500  0.17141800  1
  F  F99  1  0.60526100  0.15908400  0.07403000  1
  F  F100  1  0.16331500  0.37955200  0.67141800  1
  F  F101  1  0.84379500  0.89617100  0.42178500  1
  F  F102  1  0.49574100  0.84070100  0.46325800  1
  F  F103  1  0.62418900  0.32350800  0.80498900  1
loop_
_geom_bond_atom_site_label_1
_geom_bond_atom_site_label_2
_geom_bond_distance
_geom_bond_site_symmetry_2
Al0 F90 1.821744 1_455
Al0 F87 1.824416 1_555
Al0 F11 1.824673 1_455
Al0 F70 1.825674 1_555
Al0 F52 1.827160 1_455
Al0 F97 1.836082 1_555
Al1 F98 1.786977 1_455
Al1 F67 1.819683 1_555
Al1 F68 1.833468 1_455
Al1 F85 1.837578 1_555
Al1 F37 1.840681 1_455
Al1 F1 1.865961 1_555
Al2 F59 1.786977 1_655
Al2 F50 1.819683 1_555
Al2 F28 1.833468 1_655
Al2 F35 1.837578 1_555
Al2 F46 1.840681 1_655
Al2 F63 1.865961 1_555
Al3 F82 1.786977 1_555
Al3 F93 1.819683 1_555
Al3 F60 1.833468 1_555
Al3 F57 1.837578 1_555
Al3 F6 1.840681 1_555
Al3 F79 1.865961 1_555
Al4 F100 1.786977 1_555
Al4 F17 1.819683 1_555
Al4 F58 1.833468 1_555
Al4 F73 1.837578 1_555
Al4 F0 1.840681 1_555
Al4 F66 1.865961 1_555
Al5 F77 1.792365 1_555
Al5 F2 1.792365 1_554
Al5 F4 1.842318 1_555
Al5 F91 1.842318 1_554
Al5 F79 1.864964 1_555
Al5 F56 1.864964 1_554
Al6 F12 1.821744 1_555
Al6 F38 1.824416 1_555
Al6 F92 1.824673 1_555
Al6 F13 1.825674 1_555
Al6 F99 1.827160 1_555
Al6 F4 1.836082 1_555
Al7 F40 1.786977 1_565
Al7 F83 1.819683 1_555
Al7 F24 1.833468 1_565
Al7 F22 1.837578 1_555
Al7 F75 1.840681 1_565
Al7 F25 1.865961 1_555
Al8 F3 1.821744 1_545
Al8 F14 1.824416 1_555
Al8 F94 1.824673 1_545
Al8 F36 1.825674 1_555
Al8 F88 1.827160 1_545
Al8 F53 1.836082 1_555
Al9 F26 1.792365 1_455
Al9 F55 1.792365 1_544
Al9 F97 1.842318 1_555
Al9 F33 1.842318 1_444
Al9 F1 1.864964 1_545
Al9 F63 1.864964 1_454
Al10 F34 1.821744 1_565
Al10 F23 1.824416 1_555
Al10 F10 1.824673 1_565
Al10 F62 1.825674 1_555
Al10 F5 1.827160 1_565
Al10 F74 1.836082 1_555
Al11 F61 1.786977 1_555
Al11 F103 1.819683 1_555
Al11 F43 1.833468 1_555
Al11 F20 1.837578 1_555
Al11 F72 1.840681 1_555
Al11 F56 1.865961 1_555
Al12 F89 1.821744 1_655
Al12 F64 1.824416 1_555
Al12 F42 1.824673 1_655
Al12 F96 1.825674 1_555
Al12 F18 1.827160 1_655
Al12 F33 1.836082 1_555
Al13 F86 1.792365 1_555
Al13 F78 1.792365 1_455
Al13 F21 1.842318 1_555
Al13 F19 1.842318 1_455
Al13 F31 1.864964 1_455
Al13 F66 1.864964 1_555
Al14 F102 1.792365 1_545
Al14 F9 1.792365 1_555
Al14 F53 1.842318 1_555
Al14 F74 1.842318 1_545
Al14 F8 1.864964 1_555
Al14 F25 1.864964 1_545
Al15 F30 1.821744 1_555
Al15 F51 1.824416 1_555
Al15 F71 1.824673 1_555
Al15 F65 1.825674 1_555
Al15 F16 1.827160 1_555
Al15 F19 1.836082 1_555
Al16 F49 1.821744 1_555
Al16 F76 1.824416 1_555
Al16 F7 1.824673 1_555
Al16 F44 1.825674 1_555
Al16 F80 1.827160 1_555
Al16 F91 1.836082 1_555
Al17 F45 1.786977 1_545
Al17 F69 1.819683 1_555
Al17 F15 1.833468 1_545
Al17 F27 1.837578 1_555
Al17 F101 1.840681 1_545
Al17 F8 1.865961 1_555
Al18 F47 1.786977 1_555
Al18 F84 1.819683 1_555
Al18 F29 1.833468 1_555
Al18 F95 1.837578 1_555
Al18 F39 1.840681 1_555
Al18 F31 1.865961 1_555
Al19 F48 1.821744 1_555
Al19 F54 1.824416 1_555
Al19 F81 1.824673 1_555
Al19 F41 1.825674 1_555
Al19 F32 1.827160 1_555
Al19 F21 1.836082 1_555
F0 Na4 2.293566 1_555
F0 Na2 2.433168 1_555
F0 Sr12 2.709653 1_555
F1 Na10 2.726726 1_555
F2 Na10 2.827214 1_556
F2 Sr15 2.862148 1_555
F2 Na9 2.879489 1_555
F3 Sr9 2.593144 1_465
F3 Sr10 2.597557 1_555
F3 Sr0 2.638647 1_555
F4 Na9 2.686193 1_554
F5 Na0 2.294888 1_555
F5 Na8 2.414610 1_655
F5 Sr14 2.740052 1_555
F6 Na11 2.293566 1_555
F6 Na7 2.433168 1_565
F6 Sr8 2.709653 1_565
F7 Sr15 2.447067 1_555
F7 Sr5 2.774337 1_555
F8 Na0 2.726726 1_555
F9 Na0 2.827214 1_555
F9 Sr12 2.862148 1_555
F9 Na4 2.879489 1_555
F10 Sr12 2.447067 1_555
F10 Sr7 2.774337 1_555
F11 Sr8 2.447067 1_555
F11 Sr9 2.774337 1_555
F12 Sr0 2.593144 1_545
F12 Sr8 2.597557 1_555
F12 Sr1 2.638647 1_555
F13 Na9 2.312133 1_554
F13 Sr0 2.614412 1_545
F13 Na7 2.640517 1_555
F14 Sr1 2.488154 1_555
F14 Sr0 2.609510 1_545
F15 Sr10 2.617761 1_655
F15 Sr9 2.654951 1_565
F15 Sr8 2.754869 1_565
F16 Na0 2.294888 1_555
F16 Na2 2.414610 1_555
F16 Sr12 2.740052 1_555
F17 Sr11 2.478065 1_555
F17 Sr15 2.770927 1_555
F18 Na10 2.294888 1_556
F18 Na3 2.414610 1_556
F18 Sr15 2.740052 1_555
F19 Na6 2.686193 1_555
F20 Na1 2.301292 1_555
F20 Sr7 2.525830 1_555
F20 Na7 2.731527 1_556
F21 Na4 2.686193 1_555
F22 Na5 2.301292 1_555
F22 Sr11 2.525830 1_555
F22 Na8 2.731527 1_565
F23 Sr5 2.488154 1_555
F23 Sr7 2.609510 1_565
F24 Sr14 2.617761 1_455
F24 Sr11 2.654951 1_545
F24 Sr4 2.754869 1_545
F25 Na5 2.726726 1_555
F26 Na1 2.827214 1_554
F26 Sr8 2.862148 1_555
F26 Na11 2.879489 1_545
F27 Na0 2.301292 1_555
F27 Sr9 2.525830 1_555
F27 Na8 2.731527 1_655
F28 Sr15 2.617761 1_555
F28 Sr2 2.654951 1_455
F28 Sr14 2.754869 1_455
F29 Sr6 2.617761 1_555
F29 Sr1 2.654951 1_555
F29 Sr3 2.754869 1_555
F30 Sr5 2.593144 1_555
F30 Sr12 2.597557 1_555
F30 Sr2 2.638647 1_555
F31 Na0 2.726726 1_555
F32 Na5 2.294888 1_555
F32 Na2 2.414610 1_555
F32 Sr6 2.740052 1_555
F33 Na11 2.686193 1_556
F34 Sr11 2.593144 1_645
F34 Sr14 2.597557 1_555
F34 Sr7 2.638647 1_555
F35 Na1 2.301292 1_555
F35 Sr2 2.525830 1_555
F35 Na3 2.731527 1_656
F36 Na4 2.312133 1_555
F36 Sr9 2.614412 1_455
F36 Na8 2.640517 1_555
F37 Na11 2.293566 1_555
F37 Na3 2.433168 1_655
F37 Sr3 2.709653 1_555
F38 Sr13 2.488154 1_555
F38 Sr1 2.609510 1_555
F39 Na6 2.293566 1_555
F39 Na2 2.433168 1_555
F39 Sr6 2.709653 1_555
F40 Sr12 2.409388 1_555
F41 Na4 2.312133 1_555
F41 Sr1 2.614412 1_555
F41 Na2 2.640517 1_555
F42 Sr4 2.447067 1_555
F42 Sr11 2.774337 1_555
F43 Sr4 2.617761 1_545
F43 Sr7 2.654951 1_555
F43 Sr12 2.754869 1_555
F44 Na11 2.312133 1_556
F44 Sr7 2.614412 1_565
F44 Na7 2.640517 1_566
F45 Sr6 2.409388 1_555
F46 Na9 2.293566 1_555
F46 Na3 2.433168 1_556
F46 Sr15 2.709653 1_555
F47 Sr10 2.409388 1_655
F48 Sr1 2.593144 1_555
F48 Sr6 2.597557 1_555
F48 Sr13 2.638647 1_555
F49 Sr7 2.593144 1_565
F49 Sr4 2.597557 1_555
F49 Sr5 2.638647 1_555
F50 Sr7 2.478065 1_555
F50 Sr14 2.770927 1_555
F51 Sr11 2.488154 1_655
F51 Sr2 2.609510 1_555
F52 Na1 2.294888 1_554
F52 Na3 2.414610 1_655
F52 Sr3 2.740052 1_555
F53 Na4 2.686193 1_555
F54 Sr9 2.488154 1_455
F54 Sr13 2.609510 1_555
F55 Na10 2.827214 1_556
F55 Sr4 2.862148 1_555
F55 Na9 2.879489 1_565
F56 Na1 2.726726 1_555
F57 Na10 2.301292 1_555
F57 Sr0 2.525830 1_555
F57 Na7 2.731527 1_565
F58 Sr12 2.617761 1_555
F58 Sr5 2.654951 1_555
F58 Sr15 2.754869 1_555
F59 Sr4 2.409388 1_545
F60 Sr8 2.617761 1_565
F60 Sr0 2.654951 1_555
F60 Sr6 2.754869 1_555
F61 Sr15 2.409388 1_555
F62 Na6 2.312133 1_555
F62 Sr11 2.614412 1_655
F62 Na8 2.640517 1_665
F63 Na1 2.726726 1_555
F64 Sr7 2.488154 1_565
F64 Sr11 2.609510 1_655
F65 Na6 2.312133 1_555
F65 Sr5 2.614412 1_555
F65 Na2 2.640517 1_555
F66 Na5 2.726726 1_555
F67 Sr0 2.478065 1_555
F67 Sr10 2.770927 1_555
F68 Sr3 2.617761 1_555
F68 Sr13 2.654951 1_655
F68 Sr10 2.754869 1_655
F69 Sr1 2.478065 1_555
F69 Sr8 2.770927 1_555
F70 Na9 2.312133 1_554
F70 Sr13 2.614412 1_555
F70 Na3 2.640517 1_555
F71 Sr14 2.447067 1_555
F71 Sr2 2.774337 1_555
F72 Na9 2.293566 1_555
F72 Na7 2.433168 1_556
F72 Sr4 2.709653 1_545
F73 Na5 2.301292 1_555
F73 Sr5 2.525830 1_555
F73 Na2 2.731527 1_555
F74 Na6 2.686193 1_555
F75 Na4 2.293566 1_555
F75 Na8 2.433168 1_555
F75 Sr14 2.709653 1_455
F76 Sr2 2.488154 1_555
F76 Sr5 2.609510 1_555
F77 Na1 2.827214 1_554
F77 Sr3 2.862148 1_555
F77 Na11 2.879489 1_555
F78 Na0 2.827214 1_555
F78 Sr14 2.862148 1_555
F78 Na4 2.879489 1_655
F79 Na10 2.726726 1_555
F80 Na10 2.294888 1_556
F80 Na7 2.414610 1_566
F80 Sr4 2.740052 1_555
F81 Sr10 2.447067 1_555
F81 Sr13 2.774337 1_555
F82 Sr3 2.409388 1_555
F83 Sr5 2.478065 1_555
F83 Sr4 2.770927 1_555
F84 Sr9 2.478065 1_555
F84 Sr3 2.770927 1_555
F85 Na10 2.301292 1_555
F85 Sr13 2.525830 1_555
F85 Na3 2.731527 1_555
F86 Na5 2.827214 1_555
F86 Sr10 2.862148 1_555
F86 Na6 2.879489 1_455
F87 Sr0 2.488154 1_545
F87 Sr9 2.609510 1_455
F88 Na5 2.294888 1_555
F88 Na8 2.414610 1_565
F88 Sr10 2.740052 1_555
F89 Sr2 2.593144 1_455
F89 Sr15 2.597557 1_555
F89 Sr11 2.638647 1_555
F90 Sr13 2.593144 1_655
F90 Sr3 2.597557 1_555
F90 Sr9 2.638647 1_555
F91 Na11 2.686193 1_556
F92 Sr3 2.447067 1_555
F92 Sr1 2.774337 1_555
F93 Sr13 2.478065 1_555
F93 Sr6 2.770927 1_555
F94 Sr6 2.447067 1_555
F94 Sr0 2.774337 1_555
F95 Na0 2.301292 1_555
F95 Sr1 2.525830 1_555
F95 Na2 2.731527 1_555
F96 Na11 2.312133 1_556
F96 Sr2 2.614412 1_555
F96 Na3 2.640517 1_656
F97 Na9 2.686193 1_554
F98 Sr8 2.409388 1_565
F99 Na1 2.294888 1_554
F99 Na7 2.414610 1_555
F99 Sr8 2.740052 1_555
F100 Sr14 2.409388 1_455
F101 Na6 2.293566 1_555
F101 Na8 2.433168 1_665
F101 Sr10 2.709653 1_655
F102 Na5 2.827214 1_555
F102 Sr6 2.862148 1_555
F102 Na6 2.879489 1_555
F103 Sr2 2.478065 1_555
F103 Sr12 2.770927 1_555
