# generated using pymatgen
data_Ni3P4PbO14
_symmetry_space_group_name_H-M   'P 1'
_cell_length_a   7.79602200
_cell_length_b   7.48570900
_cell_length_c   9.52959647
_cell_angle_alpha   67.96362763
_cell_angle_beta   90.00000000
_cell_angle_gamma   90.00000000
_symmetry_Int_Tables_number   1
_chemical_formula_structural   Ni3P4PbO14
_chemical_formula_sum   'Ni6 P8 Pb2 O28'
_cell_volume   515.50736753
_cell_formula_units_Z   2
loop_
 _symmetry_equiv_pos_site_id
 _symmetry_equiv_pos_as_xyz
  1  'x, y, z'
loop_
 _atom_site_type_symbol
 _atom_site_label
 _atom_site_symmetry_multiplicity
 _atom_site_fract_x
 _atom_site_fract_y
 _atom_site_fract_z
 _atom_site_occupancy
  Ni  Ni0  1  0.62408100  0.81534500  0.02603200  1
  Ni  Ni1  1  0.87591900  0.81534500  0.52603200  1
  Ni  Ni2  1  0.37591900  0.18465500  0.97396800  1
  Ni  Ni3  1  0.12408100  0.18465500  0.47396800  1
  Ni  Ni4  1  0.00000000  0.00000000  0.00000000  1
  Ni  Ni5  1  0.50000000  0.00000000  0.50000000  1
  P  P0  1  0.55800200  0.60377600  0.79851100  1
  P  P1  1  0.20227800  0.89055900  0.30476900  1
  P  P2  1  0.44199800  0.39622400  0.20148900  1
  P  P3  1  0.05800200  0.39622400  0.70148900  1
  P  P4  1  0.70227800  0.10944100  0.19523100  1
  P  P5  1  0.79772200  0.10944100  0.69523100  1
  P  P6  1  0.29772200  0.89055900  0.80476900  1
  P  P7  1  0.94199800  0.60377600  0.29851100  1
  Pb  Pb0  1  0.50000000  0.50000000  0.50000000  1
  Pb  Pb1  1  0.00000000  0.50000000  0.00000000  1
  O  O0  1  0.12096900  0.26715100  0.86351400  1
  O  O1  1  0.87072500  0.31554000  0.68412900  1
  O  O2  1  0.62620100  0.15256400  0.61284700  1
  O  O3  1  0.37072500  0.68446000  0.81587100  1
  O  O4  1  0.87903100  0.73284900  0.13648600  1
  O  O5  1  0.12620100  0.84743600  0.88715300  1
  O  O6  1  0.47749600  0.60061200  0.19288400  1
  O  O7  1  0.42541800  0.97274100  0.88745000  1
  O  O8  1  0.57458200  0.02725900  0.11255000  1
  O  O9  1  0.37379900  0.84743600  0.38715300  1
  O  O10  1  0.67400600  0.62327500  0.92021200  1
  O  O11  1  0.92541800  0.02725900  0.61255000  1
  O  O12  1  0.12927500  0.68446000  0.31587100  1
  O  O13  1  0.82599400  0.62327500  0.42021200  1
  O  O14  1  0.29093800  0.00433100  0.63365100  1
  O  O15  1  0.17400600  0.37672500  0.57978800  1
  O  O16  1  0.62927500  0.31554000  0.18412900  1
  O  O17  1  0.37903100  0.26715100  0.36351400  1
  O  O18  1  0.62096900  0.73284900  0.63648600  1
  O  O19  1  0.02250400  0.60061200  0.69288400  1
  O  O20  1  0.70906200  0.99566900  0.36634900  1
  O  O21  1  0.32599400  0.37672500  0.07978800  1
  O  O22  1  0.79093800  0.99566900  0.86634900  1
  O  O23  1  0.07458200  0.97274100  0.38745000  1
  O  O24  1  0.87379900  0.15256400  0.11284700  1
  O  O25  1  0.52250400  0.39938800  0.80711600  1
  O  O26  1  0.97749600  0.39938800  0.30711600  1
  O  O27  1  0.20906200  0.00433100  0.13365100  1
loop_
_geom_bond_atom_site_label_1
_geom_bond_atom_site_label_2
_geom_bond_distance
_geom_bond_site_symmetry_2
Ni0 O22 2.070865 1_554
Ni0 O10 2.079326 1_554
Ni0 O8 2.080036 1_565
Ni0 O7 2.088873 1_554
Ni0 O6 2.121339 1_555
Ni0 O4 2.225322 1_555
Ni1 O20 2.070865 1_555
Ni1 O13 2.079326 1_555
Ni1 O11 2.080036 1_565
Ni1 O23 2.088873 1_655
Ni1 O19 2.121339 1_655
Ni1 O18 2.225322 1_555
Ni2 O27 2.070865 1_556
Ni2 O21 2.079326 1_556
Ni2 O7 2.080036 1_545
Ni2 O8 2.088873 1_556
Ni2 O25 2.121339 1_555
Ni2 O0 2.225322 1_555
Ni3 O14 2.070865 1_555
Ni3 O15 2.079326 1_555
Ni3 O23 2.080036 1_545
Ni3 O11 2.088873 1_455
Ni3 O26 2.121339 1_455
Ni3 O17 2.225322 1_555
Ni4 O27 2.076202 1_555
Ni4 O22 2.076202 1_444
Ni4 O24 2.085740 1_455
Ni4 O5 2.085740 1_544
Ni4 O0 2.151404 1_554
Ni4 O4 2.151404 1_445
Ni5 O14 2.076202 1_555
Ni5 O20 2.076202 1_545
Ni5 O2 2.085740 1_555
Ni5 O9 2.085740 1_545
Ni5 O17 2.151404 1_555
Ni5 O18 2.151404 1_545
O0 P3 1.561759 1_555
O0 Pb1 2.705642 1_556
O1 P5 1.610232 1_555
O1 P3 1.612073 1_655
O2 P5 1.522645 1_555
O2 Pb0 2.605742 1_555
O3 P6 1.610232 1_555
O3 P0 1.612073 1_555
O4 P7 1.561759 1_555
O4 Pb1 2.705642 1_655
O5 P6 1.522645 1_555
O5 Pb1 2.605742 1_556
O6 P2 1.526444 1_555
O6 Pb0 2.740346 1_555
O7 P6 1.534295 1_555
O8 P4 1.534295 1_555
O9 P1 1.522645 1_555
O9 Pb0 2.605742 1_555
O10 P0 1.520285 1_555
O10 Pb1 2.713334 1_656
O11 P5 1.534295 1_555
O12 P1 1.610232 1_555
O12 P7 1.612073 1_455
O13 P7 1.520285 1_555
O13 Pb0 2.713334 1_555
O14 P6 1.531380 1_545
O15 P3 1.520285 1_555
O15 Pb0 2.713334 1_555
O16 P4 1.610232 1_555
O16 P2 1.612073 1_555
O17 P2 1.561759 1_555
O17 Pb0 2.705642 1_555
O18 P0 1.561759 1_555
O18 Pb0 2.705642 1_555
O19 P3 1.526444 1_555
O19 Pb1 2.740346 1_556
O20 P4 1.531380 1_565
O21 P2 1.520285 1_555
O21 Pb1 2.713334 1_555
O22 P5 1.531380 1_565
O23 P1 1.534295 1_555
O24 P4 1.522645 1_555
O24 Pb1 2.605742 1_655
O25 P0 1.526444 1_555
O25 Pb0 2.740346 1_555
O26 P7 1.526444 1_555
O26 Pb1 2.740346 1_655
O27 P1 1.531380 1_545
