# generated using pymatgen
data_NaSrRe2
_symmetry_space_group_name_H-M   'P 1'
_cell_length_a   4.98527817
_cell_length_b   4.98527817
_cell_length_c   4.98527817
_cell_angle_alpha   60.00000000
_cell_angle_beta   60.00000000
_cell_angle_gamma   60.00000000
_symmetry_Int_Tables_number   1
_chemical_formula_structural   NaSrRe2
_chemical_formula_sum   'Na1 Sr1 Re2'
_cell_volume   87.60990124
_cell_formula_units_Z   1
loop_
 _symmetry_equiv_pos_site_id
 _symmetry_equiv_pos_as_xyz
  1  'x, y, z'
loop_
 _atom_site_type_symbol
 _atom_site_label
 _atom_site_symmetry_multiplicity
 _atom_site_fract_x
 _atom_site_fract_y
 _atom_site_fract_z
 _atom_site_occupancy
  Na  Na0  1  0.50000000  0.50000000  0.50000000  1
  Sr  Sr0  1  0.00000000  0.00000000  0.00000000  1
  Re  Re0  1  0.75000000  0.75000000  0.75000000  1
  Re  Re1  1  0.25000000  0.25000000  0.25000000  1
loop_
_geom_bond_atom_site_label_1
_geom_bond_atom_site_label_2
_geom_bond_distance
_geom_bond_site_symmetry_2
Na0 Re0 3.052847 1_554
Na0 Re0 3.052847 1_545
Na0 Re0 3.052847 1_455
Na0 Re0 3.052847 1_555
Na0 Re1 3.052847 1_556
Na0 Re1 3.052847 1_565
Na0 Re1 3.052847 1_555
Na0 Re1 3.052847 1_655
Re0 Sr0 3.052847 1_666
Re0 Sr0 3.052847 1_656
Re0 Sr0 3.052847 1_665
Re0 Sr0 3.052847 1_566
Re1 Sr0 3.052847 1_555
Re1 Sr0 3.052847 1_556
Re1 Sr0 3.052847 1_655
Re1 Sr0 3.052847 1_565
