# generated using pymatgen
data_Rb
_symmetry_space_group_name_H-M   'P 1'
_cell_length_a   8.11232200
_cell_length_b   8.33113865
_cell_length_c   12.01814372
_cell_angle_alpha   108.37213441
_cell_angle_beta   107.90948907
_cell_angle_gamma   94.36125796
_symmetry_Int_Tables_number   1
_chemical_formula_structural   Rb
_chemical_formula_sum   Rb8
_cell_volume   719.91093333
_cell_formula_units_Z   8
loop_
 _symmetry_equiv_pos_site_id
 _symmetry_equiv_pos_as_xyz
  1  'x, y, z'
loop_
 _atom_site_type_symbol
 _atom_site_label
 _atom_site_symmetry_multiplicity
 _atom_site_fract_x
 _atom_site_fract_y
 _atom_site_fract_z
 _atom_site_occupancy
  Rb  Rb0  1  0.42854900  0.71240000  0.87037300  1
  Rb  Rb1  1  0.06055200  0.83296500  0.13131300  1
  Rb  Rb2  1  0.31025200  0.10584500  0.62178000  1
  Rb  Rb3  1  0.56066600  0.29952400  0.12574700  1
  Rb  Rb4  1  0.68786200  0.89359600  0.38290300  1
  Rb  Rb5  1  0.17947600  0.47227000  0.36947300  1
  Rb  Rb6  1  0.93451600  0.15994900  0.87011900  1
  Rb  Rb7  1  0.80799600  0.51521600  0.62664600  1
loop_
_geom_bond_atom_site_label_1
_geom_bond_atom_site_label_2
_geom_bond_distance
_geom_bond_site_symmetry_2
Rb0 Rb3 4.712781 1_566
Rb0 Rb7 4.822957 1_455
Rb0 Rb2 4.833709 1_555
Rb0 Rb1 4.897331 1_556
Rb0 Rb7 4.902555 1_555
Rb0 Rb1 4.946939 1_656
Rb0 Rb2 5.047716 1_565
Rb1 Rb6 4.707474 1_464
Rb1 Rb5 4.724159 1_555
Rb1 Rb4 4.840482 1_455
Rb1 Rb4 4.947487 1_555
Rb1 Rb5 5.039964 1_565
Rb2 Rb6 4.832981 1_455
Rb2 Rb4 4.836166 1_445
Rb2 Rb4 4.876975 1_545
Rb2 Rb5 4.897814 1_555
Rb2 Rb6 4.926072 1_555
Rb2 Rb5 5.026131 1_545
Rb2 Rb7 5.057075 1_555
Rb3 Rb4 4.767750 1_555
Rb3 Rb5 4.801212 1_655
Rb3 Rb5 4.878927 1_555
Rb3 Rb6 4.883044 1_454
Rb3 Rb6 4.899288 1_554
Rb4 Rb7 4.899032 1_555
Rb4 Rb7 4.925881 1_565
Rb4 Rb5 5.136899 1_555
Rb5 Rb7 4.894654 1_455
Rb5 Rb7 5.001128 1_555
Rb6 Rb7 4.738154 1_555
Rb6 Rb7 5.086624 1_545
