# generated using pymatgen
data_K6Al11Si13Ag5O48
_symmetry_space_group_name_H-M   'P 1'
_cell_length_a   12.60211000
_cell_length_b   12.39717000
_cell_length_c   12.69431067
_cell_angle_alpha   89.65835757
_cell_angle_beta   90.00000000
_cell_angle_gamma   90.00000000
_symmetry_Int_Tables_number   1
_chemical_formula_structural   K6Al11Si13Ag5O48
_chemical_formula_sum   'K6 Al11 Si13 Ag5 O48'
_cell_volume   1983.20324696
_cell_formula_units_Z   1
loop_
 _symmetry_equiv_pos_site_id
 _symmetry_equiv_pos_as_xyz
  1  'x, y, z'
loop_
 _atom_site_type_symbol
 _atom_site_label
 _atom_site_symmetry_multiplicity
 _atom_site_fract_x
 _atom_site_fract_y
 _atom_site_fract_z
 _atom_site_occupancy
  K  K0  1  0.60781300  0.00119500  0.46001300  1
  K  K1  1  0.39218700  0.00119500  0.46001300  1
  K  K2  1  0.77298200  0.23929500  0.23989100  1
  K  K3  1  0.77231200  0.76163300  0.23961600  1
  K  K4  1  0.22768800  0.76163300  0.23961600  1
  K  K5  1  0.22701800  0.23929500  0.23989100  1
  Al  Al0  1  0.81996300  0.99905200  0.63629700  1
  Al  Al1  1  0.18003700  0.99905200  0.63629700  1
  Al  Al2  1  0.00000000  0.19006500  0.63363400  1
  Al  Al3  1  0.82316300  0.99801100  0.37238600  1
  Al  Al4  1  0.00000000  0.80582700  0.37774900  1
  Al  Al5  1  0.17683700  0.99801100  0.37238600  1
  Al  Al6  1  0.00000000  0.19139300  0.37425300  1
  Al  Al7  1  0.62653600  0.99983900  0.18214000  1
  Al  Al8  1  0.37346400  0.99983900  0.18214000  1
  Al  Al9  1  0.00000000  0.63027300  0.17457600  1
  Al  Al10  1  0.00000000  0.37078000  0.17221000  1
  Si  Si0  1  0.62469400  0.81288100  0.99679300  1
  Si  Si1  1  0.81284700  0.37379100  0.99403200  1
  Si  Si2  1  0.37530600  0.81288100  0.99679300  1
  Si  Si3  1  0.18617400  0.62886500  0.99433500  1
  Si  Si4  1  0.62514400  0.18662500  0.99454700  1
  Si  Si5  1  0.18715300  0.37379100  0.99403200  1
  Si  Si6  1  0.37372600  0.99966600  0.81959100  1
  Si  Si7  1  0.62627400  0.99966600  0.81959100  1
  Si  Si8  1  0.00000000  0.37531400  0.82210000  1
  Si  Si9  1  0.00000000  0.63032100  0.82184600  1
  Si  Si10  1  0.00000000  0.81119200  0.63548400  1
  Si  Si11  1  0.81382600  0.62886500  0.99433500  1
  Si  Si12  1  0.37485600  0.18662500  0.99454700  1
  Ag  Ag0  1  0.18907600  0.19570600  0.80461800  1
  Ag  Ag1  1  0.81092400  0.19570600  0.80461800  1
  Ag  Ag2  1  0.19660800  0.81020300  0.80578000  1
  Ag  Ag3  1  0.80339200  0.81020300  0.80578000  1
  Ag  Ag4  1  0.00000000  0.00143700  0.22596900  1
  O  O0  1  0.70615900  0.70767400  0.98538200  1
  O  O1  1  0.77411100  0.50180500  0.98738500  1
  O  O2  1  0.50000000  0.77089200  0.98825400  1
  O  O3  1  0.70622500  0.29290000  0.98373600  1
  O  O4  1  0.29384100  0.70767400  0.98538200  1
  O  O5  1  0.29377500  0.29290000  0.98373600  1
  O  O6  1  0.88848800  0.65717700  0.88741100  1
  O  O7  1  0.65089600  0.88912700  0.89093200  1
  O  O8  1  0.65096700  0.11012700  0.88907100  1
  O  O9  1  0.11151200  0.65717700  0.88741100  1
  O  O10  1  0.88851700  0.35045900  0.88911300  1
  O  O11  1  0.34910400  0.88912700  0.89093200  1
  O  O12  1  0.34903300  0.11012700  0.88907100  1
  O  O13  1  0.11148300  0.35045900  0.88911300  1
  O  O14  1  0.50000000  0.99997200  0.78871200  1
  O  O15  1  0.00000000  0.50368300  0.79504300  1
  O  O16  1  0.69915700  0.99366600  0.71625300  1
  O  O17  1  0.00000000  0.30216000  0.72106400  1
  O  O18  1  0.30084300  0.99366600  0.71625300  1
  O  O19  1  0.00000000  0.70409800  0.71718600  1
  O  O20  1  0.89246900  0.87874500  0.67010300  1
  O  O21  1  0.88687800  0.11443500  0.67524900  1
  O  O22  1  0.10753100  0.87874500  0.67010300  1
  O  O23  1  0.11312200  0.11443500  0.67524900  1
  O  O24  1  0.78614600  0.99627100  0.50573600  1
  O  O25  1  0.00000000  0.22616100  0.50490400  1
  O  O26  1  0.21385400  0.99627100  0.50573600  1
  O  O27  1  0.00000000  0.77556300  0.51524000  1
  O  O28  1  0.88858100  0.88062300  0.34206800  1
  O  O29  1  0.88924700  0.11350700  0.33615400  1
  O  O30  1  0.11141900  0.88062300  0.34206800  1
  O  O31  1  0.11075300  0.11350700  0.33615400  1
  O  O32  1  0.00000000  0.28947700  0.27860500  1
  O  O33  1  0.70792500  0.99803900  0.29175800  1
  O  O34  1  0.29207500  0.99803900  0.29175800  1
  O  O35  1  0.00000000  0.70548300  0.28552500  1
  O  O36  1  0.50000000  0.99977700  0.23466400  1
  O  O37  1  0.00000000  0.49999400  0.20763600  1
  O  O38  1  0.88154500  0.65880600  0.09576900  1
  O  O39  1  0.64825900  0.88158200  0.10096200  1
  O  O40  1  0.64879100  0.11785600  0.09974900  1
  O  O41  1  0.11845500  0.65880600  0.09576900  1
  O  O42  1  0.87968700  0.34424600  0.09630500  1
  O  O43  1  0.35174100  0.88158200  0.10096200  1
  O  O44  1  0.35120900  0.11785600  0.09974900  1
  O  O45  1  0.12031300  0.34424600  0.09630500  1
  O  O46  1  0.50000000  0.22852200  0.98639800  1
  O  O47  1  0.22588900  0.50180500  0.98738500  1
loop_
_geom_bond_atom_site_label_1
_geom_bond_atom_site_label_2
_geom_bond_distance
_geom_bond_site_symmetry_2
K0 O24 2.321826 1_545
K0 O33 2.481171 1_545
K1 O26 2.321826 1_545
K1 O34 2.481171 1_545
K2 O29 2.459488 1_555
K2 O42 2.606748 1_555
K2 O40 2.812965 1_555
K2 O32 2.969339 1_655
K2 O33 3.166642 1_545
K3 O28 2.457087 1_555
K3 O38 2.623382 1_555
K3 O39 2.778858 1_555
K3 O35 3.008741 1_655
K3 O33 3.115932 1_555
K4 O30 2.457087 1_555
K4 O41 2.623382 1_555
K4 O43 2.778858 1_555
K4 O35 3.008741 1_555
K4 O34 3.115932 1_555
K5 O31 2.459488 1_555
K5 O45 2.606748 1_555
K5 O44 2.812965 1_555
K5 O32 2.969339 1_555
K5 O34 3.166642 1_545
Al0 O24 1.711842 1_555
Al0 O21 1.734978 1_565
Al0 O20 1.798862 1_555
Al0 O16 1.830732 1_555
Al1 O26 1.711842 1_555
Al1 O23 1.734978 1_565
Al1 O22 1.798862 1_555
Al1 O18 1.830732 1_555
Al2 O25 1.691725 1_555
Al2 O17 1.783633 1_555
Al2 O21 1.784523 1_455
Al2 O23 1.784523 1_555
Al3 O29 1.716788 1_565
Al3 O28 1.718220 1_555
Al3 O24 1.755896 1_555
Al3 O33 1.776679 1_555
Al4 O35 1.713314 1_555
Al4 O30 1.741120 1_555
Al4 O28 1.741120 1_455
Al4 O27 1.783035 1_555
Al5 O31 1.716788 1_565
Al5 O30 1.718220 1_555
Al5 O26 1.755896 1_555
Al5 O34 1.776679 1_555
Al6 O32 1.713245 1_555
Al6 O25 1.716103 1_555
Al6 O29 1.766305 1_455
Al6 O31 1.766305 1_555
Al7 O36 1.728402 1_555
Al7 O33 1.728721 1_555
Al7 O40 1.815187 1_565
Al7 O39 1.817745 1_555
Al8 O36 1.728402 1_555
Al8 O34 1.728721 1_555
Al8 O44 1.815187 1_565
Al8 O43 1.817745 1_555
Al9 O37 1.666302 1_555
Al9 O35 1.693713 1_555
Al9 O38 1.830329 1_455
Al9 O41 1.830329 1_555
Al10 O37 1.666395 1_555
Al10 O32 1.680427 1_555
Al10 O42 1.827373 1_455
Al10 O45 1.827373 1_555
Ag0 O23 2.155929 1_555
Ag0 O13 2.410773 1_555
Ag0 O12 2.514915 1_555
Ag1 O21 2.155929 1_555
Ag1 O10 2.410773 1_555
Ag1 O8 2.514915 1_555
Ag2 O22 2.220614 1_555
Ag2 O9 2.408181 1_555
Ag2 O11 2.414870 1_555
Ag3 O20 2.220614 1_555
Ag3 O6 2.408181 1_555
Ag3 O7 2.414870 1_555
Ag4 O29 2.420317 1_455
Ag4 O31 2.420317 1_555
Ag4 O30 2.522013 1_545
Ag4 O28 2.522013 1_445
O0 Si0 1.666831 1_555
O0 Si11 1.675449 1_555
O1 Si11 1.655639 1_555
O1 Si1 1.662054 1_555
O2 Si0 1.659130 1_555
O2 Si2 1.659130 1_555
O3 Si4 1.672294 1_555
O3 Si1 1.682177 1_555
O4 Si2 1.666831 1_555
O4 Si3 1.675449 1_555
O5 Si12 1.672294 1_555
O5 Si5 1.682177 1_555
O6 Si9 1.667846 1_655
O6 Si11 1.686753 1_555
O7 Si7 1.667199 1_555
O7 Si0 1.671298 1_555
O8 Si7 1.662658 1_545
O8 Si4 1.677260 1_555
O9 Si9 1.667846 1_555
O9 Si3 1.686753 1_555
O10 Si1 1.664784 1_555
O10 Si8 1.670115 1_655
O11 Si6 1.667199 1_555
O11 Si2 1.671298 1_555
O12 Si6 1.662658 1_545
O12 Si12 1.677260 1_555
O13 Si5 1.664784 1_555
O13 Si8 1.670115 1_555
O14 Si6 1.638886 1_555
O14 Si7 1.638886 1_555
O15 Si9 1.608381 1_555
O15 Si8 1.626052 1_555
O16 Si7 1.603475 1_555
O17 Si8 1.575234 1_555
O18 Si6 1.603475 1_555
O19 Si9 1.608475 1_555
O19 Si10 1.679865 1_555
O20 Si10 1.653847 1_655
O22 Si10 1.653847 1_555
O27 Si10 1.591565 1_555
O38 Si11 1.590527 1_554
O39 Si0 1.604877 1_554
O40 Si4 1.607957 1_554
O41 Si3 1.590527 1_554
O42 Si1 1.588566 1_554
O43 Si2 1.604877 1_554
O44 Si12 1.607957 1_554
O45 Si5 1.588566 1_554
O46 Si12 1.663435 1_555
O46 Si4 1.663435 1_555
O47 Si3 1.655639 1_555
O47 Si5 1.662054 1_555
