# generated using pymatgen
data_BPd2Br
_symmetry_space_group_name_H-M   'P 1'
_cell_length_a   4.46800128
_cell_length_b   4.46800128
_cell_length_c   4.46800128
_cell_angle_alpha   60.00000000
_cell_angle_beta   60.00000000
_cell_angle_gamma   60.00000000
_symmetry_Int_Tables_number   1
_chemical_formula_structural   BPd2Br
_chemical_formula_sum   'B1 Pd2 Br1'
_cell_volume   63.07029573
_cell_formula_units_Z   1
loop_
 _symmetry_equiv_pos_site_id
 _symmetry_equiv_pos_as_xyz
  1  'x, y, z'
loop_
 _atom_site_type_symbol
 _atom_site_label
 _atom_site_symmetry_multiplicity
 _atom_site_fract_x
 _atom_site_fract_y
 _atom_site_fract_z
 _atom_site_occupancy
  B  B0  1  0.25000000  0.25000000  0.25000000  1
  Pd  Pd0  1  0.75000000  0.75000000  0.75000000  1
  Pd  Pd1  1  0.50000000  0.50000000  0.50000000  1
  Br  Br0  1  0.00000000  0.00000000  0.00000000  1
loop_
_geom_bond_atom_site_label_1
_geom_bond_atom_site_label_2
_geom_bond_distance
_geom_bond_site_symmetry_2
B0 Br0 2.736081 1_565
B0 Br0 2.736081 1_655
B0 Pd1 2.736081 1_455
B0 Pd1 2.736081 1_545
B0 Br0 2.736081 1_555
B0 Pd1 2.736081 1_554
B0 Br0 2.736081 1_556
B0 Pd1 2.736081 1_555
Pd0 Pd1 2.736081 1_565
Pd0 Pd1 2.736081 1_655
Pd0 Pd1 2.736081 1_556
Pd0 Pd1 2.736081 1_555
Br0 Pd0 2.736081 1_544
Br0 Pd0 2.736081 1_454
Br0 Pd0 2.736081 1_445
Br0 Pd0 2.736081 1_444
Br0 Pd1 3.159354 1_455
Br0 Pd1 3.159354 1_454
Br0 Pd1 3.159354 1_445
Br0 Pd1 3.159354 1_554
Br0 Pd1 3.159354 1_544
Br0 Pd1 3.159354 1_545
