# generated using pymatgen
data_Cs5Ag4C8IN8
_symmetry_space_group_name_H-M   'P 1'
_cell_length_a   17.43031663
_cell_length_b   17.43031663
_cell_length_c   17.43031663
_cell_angle_alpha   109.47122063
_cell_angle_beta   109.47122063
_cell_angle_gamma   109.47122063
_symmetry_Int_Tables_number   1
_chemical_formula_structural   Cs5Ag4C8IN8
_chemical_formula_sum   'Cs30 Ag24 C48 I6 N48'
_cell_volume   4076.56093603
_cell_formula_units_Z   6
loop_
 _symmetry_equiv_pos_site_id
 _symmetry_equiv_pos_as_xyz
  1  'x, y, z'
loop_
 _atom_site_type_symbol
 _atom_site_label
 _atom_site_symmetry_multiplicity
 _atom_site_fract_x
 _atom_site_fract_y
 _atom_site_fract_z
 _atom_site_occupancy
  Cs  Cs0  1  0.70193100  0.06892300  0.50538400  1
  Cs  Cs1  1  0.06892300  0.50538400  0.70193100  1
  Cs  Cs2  1  0.99461600  0.06353800  0.19654700  1
  Cs  Cs3  1  0.69654700  0.56353800  0.49461600  1
  Cs  Cs4  1  0.29806900  0.86699100  0.80345300  1
  Cs  Cs5  1  0.63300900  0.93107700  0.93646200  1
  Cs  Cs6  1  0.06353800  0.19654700  0.99461600  1
  Cs  Cs7  1  0.25000000  0.12500000  0.87500000  1
  Cs  Cs8  1  0.12500000  0.87500000  0.25000000  1
  Cs  Cs9  1  0.79806900  0.30345300  0.36699100  1
  Cs  Cs10  1  0.43107700  0.13300900  0.43646200  1
  Cs  Cs11  1  0.43646200  0.43107700  0.13300900  1
  Cs  Cs12  1  0.19654700  0.99461600  0.06353800  1
  Cs  Cs13  1  0.20193100  0.00538400  0.56892300  1
  Cs  Cs14  1  0.93646200  0.63300900  0.93107700  1
  Cs  Cs15  1  0.37500000  0.62500000  0.75000000  1
  Cs  Cs16  1  0.87500000  0.25000000  0.12500000  1
  Cs  Cs17  1  0.86699100  0.80345300  0.29806900  1
  Cs  Cs18  1  0.50538400  0.70193100  0.06892300  1
  Cs  Cs19  1  0.62500000  0.75000000  0.37500000  1
  Cs  Cs20  1  0.00538400  0.56892300  0.20193100  1
  Cs  Cs21  1  0.75000000  0.37500000  0.62500000  1
  Cs  Cs22  1  0.93107700  0.93646200  0.63300900  1
  Cs  Cs23  1  0.13300900  0.43646200  0.43107700  1
  Cs  Cs24  1  0.56892300  0.20193100  0.00538400  1
  Cs  Cs25  1  0.80345300  0.29806900  0.86699100  1
  Cs  Cs26  1  0.36699100  0.79806900  0.30345300  1
  Cs  Cs27  1  0.49461600  0.69654700  0.56353800  1
  Cs  Cs28  1  0.56353800  0.49461600  0.69654700  1
  Cs  Cs29  1  0.30345300  0.36699100  0.79806900  1
  Ag  Ag0  1  0.29985200  0.29429700  0.42724400  1
  Ag  Ag1  1  0.12739200  0.70014800  0.49444500  1
  Ag  Ag2  1  0.00555500  0.70570300  0.63294700  1
  Ag  Ag3  1  0.79429700  0.79985200  0.92724400  1
  Ag  Ag4  1  0.36705300  0.87260800  0.07275600  1
  Ag  Ag5  1  0.13294700  0.20570300  0.50555500  1
  Ag  Ag6  1  0.37260800  0.86705300  0.57275600  1
  Ag  Ag7  1  0.62739200  0.99444500  0.20014800  1
  Ag  Ag8  1  0.07275600  0.36705300  0.87260800  1
  Ag  Ag9  1  0.63294700  0.00555500  0.70570300  1
  Ag  Ag10  1  0.70014800  0.49444500  0.12739200  1
  Ag  Ag11  1  0.79985200  0.92724400  0.79429700  1
  Ag  Ag12  1  0.42724400  0.29985200  0.29429700  1
  Ag  Ag13  1  0.20014800  0.62739200  0.99444500  1
  Ag  Ag14  1  0.87260800  0.07275600  0.36705300  1
  Ag  Ag15  1  0.86705300  0.57275600  0.37260800  1
  Ag  Ag16  1  0.92724400  0.79429700  0.79985200  1
  Ag  Ag17  1  0.50555500  0.13294700  0.20570300  1
  Ag  Ag18  1  0.20570300  0.50555500  0.13294700  1
  Ag  Ag19  1  0.70570300  0.63294700  0.00555500  1
  Ag  Ag20  1  0.99444500  0.20014800  0.62739200  1
  Ag  Ag21  1  0.49444500  0.12739200  0.70014800  1
  Ag  Ag22  1  0.29429700  0.42724400  0.29985200  1
  Ag  Ag23  1  0.57275600  0.37260800  0.86705300  1
  C  C0  1  0.93458800  0.84750100  0.01245900  1
  C  C1  1  0.06541200  0.41291300  0.07787200  1
  C  C2  1  0.33433100  0.91817300  0.17647200  1
  C  C3  1  0.83433100  0.67647200  0.41817300  1
  C  C4  1  0.51245900  0.34750100  0.43458800  1
  C  C5  1  0.08182700  0.75830000  0.41615800  1
  C  C6  1  0.41817300  0.83433100  0.67647200  1
  C  C7  1  0.08708700  0.15249900  0.66495800  1
  C  C8  1  0.65785900  0.74170000  0.82352800  1
  C  C9  1  0.01245900  0.93458800  0.84750100  1
  C  C10  1  0.65249900  0.58708700  0.16495800  1
  C  C11  1  0.57787200  0.91291300  0.56541200  1
  C  C12  1  0.07787200  0.06541200  0.41291300  1
  C  C13  1  0.17647200  0.33433100  0.91817300  1
  C  C14  1  0.43458800  0.51245900  0.34750100  1
  C  C15  1  0.08384200  0.84214100  0.66566900  1
  C  C16  1  0.66495800  0.08708700  0.15249900  1
  C  C17  1  0.75830000  0.41615800  0.08182700  1
  C  C18  1  0.25830000  0.58182700  0.91615800  1
  C  C19  1  0.56541200  0.57787200  0.91291300  1
  C  C20  1  0.84750100  0.01245900  0.93458800  1
  C  C21  1  0.84214100  0.66566900  0.08384200  1
  C  C22  1  0.16566900  0.34214100  0.58384200  1
  C  C23  1  0.42212800  0.83504200  0.98754100  1
  C  C24  1  0.67647200  0.41817300  0.83433100  1
  C  C25  1  0.15249900  0.66495800  0.08708700  1
  C  C26  1  0.74170000  0.82352800  0.65785900  1
  C  C27  1  0.34214100  0.58384200  0.16566900  1
  C  C28  1  0.24170000  0.15785900  0.32352800  1
  C  C29  1  0.92212800  0.48754100  0.33504200  1
  C  C30  1  0.58708700  0.16495800  0.65249900  1
  C  C31  1  0.83504200  0.98754100  0.42212800  1
  C  C32  1  0.33504200  0.92212800  0.48754100  1
  C  C33  1  0.58384200  0.16566900  0.34214100  1
  C  C34  1  0.41291300  0.07787200  0.06541200  1
  C  C35  1  0.34750100  0.43458800  0.51245900  1
  C  C36  1  0.91291300  0.56541200  0.57787200  1
  C  C37  1  0.41615800  0.08182700  0.75830000  1
  C  C38  1  0.16495800  0.65249900  0.58708700  1
  C  C39  1  0.15785900  0.32352800  0.24170000  1
  C  C40  1  0.91817300  0.17647200  0.33433100  1
  C  C41  1  0.48754100  0.33504200  0.92212800  1
  C  C42  1  0.82352800  0.65785900  0.74170000  1
  C  C43  1  0.32352800  0.24170000  0.15785900  1
  C  C44  1  0.66566900  0.08384200  0.84214100  1
  C  C45  1  0.58182700  0.91615800  0.25830000  1
  C  C46  1  0.91615800  0.25830000  0.58182700  1
  C  C47  1  0.98754100  0.42212800  0.83504200  1
  I  I0  1  0.12500000  0.75000000  0.87500000  1
  I  I1  1  0.75000000  0.87500000  0.12500000  1
  I  I2  1  0.25000000  0.62500000  0.37500000  1
  I  I3  1  0.87500000  0.12500000  0.75000000  1
  I  I4  1  0.62500000  0.37500000  0.25000000  1
  I  I5  1  0.37500000  0.25000000  0.62500000  1
  N  N0  1  0.23702200  0.31760900  0.94525000  1
  N  N1  1  0.44525000  0.81760900  0.73702200  1
  N  N2  1  0.35844700  0.04568300  0.98629700  1
  N  N3  1  0.81276400  0.94061300  0.45431700  1
  N  N4  1  0.12784900  0.68723600  0.14155300  1
  N  N5  1  0.45431700  0.81276400  0.94061300  1
  N  N6  1  0.76297800  0.58058700  0.70822800  1
  N  N7  1  0.58058700  0.70822800  0.76297800  1
  N  N8  1  0.44061300  0.31276400  0.95431700  1
  N  N9  1  0.01370300  0.87215100  0.05938700  1
  N  N10  1  0.68723600  0.14155300  0.12784900  1
  N  N11  1  0.14155300  0.12784900  0.68723600  1
  N  N12  1  0.51370300  0.55938700  0.37215100  1
  N  N13  1  0.20822800  0.08058700  0.26297800  1
  N  N14  1  0.41941300  0.62764100  0.18239100  1
  N  N15  1  0.04568300  0.98629700  0.35844700  1
  N  N16  1  0.29177200  0.55475000  0.87235900  1
  N  N17  1  0.64155300  0.18723600  0.62784900  1
  N  N18  1  0.05938700  0.01370300  0.87215100  1
  N  N19  1  0.55475000  0.87235900  0.29177200  1
  N  N20  1  0.62784900  0.64155300  0.18723600  1
  N  N21  1  0.18723600  0.62784900  0.64155300  1
  N  N22  1  0.37215100  0.51370300  0.55938700  1
  N  N23  1  0.95431700  0.44061300  0.31276400  1
  N  N24  1  0.37235900  0.05475000  0.79177200  1
  N  N25  1  0.54568300  0.85844700  0.48629700  1
  N  N26  1  0.48629700  0.54568300  0.85844700  1
  N  N27  1  0.12764100  0.91941300  0.68239100  1
  N  N28  1  0.85844700  0.48629700  0.54568300  1
  N  N29  1  0.73702200  0.44525000  0.81760900  1
  N  N30  1  0.98629700  0.35844700  0.04568300  1
  N  N31  1  0.87235900  0.29177200  0.55475000  1
  N  N32  1  0.31276400  0.95431700  0.44061300  1
  N  N33  1  0.08058700  0.26297800  0.20822800  1
  N  N34  1  0.91941300  0.68239100  0.12764100  1
  N  N35  1  0.62764100  0.18239100  0.41941300  1
  N  N36  1  0.05475000  0.79177200  0.37235900  1
  N  N37  1  0.18239100  0.41941300  0.62764100  1
  N  N38  1  0.68239100  0.12764100  0.91941300  1
  N  N39  1  0.70822800  0.76297800  0.58058700  1
  N  N40  1  0.87215100  0.05938700  0.01370300  1
  N  N41  1  0.31760900  0.94525000  0.23702200  1
  N  N42  1  0.79177200  0.37235900  0.05475000  1
  N  N43  1  0.81760900  0.73702200  0.44525000  1
  N  N44  1  0.55938700  0.37215100  0.51370300  1
  N  N45  1  0.26297800  0.20822800  0.08058700  1
  N  N46  1  0.94061300  0.45431700  0.81276400  1
  N  N47  1  0.94525000  0.23702200  0.31760900  1
loop_
_geom_bond_atom_site_label_1
_geom_bond_atom_site_label_2
_geom_bond_distance
_geom_bond_site_symmetry_2
Cs0 N17 3.150670 1_555
Cs0 N35 3.197413 1_555
Cs0 N19 3.383938 1_545
Cs0 N3 3.496545 1_545
Cs0 N25 3.592809 1_545
Cs0 N31 3.609446 1_555
Cs0 I3 3.862137 1_555
Cs1 N21 3.150670 1_555
Cs1 N37 3.197413 1_555
Cs1 N31 3.383938 1_455
Cs1 N46 3.496545 1_455
Cs1 N28 3.592809 1_455
Cs1 N16 3.609446 1_555
Cs1 I0 3.862137 1_555
Cs2 N40 3.150693 1_555
Cs2 N33 3.197429 1_655
Cs2 N13 3.383931 1_655
Cs2 N15 3.496519 1_645
Cs2 N9 3.592776 1_645
Cs2 N47 3.609459 1_555
Cs2 I1 3.862130 1_545
Cs3 N12 3.150693 1_555
Cs3 N39 3.197429 1_555
Cs3 N6 3.383931 1_555
Cs3 N28 3.496519 1_555
Cs3 N44 3.592776 1_555
Cs3 N43 3.609459 1_555
Cs3 I4 3.862130 1_555
Cs4 N2 3.150689 1_565
Cs4 N24 3.197429 1_565
Cs4 N1 3.383931 1_555
Cs4 N21 3.496532 1_555
Cs4 N5 3.592787 1_555
Cs4 N27 3.609459 1_555
Cs4 I0 3.862130 1_555
Cs5 N5 3.150674 1_555
Cs5 N1 3.197430 1_555
Cs5 N38 3.383948 1_565
Cs5 N40 3.496538 1_566
Cs5 N10 3.592798 1_566
Cs5 N7 3.609447 1_555
Cs5 I1 3.862118 1_556
Cs6 N18 3.150693 1_555
Cs6 N45 3.197429 1_556
Cs6 N33 3.383931 1_556
Cs6 N30 3.496519 1_456
Cs6 N40 3.592776 1_456
Cs6 N0 3.609459 1_555
Cs6 I3 3.862130 1_455
Cs7 N8 3.214551 1_555
Cs7 N11 3.214551 1_555
Cs7 N18 3.214555 1_555
Cs7 N2 3.214560 1_555
Cs7 N45 3.282062 1_556
Cs7 N0 3.282062 1_555
Cs7 N24 3.282062 1_555
Cs7 N27 3.282062 1_545
Cs8 N32 3.214551 1_555
Cs8 N4 3.214551 1_555
Cs8 N9 3.214555 1_555
Cs8 N15 3.214560 1_555
Cs8 N13 3.282062 1_565
Cs8 N41 3.282062 1_555
Cs8 N34 3.282062 1_455
Cs8 N36 3.282062 1_555
Cs9 N28 3.150689 1_555
Cs9 N31 3.197429 1_555
Cs9 N47 3.383931 1_555
Cs9 N10 3.496532 1_555
Cs9 N23 3.592787 1_555
Cs9 N35 3.609459 1_555
Cs9 I4 3.862130 1_555
Cs10 N32 3.150674 1_545
Cs10 N41 3.197430 1_545
Cs10 N35 3.383948 1_555
Cs10 N44 3.496538 1_555
Cs10 N17 3.592798 1_555
Cs10 N13 3.609447 1_555
Cs10 I5 3.862118 1_555
Cs11 N8 3.150674 1_554
Cs11 N0 3.197430 1_554
Cs11 N14 3.383948 1_555
Cs11 N12 3.496538 1_555
Cs11 N20 3.592798 1_555
Cs11 N45 3.609447 1_555
Cs11 I4 3.862118 1_555
Cs12 N9 3.150693 1_555
Cs12 N13 3.197429 1_565
Cs12 N45 3.383931 1_565
Cs12 N2 3.496519 1_564
Cs12 N18 3.592776 1_564
Cs12 N41 3.609459 1_555
Cs12 I0 3.862130 1_554
Cs13 N11 3.150670 1_555
Cs13 N27 3.197413 1_545
Cs13 N36 3.383938 1_545
Cs13 N32 3.496545 1_545
Cs13 N15 3.592809 1_545
Cs13 N24 3.609446 1_555
Cs13 I5 3.862137 1_555
Cs14 N46 3.150674 1_555
Cs14 N29 3.197430 1_555
Cs14 N34 3.383948 1_556
Cs14 N9 3.496538 1_656
Cs14 N4 3.592798 1_656
Cs14 N6 3.609447 1_555
Cs14 I0 3.862118 1_655
Cs15 N5 3.214551 1_555
Cs15 N21 3.214551 1_555
Cs15 N22 3.214555 1_555
Cs15 N26 3.214560 1_555
Cs15 N1 3.282062 1_555
Cs15 N16 3.282062 1_555
Cs15 N37 3.282062 1_555
Cs15 N7 3.282062 1_555
Cs16 N23 3.214551 1_555
Cs16 N10 3.214551 1_555
Cs16 N40 3.214555 1_555
Cs16 N30 3.214560 1_555
Cs16 N33 3.282062 1_655
Cs16 N47 3.282062 1_555
Cs16 N42 3.282062 1_555
Cs16 N38 3.282062 1_554
Cs17 N15 3.150689 1_655
Cs17 N36 3.197429 1_655
Cs17 N43 3.383931 1_555
Cs17 N20 3.496532 1_555
Cs17 N3 3.592787 1_555
Cs17 N34 3.609459 1_555
Cs17 I1 3.862130 1_555
Cs18 N20 3.150670 1_555
Cs18 N14 3.197413 1_555
Cs18 N16 3.383938 1_554
Cs18 N5 3.496545 1_554
Cs18 N26 3.592809 1_554
Cs18 N19 3.609446 1_555
Cs18 I1 3.862137 1_555
Cs19 N3 3.214551 1_555
Cs19 N20 3.214551 1_555
Cs19 N12 3.214555 1_555
Cs19 N25 3.214560 1_555
Cs19 N43 3.282062 1_555
Cs19 N19 3.282062 1_555
Cs19 N14 3.282062 1_555
Cs19 N39 3.282062 1_555
Cs20 N4 3.150670 1_555
Cs20 N34 3.197413 1_455
Cs20 N42 3.383938 1_455
Cs20 N23 3.496545 1_455
Cs20 N30 3.592809 1_455
Cs20 N36 3.609446 1_555
Cs20 I2 3.862137 1_555
Cs21 N46 3.214551 1_555
Cs21 N17 3.214551 1_555
Cs21 N44 3.214555 1_555
Cs21 N28 3.214560 1_555
Cs21 N29 3.282062 1_555
Cs21 N31 3.282062 1_555
Cs21 N35 3.282062 1_555
Cs21 N6 3.282062 1_555
Cs22 N3 3.150674 1_555
Cs22 N43 3.197430 1_555
Cs22 N27 3.383948 1_655
Cs22 N18 3.496538 1_665
Cs22 N11 3.592798 1_665
Cs22 N39 3.609447 1_555
Cs22 I3 3.862118 1_565
Cs23 N23 3.150674 1_455
Cs23 N47 3.197430 1_455
Cs23 N37 3.383948 1_555
Cs23 N22 3.496538 1_555
Cs23 N21 3.592798 1_555
Cs23 N33 3.609447 1_555
Cs23 I2 3.862118 1_555
Cs24 N10 3.150670 1_555
Cs24 N38 3.197413 1_554
Cs24 N24 3.383938 1_554
Cs24 N8 3.496545 1_554
Cs24 N2 3.592809 1_554
Cs24 N42 3.609446 1_555
Cs24 I4 3.862137 1_555
Cs25 N30 3.150689 1_556
Cs25 N42 3.197429 1_556
Cs25 N29 3.383931 1_555
Cs25 N17 3.496532 1_555
Cs25 N46 3.592787 1_555
Cs25 N38 3.609459 1_555
Cs25 I3 3.862130 1_555
Cs26 N25 3.150689 1_555
Cs26 N19 3.197429 1_555
Cs26 N41 3.383931 1_555
Cs26 N4 3.496532 1_555
Cs26 N32 3.592787 1_555
Cs26 N14 3.609459 1_555
Cs26 I2 3.862130 1_555
Cs27 N22 3.150693 1_555
Cs27 N7 3.197429 1_555
Cs27 N39 3.383931 1_555
Cs27 N25 3.496519 1_555
Cs27 N12 3.592776 1_555
Cs27 N1 3.609459 1_555
Cs27 I2 3.862130 1_555
Cs28 N44 3.150693 1_555
Cs28 N6 3.197429 1_555
Cs28 N7 3.383931 1_555
Cs28 N26 3.496519 1_555
Cs28 N22 3.592776 1_555
Cs28 N29 3.609459 1_555
Cs28 I5 3.862130 1_555
Cs29 N26 3.150689 1_555
Cs29 N16 3.197429 1_555
Cs29 N0 3.383931 1_555
Cs29 N11 3.496532 1_555
Cs29 N8 3.592787 1_555
Cs29 N37 3.609459 1_555
Cs29 I5 3.862130 1_555
Ag0 C28 2.063107 1_555
Ag0 C35 2.068284 1_555
Ag1 C5 2.063125 1_555
Ag1 C38 2.068284 1_555
Ag2 C15 2.063110 1_555
Ag2 C36 2.068287 1_455
Ag3 C8 2.063107 1_555
Ag3 C0 2.068284 1_556
Ag4 C2 2.063110 1_555
Ag4 C23 2.068270 1_554
Ag5 C22 2.063110 1_555
Ag5 C12 2.068287 1_555
Ag6 C6 2.063110 1_555
Ag6 C32 2.068270 1_555
Ag7 C45 2.063125 1_555
Ag7 C16 2.068284 1_565
Ag8 C13 2.063110 1_555
Ag8 C47 2.068270 1_455
Ag9 C44 2.063110 1_555
Ag9 C11 2.068287 1_545
Ag10 C17 2.063125 1_555
Ag10 C10 2.068284 1_555
Ag11 C26 2.063107 1_555
Ag11 C20 2.068284 1_565
Ag12 C43 2.063107 1_555
Ag12 C4 2.068284 1_555
Ag13 C18 2.063125 1_555
Ag13 C25 2.068284 1_556
Ag14 C40 2.063110 1_555
Ag14 C31 2.068270 1_545
Ag15 C3 2.063110 1_555
Ag15 C29 2.068270 1_555
Ag16 C42 2.063107 1_555
Ag16 C9 2.068284 1_655
Ag17 C33 2.063110 1_555
Ag17 C34 2.068287 1_555
Ag18 C27 2.063110 1_555
Ag18 C1 2.068287 1_555
Ag19 C21 2.063110 1_555
Ag19 C19 2.068287 1_554
Ag20 C46 2.063125 1_555
Ag20 C7 2.068284 1_655
Ag21 C37 2.063125 1_555
Ag21 C30 2.068284 1_555
Ag22 C39 2.063107 1_555
Ag22 C14 2.068284 1_555
Ag23 C24 2.063110 1_555
Ag23 C41 2.068270 1_555
C0 N9 1.172193 1_655
C0 Cs14 3.545080 1_554
C0 Cs2 3.556727 1_565
C1 N30 1.172191 1_455
C1 Cs6 3.545080 1_554
C1 Cs20 3.556730 1_555
C2 N41 1.177411 1_555
C2 Cs12 3.485430 1_555
C2 Cs26 3.556527 1_555
C3 N43 1.177411 1_555
C3 Cs3 3.485430 1_555
C3 Cs17 3.556527 1_555
C4 N44 1.172193 1_555
C4 Cs10 3.545080 1_555
C4 Cs3 3.556727 1_555
C5 N36 1.177396 1_555
C5 Cs20 3.485430 1_555
C5 Cs13 3.556516 1_565
C6 N1 1.177411 1_555
C6 Cs27 3.485430 1_555
C6 Cs4 3.556527 1_555
C7 N11 1.172208 1_555
C7 Cs29 3.545079 1_555
C7 Cs22 3.556733 1_445
C8 N7 1.177414 1_555
C8 Cs5 3.485430 1_555
C8 Cs28 3.556512 1_555
C9 N18 1.172193 1_565
C9 Cs22 3.545080 1_455
C9 Cs12 3.556727 1_556
C10 N20 1.172208 1_555
C10 Cs17 3.545079 1_555
C10 Cs11 3.556733 1_555
C11 N25 1.172191 1_555
C11 Cs27 3.545080 1_555
C11 Cs0 3.556730 1_565
C12 N15 1.172191 1_545
C12 Cs2 3.545080 1_455
C12 Cs13 3.556730 1_555
C13 N0 1.177411 1_555
C13 Cs6 3.485430 1_555
C13 Cs29 3.556527 1_555
C14 N12 1.172193 1_555
C14 Cs11 3.545080 1_555
C14 Cs27 3.556727 1_555
C15 N27 1.177411 1_555
C15 Cs4 3.485430 1_555
C15 Cs22 3.556541 1_455
C16 N10 1.172208 1_555
C16 Cs9 3.545079 1_555
C16 Cs5 3.556733 1_544
C17 N42 1.177396 1_555
C17 Cs24 3.485430 1_555
C17 Cs20 3.556516 1_655
C18 N16 1.177396 1_555
C18 Cs1 3.485430 1_555
C18 Cs18 3.556516 1_556
C19 N26 1.172191 1_555
C19 Cs28 3.545080 1_555
C19 Cs18 3.556730 1_556
C20 N40 1.172193 1_556
C20 Cs5 3.545080 1_545
C20 Cs6 3.556727 1_655
C21 N34 1.177411 1_555
C21 Cs17 3.485430 1_555
C21 Cs14 3.556541 1_554
C22 N37 1.177411 1_555
C22 Cs29 3.485430 1_555
C22 Cs23 3.556541 1_555
C23 N5 1.172222 1_555
C23 Cs18 3.545096 1_556
C23 Cs4 3.556720 1_555
C24 N29 1.177411 1_555
C24 Cs28 3.485430 1_555
C24 Cs25 3.556527 1_555
C25 N4 1.172208 1_555
C25 Cs26 3.545079 1_555
C25 Cs14 3.556733 1_454
C26 N39 1.177414 1_555
C26 Cs22 3.485430 1_555
C26 Cs27 3.556512 1_555
C27 N14 1.177411 1_555
C27 Cs26 3.485430 1_555
C27 Cs11 3.556541 1_555
C28 N13 1.177414 1_555
C28 Cs10 3.485430 1_555
C28 Cs2 3.556512 1_455
C29 N23 1.172222 1_555
C29 Cs20 3.545096 1_655
C29 Cs9 3.556720 1_555
C30 N17 1.172208 1_555
C30 Cs25 3.545079 1_555
C30 Cs10 3.556733 1_555
C31 N3 1.172222 1_555
C31 Cs0 3.545096 1_565
C31 Cs17 3.556720 1_555
C32 N32 1.172222 1_555
C32 Cs13 3.545096 1_565
C32 Cs26 3.556720 1_555
C33 N35 1.177411 1_555
C33 Cs9 3.485430 1_555
C33 Cs10 3.556541 1_555
C34 N2 1.172191 1_554
C34 Cs12 3.545080 1_545
C34 Cs24 3.556730 1_555
C35 N22 1.172193 1_555
C35 Cs23 3.545080 1_555
C35 Cs28 3.556727 1_555
C36 N28 1.172191 1_555
C36 Cs3 3.545080 1_555
C36 Cs1 3.556730 1_655
C37 N24 1.177396 1_555
C37 Cs13 3.485430 1_555
C37 Cs24 3.556516 1_556
C38 N21 1.172208 1_555
C38 Cs4 3.545079 1_555
C38 Cs23 3.556733 1_555
C39 N33 1.177414 1_555
C39 Cs23 3.485430 1_555
C39 Cs6 3.556512 1_554
C40 N47 1.177411 1_555
C40 Cs2 3.485430 1_555
C40 Cs9 3.556527 1_555
C41 N8 1.172222 1_555
C41 Cs24 3.545096 1_556
C41 Cs29 3.556720 1_555
C42 N6 1.177414 1_555
C42 Cs14 3.485430 1_555
C42 Cs3 3.556512 1_555
C43 N45 1.177414 1_555
C43 Cs11 3.485430 1_555
C43 Cs12 3.556512 1_545
C44 N38 1.177411 1_555
C44 Cs25 3.485430 1_555
C44 Cs5 3.556541 1_545
C45 N19 1.177396 1_555
C45 Cs18 3.485430 1_555
C45 Cs0 3.556516 1_565
C46 N31 1.177396 1_555
C46 Cs0 3.485430 1_555
C46 Cs1 3.556516 1_655
C47 N46 1.172222 1_555
C47 Cs1 3.545096 1_655
C47 Cs25 3.556720 1_555
