# generated using pymatgen
data_Al2SiO5
_symmetry_space_group_name_H-M   'P 1'
_cell_length_a   5.33261400
_cell_length_b   8.57015000
_cell_length_c   8.62778456
_cell_angle_alpha   69.91458500
_cell_angle_beta   78.33358863
_cell_angle_gamma   79.25379010
_symmetry_Int_Tables_number   1
_chemical_formula_structural   Al2SiO5
_chemical_formula_sum   'Al8 Si4 O20'
_cell_volume   359.72312765
_cell_formula_units_Z   4
loop_
 _symmetry_equiv_pos_site_id
 _symmetry_equiv_pos_as_xyz
  1  'x, y, z'
loop_
 _atom_site_type_symbol
 _atom_site_label
 _atom_site_symmetry_multiplicity
 _atom_site_fract_x
 _atom_site_fract_y
 _atom_site_fract_z
 _atom_site_occupancy
  Al  Al0  1  0.22004700  0.82796200  0.68738000  1
  Al  Al1  1  0.73799200  0.99740300  0.05287200  1
  Al  Al2  1  0.32066000  0.18545900  0.19568200  1
  Al  Al3  1  0.67934000  0.81454100  0.80431800  1
  Al  Al4  1  0.11538000  0.82269500  0.33124500  1
  Al  Al5  1  0.26200800  0.00259700  0.94712800  1
  Al  Al6  1  0.88462000  0.17730500  0.66875500  1
  Al  Al7  1  0.77995300  0.17203800  0.31262000  1
  Si  Si0  1  0.58055300  0.60861200  0.57248500  1
  Si  Si1  1  0.02092500  0.55256800  0.66482400  1
  Si  Si2  1  0.97907500  0.44743200  0.33517600  1
  Si  Si3  1  0.41944700  0.39138800  0.42751500  1
  O  O0  1  0.00364900  0.64961500  0.79943700  1
  O  O1  1  0.40043500  0.14991100  0.99830700  1
  O  O2  1  0.65355300  0.23128200  0.51422900  1
  O  O3  1  0.59956500  0.85008900  0.00169300  1
  O  O4  1  0.94456200  0.12451700  0.87782200  1
  O  O5  1  0.51130900  0.67274700  0.74610000  1
  O  O6  1  0.48869100  0.32725300  0.25390000  1
  O  O7  1  0.87667600  0.70874900  0.50524900  1
  O  O8  1  0.99635100  0.35038500  0.20056300  1
  O  O9  1  0.67379900  0.53555300  0.38165300  1
  O  O10  1  0.12332400  0.29125100  0.49475100  1
  O  O11  1  0.91232200  0.95778600  0.67619900  1
  O  O12  1  0.32620100  0.46444700  0.61834700  1
  O  O13  1  0.34644700  0.76871800  0.48577100  1
  O  O14  1  0.05543800  0.87548300  0.12217800  1
  O  O15  1  0.80034900  0.43252600  0.68105200  1
  O  O16  1  0.08767800  0.04221400  0.32380100  1
  O  O17  1  0.19965100  0.56747400  0.31894800  1
  O  O18  1  0.62841700  0.04229900  0.24732800  1
  O  O19  1  0.37158300  0.95770100  0.75267200  1
loop_
_geom_bond_atom_site_label_1
_geom_bond_atom_site_label_2
_geom_bond_distance
_geom_bond_site_symmetry_2
Al0 O19 1.776509 1_555
Al0 O11 1.802626 1_455
Al0 O5 1.877077 1_555
Al0 O13 1.934572 1_555
Al0 O0 1.947852 1_555
Al1 O3 1.787752 1_555
Al1 O18 1.807567 1_565
Al1 O4 1.823677 1_564
Al1 O14 1.906718 1_655
Al1 O1 2.052528 1_564
Al2 O1 1.785694 1_554
Al2 O16 1.831349 1_555
Al2 O6 1.881280 1_555
Al2 O18 1.888541 1_555
Al2 O8 2.022454 1_455
Al3 O3 1.785694 1_556
Al3 O11 1.831349 1_555
Al3 O5 1.881280 1_555
Al3 O19 1.888541 1_555
Al3 O0 2.022454 1_655
Al4 O14 1.783045 1_555
Al4 O16 1.839154 1_565
Al4 O7 1.873901 1_455
Al4 O13 1.880950 1_555
Al4 O17 2.184253 1_555
Al5 O1 1.787752 1_555
Al5 O19 1.807567 1_545
Al5 O14 1.823677 1_546
Al5 O4 1.906718 1_455
Al5 O3 2.052528 1_546
Al6 O4 1.783045 1_555
Al6 O11 1.839154 1_545
Al6 O10 1.873901 1_655
Al6 O2 1.880950 1_555
Al6 O15 2.184253 1_555
Al7 O18 1.776509 1_555
Al7 O16 1.802626 1_655
Al7 O6 1.877077 1_555
Al7 O2 1.934572 1_555
Al7 O8 1.947852 1_555
O0 Si1 1.625027 1_555
O2 Si3 1.742073 1_555
O5 Si0 1.717066 1_555
O6 Si3 1.717066 1_555
O7 Si1 1.748550 1_655
O7 Si0 1.832909 1_555
O8 Si2 1.625027 1_555
O9 Si2 1.693157 1_555
O9 Si3 1.896018 1_555
O9 Si0 1.900253 1_555
O10 Si2 1.748550 1_455
O10 Si3 1.832909 1_555
O12 Si1 1.693157 1_555
O12 Si0 1.896018 1_555
O12 Si3 1.900253 1_555
O13 Si0 1.742073 1_555
O15 Si1 1.657490 1_655
O15 Si0 1.828124 1_555
O17 Si2 1.657490 1_455
O17 Si3 1.828124 1_555
