# generated using pymatgen
data_Sr5(InSb3)2
_symmetry_space_group_name_H-M   'P 1'
_cell_length_a   4.71112937
_cell_length_b   12.80867745
_cell_length_c   14.89014922
_cell_angle_alpha   90.00000000
_cell_angle_beta   90.00000000
_cell_angle_gamma   90.00000000
_symmetry_Int_Tables_number   1
_chemical_formula_structural   Sr5(InSb3)2
_chemical_formula_sum   'Sr10 In4 Sb12'
_cell_volume   898.52128530
_cell_formula_units_Z   2
loop_
 _symmetry_equiv_pos_site_id
 _symmetry_equiv_pos_as_xyz
  1  'x, y, z'
loop_
 _atom_site_type_symbol
 _atom_site_label
 _atom_site_symmetry_multiplicity
 _atom_site_fract_x
 _atom_site_fract_y
 _atom_site_fract_z
 _atom_site_occupancy
  Sr  Sr0  1  0.50000000  0.08824809  0.75006018  1
  Sr  Sr1  1  0.50000000  0.17359511  0.01706641  1
  Sr  Sr2  1  0.50000000  0.41175191  0.25006018  1
  Sr  Sr3  1  0.50000000  0.82640489  0.98293359  1
  Sr  Sr4  1  0.50000000  0.32640489  0.51706641  1
  Sr  Sr5  1  0.50000000  0.00000000  0.50000000  1
  Sr  Sr6  1  0.50000000  0.58824809  0.74993982  1
  Sr  Sr7  1  0.50000000  0.91175191  0.24993982  1
  Sr  Sr8  1  0.50000000  0.50000000  -0.00000000  1
  Sr  Sr9  1  0.50000000  0.67359511  0.48293359  1
  In  In0  1  -0.00000000  0.32992110  0.71342032  1
  In  In1  1  0.00000000  0.17007890  0.21342032  1
  In  In2  1  0.00000000  0.67007890  0.28657968  1
  In  In3  1  -0.00000000  0.82992110  0.78657968  1
  Sb  Sb0  1  0.00000000  0.65433963  0.90472280  1
  Sb  Sb1  1  0.50000000  0.66310386  0.17632116  1
  Sb  Sb2  1  0.00000000  0.02345285  0.90543959  1
  Sb  Sb3  1  0.00000000  0.47654715  0.40543959  1
  Sb  Sb4  1  0.50000000  0.33689614  0.82367884  1
  Sb  Sb5  1  0.50000000  0.16310386  0.32367884  1
  Sb  Sb6  1  0.00000000  0.34566037  0.09527720  1
  Sb  Sb7  1  0.00000000  0.15433963  0.59527720  1
  Sb  Sb8  1  0.00000000  0.97654715  0.09456041  1
  Sb  Sb9  1  0.50000000  0.83689614  0.67632116  1
  Sb  Sb10  1  0.00000000  0.52345285  0.59456041  1
  Sb  Sb11  1  -0.00000000  0.84566037  0.40472280  1
loop_
_geom_bond_atom_site_label_1
_geom_bond_atom_site_label_2
_geom_bond_distance
_geom_bond_site_symmetry_2
In0 Sb7 2.855263 1_555
In0 Sb4 2.872640 1_455
In0 Sb4 2.872640 1_555
In0 Sb10 3.045852 1_555
In0 Sr4 3.754859 1_455
In0 Sr4 3.754859 1_555
In1 Sb6 2.855263 1_555
In1 Sb5 2.872640 1_455
In1 Sb5 2.872640 1_555
In1 Sb8 3.045852 1_545
In1 Sr1 3.754859 1_555
In1 Sr1 3.754859 1_455
In2 Sb11 2.855263 1_555
In2 Sb1 2.872640 1_455
In2 Sb1 2.872640 1_555
In2 Sb3 3.045852 1_555
In2 Sr9 3.754859 1_555
In2 Sr9 3.754859 1_455
In3 Sb0 2.855263 1_555
In3 Sb9 2.872640 1_455
In3 Sb9 2.872640 1_555
In3 Sb2 3.045852 1_565
In3 Sr3 3.754859 1_555
In3 Sr3 3.754859 1_455
Sb0 Sr8 3.386658 1_456
Sb0 Sr8 3.386658 1_556
Sb0 Sr6 3.402522 1_455
Sb0 Sr6 3.402522 1_555
Sb0 Sr3 3.429608 1_455
Sb0 Sr3 3.429608 1_555
Sb1 Sr8 3.355221 1_555
Sb1 Sr7 3.368223 1_555
Sb1 Sr2 3.401568 1_555
Sb1 Sr3 3.559074 1_554
Sb2 Sb8 2.879414 1_546
Sb2 Sr0 3.404458 1_555
Sb2 Sr0 3.404458 1_455
Sb2 Sr1 3.465516 1_456
Sb2 Sr1 3.465516 1_556
Sb2 Sr3 3.640104 1_545
Sb2 Sr3 3.640104 1_445
Sb3 Sr2 3.404458 1_455
Sb3 Sr2 3.404458 1_555
Sb3 Sr4 3.465516 1_455
Sb3 Sr4 3.465516 1_555
Sb3 Sr9 3.640104 1_555
Sb3 Sr9 3.640104 1_455
Sb4 Sr8 3.355221 1_556
Sb4 Sr0 3.368223 1_555
Sb4 Sr6 3.401568 1_555
Sb4 Sr1 3.559074 1_556
Sb5 Sr5 3.355221 1_555
Sb5 Sr2 3.368223 1_555
Sb5 Sr7 3.401568 1_545
Sb5 Sr4 3.559074 1_555
Sb6 Sr8 3.386658 1_455
Sb6 Sr8 3.386658 1_555
Sb6 Sr2 3.402522 1_455
Sb6 Sr2 3.402522 1_555
Sb6 Sr1 3.429608 1_455
Sb6 Sr1 3.429608 1_555
Sb7 Sr5 3.386658 1_455
Sb7 Sr5 3.386658 1_555
Sb7 Sr0 3.402522 1_455
Sb7 Sr0 3.402522 1_555
Sb7 Sr4 3.429608 1_455
Sb7 Sr4 3.429608 1_555
Sb8 Sr7 3.404458 1_455
Sb8 Sr7 3.404458 1_555
Sb8 Sr3 3.465516 1_554
Sb8 Sr3 3.465516 1_454
Sb8 Sr1 3.640104 1_565
Sb8 Sr1 3.640104 1_465
Sb9 Sr5 3.355221 1_565
Sb9 Sr6 3.368223 1_555
Sb9 Sr0 3.401568 1_565
Sb9 Sr9 3.559074 1_555
Sb10 Sb3 2.879414 1_555
Sb10 Sr6 3.404458 1_455
Sb10 Sr6 3.404458 1_555
Sb10 Sr9 3.465516 1_455
Sb10 Sr9 3.465516 1_555
Sb10 Sr4 3.640104 1_555
Sb10 Sr4 3.640104 1_455
Sb11 Sr5 3.386658 1_465
Sb11 Sr5 3.386658 1_565
Sb11 Sr7 3.402522 1_455
Sb11 Sr7 3.402522 1_555
Sb11 Sr9 3.429608 1_455
Sb11 Sr9 3.429608 1_555
