# generated using pymatgen
data_NbHg2F6
_symmetry_space_group_name_H-M   'P 1'
_cell_length_a   7.54054153
_cell_length_b   7.54054153
_cell_length_c   7.99547377
_cell_angle_alpha   63.12754124
_cell_angle_beta   63.12754124
_cell_angle_gamma   90.14117717
_symmetry_Int_Tables_number   1
_chemical_formula_structural   NbHg2F6
_chemical_formula_sum   'Nb2 Hg4 F12'
_cell_volume   349.30980762
_cell_formula_units_Z   2
loop_
 _symmetry_equiv_pos_site_id
 _symmetry_equiv_pos_as_xyz
  1  'x, y, z'
loop_
 _atom_site_type_symbol
 _atom_site_label
 _atom_site_symmetry_multiplicity
 _atom_site_fract_x
 _atom_site_fract_y
 _atom_site_fract_z
 _atom_site_occupancy
  Nb  Nb0  1  0.37519000  0.62481000  0.25000000  1
  Nb  Nb1  1  0.62481000  0.37519000  0.75000000  1
  Hg  Hg0  1  0.00000000  0.00000000  0.00000000  1
  Hg  Hg1  1  0.00000000  0.00000000  0.50000000  1
  Hg  Hg2  1  0.00000000  0.50000000  0.00000000  1
  Hg  Hg3  1  0.50000000  0.00000000  0.50000000  1
  F  F0  1  0.55546300  0.80535400  0.25391900  1
  F  F1  1  0.19309100  0.80690900  0.25000000  1
  F  F2  1  0.52890200  0.78136900  0.93578200  1
  F  F3  1  0.78136900  0.52890200  0.43578200  1
  F  F4  1  0.55671000  0.44329000  0.25000000  1
  F  F5  1  0.19464600  0.44453700  0.24608100  1
  F  F6  1  0.80535400  0.55546300  0.75391900  1
  F  F7  1  0.44329000  0.55671000  0.75000000  1
  F  F8  1  0.21863100  0.47109800  0.56421800  1
  F  F9  1  0.47109800  0.21863100  0.06421800  1
  F  F10  1  0.80690900  0.19309100  0.75000000  1
  F  F11  1  0.44453700  0.19464600  0.74608100  1
loop_
_geom_bond_atom_site_label_1
_geom_bond_atom_site_label_2
_geom_bond_distance
_geom_bond_site_symmetry_2
F0 Nb0 1.941697 1_555
F1 Nb0 1.944283 1_555
F2 Nb0 1.930929 1_556
F3 Nb1 1.930929 1_555
F4 Nb0 1.938101 1_555
F5 Nb0 1.941697 1_555
F6 Nb1 1.941697 1_555
F7 Nb1 1.938101 1_555
F8 Nb0 1.930929 1_555
F9 Nb1 1.930929 1_554
F10 Nb1 1.944283 1_555
F11 Nb1 1.941697 1_555
