# generated using pymatgen
data_Ti7Ni3N10
_symmetry_space_group_name_H-M   'P 1'
_cell_length_a   8.00715470
_cell_length_b   8.00715470
_cell_length_c   8.00715470
_cell_angle_alpha   143.39970106
_cell_angle_beta   141.00426854
_cell_angle_gamma   54.54895038
_symmetry_Int_Tables_number   1
_chemical_formula_structural   Ti7Ni3N10
_chemical_formula_sum   'Ti7 Ni3 N10'
_cell_volume   191.28521092
_cell_formula_units_Z   1
loop_
 _symmetry_equiv_pos_site_id
 _symmetry_equiv_pos_as_xyz
  1  'x, y, z'
loop_
 _atom_site_type_symbol
 _atom_site_label
 _atom_site_symmetry_multiplicity
 _atom_site_fract_x
 _atom_site_fract_y
 _atom_site_fract_z
 _atom_site_occupancy
  Ti  Ti0  1  0.90060100  0.40588100  0.50528000  1
  Ti  Ti1  1  0.79948700  0.80075800  0.00127100  1
  Ti  Ti2  1  0.60040100  0.58816400  0.98776300  1
  Ti  Ti3  1  0.50000000  0.99564200  0.49564200  1
  Ti  Ti4  1  0.39959900  0.38736100  0.98776300  1
  Ti  Ti5  1  0.20051300  0.20178400  0.00127100  1
  Ti  Ti6  1  0.09939900  0.60467800  0.50528000  1
  Ni  Ni0  1  0.00000000  0.06623200  0.06623200  1
  Ni  Ni1  1  0.70447400  0.21771200  0.51323800  1
  Ni  Ni2  1  0.29552600  0.80876400  0.51323800  1
  N  N0  1  0.95313000  0.85800000  0.41197000  1
  N  N1  1  0.85437700  0.26640400  0.92216100  1
  N  N2  1  0.73813200  0.64381800  0.38195000  1
  N  N3  1  0.65575700  0.06778400  0.92216100  1
  N  N4  1  0.55397000  0.45884000  0.41197000  1
  N  N5  1  0.44603000  0.85800000  0.90487000  1
  N  N6  1  0.34424300  0.26640400  0.41202600  1
  N  N7  1  0.26186800  0.64381800  0.90568600  1
  N  N8  1  0.14562300  0.06778400  0.41202600  1
  N  N9  1  0.04687000  0.45884000  0.90487000  1
loop_
_geom_bond_atom_site_label_1
_geom_bond_atom_site_label_2
_geom_bond_distance
_geom_bond_site_symmetry_2
N0 Ni2 2.033060 1_655
N0 Ti6 2.088462 1_655
N0 Ti1 2.117407 1_555
N0 Ti2 2.136822 1_554
N0 Ti5 2.169708 1_666
N0 Ni1 2.241615 1_565
N1 Ni0 1.992333 1_656
N1 Ti2 2.111639 1_555
N1 Ti5 2.117624 1_656
N1 Ti3 2.144808 1_545
N1 Ti6 2.146119 1_656
N1 Ni1 2.167482 1_555
N2 Ti2 2.068384 1_554
N2 Ti4 2.068388 1_554
N2 Ti6 2.108610 1_655
N2 Ti0 2.108612 1_555
N2 Ti3 2.179428 1_555
N2 Ni0 2.543794 1_666
N3 Ni0 1.992333 1_656
N3 Ti4 2.111635 1_555
N3 Ti1 2.117624 1_546
N3 Ti3 2.144808 1_545
N3 Ti0 2.146120 1_556
N3 Ni2 2.167482 1_545
N4 Ni1 2.033060 1_555
N4 Ti0 2.088455 1_555
N4 Ti5 2.117407 1_555
N4 Ti4 2.136817 1_554
N4 Ti1 2.169708 1_556
N4 Ni2 2.241615 1_555
N5 Ni2 2.033060 1_555
N5 Ti6 2.088459 1_555
N5 Ti1 2.117407 1_556
N5 Ti2 2.136822 1_555
N5 Ti5 2.169708 1_566
N5 Ni1 2.241615 1_566
N6 Ni0 1.992336 1_555
N6 Ti2 2.111642 1_555
N6 Ti5 2.117617 1_555
N6 Ti3 2.144813 1_545
N6 Ti6 2.146117 1_555
N6 Ni1 2.167478 1_555
N7 Ti2 2.068384 1_555
N7 Ti4 2.068391 1_555
N7 Ti6 2.108606 1_555
N7 Ti0 2.108612 1_455
N7 Ti3 2.179428 1_556
N7 Ni0 2.543794 1_566
N8 Ni0 1.992325 1_555
N8 Ti4 2.111642 1_555
N8 Ti1 2.117626 1_445
N8 Ti3 2.144804 1_545
N8 Ti0 2.146120 1_455
N8 Ni2 2.167488 1_545
N9 Ni1 2.033060 1_455
N9 Ti0 2.088455 1_455
N9 Ti5 2.117407 1_556
N9 Ti4 2.136820 1_555
N9 Ti1 2.169708 1_456
N9 Ni2 2.241615 1_556
