# generated using pymatgen
data_Na9CaTa9TiO30
_symmetry_space_group_name_H-M   'P 1'
_cell_length_a   38.58422700
_cell_length_b   5.74890400
_cell_length_c   5.77465569
_cell_angle_alpha   88.47188990
_cell_angle_beta   90.00000000
_cell_angle_gamma   90.00000000
_symmetry_Int_Tables_number   1
_chemical_formula_structural   Na9CaTa9TiO30
_chemical_formula_sum   'Na18 Ca2 Ta18 Ti2 O60'
_cell_volume   1280.46135561
_cell_formula_units_Z   2
loop_
 _symmetry_equiv_pos_site_id
 _symmetry_equiv_pos_as_xyz
  1  'x, y, z'
loop_
 _atom_site_type_symbol
 _atom_site_label
 _atom_site_symmetry_multiplicity
 _atom_site_fract_x
 _atom_site_fract_y
 _atom_site_fract_z
 _atom_site_occupancy
  Na  Na0  1  0.10218800  0.03043400  0.95621000  1
  Na  Na1  1  0.29810400  0.97091100  0.96921200  1
  Na  Na2  1  0.50000000  0.00245500  0.96174400  1
  Na  Na3  1  0.70189600  0.97091100  0.96921200  1
  Na  Na4  1  0.89781200  0.03043400  0.95621000  1
  Na  Na5  1  0.30009300  0.47514700  0.47877900  1
  Na  Na6  1  0.10728700  0.37077500  0.57189200  1
  Na  Na7  1  0.50000000  0.49947700  0.46026700  1
  Na  Na8  1  0.69990700  0.47514700  0.47877900  1
  Na  Na9  1  0.89271300  0.37077500  0.57189200  1
  Na  Na10  1  0.20262000  0.40666500  0.57899800  1
  Na  Na11  1  0.60058800  0.49235000  0.45873300  1
  Na  Na12  1  0.39941200  0.49235000  0.45873300  1
  Na  Na13  1  0.79738000  0.40666500  0.57899800  1
  Na  Na14  1  0.19781300  0.95039100  0.93198000  1
  Na  Na15  1  0.39962000  0.99800600  0.96070000  1
  Na  Na16  1  0.60038000  0.99800600  0.96070000  1
  Na  Na17  1  0.80218700  0.95039100  0.93198000  1
  Ca  Ca0  1  0.00000000  0.32558700  0.45431200  1
  Ca  Ca1  1  0.00000000  0.96773200  0.04113400  1
  Ta  Ta0  1  0.14677000  0.88533800  0.41324100  1
  Ta  Ta1  1  0.44990300  0.99984900  0.47495200  1
  Ta  Ta2  1  0.65102100  0.98951900  0.47911700  1
  Ta  Ta3  1  0.75146800  0.95378400  0.49935100  1
  Ta  Ta4  1  0.85323000  0.88533800  0.41324100  1
  Ta  Ta5  1  0.05176100  0.50488000  0.03480200  1
  Ta  Ta6  1  0.94823900  0.50488000  0.03480200  1
  Ta  Ta7  1  0.24831100  0.45323000  0.02098400  1
  Ta  Ta8  1  0.14965700  0.44771400  0.07144200  1
  Ta  Ta9  1  0.44989000  0.49996000  0.97477500  1
  Ta  Ta10  1  0.55011000  0.49996000  0.97477500  1
  Ta  Ta11  1  0.85034300  0.44771400  0.07144200  1
  Ta  Ta12  1  0.35005700  0.49497100  0.97730600  1
  Ta  Ta13  1  0.64994300  0.49497100  0.97730600  1
  Ta  Ta14  1  0.75168900  0.45323000  0.02098400  1
  Ta  Ta15  1  0.24853200  0.95378400  0.49935100  1
  Ta  Ta16  1  0.55009700  0.99984900  0.47495200  1
  Ta  Ta17  1  0.34897900  0.98951900  0.47911700  1
  Ti  Ti0  1  0.04955800  0.79081700  0.58330300  1
  Ti  Ti1  1  0.95044200  0.79081700  0.58330300  1
  O  O0  1  0.00000000  0.90481900  0.53840600  1
  O  O1  1  0.19539400  0.96030500  0.50127000  1
  O  O2  1  0.39976400  0.95142100  0.52680300  1
  O  O3  1  0.60023600  0.95142100  0.52680300  1
  O  O4  1  0.80460600  0.96030500  0.50127000  1
  O  O5  1  0.10268700  0.89341300  0.57559300  1
  O  O6  1  0.34499000  0.76333300  0.77291200  1
  O  O7  1  0.54413200  0.75831900  0.76120300  1
  O  O8  1  0.05167800  0.85822500  0.88865000  1
  O  O9  1  0.25074200  0.71319900  0.73985100  1
  O  O10  1  0.74925800  0.71319900  0.73985100  1
  O  O11  1  0.94832200  0.85822500  0.88865000  1
  O  O12  1  0.65501000  0.76333300  0.77291200  1
  O  O13  1  0.45586800  0.75831900  0.76120300  1
  O  O14  1  0.89731300  0.89341300  0.57559300  1
  O  O15  1  0.06310300  0.67102800  0.30341800  1
  O  O16  1  0.14356300  0.80047300  0.08486600  1
  O  O17  1  0.25470500  0.76046400  0.24783700  1
  O  O18  1  0.34462400  0.74430800  0.27076300  1
  O  O19  1  0.54466100  0.76021600  0.25937600  1
  O  O20  1  0.85643700  0.80047300  0.08486600  1
  O  O21  1  0.65537600  0.74430800  0.27076300  1
  O  O22  1  0.74529500  0.76046400  0.24783700  1
  O  O23  1  0.45533900  0.76021600  0.25937600  1
  O  O24  1  0.93689700  0.67102800  0.30341800  1
  O  O25  1  0.00000000  0.57819700  0.08917900  1
  O  O26  1  0.19948300  0.53841100  0.03365100  1
  O  O27  1  0.60006200  0.55937600  0.02234900  1
  O  O28  1  0.39993800  0.55937600  0.02234900  1
  O  O29  1  0.80051700  0.53841100  0.03365100  1
  O  O30  1  0.29943500  0.45873800  0.01979800  1
  O  O31  1  0.10005000  0.45640300  0.96013800  1
  O  O32  1  0.50000000  0.45042100  0.02792200  1
  O  O33  1  0.70056500  0.45873800  0.01979800  1
  O  O34  1  0.89995000  0.45640300  0.96013800  1
  O  O35  1  0.95839500  0.47742100  0.68759600  1
  O  O36  1  0.04160500  0.47742100  0.68759600  1
  O  O37  1  0.24439900  0.20789100  0.80884800  1
  O  O38  1  0.15713200  0.25368200  0.82669400  1
  O  O39  1  0.55531800  0.26442300  0.75540400  1
  O  O40  1  0.35454500  0.27154600  0.74455600  1
  O  O41  1  0.44468200  0.26442300  0.75540400  1
  O  O42  1  0.64545500  0.27154600  0.74455600  1
  O  O43  1  0.75560100  0.20789100  0.80884800  1
  O  O44  1  0.84286800  0.25368200  0.82669400  1
  O  O45  1  0.04194800  0.21820300  0.18659400  1
  O  O46  1  0.95805200  0.21820300  0.18659400  1
  O  O47  1  0.13664600  0.19266900  0.27425900  1
  O  O48  1  0.64585000  0.23896100  0.24959400  1
  O  O49  1  0.24610000  0.26083400  0.30093400  1
  O  O50  1  0.44359600  0.25381500  0.25635900  1
  O  O51  1  0.35415000  0.23896100  0.24959400  1
  O  O52  1  0.55640400  0.25381500  0.25635900  1
  O  O53  1  0.86335400  0.19266900  0.27425900  1
  O  O54  1  0.75390000  0.26083400  0.30093400  1
  O  O55  1  0.15565500  0.56358000  0.43181200  1
  O  O56  1  0.29846900  0.03738300  0.52913400  1
  O  O57  1  0.50000000  0.06575700  0.51495300  1
  O  O58  1  0.70153100  0.03738300  0.52913400  1
  O  O59  1  0.84434500  0.56358000  0.43181200  1
loop_
_geom_bond_atom_site_label_1
_geom_bond_atom_site_label_2
_geom_bond_distance
_geom_bond_site_symmetry_2
Na0 O16 2.189953 1_546
Na0 O8 2.225107 1_545
Na0 O5 2.354596 1_545
Na0 O31 2.450953 1_555
Na0 O47 2.470241 1_556
Na0 O38 2.578692 1_555
Na0 O45 2.900726 1_556
Na1 O6 2.460465 1_555
Na1 O56 2.559812 1_565
Na1 O17 2.598588 1_556
Na1 O37 2.634428 1_565
Na1 O9 2.719084 1_555
Na1 O18 2.798250 1_556
Na1 O30 2.827847 1_566
Na2 O7 2.509414 1_545
Na2 O13 2.509414 1_545
Na2 O57 2.595976 1_555
Na2 O32 2.613575 1_556
Na2 O19 2.781216 1_546
Na2 O23 2.781216 1_546
Na2 O39 2.854446 1_555
Na2 O41 2.854446 1_555
Na3 O12 2.460465 1_555
Na3 O58 2.559812 1_565
Na3 O22 2.598588 1_556
Na3 O43 2.634428 1_565
Na3 O10 2.719084 1_555
Na3 O21 2.798250 1_556
Na3 O33 2.827847 1_566
Na4 O20 2.189953 1_546
Na4 O11 2.225107 1_545
Na4 O14 2.354596 1_545
Na4 O34 2.450953 1_555
Na4 O53 2.470241 1_556
Na4 O44 2.578692 1_555
Na4 O46 2.900726 1_556
Na5 O56 2.526469 1_555
Na5 O18 2.586576 1_555
Na5 O49 2.642013 1_555
Na5 O30 2.654770 1_555
Na5 O17 2.723824 1_555
Na5 O9 2.807430 1_555
Na5 O51 2.835735 1_555
Na5 O40 2.836175 1_555
Na5 O6 2.963241 1_555
Na6 O55 2.306072 1_555
Na6 O47 2.319377 1_555
Na6 O31 2.325009 1_555
Na6 O38 2.502824 1_555
Na6 O36 2.695697 1_555
Na6 O5 2.749556 1_545
Na6 O15 2.854245 1_555
Na7 O57 2.504964 1_555
Na7 O32 2.519983 1_555
Na7 O19 2.543497 1_555
Na7 O23 2.543497 1_555
Na7 O50 2.864621 1_555
Na7 O52 2.864621 1_555
Na7 O7 2.876059 1_555
Na7 O13 2.876059 1_555
Na7 O41 3.027135 1_555
Na7 O39 3.027135 1_555
Na8 O58 2.526469 1_555
Na8 O21 2.586576 1_555
Na8 O54 2.642013 1_555
Na8 O33 2.654770 1_555
Na8 O22 2.723824 1_555
Na8 O10 2.807430 1_555
Na8 O48 2.835735 1_555
Na8 O42 2.836175 1_555
Na8 O12 2.963241 1_555
Na9 O59 2.306072 1_555
Na9 O53 2.319377 1_555
Na9 O34 2.325009 1_555
Na9 O44 2.502824 1_555
Na9 O35 2.695697 1_555
Na9 O14 2.749556 1_545
Na9 O24 2.854245 1_555
Na10 O55 2.186097 1_555
Na10 O37 2.363315 1_555
Na10 O38 2.415113 1_555
Na10 O49 2.483444 1_555
Na10 O1 2.631616 1_545
Na10 O9 2.739178 1_555
Na10 O26 2.754527 1_556
Na11 O52 2.497611 1_555
Na11 O27 2.539160 1_555
Na11 O48 2.593125 1_555
Na11 O3 2.678650 1_555
Na11 O42 2.687144 1_555
Na11 O39 2.753759 1_555
Na11 O21 2.767900 1_555
Na11 O19 2.873793 1_555
Na12 O50 2.497611 1_555
Na12 O28 2.539160 1_555
Na12 O51 2.593125 1_555
Na12 O2 2.678650 1_555
Na12 O40 2.687144 1_555
Na12 O41 2.753759 1_555
Na12 O18 2.767900 1_555
Na12 O23 2.873793 1_555
Na13 O59 2.186097 1_555
Na13 O43 2.363315 1_555
Na13 O44 2.415113 1_555
Na13 O54 2.483444 1_555
Na13 O4 2.631616 1_545
Na13 O10 2.739178 1_555
Na13 O29 2.754527 1_556
Na14 O38 2.411847 1_565
Na14 O16 2.421392 1_556
Na14 O37 2.423182 1_565
Na14 O26 2.425731 1_556
Na14 O1 2.488086 1_555
Na14 O9 2.709558 1_555
Na15 O2 2.526975 1_555
Na15 O28 2.537260 1_556
Na15 O41 2.584073 1_565
Na15 O40 2.636456 1_565
Na15 O6 2.741740 1_555
Na15 O51 2.811266 1_566
Na15 O13 2.832081 1_555
Na15 O50 2.844411 1_566
Na16 O3 2.526975 1_555
Na16 O27 2.537260 1_556
Na16 O39 2.584073 1_565
Na16 O42 2.636456 1_565
Na16 O12 2.741740 1_555
Na16 O48 2.811266 1_566
Na16 O7 2.832081 1_555
Na16 O52 2.844411 1_566
Na17 O44 2.411847 1_565
Na17 O20 2.421392 1_556
Na17 O43 2.423182 1_565
Na17 O29 2.425731 1_556
Na17 O4 2.488086 1_555
Na17 O10 2.709558 1_555
Ca0 O36 2.283940 1_555
Ca0 O35 2.283940 1_455
Ca0 O46 2.332747 1_455
Ca0 O45 2.332747 1_555
Ca0 O0 2.454488 1_545
Ca0 O25 2.528143 1_555
Ca1 O25 2.249166 1_555
Ca1 O11 2.275326 1_454
Ca1 O8 2.275326 1_554
Ca1 O46 2.337334 1_465
Ca1 O45 2.337334 1_565
Ca1 O0 2.884677 1_555
Ca1 O0 2.935080 1_554
O0 Ti1 2.035690 1_455
O0 Ti0 2.035690 1_555
O1 Ta0 1.993905 1_555
O1 Ta15 2.050667 1_555
O2 Ta1 1.976182 1_555
O2 Ta17 1.990031 1_555
O3 Ta16 1.976182 1_555
O3 Ta2 1.990031 1_555
O4 Ta4 1.993905 1_555
O4 Ta3 2.050667 1_555
O5 Ta0 1.943328 1_555
O5 Ti0 2.133242 1_555
O6 Ta12 1.927282 1_555
O6 Ta17 2.115466 1_555
O7 Ta10 1.919011 1_555
O7 Ta16 2.142660 1_555
O8 Ti0 1.817262 1_555
O8 Ta5 2.178816 1_556
O9 Ta15 1.935605 1_555
O9 Ta7 2.179131 1_556
O10 Ta3 1.935605 1_555
O10 Ta14 2.179131 1_556
O11 Ti1 1.817262 1_555
O11 Ta6 2.178816 1_556
O12 Ta13 1.927282 1_555
O12 Ta2 2.115466 1_555
O13 Ta9 1.919011 1_555
O13 Ta1 2.142660 1_555
O14 Ta4 1.943328 1_555
O14 Ti1 2.133242 1_555
O15 Ti0 1.849047 1_555
O15 Ta5 1.894464 1_555
O16 Ta0 1.974451 1_555
O16 Ta8 2.045085 1_555
O17 Ta15 1.867476 1_555
O17 Ta7 2.240543 1_555
O18 Ta17 1.885089 1_555
O18 Ta12 2.258293 1_554
O19 Ta16 1.892891 1_555
O19 Ta10 2.261621 1_554
O20 Ta4 1.974451 1_555
O20 Ta11 2.045085 1_555
O21 Ta2 1.885089 1_555
O21 Ta13 2.258293 1_554
O22 Ta3 1.867476 1_555
O22 Ta14 2.240543 1_555
O23 Ta1 1.892891 1_555
O23 Ta9 2.261621 1_554
O24 Ti1 1.849047 1_555
O24 Ta6 1.894464 1_555
O25 Ta6 2.066871 1_455
O25 Ta5 2.066871 1_555
O26 Ta7 1.948457 1_555
O26 Ta8 2.002354 1_555
O27 Ta10 1.977844 1_554
O27 Ta13 1.978395 1_554
O28 Ta9 1.977844 1_554
O28 Ta12 1.978395 1_554
O29 Ta14 1.948457 1_555
O29 Ta11 2.002354 1_555
O30 Ta7 1.972843 1_555
O30 Ta12 1.978865 1_554
O31 Ta5 1.934287 1_556
O31 Ta8 2.019277 1_556
O32 Ta9 1.977091 1_554
O32 Ta10 1.977091 1_554
O33 Ta14 1.972843 1_555
O33 Ta13 1.978865 1_554
O34 Ta6 1.934287 1_556
O34 Ta11 2.019277 1_556
O35 Ti1 1.909206 1_555
O35 Ta6 2.053134 1_556
O36 Ti0 1.909206 1_555
O36 Ta5 2.053134 1_556
O37 Ta7 1.898658 1_556
O37 Ta15 2.343703 1_545
O38 Ta8 1.846365 1_556
O39 Ta10 1.889487 1_555
O39 Ta16 2.260146 1_545
O40 Ta12 1.891651 1_555
O40 Ta17 2.270896 1_545
O41 Ta9 1.889487 1_555
O41 Ta1 2.260146 1_545
O42 Ta13 1.891651 1_555
O42 Ta2 2.270896 1_545
O43 Ta14 1.898658 1_556
O43 Ta3 2.343703 1_545
O44 Ta11 1.846365 1_556
O45 Ta5 1.884358 1_555
O46 Ta6 1.884358 1_555
O47 Ta8 1.918846 1_555
O47 Ta0 1.960287 1_545
O48 Ta2 1.936898 1_545
O48 Ta13 2.130725 1_554
O49 Ta7 1.936165 1_555
O49 Ta15 2.080794 1_545
O50 Ta1 1.919896 1_545
O50 Ta9 2.140724 1_554
O51 Ta17 1.936898 1_545
O51 Ta12 2.130725 1_554
O52 Ta16 1.919896 1_545
O52 Ta10 2.140724 1_554
O53 Ta11 1.918846 1_555
O53 Ta4 1.960287 1_545
O54 Ta14 1.936165 1_555
O54 Ta3 2.080794 1_545
O55 Ta0 1.881500 1_555
O55 Ta8 2.214000 1_555
O56 Ta17 1.990364 1_545
O56 Ta15 1.994355 1_545
O57 Ta16 1.984414 1_545
O57 Ta1 1.984414 1_545
O58 Ta2 1.990364 1_545
O58 Ta3 1.994355 1_545
O59 Ta4 1.881500 1_555
O59 Ta11 2.214000 1_555
