# generated using pymatgen
data_Mg3(Mo3Se4)4
_symmetry_space_group_name_H-M   'P 1'
_cell_length_a   6.94977700
_cell_length_b   6.99164705
_cell_length_c   13.86824128
_cell_angle_alpha   94.30119122
_cell_angle_beta   95.24694428
_cell_angle_gamma   93.11872853
_symmetry_Int_Tables_number   1
_chemical_formula_structural   Mg3(Mo3Se4)4
_chemical_formula_sum   'Mg3 Mo12 Se16'
_cell_volume   667.87496037
_cell_formula_units_Z   1
loop_
 _symmetry_equiv_pos_site_id
 _symmetry_equiv_pos_as_xyz
  1  'x, y, z'
loop_
 _atom_site_type_symbol
 _atom_site_label
 _atom_site_symmetry_multiplicity
 _atom_site_fract_x
 _atom_site_fract_y
 _atom_site_fract_z
 _atom_site_occupancy
  Mg  Mg0  1  0.95231400  0.04364000  0.68010200  1
  Mg  Mg1  1  0.04856400  0.95541000  0.32146000  1
  Mg  Mg2  1  0.40582300  0.97368900  0.01045300  1
  Mo  Mo0  1  0.58336900  0.45701000  0.87946600  1
  Mo  Mo1  1  0.23778700  0.41997600  0.76901600  1
  Mo  Mo2  1  0.45172300  0.75693100  0.79165000  1
  Mo  Mo3  1  0.54760100  0.24499900  0.70584300  1
  Mo  Mo4  1  0.75686400  0.58784200  0.72870100  1
  Mo  Mo5  1  0.41214300  0.54578500  0.61785700  1
  Mo  Mo6  1  0.58787000  0.45411000  0.38199300  1
  Mo  Mo7  1  0.24608700  0.41493400  0.27267500  1
  Mo  Mo8  1  0.45488300  0.75815800  0.29385200  1
  Mo  Mo9  1  0.54754500  0.23954100  0.20793900  1
  Mo  Mo10  1  0.75819900  0.57699900  0.22937600  1
  Mo  Mo11  1  0.41710400  0.54361600  0.12065200  1
  Se  Se0  1  0.27427200  0.62171400  0.93586900  1
  Se  Se1  1  0.37036200  0.13050700  0.85100000  1
  Se  Se2  1  0.78129000  0.78070100  0.89618400  1
  Se  Se3  1  0.88020200  0.28886700  0.82005900  1
  Se  Se4  1  0.12126000  0.71790100  0.68257900  1
  Se  Se5  1  0.22311100  0.21704400  0.59783200  1
  Se  Se6  1  0.60920200  0.87326100  0.63745100  1
  Se  Se7  1  0.72512200  0.37538200  0.56698600  1
  Se  Se8  1  0.27850400  0.62935200  0.43351700  1
  Se  Se9  1  0.39231600  0.12617800  0.36295200  1
  Se  Se10  1  0.77638600  0.78275800  0.40246100  1
  Se  Se11  1  0.87802200  0.28085400  0.31727000  1
  Se  Se12  1  0.12033000  0.71241200  0.18077200  1
  Se  Se13  1  0.20728900  0.22495500  0.10290200  1
  Se  Se14  1  0.63776100  0.87268200  0.14778300  1
  Se  Se15  1  0.71469500  0.36779400  0.06434600  1
loop_
_geom_bond_atom_site_label_1
_geom_bond_atom_site_label_2
_geom_bond_distance
_geom_bond_site_symmetry_2
Mg0 Se5 2.581742 1_655
Mg0 Se3 2.594294 1_555
Mg0 Se6 2.604274 1_545
Mg0 Se4 2.619520 1_645
Mg0 Se7 3.290119 1_555
Mg1 Se10 2.576952 1_455
Mg1 Se12 2.591322 1_555
Mg1 Se9 2.607509 1_565
Mg1 Se11 2.624162 1_465
Mg1 Se8 3.261789 1_555
Mg2 Se1 2.538949 1_564
Mg2 Se14 2.547224 1_555
Mg2 Se13 2.623587 1_565
Mg2 Se0 2.676212 1_554
Mo0 Se2 2.567448 1_555
Mo0 Se3 2.597286 1_555
Mo0 Se1 2.636032 1_555
Mo0 Se0 2.644593 1_555
Mo0 Se15 2.769444 1_556
Mo1 Se1 2.567902 1_555
Mo1 Se0 2.602375 1_555
Mo1 Se4 2.610011 1_555
Mo1 Se5 2.663489 1_555
Mo1 Se3 2.772810 1_455
Mo2 Se2 2.586584 1_555
Mo2 Se4 2.621371 1_555
Mo2 Se0 2.650057 1_555
Mo2 Se6 2.650372 1_555
Mo2 Se1 2.782556 1_565
Mo3 Se7 2.576216 1_555
Mo3 Se5 2.580290 1_555
Mo3 Se1 2.607383 1_555
Mo3 Se3 2.669537 1_555
Mo3 Se6 2.768316 1_545
Mo4 Se7 2.580519 1_555
Mo4 Se2 2.583623 1_555
Mo4 Se6 2.645917 1_555
Mo4 Se3 2.665151 1_555
Mo4 Se4 2.789686 1_655
Mo5 Se5 2.568037 1_555
Mo5 Se6 2.586327 1_555
Mo5 Se4 2.602897 1_555
Mo5 Se7 2.661751 1_555
Mo5 Se8 2.754696 1_555
Mo6 Se10 2.565828 1_555
Mo6 Se9 2.584205 1_555
Mo6 Se11 2.602500 1_555
Mo6 Se8 2.659073 1_555
Mo6 Se7 2.759738 1_555
Mo7 Se8 2.577492 1_555
Mo7 Se13 2.599281 1_555
Mo7 Se9 2.654392 1_555
Mo7 Se12 2.665668 1_555
Mo7 Se11 2.814227 1_455
Mo8 Se10 2.567974 1_555
Mo8 Se8 2.577009 1_555
Mo8 Se14 2.638841 1_555
Mo8 Se12 2.672924 1_555
Mo8 Se9 2.748848 1_565
Mo9 Se15 2.587802 1_555
Mo9 Se11 2.623472 1_555
Mo9 Se9 2.645789 1_555
Mo9 Se13 2.654355 1_555
Mo9 Se14 2.760024 1_545
Mo10 Se14 2.573077 1_555
Mo10 Se15 2.606163 1_555
Mo10 Se11 2.616667 1_555
Mo10 Se10 2.693349 1_555
Mo10 Se12 2.798456 1_655
Mo11 Se13 2.578617 1_555
Mo11 Se12 2.602628 1_555
Mo11 Se15 2.612726 1_555
Mo11 Se14 2.677171 1_555
Mo11 Se0 2.766608 1_554
