# generated using pymatgen
data_CaSiO3
_symmetry_space_group_name_H-M   'P 1'
_cell_length_a   9.57996000
_cell_length_b   8.36318200
_cell_length_c   14.75996888
_cell_angle_alpha   78.28884122
_cell_angle_beta   90.00000000
_cell_angle_gamma   90.00000000
_symmetry_Int_Tables_number   1
_chemical_formula_structural   CaSiO3
_chemical_formula_sum   'Ca12 Si12 O36'
_cell_volume   1157.93633647
_cell_formula_units_Z   12
loop_
 _symmetry_equiv_pos_site_id
 _symmetry_equiv_pos_as_xyz
  1  'x, y, z'
loop_
 _atom_site_type_symbol
 _atom_site_label
 _atom_site_symmetry_multiplicity
 _atom_site_fract_x
 _atom_site_fract_y
 _atom_site_fract_z
 _atom_site_occupancy
  Ca  Ca0  1  0.88457100  0.96444000  0.19077900  1
  Ca  Ca1  1  0.37703600  0.35476000  0.99636700  1
  Ca  Ca2  1  0.37502000  0.70638300  0.50096800  1
  Ca  Ca3  1  0.87703600  0.64524000  0.50363300  1
  Ca  Ca4  1  0.38457100  0.03556000  0.30922100  1
  Ca  Ca5  1  0.61542900  0.96444000  0.69077900  1
  Ca  Ca6  1  0.11542900  0.03556000  0.80922100  1
  Ca  Ca7  1  0.87502000  0.29361700  0.99903200  1
  Ca  Ca8  1  0.12296400  0.35476000  0.49636700  1
  Ca  Ca9  1  0.62498000  0.29361700  0.49903200  1
  Ca  Ca10  1  0.62296400  0.64524000  0.00363300  1
  Ca  Ca11  1  0.12498000  0.70638300  0.00096800  1
  Si  Si0  1  0.63673500  0.67612700  0.63883800  1
  Si  Si1  1  0.13448800  0.50013300  0.65910900  1
  Si  Si2  1  0.36551200  0.50013300  0.15910900  1
  Si  Si3  1  0.86326500  0.67612700  0.13883800  1
  Si  Si4  1  0.12861400  0.69848800  0.81158200  1
  Si  Si5  1  0.86551200  0.49986700  0.34089100  1
  Si  Si6  1  0.63448800  0.49986700  0.84089100  1
  Si  Si7  1  0.37138600  0.69848800  0.31158200  1
  Si  Si8  1  0.87138600  0.30151200  0.18841800  1
  Si  Si9  1  0.13673500  0.32387300  0.86116200  1
  Si  Si10  1  0.36326500  0.32387300  0.36116200  1
  Si  Si11  1  0.62861400  0.30151200  0.68841800  1
  O  O0  1  0.12838900  0.51023700  0.88497100  1
  O  O1  1  0.00695600  0.20128500  0.16330800  1
  O  O2  1  0.23517000  0.21211900  0.40838900  1
  O  O3  1  0.62838900  0.48976300  0.61502900  1
  O  O4  1  0.24641300  0.80636900  0.34537800  1
  O  O5  1  0.26483000  0.21211900  0.90838900  1
  O  O6  1  0.00737200  0.52741300  0.39480600  1
  O  O7  1  0.49262800  0.52741300  0.89480600  1
  O  O8  1  0.99612400  0.21532100  0.88917800  1
  O  O9  1  0.73517000  0.78788100  0.09161100  1
  O  O10  1  0.50737200  0.47258700  0.10519400  1
  O  O11  1  0.75358700  0.19363100  0.65462200  1
  O  O12  1  0.65469400  0.65944300  0.75278500  1
  O  O13  1  0.13750700  0.66468100  0.70572500  1
  O  O14  1  0.37161100  0.51023700  0.38497100  1
  O  O15  1  0.34530600  0.34055700  0.24721500  1
  O  O16  1  0.25663100  0.50512100  0.58190800  1
  O  O17  1  0.76483000  0.78788100  0.59161100  1
  O  O18  1  0.99304400  0.79871500  0.83669200  1
  O  O19  1  0.86249300  0.33531900  0.29427500  1
  O  O20  1  0.74336900  0.49487900  0.41809200  1
  O  O21  1  0.75663100  0.49487900  0.91809200  1
  O  O22  1  0.87161100  0.48976300  0.11502900  1
  O  O23  1  0.24336900  0.50512100  0.08190800  1
  O  O24  1  0.99262800  0.47258700  0.60519400  1
  O  O25  1  0.25358700  0.80636900  0.84537800  1
  O  O26  1  0.74641300  0.19363100  0.15462200  1
  O  O27  1  0.50387600  0.21532100  0.38917800  1
  O  O28  1  0.50695600  0.79871500  0.33669200  1
  O  O29  1  0.84530600  0.65944300  0.25278500  1
  O  O30  1  0.15469400  0.34055700  0.74721500  1
  O  O31  1  0.00387600  0.78467900  0.11082200  1
  O  O32  1  0.36249300  0.66468100  0.20572500  1
  O  O33  1  0.49612400  0.78467900  0.61082200  1
  O  O34  1  0.49304400  0.20128500  0.66330800  1
  O  O35  1  0.63750700  0.33531900  0.79427500  1
loop_
_geom_bond_atom_site_label_1
_geom_bond_atom_site_label_2
_geom_bond_distance
_geom_bond_site_symmetry_2
Ca0 O1 2.266378 1_665
Ca0 O26 2.301155 1_565
Ca0 O31 2.383166 1_655
Ca0 O29 2.556895 1_555
Ca0 O9 2.692339 1_555
Ca1 O7 2.163241 1_555
Ca1 O5 2.212162 1_555
Ca1 O23 2.336598 1_556
Ca1 O10 2.398495 1_556
Ca2 O16 2.174942 1_555
Ca2 O33 2.198830 1_555
Ca2 O4 2.590663 1_555
Ca2 O14 2.600668 1_555
Ca2 O28 2.704247 1_555
Ca3 O24 2.163241 1_555
Ca3 O17 2.212162 1_555
Ca3 O20 2.336598 1_555
Ca3 O6 2.398495 1_655
Ca4 O28 2.266378 1_545
Ca4 O4 2.301155 1_545
Ca4 O27 2.383166 1_555
Ca4 O15 2.556895 1_555
Ca4 O2 2.692339 1_555
Ca5 O34 2.266378 1_565
Ca5 O11 2.301155 1_565
Ca5 O33 2.383166 1_555
Ca5 O12 2.556895 1_555
Ca5 O17 2.692339 1_555
Ca6 O18 2.266378 1_445
Ca6 O25 2.301155 1_545
Ca6 O8 2.383166 1_455
Ca6 O30 2.556895 1_555
Ca6 O5 2.692339 1_555
Ca7 O21 2.174942 1_555
Ca7 O8 2.198830 1_555
Ca7 O26 2.590663 1_556
Ca7 O22 2.600668 1_556
Ca7 O1 2.704247 1_656
Ca8 O6 2.163241 1_555
Ca8 O2 2.212162 1_555
Ca8 O16 2.336598 1_555
Ca8 O24 2.398495 1_455
Ca9 O20 2.174942 1_555
Ca9 O27 2.198830 1_555
Ca9 O11 2.590663 1_555
Ca9 O3 2.600668 1_555
Ca9 O34 2.704247 1_555
Ca10 O10 2.163241 1_555
Ca10 O9 2.212162 1_555
Ca10 O21 2.336598 1_554
Ca10 O7 2.398495 1_554
Ca11 O23 2.174942 1_555
Ca11 O31 2.198830 1_555
Ca11 O25 2.590663 1_554
Ca11 O0 2.600668 1_554
Ca11 O18 2.704247 1_454
O0 Si9 1.667771 1_555
O0 Si4 1.720383 1_555
O1 Si8 1.628757 1_455
O2 Si10 1.612707 1_555
O3 Si0 1.667771 1_555
O3 Si11 1.720383 1_555
O4 Si7 1.636742 1_555
O5 Si9 1.612707 1_555
O6 Si5 1.614832 1_455
O7 Si6 1.614832 1_555
O8 Si9 1.630125 1_655
O9 Si3 1.612707 1_555
O10 Si2 1.614832 1_555
O11 Si11 1.636742 1_555
O12 Si0 1.668064 1_555
O12 Si6 1.674853 1_555
O13 Si4 1.645530 1_555
O13 Si1 1.659038 1_555
O14 Si10 1.667771 1_555
O14 Si7 1.720383 1_555
O15 Si10 1.668064 1_555
O15 Si2 1.674853 1_555
O16 Si1 1.627901 1_555
O17 Si0 1.612707 1_555
O18 Si4 1.628757 1_655
O19 Si8 1.645530 1_555
O19 Si5 1.659038 1_555
O20 Si5 1.627901 1_555
O21 Si6 1.627901 1_555
O22 Si3 1.667771 1_555
O22 Si8 1.720383 1_555
O23 Si2 1.627901 1_555
O24 Si1 1.614832 1_655
O25 Si4 1.636742 1_555
O26 Si8 1.636742 1_555
O27 Si10 1.630125 1_555
O28 Si7 1.628757 1_555
O29 Si3 1.668064 1_555
O29 Si5 1.674853 1_555
O30 Si9 1.668064 1_555
O30 Si1 1.674853 1_555
O31 Si3 1.630125 1_455
O32 Si7 1.645530 1_555
O32 Si2 1.659038 1_555
O33 Si0 1.630125 1_555
O34 Si11 1.628757 1_555
O35 Si11 1.645530 1_555
O35 Si6 1.659038 1_555
