# generated using pymatgen
data_YbTi2CdO6F
_symmetry_space_group_name_H-M   'P 1'
_cell_length_a   7.21695909
_cell_length_b   7.21695909
_cell_length_c   7.21695909
_cell_angle_alpha   120.39920850
_cell_angle_beta   119.41760274
_cell_angle_gamma   90.16081578
_symmetry_Int_Tables_number   1
_chemical_formula_structural   YbTi2CdO6F
_chemical_formula_sum   'Yb2 Ti4 Cd2 O12 F2'
_cell_volume   266.13808125
_cell_formula_units_Z   2
loop_
 _symmetry_equiv_pos_site_id
 _symmetry_equiv_pos_as_xyz
  1  'x, y, z'
loop_
 _atom_site_type_symbol
 _atom_site_label
 _atom_site_symmetry_multiplicity
 _atom_site_fract_x
 _atom_site_fract_y
 _atom_site_fract_z
 _atom_site_occupancy
  Yb  Yb0  1  0.50000000  0.00000000  0.50000000  1
  Yb  Yb1  1  0.00000000  0.00000000  0.00000000  1
  Ti  Ti0  1  0.50000000  0.00000000  0.00000000  1
  Ti  Ti1  1  0.50000000  0.50000000  0.50000000  1
  Ti  Ti2  1  0.50000000  0.50000000  0.00000000  1
  Ti  Ti3  1  0.00000000  0.50000000  0.50000000  1
  Cd  Cd0  1  0.00000000  0.00000000  0.50000000  1
  Cd  Cd1  1  0.00000000  0.50000000  0.00000000  1
  O  O0  1  0.42228000  0.17228000  0.25000000  1
  O  O1  1  0.42580200  0.17309000  0.84702700  1
  O  O2  1  0.42580200  0.57877500  0.25271300  1
  O  O3  1  0.82606300  0.17309000  0.24728700  1
  O  O4  1  0.82739100  0.57739100  0.25000000  1
  O  O5  1  0.82606300  0.57877500  0.65297300  1
  O  O6  1  0.17260900  0.42260900  0.75000000  1
  O  O7  1  0.17393700  0.42122500  0.34702700  1
  O  O8  1  0.17393700  0.82691000  0.75271300  1
  O  O9  1  0.57419800  0.42122500  0.74728700  1
  O  O10  1  0.57772000  0.82772000  0.75000000  1
  O  O11  1  0.57419800  0.82691000  0.15297300  1
  F  F0  1  0.86891200  0.11891200  0.75000000  1
  F  F1  1  0.13108800  0.88108800  0.25000000  1
loop_
_geom_bond_atom_site_label_1
_geom_bond_atom_site_label_2
_geom_bond_distance
_geom_bond_site_symmetry_2
Cd0 F1 2.236313 1_545
Cd0 F0 2.236313 1_455
Cd0 O4 2.512163 1_445
Cd0 O6 2.512163 1_555
Cd0 O1 2.555002 1_555
Cd0 O11 2.555002 1_445
Cd0 O3 2.555007 1_455
Cd0 O8 2.555007 1_545
Cd1 F0 2.236313 1_454
Cd1 F1 2.236313 1_555
Cd1 O6 2.512163 1_554
Cd1 O4 2.512163 1_455
Cd1 O5 2.555002 1_454
Cd1 O7 2.555002 1_555
Cd1 O9 2.555002 1_454
Cd1 O2 2.555002 1_555
O0 Ti0 1.960493 1_555
O0 Ti1 1.960493 1_555
O0 Yb0 2.529004 1_555
O0 Yb1 2.529004 1_555
O1 Ti2 1.961626 1_556
O1 Ti0 1.970976 1_556
O1 Yb0 2.504909 1_555
O2 Ti2 1.961633 1_555
O2 Ti1 1.970969 1_555
O2 Yb0 2.504909 1_565
O3 Ti3 1.961626 1_655
O3 Ti0 1.970976 1_555
O3 Yb1 2.504904 1_655
O4 Ti3 1.983662 1_655
O4 Ti2 1.983662 1_555
O5 Ti3 1.961626 1_655
O5 Ti1 1.970976 1_555
O5 Yb1 2.504909 1_666
O6 Ti3 1.983662 1_555
O6 Ti2 1.983662 1_556
O7 Ti3 1.961626 1_555
O7 Ti1 1.970976 1_555
O7 Yb1 2.504909 1_555
O8 Ti3 1.961626 1_555
O8 Ti0 1.970976 1_566
O8 Yb1 2.504904 1_566
O9 Ti2 1.961633 1_556
O9 Ti1 1.970969 1_555
O9 Yb0 2.504909 1_555
O10 Ti0 1.960493 1_566
O10 Ti1 1.960493 1_555
O10 Yb1 2.529004 1_666
O10 Yb0 2.529004 1_565
O11 Ti2 1.961626 1_555
O11 Ti0 1.970976 1_565
O11 Yb0 2.504909 1_565
F0 Yb1 2.186683 1_656
F0 Yb0 2.186683 1_555
F1 Yb0 2.186683 1_565
F1 Yb1 2.186683 1_565
