# generated using pymatgen
data_Pr3Ga10Ni
_symmetry_space_group_name_H-M   'P 1'
_cell_length_a   4.25712952
_cell_length_b   4.27769287
_cell_length_c   15.21160666
_cell_angle_alpha   90.00000000
_cell_angle_beta   90.00000000
_cell_angle_gamma   90.00000000
_symmetry_Int_Tables_number   1
_chemical_formula_structural   Pr3Ga10Ni
_chemical_formula_sum   'Pr3 Ga10 Ni1'
_cell_volume   277.01389275
_cell_formula_units_Z   1
loop_
 _symmetry_equiv_pos_site_id
 _symmetry_equiv_pos_as_xyz
  1  'x, y, z'
loop_
 _atom_site_type_symbol
 _atom_site_label
 _atom_site_symmetry_multiplicity
 _atom_site_fract_x
 _atom_site_fract_y
 _atom_site_fract_z
 _atom_site_occupancy
  Pr  Pr0  1  0.50000000  0.00000000  0.50000000  1
  Pr  Pr1  1  -0.00000000  0.00000000  0.24808045  1
  Pr  Pr2  1  -0.00000000  0.00000000  0.75191955  1
  Ga  Ga0  1  0.50000000  0.50000000  0.18248751  1
  Ga  Ga1  1  0.50000000  0.50000000  0.81751249  1
  Ga  Ga2  1  0.50000000  0.50000000  0.34164623  1
  Ga  Ga3  1  0.50000000  0.50000000  0.65835377  1
  Ga  Ga4  1  -0.00000000  0.50000000  0.41928628  1
  Ga  Ga5  1  -0.00000000  0.50000000  0.58071372  1
  Ga  Ga6  1  -0.00000000  0.50000000  0.08396051  1
  Ga  Ga7  1  -0.00000000  0.50000000  0.91603949  1
  Ga  Ga8  1  0.50000000  0.00000000  0.08382954  1
  Ga  Ga9  1  0.50000000  0.00000000  0.91617046  1
  Ni  Ni0  1  -0.00000000  0.00000000  -0.00000000  1
loop_
_geom_bond_atom_site_label_1
_geom_bond_atom_site_label_2
_geom_bond_distance
_geom_bond_site_symmetry_2
Ga0 Ga2 2.421060 1_555
Ga0 Ga6 2.603277 1_655
Ga0 Ga6 2.603277 1_555
Ga0 Ga8 2.612834 1_555
Ga0 Ga8 2.612834 1_565
Ga0 Pr1 3.178208 1_555
Ga0 Pr1 3.178208 1_665
Ga0 Pr1 3.178208 1_655
Ga0 Pr1 3.178208 1_565
Ga1 Ga3 2.421060 1_555
Ga1 Ga7 2.603277 1_555
Ga1 Ga7 2.603277 1_655
Ga1 Ga9 2.612834 1_565
Ga1 Ga9 2.612834 1_555
Ga1 Pr2 3.178208 1_655
Ga1 Pr2 3.178208 1_565
Ga1 Pr2 3.178208 1_665
Ga1 Pr2 3.178208 1_555
Ga2 Ga4 2.434260 1_555
Ga2 Ga4 2.434260 1_655
Ga2 Pr0 3.221344 1_555
Ga2 Pr0 3.221344 1_565
Ga2 Pr1 3.336344 1_565
Ga2 Pr1 3.336344 1_555
Ga2 Pr1 3.336344 1_665
Ga2 Pr1 3.336344 1_655
Ga3 Ga5 2.434260 1_555
Ga3 Ga5 2.434260 1_655
Ga3 Pr0 3.221344 1_565
Ga3 Pr0 3.221344 1_555
Ga3 Pr2 3.336344 1_665
Ga3 Pr2 3.336344 1_555
Ga3 Pr2 3.336344 1_565
Ga3 Pr2 3.336344 1_655
Ga4 Ga5 2.455571 1_555
Ga4 Pr0 3.257746 1_465
Ga4 Pr0 3.257746 1_455
Ga4 Pr0 3.257746 1_555
Ga4 Pr0 3.257746 1_565
Ga4 Pr1 3.370033 1_565
Ga4 Pr1 3.370033 1_555
Ga5 Pr0 3.257746 1_465
Ga5 Pr0 3.257746 1_455
Ga5 Pr0 3.257746 1_555
Ga5 Pr0 3.257746 1_565
Ga5 Pr2 3.370033 1_555
Ga5 Pr2 3.370033 1_565
Ga6 Ni0 2.491152 1_565
Ga6 Ni0 2.491152 1_555
Ga6 Ga7 2.554349 1_554
Ga6 Pr1 3.287448 1_565
Ga6 Pr1 3.287448 1_555
Ga7 Ni0 2.491152 1_556
Ga7 Ni0 2.491152 1_566
Ga7 Pr2 3.287448 1_555
Ga7 Pr2 3.287448 1_565
Ga8 Ni0 2.481306 1_655
Ga8 Ni0 2.481306 1_555
Ga8 Ga9 2.550364 1_554
Ga8 Pr1 3.282284 1_655
Ga8 Pr1 3.282284 1_555
Ga9 Ni0 2.481306 1_556
Ga9 Ni0 2.481306 1_656
Ga9 Pr2 3.282284 1_655
Ga9 Pr2 3.282284 1_555
