# generated using pymatgen
data_U2SnRh2
_symmetry_space_group_name_H-M   'P 1'
_cell_length_a   7.60181076
_cell_length_b   7.60181076
_cell_length_c   3.65035938
_cell_angle_alpha   90.00000000
_cell_angle_beta   90.00000000
_cell_angle_gamma   90.01018522
_symmetry_Int_Tables_number   1
_chemical_formula_structural   U2SnRh2
_chemical_formula_sum   'U4 Sn2 Rh4'
_cell_volume   210.94523728
_cell_formula_units_Z   2
loop_
 _symmetry_equiv_pos_site_id
 _symmetry_equiv_pos_as_xyz
  1  'x, y, z'
loop_
 _atom_site_type_symbol
 _atom_site_label
 _atom_site_symmetry_multiplicity
 _atom_site_fract_x
 _atom_site_fract_y
 _atom_site_fract_z
 _atom_site_occupancy
  U  U0  1  0.32732154  0.17267846  0.50000000  1
  U  U1  1  0.67267846  0.82732154  0.50000000  1
  U  U2  1  0.17259111  0.67259111  0.50000000  1
  U  U3  1  0.82740889  0.32740889  0.50000000  1
  Sn  Sn0  1  -0.00000000  0.00000000  -0.00000000  1
  Sn  Sn1  1  0.50000000  0.50000000  -0.00000000  1
  Rh  Rh0  1  0.63569288  0.13569288  0.00000000  1
  Rh  Rh1  1  0.86432398  0.63567602  -0.00000000  1
  Rh  Rh2  1  0.36430712  0.86430712  0.00000000  1
  Rh  Rh3  1  0.13567602  0.36432398  -0.00000000  1
loop_
_geom_bond_atom_site_label_1
_geom_bond_atom_site_label_2
_geom_bond_distance
_geom_bond_site_symmetry_2
Sn0 U1 3.353288 1_444
Sn0 U1 3.353288 1_445
Sn0 U0 3.353288 1_554
Sn0 U0 3.353288 1_555
Sn0 U2 3.353867 1_544
Sn0 U2 3.353867 1_545
Sn0 U3 3.353867 1_455
Sn0 U3 3.353867 1_454
Sn1 U0 3.353288 1_554
Sn1 U1 3.353288 1_555
Sn1 U1 3.353288 1_554
Sn1 U0 3.353288 1_555
Sn1 U3 3.353867 1_555
Sn1 U3 3.353867 1_554
Sn1 U2 3.353867 1_554
Sn1 U2 3.353867 1_555
Rh0 U3 2.752906 1_554
Rh0 U3 2.752906 1_555
Rh0 Sn0 2.955431 1_655
Rh0 Sn1 2.955431 1_555
Rh0 U1 2.984250 1_544
Rh0 U1 2.984250 1_545
Rh0 U0 2.984250 1_555
Rh0 U0 2.984250 1_554
Rh1 U1 2.752613 1_555
Rh1 U1 2.752613 1_554
Rh1 Sn1 2.955163 1_555
Rh1 Sn0 2.955163 1_665
Rh1 U2 2.983499 1_655
Rh1 U2 2.983499 1_654
Rh1 U3 2.983499 1_555
Rh1 U3 2.983499 1_554
Rh2 U2 2.752906 1_555
Rh2 U2 2.752906 1_554
Rh2 Sn1 2.955431 1_555
Rh2 Sn0 2.955431 1_565
Rh2 U1 2.984250 1_555
Rh2 U1 2.984250 1_554
Rh2 U0 2.984250 1_565
Rh2 U0 2.984250 1_564
Rh3 U0 2.752613 1_554
Rh3 U0 2.752613 1_555
Rh3 Sn1 2.955163 1_555
Rh3 Sn0 2.955163 1_555
Rh3 U2 2.983499 1_555
Rh3 U2 2.983499 1_554
Rh3 U3 2.983499 1_455
Rh3 U3 2.983499 1_454
