# generated using pymatgen
data_Ba3LiTi5Nb3O21
_symmetry_space_group_name_H-M   'P 1'
_cell_length_a   9.24185800
_cell_length_b   9.27432272
_cell_length_c   11.67655065
_cell_angle_alpha   89.85954771
_cell_angle_beta   89.85190439
_cell_angle_gamma   60.38836304
_symmetry_Int_Tables_number   1
_chemical_formula_structural   Ba3LiTi5Nb3O21
_chemical_formula_sum   'Ba6 Li2 Ti10 Nb6 O42'
_cell_volume   870.10396895
_cell_formula_units_Z   2
loop_
 _symmetry_equiv_pos_site_id
 _symmetry_equiv_pos_as_xyz
  1  'x, y, z'
loop_
 _atom_site_type_symbol
 _atom_site_label
 _atom_site_symmetry_multiplicity
 _atom_site_fract_x
 _atom_site_fract_y
 _atom_site_fract_z
 _atom_site_occupancy
  Ba  Ba0  1  0.60137600  0.40445100  0.74766900  1
  Ba  Ba1  1  0.39859800  0.99915300  0.75404000  1
  Ba  Ba2  1  0.59785900  0.99973400  0.24293200  1
  Ba  Ba3  1  0.99179300  0.40182300  0.25289600  1
  Ba  Ba4  1  0.00414700  0.59313900  0.74371000  1
  Ba  Ba5  1  0.40371600  0.59612300  0.24967300  1
  Li  Li0  1  0.01283100  0.99783300  0.73870500  1
  Li  Li1  1  0.98892800  0.00848100  0.24617900  1
  Ti  Ti0  1  0.74574000  0.26638800  0.09093000  1
  Ti  Ti1  1  0.73907000  0.25803200  0.40950600  1
  Ti  Ti2  1  0.26824400  0.74030300  0.59075800  1
  Ti  Ti3  1  0.67270800  0.65468100  0.49508500  1
  Ti  Ti4  1  0.24880000  0.00262700  0.08658500  1
  Ti  Ti5  1  0.99654600  0.26001400  0.90967400  1
  Ti  Ti6  1  0.98627000  0.26086900  0.58996200  1
  Ti  Ti7  1  0.74692600  0.01688100  0.90978500  1
  Ti  Ti8  1  0.00413500  0.73665400  0.41023300  1
  Ti  Ti9  1  0.25316600  0.74707300  0.90780100  1
  Nb  Nb0  1  0.65964300  0.67676000  0.99455100  1
  Nb  Nb1  1  0.25613300  0.99486400  0.41184000  1
  Nb  Nb2  1  0.74657500  0.99192700  0.58873600  1
  Nb  Nb3  1  0.32888300  0.33625500  0.50457000  1
  Nb  Nb4  1  0.33776500  0.33050400  0.99958600  1
  Nb  Nb5  1  0.00113100  0.74557400  0.08835300  1
  O  O0  1  0.99691000  0.20866100  0.07117500  1
  O  O1  1  0.68004800  0.48708700  0.10290900  1
  O  O2  1  0.68678100  0.48597300  0.39929600  1
  O  O3  1  0.83109200  0.48382700  0.60090300  1
  O  O4  1  0.83316500  0.48593100  0.90081500  1
  O  O5  1  0.20595500  0.78787700  0.07237100  1
  O  O6  1  0.21818900  0.78494600  0.42961200  1
  O  O7  1  0.48371200  0.68777100  0.89292600  1
  O  O8  1  0.48826400  0.67849800  0.59905700  1
  O  O9  1  0.47717100  0.83246000  0.09946300  1
  O  O10  1  0.49069400  0.83196500  0.40055200  1
  O  O11  1  0.19751800  0.99604000  0.24955600  1
  O  O12  1  0.20500800  0.99469800  0.92856100  1
  O  O13  1  0.20782600  0.99368300  0.57771200  1
  O  O14  1  0.82806000  0.68510000  0.10852000  1
  O  O15  1  0.83585600  0.68255200  0.40557500  1
  O  O16  1  0.68405000  0.83998100  0.90537700  1
  O  O17  1  0.68201400  0.82917300  0.60847000  1
  O  O18  1  0.99572600  0.20744600  0.75135100  1
  O  O19  1  0.00583500  0.20372600  0.42889100  1
  O  O20  1  0.32125200  0.16681100  0.39672400  1
  O  O21  1  0.31512500  0.16271900  0.10017900  1
  O  O22  1  0.16551500  0.31335300  0.59886600  1
  O  O23  1  0.16822900  0.31418400  0.89842400  1
  O  O24  1  0.80607100  0.99281300  0.07051900  1
  O  O25  1  0.77713600  0.01093400  0.42403700  1
  O  O26  1  0.80597000  0.00223200  0.75176000  1
  O  O27  1  0.51278400  0.17107500  0.60614800  1
  O  O28  1  0.51841900  0.16646900  0.89510300  1
  O  O29  1  0.51482200  0.32378600  0.40222300  1
  O  O30  1  0.52019100  0.30656900  0.10229100  1
  O  O31  1  0.79276700  0.21151600  0.25090200  1
  O  O32  1  0.78343400  0.21269000  0.92869900  1
  O  O33  1  0.79500400  0.20873200  0.57103700  1
  O  O34  1  0.16895200  0.51536400  0.39641800  1
  O  O35  1  0.16932700  0.50956700  0.10545800  1
  O  O36  1  0.32276900  0.51493500  0.90412100  1
  O  O37  1  0.30915400  0.51710400  0.60542900  1
  O  O38  1  0.00706900  0.78077700  0.92251800  1
  O  O39  1  0.99433300  0.79846100  0.56846700  1
  O  O40  1  0.00014600  0.80130000  0.25355700  1
  O  O41  1  0.20667600  0.79107100  0.75027000  1
loop_
_geom_bond_atom_site_label_1
_geom_bond_atom_site_label_2
_geom_bond_distance
_geom_bond_site_symmetry_2
Ba0 O32 2.739502 1_555
Ba0 O33 2.745916 1_555
Ba0 O8 2.815281 1_555
Ba0 O7 2.855196 1_555
Ba0 O37 2.893089 1_555
Ba0 O36 2.897341 1_555
Ba0 O3 3.083083 1_555
Ba0 O27 3.140300 1_555
Ba0 O4 3.159711 1_555
Ba0 O18 3.168999 1_555
Ba0 O28 3.173264 1_555
Ba0 O26 3.243749 1_555
Ba1 O12 2.721972 1_555
Ba1 O13 2.730897 1_555
Ba1 O28 2.840300 1_565
Ba1 O17 2.853867 1_555
Ba1 O27 2.877138 1_565
Ba1 O16 2.902438 1_555
Ba1 O7 3.054039 1_555
Ba1 O23 3.125663 1_565
Ba1 O22 3.194620 1_565
Ba1 O41 3.202455 1_555
Ba1 O8 3.223147 1_555
Ba1 O18 3.238512 1_465
Ba2 O25 2.723434 1_565
Ba2 O24 2.760144 1_555
Ba2 O21 2.828054 1_565
Ba2 O9 2.861737 1_555
Ba2 O20 2.869866 1_565
Ba2 O10 2.878987 1_555
Ba2 O30 3.045419 1_565
Ba2 O14 3.061769 1_555
Ba2 O40 3.234881 1_655
Ba2 O31 3.257203 1_565
Ba2 O15 3.270768 1_555
Ba2 O29 3.289592 1_565
Ba3 O19 2.713399 1_655
Ba3 O0 2.765550 1_555
Ba3 O14 2.845468 1_555
Ba3 O35 2.872549 1_655
Ba3 O34 2.885239 1_655
Ba3 O15 2.887078 1_555
Ba3 O2 3.047116 1_555
Ba3 O31 3.115703 1_555
Ba3 O1 3.124266 1_555
Ba3 O20 3.208119 1_655
Ba3 O21 3.235727 1_655
Ba3 O11 3.272397 1_645
Ba4 O38 2.729979 1_555
Ba4 O39 2.762705 1_455
Ba4 O3 2.826773 1_455
Ba4 O22 2.828757 1_555
Ba4 O23 2.893179 1_555
Ba4 O4 2.894742 1_455
Ba4 O37 3.011284 1_555
Ba4 O17 3.117013 1_455
Ba4 O41 3.205617 1_555
Ba4 O36 3.258315 1_555
Ba4 O16 3.294753 1_455
Ba4 O26 3.300287 1_465
Ba5 O6 2.730055 1_555
Ba5 O5 2.752915 1_555
Ba5 O1 2.813378 1_555
Ba5 O29 2.833907 1_555
Ba5 O2 2.883303 1_555
Ba5 O30 2.913438 1_555
Ba5 O34 3.128066 1_555
Ba5 O9 3.128399 1_555
Ba5 O35 3.149024 1_555
Ba5 O10 3.209022 1_555
Ba5 O11 3.225374 1_555
Ba5 O40 3.243414 1_555
Li0 O41 1.873457 1_555
Li0 O18 1.877123 1_465
Li0 O26 1.897696 1_465
Li0 O13 2.587897 1_555
Li1 O31 1.860592 1_555
Li1 O11 1.873948 1_645
Li1 O40 1.874183 1_645
Nb0 O16 1.937795 1_555
Nb0 O7 1.976729 1_555
Nb0 O9 2.005289 1_556
Nb0 O4 2.024242 1_555
Nb0 O14 2.080806 1_556
Nb0 O1 2.096020 1_556
Nb1 O10 1.939608 1_555
Nb1 O20 1.970503 1_565
Nb1 O11 1.970697 1_555
Nb1 O13 1.987696 1_555
Nb1 O6 2.151411 1_555
Nb1 O19 2.171218 1_565
Nb2 O17 1.890795 1_555
Nb2 O25 1.963149 1_565
Nb2 O27 1.980411 1_565
Nb2 O26 1.998029 1_565
Nb2 O39 2.111287 1_555
Nb2 O33 2.274394 1_565
Nb3 O22 1.960656 1_555
Nb3 O37 1.984872 1_555
Nb3 O27 2.017595 1_555
Nb3 O34 2.027746 1_555
Nb3 O20 2.044496 1_555
Nb3 O29 2.046507 1_555
Nb4 O36 1.986119 1_555
Nb4 O30 1.992284 1_556
Nb4 O28 2.019600 1_555
Nb4 O23 2.029273 1_555
Nb4 O35 2.038319 1_556
Nb4 O21 2.038717 1_556
Nb5 O14 1.952522 1_455
Nb5 O38 1.968053 1_554
Nb5 O35 1.970828 1_555
Nb5 O40 1.997104 1_555
Nb5 O24 2.113178 1_455
Nb5 O5 2.122209 1_555
O0 Ti5 1.943459 1_554
O0 Ti0 2.120816 1_555
O0 Ti4 2.169662 1_655
O1 Ti0 1.830464 1_555
O2 Ti3 1.876908 1_555
O2 Ti1 1.925156 1_555
O3 Ti6 1.848931 1_555
O3 Ti3 1.971730 1_555
O4 Ti5 1.885177 1_555
O5 Ti9 1.965254 1_554
O5 Ti4 2.220893 1_565
O6 Ti2 1.933224 1_555
O6 Ti8 2.245817 1_555
O7 Ti9 1.926894 1_555
O8 Ti2 1.822513 1_555
O8 Ti3 2.011684 1_555
O9 Ti4 1.917441 1_565
O10 Ti3 2.004710 1_555
O11 Ti4 1.967971 1_565
O12 Ti4 1.899425 1_566
O12 Ti9 2.126753 1_555
O12 Ti5 2.264890 1_465
O13 Ti2 2.135211 1_555
O13 Ti6 2.310727 1_465
O15 Ti8 1.856107 1_655
O15 Ti3 1.951489 1_555
O16 Ti7 1.993661 1_565
O17 Ti3 2.127850 1_555
O18 Ti5 1.914016 1_555
O18 Ti6 1.938510 1_555
O19 Ti6 1.938871 1_455
O19 Ti1 2.271199 1_455
O21 Ti4 1.872550 1_555
O22 Ti6 1.946768 1_455
O23 Ti5 1.890376 1_455
O24 Ti7 1.937454 1_564
O24 Ti0 2.325817 1_565
O25 Ti1 2.146151 1_555
O25 Ti8 2.371572 1_645
O26 Ti7 1.908847 1_555
O28 Ti7 1.875969 1_555
O29 Ti1 1.850925 1_555
O30 Ti0 1.932029 1_555
O31 Ti1 1.910416 1_555
O31 Ti0 1.928202 1_555
O32 Ti0 1.946151 1_556
O32 Ti7 2.017008 1_555
O32 Ti5 2.229941 1_555
O33 Ti1 1.949610 1_555
O33 Ti6 2.062631 1_555
O34 Ti8 1.862582 1_555
O36 Ti9 1.918963 1_555
O37 Ti2 1.918967 1_555
O38 Ti9 2.143776 1_555
O38 Ti7 2.322669 1_465
O39 Ti8 1.924454 1_655
O39 Ti2 2.328148 1_655
O40 Ti8 1.918535 1_555
O41 Ti9 1.887251 1_555
O41 Ti2 1.936133 1_555
