# generated using pymatgen
data_K3Nd2(NO3)9
_symmetry_space_group_name_H-M   'P 1'
_cell_length_a   13.71011600
_cell_length_b   13.71011600
_cell_length_c   13.71011600
_cell_angle_alpha   90.00000000
_cell_angle_beta   90.00000000
_cell_angle_gamma   90.00000000
_symmetry_Int_Tables_number   1
_chemical_formula_structural   K3Nd2(NO3)9
_chemical_formula_sum   'K12 Nd8 N36 O108'
_cell_volume   2577.05322306
_cell_formula_units_Z   4
loop_
 _symmetry_equiv_pos_site_id
 _symmetry_equiv_pos_as_xyz
  1  'x, y, z'
loop_
 _atom_site_type_symbol
 _atom_site_label
 _atom_site_symmetry_multiplicity
 _atom_site_fract_x
 _atom_site_fract_y
 _atom_site_fract_z
 _atom_site_occupancy
  K  K0  1  0.87500000  0.81181600  0.56181600  1
  K  K1  1  0.43818400  0.37500000  0.68818400  1
  K  K2  1  0.37500000  0.68818400  0.43818400  1
  K  K3  1  0.31181600  0.93818400  0.12500000  1
  K  K4  1  0.56181600  0.87500000  0.81181600  1
  K  K5  1  0.18818400  0.06181600  0.62500000  1
  K  K6  1  0.06181600  0.62500000  0.18818400  1
  K  K7  1  0.12500000  0.31181600  0.93818400  1
  K  K8  1  0.68818400  0.43818400  0.37500000  1
  K  K9  1  0.62500000  0.18818400  0.06181600  1
  K  K10  1  0.81181600  0.56181600  0.87500000  1
  K  K11  1  0.93818400  0.12500000  0.31181600  1
  Nd  Nd0  1  0.05010800  0.44989200  0.55010800  1
  Nd  Nd1  1  0.55010800  0.05010800  0.44989200  1
  Nd  Nd2  1  0.44989200  0.55010800  0.05010800  1
  Nd  Nd3  1  0.30010800  0.30010800  0.30010800  1
  Nd  Nd4  1  0.94989200  0.94989200  0.94989200  1
  Nd  Nd5  1  0.80010800  0.19989200  0.69989200  1
  Nd  Nd6  1  0.19989200  0.69989200  0.80010800  1
  Nd  Nd7  1  0.69989200  0.80010800  0.19989200  1
  N  N0  1  0.09863500  0.08668100  0.86115600  1
  N  N1  1  0.40136500  0.91331900  0.36115600  1
  N  N2  1  0.90136500  0.58668100  0.63884400  1
  N  N3  1  0.41331900  0.13884400  0.59863500  1
  N  N4  1  0.48615400  0.76384600  0.12500000  1
  N  N5  1  0.87500000  0.98615400  0.73615400  1
  N  N6  1  0.11115600  0.83668100  0.65136500  1
  N  N7  1  0.38884400  0.16331900  0.15136500  1
  N  N8  1  0.65136500  0.11115600  0.83668100  1
  N  N9  1  0.16331900  0.15136500  0.38884400  1
  N  N10  1  0.61115600  0.66331900  0.34863500  1
  N  N11  1  0.83668100  0.65136500  0.11115600  1
  N  N12  1  0.73615400  0.87500000  0.98615400  1
  N  N13  1  0.08668100  0.86115600  0.09863500  1
  N  N14  1  0.37500000  0.51384600  0.26384600  1
  N  N15  1  0.98615400  0.73615400  0.87500000  1
  N  N16  1  0.26384600  0.37500000  0.51384600  1
  N  N17  1  0.36115600  0.40136500  0.91331900  1
  N  N18  1  0.91331900  0.36115600  0.40136500  1
  N  N19  1  0.88884400  0.33668100  0.84863500  1
  N  N20  1  0.23615400  0.62500000  0.01384600  1
  N  N21  1  0.76384600  0.12500000  0.48615400  1
  N  N22  1  0.59863500  0.41331900  0.13884400  1
  N  N23  1  0.62500000  0.01384600  0.23615400  1
  N  N24  1  0.51384600  0.26384600  0.37500000  1
  N  N25  1  0.86115600  0.09863500  0.08668100  1
  N  N26  1  0.01384600  0.23615400  0.62500000  1
  N  N27  1  0.12500000  0.48615400  0.76384600  1
  N  N28  1  0.13884400  0.59863500  0.41331900  1
  N  N29  1  0.33668100  0.84863500  0.88884400  1
  N  N30  1  0.63884400  0.90136500  0.58668100  1
  N  N31  1  0.84863500  0.88884400  0.33668100  1
  N  N32  1  0.66331900  0.34863500  0.61115600  1
  N  N33  1  0.34863500  0.61115600  0.66331900  1
  N  N34  1  0.15136500  0.38884400  0.16331900  1
  N  N35  1  0.58668100  0.63884400  0.90136500  1
  O  O0  1  0.50256300  0.67507800  0.91882200  1
  O  O1  1  0.99254800  0.15310100  0.65690600  1
  O  O2  1  0.19721600  0.37500000  0.44721600  1
  O  O3  1  0.14040300  0.19782300  0.31099800  1
  O  O4  1  0.40802900  0.57252600  0.60628700  1
  O  O5  1  0.09197100  0.42747400  0.10628700  1
  O  O6  1  0.84689900  0.15690600  0.50745200  1
  O  O7  1  0.59689900  0.24254800  0.40690600  1
  O  O8  1  0.94782300  0.60959700  0.56099800  1
  O  O9  1  0.31099800  0.14040300  0.19782300  1
  O  O10  1  0.06099800  0.55217700  0.39040300  1
  O  O11  1  0.33117800  0.57492200  0.74743700  1
  O  O12  1  0.17747400  0.65802900  0.35628700  1
  O  O13  1  0.81099800  0.35959700  0.80217700  1
  O  O14  1  0.05217700  0.10959700  0.93900200  1
  O  O15  1  0.17507800  0.58117800  0.49743700  1
  O  O16  1  0.80217700  0.81099800  0.35959700  1
  O  O17  1  0.49254800  0.34689900  0.34309400  1
  O  O18  1  0.84309400  0.00745200  0.65310100  1
  O  O19  1  0.84197100  0.64371300  0.67747400  1
  O  O20  1  0.05278400  0.80278400  0.87500000  1
  O  O21  1  0.15802900  0.14371300  0.82252600  1
  O  O22  1  0.30278400  0.62500000  0.94721600  1
  O  O23  1  0.82252600  0.15802900  0.14371300  1
  O  O24  1  0.68900200  0.64040300  0.30217700  1
  O  O25  1  0.60959700  0.56099800  0.94782300  1
  O  O26  1  0.56099800  0.94782300  0.60959700  1
  O  O27  1  0.83117800  0.92507800  0.25256300  1
  O  O28  1  0.80278400  0.87500000  0.05278400  1
  O  O29  1  0.92747400  0.39371300  0.90802900  1
  O  O30  1  0.50745200  0.84689900  0.15690600  1
  O  O31  1  0.89371300  0.59197100  0.07252600  1
  O  O32  1  0.49743700  0.17507800  0.58117800  1
  O  O33  1  0.44721600  0.19721600  0.37500000  1
  O  O34  1  0.57252600  0.60628700  0.40802900  1
  O  O35  1  0.74254800  0.09309400  0.40310100  1
  O  O36  1  0.10628700  0.09197100  0.42747400  1
  O  O37  1  0.25745200  0.59309400  0.09689900  1
  O  O38  1  0.91882200  0.50256300  0.67507800  1
  O  O39  1  0.59309400  0.09689900  0.25745200  1
  O  O40  1  0.69782300  0.18900200  0.85959700  1
  O  O41  1  0.94721600  0.30278400  0.62500000  1
  O  O42  1  0.34689900  0.34309400  0.49254800  1
  O  O43  1  0.55278400  0.69721600  0.12500000  1
  O  O44  1  0.92507800  0.25256300  0.83117800  1
  O  O45  1  0.09689900  0.25745200  0.59309400  1
  O  O46  1  0.90690600  0.90310100  0.75745200  1
  O  O47  1  0.40690600  0.59689900  0.24254800  1
  O  O48  1  0.32252600  0.34197100  0.85628700  1
  O  O49  1  0.64040300  0.30217700  0.68900200  1
  O  O50  1  0.75256300  0.66882200  0.07492200  1
  O  O51  1  0.62500000  0.94721600  0.30278400  1
  O  O52  1  0.24254800  0.40690600  0.59689900  1
  O  O53  1  0.08117800  0.00256300  0.82492200  1
  O  O54  1  0.15310100  0.65690600  0.99254800  1
  O  O55  1  0.14371300  0.82252600  0.15802900  1
  O  O56  1  0.85628700  0.32252600  0.34197100  1
  O  O57  1  0.15690600  0.50745200  0.84689900  1
  O  O58  1  0.59197100  0.07252600  0.89371300  1
  O  O59  1  0.07252600  0.89371300  0.59197100  1
  O  O60  1  0.65802900  0.35628700  0.17747400  1
  O  O61  1  0.40310100  0.74254800  0.09309400  1
  O  O62  1  0.66882200  0.07492200  0.75256300  1
  O  O63  1  0.25256300  0.83117800  0.92507800  1
  O  O64  1  0.19782300  0.31099800  0.14040300  1
  O  O65  1  0.93900200  0.05217700  0.10959700  1
  O  O66  1  0.30217700  0.68900200  0.64040300  1
  O  O67  1  0.44782300  0.89040300  0.43900200  1
  O  O68  1  0.07492200  0.75256300  0.66882200  1
  O  O69  1  0.35959700  0.80217700  0.81099800  1
  O  O70  1  0.82492200  0.08117800  0.00256300  1
  O  O71  1  0.34197100  0.85628700  0.32252600  1
  O  O72  1  0.60628700  0.40802900  0.57252600  1
  O  O73  1  0.58117800  0.49743700  0.17507800  1
  O  O74  1  0.39040300  0.06099800  0.55217700  1
  O  O75  1  0.64371300  0.67747400  0.84197100  1
  O  O76  1  0.12500000  0.55278400  0.69721600  1
  O  O77  1  0.39371300  0.90802900  0.92747400  1
  O  O78  1  0.42507800  0.24743700  0.16882200  1
  O  O79  1  0.41882200  0.99743700  0.32492200  1
  O  O80  1  0.65690600  0.99254800  0.15310100  1
  O  O81  1  0.10959700  0.93900200  0.05217700  1
  O  O82  1  0.90802900  0.92747400  0.39371300  1
  O  O83  1  0.75745200  0.90690600  0.90310100  1
  O  O84  1  0.57492200  0.74743700  0.33117800  1
  O  O85  1  0.99743700  0.32492200  0.41882200  1
  O  O86  1  0.32492200  0.41882200  0.99743700  1
  O  O87  1  0.90310100  0.75745200  0.90690600  1
  O  O88  1  0.67747400  0.84197100  0.64371300  1
  O  O89  1  0.42747400  0.10628700  0.09197100  1
  O  O90  1  0.00745200  0.65310100  0.84309400  1
  O  O91  1  0.00256300  0.82492200  0.08117800  1
  O  O92  1  0.67507800  0.91882200  0.50256300  1
  O  O93  1  0.16882200  0.42507800  0.24743700  1
  O  O94  1  0.34309400  0.49254800  0.34689900  1
  O  O95  1  0.65310100  0.84309400  0.00745200  1
  O  O96  1  0.24743700  0.16882200  0.42507800  1
  O  O97  1  0.37500000  0.44721600  0.19721600  1
  O  O98  1  0.18900200  0.85959700  0.69782300  1
  O  O99  1  0.87500000  0.05278400  0.80278400  1
  O  O100  1  0.55217700  0.39040300  0.06099800  1
  O  O101  1  0.89040300  0.43900200  0.44782300  1
  O  O102  1  0.43900200  0.44782300  0.89040300  1
  O  O103  1  0.09309400  0.40310100  0.74254800  1
  O  O104  1  0.69721600  0.12500000  0.55278400  1
  O  O105  1  0.74743700  0.33117800  0.57492200  1
  O  O106  1  0.35628700  0.17747400  0.65802900  1
  O  O107  1  0.85959700  0.69782300  0.18900200  1
loop_
_geom_bond_atom_site_label_1
_geom_bond_atom_site_label_2
_geom_bond_distance
_geom_bond_site_symmetry_2
K0 O82 2.833928 1_555
K0 O19 2.833928 1_555
K0 O16 2.946762 1_555
K0 O8 2.946762 1_555
K0 O88 2.960654 1_555
K0 O59 2.960654 1_655
K0 O18 2.991960 1_565
K0 O46 2.991960 1_555
K0 O68 3.213261 1_655
K0 O92 3.213261 1_555
K1 O48 2.833928 1_555
K1 O72 2.833928 1_555
K1 O102 2.946762 1_555
K1 O49 2.946762 1_555
K1 O4 2.960654 1_555
K1 O106 2.960654 1_555
K1 O42 2.991960 1_555
K1 O52 2.991960 1_555
K1 O11 3.213261 1_555
K1 O32 3.213261 1_555
K2 O71 2.833928 1_555
K2 O4 2.833928 1_555
K2 O67 2.946762 1_555
K2 O66 2.946762 1_555
K2 O34 2.960654 1_555
K2 O12 2.960654 1_555
K2 O47 2.991960 1_555
K2 O94 2.991960 1_555
K2 O84 3.213261 1_555
K2 O15 3.213261 1_555
K3 O89 2.833928 1_565
K3 O55 2.833928 1_555
K3 O81 2.946762 1_555
K3 O9 2.946762 1_565
K3 O71 2.960654 1_555
K3 O77 2.960654 1_554
K3 O61 2.991960 1_555
K3 O30 2.991960 1_555
K3 O79 3.213261 1_555
K3 O63 3.213261 1_554
K4 O77 2.833928 1_555
K4 O88 2.833928 1_555
K4 O69 2.946762 1_555
K4 O26 2.946762 1_555
K4 O75 2.960654 1_555
K4 O58 2.960654 1_565
K4 O95 2.991960 1_556
K4 O83 2.991960 1_555
K4 O62 3.213261 1_565
K4 O0 3.213261 1_555
K5 O59 2.833928 1_545
K5 O106 2.833928 1_555
K5 O98 2.946762 1_545
K5 O74 2.946762 1_555
K5 O21 2.960654 1_555
K5 O36 2.960654 1_555
K5 O1 2.991960 1_455
K5 O45 2.991960 1_555
K5 O53 3.213261 1_555
K5 O96 3.213261 1_555
K6 O31 2.833928 1_455
K6 O12 2.833928 1_555
K6 O107 2.946762 1_455
K6 O10 2.946762 1_555
K6 O55 2.960654 1_555
K6 O5 2.960654 1_555
K6 O54 2.991960 1_554
K6 O37 2.991960 1_555
K6 O91 3.213261 1_555
K6 O93 3.213261 1_555
K7 O5 2.833928 1_556
K7 O21 2.833928 1_555
K7 O14 2.946762 1_555
K7 O64 2.946762 1_556
K7 O48 2.960654 1_555
K7 O29 2.960654 1_455
K7 O103 2.991960 1_555
K7 O57 2.991960 1_555
K7 O86 3.213261 1_555
K7 O44 3.213261 1_455
K8 O56 2.833928 1_555
K8 O34 2.833928 1_555
K8 O101 2.946762 1_555
K8 O24 2.946762 1_555
K8 O72 2.960654 1_555
K8 O60 2.960654 1_555
K8 O7 2.991960 1_555
K8 O17 2.991960 1_555
K8 O105 3.213261 1_555
K8 O73 3.213261 1_555
K9 O58 2.833928 1_554
K9 O60 2.833928 1_555
K9 O40 2.946762 1_554
K9 O100 2.946762 1_555
K9 O23 2.960654 1_555
K9 O89 2.960654 1_555
K9 O80 2.991960 1_545
K9 O39 2.991960 1_555
K9 O70 3.213261 1_555
K9 O78 3.213261 1_555
K10 O29 2.833928 1_555
K10 O75 2.833928 1_555
K10 O13 2.946762 1_555
K10 O25 2.946762 1_555
K10 O19 2.960654 1_555
K10 O31 2.960654 1_556
K10 O90 2.991960 1_655
K10 O87 2.991960 1_555
K10 O50 3.213261 1_556
K10 O38 3.213261 1_555
K11 O36 2.833928 1_655
K11 O23 2.833928 1_555
K11 O65 2.946762 1_555
K11 O3 2.946762 1_655
K11 O56 2.960654 1_555
K11 O82 2.960654 1_545
K11 O35 2.991960 1_555
K11 O6 2.991960 1_555
K11 O85 3.213261 1_555
K11 O27 3.213261 1_545
Nd0 O85 2.587827 1_455
Nd0 O15 2.587827 1_555
Nd0 O38 2.587827 1_455
Nd0 O10 2.604435 1_555
Nd0 O101 2.604435 1_455
Nd0 O8 2.604435 1_455
Nd0 O2 2.666832 1_555
Nd0 O41 2.666832 1_455
Nd0 O76 2.666832 1_555
Nd0 O52 2.778467 1_555
Nd0 O45 2.778467 1_555
Nd0 O103 2.778467 1_555
Nd1 O79 2.587827 1_545
Nd1 O32 2.587827 1_555
Nd1 O92 2.587827 1_545
Nd1 O74 2.604435 1_555
Nd1 O67 2.604435 1_545
Nd1 O26 2.604435 1_545
Nd1 O33 2.666832 1_555
Nd1 O51 2.666832 1_545
Nd1 O104 2.666832 1_555
Nd1 O7 2.778467 1_555
Nd1 O39 2.778467 1_555
Nd1 O35 2.778467 1_555
Nd2 O86 2.587827 1_554
Nd2 O73 2.587827 1_555
Nd2 O0 2.587827 1_554
Nd2 O100 2.604435 1_555
Nd2 O102 2.604435 1_554
Nd2 O25 2.604435 1_554
Nd2 O97 2.666832 1_555
Nd2 O22 2.666832 1_554
Nd2 O43 2.666832 1_555
Nd2 O47 2.778467 1_555
Nd2 O37 2.778467 1_555
Nd2 O61 2.778467 1_555
Nd3 O93 2.587827 1_555
Nd3 O78 2.587827 1_555
Nd3 O96 2.587827 1_555
Nd3 O3 2.604435 1_555
Nd3 O9 2.604435 1_555
Nd3 O64 2.604435 1_555
Nd3 O2 2.666832 1_555
Nd3 O33 2.666832 1_555
Nd3 O97 2.666832 1_555
Nd3 O42 2.778467 1_555
Nd3 O17 2.778467 1_555
Nd3 O94 2.778467 1_555
Nd4 O53 2.587827 1_665
Nd4 O70 2.587827 1_566
Nd4 O91 2.587827 1_656
Nd4 O81 2.604435 1_656
Nd4 O14 2.604435 1_665
Nd4 O65 2.604435 1_566
Nd4 O28 2.666832 1_556
Nd4 O99 2.666832 1_565
Nd4 O20 2.666832 1_655
Nd4 O83 2.778467 1_555
Nd4 O87 2.778467 1_555
Nd4 O46 2.778467 1_555
Nd5 O62 2.587827 1_555
Nd5 O105 2.587827 1_555
Nd5 O44 2.587827 1_555
Nd5 O40 2.604435 1_555
Nd5 O49 2.604435 1_555
Nd5 O13 2.604435 1_555
Nd5 O99 2.666832 1_555
Nd5 O104 2.666832 1_555
Nd5 O41 2.666832 1_555
Nd5 O6 2.778467 1_555
Nd5 O1 2.778467 1_555
Nd5 O18 2.778467 1_555
Nd6 O68 2.587827 1_555
Nd6 O11 2.587827 1_555
Nd6 O63 2.587827 1_555
Nd6 O98 2.604435 1_555
Nd6 O66 2.604435 1_555
Nd6 O69 2.604435 1_555
Nd6 O20 2.666832 1_555
Nd6 O76 2.666832 1_555
Nd6 O22 2.666832 1_555
Nd6 O57 2.778467 1_555
Nd6 O54 2.778467 1_555
Nd6 O90 2.778467 1_555
Nd7 O50 2.587827 1_555
Nd7 O84 2.587827 1_555
Nd7 O27 2.587827 1_555
Nd7 O107 2.604435 1_555
Nd7 O24 2.604435 1_555
Nd7 O16 2.604435 1_555
Nd7 O28 2.666832 1_555
Nd7 O43 2.666832 1_555
Nd7 O51 2.666832 1_555
Nd7 O30 2.778467 1_555
Nd7 O80 2.778467 1_555
Nd7 O95 2.778467 1_555
N0 O21 1.246986 1_555
N0 O53 1.278316 1_555
N0 O14 1.281987 1_555
N1 O71 1.246986 1_555
N1 O79 1.278316 1_555
N1 O67 1.281987 1_555
N2 O19 1.246986 1_555
N2 O38 1.278316 1_555
N2 O8 1.281987 1_555
N3 O106 1.246986 1_555
N3 O32 1.278316 1_555
N3 O74 1.281987 1_555
N4 O61 1.254262 1_555
N4 O30 1.254262 1_555
N4 O43 1.291891 1_555
N5 O18 1.254262 1_565
N5 O46 1.254262 1_555
N5 O99 1.291891 1_565
N6 O59 1.246986 1_555
N6 O68 1.278316 1_555
N6 O98 1.281987 1_555
N7 O89 1.246986 1_555
N7 O78 1.278316 1_555
N7 O9 1.281987 1_555
N8 O58 1.246986 1_555
N8 O62 1.278316 1_555
N8 O40 1.281987 1_555
N9 O36 1.246986 1_555
N9 O96 1.278316 1_555
N9 O3 1.281987 1_555
N10 O34 1.246986 1_555
N10 O84 1.278316 1_555
N10 O24 1.281987 1_555
N11 O31 1.246986 1_555
N11 O50 1.278316 1_555
N11 O107 1.281987 1_555
N12 O95 1.254262 1_556
N12 O83 1.254262 1_555
N12 O28 1.291891 1_556
N13 O55 1.246986 1_555
N13 O91 1.278316 1_555
N13 O81 1.281987 1_555
N14 O47 1.254262 1_555
N14 O94 1.254262 1_555
N14 O97 1.291891 1_555
N15 O90 1.254262 1_655
N15 O87 1.254262 1_555
N15 O20 1.291891 1_655
N16 O52 1.254262 1_555
N16 O42 1.254262 1_555
N16 O2 1.291891 1_555
N17 O48 1.246986 1_555
N17 O86 1.278316 1_555
N17 O102 1.281987 1_555
N18 O56 1.246986 1_555
N18 O85 1.278316 1_555
N18 O101 1.281987 1_555
N19 O29 1.246986 1_555
N19 O44 1.278316 1_555
N19 O13 1.281987 1_555
N20 O54 1.254262 1_554
N20 O37 1.254262 1_555
N20 O22 1.291891 1_554
N21 O35 1.254262 1_555
N21 O6 1.254262 1_555
N21 O104 1.291891 1_555
N22 O60 1.246986 1_555
N22 O73 1.278316 1_555
N22 O100 1.281987 1_555
N23 O80 1.254262 1_545
N23 O39 1.254262 1_555
N23 O51 1.291891 1_545
N24 O7 1.254262 1_555
N24 O17 1.254262 1_555
N24 O33 1.291891 1_555
N25 O23 1.246986 1_555
N25 O70 1.278316 1_555
N25 O65 1.281987 1_555
N26 O1 1.254262 1_455
N26 O45 1.254262 1_555
N26 O41 1.291891 1_455
N27 O103 1.254262 1_555
N27 O57 1.254262 1_555
N27 O76 1.291891 1_555
N28 O12 1.246986 1_555
N28 O15 1.278316 1_555
N28 O10 1.281987 1_555
N29 O77 1.246986 1_555
N29 O63 1.278316 1_555
N29 O69 1.281987 1_555
N30 O88 1.246986 1_555
N30 O92 1.278316 1_555
N30 O26 1.281987 1_555
N31 O82 1.246986 1_555
N31 O27 1.278316 1_555
N31 O16 1.281987 1_555
N32 O72 1.246986 1_555
N32 O105 1.278316 1_555
N32 O49 1.281987 1_555
N33 O4 1.246986 1_555
N33 O11 1.278316 1_555
N33 O66 1.281987 1_555
N34 O5 1.246986 1_555
N34 O93 1.278316 1_555
N34 O64 1.281987 1_555
N35 O75 1.246986 1_555
N35 O0 1.278316 1_555
N35 O25 1.281987 1_555
