# generated using pymatgen
data_Ca3NdF9
_symmetry_space_group_name_H-M   'P 1'
_cell_length_a   3.91903000
_cell_length_b   3.93033806
_cell_length_c   26.89399297
_cell_angle_alpha   86.09246932
_cell_angle_beta   86.04683974
_cell_angle_gamma   60.30392809
_symmetry_Int_Tables_number   1
_chemical_formula_structural   Ca3NdF9
_chemical_formula_sum   'Ca6 Nd2 F18'
_cell_volume   358.71326783
_cell_formula_units_Z   2
loop_
 _symmetry_equiv_pos_site_id
 _symmetry_equiv_pos_as_xyz
  1  'x, y, z'
loop_
 _atom_site_type_symbol
 _atom_site_label
 _atom_site_symmetry_multiplicity
 _atom_site_fract_x
 _atom_site_fract_y
 _atom_site_fract_z
 _atom_site_occupancy
  Ca  Ca0  1  0.97237000  0.96328700  0.01578800  1
  Ca  Ca1  1  0.60929400  0.57175900  0.13895100  1
  Ca  Ca2  1  0.24686400  0.21392600  0.25677800  1
  Ca  Ca3  1  0.87367400  0.86527000  0.37685600  1
  Ca  Ca4  1  0.50388000  0.51330500  0.49690900  1
  Ca  Ca5  1  0.32817900  0.38081700  0.89192700  1
  Nd  Nd0  1  0.13277500  0.14896800  0.62629400  1
  Nd  Nd1  1  0.70861900  0.77026400  0.76882500  1
  F  F0  1  0.95216400  0.91657500  0.10884100  1
  F  F1  1  0.27060900  0.23016600  0.16934800  1
  F  F2  1  0.58974600  0.55195400  0.22600100  1
  F  F3  1  0.54958400  0.53973600  0.34761600  1
  F  F4  1  0.90264700  0.87798000  0.28562000  1
  F  F5  1  0.16011600  0.17303200  0.52996200  1
  F  F6  1  0.19705400  0.19252300  0.40530000  1
  F  F7  1  0.84580400  0.85140100  0.46770500  1
  F  F8  1  0.79865000  0.81424200  0.62756500  1
  F  F9  1  0.47979100  0.49401800  0.58031400  1
  F  F10  1  0.37227500  0.43227500  0.77952000  1
  F  F11  1  0.45265100  0.46320700  0.67272500  1
  F  F12  1  0.98855400  0.02552800  0.92322100  1
  F  F13  1  0.08735400  0.11486500  0.72058100  1
  F  F14  1  0.02420600  0.08639300  0.81353600  1
  F  F15  1  0.67331200  0.72869700  0.86089500  1
  F  F16  1  0.64535900  0.64267000  0.98599600  1
  F  F17  1  0.29796800  0.28463900  0.04442600  1
loop_
_geom_bond_atom_site_label_1
_geom_bond_atom_site_label_2
_geom_bond_distance
_geom_bond_site_symmetry_2
Ca0 F17 2.383606 1_665
Ca0 F17 2.391303 1_565
Ca0 F16 2.395700 1_654
Ca0 F16 2.398246 1_554
Ca0 F17 2.412318 1_655
Ca0 F16 2.423593 1_564
Ca0 F12 2.484362 1_564
Ca0 F0 2.495451 1_555
Ca1 F2 2.334336 1_555
Ca1 F1 2.387259 1_555
Ca1 F0 2.407954 1_545
Ca1 F0 2.408881 1_555
Ca1 F0 2.409267 1_455
Ca1 F1 2.421182 1_565
Ca1 F1 2.425444 1_655
Ca2 F1 2.344526 1_555
Ca2 F4 2.376091 1_445
Ca2 F2 2.391969 1_555
Ca2 F4 2.392328 1_545
Ca2 F2 2.415843 1_455
Ca2 F4 2.424162 1_455
Ca2 F2 2.436431 1_545
Ca3 F6 2.391767 1_655
Ca3 F6 2.393431 1_665
Ca3 F6 2.397115 1_565
Ca3 F3 2.398659 1_555
Ca3 F3 2.400848 1_655
Ca3 F3 2.403416 1_565
Ca3 F7 2.436294 1_555
Ca3 F4 2.446739 1_555
Ca4 F9 2.236257 1_555
Ca4 F7 2.378065 1_555
Ca4 F7 2.403228 1_455
Ca4 F5 2.419055 1_555
Ca4 F7 2.420689 1_545
Ca4 F5 2.436869 1_655
Ca4 F5 2.452851 1_565
Ca5 F12 2.386477 1_465
Ca5 F15 2.407547 1_545
Ca5 F15 2.411565 1_455
Ca5 F12 2.432208 1_555
Ca5 F15 2.432419 1_555
Ca5 F12 2.440639 1_455
F5 Nd0 2.582788 1_555
F8 Nd0 2.267404 1_665
F8 Nd0 2.268588 1_565
F8 Nd0 2.272968 1_655
F9 Nd0 2.566077 1_555
F9 Nd0 2.585792 1_655
F9 Nd0 2.595847 1_565
F10 Nd1 2.283742 1_555
F10 Nd1 2.289070 1_455
F10 Nd1 2.289504 1_545
F11 Nd0 2.572211 1_555
F11 Nd0 2.584331 1_655
F11 Nd0 2.608586 1_565
F13 Nd1 2.524807 1_545
F13 Nd0 2.528790 1_555
F13 Nd1 2.631300 1_455
F13 Nd1 2.684709 1_445
F14 Nd1 2.539805 1_445
F14 Nd1 2.577015 1_545
F14 Nd1 2.582810 1_455
F15 Nd1 2.469226 1_555
