# generated using pymatgen
data_SrCuH4(CO2)4
_symmetry_space_group_name_H-M   'P 1'
_cell_length_a   8.96403400
_cell_length_b   7.32883000
_cell_length_c   7.40385088
_cell_angle_alpha   87.33660625
_cell_angle_beta   90.00000000
_cell_angle_gamma   90.00000000
_symmetry_Int_Tables_number   1
_chemical_formula_structural   SrCuH4(CO2)4
_chemical_formula_sum   'Sr2 Cu2 H8 C8 O16'
_cell_volume   485.87708080
_cell_formula_units_Z   2
loop_
 _symmetry_equiv_pos_site_id
 _symmetry_equiv_pos_as_xyz
  1  'x, y, z'
loop_
 _atom_site_type_symbol
 _atom_site_label
 _atom_site_symmetry_multiplicity
 _atom_site_fract_x
 _atom_site_fract_y
 _atom_site_fract_z
 _atom_site_occupancy
  Sr  Sr0  1  0.17722900  0.00000000  0.25000000  1
  Sr  Sr1  1  0.82277100  0.00000000  0.75000000  1
  Cu  Cu0  1  0.61175600  0.50000000  0.75000000  1
  Cu  Cu1  1  0.38824400  0.50000000  0.25000000  1
  H  H0  1  0.85029900  0.60897100  0.48334300  1
  H  H1  1  0.41810000  0.27790600  0.62117700  1
  H  H2  1  0.85029900  0.39102900  0.01665700  1
  H  H3  1  0.14970100  0.60897100  0.98334300  1
  H  H4  1  0.58190000  0.72209400  0.37882300  1
  H  H5  1  0.14970100  0.39102900  0.51665700  1
  H  H6  1  0.41810000  0.72209400  0.87882300  1
  H  H7  1  0.58190000  0.27790600  0.12117700  1
  C  C0  1  0.45488100  0.69114700  0.74131800  1
  C  C1  1  0.45488100  0.30885300  0.75868200  1
  C  C2  1  0.63004800  0.79425500  0.10707900  1
  C  C3  1  0.36995200  0.79425500  0.60707900  1
  C  C4  1  0.63004800  0.20574500  0.39292100  1
  C  C5  1  0.54511900  0.30885300  0.25868200  1
  C  C6  1  0.36995200  0.20574500  0.89292100  1
  C  C7  1  0.54511900  0.69114700  0.24131800  1
  O  O0  1  0.89243800  0.67990100  0.58099300  1
  O  O1  1  0.10756200  0.67990100  0.08099300  1
  O  O2  1  0.89243800  0.32009900  0.91900700  1
  O  O3  1  0.34503100  0.06395500  0.98220800  1
  O  O4  1  0.65496900  0.93604500  0.01779200  1
  O  O5  1  0.70145200  0.63764300  0.12481600  1
  O  O6  1  0.24305800  0.69485700  0.20206300  1
  O  O7  1  0.10756200  0.32009900  0.41900700  1
  O  O8  1  0.65496900  0.06395500  0.48220800  1
  O  O9  1  0.34503100  0.93604500  0.51779200  1
  O  O10  1  0.70145200  0.36235700  0.37518400  1
  O  O11  1  0.75694200  0.69485700  0.70206300  1
  O  O12  1  0.29854800  0.63764300  0.62481600  1
  O  O13  1  0.75694200  0.30514300  0.79793700  1
  O  O14  1  0.29854800  0.36235700  0.87518400  1
  O  O15  1  0.24305800  0.30514300  0.29793700  1
loop_
_geom_bond_atom_site_label_1
_geom_bond_atom_site_label_2
_geom_bond_distance
_geom_bond_site_symmetry_2
Cu0 O11 1.952443 1_555
Cu0 O13 1.952443 1_555
Cu1 O6 1.952443 1_555
Cu1 O15 1.952443 1_555
H0 O0 0.985164 1_555
H2 O2 0.985164 1_554
H3 O1 0.985164 1_556
H5 O7 0.985164 1_555
C0 H6 1.103660 1_555
C0 C3 1.438270 1_555
C0 O12 1.700899 1_555
C0 Cu0 1.983867 1_555
C1 H1 1.103660 1_555
C1 C6 1.438270 1_555
C1 O14 1.700899 1_555
C1 Cu0 1.983867 1_555
C2 O4 1.225934 1_555
C2 O5 1.315420 1_555
C2 C7 1.438270 1_555
C3 O9 1.225934 1_555
C3 O12 1.315420 1_555
C4 O8 1.225934 1_555
C4 O10 1.315420 1_555
C4 C5 1.438270 1_555
C5 H7 1.103660 1_555
C5 O10 1.700899 1_555
C5 Cu1 1.983867 1_555
C6 O3 1.225934 1_555
C6 O14 1.315420 1_555
C7 H4 1.103660 1_555
C7 O5 1.700899 1_555
C7 Cu1 1.983867 1_555
O0 O11 1.516536 1_555
O0 Sr1 2.780658 1_565
O1 O6 1.516536 1_555
O1 Sr0 2.780658 1_565
O2 Sr1 2.780658 1_555
O3 Sr0 2.515345 1_556
O4 Sr1 2.515345 1_564
O6 Sr0 2.355666 1_565
O7 Sr0 2.780658 1_555
O8 Sr1 2.515345 1_555
O9 Sr0 2.515345 1_565
O11 Sr1 2.355666 1_565
O13 O2 1.516536 1_555
O13 Sr1 2.355666 1_555
O15 O7 1.516536 1_555
O15 Sr0 2.355666 1_555
