# generated using pymatgen
data_Ca9LaTi10O30
_symmetry_space_group_name_H-M   'P 1'
_cell_length_a   7.74827300
_cell_length_b   9.43014634
_cell_length_c   17.31093194
_cell_angle_alpha   89.93098922
_cell_angle_beta   90.80077340
_cell_angle_gamma   113.83626763
_symmetry_Int_Tables_number   1
_chemical_formula_structural   Ca9LaTi10O30
_chemical_formula_sum   'Ca18 La2 Ti20 O60'
_cell_volume   1156.84947068
_cell_formula_units_Z   2
loop_
 _symmetry_equiv_pos_site_id
 _symmetry_equiv_pos_as_xyz
  1  'x, y, z'
loop_
 _atom_site_type_symbol
 _atom_site_label
 _atom_site_symmetry_multiplicity
 _atom_site_fract_x
 _atom_site_fract_y
 _atom_site_fract_z
 _atom_site_occupancy
  Ca  Ca0  1  0.68211200  0.39016100  0.86048400  1
  Ca  Ca1  1  0.42923800  0.80582600  0.94327000  1
  Ca  Ca2  1  0.17087500  0.39410500  0.85523200  1
  Ca  Ca3  1  0.28008400  0.58937400  0.66195100  1
  Ca  Ca4  1  0.91913700  0.81028700  0.93931100  1
  Ca  Ca5  1  0.02943500  0.00462900  0.74326000  1
  Ca  Ca6  1  0.77169200  0.59539600  0.65564700  1
  Ca  Ca7  1  0.88037400  0.79041700  0.46018900  1
  Ca  Ca8  1  0.51882900  0.01151800  0.73892200  1
  Ca  Ca9  1  0.62818600  0.20498600  0.54495100  1
  Ca  Ca10  1  0.37111200  0.79481500  0.45547600  1
  Ca  Ca11  1  0.47975000  0.98782500  0.25979100  1
  Ca  Ca12  1  0.23094400  0.40656500  0.34526500  1
  Ca  Ca13  1  0.96856500  0.99420600  0.25535600  1
  Ca  Ca14  1  0.08048400  0.18892000  0.06092500  1
  Ca  Ca15  1  0.72045800  0.41108500  0.33941900  1
  Ca  Ca16  1  0.82997500  0.60581700  0.14524000  1
  Ca  Ca17  1  0.31861800  0.60992900  0.13946300  1
  La  La0  1  0.11503100  0.20687600  0.54288800  1
  La  La1  1  0.57874100  0.19488400  0.05502100  1
  Ti  Ti0  1  0.80164800  0.09792200  0.89927900  1
  Ti  Ti1  1  0.29744400  0.09842000  0.89812900  1
  Ti  Ti2  1  0.40405900  0.30359600  0.70151500  1
  Ti  Ti3  1  0.60074000  0.70136300  0.80031400  1
  Ti  Ti4  1  0.89893100  0.30174000  0.70173200  1
  Ti  Ti5  1  0.09984900  0.69988900  0.80019100  1
  Ti  Ti6  1  0.99774200  0.50158400  0.49882700  1
  Ti  Ti7  1  0.20048900  0.89487100  0.60036800  1
  Ti  Ti8  1  0.69710600  0.89732100  0.60080300  1
  Ti  Ti9  1  0.50320100  0.50286600  0.49927200  1
  Ti  Ti10  1  0.60009800  0.70047700  0.30002400  1
  Ti  Ti11  1  0.79657900  0.09885100  0.39811800  1
  Ti  Ti12  1  0.10067400  0.70122000  0.30010300  1
  Ti  Ti13  1  0.30067700  0.09848700  0.39866200  1
  Ti  Ti14  1  0.19627600  0.89729700  0.10041500  1
  Ti  Ti15  1  0.39820900  0.30188600  0.20153900  1
  Ti  Ti16  1  0.69892500  0.89495800  0.10033500  1
  Ti  Ti17  1  0.90395000  0.30357900  0.20154500  1
  Ti  Ti18  1  0.00315000  0.50226300  0.99936500  1
  Ti  Ti19  1  0.49832000  0.50169600  0.99873000  1
  O  O0  1  0.55986500  0.12106800  0.91978200  1
  O  O1  1  0.37991400  0.32022600  0.93065200  1
  O  O2  1  0.60076300  0.63743900  0.90931600  1
  O  O3  1  0.76462600  0.96617600  0.99152300  1
  O  O4  1  0.27383300  0.55003100  0.99539300  1
  O  O5  1  0.93861600  0.28621600  0.96371200  1
  O  O6  1  0.65592800  0.91283000  0.83695000  1
  O  O7  1  0.32633700  0.65080700  0.80478100  1
  O  O8  1  0.16136100  0.32180400  0.72067900  1
  O  O9  1  0.99978500  0.56429200  0.89083500  1
  O  O10  1  0.83559300  0.23650700  0.80860500  1
  O  O11  1  0.21924000  0.87978100  0.87031300  1
  O  O12  1  0.97853400  0.52017600  0.73015700  1
  O  O13  1  0.36438100  0.16445900  0.79146700  1
  O  O14  1  0.20153000  0.83359500  0.70918400  1
  O  O15  1  0.87382400  0.74888200  0.79557700  1
  O  O16  1  0.03744300  0.07780900  0.87695800  1
  O  O17  1  0.54522100  0.48754600  0.76263900  1
  O  O18  1  0.26021700  0.11074300  0.63909200  1
  O  O19  1  0.92782400  0.85398000  0.60410500  1
  O  O20  1  0.76261600  0.52510600  0.52222200  1
  O  O21  1  0.43208900  0.43369600  0.60842300  1
  O  O22  1  0.59890400  0.76428600  0.69073700  1
  O  O23  1  0.82533800  0.08185500  0.66771500  1
  O  O24  1  0.57884700  0.71975400  0.52963100  1
  O  O25  1  0.79514800  0.03285700  0.50785800  1
  O  O26  1  0.96228600  0.36746600  0.59149200  1
  O  O27  1  0.47404200  0.94801700  0.59579800  1
  O  O28  1  0.63871000  0.27787400  0.67843900  1
  O  O29  1  0.14606100  0.68810600  0.56247000  1
  O  O30  1  0.85668900  0.31229300  0.43837500  1
  O  O31  1  0.52457900  0.05004900  0.40332500  1
  O  O32  1  0.36173500  0.72217700  0.32264600  1
  O  O33  1  0.03461600  0.63709500  0.40875800  1
  O  O34  1  0.19854300  0.96666000  0.49128300  1
  O  O35  1  0.42120600  0.27949100  0.47056900  1
  O  O36  1  0.17916500  0.92082800  0.32916500  1
  O  O37  1  0.40225500  0.23639600  0.30945600  1
  O  O38  1  0.56605800  0.56387200  0.39134500  1
  O  O39  1  0.07332600  0.14898900  0.39607200  1
  O  O40  1  0.23739000  0.47668000  0.47809800  1
  O  O41  1  0.74429900  0.88790200  0.36188000  1
  O  O42  1  0.45490800  0.51191800  0.23777300  1
  O  O43  1  0.12712200  0.25138400  0.20548200  1
  O  O44  1  0.96147300  0.91985000  0.12265900  1
  O  O45  1  0.79766900  0.16480500  0.29098300  1
  O  O46  1  0.63352000  0.83423500  0.20868600  1
  O  O47  1  0.02138700  0.47911400  0.27072600  1
  O  O48  1  0.78258100  0.11799200  0.13177600  1
  O  O49  1  0.99804800  0.43331100  0.10870200  1
  O  O50  1  0.16589500  0.76269100  0.19131000  1
  O  O51  1  0.83863300  0.67751400  0.27793300  1
  O  O52  1  0.67400000  0.34764700  0.19435100  1
  O  O53  1  0.34479300  0.08734400  0.16237600  1
  O  O54  1  0.05575900  0.71226400  0.03774300  1
  O  O55  1  0.72710800  0.45535000  0.00307000  1
  O  O56  1  0.39983500  0.36443100  0.09073000  1
  O  O57  1  0.23575500  0.03639700  0.00873300  1
  O  O58  1  0.62056400  0.67949000  0.07071600  1
  O  O59  1  0.44050600  0.88054000  0.07744800  1
loop_
_geom_bond_atom_site_label_1
_geom_bond_atom_site_label_2
_geom_bond_distance
_geom_bond_site_symmetry_2
Ca0 O17 2.360220 1_555
Ca0 O9 2.393777 1_555
Ca0 O10 2.397086 1_555
Ca0 O1 2.494495 1_555
Ca0 O55 2.529490 1_556
Ca0 O0 2.543312 1_555
Ca0 O13 2.776171 1_555
Ca0 O2 2.785156 1_555
Ca1 O11 2.363591 1_555
Ca1 O4 2.400041 1_555
Ca1 O59 2.418210 1_556
Ca1 O6 2.478739 1_555
Ca1 O2 2.522507 1_555
Ca1 O3 2.550238 1_555
Ca1 O7 2.744645 1_555
Ca1 O0 2.757506 1_565
Ca2 O1 2.379935 1_555
Ca2 O7 2.396081 1_555
Ca2 O8 2.419514 1_555
Ca2 O5 2.531833 1_455
Ca2 O10 2.536299 1_455
Ca2 O9 2.541193 1_455
Ca2 O16 2.760920 1_555
Ca2 O4 2.773430 1_555
Ca3 O29 2.374554 1_555
Ca3 O22 2.397008 1_555
Ca3 O21 2.415013 1_555
Ca3 O12 2.474273 1_455
Ca3 O7 2.527505 1_555
Ca3 O8 2.527914 1_555
Ca3 O14 2.737594 1_555
Ca3 O26 2.772640 1_455
Ca4 O54 2.369639 1_656
Ca4 O2 2.393351 1_555
Ca4 O3 2.422226 1_555
Ca4 O11 2.471261 1_655
Ca4 O15 2.542498 1_555
Ca4 O16 2.553766 1_665
Ca4 O9 2.768930 1_555
Ca4 O57 2.775787 1_666
Ca5 O23 2.368992 1_455
Ca5 O15 2.401124 1_445
Ca5 O16 2.408719 1_555
Ca5 O18 2.467811 1_555
Ca5 O13 2.546446 1_555
Ca5 O14 2.547538 1_545
Ca5 O19 2.737172 1_445
Ca5 O8 2.771466 1_555
Ca6 O12 2.365215 1_555
Ca6 O20 2.395944 1_555
Ca6 O19 2.417939 1_555
Ca6 O17 2.487528 1_555
Ca6 O22 2.538978 1_555
Ca6 O21 2.572404 1_555
Ca6 O15 2.760057 1_555
Ca6 O28 2.774515 1_555
Ca7 O41 2.362716 1_555
Ca7 O33 2.396014 1_655
Ca7 O34 2.404774 1_655
Ca7 O24 2.483087 1_555
Ca7 O20 2.533992 1_555
Ca7 O19 2.549709 1_555
Ca7 O25 2.753896 1_565
Ca7 O38 2.763198 1_555
Ca8 O6 2.370452 1_545
Ca8 O14 2.399407 1_545
Ca8 O13 2.401702 1_555
Ca8 O28 2.530450 1_555
Ca8 O23 2.531064 1_555
Ca8 O27 2.535577 1_545
Ca8 O10 2.774008 1_555
Ca8 O22 2.775716 1_545
Ca9 O35 2.361016 1_555
Ca9 O27 2.399668 1_545
Ca9 O28 2.402531 1_555
Ca9 O30 2.490215 1_555
Ca9 O26 2.537113 1_555
Ca9 O25 2.538430 1_555
Ca9 O31 2.792048 1_555
Ca9 O20 2.796414 1_555
Ca10 O24 2.366555 1_555
Ca10 O32 2.391794 1_555
Ca10 O31 2.394504 1_565
Ca10 O29 2.480192 1_555
Ca10 O33 2.544346 1_555
Ca10 O34 2.564195 1_555
Ca10 O27 2.765293 1_555
Ca10 O40 2.779100 1_555
Ca11 O53 2.357547 1_565
Ca11 O46 2.393182 1_555
Ca11 O45 2.405631 1_565
Ca11 O36 2.480474 1_555
Ca11 O31 2.540352 1_565
Ca11 O32 2.542712 1_555
Ca11 O50 2.753009 1_555
Ca11 O37 2.784102 1_565
Ca12 O47 2.367828 1_555
Ca12 O40 2.387669 1_555
Ca12 O39 2.406708 1_555
Ca12 O42 2.480583 1_555
Ca12 O38 2.531937 1_555
Ca12 O37 2.543281 1_555
Ca12 O32 2.758432 1_555
Ca12 O43 2.765241 1_555
Ca13 O36 2.371979 1_655
Ca13 O44 2.395955 1_555
Ca13 O43 2.398514 1_665
Ca13 O41 2.470237 1_555
Ca13 O46 2.539050 1_555
Ca13 O45 2.543399 1_565
Ca13 O51 2.768264 1_555
Ca13 O39 2.778274 1_665
Ca14 O5 2.375261 1_454
Ca14 O57 2.400951 1_555
Ca14 O56 2.405112 1_555
Ca14 O48 2.471623 1_455
Ca14 O43 2.558491 1_555
Ca14 O44 2.561350 1_445
Ca14 O49 2.759084 1_455
Ca14 O3 2.759350 1_444
Ca15 O30 2.378442 1_555
Ca15 O38 2.396136 1_555
Ca15 O37 2.396903 1_555
Ca15 O47 2.475682 1_655
Ca15 O51 2.538738 1_555
Ca15 O52 2.568695 1_555
Ca15 O45 2.756166 1_555
Ca15 O33 2.764018 1_655
Ca16 O58 2.372800 1_555
Ca16 O51 2.387634 1_555
Ca16 O52 2.399198 1_555
Ca16 O54 2.489606 1_655
Ca16 O50 2.536093 1_655
Ca16 O49 2.545602 1_555
Ca16 O44 2.744139 1_555
Ca16 O55 2.783005 1_555
Ca17 O42 2.366541 1_555
Ca17 O50 2.385724 1_555
Ca17 O49 2.418391 1_455
Ca17 O58 2.481059 1_555
Ca17 O4 2.545626 1_554
Ca17 O59 2.574960 1_555
Ca17 O46 2.759798 1_555
Ca17 O56 2.768456 1_555
La0 O18 2.372567 1_555
La0 O25 2.424213 1_455
La0 O26 2.425182 1_455
La0 O35 2.536153 1_555
La0 O39 2.588350 1_555
La0 O40 2.589093 1_555
La0 O34 2.748447 1_545
La0 O21 2.752842 1_555
La1 O48 2.377058 1_555
La1 O0 2.428749 1_554
La1 O55 2.429973 1_555
La1 O53 2.524248 1_555
La1 O57 2.582914 1_555
La1 O56 2.584130 1_555
La1 O59 2.743669 1_545
La1 O52 2.745301 1_555
O0 Ti1 1.987048 1_555
O0 Ti0 2.008112 1_555
O1 Ti19 1.965893 1_555
O1 Ti1 2.003209 1_555
O2 Ti19 1.967939 1_555
O2 Ti3 1.980205 1_555
O3 Ti0 1.973739 1_565
O3 Ti16 2.001426 1_556
O4 Ti18 1.961319 1_555
O4 Ti19 1.968372 1_555
O5 Ti18 1.988159 1_655
O5 Ti0 1.992960 1_555
O6 Ti0 1.965505 1_565
O6 Ti3 1.966725 1_555
O7 Ti3 1.984695 1_555
O7 Ti5 1.988140 1_555
O8 Ti4 1.987098 1_455
O8 Ti2 1.988550 1_555
O9 Ti18 1.969992 1_655
O9 Ti5 1.981475 1_655
O10 Ti4 1.954650 1_555
O10 Ti0 1.992408 1_555
O11 Ti1 1.958189 1_565
O11 Ti5 1.977940 1_555
O12 Ti4 1.957739 1_555
O12 Ti5 1.977623 1_655
O13 Ti1 1.956789 1_555
O13 Ti2 1.980714 1_555
O14 Ti7 1.970542 1_555
O14 Ti5 1.979759 1_555
O15 Ti3 1.980679 1_555
O15 Ti5 1.984155 1_655
O16 Ti0 1.955303 1_455
O16 Ti1 1.973220 1_555
O17 Ti2 1.939995 1_555
O17 Ti3 1.992547 1_555
O18 Ti7 2.010173 1_545
O18 Ti2 2.012488 1_555
O19 Ti8 1.988389 1_555
O19 Ti7 1.990380 1_655
O20 Ti9 1.969557 1_555
O20 Ti6 1.969697 1_555
O21 Ti2 1.984686 1_555
O21 Ti9 2.008717 1_555
O22 Ti8 1.957922 1_555
O22 Ti3 1.988418 1_555
O23 Ti8 1.983011 1_545
O23 Ti4 2.002352 1_555
O24 Ti9 1.956524 1_555
O24 Ti8 1.973512 1_555
O25 Ti11 1.997111 1_555
O25 Ti8 2.010945 1_545
O26 Ti6 1.993706 1_555
O26 Ti4 2.011065 1_555
O27 Ti8 1.971508 1_555
O27 Ti7 1.973828 1_555
O28 Ti4 1.972127 1_555
O28 Ti2 1.975101 1_555
O29 Ti7 1.934115 1_555
O29 Ti6 1.990932 1_455
O30 Ti6 1.967659 1_555
O30 Ti11 1.997624 1_555
O31 Ti13 1.965036 1_555
O31 Ti11 1.970504 1_555
O32 Ti10 1.982966 1_555
O32 Ti12 1.984432 1_555
O33 Ti6 1.964236 1_455
O33 Ti12 1.984820 1_555
O34 Ti13 1.994479 1_565
O34 Ti7 2.007192 1_555
O35 Ti9 1.999931 1_555
O35 Ti13 2.004830 1_555
O36 Ti13 1.959307 1_565
O36 Ti12 1.971732 1_555
O37 Ti15 1.970681 1_555
O37 Ti13 1.974151 1_555
O38 Ti9 1.963456 1_555
O38 Ti10 1.990041 1_555
O39 Ti11 2.001378 1_455
O39 Ti13 2.001944 1_555
O40 Ti6 2.000782 1_455
O40 Ti9 2.001309 1_555
O41 Ti11 1.964548 1_565
O41 Ti10 1.973278 1_555
O42 Ti15 1.949705 1_555
O42 Ti10 1.985587 1_555
O43 Ti15 1.959285 1_555
O43 Ti17 1.980298 1_455
O44 Ti14 1.958555 1_655
O44 Ti16 1.983704 1_555
O45 Ti11 1.954451 1_555
O45 Ti17 1.986845 1_555
O46 Ti16 1.972877 1_555
O46 Ti10 1.975028 1_555
O47 Ti17 1.938863 1_455
O47 Ti12 1.994182 1_555
O48 Ti16 2.007741 1_545
O48 Ti17 2.012230 1_555
O49 Ti17 1.979505 1_555
O49 Ti18 1.996276 1_654
O50 Ti14 1.976496 1_555
O50 Ti12 1.981278 1_555
O51 Ti12 1.982730 1_655
O51 Ti10 1.988100 1_555
O52 Ti17 1.988677 1_555
O52 Ti15 2.007497 1_555
O53 Ti14 1.997455 1_545
O53 Ti15 2.010665 1_555
O54 Ti14 1.960390 1_555
O54 Ti18 1.967848 1_554
O55 Ti19 1.990368 1_554
O55 Ti18 2.003369 1_654
O56 Ti15 2.004868 1_555
O56 Ti19 2.006212 1_554
O57 Ti14 2.004332 1_545
O57 Ti1 2.008333 1_554
O58 Ti16 1.938251 1_555
O58 Ti19 1.987356 1_554
O59 Ti16 1.985594 1_555
O59 Ti14 2.006725 1_555
