# generated using pymatgen
data_Li2UCl6
_symmetry_space_group_name_H-M   'P 1'
_cell_length_a   6.38105724
_cell_length_b   6.38105724
_cell_length_c   5.98132562
_cell_angle_alpha   89.99998582
_cell_angle_beta   89.99998582
_cell_angle_gamma   120.00001035
_symmetry_Int_Tables_number   1
_chemical_formula_structural   Li2UCl6
_chemical_formula_sum   'Li2 U1 Cl6'
_cell_volume   210.91783888
_cell_formula_units_Z   1
loop_
 _symmetry_equiv_pos_site_id
 _symmetry_equiv_pos_as_xyz
  1  'x, y, z'
loop_
 _atom_site_type_symbol
 _atom_site_label
 _atom_site_symmetry_multiplicity
 _atom_site_fract_x
 _atom_site_fract_y
 _atom_site_fract_z
 _atom_site_occupancy
  Li  Li0  1  0.66666700  0.33333300  -0.00000000  1
  Li  Li1  1  0.33333300  0.66666700  -0.00000000  1
  U  U0  1  0.00000000  -0.00000000  0.50000000  1
  Cl  Cl0  1  0.00000000  0.66492449  0.24181784  1
  Cl  Cl1  1  -0.00000000  0.33507551  0.75818216  1
  Cl  Cl2  1  0.66492449  0.00000000  0.24181784  1
  Cl  Cl3  1  0.66492449  0.66492449  0.75818216  1
  Cl  Cl4  1  0.33507551  0.33507551  0.24181784  1
  Cl  Cl5  1  0.33507551  -0.00000000  0.75818216  1
loop_
_geom_bond_atom_site_label_1
_geom_bond_atom_site_label_2
_geom_bond_distance
_geom_bond_site_symmetry_2
Cl0 Li1 2.567629 1_555
Cl0 Li0 2.567633 1_455
Cl0 U0 2.637499 1_565
Cl1 Li0 2.567629 1_456
Cl1 Li1 2.567633 1_556
Cl1 U0 2.637499 1_555
Cl2 Li0 2.567629 1_555
Cl2 Li1 2.567633 1_545
Cl2 U0 2.637499 1_655
Cl3 Li0 2.567635 1_556
Cl3 Li1 2.567635 1_556
Cl3 U0 2.637498 1_665
Cl4 Li1 2.567635 1_555
Cl4 Li0 2.567635 1_555
Cl4 U0 2.637498 1_555
Cl5 Li1 2.567629 1_546
Cl5 Li0 2.567633 1_556
Cl5 U0 2.637499 1_555
