# generated using pymatgen
data_K3Co(CN)6
_symmetry_space_group_name_H-M   'P 1'
_cell_length_a   8.39846100
_cell_length_b   10.43114500
_cell_length_c   26.77015400
_cell_angle_alpha   90.00000000
_cell_angle_beta   90.00000000
_cell_angle_gamma   90.00000000
_symmetry_Int_Tables_number   1
_chemical_formula_structural   K3Co(CN)6
_chemical_formula_sum   'K24 Co8 C48 N48'
_cell_volume   2345.21445206
_cell_formula_units_Z   8
loop_
 _symmetry_equiv_pos_site_id
 _symmetry_equiv_pos_as_xyz
  1  'x, y, z'
loop_
 _atom_site_type_symbol
 _atom_site_label
 _atom_site_symmetry_multiplicity
 _atom_site_fract_x
 _atom_site_fract_y
 _atom_site_fract_z
 _atom_site_occupancy
  K  K0  1  0.25394600  0.75937000  0.37459200  1
  K  K1  1  0.25394600  0.24063000  0.12540800  1
  K  K2  1  0.24839000  0.00000000  0.75000000  1
  K  K3  1  0.24605400  0.25937000  0.62540800  1
  K  K4  1  0.74605400  0.75937000  0.87459200  1
  K  K5  1  0.00386400  0.72270400  0.62750600  1
  K  K6  1  0.74839000  0.50000000  0.75000000  1
  K  K7  1  0.99613600  0.27729600  0.37249400  1
  K  K8  1  0.00000000  0.50000000  0.00000000  1
  K  K9  1  0.50000000  0.00000000  0.50000000  1
  K  K10  1  0.49613600  0.77729600  0.12750600  1
  K  K11  1  0.25161000  0.50000000  0.25000000  1
  K  K12  1  0.24605400  0.74063000  0.87459200  1
  K  K13  1  0.75394600  0.74063000  0.37459200  1
  K  K14  1  0.00000000  0.50000000  0.50000000  1
  K  K15  1  0.00386400  0.27729600  0.87249400  1
  K  K16  1  0.50000000  0.00000000  0.00000000  1
  K  K17  1  0.50386400  0.77729600  0.62750600  1
  K  K18  1  0.74605400  0.24063000  0.62540800  1
  K  K19  1  0.49613600  0.22270400  0.37249400  1
  K  K20  1  0.99613600  0.72270400  0.12750600  1
  K  K21  1  0.50386400  0.22270400  0.87249400  1
  K  K22  1  0.75161000  0.00000000  0.25000000  1
  K  K23  1  0.75394600  0.25937000  0.12540800  1
  Co  Co0  1  0.75074000  0.00000000  0.75000000  1
  Co  Co1  1  0.00000000  0.00000000  0.50000000  1
  Co  Co2  1  0.74926000  0.50000000  0.25000000  1
  Co  Co3  1  0.00000000  0.00000000  0.00000000  1
  Co  Co4  1  0.25074000  0.50000000  0.75000000  1
  Co  Co5  1  0.50000000  0.50000000  0.00000000  1
  Co  Co6  1  0.50000000  0.50000000  0.50000000  1
  Co  Co7  1  0.24926000  0.00000000  0.25000000  1
  C  C0  1  0.40936100  0.45166300  0.70380900  1
  C  C1  1  0.34268900  0.44956100  0.45323400  1
  C  C2  1  0.34488400  0.44858400  0.95346800  1
  C  C3  1  0.15511600  0.94858400  0.04653200  1
  C  C4  1  0.34268900  0.55043900  0.04676600  1
  C  C5  1  0.65731100  0.55043900  0.54676600  1
  C  C6  1  0.84268900  0.94956100  0.04676600  1
  C  C7  1  0.59063900  0.45166300  0.20380900  1
  C  C8  1  0.99938600  0.16416900  0.52819100  1
  C  C9  1  0.00061400  0.16416900  0.02819100  1
  C  C10  1  0.50061400  0.33583100  0.02819100  1
  C  C11  1  0.59063900  0.54833700  0.29619100  1
  C  C12  1  0.74910500  0.33486700  0.27749800  1
  C  C13  1  0.40859800  0.95136500  0.29595400  1
  C  C14  1  0.75089500  0.16513300  0.77749800  1
  C  C15  1  0.59140200  0.04863500  0.70404600  1
  C  C16  1  0.09140200  0.54863500  0.79595400  1
  C  C17  1  0.09063900  0.95166300  0.29619100  1
  C  C18  1  0.15731100  0.94956100  0.54676600  1
  C  C19  1  0.49938600  0.33583100  0.52819100  1
  C  C20  1  0.90936100  0.95166300  0.79619100  1
  C  C21  1  0.24910500  0.16513300  0.27749800  1
  C  C22  1  0.15511600  0.05141600  0.45346800  1
  C  C23  1  0.09063900  0.04833700  0.20380900  1
  C  C24  1  0.00061400  0.83583100  0.47180900  1
  C  C25  1  0.75089500  0.83486700  0.72250200  1
  C  C26  1  0.90859800  0.54863500  0.29595400  1
  C  C27  1  0.09140200  0.45136500  0.70404600  1
  C  C28  1  0.90859800  0.45136500  0.20404600  1
  C  C29  1  0.99938600  0.83583100  0.97180900  1
  C  C30  1  0.25089500  0.33486700  0.77749800  1
  C  C31  1  0.84488400  0.05141600  0.95346800  1
  C  C32  1  0.40936100  0.54833700  0.79619100  1
  C  C33  1  0.34488400  0.55141600  0.54653200  1
  C  C34  1  0.40859800  0.04863500  0.20404600  1
  C  C35  1  0.65511600  0.55141600  0.04653200  1
  C  C36  1  0.65511600  0.44858400  0.45346800  1
  C  C37  1  0.49938600  0.66416900  0.97180900  1
  C  C38  1  0.15731100  0.05043900  0.95323400  1
  C  C39  1  0.50061400  0.66416900  0.47180900  1
  C  C40  1  0.90936100  0.04833700  0.70380900  1
  C  C41  1  0.84488400  0.94858400  0.54653200  1
  C  C42  1  0.24910500  0.83486700  0.22250200  1
  C  C43  1  0.74910500  0.66513300  0.22250200  1
  C  C44  1  0.25089500  0.66513300  0.72250200  1
  C  C45  1  0.84268900  0.05043900  0.45323400  1
  C  C46  1  0.65731100  0.44956100  0.95323400  1
  C  C47  1  0.59140200  0.95136500  0.79595400  1
  N  N0  1  0.75004000  0.58326500  0.07635300  1
  N  N1  1  0.00435300  0.08135900  0.67420300  1
  N  N2  1  0.49573900  0.08158600  0.67461500  1
  N  N3  1  0.50435300  0.58135900  0.82579700  1
  N  N4  1  0.24987900  0.76688600  0.70366500  1
  N  N5  1  0.24661100  0.41699700  0.42388800  1
  N  N6  1  0.24661100  0.58300300  0.07611200  1
  N  N7  1  0.25012100  0.26688600  0.29633500  1
  N  N8  1  0.75338900  0.58300300  0.57611200  1
  N  N9  1  0.99573900  0.41841400  0.67461500  1
  N  N10  1  0.75004000  0.41673500  0.42364700  1
  N  N11  1  0.24996000  0.58326500  0.57635300  1
  N  N12  1  0.99573900  0.58158600  0.82538500  1
  N  N13  1  0.74996000  0.08326500  0.92364700  1
  N  N14  1  0.25338900  0.91699700  0.57611200  1
  N  N15  1  0.00131200  0.73499600  0.45215400  1
  N  N16  1  0.00131200  0.26500400  0.04784600  1
  N  N17  1  0.00426100  0.58158600  0.32538500  1
  N  N18  1  0.25004000  0.91673500  0.07635300  1
  N  N19  1  0.25338900  0.08300300  0.92388800  1
  N  N20  1  0.50426100  0.91841400  0.32538500  1
  N  N21  1  0.99564700  0.08135900  0.17420300  1
  N  N22  1  0.74987900  0.73311400  0.70366500  1
  N  N23  1  0.99868800  0.26500400  0.54784600  1
  N  N24  1  0.49868800  0.76500400  0.95215400  1
  N  N25  1  0.99564700  0.91864100  0.32579700  1
  N  N26  1  0.75012100  0.76688600  0.20366500  1
  N  N27  1  0.24996000  0.41673500  0.92364700  1
  N  N28  1  0.99868800  0.73499600  0.95215400  1
  N  N29  1  0.74987900  0.26688600  0.79633500  1
  N  N30  1  0.74996000  0.91673500  0.57635300  1
  N  N31  1  0.50426100  0.08158600  0.17461500  1
  N  N32  1  0.74661100  0.91699700  0.07611200  1
  N  N33  1  0.25012100  0.73311400  0.20366500  1
  N  N34  1  0.75338900  0.41699700  0.92388800  1
  N  N35  1  0.25004000  0.08326500  0.42364700  1
  N  N36  1  0.50131200  0.76500400  0.45215400  1
  N  N37  1  0.49564700  0.41864100  0.17420300  1
  N  N38  1  0.00426100  0.41841400  0.17461500  1
  N  N39  1  0.74661100  0.08300300  0.42388800  1
  N  N40  1  0.24987900  0.23311400  0.79633500  1
  N  N41  1  0.75012100  0.23311400  0.29633500  1
  N  N42  1  0.50131200  0.23499600  0.04784600  1
  N  N43  1  0.49573900  0.91841400  0.82538500  1
  N  N44  1  0.49868800  0.23499600  0.54784600  1
  N  N45  1  0.49564700  0.58135900  0.32579700  1
  N  N46  1  0.00435300  0.91864100  0.82579700  1
  N  N47  1  0.50435300  0.41864100  0.67420300  1
loop_
_geom_bond_atom_site_label_1
_geom_bond_atom_site_label_2
_geom_bond_distance
_geom_bond_site_symmetry_2
K0 N36 2.937797 1_555
K0 N15 2.979534 1_555
K0 N20 2.984467 1_555
K0 N25 3.028596 1_455
K0 N45 3.045451 1_555
K0 N17 3.093807 1_555
K1 N42 2.937797 1_555
K1 N16 2.979534 1_555
K1 N31 2.984467 1_555
K1 N21 3.028596 1_455
K1 N37 3.045451 1_555
K1 N38 3.093807 1_555
K2 N40 2.729769 1_555
K2 N4 2.729769 1_545
K2 N1 3.006338 1_555
K2 N46 3.006338 1_545
K2 N43 3.018650 1_545
K2 N2 3.018650 1_555
K3 N23 2.937797 1_455
K3 N44 2.979534 1_555
K3 N9 2.984467 1_455
K3 N47 3.028596 1_555
K3 N1 3.045451 1_555
K3 N2 3.093807 1_555
K4 N24 2.937797 1_555
K4 N28 2.979534 1_555
K4 N43 2.984467 1_555
K4 N46 3.028596 1_655
K4 N3 3.045451 1_555
K4 N12 3.093807 1_555
K5 N11 2.874466 1_555
K5 N8 2.905443 1_455
K5 N4 2.939051 1_555
K5 N22 2.952709 1_455
K5 N14 3.223670 1_555
K5 N30 3.243264 1_455
K6 N22 2.729769 1_555
K6 N29 2.729769 1_555
K6 N3 3.006338 1_555
K6 N47 3.006338 1_555
K6 N12 3.018650 1_555
K6 N9 3.018650 1_555
K7 N10 2.874466 1_555
K7 N5 2.905443 1_655
K7 N41 2.939051 1_555
K7 N7 2.952709 1_655
K7 N39 3.223670 1_555
K7 N35 3.243264 1_655
K8 N28 2.765763 1_454
K8 N16 2.765763 1_555
K8 N6 3.031640 1_555
K8 N34 3.031640 1_454
K8 N0 3.056012 1_455
K8 N27 3.056012 1_554
K9 N44 2.765763 1_555
K9 N36 2.765763 1_545
K9 N39 3.031640 1_555
K9 N14 3.031640 1_545
K9 N35 3.056012 1_555
K9 N30 3.056012 1_545
K10 N18 2.874466 1_555
K10 N32 2.905443 1_555
K10 N33 2.939051 1_555
K10 N26 2.952709 1_555
K10 N6 3.223670 1_555
K10 N0 3.243264 1_555
K11 N7 2.729769 1_555
K11 N33 2.729769 1_555
K11 N45 3.006338 1_555
K11 N37 3.006338 1_555
K11 N17 3.018650 1_555
K11 N38 3.018650 1_555
K12 N28 2.937797 1_455
K12 N24 2.979534 1_555
K12 N12 2.984467 1_455
K12 N3 3.028596 1_555
K12 N46 3.045451 1_555
K12 N43 3.093807 1_555
K13 N15 2.937797 1_655
K13 N36 2.979534 1_555
K13 N17 2.984467 1_655
K13 N45 3.028596 1_555
K13 N25 3.045451 1_555
K13 N20 3.093807 1_555
K14 N23 2.765763 1_455
K14 N15 2.765763 1_555
K14 N8 3.031640 1_455
K14 N5 3.031640 1_555
K14 N11 3.056012 1_555
K14 N10 3.056012 1_455
K15 N27 2.874466 1_555
K15 N34 2.905443 1_455
K15 N40 2.939051 1_555
K15 N29 2.952709 1_455
K15 N19 3.223670 1_555
K15 N13 3.243264 1_455
K16 N42 2.765763 1_555
K16 N24 2.765763 1_544
K16 N32 3.031640 1_545
K16 N19 3.031640 1_554
K16 N18 3.056012 1_545
K16 N13 3.056012 1_554
K17 N30 2.874466 1_555
K17 N14 2.905443 1_555
K17 N22 2.939051 1_555
K17 N4 2.952709 1_555
K17 N8 3.223670 1_555
K17 N11 3.243264 1_555
K18 N44 2.937797 1_555
K18 N23 2.979534 1_555
K18 N2 2.984467 1_555
K18 N1 3.028596 1_655
K18 N47 3.045451 1_555
K18 N9 3.093807 1_555
K19 N35 2.874466 1_555
K19 N39 2.905443 1_555
K19 N7 2.939051 1_555
K19 N41 2.952709 1_555
K19 N5 3.223670 1_555
K19 N10 3.243264 1_555
K20 N0 2.874466 1_555
K20 N6 2.905443 1_655
K20 N26 2.939051 1_555
K20 N33 2.952709 1_655
K20 N32 3.223670 1_555
K20 N18 3.243264 1_655
K21 N13 2.874466 1_555
K21 N19 2.905443 1_555
K21 N29 2.939051 1_555
K21 N40 2.952709 1_555
K21 N34 3.223670 1_555
K21 N27 3.243264 1_555
K22 N41 2.729769 1_555
K22 N26 2.729769 1_545
K22 N21 3.006338 1_555
K22 N25 3.006338 1_545
K22 N31 3.018650 1_555
K22 N20 3.018650 1_545
K23 N16 2.937797 1_655
K23 N42 2.979534 1_555
K23 N38 2.984467 1_655
K23 N37 3.028596 1_555
K23 N21 3.045451 1_555
K23 N31 3.093807 1_555
C0 N47 1.176121 1_555
C0 Co4 1.886251 1_555
C1 N5 1.176284 1_555
C1 Co6 1.894636 1_555
C2 N27 1.176107 1_555
C2 Co5 1.880547 1_556
C3 N18 1.176107 1_555
C3 Co3 1.880547 1_565
C4 N6 1.176284 1_555
C4 Co5 1.894636 1_555
C5 N8 1.176284 1_555
C5 Co6 1.894636 1_555
C6 N32 1.176284 1_555
C6 Co3 1.894636 1_665
C7 N37 1.176121 1_555
C7 Co2 1.886251 1_555
C8 N23 1.176104 1_555
C8 Co1 1.871395 1_655
C9 N16 1.176104 1_555
C9 Co3 1.871395 1_555
C10 N42 1.176104 1_555
C10 Co5 1.871395 1_555
C11 N45 1.176121 1_555
C11 Co2 1.886251 1_555
C12 N41 1.175130 1_555
C12 Co2 1.873227 1_555
C13 N20 1.176593 1_555
C13 Co7 1.887198 1_565
C14 N29 1.175130 1_555
C14 Co0 1.873227 1_555
C15 N2 1.176593 1_555
C15 Co0 1.887198 1_555
C16 N12 1.176593 1_455
C16 Co4 1.887198 1_555
C17 N25 1.176121 1_455
C17 Co7 1.886251 1_565
C18 N14 1.176284 1_555
C18 Co1 1.894636 1_565
C19 N44 1.176104 1_555
C19 Co6 1.871395 1_555
C20 N46 1.176121 1_655
C20 Co0 1.886251 1_565
C21 N7 1.175130 1_555
C21 Co7 1.873227 1_555
C22 N35 1.176107 1_555
C22 Co1 1.880547 1_555
C23 N21 1.176121 1_455
C23 Co7 1.886251 1_555
C24 N15 1.176104 1_555
C24 Co1 1.871395 1_565
C25 N22 1.175130 1_555
C25 Co0 1.873227 1_565
C26 N17 1.176593 1_655
C26 Co2 1.887198 1_555
C27 N9 1.176593 1_455
C27 Co4 1.887198 1_555
C28 N38 1.176593 1_655
C28 Co2 1.887198 1_555
C29 N28 1.176104 1_555
C29 Co3 1.871395 1_666
C30 N40 1.175130 1_555
C30 Co4 1.873227 1_555
C31 N13 1.176107 1_555
C31 Co3 1.880547 1_656
C32 N3 1.176121 1_555
C32 Co4 1.886251 1_555
C33 N11 1.176107 1_555
C33 Co6 1.880547 1_555
C34 N31 1.176593 1_555
C34 Co7 1.887198 1_555
C35 N0 1.176107 1_555
C35 Co5 1.880547 1_555
C36 N10 1.176107 1_555
C36 Co6 1.880547 1_555
C37 N24 1.176104 1_555
C37 Co5 1.871395 1_556
C38 N19 1.176284 1_555
C38 Co3 1.894636 1_556
C39 N36 1.176104 1_555
C39 Co6 1.871395 1_555
C40 N1 1.176121 1_655
C40 Co0 1.886251 1_555
C41 N30 1.176107 1_555
C41 Co1 1.880547 1_665
C42 N33 1.175130 1_555
C42 Co7 1.873227 1_565
C43 N26 1.175130 1_555
C43 Co2 1.873227 1_555
C44 N4 1.175130 1_555
C44 Co4 1.873227 1_555
C45 N39 1.176284 1_555
C45 Co1 1.894636 1_655
C46 N34 1.176284 1_555
C46 Co5 1.894636 1_556
C47 N43 1.176593 1_555
C47 Co0 1.887198 1_565
