# generated using pymatgen
data_ScP3(HO2)6
_symmetry_space_group_name_H-M   'P 1'
_cell_length_a   10.09437034
_cell_length_b   10.09437034
_cell_length_c   10.09436994
_cell_angle_alpha   48.64911032
_cell_angle_beta   48.64911032
_cell_angle_gamma   48.64911281
_symmetry_Int_Tables_number   1
_chemical_formula_structural   ScP3(HO2)6
_chemical_formula_sum   'Sc2 P6 H12 O24'
_cell_volume   531.77850560
_cell_formula_units_Z   2
loop_
 _symmetry_equiv_pos_site_id
 _symmetry_equiv_pos_as_xyz
  1  'x, y, z'
loop_
 _atom_site_type_symbol
 _atom_site_label
 _atom_site_symmetry_multiplicity
 _atom_site_fract_x
 _atom_site_fract_y
 _atom_site_fract_z
 _atom_site_occupancy
  Sc  Sc0  1  0.91854500  0.91854500  0.91854500  1
  Sc  Sc1  1  0.41854500  0.41854500  0.41854500  1
  P  P0  1  0.82173000  0.51860600  0.16605200  1
  P  P1  1  0.16605200  0.82173000  0.51860600  1
  P  P2  1  0.51860600  0.16605200  0.82173000  1
  P  P3  1  0.66605200  0.01860600  0.32173000  1
  P  P4  1  0.32173000  0.66605200  0.01860600  1
  P  P5  1  0.01860600  0.32173000  0.66605200  1
  H  H0  1  0.92131500  0.22663300  0.37848600  1
  H  H1  1  0.37848600  0.92131500  0.22663300  1
  H  H2  1  0.22663300  0.37848600  0.92131500  1
  H  H3  1  0.87848600  0.72663300  0.42131500  1
  H  H4  1  0.42131500  0.87848600  0.72663300  1
  H  H5  1  0.72663300  0.42131500  0.87848600  1
  H  H6  1  0.98538400  0.43321600  0.40753200  1
  H  H7  1  0.40753200  0.98538400  0.43321600  1
  H  H8  1  0.43321600  0.40753200  0.98538400  1
  H  H9  1  0.90753200  0.93321600  0.48538400  1
  H  H10  1  0.48538400  0.90753200  0.93321600  1
  H  H11  1  0.93321600  0.48538400  0.90753200  1
  O  O0  1  0.81383400  0.70367000  0.10785300  1
  O  O1  1  0.10785300  0.81383400  0.70367000  1
  O  O2  1  0.70367000  0.10785300  0.81383400  1
  O  O3  1  0.60785300  0.20367000  0.31383400  1
  O  O4  1  0.31383400  0.60785300  0.20367000  1
  O  O5  1  0.20367000  0.31383400  0.60785300  1
  O  O6  1  0.63372600  0.52419000  0.23407200  1
  O  O7  1  0.23407200  0.63372600  0.52419000  1
  O  O8  1  0.52419000  0.23407200  0.63372600  1
  O  O9  1  0.73407200  0.02419000  0.13372600  1
  O  O10  1  0.13372600  0.73407200  0.02419000  1
  O  O11  1  0.02419000  0.13372600  0.73407200  1
  O  O12  1  0.91687000  0.35698700  0.31932200  1
  O  O13  1  0.31932200  0.91687000  0.35698700  1
  O  O14  1  0.35698700  0.31932200  0.91687000  1
  O  O15  1  0.81932200  0.85698700  0.41687000  1
  O  O16  1  0.41687000  0.81932200  0.85698700  1
  O  O17  1  0.85698700  0.41687000  0.81932200  1
  O  O18  1  0.98186200  0.44868400  0.99013400  1
  O  O19  1  0.99013400  0.98186200  0.44868400  1
  O  O20  1  0.44868400  0.99013400  0.98186200  1
  O  O21  1  0.49013400  0.94868400  0.48186200  1
  O  O22  1  0.48186200  0.49013400  0.94868400  1
  O  O23  1  0.94868400  0.48186200  0.49013400  1
loop_
_geom_bond_atom_site_label_1
_geom_bond_atom_site_label_2
_geom_bond_distance
_geom_bond_site_symmetry_2
H0 O12 1.004564 1_555
H1 O13 1.004564 1_555
H2 O14 1.004564 1_555
H3 O15 1.004564 1_555
H4 O16 1.004564 1_555
H5 O17 1.004564 1_555
H6 O23 0.982907 1_555
H7 O21 0.982907 1_555
H8 O22 0.982907 1_555
H9 O19 0.982907 1_555
H10 O20 0.982907 1_555
H11 O18 0.982907 1_555
O0 P0 1.502096 1_555
O0 Sc0 2.087408 1_554
O1 P1 1.502096 1_555
O1 Sc0 2.087408 1_455
O2 P2 1.502096 1_555
O2 Sc0 2.087408 1_545
O3 P3 1.502096 1_555
O3 Sc1 2.087408 1_555
O4 P4 1.502096 1_555
O4 Sc1 2.087408 1_555
O5 P5 1.502096 1_555
O5 Sc1 2.087408 1_555
O6 P0 1.504732 1_555
O6 Sc1 2.101231 1_555
O7 P1 1.504732 1_555
O7 Sc1 2.101231 1_555
O8 P2 1.504732 1_555
O8 Sc1 2.101231 1_555
O9 P3 1.504732 1_555
O9 Sc0 2.101231 1_544
O10 P4 1.504732 1_555
O10 Sc0 2.101231 1_454
O11 P5 1.504732 1_555
O11 Sc0 2.101231 1_445
O12 P0 1.592325 1_555
O13 P1 1.592325 1_555
O14 P2 1.592325 1_555
O15 P3 1.592325 1_565
O16 P4 1.592325 1_556
O17 P5 1.592325 1_655
O18 P0 1.618715 1_556
O19 P1 1.618715 1_655
O20 P2 1.618715 1_565
O21 P3 1.618715 1_565
O22 P4 1.618715 1_556
O23 P5 1.618715 1_655
