# generated using pymatgen
data_Nd4AlSi5(NO)7
_symmetry_space_group_name_H-M   'P 1'
_cell_length_a   6.85603900
_cell_length_b   6.95948685
_cell_length_c   20.56315899
_cell_angle_alpha   94.13357079
_cell_angle_beta   92.44594387
_cell_angle_gamma   91.40416354
_symmetry_Int_Tables_number   1
_chemical_formula_structural   Nd4AlSi5(NO)7
_chemical_formula_sum   'Nd12 Al3 Si15 N21 O21'
_cell_volume   977.34268851
_cell_formula_units_Z   3
loop_
 _symmetry_equiv_pos_site_id
 _symmetry_equiv_pos_as_xyz
  1  'x, y, z'
loop_
 _atom_site_type_symbol
 _atom_site_label
 _atom_site_symmetry_multiplicity
 _atom_site_fract_x
 _atom_site_fract_y
 _atom_site_fract_z
 _atom_site_occupancy
  Nd  Nd0  1  0.27587300  0.39232600  0.72373300  1
  Nd  Nd1  1  0.29720400  0.41107800  0.41568900  1
  Nd  Nd2  1  0.67372200  0.37860800  0.91087500  1
  Nd  Nd3  1  0.71886200  0.41822000  0.58051000  1
  Nd  Nd4  1  0.36358900  0.36311200  0.09771500  1
  Nd  Nd5  1  0.73263700  0.32748600  0.27111400  1
  Nd  Nd6  1  0.17044000  0.62763500  0.88715000  1
  Nd  Nd7  1  0.18433200  0.62296500  0.57833300  1
  Nd  Nd8  1  0.81542100  0.67611900  0.42549100  1
  Nd  Nd9  1  0.76292600  0.63009200  0.73594100  1
  Nd  Nd10  1  0.82158900  0.58273500  0.11183600  1
  Nd  Nd11  1  0.25004300  0.63494300  0.25305600  1
  Al  Al0  1  0.01401500  0.92934000  0.66736300  1
  Al  Al1  1  0.64643800  0.80389800  0.99540000  1
  Al  Al2  1  0.62306300  0.79917200  0.30246900  1
  Si  Si0  1  0.03388700  0.02857200  0.98686900  1
  Si  Si1  1  0.54629200  0.92505200  0.86210900  1
  Si  Si2  1  0.98161100  0.04448700  0.34827000  1
  Si  Si3  1  0.36687700  0.84753500  0.70303600  1
  Si  Si4  1  0.35879100  0.86809100  0.38275100  1
  Si  Si5  1  0.58601000  0.83410200  0.60465700  1
  Si  Si6  1  0.29159800  0.85203800  0.02080800  1
  Si  Si7  1  0.16054500  0.15046000  0.86362900  1
  Si  Si8  1  0.07595500  0.16571000  0.55401100  1
  Si  Si9  1  0.89012200  0.18128400  0.79514000  1
  Si  Si10  1  0.09765900  0.14270100  0.20028200  1
  Si  Si11  1  0.87870900  0.24034800  0.45989200  1
  Si  Si12  1  0.85277500  0.09727100  0.11624400  1
  Si  Si13  1  0.49962200  0.09042900  0.50308100  1
  Si  Si14  1  0.46020700  0.93418600  0.16081000  1
  N  N0  1  0.51484600  0.49044700  0.66305900  1
  N  N1  1  0.56288700  0.55023400  0.33487000  1
  N  N2  1  0.45777700  0.62260000  0.80527500  1
  N  N3  1  0.53768700  0.18500300  0.18021600  1
  N  N4  1  0.62453300  0.26441100  0.46698200  1
  N  N5  1  0.68749100  0.27474000  0.14148200  1
  N  N6  1  0.08053600  0.68436400  0.01359100  1
  N  N7  1  0.14981700  0.71025800  0.69720600  1
  N  N8  1  0.54340600  0.67256200  0.87196000  1
  N  N9  1  0.48967000  0.70652600  0.52264600  1
  N  N10  1  0.50044200  0.80916800  0.77779800  1
  N  N11  1  0.81191600  0.75451800  0.62624200  1
  N  N12  1  0.92556900  0.79295900  0.97154000  1
  N  N13  1  0.00682600  0.78155100  0.32561800  1
  N  N14  1  0.15626200  0.69412500  0.36905300  1
  N  N15  1  0.60244100  0.77367600  0.20843800  1
  N  N16  1  0.47772000  0.85526500  0.46664600  1
  N  N17  1  0.47185300  0.66432700  0.15379400  1
  N  N18  1  0.91474100  0.42519800  0.81703100  1
  N  N19  1  0.98937500  0.47673000  0.49105200  1
  N  N20  1  0.11977400  0.37766100  0.17695900  1
  O  O0  1  0.63997700  0.53916300  0.01463300  1
  O  O1  1  0.02218200  0.18903800  0.93035500  1
  O  O2  1  0.87090500  0.07852400  0.72110000  1
  O  O3  1  0.32570500  0.32748900  0.87303400  1
  O  O4  1  0.05759100  0.32814900  0.61852600  1
  O  O5  1  0.94187000  0.29542200  0.38100700  1
  O  O6  1  0.29446000  0.21394500  0.51893500  1
  O  O7  1  0.04947000  0.17147800  0.27781800  1
  O  O8  1  0.95571400  0.17530000  0.04957200  1
  O  O9  1  0.68234900  0.10978400  0.83067500  1
  O  O10  1  0.90789800  0.00067900  0.42860400  1
  O  O11  1  0.72312700  0.90204500  0.08574100  1
  O  O12  1  0.29179800  0.95527100  0.86957200  1
  O  O13  1  0.11417300  0.95982000  0.58609700  1
  O  O14  1  0.25369600  0.95704600  0.20578600  1
  O  O15  1  0.62257900  0.00674200  0.94003100  1
  O  O16  1  0.59995600  0.05982600  0.57691000  1
  O  O17  1  0.74339900  0.02745500  0.31207900  1
  O  O18  1  0.26941800  0.06313000  0.70881600  1
  O  O19  1  0.23810900  0.07752500  0.38030300  1
  O  O20  1  0.33924100  0.99585100  0.09068400  1
loop_
_geom_bond_atom_site_label_1
_geom_bond_atom_site_label_2
_geom_bond_distance
_geom_bond_site_symmetry_2
Nd0 O18 2.288548 1_555
Nd0 O4 2.582827 1_555
Nd1 O19 2.401574 1_555
Nd1 O5 2.600832 1_455
Nd1 O6 2.609988 1_555
Nd2 O0 2.359108 1_556
Nd2 O9 2.406735 1_555
Nd2 O3 2.486997 1_555
Nd2 O15 2.716114 1_555
Nd2 O1 2.785247 1_655
Nd3 O4 2.526724 1_655
Nd3 O16 2.599975 1_555
Nd4 O20 2.550568 1_545
Nd4 O0 2.911176 1_555
Nd4 O8 3.147445 1_455
Nd5 O17 2.308864 1_555
Nd5 O7 2.455192 1_655
Nd5 O5 2.650617 1_555
Nd6 O3 2.372490 1_555
Nd6 O12 2.464479 1_555
Nd7 O13 2.400135 1_555
Nd7 O4 2.422044 1_555
Nd8 O10 2.326722 1_565
Nd10 O0 2.306343 1_555
Nd10 O11 2.428265 1_555
Nd10 O8 3.198447 1_555
Nd11 O14 2.506790 1_555
Al0 O2 1.799651 1_465
Al0 O13 1.857679 1_555
Al0 N7 1.929732 1_555
Al0 N11 1.945311 1_455
Al0 O18 2.082791 1_565
Al1 O15 1.882308 1_565
Al1 O0 1.911917 1_556
Al1 O11 1.977409 1_556
Al1 N12 1.997697 1_555
Al2 O17 1.766459 1_565
Al2 N15 1.927734 1_555
Al2 N1 1.941765 1_555
N0 Nd0 2.224813 1_555
N0 Nd3 2.281371 1_555
N0 Nd9 2.361119 1_555
N0 Nd7 3.002976 1_555
N1 Nd5 2.324234 1_555
N1 Nd8 2.579266 1_555
N1 Nd1 2.724285 1_555
N1 Nd11 2.770432 1_555
N2 N8 1.482715 1_555
N2 Nd0 2.504266 1_555
N2 Nd9 2.583082 1_555
N2 Nd6 2.644733 1_555
N3 N5 1.479658 1_555
N3 Si14 1.823303 1_545
N3 Nd5 2.391249 1_555
N3 Nd4 2.458067 1_555
N4 Si13 1.698101 1_555
N4 Si11 1.765946 1_555
N4 Nd3 2.547723 1_555
N4 Nd1 2.693726 1_555
N5 Si12 1.762186 1_555
N5 Nd10 2.439480 1_555
N5 Nd4 2.468971 1_555
N5 Nd5 2.668174 1_555
N6 Si6 1.830748 1_555
N6 Nd6 2.701235 1_554
N6 Nd10 2.860773 1_455
N7 Si3 1.743661 1_555
N7 Nd0 2.483493 1_555
N7 Nd7 2.498503 1_555
N7 Nd9 2.855440 1_455
N8 Si1 1.783012 1_555
N8 Nd2 2.426588 1_555
N8 Nd6 2.603267 1_555
N9 Si5 1.931027 1_555
N9 Nd7 2.504546 1_555
N9 Nd3 2.872268 1_555
N9 Nd8 3.060555 1_555
N9 Nd1 3.126284 1_555
N10 N2 1.480523 1_555
N10 Si3 1.795627 1_555
N10 Si1 1.869345 1_555
N10 Nd9 2.370670 1_555
N11 Si5 1.709217 1_555
N11 Nd9 2.506617 1_555
N11 Nd3 2.515440 1_555
N12 Si0 1.784784 1_665
N12 Nd6 2.684991 1_655
N13 N14 1.499468 1_555
N13 Si2 1.869460 1_465
N13 Nd11 2.474726 1_555
N14 Si4 1.818871 1_555
N14 Nd1 2.453625 1_555
N14 Nd11 2.504952 1_555
N14 Nd8 2.657326 1_455
N15 N17 1.549449 1_555
N15 Si14 1.813163 1_555
N15 Nd10 2.818034 1_555
N16 N9 1.603817 1_555
N16 Si13 1.750424 1_565
N16 Si4 1.885378 1_555
N17 Si14 1.877138 1_555
N17 Nd4 2.403622 1_555
N17 Nd11 2.613540 1_555
N17 Nd10 2.643669 1_555
N18 Si9 1.726846 1_555
N18 Nd9 2.482852 1_555
N18 Nd6 2.550983 1_655
N18 Nd2 2.625956 1_555
N18 Nd0 3.198932 1_655
N19 Si11 1.854170 1_555
N19 Nd8 2.319265 1_555
N19 Nd7 2.347083 1_655
N19 Nd1 2.699784 1_655
N19 Nd3 2.711385 1_555
N20 Si10 1.741837 1_555
N20 Nd4 2.382606 1_555
N20 Nd11 2.418832 1_555
N20 Nd10 2.862605 1_455
O1 Si0 1.669615 1_555
O1 Si7 1.710289 1_555
O2 Si9 1.633430 1_555
O3 Si7 1.648056 1_555
O4 Si8 1.690811 1_555
O5 Si11 1.762717 1_555
O5 Si2 1.856539 1_555
O6 Si13 1.697565 1_555
O6 Si8 1.726166 1_555
O7 Si10 1.641188 1_555
O7 Si2 1.821614 1_455
O8 Si12 1.686334 1_555
O8 Si0 1.699551 1_654
O9 Si9 1.708002 1_555
O9 Si1 1.747372 1_545
O10 Si11 1.763168 1_555
O10 Si2 1.792628 1_555
O11 Si12 1.673284 1_565
O11 Si14 2.426875 1_555
O12 Si7 1.656641 1_565
O12 Si1 1.774364 1_555
O13 Si8 1.642281 1_565
O14 Si10 1.704462 1_565
O14 Si14 1.728257 1_555
O15 Si1 1.716618 1_545
O16 Si13 1.669736 1_555
O16 Si5 1.711432 1_545
O17 Si2 1.763307 1_555
O18 Si3 1.655926 1_545
O19 Si4 1.696383 1_545
O19 Si2 1.854391 1_455
O20 Si6 1.705760 1_555
O20 Si14 1.719295 1_555
