# generated using pymatgen
data_La7Ti27Al5(CuO4)24
_symmetry_space_group_name_H-M   'P 1'
_cell_length_a   6.46064550
_cell_length_b   6.47440119
_cell_length_c   51.69676787
_cell_angle_alpha   109.49788433
_cell_angle_beta   109.51766262
_cell_angle_gamma   109.46821751
_symmetry_Int_Tables_number   1
_chemical_formula_structural   La7Ti27Al5(CuO4)24
_chemical_formula_sum   'La7 Ti27 Al5 Cu24 O96'
_cell_volume   1663.18536305
_cell_formula_units_Z   1
loop_
 _symmetry_equiv_pos_site_id
 _symmetry_equiv_pos_as_xyz
  1  'x, y, z'
loop_
 _atom_site_type_symbol
 _atom_site_label
 _atom_site_symmetry_multiplicity
 _atom_site_fract_x
 _atom_site_fract_y
 _atom_site_fract_z
 _atom_site_occupancy
  La  La0  1  0.00052500  0.00119900  0.87586300  1
  La  La1  1  0.00673500  0.00575900  0.75086600  1
  La  La2  1  0.00343200  0.00400600  0.62578100  1
  La  La3  1  0.00139400  0.00160700  0.50033500  1
  La  La4  1  0.99974200  0.99975500  0.37494100  1
  La  La5  1  0.99767000  0.99795300  0.24948600  1
  La  La6  1  0.99123800  0.99051400  0.12282100  1
  Ti  Ti0  1  0.00314800  0.00625100  0.94054300  1
  Ti  Ti1  1  0.99835800  0.50269300  0.87494400  1
  Ti  Ti2  1  0.52255400  0.51633900  0.93985600  1
  Ti  Ti3  1  0.00131700  0.49982400  0.75123300  1
  Ti  Ti4  1  0.00062200  0.00050300  0.81281700  1
  Ti  Ti5  1  0.00176500  0.50258200  0.62570400  1
  Ti  Ti6  1  0.00198100  0.00242800  0.68806100  1
  Ti  Ti7  1  0.50565200  0.50371100  0.68848900  1
  Ti  Ti8  1  0.00684200  0.99827800  0.56354800  1
  Ti  Ti9  1  0.00001100  0.50090100  0.50026400  1
  Ti  Ti10  1  0.50230700  0.50576000  0.56400000  1
  Ti  Ti11  1  0.99988500  0.49969900  0.37493500  1
  Ti  Ti12  1  0.00058600  0.99961400  0.43759400  1
  Ti  Ti13  1  0.50338900  0.00511000  0.50070800  1
  Ti  Ti14  1  0.99872300  0.99976200  0.31222400  1
  Ti  Ti15  1  0.50076300  0.50040200  0.43761400  1
  Ti  Ti16  1  0.00001900  0.49825400  0.24955200  1
  Ti  Ti17  1  0.49836800  0.49880200  0.31220400  1
  Ti  Ti18  1  0.49974300  0.99954600  0.37493400  1
  Ti  Ti19  1  0.99842100  0.49555900  0.12343600  1
  Ti  Ti20  1  0.99186900  0.99969000  0.18597400  1
  Ti  Ti21  1  0.49616300  0.99366300  0.24915200  1
  Ti  Ti22  1  0.49474500  0.49220800  0.18555700  1
  Ti  Ti23  1  0.99620400  0.99295400  0.05926500  1
  Ti  Ti24  1  0.47354400  0.48191700  0.05961500  1
  Ti  Ti25  1  0.49956000  0.99892200  0.99996700  1
  Ti  Ti26  1  0.00006200  0.50023400  0.99986300  1
  Al  Al0  1  0.50202400  0.50027500  0.81262000  1
  Al  Al1  1  0.50000500  0.99684200  0.87491800  1
  Al  Al2  1  0.50303200  0.00783000  0.75067300  1
  Al  Al3  1  0.50312000  0.00423000  0.62561900  1
  Al  Al4  1  0.49471800  0.99328000  0.12403200  1
  Cu  Cu0  1  0.49841900  0.00167300  0.93721400  1
  Cu  Cu1  1  0.50044100  0.00013300  0.81251800  1
  Cu  Cu2  1  0.50109600  0.50016500  0.87473700  1
  Cu  Cu3  1  0.99809100  0.49566600  0.93700200  1
  Cu  Cu4  1  0.50039800  0.00022600  0.68751400  1
  Cu  Cu5  1  0.49982400  0.50014400  0.75051600  1
  Cu  Cu6  1  0.99975500  0.50039900  0.81261300  1
  Cu  Cu7  1  0.49993100  0.49935900  0.62519800  1
  Cu  Cu8  1  0.99975200  0.49993200  0.68758300  1
  Cu  Cu9  1  0.50171400  0.00115300  0.56309200  1
  Cu  Cu10  1  0.49993700  0.99990600  0.43749100  1
  Cu  Cu11  1  0.49983300  0.50032300  0.50009800  1
  Cu  Cu12  1  0.00287300  0.50245800  0.56288000  1
  Cu  Cu13  1  0.49977400  0.99987800  0.31244700  1
  Cu  Cu14  1  0.49984700  0.49988500  0.37496800  1
  Cu  Cu15  1  0.00030900  0.50001600  0.43752700  1
  Cu  Cu16  1  0.49792400  0.99875400  0.18687200  1
  Cu  Cu17  1  0.49990700  0.49954000  0.24985000  1
  Cu  Cu18  1  0.99958300  0.49970100  0.31242600  1
  Cu  Cu19  1  0.49947200  0.50034200  0.12466500  1
  Cu  Cu20  1  0.50151100  0.99843400  0.06284500  1
  Cu  Cu21  1  0.99733600  0.49729300  0.18708000  1
  Cu  Cu22  1  0.49996000  0.49993800  0.99998400  1
  Cu  Cu23  1  0.00212600  0.50417800  0.06287300  1
  O  O0  1  0.17841400  0.86804600  0.96090600  1
  O  O1  1  0.13218700  0.31210700  0.97754600  1
  O  O2  1  0.17430000  0.48014600  0.91268700  1
  O  O3  1  0.17919300  0.87613800  0.83731400  1
  O  O4  1  0.30520600  0.82391700  0.89060300  1
  O  O5  1  0.50802500  0.68722300  0.97736200  1
  O  O6  1  0.30477400  0.17519300  0.93511400  1
  O  O7  1  0.12710900  0.30333800  0.85283400  1
  O  O8  1  0.68655900  0.82144300  0.93867300  1
  O  O9  1  0.18242500  0.48013500  0.78796300  1
  O  O10  1  0.48123700  0.30030600  0.89666400  1
  O  O11  1  0.30806900  0.82612300  0.76603800  1
  O  O12  1  0.18184200  0.87870500  0.71264500  1
  O  O13  1  0.68821900  0.18036200  0.98344200  1
  O  O14  1  0.51800900  0.69628200  0.85249400  1
  O  O15  1  0.82145100  0.50921800  0.96128100  1
  O  O16  1  0.12320300  0.30102200  0.72750800  1
  O  O17  1  0.30863700  0.17958500  0.81027800  1
  O  O18  1  0.87130000  0.69455700  0.89689100  1
  O  O19  1  0.69063000  0.82027900  0.81461600  1
  O  O20  1  0.17671900  0.47901400  0.66245200  1
  O  O21  1  0.18319200  0.87967000  0.58770400  1
  O  O22  1  0.48012200  0.30136400  0.77258800  1
  O  O23  1  0.30178400  0.82130400  0.63985700  1
  O  O24  1  0.69048900  0.17153400  0.85855400  1
  O  O25  1  0.81797500  0.12373300  0.91236100  1
  O  O26  1  0.51840900  0.70072600  0.72772100  1
  O  O27  1  0.81809500  0.51982400  0.83686300  1
  O  O28  1  0.30098900  0.17816600  0.68487700  1
  O  O29  1  0.12262900  0.29973800  0.60244400  1
  O  O30  1  0.17656700  0.47830500  0.53736500  1
  O  O31  1  0.69781900  0.82119400  0.68986500  1
  O  O32  1  0.87709600  0.69806800  0.77215600  1
  O  O33  1  0.47908600  0.29730200  0.64702900  1
  O  O34  1  0.30070500  0.82147100  0.51533200  1
  O  O35  1  0.17760700  0.87869300  0.46230700  1
  O  O36  1  0.82014000  0.12228200  0.78748200  1
  O  O37  1  0.69797300  0.17790300  0.73487900  1
  O  O38  1  0.51823800  0.70197500  0.60270400  1
  O  O39  1  0.12111800  0.30012600  0.47756500  1
  O  O40  1  0.30055700  0.17869700  0.55974500  1
  O  O41  1  0.82306000  0.52085800  0.71234900  1
  O  O42  1  0.87613900  0.69792300  0.64702800  1
  O  O43  1  0.17918300  0.47847100  0.41246300  1
  O  O44  1  0.69824800  0.82071800  0.56476400  1
  O  O45  1  0.47740600  0.29870000  0.52205900  1
  O  O46  1  0.29980700  0.82120200  0.39011200  1
  O  O47  1  0.17885300  0.87830700  0.33753100  1
  O  O48  1  0.69774900  0.17722600  0.60995000  1
  O  O49  1  0.52046100  0.69926100  0.47756500  1
  O  O50  1  0.81794100  0.12036600  0.66218200  1
  O  O51  1  0.12051600  0.30028900  0.35271900  1
  O  O52  1  0.29972500  0.17946600  0.43486500  1
  O  O53  1  0.81998500  0.52009700  0.58697000  1
  O  O54  1  0.17935000  0.47929900  0.28777500  1
  O  O55  1  0.69983000  0.82035100  0.44004200  1
  O  O56  1  0.87781400  0.69869000  0.52205400  1
  O  O57  1  0.17720200  0.87473400  0.21237500  1
  O  O58  1  0.30019700  0.82192000  0.26531300  1
  O  O59  1  0.47867100  0.29905100  0.39732900  1
  O  O60  1  0.70000300  0.17848200  0.48475200  1
  O  O61  1  0.52144100  0.70134900  0.35273300  1
  O  O62  1  0.82224300  0.12334000  0.53755600  1
  O  O63  1  0.30031200  0.17974000  0.30998600  1
  O  O64  1  0.12323600  0.30223600  0.22811600  1
  O  O65  1  0.82011900  0.52089400  0.46235900  1
  O  O66  1  0.87957700  0.70008600  0.39733900  1
  O  O67  1  0.17942100  0.48021700  0.16339200  1
  O  O68  1  0.70047600  0.82077700  0.31518700  1
  O  O69  1  0.18206300  0.87768700  0.08769200  1
  O  O70  1  0.30348600  0.82433500  0.14035100  1
  O  O71  1  0.47973200  0.30167300  0.27244700  1
  O  O72  1  0.82134500  0.12051700  0.41247300  1
  O  O73  1  0.70035300  0.17907300  0.35994200  1
  O  O74  1  0.52313800  0.70158600  0.22811900  1
  O  O75  1  0.12482700  0.30350300  0.10315800  1
  O  O76  1  0.30282100  0.17904500  0.18534600  1
  O  O77  1  0.82199800  0.52140000  0.33754200  1
  O  O78  1  0.69934400  0.82208900  0.19032400  1
  O  O79  1  0.17874700  0.49112100  0.03865300  1
  O  O80  1  0.87803400  0.69983000  0.27245300  1
  O  O81  1  0.31012400  0.81818500  0.01617000  1
  O  O82  1  0.48245300  0.29876000  0.14733900  1
  O  O83  1  0.82321800  0.12294000  0.28782300  1
  O  O84  1  0.69912800  0.17850700  0.23464700  1
  O  O85  1  0.52083300  0.70255000  0.10314500  1
  O  O86  1  0.82487900  0.52166600  0.21254900  1
  O  O87  1  0.31210900  0.18060600  0.06141700  1
  O  O88  1  0.69741900  0.82333400  0.06501800  1
  O  O89  1  0.87683900  0.70078200  0.14768900  1
  O  O90  1  0.49240700  0.31277500  0.02270300  1
  O  O91  1  0.69659100  0.17812600  0.11000500  1
  O  O92  1  0.81826300  0.12332700  0.16254800  1
  O  O93  1  0.82377000  0.51953800  0.08733100  1
  O  O94  1  0.86828200  0.68784200  0.02248100  1
  O  O95  1  0.82068500  0.13157400  0.03905900  1
loop_
_geom_bond_atom_site_label_1
_geom_bond_atom_site_label_2
_geom_bond_distance
_geom_bond_site_symmetry_2
La0 O25 2.586859 1_455
La0 O6 2.590888 1_555
La0 O18 2.600494 1_445
La0 O2 2.609739 1_555
La0 O4 2.619243 1_545
La0 O14 2.619930 1_445
La0 O10 2.630841 1_555
La0 O27 2.633714 1_445
La0 O24 2.638672 1_455
La0 O3 2.653766 1_545
La0 O7 2.655485 1_555
La0 O19 2.670384 1_445
La1 O22 2.578069 1_555
La1 O9 2.586309 1_555
La1 O17 2.594395 1_555
La1 O36 2.604486 1_455
La1 O32 2.617025 1_445
La1 O11 2.618360 1_545
La1 O16 2.620688 1_555
La1 O12 2.624816 1_545
La1 O37 2.626728 1_455
La1 O41 2.644623 1_445
La1 O26 2.651865 1_445
La1 O31 2.654295 1_445
La2 O28 2.575210 1_555
La2 O20 2.588480 1_555
La2 O50 2.589831 1_455
La2 O33 2.591976 1_555
La2 O42 2.603896 1_445
La2 O23 2.607941 1_545
La2 O48 2.614742 1_455
La2 O29 2.625747 1_555
La2 O38 2.632723 1_445
La2 O21 2.639045 1_545
La2 O53 2.643074 1_445
La2 O44 2.651733 1_445
La3 O40 2.586271 1_555
La3 O45 2.593451 1_555
La3 O62 2.597545 1_455
La3 O30 2.598270 1_555
La3 O56 2.601864 1_445
La3 O34 2.608784 1_545
La3 O60 2.608810 1_455
La3 O49 2.614466 1_445
La3 O35 2.617106 1_545
La3 O39 2.617254 1_555
La3 O55 2.620088 1_445
La3 O65 2.620618 1_445
La4 O68 2.598015 1_555
La4 O61 2.601709 1_555
La4 O59 2.604193 1_665
La4 O47 2.604677 1_655
La4 O52 2.604947 1_665
La4 O73 2.605004 1_565
La4 O72 2.605123 1_565
La4 O46 2.606309 1_655
La4 O51 2.606484 1_665
La4 O77 2.607144 1_555
La4 O43 2.608047 1_665
La4 O66 2.608458 1_555
La5 O78 2.576656 1_555
La5 O74 2.588842 1_555
La5 O57 2.597020 1_655
La5 O64 2.597329 1_665
La5 O86 2.598425 1_555
La5 O84 2.605384 1_565
La5 O58 2.612909 1_655
La5 O71 2.620084 1_665
La5 O80 2.623221 1_555
La5 O83 2.623541 1_565
La5 O54 2.626653 1_665
La5 O63 2.629254 1_665
La6 O88 2.526951 1_555
La6 O69 2.561712 1_655
La6 O93 2.564135 1_555
La6 O85 2.576520 1_555
La6 O75 2.584579 1_665
La6 O91 2.602671 1_565
La6 O70 2.631446 1_655
La6 O89 2.652995 1_555
La6 O82 2.657595 1_665
La6 O92 2.683552 1_565
La6 O67 2.686467 1_665
La6 O76 2.714920 1_665
Al0 O27 1.941227 1_555
Al0 O9 1.963718 1_555
Al0 O22 1.966007 1_555
Al0 O19 1.969367 1_555
Al0 O17 1.971942 1_555
Al0 O14 1.973434 1_555
Al1 O25 1.948935 1_565
Al1 O4 1.960499 1_555
Al1 O14 1.969568 1_555
Al1 O3 1.974748 1_555
Al1 O10 1.978431 1_565
Al1 O24 1.978875 1_565
Al2 O22 1.944081 1_555
Al2 O36 1.951722 1_555
Al2 O37 1.956587 1_555
Al2 O12 1.972413 1_545
Al2 O11 1.976392 1_545
Al2 O26 2.001674 1_545
Al3 O50 1.933405 1_555
Al3 O33 1.938770 1_555
Al3 O23 1.957350 1_545
Al3 O48 1.959402 1_555
Al3 O21 1.972597 1_545
Al3 O38 1.974747 1_545
Al4 O69 1.920360 1_555
Al4 O85 1.927206 1_555
Al4 O91 1.957030 1_565
Al4 O70 1.961186 1_555
Al4 O82 1.986762 1_565
Al4 O92 1.992386 1_565
Cu0 O6 1.940774 1_555
Cu0 O8 1.946195 1_545
Cu0 O13 1.950386 1_555
Cu0 O4 1.967328 1_545
Cu1 O24 1.944027 1_555
Cu1 O19 1.956144 1_545
Cu1 O11 1.962589 1_545
Cu1 O17 1.962769 1_555
Cu2 O18 1.953745 1_555
Cu2 O7 1.974928 1_555
Cu2 O14 1.978020 1_555
Cu2 O10 1.985301 1_555
Cu3 O2 1.958136 1_655
Cu3 O15 1.958516 1_555
Cu3 O25 1.967101 1_555
Cu3 O0 1.968226 1_655
Cu4 O31 1.990249 1_545
Cu4 O28 1.995587 1_555
Cu4 O37 2.000202 1_555
Cu4 O23 2.012446 1_545
Cu5 O22 1.985616 1_555
Cu5 O16 1.987180 1_555
Cu5 O32 1.993409 1_555
Cu5 O26 2.025288 1_555
Cu6 O27 1.985234 1_555
Cu6 O3 1.987418 1_655
Cu6 O36 2.000867 1_555
Cu6 O9 2.007591 1_655
Cu7 O42 1.987397 1_555
Cu7 O29 1.991285 1_555
Cu7 O33 1.993224 1_555
Cu7 O38 2.023342 1_555
Cu8 O41 1.981060 1_555
Cu8 O20 1.997927 1_655
Cu8 O12 2.003509 1_655
Cu8 O50 2.008551 1_555
Cu9 O48 1.978845 1_555
Cu9 O44 1.991787 1_545
Cu9 O40 2.004627 1_555
Cu9 O34 2.017189 1_545
Cu10 O60 1.996214 1_565
Cu10 O46 2.001165 1_555
Cu10 O55 2.006465 1_555
Cu10 O52 2.008344 1_565
Cu11 O56 1.996346 1_555
Cu11 O45 1.996779 1_555
Cu11 O39 1.999306 1_555
Cu11 O49 2.006128 1_555
Cu12 O53 1.984534 1_455
Cu12 O21 1.995218 1_555
Cu12 O30 1.997985 1_555
Cu12 O62 2.006326 1_455
Cu13 O58 1.990905 1_555
Cu13 O63 2.005616 1_565
Cu13 O73 2.006037 1_565
Cu13 O68 2.008771 1_555
Cu14 O51 2.003050 1_555
Cu14 O66 2.005025 1_555
Cu14 O61 2.007197 1_555
Cu14 O59 2.009043 1_555
Cu15 O65 2.002278 1_455
Cu15 O35 2.003744 1_555
Cu15 O43 2.005300 1_555
Cu15 O72 2.008171 1_455
Cu16 O70 1.964683 1_555
Cu16 O76 1.983273 1_565
Cu16 O78 2.001685 1_555
Cu16 O84 2.017854 1_565
Cu17 O74 1.989624 1_555
Cu17 O64 1.989742 1_555
Cu17 O80 1.996098 1_555
Cu17 O71 2.003059 1_555
Cu18 O54 1.992292 1_655
Cu18 O83 1.993512 1_555
Cu18 O77 2.000756 1_555
Cu18 O47 2.003483 1_655
Cu19 O75 1.979564 1_555
Cu19 O85 1.981186 1_555
Cu19 O89 1.991414 1_555
Cu19 O82 2.025122 1_555
Cu20 O88 1.961185 1_555
Cu20 O87 1.963082 1_565
Cu20 O81 1.969239 1_555
Cu20 O91 1.990457 1_565
Cu21 O67 1.963326 1_655
Cu21 O92 1.977818 1_555
Cu21 O86 1.989638 1_555
Cu21 O57 1.997660 1_655
Cu22 O1 1.939248 1_555
Cu22 O94 1.942091 1_556
Cu22 O5 1.945747 1_555
Cu22 O90 1.949142 1_556
Cu23 O79 1.955835 1_555
Cu23 O95 1.969150 1_455
Cu23 O93 1.975439 1_455
Cu23 O69 1.975810 1_555
O0 Ti0 1.923196 1_565
O0 Ti25 1.996716 1_555
O1 Ti0 1.892336 1_555
O1 Ti26 1.989045 1_555
O2 Ti1 1.984763 1_455
O2 Ti2 2.099330 1_555
O3 Ti4 1.976552 1_565
O4 Ti1 1.991544 1_455
O5 Ti2 1.936797 1_555
O5 Ti25 1.995796 1_555
O6 Ti0 2.054798 1_555
O6 Ti2 2.062712 1_555
O7 Ti4 1.971418 1_555
O7 Ti1 2.007596 1_455
O8 Ti2 1.938375 1_555
O8 Ti0 1.945224 1_665
O9 Ti3 1.940948 1_555
O10 Ti2 2.069157 1_555
O11 Ti3 2.023059 1_555
O12 Ti6 1.979998 1_565
O13 Ti26 1.992746 1_655
O13 Ti25 2.001664 1_545
O15 Ti2 1.903206 1_555
O15 Ti26 1.974212 1_655
O16 Ti6 1.949682 1_555
O16 Ti3 2.012024 1_555
O17 Ti4 2.014875 1_555
O18 Ti1 1.966061 1_555
O18 Ti0 2.102450 1_665
O19 Ti4 2.005087 1_665
O20 Ti5 1.945149 1_555
O20 Ti7 2.017911 1_555
O21 Ti8 1.928701 1_555
O23 Ti5 1.982158 1_555
O24 Ti1 2.022295 1_555
O25 Ti0 2.077029 1_655
O26 Ti7 1.959225 1_555
O27 Ti1 1.985985 1_555
O28 Ti6 1.981378 1_555
O28 Ti7 1.985014 1_555
O29 Ti8 1.952984 1_545
O29 Ti5 2.009278 1_555
O30 Ti9 1.959061 1_555
O30 Ti10 2.001859 1_555
O31 Ti6 1.976262 1_665
O31 Ti7 1.978356 1_555
O32 Ti3 1.949707 1_655
O32 Ti4 1.994850 1_665
O33 Ti7 2.024485 1_555
O34 Ti9 1.977485 1_555
O34 Ti13 1.980815 1_565
O35 Ti12 1.959924 1_555
O35 Ti13 2.004008 1_565
O36 Ti4 1.994587 1_655
O37 Ti3 1.973198 1_655
O38 Ti10 1.925193 1_555
O39 Ti12 1.973036 1_545
O39 Ti9 1.988000 1_555
O40 Ti10 1.972054 1_555
O40 Ti8 1.982183 1_545
O41 Ti7 1.950817 1_555
O41 Ti3 2.031270 1_655
O42 Ti5 1.955725 1_655
O42 Ti6 2.008742 1_665
O43 Ti15 1.975427 1_555
O43 Ti11 1.976634 1_455
O44 Ti8 1.976022 1_655
O44 Ti10 1.988573 1_555
O45 Ti13 1.948219 1_555
O45 Ti10 2.051107 1_555
O46 Ti18 1.976193 1_555
O46 Ti11 1.976978 1_455
O47 Ti18 1.968881 1_555
O47 Ti14 1.990901 1_455
O48 Ti5 1.996605 1_655
O49 Ti15 1.969654 1_555
O49 Ti13 2.004242 1_565
O50 Ti6 2.002718 1_655
O51 Ti11 1.967801 1_455
O51 Ti14 1.986772 1_445
O52 Ti12 1.975517 1_545
O52 Ti15 1.976185 1_555
O53 Ti10 1.949871 1_555
O53 Ti5 2.017618 1_655
O54 Ti17 1.959504 1_555
O54 Ti16 1.997222 1_555
O55 Ti12 1.974270 1_655
O55 Ti15 1.975746 1_555
O56 Ti9 1.958883 1_655
O56 Ti8 2.002128 1_655
O57 Ti21 1.949687 1_555
O57 Ti20 2.059567 1_455
O58 Ti16 1.977797 1_555
O58 Ti21 1.981384 1_555
O59 Ti18 1.975279 1_545
O59 Ti15 1.980422 1_555
O60 Ti9 1.975956 1_655
O60 Ti13 1.980334 1_555
O61 Ti18 1.968006 1_555
O61 Ti17 1.989650 1_555
O62 Ti13 1.952361 1_555
O62 Ti8 2.045161 1_645
O63 Ti14 1.973553 1_445
O63 Ti17 1.974752 1_555
O64 Ti16 1.948444 1_555
O64 Ti20 2.027605 1_445
O65 Ti15 1.962562 1_555
O65 Ti9 1.988777 1_655
O66 Ti11 1.974701 1_555
O66 Ti12 1.977626 1_655
O67 Ti22 1.935094 1_555
O67 Ti19 2.060191 1_455
O68 Ti14 1.976483 1_555
O68 Ti17 1.977571 1_555
O69 Ti23 2.075761 1_455
O70 Ti19 1.997394 1_455
O71 Ti17 1.961847 1_555
O71 Ti21 2.015365 1_545
O72 Ti18 1.975591 1_545
O72 Ti12 1.979450 1_645
O73 Ti18 1.974815 1_545
O73 Ti11 1.975054 1_555
O74 Ti21 1.939678 1_555
O74 Ti22 2.070297 1_555
O75 Ti19 1.921154 1_455
O75 Ti23 2.112542 1_445
O76 Ti20 1.974619 1_445
O76 Ti22 1.987194 1_555
O77 Ti11 1.970245 1_555
O77 Ti17 1.986711 1_555
O78 Ti22 1.979573 1_555
O78 Ti20 1.988099 1_555
O79 Ti24 1.882806 1_555
O79 Ti26 1.983681 1_554
O80 Ti14 1.964799 1_555
O80 Ti16 2.000902 1_655
O81 Ti26 1.981294 1_554
O81 Ti25 1.988346 1_554
O82 Ti22 1.911944 1_555
O83 Ti14 1.957428 1_545
O83 Ti21 2.010842 1_545
O84 Ti16 1.977394 1_655
O84 Ti21 1.980915 1_545
O85 Ti24 2.074081 1_555
O86 Ti16 1.955555 1_655
O86 Ti22 2.023656 1_555
O87 Ti24 1.931874 1_555
O87 Ti23 1.938850 1_445
O88 Ti23 2.051657 1_555
O88 Ti24 2.059846 1_555
O89 Ti20 1.927793 1_555
O89 Ti19 2.048451 1_555
O90 Ti24 1.924789 1_555
O90 Ti25 2.004309 1_544
O91 Ti19 1.994943 1_555
O92 Ti20 1.924412 1_545
O93 Ti19 1.919397 1_555
O93 Ti24 2.113154 1_555
O94 Ti23 1.885590 1_555
O94 Ti26 1.993454 1_654
O95 Ti23 1.922293 1_545
O95 Ti25 1.994523 1_544
