# generated using pymatgen
data_Li3V2(PO4)3
_symmetry_space_group_name_H-M   'P 1'
_cell_length_a   8.74219100
_cell_length_b   8.75510600
_cell_length_c   15.07624624
_cell_angle_alpha   54.95031789
_cell_angle_beta   90.00000000
_cell_angle_gamma   90.00000000
_symmetry_Int_Tables_number   1
_chemical_formula_structural   Li3V2(PO4)3
_chemical_formula_sum   'Li12 V8 P12 O48'
_cell_volume   944.65996578
_cell_formula_units_Z   4
loop_
 _symmetry_equiv_pos_site_id
 _symmetry_equiv_pos_as_xyz
  1  'x, y, z'
loop_
 _atom_site_type_symbol
 _atom_site_label
 _atom_site_symmetry_multiplicity
 _atom_site_fract_x
 _atom_site_fract_y
 _atom_site_fract_z
 _atom_site_occupancy
  Li  Li0  1  0.09648200  0.34216900  0.70719700  1
  Li  Li1  1  0.21484300  0.94838100  0.82499600  1
  Li  Li2  1  0.59648200  0.65783100  0.79280300  1
  Li  Li3  1  0.71484300  0.05161900  0.67500400  1
  Li  Li4  1  0.90351800  0.65783100  0.29280300  1
  Li  Li5  1  0.78515700  0.05161900  0.17500400  1
  Li  Li6  1  0.28515700  0.94838100  0.32499600  1
  Li  Li7  1  0.72846600  0.38961400  0.77919200  1
  Li  Li8  1  0.40351800  0.34216900  0.20719700  1
  Li  Li9  1  0.77153400  0.38961400  0.27919200  1
  Li  Li10  1  0.22846600  0.61038600  0.72080800  1
  Li  Li11  1  0.27153400  0.61038600  0.22080800  1
  V  V0  1  0.96268500  0.86759500  0.38824900  1
  V  V1  1  0.46268500  0.13240500  0.11175100  1
  V  V2  1  0.03731500  0.13240500  0.61175100  1
  V  V3  1  0.53073400  0.63675300  0.60772500  1
  V  V4  1  0.96926600  0.63675300  0.10772500  1
  V  V5  1  0.03073400  0.36324700  0.89227500  1
  V  V6  1  0.46926600  0.36324700  0.39227500  1
  V  V7  1  0.53731500  0.86759500  0.88824900  1
  P  P0  1  0.89438700  0.03903800  0.85415100  1
  P  P1  1  0.60561300  0.03903800  0.35415100  1
  P  P2  1  0.25331900  0.53902100  0.99647200  1
  P  P3  1  0.75331900  0.46097900  0.50352800  1
  P  P4  1  0.24668100  0.53902100  0.49647200  1
  P  P5  1  0.10561300  0.96096200  0.14584900  1
  P  P6  1  0.60817200  0.74887700  0.14672600  1
  P  P7  1  0.39182800  0.25112300  0.85327400  1
  P  P8  1  0.39438700  0.96096200  0.64584900  1
  P  P9  1  0.89182800  0.74887700  0.64672600  1
  P  P10  1  0.74668100  0.46097900  0.00352800  1
  P  P11  1  0.10817200  0.25112300  0.35327400  1
  O  O0  1  0.11218100  0.78471500  0.14427000  1
  O  O1  1  0.27612200  0.33050100  0.31884800  1
  O  O2  1  0.94767400  0.86725200  0.96111500  1
  O  O3  1  0.16449100  0.73009900  0.42929100  1
  O  O4  1  0.73503300  0.01640500  0.81766500  1
  O  O5  1  0.92179800  0.82580800  0.52969100  1
  O  O6  1  0.09594100  0.09777700  0.33190700  1
  O  O7  1  0.48245700  0.08422100  0.26639100  1
  O  O8  1  0.64967400  0.45915100  0.42065900  1
  O  O9  1  0.13431400  0.37573800  0.56908400  1
  O  O10  1  0.98245700  0.91577900  0.23360900  1
  O  O11  1  0.33008100  0.52024600  0.41297800  1
  O  O12  1  0.66991900  0.47975400  0.58702200  1
  O  O13  1  0.76496700  0.01640500  0.31766500  1
  O  O14  1  0.07820200  0.17419200  0.47030900  1
  O  O15  1  0.90405900  0.90222300  0.66809300  1
  O  O16  1  0.63431400  0.62426200  0.93091600  1
  O  O17  1  0.14967400  0.54084900  0.07934100  1
  O  O18  1  0.49416800  0.58377200  0.22067100  1
  O  O19  1  0.40405900  0.09777700  0.83190700  1
  O  O20  1  0.57820200  0.82580800  0.02969100  1
  O  O21  1  0.77612200  0.66949900  0.18115200  1
  O  O22  1  0.44767400  0.13274800  0.53888500  1
  O  O23  1  0.35032600  0.54084900  0.57934100  1
  O  O24  1  0.05232600  0.13274800  0.03888500  1
  O  O25  1  0.16991900  0.52024600  0.91297800  1
  O  O26  1  0.23503300  0.98359500  0.68233500  1
  O  O27  1  0.22387800  0.33050100  0.81884800  1
  O  O28  1  0.61218100  0.21528500  0.35573000  1
  O  O29  1  0.86568600  0.62426200  0.43091600  1
  O  O30  1  0.72387800  0.66949900  0.68115200  1
  O  O31  1  0.50583200  0.41622800  0.77932900  1
  O  O32  1  0.99416800  0.41622800  0.27932900  1
  O  O33  1  0.83550900  0.26990100  0.57070900  1
  O  O34  1  0.59594100  0.90222300  0.16809300  1
  O  O35  1  0.55232600  0.86725200  0.46111500  1
  O  O36  1  0.51754300  0.91577900  0.73360900  1
  O  O37  1  0.88781900  0.21528500  0.85573000  1
  O  O38  1  0.42179800  0.17419200  0.97030900  1
  O  O39  1  0.38781900  0.78471500  0.64427000  1
  O  O40  1  0.66449100  0.26990100  0.07070900  1
  O  O41  1  0.01754300  0.08422100  0.76639100  1
  O  O42  1  0.83008100  0.47975400  0.08702200  1
  O  O43  1  0.33550900  0.73009900  0.92929100  1
  O  O44  1  0.36568600  0.37573800  0.06908400  1
  O  O45  1  0.85032600  0.45915100  0.92065900  1
  O  O46  1  0.00583200  0.58377200  0.72067100  1
  O  O47  1  0.26496700  0.98359500  0.18233500  1
loop_
_geom_bond_atom_site_label_1
_geom_bond_atom_site_label_2
_geom_bond_distance
_geom_bond_site_symmetry_2
Li0 O9 1.956665 1_555
Li0 O27 1.971479 1_555
Li0 O41 2.014449 1_555
Li0 O46 2.374267 1_555
Li0 O37 2.592104 1_455
Li1 O43 1.945763 1_555
Li1 O41 1.990781 1_565
Li1 O26 1.997624 1_555
Li1 O19 2.148126 1_565
Li2 O16 1.956665 1_555
Li2 O30 1.971479 1_555
Li2 O36 2.014449 1_555
Li2 O31 2.374267 1_555
Li2 O39 2.592104 1_555
Li3 O33 1.945763 1_555
Li3 O36 1.990781 1_545
Li3 O4 1.997624 1_555
Li3 O15 2.148126 1_545
Li4 O29 1.956665 1_555
Li4 O21 1.971479 1_555
Li4 O10 2.014449 1_555
Li4 O32 2.374267 1_555
Li4 O0 2.592104 1_655
Li5 O40 1.945763 1_555
Li5 O10 1.990781 1_545
Li5 O13 1.997624 1_555
Li5 O34 2.148126 1_545
Li6 O3 1.945763 1_555
Li6 O7 1.990781 1_565
Li6 O47 1.997624 1_555
Li6 O6 2.148126 1_565
Li7 O37 1.891791 1_555
Li7 O31 1.960349 1_555
Li7 O30 2.007700 1_555
Li8 O44 1.956665 1_555
Li8 O1 1.971479 1_555
Li8 O7 2.014449 1_555
Li8 O18 2.374267 1_555
Li8 O28 2.592104 1_555
Li9 O28 1.891791 1_555
Li9 O32 1.960349 1_555
Li9 O21 2.007700 1_555
Li10 O39 1.891791 1_555
Li10 O46 1.960349 1_555
Li10 O27 2.007700 1_555
Li11 O0 1.891791 1_555
Li11 O18 1.960349 1_555
Li11 O1 2.007700 1_555
O0 P5 1.557913 1_555
O0 V4 2.088642 1_455
O1 P11 1.579185 1_555
O1 V6 2.126785 1_555
O2 P0 1.514544 1_565
O2 V4 1.967340 1_556
O3 P4 1.547453 1_555
O3 V0 2.022115 1_455
O4 P0 1.551700 1_555
O4 V7 2.055501 1_545
O5 P9 1.506846 1_555
O5 V0 1.978067 1_555
O6 P11 1.553838 1_555
O6 V0 2.042984 1_445
O7 P1 1.570059 1_555
O7 V1 2.124521 1_555
O8 P3 1.550837 1_555
O8 V6 1.946345 1_555
O9 P4 1.552273 1_555
O9 V2 2.024224 1_555
O10 P5 1.570059 1_655
O10 V0 2.124521 1_555
O11 P4 1.542977 1_555
O11 V6 1.990004 1_555
O12 P3 1.542977 1_555
O12 V3 1.990004 1_555
O13 P1 1.551700 1_555
O13 V0 2.055501 1_545
O14 P11 1.506846 1_555
O14 V2 1.978067 1_555
O15 P9 1.553838 1_555
O15 V2 2.042984 1_665
O16 P10 1.552273 1_556
O16 V7 2.024224 1_555
O17 P2 1.550837 1_554
O17 V4 1.946345 1_455
O18 P6 1.573123 1_555
O18 V6 2.175134 1_555
O19 P7 1.553838 1_555
O19 V7 2.042984 1_545
O20 P6 1.506846 1_555
O20 V7 1.978067 1_554
O21 P6 1.579185 1_555
O21 V4 2.126785 1_555
O22 P8 1.514544 1_545
O22 V6 1.967340 1_555
O23 P4 1.550837 1_555
O23 V3 1.946345 1_555
O24 P5 1.514544 1_545
O24 V5 1.967340 1_554
O25 P2 1.542977 1_555
O25 V5 1.990004 1_555
O26 P8 1.551700 1_555
O26 V2 2.055501 1_565
O27 P7 1.579185 1_555
O27 V5 2.126785 1_555
O28 P1 1.557913 1_555
O28 V6 2.088642 1_555
O29 P3 1.552273 1_555
O29 V0 2.024224 1_555
O30 P9 1.579185 1_555
O30 V3 2.126785 1_555
O31 P7 1.573123 1_555
O31 V3 2.175134 1_555
O32 P11 1.573123 1_655
O32 V4 2.175134 1_555
O33 P3 1.547453 1_555
O33 V2 2.022115 1_655
O34 P6 1.553838 1_555
O34 V1 2.042984 1_565
O35 P1 1.514544 1_565
O35 V3 1.967340 1_555
O36 P8 1.570059 1_555
O36 V7 2.124521 1_555
O37 P0 1.557913 1_555
O37 V5 2.088642 1_655
O38 P7 1.506846 1_555
O38 V1 1.978067 1_556
O39 P8 1.557913 1_555
O39 V3 2.088642 1_555
O40 P10 1.547453 1_555
O40 V1 2.022115 1_555
O41 P0 1.570059 1_455
O41 V2 2.124521 1_555
O42 P10 1.542977 1_555
O42 V4 1.990004 1_555
O43 P2 1.547453 1_555
O43 V7 2.022115 1_555
O44 P2 1.552273 1_554
O44 V1 2.024224 1_555
O45 P10 1.550837 1_556
O45 V5 1.946345 1_655
O46 P9 1.573123 1_455
O46 V5 2.175134 1_555
O47 P5 1.551700 1_555
O47 V1 2.055501 1_565
