# generated using pymatgen
data_AlC3(NCl2)3
_symmetry_space_group_name_H-M   'P 1'
_cell_length_a   7.45895300
_cell_length_b   9.93290338
_cell_length_c   16.43658073
_cell_angle_alpha   106.92214882
_cell_angle_beta   89.90099079
_cell_angle_gamma   92.79537384
_symmetry_Int_Tables_number   1
_chemical_formula_structural   AlC3(NCl2)3
_chemical_formula_sum   'Al4 C12 N12 Cl24'
_cell_volume   1163.55735765
_cell_formula_units_Z   4
loop_
 _symmetry_equiv_pos_site_id
 _symmetry_equiv_pos_as_xyz
  1  'x, y, z'
loop_
 _atom_site_type_symbol
 _atom_site_label
 _atom_site_symmetry_multiplicity
 _atom_site_fract_x
 _atom_site_fract_y
 _atom_site_fract_z
 _atom_site_occupancy
  Al  Al0  1  0.55206500  0.82605900  0.58625400  1
  Al  Al1  1  0.94631100  0.17018000  0.14777700  1
  Al  Al2  1  0.44793500  0.17394100  0.41374600  1
  Al  Al3  1  0.05368900  0.82982000  0.85222300  1
  C  C0  1  0.49870100  0.29659300  0.60534700  1
  C  C1  1  0.76185700  0.29787500  0.53499700  1
  C  C2  1  0.73824000  0.67523300  0.06126900  1
  C  C3  1  0.26061900  0.29961200  0.07013500  1
  C  C4  1  0.26176000  0.32476700  0.93873100  1
  C  C5  1  0.23765100  0.68312200  0.32579600  1
  C  C6  1  0.50129900  0.70340700  0.39465300  1
  C  C7  1  0.99800300  0.29534400  0.99887700  1
  C  C8  1  0.23814300  0.70212500  0.46500300  1
  C  C9  1  0.00199700  0.70465600  0.00112300  1
  C  C10  1  0.73938100  0.70038800  0.92986500  1
  C  C11  1  0.76234900  0.31687800  0.67420400  1
  N  N0  1  0.58355000  0.31874900  0.67894700  1
  N  N1  1  0.41959800  0.73283000  0.47212200  1
  N  N2  1  0.58040200  0.26717000  0.52787800  1
  N  N3  1  0.07937800  0.26656600  0.06590000  1
  N  N4  1  0.08205400  0.32248900  0.93413700  1
  N  N5  1  0.91794600  0.67751100  0.06586300  1
  N  N6  1  0.85746400  0.32013900  0.60561500  1
  N  N7  1  0.14253600  0.67986100  0.39438500  1
  N  N8  1  0.35577500  0.32668100  0.00824100  1
  N  N9  1  0.64422500  0.67331900  0.99175900  1
  N  N10  1  0.41645000  0.68125100  0.32105300  1
  N  N11  1  0.92062200  0.73343400  0.93410000  1
  Cl  Cl0  1  0.76725600  0.96049000  0.56262900  1
  Cl  Cl1  1  0.63138100  0.68788200  0.83779600  1
  Cl  Cl2  1  0.36861900  0.31211800  0.16220400  1
  Cl  Cl3  1  0.62244900  0.66909200  0.14882000  1
  Cl  Cl4  1  0.12536800  0.03692600  0.18419900  1
  Cl  Cl5  1  0.37755100  0.33090800  0.85118000  1
  Cl  Cl6  1  0.37736700  0.96010000  0.67230100  1
  Cl  Cl7  1  0.22802900  0.69608900  0.00026000  1
  Cl  Cl8  1  0.63503100  0.64486200  0.61919700  1
  Cl  Cl9  1  0.27455000  0.31217100  0.60836500  1
  Cl  Cl10  1  0.62263300  0.03990000  0.32769900  1
  Cl  Cl11  1  0.36496900  0.35513800  0.38080300  1
  Cl  Cl12  1  0.73383100  0.03384400  0.07565000  1
  Cl  Cl13  1  0.12188500  0.68401700  0.23735900  1
  Cl  Cl14  1  0.72545000  0.68782900  0.39163500  1
  Cl  Cl15  1  0.23274400  0.03951000  0.43737100  1
  Cl  Cl16  1  0.13071100  0.68670300  0.55239000  1
  Cl  Cl17  1  0.87811500  0.31598300  0.76264100  1
  Cl  Cl18  1  0.86267800  0.35187200  0.24233100  1
  Cl  Cl19  1  0.86928900  0.31329700  0.44761000  1
  Cl  Cl20  1  0.26616900  0.96615600  0.92435000  1
  Cl  Cl21  1  0.77197100  0.30391100  0.99974000  1
  Cl  Cl22  1  0.87463200  0.96307400  0.81580100  1
  Cl  Cl23  1  0.13732200  0.64812800  0.75766900  1
loop_
_geom_bond_atom_site_label_1
_geom_bond_atom_site_label_2
_geom_bond_distance
_geom_bond_site_symmetry_2
Al0 N1 2.063694 1_555
Al0 Cl6 2.130162 1_555
Al0 Cl8 2.143035 1_555
Al0 Cl0 2.144942 1_555
Al1 N3 2.089404 1_655
Al1 Cl4 2.128505 1_655
Al1 Cl18 2.129604 1_555
Al1 Cl12 2.147962 1_555
Al2 N2 2.063694 1_555
Al2 Cl10 2.130162 1_555
Al2 Cl11 2.143035 1_555
Al2 Cl15 2.144942 1_555
Al3 N11 2.089404 1_455
Al3 Cl22 2.128505 1_455
Al3 Cl23 2.129604 1_555
Al3 Cl20 2.147962 1_555
C0 N0 1.321554 1_555
C0 N2 1.369743 1_555
C0 Cl9 1.685894 1_555
C1 N6 1.320141 1_555
C1 N2 1.370433 1_555
C1 Cl19 1.685472 1_555
C2 N9 1.336512 1_554
C2 N5 1.341392 1_555
C2 Cl3 1.691793 1_555
C3 N8 1.322549 1_555
C3 N3 1.372544 1_555
C3 Cl2 1.685071 1_555
C4 N8 1.336512 1_556
C4 N4 1.341392 1_555
C4 Cl5 1.691793 1_555
C5 N10 1.336514 1_555
C5 N7 1.338504 1_555
C5 Cl13 1.694481 1_555
C6 N10 1.321554 1_555
C6 N1 1.369743 1_555
C6 Cl14 1.685894 1_555
C7 N4 1.321474 1_655
C7 N3 1.366112 1_656
C7 Cl21 1.692075 1_555
C8 N7 1.320141 1_555
C8 N1 1.370433 1_555
C8 Cl16 1.685472 1_555
C9 N5 1.321474 1_455
C9 N11 1.366112 1_454
C9 Cl7 1.692075 1_555
C10 N9 1.322549 1_555
C10 N11 1.372544 1_555
C10 Cl1 1.685071 1_555
C11 N0 1.336514 1_555
C11 N6 1.338504 1_555
C11 Cl17 1.694481 1_555
