# generated using pymatgen
data_KYb(PO3)4
_symmetry_space_group_name_H-M   'P 1'
_cell_length_a   9.11006800
_cell_length_b   7.90065700
_cell_length_c   16.41983468
_cell_angle_alpha   67.77549405
_cell_angle_beta   90.00000000
_cell_angle_gamma   90.00000000
_symmetry_Int_Tables_number   1
_chemical_formula_structural   KYb(PO3)4
_chemical_formula_sum   'K4 Yb4 P16 O48'
_cell_volume   1094.02700654
_cell_formula_units_Z   4
loop_
 _symmetry_equiv_pos_site_id
 _symmetry_equiv_pos_as_xyz
  1  'x, y, z'
loop_
 _atom_site_type_symbol
 _atom_site_label
 _atom_site_symmetry_multiplicity
 _atom_site_fract_x
 _atom_site_fract_y
 _atom_site_fract_z
 _atom_site_occupancy
  K  K0  1  0.35303000  0.19338100  0.88840000  1
  K  K1  1  0.85303000  0.80661900  0.61160000  1
  K  K2  1  0.64697000  0.80661900  0.11160000  1
  K  K3  1  0.14697000  0.19338100  0.38840000  1
  Yb  Yb0  1  0.15711600  0.69466800  0.85247800  1
  Yb  Yb1  1  0.84288400  0.30533200  0.14752200  1
  Yb  Yb2  1  0.34288400  0.69466800  0.35247800  1
  Yb  Yb3  1  0.65711600  0.30533200  0.64752200  1
  P  P0  1  0.22704000  0.75901900  0.05420700  1
  P  P1  1  0.45430100  0.64591500  0.71797100  1
  P  P2  1  0.77039800  0.62910400  0.92699300  1
  P  P3  1  0.03428700  0.11843500  0.68797700  1
  P  P4  1  0.72960200  0.62910400  0.42699300  1
  P  P5  1  0.77296000  0.24098100  0.94579300  1
  P  P6  1  0.72704000  0.24098100  0.44579300  1
  P  P7  1  0.95430100  0.35408500  0.78202900  1
  P  P8  1  0.46571300  0.11843500  0.18797700  1
  P  P9  1  0.96571300  0.88156500  0.31202300  1
  P  P10  1  0.22960200  0.37089600  0.07300700  1
  P  P11  1  0.27039800  0.37089600  0.57300700  1
  P  P12  1  0.04569900  0.64591500  0.21797100  1
  P  P13  1  0.53428700  0.88156500  0.81202300  1
  P  P14  1  0.54569900  0.35408500  0.28202900  1
  P  P15  1  0.27296000  0.75901900  0.55420700  1
  O  O0  1  0.65940400  0.42776000  0.21174200  1
  O  O1  1  0.89795100  0.72442300  0.87094800  1
  O  O2  1  0.93880600  0.78786800  0.23989300  1
  O  O3  1  0.71842800  0.57213700  0.52490800  1
  O  O4  1  0.88035700  0.21519600  0.87345400  1
  O  O5  1  0.35731300  0.79850500  0.47033000  1
  O  O6  1  0.87817200  0.74710000  0.39780700  1
  O  O7  1  0.85731300  0.20149500  0.02967000  1
  O  O8  1  0.27578700  0.54602800  0.09764000  1
  O  O9  1  0.10624900  0.93489200  0.72282200  1
  O  O10  1  0.62399400  0.12655900  0.16169400  1
  O  O11  1  0.56119400  0.78786800  0.73989300  1
  O  O12  1  0.45143300  0.48634700  0.30317800  1
  O  O13  1  0.95143300  0.51365300  0.19682200  1
  O  O14  1  0.62182800  0.74710000  0.89780700  1
  O  O15  1  0.12399400  0.87344100  0.33830600  1
  O  O16  1  0.12182800  0.25290000  0.60219300  1
  O  O17  1  0.37817200  0.25290000  0.10219300  1
  O  O18  1  0.78157200  0.57213700  0.02490800  1
  O  O19  1  0.77578700  0.45397200  0.40236000  1
  O  O20  1  0.63876400  0.12527900  0.95416400  1
  O  O21  1  0.54856700  0.51365300  0.69682200  1
  O  O22  1  0.06119400  0.21213200  0.76010700  1
  O  O23  1  0.34059600  0.57224000  0.78825800  1
  O  O24  1  0.22421300  0.54602800  0.59764000  1
  O  O25  1  0.15940400  0.57224000  0.28825800  1
  O  O26  1  0.39375100  0.93489200  0.22282200  1
  O  O27  1  0.60624900  0.06510800  0.77717800  1
  O  O28  1  0.86123600  0.12527900  0.45416400  1
  O  O29  1  0.39795100  0.27557700  0.62905200  1
  O  O30  1  0.43880600  0.21213200  0.26010700  1
  O  O31  1  0.84059600  0.42776000  0.71174200  1
  O  O32  1  0.04856700  0.48634700  0.80317800  1
  O  O33  1  0.64268700  0.20149500  0.52967000  1
  O  O34  1  0.28157200  0.42786300  0.47509200  1
  O  O35  1  0.38035700  0.78480400  0.62654600  1
  O  O36  1  0.13876400  0.87472100  0.54583600  1
  O  O37  1  0.89375100  0.06510800  0.27717800  1
  O  O38  1  0.37600600  0.87344100  0.83830600  1
  O  O39  1  0.60204900  0.72442300  0.37094800  1
  O  O40  1  0.61964300  0.21519600  0.37345400  1
  O  O41  1  0.11964300  0.78480400  0.12654600  1
  O  O42  1  0.21842800  0.42786300  0.97509200  1
  O  O43  1  0.87600600  0.12655900  0.66169400  1
  O  O44  1  0.72421300  0.45397200  0.90236000  1
  O  O45  1  0.36123600  0.87472100  0.04583600  1
  O  O46  1  0.14268700  0.79850500  0.97033000  1
  O  O47  1  0.10204900  0.27557700  0.12905200  1
loop_
_geom_bond_atom_site_label_1
_geom_bond_atom_site_label_2
_geom_bond_distance
_geom_bond_site_symmetry_2
K0 O20 2.791402 1_555
K0 O23 2.820077 1_555
K0 O45 2.846631 1_546
K0 O38 2.946634 1_545
K0 O42 2.992785 1_555
K1 O36 2.791402 1_655
K1 O31 2.820077 1_555
K1 O28 2.846631 1_565
K1 O43 2.946634 1_565
K1 O3 2.992785 1_555
K2 O45 2.791402 1_555
K2 O0 2.820077 1_555
K2 O20 2.846631 1_564
K2 O10 2.946634 1_565
K2 O18 2.992785 1_555
K3 O28 2.791402 1_455
K3 O25 2.820077 1_555
K3 O36 2.846631 1_545
K3 O15 2.946634 1_545
K3 O34 2.992785 1_555
O0 P14 1.495189 1_555
O0 Yb1 2.369190 1_555
O1 P2 1.496670 1_555
O1 Yb0 2.403236 1_655
O2 P12 1.625133 1_655
O2 P9 1.635247 1_555
O3 P4 1.500131 1_555
O3 Yb3 2.366084 1_555
O4 P5 1.610174 1_555
O4 P7 1.632580 1_555
O5 P15 1.503211 1_555
O5 Yb2 2.374000 1_555
O6 P4 1.610185 1_555
O6 P9 1.617615 1_555
O7 P5 1.503211 1_554
O7 Yb1 2.374000 1_555
O8 P0 1.621632 1_555
O8 P10 1.636610 1_555
O9 P3 1.494098 1_565
O9 Yb0 2.300574 1_555
O10 P8 1.499544 1_555
O10 Yb1 2.403519 1_555
O11 P1 1.625133 1_555
O11 P13 1.635247 1_555
O12 P14 1.491481 1_555
O12 Yb2 2.312998 1_555
O13 P12 1.491481 1_655
O13 Yb1 2.312998 1_555
O14 P2 1.610185 1_555
O14 P13 1.617615 1_555
O15 P9 1.499544 1_455
O15 Yb2 2.403519 1_555
O16 P11 1.610185 1_555
O16 P3 1.617615 1_555
O17 P10 1.610185 1_555
O17 P8 1.617615 1_555
O18 P2 1.500131 1_554
O18 Yb1 2.366084 1_555
O19 P6 1.621632 1_555
O19 P4 1.636610 1_555
O20 P5 1.501351 1_555
O21 P1 1.491481 1_555
O21 Yb3 2.312998 1_555
O22 P7 1.625133 1_455
O22 P3 1.635247 1_555
O23 P1 1.495189 1_555
O23 Yb0 2.369190 1_555
O24 P15 1.621632 1_555
O24 P11 1.636610 1_555
O25 P12 1.495189 1_555
O25 Yb2 2.369190 1_555
O26 P8 1.494098 1_565
O26 Yb2 2.300574 1_555
O27 P13 1.494098 1_545
O27 Yb3 2.300574 1_555
O28 P6 1.501351 1_555
O29 P11 1.496670 1_555
O29 Yb3 2.403236 1_555
O30 P14 1.625133 1_555
O30 P8 1.635247 1_555
O31 P7 1.495189 1_555
O31 Yb3 2.369190 1_555
O32 P7 1.491481 1_455
O32 Yb0 2.312998 1_555
O33 P6 1.503211 1_555
O33 Yb3 2.374000 1_555
O34 P11 1.500131 1_555
O34 Yb2 2.366084 1_555
O35 P15 1.610174 1_555
O35 P1 1.632580 1_555
O36 P15 1.501351 1_555
O37 P9 1.494098 1_545
O37 Yb1 2.300574 1_555
O38 P13 1.499544 1_555
O38 Yb0 2.403519 1_555
O39 P4 1.496670 1_555
O39 Yb2 2.403236 1_555
O40 P6 1.610174 1_555
O40 P14 1.632580 1_555
O41 P0 1.610174 1_555
O41 P12 1.632580 1_555
O42 P10 1.500131 1_556
O42 Yb0 2.366084 1_555
O43 P3 1.499544 1_655
O43 Yb3 2.403519 1_555
O44 P5 1.621632 1_555
O44 P2 1.636610 1_555
O45 P0 1.501351 1_555
O46 P0 1.503211 1_556
O46 Yb0 2.374000 1_555
O47 P10 1.496670 1_555
O47 Yb1 2.403236 1_455
