# generated using pymatgen
data_Ba2Ho(CuO2)4
_symmetry_space_group_name_H-M   'P 1'
_cell_length_a   13.87398175
_cell_length_b   13.87398175
_cell_length_c   3.87946000
_cell_angle_alpha   90.00000000
_cell_angle_beta   90.00000000
_cell_angle_gamma   163.86412868
_symmetry_Int_Tables_number   1
_chemical_formula_structural   Ba2Ho(CuO2)4
_chemical_formula_sum   'Ba2 Ho1 Cu4 O8'
_cell_volume   207.53304020
_cell_formula_units_Z   1
loop_
 _symmetry_equiv_pos_site_id
 _symmetry_equiv_pos_as_xyz
  1  'x, y, z'
loop_
 _atom_site_type_symbol
 _atom_site_label
 _atom_site_symmetry_multiplicity
 _atom_site_fract_x
 _atom_site_fract_y
 _atom_site_fract_z
 _atom_site_occupancy
  Ba  Ba0  1  0.63554700  0.36445300  0.50000000  1
  Ba  Ba1  1  0.36445300  0.63554700  0.50000000  1
  Ho  Ho0  1  0.50000000  0.50000000  0.50000000  1
  Cu  Cu0  1  0.06091700  0.93908300  0.00000000  1
  Cu  Cu1  1  0.93908300  0.06091700  0.00000000  1
  Cu  Cu2  1  0.21260300  0.78739700  0.00000000  1
  Cu  Cu3  1  0.78739700  0.21260300  0.00000000  1
  O  O0  1  0.71845500  0.28154500  0.00000000  1
  O  O1  1  0.28154500  0.71845500  0.00000000  1
  O  O2  1  0.55149200  0.44850800  0.00000000  1
  O  O3  1  0.44850800  0.55149200  0.00000000  1
  O  O4  1  0.05161000  0.94839000  0.50000000  1
  O  O5  1  0.94839000  0.05161000  0.50000000  1
  O  O6  1  0.14524900  0.85475100  0.00000000  1
  O  O7  1  0.85475100  0.14524900  0.00000000  1
loop_
_geom_bond_atom_site_label_1
_geom_bond_atom_site_label_2
_geom_bond_distance
_geom_bond_site_symmetry_2
Ba0 O6 2.761356 1_655
Ba0 O6 2.761356 1_656
Ba0 O6 2.761356 1_546
Ba0 O6 2.761356 1_545
Ba0 O0 2.991778 1_555
Ba0 O0 2.991778 1_556
Ba0 O2 3.015838 1_555
Ba0 O2 3.015838 1_556
Ba0 O4 3.018154 1_545
Ba0 O4 3.018154 1_655
Ba1 O7 2.761356 1_455
Ba1 O7 2.761356 1_456
Ba1 O7 2.761356 1_566
Ba1 O7 2.761356 1_565
Ba1 O1 2.991778 1_555
Ba1 O1 2.991778 1_556
Ba1 O3 3.015838 1_555
Ba1 O3 3.015838 1_556
Ba1 O5 3.018154 1_455
Ba1 O5 3.018154 1_565
Ho0 O3 2.400793 1_555
Ho0 O2 2.400793 1_555
Ho0 O2 2.400793 1_556
Ho0 O3 2.400793 1_556
Ho0 O4 2.408718 1_545
Ho0 O5 2.408718 1_565
Ho0 O4 2.408718 1_655
Ho0 O5 2.408718 1_455
Cu0 O4 1.956510 1_555
Cu0 O4 1.956510 1_554
Cu0 O2 1.964315 1_565
Cu0 O2 1.964315 1_455
Cu0 O6 2.316880 1_555
Cu1 O5 1.956510 1_555
Cu1 O5 1.956510 1_554
Cu1 O3 1.964315 1_655
Cu1 O3 1.964315 1_545
Cu1 O7 2.316880 1_555
Cu2 O6 1.850438 1_555
Cu2 O1 1.894066 1_555
Cu2 O0 1.953800 1_565
Cu2 O0 1.953800 1_455
Cu3 O7 1.850438 1_555
Cu3 O0 1.894066 1_555
Cu3 O1 1.953800 1_655
Cu3 O1 1.953800 1_545
