# generated using pymatgen
data_K2Sn(H2N)6
_symmetry_space_group_name_H-M   'P 1'
_cell_length_a   7.69583830
_cell_length_b   7.69583830
_cell_length_c   7.69583906
_cell_angle_alpha   50.30117005
_cell_angle_beta   50.30117005
_cell_angle_gamma   50.30117424
_symmetry_Int_Tables_number   1
_chemical_formula_structural   K2Sn(H2N)6
_chemical_formula_sum   'K2 Sn1 H12 N6'
_cell_volume   248.48649077
_cell_formula_units_Z   1
loop_
 _symmetry_equiv_pos_site_id
 _symmetry_equiv_pos_as_xyz
  1  'x, y, z'
loop_
 _atom_site_type_symbol
 _atom_site_label
 _atom_site_symmetry_multiplicity
 _atom_site_fract_x
 _atom_site_fract_y
 _atom_site_fract_z
 _atom_site_occupancy
  K  K0  1  0.18045000  0.18045000  0.18045000  1
  K  K1  1  0.81955000  0.81955000  0.81955000  1
  Sn  Sn0  1  0.00000000  0.00000000  0.00000000  1
  H  H0  1  0.28318900  0.25824000  0.68537400  1
  H  H1  1  0.25824000  0.68537400  0.28318900  1
  H  H2  1  0.68537400  0.28318900  0.25824000  1
  H  H3  1  0.71681100  0.74176000  0.31462600  1
  H  H4  1  0.74176000  0.31462600  0.71681100  1
  H  H5  1  0.31462600  0.71681100  0.74176000  1
  H  H6  1  0.45743500  0.99127100  0.67118000  1
  H  H7  1  0.99127100  0.67118000  0.45743500  1
  H  H8  1  0.67118000  0.45743500  0.99127100  1
  H  H9  1  0.54256500  0.00872900  0.32882000  1
  H  H10  1  0.00872900  0.32882000  0.54256500  1
  H  H11  1  0.32882000  0.54256500  0.00872900  1
  N  N0  1  0.33406100  0.07369500  0.79499900  1
  N  N1  1  0.07369500  0.79499900  0.33406100  1
  N  N2  1  0.79499900  0.33406100  0.07369500  1
  N  N3  1  0.66593900  0.92630500  0.20500100  1
  N  N4  1  0.92630500  0.20500100  0.66593900  1
  N  N5  1  0.20500100  0.66593900  0.92630500  1
loop_
_geom_bond_atom_site_label_1
_geom_bond_atom_site_label_2
_geom_bond_distance
_geom_bond_site_symmetry_2
K0 N1 2.874819 1_545
K0 N2 2.874819 1_455
K0 N0 2.874820 1_554
K0 N5 2.985782 1_554
K0 N3 2.985782 1_545
K0 N4 2.985783 1_455
K1 N4 2.874819 1_565
K1 N5 2.874819 1_655
K1 N3 2.874820 1_556
K1 N2 2.985782 1_556
K1 N0 2.985782 1_565
K1 N1 2.985783 1_655
H0 N0 1.031030 1_555
H1 N1 1.031030 1_555
H2 N2 1.031030 1_555
H3 N3 1.031030 1_555
H4 N4 1.031030 1_555
H5 N5 1.031030 1_555
H6 N0 1.028990 1_565
H6 K1 2.872087 1_555
H7 N1 1.028990 1_655
H7 K1 2.872087 1_555
H8 N2 1.028990 1_556
H8 K1 2.872086 1_555
H9 N3 1.028990 1_545
H9 K0 2.872087 1_555
H10 N4 1.028990 1_455
H10 K0 2.872087 1_555
H11 N5 1.028990 1_554
H11 K0 2.872086 1_555
N0 Sn0 2.226698 1_556
N1 Sn0 2.226698 1_565
N2 Sn0 2.226698 1_655
N3 Sn0 2.226698 1_665
N4 Sn0 2.226698 1_656
N5 Sn0 2.226698 1_566
