# generated using pymatgen
data_BaTa2O6
_symmetry_space_group_name_H-M   'P 1'
_cell_length_a   9.29065800
_cell_length_b   9.85373748
_cell_length_c   14.19785074
_cell_angle_alpha   88.24023646
_cell_angle_beta   88.08345839
_cell_angle_gamma   63.33454554
_symmetry_Int_Tables_number   1
_chemical_formula_structural   BaTa2O6
_chemical_formula_sum   'Ba6 Ta12 O36'
_cell_volume   1160.70962352
_cell_formula_units_Z   6
loop_
 _symmetry_equiv_pos_site_id
 _symmetry_equiv_pos_as_xyz
  1  'x, y, z'
loop_
 _atom_site_type_symbol
 _atom_site_label
 _atom_site_symmetry_multiplicity
 _atom_site_fract_x
 _atom_site_fract_y
 _atom_site_fract_z
 _atom_site_occupancy
  Ba  Ba0  1  0.99101800  0.43073100  0.73737900  1
  Ba  Ba1  1  0.11615200  0.41732100  0.25219700  1
  Ba  Ba2  1  0.37291500  0.59702100  0.73257000  1
  Ba  Ba3  1  0.42466500  0.62089700  0.24387100  1
  Ba  Ba4  1  0.56595300  0.94639200  0.74379200  1
  Ba  Ba5  1  0.64999300  0.89296800  0.26943000  1
  Ta  Ta0  1  0.74996900  0.21254700  0.62933400  1
  Ta  Ta1  1  0.71341100  0.20207800  0.12437100  1
  Ta  Ta2  1  0.72950600  0.23686700  0.88298100  1
  Ta  Ta3  1  0.79302100  0.18844800  0.36739400  1
  Ta  Ta4  1  0.98676200  0.76464800  0.87932000  1
  Ta  Ta5  1  0.96084700  0.77497200  0.63630100  1
  Ta  Ta6  1  0.04207800  0.74651900  0.37782700  1
  Ta  Ta7  1  0.03732300  0.76259600  0.13141700  1
  Ta  Ta8  1  0.20948200  0.05157100  0.62611200  1
  Ta  Ta9  1  0.16319700  0.99717700  0.89084700  1
  Ta  Ta10  1  0.33863200  0.04067500  0.11365800  1
  Ta  Ta11  1  0.23594600  0.05153900  0.36079400  1
  O  O0  1  0.18182400  0.09890800  0.78398200  1
  O  O1  1  0.31916900  0.16206000  0.63160400  1
  O  O2  1  0.34870500  0.15976700  0.35748200  1
  O  O3  1  0.46752500  0.13386600  0.13771300  1
  O  O4  1  0.96298800  0.18023600  0.64627000  1
  O  O5  1  0.09506200  0.55985900  0.86222400  1
  O  O6  1  0.23168400  0.57014600  0.36458200  1
  O  O7  1  0.13642600  0.58376200  0.64908800  1
  O  O8  1  0.22633200  0.57911900  0.14071800  1
  O  O9  1  0.61083000  0.26446100  0.00026100  1
  O  O10  1  0.64167100  0.20600900  0.77317800  1
  O  O11  1  0.71383000  0.24171600  0.49149900  1
  O  O12  1  0.65397400  0.28307900  0.25927400  1
  O  O13  1  0.76981200  0.39531900  0.85475900  1
  O  O14  1  0.98244500  0.20725500  0.35539500  1
  O  O15  1  0.63300800  0.41627300  0.64913800  1
  O  O16  1  0.86168000  0.26634900  0.10365600  1
  O  O17  1  0.02593700  0.83514100  0.75513100  1
  O  O18  1  0.05869900  0.80919900  0.99838500  1
  O  O19  1  0.09056300  0.82357500  0.25337000  1
  O  O20  1  0.02234200  0.80461800  0.50708800  1
  O  O21  1  0.77372200  0.81593300  0.88315800  1
  O  O22  1  0.80747000  0.70840600  0.66294700  1
  O  O23  1  0.89550600  0.68505900  0.15624800  1
  O  O24  1  0.90025900  0.66975300  0.35726200  1
  O  O25  1  0.93031200  0.05945600  0.89493000  1
  O  O26  1  0.84422600  0.98757600  0.36229400  1
  O  O27  1  0.77297800  0.00426500  0.63466100  1
  O  O28  1  0.83494400  0.99507200  0.13712500  1
  O  O29  1  0.35439500  0.85764700  0.66175900  1
  O  O30  1  0.30217600  0.80094500  0.86940500  1
  O  O31  1  0.46493600  0.83964100  0.13771600  1
  O  O32  1  0.39351600  0.85553500  0.33999000  1
  O  O33  1  0.24143300  0.07142600  0.98969700  1
  O  O34  1  0.18992500  0.03331900  0.49355900  1
  O  O35  1  0.18882600  0.10028300  0.21485700  1
loop_
_geom_bond_atom_site_label_1
_geom_bond_atom_site_label_2
_geom_bond_distance
_geom_bond_site_symmetry_2
Ba0 O5 2.655618 1_655
Ba0 O22 2.695596 1_555
Ba0 O7 2.696165 1_655
Ba0 O13 2.738909 1_555
Ba0 O4 2.937556 1_555
Ba0 O0 3.002388 1_655
Ba0 O1 3.354464 1_655
Ba1 O8 2.701167 1_555
Ba1 O6 2.771065 1_555
Ba1 O24 2.825801 1_455
Ba1 O23 2.851337 1_455
Ba1 O2 2.899106 1_555
Ba1 O35 2.946341 1_555
Ba1 O14 3.158235 1_455
Ba2 O15 2.547482 1_555
Ba2 O7 2.586637 1_555
Ba2 O29 2.663097 1_555
Ba2 O30 2.685709 1_555
Ba3 O8 2.570624 1_555
Ba3 O32 2.618884 1_555
Ba3 O6 2.635998 1_555
Ba3 O31 2.746652 1_555
Ba3 O19 2.840096 1_555
Ba3 O12 3.047701 1_555
Ba4 O22 2.668664 1_555
Ba4 O27 2.675120 1_565
Ba4 O21 2.676919 1_555
Ba4 O29 2.782594 1_555
Ba4 O1 2.823686 1_565
Ba4 O10 2.985593 1_565
Ba4 O0 3.228477 1_565
Ba5 O24 2.689678 1_555
Ba5 O32 2.724721 1_555
Ba5 O26 2.758338 1_555
Ba5 O23 2.782973 1_555
Ba5 O31 2.795626 1_555
Ba5 O3 2.886754 1_565
Ba5 O28 2.951807 1_555
Ba5 O2 3.110046 1_565
O0 Ta9 1.838914 1_545
O0 Ta8 2.285968 1_555
O1 Ta8 1.798962 1_555
O2 Ta11 1.798166 1_555
O3 Ta10 1.851351 1_555
O3 Ta1 2.654760 1_555
O4 Ta0 1.880834 1_555
O4 Ta8 2.075151 1_655
O5 Ta4 1.826121 1_455
O6 Ta6 1.846330 1_555
O7 Ta5 1.866558 1_455
O8 Ta7 1.876424 1_555
O9 Ta2 1.923063 1_554
O9 Ta1 1.977653 1_555
O10 Ta2 1.877680 1_555
O10 Ta0 2.258330 1_555
O11 Ta3 1.882822 1_555
O11 Ta0 1.986913 1_555
O12 Ta3 1.964260 1_555
O12 Ta1 2.058651 1_555
O13 Ta2 1.793014 1_555
O14 Ta3 1.852365 1_555
O14 Ta11 2.160651 1_655
O15 Ta0 1.829222 1_555
O16 Ta1 1.769073 1_555
O17 Ta4 1.957720 1_455
O17 Ta5 2.003774 1_455
O18 Ta7 1.954804 1_556
O18 Ta4 1.970169 1_455
O19 Ta7 1.997911 1_555
O19 Ta6 2.018204 1_555
O20 Ta6 1.917611 1_555
O20 Ta5 1.955530 1_455
O21 Ta4 1.809037 1_555
O22 Ta5 1.841612 1_555
O23 Ta7 1.816579 1_655
O24 Ta6 1.824104 1_655
O25 Ta2 1.908149 1_555
O25 Ta9 1.965550 1_645
O26 Ta3 1.819527 1_565
O26 Ta6 2.268394 1_655
O27 Ta0 1.965030 1_555
O27 Ta5 2.147505 1_545
O28 Ta1 1.841788 1_565
O28 Ta7 2.219164 1_655
O29 Ta8 1.843166 1_565
O30 Ta9 1.807676 1_555
O31 Ta10 1.821156 1_565
O32 Ta11 1.851726 1_565
O33 Ta9 1.908382 1_545
O33 Ta10 1.957749 1_556
O34 Ta8 1.918373 1_555
O34 Ta11 1.939689 1_555
O35 Ta10 1.879052 1_555
O35 Ta11 2.127514 1_555
