# generated using pymatgen
data_EuTi2CdO6F
_symmetry_space_group_name_H-M   'P 1'
_cell_length_a   7.27446971
_cell_length_b   7.27446971
_cell_length_c   7.27446971
_cell_angle_alpha   120.70499327
_cell_angle_beta   118.90561200
_cell_angle_gamma   90.34457992
_symmetry_Int_Tables_number   1
_chemical_formula_structural   EuTi2CdO6F
_chemical_formula_sum   'Eu2 Ti4 Cd2 O12 F2'
_cell_volume   272.91273693
_cell_formula_units_Z   2
loop_
 _symmetry_equiv_pos_site_id
 _symmetry_equiv_pos_as_xyz
  1  'x, y, z'
loop_
 _atom_site_type_symbol
 _atom_site_label
 _atom_site_symmetry_multiplicity
 _atom_site_fract_x
 _atom_site_fract_y
 _atom_site_fract_z
 _atom_site_occupancy
  Eu  Eu0  1  0.00000000  0.00000000  0.00000000  1
  Eu  Eu1  1  0.50000000  0.00000000  0.50000000  1
  Ti  Ti0  1  0.50000000  0.50000000  0.50000000  1
  Ti  Ti1  1  0.00000000  0.50000000  0.50000000  1
  Ti  Ti2  1  0.50000000  0.50000000  0.00000000  1
  Ti  Ti3  1  0.50000000  0.00000000  0.00000000  1
  Cd  Cd0  1  0.00000000  0.50000000  0.00000000  1
  Cd  Cd1  1  0.00000000  0.00000000  0.50000000  1
  O  O0  1  0.57916400  0.82916400  0.75000000  1
  O  O1  1  0.17529100  0.42033300  0.34713200  1
  O  O2  1  0.57320100  0.42033300  0.74504200  1
  O  O3  1  0.17529100  0.82815900  0.75495800  1
  O  O4  1  0.17476200  0.42476200  0.75000000  1
  O  O5  1  0.57320100  0.82815900  0.15286800  1
  O  O6  1  0.82523800  0.57523800  0.25000000  1
  O  O7  1  0.42679900  0.17184100  0.84713200  1
  O  O8  1  0.42679900  0.57966700  0.25495800  1
  O  O9  1  0.82470900  0.17184100  0.24504200  1
  O  O10  1  0.82470900  0.57966700  0.65286800  1
  O  O11  1  0.42083600  0.17083600  0.25000000  1
  F  F0  1  0.12041000  0.87041000  0.25000000  1
  F  F1  1  0.87959000  0.12959000  0.75000000  1
loop_
_geom_bond_atom_site_label_1
_geom_bond_atom_site_label_2
_geom_bond_distance
_geom_bond_site_symmetry_2
Eu0 F0 2.276852 1_545
Eu0 F1 2.276852 1_454
Eu0 O10 2.511395 1_444
Eu0 O3 2.511395 1_544
Eu0 O1 2.511395 1_555
Eu0 O9 2.511395 1_455
Eu0 O0 2.547081 1_444
Eu0 O11 2.547081 1_555
Eu1 F0 2.276852 1_545
Eu1 F1 2.276852 1_555
Eu1 O5 2.511395 1_545
Eu1 O8 2.511395 1_545
Eu1 O7 2.511395 1_555
Eu1 O2 2.511395 1_555
Eu1 O0 2.547081 1_545
Eu1 O11 2.547081 1_555
Cd0 F0 2.182287 1_555
Cd0 F1 2.182287 1_454
Cd0 O4 2.539706 1_554
Cd0 O6 2.539706 1_455
Cd0 O1 2.594035 1_555
Cd0 O8 2.594035 1_555
Cd0 O2 2.594035 1_454
Cd0 O10 2.594035 1_454
Cd1 F1 2.182287 1_455
Cd1 F0 2.182287 1_545
Cd1 O6 2.539706 1_445
Cd1 O4 2.539706 1_555
Cd1 O7 2.594035 1_555
Cd1 O9 2.594035 1_455
Cd1 O3 2.594035 1_545
Cd1 O5 2.594035 1_445
O0 Ti0 1.973933 1_555
O0 Ti3 1.973933 1_566
O1 Ti1 1.979916 1_555
O1 Ti0 1.984432 1_555
O2 Ti2 1.979916 1_556
O2 Ti0 1.984432 1_555
O3 Ti1 1.979916 1_555
O3 Ti3 1.984432 1_566
O4 Ti1 2.003221 1_555
O4 Ti2 2.003221 1_556
O5 Ti2 1.979916 1_555
O5 Ti3 1.984432 1_565
O6 Ti1 2.003221 1_655
O6 Ti2 2.003221 1_555
O7 Ti2 1.979916 1_556
O7 Ti3 1.984432 1_556
O8 Ti2 1.979916 1_555
O8 Ti0 1.984432 1_555
O9 Ti1 1.979916 1_655
O9 Ti3 1.984432 1_555
O10 Ti1 1.979916 1_655
O10 Ti0 1.984432 1_555
O11 Ti0 1.973933 1_555
O11 Ti3 1.973933 1_555
