# generated using pymatgen
data_KMg3AlSi3(O5F)2
_symmetry_space_group_name_H-M   'P 1'
_cell_length_a   12.40806000
_cell_length_b   5.94789800
_cell_length_c   7.09311259
_cell_angle_alpha   87.24376709
_cell_angle_beta   90.00000000
_cell_angle_gamma   90.00000000
_symmetry_Int_Tables_number   1
_chemical_formula_structural   KMg3AlSi3(O5F)2
_chemical_formula_sum   'K2 Mg6 Al2 Si6 O20 F4'
_cell_volume   522.87942263
_cell_formula_units_Z   2
loop_
 _symmetry_equiv_pos_site_id
 _symmetry_equiv_pos_as_xyz
  1  'x, y, z'
loop_
 _atom_site_type_symbol
 _atom_site_label
 _atom_site_symmetry_multiplicity
 _atom_site_fract_x
 _atom_site_fract_y
 _atom_site_fract_z
 _atom_site_occupancy
  K  K0  1  0.49902700  0.27323300  0.05668600  1
  K  K1  1  0.99902700  0.72676700  0.94331400  1
  Mg  Mg0  1  0.53964800  0.63834700  0.53870400  1
  Mg  Mg1  1  0.61068800  0.10294800  0.61292900  1
  Mg  Mg2  1  0.83108400  0.95803100  0.60347800  1
  Mg  Mg3  1  0.03964800  0.36165300  0.46129600  1
  Mg  Mg4  1  0.11068800  0.89705200  0.38707100  1
  Mg  Mg5  1  0.33108400  0.04196900  0.39652200  1
  Al  Al0  1  0.76658600  0.02841100  0.20815100  1
  Al  Al1  1  0.26658600  0.97158900  0.79184900  1
  Si  Si0  1  0.76850200  0.53459400  0.23490900  1
  Si  Si1  1  0.66587100  0.76346700  0.91784800  1
  Si  Si2  1  0.80139600  0.46562100  0.64776100  1
  Si  Si3  1  0.16587100  0.23653300  0.08215200  1
  Si  Si4  1  0.30139600  0.53437900  0.35223900  1
  Si  Si5  1  0.26850200  0.46540600  0.76509100  1
  O  O0  1  0.42559500  0.48467100  0.40222800  1
  O  O1  1  0.82919800  0.29950600  0.19663500  1
  O  O2  1  0.66063000  0.55981200  0.08865100  1
  O  O3  1  0.83958800  0.76455000  0.19755500  1
  O  O4  1  0.77290700  0.21954000  0.73095400  1
  O  O5  1  0.70938500  0.99108100  0.42878800  1
  O  O6  1  0.67502800  0.99645800  0.02394600  1
  O  O7  1  0.77556600  0.69182300  0.78505700  1
  O  O8  1  0.71890900  0.52025500  0.45622700  1
  O  O9  1  0.07349300  0.18843400  0.23786300  1
  O  O10  1  0.92559500  0.51532900  0.59777200  1
  O  O11  1  0.27290700  0.78046000  0.26904600  1
  O  O12  1  0.17502800  0.00354200  0.97605400  1
  O  O13  1  0.27556600  0.30817700  0.21494300  1
  O  O14  1  0.32919800  0.70049400  0.80336500  1
  O  O15  1  0.21890900  0.47974500  0.54377300  1
  O  O16  1  0.16063000  0.44018800  0.91134900  1
  O  O17  1  0.33958800  0.23545000  0.80244500  1
  O  O18  1  0.20938500  0.00891900  0.57121200  1
  O  O19  1  0.57349300  0.81156600  0.76213700  1
  F  F0  1  0.55601300  0.36913500  0.70498400  1
  F  F1  1  0.48088500  0.97412100  0.44572900  1
  F  F2  1  0.98088500  0.02587900  0.55427100  1
  F  F3  1  0.05601300  0.63086500  0.29501600  1
loop_
_geom_bond_atom_site_label_1
_geom_bond_atom_site_label_2
_geom_bond_distance
_geom_bond_site_symmetry_2
K0 O2 2.648544 1_555
K0 O17 2.693580 1_554
K0 O6 2.751343 1_545
K0 O0 2.952197 1_555
K0 O13 3.002280 1_555
K1 O16 2.648544 1_655
K1 O3 2.693580 1_556
K1 O12 2.751343 1_665
K1 O10 2.952197 1_555
K1 O7 3.002280 1_555
Mg0 O0 1.964792 1_555
Mg0 O19 1.976510 1_555
Mg0 O8 2.412998 1_555
Mg1 O5 1.931845 1_545
Mg1 O19 2.039698 1_545
Mg1 O4 2.299793 1_555
Mg2 O5 1.957249 1_555
Mg2 O4 1.973141 1_565
Mg2 O7 2.108161 1_555
Mg3 O10 1.964792 1_455
Mg3 O9 1.976510 1_555
Mg3 O15 2.412998 1_555
Mg4 O18 1.931845 1_565
Mg4 O9 2.039698 1_565
Mg4 O11 2.299793 1_555
Mg5 O18 1.957249 1_555
Mg5 O11 1.973141 1_545
Mg5 O13 2.108161 1_555
Al0 O5 1.723040 1_545
Al0 O6 1.748656 1_545
Al0 O1 1.788169 1_555
Al0 O3 1.816746 1_545
Al1 O18 1.723040 1_565
Al1 O12 1.748656 1_565
Al1 O14 1.788169 1_555
Al1 O17 1.816746 1_565
O0 Si4 1.605599 1_555
O1 Si0 1.622524 1_555
O2 Si1 1.672775 1_554
O2 Si0 1.695676 1_555
O3 Si0 1.638321 1_555
O4 Si2 1.591358 1_555
O6 Si1 1.612459 1_554
O7 Si1 1.720455 1_555
O7 Si2 1.728381 1_555
O8 Si0 1.684468 1_555
O8 Si2 1.719423 1_555
O9 Si3 1.607847 1_555
O10 Si2 1.605599 1_555
O11 Si4 1.591358 1_555
O12 Si3 1.612459 1_556
O13 Si3 1.720455 1_555
O13 Si4 1.728381 1_555
O14 Si5 1.622524 1_555
O15 Si5 1.684468 1_555
O15 Si4 1.719423 1_555
O16 Si3 1.672775 1_556
O16 Si5 1.695676 1_555
O17 Si5 1.638321 1_555
O19 Si1 1.607847 1_555
F0 Mg1 1.868879 1_555
F0 Mg0 1.953119 1_555
F0 K0 2.629035 1_556
F1 Mg5 1.930297 1_565
F1 Mg1 2.162198 1_565
F1 Mg0 2.197383 1_555
F1 K0 3.218486 1_565
F2 Mg2 1.930297 1_545
F2 Mg4 2.162198 1_645
F2 Mg3 2.197383 1_655
F2 K1 3.218486 1_545
F3 Mg4 1.868879 1_555
F3 Mg3 1.953119 1_555
F3 K1 2.629035 1_454
