# generated using pymatgen
data_MgWO4
_symmetry_space_group_name_H-M   'P 1'
_cell_length_a   5.55730300
_cell_length_b   5.52806600
_cell_length_c   5.61275940
_cell_angle_alpha   62.63488721
_cell_angle_beta   90.00000000
_cell_angle_gamma   90.00000000
_symmetry_Int_Tables_number   1
_chemical_formula_structural   MgWO4
_chemical_formula_sum   'Mg2 W2 O8'
_cell_volume   153.13461090
_cell_formula_units_Z   2
loop_
 _symmetry_equiv_pos_site_id
 _symmetry_equiv_pos_as_xyz
  1  'x, y, z'
loop_
 _atom_site_type_symbol
 _atom_site_label
 _atom_site_symmetry_multiplicity
 _atom_site_fract_x
 _atom_site_fract_y
 _atom_site_fract_z
 _atom_site_occupancy
  Mg  Mg0  1  0.37352800  0.50000000  0.75000000  1
  Mg  Mg1  1  0.62647200  0.50000000  0.25000000  1
  W  W0  1  0.85157300  0.00000000  0.75000000  1
  W  W1  1  0.14842700  0.00000000  0.25000000  1
  O  O0  1  0.36384200  0.71989400  0.32451400  1
  O  O1  1  0.63615800  0.71989400  0.82451400  1
  O  O2  1  0.63615800  0.28010600  0.67548600  1
  O  O3  1  0.88147900  0.19007500  0.34708600  1
  O  O4  1  0.11852100  0.80992500  0.65291400  1
  O  O5  1  0.88147900  0.80992500  0.15291400  1
  O  O6  1  0.36384200  0.28010600  0.17548600  1
  O  O7  1  0.11852100  0.19007500  0.84708600  1
loop_
_geom_bond_atom_site_label_1
_geom_bond_atom_site_label_2
_geom_bond_distance
_geom_bond_site_symmetry_2
Mg0 O1 2.061584 1_555
Mg0 O2 2.061584 1_555
Mg0 O7 2.093400 1_555
Mg0 O4 2.093400 1_555
Mg0 O6 2.124859 1_556
Mg0 O0 2.124859 1_555
Mg1 O0 2.061584 1_555
Mg1 O6 2.061584 1_555
Mg1 O3 2.093400 1_555
Mg1 O5 2.093400 1_555
Mg1 O2 2.124859 1_555
Mg1 O1 2.124859 1_554
O0 W1 1.846714 1_565
O1 W0 1.846714 1_565
O2 W0 1.846714 1_555
O3 W0 2.015288 1_555
O3 W1 2.031795 1_655
O4 W1 2.015288 1_565
O4 W0 2.031795 1_465
O5 W0 2.015288 1_564
O5 W1 2.031795 1_665
O6 W1 1.846714 1_555
O7 W1 2.015288 1_556
O7 W0 2.031795 1_455
