# generated using pymatgen
data_Cr10Sb3Te7
_symmetry_space_group_name_H-M   'P 1'
_cell_length_a   7.16704600
_cell_length_b   7.17436758
_cell_length_c   10.11800271
_cell_angle_alpha   89.94158250
_cell_angle_beta   103.56247966
_cell_angle_gamma   119.84684699
_symmetry_Int_Tables_number   1
_chemical_formula_structural   Cr10Sb3Te7
_chemical_formula_sum   'Cr10 Sb3 Te7'
_cell_volume   434.51819098
_cell_formula_units_Z   1
loop_
 _symmetry_equiv_pos_site_id
 _symmetry_equiv_pos_as_xyz
  1  'x, y, z'
loop_
 _atom_site_type_symbol
 _atom_site_label
 _atom_site_symmetry_multiplicity
 _atom_site_fract_x
 _atom_site_fract_y
 _atom_site_fract_z
 _atom_site_occupancy
  Cr  Cr0  1  0.00485300  0.00504500  0.00140900  1
  Cr  Cr1  1  0.80765300  0.40045600  0.80303700  1
  Cr  Cr2  1  0.59470400  0.79419300  0.60202400  1
  Cr  Cr3  1  0.40044000  0.19843100  0.89771700  1
  Cr  Cr4  1  0.42020300  0.21101900  0.39728000  1
  Cr  Cr5  1  0.20094100  0.60359800  0.70195000  1
  Cr  Cr6  1  0.20561900  0.60590900  0.20023200  1
  Cr  Cr7  1  0.00300600  0.00170700  0.50162900  1
  Cr  Cr8  1  0.79770200  0.39725700  0.30760500  1
  Cr  Cr9  1  0.60344300  0.80101900  0.10362300  1
  Sb  Sb0  1  0.20526800  0.76983700  0.95063600  1
  Sb  Sb1  1  0.80056000  0.57043100  0.55596700  1
  Sb  Sb2  1  0.59863700  0.96304900  0.35334200  1
  Te  Te0  1  0.60350000  0.63468900  0.85278700  1
  Te  Te1  1  0.00032900  0.16515300  0.74977700  1
  Te  Te2  1  0.41237700  0.03991800  0.64730500  1
  Te  Te3  1  0.20487400  0.43659800  0.44947100  1
  Te  Te4  1  0.00269900  0.83083400  0.25343600  1
  Te  Te5  1  0.39351000  0.36656600  0.15200500  1
  Te  Te6  1  0.79804100  0.23424500  0.05400200  1
loop_
_geom_bond_atom_site_label_1
_geom_bond_atom_site_label_2
_geom_bond_distance
_geom_bond_site_symmetry_2
Cr0 Te5 2.763004 1_555
Cr0 Te1 2.791966 1_554
Cr0 Sb0 2.816936 1_544
Cr0 Te0 2.822651 1_444
Cr0 Te6 2.825220 1_455
Cr0 Te4 2.838606 1_545
Cr1 Te1 2.778210 1_655
Cr1 Sb1 2.781157 1_555
Cr1 Te2 2.796422 1_555
Cr1 Te6 2.805115 1_556
Cr1 Sb0 2.805201 1_655
Cr1 Te0 2.830697 1_555
Cr2 Te2 2.756962 1_565
Cr2 Te3 2.760653 1_555
Cr2 Sb1 2.766328 1_555
Cr2 Te0 2.782417 1_555
Cr2 Sb2 2.791508 1_555
Cr2 Te1 2.835131 1_665
Cr3 Sb0 2.786570 1_545
Cr3 Te1 2.797654 1_555
Cr3 Te6 2.800980 1_556
Cr3 Te0 2.809674 1_555
Cr3 Te2 2.815044 1_555
Cr3 Te5 2.864119 1_556
Cr4 Te5 2.724872 1_555
Cr4 Sb2 2.744238 1_545
Cr4 Sb1 2.759911 1_555
Cr4 Te2 2.810932 1_555
Cr4 Te3 2.854773 1_555
Cr4 Te4 2.890214 1_545
Cr5 Sb0 2.772615 1_555
Cr5 Sb1 2.793886 1_455
Cr5 Te0 2.828080 1_555
Cr5 Te1 2.831520 1_555
Cr5 Te3 2.834750 1_555
Cr5 Te2 2.840557 1_565
Cr6 Te5 2.758907 1_555
Cr6 Sb2 2.770728 1_555
Cr6 Te4 2.777379 1_555
Cr6 Sb0 2.784742 1_554
Cr6 Te3 2.797966 1_555
Cr6 Te6 2.839029 1_455
Cr7 Te1 2.780347 1_555
Cr7 Te4 2.794649 1_545
Cr7 Sb1 2.807708 1_445
Cr7 Sb2 2.808664 1_445
Cr7 Te3 2.822783 1_555
Cr7 Te2 2.833354 1_555
Cr8 Sb1 2.795659 1_555
Cr8 Sb2 2.799428 1_545
Cr8 Te3 2.805785 1_655
Cr8 Te4 2.821390 1_655
Cr8 Te6 2.822013 1_555
Cr8 Te5 2.854066 1_555
Cr9 Sb2 2.796993 1_555
Cr9 Te6 2.805014 1_565
Cr9 Te0 2.805776 1_554
Cr9 Sb0 2.807738 1_554
Cr9 Te4 2.808670 1_655
Cr9 Te5 2.809453 1_555
