# generated using pymatgen
data_TbAl9(Fe2Si3)2
_symmetry_space_group_name_H-M   'P 1'
_cell_length_a   8.66541700
_cell_length_b   8.66541700
_cell_length_c   15.23736500
_cell_angle_alpha   90.00000000
_cell_angle_beta   90.00000000
_cell_angle_gamma   90.00000000
_symmetry_Int_Tables_number   1
_chemical_formula_structural   TbAl9(Fe2Si3)2
_chemical_formula_sum   'Tb4 Al36 Fe16 Si24'
_cell_volume   1144.16538448
_cell_formula_units_Z   4
loop_
 _symmetry_equiv_pos_site_id
 _symmetry_equiv_pos_as_xyz
  1  'x, y, z'
loop_
 _atom_site_type_symbol
 _atom_site_label
 _atom_site_symmetry_multiplicity
 _atom_site_fract_x
 _atom_site_fract_y
 _atom_site_fract_z
 _atom_site_occupancy
  Tb  Tb0  1  0.00000000  0.50000000  0.08572900  1
  Tb  Tb1  1  0.00000000  0.50000000  0.58572900  1
  Tb  Tb2  1  0.50000000  0.00000000  0.41427100  1
  Tb  Tb3  1  0.50000000  0.00000000  0.91427100  1
  Al  Al0  1  0.31696800  0.00000000  0.08904000  1
  Al  Al1  1  0.50000000  0.50000000  0.27290000  1
  Al  Al2  1  0.00000000  0.00000000  0.77290000  1
  Al  Al3  1  0.00000000  0.00000000  0.22710000  1
  Al  Al4  1  0.50000000  0.50000000  0.72710000  1
  Al  Al5  1  0.50000000  0.65496900  0.89737100  1
  Al  Al6  1  0.50000000  0.34503100  0.89737100  1
  Al  Al7  1  0.65496900  0.50000000  0.10262900  1
  Al  Al8  1  0.15496900  0.00000000  0.39737100  1
  Al  Al9  1  0.84503100  0.00000000  0.39737100  1
  Al  Al10  1  0.00000000  0.15496900  0.60262900  1
  Al  Al11  1  0.00000000  0.84503100  0.60262900  1
  Al  Al12  1  0.34503100  0.50000000  0.10262900  1
  Al  Al13  1  0.70243600  0.25442400  0.33083100  1
  Al  Al14  1  0.29756400  0.74557600  0.33083100  1
  Al  Al15  1  0.25442400  0.70243600  0.66916900  1
  Al  Al16  1  0.75442400  0.79756400  0.83083100  1
  Al  Al17  1  0.24557600  0.20243600  0.83083100  1
  Al  Al18  1  0.79756400  0.75442400  0.16916900  1
  Al  Al19  1  0.20243600  0.24557600  0.16916900  1
  Al  Al20  1  0.74557600  0.29756400  0.66916900  1
  Al  Al21  1  0.50000000  0.81696800  0.58904000  1
  Al  Al22  1  0.50000000  0.18303200  0.58904000  1
  Al  Al23  1  0.81696800  0.50000000  0.41096000  1
  Al  Al24  1  0.18303200  0.50000000  0.41096000  1
  Al  Al25  1  0.68303200  0.00000000  0.08904000  1
  Al  Al26  1  0.00000000  0.31696800  0.91096000  1
  Al  Al27  1  0.00000000  0.68303200  0.91096000  1
  Al  Al28  1  0.75442400  0.20243600  0.83083100  1
  Al  Al29  1  0.79756400  0.24557600  0.16916900  1
  Al  Al30  1  0.70243600  0.74557600  0.33083100  1
  Al  Al31  1  0.25442400  0.29756400  0.66916900  1
  Al  Al32  1  0.74557600  0.70243600  0.66916900  1
  Al  Al33  1  0.24557600  0.79756400  0.83083100  1
  Al  Al34  1  0.20243600  0.75442400  0.16916900  1
  Al  Al35  1  0.29756400  0.25442400  0.33083100  1
  Fe  Fe0  1  0.25511000  0.74489000  0.50000000  1
  Fe  Fe1  1  0.75511000  0.75511000  0.00000000  1
  Fe  Fe2  1  0.24489000  0.24489000  0.00000000  1
  Fe  Fe3  1  0.74489000  0.25511000  0.50000000  1
  Fe  Fe4  1  0.24489000  0.75511000  0.00000000  1
  Fe  Fe5  1  0.74489000  0.74489000  0.50000000  1
  Fe  Fe6  1  0.25511000  0.25511000  0.50000000  1
  Fe  Fe7  1  0.75511000  0.24489000  0.00000000  1
  Fe  Fe8  1  0.77744000  0.50000000  0.25041400  1
  Fe  Fe9  1  0.22256000  0.50000000  0.25041400  1
  Fe  Fe10  1  0.50000000  0.22256000  0.74958600  1
  Fe  Fe11  1  0.00000000  0.72256000  0.75041400  1
  Fe  Fe12  1  0.00000000  0.27744000  0.75041400  1
  Fe  Fe13  1  0.72256000  0.00000000  0.24958600  1
  Fe  Fe14  1  0.27744000  0.00000000  0.24958600  1
  Fe  Fe15  1  0.50000000  0.77744000  0.74958600  1
  Si  Si0  1  0.34382700  0.50000000  0.55614600  1
  Si  Si1  1  0.65617300  0.50000000  0.55614600  1
  Si  Si2  1  0.15617300  0.00000000  0.94385400  1
  Si  Si3  1  0.00000000  0.84382700  0.05614600  1
  Si  Si4  1  0.00000000  0.15617300  0.05614600  1
  Si  Si5  1  0.50000000  0.23938900  0.06143000  1
  Si  Si6  1  0.26061100  0.00000000  0.56143000  1
  Si  Si7  1  0.73938900  0.00000000  0.56143000  1
  Si  Si8  1  0.00000000  0.26061100  0.43857000  1
  Si  Si9  1  0.00000000  0.73938900  0.43857000  1
  Si  Si10  1  0.50000000  0.76061100  0.06143000  1
  Si  Si11  1  0.23938900  0.50000000  0.93857000  1
  Si  Si12  1  0.76061100  0.50000000  0.93857000  1
  Si  Si13  1  0.63787100  0.00000000  0.72023400  1
  Si  Si14  1  0.50000000  0.13787100  0.22023400  1
  Si  Si15  1  0.50000000  0.86212900  0.22023400  1
  Si  Si16  1  0.13787100  0.50000000  0.77976600  1
  Si  Si17  1  0.86212900  0.50000000  0.77976600  1
  Si  Si18  1  0.36212900  0.00000000  0.72023400  1
  Si  Si19  1  0.00000000  0.63787100  0.27976600  1
  Si  Si20  1  0.84382700  0.00000000  0.94385400  1
  Si  Si21  1  0.50000000  0.34382700  0.44385400  1
  Si  Si22  1  0.50000000  0.65617300  0.44385400  1
  Si  Si23  1  0.00000000  0.36212900  0.27976600  1
loop_
_geom_bond_atom_site_label_1
_geom_bond_atom_site_label_2
_geom_bond_distance
_geom_bond_site_symmetry_2
Al0 Fe14 2.470162 1_555
Al0 Fe4 2.595002 1_545
Al0 Fe2 2.595002 1_555
Al0 Si2 2.614479 1_554
Al0 Si5 2.644939 1_555
Al0 Si10 2.644939 1_545
Al0 Al19 2.646542 1_555
Al0 Al34 2.646542 1_545
Al0 Si14 2.817638 1_555
Al0 Si15 2.817638 1_545
Al0 Tb3 3.099552 1_554
Al1 Fe8 2.428426 1_555
Al1 Fe9 2.428426 1_555
Al1 Al7 2.921410 1_555
Al1 Al12 2.921410 1_555
Al1 Si21 2.935452 1_555
Al1 Si22 2.935452 1_555
Al2 Fe11 2.428426 1_545
Al2 Fe12 2.428426 1_555
Al2 Si20 2.935452 1_455
Al2 Si2 2.935452 1_555
Al3 Fe13 2.428426 1_455
Al3 Fe14 2.428426 1_555
Al3 Al9 2.921410 1_455
Al3 Al8 2.921410 1_555
Al3 Si4 2.935452 1_555
Al3 Si3 2.935452 1_545
Al4 Fe15 2.428426 1_555
Al4 Fe10 2.428426 1_555
Al4 Al6 2.921410 1_555
Al4 Al5 2.921410 1_555
Al4 Si0 2.935452 1_555
Al4 Si1 2.935452 1_555
Al5 Fe15 2.489402 1_555
Al5 Si10 2.662170 1_556
Al5 Al6 2.685742 1_555
Al5 Si12 2.701356 1_555
Al5 Si11 2.701356 1_555
Al5 Fe4 2.843479 1_556
Al5 Fe1 2.843479 1_556
Al5 Tb3 3.000907 1_565
Al6 Fe10 2.489402 1_555
Al6 Si5 2.662170 1_556
Al6 Si12 2.701356 1_555
Al6 Si11 2.701356 1_555
Al6 Fe2 2.843479 1_556
Al6 Fe7 2.843479 1_556
Al6 Tb3 3.000907 1_555
Al7 Fe8 2.489402 1_555
Al7 Si12 2.662170 1_554
Al7 Si10 2.701356 1_555
Al7 Si5 2.701356 1_555
Al7 Fe7 2.843479 1_555
Al7 Fe1 2.843479 1_555
Al7 Tb0 3.000907 1_655
Al8 Fe14 2.489402 1_555
Al8 Si6 2.662170 1_555
Al8 Al9 2.685742 1_455
Al8 Si8 2.701356 1_555
Al8 Si9 2.701356 1_545
Al8 Fe0 2.843479 1_545
Al8 Fe6 2.843479 1_555
Al8 Tb2 3.000907 1_555
Al9 Fe13 2.489402 1_555
Al9 Si7 2.662170 1_555
Al9 Si8 2.701356 1_655
Al9 Si9 2.701356 1_645
Al9 Fe5 2.843479 1_545
Al9 Fe3 2.843479 1_555
Al9 Tb2 3.000907 1_555
Al10 Fe12 2.489402 1_555
Al10 Si8 2.662170 1_555
Al10 Al11 2.685742 1_545
Al10 Si6 2.701356 1_555
Al10 Si7 2.701356 1_455
Al10 Al31 2.723134 1_555
Al10 Al20 2.723134 1_455
Al10 Fe3 2.843479 1_455
Al10 Fe6 2.843479 1_555
Al10 Al2 2.921410 1_555
Al10 Tb1 3.000907 1_555
Al11 Fe11 2.489402 1_555
Al11 Si9 2.662170 1_555
Al11 Si6 2.701356 1_565
Al11 Si7 2.701356 1_465
Al11 Al15 2.723134 1_555
Al11 Al32 2.723134 1_455
Al11 Fe5 2.843479 1_455
Al11 Fe0 2.843479 1_555
Al11 Al2 2.921410 1_565
Al11 Tb1 3.000907 1_555
Al12 Fe9 2.489402 1_555
Al12 Si11 2.662170 1_554
Al12 Al7 2.685742 1_555
Al12 Si10 2.701356 1_555
Al12 Si5 2.701356 1_555
Al12 Al19 2.723134 1_555
Al12 Al34 2.723134 1_555
Al12 Fe2 2.843479 1_555
Al12 Fe4 2.843479 1_555
Al12 Tb0 3.000907 1_555
Al13 Fe13 2.534485 1_555
Al13 Fe8 2.540148 1_555
Al13 Si21 2.577451 1_555
Al13 Fe3 2.603816 1_555
Al13 Si14 2.633851 1_555
Al13 Al23 2.646542 1_555
Al13 Al9 2.723134 1_555
Al13 Si23 2.850481 1_655
Al13 Tb2 3.091007 1_555
Al14 Fe14 2.534485 1_565
Al14 Fe9 2.540148 1_555
Al14 Si22 2.577451 1_555
Al14 Fe0 2.603816 1_555
Al14 Si15 2.633851 1_555
Al14 Al24 2.646542 1_555
Al14 Al8 2.723134 1_565
Al14 Si19 2.850481 1_555
Al14 Tb2 3.091007 1_565
Al15 Fe11 2.534485 1_555
Al15 Fe15 2.540148 1_555
Al15 Si0 2.577451 1_555
Al15 Fe0 2.603816 1_555
Al15 Si16 2.633851 1_555
Al15 Al21 2.646542 1_555
Al15 Si18 2.850481 1_565
Al15 Tb1 3.091007 1_555
Al16 Fe15 2.534485 1_555
Al16 Fe11 2.540148 1_655
Al16 Si20 2.577451 1_565
Al16 Fe1 2.603816 1_556
Al16 Si13 2.633851 1_565
Al16 Al27 2.646542 1_655
Al16 Al5 2.723134 1_555
Al16 Si17 2.850481 1_555
Al16 Tb3 3.091007 1_565
Al17 Fe10 2.534485 1_555
Al17 Fe12 2.540148 1_555
Al17 Si2 2.577451 1_555
Al17 Fe2 2.603816 1_556
Al17 Si18 2.633851 1_555
Al17 Al26 2.646542 1_555
Al17 Al6 2.723134 1_555
Al17 Si16 2.850481 1_555
Al17 Tb3 3.091007 1_555
Al18 Fe8 2.534485 1_555
Al18 Fe13 2.540148 1_565
Al18 Si3 2.577451 1_655
Al18 Fe1 2.603816 1_555
Al18 Si19 2.633851 1_655
Al18 Al25 2.646542 1_565
Al18 Al7 2.723134 1_555
Al18 Si15 2.850481 1_555
Al18 Tb0 3.091007 1_655
Al19 Fe9 2.534485 1_555
Al19 Fe14 2.540148 1_555
Al19 Si4 2.577451 1_555
Al19 Fe2 2.603816 1_555
Al19 Si23 2.633851 1_555
Al19 Si14 2.850481 1_555
Al19 Tb0 3.091007 1_555
Al20 Fe12 2.534485 1_655
Al20 Fe10 2.540148 1_555
Al20 Si1 2.577451 1_555
Al20 Fe3 2.603816 1_555
Al20 Si17 2.633851 1_555
Al20 Al22 2.646542 1_555
Al20 Si13 2.850481 1_555
Al20 Tb1 3.091007 1_655
Al21 Fe15 2.470162 1_555
Al21 Fe0 2.595002 1_555
Al21 Fe5 2.595002 1_555
Al21 Si22 2.614479 1_555
Al21 Si6 2.644939 1_565
Al21 Si7 2.644939 1_565
Al21 Al32 2.646542 1_555
Al21 Si18 2.817638 1_565
Al21 Si13 2.817638 1_565
Al21 Tb2 3.099552 1_565
Al22 Fe10 2.470162 1_555
Al22 Fe6 2.595002 1_555
Al22 Fe3 2.595002 1_555
Al22 Si21 2.614479 1_555
Al22 Si7 2.644939 1_555
Al22 Si6 2.644939 1_555
Al22 Al31 2.646542 1_555
Al22 Si13 2.817638 1_555
Al22 Si18 2.817638 1_555
Al22 Tb2 3.099552 1_555
Al23 Fe8 2.470162 1_555
Al23 Fe3 2.595002 1_555
Al23 Fe5 2.595002 1_555
Al23 Si1 2.614479 1_555
Al23 Si8 2.644939 1_655
Al23 Si9 2.644939 1_655
Al23 Al30 2.646542 1_555
Al23 Si19 2.817638 1_655
Al23 Si23 2.817638 1_655
Al23 Tb1 3.099552 1_655
Al24 Fe9 2.470162 1_555
Al24 Fe6 2.595002 1_555
Al24 Fe0 2.595002 1_555
Al24 Si0 2.614479 1_555
Al24 Si9 2.644939 1_555
Al24 Si8 2.644939 1_555
Al24 Al35 2.646542 1_555
Al24 Si19 2.817638 1_555
Al24 Si23 2.817638 1_555
Al24 Tb1 3.099552 1_555
Al25 Fe13 2.470162 1_555
Al25 Fe1 2.595002 1_545
Al25 Fe7 2.595002 1_555
Al25 Si20 2.614479 1_554
Al25 Si5 2.644939 1_555
Al25 Si10 2.644939 1_545
Al25 Al29 2.646542 1_555
Al25 Si14 2.817638 1_555
Al25 Si15 2.817638 1_545
Al25 Tb3 3.099552 1_554
Al26 Fe12 2.470162 1_555
Al26 Fe7 2.595002 1_456
Al26 Fe2 2.595002 1_556
Al26 Si4 2.614479 1_556
Al26 Si11 2.644939 1_555
Al26 Si12 2.644939 1_455
Al26 Al28 2.646542 1_455
Al26 Si16 2.817638 1_555
Al26 Si17 2.817638 1_455
Al26 Tb0 3.099552 1_556
Al27 Fe11 2.470162 1_555
Al27 Fe1 2.595002 1_456
Al27 Fe4 2.595002 1_556
Al27 Si3 2.614479 1_556
Al27 Si11 2.644939 1_555
Al27 Si12 2.644939 1_455
Al27 Al33 2.646542 1_555
Al27 Si16 2.817638 1_555
Al27 Si17 2.817638 1_455
Al27 Tb0 3.099552 1_556
Al28 Fe10 2.534485 1_555
Al28 Fe12 2.540148 1_655
Al28 Si20 2.577451 1_555
Al28 Fe7 2.603816 1_556
Al28 Si13 2.633851 1_555
Al28 Al6 2.723134 1_555
Al28 Si17 2.850481 1_555
Al28 Tb3 3.091007 1_555
Al29 Fe8 2.534485 1_555
Al29 Fe13 2.540148 1_555
Al29 Si4 2.577451 1_655
Al29 Fe7 2.603816 1_555
Al29 Si23 2.633851 1_655
Al29 Al7 2.723134 1_555
Al29 Si14 2.850481 1_555
Al29 Tb0 3.091007 1_655
Al30 Fe13 2.534485 1_565
Al30 Fe8 2.540148 1_555
Al30 Si22 2.577451 1_555
Al30 Fe5 2.603816 1_555
Al30 Si15 2.633851 1_555
Al30 Al9 2.723134 1_565
Al30 Si19 2.850481 1_655
Al30 Tb2 3.091007 1_565
Al31 Fe12 2.534485 1_555
Al31 Fe10 2.540148 1_555
Al31 Si0 2.577451 1_555
Al31 Fe6 2.603816 1_555
Al31 Si16 2.633851 1_555
Al31 Si18 2.850481 1_555
Al31 Tb1 3.091007 1_555
Al32 Fe11 2.534485 1_655
Al32 Fe15 2.540148 1_555
Al32 Si1 2.577451 1_555
Al32 Fe5 2.603816 1_555
Al32 Si17 2.633851 1_555
Al32 Si13 2.850481 1_565
Al32 Tb1 3.091007 1_655
Al33 Fe15 2.534485 1_555
Al33 Fe11 2.540148 1_555
Al33 Si2 2.577451 1_565
Al33 Fe4 2.603816 1_556
Al33 Si18 2.633851 1_565
Al33 Al5 2.723134 1_555
Al33 Si16 2.850481 1_555
Al33 Tb3 3.091007 1_565
Al34 Fe9 2.534485 1_555
Al34 Fe14 2.540148 1_565
Al34 Si3 2.577451 1_555
Al34 Fe4 2.603816 1_555
Al34 Si19 2.633851 1_555
Al34 Si15 2.850481 1_555
Al34 Tb0 3.091007 1_555
Al35 Fe14 2.534485 1_555
Al35 Fe9 2.540148 1_555
Al35 Si21 2.577451 1_555
Al35 Fe6 2.603816 1_555
Al35 Si14 2.633851 1_555
Al35 Al8 2.723134 1_555
Al35 Si23 2.850481 1_555
Al35 Tb2 3.091007 1_555
Fe0 Si6 2.401111 1_565
Fe0 Si9 2.401111 1_555
Fe0 Si0 2.413735 1_555
Fe0 Si22 2.413735 1_555
Fe0 Tb1 3.331138 1_555
Fe0 Tb2 3.331138 1_565
Fe1 Si12 2.401111 1_554
Fe1 Si10 2.401111 1_555
Fe1 Si3 2.413735 1_655
Fe1 Si20 2.413735 1_564
Fe1 Tb0 3.331138 1_655
Fe1 Tb3 3.331138 1_564
Fe2 Si11 2.401111 1_554
Fe2 Si5 2.401111 1_555
Fe2 Si4 2.413735 1_555
Fe2 Si2 2.413735 1_554
Fe2 Tb3 3.331138 1_554
Fe2 Tb0 3.331138 1_555
Fe3 Si8 2.401111 1_655
Fe3 Si7 2.401111 1_555
Fe3 Si1 2.413735 1_555
Fe3 Si21 2.413735 1_555
Fe3 Tb1 3.331138 1_655
Fe3 Tb2 3.331138 1_555
Fe4 Si10 2.401111 1_555
Fe4 Si11 2.401111 1_554
Fe4 Si3 2.413735 1_555
Fe4 Si2 2.413735 1_564
Fe4 Tb3 3.331138 1_564
Fe4 Tb0 3.331138 1_555
Fe5 Si9 2.401111 1_655
Fe5 Si7 2.401111 1_565
Fe5 Si1 2.413735 1_555
Fe5 Si22 2.413735 1_555
Fe5 Tb1 3.331138 1_655
Fe5 Tb2 3.331138 1_565
Fe6 Si8 2.401111 1_555
Fe6 Si6 2.401111 1_555
Fe6 Si0 2.413735 1_555
Fe6 Si21 2.413735 1_555
Fe6 Tb1 3.331138 1_555
Fe6 Tb2 3.331138 1_555
Fe7 Si12 2.401111 1_554
Fe7 Si5 2.401111 1_555
Fe7 Si4 2.413735 1_655
Fe7 Si20 2.413735 1_554
Fe7 Tb0 3.331138 1_655
Fe7 Tb3 3.331138 1_554
Fe8 Si19 2.312307 1_655
Fe8 Si23 2.312307 1_655
Fe8 Tb0 3.164857 1_655
Fe9 Si19 2.312307 1_555
Fe9 Si23 2.312307 1_555
Fe9 Tb0 3.164857 1_555
Fe10 Si13 2.312307 1_555
Fe10 Si18 2.312307 1_555
Fe10 Tb3 3.164857 1_555
Fe11 Si16 2.312307 1_555
Fe11 Si17 2.312307 1_455
Fe11 Tb1 3.164857 1_555
Fe12 Si16 2.312307 1_555
Fe12 Si17 2.312307 1_455
Fe12 Tb1 3.164857 1_555
Fe13 Si14 2.312307 1_555
Fe13 Si15 2.312307 1_545
Fe13 Tb2 3.164857 1_555
Fe14 Si14 2.312307 1_555
Fe14 Si15 2.312307 1_545
Fe14 Tb2 3.164857 1_555
Fe15 Si13 2.312307 1_565
Fe15 Si18 2.312307 1_565
Fe15 Tb3 3.164857 1_565
Si0 Si21 2.567197 1_555
Si0 Si22 2.567197 1_555
Si0 Si1 2.706608 1_555
Si0 Tb1 3.013311 1_555
Si1 Si21 2.567197 1_555
Si1 Si22 2.567197 1_555
Si1 Tb1 3.013311 1_655
Si2 Si4 2.567197 1_556
Si2 Si3 2.567197 1_546
Si2 Si20 2.706608 1_455
Si2 Tb3 3.013311 1_555
Si3 Si4 2.706608 1_565
Si3 Tb0 3.013311 1_555
Si4 Tb0 3.013311 1_555
Si5 Tb3 3.054691 1_554
Si6 Tb2 3.054691 1_555
Si7 Tb2 3.054691 1_555
Si8 Tb1 3.054691 1_555
Si9 Tb1 3.054691 1_555
Si10 Si15 2.574699 1_555
Si10 Tb3 3.054691 1_564
Si11 Si16 2.574699 1_555
Si11 Tb0 3.054691 1_556
Si12 Si17 2.574699 1_555
Si12 Tb0 3.054691 1_656
Si13 Si18 2.389419 1_555
Si13 Si7 2.574699 1_555
Si13 Tb3 3.188870 1_555
Si14 Si15 2.389419 1_545
Si14 Si5 2.574699 1_555
Si14 Tb2 3.188870 1_555
Si15 Tb2 3.188870 1_565
Si16 Si17 2.389419 1_455
Si16 Tb1 3.188870 1_555
Si17 Tb1 3.188870 1_655
Si18 Si6 2.574699 1_555
Si18 Tb3 3.188870 1_555
Si19 Si23 2.389419 1_555
Si19 Si9 2.574699 1_555
Si19 Tb0 3.188870 1_555
Si20 Si4 2.567197 1_656
Si20 Si3 2.567197 1_646
Si20 Tb3 3.013311 1_555
Si21 Si22 2.706608 1_555
Si21 Tb2 3.013311 1_555
Si22 Tb2 3.013311 1_565
Si23 Si8 2.574699 1_555
Si23 Tb0 3.188870 1_555
