# generated using pymatgen
data_KGaBP2H3O10
_symmetry_space_group_name_H-M   'P 1'
_cell_length_a   7.18954700
_cell_length_b   8.32726662
_cell_length_c   8.54055328
_cell_angle_alpha   75.04498499
_cell_angle_beta   75.34294331
_cell_angle_gamma   72.69956661
_symmetry_Int_Tables_number   1
_chemical_formula_structural   KGaBP2H3O10
_chemical_formula_sum   'K2 Ga2 B2 P4 H6 O20'
_cell_volume   462.95481378
_cell_formula_units_Z   2
loop_
 _symmetry_equiv_pos_site_id
 _symmetry_equiv_pos_as_xyz
  1  'x, y, z'
loop_
 _atom_site_type_symbol
 _atom_site_label
 _atom_site_symmetry_multiplicity
 _atom_site_fract_x
 _atom_site_fract_y
 _atom_site_fract_z
 _atom_site_occupancy
  K  K0  1  0.22979100  0.34364200  0.62146700  1
  K  K1  1  0.73533900  0.69855400  0.38564000  1
  Ga  Ga0  1  0.68419200  0.48803000  0.97259400  1
  Ga  Ga1  1  0.93788800  0.96835900  0.52444400  1
  B  B0  1  0.75714500  0.99557300  0.99952100  1
  B  B1  1  0.24365000  0.01215300  0.99789100  1
  P  P0  1  0.97814500  0.01111300  0.80174300  1
  P  P1  1  0.54680800  0.18589000  0.90695000  1
  P  P2  1  0.45451800  0.82000800  0.09239600  1
  P  P3  1  0.02187300  0.97981000  0.20084300  1
  H  H0  1  0.08047600  0.79721700  0.21359100  1
  H  H1  1  0.58104000  0.17966100  0.73681400  1
  H  H2  1  0.98951400  0.48145200  0.00092300  1
  H  H3  1  0.40237100  0.83237800  0.26229300  1
  H  H4  1  0.51251300  0.96708600  0.52796600  1
  H  H5  1  0.91539700  0.19536100  0.75987700  1
  O  O0  1  0.87792900  0.23959000  0.47336800  1
  O  O1  1  0.36558300  0.96612100  0.50793500  1
  O  O2  1  0.73827100  0.63428200  0.75307300  1
  O  O3  1  0.12943600  0.47535300  0.29105700  1
  O  O4  1  0.60508500  0.25530500  0.36849500  1
  O  O5  1  0.67733500  0.84195400  0.03694100  1
  O  O6  1  0.80977800  0.02457500  0.13983500  1
  O  O7  1  0.47429200  0.62949300  0.09386900  1
  O  O8  1  0.68204800  0.32763200  0.44762200  1
  O  O9  1  0.05514000  0.67541300  0.94322500  1
  O  O10  1  0.91800000  0.38610100  0.03191700  1
  O  O11  1  0.32265400  0.69240700  0.54844500  1
  O  O12  1  0.53713800  0.37042400  0.91582400  1
  O  O13  1  0.18557300  0.00561200  0.85157400  1
  O  O14  1  0.32733100  0.16191700  0.97501400  1
  O  O15  1  0.34010500  0.81091300  0.63187300  1
  O  O16  1  0.85433500  0.52366000  0.65912100  1
  O  O17  1  0.21906800  0.33776900  0.24817100  1
  O  O18  1  0.68749800  0.94666700  0.56783800  1
  O  O19  1  0.12274200  0.73852500  0.50985000  1
loop_
_geom_bond_atom_site_label_1
_geom_bond_atom_site_label_2
_geom_bond_distance
_geom_bond_site_symmetry_2
K0 O16 2.653286 1_455
K0 O3 2.940891 1_555
K0 O4 3.029666 1_555
K0 O13 3.040994 1_555
K0 O11 3.045838 1_555
K0 O19 3.092275 1_555
K0 O14 3.159298 1_555
K0 O8 3.193092 1_555
K0 O17 3.221764 1_555
K0 O1 3.323408 1_545
K1 O16 2.612068 1_555
K1 O18 2.788235 1_555
K1 O3 2.935916 1_655
K1 O11 2.950422 1_555
K1 O5 2.994279 1_555
K1 O6 3.068884 1_565
K1 O8 3.118464 1_555
Ga0 O10 1.778554 1_556
Ga0 O12 1.852636 1_555
Ga0 O7 1.875960 1_556
Ga0 O2 1.970700 1_555
Ga1 O18 1.797745 1_555
Ga1 O19 1.992798 1_655
Ga1 O0 2.117786 1_565
B0 O6 1.439025 1_566
B0 O5 1.483429 1_556
B0 P1 1.989092 1_565
B1 O13 1.432339 1_555
B1 O14 1.488777 1_555
B1 P2 2.004980 1_546
H0 P3 1.434588 1_555
H0 K1 2.781303 1_455
H1 P1 1.423012 1_555
H1 K0 2.779581 1_555
H2 O10 1.015054 1_555
H2 O9 1.731763 1_654
H3 P2 1.426704 1_555
H3 K1 2.676935 1_555
H4 O1 1.114649 1_555
H4 O18 1.336893 1_555
H4 K1 2.707597 1_555
H5 P0 1.439516 1_555
H5 K0 2.754212 1_655
O0 O8 1.424279 1_555
O1 O15 1.470041 1_555
O4 O8 1.312680 1_555
O5 P2 1.602952 1_555
O6 P3 1.642990 1_645
O7 P2 1.547163 1_555
O11 O15 1.406786 1_555
O11 O19 1.472423 1_555
O12 P1 1.538120 1_555
O13 P0 1.636378 1_455
O14 P1 1.590888 1_555
O16 O2 1.331988 1_555
O17 O3 1.232910 1_555
