# generated using pymatgen
data_Eu
_symmetry_space_group_name_H-M   'P 1'
_cell_length_a   7.88933983
_cell_length_b   7.88934019
_cell_length_c   7.88933962
_cell_angle_alpha   59.99999306
_cell_angle_beta   59.99999164
_cell_angle_gamma   59.99999057
_symmetry_Int_Tables_number   1
_chemical_formula_structural   Eu
_chemical_formula_sum   Eu8
_cell_volume   347.22174895
_cell_formula_units_Z   8
loop_
 _symmetry_equiv_pos_site_id
 _symmetry_equiv_pos_as_xyz
  1  'x, y, z'
loop_
 _atom_site_type_symbol
 _atom_site_label
 _atom_site_symmetry_multiplicity
 _atom_site_fract_x
 _atom_site_fract_y
 _atom_site_fract_z
 _atom_site_occupancy
  Eu  Eu0_0  1  0.00000000  0.00000000  0.00000000  1
  Eu  Eu0_1  1  0.00000000  0.00000000  0.50000000  1
  Eu  Eu0_2  1  0.00000000  0.50000000  0.00000000  1
  Eu  Eu0_3  1  0.00000000  0.50000000  0.50000000  1
  Eu  Eu0_4  1  0.50000000  0.00000000  0.00000000  1
  Eu  Eu0_5  1  0.50000000  0.00000000  0.50000000  1
  Eu  Eu0_6  1  0.50000000  0.50000000  0.00000000  1
  Eu  Eu0_7  1  0.50000000  0.50000000  0.50000000  1
loop_
_geom_bond_atom_site_label_1
_geom_bond_atom_site_label_2
_geom_bond_distance
_geom_bond_site_symmetry_2
Eu0_0 Eu0_5 3.944669 1_554
Eu0_0 Eu0_5 3.944669 1_455
Eu0_0 Eu0_6 3.944669 1_545
Eu0_0 Eu0_6 3.944669 1_455
Eu0_0 Eu0_3 3.944670 1_545
Eu0_0 Eu0_3 3.944670 1_554
Eu0_0 Eu0_1 3.944670 1_555
Eu0_0 Eu0_1 3.944670 1_554
Eu0_0 Eu0_4 3.944670 1_555
Eu0_0 Eu0_4 3.944670 1_455
Eu0_0 Eu0_2 3.944670 1_555
Eu0_0 Eu0_2 3.944670 1_545
Eu0_1 Eu0_4 3.944669 1_456
Eu0_1 Eu0_4 3.944669 1_555
Eu0_1 Eu0_7 3.944669 1_545
Eu0_1 Eu0_7 3.944669 1_455
Eu0_1 Eu0_2 3.944670 1_546
Eu0_1 Eu0_2 3.944670 1_555
Eu0_1 Eu0_5 3.944670 1_555
Eu0_1 Eu0_5 3.944670 1_455
Eu0_1 Eu0_3 3.944670 1_545
Eu0_1 Eu0_3 3.944670 1_555
Eu0_2 Eu0_7 3.944669 1_554
Eu0_2 Eu0_7 3.944669 1_455
Eu0_2 Eu0_4 3.944669 1_555
Eu0_2 Eu0_4 3.944669 1_465
Eu0_2 Eu0_3 3.944670 1_554
Eu0_2 Eu0_3 3.944670 1_555
Eu0_2 Eu0_6 3.944670 1_455
Eu0_2 Eu0_6 3.944670 1_555
Eu0_3 Eu0_6 3.944669 1_555
Eu0_3 Eu0_6 3.944669 1_456
Eu0_3 Eu0_5 3.944669 1_465
Eu0_3 Eu0_5 3.944669 1_555
Eu0_3 Eu0_7 3.944670 1_555
Eu0_3 Eu0_7 3.944670 1_455
Eu0_4 Eu0_7 3.944670 1_545
Eu0_4 Eu0_7 3.944670 1_554
Eu0_4 Eu0_5 3.944670 1_555
Eu0_4 Eu0_5 3.944670 1_554
Eu0_4 Eu0_6 3.944670 1_545
Eu0_4 Eu0_6 3.944670 1_555
Eu0_5 Eu0_6 3.944670 1_546
Eu0_5 Eu0_6 3.944670 1_555
Eu0_5 Eu0_7 3.944670 1_555
Eu0_5 Eu0_7 3.944670 1_545
Eu0_6 Eu0_7 3.944670 1_555
Eu0_6 Eu0_7 3.944670 1_554
