# generated using pymatgen
data_Eu3Ga2
_symmetry_space_group_name_H-M   'P 1'
_cell_length_a   5.98786810
_cell_length_b   5.98794524
_cell_length_c   8.45641034
_cell_angle_alpha   77.16031905
_cell_angle_beta   77.16083952
_cell_angle_gamma   88.61372477
_symmetry_Int_Tables_number   1
_chemical_formula_structural   Eu3Ga2
_chemical_formula_sum   'Eu6 Ga4'
_cell_volume   288.13092018
_cell_formula_units_Z   2
loop_
 _symmetry_equiv_pos_site_id
 _symmetry_equiv_pos_as_xyz
  1  'x, y, z'
loop_
 _atom_site_type_symbol
 _atom_site_label
 _atom_site_symmetry_multiplicity
 _atom_site_fract_x
 _atom_site_fract_y
 _atom_site_fract_z
 _atom_site_occupancy
  Eu  Eu0  1  0.66678270  0.74117720  0.02758608  1
  Eu  Eu1  1  0.25881937  0.33321746  0.47241725  1
  Eu  Eu2  1  0.33321716  0.25882384  0.97241297  1
  Eu  Eu3  1  0.82474655  0.17524425  0.25000962  1
  Eu  Eu4  1  0.17525336  0.82475590  0.74999034  1
  Eu  Eu5  1  0.74117995  0.66678285  0.52758376  1
  Ga  Ga0  1  0.88166362  0.30592975  0.83718506  1
  Ga  Ga1  1  0.69406747  0.11834341  0.66279493  1
  Ga  Ga2  1  0.30593296  0.88165747  0.33720466  1
  Ga  Ga3  1  0.11833585  0.69406986  0.16281533  1
loop_
_geom_bond_atom_site_label_1
_geom_bond_atom_site_label_2
_geom_bond_distance
_geom_bond_site_symmetry_2
Eu0 Ga3 3.145146 1_655
Eu0 Ga3 3.225606 1_555
Eu0 Ga2 3.257031 1_555
Eu0 Ga1 3.367620 1_564
Eu0 Ga0 3.438392 1_554
Eu0 Ga0 3.543130 1_564
Eu1 Ga2 3.145151 1_545
Eu1 Ga2 3.225584 1_555
Eu1 Ga3 3.256933 1_555
Eu1 Ga0 3.367442 1_455
Eu1 Ga1 3.438235 1_555
Eu1 Ga1 3.543058 1_455
Eu2 Ga0 3.145142 1_455
Eu2 Ga0 3.225602 1_555
Eu2 Ga1 3.257029 1_555
Eu2 Ga2 3.367624 1_546
Eu2 Ga3 3.438392 1_556
Eu2 Ga3 3.543140 1_546
Eu3 Ga1 3.344191 1_555
Eu3 Ga0 3.344497 1_554
Eu3 Ga2 3.457625 1_545
Eu3 Ga3 3.457716 1_655
Eu3 Ga3 3.472577 1_645
Eu3 Ga2 3.472604 1_645
Eu4 Ga2 3.344194 1_555
Eu4 Ga3 3.344501 1_556
Eu4 Ga1 3.457629 1_565
Eu4 Ga0 3.457720 1_455
Eu4 Ga0 3.472576 1_465
Eu4 Ga1 3.472604 1_465
Eu5 Ga1 3.145147 1_565
Eu5 Ga1 3.225579 1_555
Eu5 Ga0 3.256932 1_555
Eu5 Ga3 3.367447 1_655
Eu5 Ga2 3.438237 1_555
Eu5 Ga2 3.543067 1_655
Ga0 Ga1 2.496354 1_555
Ga2 Ga3 2.496357 1_555
