# generated using pymatgen
data_Ce6S4BrN3
_symmetry_space_group_name_H-M   'P 1'
_cell_length_a   3.98287600
_cell_length_b   11.39943100
_cell_length_c   27.14547000
_cell_angle_alpha   90.00000000
_cell_angle_beta   90.00000000
_cell_angle_gamma   90.00000000
_symmetry_Int_Tables_number   1
_chemical_formula_structural   Ce6S4BrN3
_chemical_formula_sum   'Ce24 S16 Br4 N12'
_cell_volume   1232.47274848
_cell_formula_units_Z   4
loop_
 _symmetry_equiv_pos_site_id
 _symmetry_equiv_pos_as_xyz
  1  'x, y, z'
loop_
 _atom_site_type_symbol
 _atom_site_label
 _atom_site_symmetry_multiplicity
 _atom_site_fract_x
 _atom_site_fract_y
 _atom_site_fract_z
 _atom_site_occupancy
  Ce  Ce0  1  0.75000000  0.25394500  0.82744200  1
  Ce  Ce1  1  0.75000000  0.75544900  0.93540800  1
  Ce  Ce2  1  0.75000000  0.10223600  0.96403700  1
  Ce  Ce3  1  0.25000000  0.87305800  0.78256600  1
  Ce  Ce4  1  0.75000000  0.55861300  0.80864900  1
  Ce  Ce5  1  0.75000000  0.05861300  0.69135100  1
  Ce  Ce6  1  0.25000000  0.94138700  0.30864900  1
  Ce  Ce7  1  0.25000000  0.24455100  0.06459200  1
  Ce  Ce8  1  0.75000000  0.05673600  0.42251200  1
  Ce  Ce9  1  0.25000000  0.94326400  0.57748800  1
  Ce  Ce10  1  0.75000000  0.55673600  0.07748800  1
  Ce  Ce11  1  0.25000000  0.39776400  0.46403700  1
  Ce  Ce12  1  0.25000000  0.89776400  0.03596300  1
  Ce  Ce13  1  0.25000000  0.44326400  0.92251200  1
  Ce  Ce14  1  0.25000000  0.44138700  0.19135100  1
  Ce  Ce15  1  0.75000000  0.12694200  0.21743400  1
  Ce  Ce16  1  0.75000000  0.75394500  0.67255800  1
  Ce  Ce17  1  0.25000000  0.74605500  0.17255800  1
  Ce  Ce18  1  0.25000000  0.74455100  0.43540800  1
  Ce  Ce19  1  0.75000000  0.60223600  0.53596300  1
  Ce  Ce20  1  0.75000000  0.62694200  0.28256600  1
  Ce  Ce21  1  0.25000000  0.37305800  0.71743400  1
  Ce  Ce22  1  0.75000000  0.25544900  0.56459200  1
  Ce  Ce23  1  0.25000000  0.24605500  0.32744200  1
  S  S0  1  0.75000000  0.31408000  0.13622700  1
  S  S1  1  0.75000000  0.29517100  0.39851700  1
  S  S2  1  0.25000000  0.13655300  0.76421900  1
  S  S3  1  0.75000000  0.85412800  0.49660700  1
  S  S4  1  0.25000000  0.20482900  0.89851700  1
  S  S5  1  0.25000000  0.64587200  0.99660700  1
  S  S6  1  0.25000000  0.68592000  0.86377300  1
  S  S7  1  0.25000000  0.70482900  0.60148300  1
  S  S8  1  0.75000000  0.86344700  0.23578100  1
  S  S9  1  0.75000000  0.35412800  0.00339300  1
  S  S10  1  0.25000000  0.14587200  0.50339300  1
  S  S11  1  0.25000000  0.18592000  0.63622700  1
  S  S12  1  0.25000000  0.63655300  0.73578100  1
  S  S13  1  0.75000000  0.81408000  0.36377300  1
  S  S14  1  0.75000000  0.79517100  0.10148300  1
  S  S15  1  0.75000000  0.36344700  0.26421900  1
  Br  Br0  1  0.25000000  0.03716000  0.13741900  1
  Br  Br1  1  0.25000000  0.53716000  0.36258100  1
  Br  Br2  1  0.75000000  0.46284000  0.63741900  1
  Br  Br3  1  0.75000000  0.96284000  0.86258100  1
  N  N0  1  0.75000000  0.93461000  0.62578800  1
  N  N1  1  0.25000000  0.06539000  0.37421200  1
  N  N2  1  0.25000000  0.56539000  0.12578800  1
  N  N3  1  0.75000000  0.40526600  0.51315600  1
  N  N4  1  0.25000000  0.61288600  0.23724100  1
  N  N5  1  0.75000000  0.43461000  0.87421200  1
  N  N6  1  0.75000000  0.38711400  0.76275900  1
  N  N7  1  0.75000000  0.90526600  0.98684400  1
  N  N8  1  0.25000000  0.59473400  0.48684400  1
  N  N9  1  0.25000000  0.11288600  0.26275900  1
  N  N10  1  0.25000000  0.09473400  0.01315600  1
  N  N11  1  0.75000000  0.88711400  0.73724100  1
loop_
_geom_bond_atom_site_label_1
_geom_bond_atom_site_label_2
_geom_bond_distance
_geom_bond_site_symmetry_2
Ce0 N6 2.321097 1_555
Ce0 N5 2.419363 1_555
Ce0 S4 2.828737 1_555
Ce0 S4 2.828737 1_655
Ce0 S2 2.949918 1_655
Ce0 S2 2.949918 1_555
Ce1 N7 2.205948 1_555
Ce1 S5 2.878533 1_555
Ce1 S5 2.878533 1_655
Ce1 S6 2.894022 1_655
Ce1 S6 2.894022 1_555
Ce2 N7 2.329135 1_545
Ce2 N10 2.398121 1_556
Ce2 N10 2.398121 1_656
Ce2 S4 2.914940 1_555
Ce2 S4 2.914940 1_655
Ce2 S9 3.063728 1_556
Ce3 N11 2.346339 1_555
Ce3 N11 2.346339 1_455
Ce3 S12 2.980174 1_555
Ce3 S2 3.044703 1_565
Ce3 S6 3.067608 1_555
Ce4 N5 2.272802 1_555
Ce4 N6 2.318140 1_555
Ce4 S6 2.882881 1_555
Ce4 S6 2.882881 1_655
Ce4 S12 2.944119 1_655
Ce4 S12 2.944119 1_555
Ce5 N0 2.272802 1_545
Ce5 N11 2.318140 1_545
Ce5 S11 2.882881 1_555
Ce5 S11 2.882881 1_655
Ce5 S2 2.944119 1_655
Ce5 S2 2.944119 1_555
Ce6 N1 2.272802 1_565
Ce6 N9 2.318140 1_565
Ce6 S13 2.882881 1_455
Ce6 S13 2.882881 1_555
Ce6 S8 2.944119 1_555
Ce6 S8 2.944119 1_455
Ce7 N10 2.205948 1_555
Ce7 S9 2.878533 1_555
Ce7 S9 2.878533 1_455
Ce7 S0 2.894022 1_455
Ce7 S0 2.894022 1_555
Ce8 N1 2.386338 1_555
Ce8 N1 2.386338 1_655
Ce8 S1 2.794980 1_555
Ce8 S3 3.062651 1_545
Ce8 S10 3.133486 1_655
Ce8 S10 3.133486 1_555
Ce8 S13 3.192797 1_545
Ce9 N0 2.386338 1_455
Ce9 N0 2.386338 1_555
Ce9 S7 2.794980 1_555
Ce9 S10 3.062651 1_565
Ce9 S3 3.133486 1_455
Ce9 S3 3.133486 1_555
Ce9 S11 3.192797 1_565
Ce10 N2 2.386338 1_655
Ce10 N2 2.386338 1_555
Ce10 S14 2.794980 1_555
Ce10 S9 3.062651 1_555
Ce10 S5 3.133486 1_654
Ce10 S5 3.133486 1_554
Ce10 S0 3.192797 1_555
Ce11 N8 2.329135 1_555
Ce11 N3 2.398121 1_455
Ce11 N3 2.398121 1_555
Ce11 S1 2.914940 1_555
Ce11 S1 2.914940 1_455
Ce11 S10 3.063728 1_555
Ce12 N10 2.329135 1_565
Ce12 N7 2.398121 1_454
Ce12 N7 2.398121 1_554
Ce12 S14 2.914940 1_455
Ce12 S14 2.914940 1_555
Ce12 S5 3.063728 1_554
Ce13 N5 2.386338 1_555
Ce13 N5 2.386338 1_455
Ce13 S4 2.794980 1_555
Ce13 S5 3.062651 1_555
Ce13 S9 3.133486 1_556
Ce13 S9 3.133486 1_456
Ce13 S6 3.192797 1_555
Ce14 N2 2.272802 1_555
Ce14 N4 2.318140 1_555
Ce14 S0 2.882881 1_455
Ce14 S0 2.882881 1_555
Ce14 S15 2.944119 1_455
Ce14 S15 2.944119 1_555
Ce15 N9 2.346339 1_555
Ce15 N9 2.346339 1_655
Ce15 S15 2.980174 1_555
Ce15 S8 3.044703 1_545
Ce15 S0 3.067608 1_555
Ce16 N11 2.321097 1_555
Ce16 N0 2.419363 1_555
Ce16 S7 2.828737 1_655
Ce16 S7 2.828737 1_555
Ce16 S12 2.949918 1_655
Ce16 S12 2.949918 1_555
Ce17 N4 2.321097 1_555
Ce17 N2 2.419363 1_555
Ce17 S14 2.828737 1_555
Ce17 S14 2.828737 1_455
Ce17 S8 2.949918 1_455
Ce17 S8 2.949918 1_555
Ce18 N8 2.205948 1_555
Ce18 S3 2.878533 1_555
Ce18 S3 2.878533 1_455
Ce18 S13 2.894022 1_555
Ce18 S13 2.894022 1_455
Ce19 N3 2.329135 1_555
Ce19 N8 2.398121 1_655
Ce19 N8 2.398121 1_555
Ce19 S7 2.914940 1_655
Ce19 S7 2.914940 1_555
Ce19 S3 3.063728 1_555
Ce20 N4 2.346339 1_655
Ce20 N4 2.346339 1_555
Ce20 S8 2.980174 1_555
Ce20 S15 3.044703 1_555
Ce20 S13 3.067608 1_555
Ce21 N6 2.346339 1_555
Ce21 N6 2.346339 1_455
Ce21 S2 2.980174 1_555
Ce21 S12 3.044703 1_555
Ce21 S11 3.067608 1_555
Ce22 N3 2.205948 1_555
Ce22 S10 2.878533 1_655
Ce22 S10 2.878533 1_555
Ce22 S11 2.894022 1_555
Ce22 S11 2.894022 1_655
Ce23 N9 2.321097 1_555
Ce23 N1 2.419363 1_555
Ce23 S1 2.828737 1_455
Ce23 S1 2.828737 1_555
Ce23 S15 2.949918 1_455
Ce23 S15 2.949918 1_555
Br0 Ce7 3.081782 1_555
Br0 Ce15 3.119468 1_455
Br0 Ce15 3.119468 1_555
Br0 Ce12 3.179613 1_545
Br0 Ce17 3.452802 1_545
Br1 Ce18 3.081782 1_555
Br1 Ce20 3.119468 1_555
Br1 Ce20 3.119468 1_455
Br1 Ce11 3.179613 1_555
Br1 Ce23 3.452802 1_555
Br2 Ce22 3.081782 1_555
Br2 Ce21 3.119468 1_555
Br2 Ce21 3.119468 1_655
Br2 Ce19 3.179613 1_555
Br2 Ce16 3.452802 1_555
Br3 Ce1 3.081782 1_555
Br3 Ce3 3.119468 1_655
Br3 Ce3 3.119468 1_555
Br3 Ce2 3.179613 1_565
Br3 Ce0 3.452802 1_565
