# generated using pymatgen
data_UMoO5
_symmetry_space_group_name_H-M   'P 1'
_cell_length_a   4.14571300
_cell_length_b   7.45245800
_cell_length_c   13.01203900
_cell_angle_alpha   90.00000000
_cell_angle_beta   90.00000000
_cell_angle_gamma   90.00000000
_symmetry_Int_Tables_number   1
_chemical_formula_structural   UMoO5
_chemical_formula_sum   'U4 Mo4 O20'
_cell_volume   402.01673012
_cell_formula_units_Z   4
loop_
 _symmetry_equiv_pos_site_id
 _symmetry_equiv_pos_as_xyz
  1  'x, y, z'
loop_
 _atom_site_type_symbol
 _atom_site_label
 _atom_site_symmetry_multiplicity
 _atom_site_fract_x
 _atom_site_fract_y
 _atom_site_fract_z
 _atom_site_occupancy
  U  U0  1  0.00000000  0.25000000  0.52128900  1
  U  U1  1  0.00000000  0.75000000  0.47871100  1
  U  U2  1  0.00000000  0.25000000  0.02128900  1
  U  U3  1  0.00000000  0.75000000  0.97871100  1
  Mo  Mo0  1  0.90251000  0.00000000  0.75000000  1
  Mo  Mo1  1  0.09749000  0.00000000  0.25000000  1
  Mo  Mo2  1  0.90251000  0.50000000  0.25000000  1
  Mo  Mo3  1  0.09749000  0.50000000  0.75000000  1
  O  O0  1  0.98898700  0.45745300  0.40201600  1
  O  O1  1  0.98898700  0.04254700  0.90201600  1
  O  O2  1  0.98898700  0.95745300  0.59798400  1
  O  O3  1  0.51755700  0.00000000  0.25000000  1
  O  O4  1  0.50000000  0.25000000  0.52639500  1
  O  O5  1  0.48244300  0.50000000  0.25000000  1
  O  O6  1  0.01101300  0.54254700  0.59798400  1
  O  O7  1  0.98898700  0.54254700  0.09798400  1
  O  O8  1  0.00000000  0.75000000  0.29557200  1
  O  O9  1  0.01101300  0.95745300  0.09798400  1
  O  O10  1  0.01101300  0.04254700  0.40201600  1
  O  O11  1  0.50000000  0.75000000  0.47360500  1
  O  O12  1  0.00000000  0.25000000  0.20442800  1
  O  O13  1  0.48244300  0.00000000  0.75000000  1
  O  O14  1  0.00000000  0.25000000  0.70442800  1
  O  O15  1  0.50000000  0.25000000  0.02639500  1
  O  O16  1  0.50000000  0.75000000  0.97360500  1
  O  O17  1  0.01101300  0.45745300  0.90201600  1
  O  O18  1  0.51755700  0.50000000  0.75000000  1
  O  O19  1  0.00000000  0.75000000  0.79557200  1
loop_
_geom_bond_atom_site_label_1
_geom_bond_atom_site_label_2
_geom_bond_distance
_geom_bond_site_symmetry_2
Mo0 O13 1.741477 1_555
Mo0 O19 1.996541 1_645
Mo0 O14 1.996541 1_655
Mo0 O1 2.035117 1_555
Mo0 O2 2.035117 1_545
Mo0 O13 2.404236 1_655
Mo1 O3 1.741477 1_555
Mo1 O12 1.996541 1_555
Mo1 O8 1.996541 1_545
Mo1 O9 2.035117 1_545
Mo1 O10 2.035117 1_555
Mo1 O3 2.404236 1_455
Mo2 O5 1.741477 1_555
Mo2 O8 1.996541 1_655
Mo2 O12 1.996541 1_655
Mo2 O0 2.035117 1_555
Mo2 O7 2.035117 1_555
Mo2 O5 2.404236 1_655
Mo3 O18 1.741477 1_555
Mo3 O19 1.996541 1_555
Mo3 O14 1.996541 1_555
Mo3 O17 2.035117 1_555
Mo3 O6 2.035117 1_555
Mo3 O18 2.404236 1_455
O0 U0 2.191111 1_655
O0 U1 2.398177 1_655
O1 U2 2.191111 1_656
O1 U3 2.398177 1_645
O2 U1 2.191111 1_655
O2 U0 2.398177 1_665
O4 U0 2.073921 1_655
O4 U0 2.073921 1_555
O6 U1 2.191111 1_555
O6 U0 2.398177 1_555
O7 U3 2.191111 1_654
O7 U2 2.398177 1_655
O8 U1 2.383012 1_555
O9 U3 2.191111 1_554
O9 U2 2.398177 1_565
O10 U0 2.191111 1_555
O10 U1 2.398177 1_545
O11 U1 2.073921 1_655
O11 U1 2.073921 1_555
O12 U2 2.383012 1_555
O14 U0 2.383012 1_555
O15 U2 2.073921 1_555
O15 U2 2.073921 1_655
O16 U3 2.073921 1_655
O16 U3 2.073921 1_555
O17 U2 2.191111 1_556
O17 U3 2.398177 1_555
O19 U3 2.383012 1_555
