# generated using pymatgen
data_K2PdC4(SN)4
_symmetry_space_group_name_H-M   'P 1'
_cell_length_a   13.22270500
_cell_length_b   4.36429500
_cell_length_c   11.20516443
_cell_angle_alpha   81.84034384
_cell_angle_beta   90.00000000
_cell_angle_gamma   90.00000000
_symmetry_Int_Tables_number   1
_chemical_formula_structural   K2PdC4(SN)4
_chemical_formula_sum   'K4 Pd2 C8 S8 N8'
_cell_volume   640.07905823
_cell_formula_units_Z   2
loop_
 _symmetry_equiv_pos_site_id
 _symmetry_equiv_pos_as_xyz
  1  'x, y, z'
loop_
 _atom_site_type_symbol
 _atom_site_label
 _atom_site_symmetry_multiplicity
 _atom_site_fract_x
 _atom_site_fract_y
 _atom_site_fract_z
 _atom_site_occupancy
  K  K0  1  0.35467400  0.30929000  0.03004200  1
  K  K1  1  0.14532600  0.30929000  0.53004200  1
  K  K2  1  0.85467400  0.69071000  0.46995800  1
  K  K3  1  0.64532600  0.69071000  0.96995800  1
  Pd  Pd0  1  0.00000000  0.00000000  0.00000000  1
  Pd  Pd1  1  0.50000000  0.00000000  0.50000000  1
  C  C0  1  0.84556500  0.21193900  0.20468100  1
  C  C1  1  0.92463400  0.02900900  0.72745300  1
  C  C2  1  0.57536600  0.02900900  0.22745300  1
  C  C3  1  0.65443500  0.21193900  0.70468100  1
  C  C4  1  0.34556500  0.78806100  0.29531900  1
  C  C5  1  0.07536600  0.97099100  0.27254700  1
  C  C6  1  0.15443500  0.78806100  0.79531900  1
  C  C7  1  0.42463400  0.97099100  0.77254700  1
  S  S0  1  0.33520700  0.87443600  0.43398200  1
  S  S1  1  0.59181600  0.77443500  0.35004900  1
  S  S2  1  0.90818400  0.77443500  0.85004900  1
  S  S3  1  0.40818400  0.22556500  0.64995100  1
  S  S4  1  0.83520700  0.12556400  0.06601800  1
  S  S5  1  0.09181600  0.22556500  0.14995100  1
  S  S6  1  0.16479300  0.87443600  0.93398200  1
  S  S7  1  0.66479300  0.12556400  0.56601800  1
  N  N0  1  0.56466900  0.19920900  0.13596600  1
  N  N1  1  0.65176700  0.27390600  0.80372400  1
  N  N2  1  0.34823300  0.72609400  0.19627600  1
  N  N3  1  0.93533100  0.19920900  0.63596600  1
  N  N4  1  0.15176700  0.72609400  0.69627600  1
  N  N5  1  0.84823300  0.27390600  0.30372400  1
  N  N6  1  0.06466900  0.80079100  0.36403400  1
  N  N7  1  0.43533100  0.80079100  0.86403400  1
loop_
_geom_bond_atom_site_label_1
_geom_bond_atom_site_label_2
_geom_bond_distance
_geom_bond_site_symmetry_2
K0 N2 2.783453 1_555
K0 N7 2.840104 1_554
K0 N2 2.934158 1_545
K0 N0 3.031129 1_555
K0 S6 3.412333 1_544
K0 S6 3.576622 1_554
K1 N4 2.783453 1_555
K1 N6 2.840104 1_555
K1 N4 2.934158 1_545
K1 N3 3.031129 1_455
K1 S0 3.412333 1_545
K1 S0 3.576622 1_555
K2 N5 2.783453 1_555
K2 N3 2.840104 1_555
K2 N5 2.934158 1_565
K2 N6 3.031129 1_655
K2 S7 3.412333 1_565
K2 S7 3.576622 1_555
K3 N1 2.783453 1_555
K3 N0 2.840104 1_556
K3 N1 2.934158 1_565
K3 N7 3.031129 1_555
K3 S4 3.412333 1_566
K3 S4 3.576622 1_556
Pd0 S4 2.389702 1_455
Pd0 S6 2.389702 1_544
Pd0 S2 2.394938 1_444
Pd0 S5 2.394938 1_555
Pd1 S7 2.389702 1_555
Pd1 S0 2.389702 1_545
Pd1 S3 2.394938 1_555
Pd1 S1 2.394938 1_545
C0 N5 1.179501 1_555
C0 S4 1.655668 1_555
C1 N3 1.185957 1_555
C1 S2 1.653948 1_545
C2 N0 1.185957 1_555
C2 S1 1.653948 1_545
C3 N1 1.179501 1_555
C3 S7 1.655668 1_555
C4 N2 1.179501 1_555
C4 S0 1.655668 1_555
C5 N6 1.185957 1_555
C5 S5 1.653948 1_565
C6 N4 1.179501 1_555
C6 S6 1.655668 1_555
C7 N7 1.185957 1_555
C7 S3 1.653948 1_565
