# generated using pymatgen
data_RbHSeO4
_symmetry_space_group_name_H-M   'P 1'
_cell_length_a   10.52198405
_cell_length_b   4.59291224
_cell_length_c   10.52671249
_cell_angle_alpha   78.44939910
_cell_angle_beta   138.25239009
_cell_angle_gamma   101.95146989
_symmetry_Int_Tables_number   1
_chemical_formula_structural   RbHSeO4
_chemical_formula_sum   'Rb3 H3 Se3 O12'
_cell_volume   330.57108986
_cell_formula_units_Z   3
loop_
 _symmetry_equiv_pos_site_id
 _symmetry_equiv_pos_as_xyz
  1  'x, y, z'
loop_
 _atom_site_type_symbol
 _atom_site_label
 _atom_site_symmetry_multiplicity
 _atom_site_fract_x
 _atom_site_fract_y
 _atom_site_fract_z
 _atom_site_occupancy
  Rb  Rb0  1  0.49072039  0.00207401  0.49117222  1
  Rb  Rb1  1  0.24938893  0.57434100  0.91936021  1
  Rb  Rb2  1  0.92136337  0.42556761  0.25087703  1
  H  H0  1  0.86644230  0.54397725  0.87405399  1
  H  H1  1  0.86731649  0.14203549  0.55251211  1
  H  H2  1  0.55271422  0.85763864  0.86869841  1
  Se  Se0  1  0.00338507  0.01040091  0.00047674  1
  Se  Se1  1  0.74305568  0.69921740  0.40788926  1
  Se  Se2  1  0.40868922  0.29836277  0.74372204  1
  O  O0  1  0.89942580  0.29346987  0.83619655  1
  O  O1  1  0.82814821  0.71210023  0.89049954  1
  O  O2  1  0.18766857  0.93487048  0.05952358  1
  O  O3  1  0.05472830  0.05285868  0.18537309  1
  O  O4  1  0.90631975  0.46712657  0.51576953  1
  O  O5  1  0.51706417  0.53270901  0.90785211  1
  O  O6  1  0.69997547  0.90627230  0.23579921  1
  O  O7  1  0.23437161  0.08982958  0.69814507  1
  O  O8  1  0.84630888  0.92433822  0.58588808  1
  O  O9  1  0.58622729  0.07546970  0.84739940  1
  O  O10  1  0.55180407  0.52990374  0.34477713  1
  O  O11  1  0.34807121  0.46533655  0.55442568  1
loop_
_geom_bond_atom_site_label_1
_geom_bond_atom_site_label_2
_geom_bond_distance
_geom_bond_site_symmetry_2
H0 O1 1.036848 1_555
H0 O0 1.469155 1_555
H1 O8 1.027470 1_545
H1 O4 1.516314 1_555
H2 O9 1.028396 1_565
H2 O5 1.513367 1_555
O0 Se0 1.656312 1_656
O0 Rb1 3.108790 1_655
O0 Rb0 3.119715 1_555
O1 Se0 1.738052 1_666
O1 Rb0 3.081546 1_565
O1 Rb2 3.173084 1_556
O2 Se0 1.631055 1_565
O2 Rb1 2.862560 1_554
O2 Rb0 3.073047 1_565
O2 Rb1 3.182655 1_564
O3 Se0 1.630194 1_555
O3 Rb2 2.878604 1_455
O3 Rb0 3.093359 1_555
O3 Rb2 3.117551 1_445
O4 Se1 1.655183 1_555
O4 Rb1 2.922352 1_655
O4 Rb2 2.953168 1_555
O5 Se2 1.655437 1_555
O5 Rb2 2.934606 1_556
O5 Rb1 2.953847 1_555
O6 Se1 1.629375 1_555
O6 Rb2 2.904981 1_565
O6 Rb1 3.372312 1_554
O6 Rb2 3.429876 1_555
O7 Se2 1.629429 1_555
O7 Rb1 2.907085 1_545
O7 Rb2 3.383788 1_455
O7 Rb1 3.432236 1_555
O8 Se1 1.741646 1_555
O8 Rb0 3.156677 1_565
O8 Rb1 3.353018 1_655
O9 Se2 1.741031 1_555
O9 Rb0 3.150897 1_555
O9 Rb2 3.331347 1_556
O10 Se1 1.630795 1_555
O10 Rb0 2.828704 1_555
O10 Rb1 2.976794 1_554
O10 Rb0 3.299171 1_565
O11 Se2 1.630883 1_555
O11 Rb0 2.841627 1_565
O11 Rb2 2.981386 1_455
O11 Rb0 3.256496 1_555
