# generated using pymatgen
data_Na3YCl6
_symmetry_space_group_name_H-M   'P 1'
_cell_length_a   7.40320113
_cell_length_b   7.40320175
_cell_length_c   7.40320339
_cell_angle_alpha   56.63555295
_cell_angle_beta   56.63554940
_cell_angle_gamma   56.63555583
_symmetry_Int_Tables_number   1
_chemical_formula_structural   Na3YCl6
_chemical_formula_sum   'Na3 Y1 Cl6'
_cell_volume   264.61187666
_cell_formula_units_Z   1
loop_
 _symmetry_equiv_pos_site_id
 _symmetry_equiv_pos_as_xyz
  1  'x, y, z'
loop_
 _atom_site_type_symbol
 _atom_site_label
 _atom_site_symmetry_multiplicity
 _atom_site_fract_x
 _atom_site_fract_y
 _atom_site_fract_z
 _atom_site_occupancy
  Na  Na0  1  0.19925243  0.19925243  0.19925243  1
  Na  Na1  1  0.50000000  0.50000000  0.50000000  1
  Na  Na2  1  0.80074757  0.80074757  0.80074757  1
  Y  Y0  1  -0.00000000  0.00000000  -0.00000000  1
  Cl  Cl0  1  0.10935413  0.37269022  0.77804467  1
  Cl  Cl1  1  0.37269022  0.77804467  0.10935413  1
  Cl  Cl2  1  0.77804467  0.10935413  0.37269022  1
  Cl  Cl3  1  0.22195533  0.89064587  0.62730978  1
  Cl  Cl4  1  0.62730978  0.22195533  0.89064587  1
  Cl  Cl5  1  0.89064587  0.62730978  0.22195533  1
loop_
_geom_bond_atom_site_label_1
_geom_bond_atom_site_label_2
_geom_bond_distance
_geom_bond_site_symmetry_2
Cl0 Y0 2.641031 1_556
Cl0 Na2 2.736861 1_455
Cl0 Na1 2.793842 1_555
Cl0 Na0 2.958735 1_556
Cl1 Y0 2.641031 1_565
Cl1 Na2 2.736861 1_554
Cl1 Na1 2.793843 1_555
Cl1 Na0 2.958735 1_565
Cl2 Y0 2.641031 1_655
Cl2 Na2 2.736862 1_545
Cl2 Na1 2.793843 1_555
Cl2 Na0 2.958734 1_655
Cl3 Y0 2.641031 1_566
Cl3 Na0 2.736862 1_565
Cl3 Na1 2.793843 1_555
Cl3 Na2 2.958734 1_455
Cl4 Y0 2.641031 1_656
Cl4 Na0 2.736861 1_556
Cl4 Na1 2.793843 1_555
Cl4 Na2 2.958735 1_545
Cl5 Y0 2.641031 1_665
Cl5 Na0 2.736861 1_655
Cl5 Na1 2.793842 1_555
Cl5 Na2 2.958735 1_554
