# generated using pymatgen
data_Sb2Pb2O7
_symmetry_space_group_name_H-M   'P 1'
_cell_length_a   7.67635829
_cell_length_b   7.67635829
_cell_length_c   7.67635829
_cell_angle_alpha   60.00000000
_cell_angle_beta   60.00000000
_cell_angle_gamma   60.00000000
_symmetry_Int_Tables_number   1
_chemical_formula_structural   Sb2Pb2O7
_chemical_formula_sum   'Sb4 Pb4 O14'
_cell_volume   319.85320940
_cell_formula_units_Z   2
loop_
 _symmetry_equiv_pos_site_id
 _symmetry_equiv_pos_as_xyz
  1  'x, y, z'
loop_
 _atom_site_type_symbol
 _atom_site_label
 _atom_site_symmetry_multiplicity
 _atom_site_fract_x
 _atom_site_fract_y
 _atom_site_fract_z
 _atom_site_occupancy
  Sb  Sb0  1  0.12500000  0.62500000  0.12500000  1
  Sb  Sb1  1  0.12500000  0.12500000  0.12500000  1
  Sb  Sb2  1  0.62500000  0.12500000  0.12500000  1
  Sb  Sb3  1  0.12500000  0.12500000  0.62500000  1
  Pb  Pb0  1  0.62500000  0.12500000  0.62500000  1
  Pb  Pb1  1  0.12500000  0.62500000  0.62500000  1
  Pb  Pb2  1  0.62500000  0.62500000  0.12500000  1
  Pb  Pb3  1  0.62500000  0.62500000  0.62500000  1
  O  O0  1  0.05769900  0.44230100  0.05769900  1
  O  O1  1  0.05769900  0.44230100  0.44230100  1
  O  O2  1  0.80769900  0.19230100  0.80769900  1
  O  O3  1  0.80769900  0.19230100  0.19230100  1
  O  O4  1  0.19230100  0.80769900  0.19230100  1
  O  O5  1  0.75000000  0.75000000  0.75000000  1
  O  O6  1  0.19230100  0.19230100  0.80769900  1
  O  O7  1  0.44230100  0.05769900  0.05769900  1
  O  O8  1  0.44230100  0.05769900  0.44230100  1
  O  O9  1  0.19230100  0.80769900  0.80769900  1
  O  O10  1  0.05769900  0.05769900  0.44230100  1
  O  O11  1  0.50000000  0.50000000  0.50000000  1
  O  O12  1  0.44230100  0.44230100  0.05769900  1
  O  O13  1  0.80769900  0.80769900  0.19230100  1
loop_
_geom_bond_atom_site_label_1
_geom_bond_atom_site_label_2
_geom_bond_distance
_geom_bond_site_symmetry_2
O0 Sb1 2.053463 1_555
O0 Sb0 2.053463 1_555
O0 Pb2 2.759839 1_455
O0 Pb1 2.759839 1_554
O1 Sb3 2.053463 1_555
O1 Sb0 2.053463 1_555
O1 Pb1 2.759839 1_555
O1 Pb3 2.759839 1_455
O2 Sb3 2.053463 1_655
O2 Sb2 2.053463 1_556
O2 Pb0 2.759839 1_555
O2 Pb3 2.759839 1_555
O3 Sb2 2.053463 1_555
O3 Sb1 2.053463 1_655
O3 Pb0 2.759839 1_555
O3 Pb2 2.759839 1_555
O4 Sb0 2.053463 1_555
O4 Sb1 2.053463 1_565
O4 Pb1 2.759839 1_555
O4 Pb2 2.759839 1_555
O5 Pb2 2.350395 1_556
O5 Pb3 2.350395 1_555
O5 Pb1 2.350395 1_655
O5 Pb0 2.350395 1_565
O6 Sb3 2.053463 1_555
O6 Sb1 2.053463 1_556
O6 Pb1 2.759839 1_555
O6 Pb0 2.759839 1_555
O7 Sb1 2.053463 1_555
O7 Sb2 2.053463 1_555
O7 Pb2 2.759839 1_545
O7 Pb0 2.759839 1_554
O8 Sb3 2.053463 1_555
O8 Sb2 2.053463 1_555
O8 Pb3 2.759839 1_545
O8 Pb0 2.759839 1_555
O9 Sb0 2.053463 1_556
O9 Sb3 2.053463 1_565
O9 Pb1 2.759839 1_555
O9 Pb3 2.759839 1_555
O10 Sb1 2.053463 1_555
O10 Sb3 2.053463 1_555
O10 Pb0 2.759839 1_455
O10 Pb1 2.759839 1_545
O11 Pb2 2.350395 1_555
O11 Pb3 2.350395 1_555
O11 Pb0 2.350395 1_555
O11 Pb1 2.350395 1_555
O12 Sb0 2.053463 1_555
O12 Sb2 2.053463 1_555
O12 Pb2 2.759839 1_555
O12 Pb3 2.759839 1_554
O13 Sb0 2.053463 1_655
O13 Sb2 2.053463 1_565
O13 Pb2 2.759839 1_555
O13 Pb3 2.759839 1_555
