# generated using pymatgen
data_HgTe(H2O3)2
_symmetry_space_group_name_H-M   'P 1'
_cell_length_a   6.17505800
_cell_length_b   8.43556200
_cell_length_c   11.02382700
_cell_angle_alpha   90.00000000
_cell_angle_beta   90.00000000
_cell_angle_gamma   90.00000000
_symmetry_Int_Tables_number   1
_chemical_formula_structural   HgTe(H2O3)2
_chemical_formula_sum   'Hg4 Te4 H16 O24'
_cell_volume   574.23208118
_cell_formula_units_Z   4
loop_
 _symmetry_equiv_pos_site_id
 _symmetry_equiv_pos_as_xyz
  1  'x, y, z'
loop_
 _atom_site_type_symbol
 _atom_site_label
 _atom_site_symmetry_multiplicity
 _atom_site_fract_x
 _atom_site_fract_y
 _atom_site_fract_z
 _atom_site_occupancy
  Hg  Hg0  1  0.35923800  0.09182500  0.02619500  1
  Hg  Hg1  1  0.14076200  0.09182500  0.52619500  1
  Hg  Hg2  1  0.85923800  0.59182500  0.47380500  1
  Hg  Hg3  1  0.64076200  0.59182500  0.97380500  1
  Te  Te0  1  0.85429800  0.08762700  0.14264400  1
  Te  Te1  1  0.14570200  0.58762700  0.85735600  1
  Te  Te2  1  0.64570200  0.08762700  0.64264400  1
  Te  Te3  1  0.35429800  0.58762700  0.35735600  1
  H  H0  1  0.01288900  0.86500500  0.91609800  1
  H  H1  1  0.98711100  0.36500500  0.08390200  1
  H  H2  1  0.65715000  0.60797600  0.21791600  1
  H  H3  1  0.86594800  0.86593300  0.71739800  1
  H  H4  1  0.13405200  0.36593300  0.28260200  1
  H  H5  1  0.36594800  0.36593300  0.78260200  1
  H  H6  1  0.79293200  0.15496300  0.84545900  1
  H  H7  1  0.51288900  0.36500500  0.58390200  1
  H  H8  1  0.70706800  0.15496300  0.34545900  1
  H  H9  1  0.15715000  0.10797600  0.28208400  1
  H  H10  1  0.29293200  0.65496300  0.65454100  1
  H  H11  1  0.84285000  0.60797600  0.71791600  1
  H  H12  1  0.48711100  0.86500500  0.41609800  1
  H  H13  1  0.34285000  0.10797600  0.78208400  1
  H  H14  1  0.20706800  0.65496300  0.15454100  1
  H  H15  1  0.63405200  0.86593300  0.21739800  1
  O  O0  1  0.21013500  0.37992600  0.36185500  1
  O  O1  1  0.54955700  0.50654100  0.48243200  1
  O  O2  1  0.47575200  0.28720500  0.64991300  1
  O  O3  1  0.64161500  0.15421300  0.26353200  1
  O  O4  1  0.05368600  0.02010700  0.27394700  1
  O  O5  1  0.78986500  0.87992600  0.63814500  1
  O  O6  1  0.85838500  0.15421300  0.76353200  1
  O  O7  1  0.14161500  0.65421300  0.23646800  1
  O  O8  1  0.97575200  0.78720500  0.85008700  1
  O  O9  1  0.95044300  0.50654100  0.98243200  1
  O  O10  1  0.35838500  0.65421300  0.73646800  1
  O  O11  1  0.17071200  0.67424200  0.48361800  1
  O  O12  1  0.71013500  0.87992600  0.13814500  1
  O  O13  1  0.04955700  0.00654100  0.01756800  1
  O  O14  1  0.67071200  0.17424200  0.01638200  1
  O  O15  1  0.44631400  0.02010700  0.77394700  1
  O  O16  1  0.45044300  0.00654100  0.51756800  1
  O  O17  1  0.02424800  0.28720500  0.14991300  1
  O  O18  1  0.82928800  0.17424200  0.51638200  1
  O  O19  1  0.28986500  0.37992600  0.86185500  1
  O  O20  1  0.94631400  0.52010700  0.72605300  1
  O  O21  1  0.52424800  0.78720500  0.35008700  1
  O  O22  1  0.55368600  0.52010700  0.22605300  1
  O  O23  1  0.32928800  0.67424200  0.98361800  1
loop_
_geom_bond_atom_site_label_1
_geom_bond_atom_site_label_2
_geom_bond_distance
_geom_bond_site_symmetry_2
Hg0 O13 2.045359 1_555
Hg0 O14 2.048025 1_555
Hg1 O16 2.045359 1_555
Hg1 O18 2.048025 1_455
Hg2 O1 2.045359 1_555
Hg2 O11 2.048025 1_655
Hg3 O9 2.045359 1_555
Hg3 O23 2.048025 1_555
H0 O8 1.006399 1_455
H0 O13 1.651663 1_566
H1 O17 1.006399 1_655
H1 O9 1.651663 1_554
H2 O22 0.982674 1_555
H3 O5 0.998981 1_555
H4 O0 0.998981 1_555
H5 O19 0.998981 1_555
H6 O6 0.989483 1_555
H7 O2 1.006399 1_555
H7 O1 1.651663 1_555
H8 O3 0.989483 1_555
H9 O4 0.982674 1_555
H10 O10 0.989483 1_555
H11 O20 0.982674 1_555
H12 O21 1.006399 1_555
H12 O16 1.651663 1_565
H13 O15 0.982674 1_555
H14 O7 0.989483 1_555
H15 O12 0.998981 1_555
O0 Te3 1.965886 1_555
O1 Te3 1.955197 1_555
O2 Te2 1.985477 1_555
O3 Te0 1.953531 1_555
O4 Te0 1.983806 1_455
O5 Te2 1.965886 1_565
O6 Te2 1.953531 1_555
O7 Te3 1.953531 1_555
O8 Te1 1.985477 1_655
O9 Te1 1.955197 1_655
O10 Te1 1.953531 1_555
O11 Te3 1.938137 1_555
O12 Te0 1.965886 1_565
O13 Te0 1.955197 1_455
O14 Te0 1.938137 1_555
O15 Te2 1.983806 1_555
O16 Te2 1.955197 1_555
O17 Te0 1.985477 1_455
O18 Te2 1.938137 1_555
O19 Te1 1.965886 1_555
O20 Te1 1.983806 1_655
O21 Te3 1.985477 1_555
O22 Te3 1.983806 1_555
O23 Te1 1.938137 1_555
