# generated using pymatgen
data_InP2H4NO8
_symmetry_space_group_name_H-M   'P 1'
_cell_length_a   8.44292100
_cell_length_b   9.79640100
_cell_length_c   9.82199340
_cell_angle_alpha   63.62190500
_cell_angle_beta   90.00000000
_cell_angle_gamma   90.00000000
_symmetry_Int_Tables_number   1
_chemical_formula_structural   InP2H4NO8
_chemical_formula_sum   'In4 P8 H16 N4 O32'
_cell_volume   727.79585168
_cell_formula_units_Z   4
loop_
 _symmetry_equiv_pos_site_id
 _symmetry_equiv_pos_as_xyz
  1  'x, y, z'
loop_
 _atom_site_type_symbol
 _atom_site_label
 _atom_site_symmetry_multiplicity
 _atom_site_fract_x
 _atom_site_fract_y
 _atom_site_fract_z
 _atom_site_occupancy
  In  In0  1  0.62891800  0.49154200  0.74201400  1
  In  In1  1  0.12891800  0.00845800  0.25798600  1
  In  In2  1  0.37108200  0.50845800  0.25798600  1
  In  In3  1  0.87108200  0.99154200  0.74201400  1
  P  P0  1  0.67624600  0.32752600  0.50763500  1
  P  P1  1  0.17624600  0.17247400  0.49236500  1
  P  P2  1  0.32375400  0.67247400  0.49236500  1
  P  P3  1  0.82375400  0.82752600  0.50763500  1
  P  P4  1  0.56429000  0.72988600  0.90702400  1
  P  P5  1  0.06429000  0.77011400  0.09297600  1
  P  P6  1  0.43571000  0.27011400  0.09297600  1
  P  P7  1  0.93571000  0.22988600  0.90702400  1
  H  H0  1  0.49245000  0.04394700  0.81436200  1
  H  H1  1  0.99245000  0.45605300  0.18563800  1
  H  H2  1  0.50755000  0.95605300  0.18563800  1
  H  H3  1  0.00755000  0.54394700  0.81436200  1
  H  H4  1  0.38261700  0.08701500  0.93804800  1
  H  H5  1  0.88261700  0.41298500  0.06195200  1
  H  H6  1  0.61738300  0.91298500  0.06195200  1
  H  H7  1  0.11738300  0.58701500  0.93804800  1
  H  H8  1  0.35358100  0.18373100  0.75231400  1
  H  H9  1  0.85358100  0.31626900  0.24768600  1
  H  H10  1  0.64641900  0.81626900  0.24768600  1
  H  H11  1  0.14641900  0.68373100  0.75231400  1
  H  H12  1  0.29993000  0.99997900  0.84143800  1
  H  H13  1  0.79993000  0.50002100  0.15856200  1
  H  H14  1  0.70007000  0.00002100  0.15856200  1
  H  H15  1  0.20007000  0.49997900  0.84143800  1
  N  N0  1  0.38316400  0.07811500  0.83720300  1
  N  N1  1  0.88316400  0.42188500  0.16279700  1
  N  N2  1  0.61683600  0.92188500  0.16279700  1
  N  N3  1  0.11683600  0.57811500  0.83720300  1
  O  O0  1  0.58360200  0.34987600  0.63095700  1
  O  O1  1  0.08360200  0.15012400  0.36904300  1
  O  O2  1  0.41639800  0.65012400  0.36904300  1
  O  O3  1  0.91639800  0.84987600  0.63095700  1
  O  O4  1  0.58214100  0.38266400  0.35855400  1
  O  O5  1  0.08214100  0.11733600  0.64144600  1
  O  O6  1  0.41785900  0.61733600  0.64144600  1
  O  O7  1  0.91785900  0.88266400  0.35855400  1
  O  O8  1  0.72587200  0.15856900  0.55975800  1
  O  O9  1  0.22587200  0.34143100  0.44024200  1
  O  O10  1  0.27412800  0.84143100  0.44024200  1
  O  O11  1  0.77412800  0.65856900  0.55975800  1
  O  O12  1  0.84478200  0.40055500  0.47677300  1
  O  O13  1  0.34478200  0.09944500  0.52322700  1
  O  O14  1  0.15521800  0.59944500  0.52322700  1
  O  O15  1  0.65521800  0.90055500  0.47677300  1
  O  O16  1  0.65150400  0.88468000  0.85427600  1
  O  O17  1  0.15150400  0.61532000  0.14572400  1
  O  O18  1  0.34849600  0.11532000  0.14572400  1
  O  O19  1  0.84849600  0.38468000  0.85427600  1
  O  O20  1  0.52522900  0.67444400  0.07865600  1
  O  O21  1  0.02522900  0.82555600  0.92134400  1
  O  O22  1  0.47477100  0.32555600  0.92134400  1
  O  O23  1  0.97477100  0.17444400  0.07865600  1
  O  O24  1  0.66291700  0.61553000  0.87658800  1
  O  O25  1  0.16291700  0.88447000  0.12341200  1
  O  O26  1  0.33708300  0.38447000  0.12341200  1
  O  O27  1  0.83708300  0.11553000  0.87658800  1
  O  O28  1  0.39176100  0.75186100  0.84530900  1
  O  O29  1  0.89176100  0.74813900  0.15469100  1
  O  O30  1  0.60823900  0.24813900  0.15469100  1
  O  O31  1  0.10823900  0.25186100  0.84530900  1
loop_
_geom_bond_atom_site_label_1
_geom_bond_atom_site_label_2
_geom_bond_distance
_geom_bond_site_symmetry_2
In0 O6 2.141975 1_555
In0 O0 2.146494 1_555
In0 O19 2.173223 1_555
In0 O24 2.175194 1_555
In0 O11 2.186821 1_555
In0 O22 2.212533 1_555
In1 O7 2.141975 1_445
In1 O1 2.146494 1_555
In1 O18 2.173223 1_555
In1 O25 2.175194 1_545
In1 O10 2.186821 1_545
In1 O23 2.212533 1_455
In2 O4 2.141975 1_555
In2 O2 2.146494 1_555
In2 O17 2.173223 1_555
In2 O26 2.175194 1_555
In2 O9 2.186821 1_555
In2 O20 2.212533 1_555
In3 O5 2.141975 1_665
In3 O3 2.146494 1_555
In3 O16 2.173223 1_555
In3 O27 2.175194 1_565
In3 O8 2.186821 1_565
In3 O21 2.212533 1_655
H0 N0 1.039451 1_555
H1 N1 1.039451 1_555
H2 N2 1.039451 1_555
H3 N3 1.039451 1_555
H4 N0 1.032206 1_555
H5 N1 1.032206 1_555
H6 N2 1.032206 1_555
H7 N3 1.032206 1_555
H8 N0 1.030303 1_555
H9 N1 1.030303 1_555
H10 N2 1.030303 1_555
H11 N3 1.030303 1_555
H12 N0 1.026253 1_565
H13 N1 1.026253 1_555
H14 N2 1.026253 1_545
H15 N3 1.026253 1_555
O0 P0 1.537069 1_555
O1 P1 1.537069 1_555
O2 P2 1.537069 1_555
O3 P3 1.537069 1_555
O4 P0 1.537632 1_555
O5 P1 1.537632 1_555
O6 P2 1.537632 1_555
O7 P3 1.537632 1_555
O8 P0 1.557009 1_555
O9 P1 1.557009 1_555
O10 P2 1.557009 1_555
O11 P3 1.557009 1_555
O12 P0 1.560692 1_555
O13 P1 1.560692 1_555
O14 P2 1.560692 1_555
O15 P3 1.560692 1_555
O16 P4 1.553076 1_555
O17 P5 1.553076 1_555
O18 P6 1.553076 1_555
O19 P7 1.553076 1_555
O20 P4 1.559482 1_554
O21 P5 1.559482 1_556
O22 P6 1.559482 1_556
O23 P7 1.559482 1_554
O24 P4 1.528189 1_555
O25 P5 1.528189 1_555
O26 P6 1.528189 1_555
O27 P7 1.528189 1_555
O28 P4 1.555523 1_555
O29 P5 1.555523 1_655
O30 P6 1.555523 1_555
O31 P7 1.555523 1_455
