# generated using pymatgen
data_PBr2N
_symmetry_space_group_name_H-M   'P 1'
_cell_length_a   9.57280961
_cell_length_b   10.51030004
_cell_length_c   12.16050011
_cell_angle_alpha   100.82300292
_cell_angle_beta   112.75232717
_cell_angle_gamma   93.64738644
_symmetry_Int_Tables_number   1
_chemical_formula_structural   PBr2N
_chemical_formula_sum   'P10 Br20 N10'
_cell_volume   1095.62121548
_cell_formula_units_Z   10
loop_
 _symmetry_equiv_pos_site_id
 _symmetry_equiv_pos_as_xyz
  1  'x, y, z'
loop_
 _atom_site_type_symbol
 _atom_site_label
 _atom_site_symmetry_multiplicity
 _atom_site_fract_x
 _atom_site_fract_y
 _atom_site_fract_z
 _atom_site_occupancy
  P  P0  1  0.61391256  0.30996784  0.40304978  1
  P  P1  1  0.80218698  0.01161003  0.14734755  1
  P  P2  1  0.30555326  0.95678488  0.65972386  1
  P  P3  1  0.19778589  0.98839036  0.85263299  1
  P  P4  1  0.64961809  0.47441855  0.24917626  1
  P  P5  1  0.38608785  0.69003078  0.59694592  1
  P  P6  1  0.82662167  0.29373804  0.16714338  1
  P  P7  1  0.17344667  0.70628426  0.83290840  1
  P  P8  1  0.35041207  0.52558722  0.75083550  1
  P  P9  1  0.69440217  0.04319700  0.34023200  1
  Br  Br0  1  -0.00734627  0.66591061  0.64517210  1
  Br  Br1  1  0.05309974  0.62757905  0.93348665  1
  Br  Br2  1  0.97201158  0.03513569  0.83908886  1
  Br  Br3  1  0.57522998  0.48389324  0.86405708  1
  Br  Br4  1  0.63171706  0.73112672  0.64291901  1
  Br  Br5  1  0.79686076  0.66329227  0.30644730  1
  Br  Br6  1  0.47316265  0.91372507  0.26390388  1
  Br  Br7  1  0.71649043  0.35044034  0.60262577  1
  Br  Br8  1  0.19222692  0.99029197  0.47666806  1
  Br  Br9  1  0.20316762  0.33670957  0.69360912  1
  Br  Br10  1  0.28356798  0.64953970  0.39735525  1
  Br  Br11  1  0.02790128  0.96476077  0.16085161  1
  Br  Br12  1  0.36831649  0.26886714  0.35714385  1
  Br  Br13  1  0.35793500  0.13999728  0.00576888  1
  Br  Br14  1  0.80766423  0.00966436  0.52327149  1
  Br  Br15  1  0.64193498  0.86010006  -0.00580745  1
  Br  Br16  1  0.00734291  0.33407451  0.35487380  1
  Br  Br17  1  0.94703577  0.37244976  0.06663063  1
  Br  Br18  1  0.42482326  0.51610693  0.13591918  1
  Br  Br19  1  0.52677419  0.08630122  0.73601732  1
  N  N0  1  0.77584741  0.14430640  0.10776248  1
  N  N1  1  0.64960314  0.44183031  0.36972220  1
  N  N2  1  0.22422258  0.85571883  0.89225882  1
  N  N3  1  0.79396320  -0.00748605  0.26958086  1
  N  N4  1  0.30856674  0.62782192  0.84040641  1
  N  N5  1  0.35036968  0.55816558  0.63026392  1
  N  N6  1  0.20600879  0.00747293  0.73039132  1
  N  N7  1  0.33166573  0.81125748  0.65569818  1
  N  N8  1  0.66829741  0.18872712  0.34429007  1
  N  N9  1  0.69150954  0.37221224  0.15962773  1
loop_
_geom_bond_atom_site_label_1
_geom_bond_atom_site_label_2
_geom_bond_distance
_geom_bond_site_symmetry_2
Br0 P7 2.207686 1_555
Br1 P7 2.203649 1_555
Br2 P3 2.197693 1_645
Br3 P8 2.184950 1_555
Br4 P5 2.188906 1_555
Br5 P4 2.185858 1_555
Br6 P9 2.199352 1_565
Br7 P0 2.179685 1_555
Br8 P2 2.175156 1_555
Br9 P8 2.185954 1_555
Br10 P5 2.179834 1_555
Br11 P1 2.197593 1_465
Br12 P0 2.188766 1_555
Br13 P3 2.173415 1_544
Br14 P9 2.175019 1_555
Br15 P1 2.173304 1_565
Br16 P6 2.207401 1_455
Br17 P6 2.203479 1_555
Br18 P4 2.184885 1_555
Br19 P2 2.199468 1_545
N0 P6 1.558797 1_555
N0 P1 1.563143 1_555
N1 P4 1.566809 1_555
N1 P0 1.568292 1_555
N2 P7 1.558769 1_555
N2 P3 1.563189 1_555
N3 P9 1.567276 1_555
N3 P1 1.567310 1_555
N4 P7 1.560192 1_555
N4 P8 1.566582 1_555
N5 P8 1.566882 1_555
N5 P5 1.568328 1_555
N6 P2 1.567300 1_545
N6 P3 1.567364 1_545
N7 P2 1.560242 1_555
N7 P5 1.560691 1_555
N8 P9 1.560217 1_555
N8 P0 1.560641 1_555
N9 P6 1.560167 1_555
N9 P4 1.566481 1_555
