# generated using pymatgen
data_BaNd2Ti3O10
_symmetry_space_group_name_H-M   'P 1'
_cell_length_a   7.67602100
_cell_length_b   7.78485400
_cell_length_c   14.54373845
_cell_angle_alpha   82.44806188
_cell_angle_beta   90.00000000
_cell_angle_gamma   90.00000000
_symmetry_Int_Tables_number   1
_chemical_formula_structural   BaNd2Ti3O10
_chemical_formula_sum   'Ba4 Nd8 Ti12 O40'
_cell_volume   861.54752101
_cell_formula_units_Z   4
loop_
 _symmetry_equiv_pos_site_id
 _symmetry_equiv_pos_as_xyz
  1  'x, y, z'
loop_
 _atom_site_type_symbol
 _atom_site_label
 _atom_site_symmetry_multiplicity
 _atom_site_fract_x
 _atom_site_fract_y
 _atom_site_fract_z
 _atom_site_occupancy
  Ba  Ba0  1  0.75000000  0.12873100  0.49421200  1
  Ba  Ba1  1  0.25000000  0.87126900  0.50578800  1
  Ba  Ba2  1  0.75000000  0.63483400  0.46637600  1
  Ba  Ba3  1  0.25000000  0.36516600  0.53362400  1
  Nd  Nd0  1  0.25000000  0.21528900  0.13508800  1
  Nd  Nd1  1  0.75000000  0.78471100  0.86491200  1
  Nd  Nd2  1  0.25000000  0.29487100  0.84401300  1
  Nd  Nd3  1  0.75000000  0.70512900  0.15598700  1
  Nd  Nd4  1  0.25000000  0.70691900  0.16745000  1
  Nd  Nd5  1  0.75000000  0.29308100  0.83255000  1
  Nd  Nd6  1  0.25000000  0.78497300  0.85184000  1
  Nd  Nd7  1  0.75000000  0.21502700  0.14816000  1
  Ti  Ti0  1  0.50194000  0.93283000  0.29043500  1
  Ti  Ti1  1  0.00194000  0.06717000  0.70956500  1
  Ti  Ti2  1  0.49806000  0.06717000  0.70956500  1
  Ti  Ti3  1  0.99806000  0.93283000  0.29043500  1
  Ti  Ti4  1  0.49960700  0.42125400  0.29454800  1
  Ti  Ti5  1  0.99960700  0.57874600  0.70545200  1
  Ti  Ti6  1  0.50039300  0.57874600  0.70545200  1
  Ti  Ti7  1  0.00039300  0.42125400  0.29454800  1
  Ti  Ti8  1  0.50000000  0.50000000  0.00000000  1
  Ti  Ti9  1  0.00000000  0.50000000  0.00000000  1
  Ti  Ti10  1  0.50000000  0.00000000  0.00000000  1
  Ti  Ti11  1  0.00000000  0.00000000  0.00000000  1
  O  O0  1  0.25000000  0.06356400  0.97819200  1
  O  O1  1  0.75000000  0.93643600  0.02180800  1
  O  O2  1  0.75000000  0.09338700  0.70607800  1
  O  O3  1  0.25000000  0.90661300  0.29392200  1
  O  O4  1  0.25000000  0.04951000  0.75666900  1
  O  O5  1  0.75000000  0.95049000  0.24333100  1
  O  O6  1  0.48460100  0.18741200  0.25142200  1
  O  O7  1  0.98460100  0.81258800  0.74857800  1
  O  O8  1  0.51539900  0.81258800  0.74857800  1
  O  O9  1  0.01539900  0.18741200  0.25142200  1
  O  O10  1  0.54872000  0.91507000  0.41034400  1
  O  O11  1  0.04872000  0.08493000  0.58965600  1
  O  O12  1  0.45128000  0.08493000  0.58965600  1
  O  O13  1  0.95128000  0.91507000  0.41034400  1
  O  O14  1  0.45199600  0.94743100  0.13156700  1
  O  O15  1  0.75000000  0.55507600  0.71398400  1
  O  O16  1  0.95199600  0.05256900  0.86843300  1
  O  O17  1  0.04800400  0.94743100  0.13156700  1
  O  O18  1  0.54585800  0.24473600  0.02000100  1
  O  O19  1  0.04585800  0.75526400  0.97999900  1
  O  O20  1  0.45414200  0.75526400  0.97999900  1
  O  O21  1  0.95414200  0.24473600  0.02000100  1
  O  O22  1  0.25000000  0.44475300  0.98458900  1
  O  O23  1  0.75000000  0.55524700  0.01541100  1
  O  O24  1  0.03369700  0.49126100  0.13186600  1
  O  O25  1  0.53369700  0.50873900  0.86813400  1
  O  O26  1  0.96630300  0.50873900  0.86813400  1
  O  O27  1  0.46630300  0.49126100  0.13186600  1
  O  O28  1  0.96694600  0.38196700  0.41620700  1
  O  O29  1  0.46694600  0.61803300  0.58379300  1
  O  O30  1  0.03305400  0.61803300  0.58379300  1
  O  O31  1  0.53305400  0.38196700  0.41620700  1
  O  O32  1  0.97881100  0.68109300  0.27264500  1
  O  O33  1  0.47881100  0.31890700  0.72735500  1
  O  O34  1  0.02118900  0.31890700  0.72735500  1
  O  O35  1  0.52118900  0.68109300  0.27264500  1
  O  O36  1  0.75000000  0.42159100  0.25244500  1
  O  O37  1  0.25000000  0.57840900  0.74755500  1
  O  O38  1  0.25000000  0.44492400  0.28601600  1
  O  O39  1  0.54800400  0.05256900  0.86843300  1
loop_
_geom_bond_atom_site_label_1
_geom_bond_atom_site_label_2
_geom_bond_distance
_geom_bond_site_symmetry_2
Ba0 O10 2.678587 1_545
Ba0 O13 2.678587 1_545
Ba0 O12 2.678894 1_555
Ba0 O11 2.678894 1_655
Ba0 O28 2.712708 1_555
Ba0 O31 2.712708 1_555
Ba0 O2 3.057354 1_555
Ba1 O11 2.678587 1_565
Ba1 O12 2.678587 1_565
Ba1 O13 2.678894 1_455
Ba1 O10 2.678894 1_555
Ba1 O29 2.712708 1_555
Ba1 O30 2.712708 1_555
Ba1 O3 3.057354 1_555
Ba2 O10 2.709846 1_555
Ba2 O13 2.709846 1_555
Ba2 O31 2.749219 1_555
Ba2 O28 2.749219 1_555
Ba2 O30 2.755962 1_655
Ba2 O29 2.755962 1_555
Ba3 O12 2.709846 1_555
Ba3 O11 2.709846 1_555
Ba3 O29 2.749219 1_555
Ba3 O30 2.749219 1_555
Ba3 O31 2.755962 1_555
Ba3 O28 2.755962 1_455
Nd0 O6 2.460915 1_555
Nd0 O9 2.460915 1_555
Nd0 O14 2.604424 1_545
Nd0 O17 2.604424 1_545
Nd0 O22 2.637084 1_554
Nd0 O0 2.703781 1_554
Nd0 O27 2.710740 1_555
Nd0 O24 2.710740 1_555
Nd0 O18 2.812611 1_555
Nd0 O21 2.812611 1_455
Nd0 O38 3.007573 1_555
Nd0 O3 3.106702 1_545
Nd1 O7 2.460915 1_555
Nd1 O8 2.460915 1_555
Nd1 O16 2.604424 1_565
Nd1 O39 2.604424 1_565
Nd1 O23 2.637084 1_556
Nd1 O1 2.703781 1_556
Nd1 O26 2.710740 1_555
Nd1 O25 2.710740 1_555
Nd1 O19 2.812611 1_655
Nd1 O20 2.812611 1_555
Nd1 O15 3.007573 1_555
Nd1 O2 3.106702 1_565
Nd2 O4 2.428980 1_555
Nd2 O34 2.432069 1_555
Nd2 O33 2.432069 1_555
Nd2 O37 2.454847 1_555
Nd2 O0 2.475288 1_555
Nd2 O22 2.483640 1_555
Nd2 O25 2.791202 1_555
Nd2 O26 2.791202 1_455
Nd2 O39 2.956469 1_555
Nd2 O16 2.956469 1_455
Nd3 O5 2.428980 1_555
Nd3 O32 2.432069 1_555
Nd3 O35 2.432069 1_555
Nd3 O36 2.454847 1_555
Nd3 O1 2.475288 1_555
Nd3 O23 2.483640 1_555
Nd3 O24 2.791202 1_655
Nd3 O27 2.791202 1_555
Nd3 O17 2.956469 1_655
Nd3 O14 2.956469 1_555
Nd4 O14 2.434202 1_555
Nd4 O17 2.434202 1_555
Nd4 O27 2.464052 1_555
Nd4 O24 2.464052 1_555
Nd4 O38 2.491789 1_555
Nd4 O3 2.559621 1_555
Nd4 O35 2.575564 1_555
Nd4 O32 2.575564 1_455
Nd5 O16 2.434202 1_555
Nd5 O39 2.434202 1_555
Nd5 O26 2.464052 1_555
Nd5 O25 2.464052 1_555
Nd5 O15 2.491789 1_555
Nd5 O2 2.559621 1_555
Nd5 O34 2.575564 1_655
Nd5 O33 2.575564 1_555
Nd6 O4 2.325437 1_565
Nd6 O37 2.351027 1_555
Nd6 O20 2.422773 1_555
Nd6 O19 2.422773 1_555
Nd6 O8 2.523295 1_555
Nd6 O7 2.523295 1_455
Nd6 O0 3.021276 1_565
Nd7 O5 2.325437 1_545
Nd7 O36 2.351027 1_555
Nd7 O21 2.422773 1_555
Nd7 O18 2.422773 1_555
Nd7 O9 2.523295 1_655
Nd7 O6 2.523295 1_555
Nd7 O1 3.021276 1_545
O0 Ti11 1.996694 1_556
O0 Ti10 1.996694 1_556
O1 Ti11 1.996694 1_665
O1 Ti10 1.996694 1_565
O2 Ti2 1.944598 1_555
O2 Ti1 1.944598 1_655
O3 Ti3 1.944598 1_455
O3 Ti0 1.944598 1_555
O4 Ti1 2.022155 1_555
O4 Ti2 2.022155 1_555
O5 Ti0 2.022155 1_555
O5 Ti3 2.022155 1_555
O6 Ti0 1.992972 1_545
O6 Ti4 2.005177 1_555
O7 Ti1 1.992972 1_665
O7 Ti5 2.005177 1_555
O8 Ti2 1.992972 1_565
O8 Ti6 2.005177 1_555
O9 Ti3 1.992972 1_445
O9 Ti7 2.005177 1_555
O10 Ti0 1.768037 1_555
O11 Ti1 1.768037 1_555
O12 Ti2 1.768037 1_555
O13 Ti3 1.768037 1_555
O14 Ti10 1.938767 1_565
O14 Ti0 2.330114 1_555
O15 Ti5 1.927266 1_555
O15 Ti6 1.927266 1_555
O16 Ti11 1.938767 1_656
O16 Ti1 2.330114 1_655
O17 Ti11 1.938767 1_565
O17 Ti3 2.330114 1_455
O18 Ti10 1.996025 1_555
O18 Ti8 2.001380 1_555
O19 Ti11 1.996025 1_566
O19 Ti9 2.001380 1_556
O20 Ti10 1.996025 1_566
O20 Ti8 2.001380 1_556
O21 Ti11 1.996025 1_655
O21 Ti9 2.001380 1_655
O22 Ti9 1.985732 1_556
O22 Ti8 1.985732 1_556
O23 Ti8 1.985732 1_555
O23 Ti9 1.985732 1_655
O24 Ti9 1.927509 1_555
O24 Ti7 2.370952 1_555
O25 Ti8 1.927509 1_556
O25 Ti6 2.370952 1_555
O26 Ti9 1.927509 1_656
O26 Ti5 2.370952 1_555
O27 Ti8 1.927509 1_555
O27 Ti4 2.370952 1_555
O28 Ti7 1.774234 1_655
O29 Ti6 1.774234 1_555
O30 Ti5 1.774234 1_455
O31 Ti4 1.774234 1_555
O32 Ti7 2.012785 1_655
O32 Ti3 2.015593 1_555
O33 Ti6 2.012785 1_555
O33 Ti2 2.015593 1_555
O34 Ti5 2.012785 1_455
O34 Ti1 2.015593 1_555
O35 Ti4 2.012785 1_555
O35 Ti0 2.015593 1_555
O36 Ti7 2.017104 1_655
O36 Ti4 2.017104 1_555
O37 Ti6 2.017104 1_555
O37 Ti5 2.017104 1_455
O38 Ti4 1.927266 1_555
O38 Ti7 1.927266 1_555
O39 Ti10 1.938767 1_556
O39 Ti2 2.330114 1_555
