# generated using pymatgen
data_Cs2P2H2O7
_symmetry_space_group_name_H-M   'P 1'
_cell_length_a   6.08618978
_cell_length_b   6.08618978
_cell_length_c   11.52103687
_cell_angle_alpha   89.77456462
_cell_angle_beta   89.77456462
_cell_angle_gamma   96.93933420
_symmetry_Int_Tables_number   1
_chemical_formula_structural   Cs2P2H2O7
_chemical_formula_sum   'Cs4 P4 H4 O14'
_cell_volume   423.62523640
_cell_formula_units_Z   2
loop_
 _symmetry_equiv_pos_site_id
 _symmetry_equiv_pos_as_xyz
  1  'x, y, z'
loop_
 _atom_site_type_symbol
 _atom_site_label
 _atom_site_symmetry_multiplicity
 _atom_site_fract_x
 _atom_site_fract_y
 _atom_site_fract_z
 _atom_site_occupancy
  Cs  Cs0  1  0.72089200  0.26783400  0.02061200  1
  Cs  Cs1  1  0.73216600  0.27910800  0.47938800  1
  Cs  Cs2  1  0.27910800  0.73216600  0.97938800  1
  Cs  Cs3  1  0.26783400  0.72089200  0.52061200  1
  P  P0  1  0.19961300  0.17144600  0.26336600  1
  P  P1  1  0.82855400  0.80038700  0.23663400  1
  P  P2  1  0.80038700  0.82855400  0.73663400  1
  P  P3  1  0.17144600  0.19961300  0.76336600  1
  H  H0  1  0.50846000  0.10896100  0.73728300  1
  H  H1  1  0.89103900  0.49154000  0.76271700  1
  H  H2  1  0.49154000  0.89103900  0.26271700  1
  H  H3  1  0.10896100  0.50846000  0.23728300  1
  O  O0  1  0.39546300  0.19320500  0.69250000  1
  O  O1  1  0.80679500  0.60453700  0.80750000  1
  O  O2  1  0.60453700  0.80679500  0.30750000  1
  O  O3  1  0.19320500  0.39546300  0.19250000  1
  O  O4  1  0.75699900  0.79102400  0.60918500  1
  O  O5  1  0.20897600  0.24300100  0.89081500  1
  O  O6  1  0.24300100  0.20897600  0.39081500  1
  O  O7  1  0.79102400  0.75699900  0.10918500  1
  O  O8  1  0.03179600  0.34863600  0.69644400  1
  O  O9  1  0.65136400  0.96820400  0.80355600  1
  O  O10  1  0.96820400  0.65136400  0.30355600  1
  O  O11  1  0.34863600  0.03179600  0.19644400  1
  O  O12  1  0.05890900  0.94109100  0.75000000  1
  O  O13  1  0.94109100  0.05890900  0.25000000  1
loop_
_geom_bond_atom_site_label_1
_geom_bond_atom_site_label_2
_geom_bond_distance
_geom_bond_site_symmetry_2
Cs0 O9 3.100951 1_544
Cs0 O7 3.131647 1_555
Cs0 O1 3.192569 1_554
Cs0 O11 3.233424 1_555
Cs0 O13 3.287925 1_555
Cs0 O5 3.340458 1_654
Cs0 O7 3.344961 1_545
Cs0 O5 3.448302 1_554
Cs1 O8 3.100951 1_655
Cs1 O6 3.131647 1_555
Cs1 O0 3.192569 1_555
Cs1 O10 3.233424 1_555
Cs1 O13 3.287925 1_555
Cs1 O4 3.340458 1_545
Cs1 O6 3.344961 1_655
Cs1 O4 3.448302 1_555
Cs2 O11 3.100951 1_566
Cs2 O5 3.131647 1_555
Cs2 O3 3.192569 1_556
Cs2 O9 3.233424 1_555
Cs2 O12 3.287925 1_555
Cs2 O7 3.340458 1_456
Cs2 O5 3.344961 1_565
Cs2 O7 3.448302 1_556
Cs3 O10 3.100951 1_455
Cs3 O4 3.131647 1_555
Cs3 O2 3.192569 1_555
Cs3 O8 3.233424 1_555
Cs3 O12 3.287925 1_555
Cs3 O6 3.340458 1_565
Cs3 O4 3.344961 1_455
Cs3 O6 3.448302 1_555
H0 O0 1.043054 1_555
H0 O9 1.501147 1_545
H1 O1 1.043054 1_555
H1 O8 1.501147 1_655
H2 O2 1.043054 1_555
H2 O11 1.501147 1_565
H3 O3 1.043054 1_555
H3 O10 1.501147 1_455
O0 P3 1.591018 1_555
O1 P2 1.591018 1_555
O2 P1 1.591018 1_555
O3 P0 1.591018 1_555
O4 P2 1.506339 1_555
O5 P3 1.506339 1_555
O6 P0 1.506339 1_555
O7 P1 1.506339 1_555
O8 P3 1.524924 1_555
O9 P2 1.524924 1_555
O10 P1 1.524924 1_555
O11 P0 1.524924 1_555
O12 P2 1.646449 1_455
O12 P3 1.646449 1_565
O13 P0 1.646449 1_655
O13 P1 1.646449 1_545
