# generated using pymatgen
data_Fe6Ge2(CO)23
_symmetry_space_group_name_H-M   'P 1'
_cell_length_a   9.24850600
_cell_length_b   13.94548600
_cell_length_c   14.60210076
_cell_angle_alpha   67.31817260
_cell_angle_beta   83.11137585
_cell_angle_gamma   82.78183983
_symmetry_Int_Tables_number   1
_chemical_formula_structural   Fe6Ge2(CO)23
_chemical_formula_sum   'Fe12 Ge4 C46 O46'
_cell_volume   1718.61420747
_cell_formula_units_Z   2
loop_
 _symmetry_equiv_pos_site_id
 _symmetry_equiv_pos_as_xyz
  1  'x, y, z'
loop_
 _atom_site_type_symbol
 _atom_site_label
 _atom_site_symmetry_multiplicity
 _atom_site_fract_x
 _atom_site_fract_y
 _atom_site_fract_z
 _atom_site_occupancy
  Fe  Fe0  1  0.63230700  0.49839400  0.16113300  1
  Fe  Fe1  1  0.71302000  0.81410100  0.14003900  1
  Fe  Fe2  1  0.01486900  0.11469900  0.66383000  1
  Fe  Fe3  1  0.61491000  0.70970800  0.32731900  1
  Fe  Fe4  1  0.36769300  0.50160600  0.83886700  1
  Fe  Fe5  1  0.08790700  0.52041100  0.77083900  1
  Fe  Fe6  1  0.38509000  0.29029200  0.67268100  1
  Fe  Fe7  1  0.91209300  0.47958900  0.22916100  1
  Fe  Fe8  1  0.28698000  0.18589900  0.85996100  1
  Fe  Fe9  1  0.72092800  0.01363400  0.31584800  1
  Fe  Fe10  1  0.27907200  0.98636600  0.68415200  1
  Fe  Fe11  1  0.98513100  0.88530100  0.33617000  1
  Ge  Ge0  1  0.26857600  0.37738100  0.78299500  1
  Ge  Ge1  1  0.76699500  0.85494400  0.28123700  1
  Ge  Ge2  1  0.23300500  0.14505600  0.71876300  1
  Ge  Ge3  1  0.73142400  0.62261900  0.21700500  1
  C  C0  1  0.07733000  0.18824300  0.53629300  1
  C  C1  1  0.75569400  0.64065500  0.41016800  1
  C  C2  1  0.23527200  0.88946000  0.64141500  1
  C  C3  1  0.24430600  0.35934500  0.58983200  1
  C  C4  1  0.51137100  0.80076100  0.20454800  1
  C  C5  1  0.67161100  0.95158000  0.08313700  1
  C  C6  1  0.50471200  0.39124900  0.63380300  1
  C  C7  1  0.43291400  0.58077800  0.71234000  1
  C  C8  1  0.04759500  0.64182400  0.78945700  1
  C  C9  1  0.76472800  0.11054000  0.35858500  1
  C  C10  1  0.32838900  0.04842000  0.91686300  1
  C  C11  1  0.46592000  0.57927900  0.13792900  1
  C  C12  1  0.95240500  0.35817600  0.21054300  1
  C  C13  1  0.92407600  0.51023100  0.72470100  1
  C  C14  1  0.65769700  0.93645300  0.44204800  1
  C  C15  1  0.79610100  0.08838600  0.19153000  1
  C  C16  1  0.90480000  0.22776100  0.66590900  1
  C  C17  1  0.53973700  0.04399800  0.27805600  1
  C  C18  1  0.34230300  0.06354700  0.55795200  1
  C  C19  1  0.65982800  0.79546400  0.03529500  1
  C  C20  1  0.98107900  0.56205100  0.10646100  1
  C  C21  1  0.01892100  0.43794900  0.89353900  1
  C  C22  1  0.04947800  0.95352100  0.20744200  1
  C  C23  1  0.46026300  0.95600200  0.72194400  1
  C  C24  1  0.92267000  0.81175700  0.46370700  1
  C  C25  1  0.50486500  0.22217100  0.60885500  1
  C  C26  1  0.16398400  0.57663900  0.64355200  1
  C  C27  1  0.53408000  0.42072100  0.86207100  1
  C  C28  1  0.48862900  0.19923900  0.79545200  1
  C  C29  1  0.56708600  0.41922200  0.28766000  1
  C  C30  1  0.70982400  0.55808400  0.03324300  1
  C  C31  1  0.07592400  0.48976900  0.27529900  1
  C  C32  1  0.37903800  0.61535900  0.86487100  1
  C  C33  1  0.83601600  0.42336100  0.35644800  1
  C  C34  1  0.07767600  0.96758300  0.37584700  1
  C  C35  1  0.34017200  0.20453600  0.96470500  1
  C  C36  1  0.92232400  0.03241700  0.62415300  1
  C  C37  1  0.62096200  0.38464100  0.13512900  1
  C  C38  1  0.49528800  0.60875100  0.36619700  1
  C  C39  1  0.90939600  0.80147400  0.11695900  1
  C  C40  1  0.20389900  0.91161400  0.80847000  1
  C  C41  1  0.95052200  0.04647900  0.79255800  1
  C  C42  1  0.49513500  0.77782900  0.39114500  1
  C  C43  1  0.09060400  0.19852600  0.88304100  1
  C  C44  1  0.09520000  0.77223900  0.33409100  1
  C  C45  1  0.29017600  0.44191600  0.96675700  1
  O  O0  1  0.15672300  0.40560700  0.53413500  1
  O  O1  1  0.61012200  0.16765200  0.81570000  1
  O  O2  1  0.58481900  0.45613800  0.59817900  1
  O  O3  1  0.39446200  0.68808100  0.88186900  1
  O  O4  1  0.10093700  0.99502900  0.12740000  1
  O  O5  1  0.38907000  0.10604900  0.47666500  1
  O  O6  1  0.48199800  0.63799400  0.63715400  1
  O  O7  1  0.96468200  0.20476100  0.90126800  1
  O  O8  1  0.35552400  0.63014100  0.12064200  1
  O  O9  1  0.96531100  0.38793800  0.97073000  1
  O  O10  1  0.37487600  0.20728400  0.03754700  1
  O  O11  1  0.79586500  0.38522400  0.43988700  1
  O  O12  1  0.51800200  0.36200600  0.36284600  1
  O  O13  1  0.86334200  0.98092700  0.59668200  1
  O  O14  1  0.03531800  0.79523900  0.09873200  1
  O  O15  1  0.01587600  0.72017600  0.80019900  1
  O  O16  1  0.84327700  0.59439300  0.46586500  1
  O  O17  1  0.89385100  0.76183800  0.54681500  1
  O  O18  1  0.16494200  0.69753200  0.33286400  1
  O  O19  1  0.83834700  0.14212200  0.11268300  1
  O  O20  1  0.03468900  0.61206200  0.02927000  1
  O  O21  1  0.21077200  0.82600200  0.61362300  1
  O  O22  1  0.57925000  0.93551600  0.74563900  1
  O  O23  1  0.41518100  0.54386200  0.40182100  1
  O  O24  1  0.98412400  0.27982400  0.19980100  1
  O  O25  1  0.38987800  0.83234800  0.18430000  1
  O  O26  1  0.24682800  0.40761100  0.04996700  1
  O  O27  1  0.81412500  0.50849000  0.69502400  1
  O  O28  1  0.75317200  0.59238900  0.95003300  1
  O  O29  1  0.10614900  0.23816200  0.45318500  1
  O  O30  1  0.78922800  0.17399800  0.38637700  1
  O  O31  1  0.20413500  0.61477600  0.56011300  1
  O  O32  1  0.83505800  0.30246800  0.66713600  1
  O  O33  1  0.63909900  0.03960200  0.03985100  1
  O  O34  1  0.62512400  0.79271600  0.96245300  1
  O  O35  1  0.89906300  0.00497100  0.87260000  1
  O  O36  1  0.13665800  0.01907300  0.40331800  1
  O  O37  1  0.16165300  0.85787800  0.88731700  1
  O  O38  1  0.59488500  0.18266300  0.56881900  1
  O  O39  1  0.18587500  0.49151000  0.30497600  1
  O  O40  1  0.60553800  0.31191900  0.11813100  1
  O  O41  1  0.40511500  0.81733700  0.43118100  1
  O  O42  1  0.64447600  0.36985900  0.87935800  1
  O  O43  1  0.36090100  0.96039800  0.96014900  1
  O  O44  1  0.42075000  0.06448400  0.25436100  1
  O  O45  1  0.61093000  0.89395100  0.52333500  1
loop_
_geom_bond_atom_site_label_1
_geom_bond_atom_site_label_2
_geom_bond_distance
_geom_bond_site_symmetry_2
Fe0 Ge3 2.485063 1_555
Fe1 Ge3 2.457593 1_555
Fe1 Ge1 2.459389 1_555
Fe2 Ge2 2.399454 1_555
Fe3 Ge1 2.443596 1_555
Fe3 Ge3 2.448354 1_555
Fe4 Ge0 2.485063 1_555
Fe5 Ge0 2.400533 1_555
Fe6 Ge2 2.443596 1_555
Fe6 Ge0 2.448354 1_555
Fe7 Ge3 2.400533 1_555
Fe8 Ge0 2.457593 1_555
Fe8 Ge2 2.459389 1_555
Fe9 Ge1 2.430707 1_545
Fe10 Ge2 2.430707 1_565
Fe11 Ge1 2.399454 1_555
C0 O29 1.160114 1_555
C0 Fe2 1.808741 1_555
C1 O16 1.164400 1_555
C1 Fe3 1.802910 1_555
C2 O21 1.161290 1_555
C2 Fe10 1.796784 1_555
C3 O0 1.164400 1_555
C3 Fe6 1.802910 1_555
C4 O25 1.182736 1_555
C4 Fe1 1.982572 1_555
C4 Fe3 2.023310 1_555
C5 O33 1.162398 1_565
C5 Fe1 1.782136 1_555
C6 O2 1.162469 1_555
C6 Fe6 1.775598 1_555
C7 O6 1.159280 1_555
C7 Fe4 1.822955 1_555
C8 O15 1.159807 1_555
C8 Fe5 1.803265 1_555
C9 O30 1.161290 1_555
C9 Fe9 1.796784 1_555
C10 O43 1.162398 1_545
C10 Fe8 1.782136 1_555
C11 O8 1.162329 1_555
C11 Fe0 1.774619 1_555
C12 O24 1.159807 1_555
C12 Fe7 1.803265 1_555
C13 O27 1.158643 1_555
C13 Fe5 1.772720 1_655
C14 O45 1.160153 1_555
C14 Fe9 1.807292 1_565
C15 O19 1.157607 1_555
C15 Fe9 1.812548 1_555
C16 O32 1.159532 1_555
C16 Fe2 1.774641 1_655
C17 O44 1.161216 1_555
C17 Fe9 1.776304 1_555
C18 O5 1.160153 1_555
C18 Fe10 1.807292 1_545
C19 O34 1.162861 1_554
C19 Fe1 1.779908 1_555
C20 O20 1.161584 1_655
C20 Fe7 1.805757 1_555
C21 O9 1.161584 1_455
C21 Fe5 1.805757 1_555
C22 O4 1.158292 1_555
C22 Fe11 1.813089 1_455
C23 O22 1.161216 1_555
C23 Fe10 1.776304 1_555
C24 O17 1.160114 1_555
C24 Fe11 1.808741 1_555
C25 O38 1.163980 1_555
C25 Fe6 1.780137 1_555
C26 O31 1.160414 1_555
C26 Fe5 1.807056 1_555
C27 O42 1.162329 1_555
C27 Fe4 1.774619 1_555
C28 O1 1.182736 1_555
C28 Fe8 1.982572 1_555
C28 Fe6 2.023310 1_555
C29 O12 1.159280 1_555
C29 Fe0 1.822955 1_555
C30 O28 1.161451 1_554
C30 Fe0 1.823248 1_555
C31 O39 1.158643 1_555
C31 Fe7 1.772720 1_455
C32 O3 1.161646 1_555
C32 Fe4 1.785386 1_555
C33 O11 1.160414 1_555
C33 Fe7 1.807056 1_555
C34 O36 1.160662 1_565
C34 Fe11 1.806481 1_455
C35 O10 1.162861 1_556
C35 Fe8 1.779908 1_555
C36 O13 1.160662 1_545
C36 Fe2 1.806481 1_655
C37 O40 1.161646 1_555
C37 Fe0 1.785386 1_555
C38 O23 1.162469 1_555
C38 Fe3 1.775598 1_555
C39 O14 1.163064 1_655
C39 Fe1 1.806015 1_555
C40 O37 1.157607 1_555
C40 Fe10 1.812548 1_555
C41 O35 1.158292 1_555
C41 Fe2 1.813089 1_655
C42 O41 1.163980 1_555
C42 Fe3 1.780137 1_555
C43 O7 1.163064 1_455
C43 Fe8 1.806015 1_555
C44 O18 1.159532 1_555
C44 Fe11 1.774641 1_455
C45 O26 1.161451 1_556
C45 Fe4 1.823248 1_555
