# generated using pymatgen
data_H5NO
_symmetry_space_group_name_H-M   'P 1'
_cell_length_a   5.08541100
_cell_length_b   6.19599200
_cell_length_c   7.83453400
_cell_angle_alpha   90.00000000
_cell_angle_beta   90.00000000
_cell_angle_gamma   90.00000000
_symmetry_Int_Tables_number   1
_chemical_formula_structural   H5NO
_chemical_formula_sum   'H20 N4 O4'
_cell_volume   246.85963134
_cell_formula_units_Z   4
loop_
 _symmetry_equiv_pos_site_id
 _symmetry_equiv_pos_as_xyz
  1  'x, y, z'
loop_
 _atom_site_type_symbol
 _atom_site_label
 _atom_site_symmetry_multiplicity
 _atom_site_fract_x
 _atom_site_fract_y
 _atom_site_fract_z
 _atom_site_occupancy
  H  H0  1  0.75083600  0.71571200  0.36168100  1
  H  H1  1  0.74254100  0.69905400  0.56357200  1
  H  H2  1  0.42055200  0.42303200  0.37429500  1
  H  H3  1  0.75999600  0.30381600  0.59395600  1
  H  H4  1  0.09619200  0.42187400  0.37606400  1
  H  H5  1  0.74916400  0.28428800  0.86168100  1
  H  H6  1  0.75745900  0.30094600  0.06357200  1
  H  H7  1  0.40380800  0.57812600  0.87606400  1
  H  H8  1  0.74000400  0.69618400  0.09395600  1
  H  H9  1  0.07944800  0.57696800  0.87429500  1
  H  H10  1  0.24254100  0.80094600  0.43642800  1
  H  H11  1  0.25083600  0.78428800  0.63831900  1
  H  H12  1  0.92055200  0.07696800  0.62570500  1
  H  H13  1  0.25999600  0.19618400  0.40604400  1
  H  H14  1  0.59619200  0.07812600  0.62393600  1
  H  H15  1  0.24916400  0.21571200  0.13831900  1
  H  H16  1  0.25745900  0.19905400  0.93642800  1
  H  H17  1  0.57944800  0.92303200  0.12570500  1
  H  H18  1  0.90380800  0.92187400  0.12393600  1
  H  H19  1  0.24000400  0.80381600  0.90604400  1
  N  N0  1  0.74173600  0.83637000  0.16375600  1
  N  N1  1  0.75826400  0.16363000  0.66375600  1
  N  N2  1  0.24173600  0.66363000  0.83624400  1
  N  N3  1  0.25826400  0.33637000  0.33624400  1
  O  O0  1  0.76209900  0.61006700  0.46157400  1
  O  O1  1  0.73790100  0.38993300  0.96157400  1
  O  O2  1  0.26209900  0.88993300  0.53842600  1
  O  O3  1  0.23790100  0.11006700  0.03842600  1
loop_
_geom_bond_atom_site_label_1
_geom_bond_atom_site_label_2
_geom_bond_distance
_geom_bond_site_symmetry_2
H0 O0 1.021879 1_555
H1 O0 0.975943 1_555
H2 N3 1.028745 1_555
H3 N1 1.026437 1_555
H4 N3 1.028253 1_555
H5 O1 1.021879 1_555
H6 O1 0.975943 1_554
H7 N2 1.028253 1_555
H8 N0 1.026437 1_555
H9 N2 1.028745 1_555
H10 O2 0.975943 1_555
H11 O2 1.021879 1_555
H12 N1 1.028745 1_555
H13 N3 1.026437 1_555
H14 N1 1.028253 1_555
H15 O3 1.021879 1_555
H16 O3 0.975943 1_556
H17 N0 1.028745 1_555
H18 N0 1.028253 1_555
H19 N2 1.026437 1_555
