# generated using pymatgen
data_RbPuP2S7
_symmetry_space_group_name_H-M   'P 1'
_cell_length_a   12.48929381
_cell_length_b   9.07008834
_cell_length_c   9.95741036
_cell_angle_alpha   89.25275269
_cell_angle_beta   90.00000000
_cell_angle_gamma   90.00000000
_symmetry_Int_Tables_number   1
_chemical_formula_structural   RbPuP2S7
_chemical_formula_sum   'Rb4 Pu4 P8 S28'
_cell_volume   1127.86954281
_cell_formula_units_Z   4
loop_
 _symmetry_equiv_pos_site_id
 _symmetry_equiv_pos_as_xyz
  1  'x, y, z'
loop_
 _atom_site_type_symbol
 _atom_site_label
 _atom_site_symmetry_multiplicity
 _atom_site_fract_x
 _atom_site_fract_y
 _atom_site_fract_z
 _atom_site_occupancy
  Rb  Rb0  1  0.19612573  0.63347368  0.89913768  1
  Rb  Rb1  1  0.80387427  0.36652632  0.10086232  1
  Rb  Rb2  1  0.30387427  0.13347368  0.89913768  1
  Rb  Rb3  1  0.69612573  0.86652632  0.10086232  1
  Pu  Pu0  1  0.64079574  0.10825682  0.63802244  1
  Pu  Pu1  1  0.14079574  0.39174318  0.36197756  1
  Pu  Pu2  1  0.35920426  0.89174318  0.36197756  1
  Pu  Pu3  1  0.85920426  0.60825682  0.63802244  1
  P  P0  1  0.46425397  0.80278902  0.68376767  1
  P  P1  1  0.96425397  0.69721098  0.31623233  1
  P  P2  1  0.10344652  0.02266166  0.23352864  1
  P  P3  1  0.53574603  0.19721098  0.31623233  1
  P  P4  1  0.39655348  0.52266166  0.23352864  1
  P  P5  1  0.89655348  0.97733834  0.76647136  1
  P  P6  1  0.60344652  0.47733834  0.76647136  1
  P  P7  1  0.03574603  0.30278902  0.68376767  1
  S  S0  1  0.94270068  0.32288319  0.51828156  1
  S  S1  1  0.19095278  0.35164397  0.64671269  1
  S  S2  1  0.30904722  0.85164397  0.64671269  1
  S  S3  1  0.33242689  0.57228658  0.41401791  1
  S  S4  1  0.16757311  0.07228658  0.41401791  1
  S  S5  1  0.04997787  0.07856197  0.74650690  1
  S  S6  1  0.55881105  0.28963728  0.85926116  1
  S  S7  1  0.29170151  0.38972745  0.14216309  1
  S  S8  1  0.52463620  0.93033416  0.82879134  1
  S  S9  1  0.05729932  0.67711681  0.48171844  1
  S  S10  1  0.94118895  0.78963728  0.85926116  1
  S  S11  1  0.44118895  0.71036272  0.14073884  1
  S  S12  1  0.55729932  0.82288319  0.51828156  1
  S  S13  1  0.79170151  0.11027255  0.85783691  1
  S  S14  1  0.54997787  0.42143803  0.25349310  1
  S  S15  1  0.05881105  0.21036272  0.14073884  1
  S  S16  1  0.80904722  0.64835603  0.35328731  1
  S  S17  1  0.20829849  0.88972745  0.14216309  1
  S  S18  1  0.66757311  0.42771342  0.58598209  1
  S  S19  1  0.70829849  0.61027255  0.85783691  1
  S  S20  1  0.83242689  0.92771342  0.58598209  1
  S  S21  1  0.69095278  0.14835603  0.35328731  1
  S  S22  1  0.02463620  0.56966584  0.17120866  1
  S  S23  1  0.45002213  0.57856197  0.74650690  1
  S  S24  1  0.47536380  0.06966584  0.17120866  1
  S  S25  1  0.44270068  0.17711681  0.48171844  1
  S  S26  1  0.95002213  0.92143803  0.25349310  1
  S  S27  1  0.97536380  0.43033416  0.82879134  1
loop_
_geom_bond_atom_site_label_1
_geom_bond_atom_site_label_2
_geom_bond_distance
_geom_bond_site_symmetry_2
Rb0 S17 3.380512 1_556
Rb0 S27 3.394265 1_455
Rb0 S7 3.468268 1_556
Rb0 S2 3.477451 1_555
Rb0 S22 3.495801 1_556
Rb0 S10 3.505276 1_455
Rb0 S23 3.554261 1_555
Rb0 S1 3.608836 1_555
Rb1 S13 3.380512 1_554
Rb1 S22 3.394265 1_655
Rb1 S19 3.468268 1_554
Rb1 S21 3.477451 1_555
Rb1 S27 3.495801 1_554
Rb1 S15 3.505276 1_655
Rb1 S14 3.554261 1_555
Rb1 S16 3.608836 1_555
Rb2 S7 3.380512 1_556
Rb2 S8 3.394265 1_545
Rb2 S17 3.468268 1_546
Rb2 S1 3.477451 1_555
Rb2 S24 3.495801 1_556
Rb2 S6 3.505276 1_555
Rb2 S5 3.554261 1_555
Rb2 S2 3.608836 1_545
Rb3 S19 3.380512 1_554
Rb3 S24 3.394265 1_565
Rb3 S13 3.468268 1_564
Rb3 S16 3.477451 1_555
Rb3 S8 3.495801 1_554
Rb3 S11 3.505276 1_555
Rb3 S26 3.554261 1_555
Rb3 S21 3.608836 1_565
Pu0 S8 2.870075 1_545
Pu0 S13 2.888645 1_555
Pu0 S21 2.921693 1_555
Pu0 S20 2.949622 1_545
Pu0 S6 2.949999 1_555
Pu0 S18 2.955791 1_555
Pu0 S25 2.984638 1_555
Pu0 S12 3.047816 1_545
Pu1 S22 2.870075 1_555
Pu1 S7 2.888645 1_555
Pu1 S1 2.921693 1_555
Pu1 S3 2.949622 1_555
Pu1 S15 2.949999 1_555
Pu1 S4 2.955791 1_555
Pu1 S0 2.984638 1_455
Pu1 S9 3.047816 1_555
Pu2 S24 2.870075 1_565
Pu2 S17 2.888645 1_555
Pu2 S2 2.921693 1_555
Pu2 S4 2.949622 1_565
Pu2 S11 2.949999 1_555
Pu2 S3 2.955791 1_555
Pu2 S12 2.984638 1_555
Pu2 S25 3.047816 1_565
Pu3 S27 2.870075 1_555
Pu3 S19 2.888645 1_555
Pu3 S16 2.921693 1_555
Pu3 S18 2.949622 1_555
Pu3 S10 2.949999 1_555
Pu3 S20 2.955791 1_555
Pu3 S9 2.984638 1_655
Pu3 S0 3.047816 1_555
P0 S8 2.008952 1_555
P0 S2 2.021314 1_555
P0 S12 2.022642 1_555
P0 S23 2.127183 1_555
P1 S22 2.008952 1_655
P1 S16 2.021314 1_555
P1 S9 2.022642 1_655
P1 S26 2.127183 1_555
P2 S15 2.005443 1_555
P2 S17 2.006219 1_545
P2 S4 2.023629 1_555
P2 S26 2.132922 1_445
P3 S24 2.008952 1_555
P3 S21 2.021314 1_555
P3 S25 2.022642 1_555
P3 S14 2.127183 1_555
P4 S11 2.005443 1_555
P4 S7 2.006219 1_555
P4 S3 2.023629 1_555
P4 S14 2.132922 1_555
P5 S10 2.005443 1_555
P5 S13 2.006219 1_565
P5 S20 2.023629 1_555
P5 S5 2.132922 1_665
P6 S6 2.005443 1_555
P6 S19 2.006219 1_555
P6 S18 2.023629 1_555
P6 S23 2.132922 1_555
P7 S27 2.008952 1_455
P7 S1 2.021314 1_555
P7 S0 2.022642 1_455
P7 S5 2.127183 1_555
