# generated using pymatgen
data_Lu4Hf3O12
_symmetry_space_group_name_H-M   'P 1'
_cell_length_a   6.22201686
_cell_length_b   6.28666149
_cell_length_c   12.48052485
_cell_angle_alpha   99.33274668
_cell_angle_beta   99.29629458
_cell_angle_gamma   99.39120587
_symmetry_Int_Tables_number   1
_chemical_formula_structural   Lu4Hf3O12
_chemical_formula_sum   'Lu8 Hf6 O24'
_cell_volume   466.32015640
_cell_formula_units_Z   2
loop_
 _symmetry_equiv_pos_site_id
 _symmetry_equiv_pos_as_xyz
  1  'x, y, z'
loop_
 _atom_site_type_symbol
 _atom_site_label
 _atom_site_symmetry_multiplicity
 _atom_site_fract_x
 _atom_site_fract_y
 _atom_site_fract_z
 _atom_site_occupancy
  Lu  Lu0  1  0.29953237  0.60981890  0.81862311  1
  Lu  Lu1  1  0.38970239  0.86472529  0.59662676  1
  Lu  Lu2  1  0.85876167  0.68947656  0.94698184  1
  Lu  Lu3  1  0.31239885  0.60927401  0.31784048  1
  Lu  Lu4  1  0.14123833  0.31052344  0.05301816  1
  Lu  Lu5  1  0.70046763  0.39018110  0.18137689  1
  Lu  Lu6  1  0.68760115  0.39072599  0.68215952  1
  Lu  Lu7  1  0.61029761  0.13527471  0.40337324  1
  Hf  Hf0  1  0.00699612  0.00588261  0.25179833  1
  Hf  Hf1  1  0.39187590  0.85731045  0.09401213  1
  Hf  Hf2  1  0.99300388  0.99411739  0.74820167  1
  Hf  Hf3  1  0.85469926  0.67589191  0.44647895  1
  Hf  Hf4  1  0.14530074  0.32410809  0.55352105  1
  Hf  Hf5  1  0.60812410  0.14268955  0.90598787  1
  O  O0  1  0.31717701  0.95976303  0.79684462  1
  O  O1  1  0.07094765  0.91777495  0.09301988  1
  O  O2  1  0.32231607  0.94314832  0.28578035  1
  O  O3  1  0.03667529  0.89434218  0.58862789  1
  O  O4  1  0.57051003  0.83053850  0.96257721  1
  O  O5  1  0.58782282  0.81971859  0.46221804  1
  O  O6  1  0.18517136  0.59112111  0.96847290  1
  O  O7  1  0.92246631  0.68047193  0.77839428  1
  O  O8  1  0.42932238  0.58333882  0.15829008  1
  O  O9  1  0.17375972  0.57490337  0.46385713  1
  O  O10  1  0.92100592  0.69297024  0.28960517  1
  O  O11  1  0.57067762  0.41666118  0.84170992  1
  O  O12  1  0.40958190  0.56984256  0.65798152  1
  O  O13  1  0.07753369  0.31952807  0.22160572  1
  O  O14  1  0.81482864  0.40887889  0.03152710  1
  O  O15  1  0.59041810  0.43015744  0.34201848  1
  O  O16  1  0.07899408  0.30702976  0.71039483  1
  O  O17  1  0.82624028  0.42509663  0.53614287  1
  O  O18  1  0.42948997  0.16946150  0.03742279  1
  O  O19  1  0.41217718  0.18028141  0.53778196  1
  O  O20  1  0.92905235  0.08222505  0.90698012  1
  O  O21  1  0.68282299  0.04023697  0.20315538  1
  O  O22  1  0.96332471  0.10565782  0.41137211  1
  O  O23  1  0.67768393  0.05685168  0.71421965  1
loop_
_geom_bond_atom_site_label_1
_geom_bond_atom_site_label_2
_geom_bond_distance
_geom_bond_site_symmetry_2
Lu0 O6 2.119372 1_555
Lu0 O12 2.210853 1_555
Lu0 O11 2.242498 1_555
Lu0 O16 2.246260 1_555
Lu0 O0 2.247356 1_555
Lu0 O4 2.333501 1_555
Lu0 O7 2.446519 1_455
Lu1 O12 2.131426 1_555
Lu1 O23 2.166236 1_565
Lu1 O19 2.215748 1_565
Lu1 O3 2.222178 1_555
Lu1 O5 2.245345 1_555
Lu1 O9 2.318041 1_555
Lu1 O0 2.602459 1_555
Lu2 O4 2.148683 1_555
Lu2 O7 2.196708 1_555
Lu2 O14 2.199864 1_556
Lu2 O6 2.206026 1_655
Lu2 O1 2.209219 1_656
Lu2 O11 2.320710 1_555
Lu2 O20 2.579688 1_565
Lu3 O9 2.164849 1_555
Lu3 O13 2.179612 1_555
Lu3 O2 2.192629 1_555
Lu3 O8 2.218659 1_555
Lu3 O15 2.220052 1_555
Lu3 O5 2.328775 1_555
Lu3 O10 2.555885 1_455
Lu4 O18 2.148683 1_555
Lu4 O13 2.196708 1_555
Lu4 O6 2.199864 1_554
Lu4 O14 2.206026 1_455
Lu4 O20 2.209219 1_454
Lu4 O8 2.320710 1_555
Lu4 O1 2.579688 1_545
Lu5 O14 2.119372 1_555
Lu5 O15 2.210853 1_555
Lu5 O8 2.242498 1_555
Lu5 O10 2.246260 1_555
Lu5 O21 2.247356 1_555
Lu5 O18 2.333501 1_555
Lu5 O13 2.446519 1_655
Lu6 O17 2.164849 1_555
Lu6 O7 2.179612 1_555
Lu6 O23 2.192629 1_555
Lu6 O11 2.218659 1_555
Lu6 O12 2.220052 1_555
Lu6 O19 2.328775 1_555
Lu6 O16 2.555885 1_655
Lu7 O15 2.131426 1_555
Lu7 O2 2.166236 1_545
Lu7 O5 2.215748 1_545
Lu7 O22 2.222178 1_555
Lu7 O19 2.245345 1_555
Lu7 O17 2.318041 1_555
Lu7 O21 2.602459 1_555
Hf0 O2 2.054874 1_545
Hf0 O13 2.057799 1_555
Hf0 O22 2.063711 1_455
Hf0 O21 2.067030 1_455
Hf0 O1 2.088709 1_545
Hf0 O10 2.101858 1_445
Hf1 O8 2.045266 1_555
Hf1 O1 2.091216 1_555
Hf1 O21 2.114461 1_565
Hf1 O4 2.124869 1_554
Hf1 O6 2.169229 1_554
Hf1 O18 2.181189 1_565
Hf1 O2 2.489724 1_555
Hf2 O23 2.054874 1_565
Hf2 O7 2.057799 1_555
Hf2 O3 2.063711 1_655
Hf2 O0 2.067030 1_655
Hf2 O20 2.088709 1_565
Hf2 O16 2.101858 1_665
Hf3 O5 2.037449 1_555
Hf3 O17 2.077177 1_555
Hf3 O10 2.080785 1_555
Hf3 O3 2.090163 1_655
Hf3 O15 2.148327 1_555
Hf3 O9 2.169793 1_655
Hf4 O19 2.037449 1_555
Hf4 O9 2.077177 1_555
Hf4 O16 2.080785 1_555
Hf4 O22 2.090163 1_455
Hf4 O12 2.148327 1_555
Hf4 O17 2.169793 1_455
Hf5 O11 2.045266 1_555
Hf5 O20 2.091216 1_555
Hf5 O0 2.114461 1_545
Hf5 O18 2.124869 1_556
Hf5 O14 2.169229 1_556
Hf5 O4 2.181189 1_545
Hf5 O23 2.489724 1_555
