# generated using pymatgen
data_Nd3(GeRu)2
_symmetry_space_group_name_H-M   'P 1'
_cell_length_a   5.71747511
_cell_length_b   7.94208513
_cell_length_c   13.68525585
_cell_angle_alpha   89.99961394
_cell_angle_beta   89.99935162
_cell_angle_gamma   89.99970025
_symmetry_Int_Tables_number   1
_chemical_formula_structural   Nd3(GeRu)2
_chemical_formula_sum   'Nd12 Ge8 Ru8'
_cell_volume   621.42932218
_cell_formula_units_Z   4
loop_
 _symmetry_equiv_pos_site_id
 _symmetry_equiv_pos_as_xyz
  1  'x, y, z'
loop_
 _atom_site_type_symbol
 _atom_site_label
 _atom_site_symmetry_multiplicity
 _atom_site_fract_x
 _atom_site_fract_y
 _atom_site_fract_z
 _atom_site_occupancy
  Nd  Nd0  1  0.84865919  0.90324816  0.59854656  1
  Nd  Nd1  1  0.15137635  0.40331294  0.90146058  1
  Nd  Nd2  1  0.84863790  0.59669011  0.09854538  1
  Nd  Nd3  1  0.62830338  0.26378226  0.74998056  1
  Nd  Nd4  1  0.62832462  0.23624506  0.25002076  1
  Nd  Nd5  1  0.84866441  0.59671691  0.40144752  1
  Nd  Nd6  1  0.37169259  0.73621540  0.25001914  1
  Nd  Nd7  1  0.15134235  0.09672548  0.09854198  1
  Nd  Nd8  1  0.15132071  0.09674536  0.40144890  1
  Nd  Nd9  1  0.37166997  0.76374692  0.74998064  1
  Nd  Nd10  1  0.15135772  0.40329588  0.59855331  1
  Nd  Nd11  1  0.84862687  0.90327195  0.90146435  1
  Ge  Ge0  1  0.38722932  0.75003825  0.50001925  1
  Ge  Ge1  1  0.38729544  0.75003757  -0.00001938  1
  Ge  Ge2  1  0.13688900  0.11183428  0.75001250  1
  Ge  Ge3  1  0.61276698  0.24996297  0.50000102  1
  Ge  Ge4  1  0.13686067  0.38815775  0.24998774  1
  Ge  Ge5  1  0.86309902  0.88816448  0.24998900  1
  Ge  Ge6  1  0.86315953  0.61185014  0.75001207  1
  Ge  Ge7  1  0.61269745  0.24996388  0.00000236  1
  Ru  Ru0  1  0.35248010  0.02966936  0.91023525  1
  Ru  Ru1  1  0.35245469  0.47034421  0.08978848  1
  Ru  Ru2  1  0.64755660  0.97032769  0.08978256  1
  Ru  Ru3  1  0.64752071  0.52965846  0.91022555  1
  Ru  Ru4  1  0.64761651  0.97030574  0.41019325  1
  Ru  Ru5  1  0.64757771  0.52968136  0.58979173  1
  Ru  Ru6  1  0.35239957  0.47031826  0.41018721  1
  Ru  Ru7  1  0.35242064  0.02968918  0.58978173  1
loop_
_geom_bond_atom_site_label_1
_geom_bond_atom_site_label_2
_geom_bond_distance
_geom_bond_site_symmetry_2
Nd0 Ru4 2.872156 1_555
Nd0 Ru7 3.012088 1_565
Nd0 Ru7 3.052645 1_665
Nd0 Ru5 3.184125 1_555
Nd1 Ru1 2.871895 1_556
Nd1 Ru3 3.011339 1_555
Nd1 Ru3 3.052894 1_455
Nd1 Ru0 3.184736 1_555
Nd2 Ru3 2.871886 1_554
Nd2 Ru1 3.011544 1_555
Nd2 Ru1 3.052681 1_655
Nd2 Ru2 3.184640 1_555
Nd3 Ru5 3.045915 1_555
Nd3 Ru3 3.046353 1_555
Nd3 Ru7 3.278907 1_555
Nd3 Ru0 3.279304 1_555
Nd4 Ru4 3.045981 1_545
Nd4 Ru2 3.046513 1_545
Nd4 Ru6 3.278605 1_555
Nd4 Ru1 3.279179 1_555
Nd5 Ru5 2.872091 1_555
Nd5 Ru6 3.012111 1_555
Nd5 Ru6 3.052371 1_655
Nd5 Ru4 3.184202 1_555
Nd6 Ru6 3.045704 1_555
Nd6 Ru1 3.046189 1_555
Nd6 Ru4 3.278782 1_555
Nd6 Ru2 3.279247 1_555
Nd7 Ru0 2.871782 1_554
Nd7 Ru2 3.011838 1_545
Nd7 Ru2 3.052663 1_445
Nd7 Ru1 3.184570 1_555
Nd8 Ru7 2.872033 1_555
Nd8 Ru4 3.012382 1_545
Nd8 Ru4 3.052321 1_445
Nd8 Ru6 3.184156 1_555
Nd9 Ru7 3.046248 1_565
Nd9 Ru0 3.046694 1_565
Nd9 Ru5 3.278728 1_555
Nd9 Ru3 3.279194 1_555
Nd10 Ru6 2.872238 1_555
Nd10 Ru5 3.011847 1_555
Nd10 Ru5 3.052591 1_455
Nd10 Ru7 3.184378 1_555
Nd11 Ru2 2.871768 1_556
Nd11 Ru0 3.011480 1_565
Nd11 Ru0 3.053032 1_665
Nd11 Ru3 3.184522 1_555
Ge0 Ru7 2.545889 1_565
Ge0 Ru6 2.546840 1_555
Ge0 Ru4 2.605351 1_555
Ge0 Ru5 2.605361 1_555
Ge0 Nd0 3.202972 1_555
Ge0 Nd5 3.203553 1_555
Ge0 Nd10 3.349736 1_555
Ge0 Nd8 3.349791 1_565
Ge0 Nd9 3.423673 1_555
Ge0 Nd6 3.424231 1_555
Ge0 Nd0 3.574977 1_455
Ge0 Nd5 3.575519 1_455
Ge1 Ru0 2.545634 1_564
Ge1 Ru1 2.546484 1_555
Ge1 Ru2 2.604932 1_555
Ge1 Ru3 2.604961 1_554
Ge1 Nd11 3.202487 1_554
Ge1 Nd2 3.203174 1_555
Ge1 Nd1 3.349679 1_554
Ge1 Nd7 3.349721 1_565
Ge1 Nd9 3.424212 1_554
Ge1 Nd6 3.424762 1_555
Ge1 Nd11 3.575491 1_454
Ge1 Nd2 3.575978 1_455
Ge2 Ru7 2.598558 1_555
Ge2 Ru0 2.598682 1_555
Ge2 Nd3 3.057858 1_555
Ge2 Nd9 3.073199 1_545
Ge2 Nd10 3.108289 1_555
Ge2 Nd1 3.108313 1_555
Ge2 Nd11 3.123440 1_445
Ge2 Nd0 3.123610 1_445
Ge2 Nd3 3.148292 1_455
Ge3 Ru4 2.546250 1_545
Ge3 Ru5 2.546547 1_555
Ge3 Ru7 2.604959 1_555
Ge3 Ru6 2.605682 1_555
Ge3 Nd8 3.203216 1_555
Ge3 Nd10 3.203355 1_555
Ge3 Nd0 3.349667 1_545
Ge3 Nd5 3.349978 1_555
Ge3 Nd4 3.423934 1_555
Ge3 Nd3 3.423948 1_555
Ge3 Nd8 3.575045 1_655
Ge3 Nd10 3.575577 1_655
Ge4 Ru6 2.598274 1_555
Ge4 Ru1 2.598441 1_555
Ge4 Nd4 3.057996 1_555
Ge4 Nd6 3.073127 1_555
Ge4 Nd7 3.108015 1_555
Ge4 Nd8 3.108015 1_555
Ge4 Nd2 3.123124 1_455
Ge4 Nd5 3.123306 1_455
Ge4 Nd4 3.147934 1_455
Ge5 Ru4 2.598111 1_555
Ge5 Ru2 2.598358 1_555
Ge5 Nd6 3.057819 1_555
Ge5 Nd4 3.073135 1_565
Ge5 Nd5 3.108195 1_555
Ge5 Nd2 3.108243 1_555
Ge5 Nd7 3.123334 1_665
Ge5 Nd8 3.123509 1_665
Ge5 Nd6 3.148337 1_655
Ge6 Ru5 2.598648 1_555
Ge6 Ru3 2.598738 1_555
Ge6 Nd9 3.058081 1_555
Ge6 Nd3 3.073261 1_555
Ge6 Nd0 3.107976 1_555
Ge6 Nd11 3.108020 1_555
Ge6 Nd1 3.123183 1_655
Ge6 Nd10 3.123282 1_655
Ge6 Nd9 3.147750 1_655
Ge7 Ru2 2.545914 1_545
Ge7 Ru3 2.546280 1_554
Ge7 Ru0 2.604587 1_554
Ge7 Ru1 2.605225 1_555
Ge7 Nd7 3.202745 1_555
Ge7 Nd1 3.202946 1_554
Ge7 Nd11 3.349564 1_544
Ge7 Nd2 3.349865 1_555
Ge7 Nd4 3.424466 1_555
Ge7 Nd3 3.424533 1_554
Ge7 Nd7 3.575506 1_655
Ge7 Nd1 3.575969 1_654
