# generated using pymatgen
data_Li7(Ga3Te5)8
_symmetry_space_group_name_H-M   'P 1'
_cell_length_a   10.37266545
_cell_length_b   10.39292606
_cell_length_c   20.74481972
_cell_angle_alpha   90.06414144
_cell_angle_beta   90.31588393
_cell_angle_gamma   90.08272766
_symmetry_Int_Tables_number   1
_chemical_formula_structural   Li7(Ga3Te5)8
_chemical_formula_sum   'Li7 Ga24 Te40'
_cell_volume   2236.30247456
_cell_formula_units_Z   1
loop_
 _symmetry_equiv_pos_site_id
 _symmetry_equiv_pos_as_xyz
  1  'x, y, z'
loop_
 _atom_site_type_symbol
 _atom_site_label
 _atom_site_symmetry_multiplicity
 _atom_site_fract_x
 _atom_site_fract_y
 _atom_site_fract_z
 _atom_site_occupancy
  Li  Li0  1  0.26880535  0.72749596  0.00141960  1
  Li  Li1  1  0.41696927  0.41603377  0.70906804  1
  Li  Li2  1  0.58111277  0.58197057  0.79168884  1
  Li  Li3  1  0.56350362  0.56574271  0.28199584  1
  Li  Li4  1  0.73119452  0.99931102  0.63467196  1
  Li  Li5  1  0.72817031  0.00373368  0.13497301  1
  Li  Li6  1  0.00428831  0.27064586  0.36443733  1
  Ga  Ga0  1  0.12621566  0.42953711  0.57855569  1
  Ga  Ga1  1  0.12606981  0.43035181  0.07902080  1
  Ga  Ga2  1  0.15673240  0.12618931  0.71485040  1
  Ga  Ga3  1  0.15886744  0.12708608  0.21452493  1
  Ga  Ga4  1  0.16730600  0.75036713  0.66879748  1
  Ga  Ga5  1  0.16833630  0.74964956  0.16874883  1
  Ga  Ga6  1  0.24837082  0.83320860  0.83016333  1
  Ga  Ga7  1  0.24980263  0.83225017  0.33166481  1
  Ga  Ga8  1  0.33702815  0.16708204  0.87553011  1
  Ga  Ga9  1  0.33638826  0.16870857  0.37429329  1
  Ga  Ga10  1  0.42848233  0.15693578  0.56161509  1
  Ga  Ga11  1  0.42869830  0.15851611  0.06350221  1
  Ga  Ga12  1  0.57265436  0.87531472  0.92116387  1
  Ga  Ga13  1  0.57000252  0.87422515  0.42158090  1
  Ga  Ga14  1  0.66251899  0.24954734  0.91636707  1
  Ga  Ga15  1  0.65931437  0.24834476  0.41641577  1
  Ga  Ga16  1  0.75215153  0.34054332  0.58318013  1
  Ga  Ga17  1  0.74863761  0.33645532  0.08433462  1
  Ga  Ga18  1  0.83290087  0.66012452  0.62449280  1
  Ga  Ga19  1  0.83328140  0.65977331  0.12405267  1
  Ga  Ga20  1  0.84273466  0.56996700  0.93704259  1
  Ga  Ga21  1  0.84323994  0.57158284  0.43815945  1
  Ga  Ga22  1  0.87649322  0.84318127  0.78571250  1
  Ga  Ga23  1  0.87582148  0.84242092  0.28630354  1
  Te  Te0  1  0.06752966  0.67136093  0.78298414  1
  Te  Te1  1  0.06795715  0.67244736  0.28314414  1
  Te  Te2  1  0.08497371  0.50322085  0.95878307  1
  Te  Te3  1  0.08279408  0.49633978  0.45731913  1
  Te  Te4  1  0.16824769  0.99730077  0.91616938  1
  Te  Te5  1  0.16842303  0.00152668  0.41628787  1
  Te  Te6  1  0.17188468  0.17212272  0.58598126  1
  Te  Te7  1  0.17123020  0.17252783  0.08582912  1
  Te  Te8  1  0.23766242  0.32056934  0.78788257  1
  Te  Te9  1  0.24138166  0.32253932  0.28596688  1
  Te  Te10  1  0.32120944  0.57585594  0.61905870  1
  Te  Te11  1  0.32155329  0.57315545  0.12102767  1
  Te  Te12  1  0.32720360  0.93246466  0.71675598  1
  Te  Te13  1  0.32691659  0.93232757  0.21715186  1
  Te  Te14  1  0.42355615  0.67983397  0.88194149  1
  Te  Te15  1  0.42635286  0.67928520  0.38077242  1
  Te  Te16  1  0.43376410  0.32678291  0.96613364  1
  Te  Te17  1  0.43300219  0.32877798  0.46601841  1
  Te  Te18  1  0.50443466  0.91813831  0.54307648  1
  Te  Te19  1  0.49950501  0.91590105  0.04175860  1
  Te  Te20  1  0.56563935  0.06779631  0.83624777  1
  Te  Te21  1  0.56540572  0.06732068  0.33628288  1
  Te  Te22  1  0.57743471  0.23671357  0.65975275  1
  Te  Te23  1  0.57220582  0.24121465  0.16113794  1
  Te  Te24  1  0.67078655  0.56669175  0.53365566  1
  Te  Te25  1  0.67214089  0.56539286  0.03342648  1
  Te  Te26  1  0.67917588  0.76285814  0.71204490  1
  Te  Te27  1  0.68088558  0.76354561  0.21182383  1
  Te  Te28  1  0.76172772  0.42416734  0.83926955  1
  Te  Te29  1  0.76327110  0.42419361  0.34035768  1
  Te  Te30  1  0.82878133  0.82759554  0.91406155  1
  Te  Te31  1  0.82782819  0.82794722  0.41446848  1
  Te  Te32  1  0.83231184  0.16801919  0.50017246  1
  Te  Te33  1  0.83315963  0.16849329  0.00072109  1
  Te  Te34  1  0.91412031  0.08230204  0.74804251  1
  Te  Te35  1  0.91594818  0.08364584  0.24971274  1
  Te  Te36  1  0.93323125  0.43360083  0.66431405  1
  Te  Te37  1  0.93232439  0.43323322  0.16389037  1
  Te  Te38  1  0.99729364  0.83137206  0.58387422  1
  Te  Te39  1  0.99831956  0.83378832  0.08420477  1
loop_
_geom_bond_atom_site_label_1
_geom_bond_atom_site_label_2
_geom_bond_distance
_geom_bond_site_symmetry_2
Li0 Te14 3.001433 1_554
Li0 Te11 3.004230 1_555
Li0 Te2 3.132926 1_554
Li0 Te19 3.197090 1_555
Li1 Te8 2.673686 1_555
Li1 Te10 2.687638 1_555
Li1 Te22 2.704387 1_555
Li2 Te28 2.676929 1_555
Li2 Te14 2.691660 1_555
Li2 Te26 2.705289 1_555
Li3 Te15 2.765273 1_555
Li3 Te27 2.801190 1_555
Li3 Te29 2.812256 1_555
Li4 Te22 2.986579 1_565
Li4 Te26 2.986803 1_555
Li4 Te18 3.129855 1_555
Li4 Te34 3.133194 1_565
Li5 Te23 3.003603 1_555
Li5 Te27 3.004581 1_545
Li5 Te35 3.176306 1_555
Li5 Te19 3.183946 1_545
Li6 Te9 3.005190 1_555
Li6 Te29 3.007595 1_455
Li6 Te3 3.137631 1_555
Li6 Te35 3.200207 1_455
Ga0 Te3 2.646238 1_555
Ga0 Te10 2.660621 1_555
Ga0 Te36 2.685735 1_455
Ga0 Te6 2.721962 1_555
Ga1 Te2 2.640127 1_554
Ga1 Te11 2.653773 1_555
Ga1 Te37 2.679256 1_455
Ga1 Te7 2.724534 1_555
Ga2 Te34 2.651717 1_455
Ga2 Te8 2.656196 1_555
Ga2 Te12 2.681710 1_545
Ga2 Te6 2.721537 1_555
Ga3 Te9 2.651336 1_555
Ga3 Te35 2.665220 1_455
Ga3 Te13 2.673545 1_545
Ga3 Te7 2.715435 1_555
Ga4 Te38 2.625952 1_455
Ga4 Te10 2.631519 1_555
Ga4 Te12 2.700152 1_555
Ga4 Te0 2.717607 1_555
Ga5 Te11 2.625287 1_555
Ga5 Te39 2.631437 1_455
Ga5 Te13 2.699438 1_555
Ga5 Te1 2.718202 1_555
Ga6 Te4 2.606918 1_555
Ga6 Te14 2.643349 1_555
Ga6 Te0 2.696825 1_555
Ga6 Te12 2.700327 1_555
Ga7 Te5 2.627368 1_565
Ga7 Te15 2.628732 1_555
Ga7 Te1 2.701033 1_555
Ga7 Te13 2.718258 1_555
Ga8 Te4 2.626772 1_545
Ga8 Te8 2.627446 1_555
Ga8 Te16 2.694766 1_555
Ga8 Te20 2.716324 1_555
Ga9 Te5 2.612409 1_555
Ga9 Te9 2.622163 1_555
Ga9 Te17 2.712862 1_555
Ga9 Te21 2.720516 1_555
Ga10 Te18 2.633397 1_545
Ga10 Te17 2.670830 1_555
Ga10 Te22 2.679009 1_555
Ga10 Te6 2.716690 1_555
Ga11 Te23 2.648784 1_555
Ga11 Te19 2.665934 1_545
Ga11 Te16 2.673909 1_554
Ga11 Te7 2.717096 1_555
Ga12 Te19 2.651736 1_556
Ga12 Te20 2.667790 1_565
Ga12 Te14 2.674821 1_555
Ga12 Te30 2.708096 1_555
Ga13 Te15 2.648595 1_555
Ga13 Te18 2.653394 1_555
Ga13 Te21 2.677318 1_565
Ga13 Te31 2.722700 1_555
Ga14 Te33 2.622622 1_556
Ga14 Te28 2.632444 1_555
Ga14 Te20 2.703586 1_555
Ga14 Te16 2.714960 1_555
Ga15 Te32 2.628519 1_555
Ga15 Te29 2.647985 1_555
Ga15 Te21 2.687308 1_555
Ga15 Te17 2.701587 1_555
Ga16 Te32 2.623872 1_555
Ga16 Te22 2.646133 1_555
Ga16 Te36 2.693028 1_555
Ga16 Te24 2.700644 1_555
Ga17 Te33 2.615125 1_555
Ga17 Te23 2.626380 1_555
Ga17 Te37 2.705863 1_555
Ga17 Te25 2.721757 1_555
Ga18 Te38 2.606854 1_555
Ga18 Te26 2.648362 1_555
Ga18 Te24 2.697734 1_555
Ga18 Te36 2.703678 1_555
Ga19 Te39 2.625768 1_555
Ga19 Te27 2.647545 1_555
Ga19 Te25 2.692005 1_555
Ga19 Te37 2.698825 1_555
Ga20 Te2 2.644112 1_655
Ga20 Te28 2.662087 1_555
Ga20 Te25 2.677738 1_556
Ga20 Te30 2.724064 1_555
Ga21 Te3 2.634239 1_655
Ga21 Te29 2.668642 1_555
Ga21 Te24 2.676938 1_555
Ga21 Te31 2.714643 1_555
Ga22 Te34 2.635139 1_565
Ga22 Te0 2.670165 1_655
Ga22 Te26 2.679378 1_555
Ga22 Te30 2.715833 1_555
Ga23 Te35 2.653181 1_565
Ga23 Te27 2.665643 1_555
Ga23 Te1 2.666108 1_655
Ga23 Te31 2.711959 1_555
