# generated using pymatgen
data_HgTe3H12C4N
_symmetry_space_group_name_H-M   'P 1'
_cell_length_a   22.29623300
_cell_length_b   10.56215200
_cell_length_c   11.22349189
_cell_angle_alpha   69.53411241
_cell_angle_beta   90.00000000
_cell_angle_gamma   90.00000000
_symmetry_Int_Tables_number   1
_chemical_formula_structural   HgTe3H12C4N
_chemical_formula_sum   'Hg8 Te24 H96 C32 N8'
_cell_volume   2476.25928398
_cell_formula_units_Z   8
loop_
 _symmetry_equiv_pos_site_id
 _symmetry_equiv_pos_as_xyz
  1  'x, y, z'
loop_
 _atom_site_type_symbol
 _atom_site_label
 _atom_site_symmetry_multiplicity
 _atom_site_fract_x
 _atom_site_fract_y
 _atom_site_fract_z
 _atom_site_occupancy
  Hg  Hg0  1  0.46430100  0.46198800  0.74582700  1
  Hg  Hg1  1  0.03569900  0.96198800  0.24582700  1
  Hg  Hg2  1  0.53569900  0.53801200  0.25417300  1
  Hg  Hg3  1  0.96430100  0.03801200  0.75417300  1
  Hg  Hg4  1  0.61164800  0.40405500  0.60038900  1
  Hg  Hg5  1  0.88835200  0.90405500  0.10038900  1
  Hg  Hg6  1  0.38835200  0.59594500  0.39961100  1
  Hg  Hg7  1  0.11164800  0.09594500  0.89961100  1
  Te  Te0  1  0.57377800  0.35045100  0.85093000  1
  Te  Te1  1  0.92622200  0.85045100  0.35093000  1
  Te  Te2  1  0.42622200  0.64954900  0.14907000  1
  Te  Te3  1  0.07377800  0.14954900  0.64907000  1
  Te  Te4  1  0.41402800  0.31195500  0.58054300  1
  Te  Te5  1  0.08597200  0.81195500  0.08054300  1
  Te  Te6  1  0.58597200  0.68804500  0.41945700  1
  Te  Te7  1  0.91402800  0.18804500  0.91945700  1
  Te  Te8  1  0.47732900  0.72319200  0.52830100  1
  Te  Te9  1  0.02267100  0.22319200  0.02830100  1
  Te  Te10  1  0.52267100  0.27680800  0.47169900  1
  Te  Te11  1  0.97732900  0.77680800  0.97169900  1
  Te  Te12  1  0.72692000  0.36078300  0.51227700  1
  Te  Te13  1  0.77308000  0.86078300  0.01227700  1
  Te  Te14  1  0.27308000  0.63921700  0.48772300  1
  Te  Te15  1  0.22692000  0.13921700  0.98772300  1
  Te  Te16  1  0.72114200  0.56564300  0.27476400  1
  Te  Te17  1  0.77885800  0.06564300  0.77476400  1
  Te  Te18  1  0.27885800  0.43435700  0.72523600  1
  Te  Te19  1  0.22114200  0.93435700  0.22523600  1
  Te  Te20  1  0.35985800  0.52482300  0.86639500  1
  Te  Te21  1  0.14014200  0.02482300  0.36639500  1
  Te  Te22  1  0.64014200  0.47517700  0.13360500  1
  Te  Te23  1  0.85985800  0.97517700  0.63360500  1
  H  H0  1  0.25857600  0.75590600  0.76317900  1
  H  H1  1  0.24142400  0.25590600  0.26317900  1
  H  H2  1  0.74142400  0.24409400  0.23682100  1
  H  H3  1  0.75857600  0.74409400  0.73682100  1
  H  H4  1  0.21266700  0.86345200  0.63570000  1
  H  H5  1  0.28733300  0.36345200  0.13570000  1
  H  H6  1  0.78733300  0.13654800  0.36430000  1
  H  H7  1  0.71266700  0.63654800  0.86430000  1
  H  H8  1  0.20848400  0.87831600  0.79054100  1
  H  H9  1  0.29151600  0.37831600  0.29054100  1
  H  H10  1  0.79151600  0.12168400  0.20945900  1
  H  H11  1  0.70848400  0.62168400  0.70945900  1
  H  H12  1  0.22729900  0.10773900  0.70934800  1
  H  H13  1  0.27270100  0.60773900  0.20934800  1
  H  H14  1  0.77270100  0.89226100  0.29065200  1
  H  H15  1  0.72729900  0.39226100  0.79065200  1
  H  H16  1  0.23029400  0.10236300  0.55114600  1
  H  H17  1  0.26970600  0.60236300  0.05114600  1
  H  H18  1  0.76970600  0.89763700  0.44885400  1
  H  H19  1  0.73029400  0.39763700  0.94885400  1
  H  H20  1  0.29182400  0.17554600  0.61073800  1
  H  H21  1  0.20817600  0.67554600  0.11073800  1
  H  H22  1  0.70817600  0.82445400  0.38926200  1
  H  H23  1  0.79182400  0.32445400  0.88926200  1
  H  H24  1  0.29934500  0.97137800  0.86927400  1
  H  H25  1  0.20065500  0.47137800  0.36927400  1
  H  H26  1  0.70065500  0.02862200  0.13072600  1
  H  H27  1  0.79934500  0.52862200  0.63072600  1
  H  H28  1  0.36122000  0.02795700  0.76042100  1
  H  H29  1  0.13878000  0.52795700  0.26042100  1
  H  H30  1  0.63878000  0.97204300  0.23957900  1
  H  H31  1  0.86122000  0.47204300  0.73957900  1
  H  H32  1  0.34553500  0.84927500  0.83031500  1
  H  H33  1  0.15446500  0.34927500  0.33031500  1
  H  H34  1  0.65446500  0.15072500  0.16968500  1
  H  H35  1  0.84553500  0.65072500  0.66968500  1
  H  H36  1  0.35817900  0.02931300  0.55819000  1
  H  H37  1  0.14182100  0.52931300  0.05819000  1
  H  H38  1  0.64182100  0.97068700  0.44181000  1
  H  H39  1  0.85817900  0.47068700  0.94181000  1
  H  H40  1  0.29719200  0.95311200  0.49947000  1
  H  H41  1  0.20280800  0.45311200  0.99947000  1
  H  H42  1  0.70280800  0.04688800  0.50053000  1
  H  H43  1  0.79719200  0.54688800  0.00053000  1
  H  H44  1  0.34778800  0.84817300  0.61746900  1
  H  H45  1  0.15221200  0.34817300  0.11746900  1
  H  H46  1  0.65221200  0.15182700  0.38253100  1
  H  H47  1  0.84778800  0.65182700  0.88253100  1
  H  H48  1  0.58339200  0.99928400  0.95059900  1
  H  H49  1  0.91660800  0.49928400  0.45059900  1
  H  H50  1  0.41660800  0.00071600  0.04940100  1
  H  H51  1  0.08339200  0.50071600  0.54940100  1
  H  H52  1  0.62270700  0.84095800  0.98403000  1
  H  H53  1  0.87729300  0.34095800  0.48403000  1
  H  H54  1  0.37729300  0.15904200  0.01597000  1
  H  H55  1  0.12270700  0.65904200  0.51597000  1
  H  H56  1  0.54608200  0.84030900  0.03471000  1
  H  H57  1  0.95391800  0.34030900  0.53471000  1
  H  H58  1  0.45391800  0.15969100  0.96529000  1
  H  H59  1  0.04608200  0.65969100  0.46529000  1
  H  H60  1  0.59235600  0.68630100  0.87887400  1
  H  H61  1  0.90764400  0.18630100  0.37887400  1
  H  H62  1  0.40764400  0.31369900  0.12112600  1
  H  H63  1  0.09235600  0.81369900  0.62112600  1
  H  H64  1  0.53584400  0.73807200  0.75539900  1
  H  H65  1  0.96415600  0.23807200  0.25539900  1
  H  H66  1  0.46415600  0.26192800  0.24460100  1
  H  H67  1  0.03584400  0.76192800  0.74460100  1
  H  H68  1  0.51531700  0.69422900  0.92040300  1
  H  H69  1  0.98468300  0.19422900  0.42040300  1
  H  H70  1  0.48468300  0.30577100  0.07959700  1
  H  H71  1  0.01531700  0.80577100  0.57959700  1
  H  H72  1  0.60333900  0.05950400  0.71638200  1
  H  H73  1  0.89666100  0.55950400  0.21638200  1
  H  H74  1  0.39666100  0.94049600  0.28361800  1
  H  H75  1  0.10333900  0.44049600  0.78361800  1
  H  H76  1  0.58378500  0.93645300  0.64614300  1
  H  H77  1  0.91621500  0.43645300  0.14614300  1
  H  H78  1  0.41621500  0.06354700  0.35385700  1
  H  H79  1  0.08378500  0.56354700  0.85385700  1
  H  H80  1  0.64577100  0.90573700  0.75694100  1
  H  H81  1  0.85422900  0.40573700  0.25694100  1
  H  H82  1  0.35422900  0.09426300  0.24305900  1
  H  H83  1  0.14577100  0.59426300  0.74305900  1
  H  H84  1  0.46518900  0.90187300  0.87236200  1
  H  H85  1  0.03481100  0.40187300  0.37236200  1
  H  H86  1  0.53481100  0.09812700  0.12763800  1
  H  H87  1  0.96518900  0.59812700  0.62763800  1
  H  H88  1  0.48680700  0.95259200  0.70681600  1
  H  H89  1  0.01319300  0.45259200  0.20681600  1
  H  H90  1  0.51319300  0.04740800  0.29318400  1
  H  H91  1  0.98680700  0.54740800  0.79318400  1
  H  H92  1  0.50378000  0.06047900  0.79551200  1
  H  H93  1  0.99622000  0.56047900  0.29551200  1
  H  H94  1  0.49622000  0.93952100  0.20448800  1
  H  H95  1  0.00378000  0.43952100  0.70448800  1
  C  C0  1  0.23775700  0.85626500  0.72186600  1
  C  C1  1  0.26224300  0.35626500  0.22186600  1
  C  C2  1  0.76224300  0.14373500  0.27813400  1
  C  C3  1  0.73775700  0.64373500  0.77813400  1
  C  C4  1  0.25659300  0.09775500  0.63509500  1
  C  C5  1  0.24340700  0.59775500  0.13509500  1
  C  C6  1  0.74340700  0.90224500  0.36490500  1
  C  C7  1  0.75659300  0.40224500  0.86490500  1
  C  C8  1  0.32596500  0.95120000  0.79575200  1
  C  C9  1  0.17403500  0.45120000  0.29575200  1
  C  C10  1  0.67403500  0.04880000  0.20424800  1
  C  C11  1  0.82596500  0.54880000  0.70424800  1
  C  C12  1  0.32530500  0.94666800  0.58135400  1
  C  C13  1  0.17469500  0.44666800  0.08135400  1
  C  C14  1  0.67469500  0.05333200  0.41864600  1
  C  C15  1  0.82530500  0.55333200  0.91864600  1
  C  C16  1  0.57916100  0.89223700  0.96132900  1
  C  C17  1  0.92083900  0.39223700  0.46132900  1
  C  C18  1  0.42083900  0.10776300  0.03867100  1
  C  C19  1  0.07916100  0.60776300  0.53867100  1
  C  C20  1  0.54989600  0.73969200  0.84854300  1
  C  C21  1  0.95010400  0.23969200  0.34854300  1
  C  C22  1  0.45010400  0.26030800  0.15145700  1
  C  C23  1  0.04989600  0.76030800  0.65145700  1
  C  C24  1  0.60120300  0.95115700  0.73170100  1
  C  C25  1  0.89879700  0.45115700  0.23170100  1
  C  C26  1  0.39879700  0.04884300  0.26829900  1
  C  C27  1  0.10120300  0.54884300  0.76829900  1
  C  C28  1  0.49859000  0.95557100  0.80058700  1
  C  C29  1  0.00141000  0.45557100  0.30058700  1
  C  C30  1  0.50141000  0.04442900  0.19941300  1
  C  C31  1  0.99859000  0.54442900  0.69941300  1
  N  N0  1  0.28628700  0.96173000  0.68432400  1
  N  N1  1  0.21371300  0.46173000  0.18432400  1
  N  N2  1  0.71371300  0.03827000  0.31567600  1
  N  N3  1  0.78628700  0.53827000  0.81567600  1
  N  N4  1  0.55769600  0.88468900  0.83686600  1
  N  N5  1  0.94230400  0.38468900  0.33686600  1
  N  N6  1  0.44230400  0.11531100  0.16313400  1
  N  N7  1  0.05769600  0.61531100  0.66313400  1
loop_
_geom_bond_atom_site_label_1
_geom_bond_atom_site_label_2
_geom_bond_distance
_geom_bond_site_symmetry_2
Hg0 Te0 2.786696 1_555
Hg0 Te20 2.884856 1_555
Hg0 Te8 2.990998 1_555
Hg0 Te4 3.043775 1_555
Hg1 Te1 2.786696 1_455
Hg1 Te21 2.884856 1_565
Hg1 Te9 2.990998 1_565
Hg1 Te5 3.043775 1_555
Hg2 Te2 2.786696 1_555
Hg2 Te22 2.884856 1_555
Hg2 Te10 2.990998 1_555
Hg2 Te6 3.043775 1_555
Hg3 Te3 2.786696 1_655
Hg3 Te23 2.884856 1_545
Hg3 Te11 2.990998 1_545
Hg3 Te7 3.043775 1_555
Hg4 Te0 2.797715 1_555
Hg4 Te12 2.847544 1_555
Hg4 Te10 3.030783 1_555
Hg4 Te6 3.031364 1_555
Hg5 Te1 2.797715 1_555
Hg5 Te13 2.847544 1_555
Hg5 Te11 3.030783 1_554
Hg5 Te7 3.031364 1_564
Hg6 Te2 2.797715 1_555
Hg6 Te14 2.847544 1_555
Hg6 Te8 3.030783 1_555
Hg6 Te4 3.031364 1_555
Hg7 Te3 2.797715 1_555
Hg7 Te15 2.847544 1_555
Hg7 Te9 3.030783 1_556
Hg7 Te5 3.031364 1_546
Te6 Te8 2.795523 1_555
Te7 Te9 2.795523 1_656
Te10 Te4 2.795523 1_555
Te11 Te5 2.795523 1_656
Te12 Te16 2.787651 1_555
Te13 Te17 2.787651 1_564
Te14 Te18 2.787651 1_555
Te15 Te19 2.787651 1_546
Te16 Te22 2.782667 1_555
Te17 Te23 2.782667 1_545
Te18 Te20 2.782667 1_555
Te19 Te21 2.782667 1_565
C0 H8 1.095382 1_555
C0 H4 1.096640 1_555
C0 H0 1.100169 1_555
C0 N0 1.503653 1_555
C1 H9 1.095382 1_555
C1 H5 1.096640 1_555
C1 H1 1.100169 1_555
C1 N1 1.503653 1_555
C2 H10 1.095382 1_555
C2 H6 1.096640 1_555
C2 H2 1.100169 1_555
C2 N2 1.503653 1_555
C3 H11 1.095382 1_555
C3 H7 1.096640 1_555
C3 H3 1.100169 1_555
C3 N3 1.503653 1_555
C4 H12 1.092563 1_555
C4 H16 1.096299 1_555
C4 H20 1.099906 1_555
C4 N0 1.500883 1_545
C5 H13 1.092563 1_555
C5 H17 1.096299 1_555
C5 H21 1.099906 1_555
C5 N1 1.500883 1_555
C6 H14 1.092563 1_555
C6 H18 1.096299 1_555
C6 H22 1.099906 1_555
C6 N2 1.500883 1_565
C7 H15 1.092563 1_555
C7 H19 1.096299 1_555
C7 H23 1.099906 1_555
C7 N3 1.500883 1_555
C8 H24 1.096169 1_555
C8 H28 1.098898 1_565
C8 H32 1.098995 1_555
C8 N0 1.503919 1_555
C9 H25 1.096169 1_555
C9 H29 1.098898 1_555
C9 H33 1.098995 1_555
C9 N1 1.503919 1_555
C10 H26 1.096169 1_555
C10 H30 1.098898 1_545
C10 H34 1.098995 1_555
C10 N2 1.503919 1_555
C11 H27 1.096169 1_555
C11 H31 1.098898 1_555
C11 H35 1.098995 1_555
C11 N3 1.503919 1_555
C12 H40 1.094711 1_555
C12 H44 1.096800 1_555
C12 H36 1.099137 1_565
C12 N0 1.498767 1_555
C13 H41 1.094711 1_554
C13 H45 1.096800 1_555
C13 H37 1.099137 1_555
C13 N1 1.498767 1_555
C14 H42 1.094711 1_555
C14 H46 1.096800 1_555
C14 H38 1.099137 1_545
C14 N2 1.498767 1_555
C15 H43 1.094711 1_556
C15 H47 1.096800 1_555
C15 H39 1.099137 1_555
C15 N3 1.498767 1_555
C16 H52 1.097467 1_555
C16 H48 1.098429 1_555
C16 H56 1.098726 1_556
C16 N4 1.504871 1_555
C17 H53 1.097467 1_555
C17 H49 1.098429 1_555
C17 H57 1.098726 1_555
C17 N5 1.504871 1_555
C18 H54 1.097467 1_555
C18 H50 1.098429 1_555
C18 H58 1.098726 1_554
C18 N6 1.504871 1_555
C19 H55 1.097467 1_555
C19 H51 1.098429 1_555
C19 H59 1.098726 1_555
C19 N7 1.504871 1_555
C20 H60 1.093567 1_555
C20 H64 1.097190 1_555
C20 H68 1.097562 1_555
C20 N4 1.500832 1_555
C21 H61 1.093567 1_555
C21 H65 1.097190 1_555
C21 H69 1.097562 1_555
C21 N5 1.500832 1_555
C22 H62 1.093567 1_555
C22 H66 1.097190 1_555
C22 H70 1.097562 1_555
C22 N6 1.500832 1_555
C23 H63 1.093567 1_555
C23 H67 1.097190 1_555
C23 H71 1.097562 1_555
C23 N7 1.500832 1_555
C24 H76 1.096051 1_555
C24 H80 1.096720 1_555
C24 H72 1.097195 1_565
C24 N4 1.499178 1_555
C25 H77 1.096051 1_555
C25 H81 1.096720 1_555
C25 H73 1.097195 1_555
C25 N5 1.499178 1_555
C26 H78 1.096051 1_555
C26 H82 1.096720 1_555
C26 H74 1.097195 1_545
C26 N6 1.499178 1_555
C27 H79 1.096051 1_555
C27 H83 1.096720 1_555
C27 H75 1.097195 1_555
C27 N7 1.499178 1_555
C28 H92 1.095575 1_565
C28 H88 1.095807 1_555
C28 H84 1.098050 1_555
C28 N4 1.499942 1_555
C29 H93 1.095575 1_455
C29 H89 1.095807 1_555
C29 H85 1.098050 1_555
C29 N5 1.499942 1_455
C30 H94 1.095575 1_545
C30 H90 1.095807 1_555
C30 H86 1.098050 1_555
C30 N6 1.499942 1_555
C31 H95 1.095575 1_655
C31 H91 1.095807 1_555
C31 H87 1.098050 1_555
C31 N7 1.499942 1_655
