# generated using pymatgen
data_EuIn2Au
_symmetry_space_group_name_H-M   'P 1'
_cell_length_a   4.68599910
_cell_length_b   6.03250214
_cell_length_c   7.56172108
_cell_angle_alpha   89.99986715
_cell_angle_beta   89.99997416
_cell_angle_gamma   112.93261040
_symmetry_Int_Tables_number   1
_chemical_formula_structural   EuIn2Au
_chemical_formula_sum   'Eu2 In4 Au2'
_cell_volume   196.86245251
_cell_formula_units_Z   2
loop_
 _symmetry_equiv_pos_site_id
 _symmetry_equiv_pos_as_xyz
  1  'x, y, z'
loop_
 _atom_site_type_symbol
 _atom_site_label
 _atom_site_symmetry_multiplicity
 _atom_site_fract_x
 _atom_site_fract_y
 _atom_site_fract_z
 _atom_site_occupancy
  Eu  Eu0  1  0.92268234  0.84512530  0.24999887  1
  Eu  Eu1  1  0.07732334  0.15488286  0.74999876  1
  In  In0  1  0.36444737  0.72922893  0.55187073  1
  In  In1  1  0.63554886  0.27077225  0.44812267  1
  In  In2  1  0.36444531  0.72922457  0.94812507  1
  In  In3  1  0.63555529  0.27076701  0.05188201  1
  Au  Au0  1  0.21030209  0.41975688  0.25000063  1
  Au  Au1  1  0.78969540  0.58024120  0.75000125  1
loop_
_geom_bond_atom_site_label_1
_geom_bond_atom_site_label_2
_geom_bond_distance
_geom_bond_site_symmetry_2
Eu0 In0 3.333561 1_655
Eu0 In2 3.333577 1_654
Eu0 In0 3.334217 1_555
Eu0 In2 3.334236 1_554
Eu0 In1 3.525136 1_555
Eu0 In3 3.525147 1_555
Eu0 In3 3.648567 1_665
Eu0 In1 3.648587 1_665
Eu0 In3 3.652382 1_565
Eu0 In1 3.652454 1_565
Eu1 In1 3.333595 1_455
Eu1 In3 3.333597 1_456
Eu1 In1 3.334212 1_555
Eu1 In3 3.334277 1_556
Eu1 In2 3.525094 1_555
Eu1 In0 3.525114 1_555
Eu1 In0 3.648643 1_445
Eu1 In2 3.648647 1_445
Eu1 In0 3.652475 1_545
Eu1 In2 3.652481 1_545
In0 In2 2.996365 1_555
In0 In1 3.109260 1_565
In1 In3 2.996261 1_555
In2 In3 3.109276 1_566
Au0 In0 2.857744 1_555
Au0 In2 2.857755 1_554
Au0 In1 2.901506 1_555
Au0 In3 2.901536 1_555
Au0 In3 2.901626 1_455
Au0 In1 2.901662 1_455
Au0 Eu0 3.192491 1_445
Au0 Eu0 3.324571 1_555
Au0 Eu0 3.331102 1_455
Au1 In1 2.857784 1_555
Au1 In3 2.857808 1_556
Au1 In2 2.901522 1_555
Au1 In0 2.901555 1_555
Au1 In2 2.901660 1_655
Au1 In0 2.901689 1_655
Au1 Eu1 3.192547 1_665
Au1 Eu1 3.324521 1_555
Au1 Eu1 3.331072 1_655
