# generated using pymatgen
data_H6CN2O3
_symmetry_space_group_name_H-M   'P 1'
_cell_length_a   4.83869800
_cell_length_b   6.76113400
_cell_length_c   12.92215800
_cell_angle_alpha   90.00000000
_cell_angle_beta   90.00000000
_cell_angle_gamma   90.00000000
_symmetry_Int_Tables_number   1
_chemical_formula_structural   H6CN2O3
_chemical_formula_sum   'H24 C4 N8 O12'
_cell_volume   422.74950464
_cell_formula_units_Z   4
loop_
 _symmetry_equiv_pos_site_id
 _symmetry_equiv_pos_as_xyz
  1  'x, y, z'
loop_
 _atom_site_type_symbol
 _atom_site_label
 _atom_site_symmetry_multiplicity
 _atom_site_fract_x
 _atom_site_fract_y
 _atom_site_fract_z
 _atom_site_occupancy
  H  H0  1  0.81492000  0.35756100  0.74831600  1
  H  H1  1  0.68508000  0.85756100  0.75168400  1
  H  H2  1  0.31492000  0.64243900  0.75168400  1
  H  H3  1  0.18508000  0.14243900  0.74831600  1
  H  H4  1  0.18508000  0.64243900  0.25168400  1
  H  H5  1  0.31492000  0.14243900  0.24831600  1
  H  H6  1  0.68508000  0.35756100  0.24831600  1
  H  H7  1  0.81492000  0.85756100  0.25168400  1
  H  H8  1  0.68312200  0.44877600  0.86665300  1
  H  H9  1  0.81687800  0.94877600  0.63334700  1
  H  H10  1  0.18312200  0.55122400  0.63334700  1
  H  H11  1  0.31687800  0.05122400  0.86665300  1
  H  H12  1  0.31687800  0.55122400  0.13334700  1
  H  H13  1  0.18312200  0.05122400  0.36665300  1
  H  H14  1  0.81687800  0.44877600  0.36665300  1
  H  H15  1  0.68312200  0.94877600  0.13334700  1
  H  H16  1  0.76335700  0.31023100  0.54889600  1
  H  H17  1  0.73664300  0.81023100  0.95110400  1
  H  H18  1  0.26335700  0.68976900  0.95110400  1
  H  H19  1  0.23664300  0.18976900  0.54889600  1
  H  H20  1  0.23664300  0.68976900  0.45110400  1
  H  H21  1  0.26335700  0.18976900  0.04889600  1
  H  H22  1  0.73664300  0.31023100  0.04889600  1
  H  H23  1  0.76335700  0.81023100  0.45110400  1
  C  C0  1  0.00000000  0.25000000  0.88082500  1
  C  C1  1  0.50000000  0.75000000  0.61917500  1
  C  C2  1  0.00000000  0.75000000  0.11917500  1
  C  C3  1  0.50000000  0.25000000  0.38082500  1
  N  N0  1  0.82104600  0.36292900  0.82751400  1
  N  N1  1  0.67895400  0.86292900  0.67248600  1
  N  N2  1  0.32104600  0.63707100  0.67248600  1
  N  N3  1  0.17895400  0.13707100  0.82751400  1
  N  N4  1  0.17895400  0.63707100  0.17248600  1
  N  N5  1  0.32104600  0.13707100  0.32751400  1
  N  N6  1  0.67895400  0.36292900  0.32751400  1
  N  N7  1  0.82104600  0.86292900  0.17248600  1
  O  O0  1  0.91965600  0.34223000  0.59913100  1
  O  O1  1  0.58034400  0.84223000  0.90086900  1
  O  O2  1  0.41965600  0.65777000  0.90086900  1
  O  O3  1  0.08034400  0.15777000  0.59913100  1
  O  O4  1  0.08034400  0.65777000  0.40086900  1
  O  O5  1  0.41965600  0.15777000  0.09913100  1
  O  O6  1  0.58034400  0.34223000  0.09913100  1
  O  O7  1  0.91965600  0.84223000  0.40086900  1
  O  O8  1  0.00000000  0.25000000  0.98018800  1
  O  O9  1  0.50000000  0.75000000  0.51981200  1
  O  O10  1  0.00000000  0.75000000  0.01981200  1
  O  O11  1  0.50000000  0.25000000  0.48018800  1
loop_
_geom_bond_atom_site_label_1
_geom_bond_atom_site_label_2
_geom_bond_distance
_geom_bond_site_symmetry_2
H0 N0 1.024481 1_555
H1 N1 1.024481 1_555
H2 N2 1.024481 1_555
H3 N3 1.024481 1_555
H4 N4 1.024481 1_555
H5 N5 1.024481 1_555
H6 N6 1.024481 1_555
H7 N7 1.024481 1_555
H8 N0 1.018858 1_555
H9 N1 1.018858 1_555
H10 N2 1.018858 1_555
H11 N3 1.018858 1_555
H12 N4 1.018858 1_555
H13 N5 1.018858 1_555
H14 N6 1.018858 1_555
H15 N7 1.018858 1_555
H16 O0 1.019883 1_555
H16 O11 1.605608 1_555
H17 O1 1.019883 1_555
H17 O10 1.605608 1_656
H18 O2 1.019883 1_555
H18 O10 1.605608 1_556
H19 O3 1.019883 1_555
H19 O11 1.605608 1_555
H20 O4 1.019883 1_555
H20 O9 1.605608 1_555
H21 O5 1.019883 1_555
H21 O8 1.605608 1_554
H22 O6 1.019883 1_555
H22 O8 1.605608 1_654
H23 O7 1.019883 1_555
H23 O9 1.605608 1_555
C0 O8 1.283984 1_555
C0 N3 1.344373 1_555
C0 N0 1.344373 1_455
C1 O9 1.283984 1_555
C1 N1 1.344373 1_555
C1 N2 1.344373 1_555
C2 O10 1.283984 1_555
C2 N7 1.344373 1_455
C2 N4 1.344373 1_555
C3 O11 1.283984 1_555
C3 N6 1.344373 1_555
C3 N5 1.344373 1_555
