# generated using pymatgen
data_Ca3Ga2Si(SnO6)2
_symmetry_space_group_name_H-M   'P 1'
_cell_length_a   10.93049170
_cell_length_b   10.93049170
_cell_length_c   10.93049170
_cell_angle_alpha   109.06183599
_cell_angle_beta   109.06183599
_cell_angle_gamma   110.29312953
_symmetry_Int_Tables_number   1
_chemical_formula_structural   Ca3Ga2Si(SnO6)2
_chemical_formula_sum   'Ca12 Ga8 Si4 Sn8 O48'
_cell_volume   1005.14811640
_cell_formula_units_Z   4
loop_
 _symmetry_equiv_pos_site_id
 _symmetry_equiv_pos_as_xyz
  1  'x, y, z'
loop_
 _atom_site_type_symbol
 _atom_site_label
 _atom_site_symmetry_multiplicity
 _atom_site_fract_x
 _atom_site_fract_y
 _atom_site_fract_z
 _atom_site_occupancy
  Ca  Ca0  1  0.75000000  0.75000000  0.00000000  1
  Ca  Ca1  1  0.87500000  0.24955800  0.87455800  1
  Ca  Ca2  1  0.49955800  0.12500000  0.87455800  1
  Ca  Ca3  1  0.25000000  0.25000000  0.00000000  1
  Ca  Ca4  1  0.87500000  0.74955800  0.37455800  1
  Ca  Ca5  1  0.25044200  0.62500000  0.12544200  1
  Ca  Ca6  1  0.99955800  0.12500000  0.37455800  1
  Ca  Ca7  1  0.00000000  0.50000000  0.50000000  1
  Ca  Ca8  1  0.37500000  0.00044200  0.12544200  1
  Ca  Ca9  1  0.75044200  0.62500000  0.62544200  1
  Ca  Ca10  1  0.37500000  0.50044200  0.62544200  1
  Ca  Ca11  1  0.50000000  0.00000000  0.50000000  1
  Ga  Ga0  1  0.00066200  0.62500000  0.87566200  1
  Ga  Ga1  1  0.37500000  0.75066200  0.87566200  1
  Ga  Ga2  1  0.87500000  0.49933800  0.12433800  1
  Ga  Ga3  1  0.74933800  0.12500000  0.12433800  1
  Ga  Ga4  1  0.50066200  0.62500000  0.37566200  1
  Ga  Ga5  1  0.37500000  0.25066200  0.37566200  1
  Ga  Ga6  1  0.87500000  0.99933800  0.62433800  1
  Ga  Ga7  1  0.24933800  0.12500000  0.62433800  1
  Si  Si0  1  0.00000000  0.00000000  0.00000000  1
  Si  Si1  1  0.50000000  0.50000000  0.00000000  1
  Si  Si2  1  0.25000000  0.75000000  0.50000000  1
  Si  Si3  1  0.75000000  0.25000000  0.50000000  1
  Sn  Sn0  1  0.12500000  0.37500000  0.75000000  1
  Sn  Sn1  1  0.62500000  0.87500000  0.25000000  1
  Sn  Sn2  1  0.12500000  0.87500000  0.75000000  1
  Sn  Sn3  1  0.62500000  0.37500000  0.25000000  1
  Sn  Sn4  1  0.12500000  0.37500000  0.25000000  1
  Sn  Sn5  1  0.12500000  0.87500000  0.25000000  1
  Sn  Sn6  1  0.62500000  0.87500000  0.75000000  1
  Sn  Sn7  1  0.62500000  0.37500000  0.75000000  1
  O  O0  1  0.82598400  0.87112100  0.86170900  1
  O  O1  1  0.02948700  0.19446300  0.77789900  1
  O  O2  1  0.04640100  0.47466800  0.87499400  1
  O  O3  1  0.80553700  0.58343600  0.83502400  1
  O  O4  1  0.52948700  0.75158800  0.83502400  1
  O  O5  1  0.53572500  0.49058800  0.86170900  1
  O  O6  1  0.72466800  0.34967400  0.92826800  1
  O  O7  1  0.91656400  0.69446300  0.16497600  1
  O  O8  1  0.02533200  0.45359900  0.12500600  1
  O  O9  1  0.03572500  0.17401600  0.04513700  1
  O  O10  1  0.42140600  0.79640100  0.07173200  1
  O  O11  1  0.24841200  0.08343600  0.77789900  1
  O  O12  1  0.70359900  0.07859400  0.92826800  1
  O  O13  1  0.32598400  0.46427500  0.95486300  1
  O  O14  1  0.62887900  0.67401600  0.13829100  1
  O  O15  1  0.50941200  0.37112100  0.04513700  1
  O  O16  1  0.15032600  0.77533200  0.07173200  1
  O  O17  1  0.32859400  0.90032600  0.87499400  1
  O  O18  1  0.00941200  0.96427500  0.13829100  1
  O  O19  1  0.83343600  0.49841200  0.27789900  1
  O  O20  1  0.94446300  0.27948700  0.27789900  1
  O  O21  1  0.59967400  0.17140600  0.12500600  1
  O  O22  1  0.50158800  0.77948700  0.33502400  1
  O  O23  1  0.12887900  0.99058800  0.95486300  1
  O  O24  1  0.12112100  0.75941200  0.54513700  1
  O  O25  1  0.74841200  0.97051300  0.16497600  1
  O  O26  1  0.65032600  0.57859400  0.37499400  1
  O  O27  1  0.30553700  0.47051300  0.22210100  1
  O  O28  1  0.41656400  0.25158800  0.22210100  1
  O  O29  1  0.24058800  0.78572500  0.36170900  1
  O  O30  1  0.92140600  0.84967400  0.62500600  1
  O  O31  1  0.09967400  0.97466800  0.42826800  1
  O  O32  1  0.74058800  0.37887900  0.45486300  1
  O  O33  1  0.62112100  0.07598400  0.36170900  1
  O  O34  1  0.92401600  0.28572500  0.54513700  1
  O  O35  1  0.54640100  0.67140600  0.57173200  1
  O  O36  1  0.00158800  0.66656400  0.72210100  1
  O  O37  1  0.82859400  0.95359900  0.42826800  1
  O  O38  1  0.22466800  0.29640100  0.37499400  1
  O  O39  1  0.21427500  0.57598400  0.45486300  1
  O  O40  1  0.33343600  0.05553700  0.33502400  1
  O  O41  1  0.52533200  0.40032600  0.57173200  1
  O  O42  1  0.71427500  0.25941200  0.63829100  1
  O  O43  1  0.72051300  0.99841200  0.66497600  1
  O  O44  1  0.44446300  0.16656400  0.66497600  1
  O  O45  1  0.20359900  0.27533200  0.62500600  1
  O  O46  1  0.22051300  0.55553700  0.72210100  1
  O  O47  1  0.42401600  0.87887900  0.63829100  1
loop_
_geom_bond_atom_site_label_1
_geom_bond_atom_site_label_2
_geom_bond_distance
_geom_bond_site_symmetry_2
Ca0 O0 2.468178 1_554
Ca0 O18 2.468178 1_655
Ca0 O14 2.468178 1_555
Ca0 O5 2.468178 1_554
Ca0 O25 2.504430 1_555
Ca0 O7 2.504430 1_555
Ca0 O3 2.504430 1_554
Ca0 O4 2.504430 1_554
Ca1 O8 2.387482 1_656
Ca1 O6 2.387485 1_555
Ca1 O1 2.405298 1_655
Ca1 O43 2.405298 1_545
Ca1 O2 2.520572 1_655
Ca1 O12 2.520574 1_555
Ca1 O9 2.667740 1_656
Ca1 O42 2.667740 1_555
Ca2 O12 2.387475 1_555
Ca2 O21 2.387485 1_556
Ca2 O44 2.405298 1_555
Ca2 O11 2.405298 1_555
Ca2 O17 2.520567 1_545
Ca2 O6 2.520567 1_555
Ca2 O15 2.667740 1_556
Ca2 O47 2.667740 1_545
Ca3 O15 2.468178 1_555
Ca3 O9 2.468178 1_555
Ca3 O13 2.468178 1_554
Ca3 O23 2.468178 1_544
Ca3 O27 2.504430 1_555
Ca3 O11 2.504430 1_554
Ca3 O28 2.504430 1_555
Ca3 O1 2.504430 1_554
Ca4 O37 2.387475 1_555
Ca4 O30 2.387485 1_555
Ca4 O7 2.405298 1_555
Ca4 O19 2.405298 1_555
Ca4 O31 2.520567 1_655
Ca4 O26 2.520567 1_555
Ca4 O24 2.667740 1_655
Ca4 O14 2.667740 1_555
Ca5 O2 2.387482 1_554
Ca5 O16 2.387485 1_555
Ca5 O22 2.405298 1_555
Ca5 O27 2.405298 1_555
Ca5 O8 2.520572 1_555
Ca5 O10 2.520574 1_555
Ca5 O29 2.667740 1_555
Ca5 O13 2.667740 1_554
Ca6 O45 2.387482 1_655
Ca6 O31 2.387485 1_645
Ca6 O20 2.405298 1_555
Ca6 O25 2.405298 1_545
Ca6 O38 2.520572 1_655
Ca6 O37 2.520574 1_545
Ca6 O34 2.667740 1_555
Ca6 O18 2.667740 1_645
Ca7 O24 2.468178 1_555
Ca7 O34 2.468178 1_455
Ca7 O39 2.468178 1_555
Ca7 O32 2.468178 1_455
Ca7 O19 2.504430 1_455
Ca7 O20 2.504430 1_455
Ca7 O36 2.504430 1_555
Ca7 O46 2.504430 1_555
Ca8 O10 2.387475 1_545
Ca8 O17 2.387485 1_544
Ca8 O40 2.405298 1_555
Ca8 O28 2.405298 1_555
Ca8 O16 2.520567 1_545
Ca8 O21 2.520567 1_555
Ca8 O33 2.667740 1_555
Ca8 O23 2.667740 1_544
Ca9 O35 2.387475 1_555
Ca9 O26 2.387485 1_555
Ca9 O3 2.405298 1_555
Ca9 O36 2.405298 1_655
Ca9 O30 2.520567 1_555
Ca9 O41 2.520567 1_555
Ca9 O0 2.667740 1_555
Ca9 O32 2.667740 1_555
Ca10 O38 2.387482 1_555
Ca10 O41 2.387485 1_555
Ca10 O4 2.405298 1_555
Ca10 O46 2.405298 1_555
Ca10 O45 2.520572 1_555
Ca10 O35 2.520574 1_555
Ca10 O39 2.667740 1_555
Ca10 O5 2.667740 1_555
Ca11 O47 2.468178 1_545
Ca11 O33 2.468178 1_555
Ca11 O29 2.468178 1_545
Ca11 O42 2.468178 1_555
Ca11 O40 2.504430 1_555
Ca11 O43 2.504430 1_545
Ca11 O44 2.504430 1_555
Ca11 O22 2.504430 1_545
Ga0 O16 1.874696 1_556
Ga0 O2 1.874702 1_555
Ga0 O36 1.878791 1_555
Ga0 O3 1.878791 1_455
Ga1 O10 1.874694 1_556
Ga1 O17 1.874696 1_555
Ga1 O4 1.878791 1_555
Ga1 O46 1.878791 1_555
Ga2 O6 1.874696 1_554
Ga2 O8 1.874702 1_655
Ga2 O7 1.878791 1_555
Ga2 O19 1.878791 1_555
Ga3 O12 1.874694 1_554
Ga3 O21 1.874696 1_555
Ga3 O20 1.878791 1_555
Ga3 O25 1.878791 1_545
Ga4 O35 1.874694 1_555
Ga4 O26 1.874696 1_555
Ga4 O22 1.878791 1_555
Ga4 O27 1.878791 1_555
Ga5 O41 1.874696 1_555
Ga5 O38 1.874702 1_555
Ga5 O28 1.878791 1_555
Ga5 O40 1.878791 1_555
Ga6 O37 1.874694 1_555
Ga6 O30 1.874696 1_555
Ga6 O43 1.878791 1_555
Ga6 O1 1.878791 1_665
Ga7 O31 1.874696 1_545
Ga7 O45 1.874702 1_555
Ga7 O11 1.878791 1_555
Ga7 O44 1.878791 1_555
O0 Si0 1.661266 1_666
O0 Sn6 2.159910 1_555
O1 Sn0 2.061323 1_555
O2 Sn0 2.057976 1_555
O3 Sn7 2.061323 1_555
O4 Sn6 2.061323 1_555
O5 Si1 1.661266 1_556
O5 Sn7 2.159910 1_555
O6 Sn7 2.057985 1_555
O7 Sn5 2.061323 1_655
O8 Sn4 2.057976 1_555
O9 Si0 1.661266 1_555
O9 Sn4 2.159910 1_555
O10 Sn1 2.057988 1_555
O11 Sn2 2.061323 1_545
O12 Sn6 2.057988 1_545
O13 Si1 1.661266 1_556
O13 Sn0 2.159910 1_555
O14 Si1 1.661266 1_555
O14 Sn1 2.159910 1_555
O15 Si1 1.661266 1_555
O15 Sn3 2.159910 1_555
O16 Sn5 2.057985 1_555
O17 Sn2 2.057985 1_555
O18 Si0 1.661266 1_565
O18 Sn5 2.159910 1_555
O19 Sn3 2.061323 1_555
O20 Sn4 2.061323 1_655
O21 Sn3 2.057985 1_555
O22 Sn1 2.061323 1_555
O23 Si0 1.661266 1_566
O23 Sn2 2.159910 1_555
O24 Si2 1.661266 1_555
O24 Sn2 2.159910 1_555
O25 Sn1 2.061323 1_555
O26 Sn3 2.057985 1_555
O27 Sn4 2.061323 1_555
O28 Sn3 2.061323 1_555
O29 Si2 1.661266 1_555
O29 Sn5 2.159910 1_555
O30 Sn2 2.057985 1_655
O31 Sn5 2.057985 1_555
O32 Si3 1.661266 1_555
O32 Sn3 2.159910 1_555
O33 Si3 1.661266 1_555
O33 Sn1 2.159910 1_545
O34 Si3 1.661266 1_555
O34 Sn0 2.159910 1_655
O35 Sn6 2.057988 1_555
O36 Sn2 2.061323 1_555
O37 Sn1 2.057988 1_555
O38 Sn4 2.057976 1_555
O39 Si2 1.661266 1_555
O39 Sn4 2.159910 1_555
O40 Sn5 2.061323 1_545
O41 Sn7 2.057985 1_555
O42 Si3 1.661266 1_555
O42 Sn7 2.159910 1_555
O43 Sn6 2.061323 1_555
O44 Sn7 2.061323 1_555
O45 Sn0 2.057976 1_555
O46 Sn0 2.061323 1_555
O47 Si2 1.661266 1_555
O47 Sn6 2.159910 1_555
