# generated using pymatgen
data_Mo3S7Cl4
_symmetry_space_group_name_H-M   'P 1'
_cell_length_a   12.22117014
_cell_length_b   9.59826687
_cell_length_c   14.19731277
_cell_angle_alpha   57.68639335
_cell_angle_beta   90.00000000
_cell_angle_gamma   90.00000000
_symmetry_Int_Tables_number   1
_chemical_formula_structural   Mo3S7Cl4
_chemical_formula_sum   'Mo12 S28 Cl16'
_cell_volume   1407.46564615
_cell_formula_units_Z   4
loop_
 _symmetry_equiv_pos_site_id
 _symmetry_equiv_pos_as_xyz
  1  'x, y, z'
loop_
 _atom_site_type_symbol
 _atom_site_label
 _atom_site_symmetry_multiplicity
 _atom_site_fract_x
 _atom_site_fract_y
 _atom_site_fract_z
 _atom_site_occupancy
  Mo  Mo0  1  0.74787697  0.12969260  0.28922708  1
  Mo  Mo1  1  0.37952516  0.63406338  0.21948216  1
  Mo  Mo2  1  0.15914139  0.59901334  0.22408056  1
  Mo  Mo3  1  0.65914139  0.40098666  0.27591944  1
  Mo  Mo4  1  0.87952516  0.36593662  0.28051784  1
  Mo  Mo5  1  0.12047484  0.63406338  0.71948216  1
  Mo  Mo6  1  0.34085861  0.59901334  0.72408056  1
  Mo  Mo7  1  0.24787697  0.87030740  0.21077292  1
  Mo  Mo8  1  0.62047484  0.36593662  0.78051784  1
  Mo  Mo9  1  0.84085861  0.40098666  0.77591944  1
  Mo  Mo10  1  0.25212303  0.87030740  0.71077292  1
  Mo  Mo11  1  0.75212303  0.12969260  0.78922708  1
  S  S0  1  0.23537651  0.59450592  0.86363218  1
  S  S1  1  0.04707104  0.81802485  0.22229839  1
  S  S2  1  0.61922807  0.08081573  0.92741326  1
  S  S3  1  0.27844763  0.58788113  0.09461491  1
  S  S4  1  0.04816188  0.88288305  0.71198500  1
  S  S5  1  0.45292896  0.81802485  0.72229839  1
  S  S6  1  0.88077193  0.08081573  0.42741326  1
  S  S7  1  0.71199598  0.61827833  0.75136412  1
  S  S8  1  0.54816188  0.11711695  0.78801500  1
  S  S9  1  0.62188269  0.12225568  0.42105503  1
  S  S10  1  0.26462349  0.59450592  0.36363218  1
  S  S11  1  0.28800402  0.38172167  0.24863588  1
  S  S12  1  0.12188269  0.87774432  0.07894497  1
  S  S13  1  0.73537651  0.40549408  0.63636782  1
  S  S14  1  0.38077193  0.91918427  0.07258674  1
  S  S15  1  0.22155237  0.58788113  0.59461491  1
  S  S16  1  0.87811731  0.12225568  0.92105503  1
  S  S17  1  0.11922807  0.91918427  0.57258674  1
  S  S18  1  0.72155237  0.41211887  0.90538509  1
  S  S19  1  0.54707104  0.18197515  0.27770161  1
  S  S20  1  0.77844763  0.41211887  0.40538509  1
  S  S21  1  0.95183812  0.11711695  0.28801500  1
  S  S22  1  0.78800402  0.61827833  0.25136412  1
  S  S23  1  0.45183812  0.88288305  0.21198500  1
  S  S24  1  0.37811731  0.87774432  0.57894497  1
  S  S25  1  0.95292896  0.18197515  0.77770161  1
  S  S26  1  0.76462349  0.40549408  0.13636782  1
  S  S27  1  0.21199598  0.38172167  0.74863588  1
  Cl  Cl0  1  0.95302304  0.61417779  0.61756155  1
  Cl  Cl1  1  0.76090837  0.07759064  0.63558722  1
  Cl  Cl2  1  0.54697696  0.61417779  0.11756155  1
  Cl  Cl3  1  0.77647563  0.83034185  0.89841630  1
  Cl  Cl4  1  0.72352437  0.83034185  0.39841630  1
  Cl  Cl5  1  0.99039296  0.46433471  0.87383153  1
  Cl  Cl6  1  0.27647563  0.16965815  0.60158370  1
  Cl  Cl7  1  0.50960704  0.46433471  0.37383153  1
  Cl  Cl8  1  0.00960704  0.53566529  0.12616847  1
  Cl  Cl9  1  0.04697696  0.38582221  0.38243845  1
  Cl  Cl10  1  0.73909163  0.07759064  0.13558722  1
  Cl  Cl11  1  0.26090837  0.92240936  0.86441278  1
  Cl  Cl12  1  0.22352437  0.16965815  0.10158370  1
  Cl  Cl13  1  0.49039296  0.53566529  0.62616847  1
  Cl  Cl14  1  0.45302304  0.38582221  0.88243845  1
  Cl  Cl15  1  0.23909163  0.92240936  0.36441278  1
loop_
_geom_bond_atom_site_label_1
_geom_bond_atom_site_label_2
_geom_bond_distance
_geom_bond_site_symmetry_2
Mo0 S26 2.370104 1_555
Mo0 S6 2.392248 1_555
Mo0 S9 2.395024 1_555
Mo0 S19 2.492657 1_555
Mo0 S21 2.496069 1_555
Mo1 S10 2.339579 1_555
Mo1 S3 2.388575 1_555
Mo1 S14 2.395242 1_555
Mo1 S11 2.493365 1_555
Mo1 S23 2.494845 1_555
Mo2 S10 2.344660 1_555
Mo2 S12 2.391021 1_555
Mo2 S3 2.392867 1_555
Mo2 S11 2.484791 1_555
Mo2 S1 2.497723 1_555
Mo3 S26 2.344660 1_555
Mo3 S9 2.391021 1_555
Mo3 S20 2.392867 1_555
Mo3 S22 2.484791 1_555
Mo3 S19 2.497723 1_555
Mo4 S26 2.339579 1_555
Mo4 S20 2.388575 1_555
Mo4 S6 2.395242 1_555
Mo4 S22 2.493365 1_555
Mo4 S21 2.494845 1_555
Mo5 S0 2.339579 1_555
Mo5 S15 2.388575 1_555
Mo5 S17 2.395242 1_555
Mo5 S27 2.493365 1_555
Mo5 S4 2.494845 1_555
Mo6 S0 2.344660 1_555
Mo6 S24 2.391021 1_555
Mo6 S15 2.392867 1_555
Mo6 S27 2.484791 1_555
Mo6 S5 2.497723 1_555
Mo7 S10 2.370104 1_555
Mo7 S14 2.392248 1_555
Mo7 S12 2.395024 1_555
Mo7 S1 2.492657 1_555
Mo7 S23 2.496069 1_555
Mo8 S13 2.339579 1_555
Mo8 S18 2.388575 1_555
Mo8 S2 2.395242 1_555
Mo8 S7 2.493365 1_555
Mo8 S8 2.494845 1_555
Mo9 S13 2.344660 1_555
Mo9 S16 2.391021 1_555
Mo9 S18 2.392867 1_555
Mo9 S7 2.484791 1_555
Mo9 S25 2.497723 1_555
Mo10 S0 2.370104 1_555
Mo10 S17 2.392248 1_555
Mo10 S24 2.395024 1_555
Mo10 S5 2.492657 1_555
Mo10 S4 2.496069 1_555
Mo11 S13 2.370104 1_555
Mo11 S2 2.392248 1_555
Mo11 S16 2.395024 1_555
Mo11 S25 2.492657 1_555
Mo11 S8 2.496069 1_555
S1 S12 2.014804 1_555
S2 S8 2.013766 1_555
S11 S3 2.021089 1_555
S14 S23 2.013766 1_555
S15 S27 2.021089 1_555
S16 S25 2.014804 1_555
S17 S4 2.013766 1_555
S18 S7 2.021089 1_555
S19 S9 2.014804 1_555
S20 S22 2.021089 1_555
S21 S6 2.013766 1_555
S24 S5 2.014804 1_555
Cl0 Mo9 2.490471 1_555
Cl0 Mo5 2.571671 1_655
Cl1 Mo11 2.487123 1_555
Cl2 Mo3 2.490471 1_555
Cl2 Mo1 2.571671 1_555
Cl3 Mo11 2.446495 1_565
Cl4 Mo0 2.446495 1_565
Cl5 Mo5 2.483275 1_655
Cl5 Mo9 2.558393 1_555
Cl6 Mo10 2.446495 1_545
Cl7 Mo1 2.483275 1_555
Cl7 Mo3 2.558393 1_555
Cl8 Mo4 2.483275 1_455
Cl8 Mo2 2.558393 1_555
Cl9 Mo2 2.490471 1_555
Cl9 Mo4 2.571671 1_455
Cl10 Mo0 2.487123 1_555
Cl11 Mo10 2.487123 1_555
Cl12 Mo7 2.446495 1_545
Cl13 Mo8 2.483275 1_555
Cl13 Mo6 2.558393 1_555
Cl14 Mo6 2.490471 1_555
Cl14 Mo8 2.571671 1_555
Cl15 Mo7 2.487123 1_555
