# generated using pymatgen
data_Na2Cu3(SiO3)4
_symmetry_space_group_name_H-M   'P 1'
_cell_length_a   7.62885700
_cell_length_b   10.40484900
_cell_length_c   13.72625900
_cell_angle_alpha   90.00000000
_cell_angle_beta   90.00000000
_cell_angle_gamma   90.00000000
_symmetry_Int_Tables_number   1
_chemical_formula_structural   Na2Cu3(SiO3)4
_chemical_formula_sum   'Na8 Cu12 Si16 O48'
_cell_volume   1089.55070365
_cell_formula_units_Z   4
loop_
 _symmetry_equiv_pos_site_id
 _symmetry_equiv_pos_as_xyz
  1  'x, y, z'
loop_
 _atom_site_type_symbol
 _atom_site_label
 _atom_site_symmetry_multiplicity
 _atom_site_fract_x
 _atom_site_fract_y
 _atom_site_fract_z
 _atom_site_occupancy
  Na  Na0  1  0.03935300  0.75000000  0.16808200  1
  Na  Na1  1  0.18800800  0.75000000  0.48362400  1
  Na  Na2  1  0.46064700  0.25000000  0.66808200  1
  Na  Na3  1  0.81199200  0.25000000  0.51637600  1
  Na  Na4  1  0.31199200  0.25000000  0.98362400  1
  Na  Na5  1  0.53935300  0.75000000  0.33191800  1
  Na  Na6  1  0.96064700  0.25000000  0.83191800  1
  Na  Na7  1  0.68800800  0.75000000  0.01637600  1
  Cu  Cu0  1  0.26566800  0.25000000  0.21844700  1
  Cu  Cu1  1  0.25257500  0.75000000  0.94294700  1
  Cu  Cu2  1  0.74742500  0.25000000  0.05705300  1
  Cu  Cu3  1  0.24742500  0.25000000  0.44294700  1
  Cu  Cu4  1  0.00000000  0.50000000  0.00000000  1
  Cu  Cu5  1  0.75257500  0.75000000  0.55705300  1
  Cu  Cu6  1  0.73433200  0.75000000  0.78155300  1
  Cu  Cu7  1  0.50000000  0.50000000  0.50000000  1
  Cu  Cu8  1  0.50000000  0.00000000  0.50000000  1
  Cu  Cu9  1  0.76566800  0.25000000  0.28155300  1
  Cu  Cu10  1  0.00000000  0.00000000  0.00000000  1
  Cu  Cu11  1  0.23433200  0.75000000  0.71844700  1
  Si  Si0  1  0.81974900  0.96905100  0.37617200  1
  Si  Si1  1  0.27933900  0.47518600  0.83756400  1
  Si  Si2  1  0.31974900  0.96905100  0.12382800  1
  Si  Si3  1  0.72066100  0.52481400  0.16243600  1
  Si  Si4  1  0.68025100  0.03094900  0.87617200  1
  Si  Si5  1  0.31974900  0.53094900  0.12382800  1
  Si  Si6  1  0.77933900  0.47518600  0.66243600  1
  Si  Si7  1  0.22066100  0.97518600  0.33756400  1
  Si  Si8  1  0.27933900  0.02481400  0.83756400  1
  Si  Si9  1  0.22066100  0.52481400  0.33756400  1
  Si  Si10  1  0.18025100  0.46905100  0.62382800  1
  Si  Si11  1  0.81974900  0.53094900  0.37617200  1
  Si  Si12  1  0.72066100  0.97518600  0.16243600  1
  Si  Si13  1  0.77933900  0.02481400  0.66243600  1
  Si  Si14  1  0.18025100  0.03094900  0.62382800  1
  Si  Si15  1  0.68025100  0.46905100  0.87617200  1
  O  O0  1  0.79044000  0.37777400  0.38147900  1
  O  O1  1  0.97155200  0.42583000  0.61965000  1
  O  O2  1  0.73540000  0.13207100  0.17033700  1
  O  O3  1  0.73647600  0.91119200  0.27290700  1
  O  O4  1  0.23540000  0.36792900  0.32966300  1
  O  O5  1  0.23647600  0.58880800  0.22709300  1
  O  O6  1  0.70956000  0.87777400  0.88147900  1
  O  O7  1  0.21730700  0.60726400  0.03495900  1
  O  O8  1  0.70956000  0.62222600  0.88147900  1
  O  O9  1  0.86974400  0.90780200  0.09603100  1
  O  O10  1  0.23647600  0.91119200  0.22709300  1
  O  O11  1  0.52844800  0.57417000  0.11965000  1
  O  O12  1  0.73647600  0.58880800  0.27290700  1
  O  O13  1  0.26460000  0.63207100  0.82966300  1
  O  O14  1  0.47155200  0.07417000  0.88035000  1
  O  O15  1  0.86974400  0.59219800  0.09603100  1
  O  O16  1  0.63025600  0.09219800  0.59603100  1
  O  O17  1  0.29044000  0.37777400  0.11852100  1
  O  O18  1  0.76460000  0.63207100  0.67033700  1
  O  O19  1  0.13025600  0.40780200  0.90396900  1
  O  O20  1  0.23540000  0.13207100  0.32966300  1
  O  O21  1  0.76352400  0.08880800  0.77290700  1
  O  O22  1  0.21730700  0.89273600  0.03495900  1
  O  O23  1  0.02844800  0.57417000  0.38035000  1
  O  O24  1  0.71730700  0.60726400  0.46504100  1
  O  O25  1  0.78269300  0.39273600  0.96504100  1
  O  O26  1  0.36974400  0.90780200  0.40396900  1
  O  O27  1  0.76352400  0.41119200  0.77290700  1
  O  O28  1  0.20956000  0.62222600  0.61852100  1
  O  O29  1  0.26352400  0.08880800  0.72709300  1
  O  O30  1  0.97155200  0.07417000  0.61965000  1
  O  O31  1  0.28269300  0.10726400  0.53495900  1
  O  O32  1  0.26460000  0.86792900  0.82966300  1
  O  O33  1  0.36974400  0.59219800  0.40396900  1
  O  O34  1  0.26352400  0.41119200  0.72709300  1
  O  O35  1  0.76460000  0.86792900  0.67033700  1
  O  O36  1  0.13025600  0.09219800  0.90396900  1
  O  O37  1  0.29044000  0.12222600  0.11852100  1
  O  O38  1  0.78269300  0.10726400  0.96504100  1
  O  O39  1  0.63025600  0.40780200  0.59603100  1
  O  O40  1  0.02844800  0.92583000  0.38035000  1
  O  O41  1  0.79044000  0.12222600  0.38147900  1
  O  O42  1  0.28269300  0.39273600  0.53495900  1
  O  O43  1  0.47155200  0.42583000  0.88035000  1
  O  O44  1  0.71730700  0.89273600  0.46504100  1
  O  O45  1  0.73540000  0.36792900  0.17033700  1
  O  O46  1  0.52844800  0.92583000  0.11965000  1
  O  O47  1  0.20956000  0.87777400  0.61852100  1
loop_
_geom_bond_atom_site_label_1
_geom_bond_atom_site_label_2
_geom_bond_distance
_geom_bond_site_symmetry_2
Na0 O15 2.312616 1_455
Na0 O9 2.312616 1_455
Na0 O5 2.393849 1_555
Na0 O10 2.393849 1_555
Na0 O7 2.718024 1_555
Na0 O22 2.718024 1_555
Na1 O47 2.285401 1_555
Na1 O28 2.285401 1_555
Na1 O26 2.411123 1_555
Na1 O33 2.411123 1_555
Na1 O23 2.615001 1_555
Na1 O40 2.615001 1_555
Na2 O16 2.312616 1_555
Na2 O39 2.312616 1_555
Na2 O34 2.393849 1_555
Na2 O29 2.393849 1_555
Na2 O42 2.718024 1_555
Na2 O31 2.718024 1_555
Na3 O41 2.285401 1_555
Na3 O0 2.285401 1_555
Na3 O16 2.411123 1_555
Na3 O39 2.411123 1_555
Na3 O30 2.615001 1_555
Na3 O1 2.615001 1_555
Na4 O17 2.285401 1_556
Na4 O37 2.285401 1_556
Na4 O19 2.411123 1_555
Na4 O36 2.411123 1_555
Na4 O43 2.615001 1_555
Na4 O14 2.615001 1_555
Na5 O33 2.312616 1_555
Na5 O26 2.312616 1_555
Na5 O3 2.393849 1_555
Na5 O12 2.393849 1_555
Na5 O24 2.718024 1_555
Na5 O44 2.718024 1_555
Na6 O19 2.312616 1_655
Na6 O36 2.312616 1_655
Na6 O27 2.393849 1_555
Na6 O21 2.393849 1_555
Na6 O38 2.718024 1_555
Na6 O25 2.718024 1_555
Na7 O6 2.285401 1_554
Na7 O8 2.285401 1_554
Na7 O15 2.411123 1_555
Na7 O9 2.411123 1_555
Na7 O11 2.615001 1_555
Na7 O46 2.615001 1_555
Cu0 O37 1.919510 1_555
Cu0 O17 1.919510 1_555
Cu0 O20 1.972150 1_555
Cu0 O4 1.972150 1_555
Cu1 O7 1.968037 1_556
Cu1 O22 1.968037 1_556
Cu1 O32 1.982913 1_555
Cu1 O13 1.982913 1_555
Cu2 O25 1.968037 1_554
Cu2 O38 1.968037 1_554
Cu2 O2 1.982913 1_555
Cu2 O45 1.982913 1_555
Cu3 O42 1.968037 1_555
Cu3 O31 1.968037 1_555
Cu3 O20 1.982913 1_555
Cu3 O4 1.982913 1_555
Cu4 O15 1.909248 1_455
Cu4 O19 1.909248 1_554
Cu4 O7 2.055281 1_555
Cu4 O25 2.055281 1_454
Cu5 O24 1.968037 1_555
Cu5 O44 1.968037 1_555
Cu5 O35 1.982913 1_555
Cu5 O18 1.982913 1_555
Cu6 O6 1.919510 1_555
Cu6 O8 1.919510 1_555
Cu6 O35 1.972150 1_555
Cu6 O18 1.972150 1_555
Cu7 O39 1.909248 1_555
Cu7 O33 1.909248 1_555
Cu7 O24 2.055281 1_555
Cu7 O42 2.055281 1_555
Cu8 O16 1.909248 1_555
Cu8 O26 1.909248 1_545
Cu8 O44 2.055281 1_545
Cu8 O31 2.055281 1_555
Cu9 O41 1.919510 1_555
Cu9 O0 1.919510 1_555
Cu9 O45 1.972150 1_555
Cu9 O2 1.972150 1_555
Cu10 O9 1.909248 1_445
Cu10 O36 1.909248 1_554
Cu10 O22 2.055281 1_545
Cu10 O38 2.055281 1_454
Cu11 O47 1.919510 1_555
Cu11 O28 1.919510 1_555
Cu11 O32 1.972150 1_555
Cu11 O13 1.972150 1_555
O0 Si11 1.611018 1_555
O1 Si10 1.655421 1_655
O1 Si6 1.660983 1_555
O2 Si12 1.639823 1_545
O3 Si12 1.660493 1_555
O3 Si0 1.665875 1_555
O4 Si9 1.639823 1_555
O5 Si9 1.660493 1_555
O5 Si5 1.665875 1_555
O6 Si4 1.611018 1_565
O7 Si5 1.652054 1_555
O8 Si15 1.611018 1_555
O9 Si12 1.617379 1_555
O10 Si7 1.660493 1_555
O10 Si2 1.665875 1_555
O11 Si5 1.655421 1_555
O11 Si3 1.660983 1_555
O12 Si3 1.660493 1_555
O12 Si11 1.665875 1_555
O13 Si1 1.639823 1_555
O14 Si4 1.655421 1_555
O14 Si8 1.660983 1_555
O15 Si3 1.617379 1_555
O16 Si13 1.617379 1_555
O17 Si5 1.611018 1_555
O18 Si6 1.639823 1_555
O19 Si1 1.617379 1_555
O20 Si7 1.639823 1_545
O21 Si13 1.660493 1_555
O21 Si4 1.665875 1_555
O22 Si2 1.652054 1_555
O23 Si11 1.655421 1_455
O23 Si9 1.660983 1_555
O24 Si11 1.652054 1_555
O25 Si15 1.652054 1_555
O26 Si7 1.617379 1_555
O27 Si6 1.660493 1_555
O27 Si15 1.665875 1_555
O28 Si10 1.611018 1_555
O29 Si8 1.660493 1_555
O29 Si14 1.665875 1_555
O30 Si14 1.655421 1_655
O30 Si13 1.660983 1_555
O31 Si14 1.652054 1_555
O32 Si8 1.639823 1_565
O33 Si9 1.617379 1_555
O34 Si1 1.660493 1_555
O34 Si10 1.665875 1_555
O35 Si13 1.639823 1_565
O36 Si8 1.617379 1_555
O37 Si2 1.611018 1_545
O38 Si4 1.652054 1_555
O39 Si6 1.617379 1_555
O40 Si0 1.655421 1_455
O40 Si7 1.660983 1_555
O41 Si0 1.611018 1_545
O42 Si10 1.652054 1_555
O43 Si15 1.655421 1_555
O43 Si1 1.660983 1_555
O44 Si0 1.652054 1_555
O45 Si3 1.639823 1_555
O46 Si2 1.655421 1_555
O46 Si12 1.660983 1_555
O47 Si14 1.611018 1_565
