# generated using pymatgen
data_VInCuO5
_symmetry_space_group_name_H-M   'P 1'
_cell_length_a   6.24506900
_cell_length_b   8.92283400
_cell_length_c   15.48860667
_cell_angle_alpha   73.31499239
_cell_angle_beta   90.00000000
_cell_angle_gamma   90.00000000
_symmetry_Int_Tables_number   1
_chemical_formula_structural   VInCuO5
_chemical_formula_sum   'V8 In8 Cu8 O40'
_cell_volume   826.74488284
_cell_formula_units_Z   8
loop_
 _symmetry_equiv_pos_site_id
 _symmetry_equiv_pos_as_xyz
  1  'x, y, z'
loop_
 _atom_site_type_symbol
 _atom_site_label
 _atom_site_symmetry_multiplicity
 _atom_site_fract_x
 _atom_site_fract_y
 _atom_site_fract_z
 _atom_site_occupancy
  V  V0  1  0.15296200  0.92999100  0.14759900  1
  V  V1  1  0.65296200  0.07000900  0.35240100  1
  V  V2  1  0.84703800  0.07000900  0.85240100  1
  V  V3  1  0.34703800  0.92999100  0.64759900  1
  V  V4  1  0.87225600  0.67712200  0.64582700  1
  V  V5  1  0.62774400  0.67712200  0.14582700  1
  V  V6  1  0.12774400  0.32287800  0.35417300  1
  V  V7  1  0.37225600  0.32287800  0.85417300  1
  In  In0  1  0.12183500  0.62406400  0.04548200  1
  In  In1  1  0.11055000  0.29705500  0.65175200  1
  In  In2  1  0.88945000  0.70294500  0.34824800  1
  In  In3  1  0.38945000  0.29705500  0.15175200  1
  In  In4  1  0.61055000  0.70294500  0.84824800  1
  In  In5  1  0.62183500  0.37593600  0.45451800  1
  In  In6  1  0.37816500  0.62406400  0.54548200  1
  In  In7  1  0.87816500  0.37593600  0.95451800  1
  Cu  Cu0  1  0.35708800  0.93133800  0.93570000  1
  Cu  Cu1  1  0.14291200  0.93133800  0.43570000  1
  Cu  Cu2  1  0.85708800  0.06866200  0.56430000  1
  Cu  Cu3  1  0.11127800  0.71106000  0.83600000  1
  Cu  Cu4  1  0.64291200  0.06866200  0.06430000  1
  Cu  Cu5  1  0.61127800  0.28894000  0.66400000  1
  Cu  Cu6  1  0.38872200  0.71106000  0.33600000  1
  Cu  Cu7  1  0.88872200  0.28894000  0.16400000  1
  O  O0  1  0.37696400  0.05580500  0.14319700  1
  O  O1  1  0.88280100  0.85127800  0.56142500  1
  O  O2  1  0.62303600  0.94419500  0.85680300  1
  O  O3  1  0.12303600  0.05580500  0.64319700  1
  O  O4  1  0.12775400  0.27958800  0.24847200  1
  O  O5  1  0.83032400  0.28807700  0.57063800  1
  O  O6  1  0.61719900  0.85127800  0.06142500  1
  O  O7  1  0.07509800  0.97205000  0.84918600  1
  O  O8  1  0.10598800  0.37101900  0.06636100  1
  O  O9  1  0.89401200  0.62898100  0.93363900  1
  O  O10  1  0.86372500  0.58025700  0.14109100  1
  O  O11  1  0.57509800  0.02795000  0.65081400  1
  O  O12  1  0.84412000  0.13839700  0.94993600  1
  O  O13  1  0.66967600  0.28807700  0.07063800  1
  O  O14  1  0.90917300  0.44756800  0.36595100  1
  O  O15  1  0.36372500  0.41974300  0.35890900  1
  O  O16  1  0.15316400  0.76414400  0.24759600  1
  O  O17  1  0.15588000  0.86160300  0.05006400  1
  O  O18  1  0.87224600  0.72041200  0.75152800  1
  O  O19  1  0.59082700  0.44756800  0.86595100  1
  O  O20  1  0.11719900  0.14872200  0.43857500  1
  O  O21  1  0.37224600  0.27958800  0.74847200  1
  O  O22  1  0.84683600  0.23585600  0.75240400  1
  O  O23  1  0.62775400  0.72041200  0.25152800  1
  O  O24  1  0.60598800  0.62898100  0.43363900  1
  O  O25  1  0.42490200  0.97205000  0.34918600  1
  O  O26  1  0.09082700  0.55243200  0.63404900  1
  O  O27  1  0.39401200  0.37101900  0.56636100  1
  O  O28  1  0.63627500  0.58025700  0.64109100  1
  O  O29  1  0.16967600  0.71192300  0.42936200  1
  O  O30  1  0.13627500  0.41974300  0.85890900  1
  O  O31  1  0.34683600  0.76414400  0.74759600  1
  O  O32  1  0.33032400  0.71192300  0.92936200  1
  O  O33  1  0.34412000  0.86160300  0.55006400  1
  O  O34  1  0.65316400  0.23585600  0.25240400  1
  O  O35  1  0.40917300  0.55243200  0.13404900  1
  O  O36  1  0.87696400  0.94419500  0.35680300  1
  O  O37  1  0.92490200  0.02795000  0.15081400  1
  O  O38  1  0.65588000  0.13839700  0.44993600  1
  O  O39  1  0.38280100  0.14872200  0.93857500  1
loop_
_geom_bond_atom_site_label_1
_geom_bond_atom_site_label_2
_geom_bond_distance
_geom_bond_site_symmetry_2
In0 O10 2.147462 1_455
In0 O17 2.151508 1_555
In0 O32 2.175997 1_554
In0 O8 2.189318 1_555
In0 O9 2.232352 1_454
In0 O35 2.237604 1_555
In1 O5 2.169151 1_455
In1 O21 2.192115 1_555
In1 O27 2.194841 1_555
In1 O3 2.195736 1_555
In1 O26 2.219007 1_555
In1 O22 2.225316 1_455
In2 O29 2.169151 1_655
In2 O23 2.192115 1_555
In2 O24 2.194841 1_555
In2 O36 2.195736 1_555
In2 O14 2.219007 1_555
In2 O16 2.225316 1_655
In3 O13 2.169151 1_555
In3 O4 2.192115 1_555
In3 O8 2.194841 1_555
In3 O0 2.195736 1_555
In3 O35 2.219007 1_555
In3 O34 2.225316 1_555
In4 O32 2.169151 1_555
In4 O18 2.192115 1_555
In4 O9 2.194841 1_555
In4 O2 2.195736 1_555
In4 O19 2.219007 1_555
In4 O31 2.225316 1_555
In5 O15 2.147462 1_555
In5 O38 2.151508 1_555
In5 O5 2.175997 1_555
In5 O24 2.189318 1_555
In5 O27 2.232352 1_555
In5 O14 2.237604 1_555
In6 O28 2.147462 1_555
In6 O33 2.151508 1_555
In6 O29 2.175997 1_555
In6 O27 2.189318 1_555
In6 O24 2.232352 1_555
In6 O26 2.237604 1_555
In7 O30 2.147462 1_655
In7 O12 2.151508 1_555
In7 O13 2.175997 1_556
In7 O9 2.189318 1_555
In7 O8 2.232352 1_656
In7 O19 2.237604 1_555
Cu0 O39 1.959523 1_565
Cu0 O32 1.995226 1_555
Cu0 O2 2.045587 1_555
Cu0 O17 2.114440 1_556
Cu0 O7 2.179286 1_555
Cu0 O6 2.478353 1_556
Cu1 O20 1.959523 1_565
Cu1 O29 1.995226 1_555
Cu1 O36 2.045587 1_455
Cu1 O33 2.114440 1_555
Cu1 O25 2.179286 1_555
Cu1 O1 2.478353 1_455
Cu2 O1 1.959523 1_545
Cu2 O5 1.995226 1_555
Cu2 O3 2.045587 1_655
Cu2 O38 2.114440 1_555
Cu2 O11 2.179286 1_555
Cu2 O20 2.478353 1_655
Cu3 O18 1.970895 1_455
Cu3 O31 1.972526 1_555
Cu3 O32 1.992188 1_555
Cu3 O9 2.007096 1_455
Cu3 O7 2.406042 1_555
Cu3 O30 2.525350 1_555
Cu4 O6 1.959523 1_545
Cu4 O13 1.995226 1_555
Cu4 O0 2.045587 1_555
Cu4 O12 2.114440 1_554
Cu4 O37 2.179286 1_555
Cu4 O39 2.478353 1_554
Cu5 O21 1.970895 1_555
Cu5 O22 1.972526 1_555
Cu5 O5 1.992188 1_555
Cu5 O27 2.007096 1_555
Cu5 O11 2.406042 1_555
Cu5 O28 2.525350 1_555
Cu6 O23 1.970895 1_555
Cu6 O16 1.972526 1_555
Cu6 O29 1.992188 1_555
Cu6 O24 2.007096 1_555
Cu6 O25 2.406042 1_555
Cu6 O15 2.525350 1_555
Cu7 O4 1.970895 1_655
Cu7 O34 1.972526 1_555
Cu7 O13 1.992188 1_555
Cu7 O8 2.007096 1_655
Cu7 O37 2.406042 1_555
Cu7 O10 2.525350 1_555
O0 V0 1.782670 1_545
O1 V4 1.720929 1_555
O2 V2 1.782670 1_565
O3 V3 1.782670 1_545
O4 V6 1.786793 1_555
O6 V5 1.720929 1_555
O7 V2 1.679275 1_465
O10 V5 1.720658 1_555
O11 V3 1.679275 1_545
O12 V2 1.784430 1_555
O14 V6 1.803019 1_655
O15 V6 1.720658 1_555
O16 V0 1.809036 1_555
O17 V0 1.784430 1_555
O18 V4 1.786793 1_555
O19 V7 1.803019 1_555
O20 V6 1.720929 1_555
O21 V7 1.786793 1_555
O22 V2 1.809036 1_555
O23 V5 1.786793 1_555
O25 V1 1.679275 1_565
O26 V4 1.803019 1_455
O28 V4 1.720658 1_555
O30 V7 1.720658 1_555
O31 V3 1.809036 1_555
O33 V3 1.784430 1_555
O34 V1 1.809036 1_555
O35 V5 1.803019 1_555
O36 V1 1.782670 1_565
O37 V0 1.679275 1_645
O38 V1 1.784430 1_555
O39 V7 1.720929 1_555
