# generated using pymatgen
data_Mg7TiH16
_symmetry_space_group_name_H-M   'P 1'
_cell_length_a   6.65929691
_cell_length_b   6.65929691
_cell_length_c   6.65929691
_cell_angle_alpha   60.00000000
_cell_angle_beta   60.00000000
_cell_angle_gamma   60.00000000
_symmetry_Int_Tables_number   1
_chemical_formula_structural   Mg7TiH16
_chemical_formula_sum   'Mg7 Ti1 H16'
_cell_volume   208.81906045
_cell_formula_units_Z   1
loop_
 _symmetry_equiv_pos_site_id
 _symmetry_equiv_pos_as_xyz
  1  'x, y, z'
loop_
 _atom_site_type_symbol
 _atom_site_label
 _atom_site_symmetry_multiplicity
 _atom_site_fract_x
 _atom_site_fract_y
 _atom_site_fract_z
 _atom_site_occupancy
  Mg  Mg0  1  0.50000000  0.50000000  0.50000000  1
  Mg  Mg1  1  0.00000000  0.00000000  0.50000000  1
  Mg  Mg2  1  0.50000000  0.00000000  0.50000000  1
  Mg  Mg3  1  0.00000000  0.50000000  0.50000000  1
  Mg  Mg4  1  0.50000000  0.50000000  0.00000000  1
  Mg  Mg5  1  0.00000000  0.50000000  0.00000000  1
  Mg  Mg6  1  0.50000000  0.00000000  0.00000000  1
  Ti  Ti0  1  0.00000000  0.00000000  0.00000000  1
  H  H0  1  0.88055600  0.88055600  0.35833300  1
  H  H1  1  0.88055600  0.35833300  0.88055600  1
  H  H2  1  0.35833300  0.88055600  0.88055600  1
  H  H3  1  0.88055600  0.88055600  0.88055600  1
  H  H4  1  0.11944400  0.11944400  0.64166700  1
  H  H5  1  0.11944400  0.64166700  0.11944400  1
  H  H6  1  0.64166700  0.11944400  0.11944400  1
  H  H7  1  0.11944400  0.11944400  0.11944400  1
  H  H8  1  0.62782300  0.62782300  0.11653100  1
  H  H9  1  0.62782300  0.11653100  0.62782300  1
  H  H10  1  0.11653100  0.62782300  0.62782300  1
  H  H11  1  0.62782300  0.62782300  0.62782300  1
  H  H12  1  0.37217700  0.37217700  0.88346900  1
  H  H13  1  0.37217700  0.88346900  0.37217700  1
  H  H14  1  0.88346900  0.37217700  0.37217700  1
  H  H15  1  0.37217700  0.37217700  0.37217700  1
loop_
_geom_bond_atom_site_label_1
_geom_bond_atom_site_label_2
_geom_bond_distance
_geom_bond_site_symmetry_2
H0 Ti0 1.948362 1_665
H0 Mg1 2.070952 1_665
H0 Mg2 2.070958 1_565
H0 Mg3 2.070958 1_655
H1 Ti0 1.948362 1_656
H1 Mg5 2.070952 1_656
H1 Mg4 2.070958 1_556
H1 Mg3 2.070958 1_655
H2 Ti0 1.948362 1_566
H2 Mg6 2.070952 1_566
H2 Mg4 2.070958 1_556
H2 Mg2 2.070958 1_565
H3 Ti0 1.948356 1_666
H3 Mg6 2.070958 1_566
H3 Mg5 2.070958 1_656
H3 Mg1 2.070958 1_665
H4 Ti0 1.948362 1_556
H4 Mg1 2.070952 1_555
H4 Mg2 2.070958 1_555
H4 Mg3 2.070958 1_555
H5 Ti0 1.948362 1_565
H5 Mg5 2.070952 1_555
H5 Mg3 2.070958 1_555
H5 Mg4 2.070958 1_555
H6 Ti0 1.948362 1_655
H6 Mg6 2.070952 1_555
H6 Mg2 2.070958 1_555
H6 Mg4 2.070958 1_555
H7 Ti0 1.948356 1_555
H7 Mg5 2.070958 1_555
H7 Mg6 2.070958 1_555
H7 Mg1 2.070958 1_555
H8 Mg5 2.024101 1_655
H8 Mg6 2.024101 1_565
H8 Mg4 2.024101 1_555
H8 Mg0 2.085033 1_555
H9 Mg2 2.024101 1_555
H9 Mg1 2.024101 1_655
H9 Mg6 2.024101 1_556
H9 Mg0 2.085033 1_555
H10 Mg5 2.024101 1_556
H10 Mg1 2.024101 1_565
H10 Mg3 2.024101 1_555
H10 Mg0 2.085033 1_555
H11 Mg2 2.024101 1_565
H11 Mg3 2.024101 1_655
H11 Mg4 2.024101 1_556
H11 Mg0 2.085033 1_555
H12 Mg5 2.024101 1_556
H12 Mg6 2.024101 1_556
H12 Mg4 2.024101 1_556
H12 Mg0 2.085033 1_555
H13 Mg1 2.024101 1_565
H13 Mg6 2.024101 1_565
H13 Mg2 2.024101 1_565
H13 Mg0 2.085033 1_555
H14 Mg1 2.024101 1_655
H14 Mg5 2.024101 1_655
H14 Mg3 2.024101 1_655
H14 Mg0 2.085033 1_555
H15 Mg2 2.024101 1_555
H15 Mg4 2.024101 1_555
H15 Mg3 2.024101 1_555
H15 Mg0 2.085033 1_555
