# generated using pymatgen
data_KPb2Cl5
_symmetry_space_group_name_H-M   'P 1'
_cell_length_a   8.10691252
_cell_length_b   8.83520918
_cell_length_c   12.49520094
_cell_angle_alpha   90.00000000
_cell_angle_beta   90.00000000
_cell_angle_gamma   90.00000000
_symmetry_Int_Tables_number   1
_chemical_formula_structural   KPb2Cl5
_chemical_formula_sum   'K4 Pb8 Cl20'
_cell_volume   894.98461022
_cell_formula_units_Z   4
loop_
 _symmetry_equiv_pos_site_id
 _symmetry_equiv_pos_as_xyz
  1  'x, y, z'
loop_
 _atom_site_type_symbol
 _atom_site_label
 _atom_site_symmetry_multiplicity
 _atom_site_fract_x
 _atom_site_fract_y
 _atom_site_fract_z
 _atom_site_occupancy
  K  K0  1  0.52871098  0.50503898  0.17215258  1
  K  K1  1  0.97128902  0.50503898  0.67215258  1
  K  K2  1  0.02871098  0.00503898  0.32784742  1
  K  K3  1  0.47128902  0.00503898  0.82784742  1
  Pb  Pb0  1  0.49704777  0.01515664  0.18131521  1
  Pb  Pb1  1  0.58161588  0.24768035  0.49680167  1
  Pb  Pb2  1  0.91838412  0.24768035  0.99680167  1
  Pb  Pb3  1  0.00295223  0.01515664  0.68131521  1
  Pb  Pb4  1  0.99704777  0.51515664  0.31868479  1
  Pb  Pb5  1  0.08161588  0.74768035  0.00319833  1
  Pb  Pb6  1  0.41838412  0.74768035  0.50319833  1
  Pb  Pb7  1  0.50295223  0.51515664  0.81868479  1
  Cl  Cl0  1  0.54666411  0.24329917  0.00414116  1
  Cl  Cl1  1  0.64559739  0.73238805  0.69039589  1
  Cl  Cl2  1  0.67629773  0.53897460  0.41037297  1
  Cl  Cl3  1  0.65499007  0.95535764  0.40089095  1
  Cl  Cl4  1  0.68663554  0.26214258  0.72348463  1
  Cl  Cl5  1  0.81336446  0.26214258  0.22348463  1
  Cl  Cl6  1  0.84500993  0.95535764  0.90089095  1
  Cl  Cl7  1  0.82370227  0.53897460  0.91037297  1
  Cl  Cl8  1  0.85440261  0.73238805  0.19039589  1
  Cl  Cl9  1  0.95333589  0.24329917  0.50414116  1
  Cl  Cl10  1  0.04666411  0.74329917  0.49585884  1
  Cl  Cl11  1  0.14559739  0.23238805  0.80960411  1
  Cl  Cl12  1  0.15499007  0.45535764  0.09910905  1
  Cl  Cl13  1  0.17629773  0.03897460  0.08962703  1
  Cl  Cl14  1  0.18663554  0.76214258  0.77651537  1
  Cl  Cl15  1  0.31336446  0.76214258  0.27651537  1
  Cl  Cl16  1  0.32370227  0.03897460  0.58962703  1
  Cl  Cl17  1  0.34500993  0.45535764  0.59910905  1
  Cl  Cl18  1  0.35440261  0.23238805  0.30960411  1
  Cl  Cl19  1  0.45333589  0.74329917  0.99585884  1
loop_
_geom_bond_atom_site_label_1
_geom_bond_atom_site_label_2
_geom_bond_distance
_geom_bond_site_symmetry_2
Cl0 Pb2 3.015145 1_554
Cl0 Pb0 3.020896 1_555
Cl0 K3 3.107602 1_554
Cl0 K0 3.126687 1_555
Cl1 Pb7 2.755093 1_555
Cl1 Pb6 2.980347 1_555
Cl1 K3 3.278650 1_565
Cl1 K1 3.325389 1_555
Cl2 Pb4 2.849271 1_555
Cl2 Pb1 2.894669 1_555
Cl2 Pb6 3.019483 1_555
Cl2 K0 3.222059 1_555
Cl3 Pb1 2.908704 1_565
Cl3 Pb6 2.946220 1_555
Cl3 Pb0 3.073468 1_565
Cl3 K2 3.194511 1_665
Cl4 Pb7 2.937619 1_555
Cl4 Pb1 2.960397 1_555
Cl4 K3 3.147747 1_555
Cl4 K1 3.215927 1_555
Cl5 Pb4 2.937619 1_555
Cl5 Pb2 2.960397 1_554
Cl5 K2 3.147747 1_655
Cl5 K0 3.215927 1_555
Cl6 Pb2 2.908704 1_565
Cl6 Pb5 2.946220 1_656
Cl6 Pb3 3.073468 1_665
Cl6 K3 3.194511 1_565
Cl7 Pb7 2.849271 1_555
Cl7 Pb2 2.894669 1_555
Cl7 Pb5 3.019483 1_656
Cl7 K1 3.222059 1_555
Cl8 Pb4 2.755093 1_555
Cl8 Pb5 2.980347 1_655
Cl8 K2 3.278650 1_665
Cl8 K0 3.325389 1_555
Cl9 Pb1 3.015145 1_555
Cl9 Pb3 3.020896 1_655
Cl9 K2 3.107602 1_655
Cl9 K1 3.126687 1_555
Cl10 Pb6 3.015145 1_555
Cl10 Pb4 3.020896 1_455
Cl10 K1 3.107602 1_455
Cl10 K2 3.126687 1_565
Cl11 Pb3 2.755093 1_555
Cl11 Pb2 2.980347 1_455
Cl11 K1 3.278650 1_455
Cl11 K3 3.325389 1_555
Cl12 Pb5 2.908704 1_555
Cl12 Pb2 2.946220 1_454
Cl12 Pb4 3.073468 1_455
Cl12 K0 3.194511 1_555
Cl13 Pb0 2.849271 1_555
Cl13 Pb5 2.894669 1_545
Cl13 Pb2 3.019483 1_454
Cl13 K2 3.222059 1_555
Cl14 Pb3 2.937619 1_565
Cl14 Pb5 2.960397 1_556
Cl14 K1 3.147747 1_455
Cl14 K3 3.215927 1_565
Cl15 Pb0 2.937619 1_565
Cl15 Pb6 2.960397 1_555
Cl15 K0 3.147747 1_555
Cl15 K2 3.215927 1_565
Cl16 Pb3 2.849271 1_555
Cl16 Pb6 2.894669 1_545
Cl16 Pb1 3.019483 1_555
Cl16 K3 3.222059 1_555
Cl17 Pb6 2.908704 1_555
Cl17 Pb1 2.946220 1_555
Cl17 Pb7 3.073468 1_555
Cl17 K1 3.194511 1_455
Cl18 Pb0 2.755093 1_555
Cl18 Pb1 2.980347 1_555
Cl18 K0 3.278650 1_555
Cl18 K2 3.325389 1_555
Cl19 Pb5 3.015145 1_556
Cl19 Pb7 3.020896 1_555
Cl19 K0 3.107602 1_556
Cl19 K3 3.126687 1_565
