# generated using pymatgen
data_Ce3Nd2O9
_symmetry_space_group_name_H-M   'P 1'
_cell_length_a   14.21633461
_cell_length_b   14.21633461
_cell_length_c   14.21633461
_cell_angle_alpha   164.23017157
_cell_angle_beta   164.23017157
_cell_angle_gamma   22.37345519
_symmetry_Int_Tables_number   1
_chemical_formula_structural   Ce3Nd2O9
_chemical_formula_sum   'Ce3 Nd2 O9'
_cell_volume   212.17649123
_cell_formula_units_Z   1
loop_
 _symmetry_equiv_pos_site_id
 _symmetry_equiv_pos_as_xyz
  1  'x, y, z'
loop_
 _atom_site_type_symbol
 _atom_site_label
 _atom_site_symmetry_multiplicity
 _atom_site_fract_x
 _atom_site_fract_y
 _atom_site_fract_z
 _atom_site_occupancy
  Ce  Ce0  1  0.65226900  0.15226900  0.50000000  1
  Ce  Ce1  1  0.25000000  0.75000000  0.50000000  1
  Ce  Ce2  1  0.84773100  0.34773100  0.50000000  1
  Nd  Nd0  1  0.44270600  0.94270600  0.50000000  1
  Nd  Nd1  1  0.05729400  0.55729400  0.50000000  1
  O  O0  1  0.10820700  0.10820700  0.00000000  1
  O  O1  1  0.69815400  0.69815400  0.00000000  1
  O  O2  1  0.30184600  0.30184600  0.00000000  1
  O  O3  1  0.89179300  0.89179300  0.00000000  1
  O  O4  1  0.40226300  0.40226300  0.00000000  1
  O  O5  1  0.00000000  0.00000000  0.00000000  1
  O  O6  1  0.59773700  0.59773700  0.00000000  1
  O  O7  1  0.20414600  0.20414600  0.00000000  1
  O  O8  1  0.79585400  0.79585400  0.00000000  1
loop_
_geom_bond_atom_site_label_1
_geom_bond_atom_site_label_2
_geom_bond_distance
_geom_bond_site_symmetry_2
Ce0 O0 2.305192 1_555
Ce0 O0 2.305192 1_656
Ce0 O1 2.332698 1_556
Ce0 O1 2.332698 1_545
Ce0 O7 2.428419 1_555
Ce0 O7 2.428419 1_656
Ce0 O6 2.473259 1_545
Ce0 O6 2.473259 1_556
Ce1 O8 2.332223 1_455
Ce1 O8 2.332223 1_556
Ce1 O7 2.332223 1_566
Ce1 O7 2.332223 1_555
Ce1 O2 2.427903 1_555
Ce1 O2 2.427903 1_566
Ce1 O1 2.427903 1_455
Ce1 O1 2.427903 1_556
Ce2 O3 2.305192 1_545
Ce2 O3 2.305192 1_556
Ce2 O2 2.332698 1_656
Ce2 O2 2.332698 1_555
Ce2 O8 2.428419 1_545
Ce2 O8 2.428419 1_556
Ce2 O4 2.473259 1_656
Ce2 O4 2.473259 1_555
Nd0 O4 2.252994 1_555
Nd0 O4 2.252994 1_566
Nd0 O3 2.412494 1_556
Nd0 O3 2.412494 1_455
Nd0 O5 2.521369 1_666
Nd0 O5 2.521369 1_565
Nd1 O6 2.252994 1_556
Nd1 O6 2.252994 1_455
Nd1 O0 2.412494 1_566
Nd1 O0 2.412494 1_555
Nd1 O5 2.521369 1_566
Nd1 O5 2.521369 1_555
