# generated using pymatgen
data_K2Cd3H10S4O21
_symmetry_space_group_name_H-M   'P 1'
_cell_length_a   10.08036700
_cell_length_b   10.21807300
_cell_length_c   20.72560739
_cell_angle_alpha   81.52544612
_cell_angle_beta   90.00000000
_cell_angle_gamma   90.00000000
_symmetry_Int_Tables_number   1
_chemical_formula_structural   K2Cd3H10S4O21
_chemical_formula_sum   'K8 Cd12 H40 S16 O84'
_cell_volume   2111.46871807
_cell_formula_units_Z   4
loop_
 _symmetry_equiv_pos_site_id
 _symmetry_equiv_pos_as_xyz
  1  'x, y, z'
loop_
 _atom_site_type_symbol
 _atom_site_label
 _atom_site_symmetry_multiplicity
 _atom_site_fract_x
 _atom_site_fract_y
 _atom_site_fract_z
 _atom_site_occupancy
  K  K0  1  0.50959100  0.22379200  0.74981400  1
  K  K1  1  0.00959100  0.27620800  0.25018600  1
  K  K2  1  0.49040900  0.77620800  0.25018600  1
  K  K3  1  0.99040900  0.72379200  0.74981400  1
  K  K4  1  0.73550500  0.63648300  0.61350500  1
  K  K5  1  0.23550500  0.86351700  0.38649500  1
  K  K6  1  0.26449500  0.36351700  0.38649500  1
  K  K7  1  0.76449500  0.13648300  0.61350500  1
  Cd  Cd0  1  0.87806800  0.08251900  0.82958400  1
  Cd  Cd1  1  0.37806800  0.41748100  0.17041600  1
  Cd  Cd2  1  0.12193200  0.91748100  0.17041600  1
  Cd  Cd3  1  0.62193200  0.58251900  0.82958400  1
  Cd  Cd4  1  0.17404100  0.29602600  0.82713300  1
  Cd  Cd5  1  0.67404100  0.20397400  0.17286700  1
  Cd  Cd6  1  0.82595900  0.70397400  0.17286700  1
  Cd  Cd7  1  0.32595900  0.79602600  0.82713300  1
  Cd  Cd8  1  0.30433100  0.62124100  0.56435300  1
  Cd  Cd9  1  0.80433100  0.87875900  0.43564700  1
  Cd  Cd10  1  0.69566900  0.37875900  0.43564700  1
  Cd  Cd11  1  0.19566900  0.12124100  0.56435300  1
  H  H0  1  0.99939600  0.21089900  0.92036200  1
  H  H1  1  0.49939600  0.28910100  0.07963800  1
  H  H2  1  0.00060400  0.78910100  0.07963800  1
  H  H3  1  0.50060400  0.71089900  0.92036200  1
  H  H4  1  0.07735100  0.02328200  0.94532200  1
  H  H5  1  0.57735100  0.47671800  0.05467800  1
  H  H6  1  0.92264900  0.97671800  0.05467800  1
  H  H7  1  0.42264900  0.52328200  0.94532200  1
  H  H8  1  0.17788000  0.32978900  0.63936400  1
  H  H9  1  0.67788000  0.17021100  0.36063600  1
  H  H10  1  0.82212000  0.67021100  0.36063600  1
  H  H11  1  0.32212000  0.82978900  0.63936400  1
  H  H12  1  0.81012000  0.72288200  0.89366400  1
  H  H13  1  0.31012000  0.77711800  0.10633600  1
  H  H14  1  0.18988000  0.27711800  0.10633600  1
  H  H15  1  0.68988000  0.22288200  0.89366400  1
  H  H16  1  0.72096800  0.91637200  0.07421600  1
  H  H17  1  0.22096800  0.58362800  0.92578400  1
  H  H18  1  0.27903200  0.08362800  0.92578400  1
  H  H19  1  0.77903200  0.41637200  0.07421600  1
  H  H20  1  0.65925900  0.08040200  0.93114600  1
  H  H21  1  0.15925900  0.41959800  0.06885400  1
  H  H22  1  0.34074100  0.91959800  0.06885400  1
  H  H23  1  0.84074100  0.58040200  0.93114600  1
  H  H24  1  0.89891300  0.39485600  0.94592400  1
  H  H25  1  0.39891300  0.10514400  0.05407600  1
  H  H26  1  0.10108700  0.60514400  0.05407600  1
  H  H27  1  0.60108700  0.89485600  0.94592400  1
  H  H28  1  0.16029800  0.54084600  0.92548400  1
  H  H29  1  0.66029800  0.95915400  0.07451600  1
  H  H30  1  0.83970200  0.45915400  0.07451600  1
  H  H31  1  0.33970200  0.04084600  0.92548400  1
  H  H32  1  0.02680900  0.66340200  0.33989800  1
  H  H33  1  0.52680900  0.83659800  0.66010200  1
  H  H34  1  0.97319100  0.33659800  0.66010200  1
  H  H35  1  0.47319100  0.16340200  0.33989800  1
  H  H36  1  0.15802300  0.50517500  0.50180500  1
  H  H37  1  0.65802300  0.99482500  0.49819500  1
  H  H38  1  0.84197700  0.49482500  0.49819500  1
  H  H39  1  0.34197700  0.00517500  0.50180500  1
  S  S0  1  0.32837700  0.54690200  0.73308500  1
  S  S1  1  0.82837700  0.95309800  0.26691500  1
  S  S2  1  0.67162300  0.45309800  0.26691500  1
  S  S3  1  0.17162300  0.04690200  0.73308500  1
  S  S4  1  0.66675500  0.89535200  0.74661000  1
  S  S5  1  0.16675500  0.60464800  0.25339000  1
  S  S6  1  0.33324500  0.10464800  0.25339000  1
  S  S7  1  0.83324500  0.39535200  0.74661000  1
  S  S8  1  0.47228500  0.32971200  0.92700200  1
  S  S9  1  0.97228500  0.17028800  0.07299800  1
  S  S10  1  0.52771500  0.67028800  0.07299800  1
  S  S11  1  0.02771500  0.82971200  0.92700200  1
  S  S12  1  0.45896100  0.30376500  0.56480200  1
  S  S13  1  0.95896100  0.19623500  0.43519800  1
  S  S14  1  0.54103900  0.69623500  0.43519800  1
  S  S15  1  0.04103900  0.80376500  0.56480200  1
  O  O0  1  0.28794000  0.40673600  0.73549500  1
  O  O1  1  0.78794000  0.09326400  0.26450500  1
  O  O2  1  0.71206000  0.59326400  0.26450500  1
  O  O3  1  0.21206000  0.90673600  0.73549500  1
  O  O4  1  0.25961100  0.60471200  0.78742700  1
  O  O5  1  0.75961100  0.89528800  0.21257300  1
  O  O6  1  0.74038900  0.39528800  0.21257300  1
  O  O7  1  0.24038900  0.10471200  0.78742700  1
  O  O8  1  0.47417700  0.55797400  0.74102100  1
  O  O9  1  0.97417700  0.94202600  0.25897900  1
  O  O10  1  0.52582300  0.44202600  0.25897900  1
  O  O11  1  0.02582300  0.05797400  0.74102100  1
  O  O12  1  0.28268100  0.62620600  0.67119300  1
  O  O13  1  0.78268100  0.87379400  0.32880700  1
  O  O14  1  0.71731900  0.37379400  0.32880700  1
  O  O15  1  0.21731900  0.12620600  0.67119300  1
  O  O16  1  0.71801700  0.03036700  0.75281000  1
  O  O17  1  0.21801700  0.46963300  0.24719000  1
  O  O18  1  0.28198300  0.96963300  0.24719000  1
  O  O19  1  0.78198300  0.53036700  0.75281000  1
  O  O20  1  0.51948700  0.90348300  0.73393900  1
  O  O21  1  0.01948700  0.59651700  0.26606100  1
  O  O22  1  0.48051300  0.09651700  0.26606100  1
  O  O23  1  0.98051300  0.40348300  0.73393900  1
  O  O24  1  0.73089300  0.84738600  0.69021000  1
  O  O25  1  0.23089300  0.65261400  0.30979000  1
  O  O26  1  0.26910700  0.15261400  0.30979000  1
  O  O27  1  0.76910700  0.34738600  0.69021000  1
  O  O28  1  0.69220300  0.80446100  0.80773800  1
  O  O29  1  0.19220300  0.69553900  0.19226200  1
  O  O30  1  0.30779700  0.19553900  0.19226200  1
  O  O31  1  0.80779700  0.30446100  0.80773800  1
  O  O32  1  0.49127600  0.20776800  0.97116400  1
  O  O33  1  0.99127600  0.29223200  0.02883600  1
  O  O34  1  0.50872400  0.79223200  0.02883600  1
  O  O35  1  0.00872400  0.70776800  0.97116400  1
  O  O36  1  0.40867100  0.42902500  0.96935600  1
  O  O37  1  0.90867100  0.07097500  0.03064400  1
  O  O38  1  0.59132900  0.57097500  0.03064400  1
  O  O39  1  0.09132900  0.92902500  0.96935600  1
  O  O40  1  0.38363300  0.32134800  0.87077000  1
  O  O41  1  0.88363300  0.17865200  0.12923000  1
  O  O42  1  0.61636700  0.67865200  0.12923000  1
  O  O43  1  0.11636700  0.82134800  0.87077000  1
  O  O44  1  0.60185100  0.38804200  0.90180300  1
  O  O45  1  0.10185100  0.11195800  0.09819700  1
  O  O46  1  0.39814900  0.61195800  0.09819700  1
  O  O47  1  0.89814900  0.88804200  0.90180300  1
  O  O48  1  0.40186300  0.41944800  0.59215500  1
  O  O49  1  0.90186300  0.08055200  0.40784500  1
  O  O50  1  0.59813700  0.58055200  0.40784500  1
  O  O51  1  0.09813700  0.91944800  0.59215500  1
  O  O52  1  0.36011400  0.25918200  0.51691500  1
  O  O53  1  0.86011400  0.24081800  0.48308500  1
  O  O54  1  0.63988600  0.74081800  0.48308500  1
  O  O55  1  0.13988600  0.75918200  0.51691500  1
  O  O56  1  0.58616800  0.34522400  0.52957100  1
  O  O57  1  0.08616800  0.15477600  0.47042900  1
  O  O58  1  0.41383200  0.65477600  0.47042900  1
  O  O59  1  0.91383200  0.84522400  0.52957100  1
  O  O60  1  0.48744300  0.19484100  0.61773100  1
  O  O61  1  0.98744300  0.30515900  0.38226900  1
  O  O62  1  0.51255700  0.80515900  0.38226900  1
  O  O63  1  0.01255700  0.69484100  0.61773100  1
  O  O64  1  0.04575400  0.15648100  0.89233600  1
  O  O65  1  0.54575400  0.34351900  0.10766400  1
  O  O66  1  0.95424600  0.84351900  0.10766400  1
  O  O67  1  0.45424600  0.65648100  0.89233600  1
  O  O68  1  0.49410000  0.20834700  0.37816500  1
  O  O69  1  0.99410000  0.29165300  0.62183500  1
  O  O70  1  0.50590000  0.79165300  0.62183500  1
  O  O71  1  0.00590000  0.70834700  0.37816500  1
  O  O72  1  0.69587800  0.12747300  0.89049400  1
  O  O73  1  0.19587800  0.37252700  0.10950600  1
  O  O74  1  0.30412200  0.87252700  0.10950600  1
  O  O75  1  0.80412200  0.62747300  0.89049400  1
  O  O76  1  0.07455100  0.49158500  0.82962200  1
  O  O77  1  0.57455100  0.00841500  0.17037800  1
  O  O78  1  0.92544900  0.50841500  0.17037800  1
  O  O79  1  0.42544900  0.99158500  0.82962200  1
  O  O80  1  0.12145400  0.35155100  0.60004800  1
  O  O81  1  0.62145400  0.14844900  0.39995200  1
  O  O82  1  0.87854600  0.64844900  0.39995200  1
  O  O83  1  0.37854600  0.85155100  0.60004800  1
loop_
_geom_bond_atom_site_label_1
_geom_bond_atom_site_label_2
_geom_bond_distance
_geom_bond_site_symmetry_2
K0 O60 2.805343 1_555
K0 O79 2.815734 1_545
K0 O16 2.878925 1_555
K0 O0 2.900203 1_555
K0 O7 3.028626 1_555
K0 O27 3.082962 1_555
K0 O40 3.102716 1_555
K1 O61 2.805343 1_455
K1 O78 2.815734 1_455
K1 O17 2.878925 1_555
K1 O1 2.900203 1_455
K1 O6 3.028626 1_455
K1 O26 3.082962 1_555
K1 O41 3.102716 1_455
K2 O62 2.805343 1_555
K2 O77 2.815734 1_565
K2 O18 2.878925 1_555
K2 O2 2.900203 1_555
K2 O5 3.028626 1_555
K2 O25 3.082962 1_555
K2 O42 3.102716 1_555
K3 O63 2.805343 1_655
K3 O76 2.815734 1_655
K3 O19 2.878925 1_555
K3 O3 2.900203 1_655
K3 O4 3.028626 1_655
K3 O24 3.082962 1_555
K3 O43 3.102716 1_655
K4 O70 2.825127 1_555
K4 O63 2.859773 1_655
K4 O24 2.860661 1_555
K4 O54 2.919360 1_555
K4 O19 2.967882 1_555
K4 O59 3.116618 1_555
K4 O27 3.159764 1_555
K5 O71 2.825127 1_555
K5 O62 2.859773 1_555
K5 O25 2.860661 1_555
K5 O55 2.919360 1_555
K5 O18 2.967882 1_555
K5 O58 3.116618 1_555
K5 O26 3.159764 1_565
K6 O68 2.825127 1_555
K6 O61 2.859773 1_455
K6 O26 2.860661 1_555
K6 O52 2.919360 1_555
K6 O17 2.967882 1_555
K6 O57 3.116618 1_555
K6 O25 3.159764 1_555
K7 O69 2.825127 1_555
K7 O60 2.859773 1_555
K7 O27 2.860661 1_555
K7 O53 2.919360 1_555
K7 O16 2.967882 1_555
K7 O56 3.116618 1_555
K7 O24 3.159764 1_545
Cd0 O72 2.312670 1_555
Cd0 O47 2.313774 1_545
Cd0 O64 2.325852 1_655
Cd0 O31 2.355236 1_555
Cd0 O16 2.380913 1_555
Cd0 O11 2.405434 1_655
Cd1 O73 2.312670 1_555
Cd1 O46 2.313774 1_555
Cd1 O65 2.325852 1_555
Cd1 O30 2.355236 1_555
Cd1 O17 2.380913 1_555
Cd1 O10 2.405434 1_555
Cd2 O74 2.312670 1_555
Cd2 O45 2.313774 1_565
Cd2 O66 2.325852 1_455
Cd2 O29 2.355236 1_555
Cd2 O18 2.380913 1_555
Cd2 O9 2.405434 1_455
Cd3 O75 2.312670 1_555
Cd3 O44 2.313774 1_555
Cd3 O67 2.325852 1_555
Cd3 O28 2.355236 1_555
Cd3 O19 2.380913 1_555
Cd3 O8 2.405434 1_555
Cd4 O64 2.227941 1_555
Cd4 O76 2.243165 1_555
Cd4 O40 2.327582 1_555
Cd4 O7 2.328123 1_555
Cd4 O0 2.360477 1_555
Cd5 O65 2.227941 1_555
Cd5 O77 2.243165 1_555
Cd5 O41 2.327582 1_555
Cd5 O6 2.328123 1_555
Cd5 O1 2.360477 1_555
Cd6 O66 2.227941 1_555
Cd6 O78 2.243165 1_555
Cd6 O42 2.327582 1_555
Cd6 O5 2.328123 1_555
Cd6 O2 2.360477 1_555
Cd7 O67 2.227941 1_555
Cd7 O79 2.243165 1_555
Cd7 O43 2.327582 1_555
Cd7 O4 2.328123 1_555
Cd7 O3 2.360477 1_555
Cd8 O58 2.220042 1_555
Cd8 O12 2.233057 1_555
Cd8 O48 2.280354 1_555
Cd8 O55 2.300591 1_555
Cd8 H36 2.390675 1_555
Cd8 O83 2.675492 1_555
Cd9 O59 2.220042 1_555
Cd9 O13 2.233057 1_555
Cd9 O49 2.280354 1_565
Cd9 O54 2.300591 1_555
Cd9 H37 2.390675 1_555
Cd9 O82 2.675492 1_555
Cd10 O56 2.220042 1_555
Cd10 O14 2.233057 1_555
Cd10 O50 2.280354 1_555
Cd10 O53 2.300591 1_555
Cd10 H38 2.390675 1_555
Cd10 O81 2.675492 1_555
Cd11 O57 2.220042 1_555
Cd11 O15 2.233057 1_555
Cd11 O51 2.280354 1_545
Cd11 O52 2.300591 1_555
Cd11 H39 2.390675 1_555
Cd11 O80 2.675492 1_555
H0 O64 0.979874 1_655
H1 O65 0.979874 1_555
H2 O66 0.979874 1_455
H3 O67 0.979874 1_555
H4 O39 1.026735 1_545
H5 O38 1.026735 1_555
H6 O37 1.026735 1_565
H7 O36 1.026735 1_555
H8 O80 0.991739 1_555
H9 O81 0.991739 1_555
H10 O82 0.991739 1_555
H11 O83 0.991739 1_555
H12 O75 0.988571 1_555
H13 O74 0.988571 1_555
H14 O73 0.988571 1_555
H15 O72 0.988571 1_555
H16 H29 0.752306 1_555
H17 H28 0.752306 1_555
H18 H31 0.752306 1_555
H19 H30 0.752306 1_555
H20 O72 0.978787 1_555
H21 O73 0.978787 1_555
H22 O74 0.978787 1_555
H23 O75 0.978787 1_555
H32 O71 0.995846 1_555
H33 O70 0.995846 1_555
H34 O69 0.995846 1_555
H35 O68 0.995846 1_555
O0 S0 1.482847 1_555
O1 S1 1.482847 1_545
O2 S2 1.482847 1_555
O3 S3 1.482847 1_565
O4 S0 1.514602 1_555
O5 S1 1.514602 1_555
O6 S2 1.514602 1_555
O7 S3 1.514602 1_555
O8 S0 1.485061 1_555
O9 S1 1.485061 1_555
O10 S2 1.485061 1_555
O11 S3 1.485061 1_555
O12 S0 1.485900 1_555
O13 S1 1.485900 1_555
O14 S2 1.485900 1_555
O15 S3 1.485900 1_555
O16 S4 1.496349 1_545
O17 S5 1.496349 1_555
O18 S6 1.496349 1_565
O19 S7 1.496349 1_555
O20 S4 1.507722 1_555
O21 S5 1.507722 1_555
O22 S6 1.507722 1_555
O23 S7 1.507722 1_555
O24 S4 1.481037 1_555
O25 S5 1.481037 1_555
O26 S6 1.481037 1_555
O27 S7 1.481037 1_555
O28 S4 1.478723 1_555
O29 S5 1.478723 1_555
O30 S6 1.478723 1_555
O31 S7 1.478723 1_555
O32 S8 1.445976 1_555
O33 S9 1.445976 1_555
O34 S10 1.445976 1_555
O35 S11 1.445976 1_555
O36 S8 1.572929 1_555
O37 S9 1.572929 1_555
O38 S10 1.572929 1_555
O39 S11 1.572929 1_555
O40 S8 1.481053 1_555
O41 S9 1.481053 1_555
O42 S10 1.481053 1_555
O43 S11 1.481053 1_555
O44 S8 1.497358 1_555
O45 S9 1.497358 1_455
O46 S10 1.497358 1_555
O47 S11 1.497358 1_655
O48 S12 1.499144 1_555
O49 S13 1.499144 1_555
O50 S14 1.499144 1_555
O51 S15 1.499144 1_555
O52 S12 1.522715 1_555
O53 S13 1.522715 1_555
O54 S14 1.522715 1_555
O55 S15 1.522715 1_555
O56 S12 1.505236 1_555
O57 S13 1.505236 1_455
O58 S14 1.505236 1_555
O59 S15 1.505236 1_655
O60 S12 1.471293 1_555
O61 S13 1.471293 1_555
O62 S14 1.471293 1_555
O63 S15 1.471293 1_555
