# generated using pymatgen
data_Mn2SnC10(BrO5)2
_symmetry_space_group_name_H-M   'P 1'
_cell_length_a   7.76168000
_cell_length_b   15.46234900
_cell_length_c   17.11457422
_cell_angle_alpha   69.52850887
_cell_angle_beta   90.00000000
_cell_angle_gamma   90.00000000
_symmetry_Int_Tables_number   1
_chemical_formula_structural   Mn2SnC10(BrO5)2
_chemical_formula_sum   'Mn8 Sn4 C40 Br8 O40'
_cell_volume   1924.26846537
_cell_formula_units_Z   4
loop_
 _symmetry_equiv_pos_site_id
 _symmetry_equiv_pos_as_xyz
  1  'x, y, z'
loop_
 _atom_site_type_symbol
 _atom_site_label
 _atom_site_symmetry_multiplicity
 _atom_site_fract_x
 _atom_site_fract_y
 _atom_site_fract_z
 _atom_site_occupancy
  Mn  Mn0  1  0.85260100  0.82257700  0.36108100  1
  Mn  Mn1  1  0.35450700  0.63782900  0.11232000  1
  Mn  Mn2  1  0.64739900  0.82257700  0.86108100  1
  Mn  Mn3  1  0.85450700  0.36217100  0.38768000  1
  Mn  Mn4  1  0.35260100  0.17742300  0.13891900  1
  Mn  Mn5  1  0.14549300  0.63782900  0.61232000  1
  Mn  Mn6  1  0.14739900  0.17742300  0.63891900  1
  Mn  Mn7  1  0.64549300  0.36217100  0.88768000  1
  Sn  Sn0  1  0.63976800  0.24073700  0.04765000  1
  Sn  Sn1  1  0.36023200  0.75926300  0.95235000  1
  Sn  Sn2  1  0.13976800  0.75926300  0.45235000  1
  Sn  Sn3  1  0.86023200  0.24073700  0.54765000  1
  C  C0  1  0.68524700  0.42781200  0.42164400  1
  C  C1  1  0.48652900  0.87786200  0.77653000  1
  C  C2  1  0.14232000  0.55089500  0.71729800  1
  C  C3  1  0.63397900  0.92267700  0.89908400  1
  C  C4  1  0.35768000  0.55089500  0.21729800  1
  C  C5  1  0.33131400  0.12925600  0.70828500  1
  C  C6  1  0.01933400  0.28654000  0.36443500  1
  C  C7  1  0.47615900  0.42152000  0.92724000  1
  C  C8  1  0.68111400  0.29056600  0.36411000  1
  C  C9  1  0.81475300  0.42781200  0.92164400  1
  C  C10  1  0.85758900  0.71459300  0.33636200  1
  C  C11  1  0.36602100  0.07732300  0.10091600  1
  C  C12  1  0.86602100  0.92267700  0.39908400  1
  C  C13  1  0.48066600  0.28654000  0.86443500  1
  C  C14  1  0.64232000  0.44910500  0.78270200  1
  C  C15  1  0.51933400  0.71346000  0.13556500  1
  C  C16  1  0.31888600  0.70943400  0.63589000  1
  C  C17  1  0.51347100  0.12213800  0.22347000  1
  C  C18  1  0.72038600  0.75981400  0.45468900  1
  C  C19  1  0.18111400  0.70943400  0.13589000  1
  C  C20  1  0.27961400  0.24018600  0.54531100  1
  C  C21  1  0.81888600  0.29056600  0.86411000  1
  C  C22  1  0.02384100  0.42152000  0.42724000  1
  C  C23  1  0.83131400  0.87074400  0.79171500  1
  C  C24  1  0.77961400  0.75981400  0.95468900  1
  C  C25  1  0.64241100  0.71459300  0.83636200  1
  C  C26  1  0.16868600  0.12925600  0.20828500  1
  C  C27  1  0.98652900  0.12213800  0.72347000  1
  C  C28  1  0.97615900  0.57848000  0.57276000  1
  C  C29  1  0.14241100  0.28540700  0.66363800  1
  C  C30  1  0.31475300  0.57218800  0.57835600  1
  C  C31  1  0.66868600  0.87074400  0.29171500  1
  C  C32  1  0.35758900  0.28540700  0.16363800  1
  C  C33  1  0.85768000  0.44910500  0.28270200  1
  C  C34  1  0.18524700  0.57218800  0.07835600  1
  C  C35  1  0.98066600  0.71346000  0.63556500  1
  C  C36  1  0.52384100  0.57848000  0.07276000  1
  C  C37  1  0.01347100  0.87786200  0.27653000  1
  C  C38  1  0.13397900  0.07732300  0.60091600  1
  C  C39  1  0.22038600  0.24018600  0.04531100  1
  Br  Br0  1  0.82491400  0.09829000  0.06030000  1
  Br  Br1  1  0.32491400  0.90171000  0.43970000  1
  Br  Br2  1  0.17605300  0.69063400  0.86163700  1
  Br  Br3  1  0.82394700  0.30936600  0.13836300  1
  Br  Br4  1  0.32394700  0.69063400  0.36163700  1
  Br  Br5  1  0.17508600  0.90171000  0.93970000  1
  Br  Br6  1  0.67605300  0.30936600  0.63836300  1
  Br  Br7  1  0.67508600  0.09829000  0.56030000  1
  O  O0  1  0.12974500  0.01690900  0.57635600  1
  O  O1  1  0.61098300  0.08824100  0.27619900  1
  O  O2  1  0.35753800  0.28098800  0.48634700  1
  O  O3  1  0.14053600  0.49345600  0.78249100  1
  O  O4  1  0.12140600  0.24033000  0.34930000  1
  O  O5  1  0.35617700  0.35313700  0.17795900  1
  O  O6  1  0.55697000  0.90170700  0.24595300  1
  O  O7  1  0.14246200  0.28098800  0.98634700  1
  O  O8  1  0.94303000  0.90170700  0.74595300  1
  O  O9  1  0.85753800  0.71901200  0.01365300  1
  O  O10  1  0.91843300  0.47174000  0.93820600  1
  O  O11  1  0.92556000  0.24826600  0.84731700  1
  O  O12  1  0.87025500  0.98309100  0.42364400  1
  O  O13  1  0.62974500  0.98309100  0.92364400  1
  O  O14  1  0.41843300  0.52826000  0.56179400  1
  O  O15  1  0.64053600  0.50654400  0.71750900  1
  O  O16  1  0.14382300  0.35313700  0.67795900  1
  O  O17  1  0.62140600  0.75967000  0.15070000  1
  O  O18  1  0.57444000  0.24826600  0.34731700  1
  O  O19  1  0.85946400  0.50654400  0.21750900  1
  O  O20  1  0.87193300  0.54142500  0.54779000  1
  O  O21  1  0.62806700  0.54142500  0.04779000  1
  O  O22  1  0.88901700  0.08824100  0.77619900  1
  O  O23  1  0.64246200  0.71901200  0.51365300  1
  O  O24  1  0.85617700  0.64686300  0.32204100  1
  O  O25  1  0.35946400  0.49345600  0.28249100  1
  O  O26  1  0.37859400  0.24033000  0.84930000  1
  O  O27  1  0.87859400  0.75967000  0.65070000  1
  O  O28  1  0.42556000  0.75173400  0.65268300  1
  O  O29  1  0.44303000  0.09829300  0.75404700  1
  O  O30  1  0.58156700  0.47174000  0.43820600  1
  O  O31  1  0.05697000  0.09829300  0.25404700  1
  O  O32  1  0.07444000  0.75173400  0.15268300  1
  O  O33  1  0.11098300  0.91175900  0.22380100  1
  O  O34  1  0.38901700  0.91175900  0.72380100  1
  O  O35  1  0.37025500  0.01690900  0.07635600  1
  O  O36  1  0.12806700  0.45857500  0.45221000  1
  O  O37  1  0.37193300  0.45857500  0.95221000  1
  O  O38  1  0.64382300  0.64686300  0.82204100  1
  O  O39  1  0.08156700  0.52826000  0.06179400  1
loop_
_geom_bond_atom_site_label_1
_geom_bond_atom_site_label_2
_geom_bond_distance
_geom_bond_site_symmetry_2
Mn0 Sn2 2.701238 1_655
Mn1 Sn1 2.725325 1_554
Mn2 Sn1 2.701238 1_555
Mn3 Sn3 2.725325 1_555
Mn4 Sn0 2.701238 1_555
Mn5 Sn2 2.725325 1_555
Mn6 Sn3 2.701238 1_455
Mn7 Sn0 2.725325 1_556
C0 O30 1.150635 1_555
C0 Mn3 1.872601 1_555
C1 O34 1.153725 1_555
C1 Mn2 1.875769 1_555
C2 O3 1.157903 1_555
C2 Mn5 1.829250 1_555
C3 O13 1.151102 1_555
C3 Mn2 1.879804 1_555
C4 O25 1.157903 1_555
C4 Mn1 1.829250 1_555
C5 O29 1.154209 1_555
C5 Mn6 1.839381 1_555
C6 O4 1.155313 1_555
C6 Mn3 1.867608 1_455
C7 O37 1.156119 1_555
C7 Mn7 1.860794 1_555
C8 O18 1.152135 1_555
C8 Mn3 1.874091 1_555
C9 O10 1.150635 1_555
C9 Mn7 1.872601 1_555
C10 O24 1.156072 1_555
C10 Mn0 1.860758 1_555
C11 O35 1.151102 1_555
C11 Mn4 1.879804 1_555
C12 O12 1.151102 1_555
C12 Mn0 1.879804 1_555
C13 O26 1.155313 1_555
C13 Mn7 1.867608 1_555
C14 O15 1.157903 1_555
C14 Mn7 1.829250 1_555
C15 O17 1.155313 1_555
C15 Mn1 1.867608 1_555
C16 O28 1.152135 1_555
C16 Mn5 1.874091 1_555
C17 O1 1.153725 1_555
C17 Mn4 1.875769 1_555
C18 O23 1.156232 1_555
C18 Mn0 1.863865 1_555
C19 O32 1.152135 1_555
C19 Mn1 1.874091 1_555
C20 O2 1.156232 1_555
C20 Mn6 1.863865 1_555
C21 O11 1.152135 1_555
C21 Mn7 1.874091 1_555
C22 O36 1.156119 1_555
C22 Mn3 1.860794 1_455
C23 O8 1.154209 1_555
C23 Mn2 1.839381 1_555
C24 O9 1.156232 1_556
C24 Mn2 1.863865 1_555
C25 O38 1.156072 1_555
C25 Mn2 1.860758 1_555
C26 O31 1.154209 1_555
C26 Mn4 1.839381 1_555
C27 O22 1.153725 1_555
C27 Mn6 1.875769 1_655
C28 O20 1.156119 1_555
C28 Mn5 1.860794 1_655
C29 O16 1.156072 1_555
C29 Mn6 1.860758 1_555
C30 O14 1.150635 1_555
C30 Mn5 1.872601 1_555
C31 O6 1.154209 1_555
C31 Mn0 1.839381 1_555
C32 O5 1.156072 1_555
C32 Mn4 1.860758 1_555
C33 O19 1.157903 1_555
C33 Mn3 1.829250 1_555
C34 O39 1.150635 1_555
C34 Mn1 1.872601 1_555
C35 O27 1.155313 1_555
C35 Mn5 1.867608 1_655
C36 O21 1.156119 1_555
C36 Mn1 1.860794 1_555
C37 O33 1.153725 1_555
C37 Mn0 1.875769 1_455
C38 O0 1.151102 1_555
C38 Mn6 1.879804 1_555
C39 O7 1.156232 1_554
C39 Mn4 1.863865 1_555
Br0 Sn0 2.574822 1_555
Br1 Sn2 2.574822 1_555
Br2 Sn1 2.594674 1_555
Br3 Sn0 2.594674 1_555
Br4 Sn2 2.594674 1_555
Br5 Sn1 2.574822 1_555
Br6 Sn3 2.594674 1_555
Br7 Sn3 2.574822 1_555
