# generated using pymatgen
data_Rb2Pd3Se4
_symmetry_space_group_name_H-M   'P 1'
_cell_length_a   15.18047755
_cell_length_b   14.44674554
_cell_length_c   6.53828501
_cell_angle_alpha   83.61443524
_cell_angle_beta   71.04287118
_cell_angle_gamma   25.34269358
_symmetry_Int_Tables_number   1
_chemical_formula_structural   Rb2Pd3Se4
_chemical_formula_sum   'Rb4 Pd6 Se8'
_cell_volume   518.21970532
_cell_formula_units_Z   2
loop_
 _symmetry_equiv_pos_site_id
 _symmetry_equiv_pos_as_xyz
  1  'x, y, z'
loop_
 _atom_site_type_symbol
 _atom_site_label
 _atom_site_symmetry_multiplicity
 _atom_site_fract_x
 _atom_site_fract_y
 _atom_site_fract_z
 _atom_site_occupancy
  Rb  Rb0  1  0.30172300  0.30249200  0.45223700  1
  Rb  Rb1  1  0.55610700  0.54791200  0.69272500  1
  Rb  Rb2  1  0.70152500  0.69460000  0.54601500  1
  Rb  Rb3  1  0.45347000  0.44652900  0.29171800  1
  Pd  Pd0  1  0.12105800  0.12538600  0.62250500  1
  Pd  Pd1  1  0.37970100  0.37146600  0.86781400  1
  Pd  Pd2  1  0.88417700  0.86826600  0.37177900  1
  Pd  Pd3  1  0.87485400  0.87232400  0.88028000  1
  Pd  Pd4  1  0.13103100  0.11792400  0.12683400  1
  Pd  Pd5  1  0.61856100  0.63208600  0.13293700  1
  Se  Se0  1  0.98654100  0.64985400  0.09908000  1
  Se  Se1  1  0.34652900  0.02161800  0.22927700  1
  Se  Se2  1  0.89846300  0.23496100  0.02779800  1
  Se  Se3  1  0.23317000  0.89726300  0.34913500  1
  Se  Se4  1  0.75425700  0.11084400  0.65969300  1
  Se  Se5  1  0.10322900  0.76149400  0.98621900  1
  Se  Se6  1  0.65472600  0.98198900  0.75821900  1
  Se  Se7  1  0.01470200  0.35346200  0.89877000  1
loop_
_geom_bond_atom_site_label_1
_geom_bond_atom_site_label_2
_geom_bond_distance
_geom_bond_site_symmetry_2
Rb0 Se0 3.759787 1_456
Rb0 Se6 3.763178 1_455
Rb0 Se6 3.770120 1_545
Rb0 Se0 3.792033 1_545
Rb0 Se7 3.803220 1_555
Rb0 Se0 3.822064 1_455
Rb0 Se1 3.838702 1_555
Rb0 Se6 3.843397 1_544
Rb1 Se2 3.684035 1_555
Rb1 Se3 3.756142 1_645
Rb1 Se3 3.788230 1_556
Rb1 Se3 3.803053 1_555
Rb1 Se2 3.808112 1_466
Rb1 Se4 3.809791 1_555
Rb1 Se5 3.856154 1_555
Rb1 Se2 3.869564 1_556
Rb2 Se1 3.730975 1_655
Rb2 Se7 3.743810 1_654
Rb2 Se1 3.788424 1_566
Rb2 Se7 3.802024 1_655
Rb2 Se7 3.808448 1_565
Rb2 Se1 3.834778 1_565
Rb2 Se0 3.850615 1_555
Rb2 Se6 3.870002 1_555
Rb3 Se4 3.690124 1_554
Rb3 Se3 3.754021 1_555
Rb3 Se5 3.756629 1_554
Rb3 Se2 3.772516 1_555
Rb3 Se5 3.791495 1_644
Rb3 Se4 3.830554 1_555
Rb3 Se5 3.843593 1_555
Rb3 Se4 3.869611 1_465
Pd0 Se3 2.479526 1_545
Pd0 Se2 2.528411 1_456
Pd0 Se1 2.537322 1_555
Pd0 Se7 2.557249 1_555
Pd0 Rb1 3.803047 1_455
Pd0 Rb2 3.863199 1_455
Pd0 Rb1 3.867217 1_545
Pd0 Rb2 3.915821 1_545
Pd1 Se4 2.402973 1_555
Pd1 Se5 2.465181 1_555
Pd1 Se6 2.468873 1_545
Pd1 Se0 2.486904 1_456
Pd1 Rb0 3.821152 1_555
Pd1 Rb3 3.871948 1_556
Pd1 Rb3 3.894066 1_555
Pd1 Rb0 3.916813 1_556
Pd2 Se5 2.437020 1_654
Pd2 Se6 2.465208 1_555
Pd2 Se0 2.477608 1_555
Pd2 Se4 2.505368 1_565
Pd2 Rb3 3.831212 1_655
Pd2 Rb0 3.850441 1_655
Pd2 Rb0 3.906806 1_565
Pd2 Rb3 3.915968 1_565
Pd3 Se0 2.440161 1_556
Pd3 Se6 2.489104 1_555
Pd3 Se5 2.518441 1_655
Pd3 Se4 2.552048 1_565
Pd3 Rb0 3.809431 1_655
Pd3 Rb0 3.821134 1_566
Pd3 Rb3 3.852007 1_566
Pd3 Rb3 3.929536 1_655
Pd4 Se1 2.464879 1_555
Pd4 Se3 2.485620 1_545
Pd4 Se2 2.488869 1_455
Pd4 Se7 2.577118 1_554
Pd4 Rb1 3.819048 1_455
Pd4 Rb2 3.835990 1_455
Pd4 Rb1 3.841653 1_544
Pd4 Rb2 3.858615 1_544
Pd5 Se1 2.492338 1_565
Pd5 Se3 2.494325 1_555
Pd5 Se7 2.519048 1_654
Pd5 Se2 2.521612 1_555
Pd5 Rb2 3.808512 1_555
Pd5 Rb1 3.822688 1_555
Pd5 Rb2 3.908047 1_554
Pd5 Rb1 3.911168 1_554
