# generated using pymatgen
data_La3Si2Rh3
_symmetry_space_group_name_H-M   'P 1'
_cell_length_a   5.92116085
_cell_length_b   7.84559837
_cell_length_c   14.97294644
_cell_angle_alpha   89.99913220
_cell_angle_beta   89.99982716
_cell_angle_gamma   89.99988677
_symmetry_Int_Tables_number   1
_chemical_formula_structural   La3Si2Rh3
_chemical_formula_sum   'La12 Si8 Rh12'
_cell_volume   695.56897418
_cell_formula_units_Z   4
loop_
 _symmetry_equiv_pos_site_id
 _symmetry_equiv_pos_as_xyz
  1  'x, y, z'
loop_
 _atom_site_type_symbol
 _atom_site_label
 _atom_site_symmetry_multiplicity
 _atom_site_fract_x
 _atom_site_fract_y
 _atom_site_fract_z
 _atom_site_occupancy
  La  La0  1  0.14990464  0.47527844  0.89235977  1
  La  La1  1  0.35007959  0.97526937  0.89236721  1
  La  La2  1  0.62163790  0.34203522  0.75000658  1
  La  La3  1  0.37835926  0.65795108  0.24999165  1
  La  La4  1  0.64993860  0.02475104  0.39246176  1
  La  La5  1  0.85007316  0.52474012  0.10752675  1
  La  La6  1  0.85007363  0.52474688  0.39245464  1
  La  La7  1  0.35008017  0.97527092  0.60764895  1
  La  La8  1  0.87836342  0.84203612  0.75000873  1
  La  La9  1  0.14992248  0.47526824  0.60764903  1
  La  La10  1  0.64992055  0.02473603  0.10754000  1
  La  La11  1  0.12163371  0.15796546  0.24999181  1
  Si  Si0  1  0.36038832  0.36672127  0.09342043  1
  Si  Si1  1  0.63961334  0.63329527  0.90650494  1
  Si  Si2  1  0.86038311  0.13328841  0.90650654  1
  Si  Si3  1  0.36040567  0.36672740  0.40657364  1
  Si  Si4  1  0.86040687  0.13329305  0.59349840  1
  Si  Si5  1  0.63958991  0.63329274  0.59349716  1
  Si  Si6  1  0.13959889  0.86672645  0.40657315  1
  Si  Si7  1  0.13961037  0.86672789  0.09342144  1
  Rh  Rh0  1  0.60429250  0.34529501  0.96201550  1
  Rh  Rh1  1  0.39562098  0.65468698  0.03782141  1
  Rh  Rh2  1  0.54391072  0.31890669  0.24999799  1
  Rh  Rh3  1  0.39561479  0.65466794  0.46217843  1
  Rh  Rh4  1  0.04391375  0.18108113  0.75000238  1
  Rh  Rh5  1  0.10438646  0.15467357  0.46217709  1
  Rh  Rh6  1  0.45608204  0.68107445  0.75000396  1
  Rh  Rh7  1  0.95609941  0.81889649  0.25000071  1
  Rh  Rh8  1  0.10437545  0.15467830  0.03782271  1
  Rh  Rh9  1  0.60428725  0.34531161  0.53798226  1
  Rh  Rh10  1  0.89571184  0.84530561  0.53798162  1
  Rh  Rh11  1  0.89572123  0.84530081  0.96201337  1
loop_
_geom_bond_atom_site_label_1
_geom_bond_atom_site_label_2
_geom_bond_distance
_geom_bond_site_symmetry_2
La0 Rh1 2.973519 1_556
La0 Rh0 3.060477 1_555
La0 Si1 3.160659 1_555
La0 Si2 3.191053 1_455
La0 Rh4 3.203894 1_555
La0 Rh6 3.230592 1_555
La0 Si1 3.272821 1_455
La0 Rh8 3.338108 1_556
La0 Rh11 3.432293 1_455
La1 Rh8 2.973408 1_566
La1 Rh11 3.060234 1_455
La1 Si2 3.160588 1_465
La1 Si1 3.190972 1_555
La1 Rh6 3.203948 1_555
La1 Rh4 3.230708 1_565
La1 Si2 3.272894 1_565
La1 Rh1 3.337924 1_556
La1 Rh0 3.432375 1_565
La2 Rh4 2.801146 1_655
La2 Rh6 2.834848 1_555
La2 Rh0 3.176162 1_555
La2 Rh9 3.176395 1_555
La2 Si2 3.189262 1_555
La2 Si4 3.189427 1_555
La2 Si1 3.274752 1_555
La2 Si5 3.274802 1_555
La2 Rh4 3.646435 1_555
La3 Rh7 2.801031 1_455
La3 Rh2 2.834877 1_555
La3 Rh1 3.178561 1_555
La3 Rh3 3.178808 1_555
La3 Si7 3.190166 1_555
La3 Si6 3.190345 1_555
La3 Si0 3.275366 1_555
La3 Si3 3.275395 1_555
La3 Rh7 3.646500 1_555
La4 Rh10 2.974425 1_545
La4 Rh5 3.060948 1_655
La4 Si6 3.160379 1_645
La4 Si3 3.190964 1_555
La4 Rh2 3.204713 1_555
La4 Rh7 3.231835 1_545
La4 Si6 3.273078 1_545
La4 Rh9 3.338544 1_555
La4 Rh3 3.433326 1_545
La5 Rh0 2.974385 1_554
La5 Rh1 3.060969 1_555
La5 Si0 3.160497 1_555
La5 Si7 3.191046 1_655
La5 Rh7 3.204865 1_555
La5 Rh2 3.231830 1_555
La5 Si0 3.272920 1_655
La5 Rh11 3.338425 1_554
La5 Rh8 3.433093 1_655
La6 Rh9 2.974507 1_555
La6 Rh3 3.061036 1_555
La6 Si3 3.160416 1_555
La6 Si6 3.190973 1_655
La6 Rh7 3.204578 1_555
La6 Rh2 3.231753 1_555
La6 Si3 3.273025 1_655
La6 Rh10 3.338592 1_555
La6 Rh5 3.433257 1_655
La7 Rh5 2.973509 1_565
La7 Rh10 3.060401 1_455
La7 Si4 3.160481 1_465
La7 Si5 3.190942 1_555
La7 Rh6 3.203830 1_555
La7 Rh4 3.230617 1_565
La7 Si4 3.273038 1_565
La7 Rh3 3.338250 1_555
La7 Rh9 3.432514 1_565
La8 Rh6 2.801207 1_555
La8 Rh4 2.834883 1_665
La8 Rh11 3.176102 1_555
La8 Rh10 3.176435 1_555
La8 Si1 3.189207 1_555
La8 Si5 3.189490 1_555
La8 Si2 3.274704 1_565
La8 Si4 3.274809 1_565
La8 Rh6 3.646420 1_655
La9 Rh3 2.973477 1_555
La9 Rh9 3.060348 1_555
La9 Si5 3.160461 1_555
La9 Si4 3.190946 1_455
La9 Rh4 3.203768 1_555
La9 Rh6 3.230604 1_555
La9 Si5 3.273075 1_455
La9 Rh5 3.338218 1_555
La9 Rh10 3.432502 1_455
La10 Rh11 2.974566 1_544
La10 Rh8 3.061031 1_655
La10 Si7 3.160497 1_645
La10 Si0 3.191023 1_555
La10 Rh2 3.204764 1_555
La10 Rh7 3.231808 1_545
La10 Si7 3.272878 1_545
La10 Rh0 3.338514 1_554
La10 Rh1 3.433075 1_545
La11 Rh2 2.801111 1_555
La11 Rh7 2.835026 1_445
La11 Rh8 3.178545 1_555
La11 Rh5 3.178784 1_555
La11 Si0 3.190106 1_555
La11 Si3 3.190334 1_555
La11 Si7 3.275400 1_545
La11 Si6 3.275474 1_545
La11 Rh2 3.646389 1_455
Rh0 Si2 2.399326 1_555
Rh0 Si1 2.416609 1_555
Rh0 Si0 2.446443 1_556
Rh1 Si7 2.399686 1_555
Rh1 Si0 2.416767 1_555
Rh1 Si1 2.445668 1_554
Rh2 Si3 2.611053 1_555
Rh2 Si0 2.611110 1_555
Rh3 Si6 2.399814 1_555
Rh3 Si3 2.416624 1_555
Rh3 Si5 2.445629 1_555
Rh4 Si4 2.610063 1_455
Rh4 Si2 2.610114 1_455
Rh5 Si3 2.399792 1_555
Rh5 Si6 2.416668 1_545
Rh5 Si4 2.445671 1_455
Rh6 Si1 2.610062 1_555
Rh6 Si5 2.610090 1_555
Rh7 Si6 2.611013 1_655
Rh7 Si7 2.611118 1_655
Rh8 Si0 2.399701 1_555
Rh8 Si7 2.416654 1_545
Rh8 Si2 2.445670 1_454
Rh9 Si4 2.399522 1_555
Rh9 Si5 2.416506 1_555
Rh9 Si3 2.446406 1_555
Rh10 Si5 2.399498 1_555
Rh10 Si4 2.416562 1_565
Rh10 Si6 2.446419 1_655
Rh11 Si1 2.399389 1_555
Rh11 Si2 2.416506 1_565
Rh11 Si7 2.446436 1_656
