# generated using pymatgen
data_NaYF4
_symmetry_space_group_name_H-M   'P 1'
_cell_length_a   7.04216792
_cell_length_b   5.94585705
_cell_length_c   11.86974303
_cell_angle_alpha   59.87946503
_cell_angle_beta   90.00000000
_cell_angle_gamma   90.00000000
_symmetry_Int_Tables_number   1
_chemical_formula_structural   NaYF4
_chemical_formula_sum   'Na6 Y6 F24'
_cell_volume   429.89660641
_cell_formula_units_Z   6
loop_
 _symmetry_equiv_pos_site_id
 _symmetry_equiv_pos_as_xyz
  1  'x, y, z'
loop_
 _atom_site_type_symbol
 _atom_site_label
 _atom_site_symmetry_multiplicity
 _atom_site_fract_x
 _atom_site_fract_y
 _atom_site_fract_z
 _atom_site_occupancy
  Na  Na0  1  0.66236561  0.65064982  0.84222108  1
  Na  Na1  1  0.16038575  0.68444917  0.82529006  1
  Na  Na2  1  0.83961425  0.68444917  0.32529006  1
  Na  Na3  1  0.25386166  0.33426074  0.66710912  1
  Na  Na4  1  0.33763439  0.65064982  0.34222108  1
  Na  Na5  1  0.74613834  0.33426074  0.16710912  1
  Y  Y0  1  0.00270352  0.00158171  0.49941103  1
  Y  Y1  1  0.75211893  0.33383928  0.66540510  1
  Y  Y2  1  0.99729648  0.00158171  0.99941103  1
  Y  Y3  1  0.50018658  0.99800131  0.00068384  1
  Y  Y4  1  0.49981342  0.99800131  0.50068384  1
  Y  Y5  1  0.24788107  0.33383928  0.16540510  1
  F  F0  1  0.74703525  0.25320052  0.99478800  1
  F  F1  1  0.24894130  0.27625145  0.98457496  1
  F  F2  1  0.75016104  0.75227221  0.63476365  1
  F  F3  1  0.25017449  0.75816027  0.63053025  1
  F  F4  1  0.98200985  0.04568035  0.68033256  1
  F  F5  1  0.52418272  0.04367739  0.68107209  1
  F  F6  1  0.75105870  0.27625145  0.48457496  1
  F  F7  1  0.25296475  0.25320052  0.49478800  1
  F  F8  1  0.75134964  0.96951371  0.87769432  1
  F  F9  1  0.24817268  0.98936569  0.87899589  1
  F  F10  1  0.74982551  0.75816027  0.13053025  1
  F  F11  1  0.24983896  0.75227221  0.13476365  1
  F  F12  1  0.98180052  0.59404514  0.52197305  1
  F  F13  1  0.51700231  0.59296755  0.52198941  1
  F  F14  1  0.97872183  0.36431265  0.79693251  1
  F  F15  1  0.52290530  0.35777104  0.79623407  1
  F  F16  1  0.47581728  0.04367739  0.18107209  1
  F  F17  1  0.01799015  0.04568035  0.18033256  1
  F  F18  1  0.75182732  0.98936569  0.37899589  1
  F  F19  1  0.24865036  0.96951371  0.37769432  1
  F  F20  1  0.01819948  0.59404514  0.02197305  1
  F  F21  1  0.48299769  0.59296755  0.02198941  1
  F  F22  1  0.02127817  0.36431265  0.29693251  1
  F  F23  1  0.47709470  0.35777104  0.29623407  1
loop_
_geom_bond_atom_site_label_1
_geom_bond_atom_site_label_2
_geom_bond_distance
_geom_bond_site_symmetry_2
F0 Na0 2.219113 1_555
F0 Y3 2.285305 1_546
F0 Y2 2.294534 1_555
F0 Na5 2.324962 1_556
F1 Na1 2.291016 1_555
F1 Y5 2.337090 1_556
F1 Y2 2.355836 1_455
F1 Y3 2.363617 1_546
F2 Na0 2.306030 1_555
F2 Y1 2.326834 1_555
F2 Y4 2.332801 1_555
F2 Y0 2.356097 1_665
F3 Na1 2.217929 1_555
F3 Y0 2.300734 1_565
F3 Y4 2.300811 1_555
F3 Na3 2.333135 1_555
F4 Y0 2.294960 1_655
F4 Y1 2.298525 1_555
F4 Na1 2.332928 1_645
F4 Na3 2.522604 1_655
F5 Y1 2.294703 1_555
F5 Y4 2.295954 1_545
F5 Na0 2.362308 1_545
F5 Na3 2.519746 1_555
F6 Na2 2.291016 1_555
F6 Y1 2.337090 1_555
F6 Y0 2.355836 1_655
F6 Y4 2.363617 1_545
F7 Na4 2.219113 1_555
F7 Y4 2.285305 1_545
F7 Y0 2.294534 1_555
F7 Na3 2.324962 1_555
F8 Na0 2.228380 1_555
F8 Y2 2.323778 1_565
F8 Y3 2.352967 1_556
F8 Y1 2.358745 1_565
F9 Na1 2.288107 1_555
F9 Y2 2.296439 1_465
F9 Y3 2.304999 1_556
F9 Na3 2.314309 1_565
F10 Na2 2.217929 1_555
F10 Y2 2.300734 1_564
F10 Y3 2.300811 1_555
F10 Na5 2.333135 1_555
F11 Na4 2.306030 1_555
F11 Y5 2.326834 1_555
F11 Y3 2.332801 1_555
F11 Y2 2.356097 1_464
F12 Y1 2.294500 1_555
F12 Y0 2.305161 1_665
F12 Na2 2.341434 1_555
F12 Na3 2.520654 1_655
F13 Y4 2.295024 1_555
F13 Y1 2.319657 1_555
F13 Na4 2.351972 1_555
F13 Na3 2.471414 1_555
F14 Y2 2.289653 1_555
F14 Y1 2.302296 1_555
F14 Na1 2.452799 1_655
F14 Na3 2.537142 1_655
F15 Na0 2.291076 1_555
F15 Y1 2.293263 1_555
F15 Y3 2.297958 1_546
F15 Na3 2.484629 1_555
F16 Y5 2.294703 1_555
F16 Y3 2.295954 1_545
F16 Na4 2.362308 1_545
F16 Na5 2.519746 1_555
F17 Y2 2.294960 1_454
F17 Y5 2.298525 1_555
F17 Na2 2.332928 1_445
F17 Na5 2.522604 1_455
F18 Na2 2.288107 1_555
F18 Y0 2.296439 1_665
F18 Y4 2.304999 1_555
F18 Na5 2.314309 1_565
F19 Na4 2.228380 1_555
F19 Y0 2.323778 1_565
F19 Y4 2.352967 1_555
F19 Y5 2.358745 1_565
F20 Y5 2.294500 1_555
F20 Y2 2.305161 1_464
F20 Na1 2.341434 1_554
F20 Na5 2.520654 1_455
F21 Y3 2.295024 1_555
F21 Y5 2.319657 1_555
F21 Na0 2.351972 1_554
F21 Na5 2.471414 1_555
F22 Y0 2.289653 1_555
F22 Y5 2.302296 1_555
F22 Na2 2.452799 1_455
F22 Na5 2.537142 1_455
F23 Na4 2.291076 1_555
F23 Y5 2.293263 1_555
F23 Y4 2.297958 1_545
F23 Na5 2.484629 1_555
