# generated using pymatgen
data_Na3NO2
_symmetry_space_group_name_H-M   'P 1'
_cell_length_a   6.51082300
_cell_length_b   6.51082300
_cell_length_c   9.31365000
_cell_angle_alpha   90.00000000
_cell_angle_beta   90.00000000
_cell_angle_gamma   90.00000000
_symmetry_Int_Tables_number   1
_chemical_formula_structural   Na3NO2
_chemical_formula_sum   'Na12 N4 O8'
_cell_volume   394.81322472
_cell_formula_units_Z   4
loop_
 _symmetry_equiv_pos_site_id
 _symmetry_equiv_pos_as_xyz
  1  'x, y, z'
loop_
 _atom_site_type_symbol
 _atom_site_label
 _atom_site_symmetry_multiplicity
 _atom_site_fract_x
 _atom_site_fract_y
 _atom_site_fract_z
 _atom_site_occupancy
  Na  Na0  1  0.00000000  0.50000000  0.00000000  1
  Na  Na1  1  0.23789500  0.76210500  0.25187100  1
  Na  Na2  1  0.26210500  0.26210500  0.24812900  1
  Na  Na3  1  0.73789500  0.73789500  0.24812900  1
  Na  Na4  1  0.76210500  0.23789500  0.25187100  1
  Na  Na5  1  0.00000000  0.50000000  0.50000000  1
  Na  Na6  1  0.50000000  0.00000000  0.50000000  1
  Na  Na7  1  0.23789500  0.76210500  0.74812900  1
  Na  Na8  1  0.26210500  0.26210500  0.75187100  1
  Na  Na9  1  0.73789500  0.73789500  0.75187100  1
  Na  Na10  1  0.76210500  0.23789500  0.74812900  1
  Na  Na11  1  0.50000000  0.00000000  0.00000000  1
  N  N0  1  0.50000000  0.50000000  0.38487200  1
  N  N1  1  0.00000000  0.00000000  0.11512800  1
  N  N2  1  0.00000000  0.00000000  0.88487200  1
  N  N3  1  0.50000000  0.50000000  0.61512800  1
  O  O0  1  0.11391500  0.11391500  0.00000000  1
  O  O1  1  0.50000000  0.00000000  0.25000000  1
  O  O2  1  0.00000000  0.50000000  0.25000000  1
  O  O3  1  0.38608500  0.61391500  0.50000000  1
  O  O4  1  0.61391500  0.38608500  0.50000000  1
  O  O5  1  0.00000000  0.50000000  0.75000000  1
  O  O6  1  0.50000000  0.00000000  0.75000000  1
  O  O7  1  0.88608500  0.88608500  0.00000000  1
loop_
_geom_bond_atom_site_label_1
_geom_bond_atom_site_label_2
_geom_bond_distance
_geom_bond_site_symmetry_2
Na0 O2 2.328413 1_555
Na0 O5 2.328413 1_554
Na0 O7 2.620865 1_455
Na0 O0 2.620865 1_555
Na1 O2 2.304686 1_555
Na1 O1 2.304686 1_565
Na1 O3 2.683745 1_555
Na2 O1 2.304686 1_555
Na2 O2 2.304686 1_555
Na2 O0 2.683745 1_555
Na3 O1 2.304686 1_565
Na3 O2 2.304686 1_655
Na3 O7 2.683745 1_555
Na4 O1 2.304686 1_555
Na4 O2 2.304686 1_655
Na4 O4 2.683745 1_555
Na5 O5 2.328413 1_555
Na5 O2 2.328413 1_555
Na5 O3 2.620865 1_555
Na5 O4 2.620865 1_455
Na6 O1 2.328413 1_555
Na6 O6 2.328413 1_555
Na6 O4 2.620865 1_555
Na6 O3 2.620865 1_545
Na7 O5 2.304686 1_555
Na7 O6 2.304686 1_565
Na7 O3 2.683745 1_555
Na8 O5 2.304686 1_555
Na8 O6 2.304686 1_555
Na8 O0 2.683745 1_556
Na9 O6 2.304686 1_565
Na9 O5 2.304686 1_655
Na9 O7 2.683745 1_556
Na10 O6 2.304686 1_555
Na10 O5 2.304686 1_655
Na10 O4 2.683745 1_555
Na11 O6 2.328413 1_554
Na11 O1 2.328413 1_555
Na11 O7 2.620865 1_545
Na11 O0 2.620865 1_555
N0 O3 1.499975 1_555
N0 O4 1.499975 1_555
N0 Na3 2.533798 1_555
N0 Na2 2.533798 1_555
N0 Na4 2.712721 1_555
N0 Na1 2.712721 1_555
N1 O0 1.499975 1_555
N1 O7 1.499975 1_445
N1 Na4 2.533798 1_455
N1 Na1 2.533798 1_545
N1 Na2 2.712721 1_555
N1 Na3 2.712721 1_445
N2 O0 1.499975 1_556
N2 O7 1.499975 1_446
N2 Na10 2.533798 1_455
N2 Na7 2.533798 1_545
N2 Na8 2.712721 1_555
N2 Na9 2.712721 1_445
N3 O3 1.499975 1_555
N3 O4 1.499975 1_555
N3 Na9 2.533798 1_555
N3 Na8 2.533798 1_555
N3 Na10 2.712721 1_555
N3 Na7 2.712721 1_555
