# generated using pymatgen
data_Ge3N4
_symmetry_space_group_name_H-M   'P 1'
_cell_length_a   8.22337156
_cell_length_b   8.22337051
_cell_length_c   5.94597379
_cell_angle_alpha   90.00000000
_cell_angle_beta   90.00000000
_cell_angle_gamma   119.99999215
_symmetry_Int_Tables_number   1
_chemical_formula_structural   Ge3N4
_chemical_formula_sum   'Ge12 N16'
_cell_volume   348.21977320
_cell_formula_units_Z   4
loop_
 _symmetry_equiv_pos_site_id
 _symmetry_equiv_pos_as_xyz
  1  'x, y, z'
loop_
 _atom_site_type_symbol
 _atom_site_label
 _atom_site_symmetry_multiplicity
 _atom_site_fract_x
 _atom_site_fract_y
 _atom_site_fract_z
 _atom_site_occupancy
  Ge  Ge0  1  0.16761955  0.25336892  0.02372279  1
  Ge  Ge1  1  0.48860089  0.57098609  0.72691243  1
  Ge  Ge2  1  0.25336892  0.16761955  0.52372179  1
  Ge  Ge3  1  0.08238521  0.51139911  0.72691243  1
  Ge  Ge4  1  0.91761479  0.42901391  0.22691243  1
  Ge  Ge5  1  0.83238045  0.08575037  0.52372179  1
  Ge  Ge6  1  0.74663108  0.91424963  0.02372279  1
  Ge  Ge7  1  0.51139911  0.08238521  0.22691243  1
  Ge  Ge8  1  0.42901391  0.91761479  0.72691243  1
  Ge  Ge9  1  0.91424963  0.74663108  0.52372179  1
  Ge  Ge10  1  0.57098609  0.48860089  0.22691243  1
  Ge  Ge11  1  0.08575037  0.83238045  0.02372279  1
  N  N0  1  0.68012296  0.99682375  0.77015335  1
  N  N1  1  0.00317625  0.68330121  0.77015335  1
  N  N2  1  0.61162508  0.65643500  0.99923872  1
  N  N3  1  0.04480892  0.38837492  0.99923872  1
  N  N4  1  0.31987704  0.31669879  0.27015335  1
  N  N5  1  0.95519108  0.34356500  0.49923872  1
  N  N6  1  0.68330121  0.00317625  0.27015335  1
  N  N7  1  -0.00000000  -0.00000000  0.02443343  1
  N  N8  1  0.34356500  0.95519108  0.99923872  1
  N  N9  1  0.31669879  0.31987704  0.77015335  1
  N  N10  1  0.99682375  0.68012296  0.27015335  1
  N  N11  1  0.65643500  0.61162508  0.49923872  1
  N  N12  1  -0.00000000  -0.00000000  0.52443343  1
  N  N13  1  0.66666700  0.33333300  0.16549071  1
  N  N14  1  0.38837492  0.04480892  0.49923872  1
  N  N15  1  0.33333300  0.66666700  0.66549071  1
loop_
_geom_bond_atom_site_label_1
_geom_bond_atom_site_label_2
_geom_bond_distance
_geom_bond_site_symmetry_2
Ge0 N4 1.825884 1_555
Ge0 N7 1.835541 1_555
Ge0 N3 1.842524 1_554
Ge0 N9 1.845199 1_554
Ge1 N15 1.840483 1_555
Ge1 N11 1.840628 1_555
Ge1 N9 1.846462 1_555
Ge1 N2 1.851571 1_555
Ge2 N9 1.825889 1_555
Ge2 N12 1.835541 1_555
Ge2 N14 1.842524 1_555
Ge2 N4 1.845194 1_555
Ge3 N15 1.840477 1_555
Ge3 N5 1.840627 1_455
Ge3 N1 1.846474 1_555
Ge3 N3 1.851570 1_555
Ge4 N13 1.840476 1_555
Ge4 N3 1.840623 1_654
Ge4 N10 1.846458 1_555
Ge4 N5 1.851573 1_555
Ge5 N0 1.825888 1_545
Ge5 N12 1.835547 1_655
Ge5 N5 1.842509 1_555
Ge5 N6 1.845195 1_555
Ge6 N6 1.825879 1_565
Ge6 N7 1.835539 1_665
Ge6 N2 1.842510 1_554
Ge6 N0 1.845212 1_554
Ge7 N13 1.840477 1_555
Ge7 N8 1.840627 1_544
Ge7 N6 1.846474 1_555
Ge7 N14 1.851570 1_555
Ge8 N15 1.840476 1_555
Ge8 N14 1.840623 1_565
Ge8 N0 1.846459 1_555
Ge8 N8 1.851573 1_555
Ge9 N1 1.825884 1_655
Ge9 N12 1.835539 1_665
Ge9 N11 1.842510 1_555
Ge9 N10 1.845207 1_555
Ge10 N13 1.840483 1_555
Ge10 N2 1.840628 1_554
Ge10 N4 1.846462 1_555
Ge10 N11 1.851571 1_555
Ge11 N10 1.825883 1_455
Ge11 N7 1.835547 1_565
Ge11 N8 1.842510 1_554
Ge11 N1 1.845200 1_554
