# generated using pymatgen
data_U2O5
_symmetry_space_group_name_H-M   'P 1'
_cell_length_a   4.15881700
_cell_length_b   6.96322900
_cell_length_c   30.96074100
_cell_angle_alpha   90.00000000
_cell_angle_beta   90.00000000
_cell_angle_gamma   90.00000000
_symmetry_Int_Tables_number   1
_chemical_formula_structural   U2O5
_chemical_formula_sum   'U16 O40'
_cell_volume   896.58575600
_cell_formula_units_Z   8
loop_
 _symmetry_equiv_pos_site_id
 _symmetry_equiv_pos_as_xyz
  1  'x, y, z'
loop_
 _atom_site_type_symbol
 _atom_site_label
 _atom_site_symmetry_multiplicity
 _atom_site_fract_x
 _atom_site_fract_y
 _atom_site_fract_z
 _atom_site_occupancy
  U  U0  1  0.00000000  0.75640800  0.84055100  1
  U  U1  1  0.00000000  0.25640800  0.65944900  1
  U  U2  1  0.00000000  0.78454200  0.21254600  1
  U  U3  1  0.00000000  0.24359200  0.15944900  1
  U  U4  1  0.00000000  0.71545800  0.71254600  1
  U  U5  1  0.00000000  0.75760700  0.97516600  1
  U  U6  1  0.00000000  0.28454200  0.28745400  1
  U  U7  1  0.00000000  0.78282900  0.59429900  1
  U  U8  1  0.00000000  0.28282900  0.90570100  1
  U  U9  1  0.00000000  0.21545800  0.78745400  1
  U  U10  1  0.00000000  0.74359200  0.34055100  1
  U  U11  1  0.00000000  0.25760700  0.52483400  1
  U  U12  1  0.00000000  0.24239300  0.02483400  1
  U  U13  1  0.00000000  0.74239300  0.47516600  1
  U  U14  1  0.00000000  0.71717100  0.09429900  1
  U  U15  1  0.00000000  0.21717100  0.40570100  1
  O  O0  1  0.00000000  0.43404300  0.96363800  1
  O  O1  1  0.50000000  0.25620600  0.52402700  1
  O  O2  1  0.00000000  0.06595700  0.46363800  1
  O  O3  1  0.00000000  0.05667900  0.33464700  1
  O  O4  1  0.50000000  0.24379400  0.02402700  1
  O  O5  1  0.00000000  0.06552700  0.95856700  1
  O  O6  1  0.50000000  0.72083500  0.09568200  1
  O  O7  1  0.50000000  0.21462500  0.78630500  1
  O  O8  1  0.50000000  0.77916500  0.59568200  1
  O  O9  1  0.00000000  0.61259100  0.27211000  1
  O  O10  1  0.50000000  0.78537500  0.21369500  1
  O  O11  1  0.00000000  0.55667900  0.16535300  1
  O  O12  1  0.00000000  0.69986400  0.90584800  1
  O  O13  1  0.00000000  0.43447300  0.45856700  1
  O  O14  1  0.50000000  0.75620600  0.97597300  1
  O  O15  1  0.50000000  0.75414300  0.83677500  1
  O  O16  1  0.00000000  0.56888600  0.64827400  1
  O  O17  1  0.00000000  0.44332100  0.83464700  1
  O  O18  1  0.00000000  0.43111400  0.35172600  1
  O  O19  1  0.00000000  0.93404300  0.53636200  1
  O  O20  1  0.50000000  0.24585700  0.16322500  1
  O  O21  1  0.50000000  0.27916500  0.90431800  1
  O  O22  1  0.50000000  0.22083500  0.40431800  1
  O  O23  1  0.00000000  0.88740900  0.77211000  1
  O  O24  1  0.50000000  0.71462500  0.71369500  1
  O  O25  1  0.00000000  0.30013600  0.09415200  1
  O  O26  1  0.00000000  0.38740900  0.72789000  1
  O  O27  1  0.00000000  0.80013600  0.40584800  1
  O  O28  1  0.00000000  0.93111400  0.14827400  1
  O  O29  1  0.50000000  0.25414300  0.66322500  1
  O  O30  1  0.00000000  0.11259100  0.22789000  1
  O  O31  1  0.50000000  0.74585700  0.33677500  1
  O  O32  1  0.50000000  0.74379400  0.47597300  1
  O  O33  1  0.00000000  0.19986400  0.59415200  1
  O  O34  1  0.00000000  0.93447300  0.04143300  1
  O  O35  1  0.00000000  0.06888600  0.85172600  1
  O  O36  1  0.00000000  0.56552700  0.54143300  1
  O  O37  1  0.00000000  0.94332100  0.66535300  1
  O  O38  1  0.50000000  0.28537500  0.28630500  1
  O  O39  1  0.00000000  0.56595700  0.03636200  1
loop_
_geom_bond_atom_site_label_1
_geom_bond_atom_site_label_2
_geom_bond_distance
_geom_bond_site_symmetry_2
O0 U8 2.079975 1_555
O0 U5 2.281145 1_555
O0 U12 2.317474 1_556
O1 U11 2.079581 1_655
O1 U11 2.079581 1_555
O2 U15 2.079975 1_555
O2 U13 2.281145 1_545
O2 U11 2.317474 1_555
O3 U6 2.156942 1_555
O3 U10 2.187746 1_545
O3 U15 2.467467 1_555
O4 U12 2.079581 1_655
O4 U12 2.079581 1_555
O5 U5 2.204847 1_545
O5 U8 2.229027 1_555
O5 U12 2.392929 1_556
O6 U14 2.080006 1_555
O6 U14 2.080006 1_655
O7 U9 2.079721 1_555
O7 U9 2.079721 1_655
O8 U7 2.080006 1_655
O8 U7 2.080006 1_555
O9 U2 2.198746 1_555
O9 U10 2.306986 1_555
O9 U6 2.333157 1_555
O10 U2 2.079721 1_555
O10 U2 2.079721 1_655
O11 U2 2.156942 1_555
O11 U3 2.187746 1_555
O11 U14 2.467467 1_555
O12 U0 2.059627 1_555
O12 U5 2.183476 1_555
O13 U13 2.204847 1_555
O13 U15 2.229027 1_555
O13 U11 2.392929 1_555
O14 U5 2.079581 1_655
O14 U5 2.079581 1_555
O15 U0 2.082752 1_555
O15 U0 2.082752 1_655
O16 U1 2.203192 1_555
O16 U4 2.236379 1_555
O16 U7 2.238728 1_555
O17 U9 2.156942 1_555
O17 U0 2.187746 1_555
O17 U8 2.467467 1_555
O18 U10 2.203192 1_555
O18 U6 2.236379 1_555
O18 U15 2.238728 1_555
O19 U7 2.079975 1_555
O19 U11 2.281145 1_565
O19 U13 2.317474 1_555
O20 U3 2.082752 1_655
O20 U3 2.082752 1_555
O21 U8 2.080006 1_555
O21 U8 2.080006 1_655
O22 U15 2.080006 1_555
O22 U15 2.080006 1_655
O23 U4 2.198746 1_555
O23 U0 2.306986 1_555
O23 U9 2.333157 1_565
O24 U4 2.079721 1_555
O24 U4 2.079721 1_655
O25 U3 2.059627 1_555
O25 U12 2.183476 1_555
O26 U9 2.198746 1_555
O26 U1 2.306986 1_555
O26 U4 2.333157 1_555
O27 U10 2.059627 1_555
O27 U13 2.183476 1_555
O28 U3 2.203192 1_565
O28 U2 2.236379 1_555
O28 U14 2.238728 1_555
O29 U1 2.082752 1_655
O29 U1 2.082752 1_555
O30 U6 2.198746 1_555
O30 U3 2.306986 1_555
O30 U2 2.333157 1_545
O31 U10 2.082752 1_655
O31 U10 2.082752 1_555
O32 U13 2.079581 1_555
O32 U13 2.079581 1_655
O33 U1 2.059627 1_555
O33 U11 2.183476 1_555
O34 U12 2.204847 1_565
O34 U14 2.229027 1_555
O34 U5 2.392929 1_554
O35 U0 2.203192 1_545
O35 U9 2.236379 1_555
O35 U8 2.238728 1_555
O36 U11 2.204847 1_555
O36 U7 2.229027 1_555
O36 U13 2.392929 1_555
O37 U4 2.156942 1_555
O37 U1 2.187746 1_565
O37 U7 2.467467 1_555
O38 U6 2.079721 1_655
O38 U6 2.079721 1_555
O39 U14 2.079975 1_555
O39 U12 2.281145 1_555
O39 U5 2.317474 1_554
