# generated using pymatgen
data_Tm5NiPb3
_symmetry_space_group_name_H-M   'P 1'
_cell_length_a   8.97010589
_cell_length_b   8.97010589
_cell_length_c   6.60455680
_cell_angle_alpha   90.00000000
_cell_angle_beta   90.00000000
_cell_angle_gamma   119.99999700
_symmetry_Int_Tables_number   1
_chemical_formula_structural   Tm5NiPb3
_chemical_formula_sum   'Tm10 Ni2 Pb6'
_cell_volume   460.22421355
_cell_formula_units_Z   2
loop_
 _symmetry_equiv_pos_site_id
 _symmetry_equiv_pos_as_xyz
  1  'x, y, z'
loop_
 _atom_site_type_symbol
 _atom_site_label
 _atom_site_symmetry_multiplicity
 _atom_site_fract_x
 _atom_site_fract_y
 _atom_site_fract_z
 _atom_site_occupancy
  Tm  Tm0  1  0.76422615  0.76422615  0.25000000  1
  Tm  Tm1  1  -0.00000000  0.76422615  0.75000000  1
  Tm  Tm2  1  0.33333300  0.66666700  0.50000000  1
  Tm  Tm3  1  0.23577385  0.00000000  0.25000000  1
  Tm  Tm4  1  0.23577385  0.23577385  0.75000000  1
  Tm  Tm5  1  0.00000000  0.23577385  0.25000000  1
  Tm  Tm6  1  0.66666700  0.33333300  0.50000000  1
  Tm  Tm7  1  0.76422615  -0.00000000  0.75000000  1
  Tm  Tm8  1  0.33333300  0.66666700  -0.00000000  1
  Tm  Tm9  1  0.66666700  0.33333300  -0.00000000  1
  Ni  Ni0  1  0.00000000  0.00000000  -0.00000000  1
  Ni  Ni1  1  0.00000000  0.00000000  0.50000000  1
  Pb  Pb0  1  0.40014091  -0.00000000  0.75000000  1
  Pb  Pb1  1  0.59985909  0.00000000  0.25000000  1
  Pb  Pb2  1  0.40014091  0.40014091  0.25000000  1
  Pb  Pb3  1  0.00000000  0.59985909  0.25000000  1
  Pb  Pb4  1  -0.00000000  0.40014091  0.75000000  1
  Pb  Pb5  1  0.59985909  0.59985909  0.75000000  1
loop_
_geom_bond_atom_site_label_1
_geom_bond_atom_site_label_2
_geom_bond_distance
_geom_bond_site_symmetry_2
Ni0 Tm7 2.683120 1_454
Ni0 Tm1 2.683120 1_544
Ni0 Tm5 2.683120 1_555
Ni0 Tm3 2.683120 1_555
Ni0 Tm0 2.683120 1_445
Ni0 Tm4 2.683120 1_554
Ni1 Tm7 2.683120 1_455
Ni1 Tm1 2.683120 1_545
Ni1 Tm5 2.683120 1_555
Ni1 Tm3 2.683120 1_555
Ni1 Tm0 2.683120 1_445
Ni1 Tm4 2.683120 1_555
Pb0 Tm4 3.124885 1_555
Pb0 Tm1 3.124885 1_545
Pb0 Tm8 3.199037 1_546
Pb0 Tm2 3.199037 1_545
Pb0 Tm6 3.199039 1_555
Pb0 Tm9 3.199039 1_556
Pb0 Tm7 3.265883 1_555
Pb0 Tm3 3.616472 1_556
Pb0 Tm3 3.616472 1_555
Pb1 Tm0 3.124885 1_545
Pb1 Tm5 3.124885 1_655
Pb1 Tm6 3.199037 1_555
Pb1 Tm9 3.199037 1_555
Pb1 Tm2 3.199039 1_545
Pb1 Tm8 3.199039 1_545
Pb1 Tm3 3.265883 1_555
Pb1 Tm7 3.616472 1_555
Pb1 Tm7 3.616472 1_554
Pb2 Tm3 3.124885 1_555
Pb2 Tm5 3.124885 1_555
Pb2 Tm9 3.199044 1_555
Pb2 Tm8 3.199044 1_555
Pb2 Tm2 3.199044 1_555
Pb2 Tm6 3.199044 1_555
Pb2 Tm0 3.265883 1_555
Pb2 Tm4 3.616472 1_554
Pb2 Tm4 3.616472 1_555
Pb3 Tm0 3.124885 1_455
Pb3 Tm3 3.124885 1_565
Pb3 Tm2 3.199037 1_555
Pb3 Tm8 3.199037 1_555
Pb3 Tm9 3.199039 1_455
Pb3 Tm6 3.199039 1_455
Pb3 Tm5 3.265883 1_555
Pb3 Tm1 3.616472 1_555
Pb3 Tm1 3.616472 1_554
Pb4 Tm4 3.124885 1_555
Pb4 Tm7 3.124885 1_455
Pb4 Tm6 3.199037 1_455
Pb4 Tm9 3.199037 1_456
Pb4 Tm2 3.199039 1_555
Pb4 Tm8 3.199039 1_556
Pb4 Tm1 3.265883 1_555
Pb4 Tm5 3.616472 1_555
Pb4 Tm5 3.616472 1_556
Pb5 Tm1 3.124885 1_655
Pb5 Tm7 3.124885 1_565
Pb5 Tm8 3.199044 1_556
Pb5 Tm9 3.199044 1_556
Pb5 Tm2 3.199044 1_555
Pb5 Tm6 3.199044 1_555
Pb5 Tm4 3.265883 1_555
Pb5 Tm0 3.616472 1_555
Pb5 Tm0 3.616472 1_556
