# generated using pymatgen
data_Al2Co3(SiO4)3
_symmetry_space_group_name_H-M   'P 1'
_cell_length_a   10.01836720
_cell_length_b   10.01836720
_cell_length_c   10.01836720
_cell_angle_alpha   109.47122063
_cell_angle_beta   109.47122063
_cell_angle_gamma   109.47122063
_symmetry_Int_Tables_number   1
_chemical_formula_structural   Al2Co3(SiO4)3
_chemical_formula_sum   'Al8 Co12 Si12 O48'
_cell_volume   774.04987779
_cell_formula_units_Z   4
loop_
 _symmetry_equiv_pos_site_id
 _symmetry_equiv_pos_as_xyz
  1  'x, y, z'
loop_
 _atom_site_type_symbol
 _atom_site_label
 _atom_site_symmetry_multiplicity
 _atom_site_fract_x
 _atom_site_fract_y
 _atom_site_fract_z
 _atom_site_occupancy
  Al  Al0  1  0.00000000  0.50000000  0.50000000  1
  Al  Al1  1  0.00000000  0.50000000  0.00000000  1
  Al  Al2  1  0.50000000  0.50000000  0.50000000  1
  Al  Al3  1  0.00000000  0.00000000  0.00000000  1
  Al  Al4  1  0.50000000  0.50000000  0.00000000  1
  Al  Al5  1  0.50000000  0.00000000  0.50000000  1
  Al  Al6  1  0.00000000  0.00000000  0.50000000  1
  Al  Al7  1  0.50000000  0.00000000  0.00000000  1
  Co  Co0  1  0.62500000  0.87500000  0.75000000  1
  Co  Co1  1  0.75000000  0.12500000  0.37500000  1
  Co  Co2  1  0.62500000  0.25000000  0.87500000  1
  Co  Co3  1  0.12500000  0.25000000  0.37500000  1
  Co  Co4  1  0.25000000  0.37500000  0.12500000  1
  Co  Co5  1  0.87500000  0.75000000  0.62500000  1
  Co  Co6  1  0.87500000  0.62500000  0.25000000  1
  Co  Co7  1  0.12500000  0.37500000  0.75000000  1
  Co  Co8  1  0.37500000  0.12500000  0.25000000  1
  Co  Co9  1  0.25000000  0.87500000  0.62500000  1
  Co  Co10  1  0.75000000  0.62500000  0.87500000  1
  Co  Co11  1  0.37500000  0.75000000  0.12500000  1
  Si  Si0  1  0.87500000  0.25000000  0.12500000  1
  Si  Si1  1  0.75000000  0.87500000  0.12500000  1
  Si  Si2  1  0.12500000  0.75000000  0.87500000  1
  Si  Si3  1  0.37500000  0.62500000  0.75000000  1
  Si  Si4  1  0.62500000  0.75000000  0.37500000  1
  Si  Si5  1  0.62500000  0.37500000  0.25000000  1
  Si  Si6  1  0.75000000  0.37500000  0.62500000  1
  Si  Si7  1  0.25000000  0.62500000  0.37500000  1
  Si  Si8  1  0.25000000  0.12500000  0.87500000  1
  Si  Si9  1  0.37500000  0.25000000  0.62500000  1
  Si  Si10  1  0.12500000  0.87500000  0.25000000  1
  Si  Si11  1  0.87500000  0.12500000  0.75000000  1
  O  O0  1  0.39833400  0.08471700  0.88069700  1
  O  O1  1  0.58471700  0.18638200  0.20402000  1
  O  O2  1  0.38069700  0.58471700  0.89833400  1
  O  O3  1  0.60166600  0.91528300  0.11930300  1
  O  O4  1  0.01763700  0.20402000  0.11930300  1
  O  O5  1  0.41528300  0.10166600  0.61930300  1
  O  O6  1  0.38069700  0.29598000  0.48236300  1
  O  O7  1  0.11930300  0.60166600  0.91528300  1
  O  O8  1  0.70402000  0.68638200  0.08471700  1
  O  O9  1  0.68638200  0.10166600  0.98236300  1
  O  O10  1  0.70402000  0.51763700  0.61930300  1
  O  O11  1  0.60166600  0.18638200  0.48236300  1
  O  O12  1  0.98236300  0.79598000  0.88069700  1
  O  O13  1  0.18638200  0.48236300  0.60166600  1
  O  O14  1  0.10166600  0.98236300  0.68638200  1
  O  O15  1  0.91528300  0.11930300  0.60166600  1
  O  O16  1  0.68638200  0.08471700  0.70402000  1
  O  O17  1  0.81361800  0.79598000  0.41528300  1
  O  O18  1  0.61930300  0.70402000  0.51763700  1
  O  O19  1  0.98236300  0.68638200  0.10166600  1
  O  O20  1  0.88069700  0.98236300  0.79598000  1
  O  O21  1  0.88069700  0.39833400  0.08471700  1
  O  O22  1  0.61930300  0.41528300  0.10166600  1
  O  O23  1  0.01763700  0.31361800  0.89833400  1
  O  O24  1  0.79598000  0.41528300  0.81361800  1
  O  O25  1  0.48236300  0.38069700  0.29598000  1
  O  O26  1  0.31361800  0.89833400  0.01763700  1
  O  O27  1  0.08471700  0.70402000  0.68638200  1
  O  O28  1  0.08471700  0.88069700  0.39833400  1
  O  O29  1  0.51763700  0.61930300  0.70402000  1
  O  O30  1  0.20402000  0.58471700  0.18638200  1
  O  O31  1  0.39833400  0.81361800  0.51763700  1
  O  O32  1  0.18638200  0.20402000  0.58471700  1
  O  O33  1  0.81361800  0.51763700  0.39833400  1
  O  O34  1  0.79598000  0.88069700  0.98236300  1
  O  O35  1  0.20402000  0.11930300  0.01763700  1
  O  O36  1  0.31361800  0.91528300  0.29598000  1
  O  O37  1  0.48236300  0.60166600  0.18638200  1
  O  O38  1  0.11930300  0.01763700  0.20402000  1
  O  O39  1  0.58471700  0.89833400  0.38069700  1
  O  O40  1  0.89833400  0.01763700  0.31361800  1
  O  O41  1  0.89833400  0.38069700  0.58471700  1
  O  O42  1  0.41528300  0.81361800  0.79598000  1
  O  O43  1  0.29598000  0.31361800  0.91528300  1
  O  O44  1  0.10166600  0.61930300  0.41528300  1
  O  O45  1  0.91528300  0.29598000  0.31361800  1
  O  O46  1  0.51763700  0.39833400  0.81361800  1
  O  O47  1  0.29598000  0.48236300  0.38069700  1
loop_
_geom_bond_atom_site_label_1
_geom_bond_atom_site_label_2
_geom_bond_distance
_geom_bond_site_symmetry_2
Al0 O13 1.904536 1_555
Al0 O33 1.904536 1_455
Al0 O45 1.904539 1_455
Al0 O27 1.904539 1_555
Al0 O44 1.904544 1_555
Al0 O41 1.904544 1_455
Al1 O23 1.904536 1_554
Al1 O19 1.904536 1_455
Al1 O30 1.904539 1_555
Al1 O24 1.904539 1_454
Al1 O21 1.904544 1_455
Al1 O7 1.904544 1_554
Al2 O47 1.904544 1_555
Al2 O10 1.904544 1_555
Al2 O6 1.904544 1_555
Al2 O18 1.904544 1_555
Al2 O25 1.904544 1_555
Al2 O29 1.904544 1_555
Al3 O34 1.904544 1_444
Al3 O12 1.904544 1_444
Al3 O38 1.904544 1_555
Al3 O4 1.904544 1_555
Al3 O20 1.904544 1_444
Al3 O35 1.904544 1_555
Al4 O37 1.904536 1_555
Al4 O46 1.904536 1_554
Al4 O43 1.904539 1_554
Al4 O8 1.904539 1_555
Al4 O22 1.904544 1_555
Al4 O2 1.904544 1_554
Al5 O11 1.904536 1_555
Al5 O31 1.904536 1_545
Al5 O36 1.904539 1_545
Al5 O16 1.904539 1_555
Al5 O5 1.904544 1_555
Al5 O39 1.904544 1_545
Al6 O40 1.904536 1_455
Al6 O14 1.904536 1_545
Al6 O17 1.904539 1_445
Al6 O32 1.904539 1_555
Al6 O28 1.904544 1_545
Al6 O15 1.904544 1_455
Al7 O26 1.904536 1_545
Al7 O9 1.904536 1_554
Al7 O1 1.904539 1_555
Al7 O42 1.904539 1_544
Al7 O0 1.904544 1_554
Al7 O3 1.904544 1_545
Co0 O16 2.231001 1_565
Co0 O42 2.231001 1_555
Co0 O20 2.231001 1_555
Co0 O29 2.231001 1_555
Co0 O34 2.354657 1_555
Co0 O18 2.354657 1_555
Co0 O9 2.354661 1_565
Co0 O31 2.354661 1_555
Co1 O40 2.230998 1_555
Co1 O11 2.230998 1_555
Co1 O3 2.231001 1_545
Co1 O41 2.231001 1_555
Co1 O1 2.354650 1_555
Co1 O45 2.354650 1_555
Co1 O39 2.354657 1_545
Co1 O15 2.354657 1_555
Co2 O9 2.230998 1_555
Co2 O46 2.230998 1_555
Co2 O21 2.231001 1_556
Co2 O5 2.231001 1_555
Co2 O16 2.354650 1_555
Co2 O24 2.354650 1_555
Co2 O0 2.354657 1_555
Co2 O22 2.354657 1_556
Co3 O32 2.231001 1_555
Co3 O45 2.231001 1_455
Co3 O4 2.231001 1_555
Co3 O6 2.231001 1_555
Co3 O38 2.354657 1_555
Co3 O47 2.354657 1_555
Co3 O13 2.354661 1_555
Co3 O40 2.354661 1_455
Co4 O30 2.231001 1_555
Co4 O43 2.231001 1_554
Co4 O47 2.231001 1_555
Co4 O35 2.231001 1_555
Co4 O4 2.354657 1_555
Co4 O25 2.354657 1_555
Co4 O23 2.354661 1_554
Co4 O37 2.354661 1_555
Co5 O27 2.231001 1_655
Co5 O17 2.231001 1_555
Co5 O18 2.231001 1_555
Co5 O12 2.231001 1_555
Co5 O20 2.354657 1_555
Co5 O10 2.354657 1_555
Co5 O33 2.354661 1_555
Co5 O14 2.354661 1_655
Co6 O19 2.230998 1_555
Co6 O33 2.230998 1_555
Co6 O28 2.231001 1_655
Co6 O22 2.231001 1_555
Co6 O8 2.354650 1_555
Co6 O17 2.354650 1_555
Co6 O21 2.354657 1_555
Co6 O44 2.354657 1_655
Co7 O13 2.230998 1_555
Co7 O23 2.230998 1_555
Co7 O2 2.231001 1_555
Co7 O15 2.231001 1_455
Co7 O43 2.354650 1_555
Co7 O32 2.354650 1_555
Co7 O41 2.354657 1_455
Co7 O7 2.354657 1_555
Co8 O36 2.231001 1_545
Co8 O1 2.231001 1_555
Co8 O25 2.231001 1_555
Co8 O38 2.231001 1_555
Co8 O6 2.354657 1_555
Co8 O35 2.354657 1_555
Co8 O11 2.354661 1_555
Co8 O26 2.354661 1_545
Co9 O14 2.230998 1_555
Co9 O31 2.230998 1_555
Co9 O0 2.231001 1_565
Co9 O44 2.231001 1_555
Co9 O42 2.354650 1_555
Co9 O27 2.354650 1_555
Co9 O28 2.354657 1_555
Co9 O5 2.354657 1_565
Co10 O8 2.231001 1_556
Co10 O24 2.231001 1_555
Co10 O34 2.231001 1_555
Co10 O10 2.231001 1_555
Co10 O12 2.354657 1_555
Co10 O29 2.354657 1_555
Co10 O46 2.354661 1_555
Co10 O19 2.354661 1_556
Co11 O37 2.230998 1_555
Co11 O26 2.230998 1_555
Co11 O7 2.231001 1_554
Co11 O39 2.231001 1_555
Co11 O30 2.354650 1_555
Co11 O36 2.354650 1_555
Co11 O3 2.354657 1_555
Co11 O2 2.354657 1_554
O0 Si8 1.653223 1_555
O1 Si5 1.653233 1_555
O2 Si3 1.653223 1_555
O3 Si1 1.653223 1_555
O4 Si0 1.653223 1_455
O5 Si9 1.653223 1_555
O6 Si9 1.653223 1_555
O7 Si2 1.653223 1_555
O8 Si1 1.653233 1_555
O9 Si0 1.653228 1_556
O10 Si6 1.653223 1_555
O11 Si6 1.653228 1_555
O12 Si2 1.653223 1_655
O13 Si3 1.653228 1_555
O14 Si8 1.653228 1_565
O15 Si11 1.653223 1_555
O16 Si11 1.653233 1_555
O17 Si4 1.653233 1_555
O18 Si4 1.653223 1_555
O19 Si10 1.653228 1_655
O20 Si11 1.653223 1_565
O21 Si0 1.653223 1_555
O22 Si5 1.653223 1_555
O23 Si11 1.653228 1_455
O24 Si6 1.653233 1_555
O25 Si5 1.653223 1_555
O26 Si2 1.653228 1_554
O27 Si2 1.653233 1_555
O28 Si10 1.653223 1_555
O29 Si3 1.653223 1_555
O30 Si7 1.653233 1_555
O31 Si7 1.653228 1_555
O32 Si9 1.653233 1_555
O33 Si5 1.653228 1_555
O34 Si1 1.653223 1_556
O35 Si8 1.653223 1_554
O36 Si10 1.653233 1_555
O37 Si4 1.653228 1_555
O38 Si10 1.653223 1_545
O39 Si4 1.653223 1_555
O40 Si1 1.653228 1_545
O41 Si6 1.653223 1_555
O42 Si3 1.653233 1_555
O43 Si8 1.653233 1_555
O44 Si7 1.653223 1_555
O45 Si0 1.653233 1_555
O46 Si9 1.653228 1_555
O47 Si7 1.653223 1_555
