# generated using pymatgen
data_Np2InRh2
_symmetry_space_group_name_H-M   'P 1'
_cell_length_a   7.61062824
_cell_length_b   7.61062824
_cell_length_c   3.65053289
_cell_angle_alpha   90.00000000
_cell_angle_beta   90.00000000
_cell_angle_gamma   90.00000000
_symmetry_Int_Tables_number   1
_chemical_formula_structural   Np2InRh2
_chemical_formula_sum   'Np4 In2 Rh4'
_cell_volume   211.44493293
_cell_formula_units_Z   2
loop_
 _symmetry_equiv_pos_site_id
 _symmetry_equiv_pos_as_xyz
  1  'x, y, z'
loop_
 _atom_site_type_symbol
 _atom_site_label
 _atom_site_symmetry_multiplicity
 _atom_site_fract_x
 _atom_site_fract_y
 _atom_site_fract_z
 _atom_site_occupancy
  Np  Np0  1  0.66949042  0.83050958  0.50000000  1
  Np  Np1  1  0.33050958  0.16949042  0.50000000  1
  Np  Np2  1  0.83050958  0.33050958  0.50000000  1
  Np  Np3  1  0.16949042  0.66949042  0.50000000  1
  In  In0  1  0.50000000  0.50000000  -0.00000000  1
  In  In1  1  0.00000000  0.00000000  -0.00000000  1
  Rh  Rh0  1  0.86500557  0.63499443  -0.00000000  1
  Rh  Rh1  1  0.63499443  0.13499443  -0.00000000  1
  Rh  Rh2  1  0.13499443  0.36500557  0.00000000  1
  Rh  Rh3  1  0.36500557  0.86500557  0.00000000  1
loop_
_geom_bond_atom_site_label_1
_geom_bond_atom_site_label_2
_geom_bond_distance
_geom_bond_site_symmetry_2
Np0 Rh0 2.785650 1_555
Np0 Rh0 2.785650 1_556
Np0 Rh1 2.961503 1_566
Np0 Rh1 2.961503 1_565
Np0 Rh3 2.961503 1_556
Np0 Rh3 2.961503 1_555
Np1 Rh2 2.785650 1_556
Np1 Rh2 2.785650 1_555
Np1 Rh1 2.961503 1_555
Np1 Rh1 2.961503 1_556
Np1 Rh3 2.961503 1_546
Np1 Rh3 2.961503 1_545
Np2 Rh1 2.785650 1_555
Np2 Rh1 2.785650 1_556
Np2 Rh0 2.961503 1_555
Np2 Rh2 2.961503 1_655
Np2 Rh2 2.961503 1_656
Np2 Rh0 2.961503 1_556
Np3 Rh3 2.785650 1_555
Np3 Rh3 2.785650 1_556
Np3 Rh0 2.961503 1_455
Np3 Rh2 2.961503 1_556
Np3 Rh0 2.961503 1_456
Np3 Rh2 2.961503 1_555
In0 Rh0 2.961821 1_555
In0 Rh1 2.961821 1_555
In0 Rh3 2.961821 1_555
In0 Rh2 2.961821 1_555
In0 Np0 3.364919 1_555
In0 Np1 3.364919 1_554
In0 Np3 3.364919 1_554
In0 Np2 3.364919 1_554
In0 Np1 3.364919 1_555
In0 Np0 3.364919 1_554
In0 Np2 3.364919 1_555
In0 Np3 3.364919 1_555
In1 Rh1 2.961821 1_455
In1 Rh0 2.961821 1_445
In1 Rh3 2.961821 1_545
In1 Rh2 2.961821 1_555
In1 Np0 3.364919 1_445
In1 Np3 3.364919 1_545
In1 Np0 3.364919 1_444
In1 Np3 3.364919 1_544
In1 Np2 3.364919 1_455
In1 Np1 3.364919 1_555
In1 Np2 3.364919 1_454
In1 Np1 3.364919 1_554
