# generated using pymatgen
data_BaVOF4
_symmetry_space_group_name_H-M   'P 1'
_cell_length_a   14.65521853
_cell_length_b   14.59190452
_cell_length_c   5.49843459
_cell_angle_alpha   79.81266842
_cell_angle_beta   78.51665345
_cell_angle_gamma   21.67067813
_symmetry_Int_Tables_number   1
_chemical_formula_structural   BaVOF4
_chemical_formula_sum   'Ba4 V4 O4 F16'
_cell_volume   425.39965004
_cell_formula_units_Z   4
loop_
 _symmetry_equiv_pos_site_id
 _symmetry_equiv_pos_as_xyz
  1  'x, y, z'
loop_
 _atom_site_type_symbol
 _atom_site_label
 _atom_site_symmetry_multiplicity
 _atom_site_fract_x
 _atom_site_fract_y
 _atom_site_fract_z
 _atom_site_occupancy
  Ba  Ba0  1  0.67981700  0.70802100  0.29652100  1
  Ba  Ba1  1  0.32497900  0.28376300  0.70056100  1
  Ba  Ba2  1  0.96124300  0.92753400  0.57432100  1
  Ba  Ba3  1  0.54912100  0.56308800  0.93073200  1
  V  V0  1  0.42129900  0.42421700  0.08493300  1
  V  V1  1  0.83359200  0.82400700  0.18002700  1
  V  V2  1  0.07980600  0.07587400  0.40798900  1
  V  V3  1  0.16842800  0.17993100  0.82211900  1
  O  O0  1  0.10569500  0.30107800  0.55733700  1
  O  O1  1  0.03919000  0.55671900  0.30289100  1
  O  O2  1  0.94967700  0.14357000  0.21720000  1
  O  O3  1  0.68299300  0.22553700  0.15184300  1
  F  F0  1  0.21571200  0.72252900  0.11062400  1
  F  F1  1  0.28881200  0.97473400  0.17091300  1
  F  F2  1  0.47274000  0.43116400  0.72259900  1
  F  F3  1  0.12964400  0.31040500  0.03304200  1
  F  F4  1  0.37188000  0.72482500  0.42932900  1
  F  F5  1  0.53540600  0.03026100  0.30402500  1
  F  F6  1  0.52069500  0.88203300  0.77610500  1
  F  F7  1  0.82241600  0.39919400  0.50182300  1
  F  F8  1  0.81245400  0.78875900  0.87539700  1
  F  F9  1  0.28154400  0.49377600  0.41291800  1
  F  F10  1  0.27699900  0.96010700  0.68210800  1
  F  F11  1  0.83667500  0.43737700  0.97230800  1
  F  F12  1  0.09056600  0.67515200  0.96606500  1
  F  F13  1  0.56604600  0.16890800  0.97675800  1
  F  F14  1  0.75947800  0.96490800  0.43624000  1
  F  F15  1  0.93725500  0.12335000  0.71322300  1
loop_
_geom_bond_atom_site_label_1
_geom_bond_atom_site_label_2
_geom_bond_distance
_geom_bond_site_symmetry_2
Ba0 F3 2.701988 1_655
Ba0 F7 2.754107 1_555
Ba0 F1 2.763001 1_555
Ba0 F6 2.784520 1_555
Ba0 O0 2.817618 1_655
Ba0 F11 2.836148 1_554
Ba0 F5 2.851001 1_565
Ba0 F6 3.025679 1_554
Ba1 F5 2.630700 1_555
Ba1 F9 2.712646 1_555
Ba1 O1 2.783351 1_555
Ba1 F3 2.790573 1_556
Ba1 F13 2.797751 1_555
Ba1 F14 2.819303 1_545
Ba1 F8 2.898117 1_455
Ba1 F8 2.915979 1_545
Ba2 F14 2.714290 1_555
Ba2 F0 2.744809 1_655
Ba2 F12 2.764195 1_655
Ba2 F15 2.769343 1_565
Ba2 F2 2.816586 1_565
Ba2 F9 2.826615 1_655
Ba2 O3 2.859105 1_565
Ba2 F2 2.957729 1_655
Ba3 F11 2.653998 1_555
Ba3 F15 2.669492 1_555
Ba3 F7 2.784564 1_555
Ba3 F10 2.786192 1_555
Ba3 F4 2.809288 1_556
Ba3 O2 2.809741 1_556
Ba3 F0 2.833143 1_556
Ba3 F4 3.012202 1_555
O0 V3 1.640632 1_555
O1 V1 1.668250 1_455
O2 V2 1.625367 1_655
O3 V0 1.663662 1_555
F0 V0 1.928096 1_555
F1 V2 1.987000 1_565
F1 V3 2.292051 1_564
F2 V0 2.005076 1_556
F3 V3 1.949373 1_554
F4 V2 1.951828 1_565
F5 V1 1.927186 1_545
F6 V3 1.941768 1_565
F7 V2 1.939686 1_655
F8 V1 1.993383 1_556
F9 V0 1.946876 1_555
F10 V3 2.076783 1_565
F10 V2 2.288454 1_565
F11 V3 1.996030 1_655
F12 V1 2.054458 1_456
F12 V0 2.180776 1_556
F13 V0 2.079813 1_556
F13 V1 2.242738 1_546
F14 V1 1.912132 1_555
F15 V2 1.996580 1_655
