# generated using pymatgen
data_Fe7S8
_symmetry_space_group_name_H-M   'P 1'
_cell_length_a   5.73976428
_cell_length_b   6.15051429
_cell_length_c   11.17199607
_cell_angle_alpha   83.35401582
_cell_angle_beta   89.96853358
_cell_angle_gamma   90.01344422
_symmetry_Int_Tables_number   1
_chemical_formula_structural   Fe7S8
_chemical_formula_sum   'Fe14 S16'
_cell_volume   391.74905430
_cell_formula_units_Z   2
loop_
 _symmetry_equiv_pos_site_id
 _symmetry_equiv_pos_as_xyz
  1  'x, y, z'
loop_
 _atom_site_type_symbol
 _atom_site_label
 _atom_site_symmetry_multiplicity
 _atom_site_fract_x
 _atom_site_fract_y
 _atom_site_fract_z
 _atom_site_occupancy
  Fe  Fe0  1  0.99740400  0.02651600  0.00213700  1
  Fe  Fe1  1  0.52458200  0.13428500  0.14236000  1
  Fe  Fe2  1  0.48289400  0.47699500  0.98299100  1
  Fe  Fe3  1  0.98356500  0.27202300  0.26805600  1
  Fe  Fe4  1  0.02567700  0.61657900  0.10737600  1
  Fe  Fe5  1  0.49768500  0.72373200  0.24783400  1
  Fe  Fe6  1  0.01676300  0.47766800  0.48263000  1
  Fe  Fe7  1  0.99971000  0.87452900  0.37483700  1
  Fe  Fe8  1  0.50328300  0.02579100  0.50267900  1
  Fe  Fe9  1  0.47382500  0.61545600  0.60712700  1
  Fe  Fe10  1  0.00214400  0.72400200  0.74810700  1
  Fe  Fe11  1  0.97325500  0.13463100  0.64247400  1
  Fe  Fe12  1  0.50024900  0.87495600  0.87511600  1
  Fe  Fe13  1  0.51761300  0.27280700  0.76674000  1
  S  S0  1  0.83254100  0.32070600  0.05923400  1
  S  S1  1  0.33527600  0.42945100  0.18963300  1
  S  S2  1  0.67188400  0.80637700  0.06345400  1
  S  S3  1  0.83690900  0.58582400  0.30068700  1
  S  S4  1  0.17286900  0.94325400  0.18651000  1
  S  S5  1  0.33072300  0.69487200  0.42605300  1
  S  S6  1  0.66965500  0.05664000  0.32362000  1
  S  S7  1  0.82751000  0.80672900  0.56352600  1
  S  S8  1  0.16341800  0.16370000  0.44899500  1
  S  S9  1  0.32778300  0.94218800  0.68649900  1
  S  S10  1  0.66545300  0.32111000  0.55902000  1
  S  S11  1  0.83102500  0.05521300  0.82398900  1
  S  S12  1  0.16637900  0.42945100  0.69118000  1
  S  S13  1  0.33781500  0.16528400  0.94957400  1
  S  S14  1  0.66199500  0.58572900  0.80114200  1
  S  S15  1  0.17011700  0.69350400  0.92642200  1
loop_
_geom_bond_atom_site_label_1
_geom_bond_atom_site_label_2
_geom_bond_distance
_geom_bond_site_symmetry_2
Fe0 S13 2.184693 1_654
Fe0 S11 2.196624 1_554
Fe0 S0 2.200827 1_555
Fe0 S4 2.297336 1_645
Fe0 S2 2.361391 1_545
Fe0 S15 2.508870 1_644
Fe1 S6 2.190979 1_555
Fe1 S1 2.231042 1_555
Fe1 S0 2.247740 1_555
Fe1 S4 2.358553 1_545
Fe1 S13 2.394157 1_554
Fe1 S2 2.443551 1_545
Fe2 S13 2.161864 1_555
Fe2 S15 2.281059 1_555
Fe2 S14 2.305296 1_555
Fe2 S0 2.343166 1_556
Fe2 S1 2.444287 1_556
Fe2 S2 2.551567 1_556
Fe3 S3 2.174813 1_555
Fe3 S6 2.279012 1_555
Fe3 S8 2.299280 1_655
Fe3 S1 2.362464 1_655
Fe3 S0 2.474756 1_555
Fe3 S4 2.554570 1_645
Fe4 S15 2.185107 1_554
Fe4 S0 2.248554 1_455
Fe4 S1 2.254976 1_555
Fe4 S2 2.365759 1_455
Fe4 S3 2.403469 1_455
Fe4 S4 2.437934 1_555
Fe5 S3 2.178367 1_555
Fe5 S5 2.197780 1_555
Fe5 S1 2.200018 1_555
Fe5 S2 2.292683 1_555
Fe5 S4 2.357262 1_555
Fe5 S6 2.506971 1_565
Fe6 S8 2.178798 1_555
Fe6 S5 2.287743 1_555
Fe6 S3 2.308587 1_455
Fe6 S10 2.351285 1_455
Fe6 S12 2.469074 1_555
Fe6 S7 2.552698 1_455
Fe7 S5 2.239191 1_655
Fe7 S6 2.241587 1_565
Fe7 S3 2.247897 1_555
Fe7 S8 2.252492 1_665
Fe7 S4 2.320541 1_655
Fe7 S7 2.321346 1_555
Fe8 S8 2.183778 1_555
Fe8 S10 2.196880 1_555
Fe8 S6 2.204461 1_555
Fe8 S9 2.291199 1_545
Fe8 S7 2.351866 1_545
Fe8 S5 2.501934 1_545
Fe9 S5 2.186067 1_555
Fe9 S10 2.236428 1_555
Fe9 S12 2.247935 1_555
Fe9 S7 2.368034 1_555
Fe9 S14 2.410203 1_555
Fe9 S9 2.437168 1_555
Fe10 S14 2.183440 1_455
Fe10 S12 2.200451 1_555
Fe10 S15 2.202050 1_555
Fe10 S7 2.296883 1_455
Fe10 S9 2.356204 1_555
Fe10 S11 2.496594 1_465
Fe11 S11 2.187711 1_555
Fe11 S12 2.245212 1_655
Fe11 S10 2.249723 1_555
Fe11 S9 2.377226 1_645
Fe11 S8 2.409038 1_655
Fe11 S7 2.440664 1_545
Fe12 S11 2.238582 1_565
Fe12 S15 2.239279 1_555
Fe12 S14 2.247129 1_555
Fe12 S13 2.256893 1_565
Fe12 S2 2.317919 1_556
Fe12 S9 2.322095 1_555
Fe13 S14 2.170142 1_555
Fe13 S11 2.289214 1_555
Fe13 S13 2.315028 1_555
Fe13 S12 2.349384 1_555
Fe13 S10 2.455986 1_555
Fe13 S9 2.558871 1_545
