# generated using pymatgen
data_Li3V2(PO4)3
_symmetry_space_group_name_H-M   'P 1'
_cell_length_a   11.30315500
_cell_length_b   9.31111300
_cell_length_c   10.46556195
_cell_angle_alpha   85.02554763
_cell_angle_beta   90.00000000
_cell_angle_gamma   90.00000000
_symmetry_Int_Tables_number   1
_chemical_formula_structural   Li3V2(PO4)3
_chemical_formula_sum   'Li12 V8 P12 O48'
_cell_volume   1097.29893482
_cell_formula_units_Z   4
loop_
 _symmetry_equiv_pos_site_id
 _symmetry_equiv_pos_as_xyz
  1  'x, y, z'
loop_
 _atom_site_type_symbol
 _atom_site_label
 _atom_site_symmetry_multiplicity
 _atom_site_fract_x
 _atom_site_fract_y
 _atom_site_fract_z
 _atom_site_occupancy
  Li  Li0  1  0.05943100  0.09472600  0.15928800  1
  Li  Li1  1  0.05943100  0.90527400  0.84071200  1
  Li  Li2  1  0.40045600  0.56921700  0.38067900  1
  Li  Li3  1  0.40045600  0.43078300  0.61932100  1
  Li  Li4  1  0.37193300  0.13883300  0.22537600  1
  Li  Li5  1  0.37193300  0.86116700  0.77462400  1
  Li  Li6  1  0.61851000  0.38245700  0.19659100  1
  Li  Li7  1  0.61851000  0.61754300  0.80340900  1
  Li  Li8  1  0.77206000  0.16669500  0.55371000  1
  Li  Li9  1  0.77206000  0.83330500  0.44629000  1
  Li  Li10  1  0.01750700  0.18265900  0.53737600  1
  Li  Li11  1  0.01750700  0.81734100  0.46262400  1
  V  V0  1  0.26609800  0.16749300  0.75055500  1
  V  V1  1  0.26609800  0.83250700  0.24944500  1
  V  V2  1  0.23094200  0.48061600  0.16813600  1
  V  V3  1  0.23094200  0.51938400  0.83186400  1
  V  V4  1  0.74964700  0.29588800  0.76948800  1
  V  V5  1  0.74964700  0.70411200  0.23051200  1
  V  V6  1  0.79534200  0.87359500  0.71823900  1
  V  V7  1  0.79534200  0.12640500  0.28176100  1
  P  P0  1  0.15462700  0.50000000  0.50000000  1
  P  P1  1  0.82865000  0.43193800  0.40839200  1
  P  P2  1  0.82865000  0.56806200  0.59160800  1
  P  P3  1  0.58311300  0.81334400  0.96763600  1
  P  P4  1  0.58311300  0.18665600  0.03236400  1
  P  P5  1  0.46370000  0.00000000  0.00000000  1
  P  P6  1  0.58021300  0.00000000  0.50000000  1
  P  P7  1  0.41936600  0.82499900  0.50653300  1
  P  P8  1  0.41936600  0.17500100  0.49346700  1
  P  P9  1  0.07589600  0.66693600  0.03764100  1
  P  P10  1  0.07589600  0.33306400  0.96235900  1
  P  P11  1  0.81046000  0.50000000  0.00000000  1
  O  O0  1  0.06036900  0.53816800  0.14617300  1
  O  O1  1  0.06036900  0.46183200  0.85382700  1
  O  O2  1  0.16283100  0.92199100  0.11985500  1
  O  O3  1  0.16283100  0.07800900  0.88014500  1
  O  O4  1  0.23421600  0.50770200  0.61823600  1
  O  O5  1  0.23421600  0.49229800  0.38176400  1
  O  O6  1  0.09796000  0.21172500  0.84245400  1
  O  O7  1  0.09796000  0.78827500  0.15754600  1
  O  O8  1  0.17632600  0.82712700  0.37826000  1
  O  O9  1  0.17632600  0.17287300  0.62174000  1
  O  O10  1  0.20039600  0.83870200  0.76313100  1
  O  O11  1  0.20039600  0.16129800  0.23686900  1
  O  O12  1  0.31771200  0.66131900  0.21615400  1
  O  O13  1  0.31771200  0.33868100  0.78384600  1
  O  O14  1  0.20952300  0.63629800  0.99237900  1
  O  O15  1  0.20952300  0.36370200  0.00762100  1
  O  O16  1  0.26214600  0.28922200  0.24884900  1
  O  O17  1  0.26214600  0.71077800  0.75115100  1
  O  O18  1  0.39175000  0.97735300  0.12499600  1
  O  O19  1  0.39175000  0.02264700  0.87500400  1
  O  O20  1  0.45409600  0.66521100  0.53035300  1
  O  O21  1  0.45409600  0.33478900  0.46964700  1
  O  O22  1  0.40126400  0.86886600  0.35711400  1
  O  O23  1  0.40126400  0.13113400  0.64288600  1
  O  O24  1  0.65799700  0.14636600  0.15394300  1
  O  O25  1  0.65799700  0.85363400  0.84605700  1
  O  O26  1  0.50717900  0.68522200  0.93810600  1
  O  O27  1  0.50717900  0.31477800  0.06189400  1
  O  O28  1  0.65969900  0.99454700  0.62066100  1
  O  O29  1  0.65969900  0.00545300  0.37933900  1
  O  O30  1  0.66037200  0.19846800  0.90957600  1
  O  O31  1  0.66037200  0.80153200  0.09042400  1
  O  O32  1  0.65267300  0.31475400  0.65146300  1
  O  O33  1  0.65267300  0.68524600  0.34853700  1
  O  O34  1  0.74034200  0.32018800  0.34614100  1
  O  O35  1  0.74034200  0.67981200  0.65385900  1
  O  O36  1  0.83480900  0.15488900  0.73313900  1
  O  O37  1  0.83480900  0.84511100  0.26686100  1
  O  O38  1  0.89270800  0.14537900  0.16320100  1
  O  O39  1  0.89270800  0.85462100  0.83679900  1
  O  O40  1  0.93151100  0.34515600  0.46602300  1
  O  O41  1  0.93151100  0.65484400  0.53397700  1
  O  O42  1  0.72593200  0.53654200  0.10837700  1
  O  O43  1  0.72593200  0.46345800  0.89162300  1
  O  O44  1  0.88391700  0.90487800  0.58940200  1
  O  O45  1  0.88391700  0.09512200  0.41059800  1
  O  O46  1  0.85682200  0.44630000  0.69686000  1
  O  O47  1  0.85682200  0.55370000  0.30314000  1
loop_
_geom_bond_atom_site_label_1
_geom_bond_atom_site_label_2
_geom_bond_distance
_geom_bond_site_symmetry_2
Li0 O11 1.915593 1_555
Li0 O38 1.943911 1_455
Li0 O2 2.058688 1_545
Li1 O10 1.915593 1_555
Li1 O39 1.943911 1_455
Li1 O3 2.058688 1_565
Li2 O20 1.965448 1_555
Li2 O5 2.010582 1_555
Li2 O12 2.078181 1_555
Li2 O21 2.376266 1_555
Li3 O21 1.965448 1_555
Li3 O4 2.010582 1_555
Li3 O13 2.078181 1_555
Li3 O20 2.376266 1_555
Li4 O16 1.902825 1_555
Li4 O18 1.920523 1_545
Li4 O11 1.954982 1_555
Li5 O17 1.902825 1_555
Li5 O19 1.920523 1_565
Li5 O10 1.954982 1_555
Li6 O27 2.030250 1_555
Li6 O42 2.038451 1_555
Li6 O34 2.127151 1_555
Li6 O24 2.323999 1_555
Li7 O26 2.030250 1_555
Li7 O43 2.038451 1_555
Li7 O35 2.127151 1_555
Li7 O25 2.323999 1_555
Li8 O36 2.001391 1_555
Li8 O45 2.111638 1_555
Li8 O28 2.116228 1_545
Li8 O32 2.238914 1_555
Li8 O34 2.520258 1_555
Li8 O40 2.566542 1_555
Li9 O37 2.001391 1_555
Li9 O44 2.111638 1_555
Li9 O29 2.116228 1_565
Li9 O33 2.238914 1_555
Li9 O35 2.520258 1_555
Li9 O41 2.566542 1_555
Li10 O40 1.896254 1_455
Li10 O9 1.999119 1_555
Li10 O45 2.211866 1_455
Li11 O41 1.896254 1_455
Li11 O8 1.999119 1_555
Li11 O44 2.211866 1_455
O0 P9 1.588179 1_555
O0 V2 2.008947 1_555
O1 P10 1.588179 1_555
O1 V3 2.008947 1_555
O2 O7 1.469086 1_555
O2 V1 1.923556 1_555
O3 O6 1.469086 1_555
O3 V0 1.923556 1_555
O4 P0 1.536554 1_555
O4 V3 2.248087 1_555
O5 P0 1.536554 1_555
O5 V2 2.248087 1_555
O6 P10 1.777421 1_555
O6 V0 2.185220 1_555
O7 P9 1.777421 1_555
O7 V1 2.185220 1_555
O8 V1 1.684595 1_555
O9 V0 1.684595 1_555
O10 O17 1.395541 1_555
O11 O16 1.395541 1_555
O12 V1 1.760322 1_555
O12 V2 2.047452 1_555
O13 V0 1.760322 1_555
O13 V3 2.047452 1_555
O14 P9 1.615713 1_556
O14 V3 2.093514 1_555
O14 V2 2.254073 1_556
O15 P10 1.615713 1_554
O15 V2 2.093514 1_555
O15 V3 2.254073 1_554
O16 V2 1.937193 1_555
O17 V3 1.937193 1_555
O18 P5 1.539249 1_565
O18 V1 2.286433 1_555
O19 P5 1.539249 1_556
O19 V0 2.286433 1_555
O20 P7 1.538014 1_555
O21 P8 1.538014 1_555
O22 P7 1.594759 1_555
O22 V1 1.945421 1_555
O23 P8 1.594759 1_555
O23 V0 1.945421 1_555
O24 P4 1.547053 1_555
O24 V7 2.047164 1_555
O25 P3 1.547053 1_555
O25 V6 2.047164 1_555
O26 P3 1.522914 1_555
O27 P4 1.522914 1_555
O28 P6 1.547024 1_565
O28 V6 2.112444 1_555
O29 P6 1.547024 1_555
O29 V7 2.112444 1_555
O30 P4 1.549687 1_556
O30 V4 1.939043 1_555
O31 P3 1.549687 1_554
O31 V5 1.939043 1_555
O32 V4 1.649365 1_555
O33 V5 1.649365 1_555
O34 P1 1.618950 1_555
O34 V7 2.075309 1_555
O35 P2 1.618950 1_555
O35 V6 2.075309 1_555
O36 V4 1.697504 1_555
O37 V5 1.697504 1_555
O38 V7 1.656493 1_555
O39 V6 1.656493 1_555
O40 P1 1.511273 1_555
O41 P2 1.511273 1_555
O42 P11 1.543378 1_555
O42 V5 2.118010 1_555
O43 P11 1.543378 1_556
O43 V4 2.118010 1_555
O44 V6 1.684381 1_555
O45 V7 1.684381 1_555
O46 P2 1.543871 1_555
O46 V4 1.955011 1_555
O47 P1 1.543871 1_555
O47 V5 1.955011 1_555
