# generated using pymatgen
data_Ca3Y2(GeO4)3
_symmetry_space_group_name_H-M   'P 1'
_cell_length_a   11.22161597
_cell_length_b   11.22161597
_cell_length_c   11.22161597
_cell_angle_alpha   109.47122063
_cell_angle_beta   109.47122063
_cell_angle_gamma   109.47122063
_symmetry_Int_Tables_number   1
_chemical_formula_structural   Ca3Y2(GeO4)3
_chemical_formula_sum   'Ca12 Y8 Ge12 O48'
_cell_volume   1087.78812930
_cell_formula_units_Z   4
loop_
 _symmetry_equiv_pos_site_id
 _symmetry_equiv_pos_as_xyz
  1  'x, y, z'
loop_
 _atom_site_type_symbol
 _atom_site_label
 _atom_site_symmetry_multiplicity
 _atom_site_fract_x
 _atom_site_fract_y
 _atom_site_fract_z
 _atom_site_occupancy
  Ca  Ca0  1  0.25000000  0.37500000  0.12500000  1
  Ca  Ca1  1  0.87500000  0.62500000  0.25000000  1
  Ca  Ca2  1  0.12500000  0.25000000  0.37500000  1
  Ca  Ca3  1  0.75000000  0.62500000  0.87500000  1
  Ca  Ca4  1  0.37500000  0.75000000  0.12500000  1
  Ca  Ca5  1  0.37500000  0.12500000  0.25000000  1
  Ca  Ca6  1  0.25000000  0.87500000  0.62500000  1
  Ca  Ca7  1  0.87500000  0.75000000  0.62500000  1
  Ca  Ca8  1  0.62500000  0.25000000  0.87500000  1
  Ca  Ca9  1  0.62500000  0.87500000  0.75000000  1
  Ca  Ca10  1  0.75000000  0.12500000  0.37500000  1
  Ca  Ca11  1  0.12500000  0.37500000  0.75000000  1
  Y  Y0  1  0.50000000  0.50000000  0.50000000  1
  Y  Y1  1  0.50000000  0.00000000  0.00000000  1
  Y  Y2  1  0.50000000  0.00000000  0.50000000  1
  Y  Y3  1  0.50000000  0.50000000  0.00000000  1
  Y  Y4  1  0.00000000  0.00000000  0.00000000  1
  Y  Y5  1  0.00000000  0.50000000  0.50000000  1
  Y  Y6  1  0.00000000  0.50000000  0.00000000  1
  Y  Y7  1  0.00000000  0.00000000  0.50000000  1
  Ge  Ge0  1  0.12500000  0.87500000  0.25000000  1
  Ge  Ge1  1  0.12500000  0.75000000  0.87500000  1
  Ge  Ge2  1  0.87500000  0.12500000  0.75000000  1
  Ge  Ge3  1  0.62500000  0.75000000  0.37500000  1
  Ge  Ge4  1  0.75000000  0.37500000  0.62500000  1
  Ge  Ge5  1  0.37500000  0.25000000  0.62500000  1
  Ge  Ge6  1  0.25000000  0.12500000  0.87500000  1
  Ge  Ge7  1  0.75000000  0.87500000  0.12500000  1
  Ge  Ge8  1  0.87500000  0.25000000  0.12500000  1
  Ge  Ge9  1  0.37500000  0.62500000  0.75000000  1
  Ge  Ge10  1  0.25000000  0.62500000  0.37500000  1
  Ge  Ge11  1  0.62500000  0.37500000  0.25000000  1
  O  O0  1  0.09177900  0.71699900  0.69656900  1
  O  O1  1  0.78300100  0.87478000  0.97957000  1
  O  O2  1  0.71699900  0.69656900  0.09177900  1
  O  O3  1  0.30343100  0.90822100  0.28300100  1
  O  O4  1  0.62522000  0.40822100  0.10479000  1
  O  O5  1  0.87478000  0.39521000  0.09177900  1
  O  O6  1  0.40822100  0.80343100  0.78300100  1
  O  O7  1  0.89521000  0.02043000  0.30343100  1
  O  O8  1  0.59177900  0.19656900  0.21699900  1
  O  O9  1  0.52043000  0.39521000  0.80343100  1
  O  O10  1  0.60479000  0.90822100  0.12522000  1
  O  O11  1  0.28300100  0.30343100  0.90822100  1
  O  O12  1  0.09177900  0.87478000  0.39521000  1
  O  O13  1  0.80343100  0.52043000  0.39521000  1
  O  O14  1  0.12522000  0.60479000  0.90822100  1
  O  O15  1  0.71699900  0.52043000  0.62522000  1
  O  O16  1  0.19656900  0.21699900  0.59177900  1
  O  O17  1  0.47957000  0.37478000  0.28300100  1
  O  O18  1  0.30343100  0.89521000  0.02043000  1
  O  O19  1  0.89521000  0.37478000  0.59177900  1
  O  O20  1  0.28300100  0.47957000  0.37478000  1
  O  O21  1  0.69656900  0.10479000  0.97957000  1
  O  O22  1  0.19656900  0.47957000  0.60479000  1
  O  O23  1  0.78300100  0.40822100  0.80343100  1
  O  O24  1  0.87478000  0.97957000  0.78300100  1
  O  O25  1  0.62522000  0.71699900  0.52043000  1
  O  O26  1  0.69656900  0.09177900  0.71699900  1
  O  O27  1  0.60479000  0.19656900  0.47957000  1
  O  O28  1  0.10479000  0.62522000  0.40822100  1
  O  O29  1  0.90822100  0.12522000  0.60479000  1
  O  O30  1  0.52043000  0.62522000  0.71699900  1
  O  O31  1  0.39521000  0.80343100  0.52043000  1
  O  O32  1  0.02043000  0.21699900  0.12522000  1
  O  O33  1  0.02043000  0.30343100  0.89521000  1
  O  O34  1  0.12522000  0.02043000  0.21699900  1
  O  O35  1  0.80343100  0.78300100  0.40822100  1
  O  O36  1  0.37478000  0.59177900  0.89521000  1
  O  O37  1  0.37478000  0.28300100  0.47957000  1
  O  O38  1  0.97957000  0.78300100  0.87478000  1
  O  O39  1  0.97957000  0.69656900  0.10479000  1
  O  O40  1  0.40822100  0.10479000  0.62522000  1
  O  O41  1  0.21699900  0.12522000  0.02043000  1
  O  O42  1  0.47957000  0.60479000  0.19656900  1
  O  O43  1  0.39521000  0.09177900  0.87478000  1
  O  O44  1  0.10479000  0.97957000  0.69656900  1
  O  O45  1  0.21699900  0.59177900  0.19656900  1
  O  O46  1  0.90822100  0.28300100  0.30343100  1
  O  O47  1  0.59177900  0.89521000  0.37478000  1
loop_
_geom_bond_atom_site_label_1
_geom_bond_atom_site_label_2
_geom_bond_distance
_geom_bond_site_symmetry_2
Ca0 O20 2.489203 1_555
Ca0 O41 2.489203 1_555
Ca0 O45 2.489203 1_555
Ca0 O11 2.489203 1_554
Ca0 O42 2.596588 1_555
Ca0 O17 2.596588 1_555
Ca0 O32 2.596588 1_555
Ca0 O33 2.596588 1_554
Ca1 O4 2.489203 1_555
Ca1 O12 2.489203 1_655
Ca1 O13 2.489203 1_555
Ca1 O39 2.489203 1_555
Ca1 O2 2.596588 1_555
Ca1 O35 2.596588 1_555
Ca1 O28 2.596588 1_655
Ca1 O5 2.596588 1_555
Ca2 O32 2.489203 1_555
Ca2 O16 2.489203 1_555
Ca2 O46 2.489203 1_455
Ca2 O37 2.489203 1_555
Ca2 O7 2.596588 1_455
Ca2 O20 2.596588 1_555
Ca2 O34 2.596588 1_555
Ca2 O22 2.596588 1_555
Ca3 O23 2.489203 1_555
Ca3 O1 2.489203 1_555
Ca3 O2 2.489203 1_556
Ca3 O15 2.489203 1_555
Ca3 O38 2.596588 1_555
Ca3 O9 2.596588 1_555
Ca3 O30 2.596588 1_555
Ca3 O39 2.596588 1_556
Ca4 O18 2.489203 1_555
Ca4 O42 2.489203 1_555
Ca4 O14 2.489203 1_554
Ca4 O47 2.489203 1_555
Ca4 O3 2.596588 1_555
Ca4 O45 2.596588 1_555
Ca4 O10 2.596588 1_555
Ca4 O36 2.596588 1_554
Ca5 O17 2.489203 1_555
Ca5 O34 2.489203 1_555
Ca5 O3 2.489203 1_545
Ca5 O8 2.489203 1_555
Ca5 O41 2.596588 1_555
Ca5 O27 2.596588 1_555
Ca5 O18 2.596588 1_545
Ca5 O37 2.596588 1_555
Ca6 O28 2.489203 1_555
Ca6 O43 2.489203 1_565
Ca6 O44 2.489203 1_555
Ca6 O31 2.489203 1_555
Ca6 O6 2.596588 1_555
Ca6 O40 2.596588 1_565
Ca6 O0 2.596588 1_555
Ca6 O12 2.596588 1_555
Ca7 O35 2.489203 1_555
Ca7 O0 2.489203 1_655
Ca7 O25 2.489203 1_555
Ca7 O38 2.489203 1_555
Ca7 O44 2.596588 1_655
Ca7 O15 2.596588 1_555
Ca7 O24 2.596588 1_555
Ca7 O13 2.596588 1_555
Ca8 O9 2.489203 1_555
Ca8 O40 2.489203 1_555
Ca8 O21 2.489203 1_555
Ca8 O5 2.489203 1_556
Ca8 O43 2.596588 1_555
Ca8 O26 2.596588 1_555
Ca8 O23 2.596588 1_555
Ca8 O4 2.596588 1_556
Ca9 O6 2.489203 1_555
Ca9 O30 2.489203 1_555
Ca9 O24 2.489203 1_555
Ca9 O26 2.489203 1_565
Ca9 O21 2.596588 1_565
Ca9 O31 2.596588 1_555
Ca9 O1 2.596588 1_555
Ca9 O25 2.596588 1_555
Ca10 O7 2.489203 1_555
Ca10 O27 2.489203 1_555
Ca10 O10 2.489203 1_545
Ca10 O19 2.489203 1_555
Ca10 O46 2.596588 1_555
Ca10 O8 2.596588 1_555
Ca10 O47 2.596588 1_545
Ca10 O29 2.596588 1_555
Ca11 O33 2.489203 1_555
Ca11 O22 2.489203 1_555
Ca11 O36 2.489203 1_555
Ca11 O29 2.489203 1_455
Ca11 O11 2.596588 1_555
Ca11 O16 2.596588 1_555
Ca11 O14 2.596588 1_555
Ca11 O19 2.596588 1_455
Ge0 O34 1.789208 1_565
Ge0 O39 1.789208 1_455
Ge0 O12 1.789208 1_555
Ge0 O3 1.789208 1_555
Ge1 O38 1.789208 1_455
Ge1 O14 1.789208 1_555
Ge1 O18 1.789208 1_556
Ge1 O0 1.789208 1_555
Ge2 O24 1.789208 1_545
Ge2 O29 1.789208 1_555
Ge2 O33 1.789208 1_655
Ge2 O26 1.789208 1_555
Ge3 O47 1.789208 1_555
Ge3 O25 1.789208 1_555
Ge3 O42 1.789208 1_555
Ge3 O35 1.789208 1_555
Ge4 O15 1.789208 1_555
Ge4 O19 1.789208 1_555
Ge4 O27 1.789208 1_555
Ge4 O23 1.789208 1_555
Ge5 O40 1.789208 1_555
Ge5 O9 1.789208 1_555
Ge5 O37 1.789208 1_555
Ge5 O16 1.789208 1_555
Ge6 O41 1.789208 1_556
Ge6 O44 1.789208 1_545
Ge6 O43 1.789208 1_555
Ge6 O11 1.789208 1_555
Ge7 O10 1.789208 1_555
Ge7 O1 1.789208 1_554
Ge7 O7 1.789208 1_565
Ge7 O2 1.789208 1_555
Ge8 O32 1.789208 1_655
Ge8 O21 1.789208 1_554
Ge8 O46 1.789208 1_555
Ge8 O5 1.789208 1_555
Ge9 O36 1.789208 1_555
Ge9 O30 1.789208 1_555
Ge9 O22 1.789208 1_555
Ge9 O6 1.789208 1_555
Ge10 O31 1.789208 1_555
Ge10 O20 1.789208 1_555
Ge10 O28 1.789208 1_555
Ge10 O45 1.789208 1_555
Ge11 O13 1.789208 1_555
Ge11 O17 1.789208 1_555
Ge11 O4 1.789208 1_555
Ge11 O8 1.789208 1_555
O0 Y5 2.255793 1_555
O1 Y4 2.255793 1_666
O2 Y3 2.255793 1_555
O3 Y2 2.255793 1_565
O4 Y3 2.255793 1_555
O5 Y6 2.255793 1_655
O6 Y1 2.255793 1_566
O7 Y7 2.255793 1_655
O8 Y1 2.255793 1_555
O9 Y3 2.255793 1_556
O10 Y1 2.255793 1_565
O11 Y3 2.255793 1_556
O12 Y7 2.255793 1_565
O13 Y5 2.255793 1_655
O14 Y6 2.255793 1_556
O15 Y0 2.255793 1_555
O16 Y7 2.255793 1_555
O17 Y0 2.255793 1_555
O18 Y1 2.255793 1_565
O19 Y5 2.255793 1_655
O20 Y0 2.255793 1_555
O21 Y1 2.255793 1_556
O22 Y5 2.255793 1_555
O23 Y6 2.255793 1_656
O24 Y4 2.255793 1_666
O25 Y0 2.255793 1_555
O26 Y2 2.255793 1_555
O27 Y2 2.255793 1_555
O28 Y5 2.255793 1_555
O29 Y7 2.255793 1_655
O30 Y0 2.255793 1_555
O31 Y2 2.255793 1_565
O32 Y4 2.255793 1_555
O33 Y6 2.255793 1_556
O34 Y4 2.255793 1_555
O35 Y7 2.255793 1_665
O36 Y3 2.255793 1_556
O37 Y0 2.255793 1_555
O38 Y4 2.255793 1_666
O39 Y6 2.255793 1_655
O40 Y2 2.255793 1_555
O41 Y4 2.255793 1_555
O42 Y3 2.255793 1_555
O43 Y1 2.255793 1_556
O44 Y7 2.255793 1_565
O45 Y6 2.255793 1_555
O46 Y5 2.255793 1_655
O47 Y2 2.255793 1_565
