# generated using pymatgen
data_Rb3Yb2(PO4)3
_symmetry_space_group_name_H-M   'P 1'
_cell_length_a   15.11992194
_cell_length_b   15.11992194
_cell_length_c   15.11992194
_cell_angle_alpha   109.47122063
_cell_angle_beta   109.47122063
_cell_angle_gamma   109.47122063
_symmetry_Int_Tables_number   1
_chemical_formula_structural   Rb3Yb2(PO4)3
_chemical_formula_sum   'Rb24 Yb16 P24 O96'
_cell_volume   2660.88898675
_cell_formula_units_Z   8
loop_
 _symmetry_equiv_pos_site_id
 _symmetry_equiv_pos_as_xyz
  1  'x, y, z'
loop_
 _atom_site_type_symbol
 _atom_site_label
 _atom_site_symmetry_multiplicity
 _atom_site_fract_x
 _atom_site_fract_y
 _atom_site_fract_z
 _atom_site_occupancy
  Yb  Yb0  1  0.46516600  0.25000000  0.71516600  1
  Yb  Yb1  1  0.25000000  0.21115000  0.96115000  1
  Yb  Yb2  1  0.50000000  0.00000000  0.00928200  1
  Yb  Yb3  1  0.03483400  0.75000000  0.78483400  1
  Yb  Yb4  1  0.25000000  0.71516600  0.46516600  1
  Yb  Yb5  1  0.75000000  0.28885000  0.53885000  1
  Yb  Yb6  1  0.28885000  0.53885000  0.75000000  1
  Yb  Yb7  1  0.49071800  0.49071800  0.49071800  1
  Yb  Yb8  1  0.71516600  0.46516600  0.25000000  1
  Yb  Yb9  1  0.00000000  0.00928200  0.50000000  1
  Yb  Yb10  1  0.96115000  0.25000000  0.21115000  1
  Yb  Yb11  1  0.21115000  0.96115000  0.25000000  1
  Yb  Yb12  1  0.00928200  0.50000000  0.00000000  1
  Yb  Yb13  1  0.75000000  0.78483400  0.03483400  1
  Yb  Yb14  1  0.53885000  0.75000000  0.28885000  1
  Yb  Yb15  1  0.78483400  0.03483400  0.75000000  1
  Rb  Rb0  1  0.75000000  0.99372300  0.24372300  1
  Rb  Rb1  1  0.25000000  0.50627700  0.25627700  1
  Rb  Rb2  1  0.73775600  0.75000000  0.48775600  1
  Rb  Rb3  1  0.74910300  0.50000000  0.00000000  1
  Rb  Rb4  1  0.50039200  0.50000000  0.00000000  1
  Rb  Rb5  1  0.50627700  0.25627700  0.25000000  1
  Rb  Rb6  1  0.48775600  0.73775600  0.75000000  1
  Rb  Rb7  1  0.25627700  0.25000000  0.50627700  1
  Rb  Rb8  1  0.50000000  0.00000000  0.50039200  1
  Rb  Rb9  1  0.50000000  0.00000000  0.74910300  1
  Rb  Rb10  1  0.50000000  0.00000000  0.26000200  1
  Rb  Rb11  1  0.99960800  0.99960800  0.99960800  1
  Rb  Rb12  1  0.75000000  0.48775600  0.73775600  1
  Rb  Rb13  1  0.01224400  0.76224400  0.25000000  1
  Rb  Rb14  1  0.00000000  0.74910300  0.50000000  1
  Rb  Rb15  1  0.25000000  0.01224400  0.76224400  1
  Rb  Rb16  1  0.00000000  0.26000200  0.50000000  1
  Rb  Rb17  1  0.99372300  0.24372300  0.75000000  1
  Rb  Rb18  1  0.23999800  0.23999800  0.23999800  1
  Rb  Rb19  1  0.75089700  0.75089700  0.75089700  1
  Rb  Rb20  1  0.26000200  0.50000000  0.00000000  1
  Rb  Rb21  1  0.00000000  0.50039200  0.50000000  1
  Rb  Rb22  1  0.76224400  0.25000000  0.01224400  1
  Rb  Rb23  1  0.24372300  0.75000000  0.99372300  1
  P  P0  1  0.03521400  0.49250500  0.76111000  1
  P  P1  1  0.49250500  0.76111000  0.03521400  1
  P  P2  1  0.23139500  0.27410400  0.73889000  1
  P  P3  1  0.26247300  0.77631800  0.73374800  1
  P  P4  1  0.04270900  0.26860500  0.00749500  1
  P  P5  1  0.54257000  0.52872500  0.76625200  1
  P  P6  1  0.97127500  0.51384500  0.23752700  1
  P  P7  1  0.73889000  0.23139500  0.27410400  1
  P  P8  1  0.77631800  0.73374800  0.26247300  1
  P  P9  1  0.52872500  0.76625200  0.54257000  1
  P  P10  1  0.73374800  0.26247300  0.77631800  1
  P  P11  1  0.46478600  0.22589600  0.45729100  1
  P  P12  1  0.27410400  0.73889000  0.23139500  1
  P  P13  1  0.76625200  0.54257000  0.52872500  1
  P  P14  1  0.00749500  0.04270900  0.26860500  1
  P  P15  1  0.72368200  0.98615500  0.95743000  1
  P  P16  1  0.23752700  0.97127500  0.51384500  1
  P  P17  1  0.51384500  0.23752700  0.97127500  1
  P  P18  1  0.22589600  0.45729100  0.46478600  1
  P  P19  1  0.98615500  0.95743000  0.72368200  1
  P  P20  1  0.95743000  0.72368200  0.98615500  1
  P  P21  1  0.76111000  0.03521400  0.49250500  1
  P  P22  1  0.45729100  0.46478600  0.22589600  1
  P  P23  1  0.26860500  0.00749500  0.04270900  1
  O  O0  1  0.60982100  0.95861600  0.94328000  1
  O  O1  1  0.04623600  0.60391800  0.78419600  1
  O  O2  1  0.63962800  0.11674600  0.18968900  1
  O  O3  1  0.85721700  0.49151600  0.22064100  1
  O  O4  1  0.38955400  0.76433500  0.25091100  1
  O  O5  1  0.06463600  0.81098600  0.09336100  1
  O  O6  1  0.65739200  0.92747800  0.39989400  1
  O  O7  1  0.54138400  0.15120500  0.98466400  1
  O  O8  1  0.75365000  0.28237500  0.68901400  1
  O  O9  1  0.47241600  0.57252200  0.22991300  1
  O  O10  1  0.27008700  0.84260800  0.24250200  1
  O  O11  1  0.45376400  0.23796000  0.55768200  1
  O  O12  1  0.13864300  0.24908900  0.01342300  1
  O  O13  1  0.95861600  0.94328000  0.60982100  1
  O  O14  1  0.43536400  0.52872600  0.74635000  1
  O  O15  1  0.54888500  0.44108300  0.79530700  1
  O  O16  1  0.24908900  0.01342300  0.13864300  1
  O  O17  1  0.22064100  0.85721700  0.49151600  1
  O  O18  1  0.02758400  0.25749800  0.10010600  1
  O  O19  1  0.02288200  0.07294300  0.38325400  1
  O  O20  1  0.63657700  0.27935900  0.77087600  1
  O  O21  1  0.94328000  0.60982100  0.95861600  1
  O  O22  1  0.89608200  0.94231800  0.18027800  1
  O  O23  1  0.11044600  0.36135700  0.37478100  1
  O  O24  1  0.60780200  0.35422400  0.05891700  1
  O  O25  1  0.52872600  0.74635000  0.43536400  1
  O  O26  1  0.79530700  0.54888500  0.44108300  1
  O  O27  1  0.31031100  0.42705700  0.44993900  1
  O  O28  1  0.10010600  0.02758400  0.25749800  1
  O  O29  1  0.42705700  0.44993900  0.31031100  1
  O  O30  1  0.74635000  0.43536400  0.52872600  1
  O  O31  1  0.97127400  0.40663900  0.21762400  1
  O  O32  1  0.86342300  0.63429900  0.64278300  1
  O  O33  1  0.74642200  0.89219800  0.95111500  1
  O  O34  1  0.48657700  0.73566500  0.12521900  1
  O  O35  1  0.78419600  0.04623600  0.60391800  1
  O  O36  1  0.75357800  0.70469300  0.14577600  1
  O  O37  1  0.25091100  0.38955400  0.76433500  1
  O  O38  1  0.70469300  0.14577600  0.75357800  1
  O  O39  1  0.21762400  0.97127400  0.40663900  1
  O  O40  1  0.92747800  0.39989400  0.65739200  1
  O  O41  1  0.57252200  0.22991300  0.47241600  1
  O  O42  1  0.68901400  0.75365000  0.28237600  1
  O  O43  1  0.05891700  0.60780200  0.35422400  1
  O  O44  1  0.81098600  0.09336100  0.06463600  1
  O  O45  1  0.84260800  0.24250200  0.27008700  1
  O  O46  1  0.22991300  0.47241600  0.57252200  1
  O  O47  1  0.28237500  0.68901400  0.75365000  1
  O  O48  1  0.64278300  0.86342300  0.63429900  1
  O  O49  1  0.35422400  0.05891700  0.60780200  1
  O  O50  1  0.51533600  0.66654100  0.55672000  1
  O  O51  1  0.44993900  0.31031100  0.42705700  1
  O  O52  1  0.05006100  0.47711800  0.86037200  1
  O  O53  1  0.31972200  0.26204000  0.71580400  1
  O  O54  1  0.83345900  0.34879500  0.89017900  1
  O  O55  1  0.60391800  0.78419600  0.04623600  1
  O  O56  1  0.26204000  0.71580400  0.31972200  1
  O  O57  1  0.00848400  0.86570100  0.72912400  1
  O  O58  1  0.72912400  0.00848400  0.86570100  1
  O  O59  1  0.40663900  0.21762400  0.97127400  1
  O  O60  1  0.44108300  0.79530700  0.54888500  1
  O  O61  1  0.49151600  0.22064100  0.85721700  1
  O  O62  1  0.73566500  0.12521900  0.48657700  1
  O  O63  1  0.86037200  0.05006100  0.47711800  1
  O  O64  1  0.95111500  0.74642200  0.89219800  1
  O  O65  1  0.24250200  0.27008700  0.84260800  1
  O  O66  1  0.36135700  0.37478100  0.11044600  1
  O  O67  1  0.76433500  0.25091100  0.38955400  1
  O  O68  1  0.55768200  0.45376400  0.23796000  1
  O  O69  1  0.09336100  0.06463600  0.81098600  1
  O  O70  1  0.89219800  0.95111500  0.74642200  1
  O  O71  1  0.25749800  0.10010600  0.02758400  1
  O  O72  1  0.89017900  0.83345900  0.34879500  1
  O  O73  1  0.11674600  0.18968900  0.63962800  1
  O  O74  1  0.55672000  0.51533600  0.66654100  1
  O  O75  1  0.63429900  0.64278300  0.86342300  1
  O  O76  1  0.14577600  0.75357800  0.70469300  1
  O  O77  1  0.71580400  0.31972200  0.26204000  1
  O  O78  1  0.01342300  0.13864300  0.24908900  1
  O  O79  1  0.34879500  0.89017900  0.83345900  1
  O  O80  1  0.15120500  0.98466400  0.54138400  1
  O  O81  1  0.39989400  0.65739200  0.92747800  1
  O  O82  1  0.94231800  0.18027800  0.89608200  1
  O  O83  1  0.47711800  0.86037200  0.05006100  1
  O  O84  1  0.86570100  0.72912400  0.00848400  1
  O  O85  1  0.18968900  0.63962800  0.11674600  1
  O  O86  1  0.07294300  0.38325400  0.02288200  1
  O  O87  1  0.38325400  0.02288200  0.07294300  1
  O  O88  1  0.37478100  0.11044600  0.36135700  1
  O  O89  1  0.12521900  0.48657700  0.73566500  1
  O  O90  1  0.27935900  0.77087600  0.63657700  1
  O  O91  1  0.77087600  0.63657700  0.27935900  1
  O  O92  1  0.66654100  0.55672000  0.51533600  1
  O  O93  1  0.23796000  0.55768200  0.45376400  1
  O  O94  1  0.98466400  0.54138400  0.15120500  1
  O  O95  1  0.18027800  0.89608200  0.94231800  1
loop_
_geom_bond_atom_site_label_1
_geom_bond_atom_site_label_2
_geom_bond_distance
_geom_bond_site_symmetry_2
O0 P15 1.549232 1_555
O0 Yb2 2.350686 1_566
O0 Rb6 2.981205 1_555
O0 Rb9 3.230453 1_565
O1 P0 1.539286 1_555
O1 Yb3 2.269172 1_555
O1 Rb23 2.909100 1_555
O2 P7 1.549196 1_555
O2 Yb2 2.340929 1_555
O2 Rb10 2.994348 1_555
O2 Rb0 3.014301 1_545
O3 P6 1.553731 1_555
O3 Yb8 2.269774 1_555
O3 Rb3 3.256916 1_555
O3 Rb22 3.337999 1_555
O4 P12 1.554154 1_555
O4 Yb14 2.239964 1_555
O4 Rb10 3.325322 1_565
O5 P20 1.546880 1_454
O5 Yb11 2.288211 1_555
O5 Rb13 2.967322 1_555
O6 P21 1.544640 1_565
O6 Yb14 2.239664 1_555
O6 Rb10 3.357030 1_565
O7 P17 1.549232 1_555
O7 Yb2 2.350686 1_556
O7 Rb22 2.981205 1_556
O7 Rb9 3.230453 1_555
O8 P10 1.546880 1_555
O8 Yb5 2.288211 1_555
O8 Rb12 2.967322 1_555
O9 P22 1.544645 1_555
O9 Yb14 2.239662 1_555
O9 Rb20 3.357020 1_555
O10 P12 1.544634 1_555
O10 Yb11 2.239675 1_555
O10 Rb10 3.357018 1_565
O11 P11 1.539286 1_555
O11 Yb0 2.269172 1_555
O11 Rb7 2.909100 1_555
O12 P4 1.554157 1_555
O12 Yb1 2.239957 1_554
O12 Rb18 3.325335 1_555
O13 P19 1.549232 1_555
O13 Yb9 2.350686 1_665
O13 Rb2 2.981205 1_555
O13 Rb14 3.230453 1_655
O14 P5 1.546886 1_555
O14 Yb6 2.288205 1_555
O14 Rb6 2.967308 1_555
O15 P5 1.550029 1_555
O15 Yb0 2.371341 1_555
O15 Rb3 3.107188 1_556
O15 Rb4 3.319649 1_556
O15 Rb12 3.353316 1_555
O16 P23 1.554157 1_555
O16 Yb11 2.239957 1_545
O16 Rb18 3.325335 1_555
O17 P16 1.553731 1_555
O17 Yb4 2.269774 1_555
O17 Rb14 3.256916 1_555
O17 Rb13 3.337999 1_555
O18 P4 1.544640 1_555
O18 Yb10 2.239664 1_455
O18 Rb18 3.357030 1_555
O19 P14 1.549196 1_555
O19 Yb9 2.340929 1_555
O19 Rb16 2.994348 1_555
O19 Rb7 3.014301 1_555
O20 P10 1.553720 1_555
O20 Yb0 2.269788 1_555
O20 Rb3 3.256911 1_556
O20 Rb12 3.338005 1_555
O21 P20 1.549232 1_555
O21 Yb12 2.350686 1_656
O21 Rb12 2.981205 1_555
O21 Rb3 3.230453 1_556
O22 P14 1.539286 1_665
O22 Yb13 2.269172 1_555
O22 Rb0 2.909100 1_555
O23 P18 1.554154 1_555
O23 Yb10 2.239964 1_455
O23 Rb16 3.325322 1_555
O24 P17 1.550029 1_554
O24 Yb8 2.371341 1_555
O24 Rb3 3.107188 1_555
O24 Rb4 3.319649 1_555
O24 Rb22 3.353316 1_555
O25 P9 1.546886 1_555
O25 Yb14 2.288205 1_555
O25 Rb2 2.967308 1_555
O26 P13 1.550029 1_555
O26 Yb8 2.371341 1_555
O26 Rb14 3.107188 1_655
O26 Rb21 3.319649 1_655
O26 Rb2 3.353316 1_555
O27 P18 1.549196 1_555
O27 Yb7 2.340929 1_555
O27 Rb18 2.994348 1_555
O27 Rb7 3.014301 1_555
O28 P14 1.544640 1_555
O28 Yb11 2.239664 1_545
O28 Rb18 3.357030 1_555
O29 P22 1.549196 1_555
O29 Yb7 2.340929 1_555
O29 Rb18 2.994348 1_555
O29 Rb1 3.014301 1_555
O30 P13 1.546886 1_555
O30 Yb5 2.288205 1_555
O30 Rb12 2.967308 1_555
O31 P6 1.546872 1_555
O31 Yb10 2.288221 1_555
O31 Rb22 2.967309 1_555
O32 P13 1.553727 1_555
O32 Yb3 2.269783 1_655
O32 Rb19 3.256903 1_555
O32 Rb12 3.337992 1_555
O33 P15 1.550029 1_555
O33 Yb13 2.371341 1_556
O33 Rb19 3.107188 1_555
O33 Rb11 3.319649 1_555
O33 Rb6 3.353316 1_555
O34 P1 1.554150 1_555
O34 Yb14 2.239965 1_555
O34 Rb20 3.325329 1_555
O35 P21 1.539286 1_555
O35 Yb15 2.269172 1_555
O35 Rb17 2.909100 1_555
O36 P8 1.550029 1_555
O36 Yb13 2.371341 1_555
O36 Rb3 3.107188 1_555
O36 Rb4 3.319649 1_555
O36 Rb13 3.353316 1_655
O37 P2 1.554154 1_555
O37 Yb6 2.239964 1_555
O37 Rb20 3.325322 1_556
O38 P10 1.550029 1_555
O38 Yb15 2.371341 1_555
O38 Rb9 3.107188 1_555
O38 Rb8 3.319649 1_555
O38 Rb22 3.353316 1_556
O39 P16 1.546872 1_555
O39 Yb11 2.288221 1_555
O39 Rb13 2.967309 1_555
O40 P0 1.544640 1_655
O40 Yb5 2.239664 1_555
O40 Rb16 3.357030 1_655
O41 P11 1.544645 1_555
O41 Yb5 2.239662 1_555
O41 Rb10 3.357020 1_555
O42 P8 1.546886 1_555
O42 Yb14 2.288205 1_555
O42 Rb2 2.967308 1_555
O43 P6 1.550029 1_455
O43 Yb4 2.371341 1_555
O43 Rb14 3.107188 1_555
O43 Rb21 3.319649 1_555
O43 Rb13 3.353316 1_555
O44 P15 1.546880 1_544
O44 Yb10 2.288211 1_555
O44 Rb22 2.967322 1_555
O45 P7 1.544634 1_555
O45 Yb10 2.239675 1_555
O45 Rb16 3.357018 1_655
O46 P18 1.544645 1_555
O46 Yb6 2.239662 1_555
O46 Rb16 3.357020 1_555
O47 P3 1.546880 1_555
O47 Yb6 2.288211 1_555
O47 Rb6 2.967322 1_555
O48 P9 1.553727 1_555
O48 Yb15 2.269783 1_565
O48 Rb19 3.256903 1_555
O48 Rb2 3.337992 1_555
O49 P16 1.550029 1_545
O49 Yb0 2.371341 1_555
O49 Rb9 3.107188 1_555
O49 Rb8 3.319649 1_555
O49 Rb15 3.353316 1_555
O50 P9 1.549232 1_555
O50 Yb7 2.350686 1_555
O50 Rb6 2.981205 1_555
O50 Rb19 3.230453 1_555
O51 P11 1.549196 1_555
O51 Yb7 2.340929 1_555
O51 Rb18 2.994348 1_555
O51 Rb5 3.014301 1_555
O52 P0 1.549196 1_555
O52 Yb12 2.340929 1_556
O52 Rb20 2.994348 1_556
O52 Rb17 3.014301 1_455
O53 P2 1.539286 1_555
O53 Yb0 2.269172 1_555
O53 Rb7 2.909100 1_555
O54 P10 1.549232 1_555
O54 Yb12 2.350686 1_656
O54 Rb22 2.981205 1_556
O54 Rb3 3.230453 1_556
O55 P1 1.539286 1_555
O55 Yb13 2.269172 1_555
O55 Rb0 2.909100 1_555
O56 P12 1.539286 1_555
O56 Yb4 2.269172 1_555
O56 Rb1 2.909100 1_555
O57 P19 1.553727 1_455
O57 Yb3 2.269783 1_555
O57 Rb14 3.256903 1_555
O57 Rb15 3.337992 1_565
O58 P15 1.553727 1_545
O58 Yb15 2.269783 1_555
O58 Rb9 3.256903 1_555
O58 Rb22 3.337992 1_556
O59 P17 1.546872 1_555
O59 Yb1 2.288221 1_555
O59 Rb15 2.967309 1_555
O60 P9 1.550029 1_555
O60 Yb4 2.371341 1_555
O60 Rb9 3.107188 1_565
O60 Rb8 3.319649 1_565
O60 Rb6 3.353316 1_555
O61 P17 1.553731 1_555
O61 Yb0 2.269774 1_555
O61 Rb9 3.256916 1_555
O61 Rb15 3.337999 1_555
O62 P21 1.554150 1_555
O62 Yb5 2.239965 1_555
O62 Rb10 3.325329 1_555
O63 P21 1.549196 1_555
O63 Yb9 2.340929 1_655
O63 Rb16 2.994348 1_655
O63 Rb0 3.014301 1_545
O64 P20 1.550029 1_555
O64 Yb3 2.371341 1_655
O64 Rb19 3.107188 1_555
O64 Rb11 3.319649 1_555
O64 Rb12 3.353316 1_555
O65 P2 1.544634 1_555
O65 Yb1 2.239675 1_555
O65 Rb20 3.357018 1_556
O66 P22 1.554154 1_555
O66 Yb1 2.239964 1_554
O66 Rb20 3.325322 1_555
O67 P7 1.554154 1_555
O67 Yb5 2.239964 1_555
O67 Rb16 3.325322 1_655
O68 P22 1.539286 1_555
O68 Yb8 2.269172 1_555
O68 Rb5 2.909100 1_555
O69 P19 1.546880 1_445
O69 Yb1 2.288211 1_555
O69 Rb15 2.967322 1_555
O70 P19 1.550029 1_555
O70 Yb15 2.371341 1_565
O70 Rb19 3.107188 1_555
O70 Rb11 3.319649 1_555
O70 Rb2 3.353316 1_555
O71 P23 1.544640 1_555
O71 Yb1 2.239664 1_554
O71 Rb18 3.357030 1_555
O72 P8 1.549232 1_555
O72 Yb9 2.350686 1_665
O72 Rb13 2.981205 1_655
O72 Rb14 3.230453 1_655
O73 P2 1.549196 1_555
O73 Yb9 2.340929 1_555
O73 Rb16 2.994348 1_555
O73 Rb17 3.014301 1_455
O74 P5 1.549232 1_555
O74 Yb7 2.350686 1_555
O74 Rb12 2.981205 1_555
O74 Rb19 3.230453 1_555
O75 P5 1.553727 1_555
O75 Yb13 2.269783 1_556
O75 Rb19 3.256903 1_555
O75 Rb6 3.337992 1_555
O76 P3 1.550029 1_555
O76 Yb3 2.371341 1_555
O76 Rb14 3.107188 1_555
O76 Rb21 3.319649 1_555
O76 Rb15 3.353316 1_565
O77 P7 1.539286 1_555
O77 Yb8 2.269172 1_555
O77 Rb5 2.909100 1_555
O78 P14 1.554157 1_555
O78 Yb10 2.239957 1_455
O78 Rb18 3.325335 1_555
O79 P3 1.549232 1_555
O79 Yb2 2.350686 1_566
O79 Rb15 2.981205 1_565
O79 Rb9 3.230453 1_565
O80 P16 1.549232 1_555
O80 Yb9 2.350686 1_565
O80 Rb15 2.981205 1_565
O80 Rb14 3.230453 1_555
O81 P1 1.544640 1_556
O81 Yb6 2.239664 1_555
O81 Rb20 3.357030 1_556
O82 P4 1.539286 1_656
O82 Yb15 2.269172 1_555
O82 Rb17 2.909100 1_555
O83 P1 1.549196 1_555
O83 Yb2 2.340929 1_565
O83 Rb10 2.994348 1_565
O83 Rb23 3.014301 1_554
O84 P20 1.553727 1_554
O84 Yb13 2.269783 1_555
O84 Rb3 3.256903 1_555
O84 Rb13 3.337992 1_655
O85 P12 1.549196 1_555
O85 Yb12 2.340929 1_555
O85 Rb20 2.994348 1_555
O85 Rb23 3.014301 1_554
O86 P4 1.549196 1_555
O86 Yb12 2.340929 1_555
O86 Rb20 2.994348 1_555
O86 Rb1 3.014301 1_555
O87 P23 1.549196 1_555
O87 Yb2 2.340929 1_555
O87 Rb10 2.994348 1_555
O87 Rb5 3.014301 1_555
O88 P11 1.554154 1_555
O88 Yb11 2.239964 1_545
O88 Rb10 3.325322 1_555
O89 P0 1.554150 1_555
O89 Yb6 2.239965 1_555
O89 Rb16 3.325329 1_555
O90 P3 1.553720 1_555
O90 Yb4 2.269788 1_555
O90 Rb9 3.256911 1_565
O90 Rb6 3.338005 1_555
O91 P8 1.553720 1_555
O91 Yb8 2.269788 1_555
O91 Rb14 3.256911 1_655
O91 Rb2 3.338005 1_555
O92 P13 1.549232 1_555
O92 Yb7 2.350686 1_555
O92 Rb2 2.981205 1_555
O92 Rb19 3.230453 1_555
O93 P18 1.539286 1_555
O93 Yb4 2.269172 1_555
O93 Rb1 2.909100 1_555
O94 P6 1.549232 1_555
O94 Yb12 2.350686 1_655
O94 Rb13 2.981205 1_655
O94 Rb3 3.230453 1_555
O95 P23 1.539286 1_566
O95 Yb3 2.269172 1_555
O95 Rb23 2.909100 1_555
