# generated using pymatgen
data_Al2O3
_symmetry_space_group_name_H-M   'P 1'
_cell_length_a   5.65478400
_cell_length_b   5.65822568
_cell_length_c   13.64153700
_cell_angle_alpha   92.17137893
_cell_angle_beta   89.35410379
_cell_angle_gamma   119.64463075
_symmetry_Int_Tables_number   1
_chemical_formula_structural   Al2O3
_chemical_formula_sum   'Al16 O24'
_cell_volume   379.05854173
_cell_formula_units_Z   8
loop_
 _symmetry_equiv_pos_site_id
 _symmetry_equiv_pos_as_xyz
  1  'x, y, z'
loop_
 _atom_site_type_symbol
 _atom_site_label
 _atom_site_symmetry_multiplicity
 _atom_site_fract_x
 _atom_site_fract_y
 _atom_site_fract_z
 _atom_site_occupancy
  Al  Al0  1  0.81677700  0.15400700  0.96169600  1
  Al  Al1  1  0.31286200  0.13657800  0.83426300  1
  Al  Al2  1  0.12280900  0.79185900  0.66045900  1
  Al  Al3  1  0.30366700  0.64236200  0.83916500  1
  Al  Al4  1  0.81467300  0.63107700  0.83382800  1
  Al  Al5  1  0.65409300  0.84405900  0.28710300  1
  Al  Al6  1  0.94229800  0.93950600  0.48983300  1
  Al  Al7  1  0.31648700  0.16361200  0.33396600  1
  Al  Al8  1  0.14511500  0.32060300  0.64377700  1
  Al  Al9  1  0.64207000  0.81761300  0.66692300  1
  Al  Al10  1  0.49936500  0.02329900  0.49546300  1
  Al  Al11  1  0.66578100  0.32779300  0.17335300  1
  Al  Al12  1  0.97896400  0.46540500  0.38024100  1
  Al  Al13  1  0.13439200  0.32406000  0.17208800  1
  Al  Al14  1  0.14571700  0.82169700  0.06265100  1
  Al  Al15  1  0.49222000  0.50708100  0.01350900  1
  O  O0  1  0.63594600  0.32163300  0.91053600  1
  O  O1  1  0.00252300  0.49677400  0.75157900  1
  O  O2  1  0.16614100  0.32083300  0.91309200  1
  O  O3  1  0.14163900  0.81502500  0.91392500  1
  O  O4  1  0.46886900  0.48160500  0.75839800  1
  O  O5  1  0.31833500  0.65657200  0.59743200  1
  O  O6  1  0.63569000  0.83621900  0.41971700  1
  O  O7  1  0.44572000  0.94377000  0.75770500  1
  O  O8  1  0.81586700  0.68003000  0.59097900  1
  O  O9  1  0.63614000  0.79225500  0.91625300  1
  O  O10  1  0.80343400  0.11914500  0.58950500  1
  O  O11  1  0.97892600  0.95409400  0.75563800  1
  O  O12  1  0.00481200  0.01965200  0.24953400  1
  O  O13  1  0.15764200  0.82840800  0.42236300  1
  O  O14  1  0.48760000  0.02404200  0.24933500  1
  O  O15  1  0.12753500  0.27401700  0.42335400  1
  O  O16  1  0.33069200  0.18397000  0.08403200  1
  O  O17  1  0.27790500  0.10837700  0.58917400  1
  O  O18  1  0.47314700  0.47933800  0.24848700  1
  O  O19  1  0.63079100  0.30927000  0.41850700  1
  O  O20  1  0.82373500  0.17219500  0.08785900  1
  O  O21  1  0.79702400  0.62664100  0.08373700  1
  O  O22  1  0.97831900  0.47998600  0.24931300  1
  O  O23  1  0.30174600  0.62927000  0.08249100  1
loop_
_geom_bond_atom_site_label_1
_geom_bond_atom_site_label_2
_geom_bond_distance
_geom_bond_site_symmetry_2
Al0 O20 1.719964 1_556
Al0 O2 1.845720 1_655
Al0 O0 1.859558 1_555
Al0 O9 1.862040 1_545
Al1 O7 1.884694 1_545
Al1 O0 1.893331 1_555
Al1 O2 1.918923 1_555
Al1 O3 1.952472 1_545
Al1 O11 1.953277 1_445
Al1 O4 2.022216 1_555
Al2 O8 1.793474 1_455
Al2 O5 1.820336 1_555
Al2 O17 1.865796 1_565
Al2 O1 1.951986 1_555
Al2 O11 1.953244 1_455
Al2 O7 2.061181 1_555
Al3 O7 1.885976 1_555
Al3 O1 1.894632 1_555
Al3 O3 1.903405 1_555
Al3 O2 1.911376 1_555
Al3 O4 1.911920 1_555
Al3 O9 1.938926 1_555
Al4 O0 1.883229 1_555
Al4 O1 1.916193 1_655
Al4 O3 1.936848 1_655
Al4 O11 1.946012 1_555
Al4 O9 1.980585 1_555
Al4 O4 1.985262 1_555
Al5 O14 1.785527 1_565
Al5 O12 1.802627 1_665
Al5 O6 1.811839 1_555
Al5 O18 1.850442 1_555
Al6 O6 1.804205 1_555
Al6 O13 1.847504 1_655
Al6 O15 1.910361 1_665
Al6 O8 1.913999 1_555
Al6 O10 2.039424 1_565
Al6 O17 2.125342 1_665
Al7 O14 1.885317 1_555
Al7 O15 1.895259 1_555
Al7 O12 1.910721 1_555
Al7 O19 1.921794 1_555
Al7 O18 1.976084 1_555
Al7 O13 2.078906 1_545
Al8 O5 1.791091 1_555
Al8 O10 1.835809 1_455
Al8 O17 1.836370 1_555
Al8 O1 2.112751 1_555
Al8 O4 2.221079 1_555
Al8 O11 2.406631 1_445
Al9 O8 1.821522 1_555
Al9 O5 1.844922 1_555
Al9 O10 1.853003 1_565
Al9 O7 1.990491 1_555
Al9 O11 2.053142 1_555
Al9 O4 2.107414 1_555
Al10 O19 1.787217 1_555
Al10 O6 1.867850 1_545
Al10 O13 1.948496 1_545
Al10 O17 1.986922 1_555
Al10 O10 1.992720 1_555
Al10 O5 2.318164 1_545
Al11 O22 1.845778 1_555
Al11 O14 1.855219 1_555
Al11 O20 1.899927 1_555
Al11 O21 1.949195 1_555
Al11 O18 1.950535 1_555
Al11 O16 2.046684 1_555
Al12 O15 1.784332 1_655
Al12 O22 1.791211 1_555
Al12 O19 1.794558 1_555
Al12 O13 1.854854 1_655
Al13 O22 1.829200 1_455
Al13 O12 1.868608 1_555
Al13 O20 1.903161 1_455
Al13 O18 1.959156 1_555
Al13 O23 1.972044 1_555
Al13 O16 2.017823 1_555
Al14 O23 1.736441 1_555
Al14 O21 1.745637 1_455
Al14 O16 1.794852 1_565
Al14 O3 2.027951 1_554
Al15 O21 1.783508 1_555
Al15 O23 1.785537 1_555
Al15 O16 1.887802 1_555
Al15 O9 1.965955 1_554
Al15 O2 2.100553 1_554
Al15 O0 2.107369 1_554
