# generated using pymatgen
data_Yb4Mg3H14
_symmetry_space_group_name_H-M   'P 1'
_cell_length_a   6.20014518
_cell_length_b   6.20014518
_cell_length_c   6.78021100
_cell_angle_alpha   90.00000000
_cell_angle_beta   90.00000000
_cell_angle_gamma   119.99999128
_symmetry_Int_Tables_number   1
_chemical_formula_structural   Yb4Mg3H14
_chemical_formula_sum   'Yb4 Mg3 H14'
_cell_volume   225.72392705
_cell_formula_units_Z   1
loop_
 _symmetry_equiv_pos_site_id
 _symmetry_equiv_pos_as_xyz
  1  'x, y, z'
loop_
 _atom_site_type_symbol
 _atom_site_label
 _atom_site_symmetry_multiplicity
 _atom_site_fract_x
 _atom_site_fract_y
 _atom_site_fract_z
 _atom_site_occupancy
  Yb  Yb0  1  0.00000000  0.00000000  0.73248000  1
  Yb  Yb1  1  0.00000000  0.00000000  0.26752000  1
  Yb  Yb2  1  0.66666700  0.33333300  0.50000000  1
  Yb  Yb3  1  0.33333300  0.66666700  0.50000000  1
  Mg  Mg0  1  0.44104300  0.44104300  0.00000000  1
  Mg  Mg1  1  0.55895700  0.00000000  0.00000000  1
  Mg  Mg2  1  0.00000000  0.55895700  0.00000000  1
  H  H0  1  0.38608000  0.38608000  0.72108600  1
  H  H1  1  0.61392000  0.00000000  0.72108600  1
  H  H2  1  0.00000000  0.61392000  0.72108600  1
  H  H3  1  0.38608000  0.38608000  0.27891400  1
  H  H4  1  0.61392000  0.00000000  0.27891400  1
  H  H5  1  0.00000000  0.61392000  0.27891400  1
  H  H6  1  0.73692300  0.73692300  0.50000000  1
  H  H7  1  0.26307700  0.00000000  0.50000000  1
  H  H8  1  0.00000000  0.26307700  0.50000000  1
  H  H9  1  0.76986400  0.76986400  0.00000000  1
  H  H10  1  0.23013600  0.00000000  0.00000000  1
  H  H11  1  0.00000000  0.23013600  0.00000000  1
  H  H12  1  0.66666700  0.33333300  0.00000000  1
  H  H13  1  0.33333300  0.66666700  0.00000000  1
loop_
_geom_bond_atom_site_label_1
_geom_bond_atom_site_label_2
_geom_bond_distance
_geom_bond_site_symmetry_2
H0 Mg0 1.921555 1_556
H0 Yb0 2.394999 1_555
H0 Yb2 2.439142 1_555
H0 Yb3 2.439142 1_555
H1 Mg1 1.921555 1_556
H1 Yb0 2.394998 1_655
H1 Yb2 2.439137 1_555
H1 Yb3 2.439139 1_545
H2 Mg2 1.921555 1_556
H2 Yb0 2.394998 1_565
H2 Yb3 2.439137 1_555
H2 Yb2 2.439139 1_455
H3 Mg0 1.921555 1_555
H3 Yb1 2.394999 1_555
H3 Yb3 2.439142 1_555
H3 Yb2 2.439142 1_555
H4 Mg1 1.921555 1_555
H4 Yb1 2.394998 1_655
H4 Yb2 2.439137 1_555
H4 Yb3 2.439139 1_545
H5 Mg2 1.921555 1_555
H5 Yb1 2.394998 1_565
H5 Yb3 2.439137 1_555
H5 Yb2 2.439139 1_455
H6 Yb0 2.268291 1_665
H6 Yb1 2.268291 1_665
H6 Yb3 2.315455 1_555
H6 Yb2 2.315455 1_555
H7 Yb0 2.268291 1_555
H7 Yb1 2.268291 1_555
H7 Yb3 2.315449 1_545
H7 Yb2 2.315453 1_555
H8 Yb0 2.268291 1_555
H8 Yb1 2.268291 1_555
H8 Yb2 2.315449 1_455
H8 Yb3 2.315453 1_555
H9 Mg0 2.038738 1_555
H9 Yb0 2.307813 1_664
H9 Yb1 2.307813 1_665
H9 Mg2 2.368923 1_655
H9 Mg1 2.368923 1_565
H10 Mg1 2.038738 1_555
H10 Yb0 2.307813 1_554
H10 Yb1 2.307813 1_555
H10 Mg0 2.368923 1_555
H10 Mg2 2.368923 1_545
H11 Mg2 2.038738 1_555
H11 Yb0 2.307813 1_554
H11 Yb1 2.307813 1_555
H11 Mg0 2.368923 1_555
H11 Mg1 2.368923 1_455
H12 Mg1 1.826772 1_555
H12 Mg2 1.826773 1_655
H12 Mg0 1.826778 1_555
H13 Mg2 1.826772 1_555
H13 Mg1 1.826773 1_565
H13 Mg0 1.826778 1_555
