# generated using pymatgen
data_NbBi2Mo
_symmetry_space_group_name_H-M   'P 1'
_cell_length_a   4.99380305
_cell_length_b   4.99380305
_cell_length_c   4.99380305
_cell_angle_alpha   60.00000000
_cell_angle_beta   60.00000000
_cell_angle_gamma   60.00000000
_symmetry_Int_Tables_number   1
_chemical_formula_structural   NbBi2Mo
_chemical_formula_sum   'Nb1 Bi2 Mo1'
_cell_volume   88.06011185
_cell_formula_units_Z   1
loop_
 _symmetry_equiv_pos_site_id
 _symmetry_equiv_pos_as_xyz
  1  'x, y, z'
loop_
 _atom_site_type_symbol
 _atom_site_label
 _atom_site_symmetry_multiplicity
 _atom_site_fract_x
 _atom_site_fract_y
 _atom_site_fract_z
 _atom_site_occupancy
  Nb  Nb0  1  0.25000000  0.25000000  0.25000000  1
  Bi  Bi0  1  0.00000000  0.00000000  0.00000000  1
  Bi  Bi1  1  0.75000000  0.75000000  0.75000000  1
  Mo  Mo0  1  0.50000000  0.50000000  0.50000000  1
loop_
_geom_bond_atom_site_label_1
_geom_bond_atom_site_label_2
_geom_bond_distance
_geom_bond_site_symmetry_2
Bi0 Bi1 3.058067 1_454
Bi0 Nb0 3.058067 1_455
Bi0 Nb0 3.058067 1_545
Bi0 Bi1 3.058067 1_544
Bi0 Nb0 3.058067 1_555
Bi0 Nb0 3.058067 1_554
Bi0 Bi1 3.058067 1_444
Bi0 Bi1 3.058067 1_445
Bi1 Mo0 3.058067 1_565
Bi1 Mo0 3.058067 1_655
Bi1 Mo0 3.058067 1_556
Bi1 Mo0 3.058067 1_555
Bi1 Nb0 3.531152 1_665
Bi1 Nb0 3.531152 1_556
Bi1 Nb0 3.531152 1_655
Bi1 Nb0 3.531152 1_656
Bi1 Nb0 3.531152 1_566
Bi1 Nb0 3.531152 1_565
Mo0 Nb0 3.058067 1_565
Mo0 Nb0 3.058067 1_655
Mo0 Nb0 3.058067 1_556
Mo0 Nb0 3.058067 1_555
