# generated using pymatgen
data_TbMn5Ge3
_symmetry_space_group_name_H-M   'P 1'
_cell_length_a   4.11989100
_cell_length_b   12.19125900
_cell_length_c   13.98888100
_cell_angle_alpha   90.00000000
_cell_angle_beta   90.00000000
_cell_angle_gamma   90.00000000
_symmetry_Int_Tables_number   1
_chemical_formula_structural   TbMn5Ge3
_chemical_formula_sum   'Tb4 Mn20 Ge12'
_cell_volume   702.61474505
_cell_formula_units_Z   4
loop_
 _symmetry_equiv_pos_site_id
 _symmetry_equiv_pos_as_xyz
  1  'x, y, z'
loop_
 _atom_site_type_symbol
 _atom_site_label
 _atom_site_symmetry_multiplicity
 _atom_site_fract_x
 _atom_site_fract_y
 _atom_site_fract_z
 _atom_site_occupancy
  Tb  Tb0  1  0.75000000  0.41245000  0.29324700  1
  Tb  Tb1  1  0.25000000  0.58755000  0.70675300  1
  Tb  Tb2  1  0.25000000  0.91245000  0.20675300  1
  Tb  Tb3  1  0.75000000  0.08755000  0.79324700  1
  Mn  Mn0  1  0.75000000  0.96574800  0.56342500  1
  Mn  Mn1  1  0.75000000  0.11729600  0.31310300  1
  Mn  Mn2  1  0.25000000  0.29347900  0.68484100  1
  Mn  Mn3  1  0.75000000  0.38270400  0.81310300  1
  Mn  Mn4  1  0.25000000  0.41058700  0.49800700  1
  Mn  Mn5  1  0.25000000  0.61729600  0.18689700  1
  Mn  Mn6  1  0.75000000  0.79347900  0.81515900  1
  Mn  Mn7  1  0.25000000  0.20652100  0.18484100  1
  Mn  Mn8  1  0.25000000  0.08941300  0.99800700  1
  Mn  Mn9  1  0.75000000  0.53425200  0.06342500  1
  Mn  Mn10  1  0.25000000  0.88270400  0.68689700  1
  Mn  Mn11  1  0.75000000  0.29058700  0.01943400  1
  Mn  Mn12  1  0.75000000  0.70652100  0.31515900  1
  Mn  Mn13  1  0.25000000  0.79058700  0.48056600  1
  Mn  Mn14  1  0.75000000  0.91058700  0.00199300  1
  Mn  Mn15  1  0.75000000  0.20941300  0.51943400  1
  Mn  Mn16  1  0.25000000  0.46574800  0.93657500  1
  Mn  Mn17  1  0.75000000  0.58941300  0.50199300  1
  Mn  Mn18  1  0.25000000  0.70941300  0.98056600  1
  Mn  Mn19  1  0.25000000  0.03425200  0.43657500  1
  Ge  Ge0  1  0.75000000  0.41084500  0.61950200  1
  Ge  Ge1  1  0.25000000  0.58915500  0.38049800  1
  Ge  Ge2  1  0.25000000  0.91084500  0.88049800  1
  Ge  Ge3  1  0.75000000  0.90961800  0.37993700  1
  Ge  Ge4  1  0.25000000  0.09038200  0.62006300  1
  Ge  Ge5  1  0.25000000  0.24012200  0.37805300  1
  Ge  Ge6  1  0.75000000  0.59038200  0.87993700  1
  Ge  Ge7  1  0.75000000  0.74012200  0.12194700  1
  Ge  Ge8  1  0.75000000  0.75987800  0.62194700  1
  Ge  Ge9  1  0.75000000  0.08915500  0.11950200  1
  Ge  Ge10  1  0.25000000  0.40961800  0.12006300  1
  Ge  Ge11  1  0.25000000  0.25987800  0.87805300  1
loop_
_geom_bond_atom_site_label_1
_geom_bond_atom_site_label_2
_geom_bond_distance
_geom_bond_site_symmetry_2
Ge0 Mn2 2.669477 1_655
Ge0 Mn2 2.669477 1_555
Ge0 Mn4 2.670572 1_555
Ge0 Mn4 2.670572 1_655
Ge0 Mn17 2.727881 1_555
Ge0 Mn3 2.729905 1_555
Ge0 Mn15 2.826669 1_555
Ge0 Tb1 3.220858 1_655
Ge0 Tb1 3.220858 1_555
Ge1 Mn12 2.669477 1_455
Ge1 Mn12 2.669477 1_555
Ge1 Mn17 2.670572 1_555
Ge1 Mn17 2.670572 1_455
Ge1 Mn4 2.727881 1_555
Ge1 Mn5 2.729905 1_555
Ge1 Mn13 2.826669 1_555
Ge1 Tb0 3.220858 1_555
Ge1 Tb0 3.220858 1_455
Ge2 Mn6 2.669477 1_455
Ge2 Mn6 2.669477 1_555
Ge2 Mn14 2.670572 1_556
Ge2 Mn14 2.670572 1_456
Ge2 Mn8 2.727881 1_565
Ge2 Mn10 2.729905 1_555
Ge2 Mn18 2.826669 1_555
Ge2 Tb3 3.220858 1_565
Ge2 Tb3 3.220858 1_465
Ge3 Mn12 2.636620 1_555
Ge3 Mn0 2.656441 1_555
Ge3 Mn19 2.679521 1_565
Ge3 Mn19 2.679521 1_665
Ge3 Mn1 2.698962 1_565
Ge3 Mn13 2.886305 1_555
Ge3 Mn13 2.886305 1_655
Ge3 Tb2 3.180220 1_555
Ge3 Tb2 3.180220 1_655
Ge4 Mn2 2.636620 1_555
Ge4 Mn19 2.656441 1_555
Ge4 Mn0 2.679521 1_545
Ge4 Mn0 2.679521 1_445
Ge4 Mn10 2.698962 1_545
Ge4 Mn15 2.886305 1_555
Ge4 Mn15 2.886305 1_455
Ge4 Tb3 3.180220 1_555
Ge4 Tb3 3.180220 1_455
Ge5 Mn19 2.639956 1_555
Ge5 Mn4 2.671068 1_555
Ge5 Mn1 2.703906 1_555
Ge5 Mn1 2.703906 1_455
Ge5 Mn7 2.733686 1_555
Ge5 Mn15 2.880118 1_555
Ge5 Mn15 2.880118 1_455
Ge5 Tb0 3.172466 1_555
Ge5 Tb0 3.172466 1_455
Ge6 Mn6 2.636620 1_555
Ge6 Mn9 2.656441 1_556
Ge6 Mn16 2.679521 1_555
Ge6 Mn16 2.679521 1_655
Ge6 Mn3 2.698962 1_555
Ge6 Mn18 2.886305 1_555
Ge6 Mn18 2.886305 1_655
Ge6 Tb1 3.180220 1_555
Ge6 Tb1 3.180220 1_655
Ge7 Mn9 2.639956 1_555
Ge7 Mn14 2.671068 1_555
Ge7 Mn5 2.703906 1_555
Ge7 Mn5 2.703906 1_655
Ge7 Mn12 2.733686 1_555
Ge7 Mn18 2.880118 1_554
Ge7 Mn18 2.880118 1_654
Ge7 Tb2 3.172466 1_555
Ge7 Tb2 3.172466 1_655
Ge8 Mn0 2.639956 1_555
Ge8 Mn17 2.671068 1_555
Ge8 Mn10 2.703906 1_555
Ge8 Mn10 2.703906 1_655
Ge8 Mn6 2.733686 1_555
Ge8 Mn13 2.880118 1_555
Ge8 Mn13 2.880118 1_655
Ge8 Tb1 3.172466 1_555
Ge8 Tb1 3.172466 1_655
Ge9 Mn7 2.669477 1_555
Ge9 Mn7 2.669477 1_655
Ge9 Mn8 2.670572 1_654
Ge9 Mn8 2.670572 1_554
Ge9 Mn14 2.727881 1_545
Ge9 Mn1 2.729905 1_555
Ge9 Mn11 2.826669 1_555
Ge9 Tb2 3.220858 1_645
Ge9 Tb2 3.220858 1_545
Ge10 Mn7 2.636620 1_555
Ge10 Mn16 2.656441 1_554
Ge10 Mn9 2.679521 1_455
Ge10 Mn9 2.679521 1_555
Ge10 Mn5 2.698962 1_555
Ge10 Mn11 2.886305 1_555
Ge10 Mn11 2.886305 1_455
Ge10 Tb0 3.180220 1_555
Ge10 Tb0 3.180220 1_455
Ge11 Mn16 2.639956 1_555
Ge11 Mn8 2.671068 1_555
Ge11 Mn3 2.703906 1_555
Ge11 Mn3 2.703906 1_455
Ge11 Mn2 2.733686 1_555
Ge11 Mn11 2.880118 1_556
Ge11 Mn11 2.880118 1_456
Ge11 Tb3 3.172466 1_455
Ge11 Tb3 3.172466 1_555
