# generated using pymatgen
data_KHo2Cu(MoO4)4
_symmetry_space_group_name_H-M   'P 1'
_cell_length_a   5.28425800
_cell_length_b   6.87111156
_cell_length_c   19.69633121
_cell_angle_alpha   88.85906198
_cell_angle_beta   93.29246747
_cell_angle_gamma   112.60011711
_symmetry_Int_Tables_number   1
_chemical_formula_structural   KHo2Cu(MoO4)4
_chemical_formula_sum   'K2 Ho4 Cu2 Mo8 O32'
_cell_volume   659.14041886
_cell_formula_units_Z   2
loop_
 _symmetry_equiv_pos_site_id
 _symmetry_equiv_pos_as_xyz
  1  'x, y, z'
loop_
 _atom_site_type_symbol
 _atom_site_label
 _atom_site_symmetry_multiplicity
 _atom_site_fract_x
 _atom_site_fract_y
 _atom_site_fract_z
 _atom_site_occupancy
  K  K0  1  0.97265900  0.94309000  0.75175600  1
  K  K1  1  0.02664600  0.06071300  0.25172800  1
  Ho  Ho0  1  0.85149500  0.70618300  0.53128200  1
  Ho  Ho1  1  0.85458900  0.70591000  0.96925700  1
  Ho  Ho2  1  0.14570600  0.29553200  0.03181000  1
  Ho  Ho3  1  0.15017100  0.29581900  0.46816200  1
  Cu  Cu0  1  0.69009400  0.38246400  0.75049800  1
  Cu  Cu1  1  0.30883400  0.61779800  0.24939700  1
  Mo  Mo0  1  0.54567400  0.12367400  0.90858700  1
  Mo  Mo1  1  0.26794900  0.51801600  0.64645600  1
  Mo  Mo2  1  0.42099300  0.87779000  0.40868900  1
  Mo  Mo3  1  0.25071400  0.51967500  0.85397900  1
  Mo  Mo4  1  0.45409200  0.87736300  0.09161400  1
  Mo  Mo5  1  0.73176600  0.48357000  0.35347200  1
  Mo  Mo6  1  0.57993900  0.12520100  0.59075800  1
  Mo  Mo7  1  0.74961700  0.48416400  0.14735200  1
  O  O0  1  0.21648700  0.96191200  0.03723000  1
  O  O1  1  0.50725800  0.33917100  0.95875400  1
  O  O2  1  0.30322700  0.81981500  0.17195600  1
  O  O3  1  0.90718300  0.30423800  0.36949900  1
  O  O4  1  0.93135500  0.40493100  0.21462300  1
  O  O5  1  0.69636300  0.18045400  0.82809700  1
  O  O6  1  0.77673300  0.09691400  0.10069900  1
  O  O7  1  0.58158800  0.52084600  0.43417700  1
  O  O8  1  0.47107200  0.40382000  0.28636700  1
  O  O9  1  0.06757000  0.59719100  0.78686000  1
  O  O10  1  0.51189800  0.81530600  0.32855400  1
  O  O11  1  0.83957100  0.33990700  0.54211000  1
  O  O12  1  0.48734300  0.18252300  0.67126800  1
  O  O13  1  0.05971700  0.47914200  0.93416000  1
  O  O14  1  0.42280200  0.47719800  0.56677100  1
  O  O15  1  0.26974600  0.28063300  0.82805100  1
  O  O16  1  0.60402600  0.70090000  0.87095100  1
  O  O17  1  0.94278500  0.52363200  0.06747400  1
  O  O18  1  0.01615700  0.27835900  0.67278500  1
  O  O19  1  0.32092600  0.09834200  0.39894800  1
  O  O20  1  0.25922700  0.03994100  0.53570300  1
  O  O21  1  0.49510400  0.66186400  0.04213600  1
  O  O22  1  0.73341800  0.72311100  0.17343600  1
  O  O23  1  0.22294000  0.90437700  0.89983000  1
  O  O24  1  0.74520900  0.96206300  0.46223000  1
  O  O25  1  0.09261900  0.69761800  0.62976700  1
  O  O26  1  0.52898900  0.59974200  0.71369000  1
  O  O27  1  0.67954900  0.90407100  0.59933900  1
  O  O28  1  0.16734800  0.66192600  0.45825800  1
  O  O29  1  0.78365400  0.03999100  0.96304600  1
  O  O30  1  0.98593000  0.72574500  0.32866600  1
  O  O31  1  0.39572900  0.30307900  0.13037000  1
loop_
_geom_bond_atom_site_label_1
_geom_bond_atom_site_label_2
_geom_bond_distance
_geom_bond_site_symmetry_2
K0 O15 2.677912 1_665
K0 O9 2.681276 1_655
K0 O26 2.691064 1_555
K0 O18 2.696389 1_665
K0 O5 3.038523 1_565
K0 O12 3.093396 1_665
K0 O16 3.154955 1_555
K0 O23 3.181569 1_655
K0 O25 3.190284 1_655
K0 O27 3.265272 1_555
K1 O30 2.675451 1_445
K1 O8 2.676439 1_555
K1 O4 2.680655 1_455
K1 O22 2.695421 1_445
K1 O10 3.062308 1_445
K1 O2 3.093750 1_545
K1 O3 3.116704 1_455
K1 O19 3.177443 1_555
K1 O31 3.189245 1_555
K1 O6 3.229021 1_455
Ho0 O25 2.271328 1_655
Ho0 O14 2.344030 1_555
Ho0 O28 2.372800 1_655
Ho0 O27 2.373455 1_555
Ho0 O7 2.387821 1_555
Ho0 O24 2.415041 1_555
Ho0 O20 2.469340 1_665
Ho0 O11 2.498327 1_555
Ho1 O16 2.275201 1_555
Ho1 O13 2.346855 1_655
Ho1 O21 2.369530 1_556
Ho1 O23 2.389486 1_655
Ho1 O0 2.399572 1_656
Ho1 O17 2.403491 1_556
Ho1 O29 2.463678 1_565
Ho1 O1 2.486716 1_555
Ho2 O31 2.274533 1_555
Ho2 O17 2.349835 1_455
Ho2 O1 2.380940 1_554
Ho2 O6 2.385388 1_455
Ho2 O13 2.396031 1_554
Ho2 O29 2.406826 1_454
Ho2 O0 2.459831 1_545
Ho2 O21 2.488247 1_555
Ho3 O3 2.279132 1_455
Ho3 O7 2.336825 1_555
Ho3 O11 2.362481 1_455
Ho3 O19 2.381128 1_555
Ho3 O20 2.406347 1_555
Ho3 O14 2.407484 1_555
Ho3 O24 2.462145 1_445
Ho3 O28 2.486230 1_555
Cu0 O5 2.051543 1_555
Cu0 O12 2.057322 1_555
Cu0 O9 2.069919 1_655
Cu0 O26 2.083767 1_555
Cu1 O2 2.048488 1_555
Cu1 O10 2.048606 1_555
Cu1 O4 2.056163 1_455
Cu1 O8 2.069141 1_555
Mo0 O5 1.783601 1_555
Mo0 O23 1.791686 1_545
Mo0 O29 1.854417 1_555
Mo0 O1 1.876800 1_555
Mo1 O18 1.764132 1_555
Mo1 O26 1.787791 1_555
Mo1 O25 1.821259 1_555
Mo1 O14 1.884948 1_555
Mo2 O10 1.782949 1_555
Mo2 O19 1.790429 1_565
Mo2 O24 1.853887 1_555
Mo2 O28 1.874652 1_555
Mo3 O15 1.770574 1_555
Mo3 O9 1.785817 1_555
Mo3 O16 1.818247 1_555
Mo3 O13 1.881444 1_555
Mo4 O2 1.781496 1_555
Mo4 O6 1.792602 1_565
Mo4 O0 1.855451 1_555
Mo4 O21 1.875520 1_555
Mo5 O30 1.771091 1_555
Mo5 O8 1.784501 1_555
Mo5 O3 1.818243 1_555
Mo5 O7 1.881358 1_555
Mo6 O12 1.780807 1_555
Mo6 O27 1.791222 1_545
Mo6 O20 1.855344 1_555
Mo6 O11 1.875069 1_555
Mo7 O22 1.764525 1_555
Mo7 O4 1.789197 1_555
Mo7 O31 1.820286 1_555
Mo7 O17 1.882943 1_555
