# generated using pymatgen
data_PCN2Cl3
_symmetry_space_group_name_H-M   'P 1'
_cell_length_a   10.38931800
_cell_length_b   11.34117600
_cell_length_c   15.76946966
_cell_angle_alpha   80.17148072
_cell_angle_beta   90.00000000
_cell_angle_gamma   90.00000000
_symmetry_Int_Tables_number   1
_chemical_formula_structural   PCN2Cl3
_chemical_formula_sum   'P12 C12 N24 Cl36'
_cell_volume   1830.79982273
_cell_formula_units_Z   12
loop_
 _symmetry_equiv_pos_site_id
 _symmetry_equiv_pos_as_xyz
  1  'x, y, z'
loop_
 _atom_site_type_symbol
 _atom_site_label
 _atom_site_symmetry_multiplicity
 _atom_site_fract_x
 _atom_site_fract_y
 _atom_site_fract_z
 _atom_site_occupancy
  P  P0  1  0.66207900  0.84810000  0.92256300  1
  P  P1  1  0.83792100  0.34810000  0.92256300  1
  P  P2  1  0.33792100  0.15190000  0.07743700  1
  P  P3  1  0.79763100  0.99251800  0.64946700  1
  P  P4  1  0.29763100  0.50748200  0.35053300  1
  P  P5  1  0.16207900  0.65190000  0.07743700  1
  P  P6  1  0.62292700  0.11041800  0.29048100  1
  P  P7  1  0.12292700  0.38958200  0.70951900  1
  P  P8  1  0.37707300  0.88958200  0.70951900  1
  P  P9  1  0.20236900  0.00748200  0.35053300  1
  P  P10  1  0.70236900  0.49251800  0.64946700  1
  P  P11  1  0.87707300  0.61041800  0.29048100  1
  C  C0  1  0.96831000  0.74753900  0.15784500  1
  C  C1  1  0.16552700  0.14958400  0.19659300  1
  C  C2  1  0.53169000  0.24753900  0.15784500  1
  C  C3  1  0.55505000  0.03117300  0.61966600  1
  C  C4  1  0.44495000  0.96882700  0.38033400  1
  C  C5  1  0.03169000  0.25246100  0.84215500  1
  C  C6  1  0.05505000  0.46882700  0.38033400  1
  C  C7  1  0.66552700  0.35041600  0.80340700  1
  C  C8  1  0.33447300  0.64958400  0.19659300  1
  C  C9  1  0.83447300  0.85041600  0.80340700  1
  C  C10  1  0.94495000  0.53117300  0.61966600  1
  C  C11  1  0.46831000  0.75246100  0.84215500  1
  N  N0  1  0.48705500  0.06529200  0.32951400  1
  N  N1  1  0.61273700  0.23513900  0.22345000  1
  N  N2  1  0.51294500  0.93470800  0.67048600  1
  N  N3  1  0.03467700  0.66310700  0.13146500  1
  N  N4  1  0.71853200  0.43619400  0.74828700  1
  N  N5  1  0.88726300  0.73513900  0.22345000  1
  N  N6  1  0.67467500  0.06624900  0.60618000  1
  N  N7  1  0.20411000  0.19068300  0.11749100  1
  N  N8  1  0.70411000  0.30931700  0.88250900  1
  N  N9  1  0.82532500  0.56624900  0.60618000  1
  N  N10  1  0.32532500  0.93375100  0.39382000  1
  N  N11  1  0.28146800  0.56380600  0.25171300  1
  N  N12  1  0.17467500  0.43375100  0.39382000  1
  N  N13  1  0.96532300  0.33689300  0.86853500  1
  N  N14  1  0.29589000  0.69068300  0.11749100  1
  N  N15  1  0.46532300  0.16310700  0.13146500  1
  N  N16  1  0.01294500  0.56529200  0.32951400  1
  N  N17  1  0.98705500  0.43470800  0.67048600  1
  N  N18  1  0.11273700  0.26486100  0.77655000  1
  N  N19  1  0.38726300  0.76486100  0.77655000  1
  N  N20  1  0.79589000  0.80931700  0.88250900  1
  N  N21  1  0.21853200  0.06380600  0.25171300  1
  N  N22  1  0.78146800  0.93619400  0.74828700  1
  N  N23  1  0.53467700  0.83689300  0.86853500  1
  Cl  Cl0  1  0.83339500  0.51808800  0.94236000  1
  Cl  Cl1  1  0.02690300  0.22229700  0.22732800  1
  Cl  Cl2  1  0.97309700  0.77770300  0.77267200  1
  Cl  Cl3  1  0.25523600  0.85338600  0.61829400  1
  Cl  Cl4  1  0.84651600  0.87282600  0.57356500  1
  Cl  Cl5  1  0.94194600  0.37198000  0.44102600  1
  Cl  Cl6  1  0.97995300  0.89702900  0.10274600  1
  Cl  Cl7  1  0.44323900  0.38895000  0.36478700  1
  Cl  Cl8  1  0.65679600  0.75307400  0.04240400  1
  Cl  Cl9  1  0.75523600  0.64661400  0.38170600  1
  Cl  Cl10  1  0.34651600  0.62717400  0.42643500  1
  Cl  Cl11  1  0.55676100  0.61105000  0.63521300  1
  Cl  Cl12  1  0.78504200  0.48391300  0.23740600  1
  Cl  Cl13  1  0.24476400  0.35338600  0.61829400  1
  Cl  Cl14  1  0.33339500  0.98191200  0.05764000  1
  Cl  Cl15  1  0.34320400  0.24692600  0.95759600  1
  Cl  Cl16  1  0.66660500  0.01808800  0.94236000  1
  Cl  Cl17  1  0.52004700  0.39702900  0.10274600  1
  Cl  Cl18  1  0.94323900  0.11105000  0.63521300  1
  Cl  Cl19  1  0.84320400  0.25307400  0.04240400  1
  Cl  Cl20  1  0.15348400  0.12717400  0.42643500  1
  Cl  Cl21  1  0.47995300  0.60297100  0.89725400  1
  Cl  Cl22  1  0.71495800  0.98391300  0.23740600  1
  Cl  Cl23  1  0.21495800  0.51608700  0.76259400  1
  Cl  Cl24  1  0.55805400  0.87198000  0.44102600  1
  Cl  Cl25  1  0.05676100  0.88895000  0.36478700  1
  Cl  Cl26  1  0.05805400  0.62802000  0.55897400  1
  Cl  Cl27  1  0.65348400  0.37282600  0.57356500  1
  Cl  Cl28  1  0.52690300  0.27770300  0.77267200  1
  Cl  Cl29  1  0.02004700  0.10297100  0.89725400  1
  Cl  Cl30  1  0.74476400  0.14661400  0.38170600  1
  Cl  Cl31  1  0.16660500  0.48191200  0.05764000  1
  Cl  Cl32  1  0.47309700  0.72229700  0.22732800  1
  Cl  Cl33  1  0.28504200  0.01608700  0.76259400  1
  Cl  Cl34  1  0.15679600  0.74692600  0.95759600  1
  Cl  Cl35  1  0.44194600  0.12802000  0.55897400  1
loop_
_geom_bond_atom_site_label_1
_geom_bond_atom_site_label_2
_geom_bond_distance
_geom_bond_site_symmetry_2
C0 N3 1.304373 1_655
C0 N5 1.322655 1_555
C0 Cl6 1.772295 1_555
C1 N21 1.310148 1_555
C1 N7 1.317361 1_555
C1 Cl1 1.767940 1_555
C2 N15 1.304373 1_555
C2 N1 1.322655 1_555
C2 Cl17 1.772295 1_555
C3 N6 1.311182 1_555
C3 N2 1.315741 1_545
C3 Cl35 1.773219 1_555
C4 N10 1.311182 1_555
C4 N0 1.315741 1_565
C4 Cl24 1.773219 1_555
C5 N13 1.304373 1_455
C5 N18 1.322655 1_555
C5 Cl29 1.772295 1_555
C6 N12 1.311182 1_555
C6 N16 1.315741 1_555
C6 Cl5 1.773219 1_455
C7 N4 1.310148 1_555
C7 N8 1.317361 1_555
C7 Cl28 1.767940 1_555
C8 N11 1.310148 1_555
C8 N14 1.317361 1_555
C8 Cl32 1.767940 1_555
C9 N22 1.310148 1_555
C9 N20 1.317361 1_555
C9 Cl2 1.767940 1_555
C10 N9 1.311182 1_555
C10 N17 1.315741 1_555
C10 Cl26 1.773219 1_655
C11 N23 1.304373 1_555
C11 N19 1.322655 1_555
C11 Cl21 1.772295 1_555
N0 P6 1.589313 1_555
N1 P6 1.618289 1_555
N2 P8 1.589313 1_555
N3 P5 1.590907 1_555
N4 P10 1.588967 1_555
N5 P11 1.618289 1_555
N6 P3 1.613115 1_545
N7 P2 1.618622 1_555
N8 P1 1.618622 1_555
N9 P10 1.613115 1_555
N10 P9 1.613115 1_565
N11 P4 1.588967 1_555
N12 P4 1.613115 1_555
N13 P1 1.590907 1_555
N14 P5 1.618622 1_555
N15 P2 1.590907 1_555
N16 P11 1.589313 1_455
N17 P7 1.589313 1_655
N18 P7 1.618289 1_555
N19 P8 1.618289 1_555
N20 P0 1.618622 1_555
N21 P9 1.588967 1_555
N22 P3 1.588967 1_555
N23 P0 1.590907 1_555
Cl0 P1 2.005444 1_555
Cl3 P8 2.010439 1_555
Cl4 P3 2.021870 1_555
Cl7 P4 2.010710 1_555
Cl8 P0 2.010123 1_554
Cl9 P11 2.010439 1_555
Cl10 P4 2.021870 1_555
Cl11 P10 2.010710 1_555
Cl12 P11 2.020662 1_555
Cl13 P7 2.010439 1_555
Cl14 P2 2.005444 1_565
Cl15 P2 2.010123 1_556
Cl16 P0 2.005444 1_545
Cl18 P3 2.010710 1_545
Cl19 P1 2.010123 1_554
Cl20 P9 2.021870 1_555
Cl22 P6 2.020662 1_565
Cl23 P7 2.020662 1_555
Cl25 P9 2.010710 1_565
Cl27 P10 2.021870 1_555
Cl30 P6 2.010439 1_555
Cl31 P5 2.005444 1_555
Cl33 P8 2.020662 1_545
Cl34 P5 2.010123 1_556
