# generated using pymatgen
data_Ba3La3Mn2(WO6)3
_symmetry_space_group_name_H-M   'P 1'
_cell_length_a   14.26996363
_cell_length_b   14.26996363
_cell_length_c   14.26996402
_cell_angle_alpha   23.56844542
_cell_angle_beta   23.56844542
_cell_angle_gamma   23.56844794
_symmetry_Int_Tables_number   1
_chemical_formula_structural   Ba3La3Mn2(WO6)3
_chemical_formula_sum   'Ba3 La3 Mn2 W3 O18'
_cell_volume   407.99875436
_cell_formula_units_Z   1
loop_
 _symmetry_equiv_pos_site_id
 _symmetry_equiv_pos_as_xyz
  1  'x, y, z'
loop_
 _atom_site_type_symbol
 _atom_site_label
 _atom_site_symmetry_multiplicity
 _atom_site_fract_x
 _atom_site_fract_y
 _atom_site_fract_z
 _atom_site_occupancy
  Ba  Ba0  1  0.91634100  0.91634100  0.91634100  1
  Ba  Ba1  1  0.19002700  0.19002700  0.19002700  1
  Ba  Ba2  1  0.08543700  0.08543700  0.08543700  1
  La  La0  1  0.82035400  0.82035400  0.82035400  1
  La  La1  1  0.63959100  0.63959100  0.63959100  1
  La  La2  1  0.36620200  0.36620200  0.36620200  1
  Mn  Mn0  1  0.72440900  0.72440900  0.72440900  1
  Mn  Mn1  1  0.27659400  0.27659400  0.27659400  1
  W  W0  1  0.99964000  0.99964000  0.99964000  1
  W  W1  1  0.55310800  0.55310800  0.55310800  1
  W  W2  1  0.44740000  0.44740000  0.44740000  1
  O  O0  1  0.85468200  0.85468200  0.36345600  1
  O  O1  1  0.85468200  0.36345600  0.85468200  1
  O  O2  1  0.36345600  0.85468200  0.85468200  1
  O  O3  1  0.88758000  0.42950000  0.42950000  1
  O  O4  1  0.42950000  0.42950000  0.88758000  1
  O  O5  1  0.42950000  0.88758000  0.42950000  1
  O  O6  1  0.69246400  0.19926100  0.69246400  1
  O  O7  1  0.69246400  0.69246400  0.19926100  1
  O  O8  1  0.19926100  0.69246400  0.69246400  1
  O  O9  1  0.79516100  0.30787300  0.30787300  1
  O  O10  1  0.30787300  0.30787300  0.79516100  1
  O  O11  1  0.30787300  0.79516100  0.30787300  1
  O  O12  1  0.56545300  0.11478400  0.56545300  1
  O  O13  1  0.56545300  0.56545300  0.11478400  1
  O  O14  1  0.11478400  0.56545300  0.56545300  1
  O  O15  1  0.64196000  0.13937600  0.13937600  1
  O  O16  1  0.13937600  0.64196000  0.13937600  1
  O  O17  1  0.13937600  0.13937600  0.64196000  1
loop_
_geom_bond_atom_site_label_1
_geom_bond_atom_site_label_2
_geom_bond_distance
_geom_bond_site_symmetry_2
Ba0 O7 2.851946 1_556
Ba0 O6 2.851946 1_565
Ba0 O8 2.851946 1_655
Ba0 O17 2.910420 1_665
Ba0 O16 2.910420 1_656
Ba0 O15 2.910420 1_566
Ba0 O5 2.917914 1_556
Ba0 O3 2.917914 1_556
Ba0 O3 2.917914 1_565
Ba0 O5 2.917914 1_655
Ba0 O4 2.917914 1_565
Ba0 O4 2.917914 1_655
Ba1 O11 2.801645 1_545
Ba1 O9 2.801645 1_455
Ba1 O10 2.801645 1_554
Ba1 O6 2.920954 1_554
Ba1 O8 2.920954 1_554
Ba1 O8 2.920954 1_545
Ba1 O6 2.920954 1_455
Ba1 O7 2.920954 1_545
Ba1 O7 2.920954 1_455
Ba1 O4 3.052280 1_554
Ba1 O5 3.052281 1_545
Ba1 O3 3.052281 1_455
Ba2 O10 2.751904 1_554
Ba2 O9 2.751905 1_455
Ba2 O11 2.751905 1_545
Ba2 O14 2.922742 1_554
Ba2 O12 2.922742 1_554
Ba2 O12 2.922742 1_455
Ba2 O14 2.922742 1_545
Ba2 O13 2.922743 1_545
Ba2 O13 2.922743 1_455
Ba2 O0 3.066934 1_445
Ba2 O2 3.066934 1_544
Ba2 O1 3.066934 1_454
La0 O8 2.413293 1_655
La0 O6 2.413293 1_565
La0 O7 2.413293 1_556
La0 O11 2.996457 1_556
La0 O9 2.996457 1_556
La0 O9 2.996457 1_565
La0 O11 2.996457 1_655
La0 O10 2.996458 1_565
La0 O10 2.996458 1_655
La1 O0 2.701133 1_555
La1 O1 2.701134 1_555
La1 O2 2.701134 1_555
La1 O4 2.842226 1_555
La1 O5 2.842226 1_555
La1 O3 2.842226 1_555
La1 O15 2.914442 1_565
La1 O16 2.914442 1_655
La1 O15 2.914442 1_556
La1 O16 2.914442 1_556
La1 O17 2.914442 1_565
La1 O17 2.914442 1_655
La2 O13 2.541713 1_555
La2 O12 2.541713 1_555
La2 O14 2.541713 1_555
La2 O1 2.936309 1_455
La2 O2 2.936309 1_545
La2 O1 2.936309 1_554
La2 O2 2.936309 1_554
La2 O0 2.936310 1_455
La2 O0 2.936310 1_545
La2 O17 2.991022 1_555
La2 O15 2.991023 1_555
La2 O16 2.991023 1_555
Mn0 O13 2.104052 1_556
Mn0 O14 2.104052 1_655
Mn0 O12 2.104052 1_565
Mn0 O2 2.161327 1_555
Mn0 O1 2.161327 1_555
Mn0 O0 2.161327 1_555
Mn1 O16 2.109608 1_555
Mn1 O15 2.109608 1_555
Mn1 O17 2.109608 1_555
Mn1 O4 2.157993 1_554
Mn1 O3 2.157993 1_455
Mn1 O5 2.157993 1_545
O0 W0 1.995375 1_554
O1 W0 1.995375 1_545
O2 W0 1.995375 1_455
O3 W1 1.959694 1_555
O4 W1 1.959694 1_555
O5 W1 1.959694 1_555
O6 W1 1.959653 1_555
O7 W1 1.959653 1_555
O8 W1 1.959653 1_555
O9 W2 1.896510 1_555
O10 W2 1.896510 1_555
O11 W2 1.896510 1_555
O12 W2 2.022664 1_555
O13 W2 2.022664 1_555
O14 W2 2.022664 1_555
O15 W0 1.994522 1_544
O16 W0 1.994522 1_454
O17 W0 1.994522 1_445
