# generated using pymatgen
data_Na3Ca(BO2)5
_symmetry_space_group_name_H-M   'P 1'
_cell_length_a   7.48398818
_cell_length_b   7.51895712
_cell_length_c   9.70272385
_cell_angle_alpha   79.03321584
_cell_angle_beta   69.54980994
_cell_angle_gamma   57.82384395
_symmetry_Int_Tables_number   1
_chemical_formula_structural   Na3Ca(BO2)5
_chemical_formula_sum   'Na6 Ca2 B10 O20'
_cell_volume   433.00231287
_cell_formula_units_Z   2
loop_
 _symmetry_equiv_pos_site_id
 _symmetry_equiv_pos_as_xyz
  1  'x, y, z'
loop_
 _atom_site_type_symbol
 _atom_site_label
 _atom_site_symmetry_multiplicity
 _atom_site_fract_x
 _atom_site_fract_y
 _atom_site_fract_z
 _atom_site_occupancy
  Na  Na0  1  0.00812308  0.21143832  0.44990046  1
  Na  Na1  1  0.73278486  0.52742916  0.75042105  1
  Na  Na2  1  0.99187692  0.78856168  0.55009954  1
  Na  Na3  1  0.84116736  0.95542755  0.17186626  1
  Na  Na4  1  0.15883264  0.04457245  0.82813374  1
  Na  Na5  1  0.26721514  0.47257084  0.24957895  1
  Ca  Ca0  1  0.78715448  0.46082059  0.11681105  1
  Ca  Ca1  1  0.21284552  0.53917941  0.88318895  1
  B  B0  1  0.58142445  0.14923762  0.71082996  1
  B  B1  1  0.70431086  0.17874090  0.91464109  1
  B  B2  1  0.73030556  0.71720557  0.39777207  1
  B  B3  1  0.29568914  0.82125910  0.08535891  1
  B  B4  1  0.24025977  0.15996043  0.13045673  1
  B  B5  1  0.75974023  0.84003957  0.86954327  1
  B  B6  1  0.26969444  0.28279443  0.60222793  1
  B  B7  1  0.63042568  0.23506263  0.44054316  1
  B  B8  1  0.41857555  0.85076238  0.28917004  1
  B  B9  1  0.36957432  0.76493737  0.55945684  1
  O  O0  1  0.75696753  0.27768860  0.97749344  1
  O  O1  1  0.24303247  0.72231140  0.02250656  1
  O  O2  1  0.66965670  0.92773981  0.75561609  1
  O  O3  1  0.33034330  0.07226019  0.24438391  1
  O  O4  1  0.76292225  0.24157995  0.30851268  1
  O  O5  1  0.40456846  0.73005403  0.19200854  1
  O  O6  1  0.23166672  0.03209175  0.04843426  1
  O  O7  1  0.07971292  0.29801251  0.62120963  1
  O  O8  1  0.34776362  0.24653952  0.72323200  1
  O  O9  1  0.14773702  0.36545174  0.10213623  1
  O  O10  1  0.59543154  0.26994597  0.80799146  1
  O  O11  1  0.40774334  0.30081190  0.46362895  1
  O  O12  1  0.71210486  0.15848175  0.56067932  1
  O  O13  1  0.92028708  0.70198749  0.37879037  1
  O  O14  1  0.76833328  0.96790825  0.95156574  1
  O  O15  1  0.23707775  0.75842005  0.69148732  1
  O  O16  1  0.65223638  0.75346048  0.27676800  1
  O  O17  1  0.28789514  0.84151825  0.43932068  1
  O  O18  1  0.85226298  0.63454826  0.89786377  1
  O  O19  1  0.59225666  0.69918810  0.53637105  1
loop_
_geom_bond_atom_site_label_1
_geom_bond_atom_site_label_2
_geom_bond_distance
_geom_bond_site_symmetry_2
Na0 O7 2.208848 1_555
Na0 O12 2.309662 1_455
Na0 O3 2.373336 1_555
Na0 O17 2.426253 1_545
Na0 O4 2.549268 1_455
Na1 O7 2.250946 1_655
Na1 O18 2.365202 1_555
Na1 O19 2.479225 1_555
Na1 O10 2.534499 1_555
Na1 O0 2.599153 1_555
Na1 O2 2.794979 1_555
Na2 O13 2.208848 1_555
Na2 O17 2.309662 1_655
Na2 O2 2.373336 1_555
Na2 O12 2.426253 1_565
Na2 O15 2.549268 1_655
Na3 O14 2.357601 1_554
Na3 O4 2.435358 1_565
Na3 O16 2.456515 1_555
Na3 O13 2.487208 1_555
Na3 O1 2.554230 1_655
Na3 O0 2.700124 1_564
Na4 O6 2.357601 1_556
Na4 O15 2.435358 1_545
Na4 O8 2.456515 1_555
Na4 O7 2.487208 1_555
Na4 O0 2.554230 1_455
Na4 O1 2.700124 1_546
Na5 O13 2.250946 1_455
Na5 O9 2.365202 1_555
Na5 O11 2.479225 1_555
Na5 O5 2.534499 1_555
Na5 O1 2.599153 1_555
Na5 O3 2.794979 1_555
Ca0 O0 2.242149 1_554
Ca0 O4 2.264085 1_555
Ca0 O18 2.314188 1_554
Ca0 O9 2.350801 1_655
Ca0 O5 2.399479 1_555
Ca0 O16 2.471400 1_555
Ca1 O1 2.242149 1_556
Ca1 O15 2.264085 1_555
Ca1 O9 2.314188 1_556
Ca1 O18 2.350801 1_455
Ca1 O10 2.399479 1_555
Ca1 O8 2.471400 1_555
B0 O12 1.456717 1_555
B0 O8 1.459997 1_555
B0 O2 1.467112 1_545
B0 O10 1.489768 1_555
B1 O0 1.316640 1_555
B1 O10 1.388930 1_555
B1 O14 1.402079 1_545
B2 O13 1.311618 1_555
B2 O16 1.407857 1_555
B2 O19 1.415307 1_555
B3 O1 1.316640 1_555
B3 O5 1.388930 1_555
B3 O6 1.402079 1_565
B4 O9 1.331993 1_555
B4 O3 1.371573 1_555
B4 O6 1.398072 1_555
B5 O18 1.331993 1_555
B5 O2 1.371573 1_555
B5 O14 1.398072 1_555
B6 O7 1.311618 1_555
B6 O8 1.407857 1_555
B6 O11 1.415307 1_555
B7 O4 1.329279 1_555
B7 O12 1.389829 1_555
B7 O11 1.405619 1_555
B8 O17 1.456717 1_555
B8 O16 1.459997 1_555
B8 O3 1.467112 1_565
B8 O5 1.489768 1_555
B9 O15 1.329279 1_555
B9 O17 1.389829 1_555
B9 O19 1.405619 1_555
