# generated using pymatgen
data_Na2Ca4ZrNbSi4O17F
_symmetry_space_group_name_H-M   'P 1'
_cell_length_a   10.40147000
_cell_length_b   7.37812400
_cell_length_c   10.96446681
_cell_angle_alpha   71.08215732
_cell_angle_beta   90.00000000
_cell_angle_gamma   90.00000000
_symmetry_Int_Tables_number   1
_chemical_formula_structural   Na2Ca4ZrNbSi4O17F
_chemical_formula_sum   'Na4 Ca8 Zr2 Nb2 Si8 O34 F2'
_cell_volume   795.99837502
_cell_formula_units_Z   2
loop_
 _symmetry_equiv_pos_site_id
 _symmetry_equiv_pos_as_xyz
  1  'x, y, z'
loop_
 _atom_site_type_symbol
 _atom_site_label
 _atom_site_symmetry_multiplicity
 _atom_site_fract_x
 _atom_site_fract_y
 _atom_site_fract_z
 _atom_site_occupancy
  Na  Na0  1  0.06809900  0.68772700  0.87817700  1
  Na  Na1  1  0.56809900  0.31227300  0.12182300  1
  Na  Na2  1  0.91706600  0.55256100  0.63241200  1
  Na  Na3  1  0.41706600  0.44743900  0.36758800  1
  Ca  Ca0  1  0.68332000  0.69965600  0.84516900  1
  Ca  Ca1  1  0.91134700  0.05634200  0.63258900  1
  Ca  Ca2  1  0.18213900  0.79922700  0.14503700  1
  Ca  Ca3  1  0.68213900  0.20077300  0.85496300  1
  Ca  Ca4  1  0.41134700  0.94365800  0.36741100  1
  Ca  Ca5  1  0.18332000  0.30034400  0.15483100  1
  Ca  Ca6  1  0.29709800  0.55223600  0.65256100  1
  Ca  Ca7  1  0.79709800  0.44776400  0.34743900  1
  Zr  Zr0  1  0.79133200  0.94666600  0.34218600  1
  Zr  Zr1  1  0.29133200  0.05333400  0.65781400  1
  Nb  Nb0  1  0.05314400  0.19568100  0.86615100  1
  Nb  Nb1  1  0.55314400  0.80431900  0.13384900  1
  Si  Si0  1  0.37419600  0.19738200  0.92040100  1
  Si  Si1  1  0.87419600  0.80261800  0.07959900  1
  Si  Si2  1  0.36473300  0.63471400  0.92731500  1
  Si  Si3  1  0.86473300  0.36528600  0.07268500  1
  Si  Si4  1  0.61228100  0.56387200  0.56143200  1
  Si  Si5  1  0.11228100  0.43612800  0.43856800  1
  Si  Si6  1  0.61352200  0.12485700  0.56691400  1
  Si  Si7  1  0.11352200  0.87514300  0.43308600  1
  O  O0  1  0.62352900  0.36194000  0.52280300  1
  O  O1  1  0.12352900  0.63806000  0.47719700  1
  O  O2  1  0.89955200  0.57832700  0.08508600  1
  O  O3  1  0.39955200  0.42167300  0.91491400  1
  O  O4  1  0.39309500  0.77460300  0.21410800  1
  O  O5  1  0.89309500  0.22539700  0.78589200  1
  O  O6  1  0.62018600  0.56379200  0.22179500  1
  O  O7  1  0.12018600  0.43620800  0.77820500  1
  O  O8  1  0.61701400  0.95565700  0.24397200  1
  O  O9  1  0.11701400  0.04434300  0.75602800  1
  O  O10  1  0.17102100  0.97640800  0.28990100  1
  O  O11  1  0.67102100  0.02359200  0.71009900  1
  O  O12  1  0.87456200  0.79105300  0.23243400  1
  O  O13  1  0.63969200  0.51769100  0.71353900  1
  O  O14  1  0.71828000  0.09045200  0.46378300  1
  O  O15  1  0.13969200  0.48230900  0.28646100  1
  O  O16  1  0.73457000  0.68213000  0.47410200  1
  O  O17  1  0.23457000  0.31787000  0.52589800  1
  O  O18  1  0.96578600  0.92791800  0.45865800  1
  O  O19  1  0.46578600  0.07208200  0.54134200  1
  O  O20  1  0.97019400  0.34970400  0.48782600  1
  O  O21  1  0.47019400  0.65029600  0.51217400  1
  O  O22  1  0.83542800  0.22890300  0.22183200  1
  O  O23  1  0.33542800  0.77109700  0.77816800  1
  O  O24  1  0.23639600  0.12102700  0.99104200  1
  O  O25  1  0.73639600  0.87897300  0.00895800  1
  O  O26  1  0.24074400  0.61310400  0.01948600  1
  O  O27  1  0.74074400  0.38689600  0.98051400  1
  O  O28  1  0.50085700  0.08314600  0.99373800  1
  O  O29  1  0.00085700  0.91685400  0.00626200  1
  O  O30  1  0.49802600  0.70233900  0.97999200  1
  O  O31  1  0.99802600  0.29766100  0.02000800  1
  O  O32  1  0.37456200  0.20894700  0.76756600  1
  O  O33  1  0.21828000  0.90954800  0.53621700  1
  F  F0  1  0.88850200  0.74678700  0.75878600  1
  F  F1  1  0.38850200  0.25321300  0.24121400  1
loop_
_geom_bond_atom_site_label_1
_geom_bond_atom_site_label_2
_geom_bond_distance
_geom_bond_site_symmetry_2
Na0 O26 2.318475 1_556
Na0 O7 2.501560 1_555
Na0 O9 2.586617 1_565
Na0 O29 2.618934 1_556
Na0 O2 2.772072 1_456
Na0 O31 2.886205 1_456
Na0 O23 2.979133 1_555
Na1 O27 2.318475 1_554
Na1 O6 2.501560 1_555
Na1 O8 2.586617 1_545
Na1 O28 2.618934 1_554
Na1 O3 2.772072 1_554
Na1 O30 2.886205 1_554
Na1 O22 2.979133 1_555
Na2 O5 2.467146 1_555
Na2 O16 2.540498 1_555
Na2 O20 2.568510 1_555
Na2 O7 2.620338 1_655
Na2 O1 2.685133 1_655
Na2 O18 2.852172 1_555
Na2 O13 3.005465 1_555
Na3 O4 2.467146 1_555
Na3 O17 2.540498 1_555
Na3 O21 2.568510 1_555
Na3 O6 2.620338 1_555
Na3 O0 2.685133 1_555
Na3 O19 2.852172 1_555
Na3 O15 3.005465 1_555
Ca0 O13 2.312531 1_555
Ca0 F0 2.315000 1_555
Ca0 O11 2.372084 1_565
Ca0 O27 2.379797 1_555
Ca0 O30 2.432946 1_555
Ca0 O25 2.611687 1_556
Ca1 F0 2.266765 1_545
Ca1 O20 2.313272 1_555
Ca1 O5 2.403471 1_555
Ca1 O18 2.454999 1_545
Ca1 O9 2.517597 1_655
Ca1 O11 2.626062 1_555
Ca1 O14 2.686968 1_555
Ca2 O4 2.309129 1_555
Ca2 O26 2.319090 1_555
Ca2 O10 2.364651 1_555
Ca2 O15 2.390778 1_555
Ca2 O29 2.401594 1_555
Ca2 O24 2.491419 1_564
Ca3 O5 2.309129 1_555
Ca3 O27 2.319090 1_555
Ca3 O11 2.364651 1_555
Ca3 O13 2.390778 1_555
Ca3 O28 2.401594 1_555
Ca3 O25 2.491419 1_546
Ca4 F1 2.266765 1_565
Ca4 O21 2.313272 1_555
Ca4 O4 2.403471 1_555
Ca4 O19 2.454999 1_565
Ca4 O8 2.517597 1_555
Ca4 O10 2.626062 1_555
Ca4 O33 2.686968 1_555
Ca5 O15 2.312531 1_555
Ca5 F1 2.315000 1_555
Ca5 O10 2.372084 1_545
Ca5 O26 2.379797 1_555
Ca5 O31 2.432946 1_455
Ca5 O24 2.611687 1_554
Ca6 O7 2.291749 1_555
Ca6 O21 2.326436 1_555
Ca6 O23 2.470876 1_555
Ca6 O1 2.562794 1_555
Ca6 O32 2.565839 1_555
Ca6 O17 2.626592 1_555
Ca6 O33 2.658719 1_555
Ca6 O3 2.922572 1_555
Ca7 O6 2.291749 1_555
Ca7 O20 2.326436 1_555
Ca7 O22 2.470876 1_555
Ca7 O0 2.562794 1_555
Ca7 O12 2.565839 1_555
Ca7 O16 2.626592 1_555
Ca7 O14 2.658719 1_555
Ca7 O2 2.922572 1_555
Nb0 O7 1.858989 1_555
Nb0 O5 1.862454 1_455
Nb0 O9 2.005057 1_555
Nb0 O31 2.136282 1_456
Nb0 O29 2.199707 1_546
Nb0 O24 2.307086 1_555
Nb1 O6 1.858989 1_555
Nb1 O4 1.862454 1_555
Nb1 O8 2.005057 1_555
Nb1 O30 2.136282 1_554
Nb1 O28 2.199707 1_564
Nb1 O25 2.307086 1_555
O0 Si6 1.660112 1_555
O0 Si4 1.679880 1_555
O1 Si7 1.660112 1_555
O1 Si5 1.679880 1_555
O2 Si1 1.657450 1_555
O2 Si3 1.661002 1_555
O3 Si0 1.657450 1_555
O3 Si2 1.661002 1_555
O8 Zr0 2.098875 1_555
O9 Zr1 2.098875 1_555
O10 Si7 1.618662 1_555
O11 Si6 1.618662 1_555
O12 Si1 1.650070 1_555
O12 Zr0 2.100394 1_555
O13 Si4 1.615666 1_555
O14 Si6 1.648189 1_555
O14 Zr0 2.097020 1_545
O15 Si5 1.615666 1_555
O16 Si4 1.659628 1_555
O16 Zr0 2.102271 1_555
O17 Si5 1.659628 1_555
O17 Zr1 2.102271 1_555
O18 Si7 1.631681 1_655
O18 Zr0 2.197305 1_555
O19 Si6 1.631681 1_555
O19 Zr1 2.197305 1_555
O20 Si5 1.630708 1_655
O21 Si4 1.630708 1_555
O22 Si3 1.647030 1_555
O22 Zr0 2.122789 1_545
O23 Si2 1.647030 1_555
O23 Zr1 2.122789 1_565
O24 Si0 1.639745 1_555
O25 Si1 1.639745 1_555
O26 Si2 1.614158 1_554
O27 Si3 1.614158 1_556
O28 Si0 1.628869 1_555
O29 Si1 1.628869 1_455
O30 Si2 1.640618 1_555
O31 Si3 1.640618 1_555
O32 Si0 1.650070 1_555
O32 Zr1 2.100394 1_555
O33 Si7 1.648189 1_555
O33 Zr1 2.097020 1_565
F0 Na0 2.241279 1_655
F0 Na2 2.312858 1_555
F1 Na1 2.241279 1_555
F1 Na3 2.312858 1_555
