# generated using pymatgen
data_Li9(RuO3)10
_symmetry_space_group_name_H-M   'P 1'
_cell_length_a   29.93239796
_cell_length_b   16.29970625
_cell_length_c   10.72293250
_cell_angle_alpha   24.93528808
_cell_angle_beta   26.25309409
_cell_angle_gamma   16.94137801
_symmetry_Int_Tables_number   1
_chemical_formula_structural   Li9(RuO3)10
_chemical_formula_sum   'Li9 Ru10 O30'
_cell_volume   624.00480882
_cell_formula_units_Z   1
loop_
 _symmetry_equiv_pos_site_id
 _symmetry_equiv_pos_as_xyz
  1  'x, y, z'
loop_
 _atom_site_type_symbol
 _atom_site_label
 _atom_site_symmetry_multiplicity
 _atom_site_fract_x
 _atom_site_fract_y
 _atom_site_fract_z
 _atom_site_occupancy
  Li  Li0  1  0.00095200  0.99762300  0.99871800  1
  Li  Li1  1  0.20130400  0.99958900  0.99261200  1
  Li  Li2  1  0.39869600  0.00041100  0.00738800  1
  Li  Li3  1  0.59904800  0.00237700  0.00128200  1
  Li  Li4  1  0.19858000  0.50563400  0.49571200  1
  Li  Li5  1  0.80000000  0.00000000  0.00000000  1
  Li  Li6  1  0.40142000  0.49436600  0.50428800  1
  Li  Li7  1  0.60323300  0.49547300  0.49781400  1
  Li  Li8  1  0.99676700  0.50452700  0.50218600  1
  Ru  Ru0  1  0.07084600  0.32262200  0.32584500  1
  Ru  Ru1  1  0.26666300  0.33193400  0.32346700  1
  Ru  Ru2  1  0.13127700  0.67276700  0.67753800  1
  Ru  Ru3  1  0.46872300  0.32723300  0.32246200  1
  Ru  Ru4  1  0.33333700  0.66806600  0.67653300  1
  Ru  Ru5  1  0.67376400  0.31910000  0.32162500  1
  Ru  Ru6  1  0.52915400  0.67737800  0.67415500  1
  Ru  Ru7  1  0.86526600  0.33487500  0.34068500  1
  Ru  Ru8  1  0.73473400  0.66512500  0.65931500  1
  Ru  Ru9  1  0.92623600  0.68090000  0.67837500  1
  O  O0  1  0.11964500  0.07811600  0.68334600  1
  O  O1  1  0.14490100  0.43639100  0.08796500  1
  O  O2  1  0.14151800  0.32166100  0.56378300  1
  O  O3  1  0.05319000  0.69410400  0.42534600  1
  O  O4  1  0.31481900  0.08597900  0.68346500  1
  O  O5  1  0.34348100  0.44110400  0.08523600  1
  O  O6  1  0.06133700  0.55219600  0.91363700  1
  O  O7  1  0.07816200  0.93019400  0.31675500  1
  O  O8  1  0.34341200  0.32147100  0.55414200  1
  O  O9  1  0.25658800  0.67852900  0.44585800  1
  O  O10  1  0.52183800  0.06980600  0.68324500  1
  O  O11  1  0.53866300  0.44780400  0.08636300  1
  O  O12  1  0.25651900  0.55889600  0.91476400  1
  O  O13  1  0.28518100  0.91402100  0.31653500  1
  O  O14  1  0.54681000  0.30589600  0.57465400  1
  O  O15  1  0.45848200  0.67833900  0.43621700  1
  O  O16  1  0.71712000  0.08834600  0.68212300  1
  O  O17  1  0.75030300  0.43178500  0.06945400  1
  O  O18  1  0.45509900  0.56360900  0.91203500  1
  O  O19  1  0.48035500  0.92188400  0.31665400  1
  O  O20  1  0.74556400  0.31722400  0.56619700  1
  O  O21  1  0.64831600  0.69286900  0.44388900  1
  O  O22  1  0.92163100  0.06628800  0.69888000  1
  O  O23  1  0.94651000  0.44267200  0.07412200  1
  O  O24  1  0.65349000  0.55732800  0.92587800  1
  O  O25  1  0.67836900  0.93371200  0.30112000  1
  O  O26  1  0.95168400  0.30713100  0.55611100  1
  O  O27  1  0.85443600  0.68277600  0.43380300  1
  O  O28  1  0.84969700  0.56821500  0.93054600  1
  O  O29  1  0.88288000  0.91165400  0.31787700  1
loop_
_geom_bond_atom_site_label_1
_geom_bond_atom_site_label_2
_geom_bond_distance
_geom_bond_site_symmetry_2
Li0 O3 2.198556 1_556
Li0 O17 2.211810 1_466
Li0 O26 2.246826 1_465
Li0 O0 2.258470 1_565
Li0 O12 2.264901 1_555
Li0 O29 2.291073 1_456
Li1 O7 2.193896 1_556
Li1 O2 2.216650 1_565
Li1 O4 2.236422 1_565
Li1 O18 2.243782 1_555
Li1 O23 2.280227 1_466
Li1 O9 2.340283 1_556
Li2 O10 2.193896 1_554
Li2 O15 2.216650 1_545
Li2 O13 2.236422 1_545
Li2 O1 2.243782 1_555
Li2 O24 2.280227 1_544
Li2 O8 2.340283 1_554
Li3 O14 2.198556 1_554
Li3 O28 2.211810 1_544
Li3 O21 2.246826 1_545
Li3 O19 2.258470 1_545
Li3 O5 2.264901 1_555
Li3 O16 2.291073 1_554
Li4 O6 2.171774 1_555
Li4 O5 2.171842 1_555
Li4 O8 2.181968 1_555
Li4 O4 2.236994 1_555
Li4 O3 2.248069 1_555
Li4 O7 2.272642 1_555
Li5 O27 2.210110 1_545
Li5 O20 2.210110 1_554
Li5 O22 2.227353 1_554
Li5 O25 2.227353 1_545
Li5 O11 2.313454 1_555
Li5 O6 2.313454 1_644
Li6 O11 2.171774 1_555
Li6 O12 2.171842 1_555
Li6 O9 2.181968 1_555
Li6 O13 2.236994 1_555
Li6 O14 2.248069 1_555
Li6 O10 2.272642 1_555
Li7 O16 2.140815 1_555
Li7 O18 2.195733 1_555
Li7 O15 2.224414 1_555
Li7 O19 2.242804 1_555
Li7 O20 2.277602 1_555
Li7 O17 2.278189 1_555
Li8 O29 2.140815 1_555
Li8 O1 2.195733 1_655
Li8 O2 2.224414 1_655
Li8 O0 2.242804 1_655
Li8 O27 2.277602 1_555
Li8 O28 2.278189 1_555
O0 Ru4 1.961067 1_545
O0 Ru0 1.977667 1_555
O1 Ru2 1.959870 1_554
O1 Ru0 2.000694 1_555
O2 Ru1 1.950249 1_555
O2 Ru9 1.994262 1_455
O3 Ru9 1.964751 1_455
O3 Ru1 1.969478 1_555
O4 Ru6 1.958382 1_545
O4 Ru1 1.977311 1_555
O5 Ru4 1.954257 1_554
O5 Ru1 2.006848 1_555
O6 Ru0 1.960425 1_556
O6 Ru2 1.998957 1_555
O7 Ru7 1.975031 1_465
O7 Ru2 1.982520 1_555
O8 Ru3 1.945822 1_555
O8 Ru2 1.991420 1_555
O9 Ru2 1.945822 1_555
O9 Ru3 1.991420 1_555
O10 Ru8 1.975031 1_545
O10 Ru3 1.982520 1_555
O11 Ru6 1.960425 1_554
O11 Ru3 1.998957 1_555
O12 Ru1 1.954257 1_556
O12 Ru4 2.006848 1_555
O13 Ru0 1.958382 1_565
O13 Ru4 1.977311 1_555
O14 Ru5 1.964751 1_555
O14 Ru4 1.969478 1_555
O15 Ru4 1.950249 1_555
O15 Ru5 1.994262 1_555
O16 Ru9 1.946352 1_545
O16 Ru5 2.016247 1_555
O17 Ru5 1.966134 1_555
O17 Ru8 1.993529 1_554
O18 Ru3 1.959870 1_556
O18 Ru6 2.000694 1_555
O19 Ru1 1.961067 1_565
O19 Ru6 1.977667 1_555
O20 Ru6 1.970637 1_555
O20 Ru7 1.984312 1_555
O21 Ru6 1.917791 1_555
O21 Ru7 1.941196 1_555
O22 Ru2 1.910883 1_645
O22 Ru7 1.939559 1_555
O23 Ru9 1.918609 1_554
O23 Ru7 1.941602 1_555
O24 Ru5 1.918609 1_556
O24 Ru8 1.941602 1_555
O25 Ru3 1.910883 1_565
O25 Ru8 1.939559 1_555
O26 Ru0 1.917791 1_655
O26 Ru8 1.941196 1_555
O27 Ru0 1.970637 1_655
O27 Ru8 1.984312 1_555
O28 Ru9 1.966134 1_555
O28 Ru7 1.993529 1_556
O29 Ru5 1.946352 1_565
O29 Ru9 2.016247 1_555
