# generated using pymatgen
data_RbTa(CuTe2)2
_symmetry_space_group_name_H-M   'P 1'
_cell_length_a   6.02425600
_cell_length_b   8.25062600
_cell_length_c   20.49239300
_cell_angle_alpha   90.00000000
_cell_angle_beta   90.00000000
_cell_angle_gamma   90.00000000
_symmetry_Int_Tables_number   1
_chemical_formula_structural   RbTa(CuTe2)2
_chemical_formula_sum   'Rb4 Ta4 Cu8 Te16'
_cell_volume   1018.55150784
_cell_formula_units_Z   4
loop_
 _symmetry_equiv_pos_site_id
 _symmetry_equiv_pos_as_xyz
  1  'x, y, z'
loop_
 _atom_site_type_symbol
 _atom_site_label
 _atom_site_symmetry_multiplicity
 _atom_site_fract_x
 _atom_site_fract_y
 _atom_site_fract_z
 _atom_site_occupancy
  Rb  Rb0  1  0.74267800  0.25649700  0.06343500  1
  Rb  Rb1  1  0.24267800  0.24350300  0.56343500  1
  Rb  Rb2  1  0.24267800  0.74350300  0.93656500  1
  Rb  Rb3  1  0.74267800  0.75649700  0.43656500  1
  Ta  Ta0  1  0.49954400  0.75533400  0.14514900  1
  Ta  Ta1  1  0.99954400  0.74466600  0.64514900  1
  Ta  Ta2  1  0.99954400  0.24466600  0.85485100  1
  Ta  Ta3  1  0.49954400  0.25533400  0.35485100  1
  Cu  Cu0  1  0.50005100  0.24487700  0.85514500  1
  Cu  Cu1  1  0.00005100  0.25512300  0.35514500  1
  Cu  Cu2  1  0.98858900  0.49645300  0.75083100  1
  Cu  Cu3  1  0.48858900  0.50354700  0.24916900  1
  Cu  Cu4  1  0.50005100  0.74487700  0.64485500  1
  Cu  Cu5  1  0.48858900  0.00354700  0.25083100  1
  Cu  Cu6  1  0.98858900  0.99645300  0.74916900  1
  Cu  Cu7  1  0.00005100  0.75512300  0.14485500  1
  Te  Te0  1  0.24724900  0.99415700  0.35732900  1
  Te  Te1  1  0.25756800  0.74640400  0.75086700  1
  Te  Te2  1  0.25756800  0.24640400  0.74913300  1
  Te  Te3  1  0.74724900  0.50584300  0.85732900  1
  Te  Te4  1  0.74704400  0.98360100  0.85531800  1
  Te  Te5  1  0.24927700  0.74112900  0.54003700  1
  Te  Te6  1  0.75756800  0.25359600  0.24913300  1
  Te  Te7  1  0.74927700  0.75887100  0.04003700  1
  Te  Te8  1  0.74704400  0.48360100  0.64468200  1
  Te  Te9  1  0.74927700  0.25887100  0.45996300  1
  Te  Te10  1  0.24704400  0.51639900  0.35531800  1
  Te  Te11  1  0.74724900  0.00584300  0.64267100  1
  Te  Te12  1  0.24927700  0.24112900  0.95996300  1
  Te  Te13  1  0.24724900  0.49415700  0.14267100  1
  Te  Te14  1  0.75756800  0.75359600  0.25086700  1
  Te  Te15  1  0.24704400  0.01639900  0.14468200  1
loop_
_geom_bond_atom_site_label_1
_geom_bond_atom_site_label_2
_geom_bond_distance
_geom_bond_site_symmetry_2
Rb0 Te12 3.653373 1_554
Rb0 Te12 3.718348 1_654
Rb0 Te6 3.806529 1_555
Rb0 Te13 3.922908 1_555
Rb0 Te15 3.951126 1_555
Rb0 Te13 3.964970 1_655
Rb0 Te15 3.991027 1_655
Rb0 Te7 4.133820 1_545
Rb0 Te7 4.172730 1_555
Rb1 Te9 3.653373 1_455
Rb1 Te9 3.718348 1_555
Rb1 Te2 3.806529 1_555
Rb1 Te11 3.922908 1_455
Rb1 Te8 3.951126 1_455
Rb1 Te11 3.964970 1_555
Rb1 Te8 3.991027 1_555
Rb1 Te5 4.133820 1_555
Rb1 Te5 4.172730 1_545
Rb2 Te7 3.653373 1_456
Rb2 Te7 3.718348 1_556
Rb2 Te1 3.806529 1_555
Rb2 Te3 3.922908 1_455
Rb2 Te4 3.951126 1_455
Rb2 Te3 3.964970 1_555
Rb2 Te4 3.991027 1_555
Rb2 Te12 4.133820 1_565
Rb2 Te12 4.172730 1_555
Rb3 Te5 3.653373 1_555
Rb3 Te5 3.718348 1_655
Rb3 Te14 3.806529 1_555
Rb3 Te0 3.922908 1_555
Rb3 Te10 3.951126 1_555
Rb3 Te0 3.964970 1_655
Rb3 Te10 3.991027 1_655
Rb3 Te9 4.133820 1_555
Rb3 Te9 4.172730 1_565
Ta0 Te7 2.627535 1_555
Ta0 Te15 2.636932 1_565
Ta0 Te13 2.637447 1_555
Ta0 Te14 2.666407 1_555
Ta1 Te5 2.627535 1_655
Ta1 Te8 2.636932 1_555
Ta1 Te11 2.637447 1_565
Ta1 Te1 2.666407 1_655
Ta2 Te12 2.627535 1_655
Ta2 Te4 2.636932 1_545
Ta2 Te3 2.637447 1_555
Ta2 Te2 2.666407 1_655
Ta3 Te9 2.627535 1_555
Ta3 Te10 2.636932 1_555
Ta3 Te0 2.637447 1_545
Ta3 Te6 2.666407 1_555
Cu0 Te2 2.617925 1_555
Cu0 Te3 2.618330 1_555
Cu0 Te4 2.619352 1_545
Cu0 Te12 2.626220 1_555
Cu0 Ta2 3.009080 1_555
Cu0 Ta2 3.015189 1_455
Cu1 Te6 2.617925 1_455
Cu1 Te0 2.618330 1_545
Cu1 Te10 2.619352 1_555
Cu1 Te9 2.626220 1_455
Cu1 Ta3 3.009080 1_555
Cu1 Ta3 3.015189 1_455
Cu2 Te8 2.619226 1_555
Cu2 Te1 2.622704 1_655
Cu2 Te3 2.623485 1_555
Cu2 Te2 2.623570 1_655
Cu2 Ta2 2.977204 1_555
Cu2 Ta1 2.981352 1_555
Cu3 Te10 2.619226 1_555
Cu3 Te6 2.622704 1_555
Cu3 Te13 2.623485 1_555
Cu3 Te14 2.623570 1_555
Cu3 Ta0 2.977204 1_555
Cu3 Ta3 2.981352 1_555
Cu4 Te1 2.617925 1_555
Cu4 Te11 2.618330 1_565
Cu4 Te8 2.619352 1_555
Cu4 Te5 2.626220 1_555
Cu4 Ta1 3.009080 1_555
Cu4 Ta1 3.015189 1_455
Cu5 Te15 2.619226 1_555
Cu5 Te14 2.622704 1_545
Cu5 Te0 2.623485 1_545
Cu5 Te6 2.623570 1_555
Cu5 Ta3 2.977204 1_555
Cu5 Ta0 2.981352 1_545
Cu6 Te4 2.619226 1_555
Cu6 Te2 2.622704 1_665
Cu6 Te11 2.623485 1_565
Cu6 Te1 2.623570 1_655
Cu6 Ta1 2.977204 1_555
Cu6 Ta2 2.981352 1_565
Cu7 Te14 2.617925 1_455
Cu7 Te13 2.618330 1_555
Cu7 Te15 2.619352 1_565
Cu7 Te7 2.626220 1_455
Cu7 Ta0 3.009080 1_555
Cu7 Ta0 3.015189 1_455
