# generated using pymatgen
data_BiTeIO3
_symmetry_space_group_name_H-M   'P 1'
_cell_length_a   3.96901200
_cell_length_b   3.96901200
_cell_length_c   29.24748600
_cell_angle_alpha   90.00000000
_cell_angle_beta   90.00000000
_cell_angle_gamma   90.00000000
_symmetry_Int_Tables_number   1
_chemical_formula_structural   BiTeIO3
_chemical_formula_sum   'Bi4 Te4 I4 O12'
_cell_volume   460.73729231
_cell_formula_units_Z   4
loop_
 _symmetry_equiv_pos_site_id
 _symmetry_equiv_pos_as_xyz
  1  'x, y, z'
loop_
 _atom_site_type_symbol
 _atom_site_label
 _atom_site_symmetry_multiplicity
 _atom_site_fract_x
 _atom_site_fract_y
 _atom_site_fract_z
 _atom_site_occupancy
  Bi  Bi0  1  0.50000000  0.00000000  0.95706400  1
  Bi  Bi1  1  0.00000000  0.50000000  0.04293600  1
  Bi  Bi2  1  0.00000000  0.50000000  0.71075300  1
  Bi  Bi3  1  0.50000000  0.00000000  0.28924700  1
  Te  Te0  1  0.50000000  0.00000000  0.78788900  1
  Te  Te1  1  0.00000000  0.50000000  0.21211100  1
  Te  Te2  1  0.50000000  0.00000000  0.62494000  1
  Te  Te3  1  0.00000000  0.50000000  0.37506000  1
  I  I0  1  0.00000000  0.50000000  0.89280400  1
  I  I1  1  0.50000000  0.00000000  0.10719600  1
  I  I2  1  0.50000000  0.00000000  0.44403000  1
  I  I3  1  0.00000000  0.50000000  0.55597000  1
  O  O0  1  0.50000000  0.50000000  0.00000000  1
  O  O1  1  0.00000000  0.00000000  0.00000000  1
  O  O2  1  0.50000000  0.50000000  0.77257700  1
  O  O3  1  0.00000000  0.00000000  0.77257700  1
  O  O4  1  0.00000000  0.00000000  0.22742300  1
  O  O5  1  0.50000000  0.50000000  0.22742300  1
  O  O6  1  0.50000000  0.50000000  0.65536900  1
  O  O7  1  0.00000000  0.00000000  0.65536900  1
  O  O8  1  0.00000000  0.00000000  0.34463100  1
  O  O9  1  0.50000000  0.50000000  0.34463100  1
  O  O10  1  0.50000000  0.00000000  0.71998500  1
  O  O11  1  0.00000000  0.50000000  0.28001500  1
loop_
_geom_bond_atom_site_label_1
_geom_bond_atom_site_label_2
_geom_bond_distance
_geom_bond_site_symmetry_2
Bi0 O1 2.348451 1_656
Bi0 O1 2.348451 1_556
Bi0 O0 2.348451 1_556
Bi0 O0 2.348451 1_546
Bi0 I0 3.377697 1_645
Bi0 I0 3.377697 1_655
Bi0 I0 3.377697 1_545
Bi0 I0 3.377697 1_555
Bi1 O0 2.348451 1_555
Bi1 O1 2.348451 1_555
Bi1 O1 2.348451 1_565
Bi1 O0 2.348451 1_455
Bi1 I1 3.377697 1_465
Bi1 I1 3.377697 1_455
Bi1 I1 3.377697 1_565
Bi1 I1 3.377697 1_555
Bi2 O6 2.561670 1_455
Bi2 O7 2.561670 1_555
Bi2 O7 2.561670 1_565
Bi2 O6 2.561670 1_555
Bi2 O2 2.684742 1_455
Bi2 O3 2.684742 1_565
Bi2 O2 2.684742 1_555
Bi2 O3 2.684742 1_555
Bi2 O10 2.819474 1_555
Bi2 O10 2.819474 1_465
Bi2 O10 2.819474 1_455
Bi2 O10 2.819474 1_565
Bi3 O9 2.561670 1_555
Bi3 O9 2.561670 1_545
Bi3 O8 2.561670 1_555
Bi3 O8 2.561670 1_655
Bi3 O5 2.684742 1_545
Bi3 O4 2.684742 1_555
Bi3 O4 2.684742 1_655
Bi3 O5 2.684742 1_555
Bi3 O11 2.819474 1_655
Bi3 O11 2.819474 1_555
Bi3 O11 2.819474 1_645
Bi3 O11 2.819474 1_545
I2 Te3 3.456244 1_555
I2 Te3 3.456244 1_655
I2 Te3 3.456244 1_545
I2 Te3 3.456244 1_645
I3 Te2 3.456244 1_565
I3 Te2 3.456244 1_555
I3 Te2 3.456244 1_455
I3 Te2 3.456244 1_465
O2 Te0 2.034410 1_565
O2 Te0 2.034410 1_555
O3 Te0 2.034410 1_555
O3 Te0 2.034410 1_455
O4 Te1 2.034410 1_545
O4 Te1 2.034410 1_555
O5 Te1 2.034410 1_655
O5 Te1 2.034410 1_555
O6 Te2 2.174928 1_565
O6 Te2 2.174928 1_555
O7 Te2 2.174928 1_455
O7 Te2 2.174928 1_555
O8 Te3 2.174928 1_555
O8 Te3 2.174928 1_545
O9 Te3 2.174928 1_655
O9 Te3 2.174928 1_555
O10 Te0 1.986021 1_555
O11 Te1 1.986021 1_555
