# generated using pymatgen
data_Yb2Zr8O19
_symmetry_space_group_name_H-M   'P 1'
_cell_length_a   3.65677500
_cell_length_b   3.65677500
_cell_length_c   25.91534300
_cell_angle_alpha   90.00000000
_cell_angle_beta   90.00000000
_cell_angle_gamma   90.00000000
_symmetry_Int_Tables_number   1
_chemical_formula_structural   Yb2Zr8O19
_chemical_formula_sum   'Yb2 Zr8 O19'
_cell_volume   346.54005472
_cell_formula_units_Z   1
loop_
 _symmetry_equiv_pos_site_id
 _symmetry_equiv_pos_as_xyz
  1  'x, y, z'
loop_
 _atom_site_type_symbol
 _atom_site_label
 _atom_site_symmetry_multiplicity
 _atom_site_fract_x
 _atom_site_fract_y
 _atom_site_fract_z
 _atom_site_occupancy
  Yb  Yb0  1  0.00000000  0.50000000  0.94631100  1
  Yb  Yb1  1  0.50000000  0.00000000  0.05368900  1
  Zr  Zr0  1  0.00000000  0.50000000  0.14855100  1
  Zr  Zr1  1  0.50000000  0.00000000  0.24916500  1
  Zr  Zr2  1  0.00000000  0.50000000  0.34916400  1
  Zr  Zr3  1  0.50000000  0.00000000  0.44925600  1
  Zr  Zr4  1  0.00000000  0.50000000  0.55074400  1
  Zr  Zr5  1  0.50000000  0.00000000  0.65083600  1
  Zr  Zr6  1  0.00000000  0.50000000  0.75083500  1
  Zr  Zr7  1  0.50000000  0.00000000  0.85144900  1
  O  O0  1  0.50000000  0.50000000  0.40067600  1
  O  O1  1  0.00000000  0.00000000  0.50000000  1
  O  O2  1  0.50000000  0.50000000  0.59932400  1
  O  O3  1  0.00000000  0.00000000  0.69822300  1
  O  O4  1  0.50000000  0.50000000  0.79820800  1
  O  O5  1  0.00000000  0.00000000  0.89389400  1
  O  O6  1  0.50000000  0.50000000  0.89776300  1
  O  O7  1  0.00000000  0.00000000  0.00000000  1
  O  O8  1  0.00000000  0.00000000  0.10610600  1
  O  O9  1  0.50000000  0.50000000  0.10223700  1
  O  O10  1  0.50000000  0.50000000  0.20179200  1
  O  O11  1  0.00000000  0.00000000  0.20142500  1
  O  O12  1  0.00000000  0.00000000  0.30177700  1
  O  O13  1  0.50000000  0.50000000  0.30120700  1
  O  O14  1  0.00000000  0.00000000  0.39877800  1
  O  O15  1  0.50000000  0.50000000  0.50000000  1
  O  O16  1  0.00000000  0.00000000  0.60122200  1
  O  O17  1  0.50000000  0.50000000  0.69879300  1
  O  O18  1  0.00000000  0.00000000  0.79857500  1
loop_
_geom_bond_atom_site_label_1
_geom_bond_atom_site_label_2
_geom_bond_distance
_geom_bond_site_symmetry_2
O0 Zr3 2.219910 1_555
O0 Zr3 2.219910 1_565
O0 Zr2 2.263867 1_555
O0 Zr2 2.263867 1_655
O1 Zr4 2.252188 1_545
O1 Zr3 2.252188 1_555
O1 Zr4 2.252188 1_555
O1 Zr3 2.252188 1_455
O2 Zr4 2.219910 1_655
O2 Zr4 2.219910 1_555
O2 Zr5 2.263867 1_555
O2 Zr5 2.263867 1_565
O3 Zr5 2.202523 1_555
O3 Zr5 2.202523 1_455
O3 Zr6 2.280793 1_545
O3 Zr6 2.280793 1_555
O4 Zr6 2.202321 1_555
O4 Zr6 2.202321 1_655
O4 Zr7 2.290575 1_565
O4 Zr7 2.290575 1_555
O5 Zr7 2.133764 1_455
O5 Zr7 2.133764 1_555
O5 Yb0 2.277776 1_545
O5 Yb0 2.277776 1_555
O6 Zr7 2.187141 1_555
O6 Zr7 2.187141 1_565
O6 Yb0 2.219440 1_555
O6 Yb0 2.219440 1_655
O7 Yb0 2.297587 1_554
O7 Yb0 2.297587 1_544
O7 Yb1 2.297587 1_455
O7 Yb1 2.297587 1_555
O8 Zr0 2.133764 1_555
O8 Zr0 2.133764 1_545
O8 Yb1 2.277776 1_455
O8 Yb1 2.277776 1_555
O9 Zr0 2.187141 1_655
O9 Zr0 2.187141 1_555
O9 Yb1 2.219440 1_555
O9 Yb1 2.219440 1_565
O10 Zr1 2.202321 1_565
O10 Zr1 2.202321 1_555
O10 Zr0 2.290575 1_555
O10 Zr0 2.290575 1_655
O11 Zr1 2.207637 1_555
O11 Zr1 2.207637 1_455
O11 Zr0 2.284859 1_555
O11 Zr0 2.284859 1_545
O12 Zr2 2.202523 1_555
O12 Zr2 2.202523 1_545
O12 Zr1 2.280793 1_555
O12 Zr1 2.280793 1_455
O13 Zr2 2.210793 1_655
O13 Zr2 2.210793 1_555
O13 Zr1 2.271994 1_555
O13 Zr1 2.271994 1_565
O14 Zr2 2.235216 1_545
O14 Zr2 2.235216 1_555
O14 Zr3 2.248170 1_555
O14 Zr3 2.248170 1_455
O15 Zr3 2.252188 1_565
O15 Zr3 2.252188 1_555
O15 Zr4 2.252188 1_555
O15 Zr4 2.252188 1_655
O16 Zr5 2.235216 1_455
O16 Zr5 2.235216 1_555
O16 Zr4 2.248170 1_545
O16 Zr4 2.248170 1_555
O17 Zr5 2.210793 1_565
O17 Zr5 2.210793 1_555
O17 Zr6 2.271994 1_655
O17 Zr6 2.271994 1_555
O18 Zr6 2.207637 1_555
O18 Zr6 2.207637 1_545
O18 Zr7 2.284859 1_455
O18 Zr7 2.284859 1_555
