# generated using pymatgen
data_BaMnSi2
_symmetry_space_group_name_H-M   'P 1'
_cell_length_a   4.41793700
_cell_length_b   6.82999600
_cell_length_c   13.23746600
_cell_angle_alpha   90.00000000
_cell_angle_beta   90.00000000
_cell_angle_gamma   90.00000000
_symmetry_Int_Tables_number   1
_chemical_formula_structural   BaMnSi2
_chemical_formula_sum   'Ba4 Mn4 Si8'
_cell_volume   399.43381242
_cell_formula_units_Z   4
loop_
 _symmetry_equiv_pos_site_id
 _symmetry_equiv_pos_as_xyz
  1  'x, y, z'
loop_
 _atom_site_type_symbol
 _atom_site_label
 _atom_site_symmetry_multiplicity
 _atom_site_fract_x
 _atom_site_fract_y
 _atom_site_fract_z
 _atom_site_occupancy
  Ba  Ba0  1  0.75000000  0.76693400  0.09767800  1
  Ba  Ba1  1  0.25000000  0.73306600  0.59767800  1
  Ba  Ba2  1  0.25000000  0.23306600  0.90232200  1
  Ba  Ba3  1  0.75000000  0.26693400  0.40232200  1
  Mn  Mn0  1  0.25000000  0.77841200  0.34865800  1
  Mn  Mn1  1  0.75000000  0.22158800  0.65134200  1
  Mn  Mn2  1  0.25000000  0.27841200  0.15134200  1
  Mn  Mn3  1  0.75000000  0.72158800  0.84865800  1
  Si  Si0  1  0.25000000  0.02751100  0.24901700  1
  Si  Si1  1  0.75000000  0.77460000  0.37051400  1
  Si  Si2  1  0.25000000  0.22540000  0.62948600  1
  Si  Si3  1  0.75000000  0.47248900  0.74901700  1
  Si  Si4  1  0.25000000  0.72540000  0.87051400  1
  Si  Si5  1  0.25000000  0.52751100  0.25098300  1
  Si  Si6  1  0.75000000  0.97248900  0.75098300  1
  Si  Si7  1  0.75000000  0.27460000  0.12948600  1
loop_
_geom_bond_atom_site_label_1
_geom_bond_atom_site_label_2
_geom_bond_distance
_geom_bond_site_symmetry_2
Ba0 Mn3 3.310911 1_554
Ba0 Si7 3.388898 1_555
Ba0 Si5 3.416424 1_655
Ba0 Si5 3.416424 1_555
Ba0 Si0 3.472810 1_565
Ba0 Si0 3.472810 1_665
Ba0 Si7 3.492829 1_565
Ba0 Si1 3.612037 1_555
Ba0 Si4 3.741994 1_554
Ba0 Si4 3.741994 1_654
Ba1 Mn0 3.310911 1_555
Ba1 Si2 3.388898 1_565
Ba1 Si6 3.416424 1_555
Ba1 Si6 3.416424 1_455
Ba1 Si3 3.472810 1_555
Ba1 Si3 3.472810 1_455
Ba1 Si2 3.492829 1_555
Ba1 Si4 3.612037 1_555
Ba1 Si1 3.741994 1_555
Ba1 Si1 3.741994 1_455
Ba2 Mn2 3.310911 1_556
Ba2 Si4 3.388898 1_555
Ba2 Si3 3.416424 1_455
Ba2 Si3 3.416424 1_555
Ba2 Si6 3.472810 1_445
Ba2 Si6 3.472810 1_545
Ba2 Si4 3.492829 1_545
Ba2 Si2 3.612037 1_555
Ba2 Si7 3.741994 1_556
Ba2 Si7 3.741994 1_456
Ba3 Mn1 3.310911 1_555
Ba3 Si1 3.388898 1_545
Ba3 Si0 3.416424 1_655
Ba3 Si0 3.416424 1_555
Ba3 Si5 3.472810 1_655
Ba3 Si5 3.472810 1_555
Ba3 Si1 3.492829 1_555
Ba3 Si7 3.612037 1_555
Ba3 Si2 3.741994 1_555
Ba3 Si2 3.741994 1_655
Mn0 Si5 2.146713 1_555
Mn0 Si0 2.152747 1_565
Mn0 Si1 2.227987 1_555
Mn0 Si1 2.227987 1_455
Mn1 Si3 2.146713 1_555
Mn1 Si6 2.152747 1_545
Mn1 Si2 2.227987 1_655
Mn1 Si2 2.227987 1_555
Mn2 Si0 2.146713 1_555
Mn2 Si5 2.152747 1_555
Mn2 Si7 2.227987 1_555
Mn2 Si7 2.227987 1_455
Mn3 Si6 2.146713 1_555
Mn3 Si3 2.152747 1_555
Mn3 Si4 2.227987 1_655
Mn3 Si4 2.227987 1_555
