# generated using pymatgen
data_Dy2(GePt3)3
_symmetry_space_group_name_H-M   'P 1'
_cell_length_a   7.75455874
_cell_length_b   7.75455874
_cell_length_c   10.06274853
_cell_angle_alpha   67.07422831
_cell_angle_beta   67.07422831
_cell_angle_gamma   60.23558244
_symmetry_Int_Tables_number   1
_chemical_formula_structural   Dy2(GePt3)3
_chemical_formula_sum   'Dy4 Ge6 Pt18'
_cell_volume   468.99756694
_cell_formula_units_Z   2
loop_
 _symmetry_equiv_pos_site_id
 _symmetry_equiv_pos_as_xyz
  1  'x, y, z'
loop_
 _atom_site_type_symbol
 _atom_site_label
 _atom_site_symmetry_multiplicity
 _atom_site_fract_x
 _atom_site_fract_y
 _atom_site_fract_z
 _atom_site_occupancy
  Dy  Dy0  1  0.24605365  0.41627311  0.25118130  1
  Dy  Dy1  1  0.58372689  0.75394635  0.24881870  1
  Dy  Dy2  1  0.75394635  0.58372689  0.74881870  1
  Dy  Dy3  1  0.41627311  0.24605365  0.75118130  1
  Ge  Ge0  1  0.81792761  0.36165745  0.50280931  1
  Ge  Ge1  1  0.63834255  0.18207239  0.99719069  1
  Ge  Ge2  1  0.36165745  0.81792761  0.00280931  1
  Ge  Ge3  1  0.18207239  0.63834255  0.49719069  1
  Ge  Ge4  1  0.00000000  0.50000000  0.00000000  1
  Ge  Ge5  1  0.50000000  0.00000000  0.50000000  1
  Pt  Pt0  1  0.20292679  0.02441949  0.42036371  1
  Pt  Pt1  1  0.30373610  0.14153335  0.07858718  1
  Pt  Pt2  1  0.64325016  0.47630040  0.07574174  1
  Pt  Pt3  1  0.52369960  0.35674984  0.42425826  1
  Pt  Pt4  1  0.85846665  0.69626390  0.42141282  1
  Pt  Pt5  1  0.91314402  0.29832151  0.25793049  1
  Pt  Pt6  1  0.70167849  0.08685598  0.24206951  1
  Pt  Pt7  1  0.79707321  0.97558051  0.57963629  1
  Pt  Pt8  1  0.47630040  0.64325016  0.57574174  1
  Pt  Pt9  1  0.86563977  0.13436023  0.75000000  1
  Pt  Pt10  1  0.97558051  0.79707321  0.07963629  1
  Pt  Pt11  1  0.29832151  0.91314402  0.75793049  1
  Pt  Pt12  1  0.35674984  0.52369960  0.92425826  1
  Pt  Pt13  1  0.13436023  0.86563977  0.25000000  1
  Pt  Pt14  1  0.69626390  0.85846665  0.92141282  1
  Pt  Pt15  1  0.08685598  0.70167849  0.74206951  1
  Pt  Pt16  1  0.02441949  0.20292679  0.92036371  1
  Pt  Pt17  1  0.14153335  0.30373610  0.57858718  1
loop_
_geom_bond_atom_site_label_1
_geom_bond_atom_site_label_2
_geom_bond_distance
_geom_bond_site_symmetry_2
Dy0 Pt12 2.937364 1_554
Dy0 Pt17 2.941913 1_555
Dy0 Pt0 2.962887 1_555
Dy0 Pt10 2.966283 1_455
Dy0 Pt1 3.014419 1_555
Dy0 Pt4 3.014837 1_455
Dy0 Pt3 3.031533 1_555
Dy0 Pt2 3.060593 1_555
Dy0 Pt5 3.108882 1_455
Dy0 Pt13 3.141998 1_555
Dy0 Pt6 3.160079 1_555
Dy1 Pt8 2.937364 1_555
Dy1 Pt14 2.941913 1_554
Dy1 Pt10 2.962887 1_555
Dy1 Pt0 2.966283 1_565
Dy1 Pt4 3.014419 1_555
Dy1 Pt1 3.014837 1_565
Dy1 Pt2 3.031533 1_555
Dy1 Pt3 3.060593 1_555
Dy1 Pt6 3.108882 1_565
Dy1 Pt13 3.141998 1_555
Dy1 Pt5 3.160079 1_555
Dy2 Pt2 2.937364 1_556
Dy2 Pt4 2.941913 1_555
Dy2 Pt7 2.962887 1_555
Dy2 Pt16 2.966283 1_655
Dy2 Pt14 3.014419 1_555
Dy2 Pt17 3.014837 1_655
Dy2 Pt8 3.031533 1_555
Dy2 Pt12 3.060593 1_555
Dy2 Pt15 3.108882 1_655
Dy2 Pt9 3.141998 1_555
Dy2 Pt11 3.160079 1_555
Dy3 Pt3 2.937364 1_555
Dy3 Pt1 2.941913 1_556
Dy3 Pt16 2.962887 1_555
Dy3 Pt7 2.966283 1_545
Dy3 Pt17 3.014419 1_555
Dy3 Pt14 3.014837 1_545
Dy3 Pt12 3.031533 1_555
Dy3 Pt8 3.060593 1_555
Dy3 Pt11 3.108882 1_545
Dy3 Pt9 3.141998 1_555
Dy3 Pt15 3.160079 1_555
Ge0 Pt5 2.454342 1_555
Ge0 Pt9 2.466711 1_555
Ge0 Pt8 2.513006 1_555
Ge0 Pt4 2.540831 1_555
Ge0 Pt17 2.680532 1_655
Ge0 Pt3 2.710474 1_555
Ge0 Pt7 2.857816 1_545
Ge0 Pt0 2.906753 1_655
Ge1 Pt6 2.454342 1_556
Ge1 Pt9 2.466711 1_555
Ge1 Pt12 2.513006 1_555
Ge1 Pt1 2.540831 1_556
Ge1 Pt14 2.680532 1_545
Ge1 Pt2 2.710474 1_556
Ge1 Pt16 2.857816 1_655
Ge1 Pt10 2.906753 1_546
Ge2 Pt11 2.454342 1_554
Ge2 Pt13 2.466711 1_555
Ge2 Pt2 2.513006 1_555
Ge2 Pt14 2.540831 1_554
Ge2 Pt1 2.680532 1_565
Ge2 Pt12 2.710474 1_554
Ge2 Pt10 2.857816 1_455
Ge2 Pt16 2.906753 1_564
Ge3 Pt15 2.454342 1_555
Ge3 Pt13 2.466711 1_555
Ge3 Pt3 2.513006 1_555
Ge3 Pt17 2.540831 1_555
Ge3 Pt4 2.680532 1_455
Ge3 Pt8 2.710474 1_555
Ge3 Pt0 2.857816 1_565
Ge3 Pt7 2.906753 1_455
Ge4 Pt5 2.481449 1_455
Ge4 Pt15 2.481449 1_554
Ge4 Pt10 2.621417 1_455
Ge4 Pt16 2.621417 1_554
Ge4 Pt2 2.649687 1_455
Ge4 Pt12 2.649687 1_554
Ge4 Pt1 2.671695 1_555
Ge4 Pt14 2.671695 1_454
Ge5 Pt6 2.481449 1_555
Ge5 Pt11 2.481449 1_545
Ge5 Pt0 2.621417 1_555
Ge5 Pt7 2.621417 1_545
Ge5 Pt8 2.649687 1_545
Ge5 Pt3 2.649687 1_555
Ge5 Pt4 2.671695 1_545
Ge5 Pt17 2.671695 1_555
