# generated using pymatgen
data_Ti24Ga5S48
_symmetry_space_group_name_H-M   'P 1'
_cell_length_a   7.09136317
_cell_length_b   85.04610677
_cell_length_c   12.27944341
_cell_angle_alpha   29.96332465
_cell_angle_beta   54.72204004
_cell_angle_gamma   59.97752554
_symmetry_Int_Tables_number   1
_chemical_formula_structural   Ti24Ga5S48
_chemical_formula_sum   'Ti48 Ga10 S96'
_cell_volume   3019.48316867
_cell_formula_units_Z   2
loop_
 _symmetry_equiv_pos_site_id
 _symmetry_equiv_pos_as_xyz
  1  'x, y, z'
loop_
 _atom_site_type_symbol
 _atom_site_label
 _atom_site_symmetry_multiplicity
 _atom_site_fract_x
 _atom_site_fract_y
 _atom_site_fract_z
 _atom_site_occupancy
  Ti  Ti0  1  0.14545341  0.00001769  0.62582577  1
  Ti  Ti1  1  0.62573929  0.03801221  0.14618457  1
  Ti  Ti2  1  0.60267540  0.00001543  0.62583689  1
  Ti  Ti3  1  0.14832170  0.08154268  0.62453231  1
  Ti  Ti4  1  0.61055961  0.12032995  0.16745247  1
  Ti  Ti5  1  0.61887768  0.04052593  0.63796058  1
  Ti  Ti6  1  0.62411427  0.08154126  0.62452699  1
  Ti  Ti7  1  0.14846038  0.16844594  0.60307343  1
  Ti  Ti8  1  0.61891584  0.20945469  0.12435592  1
  Ti  Ti9  1  0.61053592  0.12968037  0.61139326  1
  Ti  Ti10  1  0.62404695  0.16844715  0.60304955  1
  Ti  Ti11  1  0.14568274  0.24998050  0.62597280  1
  Ti  Ti12  1  0.62529853  0.28802077  0.14657197  1
  Ti  Ti13  1  0.62570887  0.21200659  0.60225017  1
  Ti  Ti14  1  0.60261160  0.24998362  0.62595674  1
  Ti  Ti15  1  0.14688918  0.33164293  0.62439768  1
  Ti  Ti16  1  0.61082174  0.37040690  0.16674869  1
  Ti  Ti17  1  0.61904947  0.29028928  0.63920998  1
  Ti  Ti18  1  0.62458552  0.33164460  0.62440132  1
  Ti  Ti19  1  0.16530259  0.41659315  0.61203080  1
  Ti  Ti20  1  0.61173888  0.45383435  0.16525914  1
  Ti  Ti21  1  0.61140144  0.37933563  0.61258356  1
  Ti  Ti22  1  0.61152747  0.41659585  0.61198679  1
  Ti  Ti23  1  0.16391329  0.50009954  0.61181757  1
  Ti  Ti24  1  0.61250171  0.53746527  0.16268946  1
  Ti  Ti25  1  0.61203438  0.46276151  0.61137868  1
  Ti  Ti26  1  0.61126492  0.50009939  0.61184096  1
  Ti  Ti27  1  0.16237967  0.58336614  0.61245671  1
  Ti  Ti28  1  0.61264466  0.62085585  0.16221109  1
  Ti  Ti29  1  0.61254027  0.54586038  0.61229853  1
  Ti  Ti30  1  0.61232661  0.58336739  0.61242208  1
  Ti  Ti31  1  0.16299387  0.66662263  0.61273388  1
  Ti  Ti32  1  0.61239101  0.70408431  0.16310163  1
  Ti  Ti33  1  0.61240368  0.62921266  0.61231356  1
  Ti  Ti34  1  0.61208521  0.66662156  0.61271852  1
  Ti  Ti35  1  0.16381955  0.74989723  0.61305985  1
  Ti  Ti36  1  0.61251154  0.71253994  0.61224898  1
  Ti  Ti37  1  0.61211476  0.78724987  0.16437924  1
  Ti  Ti38  1  0.61130412  0.74989744  0.61305063  1
  Ti  Ti39  1  0.16452165  0.83340940  0.61139379  1
  Ti  Ti40  1  0.61164608  0.87076133  0.16378458  1
  Ti  Ti41  1  0.61201378  0.79606297  0.61160785  1
  Ti  Ti42  1  0.61177826  0.83340642  0.61139886  1
  Ti  Ti43  1  0.14675034  0.91837214  0.60404121  1
  Ti  Ti44  1  0.61899856  0.95972482  0.12264903  1
  Ti  Ti45  1  0.61097323  0.87957281  0.61159962  1
  Ti  Ti46  1  0.62470685  0.91837173  0.60404696  1
  Ti  Ti47  1  0.62536183  0.96194601  0.60294971  1
  Ga  Ga0  1  0.00085678  0.08375185  0.99663598  1
  Ga  Ga1  1  0.00084713  0.16624287  0.00170594  1
  Ga  Ga2  1  0.00006389  0.33418235  0.99485151  1
  Ga  Ga3  1  0.00086296  0.41718875  0.99601010  1
  Ga  Ga4  1  0.00011485  0.49987265  0.00064776  1
  Ga  Ga5  1  0.00005185  0.58327918  0.00028169  1
  Ga  Ga6  1  0.00005306  0.66672042  0.99963448  1
  Ga  Ga7  1  0.00012472  0.75013406  0.99907117  1
  Ga  Ga8  1  0.00085481  0.83281622  0.00224001  1
  Ga  Ga9  1  0.00006145  0.91581533  0.00505320  1
  S  S0  1  0.37381464  0.00001617  0.38065947  1
  S  S1  1  0.38127012  0.04107067  0.37229379  1
  S  S2  1  0.37921883  0.08255436  0.38195089  1
  S  S3  1  0.86466200  0.00001481  0.38066900  1
  S  S4  1  0.39012446  0.99998156  0.86845992  1
  S  S5  1  0.87043567  0.03901666  0.39549068  1
  S  S6  1  0.37660772  0.12298230  0.38550668  1
  S  S7  1  0.37662192  0.04207995  0.87090394  1
  S  S8  1  0.87321975  0.99997947  0.86844501  1
  S  S9  1  0.37917511  0.16745862  0.37253431  1
  S  S10  1  0.86624592  0.08255471  0.38193867  1
  S  S11  1  0.39800120  0.08386578  0.86504261  1
  S  S12  1  0.86831946  0.04436999  0.86546164  1
  S  S13  1  0.86447546  0.12278616  0.39880609  1
  S  S14  1  0.37655696  0.12701627  0.86134604  1
  S  S15  1  0.37664472  0.20792893  0.37579972  1
  S  S16  1  0.86549886  0.08385972  0.86508821  1
  S  S17  1  0.37384679  0.24998607  0.38088493  1
  S  S18  1  0.86624999  0.16745844  0.37253217  1
  S  S19  1  0.39806376  0.16614559  0.87138462  1
  S  S20  1  0.38120436  0.29106099  0.37242085  1
  S  S21  1  0.86444543  0.12722031  0.87222246  1
  S  S22  1  0.86823294  0.20564050  0.39792167  1
  S  S23  1  0.38129003  0.20895284  0.86496713  1
  S  S24  1  0.86540644  0.16615220  0.87135036  1
  S  S25  1  0.37981803  0.33262417  0.38153769  1
  S  S26  1  0.86453362  0.24998129  0.38091625  1
  S  S27  1  0.39014065  0.25000681  0.86823526  1
  S  S28  1  0.37704280  0.37295489  0.38521940  1
  S  S29  1  0.87041705  0.21100210  0.86359603  1
  S  S30  1  0.87081679  0.28914697  0.39431258  1
  S  S31  1  0.37666512  0.29213043  0.87054222  1
  S  S32  1  0.87333815  0.25000969  0.86820101  1
  S  S33  1  0.37505498  0.41669444  0.37494005  1
  S  S34  1  0.86562753  0.33262678  0.38149291  1
  S  S35  1  0.39739369  0.33388274  0.86509883  1
  S  S36  1  0.37532253  0.45825989  0.37509928  1
  S  S37  1  0.86827281  0.29440511  0.86531973  1
  S  S38  1  0.37441592  0.37485472  0.87646924  1
  S  S39  1  0.86543259  0.37302921  0.39640210  1
  S  S40  1  0.86581408  0.33388033  0.86511212  1
  S  S41  1  0.37491662  0.50001897  0.37538306  1
  S  S42  1  0.87477304  0.41669603  0.37492658  1
  S  S43  1  0.40018764  0.41675150  0.86596467  1
  S  S44  1  0.37529043  0.54175323  0.37417096  1
  S  S45  1  0.86659212  0.45548797  0.40046511  1
  S  S46  1  0.86617500  0.37802085  0.86567920  1
  S  S47  1  0.37541382  0.45835089  0.87446962  1
  S  S48  1  0.86686150  0.41675134  0.86599495  1
  S  S49  1  0.37525485  0.58333061  0.37537212  1
  S  S50  1  0.87415070  0.50001892  0.37535154  1
  S  S51  1  0.39970595  0.49994835  0.86706949  1
  S  S52  1  0.37543631  0.62498515  0.37465676  1
  S  S53  1  0.86631309  0.46129885  0.86588246  1
  S  S54  1  0.86700587  0.53886369  0.39979042  1
  S  S55  1  0.37541835  0.54173572  0.87414724  1
  S  S56  1  0.86679227  0.49994730  0.86708366  1
  S  S57  1  0.37524124  0.66666725  0.37546394  1
  S  S58  1  0.87407809  0.58333097  0.37536881  1
  S  S59  1  0.39944088  0.58332690  0.86685924  1
  S  S60  1  0.86692338  0.54436297  0.86688810  1
  S  S61  1  0.37553737  0.70824364  0.37499345  1
  S  S62  1  0.86688916  0.62227975  0.39942258  1
  S  S63  1  0.37553881  0.62503475  0.87425504  1
  S  S64  1  0.86691706  0.58332944  0.86686384  1
  S  S65  1  0.37493730  0.74996217  0.37567677  1
  S  S66  1  0.87385833  0.66666674  0.37546417  1
  S  S67  1  0.39945837  0.66668099  0.86665102  1
  S  S68  1  0.37531767  0.70823006  0.87529961  1
  S  S69  1  0.86697874  0.62773803  0.86657778  1
  S  S70  1  0.86689126  0.70560863  0.39943052  1
  S  S71  1  0.37537574  0.79165047  0.37472094  1
  S  S72  1  0.86707592  0.66667730  0.86668793  1
  S  S73  1  0.37487928  0.83330562  0.37521601  1
  S  S74  1  0.87421617  0.74996085  0.37566352  1
  S  S75  1  0.39962758  0.75001699  0.86667873  1
  S  S76  1  0.86692636  0.71111787  0.86634147  1
  S  S77  1  0.86642584  0.78870516  0.40132720  1
  S  S78  1  0.37519185  0.79171392  0.87449798  1
  S  S79  1  0.37430371  0.87516367  0.37472836  1
  S  S80  1  0.86681327  0.75001783  0.86668752  1
  S  S81  1  0.37984666  0.91738061  0.37296551  1
  S  S82  1  0.87505288  0.83330434  0.37521870  1
  S  S83  1  0.40005363  0.83325785  0.86702576  1
  S  S84  1  0.37704443  0.87704265  0.86069399  1
  S  S85  1  0.86659674  0.79448592  0.86647813  1
  S  S86  1  0.86616097  0.87200989  0.40176882  1
  S  S87  1  0.37674337  0.95788287  0.37595970  1
  S  S88  1  0.86679763  0.83325587  0.86705593  1
  S  S89  1  0.86563997  0.91737963  0.37297257  1
  S  S90  1  0.39730491  0.91614140  0.87151983  1
  S  S91  1  0.86555181  0.87697493  0.87258865  1
  S  S92  1  0.86823093  0.95559783  0.39818386  1
  S  S93  1  0.38118863  0.95892531  0.86524009  1
  S  S94  1  0.86594676  0.91614424  0.87151312  1
  S  S95  1  0.87078106  0.96084283  0.86418117  1
loop_
_geom_bond_atom_site_label_1
_geom_bond_atom_site_label_2
_geom_bond_distance
_geom_bond_site_symmetry_2
Ga0 S21 2.297591 1_455
Ga0 S11 2.299194 1_555
Ga0 S16 2.299398 1_455
Ga0 S5 2.306551 1_456
Ga1 S13 2.296817 1_455
Ga1 S19 2.299614 1_554
Ga1 S24 2.299868 1_454
Ga1 S29 2.307550 1_454
Ga2 S46 2.295271 1_455
Ga2 S35 2.300250 1_555
Ga2 S40 2.300503 1_455
Ga2 S30 2.310329 1_456
Ga3 S53 2.308583 1_455
Ga3 S48 2.311682 1_455
Ga3 S43 2.311816 1_555
Ga3 S39 2.315426 1_456
Ga4 S45 2.311954 1_455
Ga4 S56 2.313188 1_454
Ga4 S51 2.313277 1_554
Ga4 S60 2.313870 1_454
Ga5 S54 2.310162 1_455
Ga5 S69 2.312009 1_454
Ga5 S64 2.312100 1_454
Ga5 S59 2.312106 1_554
Ga6 S76 2.310125 1_455
Ga6 S62 2.311778 1_456
Ga6 S67 2.312200 1_555
Ga6 S72 2.312217 1_455
Ga7 S85 2.311018 1_455
Ga7 S80 2.312720 1_455
Ga7 S75 2.312770 1_555
Ga7 S70 2.315081 1_456
Ga8 S77 2.307810 1_455
Ga8 S88 2.310923 1_454
Ga8 S83 2.311090 1_554
Ga8 S91 2.314761 1_454
Ga9 S86 2.294125 1_455
Ga9 S90 2.299752 1_554
Ga9 S94 2.299898 1_454
Ga9 S95 2.310447 1_454
S0 Ti1 2.374450 1_555
S0 Ti47 2.376424 1_545
S0 Ti0 2.460644 1_555
S1 Ti0 2.382005 1_555
S1 Ti2 2.382123 1_555
S1 Ti1 2.454025 1_555
S2 Ti4 2.360317 1_555
S2 Ti3 2.371618 1_555
S2 Ti5 2.483937 1_555
S3 Ti1 2.374452 1_555
S3 Ti47 2.376497 1_545
S3 Ti2 2.460593 1_555
S4 Ti44 2.423497 1_556
S4 Ti5 2.432219 1_565
S4 Ti2 2.439349 1_565
S5 Ti5 2.522223 1_555
S5 Ti0 2.539345 1_655
S5 Ti2 2.539774 1_555
S6 Ti4 2.348114 1_555
S6 Ti6 2.439947 1_555
S6 Ti3 2.440017 1_555
S7 Ti6 2.380017 1_555
S7 Ti3 2.380097 1_555
S7 Ti5 2.429498 1_555
S8 Ti44 2.423576 1_556
S8 Ti5 2.432399 1_565
S8 Ti0 2.439012 1_665
S9 Ti9 2.360658 1_555
S9 Ti7 2.371137 1_555
S9 Ti8 2.483174 1_555
S10 Ti4 2.360408 1_555
S10 Ti6 2.371578 1_555
S10 Ti5 2.484076 1_555
S11 Ti1 2.558291 1_556
S11 Ti6 2.560679 1_555
S11 Ti9 2.565281 1_555
S12 Ti6 2.445387 1_555
S12 Ti3 2.445410 1_655
S12 Ti1 2.446623 1_556
S13 Ti9 2.562539 1_555
S13 Ti3 2.563449 1_655
S13 Ti6 2.563537 1_555
S14 Ti9 2.348121 1_555
S14 Ti7 2.439185 1_555
S14 Ti10 2.439187 1_555
S15 Ti10 2.380014 1_555
S15 Ti7 2.380313 1_555
S15 Ti8 2.429675 1_555
S16 Ti1 2.558068 1_556
S16 Ti3 2.560607 1_655
S16 Ti9 2.565248 1_555
S17 Ti13 2.373563 1_555
S17 Ti12 2.375051 1_555
S17 Ti11 2.459460 1_555
S18 Ti9 2.360520 1_555
S18 Ti10 2.371000 1_555
S18 Ti8 2.483122 1_555
S19 Ti13 2.558191 1_555
S19 Ti10 2.561365 1_555
S19 Ti4 2.564740 1_556
S20 Ti11 2.382093 1_555
S20 Ti14 2.382103 1_555
S20 Ti12 2.450283 1_555
S21 Ti4 2.561838 1_556
S21 Ti10 2.563537 1_555
S21 Ti7 2.563546 1_655
S22 Ti13 2.446189 1_555
S22 Ti7 2.446644 1_655
S22 Ti10 2.446698 1_555
S23 Ti11 2.380380 1_555
S23 Ti14 2.380800 1_555
S23 Ti13 2.453341 1_555
S24 Ti13 2.557920 1_555
S24 Ti7 2.561217 1_655
S24 Ti4 2.564999 1_556
S25 Ti16 2.357364 1_555
S25 Ti15 2.376055 1_555
S25 Ti17 2.490319 1_555
S26 Ti13 2.373397 1_555
S26 Ti12 2.375146 1_555
S26 Ti14 2.459439 1_555
S27 Ti17 2.424596 1_555
S27 Ti8 2.432751 1_556
S27 Ti14 2.439376 1_555
S28 Ti16 2.345806 1_555
S28 Ti18 2.440416 1_555
S28 Ti15 2.440427 1_555
S29 Ti8 2.521754 1_556
S29 Ti11 2.539640 1_655
S29 Ti14 2.539932 1_555
S30 Ti17 2.524136 1_555
S30 Ti11 2.544851 1_655
S30 Ti14 2.544868 1_555
S31 Ti15 2.386157 1_555
S31 Ti18 2.386316 1_555
S31 Ti17 2.430980 1_555
S32 Ti17 2.424602 1_555
S32 Ti8 2.432933 1_556
S32 Ti11 2.439206 1_655
S33 Ti20 2.375960 1_555
S33 Ti19 2.378191 1_555
S33 Ti21 2.382265 1_555
S34 Ti16 2.357052 1_555
S34 Ti18 2.376480 1_555
S34 Ti17 2.490386 1_555
S35 Ti21 2.554813 1_555
S35 Ti18 2.556411 1_555
S35 Ti12 2.560688 1_556
S36 Ti20 2.377169 1_555
S36 Ti22 2.377448 1_555
S36 Ti19 2.377461 1_555
S37 Ti15 2.441591 1_655
S37 Ti18 2.441872 1_555
S37 Ti12 2.450434 1_556
S38 Ti22 2.380282 1_555
S38 Ti19 2.380379 1_555
S38 Ti21 2.383394 1_555
S39 Ti21 2.560478 1_555
S39 Ti15 2.561422 1_655
S39 Ti18 2.561513 1_555
S40 Ti21 2.554848 1_555
S40 Ti15 2.556515 1_655
S40 Ti12 2.560665 1_556
S41 Ti25 2.377412 1_555
S41 Ti23 2.382083 1_555
S41 Ti24 2.382558 1_555
S42 Ti20 2.376036 1_555
S42 Ti22 2.377963 1_555
S42 Ti21 2.382537 1_555
S43 Ti25 2.569715 1_555
S43 Ti22 2.573988 1_555
S43 Ti16 2.581694 1_556
S44 Ti23 2.379286 1_555
S44 Ti26 2.379570 1_555
S44 Ti24 2.384869 1_555
S45 Ti25 2.570426 1_555
S45 Ti22 2.575401 1_555
S45 Ti19 2.575468 1_655
S46 Ti22 2.567059 1_555
S46 Ti19 2.567094 1_655
S46 Ti16 2.580425 1_556
S47 Ti25 2.379430 1_555
S47 Ti23 2.382228 1_555
S47 Ti26 2.382477 1_555
S48 Ti25 2.569935 1_555
S48 Ti19 2.573932 1_655
S48 Ti16 2.581684 1_556
S49 Ti29 2.382321 1_555
S49 Ti28 2.383806 1_555
S49 Ti27 2.385085 1_555
S50 Ti25 2.377786 1_555
S50 Ti26 2.382605 1_555
S50 Ti24 2.382876 1_555
S51 Ti29 2.566895 1_555
S51 Ti26 2.567436 1_555
S51 Ti20 2.574046 1_556
S52 Ti30 2.384087 1_555
S52 Ti27 2.384250 1_555
S52 Ti28 2.384485 1_555
S53 Ti26 2.569066 1_555
S53 Ti23 2.569384 1_655
S53 Ti20 2.571718 1_556
S54 Ti26 2.567494 1_555
S54 Ti23 2.567861 1_655
S54 Ti29 2.568376 1_555
S55 Ti29 2.383240 1_555
S55 Ti27 2.384455 1_555
S55 Ti30 2.384650 1_555
S56 Ti29 2.566986 1_555
S56 Ti23 2.567709 1_655
S56 Ti20 2.574095 1_556
S57 Ti32 2.380337 1_555
S57 Ti33 2.381328 1_555
S57 Ti31 2.382302 1_555
S58 Ti29 2.382564 1_555
S58 Ti28 2.384086 1_555
S58 Ti30 2.384835 1_555
S59 Ti30 2.564955 1_555
S59 Ti24 2.566038 1_556
S59 Ti33 2.567000 1_555
S60 Ti24 2.567125 1_556
S60 Ti27 2.567234 1_655
S60 Ti30 2.567239 1_555
S61 Ti32 2.380844 1_555
S61 Ti31 2.382255 1_555
S61 Ti34 2.382319 1_555
S62 Ti27 2.564795 1_655
S62 Ti30 2.564795 1_555
S62 Ti33 2.568065 1_555
S63 Ti33 2.381140 1_555
S63 Ti34 2.381179 1_555
S63 Ti31 2.381223 1_555
S64 Ti27 2.564823 1_655
S64 Ti24 2.566361 1_556
S64 Ti33 2.567010 1_555
S65 Ti37 2.378490 1_555
S65 Ti36 2.382098 1_555
S65 Ti35 2.382815 1_555
S66 Ti32 2.380500 1_555
S66 Ti33 2.381568 1_555
S66 Ti34 2.382112 1_555
S67 Ti28 2.565160 1_556
S67 Ti34 2.566188 1_555
S67 Ti36 2.566456 1_555
S68 Ti35 2.380042 1_555
S68 Ti38 2.380102 1_555
S68 Ti36 2.384736 1_555
S69 Ti34 2.566264 1_555
S69 Ti28 2.566303 1_556
S69 Ti31 2.566433 1_655
S70 Ti36 2.567240 1_555
S70 Ti34 2.569143 1_555
S70 Ti31 2.569319 1_655
S71 Ti37 2.380602 1_555
S71 Ti38 2.382758 1_555
S71 Ti35 2.382780 1_555
S72 Ti28 2.565231 1_556
S72 Ti31 2.566064 1_655
S72 Ti36 2.566626 1_555
S73 Ti41 2.379904 1_555
S73 Ti39 2.381202 1_555
S73 Ti40 2.386165 1_555
S74 Ti37 2.378743 1_555
S74 Ti36 2.382253 1_555
S74 Ti38 2.382943 1_555
S75 Ti38 2.567585 1_555
S75 Ti32 2.567865 1_556
S75 Ti41 2.571887 1_555
S76 Ti38 2.567708 1_555
S76 Ti35 2.567988 1_655
S76 Ti32 2.569219 1_556
S77 Ti38 2.568985 1_555
S77 Ti35 2.569125 1_655
S77 Ti41 2.569592 1_555
S78 Ti39 2.380676 1_555
S78 Ti42 2.380797 1_555
S78 Ti41 2.380911 1_555
S79 Ti42 2.383164 1_555
S79 Ti39 2.383290 1_555
S79 Ti40 2.386729 1_555
S80 Ti35 2.567599 1_655
S80 Ti32 2.567980 1_556
S80 Ti41 2.571885 1_555
S81 Ti45 2.358007 1_555
S81 Ti43 2.376584 1_555
S81 Ti44 2.490679 1_555
S82 Ti41 2.380032 1_555
S82 Ti42 2.381125 1_555
S82 Ti40 2.386323 1_555
S83 Ti37 2.569669 1_556
S83 Ti42 2.571756 1_555
S83 Ti45 2.580711 1_555
S84 Ti45 2.347306 1_555
S84 Ti43 2.441526 1_555
S84 Ti46 2.441629 1_555
S85 Ti37 2.569497 1_556
S85 Ti42 2.573080 1_555
S85 Ti39 2.573196 1_655
S86 Ti39 2.564772 1_655
S86 Ti42 2.564859 1_555
S86 Ti45 2.578433 1_555
S87 Ti43 2.386762 1_555
S87 Ti46 2.386781 1_555
S87 Ti44 2.429766 1_555
S88 Ti37 2.569733 1_556
S88 Ti39 2.571755 1_655
S88 Ti45 2.580698 1_555
S89 Ti45 2.357821 1_555
S89 Ti46 2.376600 1_555
S89 Ti44 2.490646 1_555
S90 Ti40 2.552790 1_556
S90 Ti46 2.555902 1_555
S90 Ti47 2.559356 1_555
S91 Ti40 2.558979 1_556
S91 Ti46 2.560938 1_555
S91 Ti43 2.561110 1_655
S92 Ti43 2.440718 1_655
S92 Ti46 2.440740 1_555
S92 Ti47 2.449391 1_555
S93 Ti0 2.383154 1_565
S93 Ti2 2.383254 1_565
S93 Ti47 2.450982 1_555
S94 Ti40 2.552891 1_556
S94 Ti43 2.556019 1_655
S94 Ti47 2.559338 1_555
S95 Ti44 2.524196 1_556
S95 Ti0 2.544239 1_665
S95 Ti2 2.544411 1_565
