# generated using pymatgen
data_NaEu2Cl6
_symmetry_space_group_name_H-M   'P 1'
_cell_length_a   13.01764948
_cell_length_b   13.01764948
_cell_length_c   4.44676400
_cell_angle_alpha   90.00000000
_cell_angle_beta   90.00000000
_cell_angle_gamma   119.99999737
_symmetry_Int_Tables_number   1
_chemical_formula_structural   NaEu2Cl6
_chemical_formula_sum   'Na3 Eu6 Cl18'
_cell_volume   652.58918332
_cell_formula_units_Z   3
loop_
 _symmetry_equiv_pos_site_id
 _symmetry_equiv_pos_as_xyz
  1  'x, y, z'
loop_
 _atom_site_type_symbol
 _atom_site_label
 _atom_site_symmetry_multiplicity
 _atom_site_fract_x
 _atom_site_fract_y
 _atom_site_fract_z
 _atom_site_occupancy
  Eu  Eu0  1  0.33359200  0.33346300  0.75021100  1
  Eu  Eu1  1  0.99987200  0.66640800  0.75021100  1
  Eu  Eu2  1  0.33139300  0.00024700  0.25022000  1
  Eu  Eu3  1  0.66653700  0.00012800  0.75021100  1
  Eu  Eu4  1  0.99975300  0.33114600  0.25022000  1
  Eu  Eu5  1  0.66885400  0.66860700  0.25022000  1
  Na  Na0  1  0.66666700  0.33333300  0.00018000  1
  Na  Na1  1  0.33333300  0.66666700  0.49868200  1
  Na  Na2  1  0.00000000  0.00000000  0.75215100  1
  Cl  Cl0  1  0.43880300  0.26337500  0.25429600  1
  Cl  Cl1  1  0.59363400  0.49033900  0.74893500  1
  Cl  Cl2  1  0.82457200  0.56119700  0.25429600  1
  Cl  Cl3  1  0.83783900  0.76406100  0.74767200  1
  Cl  Cl4  1  0.06929400  0.84699700  0.24613400  1
  Cl  Cl5  1  0.09990100  0.59338500  0.24901900  1
  Cl  Cl6  1  0.23593900  0.07377800  0.74767200  1
  Cl  Cl7  1  0.25904800  0.82362400  0.75317500  1
  Cl  Cl8  1  0.49348400  0.90009900  0.24901900  1
  Cl  Cl9  1  0.50966100  0.10329400  0.74893500  1
  Cl  Cl10  1  0.73662500  0.17542800  0.25429600  1
  Cl  Cl11  1  0.77770300  0.93070600  0.24613400  1
  Cl  Cl12  1  0.89670600  0.40636600  0.74893500  1
  Cl  Cl13  1  0.92622200  0.16216100  0.74767200  1
  Cl  Cl14  1  0.15300300  0.22229700  0.24613400  1
  Cl  Cl15  1  0.17637600  0.43542400  0.75317500  1
  Cl  Cl16  1  0.40661500  0.50651600  0.24901900  1
  Cl  Cl17  1  0.56457600  0.74095200  0.75317500  1
loop_
_geom_bond_atom_site_label_1
_geom_bond_atom_site_label_2
_geom_bond_distance
_geom_bond_site_symmetry_2
Cl0 Na0 2.864187 1_555
Cl0 Eu0 2.969987 1_555
Cl0 Eu2 2.983077 1_555
Cl0 Eu0 2.997061 1_554
Cl1 Na0 2.876196 1_556
Cl1 Eu0 2.952389 1_555
Cl1 Eu5 2.998308 1_555
Cl1 Eu5 3.006771 1_556
Cl2 Na0 2.864184 1_555
Cl2 Eu1 2.969994 1_555
Cl2 Eu5 2.983076 1_555
Cl2 Eu1 2.997068 1_554
Cl3 Na2 2.721456 1_665
Cl3 Eu5 2.922812 1_555
Cl3 Eu5 2.940000 1_556
Cl3 Eu1 2.957459 1_555
Cl4 Eu2 2.968958 1_565
Cl4 Eu1 3.013605 1_454
Cl4 Eu1 3.040239 1_455
Cl4 Na2 3.376761 1_564
Cl4 Na2 3.411814 1_565
Cl5 Na1 2.911641 1_555
Cl5 Eu1 2.959202 1_454
Cl5 Eu1 2.967157 1_455
Cl5 Eu4 2.983751 1_455
Cl6 Na2 2.721456 1_555
Cl6 Eu2 2.922812 1_555
Cl6 Eu2 2.940000 1_556
Cl6 Eu0 2.957447 1_555
Cl7 Na1 2.892461 1_555
Cl7 Eu1 2.943932 1_455
Cl7 Eu2 2.982141 1_566
Cl7 Eu2 3.001671 1_565
Cl8 Na1 2.911643 1_555
Cl8 Eu3 2.959209 1_564
Cl8 Eu3 2.967164 1_565
Cl8 Eu2 2.983751 1_565
Cl9 Na0 2.876196 1_556
Cl9 Eu3 2.952389 1_555
Cl9 Eu2 2.998307 1_555
Cl9 Eu2 3.006770 1_556
Cl10 Na0 2.864176 1_555
Cl10 Eu3 2.969995 1_555
Cl10 Eu4 2.983077 1_555
Cl10 Eu3 2.997069 1_554
Cl11 Eu5 2.968958 1_555
Cl11 Eu3 3.013597 1_564
Cl11 Eu3 3.040231 1_565
Cl11 Na2 3.376761 1_664
Cl11 Na2 3.411814 1_665
Cl12 Na0 2.876196 1_556
Cl12 Eu1 2.952389 1_555
Cl12 Eu4 2.998300 1_555
Cl12 Eu4 3.006763 1_556
Cl13 Na2 2.721456 1_655
Cl13 Eu4 2.922812 1_555
Cl13 Eu4 2.940000 1_556
Cl13 Eu3 2.957449 1_555
Cl14 Eu4 2.968958 1_455
Cl14 Eu0 3.013604 1_554
Cl14 Eu0 3.040238 1_555
Cl14 Na2 3.376761 1_554
Cl14 Na2 3.411814 1_555
Cl15 Na1 2.892470 1_555
Cl15 Eu0 2.943942 1_555
Cl15 Eu4 2.982141 1_456
Cl15 Eu4 3.001671 1_455
Cl16 Na1 2.911652 1_555
Cl16 Eu0 2.959210 1_554
Cl16 Eu0 2.967165 1_555
Cl16 Eu5 2.983751 1_555
Cl17 Na1 2.892472 1_555
Cl17 Eu3 2.943930 1_565
Cl17 Eu5 2.982141 1_556
Cl17 Eu5 3.001671 1_555
