# generated using pymatgen
data_H4SO5
_symmetry_space_group_name_H-M   'P 1'
_cell_length_a   7.04961100
_cell_length_b   7.22967900
_cell_length_c   8.25980583
_cell_angle_alpha   73.21195199
_cell_angle_beta   90.00000000
_cell_angle_gamma   90.00000000
_symmetry_Int_Tables_number   1
_chemical_formula_structural   H4SO5
_chemical_formula_sum   'H16 S4 O20'
_cell_volume   403.03081446
_cell_formula_units_Z   4
loop_
 _symmetry_equiv_pos_site_id
 _symmetry_equiv_pos_as_xyz
  1  'x, y, z'
loop_
 _atom_site_type_symbol
 _atom_site_label
 _atom_site_symmetry_multiplicity
 _atom_site_fract_x
 _atom_site_fract_y
 _atom_site_fract_z
 _atom_site_occupancy
  H  H0  1  0.86241400  0.22451000  0.71873200  1
  H  H1  1  0.13758600  0.22451000  0.21873200  1
  H  H2  1  0.06652200  0.60531400  0.38970300  1
  H  H3  1  0.56943700  0.42031800  0.08180300  1
  H  H4  1  0.43056300  0.42031800  0.58180300  1
  H  H5  1  0.93347800  0.60531400  0.88970300  1
  H  H6  1  0.55672800  0.93020900  0.07788400  1
  H  H7  1  0.44327200  0.93020900  0.57788400  1
  H  H8  1  0.94279200  0.08760500  0.90807200  1
  H  H9  1  0.08294100  0.26056500  0.78810000  1
  H  H10  1  0.58239600  0.74948700  0.69382000  1
  H  H11  1  0.36854100  0.79039800  0.76748600  1
  H  H12  1  0.63145900  0.79039800  0.26748600  1
  H  H13  1  0.41760400  0.74948700  0.19382000  1
  H  H14  1  0.05720800  0.08760500  0.40807200  1
  H  H15  1  0.91705900  0.26056500  0.28810000  1
  S  S0  1  0.90453800  0.75551000  0.53470400  1
  S  S1  1  0.40686900  0.26101400  0.94981500  1
  S  S2  1  0.59313100  0.26101400  0.44981500  1
  S  S3  1  0.09546200  0.75551000  0.03470400  1
  O  O0  1  0.23533300  0.83671200  0.90318300  1
  O  O1  1  0.72689700  0.18207100  0.58713100  1
  O  O2  1  0.27310300  0.18207100  0.08713100  1
  O  O3  1  0.76466700  0.83671200  0.40318300  1
  O  O4  1  0.81486600  0.67685200  0.70282100  1
  O  O5  1  0.31349800  0.32901100  0.78311900  1
  O  O6  1  0.68650200  0.32901100  0.28311900  1
  O  O7  1  0.18513400  0.67685200  0.20282100  1
  O  O8  1  0.99866700  0.57035100  0.50243400  1
  O  O9  1  0.49564500  0.45354900  0.97341200  1
  O  O10  1  0.50435500  0.45354900  0.47341200  1
  O  O11  1  0.00133300  0.57035100  0.00243400  1
  O  O12  1  0.05795800  0.89286500  0.53647600  1
  O  O13  1  0.56548300  0.12770500  0.95298200  1
  O  O14  1  0.43451700  0.12770500  0.45298200  1
  O  O15  1  0.94204200  0.89286500  0.03647600  1
  O  O16  1  0.94738700  0.22274600  0.81928000  1
  O  O17  1  0.44781000  0.79242200  0.66388600  1
  O  O18  1  0.55219000  0.79242200  0.16388600  1
  O  O19  1  0.05261300  0.22274600  0.31928000  1
loop_
_geom_bond_atom_site_label_1
_geom_bond_atom_site_label_2
_geom_bond_distance
_geom_bond_site_symmetry_2
H0 O16 1.021087 1_555
H0 O1 1.543063 1_555
H1 O19 1.021087 1_555
H1 O2 1.543063 1_555
H2 O8 1.011813 1_455
H2 O7 1.699477 1_555
H3 O9 1.002808 1_554
H4 O10 1.002808 1_555
H5 O11 1.011813 1_656
H5 O4 1.699477 1_555
H6 O18 1.043642 1_555
H6 O13 1.501973 1_564
H7 O17 1.043642 1_555
H7 O14 1.501973 1_565
H8 O16 1.039030 1_555
H8 O15 1.498169 1_546
H9 O16 1.006770 1_455
H10 O17 1.006644 1_555
H10 O4 1.715947 1_555
H11 O17 1.018580 1_555
H11 O0 1.570673 1_555
H12 O18 1.018580 1_555
H12 O3 1.570673 1_555
H13 O18 1.006644 1_555
H13 O7 1.715947 1_555
H14 O19 1.039030 1_555
H14 O12 1.498169 1_545
H15 O19 1.006770 1_655
O0 S3 1.458985 1_556
O1 S2 1.458582 1_555
O2 S1 1.458582 1_554
O3 S0 1.458985 1_555
O4 S0 1.481584 1_555
O5 S1 1.476387 1_555
O6 S2 1.476387 1_555
O7 S3 1.481584 1_555
O8 S0 1.584123 1_555
O9 S1 1.588695 1_555
O10 S2 1.588695 1_555
O11 S3 1.584123 1_555
O12 S0 1.471216 1_455
O13 S1 1.471493 1_555
O14 S2 1.471493 1_555
O15 S3 1.471216 1_655
