# generated using pymatgen
data_Na2Sc4Zn2(MoO4)9
_symmetry_space_group_name_H-M   'P 1'
_cell_length_a   9.64102400
_cell_length_b   9.64111523
_cell_length_c   23.70134701
_cell_angle_alpha   89.79902870
_cell_angle_beta   89.80001243
_cell_angle_gamma   60.28259415
_symmetry_Int_Tables_number   1
_chemical_formula_structural   Na2Sc4Zn2(MoO4)9
_chemical_formula_sum   'Na4 Sc8 Zn4 Mo18 O72'
_cell_volume   1913.28740470
_cell_formula_units_Z   2
loop_
 _symmetry_equiv_pos_site_id
 _symmetry_equiv_pos_as_xyz
  1  'x, y, z'
loop_
 _atom_site_type_symbol
 _atom_site_label
 _atom_site_symmetry_multiplicity
 _atom_site_fract_x
 _atom_site_fract_y
 _atom_site_fract_z
 _atom_site_occupancy
  Na  Na0  1  0.99741200  0.99817900  0.00082300  1
  Na  Na1  1  0.33120100  0.33056000  0.16789400  1
  Na  Na2  1  0.66461700  0.66386000  0.33391900  1
  Na  Na3  1  0.33097800  0.33095800  0.66694500  1
  Sc  Sc0  1  0.51866800  0.51830500  0.12133500  1
  Sc  Sc1  1  0.18032400  0.18069000  0.45422400  1
  Sc  Sc2  1  0.85094800  0.85289600  0.28766000  1
  Sc  Sc3  1  0.84742200  0.84745700  0.78780100  1
  Sc  Sc4  1  0.81943200  0.81956000  0.54486700  1
  Sc  Sc5  1  0.51818700  0.51802800  0.62012800  1
  Sc  Sc6  1  0.48658700  0.48582300  0.87794400  1
  Sc  Sc7  1  0.18516300  0.18346100  0.95361900  1
  Zn  Zn0  1  0.81363000  0.81590500  0.04688400  1
  Zn  Zn1  1  0.48279100  0.48027700  0.37938400  1
  Zn  Zn2  1  0.14794200  0.14855500  0.21379800  1
  Zn  Zn3  1  0.14816100  0.14799400  0.71261000  1
  Mo  Mo0  1  0.81037400  0.09452400  0.15380500  1
  Mo  Mo1  1  0.28741800  0.71387200  0.25038300  1
  Mo  Mo2  1  0.23634100  0.52603700  0.01227700  1
  Mo  Mo3  1  0.42764500  0.14370800  0.32069100  1
  Mo  Mo4  1  0.38043900  0.95412900  0.08375500  1
  Mo  Mo5  1  0.47725000  0.76009400  0.48721400  1
  Mo  Mo6  1  0.85965800  0.57036400  0.17848200  1
  Mo  Mo7  1  0.95431900  0.38015000  0.58437100  1
  Mo  Mo8  1  0.90232600  0.19361600  0.34467600  1
  Mo  Mo9  1  0.09627900  0.80975000  0.65515700  1
  Mo  Mo10  1  0.04891000  0.61855600  0.41618500  1
  Mo  Mo11  1  0.14386400  0.42670100  0.82063800  1
  Mo  Mo12  1  0.52292600  0.23958400  0.51175300  1
  Mo  Mo13  1  0.62097900  0.04673500  0.91764100  1
  Mo  Mo14  1  0.56864300  0.85994100  0.67858000  1
  Mo  Mo15  1  0.76312800  0.47664100  0.98833400  1
  Mo  Mo16  1  0.71549300  0.28504400  0.74951200  1
  Mo  Mo17  1  0.18963600  0.90623900  0.84502400  1
  O  O0  1  0.87457000  0.68179800  0.12143600  1
  O  O1  1  0.80218900  0.63477500  0.00177100  1
  O  O2  1  0.56956200  0.93067900  0.06553000  1
  O  O3  1  0.69907500  0.53022400  0.16500700  1
  O  O4  1  0.65074000  0.45969900  0.04567100  1
  O  O5  1  0.85611400  0.98562000  0.08890500  1
  O  O6  1  0.40338000  0.76222900  0.10146400  1
  O  O7  1  0.61885800  0.27799000  0.14742900  1
  O  O8  1  0.42427600  0.63677400  0.30827800  1
  O  O9  1  0.54016000  0.34934400  0.45459000  1
  O  O10  1  0.36566100  0.57496200  0.19132400  1
  O  O11  1  0.46846200  0.30074000  0.33458300  1
  O  O12  1  0.34709300  0.47934100  0.07771200  1
  O  O13  1  0.61123400  0.95196500  0.31427800  1
  O  O14  1  0.23802000  0.59582100  0.39869800  1
  O  O15  1  0.36408200  0.19883700  0.49801200  1
  O  O16  1  0.05694500  0.71353800  0.01854300  1
  O  O17  1  0.31906100  0.18921700  0.25565300  1
  O  O18  1  0.31662900  0.12671800  0.37891500  1
  O  O19  1  0.30306400  0.09098900  0.14169200  1
  O  O20  1  0.52167800  0.65255700  0.42232400  1
  O  O21  1  0.07163300  0.42784700  0.43447900  1
  O  O22  1  0.24154000  0.03248900  0.02472900  1
  O  O23  1  0.29247200  0.94389800  0.48050200  1
  O  O24  1  0.04791400  0.38978500  0.18485400  1
  O  O25  1  0.09146600  0.30240600  0.64185300  1
  O  O26  1  0.26372400  0.90325100  0.23204800  1
  O  O27  1  0.20694400  0.01595600  0.78788200  1
  O  O28  1  0.81294500  0.68128500  0.24432800  1
  O  O29  1  0.03363500  0.24761900  0.52532600  1
  O  O30  1  0.01450000  0.20792400  0.28765300  1
  O  O31  1  0.13535600  0.96788300  0.66840300  1
  O  O32  1  0.01579200  0.15003100  0.40895100  1
  O  O33  1  0.27843400  0.61834700  0.64804500  1
  O  O34  1  0.96754700  0.13531200  0.16790500  1
  O  O35  1  0.90440100  0.26272600  0.73209800  1
  O  O36  1  0.09576500  0.73647200  0.26815700  1
  O  O37  1  0.03079800  0.86547700  0.83136300  1
  O  O38  1  0.72200900  0.38240600  0.35164900  1
  O  O39  1  0.98373300  0.85227000  0.59106300  1
  O  O40  1  0.86386800  0.03128700  0.33149800  1
  O  O41  1  0.98432900  0.79328100  0.71268200  1
  O  O42  1  0.96841000  0.75188400  0.47508800  1
  O  O43  1  0.18847500  0.31908300  0.75573400  1
  O  O44  1  0.79303800  0.98301700  0.21181100  1
  O  O45  1  0.73826700  0.09437400  0.76775300  1
  O  O46  1  0.90861100  0.69798600  0.35787400  1
  O  O47  1  0.95921000  0.61049800  0.81378900  1
  O  O48  1  0.70805800  0.05587300  0.51895700  1
  O  O49  1  0.75813500  0.96884900  0.97515700  1
  O  O50  1  0.92918400  0.57194600  0.56588600  1
  O  O51  1  0.47809300  0.34842300  0.57799100  1
  O  O52  1  0.70031800  0.91431900  0.85860800  1
  O  O53  1  0.68177600  0.87428100  0.62078700  1
  O  O54  1  0.68174800  0.81642600  0.74241400  1
  O  O55  1  0.94502300  0.28534500  0.98125100  1
  O  O56  1  0.63618600  0.80080900  0.50170200  1
  O  O57  1  0.76194100  0.40338500  0.60162400  1
  O  O58  1  0.38937900  0.04796100  0.68536300  1
  O  O59  1  0.65029300  0.51913700  0.92434300  1
  O  O60  1  0.53029400  0.69845300  0.66504800  1
  O  O61  1  0.63514600  0.41867700  0.80836300  1
  O  O62  1  0.45934800  0.64994800  0.54553300  1
  O  O63  1  0.57517600  0.36480900  0.69125100  1
  O  O64  1  0.37478600  0.72253700  0.85226300  1
  O  O65  1  0.59583400  0.23866400  0.89924800  1
  O  O66  1  0.14461900  0.01499100  0.91127300  1
  O  O67  1  0.34900300  0.54095600  0.95452900  1
  O  O68  1  0.30284500  0.46758800  0.83511300  1
  O  O69  1  0.42862700  0.07027700  0.93492600  1
  O  O70  1  0.19660100  0.36626000  0.99844600  1
  O  O71  1  0.12615900  0.31661200  0.87895000  1
loop_
_geom_bond_atom_site_label_1
_geom_bond_atom_site_label_2
_geom_bond_distance
_geom_bond_site_symmetry_2
Na0 O5 2.524014 1_555
Na0 O49 2.535633 1_554
Na0 O16 2.543373 1_655
Na0 O55 2.596471 1_564
Na0 O66 2.598061 1_664
Na0 O22 2.598580 1_665
Na1 O17 2.516671 1_555
Na1 O24 2.528783 1_555
Na1 O19 2.535065 1_555
Na1 O10 2.599529 1_555
Na1 O7 2.604255 1_555
Na1 O12 2.616056 1_555
Na2 O38 2.520123 1_555
Na2 O8 2.533277 1_555
Na2 O20 2.535441 1_555
Na2 O46 2.596562 1_555
Na2 O13 2.602348 1_555
Na2 O28 2.607038 1_555
Na3 O25 2.530323 1_555
Na3 O58 2.534180 1_555
Na3 O43 2.542301 1_555
Na3 O51 2.588147 1_555
Na3 O33 2.595309 1_555
Na3 O63 2.598803 1_555
Mo0 O34 1.776999 1_555
Mo0 O5 1.791795 1_545
Mo0 O44 1.799993 1_545
Mo0 O7 1.822864 1_555
Mo1 O26 1.776592 1_555
Mo1 O8 1.791502 1_555
Mo1 O36 1.798640 1_555
Mo1 O10 1.823778 1_555
Mo2 O16 1.783694 1_555
Mo2 O70 1.793526 1_554
Mo2 O67 1.793588 1_554
Mo2 O12 1.810566 1_555
Mo3 O11 1.774945 1_555
Mo3 O17 1.793249 1_555
Mo3 O18 1.799633 1_555
Mo3 O13 1.824663 1_545
Mo4 O2 1.774473 1_555
Mo4 O19 1.792437 1_565
Mo4 O6 1.799325 1_555
Mo4 O22 1.823140 1_565
Mo5 O20 1.786074 1_555
Mo5 O23 1.791442 1_555
Mo5 O56 1.794693 1_555
Mo5 O62 1.799394 1_555
Mo6 O0 1.773292 1_555
Mo6 O24 1.793108 1_655
Mo6 O3 1.801936 1_555
Mo6 O28 1.819710 1_555
Mo7 O25 1.785799 1_655
Mo7 O29 1.792258 1_655
Mo7 O50 1.794642 1_555
Mo7 O57 1.800225 1_555
Mo8 O30 1.775280 1_655
Mo8 O38 1.795934 1_555
Mo8 O32 1.801503 1_655
Mo8 O40 1.806627 1_555
Mo9 O31 1.771576 1_555
Mo9 O41 1.790853 1_455
Mo9 O39 1.794226 1_455
Mo9 O33 1.817943 1_555
Mo10 O14 1.772875 1_555
Mo10 O21 1.792300 1_555
Mo10 O42 1.794336 1_455
Mo10 O46 1.817898 1_455
Mo11 O43 1.786633 1_555
Mo11 O47 1.791097 1_455
Mo11 O68 1.796116 1_555
Mo11 O71 1.798187 1_555
Mo12 O9 1.773611 1_555
Mo12 O15 1.790666 1_555
Mo12 O48 1.793795 1_555
Mo12 O51 1.819269 1_555
Mo13 O49 1.786530 1_545
Mo13 O52 1.791492 1_545
Mo13 O65 1.795316 1_555
Mo13 O69 1.799014 1_555
Mo14 O58 1.786838 1_565
Mo14 O54 1.790979 1_555
Mo14 O53 1.795217 1_555
Mo14 O60 1.799615 1_555
Mo15 O1 1.772311 1_556
Mo15 O4 1.791967 1_556
Mo15 O59 1.793554 1_555
Mo15 O55 1.816167 1_555
Mo16 O35 1.772147 1_555
Mo16 O45 1.791448 1_555
Mo16 O61 1.794754 1_555
Mo16 O63 1.817252 1_555
Mo17 O27 1.773243 1_565
Mo17 O37 1.790352 1_555
Mo17 O64 1.793919 1_555
Mo17 O66 1.819018 1_565
O0 Zn0 2.092175 1_555
O1 Zn0 2.099972 1_555
O2 Zn0 2.090775 1_555
O3 Sc0 2.078788 1_555
O4 Sc0 2.105826 1_555
O5 Zn0 2.125020 1_555
O6 Sc0 2.095726 1_555
O7 Sc0 2.111601 1_555
O8 Zn1 2.140073 1_555
O9 Zn1 2.091779 1_555
O10 Sc0 2.101557 1_555
O11 Zn1 2.096124 1_555
O12 Sc0 2.139416 1_555
O13 Sc2 2.111151 1_555
O14 Zn1 2.099779 1_555
O15 Sc1 2.137229 1_555
O16 Zn0 2.150896 1_455
O17 Zn2 2.124824 1_555
O18 Sc1 2.120335 1_555
O19 Zn2 2.152035 1_555
O20 Zn1 2.137073 1_555
O21 Sc1 2.124882 1_555
O22 Sc7 2.111735 1_554
O23 Sc1 2.077556 1_565
O24 Zn2 2.139948 1_555
O25 Zn3 2.123578 1_555
O26 Zn2 2.098857 1_565
O27 Zn3 2.097707 1_555
O28 Sc2 2.131202 1_555
O29 Sc1 2.083892 1_555
O30 Zn2 2.075596 1_555
O31 Zn3 2.086765 1_565
O32 Sc1 2.057657 1_555
O33 Sc5 2.119775 1_555
O34 Zn2 2.111534 1_655
O35 Zn3 2.092499 1_655
O36 Sc2 2.100929 1_455
O37 Sc3 2.130798 1_455
O38 Zn1 2.116060 1_555
O39 Sc4 2.077793 1_555
O40 Sc2 2.068558 1_545
O41 Sc3 2.119319 1_555
O42 Sc4 2.070212 1_555
O43 Zn3 2.137002 1_555
O44 Sc2 2.100974 1_555
O45 Sc3 2.124164 1_545
O46 Sc2 2.115398 1_555
O47 Sc3 2.076959 1_555
O48 Sc4 2.071274 1_545
O49 Zn0 2.134767 1_556
O50 Sc4 2.134902 1_555
O51 Sc5 2.112218 1_555
O52 Sc3 2.080365 1_555
O53 Sc4 2.138533 1_555
O54 Sc3 2.070264 1_555
O55 Sc7 2.119701 1_655
O56 Sc4 2.128631 1_555
O57 Sc5 2.087497 1_555
O58 Zn3 2.127378 1_555
O59 Sc6 2.078637 1_555
O60 Sc5 2.094792 1_555
O61 Sc6 2.064444 1_555
O62 Sc5 2.083544 1_555
O63 Sc5 2.123662 1_555
O64 Sc6 2.072835 1_555
O65 Sc6 2.132936 1_555
O66 Sc7 2.107583 1_555
O67 Sc6 2.151225 1_555
O68 Sc6 2.126521 1_555
O69 Sc7 2.086453 1_555
O70 Sc7 2.110361 1_555
O71 Sc7 2.090613 1_555
