# generated using pymatgen
data_Cs2SiP4(HO7)2
_symmetry_space_group_name_H-M   'P 1'
_cell_length_a   9.24705300
_cell_length_b   9.40764141
_cell_length_c   9.70208099
_cell_angle_alpha   94.96548187
_cell_angle_beta   111.22115220
_cell_angle_gamma   112.90176800
_symmetry_Int_Tables_number   1
_chemical_formula_structural   Cs2SiP4(HO7)2
_chemical_formula_sum   'Cs4 Si2 P8 H4 O28'
_cell_volume   698.88259578
_cell_formula_units_Z   2
loop_
 _symmetry_equiv_pos_site_id
 _symmetry_equiv_pos_as_xyz
  1  'x, y, z'
loop_
 _atom_site_type_symbol
 _atom_site_label
 _atom_site_symmetry_multiplicity
 _atom_site_fract_x
 _atom_site_fract_y
 _atom_site_fract_z
 _atom_site_occupancy
  Cs  Cs0  1  0.80628300  0.67123500  0.77910900  1
  Cs  Cs1  1  0.19371700  0.32876500  0.22089100  1
  Cs  Cs2  1  0.20919800  0.73986000  0.53332900  1
  Cs  Cs3  1  0.79080200  0.26014000  0.46667100  1
  Si  Si0  1  0.50000000  0.50000000  0.00000000  1
  Si  Si1  1  0.50000000  0.00000000  0.00000000  1
  P  P0  1  0.24238900  0.14204200  0.85653500  1
  P  P1  1  0.75761100  0.85795800  0.14346500  1
  P  P2  1  0.29660800  0.34569200  0.64788100  1
  P  P3  1  0.70339200  0.65430800  0.35211900  1
  P  P4  1  0.31022800  0.87617900  0.19825000  1
  P  P5  1  0.68977200  0.12382100  0.80175000  1
  P  P6  1  0.23978500  0.64538200  0.93407900  1
  P  P7  1  0.76021500  0.35461800  0.06592100  1
  H  H0  1  0.92520100  0.06964600  0.81206500  1
  H  H1  1  0.07479900  0.93035400  0.18793500  1
  H  H2  1  0.47982000  0.24413400  0.62995000  1
  H  H3  1  0.52018000  0.75586600  0.37005000  1
  O  O0  1  0.07280500  0.03924200  0.86097300  1
  O  O1  1  0.92719500  0.96075800  0.13902700  1
  O  O2  1  0.34380900  0.30377200  0.97926500  1
  O  O3  1  0.65619100  0.69622800  0.02073500  1
  O  O4  1  0.64474200  0.94343500  0.13856000  1
  O  O5  1  0.35525800  0.05656500  0.86144000  1
  O  O6  1  0.19795200  0.18285500  0.69121500  1
  O  O7  1  0.80204800  0.81714500  0.30878500  1
  O  O8  1  0.16727500  0.37724400  0.52698200  1
  O  O9  1  0.83272500  0.62275600  0.47301800  1
  O  O10  1  0.59359100  0.51907900  0.20077700  1
  O  O11  1  0.40640900  0.48092100  0.79922300  1
  O  O12  1  0.41900200  0.31496600  0.58531100  1
  O  O13  1  0.58099800  0.68503400  0.41468900  1
  O  O14  1  0.56648900  0.14754100  0.66549600  1
  O  O15  1  0.43351100  0.85245900  0.33450400  1
  O  O16  1  0.39782500  0.00411500  0.12586800  1
  O  O17  1  0.60217500  0.99588500  0.87413200  1
  O  O18  1  0.81080700  0.08063100  0.75047600  1
  O  O19  1  0.18919300  0.91936900  0.24952400  1
  O  O20  1  0.18584900  0.71256100  0.06093900  1
  O  O21  1  0.81415100  0.28743900  0.93906100  1
  O  O22  1  0.07599500  0.53438400  0.79850800  1
  O  O23  1  0.92400500  0.46561600  0.20149200  1
  O  O24  1  0.64253800  0.42563200  0.97209900  1
  O  O25  1  0.35746200  0.57436800  0.02790100  1
  O  O26  1  0.35124100  0.79764200  0.89936100  1
  O  O27  1  0.64875900  0.20235800  0.10063900  1
loop_
_geom_bond_atom_site_label_1
_geom_bond_atom_site_label_2
_geom_bond_distance
_geom_bond_site_symmetry_2
Cs0 O9 3.076528 1_555
Cs0 O3 3.160886 1_556
Cs0 O22 3.180314 1_655
Cs0 O0 3.186982 1_665
Cs1 O8 3.076528 1_555
Cs1 O2 3.160886 1_554
Cs1 O23 3.180314 1_455
Cs1 O1 3.186982 1_445
Cs2 O9 3.017290 1_455
Cs2 O26 3.219556 1_555
Cs2 O15 3.268932 1_555
Cs2 O8 3.272390 1_555
Cs2 O23 3.331120 1_455
Cs2 O19 3.338748 1_555
Cs2 O5 3.598416 1_565
Cs2 O17 3.612495 1_555
Cs2 O22 3.629741 1_555
Cs2 O14 3.672736 1_565
Cs3 O8 3.017290 1_655
Cs3 O27 3.219556 1_555
Cs3 O14 3.268932 1_555
Cs3 O9 3.272390 1_555
Cs3 O22 3.331120 1_655
Cs3 O18 3.338748 1_555
Cs3 O4 3.598416 1_545
Cs3 O16 3.612495 1_555
Cs3 O23 3.629741 1_555
Cs3 O15 3.672736 1_545
H0 O18 1.060601 1_555
H0 O0 1.424224 1_655
H1 O19 1.060601 1_555
H1 O1 1.424224 1_455
H2 O12 1.055079 1_555
H2 O14 1.417028 1_555
H3 O13 1.055079 1_555
H3 O15 1.417028 1_555
O0 P0 1.507311 1_555
O1 P1 1.507311 1_555
O2 P0 1.542632 1_555
O2 Si0 1.784538 1_556
O3 P1 1.542632 1_555
O3 Si0 1.784538 1_555
O4 P1 1.536915 1_555
O4 Si1 1.804825 1_565
O5 P0 1.536915 1_555
O5 Si1 1.804825 1_556
O6 P0 1.625173 1_555
O6 P2 1.630099 1_555
O7 P1 1.625173 1_555
O7 P3 1.630099 1_555
O8 P2 1.488382 1_555
O9 P3 1.488382 1_555
O10 P3 1.548347 1_555
O10 Si0 1.781534 1_555
O11 P2 1.548347 1_555
O11 Si0 1.781534 1_556
O12 P2 1.566731 1_555
O13 P3 1.566731 1_555
O14 P5 1.501672 1_555
O15 P4 1.501672 1_555
O16 P4 1.548296 1_545
O16 Si1 1.800284 1_555
O17 P5 1.548296 1_565
O17 Si1 1.800284 1_566
O18 P5 1.545065 1_555
O19 P4 1.545065 1_555
O20 P4 1.620126 1_555
O20 P6 1.648673 1_554
O21 P5 1.620126 1_555
O21 P7 1.648673 1_556
O22 P6 1.484426 1_555
O23 P7 1.484426 1_555
O24 P7 1.553390 1_556
O24 Si0 1.800903 1_556
O25 P6 1.553390 1_554
O25 Si0 1.800903 1_555
O26 P6 1.553481 1_555
O26 Si1 1.771282 1_566
O27 P7 1.553481 1_555
O27 Si1 1.771282 1_555
