# generated using pymatgen
data_K6Ba2CaU6O24
_symmetry_space_group_name_H-M   'P 1'
_cell_length_a   7.55616374
_cell_length_b   7.55616374
_cell_length_c   24.68279900
_cell_angle_alpha   90.00000000
_cell_angle_beta   90.00000000
_cell_angle_gamma   109.47813298
_symmetry_Int_Tables_number   1
_chemical_formula_structural   K6Ba2CaU6O24
_chemical_formula_sum   'K12 Ba4 Ca2 U12 O48'
_cell_volume   1328.62474846
_cell_formula_units_Z   2
loop_
 _symmetry_equiv_pos_site_id
 _symmetry_equiv_pos_as_xyz
  1  'x, y, z'
loop_
 _atom_site_type_symbol
 _atom_site_label
 _atom_site_symmetry_multiplicity
 _atom_site_fract_x
 _atom_site_fract_y
 _atom_site_fract_z
 _atom_site_occupancy
  K  K0  1  0.00543500  0.50543500  0.25148700  1
  K  K1  1  0.00000000  0.50000000  0.00000000  1
  K  K2  1  0.25000000  0.25000000  0.12449500  1
  K  K3  1  0.50000000  0.00000000  0.00000000  1
  K  K4  1  0.49456500  0.99456500  0.25148700  1
  K  K5  1  0.75000000  0.75000000  0.12449500  1
  K  K6  1  0.99456500  0.49456500  0.74851300  1
  K  K7  1  0.75000000  0.75000000  0.87550500  1
  K  K8  1  0.25000000  0.25000000  0.87550500  1
  K  K9  1  0.50543500  0.00543500  0.74851300  1
  K  K10  1  0.50000000  0.00000000  0.50000000  1
  K  K11  1  0.00000000  0.50000000  0.50000000  1
  Ba  Ba0  1  0.25000000  0.25000000  0.62582500  1
  Ba  Ba1  1  0.75000000  0.75000000  0.62582500  1
  Ba  Ba2  1  0.75000000  0.75000000  0.37417500  1
  Ba  Ba3  1  0.25000000  0.25000000  0.37417500  1
  Ca  Ca0  1  0.75000000  0.25000000  0.12470300  1
  Ca  Ca1  1  0.25000000  0.75000000  0.87529700  1
  U  U0  1  0.50044300  0.49955700  0.24755000  1
  U  U1  1  0.00000000  0.00000000  0.00000000  1
  U  U2  1  0.99955700  0.00044300  0.24755000  1
  U  U3  1  0.49955700  0.50044300  0.75245000  1
  U  U4  1  0.25000000  0.75000000  0.12401600  1
  U  U5  1  0.50000000  0.50000000  0.00000000  1
  U  U6  1  0.00000000  0.00000000  0.50000000  1
  U  U7  1  0.75000000  0.25000000  0.87598400  1
  U  U8  1  0.00044300  0.99955700  0.75245000  1
  U  U9  1  0.25000000  0.75000000  0.62596600  1
  U  U10  1  0.50000000  0.50000000  0.50000000  1
  U  U11  1  0.75000000  0.25000000  0.37403400  1
  O  O0  1  0.39721200  0.60278800  0.30533900  1
  O  O1  1  0.61832000  0.38168000  0.31382700  1
  O  O2  1  0.75000000  0.75000000  0.25220000  1
  O  O3  1  0.88569000  0.11431000  0.19232900  1
  O  O4  1  0.88723600  0.11276400  0.05636800  1
  O  O5  1  0.88168000  0.11832000  0.31382700  1
  O  O6  1  0.12447400  0.87552600  0.06218700  1
  O  O7  1  0.12676200  0.87323800  0.18632100  1
  O  O8  1  0.25000000  0.25000000  0.00000000  1
  O  O9  1  0.02384800  0.52384800  0.12488800  1
  O  O10  1  0.38569000  0.61431000  0.80767100  1
  O  O11  1  0.10278800  0.89721200  0.30533900  1
  O  O12  1  0.47615200  0.97615200  0.12488800  1
  O  O13  1  0.25000000  0.25000000  0.25220000  1
  O  O14  1  0.37552600  0.62447400  0.06218700  1
  O  O15  1  0.62676200  0.37323800  0.81367900  1
  O  O16  1  0.62447400  0.37552600  0.93781300  1
  O  O17  1  0.37323800  0.62676200  0.18632100  1
  O  O18  1  0.75000000  0.75000000  0.74780000  1
  O  O19  1  0.52384800  0.02384800  0.87511200  1
  O  O20  1  0.89553500  0.10446500  0.55714700  1
  O  O21  1  0.38723600  0.61276400  0.94363200  1
  O  O22  1  0.61431000  0.38569000  0.19232900  1
  O  O23  1  0.61276400  0.38723600  0.05636800  1
  O  O24  1  0.97615200  0.47615200  0.87511200  1
  O  O25  1  0.75000000  0.75000000  0.00000000  1
  O  O26  1  0.87323800  0.12676200  0.81367900  1
  O  O27  1  0.12051500  0.87948500  0.56538400  1
  O  O28  1  0.11832000  0.88168000  0.68617300  1
  O  O29  1  0.25000000  0.25000000  0.50000000  1
  O  O30  1  0.87552600  0.12447400  0.93781300  1
  O  O31  1  0.89721200  0.10278800  0.69466100  1
  O  O32  1  0.03186900  0.53186900  0.62516400  1
  O  O33  1  0.39553500  0.60446500  0.44285300  1
  O  O34  1  0.11431000  0.88569000  0.80767100  1
  O  O35  1  0.11276400  0.88723600  0.94363200  1
  O  O36  1  0.46813100  0.96813100  0.62516400  1
  O  O37  1  0.37948500  0.62051500  0.56538400  1
  O  O38  1  0.25000000  0.25000000  0.74780000  1
  O  O39  1  0.62051500  0.37948500  0.43461600  1
  O  O40  1  0.38168000  0.61832000  0.68617300  1
  O  O41  1  0.53186900  0.03186900  0.37483600  1
  O  O42  1  0.60278800  0.39721200  0.69466100  1
  O  O43  1  0.60446500  0.39553500  0.55714700  1
  O  O44  1  0.96813100  0.46813100  0.37483600  1
  O  O45  1  0.75000000  0.75000000  0.50000000  1
  O  O46  1  0.87948500  0.12051500  0.43461600  1
  O  O47  1  0.10446500  0.89553500  0.44285300  1
loop_
_geom_bond_atom_site_label_1
_geom_bond_atom_site_label_2
_geom_bond_distance
_geom_bond_site_symmetry_2
K0 O44 3.061944 1_455
K0 O17 3.074468 1_555
K0 O7 3.074468 1_555
K0 O13 3.085337 1_555
K0 O2 3.085337 1_455
K0 O0 3.101490 1_555
K0 O11 3.101490 1_555
K0 O9 3.128944 1_555
K0 O3 3.146730 1_455
K0 O22 3.146730 1_455
K0 O1 3.158194 1_455
K0 O5 3.158194 1_455
K1 O6 3.084230 1_555
K1 O14 3.084230 1_555
K1 O16 3.084230 1_454
K1 O30 3.084230 1_454
K1 O25 3.084922 1_455
K1 O8 3.084922 1_555
K1 O9 3.089599 1_555
K1 O24 3.089599 1_454
K1 O23 3.092038 1_455
K1 O4 3.092038 1_455
K1 O21 3.092038 1_554
K1 O35 3.092038 1_554
K2 O8 3.072885 1_555
K2 O14 3.079222 1_555
K2 O6 3.079222 1_545
K2 O23 3.085614 1_555
K2 O4 3.085614 1_455
K2 O17 3.087504 1_555
K2 O7 3.087504 1_545
K2 O3 3.090339 1_455
K2 O22 3.090339 1_555
K2 O12 3.091946 1_545
K2 O9 3.091946 1_555
K2 O13 3.152117 1_555
K3 O16 3.084230 1_554
K3 O30 3.084230 1_554
K3 O14 3.084230 1_545
K3 O6 3.084230 1_545
K3 O8 3.084922 1_555
K3 O25 3.084922 1_545
K3 O19 3.089599 1_554
K3 O12 3.089599 1_545
K3 O23 3.092038 1_555
K3 O4 3.092038 1_555
K3 O21 3.092038 1_544
K3 O35 3.092038 1_544
K4 O41 3.061944 1_565
K4 O17 3.074468 1_555
K4 O7 3.074468 1_555
K4 O2 3.085337 1_555
K4 O13 3.085337 1_565
K4 O0 3.101490 1_555
K4 O11 3.101490 1_555
K4 O12 3.128944 1_555
K4 O3 3.146730 1_565
K4 O22 3.146730 1_565
K4 O5 3.158194 1_565
K4 O1 3.158194 1_565
K5 O25 3.072885 1_555
K5 O6 3.079222 1_655
K5 O14 3.079222 1_555
K5 O4 3.085614 1_565
K5 O23 3.085614 1_555
K5 O7 3.087504 1_655
K5 O17 3.087504 1_555
K5 O3 3.090339 1_565
K5 O22 3.090339 1_555
K5 O9 3.091946 1_655
K5 O12 3.091946 1_555
K5 O2 3.152117 1_555
K6 O32 3.061944 1_655
K6 O15 3.074468 1_555
K6 O26 3.074468 1_555
K6 O18 3.085337 1_555
K6 O38 3.085337 1_655
K6 O42 3.101490 1_555
K6 O31 3.101490 1_555
K6 O24 3.128944 1_555
K6 O34 3.146730 1_655
K6 O10 3.146730 1_655
K6 O28 3.158194 1_655
K6 O40 3.158194 1_655
K7 O25 3.072885 1_556
K7 O30 3.079222 1_565
K7 O16 3.079222 1_555
K7 O35 3.085614 1_655
K7 O21 3.085614 1_555
K7 O26 3.087504 1_565
K7 O15 3.087504 1_555
K7 O34 3.090339 1_655
K7 O10 3.090339 1_555
K7 O19 3.091946 1_565
K7 O24 3.091946 1_555
K7 O18 3.152117 1_555
K8 O8 3.072885 1_556
K8 O16 3.079222 1_555
K8 O30 3.079222 1_455
K8 O21 3.085614 1_555
K8 O35 3.085614 1_545
K8 O15 3.087504 1_555
K8 O26 3.087504 1_455
K8 O34 3.090339 1_545
K8 O10 3.090339 1_555
K8 O24 3.091946 1_455
K8 O19 3.091946 1_555
K8 O38 3.152117 1_555
K9 O36 3.061944 1_545
K9 O15 3.074468 1_555
K9 O26 3.074468 1_555
K9 O38 3.085337 1_555
K9 O18 3.085337 1_545
K9 O42 3.101490 1_555
K9 O31 3.101490 1_555
K9 O19 3.128944 1_555
K9 O34 3.146730 1_545
K9 O10 3.146730 1_545
K9 O40 3.158194 1_545
K9 O28 3.158194 1_545
K10 O45 3.084922 1_545
K10 O29 3.084922 1_555
K10 O36 3.101884 1_545
K10 O41 3.101884 1_555
K10 O39 3.148759 1_555
K10 O46 3.148759 1_555
K10 O27 3.148759 1_545
K10 O37 3.148759 1_545
K10 O43 3.157832 1_555
K10 O20 3.157832 1_555
K10 O33 3.157832 1_545
K10 O47 3.157832 1_545
K11 O29 3.084922 1_555
K11 O45 3.084922 1_455
K11 O32 3.101884 1_555
K11 O44 3.101884 1_455
K11 O37 3.148759 1_555
K11 O46 3.148759 1_455
K11 O27 3.148759 1_555
K11 O39 3.148759 1_455
K11 O33 3.157832 1_555
K11 O47 3.157832 1_555
K11 O43 3.157832 1_455
K11 O20 3.157832 1_455
Ba0 O38 3.010684 1_555
Ba0 O28 3.017885 1_545
Ba0 O40 3.017885 1_555
Ba0 O37 3.032210 1_555
Ba0 O27 3.032210 1_545
Ba0 O42 3.041833 1_555
Ba0 O31 3.041833 1_455
Ba0 O43 3.048349 1_555
Ba0 O20 3.048349 1_455
Ba0 O32 3.097470 1_555
Ba0 O36 3.097470 1_545
Ba0 O29 3.105713 1_555
Ba1 O18 3.010684 1_555
Ba1 O40 3.017885 1_555
Ba1 O28 3.017885 1_655
Ba1 O27 3.032210 1_655
Ba1 O37 3.032210 1_555
Ba1 O31 3.041833 1_565
Ba1 O42 3.041833 1_555
Ba1 O20 3.048349 1_565
Ba1 O43 3.048349 1_555
Ba1 O32 3.097470 1_655
Ba1 O36 3.097470 1_555
Ba1 O45 3.105713 1_555
Ba2 O2 3.010684 1_555
Ba2 O5 3.017885 1_565
Ba2 O1 3.017885 1_555
Ba2 O46 3.032210 1_565
Ba2 O39 3.032210 1_555
Ba2 O11 3.041833 1_655
Ba2 O0 3.041833 1_555
Ba2 O47 3.048349 1_655
Ba2 O33 3.048349 1_555
Ba2 O41 3.097470 1_565
Ba2 O44 3.097470 1_555
Ba2 O45 3.105713 1_555
Ba3 O13 3.010684 1_555
Ba3 O5 3.017885 1_455
Ba3 O1 3.017885 1_555
Ba3 O39 3.032210 1_555
Ba3 O46 3.032210 1_455
Ba3 O0 3.041833 1_555
Ba3 O11 3.041833 1_545
Ba3 O33 3.048349 1_555
Ba3 O47 3.048349 1_545
Ba3 O41 3.097470 1_555
Ba3 O44 3.097470 1_455
Ba3 O29 3.105713 1_555
Ca0 O22 2.364265 1_555
Ca0 O3 2.364265 1_555
Ca0 O9 2.389153 1_655
Ca0 O12 2.389153 1_545
Ca0 O23 2.390131 1_555
Ca0 O4 2.390131 1_555
Ca1 O10 2.364265 1_555
Ca1 O34 2.364265 1_555
Ca1 O19 2.389153 1_565
Ca1 O24 2.389153 1_455
Ca1 O21 2.390131 1_555
Ca1 O35 2.390131 1_555
O0 U0 1.912398 1_555
O1 U0 2.189049 1_555
O1 U11 2.201975 1_555
O2 U2 2.184115 1_565
O2 U0 2.184115 1_555
O3 U2 1.957563 1_555
O4 U1 1.967732 1_655
O5 U2 2.189049 1_555
O5 U11 2.201975 1_555
O6 U1 2.171468 1_565
O6 U4 2.174459 1_555
O7 U4 2.162777 1_555
O7 U2 2.178968 1_465
O8 U1 2.181090 1_555
O8 U5 2.181090 1_555
O9 U4 1.973149 1_555
O10 U3 1.957563 1_555
O11 U2 1.912398 1_465
O12 U4 1.973149 1_555
O13 U0 2.184115 1_555
O13 U2 2.184115 1_455
O14 U5 2.171468 1_555
O14 U4 2.174459 1_555
O15 U7 2.162777 1_555
O15 U3 2.178968 1_555
O16 U5 2.171468 1_556
O16 U7 2.174459 1_555
O17 U4 2.162777 1_555
O17 U0 2.178968 1_555
O18 U8 2.184115 1_655
O18 U3 2.184115 1_555
O19 U7 1.973149 1_555
O20 U6 1.910847 1_655
O21 U5 1.967732 1_556
O22 U0 1.957563 1_555
O23 U5 1.967732 1_555
O24 U7 1.973149 1_555
O25 U5 2.181090 1_555
O25 U1 2.181090 1_665
O26 U7 2.162777 1_555
O26 U8 2.178968 1_645
O27 U9 2.188379 1_555
O27 U6 2.194553 1_565
O28 U8 2.189049 1_555
O28 U9 2.201975 1_555
O29 U10 2.181090 1_555
O29 U6 2.181090 1_555
O30 U1 2.171468 1_656
O30 U7 2.174459 1_555
O31 U8 1.912398 1_645
O32 U9 1.903157 1_555
O33 U10 1.910847 1_555
O34 U8 1.957563 1_555
O35 U1 1.967732 1_566
O36 U9 1.903157 1_555
O37 U9 2.188379 1_555
O37 U10 2.194553 1_555
O38 U3 2.184115 1_555
O38 U8 2.184115 1_545
O39 U11 2.188379 1_555
O39 U10 2.194553 1_555
O40 U3 2.189049 1_555
O40 U9 2.201975 1_555
O41 U11 1.903157 1_555
O42 U3 1.912398 1_555
O43 U10 1.910847 1_555
O44 U11 1.903157 1_555
O45 U10 2.181090 1_555
O45 U6 2.181090 1_665
O46 U11 2.188379 1_555
O46 U6 2.194553 1_655
O47 U6 1.910847 1_565
