# generated using pymatgen
data_GdAs2Pd3
_symmetry_space_group_name_H-M   'P 1'
_cell_length_a   8.40691524
_cell_length_b   8.40691524
_cell_length_c   9.74983798
_cell_angle_alpha   72.63315483
_cell_angle_beta   72.63315483
_cell_angle_gamma   27.55863053
_symmetry_Int_Tables_number   1
_chemical_formula_structural   GdAs2Pd3
_chemical_formula_sum   'Gd3 As6 Pd9'
_cell_volume   303.37812440
_cell_formula_units_Z   3
loop_
 _symmetry_equiv_pos_site_id
 _symmetry_equiv_pos_as_xyz
  1  'x, y, z'
loop_
 _atom_site_type_symbol
 _atom_site_label
 _atom_site_symmetry_multiplicity
 _atom_site_fract_x
 _atom_site_fract_y
 _atom_site_fract_z
 _atom_site_occupancy
  Gd  Gd0  1  0.84490000  0.84490000  0.70152900  1
  Gd  Gd1  1  0.00000000  0.00000000  0.00000000  1
  Gd  Gd2  1  0.15510000  0.15510000  0.29847100  1
  As  As0  1  0.63615500  0.63615500  0.54546300  1
  As  As1  1  0.46036400  0.46036400  0.78661800  1
  As  As2  1  0.19907600  0.19907600  0.86788300  1
  As  As3  1  0.36384500  0.36384500  0.45453700  1
  As  As4  1  0.80092400  0.80092400  0.13211700  1
  As  As5  1  0.53963600  0.53963600  0.21338200  1
  Pd  Pd0  1  0.31974900  0.31974900  0.96720900  1
  Pd  Pd1  1  0.04298000  0.04298000  0.66891500  1
  Pd  Pd2  1  0.77863600  0.77863600  0.39088500  1
  Pd  Pd3  1  0.68025100  0.68025100  0.03279100  1
  Pd  Pd4  1  0.62168700  0.62168700  0.80176100  1
  Pd  Pd5  1  0.37831300  0.37831300  0.19823900  1
  Pd  Pd6  1  0.95702000  0.95702000  0.33108500  1
  Pd  Pd7  1  0.50000000  0.50000000  0.50000000  1
  Pd  Pd8  1  0.22136400  0.22136400  0.60911500  1
loop_
_geom_bond_atom_site_label_1
_geom_bond_atom_site_label_2
_geom_bond_distance
_geom_bond_site_symmetry_2
Gd0 Pd1 3.151468 1_665
Gd0 Pd8 3.163586 1_565
Gd0 Pd8 3.163586 1_655
Gd0 Pd0 3.199083 1_565
Gd0 Pd0 3.199083 1_655
Gd0 Pd7 3.350562 1_565
Gd0 Pd7 3.350562 1_655
Gd0 Pd4 3.471586 1_555
Gd0 Pd3 3.510379 1_556
Gd0 Pd6 3.511755 1_555
Gd0 Pd2 3.515478 1_555
Gd1 Pd5 3.055028 1_545
Gd1 Pd5 3.055028 1_455
Gd1 Pd4 3.055028 1_544
Gd1 Pd4 3.055028 1_454
Gd1 Pd1 3.085474 1_554
Gd1 Pd6 3.085474 1_445
Gd2 Pd6 3.151468 1_445
Gd2 Pd2 3.163586 1_455
Gd2 Pd2 3.163586 1_545
Gd2 Pd3 3.199083 1_455
Gd2 Pd3 3.199083 1_545
Gd2 Pd7 3.350562 1_545
Gd2 Pd7 3.350562 1_455
Gd2 Pd5 3.471586 1_555
Gd2 Pd0 3.510379 1_554
Gd2 Pd1 3.511755 1_555
Gd2 Pd8 3.515478 1_555
As0 Pd2 2.351499 1_555
As0 Pd7 2.397034 1_555
As0 Pd4 2.436647 1_555
As0 Pd1 2.578309 1_655
As0 Pd1 2.578309 1_565
As0 Pd8 2.619469 1_565
As0 Pd8 2.619469 1_655
As0 Gd2 3.073502 1_655
As0 Gd2 3.073502 1_565
As1 Pd0 2.426466 1_555
As1 Pd1 2.488967 1_565
As1 Pd1 2.488967 1_655
As1 Pd7 2.667636 1_555
As1 Pd4 2.683450 1_555
As1 Gd0 3.035531 1_455
As1 Gd0 3.035531 1_545
As1 Gd1 3.095868 1_656
As1 Gd1 3.095868 1_566
As2 Pd8 2.435837 1_555
As2 Pd0 2.448266 1_555
As2 Pd3 2.526922 1_456
As2 Pd3 2.526922 1_546
As2 Pd4 2.554019 1_545
As2 Pd4 2.554019 1_455
As2 Gd1 3.107031 1_556
As2 Gd0 3.152258 1_455
As2 Gd0 3.152258 1_545
As3 Pd8 2.351499 1_555
As3 Pd7 2.397034 1_555
As3 Pd5 2.436647 1_555
As3 Pd6 2.578309 1_545
As3 Pd6 2.578309 1_455
As3 Pd2 2.619469 1_545
As3 Pd2 2.619469 1_455
As3 Gd0 3.073502 1_545
As3 Gd0 3.073502 1_455
As4 Pd2 2.435837 1_555
As4 Pd3 2.448266 1_555
As4 Pd0 2.526922 1_654
As4 Pd0 2.526922 1_564
As4 Pd5 2.554019 1_565
As4 Pd5 2.554019 1_655
As4 Gd1 3.107031 1_665
As4 Gd2 3.152258 1_655
As4 Gd2 3.152258 1_565
As5 Pd3 2.426466 1_555
As5 Pd6 2.488967 1_545
As5 Pd6 2.488967 1_455
As5 Pd7 2.667636 1_555
As5 Pd5 2.683450 1_555
As5 Gd2 3.035531 1_565
As5 Gd2 3.035531 1_655
As5 Gd1 3.095868 1_565
As5 Gd1 3.095868 1_655
Pd0 Pd5 2.704159 1_556
Pd1 Pd8 2.789543 1_555
Pd1 Pd7 2.815119 1_545
Pd1 Pd7 2.815119 1_455
Pd1 Pd4 2.891773 1_545
Pd1 Pd4 2.891773 1_455
Pd2 Pd6 2.789543 1_555
Pd2 Pd8 2.861506 1_565
Pd2 Pd8 2.861506 1_655
Pd2 Pd5 2.882304 1_565
Pd2 Pd5 2.882304 1_655
Pd3 Pd4 2.704159 1_554
Pd4 Pd8 2.882304 1_565
Pd4 Pd8 2.882304 1_655
Pd5 Pd6 2.891773 1_545
Pd5 Pd6 2.891773 1_455
Pd6 Pd7 2.815119 1_655
Pd6 Pd7 2.815119 1_565
