# generated using pymatgen
data_Ca2Ta2O7
_symmetry_space_group_name_H-M   'P 1'
_cell_length_a   7.41973320
_cell_length_b   7.41973347
_cell_length_c   42.93632489
_cell_angle_alpha   90.04450980
_cell_angle_beta   94.95298583
_cell_angle_gamma   119.72804213
_symmetry_Int_Tables_number   1
_chemical_formula_structural   Ca2Ta2O7
_chemical_formula_sum   'Ca28 Ta28 O98'
_cell_volume   2042.39164480
_cell_formula_units_Z   14
loop_
 _symmetry_equiv_pos_site_id
 _symmetry_equiv_pos_as_xyz
  1  'x, y, z'
loop_
 _atom_site_type_symbol
 _atom_site_label
 _atom_site_symmetry_multiplicity
 _atom_site_fract_x
 _atom_site_fract_y
 _atom_site_fract_z
 _atom_site_occupancy
  Ca  Ca0  1  0.02338008  0.51529295  0.00238787  1
  Ca  Ca1  1  0.71772559  0.84075954  0.57258938  1
  Ca  Ca2  1  0.63838810  0.05953779  0.21247282  1
  Ca  Ca3  1  0.55468136  0.26390873  0.35620369  1
  Ca  Ca4  1  0.22499747  0.11148552  0.85797512  1
  Ca  Ca5  1  0.25351040  0.36702236  0.14202488  1
  Ca  Ca6  1  0.84144808  0.40832098  0.28558235  1
  Ca  Ca7  1  0.12704421  0.04252633  0.71079466  1
  Ca  Ca8  1  0.12273863  0.55586573  0.71441765  1
  Ca  Ca9  1  0.90770504  0.19847767  0.64379631  1
  Ca  Ca10  1  0.77565783  0.14105079  0.42841391  1
  Ca  Ca11  1  0.84706497  0.42591529  0.78752718  1
  Ca  Ca12  1  0.87781194  0.67569824  0.07317654  1
  Ca  Ca13  1  0.74688140  0.86145894  0.14078030  1
  Ca  Ca14  1  0.22390982  0.85656898  0.56930509  1
  Ca  Ca15  1  0.33173167  0.41624955  0.28920534  1
  Ca  Ca16  1  0.26015521  0.87132070  0.14141997  1
  Ca  Ca17  1  0.51208760  0.51208760  0.00000000  1
  Ca  Ca18  1  0.72990073  0.11873524  0.85858003  1
  Ca  Ca19  1  0.71263688  0.34724392  0.57158609  1
  Ca  Ca20  1  0.72067864  0.60610110  0.85921970  1
  Ca  Ca21  1  0.99250696  0.49250696  0.50000000  1
  Ca  Ca22  1  0.84061781  0.90555771  0.28793424  1
  Ca  Ca23  1  0.51290507  0.02099221  0.99761213  1
  Ca  Ca24  1  0.61762348  0.55268358  0.71206576  1
  Ca  Ca25  1  0.28726389  0.65460473  0.43069491  1
  Ca  Ca26  1  0.60252171  0.80463540  0.92682346  1
  Ca  Ca27  1  0.26817016  0.14513621  0.42741062  1
  Ta  Ta0  1  0.13044458  0.04193072  0.21120916  1
  Ta  Ta1  1  0.13556669  0.54744027  0.21603962  1
  Ta  Ta2  1  0.83072156  0.91923541  0.78879084  1
  Ta  Ta3  1  0.37904122  0.18923207  0.06928098  1
  Ta  Ta4  1  0.92005819  0.69979399  0.64196079  1
  Ta  Ta5  1  0.65078407  0.07798813  0.71597804  1
  Ta  Ta6  1  0.49442483  0.99442483  0.50000000  1
  Ta  Ta7  1  0.05783319  0.27809740  0.35803921  1
  Ta  Ta8  1  0.77291859  0.60680345  0.42837714  1
  Ta  Ta9  1  0.55861842  0.77377653  0.35885623  1
  Ta  Ta10  1  0.05854784  0.77412680  0.35608116  1
  Ta  Ta11  1  0.75369603  0.37602590  0.14419469  1
  Ta  Ta12  1  0.97132922  0.97132922  0.00000000  1
  Ta  Ta13  1  0.41804565  0.70246668  0.64391884  1
  Ta  Ta14  1  0.99174066  0.99105775  0.49810826  1
  Ta  Ta15  1  0.32857905  0.41531569  0.78147610  1
  Ta  Ta16  1  0.17842631  0.34454144  0.57162286  1
  Ta  Ta17  1  0.63383959  0.54710294  0.21852390  1
  Ta  Ta18  1  0.11995110  0.30976024  0.93071902  1
  Ta  Ta19  1  0.36201009  0.93480604  0.28402196  1
  Ta  Ta20  1  0.33140065  0.91952707  0.78396038  1
  Ta  Ta21  1  0.49294950  0.49363240  0.50189174  1
  Ta  Ta22  1  0.62059929  0.31219926  0.92937305  1
  Ta  Ta23  1  0.23183120  0.60950134  0.85580531  1
  Ta  Ta24  1  0.38282620  0.69122623  0.07062695  1
  Ta  Ta25  1  0.88245546  0.19026393  0.07175899  1
  Ta  Ta26  1  0.11850494  0.81069647  0.92824101  1
  Ta  Ta27  1  0.41492030  0.19976219  0.64114377  1
  O  O0  1  0.15088215  0.37684823  0.88484825  1
  O  O1  1  0.01139079  0.23409880  0.31091438  1
  O  O2  1  0.38682221  0.68911773  0.49360443  1
  O  O3  1  0.41145427  0.61096422  0.20545139  1
  O  O4  1  0.61706499  0.74341989  0.40402206  1
  O  O5  1  0.93022522  0.90233603  0.45337755  1
  O  O6  1  0.40551282  0.20600288  0.79454861  1
  O  O7  1  0.92736607  0.46159260  0.83942275  1
  O  O8  1  0.89222130  0.93244624  0.83401591  1
  O  O9  1  0.47951840  0.48850876  0.06288018  1
  O  O10  1  0.64117498  0.57778823  0.26354760  1
  O  O11  1  0.71237728  0.79578395  0.63705577  1
  O  O12  1  0.05440450  0.02993576  0.91554689  1
  O  O13  1  0.34426867  0.83899323  0.37180468  1
  O  O14  1  0.93100615  0.20013278  0.59311166  1
  O  O15  1  0.11438886  0.13885761  0.08445311  1
  O  O16  1  0.10274643  0.24827725  0.97517560  1
  O  O17  1  0.10452217  0.85808571  0.97372949  1
  O  O18  1  0.90548285  0.18257558  0.69533347  1
  O  O19  1  0.52863783  0.77117346  0.87526564  1
  O  O20  1  0.48724211  0.21014937  0.30466653  1
  O  O21  1  0.92568651  0.70701227  0.59568238  1
  O  O22  1  0.81451997  0.61299401  0.92081174  1
  O  O23  1  0.37662790  0.42696316  0.65699310  1
  O  O24  1  0.07049256  0.26150128  0.22543895  1
  O  O25  1  0.81787254  0.20949857  0.92185657  1
  O  O26  1  0.94054628  0.46956649  0.35100856  1
  O  O27  1  0.84391190  0.45549026  0.22607355  1
  O  O28  1  0.88435622  0.13079268  0.02627051  1
  O  O29  1  0.48650721  0.80850886  0.31434915  1
  O  O30  1  0.39063994  0.66709882  0.11744268  1
  O  O31  1  0.03606233  0.84505360  0.77456105  1
  O  O32  1  0.63384669  0.02078842  0.79627500  1
  O  O33  1  0.00584752  0.75014680  0.40150605  1
  O  O34  1  0.35686442  0.47328168  0.35115114  1
  O  O35  1  0.44452317  0.99600481  0.45334583  1
  O  O36  1  0.21582346  0.63361466  0.26146046  1
  O  O37  1  0.69790653  0.85280787  0.97761875  1
  O  O38  1  0.63764191  0.50177139  0.17042289  1
  O  O39  1  0.65310459  0.24446715  0.05750667  1
  O  O40  1  0.63680753  0.61238236  0.78778901  1
  O  O41  1  0.10727194  0.79843749  0.31181321  1
  O  O42  1  0.60702111  0.33789448  0.40688834  1
  O  O43  1  0.42568510  0.01401875  0.93679615  1
  O  O44  1  0.28764200  0.89601597  0.07814343  1
  O  O45  1  0.94217777  0.50349285  0.44943303  1
  O  O46  1  0.49199998  0.26603390  0.11515175  1
  O  O47  1  0.61335424  0.03151032  0.26361511  1
  O  O48  1  0.18696048  0.59559792  0.94249333  1
  O  O49  1  0.03395678  0.21178562  0.78376490  1
  O  O50  1  0.05405982  0.49274475  0.55056697  1
  O  O51  1  0.54265898  0.99117734  0.54665417  1
  O  O52  1  0.33939783  0.21304293  0.59597794  1
  O  O53  1  0.37215420  0.95436300  0.73853954  1
  O  O54  1  0.69218227  0.89370823  0.07918826  1
  O  O55  1  0.76997006  0.71963479  0.34300690  1
  O  O56  1  0.60255830  0.29981746  0.50719959  1
  O  O57  1  0.44895848  0.47684767  0.54662245  1
  O  O58  1  0.20848787  0.26814223  0.48648243  1
  O  O59  1  0.87518912  0.72028778  0.02238125  1
  O  O60  1  0.54464575  0.51594010  0.45614594  1
  O  O61  1  0.07722260  0.48888895  0.06320385  1
  O  O62  1  0.12213054  0.00571328  0.64884886  1
  O  O63  1  0.89590782  0.65337219  0.12473436  1
  O  O64  1  0.37497973  0.71805034  0.02435313  1
  O  O65  1  0.02410857  0.46416704  0.17119717  1
  O  O66  1  0.19551330  0.89321779  0.50639557  1
  O  O67  1  0.82459335  0.84901852  0.21221099  1
  O  O68  1  0.09843033  0.05820539  0.16598409  1
  O  O69  1  0.42802072  0.25019188  0.21623510  1
  O  O70  1  0.27310165  0.12757083  0.02482440  1
  O  O71  1  0.79261787  0.09535871  0.49280041  1
  O  O72  1  0.76789521  0.34973913  0.73638489  1
  O  O73  1  0.16240144  0.99101860  0.25838253  1
  O  O74  1  0.46718855  0.97246399  0.62819532  1
  O  O75  1  0.62216986  0.08794332  0.16057725  1
  O  O76  1  0.71099580  0.39629700  0.63454353  1
  O  O77  1  0.33134850  0.46721902  0.82957711  1
  O  O78  1  0.42562858  0.41663822  0.93711982  1
  O  O79  1  0.05979416  0.08849981  0.54385406  1
  O  O80  1  0.22941672  0.61783835  0.77392645  1
  O  O81  1  0.22451342  0.83757169  0.20372500  1
  O  O82  1  0.11855793  0.58953772  0.64899144  1
  O  O83  1  0.15872818  0.07532151  0.36294423  1
  O  O84  1  0.14994232  0.77359234  0.88459212  1
  O  O85  1  0.34864075  0.60434148  0.59849395  1
  O  O86  1  0.78165980  0.72200543  0.51351757  1
  O  O87  1  0.54965614  0.27319726  0.88255732  1
  O  O88  1  0.29296987  0.85291140  0.82880283  1
  O  O89  1  0.73263606  0.90401891  0.74161747  1
  O  O90  1  0.92318442  0.70047640  0.68908562  1
  O  O91  1  0.31424063  0.37762738  0.73645240  1
  O  O92  1  0.11132988  0.33000413  0.40431762  1
  O  O93  1  0.69369721  0.35062659  0.97564687  1
  O  O94  1  0.76175347  0.07645226  0.36545647  1
  O  O95  1  0.49415971  0.17215806  0.68565085  1
  O  O96  1  0.88900022  0.26535020  0.11540788  1
  O  O97  1  0.48662428  0.79545873  0.68818679  1
loop_
_geom_bond_atom_site_label_1
_geom_bond_atom_site_label_2
_geom_bond_distance
_geom_bond_site_symmetry_2
Ca0 O93 2.311599 1_454
Ca0 O64 2.374658 1_555
Ca0 O59 2.465555 1_455
Ca0 O16 2.628555 1_554
Ca0 O61 2.629583 1_555
Ca0 O17 2.638127 1_554
Ca0 O28 2.742833 1_455
Ca0 O48 2.875006 1_554
Ca1 O51 2.315773 1_555
Ca1 O21 2.367445 1_555
Ca1 O14 2.441586 1_565
Ca1 O57 2.604168 1_555
Ca1 O79 2.694459 1_665
Ca1 O85 2.752882 1_555
Ca1 O11 2.789579 1_555
Ca1 O86 2.837815 1_555
Ca2 O47 2.220898 1_555
Ca2 O75 2.236824 1_555
Ca2 O67 2.547880 1_545
Ca2 O69 2.587765 1_555
Ca2 O27 2.588025 1_555
Ca2 O81 2.658488 1_545
Ca2 O24 2.785716 1_655
Ca2 O3 2.890737 1_545
Ca3 O42 2.197464 1_555
Ca3 O20 2.217098 1_555
Ca3 O26 2.520532 1_555
Ca3 O94 2.543186 1_555
Ca3 O83 2.596768 1_555
Ca3 O34 2.611817 1_555
Ca3 O13 2.851005 1_545
Ca3 O55 3.018067 1_555
Ca4 O87 2.246968 1_555
Ca4 O8 2.285986 1_445
Ca4 O88 2.563017 1_545
Ca4 O84 2.575134 1_545
Ca4 O0 2.586552 1_555
Ca4 O77 2.679846 1_555
Ca4 O12 2.803867 1_555
Ca4 O6 3.066489 1_555
Ca5 O30 2.246967 1_555
Ca5 O68 2.285986 1_555
Ca5 O65 2.563017 1_555
Ca5 O96 2.575134 1_455
Ca5 O46 2.586552 1_555
Ca5 O38 2.679846 1_555
Ca5 O15 2.803867 1_555
Ca5 O3 3.066489 1_555
Ca6 O1 2.413692 1_655
Ca6 O20 2.506320 1_555
Ca6 O10 2.509270 1_555
Ca6 O47 2.568671 1_555
Ca6 O27 2.579615 1_555
Ca6 O36 2.734467 1_655
Ca6 O41 2.736122 1_655
Ca6 O26 2.819308 1_555
Ca7 O90 2.354448 1_445
Ca7 O91 2.373042 1_555
Ca7 O18 2.393697 1_455
Ca7 O53 2.441616 1_545
Ca7 O62 2.668768 1_555
Ca7 O95 2.724203 1_555
Ca7 O89 3.009918 1_445
Ca7 O31 3.072946 1_545
Ca8 O90 2.413692 1_455
Ca8 O18 2.506320 1_455
Ca8 O91 2.509270 1_555
Ca8 O72 2.568670 1_455
Ca8 O80 2.579615 1_555
Ca8 O53 2.734467 1_555
Ca8 O97 2.736121 1_555
Ca8 O82 2.819308 1_555
Ca9 O14 2.197464 1_555
Ca9 O18 2.217098 1_555
Ca9 O82 2.520532 1_655
Ca9 O76 2.543186 1_555
Ca9 O11 2.596768 1_545
Ca9 O62 2.611817 1_655
Ca9 O74 2.851005 1_545
Ca9 O23 3.018067 1_655
Ca10 O45 2.466041 1_555
Ca10 O42 2.483500 1_555
Ca10 O35 2.484798 1_545
Ca10 O92 2.494637 1_655
Ca10 O5 2.721494 1_545
Ca10 O94 2.729147 1_555
Ca10 O4 2.743200 1_545
Ca10 O71 2.785146 1_555
Ca11 O72 2.220898 1_555
Ca11 O7 2.236824 1_555
Ca11 O40 2.547880 1_555
Ca11 O49 2.587765 1_655
Ca11 O80 2.588025 1_655
Ca11 O32 2.658488 1_555
Ca11 O31 2.785716 1_655
Ca11 O6 2.890737 1_555
Ca12 O59 2.206040 1_555
Ca12 O63 2.217488 1_555
Ca12 O61 2.536944 1_655
Ca12 O9 2.561367 1_555
Ca12 O54 2.617350 1_555
Ca12 O44 2.630956 1_655
Ca12 O39 2.825291 1_555
Ca12 O15 2.998894 1_665
Ca13 O30 2.414605 1_555
Ca13 O68 2.416520 1_665
Ca13 O63 2.429840 1_555
Ca13 O75 2.465448 1_565
Ca13 O54 2.669739 1_555
Ca13 O38 2.727149 1_555
Ca13 O96 2.889418 1_565
Ca13 O67 3.081422 1_555
Ca14 O21 2.325880 1_455
Ca14 O51 2.364907 1_555
Ca14 O50 2.443409 1_555
Ca14 O52 2.572861 1_565
Ca14 O66 2.715509 1_555
Ca14 O85 2.729581 1_555
Ca14 O79 2.736730 1_565
Ca14 O74 2.839058 1_555
Ca15 O1 2.354447 1_555
Ca15 O10 2.373041 1_555
Ca15 O20 2.393697 1_555
Ca15 O36 2.441616 1_555
Ca15 O34 2.668768 1_555
Ca15 O29 2.724203 1_555
Ca15 O73 3.009918 1_545
Ca15 O24 3.072946 1_555
Ca16 O63 2.400388 1_455
Ca16 O75 2.410299 1_565
Ca16 O30 2.432671 1_555
Ca16 O68 2.518232 1_565
Ca16 O81 2.710459 1_555
Ca16 O44 2.741514 1_555
Ca16 O46 2.855170 1_565
Ca16 O65 2.995594 1_555
Ca17 O37 2.447684 1_554
Ca17 O59 2.447684 1_555
Ca17 O64 2.487298 1_555
Ca17 O93 2.487298 1_554
Ca17 O9 2.729400 1_555
Ca17 O78 2.729400 1_554
Ca17 O70 2.780966 1_555
Ca17 O16 2.780966 1_554
Ca18 O19 2.400388 1_545
Ca18 O7 2.410299 1_555
Ca18 O87 2.432671 1_555
Ca18 O8 2.518232 1_545
Ca18 O32 2.710459 1_555
Ca18 O25 2.741514 1_555
Ca18 O0 2.855171 1_655
Ca18 O88 2.995594 1_545
Ca19 O50 2.466041 1_655
Ca19 O14 2.483500 1_555
Ca19 O51 2.484798 1_545
Ca19 O21 2.494638 1_555
Ca19 O57 2.721494 1_555
Ca19 O76 2.729147 1_555
Ca19 O52 2.743200 1_555
Ca19 O56 2.785146 1_555
Ca20 O87 2.414605 1_555
Ca20 O8 2.416520 1_555
Ca20 O19 2.429840 1_555
Ca20 O7 2.465448 1_555
Ca20 O22 2.669739 1_555
Ca20 O77 2.727149 1_555
Ca20 O84 2.889418 1_655
Ca20 O40 3.081422 1_555
Ca21 O45 2.179562 1_555
Ca21 O50 2.179562 1_655
Ca21 O56 2.561929 1_555
Ca21 O71 2.561929 1_555
Ca21 O2 2.582588 1_655
Ca21 O66 2.582589 1_655
Ca21 O86 2.912241 1_555
Ca21 O58 2.912241 1_655
Ca22 O1 2.288759 1_665
Ca22 O10 2.315148 1_555
Ca22 O47 2.463208 1_565
Ca22 O73 2.595248 1_655
Ca22 O41 2.609203 1_655
Ca22 O55 2.696506 1_555
Ca22 O29 2.710638 1_555
Ca23 O64 2.311599 1_546
Ca23 O93 2.374658 1_555
Ca23 O37 2.465555 1_545
Ca23 O70 2.628555 1_556
Ca23 O43 2.629583 1_555
Ca23 O28 2.638127 1_556
Ca23 O17 2.742833 1_545
Ca23 O39 2.875006 1_556
Ca24 O90 2.288759 1_555
Ca24 O91 2.315148 1_555
Ca24 O72 2.463209 1_555
Ca24 O89 2.595248 1_555
Ca24 O97 2.609203 1_555
Ca24 O23 2.696506 1_555
Ca24 O95 2.710638 1_555
Ca25 O92 2.325881 1_555
Ca25 O35 2.364907 1_555
Ca25 O45 2.443408 1_455
Ca25 O4 2.572860 1_555
Ca25 O2 2.715509 1_555
Ca25 O33 2.729581 1_555
Ca25 O60 2.736731 1_555
Ca25 O13 2.839057 1_555
Ca26 O37 2.206040 1_555
Ca26 O19 2.217489 1_555
Ca26 O43 2.536944 1_565
Ca26 O78 2.561367 1_555
Ca26 O22 2.617350 1_555
Ca26 O25 2.630956 1_565
Ca26 O48 2.825290 1_555
Ca26 O12 2.998894 1_665
Ca27 O35 2.315773 1_545
Ca27 O92 2.367445 1_555
Ca27 O42 2.441586 1_555
Ca27 O5 2.604168 1_445
Ca27 O60 2.694460 1_555
Ca27 O33 2.752882 1_545
Ca27 O83 2.789579 1_555
Ca27 O58 2.837814 1_555
O0 Ta23 2.000000 1_555
O0 Ta18 2.036110 1_555
O1 Ta7 2.021470 1_555
O2 Ta21 1.983841 1_555
O2 Ta6 2.002969 1_555
O3 Ta1 1.955311 1_555
O3 Ta17 1.969286 1_555
O4 Ta9 1.987922 1_555
O4 Ta8 2.100867 1_555
O5 Ta14 1.969505 1_555
O5 Ta8 2.136472 1_555
O6 Ta20 1.955311 1_545
O6 Ta15 1.969286 1_555
O7 Ta23 2.016956 1_655
O8 Ta2 1.946985 1_555
O9 Ta3 1.989141 1_555
O9 Ta24 1.999581 1_555
O10 Ta17 1.939261 1_555
O11 Ta13 1.986780 1_555
O11 Ta4 1.989659 1_555
O12 Ta26 1.973152 1_545
O12 Ta18 1.978220 1_555
O13 Ta10 1.980437 1_555
O13 Ta9 1.997044 1_555
O14 Ta16 1.926830 1_655
O15 Ta25 1.973152 1_455
O15 Ta3 1.978220 1_555
O16 Ta18 1.963059 1_555
O16 Ta12 2.122517 1_446
O17 Ta12 1.992357 1_456
O17 Ta26 2.004777 1_555
O18 Ta5 1.948108 1_555
O19 Ta23 2.011876 1_555
O20 Ta19 1.948109 1_545
O21 Ta4 1.991270 1_555
O22 Ta26 1.983550 1_655
O22 Ta22 2.023414 1_555
O23 Ta27 1.972882 1_555
O23 Ta13 1.999180 1_555
O24 Ta1 1.978935 1_555
O24 Ta0 1.997353 1_555
O25 Ta18 1.980017 1_655
O25 Ta22 2.003659 1_555
O26 Ta10 1.981059 1_655
O26 Ta7 2.011992 1_655
O27 Ta17 1.990097 1_555
O27 Ta1 2.007780 1_655
O28 Ta12 1.992357 1_545
O28 Ta25 2.004777 1_555
O29 Ta9 1.991345 1_555
O29 Ta19 2.019823 1_555
O30 Ta24 2.016587 1_555
O31 Ta20 1.978935 1_555
O31 Ta2 1.997353 1_455
O32 Ta2 1.994274 1_545
O32 Ta20 2.000563 1_545
O33 Ta8 1.993100 1_455
O33 Ta10 2.012898 1_555
O34 Ta9 1.981066 1_555
O34 Ta7 2.008679 1_555
O35 Ta6 2.006525 1_555
O36 Ta1 1.996656 1_555
O36 Ta19 2.126084 1_555
O37 Ta12 1.924890 1_556
O38 Ta11 1.960295 1_555
O38 Ta17 2.097070 1_555
O39 Ta3 1.977343 1_555
O39 Ta25 1.982774 1_555
O40 Ta2 1.998994 1_555
O40 Ta15 2.004394 1_555
O41 Ta10 1.957145 1_555
O41 Ta19 2.124784 1_555
O42 Ta8 1.926831 1_555
O43 Ta22 1.998828 1_555
O43 Ta26 2.012465 1_545
O44 Ta3 1.980017 1_565
O44 Ta24 2.003660 1_555
O45 Ta8 1.934386 1_555
O46 Ta11 2.000000 1_555
O46 Ta3 2.036110 1_555
O47 Ta19 1.927815 1_545
O48 Ta18 1.977343 1_555
O48 Ta26 1.982774 1_555
O49 Ta15 1.957592 1_555
O49 Ta2 1.960312 1_445
O50 Ta16 1.934386 1_555
O51 Ta6 2.006525 1_555
O52 Ta27 1.987922 1_555
O52 Ta16 2.100867 1_555
O53 Ta20 1.996656 1_555
O53 Ta5 2.126084 1_565
O54 Ta25 1.983550 1_565
O54 Ta24 2.023414 1_555
O55 Ta9 1.972882 1_555
O55 Ta10 1.999180 1_655
O56 Ta21 1.977308 1_555
O56 Ta6 2.006682 1_545
O57 Ta21 1.969505 1_555
O57 Ta16 2.136472 1_555
O58 Ta14 1.980739 1_445
O58 Ta21 1.986620 1_555
O59 Ta12 1.924889 1_555
O60 Ta8 1.990541 1_555
O60 Ta21 2.024863 1_555
O61 Ta24 1.998828 1_555
O61 Ta25 2.012465 1_455
O62 Ta27 1.981066 1_555
O62 Ta4 2.008679 1_445
O63 Ta11 2.011876 1_555
O64 Ta24 1.995650 1_555
O65 Ta1 1.997289 1_555
O65 Ta11 2.023183 1_455
O66 Ta14 1.983841 1_455
O66 Ta6 2.002969 1_555
O67 Ta0 1.998994 1_665
O67 Ta17 2.004394 1_555
O68 Ta0 1.946985 1_555
O69 Ta17 1.957592 1_555
O69 Ta0 1.960311 1_555
O70 Ta3 1.963059 1_555
O70 Ta12 2.122518 1_445
O71 Ta14 1.977308 1_545
O71 Ta6 2.006681 1_545
O72 Ta5 1.927815 1_555
O73 Ta19 1.977664 1_555
O73 Ta0 2.075684 1_565
O74 Ta13 1.980437 1_555
O74 Ta27 1.997044 1_565
O75 Ta11 2.016956 1_555
O76 Ta27 1.990919 1_555
O76 Ta4 2.006933 1_555
O77 Ta23 1.960295 1_555
O77 Ta15 2.097070 1_555
O78 Ta18 1.989140 1_555
O78 Ta22 1.999581 1_555
O79 Ta16 1.990541 1_555
O79 Ta14 2.024863 1_445
O80 Ta15 1.990097 1_555
O80 Ta20 2.007780 1_555
O81 Ta0 1.994274 1_565
O81 Ta1 2.000563 1_555
O82 Ta13 1.981059 1_555
O82 Ta4 2.011992 1_455
O83 Ta10 1.986780 1_545
O83 Ta7 1.989659 1_555
O84 Ta26 1.944456 1_555
O84 Ta23 2.059175 1_555
O85 Ta16 1.993100 1_555
O85 Ta13 2.012898 1_555
O86 Ta21 1.980739 1_555
O86 Ta14 1.986619 1_555
O87 Ta22 2.016587 1_555
O88 Ta20 1.997289 1_555
O88 Ta23 2.023183 1_555
O89 Ta5 1.977664 1_565
O89 Ta2 2.075684 1_555
O90 Ta4 2.021470 1_555
O91 Ta15 1.939261 1_555
O92 Ta7 1.991270 1_555
O93 Ta22 1.995650 1_555
O94 Ta9 1.990919 1_545
O94 Ta7 2.006933 1_655
O95 Ta27 1.991345 1_555
O95 Ta5 2.019823 1_555
O96 Ta25 1.944456 1_555
O96 Ta11 2.059175 1_555
O97 Ta13 1.957145 1_555
O97 Ta5 2.124785 1_565
