# generated using pymatgen
data_Li10Si(PO6)2
_symmetry_space_group_name_H-M   'P 1'
_cell_length_a   7.03944800
_cell_length_b   7.03944800
_cell_length_c   10.38135500
_cell_angle_alpha   90.00000000
_cell_angle_beta   90.00000000
_cell_angle_gamma   90.00000000
_symmetry_Int_Tables_number   1
_chemical_formula_structural   Li10Si(PO6)2
_chemical_formula_sum   'Li20 Si2 P4 O24'
_cell_volume   514.43588158
_cell_formula_units_Z   2
loop_
 _symmetry_equiv_pos_site_id
 _symmetry_equiv_pos_as_xyz
  1  'x, y, z'
loop_
 _atom_site_type_symbol
 _atom_site_label
 _atom_site_symmetry_multiplicity
 _atom_site_fract_x
 _atom_site_fract_y
 _atom_site_fract_z
 _atom_site_occupancy
  Li  Li0  1  0.22883400  0.26498900  0.29754500  1
  Li  Li1  1  0.77116600  0.73501100  0.29754500  1
  Li  Li2  1  0.26498900  0.77116600  0.79754500  1
  Li  Li3  1  0.73501100  0.22883400  0.79754500  1
  Li  Li4  1  0.22883400  0.73501100  0.29754500  1
  Li  Li5  1  0.77116600  0.26498900  0.29754500  1
  Li  Li6  1  0.26498900  0.22883400  0.79754500  1
  Li  Li7  1  0.73501100  0.77116600  0.79754500  1
  Li  Li8  1  0.00000000  0.00000000  0.92996800  1
  Li  Li9  1  0.00000000  0.00000000  0.42996800  1
  Li  Li10  1  0.50000000  0.50000000  0.56300200  1
  Li  Li11  1  0.50000000  0.50000000  0.06300200  1
  Li  Li12  1  0.24135400  0.69991500  0.04416700  1
  Li  Li13  1  0.75864600  0.30008500  0.04416700  1
  Li  Li14  1  0.30008500  0.24135400  0.54416700  1
  Li  Li15  1  0.69991500  0.75864600  0.54416700  1
  Li  Li16  1  0.30008500  0.75864600  0.54416700  1
  Li  Li17  1  0.69991500  0.24135400  0.54416700  1
  Li  Li18  1  0.24135400  0.30008500  0.04416700  1
  Li  Li19  1  0.75864600  0.69991500  0.04416700  1
  Si  Si0  1  0.50000000  0.50000000  0.80918500  1
  Si  Si1  1  0.50000000  0.50000000  0.30918500  1
  P  P0  1  0.00000000  0.00000000  0.67972700  1
  P  P1  1  0.00000000  0.00000000  0.17972700  1
  P  P2  1  0.00000000  0.50000000  0.49396600  1
  P  P3  1  0.50000000  0.00000000  0.99396600  1
  O  O0  1  0.00000000  0.68627600  0.41016900  1
  O  O1  1  0.00000000  0.31372400  0.41016900  1
  O  O2  1  0.31372400  0.00000000  0.91016900  1
  O  O3  1  0.68627600  0.00000000  0.91016900  1
  O  O4  1  0.50000000  0.18703900  0.07309800  1
  O  O5  1  0.50000000  0.81296100  0.07309800  1
  O  O6  1  0.18703900  0.50000000  0.57309800  1
  O  O7  1  0.81296100  0.50000000  0.57309800  1
  O  O8  1  0.00000000  0.81963900  0.09215300  1
  O  O9  1  0.00000000  0.18036100  0.09215300  1
  O  O10  1  0.18036100  0.00000000  0.59215300  1
  O  O11  1  0.81963900  0.00000000  0.59215300  1
  O  O12  1  0.50000000  0.31122400  0.40578400  1
  O  O13  1  0.50000000  0.68877600  0.40578400  1
  O  O14  1  0.31122400  0.50000000  0.90578400  1
  O  O15  1  0.68877600  0.50000000  0.90578400  1
  O  O16  1  0.00000000  0.17745100  0.76842300  1
  O  O17  1  0.00000000  0.82254900  0.76842300  1
  O  O18  1  0.82254900  0.00000000  0.26842300  1
  O  O19  1  0.17745100  0.00000000  0.26842300  1
  O  O20  1  0.50000000  0.68853600  0.71262400  1
  O  O21  1  0.50000000  0.31146400  0.71262400  1
  O  O22  1  0.68853600  0.50000000  0.21262400  1
  O  O23  1  0.31146400  0.50000000  0.21262400  1
loop_
_geom_bond_atom_site_label_1
_geom_bond_atom_site_label_2
_geom_bond_distance
_geom_bond_site_symmetry_2
Li0 O19 1.924022 1_555
Li0 O23 1.962757 1_555
Li0 O1 2.019799 1_555
Li0 O12 2.238817 1_555
Li1 O18 1.924022 1_565
Li1 O22 1.962757 1_555
Li1 O0 2.019799 1_655
Li1 O13 2.238817 1_555
Li2 O17 1.924022 1_555
Li2 O20 1.962757 1_555
Li2 O2 2.019799 1_565
Li2 O14 2.238817 1_555
Li3 O16 1.924022 1_655
Li3 O21 1.962757 1_555
Li3 O3 2.019799 1_555
Li3 O15 2.238817 1_555
Li4 O19 1.924022 1_565
Li4 O23 1.962757 1_555
Li4 O0 2.019799 1_555
Li4 O13 2.238817 1_555
Li5 O18 1.924022 1_555
Li5 O22 1.962757 1_555
Li5 O1 2.019799 1_655
Li5 O12 2.238817 1_555
Li6 O16 1.924022 1_555
Li6 O21 1.962757 1_555
Li6 O2 2.019799 1_555
Li6 O14 2.238817 1_555
Li7 O17 1.924022 1_655
Li7 O20 1.962757 1_555
Li7 O3 2.019799 1_565
Li7 O15 2.238817 1_555
Li8 O16 2.091150 1_555
Li8 O17 2.091150 1_545
Li8 O8 2.108752 1_546
Li8 O9 2.108752 1_556
Li8 O2 2.217988 1_555
Li8 O3 2.217988 1_455
Li9 O19 2.091150 1_555
Li9 O18 2.091150 1_455
Li9 O10 2.108752 1_555
Li9 O11 2.108752 1_455
Li9 O0 2.217988 1_545
Li9 O1 2.217988 1_555
Li10 O21 2.043063 1_555
Li10 O20 2.043063 1_555
Li10 O13 2.104706 1_555
Li10 O12 2.104706 1_555
Li10 O6 2.205564 1_555
Li10 O7 2.205564 1_555
Li11 O23 2.043063 1_555
Li11 O22 2.043063 1_555
Li11 O14 2.104706 1_554
Li11 O15 2.104706 1_554
Li11 O4 2.205564 1_555
Li11 O5 2.205564 1_555
Li12 O8 1.960882 1_555
Li12 O5 2.009605 1_555
Li12 O14 2.070316 1_554
Li12 O23 2.298345 1_555
Li13 O9 1.960882 1_655
Li13 O4 2.009605 1_555
Li13 O15 2.070316 1_554
Li13 O22 2.298345 1_555
Li14 O10 1.960882 1_555
Li14 O6 2.009605 1_555
Li14 O12 2.070316 1_555
Li14 O21 2.298345 1_555
Li15 O11 1.960882 1_565
Li15 O7 2.009605 1_555
Li15 O13 2.070316 1_555
Li15 O20 2.298345 1_555
Li16 O10 1.960882 1_565
Li16 O6 2.009605 1_555
Li16 O13 2.070316 1_555
Li16 O20 2.298345 1_555
Li17 O11 1.960882 1_555
Li17 O7 2.009605 1_555
Li17 O12 2.070316 1_555
Li17 O21 2.298345 1_555
Li18 O9 1.960882 1_555
Li18 O4 2.009605 1_555
Li18 O14 2.070316 1_554
Li18 O23 2.298345 1_555
Li19 O8 1.960882 1_655
Li19 O5 2.009605 1_555
Li19 O15 2.070316 1_554
Li19 O22 2.298345 1_555
O0 P2 1.573603 1_555
O1 P2 1.573603 1_555
O2 P3 1.573603 1_555
O3 P3 1.573603 1_555
O4 P3 1.551911 1_554
O5 P3 1.551911 1_564
O6 P2 1.551911 1_555
O7 P2 1.551911 1_655
O8 P1 1.561576 1_565
O9 P1 1.561576 1_555
O10 P0 1.561576 1_555
O11 P0 1.561576 1_655
O12 Si1 1.664807 1_555
O13 Si1 1.664807 1_555
O14 Si0 1.664807 1_555
O15 Si0 1.664807 1_555
O16 P0 1.551850 1_555
O17 P0 1.551850 1_565
O18 P1 1.551850 1_655
O19 P1 1.551850 1_555
O20 Si0 1.663221 1_555
O21 Si0 1.663221 1_555
O22 Si1 1.663221 1_555
O23 Si1 1.663221 1_555
