# generated using pymatgen
data_SrCu3(RuO3)4
_symmetry_space_group_name_H-M   'P 1'
_cell_length_a   6.52819995
_cell_length_b   6.52819995
_cell_length_c   6.52819995
_cell_angle_alpha   109.47122063
_cell_angle_beta   109.47122063
_cell_angle_gamma   109.47122063
_symmetry_Int_Tables_number   1
_chemical_formula_structural   SrCu3(RuO3)4
_chemical_formula_sum   'Sr1 Cu3 Ru4 O12'
_cell_volume   214.16990952
_cell_formula_units_Z   1
loop_
 _symmetry_equiv_pos_site_id
 _symmetry_equiv_pos_as_xyz
  1  'x, y, z'
loop_
 _atom_site_type_symbol
 _atom_site_label
 _atom_site_symmetry_multiplicity
 _atom_site_fract_x
 _atom_site_fract_y
 _atom_site_fract_z
 _atom_site_occupancy
  Sr  Sr0  1  0.00000000  0.00000000  0.00000000  1
  Cu  Cu0  1  0.00000000  0.50000000  0.50000000  1
  Cu  Cu1  1  0.50000000  0.50000000  0.00000000  1
  Cu  Cu2  1  0.50000000  0.00000000  0.50000000  1
  Ru  Ru0  1  0.50000000  0.50000000  0.50000000  1
  Ru  Ru1  1  0.50000000  0.00000000  0.00000000  1
  Ru  Ru2  1  0.00000000  0.00000000  0.50000000  1
  Ru  Ru3  1  0.00000000  0.50000000  0.00000000  1
  O  O0  1  0.82553000  0.68953300  0.51506300  1
  O  O1  1  0.48493700  0.17447000  0.31046700  1
  O  O2  1  0.82553000  0.31046700  0.13599700  1
  O  O3  1  0.17447000  0.31046700  0.48493700  1
  O  O4  1  0.68953300  0.51506300  0.82553000  1
  O  O5  1  0.51506300  0.82553000  0.68953300  1
  O  O6  1  0.13599700  0.82553000  0.31046700  1
  O  O7  1  0.31046700  0.48493700  0.17447000  1
  O  O8  1  0.68953300  0.86400300  0.17447000  1
  O  O9  1  0.17447000  0.68953300  0.86400300  1
  O  O10  1  0.86400300  0.17447000  0.68953300  1
  O  O11  1  0.31046700  0.13599700  0.82553000  1
loop_
_geom_bond_atom_site_label_1
_geom_bond_atom_site_label_2
_geom_bond_distance
_geom_bond_site_symmetry_2
Cu0 O9 1.941889 1_555
Cu0 O2 1.941889 1_455
Cu0 O0 1.941889 1_455
Cu0 O3 1.941889 1_555
Cu1 O11 1.941889 1_554
Cu1 O8 1.941889 1_555
Cu1 O7 1.941889 1_555
Cu1 O4 1.941889 1_554
Cu2 O10 1.941889 1_555
Cu2 O1 1.941889 1_555
Cu2 O6 1.941889 1_545
Cu2 O5 1.941889 1_545
O0 Ru0 2.020736 1_555
O0 Ru2 2.020736 1_665
O0 Sr0 2.684559 1_666
O1 Ru0 2.020736 1_555
O1 Ru1 2.020736 1_555
O1 Sr0 2.684559 1_555
O2 Ru1 2.020736 1_555
O2 Ru3 2.020736 1_655
O2 Sr0 2.684559 1_655
O3 Ru0 2.020736 1_555
O3 Ru2 2.020736 1_555
O3 Sr0 2.684559 1_555
O4 Ru0 2.020736 1_555
O4 Ru3 2.020736 1_656
O4 Sr0 2.684559 1_666
O5 Ru0 2.020736 1_555
O5 Ru1 2.020736 1_566
O5 Sr0 2.684559 1_666
O6 Ru3 2.020736 1_555
O6 Ru2 2.020736 1_565
O6 Sr0 2.684559 1_565
O7 Ru3 2.020736 1_555
O7 Ru0 2.020736 1_555
O7 Sr0 2.684559 1_555
O8 Ru1 2.020736 1_565
O8 Ru2 2.020736 1_665
O8 Sr0 2.684559 1_665
O9 Ru3 2.020736 1_556
O9 Ru1 2.020736 1_566
O9 Sr0 2.684559 1_566
O10 Ru3 2.020736 1_656
O10 Ru2 2.020736 1_655
O10 Sr0 2.684559 1_656
O11 Ru2 2.020736 1_555
O11 Ru1 2.020736 1_556
O11 Sr0 2.684559 1_556
