# generated using pymatgen
data_EuRh2
_symmetry_space_group_name_H-M   'P 1'
_cell_length_a   5.38218853
_cell_length_b   5.38209797
_cell_length_c   5.38242287
_cell_angle_alpha   60.00697979
_cell_angle_beta   60.00527988
_cell_angle_gamma   59.99771049
_symmetry_Int_Tables_number   1
_chemical_formula_structural   EuRh2
_chemical_formula_sum   'Eu2 Rh4'
_cell_volume   110.25696615
_cell_formula_units_Z   2
loop_
 _symmetry_equiv_pos_site_id
 _symmetry_equiv_pos_as_xyz
  1  'x, y, z'
loop_
 _atom_site_type_symbol
 _atom_site_label
 _atom_site_symmetry_multiplicity
 _atom_site_fract_x
 _atom_site_fract_y
 _atom_site_fract_z
 _atom_site_occupancy
  Eu  Eu0  1  0.12498850  0.12499216  0.12498998  1
  Eu  Eu1  1  0.87499597  0.87501108  0.87500797  1
  Rh  Rh0  1  0.50001526  0.49998937  0.00000428  1
  Rh  Rh1  1  0.49999353  0.00000771  0.49998287  1
  Rh  Rh2  1  0.49999307  0.49999616  0.50000773  1
  Rh  Rh3  1  0.00001268  0.50000451  0.50000815  1
loop_
_geom_bond_atom_site_label_1
_geom_bond_atom_site_label_2
_geom_bond_distance
_geom_bond_site_symmetry_2
Eu0 Rh0 3.155358 1_455
Eu0 Rh0 3.155416 1_545
Eu0 Rh2 3.155611 1_455
Eu0 Rh1 3.155621 1_555
Eu0 Rh2 3.155693 1_545
Eu0 Rh3 3.155713 1_555
Eu0 Rh3 3.155713 1_545
Eu0 Rh3 3.155729 1_554
Eu0 Rh1 3.155766 1_455
Eu0 Rh1 3.155786 1_554
Eu0 Rh0 3.155814 1_555
Eu0 Rh2 3.156058 1_554
Eu0 Eu1 3.295655 1_444
Eu0 Eu1 3.295953 1_544
Eu0 Eu1 3.296005 1_454
Eu0 Eu1 3.296451 1_445
Eu1 Rh0 3.155328 1_566
Eu1 Rh3 3.155508 1_655
Eu1 Rh0 3.155594 1_656
Eu1 Rh2 3.155600 1_655
Eu1 Rh2 3.155624 1_565
Eu1 Rh1 3.155666 1_566
Eu1 Rh0 3.155690 1_556
Eu1 Rh1 3.155729 1_565
Eu1 Rh1 3.155806 1_665
Eu1 Rh3 3.155834 1_665
Eu1 Rh3 3.155907 1_656
Eu1 Rh2 3.156119 1_556
Rh0 Rh2 2.691189 1_555
Rh0 Rh2 2.691234 1_554
Rh0 Rh1 2.691307 1_555
Rh0 Rh3 2.691350 1_654
Rh0 Rh3 2.691385 1_555
Rh0 Rh1 2.691521 1_564
Rh1 Rh3 2.690918 1_555
Rh1 Rh3 2.691039 1_645
Rh1 Rh2 2.691046 1_545
Rh1 Rh2 2.691052 1_555
Rh2 Rh3 2.690965 1_555
Rh2 Rh3 2.691223 1_655
