# generated using pymatgen
data_CdI2
_symmetry_space_group_name_H-M   'P 1'
_cell_length_a   4.34227435
_cell_length_b   4.34227435
_cell_length_c   146.78769100
_cell_angle_alpha   90.00000000
_cell_angle_beta   90.00000000
_cell_angle_gamma   120.00000535
_symmetry_Int_Tables_number   1
_chemical_formula_structural   CdI2
_chemical_formula_sum   'Cd20 I40'
_cell_volume   2396.92677084
_cell_formula_units_Z   20
loop_
 _symmetry_equiv_pos_site_id
 _symmetry_equiv_pos_as_xyz
  1  'x, y, z'
loop_
 _atom_site_type_symbol
 _atom_site_label
 _atom_site_symmetry_multiplicity
 _atom_site_fract_x
 _atom_site_fract_y
 _atom_site_fract_z
 _atom_site_occupancy
  Cd  Cd0  1  0.00000000  0.00000000  0.01249800  1
  Cd  Cd1  1  0.33333300  0.66666700  0.81249500  1
  Cd  Cd2  1  0.00000000  0.00000000  0.11249800  1
  Cd  Cd3  1  0.66666700  0.33333300  0.56249000  1
  Cd  Cd4  1  0.66666700  0.33333300  0.76249700  1
  Cd  Cd5  1  0.66666700  0.33333300  0.46250000  1
  Cd  Cd6  1  0.00000000  0.00000000  0.51249700  1
  Cd  Cd7  1  0.66666700  0.33333300  0.96249900  1
  Cd  Cd8  1  0.66666700  0.33333300  0.06248900  1
  Cd  Cd9  1  0.66666700  0.33333300  0.86249600  1
  Cd  Cd10  1  0.66666700  0.33333300  0.16250800  1
  Cd  Cd11  1  0.66666700  0.33333300  0.26249800  1
  Cd  Cd12  1  0.66666700  0.33333300  0.66250400  1
  Cd  Cd13  1  0.00000000  0.00000000  0.61249800  1
  Cd  Cd14  1  0.00000000  0.00000000  0.41250700  1
  Cd  Cd15  1  0.33333300  0.66666700  0.71249500  1
  Cd  Cd16  1  0.33333300  0.66666700  0.91248900  1
  Cd  Cd17  1  0.00000000  0.00000000  0.21250100  1
  Cd  Cd18  1  0.00000000  0.00000000  0.31249100  1
  Cd  Cd19  1  0.66666700  0.33333300  0.36249800  1
  I  I0  1  0.33333300  0.66666700  0.05071500  1
  I  I1  1  0.66666700  0.33333300  0.62428400  1
  I  I2  1  0.66666700  0.33333300  0.52428500  1
  I  I3  1  0.33333300  0.66666700  0.55071400  1
  I  I4  1  0.33333300  0.66666700  0.15073000  1
  I  I5  1  0.33333300  0.66666700  0.85072400  1
  I  I6  1  0.00000000  0.00000000  0.67428400  1
  I  I7  1  0.00000000  0.00000000  0.77428400  1
  I  I8  1  0.66666700  0.33333300  0.70070800  1
  I  I9  1  0.33333300  0.66666700  0.30071500  1
  I  I10  1  0.00000000  0.00000000  0.47428300  1
  I  I11  1  0.33333300  0.66666700  0.10072600  1
  I  I12  1  0.33333300  0.66666700  0.95072300  1
  I  I13  1  0.00000000  0.00000000  0.97428300  1
  I  I14  1  0.33333300  0.66666700  0.40072800  1
  I  I15  1  0.00000000  0.00000000  0.87428200  1
  I  I16  1  0.00000000  0.00000000  0.17428900  1
  I  I17  1  0.00000000  0.00000000  0.27428500  1
  I  I18  1  0.33333300  0.66666700  0.45072500  1
  I  I19  1  0.66666700  0.33333300  0.02428500  1
  I  I20  1  0.00000000  0.00000000  0.07426900  1
  I  I21  1  0.66666700  0.33333300  0.32427000  1
  I  I22  1  0.33333300  0.66666700  0.00072400  1
  I  I23  1  0.33333300  0.66666700  0.65072600  1
  I  I24  1  0.00000000  0.00000000  0.82427900  1
  I  I25  1  0.33333300  0.66666700  0.20072600  1
  I  I26  1  0.66666700  0.33333300  0.80070800  1
  I  I27  1  0.33333300  0.66666700  0.60072600  1
  I  I28  1  0.00000000  0.00000000  0.72427800  1
  I  I29  1  0.66666700  0.33333300  0.42428800  1
  I  I30  1  0.00000000  0.00000000  0.57427100  1
  I  I31  1  0.66666700  0.33333300  0.90070800  1
  I  I32  1  0.33333300  0.66666700  0.25072500  1
  I  I33  1  0.33333300  0.66666700  0.35072600  1
  I  I34  1  0.00000000  0.00000000  0.37428400  1
  I  I35  1  0.66666700  0.33333300  0.22428300  1
  I  I36  1  0.00000000  0.00000000  0.92428000  1
  I  I37  1  0.33333300  0.66666700  0.75072400  1
  I  I38  1  0.66666700  0.33333300  0.12428400  1
  I  I39  1  0.33333300  0.66666700  0.50072400  1
loop_
_geom_bond_atom_site_label_1
_geom_bond_atom_site_label_2
_geom_bond_distance
_geom_bond_site_symmetry_2
Cd0 I22 3.045004 1_545
Cd0 I22 3.045007 1_555
Cd0 I22 3.045007 1_445
Cd0 I19 3.046087 1_455
Cd0 I19 3.046090 1_555
Cd0 I19 3.046090 1_445
Cd1 I24 3.045837 1_565
Cd1 I24 3.045840 1_555
Cd1 I24 3.045840 1_665
Cd1 I26 3.046087 1_565
Cd1 I26 3.046087 1_455
Cd1 I26 3.046094 1_555
Cd2 I11 3.044837 1_545
Cd2 I11 3.044840 1_445
Cd2 I11 3.044840 1_555
Cd2 I38 3.046004 1_455
Cd2 I38 3.046007 1_555
Cd2 I38 3.046007 1_445
Cd3 I3 3.045170 1_545
Cd3 I3 3.045170 1_655
Cd3 I3 3.045177 1_555
Cd3 I30 3.045587 1_655
Cd3 I30 3.045590 1_555
Cd3 I30 3.045590 1_665
Cd4 I37 3.044920 1_545
Cd4 I37 3.044920 1_655
Cd4 I37 3.044927 1_555
Cd4 I7 3.046087 1_655
Cd4 I7 3.046090 1_665
Cd4 I7 3.046090 1_555
Cd5 I18 3.045087 1_545
Cd5 I18 3.045087 1_655
Cd5 I18 3.045093 1_555
Cd5 I10 3.045754 1_655
Cd5 I10 3.045757 1_665
Cd5 I10 3.045757 1_555
Cd6 I39 3.044921 1_545
Cd6 I39 3.044924 1_445
Cd6 I39 3.044924 1_555
Cd6 I2 3.046171 1_455
Cd6 I2 3.046174 1_555
Cd6 I2 3.046174 1_445
Cd7 I12 3.045170 1_545
Cd7 I12 3.045170 1_655
Cd7 I12 3.045177 1_555
Cd7 I13 3.045837 1_655
Cd7 I13 3.045840 1_665
Cd7 I13 3.045840 1_555
Cd8 I0 3.045004 1_545
Cd8 I0 3.045004 1_655
Cd8 I0 3.045010 1_555
Cd8 I20 3.045504 1_655
Cd8 I20 3.045507 1_665
Cd8 I20 3.045507 1_555
Cd9 I5 3.044837 1_545
Cd9 I5 3.044837 1_655
Cd9 I5 3.044844 1_555
Cd9 I15 3.046004 1_655
Cd9 I15 3.046007 1_665
Cd9 I15 3.046007 1_555
Cd10 I4 3.045337 1_545
Cd10 I4 3.045337 1_655
Cd10 I4 3.045343 1_555
Cd10 I16 3.045587 1_655
Cd10 I16 3.045590 1_555
Cd10 I16 3.045590 1_665
Cd11 I32 3.044920 1_545
Cd11 I32 3.044920 1_655
Cd11 I32 3.044927 1_555
Cd11 I17 3.046087 1_655
Cd11 I17 3.046090 1_555
Cd11 I17 3.046090 1_665
Cd12 I23 3.045337 1_545
Cd12 I23 3.045337 1_655
Cd12 I23 3.045343 1_555
Cd12 I6 3.045504 1_655
Cd12 I6 3.045507 1_665
Cd12 I6 3.045507 1_555
Cd13 I27 3.044837 1_545
Cd13 I27 3.044840 1_445
Cd13 I27 3.044840 1_555
Cd13 I1 3.046004 1_455
Cd13 I1 3.046007 1_555
Cd13 I1 3.046007 1_445
Cd14 I14 3.045421 1_545
Cd14 I14 3.045424 1_445
Cd14 I14 3.045424 1_555
Cd14 I29 3.045587 1_455
Cd14 I29 3.045590 1_445
Cd14 I29 3.045590 1_555
Cd15 I28 3.045754 1_565
Cd15 I28 3.045757 1_555
Cd15 I28 3.045757 1_665
Cd15 I8 3.046087 1_455
Cd15 I8 3.046087 1_565
Cd15 I8 3.046094 1_555
Cd16 I31 3.045587 1_565
Cd16 I31 3.045587 1_455
Cd16 I31 3.045593 1_555
Cd16 I36 3.046421 1_565
Cd16 I36 3.046424 1_555
Cd16 I36 3.046424 1_665
Cd17 I25 3.045087 1_545
Cd17 I25 3.045090 1_445
Cd17 I25 3.045090 1_555
Cd17 I35 3.045671 1_455
Cd17 I35 3.045674 1_445
Cd17 I35 3.045674 1_555
Cd18 I9 3.045171 1_545
Cd18 I9 3.045174 1_445
Cd18 I9 3.045174 1_555
Cd18 I21 3.045421 1_455
Cd18 I21 3.045424 1_555
Cd18 I21 3.045424 1_445
Cd19 I33 3.044837 1_545
Cd19 I33 3.044837 1_655
Cd19 I33 3.044844 1_555
Cd19 I34 3.046004 1_655
Cd19 I34 3.046007 1_665
Cd19 I34 3.046007 1_555
