# generated using pymatgen
data_SrCu2(BO3)2
_symmetry_space_group_name_H-M   'P 1'
_cell_length_a   7.27998548
_cell_length_b   7.27998548
_cell_length_c   7.27998548
_cell_angle_alpha   102.75272941
_cell_angle_beta   102.75272941
_cell_angle_gamma   123.95296916
_symmetry_Int_Tables_number   1
_chemical_formula_structural   SrCu2(BO3)2
_chemical_formula_sum   'Sr2 Cu4 B4 O12'
_cell_volume   282.51798530
_cell_formula_units_Z   2
loop_
 _symmetry_equiv_pos_site_id
 _symmetry_equiv_pos_as_xyz
  1  'x, y, z'
loop_
 _atom_site_type_symbol
 _atom_site_label
 _atom_site_symmetry_multiplicity
 _atom_site_fract_x
 _atom_site_fract_y
 _atom_site_fract_z
 _atom_site_occupancy
  Sr  Sr0  1  0.50000000  0.00000000  0.50000000  1
  Sr  Sr1  1  0.00000000  0.50000000  0.50000000  1
  Cu  Cu0  1  0.15818900  0.15818900  0.77137000  1
  Cu  Cu1  1  0.61318000  0.84181100  0.00000000  1
  Cu  Cu2  1  0.84181100  0.61318000  0.00000000  1
  Cu  Cu3  1  0.38682000  0.38682000  0.22863000  1
  B  B0  1  0.05212100  0.46038300  0.00000000  1
  B  B1  1  0.94787900  0.94787900  0.40826200  1
  B  B2  1  0.46038300  0.05212100  0.00000000  1
  B  B3  1  0.53961700  0.53961700  0.59173800  1
  O  O0  1  0.92708700  0.10900700  0.52521800  1
  O  O1  1  0.59813100  0.07291300  0.18192000  1
  O  O2  1  0.41621100  0.89099300  0.81808000  1
  O  O3  1  0.10900700  0.92708700  0.52521800  1
  O  O4  1  0.07291300  0.59813100  0.18192000  1
  O  O5  1  0.40186900  0.58378900  0.47478200  1
  O  O6  1  0.61955000  0.61955000  0.80274300  1
  O  O7  1  0.18319300  0.38045000  0.00000000  1
  O  O8  1  0.38045000  0.18319300  0.00000000  1
  O  O9  1  0.81680700  0.81680700  0.19725700  1
  O  O10  1  0.58378900  0.40186900  0.47478200  1
  O  O11  1  0.89099300  0.41621100  0.81808000  1
loop_
_geom_bond_atom_site_label_1
_geom_bond_atom_site_label_2
_geom_bond_distance
_geom_bond_site_symmetry_2
Cu0 O8 1.941598 1_556
Cu0 O7 1.941598 1_556
Cu0 O0 1.970475 1_455
Cu0 O3 1.970475 1_545
Cu1 O9 1.941603 1_555
Cu1 O6 1.941603 1_554
Cu1 O2 1.970470 1_554
Cu1 O1 1.970470 1_565
Cu2 O9 1.941603 1_555
Cu2 O6 1.941603 1_554
Cu2 O11 1.970470 1_554
Cu2 O4 1.970470 1_655
Cu3 O7 1.941598 1_555
Cu3 O8 1.941598 1_555
Cu3 O5 1.970475 1_555
Cu3 O10 1.970475 1_555
B0 O7 1.367246 1_555
B0 O11 1.392158 1_454
B0 O4 1.392158 1_555
B1 O9 1.367246 1_555
B1 O0 1.392158 1_565
B1 O3 1.392158 1_655
B2 O8 1.367246 1_555
B2 O2 1.392158 1_544
B2 O1 1.392158 1_555
B3 O6 1.367246 1_555
B3 O10 1.392158 1_555
B3 O5 1.392158 1_555
O0 Sr1 2.646432 1_655
O0 Sr0 2.694083 1_555
O1 Sr0 2.646432 1_555
O1 Sr1 2.694083 1_655
O2 Sr1 2.646432 1_555
O2 Sr0 2.694083 1_565
O3 Sr0 2.646432 1_565
O3 Sr1 2.694083 1_555
O4 Sr1 2.646432 1_555
O4 Sr0 2.694083 1_565
O5 Sr0 2.646432 1_565
O5 Sr1 2.694083 1_555
O10 Sr1 2.646432 1_655
O10 Sr0 2.694083 1_555
O11 Sr0 2.646432 1_555
O11 Sr1 2.694083 1_655
