# generated using pymatgen
data_Fe5Ni7S16
_symmetry_space_group_name_H-M   'P 1'
_cell_length_a   6.64695000
_cell_length_b   6.71521941
_cell_length_c   21.96322665
_cell_angle_alpha   82.05088265
_cell_angle_beta   81.66442104
_cell_angle_gamma   60.58007235
_symmetry_Int_Tables_number   1
_chemical_formula_structural   Fe5Ni7S16
_chemical_formula_sum   'Fe10 Ni14 S32'
_cell_volume   842.33811086
_cell_formula_units_Z   2
loop_
 _symmetry_equiv_pos_site_id
 _symmetry_equiv_pos_as_xyz
  1  'x, y, z'
loop_
 _atom_site_type_symbol
 _atom_site_label
 _atom_site_symmetry_multiplicity
 _atom_site_fract_x
 _atom_site_fract_y
 _atom_site_fract_z
 _atom_site_occupancy
  Fe  Fe0  1  0.84338800  0.84660900  0.96741700  1
  Fe  Fe1  1  0.37489700  0.37484100  0.87465900  1
  Fe  Fe2  1  0.25161600  0.24691600  0.74719900  1
  Fe  Fe3  1  0.12570000  0.12530400  0.62554000  1
  Fe  Fe4  1  0.99804900  0.00108800  0.50147300  1
  Fe  Fe5  1  0.62395200  0.12529400  0.62527600  1
  Fe  Fe6  1  0.87464500  0.87495500  0.37476600  1
  Fe  Fe7  1  0.75250400  0.74924300  0.24861400  1
  Fe  Fe8  1  0.63013400  0.62584400  0.12627900  1
  Fe  Fe9  1  0.11765800  0.62592600  0.12633700  1
  Ni  Ni0  1  0.50072700  0.49975900  0.00012100  1
  Ni  Ni1  1  0.59500300  0.59385100  0.71932300  1
  Ni  Ni2  1  0.87536500  0.37492500  0.87501100  1
  Ni  Ni3  1  0.34248500  0.34739500  0.46774900  1
  Ni  Ni4  1  0.37492400  0.87569600  0.87479800  1
  Ni  Ni5  1  0.90748800  0.90269600  0.78211900  1
  Ni  Ni6  1  0.09543500  0.09379000  0.21939900  1
  Ni  Ni7  1  0.12488200  0.62509600  0.62496700  1
  Ni  Ni8  1  0.65500300  0.65556200  0.53084300  1
  Ni  Ni9  1  0.37487400  0.87513000  0.37498300  1
  Ni  Ni10  1  0.87508900  0.37482600  0.37500900  1
  Ni  Ni11  1  0.40754600  0.40309600  0.28202800  1
  Ni  Ni12  1  0.62433500  0.12651200  0.12491100  1
  Ni  Ni13  1  0.15584300  0.15340300  0.03162800  1
  S  S0  1  0.68188900  0.68283900  0.93657000  1
  S  S1  1  0.55808700  0.55788400  0.81940000  1
  S  S2  1  0.20059800  0.67619900  0.93532800  1
  S  S3  1  0.67576200  0.20091300  0.93543500  1
  S  S4  1  0.43019600  0.42539200  0.68577700  1
  S  S5  1  0.07906400  0.53651500  0.81339200  1
  S  S6  1  0.53793000  0.07839200  0.81344800  1
  S  S7  1  0.31167200  0.30725500  0.56835900  1
  S  S8  1  0.19186800  0.19105000  0.93084800  1
  S  S9  1  0.95842700  0.42667000  0.68560200  1
  S  S10  1  0.43165100  0.95321500  0.68536200  1
  S  S11  1  0.07465100  0.07428300  0.81274200  1
  S  S12  1  0.17541100  0.17581600  0.43673000  1
  S  S13  1  0.81992600  0.29411900  0.56472800  1
  S  S14  1  0.29005300  0.82488500  0.56436100  1
  S  S15  1  0.93812000  0.94303800  0.68162000  1
  S  S16  1  0.05783300  0.05780400  0.31894100  1
  S  S17  1  0.71042600  0.17348500  0.43604600  1
  S  S18  1  0.17268400  0.71174000  0.43622900  1
  S  S19  1  0.81967400  0.82535800  0.56410300  1
  S  S20  1  0.92880200  0.92686600  0.18580300  1
  S  S21  1  0.57616600  0.03968500  0.31384400  1
  S  S22  1  0.04058600  0.57554000  0.31399400  1
  S  S23  1  0.45984000  0.92704200  0.18557800  1
  S  S24  1  0.69214000  0.69194200  0.43108900  1
  S  S25  1  0.81302100  0.80714300  0.06610000  1
  S  S26  1  0.93090700  0.45360700  0.18625500  1
  S  S27  1  0.57448500  0.57403600  0.31329500  1
  S  S28  1  0.32161900  0.78991700  0.06628200  1
  S  S29  1  0.79124500  0.32594800  0.06567600  1
  S  S30  1  0.43655300  0.44694900  0.18136600  1
  S  S31  1  0.31717400  0.32671700  0.06524500  1
loop_
_geom_bond_atom_site_label_1
_geom_bond_atom_site_label_2
_geom_bond_distance
_geom_bond_site_symmetry_2
Fe0 S0 2.097034 1_555
Fe0 S2 2.124239 1_655
Fe0 S3 2.134465 1_565
Fe0 S25 2.139024 1_556
Fe1 S1 2.257394 1_555
Fe1 S5 2.263155 1_555
Fe1 S6 2.267857 1_555
Fe1 S8 2.268219 1_555
Fe1 S3 2.278900 1_555
Fe1 S2 2.282100 1_555
Fe2 S9 2.255420 1_455
Fe2 S10 2.262167 1_545
Fe2 S4 2.269676 1_555
Fe2 S11 2.277479 1_555
Fe2 S6 2.291570 1_555
Fe2 S5 2.306134 1_555
Fe3 S9 2.274753 1_455
Fe3 S15 2.281828 1_445
Fe3 S7 2.281986 1_555
Fe3 S14 2.286435 1_545
Fe3 S10 2.289851 1_545
Fe3 S13 2.303190 1_455
Fe4 S19 2.267856 1_545
Fe4 S14 2.268067 1_645
Fe4 S13 2.279126 1_555
Fe4 S12 2.280343 1_655
Fe4 S17 2.285229 1_555
Fe4 S18 2.290906 1_645
Fe5 S4 2.276007 1_555
Fe5 S7 2.280892 1_555
Fe5 S15 2.282463 1_545
Fe5 S19 2.285134 1_545
Fe5 S10 2.291481 1_545
Fe5 S13 2.298288 1_555
Fe6 S16 2.261234 1_665
Fe6 S24 2.263030 1_555
Fe6 S21 2.270335 1_565
Fe6 S22 2.275415 1_655
Fe6 S18 2.276223 1_655
Fe6 S17 2.278665 1_565
Fe7 S20 2.269004 1_555
Fe7 S23 2.273430 1_555
Fe7 S26 2.278517 1_555
Fe7 S27 2.284860 1_555
Fe7 S22 2.286687 1_655
Fe7 S21 2.295749 1_565
Fe8 S23 2.262836 1_555
Fe8 S26 2.267232 1_555
Fe8 S29 2.276740 1_555
Fe8 S30 2.286449 1_555
Fe8 S25 2.291286 1_555
Fe8 S28 2.306055 1_555
Fe9 S20 2.264510 1_455
Fe9 S26 2.264522 1_455
Fe9 S31 2.282145 1_555
Fe9 S30 2.288346 1_555
Fe9 S25 2.289561 1_455
Fe9 S28 2.310183 1_555
Ni0 S29 2.300303 1_555
Ni0 S31 2.304738 1_555
Ni0 S28 2.308255 1_555
Ni0 S0 2.324260 1_554
Ni0 S3 2.326997 1_554
Ni0 S2 2.333110 1_554
Ni1 S9 2.165935 1_555
Ni1 S4 2.169001 1_555
Ni1 S1 2.169060 1_555
Ni1 S10 2.172942 1_555
Ni2 S8 2.287296 1_655
Ni2 S1 2.288053 1_555
Ni2 S11 2.304800 1_655
Ni2 S5 2.312616 1_655
Ni2 S0 2.326804 1_555
Ni2 S3 2.338929 1_555
Ni3 S12 2.172207 1_555
Ni3 S17 2.180661 1_555
Ni3 S7 2.180766 1_555
Ni3 S18 2.187337 1_555
Ni4 S8 2.288200 1_565
Ni4 S1 2.292044 1_555
Ni4 S11 2.300174 1_565
Ni4 S6 2.315289 1_565
Ni4 S0 2.324158 1_555
Ni4 S2 2.343191 1_555
Ni5 S11 2.168738 1_665
Ni5 S15 2.178402 1_555
Ni5 S6 2.187874 1_565
Ni5 S5 2.196349 1_655
Ni6 S16 2.157636 1_555
Ni6 S26 2.170834 1_455
Ni6 S20 2.170983 1_445
Ni6 S23 2.171734 1_545
Ni7 S9 2.302933 1_455
Ni7 S14 2.303591 1_555
Ni7 S4 2.305970 1_555
Ni7 S19 2.306498 1_455
Ni7 S7 2.307781 1_555
Ni7 S15 2.308861 1_455
Ni8 S24 2.162208 1_555
Ni8 S19 2.172574 1_555
Ni8 S14 2.173324 1_555
Ni8 S13 2.183971 1_555
Ni9 S16 2.292506 1_565
Ni9 S24 2.294476 1_555
Ni9 S12 2.297851 1_565
Ni9 S27 2.298952 1_555
Ni9 S21 2.309883 1_565
Ni9 S18 2.309926 1_555
Ni10 S12 2.295910 1_655
Ni10 S16 2.296726 1_655
Ni10 S27 2.297165 1_555
Ni10 S24 2.297344 1_555
Ni10 S17 2.313044 1_555
Ni10 S22 2.313488 1_655
Ni11 S27 2.170455 1_555
Ni11 S22 2.176435 1_555
Ni11 S30 2.182640 1_555
Ni11 S21 2.183644 1_555
Ni12 S29 2.297028 1_555
Ni12 S31 2.298932 1_555
Ni12 S23 2.299541 1_545
Ni12 S20 2.303257 1_545
Ni12 S30 2.318680 1_555
Ni12 S25 2.344119 1_545
Ni13 S29 2.174970 1_455
Ni13 S31 2.177836 1_555
Ni13 S8 2.184411 1_554
Ni13 S28 2.199642 1_545
