# generated using pymatgen
data_Ce2Bi5Rh3
_symmetry_space_group_name_H-M   'P 1'
_cell_length_a   13.88962224
_cell_length_b   13.88962224
_cell_length_c   7.57722200
_cell_angle_alpha   90.00000000
_cell_angle_beta   90.00000000
_cell_angle_gamma   160.66538879
_symmetry_Int_Tables_number   1
_chemical_formula_structural   Ce2Bi5Rh3
_chemical_formula_sum   'Ce4 Bi10 Rh6'
_cell_volume   483.98252502
_cell_formula_units_Z   2
loop_
 _symmetry_equiv_pos_site_id
 _symmetry_equiv_pos_as_xyz
  1  'x, y, z'
loop_
 _atom_site_type_symbol
 _atom_site_label
 _atom_site_symmetry_multiplicity
 _atom_site_fract_x
 _atom_site_fract_y
 _atom_site_fract_z
 _atom_site_occupancy
  Ce  Ce0  1  0.47442400  0.52557600  0.24033800  1
  Ce  Ce1  1  0.17080000  0.82920000  0.27392200  1
  Ce  Ce2  1  0.82920000  0.17080000  0.77392200  1
  Ce  Ce3  1  0.52557600  0.47442400  0.74033800  1
  Bi  Bi0  1  0.40424300  0.59575700  0.61547900  1
  Bi  Bi1  1  0.28914700  0.71085300  0.49014100  1
  Bi  Bi2  1  0.71085300  0.28914700  0.99014100  1
  Bi  Bi3  1  0.12112400  0.87887600  0.74808100  1
  Bi  Bi4  1  0.29541900  0.70458100  0.06175000  1
  Bi  Bi5  1  0.95321500  0.04678500  0.90819200  1
  Bi  Bi6  1  0.70458100  0.29541900  0.56175000  1
  Bi  Bi7  1  0.87887600  0.12112400  0.24808100  1
  Bi  Bi8  1  0.04678500  0.95321500  0.40819200  1
  Bi  Bi9  1  0.59575700  0.40424300  0.11547900  1
  Rh  Rh0  1  0.77605300  0.22394700  0.27984300  1
  Rh  Rh1  1  0.60340200  0.39659800  0.49211600  1
  Rh  Rh2  1  0.04958700  0.95041300  0.02532700  1
  Rh  Rh3  1  0.22394700  0.77605300  0.77984300  1
  Rh  Rh4  1  0.95041300  0.04958700  0.52532700  1
  Rh  Rh5  1  0.39659800  0.60340200  0.99211600  1
loop_
_geom_bond_atom_site_label_1
_geom_bond_atom_site_label_2
_geom_bond_distance
_geom_bond_site_symmetry_2
Ce0 Rh5 2.842489 1_554
Ce1 Rh1 3.402973 1_565
Ce1 Rh1 3.402973 1_455
Ce2 Rh5 3.402973 1_655
Ce2 Rh5 3.402973 1_545
Ce3 Rh1 2.842489 1_555
Bi0 Rh4 2.739617 1_455
Bi0 Rh4 2.739617 1_565
Bi0 Rh5 2.861531 1_555
Bi0 Bi1 3.291851 1_555
Bi0 Ce2 3.332385 1_455
Bi0 Ce2 3.332385 1_565
Bi1 Rh3 2.829591 1_555
Bi1 Rh0 2.847458 1_565
Bi1 Rh0 2.847458 1_455
Bi1 Bi4 3.250555 1_555
Bi1 Bi6 3.331323 1_565
Bi1 Bi6 3.331323 1_455
Bi1 Ce2 3.356637 1_455
Bi1 Ce2 3.356637 1_565
Bi1 Ce1 3.631476 1_555
Bi2 Rh0 2.829591 1_556
Bi2 Rh3 2.847458 1_655
Bi2 Rh3 2.847458 1_545
Bi2 Bi6 3.250555 1_555
Bi2 Bi9 3.291851 1_556
Bi2 Bi4 3.331323 1_546
Bi2 Bi4 3.331323 1_656
Bi2 Ce1 3.356637 1_546
Bi2 Ce1 3.356637 1_656
Bi2 Ce2 3.631476 1_555
Bi3 Rh3 2.826050 1_555
Bi3 Rh2 2.872446 1_556
Bi3 Rh1 3.072049 1_455
Bi3 Rh1 3.072049 1_565
Bi3 Bi6 3.557660 1_455
Bi3 Bi6 3.557660 1_565
Bi4 Rh5 2.820554 1_554
Bi4 Rh3 2.897172 1_554
Bi4 Rh0 2.907305 1_565
Bi4 Rh0 2.907305 1_455
Bi4 Ce2 3.324537 1_564
Bi4 Ce2 3.324537 1_454
Bi4 Bi7 3.557660 1_565
Bi4 Bi7 3.557660 1_455
Bi4 Ce1 3.772384 1_555
Bi5 Rh2 2.784374 1_646
Bi5 Rh5 2.872027 1_545
Bi5 Rh5 2.872027 1_655
Bi5 Rh4 2.902068 1_555
Bi5 Ce2 3.545241 1_555
Bi6 Rh1 2.820554 1_555
Bi6 Rh0 2.897172 1_555
Bi6 Rh3 2.907305 1_655
Bi6 Rh3 2.907305 1_545
Bi6 Ce1 3.324537 1_655
Bi6 Ce1 3.324537 1_545
Bi6 Ce2 3.772384 1_555
Bi7 Rh0 2.826050 1_555
Bi7 Rh4 2.872446 1_555
Bi7 Rh5 3.072049 1_654
Bi7 Rh5 3.072049 1_544
Bi8 Rh4 2.784374 1_465
Bi8 Rh1 2.872027 1_455
Bi8 Rh1 2.872027 1_565
Bi8 Rh2 2.902068 1_555
Bi8 Ce1 3.545241 1_555
Bi9 Rh2 2.739617 1_545
Bi9 Rh2 2.739617 1_655
Bi9 Rh1 2.861531 1_555
Bi9 Ce1 3.332385 1_545
Bi9 Ce1 3.332385 1_655
