# generated using pymatgen
data_CaH2CClO3
_symmetry_space_group_name_H-M   'P 1'
_cell_length_a   6.18781823
_cell_length_b   6.18781823
_cell_length_c   7.10154953
_cell_angle_alpha   58.62058083
_cell_angle_beta   58.62058083
_cell_angle_gamma   74.59625033
_symmetry_Int_Tables_number   1
_chemical_formula_structural   CaH2CClO3
_chemical_formula_sum   'Ca2 H4 C2 Cl2 O6'
_cell_volume   198.18231987
_cell_formula_units_Z   2
loop_
 _symmetry_equiv_pos_site_id
 _symmetry_equiv_pos_as_xyz
  1  'x, y, z'
loop_
 _atom_site_type_symbol
 _atom_site_label
 _atom_site_symmetry_multiplicity
 _atom_site_fract_x
 _atom_site_fract_y
 _atom_site_fract_z
 _atom_site_occupancy
  Ca  Ca0  1  0.13664500  0.13664500  0.60889700  1
  Ca  Ca1  1  0.86335500  0.86335500  0.39110300  1
  H  H0  1  0.17655300  0.64097600  0.02972400  1
  H  H1  1  0.35902400  0.82344800  0.97027600  1
  H  H2  1  0.82344800  0.35902400  0.97027600  1
  H  H3  1  0.64097600  0.17655300  0.02972400  1
  C  C0  1  0.60393100  0.39606900  0.50000000  1
  C  C1  1  0.39606900  0.60393100  0.50000000  1
  Cl  Cl0  1  0.76197400  0.76197400  0.86969800  1
  Cl  Cl1  1  0.23802600  0.23802600  0.13030200  1
  O  O0  1  0.56815700  0.20882000  0.49273800  1
  O  O1  1  0.79118000  0.43184300  0.50726200  1
  O  O2  1  0.43184300  0.79118000  0.50726200  1
  O  O3  1  0.20882000  0.56815700  0.49273800  1
  O  O4  1  0.18603600  0.81396400  0.00000000  1
  O  O5  1  0.81396400  0.18603600  0.00000000  1
loop_
_geom_bond_atom_site_label_1
_geom_bond_atom_site_label_2
_geom_bond_distance
_geom_bond_site_symmetry_2
Ca0 O3 2.442435 1_555
Ca0 O0 2.442435 1_555
Ca0 O4 2.564926 1_546
Ca0 O5 2.564926 1_456
Ca0 O1 2.566443 1_455
Ca0 O2 2.566443 1_545
Ca0 Cl0 2.844679 1_445
Ca0 Cl1 2.847264 1_555
Ca1 O1 2.442435 1_555
Ca1 O2 2.442435 1_555
Ca1 O4 2.564926 1_655
Ca1 O5 2.564926 1_565
Ca1 O0 2.566443 1_565
Ca1 O3 2.566443 1_655
Ca1 Cl1 2.844679 1_665
Ca1 Cl0 2.847264 1_555
H0 O4 0.989423 1_555
H1 O4 0.989425 1_556
H2 O5 0.989425 1_556
H3 O5 0.989423 1_555
C0 O1 1.266701 1_555
C0 O0 1.266701 1_555
C1 O3 1.266701 1_555
C1 O2 1.266701 1_555
