# generated using pymatgen
data_Ce25Ni49P33
_symmetry_space_group_name_H-M   'P 1'
_cell_length_a   22.20964141
_cell_length_b   22.20964131
_cell_length_c   3.90894202
_cell_angle_alpha   90.00000000
_cell_angle_beta   90.00000000
_cell_angle_gamma   120.00000017
_symmetry_Int_Tables_number   1
_chemical_formula_structural   Ce25Ni49P33
_chemical_formula_sum   'Ce25 Ni49 P33'
_cell_volume   1669.83265949
_cell_formula_units_Z   1
loop_
 _symmetry_equiv_pos_site_id
 _symmetry_equiv_pos_as_xyz
  1  'x, y, z'
loop_
 _atom_site_type_symbol
 _atom_site_label
 _atom_site_symmetry_multiplicity
 _atom_site_fract_x
 _atom_site_fract_y
 _atom_site_fract_z
 _atom_site_occupancy
  Ce  Ce0  1  0.45441281  0.72720641  0.50000000  1
  Ce  Ce1  1  0.09341422  0.36723303  0.50000000  1
  Ce  Ce2  1  0.66402429  0.51397485  0.00000000  1
  Ce  Ce3  1  0.63276697  0.90658578  0.50000000  1
  Ce  Ce4  1  0.27279359  0.72720641  0.50000000  1
  Ce  Ce5  1  0.48602515  0.15004945  0.00000000  1
  Ce  Ce6  1  0.27279359  0.54558719  0.50000000  1
  Ce  Ce7  1  0.84995055  0.51397485  0.00000000  1
  Ce  Ce8  1  0.27381880  0.90658578  0.50000000  1
  Ce  Ce9  1  0.45313624  0.54686376  0.50000000  1
  Ce  Ce10  1  0.84995055  0.33597571  0.00000000  1
  Ce  Ce11  1  0.48602515  0.33597571  0.00000000  1
  Ce  Ce12  1  0.27381880  0.36723303  0.50000000  1
  Ce  Ce13  1  0.81763090  0.90881545  0.50000000  1
  Ce  Ce14  1  0.84595692  0.15404308  0.00000000  1
  Ce  Ce15  1  0.66402429  0.15004945  0.00000000  1
  Ce  Ce16  1  0.09118455  0.18236910  0.50000000  1
  Ce  Ce17  1  0.45313624  0.90627248  0.50000000  1
  Ce  Ce18  1  0.66666700  0.33333300  0.50000000  1
  Ce  Ce19  1  0.09341422  0.72618120  0.50000000  1
  Ce  Ce20  1  0.09372752  0.54686376  0.50000000  1
  Ce  Ce21  1  0.84595692  0.69191383  0.00000000  1
  Ce  Ce22  1  0.09118455  0.90881545  0.50000000  1
  Ce  Ce23  1  0.30808617  0.15404308  0.00000000  1
  Ce  Ce24  1  0.63276697  0.72618120  0.50000000  1
  Ni  Ni0  1  0.15342777  0.84657223  0.00000000  1
  Ni  Ni1  1  0.97127353  0.57644167  0.50000000  1
  Ni  Ni2  1  0.60516814  0.57644167  0.50000000  1
  Ni  Ni3  1  0.51342997  0.48657003  0.00000000  1
  Ni  Ni4  1  0.97037164  0.66408117  0.00000000  1
  Ni  Ni5  1  0.97127353  0.39483186  0.50000000  1
  Ni  Ni6  1  0.33591883  0.02962836  0.00000000  1
  Ni  Ni7  1  0.97045117  0.21628886  0.50000000  1
  Ni  Ni8  1  0.60516814  0.02872647  0.50000000  1
  Ni  Ni9  1  0.15399387  0.66726574  0.00000000  1
  Ni  Ni10  1  0.03602804  0.96397196  0.00000000  1
  Ni  Ni11  1  0.97037164  0.30629048  0.00000000  1
  Ni  Ni12  1  0.24583769  0.02954883  0.50000000  1
  Ni  Ni13  1  0.03602804  0.07205608  0.00000000  1
  Ni  Ni14  1  0.69370952  0.66408117  0.00000000  1
  Ni  Ni15  1  0.97179508  0.13586981  0.00000000  1
  Ni  Ni16  1  0.16407473  0.13586981  0.00000000  1
  Ni  Ni17  1  0.16407473  0.02820492  0.00000000  1
  Ni  Ni18  1  0.33333300  0.66666700  0.00000000  1
  Ni  Ni19  1  0.33273426  0.84600613  0.00000000  1
  Ni  Ni20  1  0.69370952  0.02962836  0.00000000  1
  Ni  Ni21  1  0.86413019  0.83592527  0.00000000  1
  Ni  Ni22  1  0.51327187  0.84600613  0.00000000  1
  Ni  Ni23  1  0.79111531  0.58223062  0.50000000  1
  Ni  Ni24  1  0.42355833  0.02872647  0.50000000  1
  Ni  Ni25  1  0.33591883  0.30629048  0.00000000  1
  Ni  Ni26  1  0.41776938  0.20888469  0.50000000  1
  Ni  Ni27  1  0.97179508  0.83592527  0.00000000  1
  Ni  Ni28  1  0.51327187  0.66726574  0.00000000  1
  Ni  Ni29  1  0.79111531  0.20888469  0.50000000  1
  Ni  Ni30  1  0.95955771  0.91911541  0.50000000  1
  Ni  Ni31  1  0.92794392  0.96397196  0.00000000  1
  Ni  Ni32  1  0.95955771  0.04044229  0.50000000  1
  Ni  Ni33  1  0.51342997  0.02685994  0.00000000  1
  Ni  Ni34  1  0.78371114  0.75416231  0.50000000  1
  Ni  Ni35  1  0.78371114  0.02954883  0.50000000  1
  Ni  Ni36  1  0.60264649  0.39735351  0.50000000  1
  Ni  Ni37  1  0.97314006  0.48657003  0.00000000  1
  Ni  Ni38  1  0.60264649  0.20529297  0.50000000  1
  Ni  Ni39  1  0.15399387  0.48672813  0.00000000  1
  Ni  Ni40  1  0.42355833  0.39483186  0.50000000  1
  Ni  Ni41  1  0.79470703  0.39735351  0.50000000  1
  Ni  Ni42  1  0.33273426  0.48672813  0.00000000  1
  Ni  Ni43  1  0.97045117  0.75416231  0.50000000  1
  Ni  Ni44  1  0.69314447  0.84657223  0.00000000  1
  Ni  Ni45  1  0.15342777  0.30685553  0.00000000  1
  Ni  Ni46  1  0.08088459  0.04044229  0.50000000  1
  Ni  Ni47  1  0.24583769  0.21628886  0.50000000  1
  Ni  Ni48  1  0.86413019  0.02820492  0.00000000  1
  P  P0  1  0.72588541  0.63337240  0.50000000  1
  P  P1  1  0.54439385  0.45560615  0.50000000  1
  P  P2  1  0.21449950  0.25124295  0.00000000  1
  P  P3  1  0.03597734  0.60820783  0.00000000  1
  P  P4  1  0.39179217  0.42776952  0.00000000  1
  P  P5  1  0.36662760  0.27411459  0.50000000  1
  P  P6  1  0.39273657  0.60726343  0.00000000  1
  P  P7  1  0.52926753  0.26463376  0.50000000  1
  P  P8  1  0.39179217  0.96402266  0.00000000  1
  P  P9  1  0.03674345  0.25124295  0.00000000  1
  P  P10  1  0.21318227  0.78681773  0.00000000  1
  P  P11  1  0.90296397  0.09703603  0.50000000  1
  P  P12  1  0.91121229  0.45560615  0.50000000  1
  P  P13  1  0.21452686  0.60726343  0.00000000  1
  P  P14  1  0.73536624  0.47073247  0.50000000  1
  P  P15  1  0.19407207  0.09703603  0.50000000  1
  P  P16  1  0.73536624  0.26463376  0.50000000  1
  P  P17  1  0.36662760  0.09251301  0.50000000  1
  P  P18  1  0.72588541  0.09251301  0.50000000  1
  P  P19  1  0.21318227  0.42636454  0.00000000  1
  P  P20  1  0.90748699  0.63337240  0.50000000  1
  P  P21  1  0.03597734  0.42776952  0.00000000  1
  P  P22  1  0.57223048  0.60820783  0.00000000  1
  P  P23  1  0.90296397  0.80592793  0.50000000  1
  P  P24  1  0.57223048  0.96402266  0.00000000  1
  P  P25  1  0.90748699  0.27411459  0.50000000  1
  P  P26  1  0.54439385  0.08878771  0.50000000  1
  P  P27  1  0.39273657  0.78547314  0.00000000  1
  P  P28  1  0.74875705  0.78550050  0.00000000  1
  P  P29  1  0.74875705  0.96325655  0.00000000  1
  P  P30  1  0.21449950  0.96325655  0.00000000  1
  P  P31  1  0.03674345  0.78550050  0.00000000  1
  P  P32  1  0.57363546  0.78681773  0.00000000  1
loop_
_geom_bond_atom_site_label_1
_geom_bond_atom_site_label_2
_geom_bond_distance
_geom_bond_site_symmetry_2
Ce0 Ni22 3.006885 1_556
Ce0 Ni22 3.006885 1_555
Ce0 Ni28 3.006886 1_555
Ce0 Ni28 3.006886 1_556
Ce0 P32 3.013048 1_555
Ce0 P32 3.013048 1_556
Ce0 P27 3.023843 1_556
Ce0 P27 3.023843 1_555
Ce0 P6 3.023843 1_556
Ce0 P6 3.023843 1_555
Ce0 Ni18 3.040322 1_556
Ce0 Ni18 3.040322 1_555
Ce1 P9 2.966148 1_555
Ce1 P9 2.966148 1_556
Ce1 P21 2.994999 1_555
Ce1 P21 2.994999 1_556
Ce1 Ni39 3.017095 1_555
Ce1 Ni39 3.017095 1_556
Ce1 P19 3.021086 1_555
Ce1 P19 3.021086 1_556
Ce1 Ni45 3.030189 1_556
Ce1 Ni45 3.030189 1_555
Ce1 Ni5 3.065492 1_455
Ce1 Ni11 3.069363 1_455
Ce1 Ni11 3.069363 1_456
Ce1 Ni7 3.088937 1_455
Ce2 P14 2.962199 1_554
Ce2 P14 2.962199 1_555
Ce2 Ni36 2.975925 1_555
Ce2 Ni36 2.975925 1_554
Ce2 P0 3.015991 1_554
Ce2 P0 3.015991 1_555
Ce2 P1 3.019192 1_554
Ce2 P1 3.019192 1_555
Ce2 Ni2 3.044170 1_555
Ce2 Ni2 3.044170 1_554
Ce2 Ni14 3.057936 1_555
Ce2 Ni3 3.085675 1_555
Ce2 Ni23 3.131517 1_555
Ce2 Ni23 3.131517 1_554
Ce3 P29 2.966148 1_555
Ce3 P29 2.966148 1_556
Ce3 P24 2.994999 1_555
Ce3 P24 2.994999 1_556
Ce3 Ni22 3.017095 1_556
Ce3 Ni22 3.017095 1_555
Ce3 P32 3.021086 1_555
Ce3 P32 3.021086 1_556
Ce3 Ni44 3.030189 1_556
Ce3 Ni44 3.030189 1_555
Ce3 Ni8 3.065492 1_565
Ce3 Ni20 3.069363 1_565
Ce3 Ni20 3.069363 1_566
Ce3 Ni35 3.088937 1_565
Ce4 Ni19 3.006885 1_556
Ce4 Ni19 3.006885 1_555
Ce4 Ni9 3.006885 1_556
Ce4 Ni9 3.006885 1_555
Ce4 P10 3.013048 1_555
Ce4 P10 3.013048 1_556
Ce4 P13 3.023843 1_556
Ce4 P13 3.023843 1_555
Ce4 P27 3.023843 1_556
Ce4 P27 3.023843 1_555
Ce4 Ni18 3.040308 1_555
Ce4 Ni18 3.040308 1_556
Ce5 P7 2.962199 1_555
Ce5 P7 2.962199 1_554
Ce5 Ni38 2.975925 1_555
Ce5 Ni38 2.975925 1_554
Ce5 P17 3.015991 1_554
Ce5 P17 3.015991 1_555
Ce5 P26 3.019192 1_554
Ce5 P26 3.019192 1_555
Ce5 Ni24 3.044170 1_555
Ce5 Ni24 3.044170 1_554
Ce5 Ni6 3.057936 1_555
Ce5 Ni33 3.085675 1_555
Ce5 Ni26 3.131517 1_554
Ce5 Ni26 3.131517 1_555
Ce6 Ni39 3.006885 1_556
Ce6 Ni39 3.006885 1_555
Ce6 Ni42 3.006886 1_555
Ce6 Ni42 3.006886 1_556
Ce6 P19 3.013048 1_556
Ce6 P19 3.013048 1_555
Ce6 P13 3.023843 1_556
Ce6 P13 3.023843 1_555
Ce6 P6 3.023843 1_556
Ce6 P6 3.023843 1_555
Ce6 Ni18 3.040322 1_555
Ce6 Ni18 3.040322 1_556
Ce7 P14 2.962199 1_554
Ce7 P14 2.962199 1_555
Ce7 Ni41 2.975925 1_554
Ce7 Ni41 2.975925 1_555
Ce7 P20 3.015991 1_554
Ce7 P20 3.015991 1_555
Ce7 P12 3.019192 1_555
Ce7 P12 3.019192 1_554
Ce7 Ni1 3.044170 1_554
Ce7 Ni1 3.044170 1_555
Ce7 Ni4 3.057936 1_555
Ce7 Ni37 3.085675 1_555
Ce7 Ni23 3.131517 1_555
Ce7 Ni23 3.131517 1_554
Ce8 P30 2.966148 1_555
Ce8 P30 2.966148 1_556
Ce8 P8 2.994999 1_555
Ce8 P8 2.994999 1_556
Ce8 Ni19 3.017095 1_556
Ce8 Ni19 3.017095 1_555
Ce8 P10 3.021086 1_555
Ce8 P10 3.021086 1_556
Ce8 Ni0 3.030189 1_555
Ce8 Ni0 3.030189 1_556
Ce8 Ni24 3.065493 1_565
Ce8 Ni6 3.069363 1_565
Ce8 Ni6 3.069363 1_566
Ce8 Ni12 3.088937 1_565
Ce9 P4 3.011433 1_555
Ce9 P4 3.011433 1_556
Ce9 P22 3.011433 1_556
Ce9 P22 3.011433 1_555
Ce9 Ni28 3.030348 1_555
Ce9 Ni28 3.030348 1_556
Ce9 Ni42 3.030348 1_555
Ce9 Ni42 3.030348 1_556
Ce9 Ni3 3.033074 1_555
Ce9 Ni3 3.033074 1_556
Ce9 P6 3.036192 1_556
Ce9 P6 3.036192 1_555
Ce9 Ni40 3.100753 1_555
Ce9 Ni2 3.100753 1_555
Ce10 P16 2.962199 1_555
Ce10 P16 2.962199 1_554
Ce10 Ni41 2.975925 1_554
Ce10 Ni41 2.975925 1_555
Ce10 P25 3.015991 1_554
Ce10 P25 3.015991 1_555
Ce10 P12 3.019192 1_555
Ce10 P12 3.019192 1_554
Ce10 Ni5 3.044170 1_555
Ce10 Ni5 3.044170 1_554
Ce10 Ni11 3.057936 1_555
Ce10 Ni37 3.085675 1_555
Ce10 Ni29 3.131517 1_554
Ce10 Ni29 3.131517 1_555
Ce11 P7 2.962199 1_555
Ce11 P7 2.962199 1_554
Ce11 Ni36 2.975925 1_554
Ce11 Ni36 2.975925 1_555
Ce11 P5 3.015991 1_555
Ce11 P5 3.015991 1_554
Ce11 P1 3.019192 1_555
Ce11 P1 3.019192 1_554
Ce11 Ni40 3.044170 1_554
Ce11 Ni40 3.044170 1_555
Ce11 Ni25 3.057936 1_555
Ce11 Ni3 3.085675 1_555
Ce11 Ni26 3.131517 1_554
Ce11 Ni26 3.131517 1_555
Ce12 P2 2.966148 1_556
Ce12 P2 2.966148 1_555
Ce12 P4 2.994999 1_555
Ce12 P4 2.994999 1_556
Ce12 Ni42 3.017095 1_555
Ce12 Ni42 3.017095 1_556
Ce12 P19 3.021085 1_556
Ce12 P19 3.021085 1_555
Ce12 Ni45 3.030189 1_555
Ce12 Ni45 3.030189 1_556
Ce12 Ni40 3.065493 1_555
Ce12 Ni25 3.069363 1_556
Ce12 Ni25 3.069363 1_555
Ce12 Ni47 3.088937 1_555
Ce13 Ni31 2.884767 1_556
Ce13 Ni31 2.884767 1_555
Ce13 Ni48 3.029698 1_566
Ce13 Ni48 3.029698 1_565
Ce13 Ni21 3.029698 1_555
Ce13 Ni21 3.029698 1_556
Ce13 Ni32 3.044217 1_565
Ce13 Ni30 3.044217 1_555
Ce13 P28 3.077553 1_555
Ce13 P28 3.077553 1_556
Ce13 P29 3.077553 1_555
Ce13 P29 3.077553 1_556
Ce13 Ni44 3.090800 1_555
Ce13 Ni44 3.090800 1_556
Ce13 Ni34 3.126937 1_555
Ce13 Ni35 3.126937 1_565
Ce14 Ni29 2.875869 1_555
Ce14 Ni29 2.875869 1_554
Ce14 P11 2.937521 1_555
Ce14 P11 2.937521 1_554
Ce14 Ni48 3.016949 1_555
Ce14 Ni15 3.016949 1_555
Ce14 P25 3.025674 1_555
Ce14 P25 3.025674 1_554
Ce14 P18 3.025674 1_555
Ce14 P18 3.025674 1_554
Ce14 Ni35 3.090916 1_554
Ce14 Ni35 3.090916 1_555
Ce14 Ni7 3.090916 1_555
Ce14 Ni7 3.090916 1_554
Ce14 Ni11 3.118575 1_555
Ce14 Ni20 3.118575 1_555
Ce15 P16 2.962199 1_555
Ce15 P16 2.962199 1_554
Ce15 Ni38 2.975925 1_554
Ce15 Ni38 2.975925 1_555
Ce15 P18 3.015991 1_555
Ce15 P18 3.015991 1_554
Ce15 P26 3.019192 1_554
Ce15 P26 3.019192 1_555
Ce15 Ni8 3.044170 1_555
Ce15 Ni8 3.044170 1_554
Ce15 Ni20 3.057936 1_555
Ce15 Ni33 3.085675 1_555
Ce15 Ni29 3.131517 1_554
Ce15 Ni29 3.131517 1_555
Ce16 Ni13 2.884767 1_555
Ce16 Ni13 2.884767 1_556
Ce16 Ni15 3.029698 1_455
Ce16 Ni15 3.029698 1_456
Ce16 Ni16 3.029698 1_556
Ce16 Ni16 3.029698 1_555
Ce16 Ni32 3.044217 1_455
Ce16 Ni46 3.044217 1_555
Ce16 P2 3.077553 1_556
Ce16 P2 3.077553 1_555
Ce16 P9 3.077553 1_556
Ce16 P9 3.077553 1_555
Ce16 Ni45 3.090800 1_556
Ce16 Ni45 3.090800 1_555
Ce16 Ni47 3.126937 1_555
Ce16 Ni7 3.126937 1_455
Ce17 P24 3.011433 1_556
Ce17 P24 3.011433 1_555
Ce17 P8 3.011433 1_555
Ce17 P8 3.011433 1_556
Ce17 Ni19 3.030348 1_556
Ce17 Ni19 3.030348 1_555
Ce17 Ni22 3.030348 1_556
Ce17 Ni22 3.030348 1_555
Ce17 Ni33 3.033074 1_565
Ce17 Ni33 3.033074 1_566
Ce17 P27 3.036192 1_556
Ce17 P27 3.036192 1_555
Ce17 Ni8 3.100753 1_565
Ce17 Ni24 3.100753 1_565
Ce18 Ni38 2.462736 1_555
Ce18 Ni41 2.462736 1_555
Ce18 Ni36 2.462756 1_555
Ce18 P16 2.642738 1_555
Ce18 P14 2.642757 1_555
Ce18 P7 2.642757 1_555
Ce19 P31 2.966148 1_556
Ce19 P31 2.966148 1_555
Ce19 P3 2.994999 1_555
Ce19 P3 2.994999 1_556
Ce19 Ni9 3.017095 1_555
Ce19 Ni9 3.017095 1_556
Ce19 P10 3.021086 1_555
Ce19 P10 3.021086 1_556
Ce19 Ni0 3.030189 1_555
Ce19 Ni0 3.030189 1_556
Ce19 Ni1 3.065493 1_455
Ce19 Ni4 3.069363 1_456
Ce19 Ni4 3.069363 1_455
Ce19 Ni43 3.088937 1_455
Ce20 P21 3.011433 1_555
Ce20 P21 3.011433 1_556
Ce20 P3 3.011433 1_555
Ce20 P3 3.011433 1_556
Ce20 Ni9 3.030348 1_556
Ce20 Ni9 3.030348 1_555
Ce20 Ni39 3.030348 1_556
Ce20 Ni39 3.030348 1_555
Ce20 Ni37 3.033074 1_456
Ce20 Ni37 3.033074 1_455
Ce20 P13 3.036192 1_556
Ce20 P13 3.036192 1_555
Ce20 Ni5 3.100753 1_455
Ce20 Ni1 3.100753 1_455
Ce21 Ni23 2.875868 1_555
Ce21 Ni23 2.875868 1_554
Ce21 P23 2.937521 1_555
Ce21 P23 2.937521 1_554
Ce21 Ni27 3.016949 1_555
Ce21 Ni21 3.016949 1_555
Ce21 P20 3.025674 1_555
Ce21 P20 3.025674 1_554
Ce21 P0 3.025674 1_554
Ce21 P0 3.025674 1_555
Ce21 Ni43 3.090916 1_554
Ce21 Ni43 3.090916 1_555
Ce21 Ni34 3.090916 1_554
Ce21 Ni34 3.090916 1_555
Ce21 Ni4 3.118575 1_555
Ce21 Ni14 3.118575 1_555
Ce22 Ni10 2.884767 1_556
Ce22 Ni10 2.884767 1_555
Ce22 Ni17 3.029698 1_565
Ce22 Ni17 3.029698 1_566
Ce22 Ni27 3.029698 1_455
Ce22 Ni27 3.029698 1_456
Ce22 Ni46 3.044217 1_565
Ce22 Ni30 3.044217 1_455
Ce22 P31 3.077553 1_555
Ce22 P31 3.077553 1_556
Ce22 P30 3.077553 1_555
Ce22 P30 3.077553 1_556
Ce22 Ni0 3.090800 1_555
Ce22 Ni0 3.090800 1_556
Ce22 Ni43 3.126937 1_455
Ce22 Ni12 3.126937 1_565
Ce23 Ni26 2.875868 1_554
Ce23 Ni26 2.875868 1_555
Ce23 P15 2.937521 1_554
Ce23 P15 2.937521 1_555
Ce23 Ni17 3.016949 1_555
Ce23 Ni16 3.016949 1_555
Ce23 P17 3.025674 1_555
Ce23 P17 3.025674 1_554
Ce23 P5 3.025674 1_554
Ce23 P5 3.025674 1_555
Ce23 Ni12 3.090916 1_555
Ce23 Ni12 3.090916 1_554
Ce23 Ni47 3.090916 1_554
Ce23 Ni47 3.090916 1_555
Ce23 Ni6 3.118575 1_555
Ce23 Ni25 3.118575 1_555
Ce24 P28 2.966148 1_556
Ce24 P28 2.966148 1_555
Ce24 P22 2.994999 1_556
Ce24 P22 2.994999 1_555
Ce24 Ni28 3.017095 1_555
Ce24 Ni28 3.017095 1_556
Ce24 P32 3.021085 1_555
Ce24 P32 3.021085 1_556
Ce24 Ni44 3.030189 1_555
Ce24 Ni44 3.030189 1_556
Ce24 Ni2 3.065493 1_555
Ce24 Ni14 3.069363 1_555
Ce24 Ni14 3.069363 1_556
Ce24 Ni34 3.088937 1_555
Ni0 P30 2.245138 1_555
Ni0 P31 2.245138 1_555
Ni0 P10 2.298650 1_555
Ni1 P3 2.317101 1_656
Ni1 P3 2.317101 1_655
Ni1 P20 2.323138 1_555
Ni1 P12 2.324178 1_555
Ni2 P22 2.317101 1_556
Ni2 P22 2.317101 1_555
Ni2 P0 2.323138 1_555
Ni2 P1 2.324178 1_555
Ni3 P1 2.288829 1_554
Ni3 P1 2.288829 1_555
Ni3 P22 2.340025 1_555
Ni3 P4 2.340025 1_555
Ni4 P20 2.298518 1_555
Ni4 P20 2.298518 1_554
Ni4 P31 2.338776 1_655
Ni4 P3 2.339040 1_655
Ni5 P21 2.317101 1_655
Ni5 P21 2.317101 1_656
Ni5 P25 2.323137 1_555
Ni5 P12 2.324178 1_555
Ni6 P17 2.298518 1_554
Ni6 P17 2.298518 1_555
Ni6 P30 2.338776 1_545
Ni6 P8 2.339040 1_545
Ni7 P11 2.300357 1_555
Ni7 P25 2.323987 1_555
Ni7 P9 2.333963 1_655
Ni7 P9 2.333963 1_656
Ni8 P24 2.317101 1_546
Ni8 P24 2.317101 1_545
Ni8 P18 2.323138 1_555
Ni8 P26 2.324178 1_555
Ni9 P3 2.269944 1_555
Ni9 P10 2.299514 1_555
Ni9 P13 2.318397 1_555
Ni10 Ni13 2.400510 1_565
Ni10 Ni31 2.400510 1_455
Ni10 Ni46 2.450500 1_565
Ni10 Ni46 2.450500 1_564
Ni10 Ni30 2.450500 1_454
Ni10 Ni30 2.450500 1_455
Ni10 Ni27 2.462869 1_455
Ni10 Ni17 2.462869 1_565
Ni11 P25 2.298518 1_555
Ni11 P25 2.298518 1_554
Ni11 P9 2.338777 1_655
Ni11 P21 2.339040 1_655
Ni12 P15 2.300357 1_555
Ni12 P17 2.323987 1_555
Ni12 P30 2.333963 1_546
Ni12 P30 2.333963 1_545
Ni13 Ni31 2.400510 1_445
Ni13 Ni32 2.450500 1_454
Ni13 Ni32 2.450500 1_455
Ni13 Ni46 2.450500 1_555
Ni13 Ni46 2.450500 1_554
Ni13 Ni16 2.462869 1_555
Ni13 Ni15 2.462869 1_455
Ni14 P0 2.298518 1_554
Ni14 P0 2.298518 1_555
Ni14 P28 2.338776 1_555
Ni14 P22 2.339040 1_555
Ni15 P9 2.224953 1_655
Ni15 P11 2.362692 1_554
Ni15 P11 2.362692 1_555
Ni16 P2 2.224953 1_555
Ni16 P15 2.362692 1_554
Ni16 P15 2.362692 1_555
Ni17 P30 2.224953 1_545
Ni17 P15 2.362692 1_554
Ni17 P15 2.362692 1_555
Ni18 P27 2.285131 1_555
Ni18 P13 2.285131 1_555
Ni18 P6 2.285150 1_555
Ni19 P8 2.269944 1_555
Ni19 P10 2.299514 1_555
Ni19 P27 2.318397 1_555
Ni20 P18 2.298518 1_555
Ni20 P18 2.298518 1_554
Ni20 P29 2.338777 1_545
Ni20 P24 2.339040 1_545
Ni21 P28 2.224953 1_555
Ni21 P23 2.362692 1_555
Ni21 P23 2.362692 1_554
Ni21 Ni31 2.462869 1_555
Ni22 P24 2.269944 1_555
Ni22 P32 2.299514 1_555
Ni22 P27 2.318397 1_555
Ni23 P14 2.144568 1_555
Ni23 P20 2.243767 1_555
Ni23 P0 2.243767 1_555
Ni24 P8 2.317101 1_545
Ni24 P8 2.317101 1_546
Ni24 P17 2.323138 1_555
Ni24 P26 2.324178 1_555
Ni25 P5 2.298518 1_555
Ni25 P5 2.298518 1_554
Ni25 P2 2.338776 1_555
Ni25 P4 2.339040 1_555
Ni26 P7 2.144568 1_555
Ni26 P17 2.243767 1_555
Ni26 P5 2.243767 1_555
Ni27 P31 2.224953 1_655
Ni27 P23 2.362692 1_555
Ni27 P23 2.362692 1_554
Ni28 P22 2.269943 1_555
Ni28 P32 2.299514 1_555
Ni28 P6 2.318397 1_555
Ni29 P16 2.144568 1_555
Ni29 P18 2.243767 1_555
Ni29 P25 2.243767 1_555
Ni30 P23 2.177061 1_555
Ni30 Ni31 2.450500 1_556
Ni30 Ni31 2.450500 1_555
Ni31 Ni32 2.450500 1_564
Ni31 Ni32 2.450500 1_565
Ni31 Ni48 2.462869 1_565
Ni32 P11 2.177061 1_555
Ni33 P26 2.288829 1_554
Ni33 P26 2.288829 1_555
Ni33 P24 2.340024 1_545
Ni33 P8 2.340025 1_545
Ni34 P23 2.300357 1_555
Ni34 P0 2.323987 1_555
Ni34 P28 2.333963 1_555
Ni34 P28 2.333963 1_556
Ni35 P11 2.300357 1_555
Ni35 P18 2.323987 1_555
Ni35 P29 2.333963 1_546
Ni35 P29 2.333963 1_545
Ni36 P1 2.240876 1_555
Ni36 P7 2.557502 1_555
Ni36 P14 2.557502 1_555
Ni37 P12 2.288829 1_555
Ni37 P12 2.288829 1_554
Ni37 P21 2.340024 1_655
Ni37 P3 2.340025 1_655
Ni38 P26 2.240875 1_555
Ni38 P16 2.557502 1_555
Ni38 P7 2.557502 1_555
Ni39 P21 2.269944 1_555
Ni39 P19 2.299514 1_555
Ni39 P13 2.318397 1_555
Ni40 P4 2.317101 1_555
Ni40 P4 2.317101 1_556
Ni40 P5 2.323137 1_555
Ni40 P1 2.324178 1_555
Ni41 P12 2.240875 1_555
Ni41 P16 2.557502 1_555
Ni41 P14 2.557502 1_555
Ni42 P4 2.269943 1_555
Ni42 P19 2.299514 1_555
Ni42 P6 2.318397 1_555
Ni43 P23 2.300357 1_555
Ni43 P20 2.323987 1_555
Ni43 P31 2.333963 1_655
Ni43 P31 2.333963 1_656
Ni44 P28 2.245138 1_555
Ni44 P29 2.245138 1_555
Ni44 P32 2.298650 1_555
Ni45 P2 2.245138 1_555
Ni45 P9 2.245138 1_555
Ni45 P19 2.298650 1_555
Ni46 P15 2.177061 1_555
Ni47 P15 2.300357 1_555
Ni47 P5 2.323987 1_555
Ni47 P2 2.333963 1_556
Ni47 P2 2.333963 1_555
Ni48 P29 2.224953 1_545
Ni48 P11 2.362692 1_554
Ni48 P11 2.362692 1_555
