# generated using pymatgen
data_Cu6AgBi12PbS22
_symmetry_space_group_name_H-M   'P 1'
_cell_length_a   3.99412500
_cell_length_b   17.83886800
_cell_length_c   28.75339579
_cell_angle_alpha   74.38351049
_cell_angle_beta   90.00000000
_cell_angle_gamma   90.00000000
_symmetry_Int_Tables_number   1
_chemical_formula_structural   Cu6AgBi12PbS22
_chemical_formula_sum   'Cu12 Ag2 Bi24 Pb2 S44'
_cell_volume   1973.07123625
_cell_formula_units_Z   2
loop_
 _symmetry_equiv_pos_site_id
 _symmetry_equiv_pos_as_xyz
  1  'x, y, z'
loop_
 _atom_site_type_symbol
 _atom_site_label
 _atom_site_symmetry_multiplicity
 _atom_site_fract_x
 _atom_site_fract_y
 _atom_site_fract_z
 _atom_site_occupancy
  Cu  Cu0  1  0.25000000  0.87659800  0.69393100  1
  Cu  Cu1  1  0.25000000  0.65790100  0.49426200  1
  Cu  Cu2  1  0.75000000  0.34209900  0.50573800  1
  Cu  Cu3  1  0.25000000  0.83655900  0.51044600  1
  Cu  Cu4  1  0.75000000  0.77914400  0.25186300  1
  Cu  Cu5  1  0.75000000  0.16344100  0.48955400  1
  Cu  Cu6  1  0.25000000  0.69010300  0.06427500  1
  Cu  Cu7  1  0.75000000  0.36787700  0.69561900  1
  Cu  Cu8  1  0.25000000  0.63212300  0.30438100  1
  Cu  Cu9  1  0.75000000  0.12340200  0.30606900  1
  Cu  Cu10  1  0.25000000  0.22085600  0.74813700  1
  Cu  Cu11  1  0.75000000  0.30989700  0.93572500  1
  Ag  Ag0  1  0.75000000  0.41008100  0.00061400  1
  Ag  Ag1  1  0.25000000  0.58991900  0.99938600  1
  Bi  Bi0  1  0.25000000  0.90333200  0.13472300  1
  Bi  Bi1  1  0.75000000  0.89624400  0.00444900  1
  Bi  Bi2  1  0.75000000  0.09666800  0.86527700  1
  Bi  Bi3  1  0.75000000  0.72736200  0.62072000  1
  Bi  Bi4  1  0.25000000  0.10375600  0.99555100  1
  Bi  Bi5  1  0.25000000  0.52023900  0.87488500  1
  Bi  Bi6  1  0.25000000  0.22960400  0.61850200  1
  Bi  Bi7  1  0.25000000  0.88384200  0.81612700  1
  Bi  Bi8  1  0.25000000  0.28066900  0.08341300  1
  Bi  Bi9  1  0.25000000  0.54025900  0.71978200  1
  Bi  Bi10  1  0.25000000  0.29250200  0.22818000  1
  Bi  Bi11  1  0.75000000  0.45974100  0.28021800  1
  Bi  Bi12  1  0.75000000  0.05635600  0.71733500  1
  Bi  Bi13  1  0.75000000  0.51695200  0.42996100  1
  Bi  Bi14  1  0.75000000  0.47976100  0.12511500  1
  Bi  Bi15  1  0.75000000  0.98602100  0.56874800  1
  Bi  Bi16  1  0.25000000  0.01397900  0.43125200  1
  Bi  Bi17  1  0.25000000  0.27263800  0.37928000  1
  Bi  Bi18  1  0.75000000  0.11615800  0.18387300  1
  Bi  Bi19  1  0.75000000  0.71933100  0.91658700  1
  Bi  Bi20  1  0.75000000  0.70749800  0.77182000  1
  Bi  Bi21  1  0.75000000  0.77039600  0.38149800  1
  Bi  Bi22  1  0.25000000  0.94364400  0.28266500  1
  Bi  Bi23  1  0.25000000  0.48304800  0.57003900  1
  Pb  Pb0  1  0.25000000  0.65816500  0.18071300  1
  Pb  Pb1  1  0.75000000  0.34183500  0.81928700  1
  S  S0  1  0.25000000  0.79225900  0.29150800  1
  S  S1  1  0.75000000  0.53746400  0.93922800  1
  S  S2  1  0.25000000  0.07503700  0.64799800  1
  S  S3  1  0.25000000  0.36514300  0.89876000  1
  S  S4  1  0.75000000  0.17754400  0.93381900  1
  S  S5  1  0.75000000  0.90931200  0.50254000  1
  S  S6  1  0.25000000  0.12267900  0.11807400  1
  S  S7  1  0.75000000  0.21743600  0.55815700  1
  S  S8  1  0.25000000  0.12970800  0.26230300  1
  S  S9  1  0.25000000  0.70462800  0.84420500  1
  S  S10  1  0.75000000  0.11032700  0.38545400  1
  S  S11  1  0.75000000  0.92496300  0.35200200  1
  S  S12  1  0.75000000  0.99464500  0.05750000  1
  S  S13  1  0.25000000  0.09068800  0.49746000  1
  S  S14  1  0.25000000  0.70733400  0.70539400  1
  S  S15  1  0.75000000  0.62046600  0.26557900  1
  S  S16  1  0.25000000  0.82245600  0.06618100  1
  S  S17  1  0.25000000  0.88967300  0.61454600  1
  S  S18  1  0.75000000  0.26615000  0.02123800  1
  S  S19  1  0.75000000  0.79666300  0.17145400  1
  S  S20  1  0.25000000  0.03717900  0.79391000  1
  S  S21  1  0.75000000  0.57140600  0.65034900  1
  S  S22  1  0.75000000  0.96282100  0.20609000  1
  S  S23  1  0.75000000  0.29537200  0.15579500  1
  S  S24  1  0.25000000  0.20333700  0.82854600  1
  S  S25  1  0.25000000  0.73385000  0.97876200  1
  S  S26  1  0.75000000  0.29266600  0.29460600  1
  S  S27  1  0.75000000  0.52867200  0.79755200  1
  S  S28  1  0.75000000  0.87029200  0.73769700  1
  S  S29  1  0.25000000  0.61418800  0.38496200  1
  S  S30  1  0.75000000  0.38581200  0.61503800  1
  S  S31  1  0.75000000  0.63485700  0.10124000  1
  S  S32  1  0.25000000  0.46253600  0.06077200  1
  S  S33  1  0.25000000  0.37953400  0.73442100  1
  S  S34  1  0.25000000  0.78256400  0.44184300  1
  S  S35  1  0.75000000  0.87732100  0.88192600  1
  S  S36  1  0.75000000  0.28662300  0.43834500  1
  S  S37  1  0.25000000  0.42859400  0.34965100  1
  S  S38  1  0.25000000  0.41236900  0.50063200  1
  S  S39  1  0.75000000  0.58763100  0.49936800  1
  S  S40  1  0.25000000  0.00535500  0.94250000  1
  S  S41  1  0.25000000  0.47132800  0.20244800  1
  S  S42  1  0.75000000  0.20774100  0.70849200  1
  S  S43  1  0.25000000  0.71337700  0.56165500  1
loop_
_geom_bond_atom_site_label_1
_geom_bond_atom_site_label_2
_geom_bond_distance
_geom_bond_site_symmetry_2
Cu0 S17 2.231137 1_555
Cu0 S28 2.346981 1_455
Cu0 S28 2.346981 1_555
Cu0 S14 2.947891 1_555
Cu1 S34 2.326502 1_555
Cu1 S39 2.341385 1_555
Cu1 S39 2.341385 1_455
Cu1 S43 2.401420 1_555
Cu2 S7 2.326502 1_555
Cu2 S38 2.341385 1_555
Cu2 S38 2.341385 1_655
Cu2 S36 2.401420 1_555
Cu3 S43 2.292321 1_555
Cu3 S5 2.359123 1_555
Cu3 S5 2.359123 1_455
Cu3 S34 2.416971 1_555
Cu4 S19 2.248142 1_555
Cu4 S0 2.342225 1_555
Cu4 S0 2.342225 1_655
Cu4 S15 2.750818 1_555
Cu5 S36 2.292321 1_555
Cu5 S13 2.359123 1_655
Cu5 S13 2.359123 1_555
Cu5 S7 2.416971 1_555
Cu6 S31 2.350585 1_455
Cu6 S31 2.350585 1_555
Cu6 S25 2.370986 1_554
Cu6 S16 2.376367 1_555
Cu6 Pb0 3.241396 1_555
Cu7 S30 2.252030 1_555
Cu7 S33 2.324042 1_655
Cu7 S33 2.324042 1_555
Cu7 S42 2.779954 1_555
Cu8 S29 2.252030 1_555
Cu8 S15 2.324042 1_555
Cu8 S15 2.324042 1_455
Cu8 S0 2.779954 1_555
Cu9 S10 2.231137 1_555
Cu9 S8 2.346981 1_555
Cu9 S8 2.346981 1_655
Cu9 S26 2.947891 1_555
Cu10 S24 2.248142 1_555
Cu10 S42 2.342225 1_555
Cu10 S42 2.342225 1_455
Cu10 S33 2.750818 1_555
Cu11 S3 2.350585 1_555
Cu11 S3 2.350585 1_655
Cu11 S18 2.370986 1_556
Cu11 S4 2.376367 1_555
Cu11 Pb1 3.241396 1_555
Ag0 S1 2.473795 1_554
Ag0 S18 2.474733 1_555
Ag0 S32 2.954205 1_555
Ag0 S32 2.954205 1_655
Ag1 S32 2.473795 1_556
Ag1 S25 2.474733 1_555
Ag1 S1 2.954205 1_555
Ag1 S1 2.954205 1_455
Bi0 S16 2.737965 1_555
Bi0 S19 2.764515 1_555
Bi0 S19 2.764515 1_455
Bi0 S12 3.102355 1_555
Bi0 S12 3.102355 1_455
Bi0 S22 3.240025 1_555
Bi0 S22 3.240025 1_455
Bi1 S12 2.617202 1_555
Bi1 S16 2.759277 1_555
Bi1 S16 2.759277 1_655
Bi1 S40 3.013800 1_564
Bi1 S40 3.013800 1_664
Bi2 S4 2.737965 1_555
Bi2 S24 2.764515 1_655
Bi2 S24 2.764515 1_555
Bi2 S40 3.102355 1_655
Bi2 S40 3.102355 1_555
Bi2 S20 3.240025 1_555
Bi2 S20 3.240025 1_655
Bi3 S43 2.676359 1_555
Bi3 S43 2.676359 1_655
Bi3 S21 2.681358 1_555
Bi3 S14 3.094378 1_655
Bi3 S14 3.094378 1_555
Bi4 S40 2.617202 1_555
Bi4 S4 2.759277 1_555
Bi4 S4 2.759277 1_455
Bi4 S12 3.013800 1_446
Bi4 S12 3.013800 1_546
Bi5 S3 2.665241 1_555
Bi5 S1 2.794913 1_455
Bi5 S1 2.794913 1_555
Bi5 S27 2.962285 1_555
Bi5 S27 2.962285 1_455
Bi5 S9 3.167869 1_555
Bi6 S2 2.657624 1_555
Bi6 S7 2.692361 1_455
Bi6 S7 2.692361 1_555
Bi6 S42 3.208160 1_455
Bi6 S42 3.208160 1_555
Bi7 S20 2.636188 1_565
Bi7 S35 2.731804 1_455
Bi7 S35 2.731804 1_555
Bi7 S28 3.070142 1_555
Bi7 S28 3.070142 1_455
Bi7 S9 3.079420 1_555
Bi8 S6 2.724731 1_555
Bi8 S18 2.738733 1_455
Bi8 S18 2.738733 1_555
Bi8 S23 2.946601 1_555
Bi8 S23 2.946601 1_455
Bi8 S32 3.132440 1_555
Bi9 S21 2.772274 1_455
Bi9 S21 2.772274 1_555
Bi9 S33 2.783519 1_555
Bi9 S14 2.896594 1_555
Bi9 S27 2.963529 1_555
Bi9 S27 2.963529 1_455
Bi10 S26 2.763923 1_455
Bi10 S26 2.763923 1_555
Bi10 S8 2.803956 1_555
Bi10 S23 2.874957 1_455
Bi10 S23 2.874957 1_555
Bi10 S41 3.074592 1_555
Bi11 S37 2.772274 1_555
Bi11 S37 2.772274 1_655
Bi11 S15 2.783519 1_555
Bi11 S26 2.896594 1_555
Bi11 S41 2.963529 1_555
Bi11 S41 2.963529 1_655
Bi12 S42 2.643456 1_555
Bi12 S2 2.777831 1_555
Bi12 S2 2.777831 1_655
Bi12 S20 2.923635 1_655
Bi12 S20 2.923635 1_555
Bi12 S28 3.211451 1_545
Bi13 S39 2.631955 1_555
Bi13 S29 2.731813 1_555
Bi13 S29 2.731813 1_655
Bi13 S38 3.091433 1_655
Bi13 S38 3.091433 1_555
Bi14 S31 2.665241 1_555
Bi14 S32 2.794913 1_555
Bi14 S32 2.794913 1_655
Bi14 S41 2.962285 1_555
Bi14 S41 2.962285 1_655
Bi14 S23 3.167869 1_555
Bi15 S5 2.626623 1_555
Bi15 S17 2.730907 1_555
Bi15 S17 2.730907 1_655
Bi15 S13 3.100885 1_565
Bi15 S13 3.100885 1_665
Bi16 S13 2.626623 1_555
Bi16 S10 2.730907 1_455
Bi16 S10 2.730907 1_555
Bi16 S5 3.100885 1_545
Bi16 S5 3.100885 1_445
Bi17 S36 2.676359 1_555
Bi17 S36 2.676359 1_455
Bi17 S37 2.681358 1_555
Bi17 S26 3.094378 1_455
Bi17 S26 3.094378 1_555
Bi18 S22 2.636188 1_545
Bi18 S6 2.731804 1_555
Bi18 S6 2.731804 1_655
Bi18 S8 3.070142 1_555
Bi18 S8 3.070142 1_655
Bi18 S23 3.079420 1_555
Bi19 S35 2.724731 1_555
Bi19 S25 2.738733 1_555
Bi19 S25 2.738733 1_655
Bi19 S9 2.946601 1_555
Bi19 S9 2.946601 1_655
Bi19 S1 3.132440 1_555
Bi20 S14 2.763923 1_555
Bi20 S14 2.763923 1_655
Bi20 S28 2.803956 1_555
Bi20 S9 2.874957 1_555
Bi20 S9 2.874957 1_655
Bi20 S27 3.074592 1_555
Bi21 S11 2.657624 1_555
Bi21 S34 2.692361 1_655
Bi21 S34 2.692361 1_555
Bi21 S0 3.208160 1_555
Bi21 S0 3.208160 1_655
Bi22 S0 2.643456 1_555
Bi22 S11 2.777831 1_555
Bi22 S11 2.777831 1_455
Bi22 S22 2.923635 1_455
Bi22 S22 2.923635 1_555
Bi22 S8 3.211451 1_565
Bi23 S38 2.631955 1_555
Bi23 S30 2.731813 1_455
Bi23 S30 2.731813 1_555
Bi23 S39 3.091433 1_555
Bi23 S39 3.091433 1_455
Pb0 S15 3.084073 1_555
Pb0 S15 3.084073 1_455
Pb0 S19 3.131949 1_555
Pb0 S19 3.131949 1_455
Pb0 S31 3.145544 1_555
Pb0 S31 3.145544 1_455
Pb0 S41 3.221451 1_555
Pb1 S33 3.084073 1_555
Pb1 S33 3.084073 1_655
Pb1 S24 3.131949 1_555
Pb1 S24 3.131949 1_655
Pb1 S3 3.145544 1_555
Pb1 S3 3.145544 1_655
Pb1 S27 3.221451 1_555
