# generated using pymatgen
data_Li11Nb12O36
_symmetry_space_group_name_H-M   'P 1'
_cell_length_a   5.26560800
_cell_length_b   5.58054011
_cell_length_c   26.08784247
_cell_angle_alpha   92.66580577
_cell_angle_beta   89.92000107
_cell_angle_gamma   118.14633676
_symmetry_Int_Tables_number   1
_chemical_formula_structural   Li11Nb12O36
_chemical_formula_sum   'Li11 Nb12 O36'
_cell_volume   675.02186747
_cell_formula_units_Z   1
loop_
 _symmetry_equiv_pos_site_id
 _symmetry_equiv_pos_as_xyz
  1  'x, y, z'
loop_
 _atom_site_type_symbol
 _atom_site_label
 _atom_site_symmetry_multiplicity
 _atom_site_fract_x
 _atom_site_fract_y
 _atom_site_fract_z
 _atom_site_occupancy
  Li  Li0  1  0.37470300  0.75137100  0.95320400  1
  Li  Li1  1  0.70885500  0.41751200  0.78640100  1
  Li  Li2  1  0.97369200  0.94649400  0.87869100  1
  Li  Li3  1  0.04283200  0.08392400  0.61960400  1
  Li  Li4  1  0.30614500  0.61313600  0.71170000  1
  Li  Li5  1  0.37559500  0.74877200  0.45288400  1
  Li  Li6  1  0.63820600  0.27971400  0.54494700  1
  Li  Li7  1  0.97132000  0.94094900  0.37903100  1
  Li  Li8  1  0.96797000  0.93597300  0.12915800  1
  Li  Li9  1  0.30300200  0.60261600  0.21112500  1
  Li  Li10  1  0.63661000  0.27271200  0.04605000  1
  Nb  Nb0  1  0.01048400  0.02464000  0.99893000  1
  Nb  Nb1  1  0.34665500  0.69492400  0.83169200  1
  Nb  Nb2  1  0.67810600  0.35973300  0.91490800  1
  Nb  Nb3  1  0.68072900  0.36238200  0.66468300  1
  Nb  Nb4  1  0.01374700  0.02914000  0.74803100  1
  Nb  Nb5  1  0.01210700  0.02708500  0.49786300  1
  Nb  Nb6  1  0.34743000  0.69468900  0.58112600  1
  Nb  Nb7  1  0.35093200  0.69154100  0.33150800  1
  Nb  Nb8  1  0.68063000  0.35829500  0.41413000  1
  Nb  Nb9  1  0.68310100  0.35073700  0.16660800  1
  Nb  Nb10  1  0.00272300  0.01354600  0.25320200  1
  Nb  Nb11  1  0.34247400  0.67601600  0.08175100  1
  O  O0  1  0.61753800  0.98862000  0.87689800  1
  O  O1  1  0.78221000  0.19394400  0.97932200  1
  O  O2  1  0.24896300  0.11141200  0.93862800  1
  O  O3  1  0.07716000  0.54001500  0.89594900  1
  O  O4  1  0.54395100  0.45842000  0.85518200  1
  O  O5  1  0.95002600  0.65475600  0.71003000  1
  O  O6  1  0.71039100  0.66593100  0.95768900  1
  O  O7  1  0.11467800  0.86054600  0.81262200  1
  O  O8  1  0.58182500  0.77839200  0.77160800  1
  O  O9  1  0.41274900  0.20746500  0.72929600  1
  O  O10  1  0.87782000  0.12539800  0.68815800  1
  O  O11  1  0.28211100  0.32149800  0.54345400  1
  O  O12  1  0.04265700  0.33080700  0.79099600  1
  O  O13  1  0.44761100  0.52707300  0.64600000  1
  O  O14  1  0.91501600  0.44508900  0.60480500  1
  O  O15  1  0.74627600  0.87390700  0.56262300  1
  O  O16  1  0.21279400  0.79398000  0.52153200  1
  O  O17  1  0.61990300  0.99284200  0.37676900  1
  O  O18  1  0.37656900  0.99664800  0.62433900  1
  O  O19  1  0.78031700  0.19495300  0.47925600  1
  O  O20  1  0.24816000  0.11155600  0.43808900  1
  O  O21  1  0.07753300  0.54838300  0.39430700  1
  O  O22  1  0.53587700  0.47441600  0.35900600  1
  O  O23  1  0.95754800  0.66634200  0.20726900  1
  O  O24  1  0.71448800  0.66275300  0.45885100  1
  O  O25  1  0.11947200  0.87229400  0.31272200  1
  O  O26  1  0.57934100  0.79408800  0.26993100  1
  O  O27  1  0.38784300  0.19675900  0.22219000  1
  O  O28  1  0.87048300  0.12817700  0.18899700  1
  O  O29  1  0.29019900  0.33093700  0.04179100  1
  O  O30  1  0.07409700  0.33898200  0.29053400  1
  O  O31  1  0.47027000  0.54956600  0.14501600  1
  O  O32  1  0.91893600  0.46344000  0.10442300  1
  O  O33  1  0.74607900  0.87467200  0.06202500  1
  O  O34  1  0.21446600  0.79791400  0.02238100  1
  O  O35  1  0.38232800  0.00358900  0.12311800  1
loop_
_geom_bond_atom_site_label_1
_geom_bond_atom_site_label_2
_geom_bond_distance
_geom_bond_site_symmetry_2
Li0 O6 2.041163 1_555
Li0 O3 2.043550 1_555
Li0 O34 2.048203 1_556
Li0 O2 2.438605 1_565
Li0 O0 2.447754 1_555
Li0 O1 2.452775 1_565
Li1 O9 2.035718 1_555
Li1 O12 2.036235 1_655
Li1 O4 2.042142 1_555
Li1 O5 2.446850 1_555
Li1 O8 2.448690 1_555
Li1 O7 2.451368 1_655
Li2 O0 1.997915 1_555
Li2 O2 2.001702 1_665
Li2 O7 2.001855 1_655
Li3 O15 2.034581 1_445
Li3 O10 2.038109 1_455
Li3 O18 2.038229 1_545
Li3 O11 2.440035 1_555
Li3 O13 2.450641 1_555
Li3 O14 2.452984 1_455
Li4 O13 1.995154 1_555
Li4 O5 1.996053 1_455
Li4 O8 2.002377 1_555
Li5 O16 2.040463 1_555
Li5 O21 2.059348 1_555
Li5 O24 2.062745 1_555
Li5 O17 2.458522 1_555
Li5 O20 2.460297 1_565
Li5 O19 2.460327 1_565
Li6 O19 1.993876 1_555
Li6 O11 1.996314 1_555
Li6 O14 2.004475 1_555
Li7 O25 1.991064 1_655
Li7 O20 1.991384 1_665
Li7 O17 2.004713 1_555
Li7 O21 2.551211 1_655
Li7 O22 2.559944 1_555
Li8 O33 2.030344 1_555
Li8 O35 2.038506 1_665
Li8 O28 2.052411 1_565
Li8 O31 2.537211 1_555
Li8 O23 2.574200 1_555
Li8 O32 2.576159 1_555
Li9 O26 1.999859 1_555
Li9 O31 2.007997 1_555
Li9 O23 2.014843 1_455
Li9 O27 2.535440 1_555
Li9 O30 2.551936 1_555
Li10 O29 2.002056 1_555
Li10 O32 2.006148 1_555
Li10 O1 2.013553 1_554
Li10 O35 2.542986 1_555
Li10 O34 2.576400 1_545
Nb0 O1 1.928016 1_455
Nb0 O2 1.943660 1_555
Nb0 O29 1.947543 1_556
Nb0 O33 2.090594 1_446
Nb0 O6 2.117016 1_445
Nb0 O34 2.117735 1_546
Nb1 O7 1.924430 1_555
Nb1 O8 1.930190 1_555
Nb1 O0 1.931555 1_555
Nb1 O3 2.131173 1_555
Nb1 O12 2.133955 1_555
Nb1 O4 2.137135 1_555
Nb2 O4 1.918330 1_555
Nb2 O3 1.928995 1_655
Nb2 O6 1.934786 1_555
Nb2 O2 2.128622 1_555
Nb2 O0 2.135597 1_545
Nb2 O1 2.146152 1_555
Nb3 O13 1.922684 1_555
Nb3 O14 1.923424 1_555
Nb3 O5 1.927364 1_555
Nb3 O9 2.134905 1_555
Nb3 O18 2.135270 1_545
Nb3 O10 2.138477 1_555
Nb4 O10 1.919492 1_455
Nb4 O12 1.922690 1_555
Nb4 O9 1.926958 1_555
Nb4 O8 2.140700 1_445
Nb4 O5 2.146463 1_445
Nb4 O7 2.151447 1_545
Nb5 O20 1.925874 1_555
Nb5 O19 1.930165 1_455
Nb5 O11 1.937649 1_555
Nb5 O24 2.105088 1_445
Nb5 O15 2.131464 1_445
Nb5 O16 2.136270 1_545
Nb6 O16 1.918454 1_555
Nb6 O15 1.924676 1_555
Nb6 O18 1.927125 1_555
Nb6 O11 2.134519 1_555
Nb6 O14 2.142447 1_455
Nb6 O13 2.152393 1_555
Nb7 O26 1.945593 1_555
Nb7 O17 1.949497 1_555
Nb7 O25 1.987609 1_555
Nb7 O22 2.031554 1_555
Nb7 O30 2.059455 1_555
Nb7 O21 2.103524 1_555
Nb8 O22 1.903857 1_555
Nb8 O21 1.927936 1_655
Nb8 O24 1.951938 1_555
Nb8 O17 2.100522 1_545
Nb8 O20 2.142466 1_555
Nb8 O19 2.142660 1_555
Nb9 O23 1.935147 1_555
Nb9 O32 1.980369 1_555
Nb9 O31 2.009340 1_555
Nb9 O28 2.020524 1_555
Nb9 O27 2.026636 1_555
Nb9 O35 2.110553 1_555
Nb10 O30 1.892234 1_555
Nb10 O27 1.982039 1_555
Nb10 O25 1.995999 1_545
Nb10 O26 2.032612 1_445
Nb10 O28 2.054943 1_455
Nb10 O23 2.143995 1_445
Nb11 O33 1.958985 1_555
Nb11 O34 1.962010 1_555
Nb11 O35 2.001390 1_565
Nb11 O29 2.045703 1_555
Nb11 O31 2.057717 1_555
Nb11 O32 2.072773 1_455
