# generated using pymatgen
data_MgIr
_symmetry_space_group_name_H-M   'P 1'
_cell_length_a   12.36168125
_cell_length_b   12.36168125
_cell_length_c   16.90591400
_cell_angle_alpha   90.00000000
_cell_angle_beta   90.00000000
_cell_angle_gamma   97.54793865
_symmetry_Int_Tables_number   1
_chemical_formula_structural   MgIr
_chemical_formula_sum   'Mg76 Ir76'
_cell_volume   2561.02790497
_cell_formula_units_Z   76
loop_
 _symmetry_equiv_pos_site_id
 _symmetry_equiv_pos_as_xyz
  1  'x, y, z'
loop_
 _atom_site_type_symbol
 _atom_site_label
 _atom_site_symmetry_multiplicity
 _atom_site_fract_x
 _atom_site_fract_y
 _atom_site_fract_z
 _atom_site_occupancy
  Mg  Mg0  1  0.64171700  0.39164200  0.83045100  1
  Mg  Mg1  1  0.10508500  0.84007200  0.83742700  1
  Mg  Mg2  1  0.62542700  0.16929100  0.40542500  1
  Mg  Mg3  1  0.87457300  0.33070900  0.90542500  1
  Mg  Mg4  1  0.96542300  0.70229200  0.23115000  1
  Mg  Mg5  1  0.54883400  0.54883400  0.93422200  1
  Mg  Mg6  1  0.76234000  0.76234000  0.99737500  1
  Mg  Mg7  1  0.24680100  0.24680100  0.82365200  1
  Mg  Mg8  1  0.45496500  0.20933600  0.06126900  1
  Mg  Mg9  1  0.46542300  0.20229200  0.26885000  1
  Mg  Mg10  1  0.65992800  0.39491500  0.33742700  1
  Mg  Mg11  1  0.83070900  0.37457300  0.59457500  1
  Mg  Mg12  1  0.99728200  0.53920200  0.83504100  1
  Mg  Mg13  1  0.37457300  0.83070900  0.59457500  1
  Mg  Mg14  1  0.53457700  0.79770800  0.73115000  1
  Mg  Mg15  1  0.84007200  0.10508500  0.83742700  1
  Mg  Mg16  1  0.36000200  0.81640600  0.07513500  1
  Mg  Mg17  1  0.13999800  0.68359400  0.57513500  1
  Mg  Mg18  1  0.95116600  0.95116600  0.43422200  1
  Mg  Mg19  1  0.15992800  0.89491500  0.16257300  1
  Mg  Mg20  1  0.60835800  0.35828300  0.16954900  1
  Mg  Mg21  1  0.54503500  0.79066400  0.93873100  1
  Mg  Mg22  1  0.20933600  0.45496500  0.06126900  1
  Mg  Mg23  1  0.12542700  0.66929100  0.09457500  1
  Mg  Mg24  1  0.23766000  0.23766000  0.00262500  1
  Mg  Mg25  1  0.96079800  0.50271800  0.33504100  1
  Mg  Mg26  1  0.50271800  0.96079800  0.33504100  1
  Mg  Mg27  1  0.60508500  0.34007200  0.66257300  1
  Mg  Mg28  1  0.86000200  0.31640600  0.42486500  1
  Mg  Mg29  1  0.43770400  0.43770400  0.56754200  1
  Mg  Mg30  1  0.79066400  0.54503500  0.93873100  1
  Mg  Mg31  1  0.29066400  0.04503500  0.56126900  1
  Mg  Mg32  1  0.70933600  0.95496500  0.43873100  1
  Mg  Mg33  1  0.08514600  0.08514600  0.26532500  1
  Mg  Mg34  1  0.91485400  0.91485400  0.73467500  1
  Mg  Mg35  1  0.68359400  0.13999800  0.57513500  1
  Mg  Mg36  1  0.29770800  0.03457700  0.76885000  1
  Mg  Mg37  1  0.18359400  0.63999800  0.92486500  1
  Mg  Mg38  1  0.56229600  0.56229600  0.43245800  1
  Mg  Mg39  1  0.33070900  0.87457300  0.90542500  1
  Mg  Mg40  1  0.46079800  0.00271800  0.16495900  1
  Mg  Mg41  1  0.95496500  0.70933600  0.43873100  1
  Mg  Mg42  1  0.39491500  0.65992800  0.33742700  1
  Mg  Mg43  1  0.26234000  0.26234000  0.50262500  1
  Mg  Mg44  1  0.89164200  0.14171700  0.66954900  1
  Mg  Mg45  1  0.74680100  0.74680100  0.67634800  1
  Mg  Mg46  1  0.04883400  0.04883400  0.56577800  1
  Mg  Mg47  1  0.45116600  0.45116600  0.06577800  1
  Mg  Mg48  1  0.35828300  0.60835800  0.16954900  1
  Mg  Mg49  1  0.49728200  0.03920200  0.66495900  1
  Mg  Mg50  1  0.81640600  0.36000200  0.07513500  1
  Mg  Mg51  1  0.03920200  0.49728200  0.66495900  1
  Mg  Mg52  1  0.31640600  0.86000200  0.42486500  1
  Mg  Mg53  1  0.79770800  0.53457700  0.73115000  1
  Mg  Mg54  1  0.10835800  0.85828300  0.33045100  1
  Mg  Mg55  1  0.16929100  0.62542700  0.40542500  1
  Mg  Mg56  1  0.75319900  0.75319900  0.17634800  1
  Mg  Mg57  1  0.85828300  0.10835800  0.33045100  1
  Mg  Mg58  1  0.66929100  0.12542700  0.09457500  1
  Mg  Mg59  1  0.53920200  0.99728200  0.83504100  1
  Mg  Mg60  1  0.73766000  0.73766000  0.49737500  1
  Mg  Mg61  1  0.00271800  0.46079800  0.16495900  1
  Mg  Mg62  1  0.39164200  0.64171700  0.83045100  1
  Mg  Mg63  1  0.20229200  0.46542300  0.26885000  1
  Mg  Mg64  1  0.63999800  0.18359400  0.92486500  1
  Mg  Mg65  1  0.34007200  0.60508500  0.66257300  1
  Mg  Mg66  1  0.93770400  0.93770400  0.93245800  1
  Mg  Mg67  1  0.89491500  0.15992800  0.16257300  1
  Mg  Mg68  1  0.41485400  0.41485400  0.76532500  1
  Mg  Mg69  1  0.06229600  0.06229600  0.06754200  1
  Mg  Mg70  1  0.70229200  0.96542300  0.23115000  1
  Mg  Mg71  1  0.58514600  0.58514600  0.23467500  1
  Mg  Mg72  1  0.04503500  0.29066400  0.56126900  1
  Mg  Mg73  1  0.03457700  0.29770800  0.76885000  1
  Mg  Mg74  1  0.14171700  0.89164200  0.66954900  1
  Mg  Mg75  1  0.25319900  0.25319900  0.32365200  1
  Ir  Ir0  1  0.95992900  0.82363000  0.08699800  1
  Ir  Ir1  1  0.76912300  0.62526700  0.33775900  1
  Ir  Ir2  1  0.88481300  0.61612500  0.08758300  1
  Ir  Ir3  1  0.98158600  0.70627000  0.71399800  1
  Ir  Ir4  1  0.82363000  0.95992900  0.08699800  1
  Ir  Ir5  1  0.51841400  0.79373000  0.21399800  1
  Ir  Ir6  1  0.32956100  0.82956100  0.25000000  1
  Ir  Ir7  1  0.54007100  0.67637000  0.58699800  1
  Ir  Ir8  1  0.73087700  0.87473300  0.83775900  1
  Ir  Ir9  1  0.62526700  0.76912300  0.33775900  1
  Ir  Ir10  1  0.33464200  0.33464200  0.17002500  1
  Ir  Ir11  1  0.61518700  0.88387500  0.58758300  1
  Ir  Ir12  1  0.36273400  0.63726600  0.50000000  1
  Ir  Ir13  1  0.82305000  0.32305000  0.75000000  1
  Ir  Ir14  1  0.67043900  0.17043900  0.75000000  1
  Ir  Ir15  1  0.12584700  0.87415300  0.50000000  1
  Ir  Ir16  1  0.01730500  0.29509700  0.04217000  1
  Ir  Ir17  1  0.45205300  0.31859700  0.91585600  1
  Ir  Ir18  1  0.37415300  0.62584700  0.00000000  1
  Ir  Ir19  1  0.13726600  0.86273400  0.00000000  1
  Ir  Ir20  1  0.79509700  0.51730500  0.45783000  1
  Ir  Ir21  1  0.87415300  0.12584700  0.50000000  1
  Ir  Ir22  1  0.93192800  0.93192800  0.21799900  1
  Ir  Ir23  1  0.83464200  0.83464200  0.32997500  1
  Ir  Ir24  1  0.38481300  0.11612500  0.41241700  1
  Ir  Ir25  1  0.11518700  0.38387500  0.91241700  1
  Ir  Ir26  1  0.31859700  0.45205300  0.91585600  1
  Ir  Ir27  1  0.81859700  0.95205300  0.58414400  1
  Ir  Ir28  1  0.67637000  0.54007100  0.58699800  1
  Ir  Ir29  1  0.29373000  0.01841400  0.28600200  1
  Ir  Ir30  1  0.04794700  0.18140300  0.41585600  1
  Ir  Ir31  1  0.17695000  0.67695000  0.25000000  1
  Ir  Ir32  1  0.18140300  0.04794700  0.41585600  1
  Ir  Ir33  1  0.50000000  0.00000000  0.50000000  1
  Ir  Ir34  1  0.16535800  0.16535800  0.67002500  1
  Ir  Ir35  1  0.43192800  0.43192800  0.28200100  1
  Ir  Ir36  1  0.54794700  0.68140300  0.08414400  1
  Ir  Ir37  1  0.66535800  0.66535800  0.82997500  1
  Ir  Ir38  1  0.68140300  0.54794700  0.08414400  1
  Ir  Ir39  1  0.17637000  0.04007100  0.91300200  1
  Ir  Ir40  1  0.87473300  0.73087700  0.83775900  1
  Ir  Ir41  1  0.48269500  0.20490300  0.54217000  1
  Ir  Ir42  1  0.45992900  0.32363000  0.41300200  1
  Ir  Ir43  1  0.01841400  0.29373000  0.28600200  1
  Ir  Ir44  1  0.51730500  0.79509700  0.45783000  1
  Ir  Ir45  1  0.67695000  0.17695000  0.25000000  1
  Ir  Ir46  1  0.20627000  0.48158600  0.78600200  1
  Ir  Ir47  1  0.26912300  0.12526700  0.16224100  1
  Ir  Ir48  1  0.82956100  0.32956100  0.25000000  1
  Ir  Ir49  1  0.37473300  0.23087700  0.66224100  1
  Ir  Ir50  1  0.29509700  0.01730500  0.04217000  1
  Ir  Ir51  1  0.88387500  0.61518700  0.58758300  1
  Ir  Ir52  1  0.61612500  0.88481300  0.08758300  1
  Ir  Ir53  1  0.70490300  0.98269500  0.95783000  1
  Ir  Ir54  1  0.23087700  0.37473300  0.66224100  1
  Ir  Ir55  1  0.50000000  0.00000000  0.00000000  1
  Ir  Ir56  1  0.00000000  0.50000000  0.00000000  1
  Ir  Ir57  1  0.38387500  0.11518700  0.91241700  1
  Ir  Ir58  1  0.70627000  0.98158600  0.71399800  1
  Ir  Ir59  1  0.11612500  0.38481300  0.41241700  1
  Ir  Ir60  1  0.20490300  0.48269500  0.54217000  1
  Ir  Ir61  1  0.06807200  0.06807200  0.78200100  1
  Ir  Ir62  1  0.48158600  0.20627000  0.78600200  1
  Ir  Ir63  1  0.32363000  0.45992900  0.41300200  1
  Ir  Ir64  1  0.98269500  0.70490300  0.95783000  1
  Ir  Ir65  1  0.95205300  0.81859700  0.58414400  1
  Ir  Ir66  1  0.86273400  0.13726600  0.00000000  1
  Ir  Ir67  1  0.63726600  0.36273400  0.50000000  1
  Ir  Ir68  1  0.79373000  0.51841400  0.21399800  1
  Ir  Ir69  1  0.00000000  0.50000000  0.50000000  1
  Ir  Ir70  1  0.04007100  0.17637000  0.91300200  1
  Ir  Ir71  1  0.62584700  0.37415300  0.00000000  1
  Ir  Ir72  1  0.17043900  0.67043900  0.75000000  1
  Ir  Ir73  1  0.32305000  0.82305000  0.75000000  1
  Ir  Ir74  1  0.56807200  0.56807200  0.71799900  1
  Ir  Ir75  1  0.12526700  0.26912300  0.16224100  1
loop_
_geom_bond_atom_site_label_1
_geom_bond_atom_site_label_2
_geom_bond_distance
_geom_bond_site_symmetry_2
Mg0 Mg27 2.930973 1_555
Mg0 Mg5 2.959402 1_555
Mg0 Mg53 2.960331 1_555
Mg0 Mg64 3.024579 1_555
Mg0 Mg68 3.061156 1_555
Mg0 Mg30 3.069118 1_555
Mg0 Mg3 3.321031 1_555
Mg1 Mg74 2.930973 1_555
Mg2 Mg57 3.321031 1_555
Mg4 Mg56 2.927551 1_555
Mg4 Mg54 2.960331 1_655
Mg5 Mg62 2.959402 1_555
Mg6 Mg66 3.060810 1_555
Mg7 Mg73 2.927551 1_555
Mg10 Mg20 2.930973 1_555
Mg11 Mg44 3.321031 1_555
Mg13 Mg74 3.321031 1_555
Mg14 Mg45 2.927551 1_555
Mg14 Mg62 2.960331 1_555
Mg15 Mg44 2.930973 1_555
Mg16 Mg48 3.024579 1_555
Mg17 Mg74 3.024579 1_555
Mg18 Mg54 2.959402 1_655
Mg18 Mg57 2.959402 1_565
Mg19 Mg54 2.930973 1_555
Mg20 Mg47 2.959402 1_555
Mg20 Mg9 2.960331 1_555
Mg20 Mg50 3.024579 1_555
Mg20 Mg71 3.061156 1_555
Mg20 Mg8 3.069118 1_555
Mg20 Mg58 3.321031 1_555
Mg21 Mg6 2.927215 1_555
Mg21 Mg62 3.069118 1_555
Mg22 Mg24 2.927215 1_555
Mg22 Mg48 3.069118 1_555
Mg23 Mg48 3.321031 1_555
Mg24 Mg8 2.927215 1_555
Mg24 Mg7 3.029366 1_554
Mg24 Mg69 3.060810 1_555
Mg28 Mg57 3.024579 1_555
Mg29 Mg43 3.060810 1_555
Mg30 Mg6 2.927215 1_555
Mg31 Mg43 2.927215 1_555
Mg31 Mg74 3.069118 1_545
Mg32 Mg60 2.927215 1_555
Mg32 Mg57 3.069118 1_565
Mg33 Mg75 2.910308 1_555
Mg33 Mg54 3.061156 1_545
Mg33 Mg57 3.061156 1_455
Mg34 Mg45 2.910308 1_555
Mg34 Mg74 3.061156 1_655
Mg34 Mg44 3.061156 1_565
Mg35 Mg44 3.024579 1_555
Mg36 Mg7 2.927551 1_555
Mg36 Mg74 2.960331 1_545
Mg37 Mg62 3.024579 1_555
Mg38 Mg60 3.060810 1_555
Mg39 Mg62 3.321031 1_555
Mg41 Mg60 2.927215 1_555
Mg41 Mg54 3.069118 1_655
Mg42 Mg48 2.930973 1_555
Mg43 Mg72 2.927215 1_555
Mg43 Mg75 3.029366 1_555
Mg44 Mg46 2.959402 1_655
Mg44 Mg73 2.960331 1_655
Mg44 Mg72 3.069118 1_655
Mg45 Mg53 2.927551 1_555
Mg45 Mg60 3.029366 1_555
Mg46 Mg74 2.959402 1_545
Mg47 Mg48 2.959402 1_555
Mg48 Mg63 2.960331 1_555
Mg48 Mg71 3.061156 1_555
Mg52 Mg54 3.024579 1_555
Mg54 Mg55 3.321031 1_555
Mg56 Mg71 2.910308 1_555
Mg56 Mg70 2.927551 1_555
Mg56 Mg6 3.029366 1_554
Mg57 Mg67 2.930973 1_555
Mg57 Mg70 2.960331 1_545
Mg62 Mg65 2.930973 1_555
Mg62 Mg68 3.061156 1_555
Mg63 Mg75 2.927551 1_555
Mg68 Mg7 2.910308 1_555
Mg75 Mg9 2.927551 1_555
Ir0 Ir4 2.534456 1_555
Ir0 Ir2 2.610818 1_555
Ir0 Ir19 2.631376 1_655
Ir0 Ir22 2.634132 1_555
Ir0 Ir64 2.666517 1_554
Ir0 Mg19 2.819394 1_655
Ir0 Mg4 2.867102 1_555
Ir0 Mg6 2.889556 1_554
Ir0 Mg23 2.977802 1_655
Ir0 Mg56 2.997662 1_555
Ir0 Mg66 2.998610 1_554
Ir0 Mg69 3.071325 1_665
Ir1 Ir20 2.473326 1_555
Ir1 Ir68 2.514061 1_555
Ir1 Ir23 2.611800 1_555
Ir1 Ir9 2.674977 1_555
Ir1 Mg71 2.856403 1_555
Ir1 Mg41 2.940137 1_555
Ir1 Mg25 2.975607 1_555
Ir1 Mg10 2.986766 1_555
Ir1 Mg38 3.030359 1_555
Ir1 Mg4 3.071865 1_555
Ir1 Mg60 3.083055 1_555
Ir1 Mg56 3.172993 1_555
Ir2 Ir38 2.545507 1_555
Ir2 Ir56 2.611042 1_655
Ir2 Ir68 2.633793 1_555
Ir2 Ir64 2.670478 1_554
Ir2 Mg4 2.782026 1_555
Ir2 Mg30 2.861952 1_554
Ir2 Mg61 2.873584 1_655
Ir2 Mg56 2.914526 1_555
Ir2 Mg6 2.933207 1_554
Ir2 Mg23 2.963001 1_655
Ir2 Mg50 3.174942 1_555
Ir3 Ir72 2.507663 1_655
Ir3 Ir40 2.514061 1_555
Ir3 Ir51 2.633793 1_555
Ir3 Ir65 2.648372 1_555
Ir3 Mg34 2.830173 1_555
Ir3 Mg51 2.890011 1_655
Ir3 Mg53 2.913423 1_555
Ir3 Mg74 2.922739 1_655
Ir3 Mg12 2.931836 1_555
Ir3 Mg1 2.959275 1_655
Ir3 Mg45 3.075998 1_555
Ir3 Mg17 3.093337 1_655
Ir4 Ir52 2.610818 1_555
Ir4 Ir66 2.631376 1_565
Ir4 Ir53 2.666517 1_554
Ir4 Mg67 2.819394 1_565
Ir4 Mg70 2.867102 1_555
Ir4 Mg6 2.889556 1_554
Ir4 Mg58 2.977802 1_565
Ir4 Mg56 2.997662 1_555
Ir4 Mg66 2.998610 1_554
Ir4 Mg69 3.071325 1_665
Ir5 Ir6 2.507663 1_555
Ir5 Ir9 2.514061 1_555
Ir5 Ir52 2.633793 1_555
Ir5 Mg71 2.830173 1_555
Ir5 Mg40 2.890011 1_565
Ir5 Mg70 2.913423 1_555
Ir5 Mg48 2.922739 1_555
Ir5 Mg26 2.931836 1_555
Ir5 Mg42 2.959275 1_555
Ir5 Mg56 3.075998 1_555
Ir5 Mg16 3.093337 1_555
Ir6 Mg42 2.771194 1_555
Ir6 Mg19 2.771194 1_555
Ir6 Mg26 2.892813 1_555
Ir6 Mg40 2.892813 1_565
Ir6 Mg16 2.987232 1_555
Ir6 Mg52 2.987232 1_555
Ir6 Mg54 3.115791 1_555
Ir6 Mg48 3.115791 1_555
Ir7 Ir74 2.634132 1_555
Ir7 Mg65 2.819394 1_555
Ir7 Mg14 2.867102 1_555
Ir7 Mg60 2.889556 1_555
Ir7 Mg13 2.977802 1_555
Ir7 Mg45 2.997662 1_555
Ir7 Mg38 2.998610 1_555
Ir7 Mg29 3.071325 1_555
Ir8 Mg34 2.856403 1_555
Ir8 Mg21 2.940137 1_555
Ir8 Mg59 2.975607 1_555
Ir8 Mg15 2.986766 1_565
Ir8 Mg66 3.030359 1_555
Ir8 Mg14 3.071865 1_555
Ir8 Mg6 3.083055 1_555
Ir8 Mg45 3.172993 1_555
Ir9 Mg71 2.856403 1_555
Ir9 Mg32 2.940137 1_555
Ir9 Mg26 2.975607 1_555
Ir9 Mg42 2.986766 1_555
Ir9 Mg38 3.030359 1_555
Ir9 Mg70 3.071865 1_555
Ir9 Mg60 3.083055 1_555
Ir9 Mg56 3.172993 1_555
Ir10 Ir35 2.469066 1_555
Ir10 Mg47 2.590488 1_555
Ir10 Ir75 2.611800 1_555
Ir10 Ir47 2.611800 1_555
Ir10 Mg75 2.916569 1_555
Ir10 Mg22 2.932153 1_555
Ir10 Mg8 2.932153 1_555
Ir10 Mg9 2.962524 1_555
Ir10 Mg63 2.962524 1_555
Ir10 Mg24 3.241316 1_555
Ir10 Mg48 3.357734 1_555
Ir10 Mg20 3.357734 1_555
Ir11 Ir27 2.545507 1_555
Ir11 Ir7 2.610818 1_555
Ir11 Ir33 2.611042 1_565
Ir11 Ir58 2.633793 1_555
Ir11 Ir44 2.670478 1_555
Ir11 Mg14 2.782026 1_555
Ir11 Mg32 2.861952 1_555
Ir11 Mg49 2.873584 1_565
Ir11 Mg45 2.914526 1_555
Ir11 Mg60 2.933207 1_555
Ir11 Mg13 2.963001 1_555
Ir11 Mg35 3.174942 1_565
Ir12 Ir7 2.631376 1_555
Ir12 Ir63 2.631376 1_555
Ir12 Ir60 2.643196 1_555
Ir12 Ir44 2.643196 1_555
Ir12 Mg65 2.785930 1_555
Ir12 Mg42 2.785930 1_555
Ir12 Mg55 2.864282 1_555
Ir12 Mg13 2.864282 1_555
Ir12 Mg38 2.974734 1_555
Ir12 Mg29 2.974734 1_555
Ir12 Mg17 3.152280 1_555
Ir12 Mg52 3.152280 1_555
Ir13 Ir14 2.486562 1_555
Ir13 Mg53 2.692995 1_555
Ir13 Mg73 2.692995 1_655
Ir13 Mg11 2.702419 1_555
Ir13 Mg3 2.702419 1_555
Ir13 Mg0 2.844790 1_555
Ir13 Mg44 2.844790 1_555
Ir13 Mg27 3.104460 1_555
Ir13 Mg15 3.104460 1_555
Ir14 Ir62 2.507663 1_555
Ir14 Ir58 2.507663 1_545
Ir14 Mg27 2.771194 1_555
Ir14 Mg15 2.771194 1_555
Ir14 Mg49 2.892813 1_555
Ir14 Mg59 2.892813 1_545
Ir14 Mg35 2.987232 1_555
Ir14 Mg64 2.987232 1_555
Ir14 Mg0 3.115791 1_555
Ir14 Mg44 3.115791 1_555
Ir15 Ir65 2.592912 1_455
Ir15 Ir32 2.592912 1_565
Ir15 Mg17 2.702096 1_555
Ir15 Mg52 2.702096 1_555
Ir15 Mg18 2.710315 1_455
Ir15 Mg46 2.710315 1_565
Ir15 Mg74 2.879275 1_555
Ir15 Mg54 2.879275 1_555
Ir15 Mg31 2.924976 1_565
Ir15 Mg41 2.924976 1_455
Ir16 Ir75 2.473326 1_555
Ir16 Ir66 2.643196 1_455
Ir16 Ir70 2.666517 1_554
Ir16 Ir56 2.666867 1_555
Ir16 Ir25 2.670478 1_554
Ir16 Mg50 2.765017 1_455
Ir16 Mg22 2.900410 1_555
Ir16 Mg67 2.925779 1_455
Ir16 Mg61 2.938444 1_555
Ir16 Mg3 2.975803 1_454
Ir16 Mg24 2.979786 1_555
Ir16 Mg69 3.032422 1_555
Ir17 Ir26 2.481591 1_555
Ir17 Ir57 2.545507 1_555
Ir17 Ir71 2.592912 1_556
Ir17 Ir62 2.648372 1_555
Ir17 Mg0 2.800152 1_555
Ir17 Mg8 2.807447 1_556
Ir17 Mg68 2.871827 1_555
Ir17 Mg5 2.955260 1_555
Ir17 Mg7 3.010585 1_555
Ir17 Mg47 3.019017 1_556
Ir17 Mg64 3.037221 1_555
Ir17 Mg24 3.078979 1_556
Ir18 Ir36 2.592912 1_555
Ir18 Ir26 2.592912 1_554
Ir18 Mg37 2.702096 1_554
Ir18 Mg16 2.702096 1_555
Ir18 Mg5 2.710315 1_554
Ir18 Mg47 2.710315 1_555
Ir18 Mg62 2.879275 1_554
Ir18 Mg48 2.879275 1_555
Ir18 Mg22 2.924976 1_555
Ir18 Mg21 2.924976 1_554
Ir19 Ir39 2.631376 1_564
Ir19 Ir50 2.643196 1_565
Ir19 Ir64 2.643196 1_454
Ir19 Mg1 2.785930 1_554
Ir19 Mg19 2.785930 1_555
Ir19 Mg39 2.864282 1_554
Ir19 Mg23 2.864282 1_555
Ir19 Mg69 2.974734 1_565
Ir19 Mg66 2.974734 1_454
Ir19 Mg37 3.152280 1_554
Ir19 Mg16 3.152280 1_555
Ir20 Ir67 2.643196 1_555
Ir20 Ir28 2.666517 1_555
Ir20 Ir69 2.666867 1_655
Ir20 Ir51 2.670478 1_555
Ir20 Mg28 2.765017 1_555
Ir20 Mg41 2.900410 1_555
Ir20 Mg10 2.925779 1_555
Ir20 Mg25 2.938444 1_555
Ir20 Mg11 2.975803 1_555
Ir20 Mg60 2.979786 1_555
Ir20 Mg38 3.032422 1_555
Ir21 Ir27 2.592912 1_545
Ir21 Ir30 2.592912 1_655
Ir21 Mg35 2.702096 1_555
Ir21 Mg28 2.702096 1_555
Ir21 Mg18 2.710315 1_545
Ir21 Mg46 2.710315 1_655
Ir21 Mg44 2.879275 1_555
Ir21 Mg57 2.879275 1_555
Ir21 Mg72 2.924976 1_655
Ir21 Mg32 2.924976 1_545
Ir22 Ir23 2.469066 1_555
Ir22 Mg33 2.621530 1_665
Ir22 Ir4 2.634132 1_555
Ir22 Mg70 2.930495 1_555
Ir22 Mg4 2.930495 1_555
Ir22 Mg56 2.996037 1_555
Ir22 Mg67 3.061027 1_565
Ir22 Mg19 3.061027 1_655
Ir22 Mg54 3.117889 1_655
Ir22 Mg57 3.117889 1_565
Ir22 Mg69 3.313905 1_665
Ir23 Mg18 2.590488 1_555
Ir23 Ir9 2.611800 1_555
Ir23 Mg56 2.916569 1_555
Ir23 Mg41 2.932153 1_555
Ir23 Mg32 2.932153 1_555
Ir23 Mg70 2.962524 1_555
Ir23 Mg4 2.962524 1_555
Ir23 Mg60 3.241316 1_555
Ir23 Mg57 3.357734 1_565
Ir23 Mg54 3.357734 1_655
Ir24 Ir32 2.545507 1_555
Ir24 Ir42 2.610818 1_555
Ir24 Ir33 2.611042 1_555
Ir24 Ir29 2.633793 1_555
Ir24 Ir41 2.670478 1_555
Ir24 Mg9 2.782026 1_555
Ir24 Mg31 2.861952 1_555
Ir24 Mg26 2.873584 1_545
Ir24 Mg75 2.914526 1_555
Ir24 Mg43 2.933207 1_555
Ir24 Mg2 2.963001 1_555
Ir24 Mg52 3.174942 1_545
Ir25 Ir26 2.545507 1_555
Ir25 Ir70 2.610818 1_555
Ir25 Ir56 2.611042 1_556
Ir25 Ir46 2.633793 1_555
Ir25 Mg73 2.782026 1_555
Ir25 Mg22 2.861952 1_556
Ir25 Mg12 2.873584 1_455
Ir25 Mg7 2.914526 1_555
Ir25 Mg24 2.933207 1_556
Ir25 Mg3 2.963001 1_455
Ir25 Mg37 3.174942 1_555
Ir26 Ir46 2.648372 1_555
Ir26 Mg62 2.800152 1_555
Ir26 Mg22 2.807447 1_556
Ir26 Mg68 2.871827 1_555
Ir26 Mg5 2.955260 1_555
Ir26 Mg7 3.010585 1_555
Ir26 Mg47 3.019017 1_556
Ir26 Mg37 3.037221 1_555
Ir26 Mg24 3.078979 1_556
Ir27 Ir65 2.481591 1_555
Ir27 Ir58 2.648372 1_555
Ir27 Mg44 2.800152 1_565
Ir27 Mg32 2.807447 1_555
Ir27 Mg34 2.871827 1_555
Ir27 Mg46 2.955260 1_665
Ir27 Mg45 3.010585 1_555
Ir27 Mg18 3.019017 1_555
Ir27 Mg35 3.037221 1_565
Ir27 Mg60 3.078979 1_555
Ir28 Ir7 2.534456 1_555
Ir28 Ir51 2.610818 1_555
Ir28 Ir67 2.631376 1_555
Ir28 Ir74 2.634132 1_555
Ir28 Mg27 2.819394 1_555
Ir28 Mg53 2.867102 1_555
Ir28 Mg60 2.889556 1_555
Ir28 Mg11 2.977802 1_555
Ir28 Mg45 2.997662 1_555
Ir28 Mg38 2.998610 1_555
Ir28 Mg29 3.071325 1_555
Ir29 Ir6 2.507663 1_545
Ir29 Ir47 2.514061 1_555
Ir29 Ir32 2.648372 1_555
Ir29 Mg33 2.830173 1_555
Ir29 Mg26 2.890011 1_545
Ir29 Mg9 2.913423 1_555
Ir29 Mg54 2.922739 1_545
Ir29 Mg40 2.931836 1_555
Ir29 Mg19 2.959275 1_545
Ir29 Mg75 3.075998 1_555
Ir29 Mg52 3.093337 1_545
Ir30 Ir32 2.481591 1_555
Ir30 Ir59 2.545507 1_555
Ir30 Ir43 2.648372 1_555
Ir30 Mg57 2.800152 1_455
Ir30 Mg72 2.807447 1_555
Ir30 Mg33 2.871827 1_555
Ir30 Mg18 2.955260 1_445
Ir30 Mg75 3.010585 1_555
Ir30 Mg46 3.019017 1_555
Ir30 Mg28 3.037221 1_455
Ir30 Mg43 3.078979 1_555
Ir31 Ir6 2.486562 1_555
Ir31 Mg4 2.692995 1_455
Ir31 Mg63 2.692995 1_555
Ir31 Mg23 2.702419 1_555
Ir31 Mg55 2.702419 1_555
Ir31 Mg54 2.844790 1_555
Ir31 Mg48 2.844790 1_555
Ir31 Mg19 3.104460 1_555
Ir31 Mg42 3.104460 1_555
Ir32 Mg54 2.800152 1_545
Ir32 Mg31 2.807447 1_555
Ir32 Mg33 2.871827 1_555
Ir32 Mg18 2.955260 1_445
Ir32 Mg75 3.010585 1_555
Ir32 Mg46 3.019017 1_555
Ir32 Mg52 3.037221 1_545
Ir32 Mg43 3.078979 1_555
Ir33 Ir44 2.666867 1_545
Ir33 Ir41 2.666867 1_555
Ir33 Mg49 2.831529 1_555
Ir33 Mg26 2.831529 1_545
Ir33 Mg32 2.908215 1_545
Ir33 Mg31 2.908215 1_555
Ir33 Mg13 2.913327 1_545
Ir33 Mg2 2.913327 1_555
Ir33 Mg52 2.954219 1_545
Ir33 Mg35 2.954219 1_555
Ir34 Ir61 2.469066 1_555
Ir34 Mg46 2.590488 1_555
Ir34 Ir54 2.611800 1_555
Ir34 Ir49 2.611800 1_555
Ir34 Mg7 2.916569 1_555
Ir34 Mg72 2.932153 1_555
Ir34 Mg31 2.932153 1_555
Ir34 Mg73 2.962524 1_555
Ir34 Mg36 2.962524 1_555
Ir34 Mg43 3.241316 1_555
Ir34 Mg44 3.357734 1_455
Ir34 Mg74 3.357734 1_545
Ir35 Mg71 2.621530 1_555
Ir35 Ir42 2.634132 1_555
Ir35 Ir63 2.634132 1_555
Ir35 Mg9 2.930495 1_555
Ir35 Mg63 2.930495 1_555
Ir35 Mg75 2.996037 1_555
Ir35 Mg10 3.061027 1_555
Ir35 Mg42 3.061027 1_555
Ir35 Mg20 3.117889 1_555
Ir35 Mg48 3.117889 1_555
Ir35 Mg38 3.313905 1_555
Ir36 Ir38 2.481591 1_555
Ir36 Ir52 2.545507 1_555
Ir36 Ir5 2.648372 1_555
Ir36 Mg48 2.800152 1_555
Ir36 Mg21 2.807447 1_554
Ir36 Mg71 2.871827 1_555
Ir36 Mg47 2.955260 1_555
Ir36 Mg56 3.010585 1_555
Ir36 Mg5 3.019017 1_554
Ir36 Mg16 3.037221 1_555
Ir36 Mg6 3.078979 1_554
Ir37 Ir74 2.469066 1_555
Ir37 Mg5 2.590488 1_555
Ir37 Ir8 2.611800 1_555
Ir37 Ir40 2.611800 1_555
Ir37 Mg45 2.916569 1_555
Ir37 Mg30 2.932153 1_555
Ir37 Mg21 2.932153 1_555
Ir37 Mg14 2.962524 1_555
Ir37 Mg53 2.962524 1_555
Ir37 Mg6 3.241316 1_555
Ir37 Mg0 3.357734 1_555
Ir37 Mg62 3.357734 1_555
Ir38 Ir71 2.592912 1_555
Ir38 Ir68 2.648372 1_555
Ir38 Mg20 2.800152 1_555
Ir38 Mg30 2.807447 1_554
Ir38 Mg71 2.871827 1_555
Ir38 Mg47 2.955260 1_555
Ir38 Mg56 3.010585 1_555
Ir38 Mg5 3.019017 1_554
Ir38 Mg50 3.037221 1_555
Ir38 Mg6 3.078979 1_554
Ir39 Ir70 2.534456 1_555
Ir39 Ir57 2.610818 1_555
Ir39 Ir61 2.634132 1_555
Ir39 Ir50 2.666517 1_556
Ir39 Mg1 2.819394 1_545
Ir39 Mg36 2.867102 1_555
Ir39 Mg24 2.889556 1_556
Ir39 Mg39 2.977802 1_545
Ir39 Mg7 2.997662 1_555
Ir39 Mg69 2.998610 1_556
Ir39 Mg66 3.071325 1_445
Ir40 Ir64 2.473326 1_555
Ir40 Ir8 2.674977 1_555
Ir40 Mg34 2.856403 1_555
Ir40 Mg30 2.940137 1_555
Ir40 Mg12 2.975607 1_555
Ir40 Mg1 2.986766 1_655
Ir40 Mg66 3.030359 1_555
Ir40 Mg53 3.071865 1_555
Ir40 Mg6 3.083055 1_555
Ir40 Mg45 3.172993 1_555
Ir41 Ir49 2.473326 1_555
Ir41 Ir67 2.643196 1_555
Ir41 Ir42 2.666517 1_555
Ir41 Mg35 2.765017 1_555
Ir41 Mg31 2.900410 1_555
Ir41 Mg27 2.925779 1_555
Ir41 Mg49 2.938444 1_555
Ir41 Mg2 2.975803 1_555
Ir41 Mg43 2.979786 1_555
Ir41 Mg29 3.032422 1_555
Ir42 Ir63 2.534456 1_555
Ir42 Ir67 2.631376 1_555
Ir42 Mg10 2.819394 1_555
Ir42 Mg9 2.867102 1_555
Ir42 Mg43 2.889556 1_555
Ir42 Mg2 2.977802 1_555
Ir42 Mg75 2.997662 1_555
Ir42 Mg29 2.998610 1_555
Ir42 Mg38 3.071325 1_555
Ir43 Ir48 2.507663 1_455
Ir43 Ir75 2.514061 1_555
Ir43 Ir59 2.633793 1_555
Ir43 Mg33 2.830173 1_555
Ir43 Mg25 2.890011 1_455
Ir43 Mg63 2.913423 1_555
Ir43 Mg57 2.922739 1_455
Ir43 Mg61 2.931836 1_555
Ir43 Mg67 2.959275 1_455
Ir43 Mg75 3.075998 1_555
Ir43 Mg28 3.093337 1_455
Ir44 Ir9 2.473326 1_555
Ir44 Ir7 2.666517 1_555
Ir44 Mg52 2.765017 1_555
Ir44 Mg32 2.900410 1_555
Ir44 Mg42 2.925779 1_555
Ir44 Mg26 2.938444 1_555
Ir44 Mg13 2.975803 1_555
Ir44 Mg60 2.979786 1_555
Ir44 Mg38 3.032422 1_555
Ir45 Ir48 2.486562 1_555
Ir45 Mg70 2.692995 1_545
Ir45 Mg9 2.692995 1_555
Ir45 Mg58 2.702419 1_555
Ir45 Mg2 2.702419 1_555
Ir45 Mg57 2.844790 1_555
Ir45 Mg20 2.844790 1_555
Ir45 Mg67 3.104460 1_555
Ir45 Mg10 3.104460 1_555
Ir46 Ir72 2.507663 1_555
Ir46 Ir54 2.514061 1_555
Ir46 Mg68 2.830173 1_555
Ir46 Mg12 2.890011 1_455
Ir46 Mg73 2.913423 1_555
Ir46 Mg62 2.922739 1_555
Ir46 Mg51 2.931836 1_555
Ir46 Mg65 2.959275 1_555
Ir46 Mg7 3.075998 1_555
Ir46 Mg37 3.093337 1_555
Ir47 Ir50 2.473326 1_555
Ir47 Ir75 2.674977 1_555
Ir47 Mg33 2.856403 1_555
Ir47 Mg8 2.940137 1_555
Ir47 Mg40 2.975607 1_555
Ir47 Mg19 2.986766 1_545
Ir47 Mg69 3.030359 1_555
Ir47 Mg9 3.071865 1_555
Ir47 Mg24 3.083055 1_555
Ir47 Mg75 3.172993 1_555
Ir48 Ir68 2.507663 1_555
Ir48 Mg10 2.771194 1_555
Ir48 Mg67 2.771194 1_555
Ir48 Mg25 2.892813 1_555
Ir48 Mg61 2.892813 1_655
Ir48 Mg28 2.987232 1_555
Ir48 Mg50 2.987232 1_555
Ir48 Mg57 3.115791 1_555
Ir48 Mg20 3.115791 1_555
Ir49 Ir62 2.514061 1_555
Ir49 Ir54 2.674977 1_555
Ir49 Mg68 2.856403 1_555
Ir49 Mg31 2.940137 1_555
Ir49 Mg49 2.975607 1_555
Ir49 Mg27 2.986766 1_555
Ir49 Mg29 3.030359 1_555
Ir49 Mg36 3.071865 1_555
Ir49 Mg43 3.083055 1_555
Ir49 Mg7 3.172993 1_555
Ir50 Ir55 2.666867 1_555
Ir50 Ir57 2.670478 1_554
Ir50 Mg16 2.765017 1_545
Ir50 Mg8 2.900410 1_555
Ir50 Mg19 2.925779 1_545
Ir50 Mg40 2.938444 1_555
Ir50 Mg39 2.975803 1_544
Ir50 Mg24 2.979786 1_555
Ir50 Mg69 3.032422 1_555
Ir51 Ir65 2.545507 1_555
Ir51 Ir69 2.611042 1_655
Ir51 Mg53 2.782026 1_555
Ir51 Mg41 2.861952 1_555
Ir51 Mg51 2.873584 1_655
Ir51 Mg45 2.914526 1_555
Ir51 Mg60 2.933207 1_555
Ir51 Mg11 2.963001 1_555
Ir51 Mg17 3.174942 1_655
Ir52 Ir55 2.611042 1_565
Ir52 Ir53 2.670478 1_554
Ir52 Mg70 2.782026 1_555
Ir52 Mg21 2.861952 1_554
Ir52 Mg40 2.873584 1_565
Ir52 Mg56 2.914526 1_555
Ir52 Mg6 2.933207 1_554
Ir52 Mg58 2.963001 1_565
Ir52 Mg16 3.174942 1_555
Ir53 Ir8 2.473326 1_555
Ir53 Ir66 2.643196 1_566
Ir53 Ir55 2.666867 1_566
Ir53 Mg64 2.765017 1_565
Ir53 Mg21 2.900410 1_555
Ir53 Mg15 2.925779 1_565
Ir53 Mg59 2.938444 1_555
Ir53 Mg58 2.975803 1_566
Ir53 Mg6 2.979786 1_555
Ir53 Mg66 3.032422 1_555
Ir54 Ir60 2.473326 1_555
Ir54 Mg68 2.856403 1_555
Ir54 Mg72 2.940137 1_555
Ir54 Mg51 2.975607 1_555
Ir54 Mg65 2.986766 1_555
Ir54 Mg29 3.030359 1_555
Ir54 Mg73 3.071865 1_555
Ir54 Mg43 3.083055 1_555
Ir54 Mg7 3.172993 1_555
Ir55 Ir57 2.611042 1_554
Ir55 Mg59 2.831529 1_544
Ir55 Mg40 2.831529 1_555
Ir55 Mg21 2.908215 1_544
Ir55 Mg8 2.908215 1_555
Ir55 Mg39 2.913327 1_544
Ir55 Mg58 2.913327 1_555
Ir55 Mg64 2.954219 1_554
Ir55 Mg16 2.954219 1_545
Ir56 Ir64 2.666867 1_454
Ir56 Mg12 2.831529 1_454
Ir56 Mg61 2.831529 1_555
Ir56 Mg22 2.908215 1_555
Ir56 Mg30 2.908215 1_454
Ir56 Mg23 2.913327 1_555
Ir56 Mg3 2.913327 1_454
Ir56 Mg37 2.954219 1_554
Ir56 Mg50 2.954219 1_455
Ir57 Ir62 2.633793 1_555
Ir57 Mg36 2.782026 1_555
Ir57 Mg8 2.861952 1_556
Ir57 Mg59 2.873584 1_545
Ir57 Mg7 2.914526 1_555
Ir57 Mg24 2.933207 1_556
Ir57 Mg39 2.963001 1_545
Ir57 Mg64 3.174942 1_555
Ir58 Ir8 2.514061 1_555
Ir58 Mg34 2.830173 1_555
Ir58 Mg49 2.890011 1_565
Ir58 Mg14 2.913423 1_555
Ir58 Mg44 2.922739 1_565
Ir58 Mg59 2.931836 1_555
Ir58 Mg15 2.959275 1_565
Ir58 Mg45 3.075998 1_555
Ir58 Mg35 3.093337 1_565
Ir59 Ir63 2.610818 1_555
Ir59 Ir69 2.611042 1_555
Ir59 Ir60 2.670478 1_555
Ir59 Mg63 2.782026 1_555
Ir59 Mg72 2.861952 1_555
Ir59 Mg25 2.873584 1_455
Ir59 Mg75 2.914526 1_555
Ir59 Mg43 2.933207 1_555
Ir59 Mg55 2.963001 1_555
Ir59 Mg28 3.174942 1_455
Ir60 Ir63 2.666517 1_555
Ir60 Ir69 2.666867 1_555
Ir60 Mg17 2.765017 1_555
Ir60 Mg72 2.900410 1_555
Ir60 Mg65 2.925779 1_555
Ir60 Mg51 2.938444 1_555
Ir60 Mg55 2.975803 1_555
Ir60 Mg43 2.979786 1_555
Ir60 Mg29 3.032422 1_555
Ir61 Mg34 2.621530 1_445
Ir61 Ir70 2.634132 1_555
Ir61 Mg36 2.930495 1_555
Ir61 Mg73 2.930495 1_555
Ir61 Mg7 2.996037 1_555
Ir61 Mg1 3.061027 1_545
Ir61 Mg15 3.061027 1_455
Ir61 Mg44 3.117889 1_455
Ir61 Mg74 3.117889 1_545
Ir61 Mg66 3.313905 1_445
Ir62 Mg68 2.830173 1_555
Ir62 Mg59 2.890011 1_545
Ir62 Mg36 2.913423 1_555
Ir62 Mg0 2.922739 1_555
Ir62 Mg49 2.931836 1_555
Ir62 Mg27 2.959275 1_555
Ir62 Mg7 3.075998 1_555
Ir62 Mg64 3.093337 1_555
Ir63 Mg42 2.819394 1_555
Ir63 Mg63 2.867102 1_555
Ir63 Mg43 2.889556 1_555
Ir63 Mg55 2.977802 1_555
Ir63 Mg75 2.997662 1_555
Ir63 Mg29 2.998610 1_555
Ir63 Mg38 3.071325 1_555
Ir64 Mg37 2.765017 1_655
Ir64 Mg30 2.900410 1_555
Ir64 Mg1 2.925779 1_655
Ir64 Mg12 2.938444 1_555
Ir64 Mg23 2.975803 1_656
Ir64 Mg6 2.979786 1_555
Ir64 Mg66 3.032422 1_555
Ir65 Mg74 2.800152 1_655
Ir65 Mg41 2.807447 1_555
Ir65 Mg34 2.871827 1_555
Ir65 Mg46 2.955260 1_665
Ir65 Mg45 3.010585 1_555
Ir65 Mg18 3.019017 1_555
Ir65 Mg17 3.037221 1_655
Ir65 Mg60 3.078979 1_555
Ir66 Ir70 2.631376 1_654
Ir66 Mg15 2.785930 1_554
Ir66 Mg67 2.785930 1_555
Ir66 Mg3 2.864282 1_554
Ir66 Mg58 2.864282 1_555
Ir66 Mg69 2.974734 1_655
Ir66 Mg66 2.974734 1_544
Ir66 Mg64 3.152280 1_554
Ir66 Mg50 3.152280 1_555
Ir67 Mg27 2.785930 1_555
Ir67 Mg10 2.785930 1_555
Ir67 Mg2 2.864282 1_555
Ir67 Mg11 2.864282 1_555
Ir67 Mg38 2.974734 1_555
Ir67 Mg29 2.974734 1_555
Ir67 Mg28 3.152280 1_555
Ir67 Mg35 3.152280 1_555
Ir68 Mg71 2.830173 1_555
Ir68 Mg61 2.890011 1_655
Ir68 Mg4 2.913423 1_555
Ir68 Mg20 2.922739 1_555
Ir68 Mg25 2.931836 1_555
Ir68 Mg10 2.959275 1_555
Ir68 Mg56 3.075998 1_555
Ir68 Mg50 3.093337 1_555
Ir69 Mg51 2.831529 1_555
Ir69 Mg25 2.831529 1_455
Ir69 Mg41 2.908215 1_455
Ir69 Mg72 2.908215 1_555
Ir69 Mg11 2.913327 1_455
Ir69 Mg55 2.913327 1_555
Ir69 Mg28 2.954219 1_455
Ir69 Mg17 2.954219 1_555
Ir70 Mg15 2.819394 1_455
Ir70 Mg73 2.867102 1_555
Ir70 Mg24 2.889556 1_556
Ir70 Mg3 2.977802 1_455
Ir70 Mg7 2.997662 1_555
Ir70 Mg69 2.998610 1_556
Ir70 Mg66 3.071325 1_445
Ir71 Mg50 2.702096 1_555
Ir71 Mg64 2.702096 1_554
Ir71 Mg47 2.710315 1_555
Ir71 Mg5 2.710315 1_554
Ir71 Mg0 2.879275 1_554
Ir71 Mg20 2.879275 1_555
Ir71 Mg30 2.924976 1_554
Ir71 Mg8 2.924976 1_555
Ir72 Ir73 2.486562 1_555
Ir72 Mg65 2.771194 1_555
Ir72 Mg1 2.771194 1_555
Ir72 Mg51 2.892813 1_555
Ir72 Mg12 2.892813 1_455
Ir72 Mg17 2.987232 1_555
Ir72 Mg37 2.987232 1_555
Ir72 Mg62 3.115791 1_555
Ir72 Mg74 3.115791 1_555
Ir73 Mg14 2.692995 1_555
Ir73 Mg36 2.692995 1_565
Ir73 Mg13 2.702419 1_555
Ir73 Mg39 2.702419 1_555
Ir73 Mg62 2.844790 1_555
Ir73 Mg74 2.844790 1_555
Ir73 Mg65 3.104460 1_555
Ir73 Mg1 3.104460 1_555
Ir74 Mg68 2.621530 1_555
Ir74 Mg14 2.930495 1_555
Ir74 Mg53 2.930495 1_555
Ir74 Mg45 2.996037 1_555
Ir74 Mg65 3.061027 1_555
Ir74 Mg27 3.061027 1_555
Ir74 Mg0 3.117889 1_555
Ir74 Mg62 3.117889 1_555
Ir74 Mg29 3.313905 1_555
Ir75 Mg33 2.856403 1_555
Ir75 Mg22 2.940137 1_555
Ir75 Mg61 2.975607 1_555
Ir75 Mg67 2.986766 1_455
Ir75 Mg69 3.030359 1_555
Ir75 Mg63 3.071865 1_555
Ir75 Mg24 3.083055 1_555
Ir75 Mg75 3.172993 1_555
