# generated using pymatgen
data_Ti3Zn3C
_symmetry_space_group_name_H-M   'P 1'
_cell_length_a   8.13845115
_cell_length_b   8.13844744
_cell_length_c   8.13844691
_cell_angle_alpha   60.00071189
_cell_angle_beta   60.00067956
_cell_angle_gamma   60.00080082
_symmetry_Int_Tables_number   1
_chemical_formula_structural   Ti3Zn3C
_chemical_formula_sum   'Ti12 Zn12 C4'
_cell_volume   381.16854623
_cell_formula_units_Z   4
loop_
 _symmetry_equiv_pos_site_id
 _symmetry_equiv_pos_as_xyz
  1  'x, y, z'
loop_
 _atom_site_type_symbol
 _atom_site_label
 _atom_site_symmetry_multiplicity
 _atom_site_fract_x
 _atom_site_fract_y
 _atom_site_fract_z
 _atom_site_occupancy
  Ti  Ti0  1  0.93323880  0.93323067  0.56677467  1
  Ti  Ti1  1  0.56677199  0.93323777  0.56676069  1
  Ti  Ti2  1  0.93324330  0.56676521  0.56676493  1
  Ti  Ti3  1  0.56677366  0.56676009  0.93323637  1
  Ti  Ti4  1  0.93324260  0.56677205  0.93323188  1
  Ti  Ti5  1  0.56677891  0.93323801  0.93323608  1
  Ti  Ti6  1  0.31676986  0.31677146  0.68323506  1
  Ti  Ti7  1  0.68323936  0.31676851  0.68323196  1
  Ti  Ti8  1  0.31677191  0.68323073  0.68323369  1
  Ti  Ti9  1  0.68324206  0.68323133  0.31676879  1
  Ti  Ti10  1  0.31676943  0.68323300  0.31677337  1
  Ti  Ti11  1  0.68324089  0.31676766  0.31677038  1
  Zn  Zn0  1  0.33389721  0.33389238  0.99833091  1
  Zn  Zn1  1  0.33389753  0.99833354  0.33389057  1
  Zn  Zn2  1  0.99830059  0.33390429  0.33390383  1
  Zn  Zn3  1  0.33387367  0.33386797  0.33386601  1
  Zn  Zn4  1  0.91612392  0.91612340  0.25163131  1
  Zn  Zn5  1  0.91612600  0.25163747  0.91611957  1
  Zn  Zn6  1  0.25160125  0.91613249  0.91613499  1
  Zn  Zn7  1  0.91611202  0.91610557  0.91610726  1
  Zn  Zn8  1  0.12495507  0.12499427  0.62499946  1
  Zn  Zn9  1  0.12495843  0.62499782  0.12499320  1
  Zn  Zn10  1  0.62502151  0.12497833  0.12496968  1
  Zn  Zn11  1  0.12498488  0.12502397  0.12502397  1
  C  C0  1  0.62502967  0.62499725  0.12501894  1
  C  C1  1  0.62502177  0.12502163  0.62499953  1
  C  C2  1  0.12500616  0.62500628  0.62501566  1
  C  C3  1  0.62500854  0.62497786  0.62497723  1
loop_
_geom_bond_atom_site_label_1
_geom_bond_atom_site_label_2
_geom_bond_distance
_geom_bond_site_symmetry_2
Ti0 Zn7 2.710825 1_555
Ti0 Zn4 2.711195 1_555
Ti0 Zn8 3.001416 1_665
Ti0 Zn11 3.001801 1_665
Ti0 Zn2 3.008092 1_565
Ti0 Zn1 3.008124 1_655
Ti1 Zn4 2.711114 1_555
Ti1 Zn6 2.711365 1_555
Ti1 Zn10 3.002020 1_565
Ti1 Zn8 3.002221 1_565
Ti1 Zn1 3.008008 1_555
Ti1 Zn3 3.008137 1_565
Ti2 Zn5 2.711121 1_555
Ti2 Zn4 2.711159 1_555
Ti2 Zn8 3.001905 1_655
Ti2 Zn9 3.001909 1_655
Ti2 Zn2 3.007991 1_555
Ti2 Zn3 3.008147 1_655
Ti3 Zn5 2.711096 1_555
Ti3 Zn6 2.711367 1_555
Ti3 Zn10 3.001959 1_556
Ti3 Zn9 3.002209 1_556
Ti3 Zn0 3.008007 1_555
Ti3 Zn3 3.008126 1_556
Ti4 Zn7 2.710821 1_555
Ti4 Zn5 2.711153 1_555
Ti4 Zn9 3.001403 1_656
Ti4 Zn11 3.001784 1_656
Ti4 Zn2 3.008070 1_556
Ti4 Zn0 3.008087 1_655
Ti5 Zn7 2.710797 1_555
Ti5 Zn6 2.711405 1_555
Ti5 Zn10 3.001472 1_566
Ti5 Zn11 3.002096 1_566
Ti5 Zn1 3.008070 1_556
Ti5 Zn0 3.008070 1_565
Ti6 Zn0 2.710926 1_555
Ti6 Zn3 2.711309 1_555
Ti6 Zn11 3.002002 1_556
Ti6 Zn8 3.002259 1_555
Ti6 Zn5 3.008122 1_455
Ti6 Zn6 3.008201 1_545
Ti7 Zn2 2.710759 1_555
Ti7 Zn0 2.710960 1_555
Ti7 Zn8 3.001523 1_655
Ti7 Zn10 3.001694 1_556
Ti7 Zn5 3.008085 1_555
Ti7 Zn7 3.008110 1_545
Ti8 Zn0 2.710937 1_555
Ti8 Zn1 2.710978 1_555
Ti8 Zn9 3.001824 1_556
Ti8 Zn8 3.001854 1_565
Ti8 Zn7 3.008099 1_455
Ti8 Zn6 3.008138 1_555
Ti9 Zn2 2.710750 1_555
Ti9 Zn1 2.710987 1_555
Ti9 Zn9 3.001524 1_655
Ti9 Zn10 3.001757 1_565
Ti9 Zn4 3.008056 1_555
Ti9 Zn7 3.008087 1_554
Ti10 Zn1 2.710951 1_555
Ti10 Zn3 2.711289 1_555
Ti10 Zn11 3.002020 1_565
Ti10 Zn9 3.002252 1_555
Ti10 Zn4 3.008165 1_455
Ti10 Zn6 3.008197 1_554
Ti11 Zn2 2.710731 1_555
Ti11 Zn3 2.711311 1_555
Ti11 Zn11 3.001696 1_655
Ti11 Zn10 3.002156 1_555
Ti11 Zn4 3.008145 1_545
Ti11 Zn5 3.008158 1_554
Zn0 Zn9 2.495553 1_556
Zn0 Zn11 2.495557 1_556
Zn0 Zn10 2.495575 1_556
Zn0 Zn3 2.730539 1_556
Zn0 Zn1 2.730961 1_546
Zn0 Zn2 2.731168 1_456
Zn1 Zn11 2.495557 1_565
Zn1 Zn8 2.495567 1_565
Zn1 Zn10 2.495595 1_565
Zn1 Zn3 2.730532 1_565
Zn1 Zn2 2.731165 1_465
Zn2 Zn9 2.495451 1_655
Zn2 Zn8 2.495453 1_655
Zn2 Zn3 2.730743 1_655
Zn3 Zn9 2.495706 1_555
Zn3 Zn8 2.495728 1_555
Zn4 Zn9 2.495579 1_655
Zn4 Zn6 2.730370 1_654
Zn4 Zn5 2.730583 1_564
Zn4 Zn7 2.730766 1_554
Zn5 Zn8 2.495564 1_655
Zn5 Zn6 2.730402 1_645
Zn5 Zn7 2.730816 1_545
Zn6 Zn9 2.495657 1_556
Zn6 Zn8 2.495681 1_565
Zn6 Zn7 2.730585 1_455
Zn7 Zn8 2.495402 1_665
Zn7 Zn9 2.495410 1_656
Zn10 Zn7 2.495383 1_544
Zn10 Zn5 2.495530 1_554
Zn10 Zn4 2.495532 1_545
Zn10 Zn3 2.495734 1_555
Zn11 Zn2 2.495442 1_455
Zn11 Zn4 2.495617 1_445
Zn11 Zn5 2.495619 1_454
Zn11 Zn6 2.495725 1_544
C0 Ti9 2.141910 1_555
C0 Ti4 2.142112 1_554
C0 Ti11 2.142133 1_555
C0 Ti5 2.142261 1_554
C0 Ti10 2.142313 1_555
C0 Ti3 2.142428 1_554
C1 Ti7 2.141907 1_555
C1 Ti11 2.142118 1_555
C1 Ti0 2.142146 1_545
C1 Ti5 2.142237 1_545
C1 Ti6 2.142258 1_555
C1 Ti1 2.142412 1_545
C2 Ti8 2.142011 1_555
C2 Ti4 2.142080 1_455
C2 Ti0 2.142139 1_455
C2 Ti6 2.142190 1_555
C2 Ti10 2.142227 1_555
C2 Ti2 2.142268 1_455
C3 Ti9 2.141939 1_555
C3 Ti7 2.141950 1_555
C3 Ti8 2.142113 1_555
C3 Ti2 2.142273 1_555
C3 Ti3 2.142402 1_555
C3 Ti1 2.142408 1_555
