# generated using pymatgen
data_SiBHC3NCl2
_symmetry_space_group_name_H-M   'P 1'
_cell_length_a   10.23660900
_cell_length_b   8.45942200
_cell_length_c   8.92807008
_cell_angle_alpha   82.32824072
_cell_angle_beta   90.00000000
_cell_angle_gamma   90.00000000
_symmetry_Int_Tables_number   1
_chemical_formula_structural   SiBHC3NCl2
_chemical_formula_sum   'Si4 B4 H4 C12 N4 Cl8'
_cell_volume   766.21310647
_cell_formula_units_Z   4
loop_
 _symmetry_equiv_pos_site_id
 _symmetry_equiv_pos_as_xyz
  1  'x, y, z'
loop_
 _atom_site_type_symbol
 _atom_site_label
 _atom_site_symmetry_multiplicity
 _atom_site_fract_x
 _atom_site_fract_y
 _atom_site_fract_z
 _atom_site_occupancy
  Si  Si0  1  0.94721700  0.34786300  0.75434000  1
  Si  Si1  1  0.44721700  0.15213700  0.24566000  1
  Si  Si2  1  0.05278300  0.65213700  0.24566000  1
  Si  Si3  1  0.55278300  0.84786300  0.75434000  1
  B  B0  1  0.92965600  0.41409200  0.05746400  1
  B  B1  1  0.42965600  0.08590800  0.94253600  1
  B  B2  1  0.07034400  0.58590800  0.94253600  1
  B  B3  1  0.57034400  0.91409200  0.05746400  1
  H  H0  1  0.10571400  0.32803200  0.95008500  1
  H  H1  1  0.60571400  0.17196800  0.04991500  1
  H  H2  1  0.89428600  0.67196800  0.04991500  1
  H  H3  1  0.39428600  0.82803200  0.95008500  1
  C  C0  1  0.00271200  0.44118200  0.55743800  1
  C  C1  1  0.50271200  0.05881800  0.44256200  1
  C  C2  1  0.99728800  0.55881800  0.44256200  1
  C  C3  1  0.49728800  0.94118200  0.55743800  1
  C  C4  1  0.05393100  0.28429500  0.58924500  1
  C  C5  1  0.55393100  0.21570500  0.41075500  1
  C  C6  1  0.94606900  0.71570500  0.41075500  1
  C  C7  1  0.44606900  0.78429500  0.58924500  1
  C  C8  1  0.03643800  0.16786900  0.69634200  1
  C  C9  1  0.53643800  0.33213100  0.30365800  1
  C  C10  1  0.96356200  0.83213100  0.30365800  1
  C  C11  1  0.46356200  0.66786900  0.69634200  1
  N  N0  1  0.03103300  0.40792000  0.92060000  1
  N  N1  1  0.53103300  0.09208000  0.07940000  1
  N  N2  1  0.96896700  0.59208000  0.07940000  1
  N  N3  1  0.46896700  0.90792000  0.92060000  1
  Cl  Cl0  1  0.95458700  0.26212100  0.21527000  1
  Cl  Cl1  1  0.45458700  0.23787900  0.78473000  1
  Cl  Cl2  1  0.04541300  0.73787900  0.78473000  1
  Cl  Cl3  1  0.54541300  0.76212100  0.21527000  1
  Cl  Cl4  1  0.76055200  0.41451800  0.97575200  1
  Cl  Cl5  1  0.26055200  0.08548200  0.02424800  1
  Cl  Cl6  1  0.23944800  0.58548200  0.02424800  1
  Cl  Cl7  1  0.73944800  0.91451800  0.97575200  1
loop_
_geom_bond_atom_site_label_1
_geom_bond_atom_site_label_2
_geom_bond_distance
_geom_bond_site_symmetry_2
B0 N2 1.595645 1_555
B0 N0 1.609290 1_654
B0 Cl0 1.794233 1_555
B0 Cl4 1.878314 1_554
B1 N3 1.595645 1_545
B1 N1 1.609290 1_556
B1 Cl1 1.794233 1_555
B1 Cl5 1.878314 1_556
B2 N0 1.595645 1_555
B2 N2 1.609290 1_456
B2 Cl2 1.794233 1_555
B2 Cl6 1.878314 1_556
B3 N1 1.595645 1_565
B3 N3 1.609290 1_554
B3 Cl3 1.794233 1_555
B3 Cl7 1.878314 1_554
H0 N0 1.030991 1_555
H1 N1 1.030991 1_555
H2 N2 1.030991 1_555
H3 N3 1.030991 1_555
C0 C2 1.331453 1_455
C0 C4 1.419966 1_555
C0 Si0 1.914624 1_455
C1 C3 1.331453 1_545
C1 C5 1.419966 1_555
C1 Si1 1.914624 1_555
C2 C6 1.419966 1_555
C2 Si2 1.914624 1_655
C3 C7 1.419966 1_555
C3 Si3 1.914624 1_555
C4 C8 1.290314 1_555
C4 Si0 1.966401 1_455
C5 C9 1.290314 1_555
C5 Si1 1.966401 1_555
C6 Si2 1.966401 1_655
C7 Si3 1.966401 1_555
C8 Si0 1.905581 1_455
C9 Si1 1.905581 1_555
C10 C6 1.290314 1_555
C10 Si2 1.905581 1_655
C11 C7 1.290314 1_555
C11 Si3 1.905581 1_555
N0 Si0 1.843638 1_455
N1 Si1 1.843638 1_555
N2 Si2 1.843638 1_655
N3 Si3 1.843638 1_555
