# generated using pymatgen
data_Nb6InCl15
_symmetry_space_group_name_H-M   'P 1'
_cell_length_a   9.45601400
_cell_length_b   13.64630000
_cell_length_c   18.16375300
_cell_angle_alpha   90.00000000
_cell_angle_beta   90.00000000
_cell_angle_gamma   90.00000000
_symmetry_Int_Tables_number   1
_chemical_formula_structural   Nb6InCl15
_chemical_formula_sum   'Nb24 In4 Cl60'
_cell_volume   2343.84349152
_cell_formula_units_Z   4
loop_
 _symmetry_equiv_pos_site_id
 _symmetry_equiv_pos_as_xyz
  1  'x, y, z'
loop_
 _atom_site_type_symbol
 _atom_site_label
 _atom_site_symmetry_multiplicity
 _atom_site_fract_x
 _atom_site_fract_y
 _atom_site_fract_z
 _atom_site_occupancy
  Nb  Nb0  1  0.64726400  0.39113200  0.02914000  1
  Nb  Nb1  1  0.61765600  0.00000000  0.25000000  1
  Nb  Nb2  1  0.64726400  0.60886800  0.02914000  1
  Nb  Nb3  1  0.83328200  0.10944600  0.16778300  1
  Nb  Nb4  1  0.83328200  0.89055400  0.16778300  1
  Nb  Nb5  1  0.35273600  0.60886800  0.52914000  1
  Nb  Nb6  1  0.83328200  0.89055400  0.33221700  1
  Nb  Nb7  1  0.57985100  0.50000000  0.60591400  1
  Nb  Nb8  1  0.05067600  0.00000000  0.25000000  1
  Nb  Nb9  1  0.83328200  0.10944600  0.33221700  1
  Nb  Nb10  1  0.16671800  0.10944600  0.66778300  1
  Nb  Nb11  1  0.64726400  0.39113200  0.47086000  1
  Nb  Nb12  1  0.42014900  0.50000000  0.10591400  1
  Nb  Nb13  1  0.64726400  0.60886800  0.47086000  1
  Nb  Nb14  1  0.16671800  0.89055400  0.66778300  1
  Nb  Nb15  1  0.35273600  0.39113200  0.97086000  1
  Nb  Nb16  1  0.57985100  0.50000000  0.89408600  1
  Nb  Nb17  1  0.38234400  0.00000000  0.75000000  1
  Nb  Nb18  1  0.35273600  0.39113200  0.52914000  1
  Nb  Nb19  1  0.16671800  0.10944600  0.83221700  1
  Nb  Nb20  1  0.16671800  0.89055400  0.83221700  1
  Nb  Nb21  1  0.35273600  0.60886800  0.97086000  1
  Nb  Nb22  1  0.94932400  0.00000000  0.75000000  1
  Nb  Nb23  1  0.42014900  0.50000000  0.39408600  1
  In  In0  1  0.31763300  0.25491300  0.25000000  1
  In  In1  1  0.68236700  0.74508700  0.75000000  1
  In  In2  1  0.68236700  0.25491300  0.75000000  1
  In  In3  1  0.31763300  0.74508700  0.25000000  1
  Cl  Cl0  1  0.23230000  0.37389500  0.40747500  1
  Cl  Cl1  1  0.76770000  0.37389500  0.90747500  1
  Cl  Cl2  1  0.15537200  0.74657500  0.75000000  1
  Cl  Cl3  1  0.84462800  0.74657500  0.25000000  1
  Cl  Cl4  1  0.83414600  0.74965700  0.43534500  1
  Cl  Cl5  1  0.84462800  0.25342500  0.25000000  1
  Cl  Cl6  1  0.57364500  0.87564100  0.34566400  1
  Cl  Cl7  1  0.50000000  0.75249900  0.50000000  1
  Cl  Cl8  1  0.84199200  0.50000000  0.06912400  1
  Cl  Cl9  1  0.50000000  0.24750100  0.00000000  1
  Cl  Cl10  1  0.09345200  0.87527700  0.15213600  1
  Cl  Cl11  1  0.09345200  0.12472300  0.34786400  1
  Cl  Cl12  1  0.15800800  0.50000000  0.56912400  1
  Cl  Cl13  1  0.31338200  0.50000000  0.25000000  1
  Cl  Cl14  1  0.90654800  0.12472300  0.84786400  1
  Cl  Cl15  1  0.09345200  0.12472300  0.15213600  1
  Cl  Cl16  1  0.09345200  0.87527700  0.34786400  1
  Cl  Cl17  1  0.76770000  0.62610500  0.90747500  1
  Cl  Cl18  1  0.84199200  0.50000000  0.43087600  1
  Cl  Cl19  1  0.16585400  0.74965700  0.56465500  1
  Cl  Cl20  1  0.50000000  0.24750100  0.50000000  1
  Cl  Cl21  1  0.57364500  0.87564100  0.15433600  1
  Cl  Cl22  1  0.66710800  0.00000000  0.75000000  1
  Cl  Cl23  1  0.83414600  0.74965700  0.06465500  1
  Cl  Cl24  1  0.50000000  0.75249900  0.00000000  1
  Cl  Cl25  1  0.57855300  0.62392100  0.34045400  1
  Cl  Cl26  1  0.23230000  0.37389500  0.09252500  1
  Cl  Cl27  1  0.15537200  0.25342500  0.75000000  1
  Cl  Cl28  1  0.83063700  0.00000000  0.05909200  1
  Cl  Cl29  1  0.90654800  0.87527700  0.65213600  1
  Cl  Cl30  1  0.57364500  0.12435900  0.34566400  1
  Cl  Cl31  1  0.57855300  0.37607900  0.15954600  1
  Cl  Cl32  1  0.57364500  0.12435900  0.15433600  1
  Cl  Cl33  1  0.42144700  0.37607900  0.65954600  1
  Cl  Cl34  1  0.76770000  0.37389500  0.59252500  1
  Cl  Cl35  1  0.42635500  0.87564100  0.65433600  1
  Cl  Cl36  1  0.83414600  0.25034300  0.43534500  1
  Cl  Cl37  1  0.15800800  0.50000000  0.93087600  1
  Cl  Cl38  1  0.68661800  0.50000000  0.75000000  1
  Cl  Cl39  1  0.23230000  0.62610500  0.40747500  1
  Cl  Cl40  1  0.16585400  0.25034300  0.93534500  1
  Cl  Cl41  1  0.42144700  0.62392100  0.65954600  1
  Cl  Cl42  1  0.16936300  0.00000000  0.94090800  1
  Cl  Cl43  1  0.23230000  0.62610500  0.09252500  1
  Cl  Cl44  1  0.42144700  0.37607900  0.84045400  1
  Cl  Cl45  1  0.42635500  0.12435900  0.65433600  1
  Cl  Cl46  1  0.90654800  0.12472300  0.65213600  1
  Cl  Cl47  1  0.83414600  0.25034300  0.06465500  1
  Cl  Cl48  1  0.42144700  0.62392100  0.84045400  1
  Cl  Cl49  1  0.16585400  0.74965700  0.93534500  1
  Cl  Cl50  1  0.76770000  0.62610500  0.59252500  1
  Cl  Cl51  1  0.57855300  0.62392100  0.15954600  1
  Cl  Cl52  1  0.57855300  0.37607900  0.34045400  1
  Cl  Cl53  1  0.16936300  0.00000000  0.55909200  1
  Cl  Cl54  1  0.42635500  0.12435900  0.84566400  1
  Cl  Cl55  1  0.33289200  0.00000000  0.25000000  1
  Cl  Cl56  1  0.83063700  0.00000000  0.44090800  1
  Cl  Cl57  1  0.90654800  0.87527700  0.84786400  1
  Cl  Cl58  1  0.42635500  0.87564100  0.84566400  1
  Cl  Cl59  1  0.16585400  0.25034300  0.56465500  1
loop_
_geom_bond_atom_site_label_1
_geom_bond_atom_site_label_2
_geom_bond_distance
_geom_bond_site_symmetry_2
Cl0 Nb23 2.485111 1_555
Cl0 Nb18 2.497183 1_555
Cl1 Nb16 2.485111 1_555
Cl1 Nb0 2.497183 1_556
Cl2 Nb14 2.470228 1_555
Cl2 Nb20 2.470228 1_555
Cl3 Nb6 2.470228 1_555
Cl3 Nb4 2.470228 1_555
Cl4 Nb6 2.684358 1_555
Cl4 Nb13 2.688900 1_555
Cl5 Nb9 2.470228 1_555
Cl5 Nb3 2.470228 1_555
Cl6 Nb1 2.464235 1_565
Cl6 Nb6 2.475629 1_555
Cl7 Nb13 2.461913 1_555
Cl7 Nb5 2.461913 1_555
Cl8 Nb2 2.474908 1_555
Cl8 Nb0 2.474908 1_555
Cl9 Nb0 2.461913 1_555
Cl9 Nb15 2.461913 1_554
Cl10 Nb4 2.485292 1_455
Cl10 Nb8 2.494038 1_565
Cl11 Nb9 2.485292 1_455
Cl11 Nb8 2.494038 1_555
Cl12 Nb5 2.474908 1_555
Cl12 Nb18 2.474908 1_555
Cl13 Nb12 2.805122 1_555
Cl13 Nb23 2.805122 1_555
Cl14 Nb19 2.485292 1_655
Cl14 Nb22 2.494038 1_555
Cl15 Nb3 2.485292 1_455
Cl15 Nb8 2.494038 1_555
Cl16 Nb6 2.485292 1_455
Cl16 Nb8 2.494038 1_565
Cl17 Nb16 2.485111 1_555
Cl17 Nb2 2.497183 1_556
Cl18 Nb13 2.474908 1_555
Cl18 Nb11 2.474908 1_555
Cl19 Nb14 2.684358 1_555
Cl19 Nb5 2.688900 1_555
Cl20 Nb11 2.461913 1_555
Cl20 Nb18 2.461913 1_555
Cl21 Nb1 2.464235 1_565
Cl21 Nb4 2.475629 1_555
Cl22 Nb22 2.668638 1_555
Cl22 Nb17 2.692732 1_555
Cl23 Nb4 2.684358 1_555
Cl23 Nb2 2.688900 1_555
Cl24 Nb2 2.461913 1_555
Cl24 Nb21 2.461913 1_554
Cl25 Nb23 2.460141 1_555
Cl25 Nb13 2.464733 1_555
Cl26 Nb12 2.485111 1_555
Cl26 Nb15 2.497183 1_554
Cl27 Nb10 2.470228 1_555
Cl27 Nb19 2.470228 1_555
Cl28 Nb3 2.475657 1_555
Cl28 Nb4 2.475657 1_545
Cl29 Nb14 2.485292 1_655
Cl29 Nb22 2.494038 1_565
Cl30 Nb1 2.464235 1_555
Cl30 Nb9 2.475629 1_555
Cl31 Nb12 2.460141 1_555
Cl31 Nb0 2.464733 1_555
Cl32 Nb1 2.464235 1_555
Cl32 Nb3 2.475629 1_555
Cl33 Nb7 2.460141 1_555
Cl33 Nb18 2.464733 1_555
Cl34 Nb7 2.485111 1_555
Cl34 Nb11 2.497183 1_555
Cl35 Nb17 2.464235 1_565
Cl35 Nb14 2.475629 1_555
Cl36 Nb9 2.684358 1_555
Cl36 Nb11 2.688900 1_555
Cl37 Nb21 2.474908 1_555
Cl37 Nb15 2.474908 1_555
Cl38 Nb16 2.805122 1_555
Cl38 Nb7 2.805122 1_555
Cl39 Nb23 2.485111 1_555
Cl39 Nb5 2.497183 1_555
Cl40 Nb19 2.684358 1_555
Cl40 Nb15 2.688900 1_555
Cl41 Nb7 2.460141 1_555
Cl41 Nb5 2.464733 1_555
Cl42 Nb19 2.475657 1_555
Cl42 Nb20 2.475657 1_545
Cl43 Nb12 2.485111 1_555
Cl43 Nb21 2.497183 1_554
Cl44 Nb16 2.460141 1_555
Cl44 Nb15 2.464733 1_555
Cl45 Nb17 2.464235 1_555
Cl45 Nb10 2.475629 1_555
Cl46 Nb10 2.485292 1_655
Cl46 Nb22 2.494038 1_555
Cl47 Nb3 2.684358 1_555
Cl47 Nb0 2.688900 1_555
Cl48 Nb16 2.460141 1_555
Cl48 Nb21 2.464733 1_555
Cl49 Nb20 2.684358 1_555
Cl49 Nb21 2.688900 1_555
Cl50 Nb7 2.485111 1_555
Cl50 Nb13 2.497183 1_555
Cl51 Nb12 2.460141 1_555
Cl51 Nb2 2.464733 1_555
Cl52 Nb23 2.460141 1_555
Cl52 Nb11 2.464733 1_555
Cl53 Nb10 2.475657 1_555
Cl53 Nb14 2.475657 1_545
Cl54 Nb17 2.464235 1_555
Cl54 Nb19 2.475629 1_555
Cl55 Nb8 2.668638 1_555
Cl55 Nb1 2.692732 1_555
Cl56 Nb9 2.475657 1_555
Cl56 Nb6 2.475657 1_545
Cl57 Nb20 2.485292 1_655
Cl57 Nb22 2.494038 1_565
Cl58 Nb17 2.464235 1_565
Cl58 Nb20 2.475629 1_555
Cl59 Nb10 2.684358 1_555
Cl59 Nb18 2.688900 1_555
