# generated using pymatgen
data_CeCu4Sn
_symmetry_space_group_name_H-M   'P 1'
_cell_length_a   7.91878500
_cell_length_b   5.78285000
_cell_length_c   9.17768692
_cell_angle_alpha   89.93492979
_cell_angle_beta   90.00000000
_cell_angle_gamma   90.00000000
_symmetry_Int_Tables_number   1
_chemical_formula_structural   CeCu4Sn
_chemical_formula_sum   'Ce4 Cu16 Sn4'
_cell_volume   420.27488448
_cell_formula_units_Z   4
loop_
 _symmetry_equiv_pos_site_id
 _symmetry_equiv_pos_as_xyz
  1  'x, y, z'
loop_
 _atom_site_type_symbol
 _atom_site_label
 _atom_site_symmetry_multiplicity
 _atom_site_fract_x
 _atom_site_fract_y
 _atom_site_fract_z
 _atom_site_occupancy
  Ce  Ce0  1  0.12290600  0.87692200  0.97333700  1
  Ce  Ce1  1  0.87562300  0.37611200  0.52698000  1
  Ce  Ce2  1  0.62290600  0.12307800  0.02666300  1
  Ce  Ce3  1  0.37562300  0.62388800  0.47302000  1
  Cu  Cu0  1  0.85668100  0.08015000  0.78375000  1
  Cu  Cu1  1  0.64191500  0.42285900  0.28294000  1
  Cu  Cu2  1  0.14191500  0.57714100  0.71706000  1
  Cu  Cu3  1  0.33035800  0.37846900  0.88303600  1
  Cu  Cu4  1  0.43094700  0.77428800  0.79689800  1
  Cu  Cu5  1  0.50198800  0.64068800  0.05536200  1
  Cu  Cu6  1  0.66637500  0.88264700  0.61556000  1
  Cu  Cu7  1  0.99543200  0.86056100  0.56235000  1
  Cu  Cu8  1  0.06653300  0.70886500  0.30155700  1
  Cu  Cu9  1  0.00198800  0.35931200  0.94463800  1
  Cu  Cu10  1  0.83035800  0.62153100  0.11696400  1
  Cu  Cu11  1  0.16637500  0.11735300  0.38444000  1
  Cu  Cu12  1  0.49543200  0.13943900  0.43765000  1
  Cu  Cu13  1  0.35668100  0.91985000  0.21625000  1
  Cu  Cu14  1  0.93094700  0.22571200  0.20310200  1
  Cu  Cu15  1  0.56653300  0.29113500  0.69844300  1
  Sn  Sn0  1  0.25441000  0.37529100  0.16286100  1
  Sn  Sn1  1  0.25290000  0.11682900  0.66070600  1
  Sn  Sn2  1  0.75290000  0.88317100  0.33929400  1
  Sn  Sn3  1  0.75441000  0.62470900  0.83713900  1
loop_
_geom_bond_atom_site_label_1
_geom_bond_atom_site_label_2
_geom_bond_distance
_geom_bond_site_symmetry_2
Ce0 Cu13 2.908609 1_556
Ce0 Cu2 2.927336 1_555
Ce0 Cu9 2.960805 1_565
Ce0 Cu0 2.974634 1_465
Ce0 Cu4 2.987778 1_555
Ce0 Cu10 3.046487 1_456
Ce0 Cu9 3.153986 1_555
Ce0 Cu8 3.195477 1_556
Ce0 Cu14 3.291696 1_466
Ce0 Sn1 3.347808 1_565
Ce0 Cu5 3.382578 1_556
Ce0 Cu3 3.420472 1_555
Ce0 Cu3 3.433979 1_565
Ce0 Sn3 3.494111 1_455
Ce0 Sn0 3.525219 1_566
Ce0 Sn0 3.537430 1_556
Ce1 Cu0 2.914778 1_555
Ce1 Cu1 2.917720 1_555
Ce1 Cu15 2.950742 1_555
Ce1 Cu2 2.974219 1_655
Ce1 Cu7 2.975892 1_555
Ce1 Cu11 3.042362 1_655
Ce1 Cu14 3.128852 1_555
Ce1 Cu7 3.145117 1_545
Ce1 Cu8 3.203028 1_655
Ce1 Sn3 3.331684 1_555
Ce1 Cu6 3.397716 1_545
Ce1 Cu12 3.407623 1_555
Ce1 Cu6 3.462980 1_555
Ce1 Sn2 3.471111 1_545
Ce1 Sn2 3.535267 1_555
Ce1 Sn1 3.560318 1_655
Ce2 Cu0 2.908609 1_554
Ce2 Cu1 2.927336 1_555
Ce2 Cu5 2.960805 1_545
Ce2 Cu13 2.974634 1_545
Ce2 Cu14 2.987778 1_555
Ce2 Cu3 3.046487 1_554
Ce2 Cu5 3.153986 1_555
Ce2 Cu15 3.195477 1_554
Ce2 Cu4 3.291696 1_544
Ce2 Sn2 3.347808 1_545
Ce2 Cu9 3.382578 1_654
Ce2 Cu10 3.420472 1_555
Ce2 Cu10 3.433979 1_545
Ce2 Sn0 3.494111 1_555
Ce2 Sn3 3.525219 1_544
Ce2 Sn3 3.537430 1_554
Ce3 Cu13 2.914778 1_555
Ce3 Cu2 2.917720 1_555
Ce3 Cu8 2.950742 1_555
Ce3 Cu1 2.974219 1_555
Ce3 Cu12 2.975892 1_555
Ce3 Cu6 3.042362 1_555
Ce3 Cu4 3.128852 1_555
Ce3 Cu12 3.145117 1_565
Ce3 Cu15 3.203028 1_555
Ce3 Sn0 3.331684 1_555
Ce3 Cu11 3.397716 1_565
Ce3 Cu7 3.407623 1_455
Ce3 Cu11 3.462980 1_555
Ce3 Sn1 3.471111 1_565
Ce3 Sn1 3.535267 1_555
Ce3 Sn2 3.560318 1_555
Cu0 Cu6 2.441757 1_545
Cu0 Cu9 2.473023 1_655
Cu0 Cu7 2.637117 1_545
Cu0 Cu15 2.716336 1_555
Cu0 Sn3 2.798152 1_545
Cu0 Sn1 3.341263 1_655
Cu1 Cu10 2.421388 1_555
Cu1 Cu12 2.458157 1_555
Cu1 Cu14 2.660277 1_555
Cu1 Cu5 2.677871 1_555
Cu1 Sn2 2.851109 1_555
Cu1 Sn2 3.282753 1_545
Cu2 Cu3 2.421388 1_555
Cu2 Cu7 2.458157 1_455
Cu2 Cu4 2.660277 1_555
Cu2 Cu9 2.677871 1_555
Cu2 Sn1 2.851109 1_555
Cu2 Sn1 3.282753 1_565
Cu3 Cu4 2.548467 1_555
Cu3 Cu5 2.579400 1_556
Cu3 Sn1 2.614579 1_555
Cu3 Sn0 2.637671 1_556
Cu3 Cu9 2.663322 1_555
Cu4 Cu5 2.556574 1_556
Cu4 Cu6 2.575983 1_555
Cu4 Sn3 2.728521 1_555
Cu4 Sn1 2.732833 1_565
Cu5 Sn0 2.677501 1_555
Cu5 Sn3 2.831183 1_554
Cu6 Sn3 2.615240 1_555
Cu6 Sn2 2.626429 1_555
Cu6 Cu7 2.654199 1_555
Cu7 Cu8 2.611522 1_655
Cu7 Sn1 2.677857 1_665
Cu7 Sn2 2.809948 1_555
Cu8 Sn2 2.702778 1_455
Cu8 Sn0 2.749613 1_555
Cu9 Sn3 2.677501 1_455
Cu9 Sn0 2.831183 1_556
Cu10 Cu14 2.548467 1_555
Cu10 Cu8 2.573874 1_655
Cu10 Cu9 2.579400 1_654
Cu10 Sn2 2.614579 1_555
Cu10 Sn3 2.637671 1_554
Cu10 Cu5 2.663322 1_555
Cu11 Cu13 2.441757 1_545
Cu11 Cu14 2.575983 1_455
Cu11 Cu7 2.588074 1_445
Cu11 Cu8 2.605361 1_545
Cu11 Sn0 2.615240 1_555
Cu11 Sn1 2.626429 1_555
Cu11 Cu12 2.654199 1_555
Cu12 Cu6 2.588074 1_545
Cu12 Cu15 2.611522 1_555
Cu12 Cu13 2.637117 1_545
Cu12 Sn2 2.677857 1_545
Cu12 Sn1 2.809948 1_555
Cu13 Cu5 2.473023 1_555
Cu13 Cu8 2.716336 1_555
Cu13 Sn0 2.798152 1_565
Cu13 Sn2 3.341263 1_555
Cu14 Cu9 2.556574 1_654
Cu14 Sn0 2.728521 1_655
Cu14 Sn2 2.732833 1_545
Cu15 Cu3 2.573874 1_555
Cu15 Cu6 2.605361 1_545
Cu15 Sn1 2.702778 1_555
Cu15 Sn3 2.749613 1_555
