# generated using pymatgen
data_Yb2Te4O11
_symmetry_space_group_name_H-M   'P 1'
_cell_length_a   6.70457721
_cell_length_b   6.70457721
_cell_length_c   17.27554160
_cell_angle_alpha   81.36258116
_cell_angle_beta   81.36258116
_cell_angle_gamma   46.72332634
_symmetry_Int_Tables_number   1
_chemical_formula_structural   Yb2Te4O11
_chemical_formula_sum   'Yb4 Te8 O22'
_cell_volume   557.75855242
_cell_formula_units_Z   2
loop_
 _symmetry_equiv_pos_site_id
 _symmetry_equiv_pos_as_xyz
  1  'x, y, z'
loop_
 _atom_site_type_symbol
 _atom_site_label
 _atom_site_symmetry_multiplicity
 _atom_site_fract_x
 _atom_site_fract_y
 _atom_site_fract_z
 _atom_site_occupancy
  Yb  Yb0  1  0.34013400  0.89430900  0.96639200  1
  Yb  Yb1  1  0.89430900  0.34013400  0.46639200  1
  Yb  Yb2  1  0.65986600  0.10569100  0.03360800  1
  Yb  Yb3  1  0.10569100  0.65986600  0.53360800  1
  Te  Te0  1  0.16680100  0.59953000  0.17661600  1
  Te  Te1  1  0.40047000  0.83319900  0.32338400  1
  Te  Te2  1  0.19831500  0.55170800  0.88210800  1
  Te  Te3  1  0.55170800  0.19831500  0.38210800  1
  Te  Te4  1  0.59953000  0.16680100  0.67661600  1
  Te  Te5  1  0.44829200  0.80168500  0.61789200  1
  Te  Te6  1  0.80168500  0.44829200  0.11789200  1
  Te  Te7  1  0.83319900  0.40047000  0.82338400  1
  O  O0  1  0.08631600  0.19102200  0.33675300  1
  O  O1  1  0.83088200  0.03193700  0.44883600  1
  O  O2  1  0.54952800  0.40700400  0.59077700  1
  O  O3  1  0.74259300  0.67482900  0.54544100  1
  O  O4  1  0.19102200  0.08631600  0.83675300  1
  O  O5  1  0.91368400  0.80897800  0.66324700  1
  O  O6  1  0.33144500  0.18051900  0.63528600  1
  O  O7  1  0.45047200  0.59299600  0.40922300  1
  O  O8  1  0.32517100  0.25740700  0.95455900  1
  O  O9  1  0.80897800  0.91368400  0.16324700  1
  O  O10  1  0.31114800  0.68885200  0.25000000  1
  O  O11  1  0.16911800  0.96806300  0.55116400  1
  O  O12  1  0.66855500  0.81948100  0.36471400  1
  O  O13  1  0.40700400  0.54952800  0.09077700  1
  O  O14  1  0.25740700  0.32517100  0.45455900  1
  O  O15  1  0.81948100  0.66855500  0.86471400  1
  O  O16  1  0.67482900  0.74259300  0.04544100  1
  O  O17  1  0.68885200  0.31114800  0.75000000  1
  O  O18  1  0.03193700  0.83088200  0.94883600  1
  O  O19  1  0.18051900  0.33144500  0.13528600  1
  O  O20  1  0.59299600  0.45047200  0.90922300  1
  O  O21  1  0.96806300  0.16911800  0.05116400  1
loop_
_geom_bond_atom_site_label_1
_geom_bond_atom_site_label_2
_geom_bond_distance
_geom_bond_site_symmetry_2
O0 Te1 1.826888 1_545
O0 Yb1 2.390490 1_455
O1 Te3 1.864358 1_555
O1 Yb3 2.274624 1_645
O1 Yb1 2.444232 1_555
O2 Te4 1.896520 1_555
O2 Te5 2.344493 1_555
O2 Yb3 2.483480 1_555
O2 Yb1 2.745624 1_555
O3 Te5 1.860211 1_555
O3 Yb1 2.304077 1_555
O3 Yb3 2.345227 1_655
O4 Te7 1.826888 1_455
O4 Yb0 2.390490 1_545
O5 Te4 1.826888 1_565
O5 Yb3 2.390490 1_655
O6 Te4 1.971796 1_555
O6 Te5 2.141416 1_545
O6 Yb3 2.852837 1_555
O7 Te1 1.896520 1_555
O7 Te3 2.344493 1_555
O7 Yb1 2.483480 1_555
O7 Yb3 2.745624 1_555
O8 Te2 1.860211 1_555
O8 Yb2 2.304077 1_556
O8 Yb0 2.345227 1_545
O9 Te0 1.826888 1_655
O9 Yb2 2.390490 1_565
O10 Te1 2.072103 1_555
O10 Te0 2.072103 1_555
O11 Te5 1.864358 1_555
O11 Yb1 2.274624 1_465
O11 Yb3 2.444232 1_555
O12 Te1 1.971796 1_555
O12 Te3 2.141416 1_565
O12 Yb1 2.852837 1_555
O13 Te0 1.896520 1_555
O13 Te6 2.344493 1_555
O13 Yb2 2.483480 1_555
O13 Yb0 2.745624 1_554
O14 Te3 1.860211 1_555
O14 Yb3 2.304077 1_555
O14 Yb1 2.345227 1_455
O15 Te7 1.971796 1_555
O15 Te2 2.141416 1_655
O15 Yb0 2.852837 1_555
O16 Te6 1.860211 1_555
O16 Yb0 2.304077 1_554
O16 Yb2 2.345227 1_565
O17 Te7 2.072103 1_555
O17 Te4 2.072103 1_555
O18 Te2 1.864358 1_555
O18 Yb2 2.274624 1_466
O18 Yb0 2.444232 1_555
O19 Te0 1.971796 1_555
O19 Te6 2.141416 1_455
O19 Yb2 2.852837 1_555
O20 Te7 1.896520 1_555
O20 Te2 2.344493 1_555
O20 Yb0 2.483480 1_555
O20 Yb2 2.745624 1_556
O21 Te6 1.864358 1_555
O21 Yb0 2.274624 1_644
O21 Yb2 2.444232 1_555
