# generated using pymatgen
data_ZrPbO3
_symmetry_space_group_name_H-M   'P 1'
_cell_length_a   6.04234100
_cell_length_b   8.38609900
_cell_length_c   11.95611900
_cell_angle_alpha   90.00000000
_cell_angle_beta   90.00000000
_cell_angle_gamma   90.00000000
_symmetry_Int_Tables_number   1
_chemical_formula_structural   ZrPbO3
_chemical_formula_sum   'Zr8 Pb8 O24'
_cell_volume   605.83651427
_cell_formula_units_Z   8
loop_
 _symmetry_equiv_pos_site_id
 _symmetry_equiv_pos_as_xyz
  1  'x, y, z'
loop_
 _atom_site_type_symbol
 _atom_site_label
 _atom_site_symmetry_multiplicity
 _atom_site_fract_x
 _atom_site_fract_y
 _atom_site_fract_z
 _atom_site_occupancy
  Zr  Zr0  1  0.74137800  0.75419200  0.38022000  1
  Zr  Zr1  1  0.24137800  0.75419200  0.11978000  1
  Zr  Zr2  1  0.25862200  0.75419200  0.61978000  1
  Zr  Zr3  1  0.25906900  0.25216300  0.61954600  1
  Zr  Zr4  1  0.24093100  0.25216300  0.11954600  1
  Zr  Zr5  1  0.74093100  0.25216300  0.38045400  1
  Zr  Zr6  1  0.75906900  0.25216300  0.88045400  1
  Zr  Zr7  1  0.75862200  0.75419200  0.88022000  1
  Pb  Pb0  1  0.30926800  0.98859300  0.86311000  1
  Pb  Pb1  1  0.69073200  0.98859300  0.13689000  1
  Pb  Pb2  1  0.80926800  0.98859300  0.63689000  1
  Pb  Pb3  1  0.30765500  0.48931300  0.85777100  1
  Pb  Pb4  1  0.69234500  0.48931300  0.14222900  1
  Pb  Pb5  1  0.19073200  0.98859300  0.36311000  1
  Pb  Pb6  1  0.80765500  0.48931300  0.64222900  1
  Pb  Pb7  1  0.19234500  0.48931300  0.35777100  1
  O  O0  1  0.00000000  0.77358600  0.00000000  1
  O  O1  1  0.45351600  0.75162300  0.76453200  1
  O  O2  1  0.53343400  0.27530500  0.24060400  1
  O  O3  1  0.21015400  0.50853800  0.62408900  1
  O  O4  1  0.95351600  0.75162300  0.73546800  1
  O  O5  1  0.00000000  0.79291000  0.50000000  1
  O  O6  1  0.78984600  0.50853800  0.37591100  1
  O  O7  1  0.54648400  0.75162300  0.23546800  1
  O  O8  1  0.50000000  0.79291000  0.00000000  1
  O  O9  1  0.71643800  0.00748900  0.85045900  1
  O  O10  1  0.03343400  0.27530500  0.25939600  1
  O  O11  1  0.00000000  0.24979600  0.50000000  1
  O  O12  1  0.71015400  0.50853800  0.87591100  1
  O  O13  1  0.21643800  0.00748900  0.64954100  1
  O  O14  1  0.04648400  0.75162300  0.26453200  1
  O  O15  1  0.50000000  0.77358600  0.50000000  1
  O  O16  1  0.46656600  0.27530500  0.75939600  1
  O  O17  1  0.78356200  0.00748900  0.35045900  1
  O  O18  1  0.50000000  0.24979600  0.00000000  1
  O  O19  1  0.28984600  0.50853800  0.12408900  1
  O  O20  1  0.28356200  0.00748900  0.14954100  1
  O  O21  1  0.50000000  0.24927700  0.50000000  1
  O  O22  1  0.96656600  0.27530500  0.74060400  1
  O  O23  1  0.00000000  0.24927700  0.00000000  1
loop_
_geom_bond_atom_site_label_1
_geom_bond_atom_site_label_2
_geom_bond_distance
_geom_bond_site_symmetry_2
O0 Zr1 2.050503 1_555
O0 Zr7 2.050503 1_454
O1 Zr2 2.093435 1_555
O1 Zr7 2.304852 1_555
O1 Pb0 2.469409 1_555
O1 Pb3 2.618859 1_555
O2 Zr5 2.098903 1_555
O2 Zr4 2.292661 1_555
O2 Pb4 2.350809 1_555
O3 Zr2 2.081429 1_555
O3 Zr3 2.170886 1_555
O3 Pb6 2.447005 1_455
O4 Zr7 2.093435 1_555
O4 Zr2 2.304852 1_655
O4 Pb2 2.469409 1_555
O4 Pb6 2.618859 1_555
O5 Zr2 2.144370 1_555
O5 Zr0 2.144370 1_455
O5 Pb2 2.588401 1_455
O5 Pb5 2.588401 1_555
O6 Zr0 2.081429 1_555
O6 Zr5 2.170886 1_555
O6 Pb7 2.447005 1_655
O7 Zr0 2.093435 1_555
O7 Zr1 2.304852 1_555
O7 Pb1 2.469409 1_555
O7 Pb4 2.618859 1_555
O8 Zr7 2.144370 1_554
O8 Zr1 2.144370 1_555
O8 Pb0 2.588401 1_554
O8 Pb1 2.588401 1_555
O9 Zr6 2.098832 1_555
O9 Zr7 2.168800 1_545
O9 Pb0 2.469994 1_545
O9 Pb2 2.619136 1_545
O10 Zr4 2.098903 1_555
O10 Zr5 2.292661 1_455
O10 Pb7 2.350809 1_555
O11 Zr5 2.119843 1_455
O11 Zr3 2.119843 1_555
O12 Zr7 2.081429 1_555
O12 Zr6 2.170886 1_555
O12 Pb3 2.447005 1_555
O13 Zr3 2.098832 1_555
O13 Zr2 2.168800 1_545
O13 Pb2 2.469994 1_445
O13 Pb0 2.619136 1_545
O14 Zr1 2.093435 1_555
O14 Zr0 2.304852 1_455
O14 Pb5 2.469409 1_555
O14 Pb7 2.618859 1_555
O15 Zr0 2.050503 1_555
O15 Zr2 2.050503 1_555
O16 Zr3 2.098903 1_555
O16 Zr6 2.292661 1_555
O16 Pb3 2.350809 1_555
O17 Zr5 2.098832 1_555
O17 Zr0 2.168800 1_545
O17 Pb5 2.469994 1_645
O17 Pb1 2.619136 1_545
O18 Zr4 2.119843 1_555
O18 Zr6 2.119843 1_554
O19 Zr1 2.081429 1_555
O19 Zr4 2.170886 1_555
O19 Pb4 2.447005 1_555
O20 Zr4 2.098832 1_555
O20 Zr1 2.168800 1_545
O20 Pb1 2.469994 1_545
O20 Pb5 2.619136 1_545
O21 Zr5 2.040299 1_555
O21 Zr3 2.040299 1_555
O22 Zr6 2.098903 1_555
O22 Zr3 2.292661 1_655
O22 Pb6 2.350809 1_555
O23 Zr4 2.040299 1_555
O23 Zr6 2.040299 1_454
