# generated using pymatgen
data_Zn6Sb5
_symmetry_space_group_name_H-M   'P 1'
_cell_length_a   8.14031939
_cell_length_b   8.14031765
_cell_length_c   8.14031873
_cell_angle_alpha   95.39802856
_cell_angle_beta   95.39801852
_cell_angle_gamma   95.39803524
_symmetry_Int_Tables_number   1
_chemical_formula_structural   Zn6Sb5
_chemical_formula_sum   'Zn12 Sb10'
_cell_volume   531.75224433
_cell_formula_units_Z   2
loop_
 _symmetry_equiv_pos_site_id
 _symmetry_equiv_pos_as_xyz
  1  'x, y, z'
loop_
 _atom_site_type_symbol
 _atom_site_label
 _atom_site_symmetry_multiplicity
 _atom_site_fract_x
 _atom_site_fract_y
 _atom_site_fract_z
 _atom_site_occupancy
  Zn  Zn0  1  0.62685472  0.61832587  0.99894772  1
  Zn  Zn1  1  0.11832587  0.12685472  0.49894772  1
  Zn  Zn2  1  0.88167413  0.87314528  0.50105228  1
  Zn  Zn3  1  0.87314528  0.50105228  0.88167413  1
  Zn  Zn4  1  0.00105228  0.37314528  0.38167413  1
  Zn  Zn5  1  0.49894772  0.11832587  0.12685472  1
  Zn  Zn6  1  0.61832587  0.99894772  0.62685472  1
  Zn  Zn7  1  0.99894772  0.62685472  0.61832587  1
  Zn  Zn8  1  0.50105228  0.88167413  0.87314528  1
  Zn  Zn9  1  0.38167413  0.00105228  0.37314528  1
  Zn  Zn10  1  0.37314528  0.38167413  0.00105228  1
  Zn  Zn11  1  0.12685472  0.49894772  0.11832587  1
  Sb  Sb0  1  0.62436698  0.25000000  0.87563302  1
  Sb  Sb1  1  0.87563302  0.62436698  0.25000000  1
  Sb  Sb2  1  0.37396789  0.37396789  0.37396789  1
  Sb  Sb3  1  0.12603211  0.12603211  0.12603211  1
  Sb  Sb4  1  0.37563302  0.75000000  0.12436698  1
  Sb  Sb5  1  0.87396789  0.87396789  0.87396789  1
  Sb  Sb6  1  0.75000000  0.12436698  0.37563302  1
  Sb  Sb7  1  0.62603211  0.62603211  0.62603211  1
  Sb  Sb8  1  0.25000000  0.87563302  0.62436698  1
  Sb  Sb9  1  0.12436698  0.37563302  0.75000000  1
loop_
_geom_bond_atom_site_label_1
_geom_bond_atom_site_label_2
_geom_bond_distance
_geom_bond_site_symmetry_2
Zn0 Zn3 2.528042 1_555
Zn0 Zn10 2.690921 1_556
Zn0 Zn8 2.705891 1_555
Zn1 Zn4 2.528042 1_555
Zn1 Zn2 2.690921 1_445
Zn1 Zn9 2.705891 1_555
Zn2 Zn7 2.528042 1_555
Zn2 Zn6 2.705891 1_555
Zn3 Zn7 2.705891 1_555
Zn4 Zn7 2.690921 1_455
Zn5 Zn9 2.528042 1_555
Zn5 Zn8 2.690921 1_544
Zn6 Zn8 2.528042 1_555
Zn6 Zn9 2.690921 1_565
Zn10 Zn11 2.528042 1_555
Zn10 Zn5 2.705891 1_555
Zn11 Zn3 2.690921 1_454
Zn11 Zn4 2.705891 1_555
Sb0 Zn5 2.640592 1_556
Sb0 Zn10 2.640593 1_556
Sb0 Zn3 2.731986 1_555
Sb0 Zn6 2.731986 1_545
Sb0 Zn8 3.068596 1_545
Sb0 Zn0 3.068596 1_555
Sb1 Zn4 2.640592 1_655
Sb1 Zn11 2.640593 1_655
Sb1 Zn2 2.731986 1_555
Sb1 Zn0 2.731987 1_554
Sb1 Zn3 3.068596 1_554
Sb1 Zn7 3.068596 1_555
Sb2 Zn9 3.041586 1_555
Sb2 Zn10 3.041586 1_555
Sb2 Zn4 3.041586 1_555
Sb2 Zn1 3.067227 1_555
Sb2 Zn5 3.067227 1_555
Sb2 Zn11 3.067227 1_555
Sb2 Sb3 3.149776 1_555
Sb2 Sb7 3.202224 1_555
Sb3 Zn11 3.041586 1_555
Sb3 Zn1 3.041586 1_555
Sb3 Zn5 3.041586 1_555
Sb3 Zn10 3.067227 1_555
Sb3 Zn4 3.067227 1_555
Sb3 Zn9 3.067228 1_555
Sb3 Sb5 3.202224 1_444
Sb4 Zn8 2.640592 1_554
Sb4 Zn0 2.640593 1_554
Sb4 Zn11 2.731986 1_555
Sb4 Zn9 2.731986 1_565
Sb4 Zn5 3.068596 1_565
Sb4 Zn10 3.068596 1_555
Sb5 Zn3 3.041586 1_555
Sb5 Zn2 3.041586 1_555
Sb5 Zn8 3.041586 1_555
Sb5 Zn0 3.067227 1_555
Sb5 Zn7 3.067227 1_555
Sb5 Zn6 3.067228 1_555
Sb5 Sb7 3.149776 1_555
Sb6 Zn6 2.640592 1_545
Sb6 Zn2 2.640592 1_545
Sb6 Zn4 2.731986 1_655
Sb6 Zn5 2.731987 1_555
Sb6 Zn9 3.068596 1_555
Sb6 Zn1 3.068597 1_655
Sb7 Zn6 3.041586 1_555
Sb7 Zn0 3.041586 1_555
Sb7 Zn7 3.041586 1_555
Sb7 Zn2 3.067227 1_555
Sb7 Zn8 3.067227 1_555
Sb7 Zn3 3.067227 1_555
Sb8 Zn9 2.640592 1_565
Sb8 Zn1 2.640592 1_565
Sb8 Zn7 2.731986 1_455
Sb8 Zn8 2.731987 1_555
Sb8 Zn6 3.068596 1_555
Sb8 Zn2 3.068597 1_455
Sb9 Zn7 2.640592 1_455
Sb9 Zn3 2.640593 1_455
Sb9 Zn1 2.731986 1_555
Sb9 Zn10 2.731987 1_556
Sb9 Zn11 3.068596 1_556
Sb9 Zn4 3.068596 1_555
