# generated using pymatgen
data_MoPt2Br
_symmetry_space_group_name_H-M   'P 1'
_cell_length_a   4.55694117
_cell_length_b   4.55694117
_cell_length_c   4.55694117
_cell_angle_alpha   60.00000000
_cell_angle_beta   60.00000000
_cell_angle_gamma   60.00000000
_symmetry_Int_Tables_number   1
_chemical_formula_structural   MoPt2Br
_chemical_formula_sum   'Mo1 Pt2 Br1'
_cell_volume   66.91219345
_cell_formula_units_Z   1
loop_
 _symmetry_equiv_pos_site_id
 _symmetry_equiv_pos_as_xyz
  1  'x, y, z'
loop_
 _atom_site_type_symbol
 _atom_site_label
 _atom_site_symmetry_multiplicity
 _atom_site_fract_x
 _atom_site_fract_y
 _atom_site_fract_z
 _atom_site_occupancy
  Mo  Mo0  1  0.75000000  0.75000000  0.75000000  1
  Pt  Pt0  1  0.50000000  0.50000000  0.50000000  1
  Pt  Pt1  1  0.25000000  0.25000000  0.25000000  1
  Br  Br0  1  0.00000000  0.00000000  0.00000000  1
loop_
_geom_bond_atom_site_label_1
_geom_bond_atom_site_label_2
_geom_bond_distance
_geom_bond_site_symmetry_2
Mo0 Pt0 2.790545 1_565
Mo0 Pt0 2.790545 1_555
Mo0 Pt0 2.790545 1_655
Mo0 Pt0 2.790545 1_556
Pt0 Pt1 2.790545 1_565
Pt0 Pt1 2.790545 1_655
Pt0 Pt1 2.790545 1_555
Pt0 Pt1 2.790545 1_556
Br0 Mo0 2.790545 1_454
Br0 Mo0 2.790545 1_444
Br0 Mo0 2.790545 1_544
Br0 Mo0 2.790545 1_445
Br0 Pt1 2.790545 1_555
Br0 Pt1 2.790545 1_545
Br0 Pt1 2.790545 1_455
Br0 Pt1 2.790545 1_554
Br0 Pt0 3.222244 1_554
Br0 Pt0 3.222244 1_455
Br0 Pt0 3.222244 1_454
Br0 Pt0 3.222244 1_445
Br0 Pt0 3.222244 1_544
Br0 Pt0 3.222244 1_545
