# generated using pymatgen
data_Sb8Pb5S17
_symmetry_space_group_name_H-M   'P 1'
_cell_length_a   9.10064488
_cell_length_b   9.10064488
_cell_length_c   20.48911981
_cell_angle_alpha   78.00217181
_cell_angle_beta   78.00217181
_cell_angle_gamma   82.23996383
_symmetry_Int_Tables_number   1
_chemical_formula_structural   Sb8Pb5S17
_chemical_formula_sum   'Sb16 Pb10 S34'
_cell_volume   1616.12382179
_cell_formula_units_Z   2
loop_
 _symmetry_equiv_pos_site_id
 _symmetry_equiv_pos_as_xyz
  1  'x, y, z'
loop_
 _atom_site_type_symbol
 _atom_site_label
 _atom_site_symmetry_multiplicity
 _atom_site_fract_x
 _atom_site_fract_y
 _atom_site_fract_z
 _atom_site_occupancy
  Sb  Sb0  1  0.18324800  0.79276700  0.02987500  1
  Sb  Sb1  1  0.08288600  0.46179600  0.41332200  1
  Sb  Sb2  1  0.20723300  0.81675200  0.47012500  1
  Sb  Sb3  1  0.92292000  0.17170600  0.33207100  1
  Sb  Sb4  1  0.51298300  0.47755700  0.40022800  1
  Sb  Sb5  1  0.52244300  0.48701700  0.09977200  1
  Sb  Sb6  1  0.81675200  0.20723300  0.97012500  1
  Sb  Sb7  1  0.91711400  0.53820400  0.58667800  1
  Sb  Sb8  1  0.47755700  0.51298300  0.90022800  1
  Sb  Sb9  1  0.48701700  0.52244300  0.59977200  1
  Sb  Sb10  1  0.53820400  0.91711400  0.08667800  1
  Sb  Sb11  1  0.46179600  0.08288600  0.91332200  1
  Sb  Sb12  1  0.07708000  0.82829400  0.66792900  1
  Sb  Sb13  1  0.79276700  0.18324800  0.52987500  1
  Sb  Sb14  1  0.82829400  0.07708000  0.16792900  1
  Sb  Sb15  1  0.17170600  0.92292000  0.83207100  1
  Pb  Pb0  1  0.82368400  0.17631600  0.75000000  1
  Pb  Pb1  1  0.15195400  0.32560100  0.04890100  1
  Pb  Pb2  1  0.17631600  0.82368400  0.25000000  1
  Pb  Pb3  1  0.32560100  0.15195400  0.54890100  1
  Pb  Pb4  1  0.60580800  0.86143300  0.67599800  1
  Pb  Pb5  1  0.13856700  0.39419200  0.82400200  1
  Pb  Pb6  1  0.84804600  0.67439900  0.95109900  1
  Pb  Pb7  1  0.86143300  0.60580800  0.17599800  1
  Pb  Pb8  1  0.67439900  0.84804600  0.45109900  1
  Pb  Pb9  1  0.39419200  0.13856700  0.32400200  1
  S  S0  1  0.10306100  0.15704200  0.94060400  1
  S  S1  1  0.31284000  0.46547400  0.32407100  1
  S  S2  1  0.13868100  0.15159900  0.74569700  1
  S  S3  1  0.97032000  0.25276800  0.60250600  1
  S  S4  1  0.55953000  0.18319900  0.43605900  1
  S  S5  1  0.55198300  0.08561100  0.16926400  1
  S  S6  1  0.53452600  0.68716000  0.17592900  1
  S  S7  1  0.81680100  0.44047000  0.06394100  1
  S  S8  1  0.15704200  0.10306100  0.44060400  1
  S  S9  1  0.15159900  0.13868100  0.24569700  1
  S  S10  1  0.84840100  0.86131900  0.75430300  1
  S  S11  1  0.44801700  0.91438900  0.83073600  1
  S  S12  1  0.42879100  0.80673100  0.37706500  1
  S  S13  1  0.69134000  0.52141100  0.49817700  1
  S  S14  1  0.30866000  0.47858900  0.50182300  1
  S  S15  1  0.91438900  0.44801700  0.33073600  1
  S  S16  1  0.19326900  0.57120900  0.12293500  1
  S  S17  1  0.47858900  0.30866000  0.00182300  1
  S  S18  1  0.74225100  0.25774900  0.25000000  1
  S  S19  1  0.52141100  0.69134000  0.99817700  1
  S  S20  1  0.46547400  0.31284000  0.82407100  1
  S  S21  1  0.44047000  0.81680100  0.56394100  1
  S  S22  1  0.89693900  0.84295800  0.05939600  1
  S  S23  1  0.84295800  0.89693900  0.55939600  1
  S  S24  1  0.80673100  0.42879100  0.87706500  1
  S  S25  1  0.68716000  0.53452600  0.67592900  1
  S  S26  1  0.25276800  0.97032000  0.10250600  1
  S  S27  1  0.02968000  0.74723200  0.39749400  1
  S  S28  1  0.74723200  0.02968000  0.89749400  1
  S  S29  1  0.18319900  0.55953000  0.93605900  1
  S  S30  1  0.57120900  0.19326900  0.62293500  1
  S  S31  1  0.25774900  0.74225100  0.75000000  1
  S  S32  1  0.86131900  0.84840100  0.25430300  1
  S  S33  1  0.08561100  0.55198300  0.66926400  1
loop_
_geom_bond_atom_site_label_1
_geom_bond_atom_site_label_2
_geom_bond_distance
_geom_bond_site_symmetry_2
Pb0 S10 2.829352 1_545
Pb0 S2 2.829352 1_655
Pb0 S3 3.016202 1_555
Pb0 S28 3.016202 1_555
Pb1 S29 2.793274 1_554
Pb1 S17 2.921723 1_555
Pb1 S16 3.051573 1_555
Pb1 S7 3.061544 1_455
Pb1 S0 3.079711 1_554
Pb2 S32 2.829352 1_455
Pb2 S9 2.829352 1_565
Pb2 S26 3.016202 1_555
Pb2 S27 3.016202 1_555
Pb3 S4 2.793274 1_555
Pb3 S14 2.921723 1_555
Pb3 S30 3.051573 1_555
Pb3 S21 3.061544 1_545
Pb3 S8 3.079711 1_555
Pb4 S23 2.862464 1_555
Pb4 S25 2.967430 1_555
Pb4 S10 2.986569 1_555
Pb4 S30 2.986907 1_565
Pb4 S21 3.112792 1_555
Pb5 S0 2.862464 1_555
Pb5 S20 2.967430 1_555
Pb5 S2 2.986569 1_555
Pb5 S24 2.986907 1_455
Pb5 S29 3.112792 1_555
Pb6 S7 2.793274 1_556
Pb6 S19 2.921723 1_555
Pb6 S24 3.051573 1_555
Pb6 S29 3.061544 1_655
Pb6 S22 3.079711 1_556
Pb7 S22 2.862464 1_555
Pb7 S6 2.967430 1_555
Pb7 S32 2.986569 1_555
Pb7 S16 2.986907 1_655
Pb7 S7 3.112792 1_555
Pb8 S21 2.793274 1_555
Pb8 S13 2.921723 1_555
Pb8 S12 3.051573 1_555
Pb8 S4 3.061544 1_565
Pb8 S23 3.079711 1_555
Pb9 S8 2.862464 1_555
Pb9 S1 2.967430 1_555
Pb9 S9 2.986569 1_555
Pb9 S12 2.986907 1_545
Pb9 S4 3.112792 1_555
S0 Sb6 2.549875 1_455
S1 Sb1 2.475301 1_555
S1 Sb4 2.659240 1_555
S2 Sb15 2.464621 1_545
S3 Sb7 2.542204 1_555
S3 Sb13 2.625460 1_555
S4 Sb4 2.626756 1_555
S4 Sb13 3.145989 1_555
S5 Sb14 2.499919 1_555
S5 Sb10 2.539546 1_545
S6 Sb10 2.475301 1_555
S6 Sb5 2.659240 1_555
S7 Sb5 2.626756 1_555
S7 Sb6 3.145989 1_554
S8 Sb2 2.549875 1_545
S9 Sb3 2.464621 1_455
S10 Sb12 2.464621 1_655
S11 Sb15 2.499919 1_555
S11 Sb11 2.539546 1_565
S12 Sb2 2.476631 1_555
S12 Sb4 2.954107 1_555
S13 Sb9 2.486953 1_555
S13 Sb4 2.946826 1_555
S13 Sb7 3.046669 1_555
S13 Sb13 3.065287 1_555
S14 Sb4 2.486953 1_555
S14 Sb9 2.946826 1_555
S14 Sb1 3.046669 1_555
S14 Sb2 3.065287 1_555
S15 Sb3 2.499919 1_555
S15 Sb1 2.539546 1_655
S16 Sb0 2.476631 1_555
S16 Sb5 2.954107 1_555
S17 Sb8 2.486953 1_554
S17 Sb5 2.946826 1_555
S17 Sb11 3.046669 1_554
S17 Sb6 3.065287 1_554
S18 Sb3 2.529542 1_555
S18 Sb14 2.529542 1_555
S19 Sb5 2.486953 1_556
S19 Sb8 2.946826 1_555
S19 Sb10 3.046669 1_556
S19 Sb0 3.065287 1_556
S20 Sb11 2.475301 1_555
S20 Sb8 2.659240 1_555
S21 Sb9 2.626756 1_555
S21 Sb2 3.145989 1_555
S22 Sb0 2.549875 1_655
S23 Sb13 2.549875 1_565
S24 Sb6 2.476631 1_555
S24 Sb8 2.954107 1_555
S25 Sb7 2.475301 1_555
S25 Sb9 2.659240 1_555
S26 Sb10 2.542204 1_555
S26 Sb0 2.625460 1_555
S27 Sb1 2.542204 1_555
S27 Sb2 2.625460 1_555
S28 Sb11 2.542204 1_555
S28 Sb6 2.625460 1_555
S29 Sb8 2.626756 1_555
S29 Sb0 3.145989 1_556
S30 Sb13 2.476631 1_555
S30 Sb9 2.954107 1_555
S31 Sb15 2.529542 1_555
S31 Sb12 2.529542 1_555
S32 Sb14 2.464621 1_565
S33 Sb12 2.499919 1_555
S33 Sb7 2.539546 1_455
