# generated using pymatgen
data_Ba2Fe2O5
_symmetry_space_group_name_H-M   'P 1'
_cell_length_a   11.66751500
_cell_length_b   7.18771200
_cell_length_c   23.63633474
_cell_angle_alpha   83.18396533
_cell_angle_beta   90.00000000
_cell_angle_gamma   90.00000000
_symmetry_Int_Tables_number   1
_chemical_formula_structural   Ba2Fe2O5
_chemical_formula_sum   'Ba28 Fe28 O70'
_cell_volume   1968.19815359
_cell_formula_units_Z   14
loop_
 _symmetry_equiv_pos_site_id
 _symmetry_equiv_pos_as_xyz
  1  'x, y, z'
loop_
 _atom_site_type_symbol
 _atom_site_label
 _atom_site_symmetry_multiplicity
 _atom_site_fract_x
 _atom_site_fract_y
 _atom_site_fract_z
 _atom_site_occupancy
  Ba  Ba0  1  0.11671500  0.32207700  0.03422600  1
  Ba  Ba1  1  0.63542000  0.31542700  0.03731000  1
  Ba  Ba2  1  0.38328500  0.82207700  0.53422600  1
  Ba  Ba3  1  0.13164100  0.76339900  0.75574300  1
  Ba  Ba4  1  0.88328500  0.67792300  0.96577400  1
  Ba  Ba5  1  0.36587500  0.38819100  0.81746000  1
  Ba  Ba6  1  0.64020900  0.02768600  0.89387300  1
  Ba  Ba7  1  0.63412500  0.61180900  0.18254000  1
  Ba  Ba8  1  0.85979100  0.52768600  0.39387300  1
  Ba  Ba9  1  0.11458600  0.03737100  0.89645800  1
  Ba  Ba10  1  0.38541400  0.53737100  0.39645800  1
  Ba  Ba11  1  0.63164100  0.73660100  0.74425700  1
  Ba  Ba12  1  0.13542000  0.18457300  0.46269000  1
  Ba  Ba13  1  0.86458000  0.81542700  0.53731000  1
  Ba  Ba14  1  0.61458600  0.46262900  0.60354200  1
  Ba  Ba15  1  0.86835900  0.23660100  0.24425700  1
  Ba  Ba16  1  0.88541400  0.96262900  0.10354200  1
  Ba  Ba17  1  0.86587500  0.11180900  0.68254000  1
  Ba  Ba18  1  0.36835900  0.26339900  0.25574300  1
  Ba  Ba19  1  0.36458000  0.68457300  0.96269000  1
  Ba  Ba20  1  0.13412500  0.88819100  0.31746000  1
  Ba  Ba21  1  0.35979100  0.97231400  0.10612700  1
  Ba  Ba22  1  0.62398400  0.89630300  0.32898800  1
  Ba  Ba23  1  0.87601600  0.39630300  0.82898800  1
  Ba  Ba24  1  0.12398400  0.60369700  0.17101200  1
  Ba  Ba25  1  0.14020900  0.47231400  0.60612700  1
  Ba  Ba26  1  0.61671500  0.17792300  0.46577400  1
  Ba  Ba27  1  0.37601600  0.10369700  0.67101200  1
  Fe  Fe0  1  0.62135000  0.68610900  0.46470900  1
  Fe  Fe1  1  0.63051200  0.53929700  0.90028000  1
  Fe  Fe2  1  0.86298800  0.27293700  0.53628600  1
  Fe  Fe3  1  0.09793800  0.29972200  0.75358100  1
  Fe  Fe4  1  0.61542400  0.96306700  0.60349700  1
  Fe  Fe5  1  0.59793800  0.20027800  0.74641900  1
  Fe  Fe6  1  0.13701200  0.72706300  0.46371400  1
  Fe  Fe7  1  0.10154800  0.33738700  0.31482900  1
  Fe  Fe8  1  0.13051200  0.96070300  0.59972000  1
  Fe  Fe9  1  0.11542400  0.53693300  0.89650300  1
  Fe  Fe10  1  0.39845200  0.83738700  0.81482900  1
  Fe  Fe11  1  0.88457600  0.46306700  0.10349700  1
  Fe  Fe12  1  0.38457600  0.03693300  0.39650300  1
  Fe  Fe13  1  0.36298800  0.22706300  0.96371400  1
  Fe  Fe14  1  0.87883800  0.87664800  0.82830400  1
  Fe  Fe15  1  0.62116200  0.37664800  0.32830400  1
  Fe  Fe16  1  0.89845200  0.66261300  0.68517100  1
  Fe  Fe17  1  0.12135000  0.81389100  0.03529100  1
  Fe  Fe18  1  0.87865000  0.18610900  0.96470900  1
  Fe  Fe19  1  0.40206200  0.79972200  0.25358100  1
  Fe  Fe20  1  0.36948800  0.46070300  0.09972000  1
  Fe  Fe21  1  0.60154800  0.16261300  0.18517100  1
  Fe  Fe22  1  0.12116200  0.12335200  0.17169600  1
  Fe  Fe23  1  0.86948800  0.03929700  0.40028000  1
  Fe  Fe24  1  0.37865000  0.31389100  0.53529100  1
  Fe  Fe25  1  0.90206200  0.70027800  0.24641900  1
  Fe  Fe26  1  0.37883800  0.62335200  0.67169600  1
  Fe  Fe27  1  0.63701200  0.77293700  0.03628600  1
  O  O0  1  0.23562800  0.34580600  0.71372700  1
  O  O1  1  0.62369700  0.08190700  0.67998800  1
  O  O2  1  0.63222500  0.26846300  0.25361400  1
  O  O3  1  0.50156500  0.70878800  0.07855100  1
  O  O4  1  0.25709600  0.65101000  0.07465100  1
  O  O5  1  0.73562800  0.15419400  0.78627300  1
  O  O6  1  0.52417900  0.42955400  0.72196700  1
  O  O7  1  0.75052900  0.12062200  0.57773200  1
  O  O8  1  0.12832800  0.68161000  0.96538000  1
  O  O9  1  0.24290400  0.15101000  0.57465100  1
  O  O10  1  0.49626500  0.13899500  0.57086200  1
  O  O11  1  0.24947100  0.87937800  0.42226800  1
  O  O12  1  0.49843500  0.29121200  0.92144900  1
  O  O13  1  0.13222500  0.23153700  0.24638600  1
  O  O14  1  0.39037900  0.33103400  0.03422200  1
  O  O15  1  0.23717900  0.30511600  0.35444000  1
  O  O16  1  0.75709600  0.84899000  0.42534900  1
  O  O17  1  0.50373500  0.86100500  0.42913800  1
  O  O18  1  0.02417900  0.07044600  0.77803300  1
  O  O19  1  0.25367800  0.29486300  0.14455100  1
  O  O20  1  0.76437200  0.65419400  0.28627300  1
  O  O21  1  0.75367800  0.20513700  0.35544900  1
  O  O22  1  0.12810200  0.96881000  0.10709900  1
  O  O23  1  0.99423700  0.16419900  0.35326600  1
  O  O24  1  0.52393600  0.92786600  0.20509200  1
  O  O25  1  0.47582100  0.57044600  0.27803300  1
  O  O26  1  0.62832800  0.81839000  0.53462000  1
  O  O27  1  0.10962100  0.83103400  0.53422200  1
  O  O28  1  0.87189800  0.03119000  0.89290100  1
  O  O29  1  0.00156500  0.79121200  0.42144900  1
  O  O30  1  0.60962100  0.66896600  0.96577800  1
  O  O31  1  0.00373500  0.63899500  0.07086200  1
  O  O32  1  0.37630300  0.91809300  0.32001200  1
  O  O33  1  0.12369700  0.41809300  0.82001200  1
  O  O34  1  0.00000000  0.00000000  0.00000000  1
  O  O35  1  0.76282100  0.69488400  0.64556000  1
  O  O36  1  0.24632200  0.79486300  0.64455100  1
  O  O37  1  0.71542100  0.99610800  0.01069300  1
  O  O38  1  0.26437200  0.84580600  0.21372700  1
  O  O39  1  0.86777500  0.76846300  0.75361400  1
  O  O40  1  0.37167200  0.18161000  0.46538000  1
  O  O41  1  0.99843500  0.20878800  0.57855100  1
  O  O42  1  0.99625700  0.27822200  0.14111400  1
  O  O43  1  0.74632200  0.70513700  0.85544900  1
  O  O44  1  0.37189800  0.46881000  0.60709900  1
  O  O45  1  0.28457900  0.00389200  0.98930700  1
  O  O46  1  0.99626500  0.36100500  0.92913800  1
  O  O47  1  0.50576300  0.66419900  0.85326600  1
  O  O48  1  0.21542100  0.50389200  0.48930700  1
  O  O49  1  0.49625700  0.22177800  0.35888600  1
  O  O50  1  0.62810200  0.53119000  0.39290100  1
  O  O51  1  0.50000000  0.50000000  0.50000000  1
  O  O52  1  0.00576300  0.83580100  0.64673400  1
  O  O53  1  0.50374300  0.77822200  0.64111400  1
  O  O54  1  0.97582100  0.92955400  0.22196700  1
  O  O55  1  0.25052900  0.37937800  0.92226800  1
  O  O56  1  0.73717900  0.19488400  0.14556000  1
  O  O57  1  0.97606400  0.42786600  0.70509200  1
  O  O58  1  0.87630300  0.58190700  0.17998800  1
  O  O59  1  0.49423700  0.33580100  0.14673400  1
  O  O60  1  0.02393600  0.57213400  0.29490800  1
  O  O61  1  0.00374300  0.72177800  0.85888600  1
  O  O62  1  0.74947100  0.62062200  0.07773200  1
  O  O63  1  0.26282100  0.80511600  0.85444000  1
  O  O64  1  0.47606400  0.07213400  0.79490800  1
  O  O65  1  0.78457900  0.49610800  0.51069300  1
  O  O66  1  0.74290400  0.34899000  0.92534900  1
  O  O67  1  0.89037900  0.16896600  0.46577800  1
  O  O68  1  0.87167200  0.31839000  0.03462000  1
  O  O69  1  0.36777500  0.73153700  0.74638600  1
loop_
_geom_bond_atom_site_label_1
_geom_bond_atom_site_label_2
_geom_bond_distance
_geom_bond_site_symmetry_2
Ba0 O46 2.838674 1_454
Ba0 O31 2.853875 1_555
Ba0 O68 2.859171 1_455
Ba0 O42 2.875502 1_455
Ba0 O34 2.883160 1_555
Ba0 O8 2.889011 1_554
Ba0 O22 2.897204 1_545
Ba0 O19 3.044805 1_555
Ba0 O55 3.057989 1_554
Ba0 O4 3.117965 1_555
Ba0 O14 3.193628 1_555
Ba0 O45 3.281771 1_554
Ba1 O37 2.622523 1_545
Ba1 O68 2.757231 1_555
Ba1 O62 2.827222 1_555
Ba1 O56 2.860195 1_555
Ba1 O14 2.861811 1_555
Ba1 O30 2.896000 1_554
Ba1 O66 2.912475 1_554
Ba1 O59 3.084505 1_555
Ba1 O12 3.193346 1_554
Ba2 O17 2.838674 1_555
Ba2 O10 2.853875 1_565
Ba2 O26 2.859171 1_555
Ba2 O53 2.875502 1_555
Ba2 O51 2.883160 1_555
Ba2 O40 2.889011 1_565
Ba2 O44 2.897204 1_555
Ba2 O36 3.044805 1_555
Ba2 O11 3.057989 1_555
Ba2 O9 3.117965 1_565
Ba2 O27 3.193628 1_555
Ba2 O48 3.281771 1_555
Ba3 O18 2.645055 1_565
Ba3 O33 2.753434 1_555
Ba3 O69 2.775598 1_555
Ba3 O63 2.835601 1_555
Ba3 O61 2.843706 1_555
Ba3 O36 2.933889 1_555
Ba3 O52 2.957754 1_555
Ba3 O39 3.079216 1_455
Ba4 O31 2.838674 1_656
Ba4 O46 2.853875 1_555
Ba4 O8 2.859171 1_655
Ba4 O61 2.875502 1_655
Ba4 O34 2.883160 1_666
Ba4 O68 2.889011 1_556
Ba4 O28 2.897204 1_565
Ba4 O43 3.044805 1_555
Ba4 O62 3.057989 1_556
Ba4 O66 3.117965 1_555
Ba4 O30 3.193628 1_555
Ba4 O37 3.281771 1_556
Ba5 O64 2.717566 1_555
Ba5 O47 2.777484 1_555
Ba5 O55 2.813334 1_555
Ba5 O69 2.815843 1_555
Ba5 O33 2.834962 1_555
Ba5 O6 2.904323 1_555
Ba5 O12 2.917651 1_555
Ba5 O0 2.931064 1_555
Ba6 O12 2.653658 1_555
Ba6 O28 2.703424 1_555
Ba6 O66 2.780382 1_555
Ba6 O5 2.825875 1_555
Ba6 O43 2.869212 1_545
Ba6 O37 2.880457 1_546
Ba6 O30 2.936626 1_545
Ba6 O64 3.010689 1_555
Ba6 O47 3.286790 1_545
Ba7 O24 2.717566 1_555
Ba7 O59 2.777484 1_555
Ba7 O62 2.813334 1_555
Ba7 O2 2.815843 1_555
Ba7 O58 2.834962 1_555
Ba7 O25 2.904323 1_555
Ba7 O3 2.917651 1_555
Ba7 O20 2.931064 1_555
Ba8 O29 2.653658 1_655
Ba8 O50 2.703424 1_555
Ba8 O16 2.780382 1_555
Ba8 O20 2.825875 1_555
Ba8 O21 2.869212 1_555
Ba8 O65 2.880457 1_555
Ba8 O67 2.936626 1_555
Ba8 O60 3.010689 1_655
Ba8 O23 3.286790 1_555
Ba9 O63 2.675446 1_545
Ba9 O34 2.773634 1_556
Ba9 O28 2.833319 1_455
Ba9 O61 2.843405 1_545
Ba9 O8 2.868723 1_545
Ba9 O46 2.887927 1_455
Ba9 O45 2.946647 1_555
Ba9 O18 2.974284 1_555
Ba9 O55 3.047438 1_555
Ba9 O33 3.096945 1_555
Ba10 O15 2.675446 1_555
Ba10 O51 2.773634 1_555
Ba10 O50 2.833319 1_555
Ba10 O49 2.843405 1_555
Ba10 O40 2.868723 1_555
Ba10 O17 2.887927 1_555
Ba10 O48 2.946647 1_555
Ba10 O25 2.974284 1_555
Ba10 O11 3.047438 1_555
Ba10 O32 3.096945 1_555
Ba11 O6 2.645055 1_555
Ba11 O1 2.753434 1_565
Ba11 O39 2.775598 1_555
Ba11 O35 2.835601 1_555
Ba11 O53 2.843706 1_555
Ba11 O43 2.933889 1_555
Ba11 O47 2.957754 1_555
Ba11 O69 3.079216 1_555
Ba12 O48 2.622523 1_555
Ba12 O40 2.757231 1_555
Ba12 O11 2.827222 1_545
Ba12 O15 2.860195 1_555
Ba12 O67 2.861811 1_455
Ba12 O27 2.896000 1_545
Ba12 O9 2.912475 1_555
Ba12 O23 3.084505 1_455
Ba12 O41 3.193346 1_455
Ba13 O65 2.622523 1_555
Ba13 O26 2.757231 1_555
Ba13 O7 2.827222 1_565
Ba13 O35 2.860195 1_555
Ba13 O27 2.861811 1_655
Ba13 O67 2.896000 1_565
Ba13 O16 2.912475 1_555
Ba13 O52 3.084505 1_655
Ba13 O29 3.193346 1_655
Ba14 O35 2.675446 1_555
Ba14 O51 2.773634 1_555
Ba14 O44 2.833319 1_555
Ba14 O53 2.843405 1_555
Ba14 O26 2.868723 1_555
Ba14 O10 2.887927 1_555
Ba14 O65 2.946647 1_555
Ba14 O6 2.974284 1_555
Ba14 O7 3.047438 1_555
Ba14 O1 3.096945 1_555
Ba15 O54 2.645055 1_545
Ba15 O58 2.753434 1_555
Ba15 O2 2.775598 1_555
Ba15 O56 2.835601 1_555
Ba15 O42 2.843706 1_555
Ba15 O21 2.933889 1_555
Ba15 O23 2.957754 1_555
Ba15 O13 3.079216 1_655
Ba16 O56 2.675446 1_565
Ba16 O34 2.773634 1_665
Ba16 O22 2.833319 1_655
Ba16 O42 2.843405 1_565
Ba16 O68 2.868723 1_565
Ba16 O31 2.887927 1_655
Ba16 O37 2.946647 1_555
Ba16 O54 2.974284 1_555
Ba16 O62 3.047438 1_555
Ba16 O58 3.096945 1_555
Ba17 O57 2.717566 1_555
Ba17 O52 2.777484 1_645
Ba17 O7 2.813334 1_555
Ba17 O39 2.815843 1_545
Ba17 O1 2.834962 1_555
Ba17 O18 2.904323 1_655
Ba17 O41 2.917651 1_555
Ba17 O5 2.931064 1_555
Ba18 O25 2.645055 1_555
Ba18 O32 2.753434 1_545
Ba18 O13 2.775598 1_555
Ba18 O15 2.835601 1_555
Ba18 O49 2.843706 1_555
Ba18 O19 2.933889 1_555
Ba18 O59 2.957754 1_555
Ba18 O2 3.079216 1_555
Ba19 O45 2.622523 1_565
Ba19 O8 2.757231 1_555
Ba19 O55 2.827222 1_555
Ba19 O63 2.860195 1_555
Ba19 O30 2.861811 1_555
Ba19 O14 2.896000 1_556
Ba19 O4 2.912475 1_556
Ba19 O47 3.084505 1_555
Ba19 O3 3.193346 1_556
Ba20 O60 2.717566 1_555
Ba20 O23 2.777484 1_465
Ba20 O11 2.813334 1_555
Ba20 O13 2.815843 1_565
Ba20 O32 2.834962 1_555
Ba20 O54 2.904323 1_455
Ba20 O29 2.917651 1_555
Ba20 O38 2.931064 1_555
Ba21 O3 2.653658 1_555
Ba21 O22 2.703424 1_555
Ba21 O4 2.780382 1_555
Ba21 O38 2.825875 1_555
Ba21 O19 2.869212 1_565
Ba21 O45 2.880457 1_564
Ba21 O14 2.936626 1_565
Ba21 O24 3.010689 1_555
Ba21 O59 3.286790 1_565
Ba22 O20 2.673516 1_555
Ba22 O17 2.737477 1_555
Ba22 O16 2.744345 1_555
Ba22 O21 2.817459 1_565
Ba22 O50 2.868884 1_555
Ba22 O32 2.900470 1_555
Ba22 O49 2.930113 1_565
Ba22 O2 3.034393 1_565
Ba22 O24 3.135633 1_555
Ba22 O25 3.254882 1_555
Ba23 O5 2.673516 1_555
Ba23 O46 2.737477 1_555
Ba23 O66 2.744345 1_555
Ba23 O43 2.817459 1_555
Ba23 O28 2.868884 1_555
Ba23 O33 2.900470 1_655
Ba23 O61 2.930113 1_655
Ba23 O39 3.034393 1_555
Ba23 O57 3.135633 1_555
Ba23 O18 3.254882 1_655
Ba24 O38 2.673516 1_555
Ba24 O31 2.737477 1_555
Ba24 O4 2.744345 1_555
Ba24 O19 2.817459 1_555
Ba24 O22 2.868884 1_555
Ba24 O58 2.900470 1_455
Ba24 O42 2.930113 1_455
Ba24 O13 3.034393 1_555
Ba24 O60 3.135633 1_555
Ba24 O54 3.254882 1_455
Ba25 O41 2.653658 1_455
Ba25 O44 2.703424 1_555
Ba25 O9 2.780382 1_555
Ba25 O0 2.825875 1_555
Ba25 O36 2.869212 1_555
Ba25 O48 2.880457 1_555
Ba25 O27 2.936626 1_555
Ba25 O57 3.010689 1_455
Ba25 O52 3.286790 1_555
Ba26 O10 2.838674 1_555
Ba26 O17 2.853875 1_545
Ba26 O40 2.859171 1_555
Ba26 O49 2.875502 1_555
Ba26 O51 2.883160 1_555
Ba26 O26 2.889011 1_545
Ba26 O50 2.897204 1_555
Ba26 O21 3.044805 1_555
Ba26 O7 3.057989 1_555
Ba26 O16 3.117965 1_545
Ba26 O67 3.193628 1_555
Ba26 O65 3.281771 1_555
Ba27 O0 2.673516 1_555
Ba27 O10 2.737477 1_555
Ba27 O9 2.744345 1_555
Ba27 O36 2.817459 1_545
Ba27 O44 2.868884 1_555
Ba27 O1 2.900470 1_555
Ba27 O53 2.930113 1_545
Ba27 O69 3.034393 1_545
Ba27 O64 3.135633 1_555
Ba27 O6 3.254882 1_555
Fe0 O17 1.979762 1_555
Fe0 O26 2.003530 1_555
Fe0 O51 2.055486 1_555
Fe0 O16 2.118040 1_555
Fe0 O50 2.139036 1_555
Fe0 O65 2.514180 1_555
Fe1 O30 1.915016 1_555
Fe1 O66 1.936334 1_555
Fe1 O47 1.980539 1_555
Fe1 O43 2.017348 1_555
Fe1 O12 2.364944 1_555
Fe2 O65 1.882986 1_555
Fe2 O41 1.897021 1_555
Fe2 O7 1.904032 1_555
Fe2 O67 1.932259 1_555
Fe3 O0 1.871862 1_555
Fe3 O18 1.887953 1_555
Fe3 O33 1.896523 1_555
Fe3 O57 1.983262 1_455
Fe4 O10 1.973677 1_565
Fe4 O53 1.993307 1_555
Fe4 O7 1.993610 1_565
Fe4 O26 2.038696 1_555
Fe4 O1 2.091475 1_565
Fe4 O35 2.684558 1_555
Fe5 O5 1.871862 1_555
Fe5 O6 1.887953 1_555
Fe5 O1 1.896523 1_555
Fe5 O64 1.983262 1_555
Fe6 O48 1.882986 1_555
Fe6 O29 1.897021 1_555
Fe6 O11 1.904032 1_555
Fe6 O27 1.932259 1_555
Fe7 O15 1.839312 1_555
Fe7 O13 1.901629 1_555
Fe7 O23 1.916813 1_455
Fe7 O60 1.923562 1_555
Fe8 O27 1.915016 1_555
Fe8 O9 1.936334 1_565
Fe8 O52 1.980539 1_555
Fe8 O36 2.017348 1_555
Fe8 O41 2.364944 1_465
Fe9 O46 1.973677 1_455
Fe9 O61 1.993307 1_555
Fe9 O55 1.993610 1_555
Fe9 O8 2.038696 1_555
Fe9 O33 2.091475 1_555
Fe9 O63 2.684558 1_555
Fe10 O63 1.839312 1_555
Fe10 O69 1.901629 1_555
Fe10 O47 1.916813 1_555
Fe10 O64 1.923562 1_565
Fe11 O31 1.973677 1_655
Fe11 O42 1.993307 1_555
Fe11 O62 1.993610 1_555
Fe11 O68 2.038696 1_555
Fe11 O58 2.091475 1_555
Fe11 O56 2.684558 1_555
Fe12 O17 1.973677 1_545
Fe12 O49 1.993307 1_555
Fe12 O11 1.993610 1_545
Fe12 O40 2.038696 1_555
Fe12 O32 2.091475 1_545
Fe12 O15 2.684558 1_555
Fe13 O45 1.882986 1_555
Fe13 O12 1.897021 1_555
Fe13 O55 1.904032 1_555
Fe13 O14 1.932259 1_556
Fe14 O61 1.922096 1_655
Fe14 O28 1.993550 1_565
Fe14 O39 2.015888 1_555
Fe14 O43 2.033265 1_555
Fe14 O18 2.415570 1_665
Fe14 O5 2.699661 1_565
Fe15 O49 1.922096 1_555
Fe15 O50 1.993550 1_555
Fe15 O2 2.015888 1_555
Fe15 O21 2.033265 1_555
Fe15 O25 2.415570 1_555
Fe15 O20 2.699661 1_555
Fe16 O35 1.839312 1_555
Fe16 O39 1.901629 1_555
Fe16 O52 1.916813 1_655
Fe16 O57 1.923562 1_555
Fe17 O31 1.979762 1_555
Fe17 O8 2.003530 1_554
Fe17 O34 2.055486 1_565
Fe17 O4 2.118040 1_555
Fe17 O22 2.139036 1_555
Fe17 O45 2.514180 1_564
Fe18 O46 1.979762 1_555
Fe18 O68 2.003530 1_556
Fe18 O34 2.055486 1_656
Fe18 O66 2.118040 1_555
Fe18 O28 2.139036 1_555
Fe18 O37 2.514180 1_546
Fe19 O38 1.871862 1_555
Fe19 O25 1.887953 1_555
Fe19 O32 1.896523 1_555
Fe19 O24 1.983262 1_555
Fe20 O14 1.915016 1_555
Fe20 O4 1.936334 1_555
Fe20 O59 1.980539 1_555
Fe20 O19 2.017348 1_555
Fe20 O3 2.364944 1_555
Fe21 O56 1.839312 1_555
Fe21 O2 1.901629 1_555
Fe21 O59 1.916813 1_555
Fe21 O24 1.923562 1_545
Fe22 O42 1.922096 1_455
Fe22 O22 1.993550 1_545
Fe22 O13 2.015888 1_555
Fe22 O19 2.033265 1_555
Fe22 O54 2.415570 1_445
Fe22 O38 2.699661 1_545
Fe23 O67 1.915016 1_555
Fe23 O16 1.936334 1_545
Fe23 O23 1.980539 1_555
Fe23 O21 2.017348 1_555
Fe23 O29 2.364944 1_645
Fe24 O10 1.979762 1_555
Fe24 O40 2.003530 1_555
Fe24 O51 2.055486 1_555
Fe24 O9 2.118040 1_555
Fe24 O44 2.139036 1_555
Fe24 O48 2.514180 1_555
Fe25 O20 1.871862 1_555
Fe25 O54 1.887953 1_555
Fe25 O58 1.896523 1_555
Fe25 O60 1.983262 1_655
Fe26 O53 1.922096 1_555
Fe26 O44 1.993550 1_555
Fe26 O69 2.015888 1_555
Fe26 O36 2.033265 1_555
Fe26 O6 2.415570 1_555
Fe26 O0 2.699661 1_555
Fe27 O37 1.882986 1_555
Fe27 O3 1.897021 1_555
Fe27 O62 1.904032 1_555
Fe27 O30 1.932259 1_554
