# generated using pymatgen
data_LiB(HO2)2
_symmetry_space_group_name_H-M   'P 1'
_cell_length_a   7.99555600
_cell_length_b   5.13923900
_cell_length_c   7.12222523
_cell_angle_alpha   82.45651407
_cell_angle_beta   90.00000000
_cell_angle_gamma   90.00000000
_symmetry_Int_Tables_number   1
_chemical_formula_structural   LiB(HO2)2
_chemical_formula_sum   'Li4 B4 H8 O16'
_cell_volume   290.12705632
_cell_formula_units_Z   4
loop_
 _symmetry_equiv_pos_site_id
 _symmetry_equiv_pos_as_xyz
  1  'x, y, z'
loop_
 _atom_site_type_symbol
 _atom_site_label
 _atom_site_symmetry_multiplicity
 _atom_site_fract_x
 _atom_site_fract_y
 _atom_site_fract_z
 _atom_site_occupancy
  Li  Li0  1  0.82573500  0.94105600  0.09527000  1
  Li  Li1  1  0.32573500  0.55894400  0.90473000  1
  Li  Li2  1  0.17426500  0.05894400  0.90473000  1
  Li  Li3  1  0.67426500  0.44105600  0.09527000  1
  B  B0  1  0.02958400  0.47784100  0.19877400  1
  B  B1  1  0.52958400  0.02215900  0.80122600  1
  B  B2  1  0.97041600  0.52215900  0.80122600  1
  B  B3  1  0.47041600  0.97784100  0.19877400  1
  H  H0  1  0.21719300  0.26224800  0.33761000  1
  H  H1  1  0.71719300  0.23775200  0.66239000  1
  H  H2  1  0.78280700  0.73775200  0.66239000  1
  H  H3  1  0.28280700  0.76224800  0.33761000  1
  H  H4  1  0.86504300  0.58712500  0.39177700  1
  H  H5  1  0.36504300  0.91287500  0.60822300  1
  H  H6  1  0.13495700  0.41287500  0.60822300  1
  H  H7  1  0.63495700  0.08712500  0.39177700  1
  O  O0  1  0.12070000  0.67380100  0.05620600  1
  O  O1  1  0.62070000  0.82619900  0.94379400  1
  O  O2  1  0.87930000  0.32619900  0.94379400  1
  O  O3  1  0.37930000  0.17380100  0.05620600  1
  O  O4  1  0.99772800  0.23692400  0.10356300  1
  O  O5  1  0.49772800  0.26307600  0.89643700  1
  O  O6  1  0.00227200  0.76307600  0.89643700  1
  O  O7  1  0.50227200  0.73692400  0.10356300  1
  O  O8  1  0.14571500  0.41346600  0.35396400  1
  O  O9  1  0.64571500  0.08653400  0.64603600  1
  O  O10  1  0.85428500  0.58653400  0.64603600  1
  O  O11  1  0.35428500  0.91346600  0.35396400  1
  O  O12  1  0.87298100  0.59344500  0.25220000  1
  O  O13  1  0.37298100  0.90655500  0.74780000  1
  O  O14  1  0.12701900  0.40655500  0.74780000  1
  O  O15  1  0.62701900  0.09344500  0.25220000  1
loop_
_geom_bond_atom_site_label_1
_geom_bond_atom_site_label_2
_geom_bond_distance
_geom_bond_site_symmetry_2
Li0 O12 2.014723 1_555
Li0 O4 2.056750 1_565
Li0 O1 2.089753 1_554
Li0 O15 2.148681 1_565
Li0 O2 2.168977 1_564
Li0 O6 2.274760 1_654
Li1 O13 2.014723 1_555
Li1 O5 2.056750 1_555
Li1 O0 2.089753 1_556
Li1 O14 2.148681 1_555
Li1 O3 2.168977 1_556
Li1 O7 2.274760 1_556
Li2 O14 2.014723 1_555
Li2 O6 2.056750 1_545
Li2 O3 2.089753 1_556
Li2 O13 2.148681 1_545
Li2 O0 2.168977 1_546
Li2 O4 2.274760 1_456
Li3 O15 2.014723 1_555
Li3 O7 2.056750 1_555
Li3 O2 2.089753 1_554
Li3 O12 2.148681 1_555
Li3 O1 2.168977 1_554
Li3 O5 2.274760 1_554
B0 O8 1.448205 1_555
B0 O12 1.457719 1_455
B0 O4 1.509345 1_455
B0 O0 1.519051 1_555
B1 O9 1.448205 1_555
B1 O13 1.457719 1_545
B1 O5 1.509345 1_555
B1 O1 1.519051 1_545
B2 O10 1.448205 1_555
B2 O14 1.457719 1_655
B2 O6 1.509345 1_655
B2 O2 1.519051 1_555
B3 O11 1.448205 1_555
B3 O15 1.457719 1_565
B3 O7 1.509345 1_555
B3 O3 1.519051 1_565
H0 O8 0.983823 1_555
H1 O9 0.983823 1_555
H2 O10 0.983823 1_555
H3 O11 0.983823 1_555
H4 O12 0.992390 1_555
H5 O13 0.992390 1_555
H6 O14 0.992390 1_555
H7 O15 0.992390 1_555
O0 O6 1.504953 1_554
O1 O7 1.504953 1_556
O2 O4 1.504953 1_556
O3 O5 1.504953 1_554
