# generated using pymatgen
data_Mn3Cr2(SiO4)3
_symmetry_space_group_name_H-M   'P 1'
_cell_length_a   10.33695370
_cell_length_b   10.33695370
_cell_length_c   10.33695370
_cell_angle_alpha   109.47122063
_cell_angle_beta   109.47122063
_cell_angle_gamma   109.47122063
_symmetry_Int_Tables_number   1
_chemical_formula_structural   Mn3Cr2(SiO4)3
_chemical_formula_sum   'Mn12 Cr8 Si12 O48'
_cell_volume   850.26797544
_cell_formula_units_Z   4
loop_
 _symmetry_equiv_pos_site_id
 _symmetry_equiv_pos_as_xyz
  1  'x, y, z'
loop_
 _atom_site_type_symbol
 _atom_site_label
 _atom_site_symmetry_multiplicity
 _atom_site_fract_x
 _atom_site_fract_y
 _atom_site_fract_z
 _atom_site_occupancy
  Mn  Mn0  1  0.87500000  0.62500000  0.25000000  1
  Mn  Mn1  1  0.62500000  0.25000000  0.87500000  1
  Mn  Mn2  1  0.87500000  0.75000000  0.62500000  1
  Mn  Mn3  1  0.75000000  0.62500000  0.87500000  1
  Mn  Mn4  1  0.25000000  0.87500000  0.62500000  1
  Mn  Mn5  1  0.62500000  0.87500000  0.75000000  1
  Mn  Mn6  1  0.12500000  0.37500000  0.75000000  1
  Mn  Mn7  1  0.37500000  0.75000000  0.12500000  1
  Mn  Mn8  1  0.12500000  0.25000000  0.37500000  1
  Mn  Mn9  1  0.25000000  0.37500000  0.12500000  1
  Mn  Mn10  1  0.75000000  0.12500000  0.37500000  1
  Mn  Mn11  1  0.37500000  0.12500000  0.25000000  1
  Cr  Cr0  1  0.50000000  0.50000000  0.50000000  1
  Cr  Cr1  1  0.50000000  0.00000000  0.50000000  1
  Cr  Cr2  1  0.00000000  0.50000000  0.50000000  1
  Cr  Cr3  1  0.50000000  0.50000000  0.00000000  1
  Cr  Cr4  1  0.00000000  0.00000000  0.50000000  1
  Cr  Cr5  1  0.00000000  0.50000000  0.00000000  1
  Cr  Cr6  1  0.50000000  0.00000000  0.00000000  1
  Cr  Cr7  1  0.00000000  0.00000000  0.00000000  1
  Si  Si0  1  0.12500000  0.87500000  0.25000000  1
  Si  Si1  1  0.87500000  0.12500000  0.75000000  1
  Si  Si2  1  0.25000000  0.62500000  0.37500000  1
  Si  Si3  1  0.37500000  0.25000000  0.62500000  1
  Si  Si4  1  0.75000000  0.87500000  0.12500000  1
  Si  Si5  1  0.12500000  0.75000000  0.87500000  1
  Si  Si6  1  0.37500000  0.62500000  0.75000000  1
  Si  Si7  1  0.62500000  0.75000000  0.37500000  1
  Si  Si8  1  0.87500000  0.25000000  0.12500000  1
  Si  Si9  1  0.25000000  0.12500000  0.87500000  1
  Si  Si10  1  0.75000000  0.37500000  0.62500000  1
  Si  Si11  1  0.62500000  0.37500000  0.25000000  1
  O  O0  1  0.69217600  0.08673900  0.70728200  1
  O  O1  1  0.10543700  0.98489400  0.69217600  1
  O  O2  1  0.70728200  0.51510600  0.62054300  1
  O  O3  1  0.62054300  0.70728200  0.51510600  1
  O  O4  1  0.87945700  0.39456300  0.08673900  1
  O  O5  1  0.08673900  0.87945700  0.39456300  1
  O  O6  1  0.98489400  0.69217600  0.10543700  1
  O  O7  1  0.41326100  0.10543700  0.62054300  1
  O  O8  1  0.39456300  0.80782400  0.51510600  1
  O  O9  1  0.98489400  0.79271800  0.87945700  1
  O  O10  1  0.10543700  0.62054300  0.41326100  1
  O  O11  1  0.51510600  0.39456300  0.80782400  1
  O  O12  1  0.79271800  0.87945700  0.98489400  1
  O  O13  1  0.70728200  0.69217600  0.08673900  1
  O  O14  1  0.08673900  0.70728200  0.69217600  1
  O  O15  1  0.62054300  0.41326100  0.10543700  1
  O  O16  1  0.79271800  0.41326100  0.80782400  1
  O  O17  1  0.80782400  0.51510600  0.39456300  1
  O  O18  1  0.80782400  0.79271800  0.41326100  1
  O  O19  1  0.87945700  0.98489400  0.79271800  1
  O  O20  1  0.41326100  0.80782400  0.79271800  1
  O  O21  1  0.39456300  0.08673900  0.87945700  1
  O  O22  1  0.69217600  0.10543700  0.98489400  1
  O  O23  1  0.51510600  0.62054300  0.70728200  1
  O  O24  1  0.30782400  0.91326100  0.29271800  1
  O  O25  1  0.89456300  0.01510600  0.30782400  1
  O  O26  1  0.29271800  0.48489400  0.37945700  1
  O  O27  1  0.37945700  0.29271800  0.48489400  1
  O  O28  1  0.12054300  0.60543700  0.91326100  1
  O  O29  1  0.91326100  0.12054300  0.60543700  1
  O  O30  1  0.01510600  0.30782400  0.89456300  1
  O  O31  1  0.58673900  0.89456300  0.37945700  1
  O  O32  1  0.60543700  0.19217600  0.48489400  1
  O  O33  1  0.01510600  0.20728200  0.12054300  1
  O  O34  1  0.89456300  0.37945700  0.58673900  1
  O  O35  1  0.48489400  0.60543700  0.19217600  1
  O  O36  1  0.20728200  0.12054300  0.01510600  1
  O  O37  1  0.29271800  0.30782400  0.91326100  1
  O  O38  1  0.91326100  0.29271800  0.30782400  1
  O  O39  1  0.37945700  0.58673900  0.89456300  1
  O  O40  1  0.20728200  0.58673900  0.19217600  1
  O  O41  1  0.19217600  0.48489400  0.60543700  1
  O  O42  1  0.19217600  0.20728200  0.58673900  1
  O  O43  1  0.12054300  0.01510600  0.20728200  1
  O  O44  1  0.58673900  0.19217600  0.20728200  1
  O  O45  1  0.60543700  0.91326100  0.12054300  1
  O  O46  1  0.30782400  0.89456300  0.01510600  1
  O  O47  1  0.48489400  0.37945700  0.29271800  1
loop_
_geom_bond_atom_site_label_1
_geom_bond_atom_site_label_2
_geom_bond_distance
_geom_bond_site_symmetry_2
Mn0 O5 2.302879 1_655
Mn0 O15 2.302879 1_555
Mn0 O17 2.302879 1_555
Mn0 O6 2.302879 1_555
Mn0 O10 2.443200 1_655
Mn0 O18 2.443200 1_555
Mn0 O4 2.443200 1_555
Mn0 O13 2.443200 1_555
Mn1 O4 2.302879 1_556
Mn1 O7 2.302879 1_555
Mn1 O11 2.302879 1_555
Mn1 O22 2.302879 1_555
Mn1 O15 2.443200 1_556
Mn1 O16 2.443200 1_555
Mn1 O21 2.443200 1_555
Mn1 O0 2.443200 1_555
Mn2 O9 2.302879 1_555
Mn2 O18 2.302879 1_555
Mn2 O14 2.302879 1_655
Mn2 O3 2.302879 1_555
Mn2 O1 2.443200 1_655
Mn2 O19 2.443200 1_555
Mn2 O2 2.443200 1_555
Mn2 O17 2.443200 1_555
Mn3 O16 2.302879 1_555
Mn3 O12 2.302879 1_555
Mn3 O13 2.302879 1_556
Mn3 O2 2.302879 1_555
Mn3 O6 2.443200 1_556
Mn3 O9 2.443200 1_555
Mn3 O11 2.443200 1_555
Mn3 O23 2.443200 1_555
Mn4 O21 2.302879 1_565
Mn4 O10 2.302879 1_555
Mn4 O8 2.302879 1_555
Mn4 O1 2.302879 1_555
Mn4 O7 2.443200 1_565
Mn4 O20 2.443200 1_555
Mn4 O5 2.443200 1_555
Mn4 O14 2.443200 1_555
Mn5 O19 2.302879 1_555
Mn5 O20 2.302879 1_555
Mn5 O0 2.302879 1_565
Mn5 O23 2.302879 1_555
Mn5 O22 2.443200 1_565
Mn5 O12 2.443200 1_555
Mn5 O8 2.443200 1_555
Mn5 O3 2.443200 1_555
Mn6 O41 2.302879 1_555
Mn6 O29 2.302879 1_455
Mn6 O30 2.302879 1_555
Mn6 O39 2.302879 1_555
Mn6 O42 2.443200 1_555
Mn6 O34 2.443200 1_455
Mn6 O37 2.443200 1_555
Mn6 O28 2.443200 1_555
Mn7 O35 2.302879 1_555
Mn7 O28 2.302879 1_554
Mn7 O46 2.302879 1_555
Mn7 O31 2.302879 1_555
Mn7 O40 2.443200 1_555
Mn7 O45 2.443200 1_555
Mn7 O24 2.443200 1_555
Mn7 O39 2.443200 1_554
Mn8 O42 2.302879 1_555
Mn8 O33 2.302879 1_555
Mn8 O27 2.302879 1_555
Mn8 O38 2.302879 1_455
Mn8 O26 2.443200 1_555
Mn8 O25 2.443200 1_455
Mn8 O43 2.443200 1_555
Mn8 O41 2.443200 1_555
Mn9 O26 2.302879 1_555
Mn9 O36 2.302879 1_555
Mn9 O40 2.302879 1_555
Mn9 O37 2.302879 1_554
Mn9 O33 2.443200 1_555
Mn9 O47 2.443200 1_555
Mn9 O30 2.443200 1_554
Mn9 O35 2.443200 1_555
Mn10 O32 2.302879 1_555
Mn10 O45 2.302879 1_545
Mn10 O25 2.302879 1_555
Mn10 O34 2.302879 1_555
Mn10 O44 2.443200 1_555
Mn10 O38 2.443200 1_555
Mn10 O29 2.443200 1_555
Mn10 O31 2.443200 1_545
Mn11 O44 2.302879 1_555
Mn11 O24 2.302879 1_545
Mn11 O47 2.302879 1_555
Mn11 O43 2.302879 1_555
Mn11 O36 2.443200 1_555
Mn11 O27 2.443200 1_555
Mn11 O46 2.443200 1_545
Mn11 O32 2.443200 1_555
Cr0 O47 2.008819 1_555
Cr0 O2 2.008819 1_555
Cr0 O3 2.008819 1_555
Cr0 O26 2.008819 1_555
Cr0 O23 2.008819 1_555
Cr0 O27 2.008819 1_555
Cr1 O32 2.008819 1_555
Cr1 O7 2.008819 1_555
Cr1 O8 2.008819 1_545
Cr1 O0 2.008819 1_555
Cr1 O31 2.008819 1_545
Cr1 O24 2.008819 1_545
Cr2 O41 2.008819 1_555
Cr2 O10 2.008819 1_555
Cr2 O34 2.008819 1_455
Cr2 O14 2.008819 1_555
Cr2 O17 2.008819 1_455
Cr2 O38 2.008819 1_455
Cr3 O35 2.008819 1_555
Cr3 O15 2.008819 1_555
Cr3 O13 2.008819 1_555
Cr3 O11 2.008819 1_554
Cr3 O37 2.008819 1_554
Cr3 O39 2.008819 1_554
Cr4 O42 2.008819 1_555
Cr4 O25 2.008819 1_455
Cr4 O29 2.008819 1_455
Cr4 O1 2.008819 1_545
Cr4 O5 2.008819 1_545
Cr4 O18 2.008819 1_445
Cr5 O40 2.008819 1_555
Cr5 O28 2.008819 1_554
Cr5 O30 2.008819 1_554
Cr5 O6 2.008819 1_455
Cr5 O4 2.008819 1_455
Cr5 O16 2.008819 1_454
Cr6 O44 2.008819 1_555
Cr6 O45 2.008819 1_545
Cr6 O46 2.008819 1_545
Cr6 O22 2.008819 1_554
Cr6 O21 2.008819 1_554
Cr6 O20 2.008819 1_544
Cr7 O33 2.008819 1_555
Cr7 O43 2.008819 1_555
Cr7 O36 2.008819 1_555
Cr7 O12 2.008819 1_444
Cr7 O19 2.008819 1_444
Cr7 O9 2.008819 1_444
O0 Si1 1.658873 1_555
O1 Si9 1.658873 1_565
O2 Si10 1.658873 1_555
O3 Si7 1.658873 1_555
O4 Si8 1.658873 1_555
O5 Si0 1.658873 1_555
O6 Si0 1.658873 1_655
O7 Si3 1.658873 1_555
O8 Si2 1.658873 1_555
O9 Si5 1.658873 1_655
O10 Si2 1.658873 1_555
O11 Si3 1.658873 1_555
O12 Si4 1.658873 1_556
O13 Si4 1.658873 1_555
O14 Si5 1.658873 1_555
O15 Si11 1.658873 1_555
O16 Si10 1.658873 1_555
O17 Si11 1.658873 1_555
O18 Si7 1.658873 1_555
O19 Si1 1.658873 1_565
O20 Si6 1.658873 1_555
O21 Si9 1.658873 1_555
O22 Si8 1.658873 1_556
O23 Si6 1.658873 1_555
O24 Si0 1.658873 1_555
O25 Si4 1.658873 1_545
O26 Si2 1.658873 1_555
O27 Si3 1.658873 1_555
O28 Si5 1.658873 1_555
O29 Si1 1.658873 1_555
O30 Si1 1.658873 1_455
O31 Si7 1.658873 1_555
O32 Si10 1.658873 1_555
O33 Si8 1.658873 1_455
O34 Si10 1.658873 1_555
O35 Si7 1.658873 1_555
O36 Si9 1.658873 1_554
O37 Si9 1.658873 1_555
O38 Si8 1.658873 1_555
O39 Si6 1.658873 1_555
O40 Si2 1.658873 1_555
O41 Si6 1.658873 1_555
O42 Si3 1.658873 1_555
O43 Si0 1.658873 1_545
O44 Si11 1.658873 1_555
O45 Si4 1.658873 1_555
O46 Si5 1.658873 1_554
O47 Si11 1.658873 1_555
