# generated using pymatgen
data_Mg4Sb2O9
_symmetry_space_group_name_H-M   'P 1'
_cell_length_a   5.17879035
_cell_length_b   5.56316240
_cell_length_c   11.70701967
_cell_angle_alpha   98.16276452
_cell_angle_beta   102.73882857
_cell_angle_gamma   90.74375438
_symmetry_Int_Tables_number   1
_chemical_formula_structural   Mg4Sb2O9
_chemical_formula_sum   'Mg8 Sb4 O18'
_cell_volume   325.30656307
_cell_formula_units_Z   2
loop_
 _symmetry_equiv_pos_site_id
 _symmetry_equiv_pos_as_xyz
  1  'x, y, z'
loop_
 _atom_site_type_symbol
 _atom_site_label
 _atom_site_symmetry_multiplicity
 _atom_site_fract_x
 _atom_site_fract_y
 _atom_site_fract_z
 _atom_site_occupancy
  Mg  Mg0  1  0.22479817  0.48405613  0.42025644  1
  Mg  Mg1  1  0.61665850  0.32993404  0.23014265  1
  Mg  Mg2  1  0.53700834  0.84355073  0.09666749  1
  Mg  Mg3  1  0.11182970  0.82962820  0.23278413  1
  Mg  Mg4  1  0.88817030  0.17037180  0.76721587  1
  Mg  Mg5  1  0.46299166  0.15644927  0.90333251  1
  Mg  Mg6  1  0.38334150  0.67006596  0.76985735  1
  Mg  Mg7  1  0.77520183  0.51594387  0.57974356  1
  Sb  Sb0  1  0.28560359  0.96937328  0.57297112  1
  Sb  Sb1  1  0.94339717  0.64982339  0.89375964  1
  Sb  Sb2  1  0.05660283  0.35017661  0.10624036  1
  Sb  Sb3  1  0.71439641  0.03062672  0.42702888  1
  O  O0  1  0.72482435  0.90622666  0.83358340  1
  O  O1  1  0.42509456  0.65115726  0.59615781  1
  O  O2  1  0.98308181  0.48301136  0.26334617  1
  O  O3  1  0.06378481  0.22870871  0.50247573  1
  O  O4  1  0.78030609  0.97705235  0.27185558  1
  O  O5  1  0.29188477  0.81867137  0.93278891  1
  O  O6  1  0.36030657  0.86485999  0.40420659  1
  O  O7  1  0.87779371  0.67204851  0.05799364  1
  O  O8  1  0.37251075  0.58131616  0.16575269  1
  O  O9  1  0.62748925  0.41868384  0.83424731  1
  O  O10  1  0.12220629  0.32795149  0.94200636  1
  O  O11  1  0.63969343  0.13514001  0.59579341  1
  O  O12  1  0.70811523  0.18132863  0.06721109  1
  O  O13  1  0.21969391  0.02294765  0.72814442  1
  O  O14  1  0.93621519  0.77129129  0.49752427  1
  O  O15  1  0.01691819  0.51698864  0.73665383  1
  O  O16  1  0.57490544  0.34884274  0.40384219  1
  O  O17  1  0.27517565  0.09377334  0.16641660  1
loop_
_geom_bond_atom_site_label_1
_geom_bond_atom_site_label_2
_geom_bond_distance
_geom_bond_site_symmetry_2
Mg0 O2 1.980932 1_455
Mg0 O16 2.009531 1_555
Mg0 O3 2.085961 1_555
Mg0 O1 2.161042 1_555
Mg0 O6 2.268988 1_555
Mg0 O14 2.419289 1_455
Mg1 O2 2.004007 1_555
Mg1 O8 2.011863 1_555
Mg1 O16 2.080077 1_555
Mg1 O17 2.118873 1_555
Mg1 O12 2.122951 1_555
Mg1 O4 2.223407 1_545
Mg2 O8 2.028488 1_555
Mg2 O5 2.038960 1_554
Mg2 O7 2.122131 1_555
Mg2 O17 2.158172 1_565
Mg2 O12 2.170428 1_565
Mg2 O4 2.179217 1_555
Mg3 O17 2.015061 1_565
Mg3 O4 2.026312 1_455
Mg3 O6 2.112958 1_555
Mg3 O8 2.134106 1_555
Mg3 O2 2.135091 1_455
Mg3 O7 2.189517 1_455
Mg4 O0 2.015061 1_545
Mg4 O13 2.026312 1_655
Mg4 O11 2.112958 1_555
Mg4 O9 2.134106 1_555
Mg4 O15 2.135091 1_655
Mg4 O10 2.189517 1_655
Mg5 O9 2.028488 1_555
Mg5 O12 2.038960 1_556
Mg5 O10 2.122131 1_555
Mg5 O0 2.158172 1_545
Mg5 O5 2.170428 1_545
Mg5 O13 2.179217 1_555
Mg6 O15 2.004007 1_555
Mg6 O9 2.011863 1_555
Mg6 O1 2.080077 1_555
Mg6 O0 2.118873 1_555
Mg6 O5 2.122951 1_555
Mg6 O13 2.223407 1_565
Mg7 O15 1.980932 1_655
Mg7 O1 2.009531 1_555
Mg7 O14 2.085961 1_555
Mg7 O16 2.161042 1_555
Mg7 O11 2.268988 1_555
Mg7 O3 2.419289 1_655
O0 Sb1 1.946238 1_555
O1 Sb0 1.952597 1_555
O2 Sb2 2.001012 1_655
O3 Sb0 2.011276 1_545
O3 Sb3 2.058021 1_455
O4 Sb3 1.904674 1_565
O5 Sb1 1.954138 1_455
O6 Sb3 1.988602 1_565
O6 Sb0 2.099513 1_555
O7 Sb1 2.012243 1_554
O7 Sb2 2.117182 1_655
O8 Sb2 2.000931 1_555
O9 Sb1 2.000931 1_555
O10 Sb2 2.012243 1_556
O10 Sb1 2.117182 1_455
O11 Sb0 1.988602 1_545
O11 Sb3 2.099513 1_555
O12 Sb2 1.954138 1_655
O13 Sb0 1.904674 1_545
O14 Sb3 2.011276 1_565
O14 Sb0 2.058021 1_655
O15 Sb1 2.001012 1_455
O16 Sb3 1.952597 1_555
O17 Sb2 1.946238 1_555
