# generated using pymatgen
data_RbVSO6
_symmetry_space_group_name_H-M   'P 1'
_cell_length_a   5.63677900
_cell_length_b   9.04028700
_cell_length_c   10.96917300
_cell_angle_alpha   90.00000000
_cell_angle_beta   90.00000000
_cell_angle_gamma   90.00000000
_symmetry_Int_Tables_number   1
_chemical_formula_structural   RbVSO6
_chemical_formula_sum   'Rb4 V4 S4 O24'
_cell_volume   558.96821373
_cell_formula_units_Z   4
loop_
 _symmetry_equiv_pos_site_id
 _symmetry_equiv_pos_as_xyz
  1  'x, y, z'
loop_
 _atom_site_type_symbol
 _atom_site_label
 _atom_site_symmetry_multiplicity
 _atom_site_fract_x
 _atom_site_fract_y
 _atom_site_fract_z
 _atom_site_occupancy
  Rb  Rb0  1  0.00328200  0.68802900  0.84376500  1
  Rb  Rb1  1  0.49671800  0.31197100  0.34376500  1
  Rb  Rb2  1  0.50328200  0.81197100  0.15623500  1
  Rb  Rb3  1  0.99671800  0.18802900  0.65623500  1
  V  V0  1  0.54059800  0.84688400  0.55953300  1
  V  V1  1  0.04059800  0.65311600  0.44046700  1
  V  V2  1  0.45940200  0.34688400  0.94046700  1
  V  V3  1  0.95940200  0.15311600  0.05953300  1
  S  S0  1  0.51846600  0.45778500  0.71164100  1
  S  S1  1  0.98153400  0.54221500  0.21164100  1
  S  S2  1  0.01846600  0.04221500  0.28835900  1
  S  S3  1  0.48153400  0.95778500  0.78835900  1
  O  O0  1  0.19970400  0.09490300  0.19119600  1
  O  O1  1  0.80029600  0.59490300  0.30880400  1
  O  O2  1  0.70949000  0.91610500  0.71929400  1
  O  O3  1  0.55216600  0.00132800  0.48423500  1
  O  O4  1  0.96510000  0.38240500  0.19828700  1
  O  O5  1  0.94783400  0.99867200  0.98423500  1
  O  O6  1  0.67552100  0.24142600  0.02071000  1
  O  O7  1  0.54507600  0.37328000  0.59986200  1
  O  O8  1  0.29051000  0.41610500  0.78070600  1
  O  O9  1  0.82447900  0.75857400  0.52071000  1
  O  O10  1  0.32447900  0.74142600  0.47929000  1
  O  O11  1  0.17552100  0.25857400  0.97929000  1
  O  O12  1  0.20949000  0.58389500  0.28070600  1
  O  O13  1  0.04507600  0.12672000  0.40013800  1
  O  O14  1  0.79051000  0.08389500  0.21929400  1
  O  O15  1  0.95492400  0.62672000  0.09986200  1
  O  O16  1  0.03490000  0.88240500  0.30171300  1
  O  O17  1  0.45492400  0.87328000  0.90013800  1
  O  O18  1  0.30029600  0.90509700  0.69119600  1
  O  O19  1  0.69970400  0.40509700  0.80880400  1
  O  O20  1  0.44783400  0.50132800  0.01576500  1
  O  O21  1  0.53490000  0.61759500  0.69828700  1
  O  O22  1  0.05216600  0.49867200  0.51576500  1
  O  O23  1  0.46510000  0.11759500  0.80171300  1
loop_
_geom_bond_atom_site_label_1
_geom_bond_atom_site_label_2
_geom_bond_distance
_geom_bond_site_symmetry_2
O0 S2 1.551278 1_555
O0 V3 2.048784 1_455
O0 Rb1 3.074831 1_555
O0 Rb2 3.101218 1_545
O1 S1 1.551278 1_555
O1 V1 2.048784 1_655
O1 Rb2 3.074831 1_555
O1 Rb1 3.101218 1_555
O2 S3 1.538499 1_555
O2 V0 2.090211 1_555
O2 Rb0 2.976231 1_655
O2 Rb3 3.023714 1_565
O3 V0 1.623540 1_545
O3 Rb1 3.218452 1_555
O4 S1 1.455087 1_555
O4 V3 2.571814 1_555
O4 Rb1 3.149986 1_555
O5 V3 1.623540 1_566
O5 Rb0 3.218452 1_655
O6 V2 1.779807 1_554
O6 V3 1.838279 1_555
O7 S0 1.452410 1_555
O7 Rb1 2.876273 1_555
O7 Rb3 3.109373 1_555
O8 S0 1.538499 1_555
O8 V2 2.090211 1_555
O8 Rb3 2.976231 1_455
O8 Rb0 3.023714 1_555
O9 V1 1.779807 1_655
O9 V0 1.838279 1_555
O10 V0 1.779807 1_555
O10 V1 1.838279 1_555
O11 V3 1.779807 1_456
O11 V2 1.838279 1_555
O12 S1 1.538499 1_455
O12 V1 2.090211 1_555
O12 Rb2 2.976231 1_555
O12 Rb1 3.023714 1_555
O13 S2 1.452410 1_555
O13 Rb3 2.876273 1_455
O13 Rb1 3.109373 1_555
O14 S2 1.538499 1_655
O14 V3 2.090211 1_555
O14 Rb1 2.976231 1_555
O14 Rb2 3.023714 1_545
O15 S1 1.452410 1_555
O15 Rb0 2.876273 1_654
O15 Rb2 3.109373 1_555
O16 S2 1.455087 1_565
O16 V1 2.571814 1_555
O16 Rb2 3.149986 1_555
O17 S3 1.452410 1_555
O17 Rb2 2.876273 1_556
O17 Rb0 3.109373 1_555
O18 S3 1.551278 1_555
O18 V0 2.048784 1_555
O18 Rb0 3.074831 1_555
O18 Rb3 3.101218 1_465
O19 S0 1.551278 1_555
O19 V2 2.048784 1_555
O19 Rb3 3.074831 1_555
O19 Rb0 3.101218 1_655
O20 V2 1.623540 1_554
O20 Rb2 3.218452 1_555
O21 S0 1.455087 1_555
O21 V0 2.571814 1_555
O21 Rb0 3.149986 1_655
O22 V1 1.623540 1_555
O22 Rb3 3.218452 1_455
O23 S3 1.455087 1_545
O23 V2 2.571814 1_555
O23 Rb3 3.149986 1_455
