# generated using pymatgen
data_NaAlSi2H2O7
_symmetry_space_group_name_H-M   'P 1'
_cell_length_a   12.04845808
_cell_length_b   12.04845808
_cell_length_c   13.74727562
_cell_angle_alpha   55.14479775
_cell_angle_beta   55.14479775
_cell_angle_gamma   70.53640327
_symmetry_Int_Tables_number   1
_chemical_formula_structural   NaAlSi2H2O7
_chemical_formula_sum   'Na8 Al8 Si16 H16 O56'
_cell_volume   1343.75691768
_cell_formula_units_Z   8
loop_
 _symmetry_equiv_pos_site_id
 _symmetry_equiv_pos_as_xyz
  1  'x, y, z'
loop_
 _atom_site_type_symbol
 _atom_site_label
 _atom_site_symmetry_multiplicity
 _atom_site_fract_x
 _atom_site_fract_y
 _atom_site_fract_z
 _atom_site_occupancy
  Na  Na0  1  0.43284300  0.90984800  0.82943100  1
  Na  Na1  1  0.06766900  0.93233100  0.25000000  1
  Na  Na2  1  0.09015200  0.56715700  0.67056900  1
  Na  Na3  1  0.42614600  0.57385400  0.75000000  1
  Na  Na4  1  0.57385400  0.42614600  0.25000000  1
  Na  Na5  1  0.90984800  0.43284300  0.32943100  1
  Na  Na6  1  0.93233100  0.06766900  0.75000000  1
  Na  Na7  1  0.56715700  0.09015200  0.17056900  1
  Al  Al0  1  0.97625100  0.78343900  0.77461300  1
  Al  Al1  1  0.78343900  0.97625100  0.27461300  1
  Al  Al2  1  0.53893100  0.72614000  0.03442600  1
  Al  Al3  1  0.27386000  0.46106900  0.46557400  1
  Al  Al4  1  0.72614000  0.53893100  0.53442600  1
  Al  Al5  1  0.46106900  0.27386000  0.96557400  1
  Al  Al6  1  0.21656100  0.02374900  0.72538700  1
  Al  Al7  1  0.02374900  0.21656100  0.22538700  1
  Si  Si0  1  0.25365800  0.91560700  0.54267800  1
  Si  Si1  1  0.72750300  0.97383900  0.73585400  1
  Si  Si2  1  0.53425500  0.78721500  0.43303800  1
  Si  Si3  1  0.78721500  0.53425500  0.93303800  1
  Si  Si4  1  0.39879900  0.73758200  0.31539000  1
  Si  Si5  1  0.08439300  0.74634200  0.95732200  1
  Si  Si6  1  0.73758200  0.39879900  0.81539000  1
  Si  Si7  1  0.97383900  0.72750300  0.23585400  1
  Si  Si8  1  0.02616100  0.27249700  0.76414600  1
  Si  Si9  1  0.26241800  0.60120100  0.18461000  1
  Si  Si10  1  0.91560700  0.25365800  0.04267800  1
  Si  Si11  1  0.60120100  0.26241800  0.68461000  1
  Si  Si12  1  0.21278500  0.46574500  0.06696200  1
  Si  Si13  1  0.46574500  0.21278500  0.56696200  1
  Si  Si14  1  0.27249700  0.02616100  0.26414600  1
  Si  Si15  1  0.74634200  0.08439300  0.45732200  1
  H  H0  1  0.78405400  0.94927400  0.02322300  1
  H  H1  1  0.24698700  0.64723700  0.66774200  1
  H  H2  1  0.94927400  0.78405400  0.52322300  1
  H  H3  1  0.46520200  0.66797500  0.87138400  1
  H  H4  1  0.23701100  0.89281300  0.05594200  1
  H  H5  1  0.33202500  0.53479800  0.62861600  1
  H  H6  1  0.35276300  0.75301300  0.83225800  1
  H  H7  1  0.10718700  0.76298900  0.44405800  1
  H  H8  1  0.89281300  0.23701100  0.55594200  1
  H  H9  1  0.64723700  0.24698700  0.16774200  1
  H  H10  1  0.66797500  0.46520200  0.37138400  1
  H  H11  1  0.76298900  0.10718700  0.94405800  1
  H  H12  1  0.53479800  0.33202500  0.12861600  1
  H  H13  1  0.05072600  0.21594600  0.47677700  1
  H  H14  1  0.75301300  0.35276300  0.33225800  1
  H  H15  1  0.21594600  0.05072600  0.97677700  1
  O  O0  1  0.99154600  0.78991100  0.89045900  1
  O  O1  1  0.87515400  0.92489700  0.72355600  1
  O  O2  1  0.63793900  0.91353200  0.32354500  1
  O  O3  1  0.60474600  0.87620500  0.87758400  1
  O  O4  1  0.39352200  0.82987400  0.53954000  1
  O  O5  1  0.13953200  0.80109700  0.63164400  1
  O  O6  1  0.72039000  0.98352900  0.61476600  1
  O  O7  1  0.73684300  0.01833400  0.97432400  1
  O  O8  1  0.19890300  0.86046800  0.86835600  1
  O  O9  1  0.29302500  0.86875400  0.29023400  1
  O  O10  1  0.78991100  0.99154600  0.39045900  1
  O  O11  1  0.91353200  0.63793900  0.82354500  1
  O  O12  1  0.49488000  0.76499000  0.34907000  1
  O  O13  1  0.44890900  0.72439000  0.79448300  1
  O  O14  1  0.27561000  0.55109100  0.70551700  1
  O  O15  1  0.01833400  0.73684300  0.47432400  1
  O  O16  1  0.49328800  0.71853300  0.18352800  1
  O  O17  1  0.76499000  0.49488000  0.84907000  1
  O  O18  1  0.30061500  0.60808600  0.45012800  1
  O  O19  1  0.92489700  0.87515400  0.22355600  1
  O  O20  1  0.17012600  0.60647800  0.96046000  1
  O  O21  1  0.59019500  0.65032200  0.52414500  1
  O  O22  1  0.01647100  0.27961000  0.88523400  1
  O  O23  1  0.12379500  0.39525400  0.62241600  1
  O  O24  1  0.71853300  0.49328800  0.68352800  1
  O  O25  1  0.13124600  0.70697500  0.20976600  1
  O  O26  1  0.39191400  0.69938500  0.04987200  1
  O  O27  1  0.65032200  0.59019500  0.02414500  1
  O  O28  1  0.34967800  0.40980500  0.97585500  1
  O  O29  1  0.60808600  0.30061500  0.95012800  1
  O  O30  1  0.86875400  0.29302500  0.79023400  1
  O  O31  1  0.28146700  0.50671200  0.31647200  1
  O  O32  1  0.87620500  0.60474600  0.37758400  1
  O  O33  1  0.98352900  0.72039000  0.11476600  1
  O  O34  1  0.40980500  0.34967800  0.47585500  1
  O  O35  1  0.82987400  0.39352200  0.03954000  1
  O  O36  1  0.07510300  0.12484600  0.77644400  1
  O  O37  1  0.69938500  0.39191400  0.54987200  1
  O  O38  1  0.23501000  0.50512000  0.15093000  1
  O  O39  1  0.50671200  0.28146700  0.81647200  1
  O  O40  1  0.98166600  0.26315700  0.52567600  1
  O  O41  1  0.72439000  0.44890900  0.29448300  1
  O  O42  1  0.55109100  0.27561000  0.20551700  1
  O  O43  1  0.50512000  0.23501000  0.65093000  1
  O  O44  1  0.08646800  0.36206100  0.17645500  1
  O  O45  1  0.21008900  0.00845400  0.60954100  1
  O  O46  1  0.70697500  0.13124600  0.70976600  1
  O  O47  1  0.80109700  0.13953200  0.13164400  1
  O  O48  1  0.26315700  0.98166600  0.02567600  1
  O  O49  1  0.27961000  0.01647100  0.38523400  1
  O  O50  1  0.86046800  0.19890300  0.36835600  1
  O  O51  1  0.60647800  0.17012600  0.46046000  1
  O  O52  1  0.39525400  0.12379500  0.12241600  1
  O  O53  1  0.36206100  0.08646800  0.67645500  1
  O  O54  1  0.12484600  0.07510300  0.27644400  1
  O  O55  1  0.00845400  0.21008900  0.10954100  1
loop_
_geom_bond_atom_site_label_1
_geom_bond_atom_site_label_2
_geom_bond_distance
_geom_bond_site_symmetry_2
Na0 O53 2.324578 1_565
Na0 O3 2.364992 1_555
Na0 O13 2.468547 1_555
Na0 O26 2.489712 1_556
Na0 O48 2.718787 1_556
Na0 O8 2.759453 1_555
Na0 O6 2.978039 1_555
Na1 O19 2.314412 1_455
Na1 O54 2.314412 1_565
Na2 O11 2.324578 1_455
Na2 O23 2.364992 1_555
Na2 O14 2.468547 1_555
Na2 O18 2.489712 1_555
Na2 O15 2.718787 1_555
Na2 O5 2.759453 1_555
Na2 O22 2.978039 1_555
Na3 O28 2.307635 1_555
Na3 O21 2.307635 1_555
Na3 O14 2.351536 1_555
Na3 O13 2.351536 1_555
Na4 O34 2.307635 1_555
Na4 O27 2.307635 1_555
Na4 O42 2.351536 1_555
Na4 O41 2.351536 1_555
Na5 O44 2.324578 1_655
Na5 O32 2.364992 1_555
Na5 O41 2.468547 1_555
Na5 O37 2.489712 1_555
Na5 O40 2.718787 1_555
Na5 O50 2.759453 1_555
Na5 O33 2.978039 1_555
Na6 O1 2.314412 1_545
Na6 O36 2.314412 1_655
Na7 O2 2.324578 1_545
Na7 O52 2.364992 1_555
Na7 O42 2.468547 1_555
Na7 O29 2.489712 1_554
Na7 O7 2.718787 1_554
Na7 O47 2.759453 1_555
Na7 O49 2.978039 1_555
Al0 O11 1.746605 1_555
Al0 O0 1.750223 1_555
Al0 O1 1.762818 1_555
Al0 O5 1.777598 1_655
Al1 O2 1.746605 1_555
Al1 O10 1.750223 1_555
Al1 O19 1.762818 1_555
Al1 O47 1.777598 1_565
Al2 O16 1.744341 1_555
Al2 O27 1.756939 1_555
Al2 O3 1.758432 1_554
Al2 O26 1.777351 1_555
Al3 O31 1.744341 1_555
Al3 O34 1.756939 1_555
Al3 O23 1.758432 1_555
Al3 O18 1.777351 1_555
Al4 O24 1.744341 1_555
Al4 O21 1.756939 1_555
Al4 O32 1.758432 1_555
Al4 O37 1.777351 1_555
Al5 O39 1.744341 1_555
Al5 O28 1.756939 1_555
Al5 O52 1.758432 1_556
Al5 O29 1.777351 1_555
Al6 O53 1.746605 1_555
Al6 O45 1.750223 1_555
Al6 O36 1.762818 1_555
Al6 O8 1.777598 1_545
Al7 O44 1.746605 1_555
Al7 O55 1.750223 1_555
Al7 O54 1.762818 1_555
Al7 O50 1.777598 1_455
H0 O7 0.974731 1_564
H1 O14 0.990655 1_555
H1 Na2 2.364591 1_555
H2 O15 0.974731 1_655
H3 O13 0.972173 1_555
H3 Na0 2.560455 1_555
H4 O48 0.992077 1_555
H4 Na0 2.549506 1_554
H5 O14 0.972173 1_555
H5 Na2 2.560455 1_555
H6 O13 0.990655 1_555
H6 Na0 2.364591 1_555
H7 O15 0.992077 1_555
H7 Na2 2.549506 1_555
H8 O40 0.992077 1_555
H8 Na5 2.549506 1_555
H9 O42 0.990655 1_555
H9 Na7 2.364591 1_555
H10 O41 0.972173 1_555
H10 Na5 2.560455 1_555
H11 O7 0.992077 1_555
H11 Na7 2.549506 1_556
H12 O42 0.972173 1_555
H12 Na7 2.560455 1_555
H13 O40 0.974731 1_455
H14 O41 0.990655 1_555
H14 Na5 2.364591 1_555
H15 O48 0.974731 1_546
O0 Si5 1.613789 1_655
O1 Si1 1.616207 1_555
O2 Si2 1.625367 1_555
O3 Si1 1.616607 1_555
O4 Si0 1.648148 1_555
O4 Si2 1.650653 1_555
O5 Si0 1.644195 1_555
O6 Si1 1.651128 1_555
O6 Si15 1.653038 1_565
O8 Si5 1.644195 1_555
O9 Si4 1.666812 1_555
O9 Si14 1.672696 1_565
O10 Si15 1.613789 1_565
O11 Si3 1.625367 1_555
O12 Si2 1.641083 1_555
O12 Si4 1.644897 1_555
O16 Si4 1.605413 1_555
O17 Si3 1.641083 1_555
O17 Si6 1.644897 1_555
O18 Si4 1.639160 1_555
O19 Si7 1.616207 1_555
O20 Si5 1.648148 1_555
O20 Si12 1.650653 1_556
O21 Si2 1.614365 1_555
O22 Si8 1.651128 1_555
O22 Si10 1.653038 1_456
O23 Si8 1.616607 1_555
O24 Si6 1.605413 1_555
O25 Si9 1.666812 1_555
O25 Si7 1.672696 1_455
O26 Si9 1.639160 1_555
O27 Si3 1.614365 1_554
O28 Si12 1.614365 1_556
O29 Si6 1.639160 1_555
O30 Si6 1.666812 1_555
O30 Si8 1.672696 1_655
O31 Si9 1.605413 1_555
O32 Si7 1.616607 1_555
O33 Si7 1.651128 1_555
O33 Si5 1.653038 1_654
O34 Si13 1.614365 1_555
O35 Si10 1.648148 1_555
O35 Si3 1.650653 1_554
O36 Si8 1.616207 1_555
O37 Si11 1.639160 1_555
O38 Si12 1.641083 1_555
O38 Si9 1.644897 1_555
O39 Si11 1.605413 1_555
O43 Si13 1.641083 1_555
O43 Si11 1.644897 1_555
O44 Si12 1.625367 1_555
O45 Si0 1.613789 1_545
O46 Si11 1.666812 1_555
O46 Si1 1.672696 1_545
O47 Si10 1.644195 1_555
O49 Si14 1.651128 1_555
O49 Si0 1.653038 1_545
O50 Si15 1.644195 1_555
O51 Si15 1.648148 1_555
O51 Si13 1.650653 1_555
O52 Si14 1.616607 1_555
O53 Si13 1.625367 1_555
O54 Si14 1.616207 1_555
O55 Si10 1.613789 1_455
