# generated using pymatgen
data_CrC5SO7
_symmetry_space_group_name_H-M   'P 1'
_cell_length_a   6.68962300
_cell_length_b   12.64696200
_cell_length_c   22.12043700
_cell_angle_alpha   90.00000000
_cell_angle_beta   90.00000000
_cell_angle_gamma   90.00000000
_symmetry_Int_Tables_number   1
_chemical_formula_structural   CrC5SO7
_chemical_formula_sum   'Cr8 C40 S8 O56'
_cell_volume   1871.46435389
_cell_formula_units_Z   8
loop_
 _symmetry_equiv_pos_site_id
 _symmetry_equiv_pos_as_xyz
  1  'x, y, z'
loop_
 _atom_site_type_symbol
 _atom_site_label
 _atom_site_symmetry_multiplicity
 _atom_site_fract_x
 _atom_site_fract_y
 _atom_site_fract_z
 _atom_site_occupancy
  Cr  Cr0  1  0.01083500  0.74060000  0.05826100  1
  Cr  Cr1  1  0.99730400  0.99331500  0.31383000  1
  Cr  Cr2  1  0.51083500  0.75940000  0.55826100  1
  Cr  Cr3  1  0.98916500  0.25940000  0.55826100  1
  Cr  Cr4  1  0.48916500  0.24060000  0.05826100  1
  Cr  Cr5  1  0.00269600  0.00668500  0.81383000  1
  Cr  Cr6  1  0.50269600  0.49331500  0.31383000  1
  Cr  Cr7  1  0.49730400  0.50668500  0.81383000  1
  C  C0  1  0.35089600  0.54276600  0.38228600  1
  C  C1  1  0.86200000  0.39491400  0.54846300  1
  C  C2  1  0.11949100  0.12253300  0.56515400  1
  C  C3  1  0.71636400  0.44900900  0.36582800  1
  C  C4  1  0.36200000  0.10508600  0.04846300  1
  C  C5  1  0.66099500  0.70917300  0.48974800  1
  C  C6  1  0.36789400  0.37009300  0.80697800  1
  C  C7  1  0.13210600  0.87009300  0.80697800  1
  C  C8  1  0.65344500  0.44032800  0.24525400  1
  C  C9  1  0.34655500  0.55967200  0.74525400  1
  C  C10  1  0.33900500  0.29082700  0.98974800  1
  C  C11  1  0.20231300  0.30389400  0.50644700  1
  C  C12  1  0.16099500  0.79082700  0.98974800  1
  C  C13  1  0.86301500  0.68717200  0.12739200  1
  C  C14  1  0.62639500  0.64215900  0.82378500  1
  C  C15  1  0.36301500  0.81282800  0.62739200  1
  C  C16  1  0.15344500  0.05967200  0.74525400  1
  C  C17  1  0.13698500  0.31282800  0.62739200  1
  C  C18  1  0.64910400  0.45723400  0.88228600  1
  C  C19  1  0.70231300  0.19610600  0.00644700  1
  C  C20  1  0.14910400  0.04276600  0.38228600  1
  C  C21  1  0.12639500  0.85784100  0.32378500  1
  C  C22  1  0.85089600  0.95723400  0.88228600  1
  C  C23  1  0.38050900  0.62253300  0.56515400  1
  C  C24  1  0.63800000  0.89491400  0.54846300  1
  C  C25  1  0.78363600  0.94900900  0.36582800  1
  C  C26  1  0.21636400  0.05099100  0.86582800  1
  C  C27  1  0.79768700  0.69610600  0.00644700  1
  C  C28  1  0.87360500  0.14215900  0.82378500  1
  C  C29  1  0.28363600  0.55099100  0.86582800  1
  C  C30  1  0.29768700  0.80389400  0.50644700  1
  C  C31  1  0.63210600  0.62990700  0.30697800  1
  C  C32  1  0.86789400  0.12990700  0.30697800  1
  C  C33  1  0.83900500  0.20917300  0.48974800  1
  C  C34  1  0.84655500  0.94032800  0.24525400  1
  C  C35  1  0.61949100  0.37746700  0.06515400  1
  C  C36  1  0.63698500  0.18717200  0.12739200  1
  C  C37  1  0.13800000  0.60508600  0.04846300  1
  C  C38  1  0.37360500  0.35784100  0.32378500  1
  C  C39  1  0.88050900  0.87746700  0.06515400  1
  S  S0  1  0.24026400  0.29438700  0.11906600  1
  S  S1  1  0.75973600  0.70561300  0.61906600  1
  S  S2  1  0.74026400  0.20561300  0.61906600  1
  S  S3  1  0.25973600  0.79438700  0.11906600  1
  S  S4  1  0.75884700  0.95495800  0.75025300  1
  S  S5  1  0.24115300  0.04504200  0.25025300  1
  S  S6  1  0.74115300  0.45495800  0.75025300  1
  S  S7  1  0.25884700  0.54504200  0.25025300  1
  O  O0  1  0.72258200  0.66184900  0.67883500  1
  O  O1  1  0.77613200  0.65224400  0.16789900  1
  O  O2  1  0.70437000  0.72310300  0.82984800  1
  O  O3  1  0.66878200  0.66978100  0.97516900  1
  O  O4  1  0.30101000  0.57651600  0.18828100  1
  O  O5  1  0.27741800  0.33815100  0.17883500  1
  O  O6  1  0.69899000  0.42348400  0.68828100  1
  O  O7  1  0.26079100  0.57014900  0.42404800  1
  O  O8  1  0.75347800  0.67721100  0.44959000  1
  O  O9  1  0.27613200  0.84775600  0.66789900  1
  O  O10  1  0.15246600  0.57693100  0.89647400  1
  O  O11  1  0.72386800  0.15224400  0.16789900  1
  O  O12  1  0.65246600  0.92306900  0.39647400  1
  O  O13  1  0.70491300  0.71257100  0.30437600  1
  O  O14  1  0.76079100  0.92985100  0.92404800  1
  O  O15  1  0.75829200  0.90766000  0.20432500  1
  O  O16  1  0.29508700  0.28742900  0.80437600  1
  O  O17  1  0.77741800  0.16184900  0.67883500  1
  O  O18  1  0.80101000  0.92348400  0.68828100  1
  O  O19  1  0.74652200  0.17721100  0.44959000  1
  O  O20  1  0.79563000  0.22310300  0.82984800  1
  O  O21  1  0.03435500  0.28962700  0.09857300  1
  O  O22  1  0.20437000  0.77689700  0.32984800  1
  O  O23  1  0.53435500  0.21037300  0.59857300  1
  O  O24  1  0.20491300  0.78742900  0.80437600  1
  O  O25  1  0.19899000  0.07651600  0.18828100  1
  O  O26  1  0.83121800  0.16978100  0.97516900  1
  O  O27  1  0.30433100  0.54090400  0.56797800  1
  O  O28  1  0.74170800  0.40766000  0.20432500  1
  O  O29  1  0.19566900  0.04090400  0.56797800  1
  O  O30  1  0.25347800  0.82278900  0.94959000  1
  O  O31  1  0.71763600  0.97524800  0.54200400  1
  O  O32  1  0.46564500  0.78962700  0.09857300  1
  O  O33  1  0.96564500  0.71037300  0.59857300  1
  O  O34  1  0.73920900  0.42985100  0.92404800  1
  O  O35  1  0.69566900  0.45909600  0.06797800  1
  O  O36  1  0.94812100  0.45191600  0.77005600  1
  O  O37  1  0.29563000  0.27689700  0.32984800  1
  O  O38  1  0.24170800  0.09234000  0.70432500  1
  O  O39  1  0.16878200  0.83021900  0.47516900  1
  O  O40  1  0.84753400  0.42306900  0.39647400  1
  O  O41  1  0.23920900  0.07014900  0.42404800  1
  O  O42  1  0.44812100  0.04808400  0.27005600  1
  O  O43  1  0.21763600  0.52475200  0.04200400  1
  O  O44  1  0.24652200  0.32278900  0.94959000  1
  O  O45  1  0.28236400  0.02475200  0.04200400  1
  O  O46  1  0.78236400  0.47524800  0.54200400  1
  O  O47  1  0.33121800  0.33021900  0.47516900  1
  O  O48  1  0.25829200  0.59234000  0.70432500  1
  O  O49  1  0.80433100  0.95909600  0.06797800  1
  O  O50  1  0.22386800  0.34775600  0.66789900  1
  O  O51  1  0.22258200  0.83815100  0.17883500  1
  O  O52  1  0.79508700  0.21257100  0.30437600  1
  O  O53  1  0.05187900  0.54808400  0.27005600  1
  O  O54  1  0.55187900  0.95191600  0.77005600  1
  O  O55  1  0.34753400  0.07693100  0.89647400  1
loop_
_geom_bond_atom_site_label_1
_geom_bond_atom_site_label_2
_geom_bond_distance
_geom_bond_site_symmetry_2
Cr0 S3 2.245940 1_555
Cr1 S5 2.250953 1_665
Cr2 S1 2.245940 1_555
Cr3 S2 2.245940 1_555
Cr4 S0 2.245940 1_555
Cr5 S4 2.250953 1_445
Cr6 S7 2.250953 1_555
Cr7 S6 2.250953 1_555
C0 O7 1.156139 1_555
C0 Cr6 1.927531 1_555
C1 O46 1.156044 1_555
C1 Cr3 1.925588 1_555
C2 O29 1.152979 1_555
C2 Cr3 1.944102 1_455
C3 O40 1.156350 1_555
C3 Cr6 1.918344 1_555
C4 O45 1.156044 1_555
C4 Cr4 1.925588 1_555
C5 O8 1.155532 1_555
C5 Cr2 1.925982 1_555
C6 O16 1.154770 1_555
C6 Cr7 1.938191 1_555
C7 O24 1.154770 1_555
C7 Cr5 1.938191 1_565
C8 O28 1.157156 1_555
C8 Cr6 1.940909 1_555
C9 O48 1.157156 1_555
C9 Cr7 1.940909 1_555
C10 O44 1.155532 1_555
C10 Cr4 1.925982 1_556
C11 O47 1.154622 1_555
C11 Cr3 1.914010 1_455
C12 O30 1.155532 1_555
C12 Cr0 1.925982 1_556
C13 O1 1.155774 1_555
C13 Cr0 1.942394 1_655
C14 O2 1.156733 1_555
C14 Cr7 1.931259 1_555
C15 O9 1.155774 1_555
C15 Cr2 1.942394 1_555
C16 O38 1.157156 1_555
C16 Cr5 1.940909 1_555
C17 O50 1.155774 1_555
C17 Cr3 1.942394 1_455
C18 O34 1.156139 1_555
C18 Cr7 1.927531 1_555
C19 O26 1.154622 1_554
C19 Cr4 1.914010 1_555
C20 O41 1.156139 1_555
C20 Cr1 1.927531 1_445
C21 O22 1.156733 1_555
C21 Cr1 1.931259 1_455
C22 O14 1.156139 1_555
C22 Cr5 1.927531 1_665
C23 O27 1.152979 1_555
C23 Cr2 1.944102 1_555
C24 O31 1.156044 1_555
C24 Cr2 1.925588 1_555
C25 O12 1.156350 1_555
C25 Cr1 1.918344 1_555
C26 O55 1.156350 1_555
C26 Cr5 1.918344 1_555
C27 O3 1.154622 1_554
C27 Cr0 1.914010 1_655
C28 O20 1.156733 1_555
C28 Cr5 1.931259 1_655
C29 O10 1.156350 1_555
C29 Cr7 1.918344 1_555
C30 O39 1.154622 1_555
C30 Cr2 1.914010 1_555
C31 O13 1.154770 1_555
C31 Cr6 1.938191 1_555
C32 O52 1.154770 1_555
C32 Cr1 1.938191 1_545
C33 O19 1.155532 1_555
C33 Cr3 1.925982 1_555
C34 O15 1.157156 1_555
C34 Cr1 1.940909 1_555
C35 O35 1.152979 1_555
C35 Cr4 1.944102 1_555
C36 O11 1.155774 1_555
C36 Cr4 1.942394 1_555
C37 O43 1.156044 1_555
C37 Cr0 1.925588 1_555
C38 O37 1.156733 1_555
C38 Cr6 1.931259 1_555
C39 O49 1.152979 1_555
C39 Cr0 1.944102 1_655
O0 S1 1.454685 1_555
O4 S7 1.455068 1_555
O5 S0 1.454685 1_555
O6 S6 1.455068 1_555
O17 S2 1.454685 1_555
O18 S4 1.455068 1_555
O21 S0 1.451377 1_555
O23 S2 1.451377 1_555
O25 S5 1.455068 1_555
O32 S3 1.451377 1_555
O33 S1 1.451377 1_555
O36 S6 1.452692 1_555
O42 S5 1.452692 1_555
O51 S3 1.454685 1_555
O53 S7 1.452692 1_555
O54 S4 1.452692 1_555
