# generated using pymatgen
data_LiMn(PO3)4
_symmetry_space_group_name_H-M   'P 1'
_cell_length_a   4.93995000
_cell_length_b   7.10908147
_cell_length_c   7.53099462
_cell_angle_alpha   113.53771581
_cell_angle_beta   83.00020979
_cell_angle_gamma   110.09696391
_symmetry_Int_Tables_number   1
_chemical_formula_structural   LiMn(PO3)4
_chemical_formula_sum   'Li1 Mn1 P4 O12'
_cell_volume   227.67233901
_cell_formula_units_Z   1
loop_
 _symmetry_equiv_pos_site_id
 _symmetry_equiv_pos_as_xyz
  1  'x, y, z'
loop_
 _atom_site_type_symbol
 _atom_site_label
 _atom_site_symmetry_multiplicity
 _atom_site_fract_x
 _atom_site_fract_y
 _atom_site_fract_z
 _atom_site_occupancy
  Li  Li0  1  0.04036000  0.72484600  0.54820600  1
  Mn  Mn0  1  0.99855500  0.00464900  0.00443200  1
  P  P0  1  0.56190500  0.19892900  0.79172900  1
  P  P1  1  0.43892200  0.80082200  0.20636300  1
  P  P2  1  0.56464800  0.39838000  0.21437800  1
  P  P3  1  0.43454900  0.60332600  0.78502800  1
  O  O0  1  0.24623600  0.56393100  0.62823800  1
  O  O1  1  0.53594800  0.61076500  0.20595200  1
  O  O2  1  0.75875800  0.45727000  0.37511500  1
  O  O3  1  0.74409500  0.76506400  0.80157600  1
  O  O4  1  0.71784200  0.30565500  0.00659700  1
  O  O5  1  0.22786000  0.85876100  0.35667800  1
  O  O6  1  0.28118000  0.69566000  0.99278400  1
  O  O7  1  0.27473200  0.02505800  0.80471900  1
  O  O8  1  0.76730100  0.12711800  0.64455300  1
  O  O9  1  0.46239000  0.38843500  0.78731600  1
  O  O10  1  0.71598300  0.97850400  0.19626700  1
  O  O11  1  0.26320300  0.23382800  0.19936200  1
loop_
_geom_bond_atom_site_label_1
_geom_bond_atom_site_label_2
_geom_bond_distance
_geom_bond_site_symmetry_2
Li0 O2 1.973780 1_455
Li0 O5 2.002476 1_555
Li0 O0 2.050820 1_555
Li0 O3 2.244060 1_455
Li0 O7 2.276246 1_565
Mn0 O11 1.900623 1_655
Mn0 O10 1.901287 1_545
Mn0 O7 1.919018 1_654
Mn0 O3 1.932211 1_544
O0 P3 1.470585 1_555
O1 P1 1.580076 1_555
O1 P2 1.590483 1_555
O2 P2 1.470490 1_555
O3 P3 1.549058 1_555
O4 P2 1.638951 1_555
O4 P0 1.645930 1_554
O5 P1 1.474198 1_555
O6 P3 1.638733 1_555
O6 P1 1.642551 1_556
O7 P0 1.551650 1_555
O8 P0 1.465798 1_555
O9 P3 1.587137 1_555
O9 P0 1.597698 1_555
O10 P1 1.529002 1_555
O11 P2 1.528722 1_555
