# generated using pymatgen
data_K3AlH6
_symmetry_space_group_name_H-M   'P 1'
_cell_length_a   3.23851200
_cell_length_b   13.08575900
_cell_length_c   15.21153100
_cell_angle_alpha   90.00000000
_cell_angle_beta   90.00000000
_cell_angle_gamma   90.00000000
_symmetry_Int_Tables_number   1
_chemical_formula_structural   K3AlH6
_chemical_formula_sum   'K12 Al4 H24'
_cell_volume   644.64015596
_cell_formula_units_Z   4
loop_
 _symmetry_equiv_pos_site_id
 _symmetry_equiv_pos_as_xyz
  1  'x, y, z'
loop_
 _atom_site_type_symbol
 _atom_site_label
 _atom_site_symmetry_multiplicity
 _atom_site_fract_x
 _atom_site_fract_y
 _atom_site_fract_z
 _atom_site_occupancy
  K  K0  1  0.50000000  0.47102300  0.71973200  1
  K  K1  1  0.50000000  0.74623500  0.11722600  1
  K  K2  1  0.50000000  0.25376500  0.88277400  1
  K  K3  1  0.50000000  0.70042800  0.85190300  1
  K  K4  1  0.50000000  0.29957200  0.14809700  1
  K  K5  1  0.00000000  0.02897700  0.21973200  1
  K  K6  1  0.00000000  0.79957200  0.35190300  1
  K  K7  1  0.00000000  0.20042800  0.64809700  1
  K  K8  1  0.50000000  0.52897700  0.28026800  1
  K  K9  1  0.00000000  0.24623500  0.38277400  1
  K  K10  1  0.00000000  0.75376500  0.61722600  1
  K  K11  1  0.00000000  0.97102300  0.78026800  1
  Al  Al0  1  0.50000000  0.00000000  0.50000000  1
  Al  Al1  1  0.00000000  0.50000000  0.50000000  1
  Al  Al2  1  0.50000000  0.00000000  0.00000000  1
  Al  Al3  1  0.00000000  0.50000000  0.00000000  1
  H  H0  1  0.50000000  0.09423600  0.07240800  1
  H  H1  1  0.00000000  0.33330600  0.77519800  1
  H  H2  1  0.00000000  0.05854800  0.94608000  1
  H  H3  1  0.00000000  0.66669400  0.22480200  1
  H  H4  1  0.00000000  0.38101200  0.25469600  1
  H  H5  1  0.00000000  0.62743600  0.99142400  1
  H  H6  1  0.00000000  0.00583700  0.42661100  1
  H  H7  1  0.50000000  0.50583700  0.07338900  1
  H  H8  1  0.50000000  0.16669400  0.27519800  1
  H  H9  1  0.00000000  0.59423600  0.42759200  1
  H  H10  1  0.50000000  0.83330600  0.72480200  1
  H  H11  1  0.50000000  0.49416300  0.92661100  1
  H  H12  1  0.50000000  0.12743600  0.50857600  1
  H  H13  1  0.50000000  0.55854800  0.55392000  1
  H  H14  1  0.00000000  0.99416300  0.57338900  1
  H  H15  1  0.50000000  0.11898800  0.75469600  1
  H  H16  1  0.50000000  0.87256400  0.49142400  1
  H  H17  1  0.00000000  0.37256400  0.00857600  1
  H  H18  1  0.00000000  0.94145200  0.05392000  1
  H  H19  1  0.50000000  0.44145200  0.44608000  1
  H  H20  1  0.00000000  0.40576400  0.57240800  1
  H  H21  1  0.50000000  0.88101200  0.24530400  1
  H  H22  1  0.00000000  0.61898800  0.74530400  1
  H  H23  1  0.50000000  0.90576400  0.92759200  1
loop_
_geom_bond_atom_site_label_1
_geom_bond_atom_site_label_2
_geom_bond_distance
_geom_bond_site_symmetry_2
Al0 H12 1.672692 1_555
Al0 H16 1.672692 1_545
Al0 H6 1.968269 1_655
Al0 H6 1.968269 1_555
Al0 H14 1.968269 1_545
Al0 H14 1.968269 1_645
Al1 H9 1.653427 1_555
Al1 H20 1.653427 1_555
Al1 H13 1.970204 1_455
Al1 H19 1.970204 1_455
Al1 H19 1.970204 1_555
Al1 H13 1.970204 1_555
Al2 H0 1.653427 1_555
Al2 H23 1.653427 1_544
Al2 H2 1.970204 1_554
Al2 H2 1.970204 1_654
Al2 H18 1.970204 1_645
Al2 H18 1.970204 1_545
Al3 H17 1.672692 1_555
Al3 H5 1.672692 1_554
Al3 H7 1.968269 1_555
Al3 H7 1.968269 1_455
Al3 H11 1.968269 1_454
Al3 H11 1.968269 1_554
H0 K5 2.893688 1_555
H0 K5 2.893688 1_655
H0 K4 2.923259 1_555
H1 K2 2.526491 1_455
H1 K2 2.526491 1_555
H1 K0 2.565450 1_455
H1 K0 2.565450 1_555
H1 K7 2.600288 1_555
H2 K11 2.770117 1_545
H3 K1 2.526491 1_555
H3 K1 2.526491 1_455
H3 K8 2.565450 1_455
H3 K8 2.565450 1_555
H3 K6 2.600288 1_555
H4 K4 2.527269 1_455
H4 K4 2.527269 1_555
H4 K8 2.553881 1_455
H4 K8 2.553881 1_555
H4 K9 2.627969 1_555
H5 K3 2.835240 1_555
H5 K3 2.835240 1_455
H5 K1 2.949698 1_556
H5 K1 2.949698 1_456
H6 K6 2.928614 1_545
H7 K4 2.928614 1_555
H8 K9 2.526491 1_555
H8 K9 2.526491 1_655
H8 K5 2.565450 1_555
H8 K5 2.565450 1_655
H8 K4 2.600288 1_555
H9 K8 2.893688 1_555
H9 K8 2.893688 1_455
H9 K6 2.923259 1_555
H10 K10 2.526491 1_555
H10 K10 2.526491 1_655
H10 K11 2.565450 1_555
H10 K11 2.565450 1_655
H10 K3 2.600288 1_555
H11 K3 2.928614 1_555
H12 K7 2.835240 1_555
H12 K7 2.835240 1_655
H12 K9 2.949698 1_555
H12 K9 2.949698 1_655
H13 K0 2.770117 1_555
H14 K7 2.928614 1_565
H15 K7 2.527269 1_555
H15 K7 2.527269 1_655
H15 K11 2.553881 1_545
H15 K11 2.553881 1_645
H15 K2 2.627969 1_555
H16 K6 2.835240 1_555
H16 K6 2.835240 1_655
H16 K10 2.949698 1_555
H16 K10 2.949698 1_655
H17 K4 2.835240 1_555
H17 K4 2.835240 1_455
H17 K2 2.949698 1_454
H17 K2 2.949698 1_554
H18 K5 2.770117 1_565
H19 K8 2.770117 1_555
H20 K0 2.893688 1_455
H20 K0 2.893688 1_555
H20 K7 2.923259 1_555
H21 K6 2.527269 1_655
H21 K6 2.527269 1_555
H21 K5 2.553881 1_665
H21 K5 2.553881 1_565
H21 K1 2.627969 1_555
H22 K3 2.527269 1_455
H22 K3 2.527269 1_555
H22 K0 2.553881 1_555
H22 K0 2.553881 1_455
H22 K10 2.627969 1_555
H23 K11 2.893688 1_655
H23 K11 2.893688 1_555
H23 K3 2.923259 1_555
