# generated using pymatgen
data_KAl2P2H8O12F
_symmetry_space_group_name_H-M   'P 1'
_cell_length_a   5.62887400
_cell_length_b   9.43686400
_cell_length_c   9.79408200
_cell_angle_alpha   90.00000000
_cell_angle_beta   90.00000000
_cell_angle_gamma   90.00000000
_symmetry_Int_Tables_number   1
_chemical_formula_structural   KAl2P2H8O12F
_chemical_formula_sum   'K2 Al4 P4 H16 O24 F2'
_cell_volume   520.25104267
_cell_formula_units_Z   2
loop_
 _symmetry_equiv_pos_site_id
 _symmetry_equiv_pos_as_xyz
  1  'x, y, z'
loop_
 _atom_site_type_symbol
 _atom_site_label
 _atom_site_symmetry_multiplicity
 _atom_site_fract_x
 _atom_site_fract_y
 _atom_site_fract_z
 _atom_site_occupancy
  K  K0  1  0.92069700  0.50000000  0.50000000  1
  K  K1  1  0.92069700  0.00000000  0.00000000  1
  Al  Al0  1  0.96328500  0.36018800  0.11139100  1
  Al  Al1  1  0.96328500  0.63981200  0.88860900  1
  Al  Al2  1  0.96328500  0.13981200  0.61139100  1
  Al  Al3  1  0.96328500  0.86018800  0.38860900  1
  P  P0  1  0.71369100  0.35209500  0.82544800  1
  P  P1  1  0.71369100  0.64790500  0.17455200  1
  P  P2  1  0.71369100  0.14790500  0.32544800  1
  P  P3  1  0.71369100  0.85209500  0.67455200  1
  H  H0  1  0.29508900  0.51352200  0.22630700  1
  H  H1  1  0.29508900  0.48647800  0.77369300  1
  H  H2  1  0.29508900  0.98647800  0.72630700  1
  H  H3  1  0.29508900  0.01352200  0.27369300  1
  H  H4  1  0.31949900  0.34980800  0.27372600  1
  H  H5  1  0.31949900  0.65019200  0.72627400  1
  H  H6  1  0.31949900  0.15019200  0.77372600  1
  H  H7  1  0.31949900  0.84980800  0.22627400  1
  H  H8  1  0.32263000  0.27269100  0.96285900  1
  H  H9  1  0.32263000  0.72730900  0.03714100  1
  H  H10  1  0.32263000  0.22730900  0.46285900  1
  H  H11  1  0.32263000  0.77269100  0.53714100  1
  H  H12  1  0.35052200  0.21587300  0.11848000  1
  H  H13  1  0.35052200  0.78412700  0.88152000  1
  H  H14  1  0.35052200  0.28412700  0.61848000  1
  H  H15  1  0.35052200  0.71587300  0.38152000  1
  O  O0  1  0.88256400  0.28988800  0.71690800  1
  O  O1  1  0.88256400  0.71011200  0.28309200  1
  O  O2  1  0.88256400  0.21011200  0.21690800  1
  O  O3  1  0.88256400  0.78988800  0.78309200  1
  O  O4  1  0.77930300  0.29238700  0.96796400  1
  O  O5  1  0.77930300  0.70761300  0.03203600  1
  O  O6  1  0.77930300  0.20761300  0.46796400  1
  O  O7  1  0.77930300  0.79238700  0.53203600  1
  O  O8  1  0.74101600  0.51522000  0.82007300  1
  O  O9  1  0.74101600  0.48478000  0.17992700  1
  O  O10  1  0.74101600  0.98478000  0.32007300  1
  O  O11  1  0.74101600  0.01522000  0.67992700  1
  O  O12  1  0.20302600  0.42646600  0.25048400  1
  O  O13  1  0.20302600  0.57353400  0.74951600  1
  O  O14  1  0.20302600  0.07353400  0.75048400  1
  O  O15  1  0.20302600  0.92646600  0.24951600  1
  O  O16  1  0.23499300  0.23612600  0.04423300  1
  O  O17  1  0.23499300  0.76387400  0.95576700  1
  O  O18  1  0.23499300  0.26387400  0.54423300  1
  O  O19  1  0.23499300  0.73612600  0.45576700  1
  O  O20  1  0.44989300  0.31475600  0.79482500  1
  O  O21  1  0.44989300  0.68524400  0.20517500  1
  O  O22  1  0.44989300  0.18524400  0.29482500  1
  O  O23  1  0.44989300  0.81475600  0.70517500  1
  F  F0  1  0.09628000  0.50000000  0.00000000  1
  F  F1  1  0.09628000  0.00000000  0.50000000  1
loop_
_geom_bond_atom_site_label_1
_geom_bond_atom_site_label_2
_geom_bond_distance
_geom_bond_site_symmetry_2
K0 O18 2.877982 1_655
K0 O19 2.877982 1_655
K0 O7 2.888799 1_555
K0 O6 2.888799 1_555
K0 O1 2.913881 1_555
K0 O0 2.913881 1_555
K0 O13 2.996521 1_655
K0 O12 2.996521 1_655
K0 O8 3.297069 1_555
K0 O9 3.297069 1_555
K1 O16 2.877982 1_655
K1 O17 2.877982 1_644
K1 O4 2.888799 1_554
K1 O5 2.888799 1_545
K1 O2 2.913881 1_555
K1 O3 2.913881 1_544
K1 O15 2.996521 1_645
K1 O14 2.996521 1_654
K1 O10 3.297069 1_545
K1 O11 3.297069 1_554
Al0 O2 1.811135 1_555
Al0 O9 1.843445 1_555
Al0 O4 1.858805 1_554
Al0 F0 1.868535 1_655
Al0 O12 2.016953 1_655
Al0 O16 2.035289 1_655
Al1 O3 1.811135 1_555
Al1 O8 1.843445 1_555
Al1 O5 1.858805 1_556
Al1 F0 1.868535 1_656
Al1 O13 2.016953 1_655
Al1 O17 2.035289 1_655
Al2 O0 1.811135 1_555
Al2 O11 1.843445 1_555
Al2 O6 1.858805 1_555
Al2 F1 1.868535 1_655
Al2 O14 2.016953 1_655
Al2 O18 2.035289 1_655
Al3 O1 1.811135 1_555
Al3 O10 1.843445 1_555
Al3 O7 1.858805 1_555
Al3 F1 1.868535 1_665
Al3 O15 2.016953 1_655
Al3 O19 2.035289 1_655
H0 O12 0.999767 1_555
H1 O13 0.999767 1_555
H2 O14 0.999767 1_565
H3 O15 0.999767 1_545
H4 O12 1.002481 1_555
H5 O13 1.002481 1_555
H6 O14 1.002481 1_555
H7 O15 1.002481 1_555
H8 O16 0.998795 1_556
H9 O17 0.998795 1_554
H10 O18 0.998795 1_555
H11 O19 0.998795 1_555
H12 O16 0.994087 1_555
H13 O17 0.994087 1_555
H14 O18 0.994087 1_555
H15 O19 0.994087 1_555
O0 P0 1.542162 1_555
O1 P1 1.542162 1_555
O2 P2 1.542162 1_555
O3 P3 1.542162 1_555
O4 P0 1.549896 1_555
O5 P1 1.549896 1_555
O6 P2 1.549896 1_555
O7 P3 1.549896 1_555
O8 P0 1.547949 1_555
O9 P1 1.547949 1_555
O10 P2 1.547949 1_565
O11 P3 1.547949 1_545
O20 P0 1.555313 1_555
O21 P1 1.555313 1_555
O22 P2 1.555313 1_555
O23 P3 1.555313 1_555
