# generated using pymatgen
data_FeH12(NF2)3
_symmetry_space_group_name_H-M   'P 1'
_cell_length_a   9.13516900
_cell_length_b   9.14031100
_cell_length_c   9.14989000
_cell_angle_alpha   90.00000000
_cell_angle_beta   90.00000000
_cell_angle_gamma   90.00000000
_symmetry_Int_Tables_number   1
_chemical_formula_structural   FeH12(NF2)3
_chemical_formula_sum   'Fe4 H48 N12 F24'
_cell_volume   764.00012932
_cell_formula_units_Z   4
loop_
 _symmetry_equiv_pos_site_id
 _symmetry_equiv_pos_as_xyz
  1  'x, y, z'
loop_
 _atom_site_type_symbol
 _atom_site_label
 _atom_site_symmetry_multiplicity
 _atom_site_fract_x
 _atom_site_fract_y
 _atom_site_fract_z
 _atom_site_occupancy
  Fe  Fe0  1  0.25118500  0.25145500  0.74923500  1
  Fe  Fe1  1  0.75118500  0.24854500  0.25076500  1
  Fe  Fe2  1  0.24881500  0.74854500  0.24923500  1
  Fe  Fe3  1  0.74881500  0.75145500  0.75076500  1
  H  H0  1  0.42864800  0.05212300  0.92931000  1
  H  H1  1  0.92864800  0.44787700  0.07069000  1
  H  H2  1  0.07135200  0.94787700  0.42931000  1
  H  H3  1  0.57135200  0.55212300  0.57069000  1
  H  H4  1  0.56590100  0.93141300  0.93457000  1
  H  H5  1  0.06590100  0.56858700  0.06543000  1
  H  H6  1  0.93409900  0.06858700  0.43457000  1
  H  H7  1  0.43409900  0.43141300  0.56543000  1
  H  H8  1  0.44829000  0.93063700  0.07358900  1
  H  H9  1  0.94829000  0.56936300  0.92641100  1
  H  H10  1  0.05171000  0.06936300  0.57358900  1
  H  H11  1  0.55171000  0.43063700  0.42641100  1
  H  H12  1  0.57056900  0.07109400  0.05306700  1
  H  H13  1  0.07056900  0.42890600  0.94693300  1
  H  H14  1  0.92943100  0.92890600  0.55306700  1
  H  H15  1  0.42943100  0.57109400  0.44693300  1
  H  H16  1  0.93571900  0.05580300  0.92698000  1
  H  H17  1  0.43571900  0.44419700  0.07302000  1
  H  H18  1  0.56428100  0.94419700  0.42698000  1
  H  H19  1  0.06428100  0.55580300  0.57302000  1
  H  H20  1  0.07178400  0.93235200  0.94452500  1
  H  H21  1  0.57178400  0.56764800  0.05547500  1
  H  H22  1  0.42821600  0.06764800  0.44452500  1
  H  H23  1  0.92821600  0.43235200  0.55547500  1
  H  H24  1  0.93474400  0.93608700  0.06381900  1
  H  H25  1  0.43474400  0.56391300  0.93618100  1
  H  H26  1  0.56525600  0.06391300  0.56381900  1
  H  H27  1  0.06525600  0.43608700  0.43618100  1
  H  H28  1  0.05655100  0.07101000  0.06679200  1
  H  H29  1  0.55655100  0.42899000  0.93320800  1
  H  H30  1  0.44344900  0.92899000  0.56679200  1
  H  H31  1  0.94344900  0.57101000  0.43320800  1
  H  H32  1  0.81206400  0.81206100  0.31907000  1
  H  H33  1  0.31206400  0.68793900  0.68093000  1
  H  H34  1  0.68793600  0.18793900  0.81907000  1
  H  H35  1  0.18793600  0.31206100  0.18093000  1
  H  H36  1  0.68272500  0.81284100  0.18716600  1
  H  H37  1  0.18272500  0.68715900  0.81283400  1
  H  H38  1  0.81727500  0.18715900  0.68716600  1
  H  H39  1  0.31727500  0.31284100  0.31283400  1
  H  H40  1  0.81379200  0.68178300  0.18892600  1
  H  H41  1  0.31379200  0.81821700  0.81107400  1
  H  H42  1  0.68620800  0.31821700  0.68892600  1
  H  H43  1  0.18620800  0.18178300  0.31107400  1
  H  H44  1  0.68480000  0.68478400  0.31553500  1
  H  H45  1  0.18480000  0.81521600  0.68446500  1
  H  H46  1  0.81520000  0.31521600  0.81553500  1
  H  H47  1  0.31520000  0.18478400  0.18446500  1
  N  N0  1  0.50171500  0.99866300  0.99873400  1
  N  N1  1  0.00171500  0.50133700  0.00126600  1
  N  N2  1  0.99828500  0.00133700  0.49873400  1
  N  N3  1  0.49828500  0.49866300  0.50126600  1
  N  N4  1  0.00052300  0.99967100  0.99968400  1
  N  N5  1  0.50052300  0.50032900  0.00031600  1
  N  N6  1  0.49947700  0.00032900  0.49968400  1
  N  N7  1  0.99947700  0.49967100  0.50031600  1
  N  N8  1  0.74945900  0.74941400  0.25058700  1
  N  N9  1  0.24945900  0.75058600  0.74941300  1
  N  N10  1  0.75054100  0.25058600  0.75058700  1
  N  N11  1  0.25054100  0.24941400  0.24941300  1
  F  F0  1  0.29414200  0.04269900  0.78405300  1
  F  F1  1  0.79414200  0.45730100  0.21594700  1
  F  F2  1  0.20585800  0.95730100  0.28405300  1
  F  F3  1  0.70585800  0.54269900  0.71594700  1
  F  F4  1  0.21061900  0.46050400  0.72494000  1
  F  F5  1  0.71061900  0.03949600  0.27506000  1
  F  F6  1  0.28938100  0.53949600  0.22494000  1
  F  F7  1  0.78938100  0.96050400  0.77506000  1
  F  F8  1  0.28501000  0.23232700  0.53825700  1
  F  F9  1  0.78501000  0.26767300  0.46174300  1
  F  F10  1  0.21499000  0.76767300  0.03825700  1
  F  F11  1  0.71499000  0.73232700  0.96174300  1
  F  F12  1  0.21030500  0.27565300  0.95951600  1
  F  F13  1  0.71030500  0.22434700  0.04048400  1
  F  F14  1  0.28969500  0.72434700  0.45951600  1
  F  F15  1  0.78969500  0.77565300  0.54048400  1
  F  F16  1  0.45970000  0.29367000  0.77600100  1
  F  F17  1  0.95970000  0.20633000  0.22399900  1
  F  F18  1  0.04030000  0.70633000  0.27600100  1
  F  F19  1  0.54030000  0.79367000  0.72399900  1
  F  F20  1  0.04392400  0.20072800  0.71471400  1
  F  F21  1  0.54392400  0.29927200  0.28528600  1
  F  F22  1  0.45607600  0.79927200  0.21471400  1
  F  F23  1  0.95607600  0.70072800  0.78528600  1
loop_
_geom_bond_atom_site_label_1
_geom_bond_atom_site_label_2
_geom_bond_distance
_geom_bond_site_symmetry_2
H0 N0 1.042979 1_545
H1 N1 1.042979 1_655
H2 N2 1.042979 1_465
H3 N3 1.042979 1_555
H4 N0 1.032630 1_555
H5 N1 1.032630 1_555
H6 N2 1.032630 1_555
H7 N3 1.032630 1_555
H8 N0 1.045900 1_554
H9 N1 1.045900 1_656
H10 N2 1.045900 1_455
H11 N3 1.045900 1_555
H12 N0 1.039750 1_544
H13 N1 1.039750 1_556
H14 N2 1.039750 1_565
H15 N3 1.039750 1_555
H16 N4 1.027730 1_645
H17 N5 1.027730 1_555
H18 N6 1.027730 1_565
H19 N7 1.027730 1_455
H20 N4 1.028160 1_555
H21 N5 1.028160 1_555
H22 N6 1.028160 1_555
H23 N7 1.028160 1_555
H24 N4 1.021381 1_654
H25 N5 1.021381 1_556
H26 N6 1.021381 1_555
H27 N7 1.021381 1_455
H28 N4 1.031592 1_544
H29 N5 1.031592 1_556
H30 N6 1.031592 1_565
H31 N7 1.031592 1_555
H32 N8 1.023526 1_555
H33 N9 1.023526 1_555
H34 N10 1.023526 1_555
H35 N11 1.023526 1_555
H36 N8 1.022002 1_555
H37 N9 1.022002 1_555
H38 N10 1.022002 1_555
H39 N11 1.022002 1_555
H40 N8 1.022657 1_555
H41 N9 1.022657 1_555
H42 N10 1.022657 1_555
H43 N11 1.022657 1_555
H44 N8 1.025191 1_555
H45 N9 1.025191 1_555
H46 N10 1.025191 1_555
H47 N11 1.025191 1_555
F0 Fe0 1.973908 1_555
F1 Fe1 1.973908 1_555
F2 Fe2 1.973908 1_555
F3 Fe3 1.973908 1_555
F4 Fe0 1.959029 1_555
F5 Fe1 1.959029 1_555
F6 Fe2 1.959029 1_555
F7 Fe3 1.959029 1_555
F8 Fe0 1.962801 1_555
F9 Fe1 1.962801 1_555
F10 Fe2 1.962801 1_555
F11 Fe3 1.962801 1_555
F12 Fe0 1.972395 1_555
F13 Fe1 1.972395 1_555
F14 Fe2 1.972395 1_555
F15 Fe3 1.972395 1_555
F16 Fe0 1.958878 1_555
F17 Fe1 1.958878 1_555
F18 Fe2 1.958878 1_555
F19 Fe3 1.958878 1_555
F20 Fe0 1.974735 1_555
F21 Fe1 1.974735 1_555
F22 Fe2 1.974735 1_555
F23 Fe3 1.974735 1_555
