# generated using pymatgen
data_SrRuO3
_symmetry_space_group_name_H-M   'P 1'
_cell_length_a   5.16689100
_cell_length_b   5.19931300
_cell_length_c   13.16028000
_cell_angle_alpha   90.00000000
_cell_angle_beta   90.00000000
_cell_angle_gamma   90.00000000
_symmetry_Int_Tables_number   1
_chemical_formula_structural   SrRuO3
_chemical_formula_sum   'Sr4 Ru4 O12'
_cell_volume   353.54149346
_cell_formula_units_Z   4
loop_
 _symmetry_equiv_pos_site_id
 _symmetry_equiv_pos_as_xyz
  1  'x, y, z'
loop_
 _atom_site_type_symbol
 _atom_site_label
 _atom_site_symmetry_multiplicity
 _atom_site_fract_x
 _atom_site_fract_y
 _atom_site_fract_z
 _atom_site_occupancy
  Sr  Sr0  1  0.49937500  0.52088600  0.25000000  1
  Sr  Sr1  1  0.00062500  0.02088600  0.25000000  1
  Sr  Sr2  1  0.50062500  0.47911400  0.75000000  1
  Sr  Sr3  1  0.99937500  0.97911400  0.75000000  1
  Ru  Ru0  1  0.50000000  0.50000000  0.50000000  1
  Ru  Ru1  1  0.00000000  0.00000000  0.00000000  1
  Ru  Ru2  1  0.50000000  0.50000000  0.00000000  1
  Ru  Ru3  1  0.00000000  0.00000000  0.50000000  1
  O  O0  1  0.50335400  0.01679800  0.25000000  1
  O  O1  1  0.99664600  0.51679800  0.25000000  1
  O  O2  1  0.49664600  0.98320200  0.75000000  1
  O  O3  1  0.00335400  0.48320200  0.75000000  1
  O  O4  1  0.25060100  0.75035400  0.01059200  1
  O  O5  1  0.24939900  0.25035400  0.48940800  1
  O  O6  1  0.74939900  0.24964600  0.51059200  1
  O  O7  1  0.75060100  0.74964600  0.98940800  1
  O  O8  1  0.74939900  0.24964600  0.98940800  1
  O  O9  1  0.75060100  0.74964600  0.51059200  1
  O  O10  1  0.25060100  0.75035400  0.48940800  1
  O  O11  1  0.24939900  0.25035400  0.01059200  1
loop_
_geom_bond_atom_site_label_1
_geom_bond_atom_site_label_2
_geom_bond_distance
_geom_bond_site_symmetry_2
O0 Sr1 2.569433 1_655
O0 Sr0 2.578484 1_545
O0 Sr1 2.597633 1_555
O0 Sr0 2.620992 1_555
O1 Sr0 2.569433 1_555
O1 Sr1 2.578484 1_655
O1 Sr0 2.597633 1_655
O1 Sr1 2.620992 1_665
O2 Sr3 2.569433 1_455
O2 Sr2 2.578484 1_565
O2 Sr3 2.597633 1_555
O2 Sr2 2.620992 1_555
O3 Sr2 2.569433 1_555
O3 Sr3 2.578484 1_455
O3 Sr2 2.597633 1_455
O3 Sr3 2.620992 1_445
O4 Ru2 1.836929 1_555
O4 Ru1 1.838690 1_565
O5 Ru3 1.836929 1_555
O5 Ru0 1.838690 1_555
O6 Ru0 1.836929 1_555
O6 Ru3 1.838690 1_655
O7 Ru1 1.836929 1_666
O7 Ru2 1.838690 1_556
O8 Ru2 1.836929 1_556
O8 Ru1 1.838690 1_656
O9 Ru3 1.836929 1_665
O9 Ru0 1.838690 1_555
O10 Ru0 1.836929 1_555
O10 Ru3 1.838690 1_565
O11 Ru1 1.836929 1_555
O11 Ru2 1.838690 1_555
