# generated using pymatgen
data_Ba3(Ge2C)2
_symmetry_space_group_name_H-M   'P 1'
_cell_length_a   9.85171647
_cell_length_b   9.85171647
_cell_length_c   9.85171647
_cell_angle_alpha   126.78534648
_cell_angle_beta   125.39211169
_cell_angle_gamma   79.74742719
_symmetry_Int_Tables_number   1
_chemical_formula_structural   Ba3(Ge2C)2
_chemical_formula_sum   'Ba6 Ge8 C4'
_cell_volume   603.03883209
_cell_formula_units_Z   2
loop_
 _symmetry_equiv_pos_site_id
 _symmetry_equiv_pos_as_xyz
  1  'x, y, z'
loop_
 _atom_site_type_symbol
 _atom_site_label
 _atom_site_symmetry_multiplicity
 _atom_site_fract_x
 _atom_site_fract_y
 _atom_site_fract_z
 _atom_site_occupancy
  Ba  Ba0  1  0.68763800  0.23018100  0.91781900  1
  Ba  Ba1  1  0.75000000  0.75000000  0.00000000  1
  Ba  Ba2  1  0.18763800  0.26981900  0.45745700  1
  Ba  Ba3  1  0.81236200  0.73018100  0.54254300  1
  Ba  Ba4  1  0.25000000  0.25000000  0.00000000  1
  Ba  Ba5  1  0.31236200  0.76981900  0.08218100  1
  Ge  Ge0  1  0.79897300  0.30008900  0.71096700  1
  Ge  Ge1  1  0.29897300  0.58800500  0.49888300  1
  Ge  Ge2  1  0.08912200  0.80008900  0.50111700  1
  Ge  Ge3  1  0.41087800  0.91199500  0.71096700  1
  Ge  Ge4  1  0.58912200  0.08800500  0.28903300  1
  Ge  Ge5  1  0.91087800  0.19991100  0.49888300  1
  Ge  Ge6  1  0.70102700  0.41199500  0.50111700  1
  Ge  Ge7  1  0.20102700  0.69991100  0.28903300  1
  C  C0  1  0.94036500  0.03773400  0.97810000  1
  C  C1  1  0.44036500  0.46226600  0.90263100  1
  C  C2  1  0.55963500  0.53773400  0.09736900  1
  C  C3  1  0.05963500  0.96226600  0.02190000  1
loop_
_geom_bond_atom_site_label_1
_geom_bond_atom_site_label_2
_geom_bond_distance
_geom_bond_site_symmetry_2
Ba0 C0 2.846344 1_555
Ba0 C2 2.950338 1_556
Ba0 C1 3.031393 1_555
Ba0 Ge3 3.220102 1_545
Ba0 Ge0 3.220109 1_555
Ba1 Ge6 3.701554 1_554
Ba1 Ge4 3.701559 1_565
Ba1 Ge5 3.701559 1_565
Ba1 Ge0 3.701562 1_554
Ba1 Ge7 3.787060 1_655
Ba1 Ge1 3.787063 1_554
Ba1 Ge3 3.787067 1_554
Ba1 Ge2 3.787067 1_655
Ba2 C1 2.846343 1_555
Ba2 C3 2.950344 1_545
Ba2 C0 3.031387 1_454
Ba2 Ge5 3.220102 1_455
Ba2 Ge1 3.220106 1_555
Ba3 C2 2.846343 1_555
Ba3 C0 2.950344 1_565
Ba3 C3 3.031387 1_656
Ba3 Ge2 3.220102 1_655
Ba3 Ge6 3.220106 1_555
Ba4 Ge1 3.701554 1_555
Ba4 Ge2 3.701559 1_544
Ba4 Ge3 3.701559 1_544
Ba4 Ge7 3.701562 1_555
Ba4 Ge0 3.787060 1_454
Ba4 Ge6 3.787063 1_555
Ba4 Ge4 3.787067 1_555
Ba4 Ge5 3.787067 1_454
Ba5 C3 2.846344 1_555
Ba5 C1 2.950338 1_554
Ba5 C2 3.031393 1_555
Ba5 Ge4 3.220102 1_565
Ba5 Ge7 3.220109 1_555
Ge0 Ge5 2.523142 1_555
Ge0 Ge6 2.541817 1_555
Ge0 Ge4 2.664598 1_555
Ge1 Ge3 2.523148 1_555
Ge1 Ge7 2.541817 1_555
Ge1 Ge2 2.664604 1_555
Ge2 Ge7 2.523142 1_555
Ge2 Ge3 2.541820 1_555
Ge3 Ge7 2.664598 1_555
Ge4 Ge6 2.523148 1_555
Ge4 Ge5 2.541820 1_555
Ge5 Ge6 2.664604 1_555
C0 C3 1.267110 1_646
C1 C2 1.267113 1_556
