# generated using pymatgen
data_Na2EuCl5
_symmetry_space_group_name_H-M   'P 1'
_cell_length_a   7.91409200
_cell_length_b   8.56540600
_cell_length_c   12.38765000
_cell_angle_alpha   90.00000000
_cell_angle_beta   90.00000000
_cell_angle_gamma   90.00000000
_symmetry_Int_Tables_number   1
_chemical_formula_structural   Na2EuCl5
_chemical_formula_sum   'Na8 Eu4 Cl20'
_cell_volume   839.72672313
_cell_formula_units_Z   4
loop_
 _symmetry_equiv_pos_site_id
 _symmetry_equiv_pos_as_xyz
  1  'x, y, z'
loop_
 _atom_site_type_symbol
 _atom_site_label
 _atom_site_symmetry_multiplicity
 _atom_site_fract_x
 _atom_site_fract_y
 _atom_site_fract_z
 _atom_site_occupancy
  Na  Na0  1  0.03394700  0.00152200  0.82746900  1
  Na  Na1  1  0.46605300  0.49847800  0.32746900  1
  Na  Na2  1  0.46605300  0.00152200  0.32746900  1
  Na  Na3  1  0.53394700  0.50152200  0.67253100  1
  Na  Na4  1  0.03394700  0.49847800  0.82746900  1
  Na  Na5  1  0.53394700  0.99847800  0.67253100  1
  Na  Na6  1  0.96605300  0.99847800  0.17253100  1
  Na  Na7  1  0.96605300  0.50152200  0.17253100  1
  Eu  Eu0  1  0.42061400  0.75000000  0.00654800  1
  Eu  Eu1  1  0.07938600  0.75000000  0.50654800  1
  Eu  Eu2  1  0.57938600  0.25000000  0.99345200  1
  Eu  Eu3  1  0.92061400  0.25000000  0.49345200  1
  Cl  Cl0  1  0.05521200  0.75000000  0.00610800  1
  Cl  Cl1  1  0.14115600  0.25000000  0.31649200  1
  Cl  Cl2  1  0.35884400  0.25000000  0.81649200  1
  Cl  Cl3  1  0.82013300  0.25000000  0.71351400  1
  Cl  Cl4  1  0.16623000  0.45433600  0.58863400  1
  Cl  Cl5  1  0.66623000  0.95433600  0.91136600  1
  Cl  Cl6  1  0.44478800  0.75000000  0.50610800  1
  Cl  Cl7  1  0.85884400  0.75000000  0.68350800  1
  Cl  Cl8  1  0.32013300  0.75000000  0.78648600  1
  Cl  Cl9  1  0.66623000  0.54566400  0.91136600  1
  Cl  Cl10  1  0.33377000  0.45433600  0.08863400  1
  Cl  Cl11  1  0.67986700  0.25000000  0.21351400  1
  Cl  Cl12  1  0.17986700  0.75000000  0.28648600  1
  Cl  Cl13  1  0.33377000  0.04566400  0.08863400  1
  Cl  Cl14  1  0.94478800  0.25000000  0.99389200  1
  Cl  Cl15  1  0.16623000  0.04566400  0.58863400  1
  Cl  Cl16  1  0.64115600  0.75000000  0.18350800  1
  Cl  Cl17  1  0.83377000  0.54566400  0.41136600  1
  Cl  Cl18  1  0.83377000  0.95433600  0.41136600  1
  Cl  Cl19  1  0.55521200  0.25000000  0.49389200  1
loop_
_geom_bond_atom_site_label_1
_geom_bond_atom_site_label_2
_geom_bond_distance
_geom_bond_site_symmetry_2
Cl0 Eu0 2.891830 1_555
Cl0 Na7 3.045943 1_455
Cl0 Na6 3.045943 1_455
Cl0 Na4 3.093010 1_554
Cl0 Na0 3.093010 1_564
Cl1 Eu3 2.802101 1_455
Cl1 Na7 3.121230 1_455
Cl1 Na6 3.121230 1_445
Cl1 Na1 3.340601 1_555
Cl1 Na2 3.340601 1_555
Cl2 Eu2 2.802101 1_555
Cl2 Na5 3.121230 1_545
Cl2 Na3 3.121230 1_555
Cl2 Na4 3.340601 1_555
Cl2 Na0 3.340601 1_555
Cl3 Eu3 2.839669 1_555
Cl3 Na4 3.063623 1_655
Cl3 Na0 3.063623 1_655
Cl3 Na5 3.166846 1_545
Cl3 Na3 3.166846 1_555
Cl4 Eu1 2.814218 1_555
Cl4 Eu3 2.869141 1_455
Cl4 Na3 3.116475 1_555
Cl4 Na4 3.161059 1_555
Cl5 Eu2 2.814218 1_565
Cl5 Eu0 2.869141 1_556
Cl5 Na0 3.116475 1_665
Cl5 Na5 3.161059 1_555
Cl6 Eu1 2.891830 1_555
Cl6 Na5 3.045943 1_555
Cl6 Na3 3.045943 1_555
Cl6 Na2 3.093010 1_565
Cl6 Na1 3.093010 1_555
Cl7 Eu1 2.802101 1_655
Cl7 Na4 3.121230 1_655
Cl7 Na0 3.121230 1_665
Cl7 Na3 3.340601 1_555
Cl7 Na5 3.340601 1_555
Cl8 Eu0 2.839669 1_556
Cl8 Na3 3.063623 1_555
Cl8 Na5 3.063623 1_555
Cl8 Na0 3.166846 1_565
Cl8 Na4 3.166846 1_555
Cl9 Eu2 2.814218 1_555
Cl9 Eu0 2.869141 1_556
Cl9 Na4 3.116475 1_655
Cl9 Na3 3.161059 1_555
Cl10 Eu0 2.814218 1_555
Cl10 Eu2 2.869141 1_554
Cl10 Na7 3.116475 1_455
Cl10 Na1 3.161059 1_555
Cl11 Eu2 2.839669 1_554
Cl11 Na1 3.063623 1_555
Cl11 Na2 3.063623 1_555
Cl11 Na6 3.166846 1_545
Cl11 Na7 3.166846 1_555
Cl12 Eu1 2.839669 1_555
Cl12 Na6 3.063623 1_455
Cl12 Na7 3.063623 1_455
Cl12 Na1 3.166846 1_555
Cl12 Na2 3.166846 1_565
Cl13 Eu0 2.814218 1_545
Cl13 Eu2 2.869141 1_554
Cl13 Na6 3.116475 1_445
Cl13 Na2 3.161059 1_555
Cl14 Eu2 2.891830 1_555
Cl14 Na4 3.045943 1_655
Cl14 Na0 3.045943 1_655
Cl14 Na6 3.093010 1_546
Cl14 Na7 3.093010 1_556
Cl15 Eu1 2.814218 1_545
Cl15 Eu3 2.869141 1_455
Cl15 Na5 3.116475 1_545
Cl15 Na0 3.161059 1_555
Cl16 Eu0 2.802101 1_555
Cl16 Na2 3.121230 1_565
Cl16 Na1 3.121230 1_555
Cl16 Na7 3.340601 1_555
Cl16 Na6 3.340601 1_555
Cl17 Eu3 2.814218 1_555
Cl17 Eu1 2.869141 1_655
Cl17 Na1 3.116475 1_555
Cl17 Na7 3.161059 1_555
Cl18 Eu3 2.814218 1_565
Cl18 Eu1 2.869141 1_655
Cl18 Na2 3.116475 1_565
Cl18 Na6 3.161059 1_555
Cl19 Eu3 2.891830 1_555
Cl19 Na1 3.045943 1_555
Cl19 Na2 3.045943 1_555
Cl19 Na3 3.093010 1_555
Cl19 Na5 3.093010 1_545
