# generated using pymatgen
data_Ca10Al6Si13N30
_symmetry_space_group_name_H-M   'P 1'
_cell_length_a   5.06709200
_cell_length_b   5.65538600
_cell_length_c   24.62580536
_cell_angle_alpha   95.21614309
_cell_angle_beta   90.30771803
_cell_angle_gamma   89.99958462
_symmetry_Int_Tables_number   1
_chemical_formula_structural   Ca10Al6Si13N30
_chemical_formula_sum   'Ca10 Al6 Si13 N30'
_cell_volume   702.75338450
_cell_formula_units_Z   1
loop_
 _symmetry_equiv_pos_site_id
 _symmetry_equiv_pos_as_xyz
  1  'x, y, z'
loop_
 _atom_site_type_symbol
 _atom_site_label
 _atom_site_symmetry_multiplicity
 _atom_site_fract_x
 _atom_site_fract_y
 _atom_site_fract_z
 _atom_site_occupancy
  Ca  Ca0  1  0.49878000  0.48474300  0.60601600  1
  Ca  Ca1  1  0.48829600  0.69427200  0.99124800  1
  Ca  Ca2  1  0.54739700  0.10516900  0.81385900  1
  Ca  Ca3  1  0.50505500  0.88691300  0.40021300  1
  Ca  Ca4  1  0.49570600  0.27520400  0.19972300  1
  Ca  Ca5  1  0.01391000  0.67814000  0.81110500  1
  Ca  Ca6  1  0.98273400  0.35961800  0.97143800  1
  Ca  Ca7  1  0.99931700  0.91056400  0.19604000  1
  Ca  Ca8  1  0.00774800  0.50523000  0.39880100  1
  Ca  Ca9  1  0.00016400  0.12080600  0.59535400  1
  Al  Al0  1  0.97545500  0.07169300  0.46956500  1
  Al  Al1  1  0.48037400  0.31873600  0.32959500  1
  Al  Al2  1  0.47643100  0.99490900  0.67155300  1
  Al  Al3  1  0.47369900  0.39545200  0.47241600  1
  Al  Al4  1  0.46519000  0.19451300  0.06780900  1
  Al  Al5  1  0.47536900  0.78402400  0.26745300  1
  Si  Si0  1  0.00647300  0.84006000  0.93050400  1
  Si  Si1  1  0.98303300  0.18406900  0.73055000  1
  Si  Si2  1  0.97509400  0.60734800  0.53369400  1
  Si  Si3  1  0.97351900  0.67858600  0.67243100  1
  Si  Si4  1  0.97031200  0.99872500  0.32756000  1
  Si  Si5  1  0.96469100  0.40696400  0.12798500  1
  Si  Si6  1  0.96874600  0.47213800  0.26704100  1
  Si  Si7  1  0.95706900  0.88384600  0.06738300  1
  Si  Si8  1  0.49214000  0.14470500  0.93136900  1
  Si  Si9  1  0.48028500  0.91927700  0.53190900  1
  Si  Si10  1  0.48330600  0.51497400  0.73515600  1
  Si  Si11  1  0.49085000  0.59996300  0.87584600  1
  Si  Si12  1  0.46916000  0.71746200  0.12832800  1
  N  N0  1  0.66996300  0.86087000  0.90810200  1
  N  N1  1  0.63473700  0.63659600  0.52073100  1
  N  N2  1  0.63794100  0.24017300  0.71613700  1
  N  N3  1  0.63481900  0.01765500  0.31374700  1
  N  N4  1  0.62119500  0.43590000  0.11781200  1
  N  N5  1  0.63405700  0.70531500  0.69015500  1
  N  N6  1  0.64220100  0.35627000  0.89658800  1
  N  N7  1  0.63566600  0.49837900  0.27905000  1
  N  N8  1  0.61396600  0.09687200  0.48542300  1
  N  N9  1  0.61987300  0.90143200  0.08509300  1
  N  N10  1  0.53332600  0.25550300  0.99927000  1
  N  N11  1  0.51850900  0.05005200  0.59782800  1
  N  N12  1  0.50969800  0.61362200  0.80352400  1
  N  N13  1  0.50818700  0.45946200  0.40009100  1
  N  N14  1  0.49395600  0.84701700  0.19447400  1
  N  N15  1  0.13963800  0.47739600  0.71379300  1
  N  N16  1  0.17759800  0.08058700  0.91800300  1
  N  N17  1  0.17568600  0.60406100  0.90096200  1
  N  N18  1  0.11624500  0.26828800  0.30854300  1
  N  N19  1  0.13897800  0.86645900  0.51670600  1
  N  N20  1  0.11012500  0.75803900  0.28436100  1
  N  N21  1  0.10140100  0.16311200  0.08934400  1
  N  N22  1  0.11015200  0.37641600  0.49133300  1
  N  N23  1  0.10304600  0.96777400  0.67777600  1
  N  N24  1  0.12111800  0.67614000  0.11072800  1
  N  N25  1  0.03942300  0.09409500  0.79139600  1
  N  N26  1  0.99082200  0.78287700  0.00112400  1
  N  N27  1  0.01888000  0.36754100  0.19776500  1
  N  N28  1  0.02350700  0.95910000  0.39593200  1
  N  N29  1  0.00578400  0.55677600  0.60342600  1
loop_
_geom_bond_atom_site_label_1
_geom_bond_atom_site_label_2
_geom_bond_distance
_geom_bond_site_symmetry_2
Ca0 N5 2.415338 1_555
Ca0 N1 2.442641 1_555
Ca0 N11 2.450346 1_555
Ca0 N29 2.532450 1_555
Ca0 N29 2.603165 1_655
Ca1 N0 2.509680 1_555
Ca1 N10 2.517362 1_555
Ca1 N26 2.578530 1_456
Ca1 N9 2.578567 1_556
Ca1 N26 2.601024 1_556
Ca1 N17 2.732892 1_555
Ca2 N6 2.421011 1_555
Ca2 N25 2.556205 1_655
Ca2 N25 2.629363 1_555
Ca2 N2 2.632590 1_555
Ca2 N12 2.774867 1_545
Ca2 N0 2.871971 1_545
Ca2 N12 2.915869 1_555
Ca3 N8 2.377422 1_565
Ca3 N3 2.411277 1_565
Ca3 N13 2.417181 1_555
Ca3 N28 2.477228 1_555
Ca3 N28 2.662697 1_655
Ca4 N7 2.334288 1_555
Ca4 N4 2.376159 1_555
Ca4 N14 2.413261 1_545
Ca4 N27 2.473049 1_555
Ca4 N27 2.703449 1_655
Ca5 N17 2.427558 1_555
Ca5 N25 2.448320 1_565
Ca5 N12 2.543971 1_555
Ca5 N12 2.584172 1_455
Ca5 N15 2.638014 1_555
Ca6 N16 2.198416 1_655
Ca6 N26 2.438723 1_556
Ca6 N10 2.468241 1_555
Ca6 N17 2.516652 1_655
Ca6 N6 2.516899 1_555
Ca7 N24 2.461647 1_655
Ca7 N20 2.473425 1_655
Ca7 N14 2.532014 1_655
Ca7 N27 2.582761 1_665
Ca7 N14 2.585404 1_555
Ca8 N22 2.506279 1_555
Ca8 N13 2.545184 1_455
Ca8 N13 2.549266 1_555
Ca8 N18 2.551410 1_555
Ca8 N28 2.575445 1_555
Ca9 N23 2.334207 1_545
Ca9 N19 2.413084 1_545
Ca9 N29 2.455652 1_555
Ca9 N11 2.475146 1_455
Ca9 N11 2.658013 1_555
Al0 N8 1.877622 1_555
Al0 N28 1.883481 1_645
Al0 N22 1.884452 1_655
Al0 N19 1.901586 1_645
Al1 N13 1.847479 1_555
Al1 N7 1.855021 1_555
Al1 N3 1.883208 1_555
Al1 N18 1.928031 1_555
Al2 N2 1.874189 1_565
Al2 N11 1.883081 1_565
Al2 N23 1.906306 1_555
Al2 N5 1.913771 1_555
Al3 N13 1.858585 1_555
Al3 N8 1.885460 1_555
Al3 N1 1.906794 1_555
Al3 N22 1.907975 1_555
Al4 N10 1.788588 1_554
Al4 N9 1.915053 1_545
Al4 N4 1.920585 1_555
Al4 N21 1.933481 1_555
Al5 N3 1.847821 1_565
Al5 N7 1.852644 1_555
Al5 N14 1.866500 1_555
Al5 N20 1.907761 1_555
N0 Si0 1.796481 1_655
N0 Si11 1.846894 1_555
N0 Si8 1.885504 1_565
N1 Si2 1.762743 1_555
N1 Si9 1.779409 1_555
N2 Si10 1.766389 1_555
N2 Si1 1.816067 1_555
N3 Si4 1.737091 1_545
N4 Si5 1.766843 1_555
N4 Si12 1.767269 1_555
N5 Si3 1.779919 1_555
N5 Si10 1.787828 1_555
N6 Si11 1.694758 1_555
N6 Si8 1.713677 1_555
N7 Si6 1.719113 1_555
N8 Si9 1.730737 1_545
N9 Si12 1.734767 1_555
N9 Si7 1.766220 1_555
N10 Si8 1.742959 1_555
N11 Si9 1.731461 1_545
N12 Si10 1.729304 1_555
N12 Si11 1.792720 1_555
N14 Si12 1.728213 1_555
N15 Si3 1.800590 1_455
N15 Si10 1.823246 1_555
N15 Si1 1.918295 1_455
N16 Si8 1.659138 1_555
N16 Si0 1.666137 1_545
N17 Si0 1.695843 1_555
N17 Si11 1.715046 1_555
N18 Si6 1.771496 1_455
N18 Si4 1.795467 1_445
N19 Si2 1.768370 1_455
N19 Si9 1.786911 1_555
N20 Si6 1.783470 1_455
N20 Si4 1.797545 1_455
N21 Si5 1.748043 1_455
N21 Si7 1.778249 1_445
N22 Si2 1.738432 1_455
N23 Si3 1.755789 1_455
N23 Si1 1.809556 1_465
N24 Si5 1.802083 1_455
N24 Si12 1.823729 1_555
N24 Si7 1.851645 1_455
N25 Si1 1.649162 1_455
N26 Si7 1.688574 1_555
N26 Si0 1.799720 1_654
N27 Si5 1.772725 1_455
N27 Si6 1.773688 1_455
N28 Si4 1.738246 1_455
N29 Si2 1.772346 1_455
N29 Si3 1.782990 1_455
