# generated using pymatgen
data_YbSi6H54(C6N)3
_symmetry_space_group_name_H-M   'P 1'
_cell_length_a   16.57415005
_cell_length_b   16.57415005
_cell_length_c   9.69173100
_cell_angle_alpha   90.00000000
_cell_angle_beta   90.00000000
_cell_angle_gamma   120.00000019
_symmetry_Int_Tables_number   1
_chemical_formula_structural   YbSi6H54(C6N)3
_chemical_formula_sum   'Yb2 Si12 H108 C36 N6'
_cell_volume   2305.65601618
_cell_formula_units_Z   2
loop_
 _symmetry_equiv_pos_site_id
 _symmetry_equiv_pos_as_xyz
  1  'x, y, z'
loop_
 _atom_site_type_symbol
 _atom_site_label
 _atom_site_symmetry_multiplicity
 _atom_site_fract_x
 _atom_site_fract_y
 _atom_site_fract_z
 _atom_site_occupancy
  Yb  Yb0  1  0.33333300  0.66666700  0.18545300  1
  Yb  Yb1  1  0.66666700  0.33333300  0.68545300  1
  Si  Si0  1  0.17394900  0.71351700  0.37873900  1
  Si  Si1  1  0.28472700  0.82726400  0.12339000  1
  Si  Si2  1  0.17273600  0.45746300  0.12339000  1
  Si  Si3  1  0.28648300  0.46043200  0.37873900  1
  Si  Si4  1  0.53956800  0.82605100  0.37873900  1
  Si  Si5  1  0.54253700  0.71527300  0.12339000  1
  Si  Si6  1  0.46043200  0.28648300  0.87873900  1
  Si  Si7  1  0.45746300  0.17273600  0.62339000  1
  Si  Si8  1  0.71527300  0.54253700  0.62339000  1
  Si  Si9  1  0.82605100  0.53956800  0.87873900  1
  Si  Si10  1  0.71351700  0.17394900  0.87873900  1
  Si  Si11  1  0.82726400  0.28472700  0.62339000  1
  H  H0  1  0.99940400  0.61773000  0.38519700  1
  H  H1  1  0.03641800  0.69321000  0.24009100  1
  H  H2  1  0.11982200  0.78636800  0.55020900  1
  H  H3  1  0.12898400  0.81597300  0.07648300  1
  H  H4  1  0.04307500  0.58921000  0.23715900  1
  H  H5  1  0.18448200  0.87040600  0.42172100  1
  H  H6  1  0.21317700  0.88094200  0.94805000  1
  H  H7  1  0.15537900  0.75701300  0.94680400  1
  H  H8  1  0.99807800  0.38109600  0.11530500  1
  H  H9  1  0.24362100  0.84475200  0.55221400  1
  H  H10  1  0.04304700  0.45385100  0.26285600  1
  H  H11  1  0.13267600  0.62756300  0.59419000  1
  H  H12  1  0.30758600  0.96509400  0.26044700  1
  H  H13  1  0.03490600  0.34249200  0.26044700  1
  H  H14  1  0.16423500  0.59828100  0.02493600  1
  H  H15  1  0.16402000  0.56598800  0.47586600  1
  H  H16  1  0.13460600  0.50572500  0.90903800  1
  H  H17  1  0.38301800  0.00192200  0.11530500  1
  H  H18  1  0.25192400  0.66753500  0.56094600  1
  H  H19  1  0.41080400  0.95695300  0.26285600  1
  H  H20  1  0.37111900  0.86539400  0.90903800  1
  H  H21  1  0.25229300  0.58465200  0.93735900  1
  H  H22  1  0.11905800  0.33223500  0.94805000  1
  H  H23  1  0.33235900  0.74770700  0.93735900  1
  H  H24  1  0.15524800  0.39886900  0.55221400  1
  H  H25  1  0.12959400  0.31407600  0.42172100  1
  H  H26  1  0.40196900  0.83598000  0.47586600  1
  H  H27  1  0.43404600  0.83576500  0.02493600  1
  H  H28  1  0.18402700  0.31301200  0.07648300  1
  H  H29  1  0.24298700  0.39836700  0.94680400  1
  H  H30  1  0.41561100  0.74807600  0.56094600  1
  H  H31  1  0.21363200  0.33345400  0.55020900  1
  H  H32  1  0.33246500  0.58438900  0.56094600  1
  H  H33  1  0.49488700  0.86732400  0.59419000  1
  H  H34  1  0.54613500  0.95692500  0.23715900  1
  H  H35  1  0.41534800  0.66764100  0.93735900  1
  H  H36  1  0.61832500  0.00059600  0.38519700  1
  H  H37  1  0.37243700  0.50511300  0.59419000  1
  H  H38  1  0.40171900  0.56595400  0.02493600  1
  H  H39  1  0.43401200  0.59803100  0.47586600  1
  H  H40  1  0.30679000  0.34320800  0.24009100  1
  H  H41  1  0.65679200  0.96358200  0.24009100  1
  H  H42  1  0.49427500  0.62888100  0.90903800  1
  H  H43  1  0.41079000  0.45386500  0.23715900  1
  H  H44  1  0.60163300  0.84462100  0.94680400  1
  H  H45  1  0.38227000  0.38167500  0.38519700  1
  H  H46  1  0.38167500  0.38227000  0.88519700  1
  H  H47  1  0.34320800  0.30679000  0.74009100  1
  H  H48  1  0.60113100  0.75637900  0.55221400  1
  H  H49  1  0.33345400  0.21363200  0.05020900  1
  H  H50  1  0.66654600  0.88017800  0.55020900  1
  H  H51  1  0.31301200  0.18402700  0.57648300  1
  H  H52  1  0.45386500  0.41079000  0.73715900  1
  H  H53  1  0.68698800  0.87101600  0.07648300  1
  H  H54  1  0.31407600  0.12959400  0.92172100  1
  H  H55  1  0.54614900  0.58919600  0.26285600  1
  H  H56  1  0.68592400  0.81551800  0.42172100  1
  H  H57  1  0.33223500  0.11905800  0.44805000  1
  H  H58  1  0.66776500  0.78682300  0.94805000  1
  H  H59  1  0.39836700  0.24298700  0.44680400  1
  H  H60  1  0.65750800  0.69241400  0.26044700  1
  H  H61  1  0.61890400  0.61698200  0.11530500  1
  H  H62  1  0.61698200  0.61890400  0.61530500  1
  H  H63  1  0.39886900  0.15524800  0.05221400  1
  H  H64  1  0.58919600  0.54614900  0.76285600  1
  H  H65  1  0.50511300  0.37243700  0.09419000  1
  H  H66  1  0.34249200  0.03490600  0.76044700  1
  H  H67  1  0.69241400  0.65750800  0.76044700  1
  H  H68  1  0.56595400  0.40171900  0.52493600  1
  H  H69  1  0.59803100  0.43401200  0.97586600  1
  H  H70  1  0.62888100  0.49427500  0.40903800  1
  H  H71  1  0.38109600  0.99807800  0.61530500  1
  H  H72  1  0.58438900  0.33246500  0.06094600  1
  H  H73  1  0.45385100  0.04304700  0.76285600  1
  H  H74  1  0.50572500  0.13460600  0.40903800  1
  H  H75  1  0.66764100  0.41534800  0.43735900  1
  H  H76  1  0.78682300  0.66776500  0.44805000  1
  H  H77  1  0.58465200  0.25229300  0.43735900  1
  H  H78  1  0.75637900  0.60113100  0.05221400  1
  H  H79  1  0.81551800  0.68592400  0.92172100  1
  H  H80  1  0.56598800  0.16402000  0.97586600  1
  H  H81  1  0.59828100  0.16423500  0.52493600  1
  H  H82  1  0.87101600  0.68698800  0.57648300  1
  H  H83  1  0.84462100  0.60163300  0.44680400  1
  H  H84  1  0.66753500  0.25192400  0.06094600  1
  H  H85  1  0.88017800  0.66654600  0.05020900  1
  H  H86  1  0.74807600  0.41561100  0.06094600  1
  H  H87  1  0.62756300  0.13267600  0.09419000  1
  H  H88  1  0.58921000  0.04307500  0.73715900  1
  H  H89  1  0.74770700  0.33235900  0.43735900  1
  H  H90  1  0.61773000  0.99940400  0.88519700  1
  H  H91  1  0.86732400  0.49488700  0.09419000  1
  H  H92  1  0.83576500  0.43404600  0.52493600  1
  H  H93  1  0.83598000  0.40196900  0.97586600  1
  H  H94  1  0.96358200  0.65679200  0.74009100  1
  H  H95  1  0.69321000  0.03641800  0.74009100  1
  H  H96  1  0.86539400  0.37111900  0.40903800  1
  H  H97  1  0.95692500  0.54613500  0.73715900  1
  H  H98  1  0.75701300  0.15537900  0.44680400  1
  H  H99  1  0.00059600  0.61832500  0.88519700  1
  H  H100  1  0.84475200  0.24362100  0.05221400  1
  H  H101  1  0.78636800  0.11982200  0.05020900  1
  H  H102  1  0.81597300  0.12898400  0.57648300  1
  H  H103  1  0.95695300  0.41080400  0.76285600  1
  H  H104  1  0.87040600  0.18448200  0.92172100  1
  H  H105  1  0.88094200  0.21317700  0.44805000  1
  H  H106  1  0.96509400  0.30758600  0.76044700  1
  H  H107  1  0.00192200  0.38301800  0.61530500  1
  C  C0  1  0.05192600  0.64725500  0.30279300  1
  C  C1  1  0.18223100  0.81412500  0.48406800  1
  C  C2  1  0.18563200  0.81868200  0.01441100  1
  C  C3  1  0.05084800  0.40395700  0.19726300  1
  C  C4  1  0.18243700  0.63575100  0.51314900  1
  C  C5  1  0.35310900  0.94915200  0.19726300  1
  C  C6  1  0.18413900  0.54732600  0.99022700  1
  C  C7  1  0.36318600  0.81586100  0.99022700  1
  C  C8  1  0.18131800  0.36695000  0.01441100  1
  C  C9  1  0.18587500  0.36810600  0.48406800  1
  C  C10  1  0.45331400  0.81756300  0.51314900  1
  C  C11  1  0.36424900  0.54668600  0.51314900  1
  C  C12  1  0.59532800  0.94807400  0.30279300  1
  C  C13  1  0.45267400  0.63681400  0.99022700  1
  C  C14  1  0.35274500  0.40467200  0.30279300  1
  C  C15  1  0.63189400  0.81776900  0.48406800  1
  C  C16  1  0.40467200  0.35274500  0.80279300  1
  C  C17  1  0.63305000  0.81436800  0.01441100  1
  C  C18  1  0.36810600  0.18587500  0.98406800  1
  C  C19  1  0.59604300  0.64689100  0.19726300  1
  C  C20  1  0.36695000  0.18131800  0.51441100  1
  C  C21  1  0.64689100  0.59604300  0.69726300  1
  C  C22  1  0.54668600  0.36424900  0.01314900  1
  C  C23  1  0.40395700  0.05084800  0.69726300  1
  C  C24  1  0.63681400  0.45267400  0.49022700  1
  C  C25  1  0.54732600  0.18413900  0.49022700  1
  C  C26  1  0.81436800  0.63305000  0.51441100  1
  C  C27  1  0.81776900  0.63189400  0.98406800  1
  C  C28  1  0.63575100  0.18243700  0.01314900  1
  C  C29  1  0.81756300  0.45331400  0.01314900  1
  C  C30  1  0.64725500  0.05192600  0.80279300  1
  C  C31  1  0.81586100  0.36318600  0.49022700  1
  C  C32  1  0.94807400  0.59532800  0.80279300  1
  C  C33  1  0.81412500  0.18223100  0.98406800  1
  C  C34  1  0.81868200  0.18563200  0.51441100  1
  C  C35  1  0.94915200  0.35310900  0.69726300  1
  N  N0  1  0.25455200  0.74315900  0.24820700  1
  N  N1  1  0.25684100  0.51139300  0.24820700  1
  N  N2  1  0.48860700  0.74544800  0.24820700  1
  N  N3  1  0.51139300  0.25684100  0.74820700  1
  N  N4  1  0.74544800  0.48860700  0.74820700  1
  N  N5  1  0.74315900  0.25455200  0.74820700  1
loop_
_geom_bond_atom_site_label_1
_geom_bond_atom_site_label_2
_geom_bond_distance
_geom_bond_site_symmetry_2
C0 H0 1.099584 1_455
C0 H4 1.100253 1_555
C0 H1 1.100572 1_555
C0 Si0 1.901841 1_555
C1 H5 1.096286 1_555
C1 H9 1.101208 1_555
C1 H2 1.103006 1_555
C1 Si0 1.900672 1_555
C2 H3 1.096943 1_555
C2 H7 1.101341 1_554
C2 H6 1.102633 1_554
C2 Si1 1.897286 1_555
C3 H8 1.099120 1_455
C3 H10 1.100732 1_555
C3 H13 1.101562 1_555
C3 Si2 1.894378 1_555
C4 H11 1.097084 1_555
C4 H15 1.098971 1_555
C4 H18 1.100810 1_555
C4 Si0 1.886619 1_555
C5 H17 1.099120 1_565
C5 H19 1.100732 1_555
C5 H12 1.101562 1_555
C5 Si1 1.894378 1_555
C6 H16 1.096582 1_555
C6 H14 1.101741 1_556
C6 H21 1.105633 1_555
C6 Si2 1.907393 1_556
C7 H20 1.096578 1_555
C7 H27 1.101756 1_556
C7 H23 1.105633 1_555
C7 Si1 1.907381 1_556
C8 H28 1.096929 1_555
C8 H29 1.101341 1_554
C8 H22 1.102633 1_554
C8 Si2 1.897286 1_555
C9 H25 1.096286 1_555
C9 H24 1.101208 1_555
C9 H31 1.103006 1_555
C9 Si3 1.900672 1_555
C10 H33 1.097084 1_555
C10 H26 1.098956 1_555
C10 H30 1.100810 1_555
C10 Si4 1.886619 1_555
C11 H37 1.097084 1_555
C11 H39 1.098967 1_555
C11 H32 1.100810 1_555
C11 Si3 1.886619 1_555
C12 H36 1.099584 1_565
C12 H34 1.100239 1_555
C12 H41 1.100586 1_555
C12 Si4 1.901842 1_555
C13 H42 1.096590 1_555
C13 H38 1.101752 1_556
C13 H35 1.105620 1_555
C13 Si5 1.907388 1_556
C14 H45 1.099584 1_555
C14 H43 1.100248 1_555
C14 H40 1.100582 1_555
C14 Si3 1.901828 1_555
C15 H56 1.096286 1_555
C15 H48 1.101208 1_555
C15 H50 1.103006 1_555
C15 Si4 1.900672 1_555
C16 H46 1.099584 1_555
C16 H52 1.100248 1_555
C16 H47 1.100582 1_555
C16 Si6 1.901828 1_555
C17 H53 1.096937 1_555
C17 H44 1.101352 1_554
C17 H58 1.102633 1_554
C17 Si5 1.897286 1_555
C18 H54 1.096286 1_555
C18 H63 1.101208 1_556
C18 H49 1.103006 1_556
C18 Si6 1.900672 1_555
C19 H61 1.099120 1_555
C19 H55 1.100732 1_555
C19 H60 1.101562 1_555
C19 Si5 1.894378 1_555
C20 H51 1.096929 1_555
C20 H59 1.101341 1_555
C20 H57 1.102633 1_555
C20 Si7 1.897286 1_555
C21 H62 1.099120 1_555
C21 H64 1.100732 1_555
C21 H67 1.101562 1_555
C21 Si8 1.894378 1_555
C22 H65 1.097084 1_555
C22 H69 1.098967 1_554
C22 H72 1.100810 1_555
C22 Si6 1.886619 1_554
C23 H71 1.099120 1_545
C23 H73 1.100732 1_555
C23 H66 1.101562 1_555
C23 Si7 1.894378 1_555
C24 H70 1.096590 1_555
C24 H68 1.101752 1_555
C24 H75 1.105620 1_555
C24 Si8 1.907388 1_555
C25 H74 1.096582 1_555
C25 H81 1.101741 1_555
C25 H77 1.105633 1_555
C25 Si7 1.907393 1_555
C26 H82 1.096937 1_555
C26 H83 1.101352 1_555
C26 H76 1.102633 1_555
C26 Si8 1.897286 1_555
C27 H79 1.096286 1_555
C27 H78 1.101208 1_556
C27 H85 1.103006 1_556
C27 Si9 1.900672 1_555
C28 H87 1.097084 1_555
C28 H80 1.098971 1_554
C28 H84 1.100810 1_555
C28 Si10 1.886619 1_554
C29 H91 1.097084 1_555
C29 H93 1.098956 1_554
C29 H86 1.100810 1_555
C29 Si9 1.886619 1_554
C30 H90 1.099584 1_545
C30 H88 1.100253 1_555
C30 H95 1.100572 1_555
C30 Si10 1.901841 1_555
C31 H96 1.096578 1_555
C31 H92 1.101756 1_555
C31 H89 1.105633 1_555
C31 Si11 1.907381 1_555
C32 H99 1.099584 1_655
C32 H97 1.100239 1_555
C32 H94 1.100586 1_555
C32 Si9 1.901842 1_555
C33 H104 1.096286 1_555
C33 H100 1.101208 1_556
C33 H101 1.103006 1_556
C33 Si10 1.900672 1_555
C34 H102 1.096943 1_555
C34 H98 1.101341 1_555
C34 H105 1.102633 1_555
C34 Si11 1.897286 1_555
C35 H107 1.099120 1_655
C35 H103 1.100732 1_555
C35 H106 1.101562 1_555
C35 Si11 1.894378 1_555
N0 Si1 1.720312 1_555
N0 Si0 1.723417 1_555
N0 Yb0 2.310305 1_555
N1 Si2 1.720312 1_555
N1 Si3 1.723417 1_555
N1 Yb0 2.310318 1_555
N2 Si5 1.720312 1_555
N2 Si4 1.723417 1_555
N2 Yb0 2.310318 1_555
N3 Si7 1.720312 1_555
N3 Si6 1.723417 1_555
N3 Yb1 2.310318 1_555
N4 Si8 1.720312 1_555
N4 Si9 1.723417 1_555
N4 Yb1 2.310318 1_555
N5 Si11 1.720312 1_555
N5 Si10 1.723417 1_555
N5 Yb1 2.310305 1_555
