# generated using pymatgen
data_La10Ga5Cl4
_symmetry_space_group_name_H-M   'P 1'
_cell_length_a   17.09911050
_cell_length_b   17.09911050
_cell_length_c   17.09911050
_cell_angle_alpha   152.63635466
_cell_angle_beta   152.63635466
_cell_angle_gamma   39.08473434
_symmetry_Int_Tables_number   1
_chemical_formula_structural   La10Ga5Cl4
_chemical_formula_sum   'La20 Ga10 Cl8'
_cell_volume   1054.35136292
_cell_formula_units_Z   2
loop_
 _symmetry_equiv_pos_site_id
 _symmetry_equiv_pos_as_xyz
  1  'x, y, z'
loop_
 _atom_site_type_symbol
 _atom_site_label
 _atom_site_symmetry_multiplicity
 _atom_site_fract_x
 _atom_site_fract_y
 _atom_site_fract_z
 _atom_site_occupancy
  La  La0  1  0.10561200  0.60561200  0.84909600  1
  La  La1  1  0.86981500  0.03543200  0.50000000  1
  La  La2  1  0.13018500  0.96456800  0.50000000  1
  La  La3  1  0.25651700  0.10561200  0.50000000  1
  La  La4  1  0.65106100  0.65106100  0.00000000  1
  La  La5  1  0.63018500  0.13018500  0.16561700  1
  La  La6  1  0.39438800  0.24348300  0.50000000  1
  La  La7  1  0.46456800  0.63018500  0.50000000  1
  La  La8  1  0.75651700  0.25651700  0.15090400  1
  La  La9  1  0.15106100  0.15106100  0.00000000  1
  La  La10  1  0.34893900  0.34893900  0.00000000  1
  La  La11  1  0.53543200  0.36981500  0.50000000  1
  La  La12  1  0.36981500  0.86981500  0.83438300  1
  La  La13  1  0.74348300  0.89438800  0.50000000  1
  La  La14  1  0.03543200  0.53543200  0.16561700  1
  La  La15  1  0.24348300  0.74348300  0.84909600  1
  La  La16  1  0.60561200  0.75651700  0.50000000  1
  La  La17  1  0.89438800  0.39438800  0.15090400  1
  La  La18  1  0.96456800  0.46456800  0.83438300  1
  La  La19  1  0.84893900  0.84893900  0.00000000  1
  Ga  Ga0  1  0.75251400  0.25251400  0.74088300  1
  Ga  Ga1  1  0.01163100  0.75251400  0.50000000  1
  Ga  Ga2  1  0.25251400  0.51163100  0.50000000  1
  Ga  Ga3  1  0.74748600  0.48836900  0.50000000  1
  Ga  Ga4  1  0.98836900  0.24748600  0.50000000  1
  Ga  Ga5  1  0.48836900  0.98836900  0.74088300  1
  Ga  Ga6  1  0.24748600  0.74748600  0.25911700  1
  Ga  Ga7  1  0.25000000  0.25000000  0.00000000  1
  Ga  Ga8  1  0.75000000  0.75000000  0.00000000  1
  Ga  Ga9  1  0.51163100  0.01163100  0.25911700  1
  Cl  Cl0  1  0.05456600  0.05456600  0.00000000  1
  Cl  Cl1  1  0.13967800  0.36032200  0.50000000  1
  Cl  Cl2  1  0.86032200  0.63967800  0.50000000  1
  Cl  Cl3  1  0.36032200  0.86032200  0.22064400  1
  Cl  Cl4  1  0.55456600  0.55456600  0.00000000  1
  Cl  Cl5  1  0.44543400  0.44543400  0.00000000  1
  Cl  Cl6  1  0.94543400  0.94543400  0.00000000  1
  Cl  Cl7  1  0.63967800  0.13967800  0.77935600  1
loop_
_geom_bond_atom_site_label_1
_geom_bond_atom_site_label_2
_geom_bond_distance
_geom_bond_site_symmetry_2
Ga0 Ga9 2.755565 1_555
Ga0 La17 3.104883 1_556
Ga0 La13 3.166319 1_545
Ga0 La6 3.166319 1_555
Ga0 La11 3.275071 1_555
Ga0 La1 3.275071 1_555
Ga0 La9 3.278695 1_656
Ga0 La4 3.278695 1_556
Ga0 La14 3.327408 1_656
Ga1 Ga2 2.755565 1_555
Ga1 La13 3.104898 1_455
Ga1 La17 3.166312 1_455
Ga1 La15 3.166333 1_555
Ga1 La14 3.275071 1_555
Ga1 La12 3.275071 1_555
Ga1 La9 3.278695 1_566
Ga1 La4 3.278695 1_455
Ga1 La1 3.327408 1_465
Ga2 La6 3.104898 1_555
Ga2 La17 3.166312 1_455
Ga2 La15 3.166333 1_555
Ga2 La14 3.275071 1_555
Ga2 La12 3.275071 1_555
Ga2 La4 3.278695 1_556
Ga2 La9 3.278695 1_555
Ga2 La11 3.327408 1_555
Ga3 Ga4 2.755565 1_555
Ga3 La16 3.104898 1_555
Ga3 La0 3.166312 1_655
Ga3 La8 3.166333 1_555
Ga3 La5 3.275071 1_555
Ga3 La18 3.275071 1_555
Ga3 La10 3.278695 1_555
Ga3 La19 3.278695 1_556
Ga3 La7 3.327408 1_555
Ga4 La3 3.104898 1_655
Ga4 La0 3.166312 1_655
Ga4 La8 3.166333 1_555
Ga4 La5 3.275071 1_555
Ga4 La18 3.275071 1_555
Ga4 La10 3.278695 1_656
Ga4 La19 3.278695 1_545
Ga4 La2 3.327408 1_645
Ga5 Ga6 2.755565 1_555
Ga5 La8 3.104904 1_566
Ga5 La16 3.166319 1_555
Ga5 La3 3.166319 1_565
Ga5 La7 3.275071 1_555
Ga5 La2 3.275071 1_555
Ga5 La19 3.278695 1_556
Ga5 La10 3.278695 1_566
Ga5 La5 3.327408 1_566
Ga6 La0 3.104883 1_554
Ga6 La16 3.166319 1_555
Ga6 La3 3.166319 1_565
Ga6 La2 3.275071 1_555
Ga6 La7 3.275071 1_555
Ga6 La19 3.278695 1_455
Ga6 La10 3.278695 1_555
Ga6 La18 3.327408 1_454
Ga7 La10 3.188627 1_555
Ga7 La9 3.188627 1_555
Ga7 La18 3.377490 1_454
Ga7 La7 3.377490 1_555
Ga7 La12 3.377490 1_544
Ga7 La11 3.377490 1_555
Ga7 La14 3.377490 1_555
Ga7 La1 3.377490 1_454
Ga7 La5 3.377490 1_555
Ga7 La2 3.377490 1_544
Ga8 La19 3.188627 1_555
Ga8 La4 3.188627 1_555
Ga8 La2 3.377490 1_655
Ga8 La12 3.377490 1_554
Ga8 La7 3.377490 1_554
Ga8 La11 3.377490 1_554
Ga8 La14 3.377490 1_655
Ga8 La18 3.377490 1_554
Ga8 La1 3.377490 1_565
Ga8 La5 3.377490 1_565
Ga9 La15 3.104904 1_544
Ga9 La13 3.166319 1_545
Ga9 La6 3.166319 1_555
Ga9 La1 3.275071 1_555
Ga9 La11 3.275071 1_555
Ga9 La4 3.278695 1_545
Ga9 La9 3.278695 1_555
Ga9 La12 3.327408 1_544
Cl0 La15 3.022951 1_544
Cl0 La6 3.022955 1_555
Cl0 La13 3.022955 1_444
Cl0 La17 3.022956 1_455
Cl0 La9 3.109861 1_555
Cl1 La6 3.074426 1_555
Cl1 La3 3.074426 1_555
Cl1 La8 3.387588 1_455
Cl1 La15 3.387588 1_555
Cl1 La17 3.387609 1_455
Cl1 La0 3.387609 1_555
Cl2 La16 3.074426 1_555
Cl2 La13 3.074426 1_555
Cl2 La8 3.387588 1_555
Cl2 La15 3.387588 1_655
Cl2 La0 3.387609 1_655
Cl2 La17 3.387609 1_555
Cl3 La15 3.074410 1_554
Cl3 La0 3.074433 1_554
Cl3 La6 3.387595 1_565
Cl3 La13 3.387595 1_555
Cl3 La3 3.387595 1_565
Cl3 La16 3.387595 1_555
Cl4 La15 3.022951 1_554
Cl4 La6 3.022955 1_554
Cl4 La13 3.022955 1_555
Cl4 La17 3.022956 1_555
Cl4 La4 3.109861 1_555
Cl5 La8 3.022951 1_555
Cl5 La3 3.022955 1_554
Cl5 La16 3.022955 1_555
Cl5 La0 3.022956 1_554
Cl5 La10 3.109861 1_555
Cl6 La8 3.022951 1_565
Cl6 La3 3.022955 1_665
Cl6 La16 3.022955 1_554
Cl6 La0 3.022956 1_654
Cl6 La19 3.109861 1_555
Cl7 La8 3.074410 1_556
Cl7 La17 3.074433 1_556
Cl7 La6 3.387595 1_555
Cl7 La13 3.387595 1_545
Cl7 La3 3.387595 1_555
Cl7 La16 3.387595 1_545
