# generated using pymatgen
data_Al(HO)3
_symmetry_space_group_name_H-M   'P 1'
_cell_length_a   4.85976800
_cell_length_b   5.04218304
_cell_length_c   5.13341758
_cell_angle_alpha   61.27415696
_cell_angle_beta   89.20851359
_cell_angle_gamma   89.43975823
_symmetry_Int_Tables_number   1
_chemical_formula_structural   Al(HO)3
_chemical_formula_sum   'Al2 H6 O6'
_cell_volume   110.29636049
_cell_formula_units_Z   2
loop_
 _symmetry_equiv_pos_site_id
 _symmetry_equiv_pos_as_xyz
  1  'x, y, z'
loop_
 _atom_site_type_symbol
 _atom_site_label
 _atom_site_symmetry_multiplicity
 _atom_site_fract_x
 _atom_site_fract_y
 _atom_site_fract_z
 _atom_site_occupancy
  Al  Al0  1  0.98691700  0.34835400  0.33222000  1
  Al  Al1  1  0.98779300  0.68051300  0.67593700  1
  H  H0  1  0.58706500  0.60487000  0.41508900  1
  H  H1  1  0.72322200  0.20609900  0.00659100  1
  H  H2  1  0.58926000  0.00956800  0.57700700  1
  H  H3  1  0.28302500  0.21372800  0.77448100  1
  H  H4  1  0.39502200  0.56830800  0.00230100  1
  H  H5  1  0.17907000  0.96591200  0.20373200  1
  O  O0  1  0.78409400  0.64477200  0.37852200  1
  O  O1  1  0.76699200  0.39505300  0.00540500  1
  O  O2  1  0.77777700  0.01806700  0.63524000  1
  O  O3  1  0.21282100  0.39723600  0.60900500  1
  O  O4  1  0.20649400  0.64428400  0.99884400  1
  O  O5  1  0.20325500  0.00796800  0.36891200  1
loop_
_geom_bond_atom_site_label_1
_geom_bond_atom_site_label_2
_geom_bond_distance
_geom_bond_site_symmetry_2
Al0 O0 1.888929 1_555
Al0 O3 1.915682 1_655
Al0 O1 1.917613 1_555
Al0 O2 1.930139 1_555
Al0 O5 1.935435 1_655
Al0 O4 1.954479 1_654
Al1 O2 1.900603 1_565
Al1 O0 1.911319 1_555
Al1 O4 1.914287 1_655
Al1 O1 1.929683 1_556
Al1 O3 1.945490 1_655
Al1 O5 1.947659 1_665
H0 O0 0.977266 1_555
H1 O1 0.975372 1_555
H2 O2 0.975282 1_555
H3 O3 0.969761 1_555
H4 O4 0.986685 1_554
H5 O5 0.976657 1_565
