# generated using pymatgen
data_Sr(H8O5)2
_symmetry_space_group_name_H-M   'P 1'
_cell_length_a   6.28713047
_cell_length_b   6.28713047
_cell_length_c   11.60724348
_cell_angle_alpha   88.75297329
_cell_angle_beta   88.75297329
_cell_angle_gamma   89.61884991
_symmetry_Int_Tables_number   1
_chemical_formula_structural   Sr(H8O5)2
_chemical_formula_sum   'Sr2 H32 O20'
_cell_volume   458.58516347
_cell_formula_units_Z   2
loop_
 _symmetry_equiv_pos_site_id
 _symmetry_equiv_pos_as_xyz
  1  'x, y, z'
loop_
 _atom_site_type_symbol
 _atom_site_label
 _atom_site_symmetry_multiplicity
 _atom_site_fract_x
 _atom_site_fract_y
 _atom_site_fract_z
 _atom_site_occupancy
  Sr  Sr0  1  0.00000000  0.00000000  0.00000000  1
  Sr  Sr1  1  0.00000000  0.00000000  0.50000000  1
  H  H0  1  0.69328700  0.91127300  0.79269000  1
  H  H1  1  0.61379500  0.73152300  0.88922900  1
  H  H2  1  0.38247000  0.27762400  0.89181500  1
  H  H3  1  0.44343100  0.03782000  0.88375700  1
  H  H4  1  0.72365700  0.38105300  0.88948400  1
  H  H5  1  0.96303000  0.44305700  0.88731100  1
  H  H6  1  0.08868100  0.68088400  0.79278900  1
  H  H7  1  0.27010500  0.61107300  0.88975600  1
  H  H8  1  0.68088400  0.08868100  0.29278900  1
  H  H9  1  0.61107300  0.27010500  0.38975600  1
  H  H10  1  0.44305700  0.96303000  0.38731100  1
  H  H11  1  0.38105300  0.72365700  0.38948400  1
  H  H12  1  0.73152300  0.61379500  0.38922900  1
  H  H13  1  0.91127300  0.69328700  0.29269000  1
  H  H14  1  0.03782000  0.44343100  0.38375700  1
  H  H15  1  0.27762400  0.38247000  0.39181500  1
  H  H16  1  0.30671300  0.08872700  0.20731000  1
  H  H17  1  0.38620500  0.26847700  0.11077100  1
  H  H18  1  0.61753000  0.72237600  0.10818500  1
  H  H19  1  0.55656900  0.96218000  0.11624300  1
  H  H20  1  0.27634300  0.61894700  0.11051600  1
  H  H21  1  0.03697000  0.55694300  0.11268900  1
  H  H22  1  0.72989500  0.38892700  0.11024400  1
  H  H23  1  0.91131900  0.31911600  0.20721100  1
  H  H24  1  0.31911600  0.91131900  0.70721100  1
  H  H25  1  0.38892700  0.72989500  0.61024400  1
  H  H26  1  0.55694300  0.03697000  0.61268900  1
  H  H27  1  0.61894700  0.27634300  0.61051600  1
  H  H28  1  0.08872700  0.30671300  0.70731000  1
  H  H29  1  0.26847700  0.38620500  0.61077100  1
  H  H30  1  0.72237600  0.61753000  0.60818500  1
  H  H31  1  0.96218000  0.55656900  0.61624300  1
  O  O0  1  0.49629500  0.50472400  0.93493600  1
  O  O1  1  0.50472400  0.49629500  0.43493600  1
  O  O2  1  0.50370500  0.49527600  0.06506400  1
  O  O3  1  0.49527600  0.50370500  0.56506400  1
  O  O4  1  0.66911900  0.88245000  0.87564300  1
  O  O5  1  0.32052400  0.13591000  0.87079700  1
  O  O6  1  0.86993200  0.32060900  0.87286200  1
  O  O7  1  0.12268100  0.67607800  0.87496200  1
  O  O8  1  0.67607800  0.12268100  0.37496200  1
  O  O9  1  0.32060900  0.86993200  0.37286200  1
  O  O10  1  0.88245000  0.66911900  0.37564300  1
  O  O11  1  0.13591000  0.32052400  0.37079700  1
  O  O12  1  0.33088100  0.11755000  0.12435700  1
  O  O13  1  0.67947600  0.86409000  0.12920300  1
  O  O14  1  0.13006800  0.67939100  0.12713800  1
  O  O15  1  0.87731900  0.32392200  0.12503800  1
  O  O16  1  0.32392200  0.87731900  0.62503800  1
  O  O17  1  0.67939100  0.13006800  0.62713800  1
  O  O18  1  0.11755000  0.33088100  0.62435700  1
  O  O19  1  0.86409000  0.67947600  0.62920300  1
loop_
_geom_bond_atom_site_label_1
_geom_bond_atom_site_label_2
_geom_bond_distance
_geom_bond_site_symmetry_2
H0 O4 0.984592 1_555
H1 O4 1.020662 1_555
H1 O0 1.680613 1_555
H2 O5 1.011557 1_555
H2 O0 1.691618 1_555
H3 O5 0.997372 1_555
H4 O6 1.009066 1_555
H4 O0 1.701904 1_555
H5 O6 0.989585 1_555
H6 O7 0.981774 1_555
H7 O7 1.026863 1_555
H7 O0 1.657997 1_555
H8 O8 0.981774 1_555
H9 O8 1.026863 1_555
H9 O1 1.657997 1_555
H10 O9 0.989585 1_555
H11 O9 1.009066 1_555
H11 O1 1.701904 1_555
H12 O10 1.020662 1_555
H12 O1 1.680613 1_555
H13 O10 0.984592 1_555
H14 O11 0.997372 1_555
H15 O11 1.011557 1_555
H15 O1 1.691618 1_555
H16 O12 0.984592 1_555
H17 O12 1.020662 1_555
H17 O2 1.680613 1_555
H18 O13 1.011557 1_555
H18 O2 1.691618 1_555
H19 O13 0.997372 1_555
H20 O14 1.009066 1_555
H20 O2 1.701904 1_555
H21 O14 0.989585 1_555
H22 O15 1.026863 1_555
H22 O2 1.657997 1_555
H23 O15 0.981774 1_555
H24 O16 0.981774 1_555
H25 O16 1.026863 1_555
H25 O3 1.657997 1_555
H26 O17 0.989585 1_555
H27 O17 1.009066 1_555
H27 O3 1.701904 1_555
H28 O18 0.984592 1_555
H29 O18 1.020662 1_555
H29 O3 1.680613 1_555
H30 O19 1.011557 1_555
H30 O3 1.691618 1_555
H31 O19 0.997372 1_555
O0 O2 1.512022 1_556
O1 O3 1.512022 1_555
O4 Sr0 2.674869 1_666
O5 Sr0 2.622163 1_556
O6 Sr0 2.609730 1_656
O7 Sr0 2.628279 1_566
O8 Sr1 2.628279 1_655
O9 Sr1 2.609730 1_565
O10 Sr1 2.674869 1_665
O11 Sr1 2.622163 1_555
O12 Sr0 2.674869 1_555
O13 Sr0 2.622163 1_665
O14 Sr0 2.609730 1_565
O15 Sr0 2.628279 1_655
O16 Sr1 2.628279 1_565
O17 Sr1 2.609730 1_655
O18 Sr1 2.674869 1_555
O19 Sr1 2.622163 1_665
