# generated using pymatgen
data_Ni2GeP
_symmetry_space_group_name_H-M   'P 1'
_cell_length_a   5.01047100
_cell_length_b   6.00461800
_cell_length_c   14.07701000
_cell_angle_alpha   90.00000000
_cell_angle_beta   90.00000000
_cell_angle_gamma   90.00000000
_symmetry_Int_Tables_number   1
_chemical_formula_structural   Ni2GeP
_chemical_formula_sum   'Ni16 Ge8 P8'
_cell_volume   423.52042109
_cell_formula_units_Z   8
loop_
 _symmetry_equiv_pos_site_id
 _symmetry_equiv_pos_as_xyz
  1  'x, y, z'
loop_
 _atom_site_type_symbol
 _atom_site_label
 _atom_site_symmetry_multiplicity
 _atom_site_fract_x
 _atom_site_fract_y
 _atom_site_fract_z
 _atom_site_occupancy
  Ni  Ni0  1  0.99118200  0.79212200  0.42606300  1
  Ni  Ni1  1  0.49118200  0.70787800  0.42606300  1
  Ni  Ni2  1  0.49334200  0.21834900  0.80869100  1
  Ni  Ni3  1  0.50665800  0.28165100  0.30869100  1
  Ni  Ni4  1  0.49118200  0.20787800  0.07393700  1
  Ni  Ni5  1  0.50665800  0.78165100  0.19130900  1
  Ni  Ni6  1  0.00665800  0.71834900  0.19130900  1
  Ni  Ni7  1  0.99118200  0.29212200  0.07393700  1
  Ni  Ni8  1  0.00881800  0.70787800  0.92606300  1
  Ni  Ni9  1  0.99334200  0.28165100  0.80869100  1
  Ni  Ni10  1  0.50881800  0.29212200  0.57393700  1
  Ni  Ni11  1  0.50881800  0.79212200  0.92606300  1
  Ni  Ni12  1  0.99334200  0.78165100  0.69130900  1
  Ni  Ni13  1  0.49334200  0.71834900  0.69130900  1
  Ni  Ni14  1  0.00665800  0.21834900  0.30869100  1
  Ni  Ni15  1  0.00881800  0.20787800  0.57393700  1
  Ge  Ge0  1  0.70228000  0.40709400  0.94018100  1
  Ge  Ge1  1  0.79772000  0.90709400  0.05981900  1
  Ge  Ge2  1  0.79772000  0.40709400  0.44018100  1
  Ge  Ge3  1  0.70228000  0.90709400  0.55981900  1
  Ge  Ge4  1  0.20228000  0.09290600  0.94018100  1
  Ge  Ge5  1  0.29772000  0.09290600  0.44018100  1
  Ge  Ge6  1  0.29772000  0.59290600  0.05981900  1
  Ge  Ge7  1  0.20228000  0.59290600  0.55981900  1
  P  P0  1  0.29238600  0.06691000  0.68355600  1
  P  P1  1  0.70761400  0.43309000  0.18355600  1
  P  P2  1  0.79238600  0.43309000  0.68355600  1
  P  P3  1  0.79238600  0.93309000  0.81644400  1
  P  P4  1  0.20761400  0.56691000  0.31644400  1
  P  P5  1  0.29238600  0.56691000  0.81644400  1
  P  P6  1  0.20761400  0.06691000  0.18355600  1
  P  P7  1  0.70761400  0.93309000  0.31644400  1
loop_
_geom_bond_atom_site_label_1
_geom_bond_atom_site_label_2
_geom_bond_distance
_geom_bond_site_symmetry_2
Ni0 P7 2.261940 1_555
Ni0 P4 2.320756 1_655
Ni1 P4 2.261940 1_555
Ni1 P7 2.320756 1_555
Ni2 P0 2.223439 1_555
Ni2 P3 2.278354 1_545
Ni2 P5 2.325140 1_555
Ni2 P2 2.647769 1_555
Ni3 P1 2.223439 1_555
Ni3 P4 2.278354 1_555
Ni3 P7 2.325140 1_545
Ni3 P6 2.647769 1_555
Ni4 P6 2.261940 1_555
Ni4 P1 2.320756 1_555
Ni5 P7 2.223439 1_555
Ni5 P6 2.278354 1_565
Ni5 P1 2.325140 1_555
Ni5 P4 2.647769 1_555
Ni6 P4 2.223439 1_555
Ni6 P1 2.278354 1_455
Ni6 P6 2.325140 1_565
Ni6 P7 2.647769 1_455
Ni7 P1 2.261940 1_555
Ni7 P6 2.320756 1_655
Ni8 P5 2.261940 1_555
Ni8 P3 2.320756 1_455
Ni9 P2 2.223439 1_555
Ni9 P5 2.278354 1_655
Ni9 P3 2.325140 1_545
Ni9 P0 2.647769 1_655
Ni10 P2 2.261940 1_555
Ni10 P0 2.320756 1_555
Ni11 P3 2.261940 1_555
Ni11 P5 2.320756 1_555
Ni12 P3 2.223439 1_555
Ni12 P0 2.278354 1_665
Ni12 P2 2.325140 1_555
Ni12 P5 2.647769 1_655
Ni13 P5 2.223439 1_555
Ni13 P2 2.278354 1_555
Ni13 P0 2.325140 1_565
Ni13 P3 2.647769 1_555
Ni14 P6 2.223439 1_555
Ni14 P7 2.278354 1_445
Ni14 P4 2.325140 1_555
Ni14 P1 2.647769 1_455
Ni15 P0 2.261940 1_555
Ni15 P2 2.320756 1_455
Ge0 Ni8 2.379172 1_655
Ge0 Ni2 2.409682 1_555
Ge0 Ni4 2.468789 1_556
Ge0 Ni7 2.473300 1_556
Ge0 Ni9 2.473929 1_555
Ge0 Ni11 2.514797 1_555
Ge1 Ni4 2.379172 1_565
Ge1 Ni6 2.409682 1_655
Ge1 Ni8 2.468789 1_654
Ge1 Ni11 2.473300 1_554
Ge1 Ni5 2.473929 1_555
Ge1 Ni7 2.514797 1_565
Ge2 Ni1 2.379172 1_555
Ge2 Ni14 2.409682 1_655
Ge2 Ni15 2.468789 1_655
Ge2 Ni10 2.473300 1_555
Ge2 Ni3 2.473929 1_555
Ge2 Ni0 2.514797 1_555
Ge3 Ni15 2.379172 1_665
Ge3 Ni13 2.409682 1_555
Ge3 Ni1 2.468789 1_555
Ge3 Ni0 2.473300 1_555
Ge3 Ni12 2.473929 1_555
Ge3 Ni10 2.514797 1_565
Ge4 Ni11 2.379172 1_545
Ge4 Ni9 2.409682 1_455
Ge4 Ni7 2.468789 1_456
Ge4 Ni4 2.473300 1_556
Ge4 Ni2 2.473929 1_555
Ge4 Ni8 2.514797 1_545
Ge5 Ni0 2.379172 1_445
Ge5 Ni3 2.409682 1_555
Ge5 Ni10 2.468789 1_555
Ge5 Ni15 2.473300 1_555
Ge5 Ni14 2.473929 1_555
Ge5 Ni1 2.514797 1_545
Ge6 Ni7 2.379172 1_455
Ge6 Ni5 2.409682 1_555
Ge6 Ni11 2.468789 1_554
Ge6 Ni8 2.473300 1_554
Ge6 Ni6 2.473929 1_555
Ge6 Ni4 2.514797 1_555
Ge7 Ni10 2.379172 1_555
Ge7 Ni12 2.409682 1_455
Ge7 Ni0 2.468789 1_455
Ge7 Ni1 2.473300 1_555
Ge7 Ni13 2.473929 1_555
Ge7 Ni15 2.514797 1_555
