# generated using pymatgen
data_Mn2GeSe4
_symmetry_space_group_name_H-M   'P 1'
_cell_length_a   6.34450408
_cell_length_b   7.80991998
_cell_length_c   13.43952943
_cell_angle_alpha   90.00000000
_cell_angle_beta   90.00000000
_cell_angle_gamma   90.00000000
_symmetry_Int_Tables_number   1
_chemical_formula_structural   Mn2GeSe4
_chemical_formula_sum   'Mn8 Ge4 Se16'
_cell_volume   665.92961297
_cell_formula_units_Z   4
loop_
 _symmetry_equiv_pos_site_id
 _symmetry_equiv_pos_as_xyz
  1  'x, y, z'
loop_
 _atom_site_type_symbol
 _atom_site_label
 _atom_site_symmetry_multiplicity
 _atom_site_fract_x
 _atom_site_fract_y
 _atom_site_fract_z
 _atom_site_occupancy
  Mn  Mn0  1  0.50128665  0.25000000  0.76704998  1
  Mn  Mn1  1  -0.00128665  0.25000000  0.26704998  1
  Mn  Mn2  1  0.00128665  0.75000000  0.73295002  1
  Mn  Mn3  1  -0.00000000  -0.00000000  -0.00000000  1
  Mn  Mn4  1  0.49871335  0.75000000  0.23295002  1
  Mn  Mn5  1  0.50000000  0.50000000  0.50000000  1
  Mn  Mn6  1  0.50000000  -0.00000000  0.50000000  1
  Mn  Mn7  1  -0.00000000  0.50000000  -0.00000000  1
  Ge  Ge0  1  0.41173506  0.25000000  0.08750772  1
  Ge  Ge1  1  0.91173506  0.75000000  0.41249228  1
  Ge  Ge2  1  0.08826494  0.25000000  0.58750772  1
  Ge  Ge3  1  0.58826494  0.75000000  0.91249228  1
  Se  Se0  1  0.75321821  -0.01384259  0.83202056  1
  Se  Se1  1  0.75159232  0.75000000  0.57279019  1
  Se  Se2  1  0.78085939  0.25000000  0.09221547  1
  Se  Se3  1  0.74678179  0.51384259  0.33202056  1
  Se  Se4  1  0.28085939  0.75000000  0.40778453  1
  Se  Se5  1  0.74678179  -0.01384259  0.33202056  1
  Se  Se6  1  0.74840768  0.75000000  0.07279019  1
  Se  Se7  1  0.71914061  0.25000000  0.59221547  1
  Se  Se8  1  0.25159232  0.25000000  0.92720981  1
  Se  Se9  1  0.21914061  0.75000000  0.90778453  1
  Se  Se10  1  0.24840768  0.25000000  0.42720981  1
  Se  Se11  1  0.24678179  0.48615741  0.16797944  1
  Se  Se12  1  0.24678179  0.01384259  0.16797944  1
  Se  Se13  1  0.75321821  0.51384259  0.83202056  1
  Se  Se14  1  0.25321821  0.48615741  0.66797944  1
  Se  Se15  1  0.25321821  0.01384259  0.66797944  1
loop_
_geom_bond_atom_site_label_1
_geom_bond_atom_site_label_2
_geom_bond_distance
_geom_bond_site_symmetry_2
Mn0 Se8 2.672599 1_555
Mn0 Se7 2.726072 1_555
Mn0 Se0 2.750142 1_555
Mn0 Se13 2.750142 1_555
Mn0 Se14 2.766146 1_555
Mn0 Se15 2.766146 1_555
Mn1 Se10 2.672599 1_555
Mn1 Se2 2.726072 1_455
Mn1 Se5 2.750142 1_455
Mn1 Se3 2.750142 1_455
Mn1 Se11 2.766146 1_555
Mn1 Se12 2.766146 1_555
Mn2 Se1 2.672599 1_455
Mn2 Se9 2.726072 1_555
Mn2 Se15 2.750142 1_565
Mn2 Se14 2.750142 1_555
Mn2 Se13 2.766146 1_455
Mn2 Se0 2.766146 1_465
Mn3 Se2 2.698363 1_455
Mn3 Se9 2.698363 1_544
Mn3 Se8 2.705019 1_554
Mn3 Se6 2.705019 1_445
Mn3 Se0 2.749496 1_454
Mn3 Se12 2.749496 1_555
Mn4 Se6 2.672599 1_555
Mn4 Se4 2.726072 1_555
Mn4 Se11 2.750142 1_555
Mn4 Se12 2.750142 1_565
Mn4 Se3 2.766146 1_555
Mn4 Se5 2.766146 1_565
Mn5 Se7 2.698363 1_555
Mn5 Se4 2.698363 1_555
Mn5 Se10 2.705019 1_555
Mn5 Se1 2.705019 1_555
Mn5 Se14 2.749496 1_555
Mn5 Se3 2.749496 1_555
Mn6 Se7 2.698363 1_555
Mn6 Se4 2.698363 1_545
Mn6 Se10 2.705019 1_555
Mn6 Se1 2.705019 1_545
Mn6 Se15 2.749496 1_555
Mn6 Se5 2.749496 1_555
Mn7 Se9 2.698363 1_554
Mn7 Se2 2.698363 1_455
Mn7 Se6 2.705019 1_455
Mn7 Se8 2.705019 1_554
Mn7 Se13 2.749496 1_454
Mn7 Se11 2.749496 1_555
Ge0 Se2 2.342765 1_555
Ge0 Se11 2.380464 1_555
Ge0 Se12 2.380464 1_555
Ge0 Se8 2.381899 1_554
Ge1 Se4 2.342765 1_655
Ge1 Se3 2.380464 1_555
Ge1 Se5 2.380464 1_565
Ge1 Se1 2.381899 1_555
Ge2 Se7 2.342765 1_455
Ge2 Se14 2.380464 1_555
Ge2 Se15 2.380464 1_555
Ge2 Se10 2.381899 1_555
Ge3 Se9 2.342765 1_555
Ge3 Se13 2.380464 1_555
Ge3 Se0 2.380464 1_565
Ge3 Se6 2.381899 1_556
