# generated using pymatgen
data_LiSc(SiO3)2
_symmetry_space_group_name_H-M   'P 1'
_cell_length_a   6.73017277
_cell_length_b   6.73017277
_cell_length_c   5.41369888
_cell_angle_alpha   74.86759638
_cell_angle_beta   74.86759638
_cell_angle_gamma   84.68590674
_symmetry_Int_Tables_number   1
_chemical_formula_structural   LiSc(SiO3)2
_chemical_formula_sum   'Li2 Sc2 Si4 O12'
_cell_volume   228.42519154
_cell_formula_units_Z   2
loop_
 _symmetry_equiv_pos_site_id
 _symmetry_equiv_pos_as_xyz
  1  'x, y, z'
loop_
 _atom_site_type_symbol
 _atom_site_label
 _atom_site_symmetry_multiplicity
 _atom_site_fract_x
 _atom_site_fract_y
 _atom_site_fract_z
 _atom_site_occupancy
  Li  Li0  1  0.75242700  0.24757300  0.25000000  1
  Li  Li1  1  0.24757300  0.75242700  0.75000000  1
  Sc  Sc0  1  0.10780200  0.89219800  0.25000000  1
  Sc  Sc1  1  0.89219800  0.10780200  0.75000000  1
  Si  Si0  1  0.21152800  0.38467800  0.22154200  1
  Si  Si1  1  0.78847200  0.61532200  0.77845800  1
  Si  Si2  1  0.38467800  0.21152800  0.72154200  1
  Si  Si3  1  0.61532200  0.78847200  0.27845800  1
  O  O0  1  0.64313400  0.65097800  0.06002200  1
  O  O1  1  0.65097800  0.64313400  0.56002200  1
  O  O2  1  0.35686600  0.34902200  0.93997800  1
  O  O3  1  0.34902200  0.35686600  0.43997800  1
  O  O4  1  0.20531500  0.03558000  0.84193600  1
  O  O5  1  0.87533900  0.37993200  0.84484800  1
  O  O6  1  0.79468500  0.96442000  0.15806400  1
  O  O7  1  0.03558000  0.20531500  0.34193600  1
  O  O8  1  0.96442000  0.79468500  0.65806400  1
  O  O9  1  0.12466100  0.62006800  0.15515200  1
  O  O10  1  0.37993200  0.87533900  0.34484800  1
  O  O11  1  0.62006800  0.12466100  0.65515200  1
loop_
_geom_bond_atom_site_label_1
_geom_bond_atom_site_label_2
_geom_bond_distance
_geom_bond_site_symmetry_2
Li0 O7 2.069078 1_655
Li0 O6 2.069078 1_545
Li0 O11 2.111345 1_555
Li0 O5 2.111345 1_554
Li1 O4 2.069078 1_565
Li1 O8 2.069078 1_455
Li1 O9 2.111345 1_556
Li1 O10 2.111345 1_555
O0 Si1 1.645269 1_554
O0 Si3 1.647245 1_555
O1 Si3 1.645269 1_555
O1 Si1 1.647245 1_555
O2 Si0 1.645269 1_556
O2 Si2 1.647245 1_555
O3 Si2 1.645269 1_555
O3 Si0 1.647245 1_555
O4 Si2 1.653868 1_555
O4 Sc0 2.118852 1_546
O4 Sc1 2.270769 1_455
O5 Si1 1.619129 1_555
O5 Sc1 2.013193 1_555
O6 Si3 1.653868 1_555
O6 Sc1 2.118852 1_564
O6 Sc0 2.270769 1_655
O7 Si0 1.653868 1_555
O7 Sc1 2.118852 1_455
O7 Sc0 2.270769 1_545
O8 Si1 1.653868 1_555
O8 Sc0 2.118852 1_655
O8 Sc1 2.270769 1_565
O9 Si0 1.619129 1_555
O9 Sc0 2.013193 1_555
O10 Si3 1.619129 1_555
O10 Sc0 2.013193 1_555
O11 Si2 1.619129 1_555
O11 Sc1 2.013193 1_555
