# generated using pymatgen
data_LiNbO3
_symmetry_space_group_name_H-M   'P 1'
_cell_length_a   5.24995300
_cell_length_b   5.58339653
_cell_length_c   21.72670413
_cell_angle_alpha   94.76912966
_cell_angle_beta   90.01660590
_cell_angle_gamma   117.97801421
_symmetry_Int_Tables_number   1
_chemical_formula_structural   LiNbO3
_chemical_formula_sum   'Li10 Nb10 O30'
_cell_volume   559.92736570
_cell_formula_units_Z   10
loop_
 _symmetry_equiv_pos_site_id
 _symmetry_equiv_pos_as_xyz
  1  'x, y, z'
loop_
 _atom_site_type_symbol
 _atom_site_label
 _atom_site_symmetry_multiplicity
 _atom_site_fract_x
 _atom_site_fract_y
 _atom_site_fract_z
 _atom_site_occupancy
  Li  Li0  1  0.30838800  0.61811800  0.04555800  1
  Li  Li1  1  0.80733600  0.61445100  0.25866900  1
  Li  Li2  1  0.00697000  0.01390700  0.14390300  1
  Li  Li3  1  0.20778200  0.41465900  0.45773100  1
  Li  Li4  1  0.50716600  0.01547400  0.35786500  1
  Li  Li5  1  0.60797200  0.21492800  0.65790000  1
  Li  Li6  1  0.90691800  0.81483400  0.55794000  1
  Li  Li7  1  0.00780800  0.01534700  0.85798100  1
  Li  Li8  1  0.30715200  0.61506800  0.75775300  1
  Li  Li9  1  0.70506800  0.40920700  0.95808300  1
  Nb  Nb0  1  0.01839800  0.02882300  0.00319200  1
  Nb  Nb1  1  0.41855700  0.83321600  0.20357700  1
  Nb  Nb2  1  0.70633300  0.42027500  0.10490800  1
  Nb  Nb3  1  0.82201700  0.64560400  0.40292000  1
  Nb  Nb4  1  0.12266900  0.24382200  0.30230000  1
  Nb  Nb5  1  0.22304300  0.44707600  0.60307500  1
  Nb  Nb6  1  0.52390200  0.04689000  0.50303400  1
  Nb  Nb7  1  0.62180500  0.24486500  0.80279700  1
  Nb  Nb8  1  0.92387500  0.84665900  0.70302500  1
  Nb  Nb9  1  0.32044600  0.64110700  0.90220300  1
  O  O0  1  0.42309600  0.09494500  0.14901900  1
  O  O1  1  0.42299900  0.23378100  0.02502500  1
  O  O2  1  0.90503100  0.17872400  0.07476700  1
  O  O3  1  0.50766500  0.62962600  0.12559100  1
  O  O4  1  0.97714400  0.58618800  0.17453900  1
  O  O5  1  0.82311000  0.89288100  0.34747100  1
  O  O6  1  0.96418000  0.69109100  0.04885700  1
  O  O7  1  0.82364700  0.00909700  0.22565500  1
  O  O8  1  0.28839100  0.96555700  0.27459200  1
  O  O9  1  0.88874800  0.41249000  0.32528800  1
  O  O10  1  0.37695100  0.36335300  0.37423200  1
  O  O11  1  0.22266000  0.69298800  0.54753000  1
  O  O12  1  0.37529500  0.50073400  0.24948500  1
  O  O13  1  0.22443400  0.81361700  0.42561800  1
  O  O14  1  0.68656700  0.76412200  0.47463600  1
  O  O15  1  0.28868100  0.21416800  0.52569400  1
  O  O16  1  0.77779200  0.16440400  0.57478800  1
  O  O17  1  0.62266500  0.49260900  0.74743300  1
  O  O18  1  0.76992400  0.29263100  0.44742100  1
  O  O19  1  0.62538100  0.61410000  0.62569100  1
  O  O20  1  0.08659600  0.56437200  0.67483400  1
  O  O21  1  0.68857700  0.01408000  0.72542900  1
  O  O22  1  0.17797400  0.96424500  0.77468000  1
  O  O23  1  0.02550200  0.29318000  0.94973200  1
  O  O24  1  0.17022200  0.09265600  0.64754000  1
  O  O25  1  0.02456800  0.41168400  0.82522700  1
  O  O26  1  0.48577400  0.36255200  0.87420800  1
  O  O27  1  0.08757400  0.81247800  0.92447800  1
  O  O28  1  0.57317800  0.75726600  0.97400300  1
  O  O29  1  0.56987000  0.89165200  0.84752500  1
loop_
_geom_bond_atom_site_label_1
_geom_bond_atom_site_label_2
_geom_bond_distance
_geom_bond_site_symmetry_2
Li0 O3 2.009865 1_555
Li0 O6 2.030444 1_455
Li0 O28 2.035135 1_554
Li0 O1 2.493678 1_555
Li0 O2 2.508179 1_455
Li0 O23 2.583381 1_554
Li1 O12 2.053070 1_555
Li1 O4 2.060515 1_555
Li1 O9 2.066994 1_555
Li1 O7 2.337284 1_565
Li1 O5 2.350841 1_555
Li1 O8 2.362706 1_655
Li2 O0 2.013401 1_555
Li2 O7 2.016574 1_455
Li2 O2 2.020153 1_455
Li2 O4 2.466623 1_445
Li2 O3 2.492706 1_445
Li2 O6 2.562116 1_445
Li3 O18 2.074459 1_455
Li3 O10 2.077314 1_555
Li3 O15 2.081933 1_555
Li3 O13 2.352048 1_555
Li3 O14 2.353464 1_555
Li3 O11 2.368436 1_555
Li4 O8 2.069986 1_545
Li4 O5 2.076186 1_545
Li4 O13 2.085163 1_545
Li4 O10 2.344707 1_555
Li4 O9 2.350117 1_555
Li4 O18 2.361873 1_555
Li5 O16 2.070597 1_555
Li5 O24 2.073733 1_555
Li5 O21 2.075512 1_555
Li5 O19 2.352358 1_555
Li5 O20 2.352911 1_655
Li5 O17 2.362188 1_555
Li6 O11 2.072304 1_655
Li6 O14 2.073762 1_555
Li6 O19 2.080596 1_555
Li6 O16 2.350705 1_565
Li6 O15 2.355167 1_665
Li6 O24 2.364562 1_665
Li7 O27 2.064588 1_545
Li7 O29 2.073270 1_445
Li7 O22 2.075890 1_545
Li7 O25 2.343145 1_555
Li7 O26 2.345346 1_555
Li7 O23 2.395690 1_555
Li8 O20 2.067113 1_555
Li8 O17 2.073377 1_555
Li8 O25 2.082540 1_555
Li8 O22 2.348950 1_555
Li8 O21 2.354055 1_565
Li8 O29 2.364430 1_555
Li9 O1 2.035894 1_556
Li9 O23 2.070211 1_655
Li9 O26 2.086300 1_555
Li9 O28 2.350872 1_555
Li9 O27 2.380606 1_655
Li9 O6 2.385520 1_556
Nb0 O1 1.917021 1_555
Nb0 O2 1.929902 1_455
Nb0 O23 1.939729 1_554
Nb0 O6 2.104486 1_445
Nb0 O27 2.141084 1_544
Nb0 O28 2.162987 1_444
Nb1 O8 1.917915 1_555
Nb1 O7 1.918039 1_565
Nb1 O0 1.948472 1_565
Nb1 O12 2.098813 1_555
Nb1 O4 2.127489 1_455
Nb1 O3 2.135661 1_555
Nb2 O4 1.923071 1_555
Nb2 O3 1.926888 1_555
Nb2 O6 1.997126 1_555
Nb2 O0 2.045756 1_555
Nb2 O2 2.123559 1_555
Nb2 O1 2.133985 1_555
Nb3 O5 1.904395 1_555
Nb3 O14 1.908430 1_555
Nb3 O13 1.910376 1_655
Nb3 O18 2.169080 1_555
Nb3 O10 2.170828 1_555
Nb3 O9 2.173674 1_555
Nb4 O12 1.903403 1_555
Nb4 O9 1.910960 1_455
Nb4 O10 1.912968 1_555
Nb4 O8 2.155529 1_545
Nb4 O7 2.158763 1_455
Nb4 O5 2.169154 1_445
Nb5 O11 1.902552 1_555
Nb5 O20 1.908885 1_555
Nb5 O19 1.909906 1_555
Nb5 O15 2.166478 1_555
Nb5 O16 2.170052 1_455
Nb5 O24 2.174692 1_555
Nb6 O18 1.903834 1_555
Nb6 O16 1.909373 1_555
Nb6 O15 1.909382 1_555
Nb6 O14 2.169324 1_545
Nb6 O13 2.170295 1_545
Nb6 O11 2.174094 1_545
Nb7 O26 1.902745 1_555
Nb7 O17 1.905555 1_555
Nb7 O25 1.911053 1_655
Nb7 O22 2.161481 1_545
Nb7 O21 2.161683 1_555
Nb7 O29 2.173091 1_545
Nb8 O24 1.903136 1_665
Nb8 O22 1.908248 1_655
Nb8 O21 1.909151 1_565
Nb8 O19 2.165961 1_555
Nb8 O20 2.166149 1_655
Nb8 O17 2.173549 1_555
Nb9 O28 1.907302 1_555
Nb9 O29 1.908245 1_555
Nb9 O27 1.914507 1_555
Nb9 O25 2.150839 1_555
Nb9 O26 2.156808 1_555
Nb9 O23 2.179439 1_555
