# generated using pymatgen
data_MgWO4
_symmetry_space_group_name_H-M   'P 1'
_cell_length_a   5.07822200
_cell_length_b   5.31308900
_cell_length_c   5.61156810
_cell_angle_alpha   72.76159147
_cell_angle_beta   90.00000000
_cell_angle_gamma   90.00000000
_symmetry_Int_Tables_number   1
_chemical_formula_structural   MgWO4
_chemical_formula_sum   'Mg2 W2 O8'
_cell_volume   144.60480515
_cell_formula_units_Z   2
loop_
 _symmetry_equiv_pos_site_id
 _symmetry_equiv_pos_as_xyz
  1  'x, y, z'
loop_
 _atom_site_type_symbol
 _atom_site_label
 _atom_site_symmetry_multiplicity
 _atom_site_fract_x
 _atom_site_fract_y
 _atom_site_fract_z
 _atom_site_occupancy
  Mg  Mg0  1  0.32776000  0.50000000  0.75000000  1
  Mg  Mg1  1  0.67224000  0.50000000  0.25000000  1
  W  W0  1  0.82170200  0.00000000  0.75000000  1
  W  W1  1  0.17829800  0.00000000  0.25000000  1
  O  O0  1  0.43510200  0.74617100  0.37828400  1
  O  O1  1  0.56489800  0.74617100  0.87828400  1
  O  O2  1  0.56489800  0.25382900  0.62171600  1
  O  O3  1  0.97482200  0.22550800  0.39803100  1
  O  O4  1  0.02517800  0.77449200  0.60196900  1
  O  O5  1  0.97482200  0.77449200  0.10196900  1
  O  O6  1  0.43510200  0.25382900  0.12171600  1
  O  O7  1  0.02517800  0.22550800  0.89803100  1
loop_
_geom_bond_atom_site_label_1
_geom_bond_atom_site_label_2
_geom_bond_distance
_geom_bond_site_symmetry_2
Mg0 O1 2.058431 1_555
Mg0 O2 2.058431 1_555
Mg0 O7 2.111873 1_555
Mg0 O4 2.111873 1_555
Mg0 O6 2.177574 1_556
Mg0 O0 2.177574 1_555
Mg1 O0 2.058431 1_555
Mg1 O6 2.058431 1_555
Mg1 O3 2.111873 1_555
Mg1 O5 2.111873 1_555
Mg1 O2 2.177574 1_555
Mg1 O1 2.177574 1_554
O0 W1 1.860718 1_565
O1 W0 1.860718 1_565
O2 W0 1.860718 1_555
O3 W1 1.945042 1_655
O3 W0 2.130399 1_555
O4 W0 1.945042 1_465
O4 W1 2.130399 1_565
O5 W1 1.945042 1_665
O5 W0 2.130399 1_564
O6 W1 1.860718 1_555
O7 W0 1.945042 1_455
O7 W1 2.130399 1_556
