# generated using pymatgen
data_Sb(PO3)4
_symmetry_space_group_name_H-M   'P 1'
_cell_length_a   8.35696800
_cell_length_b   9.67042100
_cell_length_c   13.14319400
_cell_angle_alpha   90.00000000
_cell_angle_beta   90.00000000
_cell_angle_gamma   90.00000000
_symmetry_Int_Tables_number   1
_chemical_formula_structural   Sb(PO3)4
_chemical_formula_sum   'Sb4 P16 O48'
_cell_volume   1062.17246519
_cell_formula_units_Z   4
loop_
 _symmetry_equiv_pos_site_id
 _symmetry_equiv_pos_as_xyz
  1  'x, y, z'
loop_
 _atom_site_type_symbol
 _atom_site_label
 _atom_site_symmetry_multiplicity
 _atom_site_fract_x
 _atom_site_fract_y
 _atom_site_fract_z
 _atom_site_occupancy
  Sb  Sb0  1  0.64001000  0.25000000  0.00000000  1
  Sb  Sb1  1  0.85999000  0.75000000  0.50000000  1
  Sb  Sb2  1  0.35999000  0.75000000  0.00000000  1
  Sb  Sb3  1  0.14001000  0.25000000  0.50000000  1
  P  P0  1  0.82632400  0.00252600  0.13756700  1
  P  P1  1  0.53466200  0.51158600  0.15634100  1
  P  P2  1  0.96533800  0.01158600  0.34365900  1
  P  P3  1  0.96533800  0.48841400  0.65634100  1
  P  P4  1  0.67367600  0.99747400  0.63756700  1
  P  P5  1  0.17367600  0.50252600  0.13756700  1
  P  P6  1  0.32632400  0.49747400  0.63756700  1
  P  P7  1  0.46533800  0.01158600  0.15634100  1
  P  P8  1  0.67367600  0.50252600  0.36243300  1
  P  P9  1  0.82632400  0.49747400  0.86243300  1
  P  P10  1  0.53466200  0.98841400  0.84365900  1
  P  P11  1  0.17367600  0.99747400  0.86243300  1
  P  P12  1  0.32632400  0.00252600  0.36243300  1
  P  P13  1  0.46533800  0.48841400  0.84365900  1
  P  P14  1  0.03466200  0.51158600  0.34365900  1
  P  P15  1  0.03466200  0.98841400  0.65634100  1
  O  O0  1  0.31553200  0.12591000  0.43600000  1
  O  O1  1  0.40897000  0.87575600  0.39304200  1
  O  O2  1  0.14540500  0.52876200  0.67890400  1
  O  O3  1  0.54654600  0.62294600  0.07482900  1
  O  O4  1  0.64540500  0.52876200  0.82109600  1
  O  O5  1  0.31553200  0.37409000  0.56400000  1
  O  O6  1  0.95345400  0.12294600  0.42517100  1
  O  O7  1  0.59103000  0.37575600  0.39304200  1
  O  O8  1  0.62911300  0.38019800  0.13311900  1
  O  O9  1  0.45345400  0.37705400  0.92517100  1
  O  O10  1  0.54654600  0.87705400  0.92517100  1
  O  O11  1  0.09868500  0.92571700  0.75988200  1
  O  O12  1  0.40131500  0.42571700  0.74011800  1
  O  O13  1  0.14540500  0.97123800  0.32109600  1
  O  O14  1  0.18446800  0.87409000  0.93600000  1
  O  O15  1  0.90131500  0.42571700  0.75988200  1
  O  O16  1  0.90897000  0.87575600  0.10695800  1
  O  O17  1  0.09103000  0.37575600  0.10695800  1
  O  O18  1  0.40131500  0.07428300  0.25988200  1
  O  O19  1  0.81553200  0.37409000  0.93600000  1
  O  O20  1  0.59103000  0.12424400  0.60695800  1
  O  O21  1  0.62911300  0.11980200  0.86688100  1
  O  O22  1  0.87088700  0.88019800  0.36688100  1
  O  O23  1  0.64540500  0.97123800  0.17890400  1
  O  O24  1  0.59868500  0.57428300  0.25988200  1
  O  O25  1  0.35459500  0.02876200  0.82109600  1
  O  O26  1  0.04654600  0.62294600  0.42517100  1
  O  O27  1  0.37088700  0.88019800  0.13311900  1
  O  O28  1  0.40897000  0.62424400  0.60695800  1
  O  O29  1  0.95345400  0.37705400  0.57482900  1
  O  O30  1  0.85459500  0.02876200  0.67890400  1
  O  O31  1  0.59868500  0.92571700  0.74011800  1
  O  O32  1  0.68446800  0.87409000  0.56400000  1
  O  O33  1  0.09103000  0.12424400  0.89304200  1
  O  O34  1  0.04654600  0.87705400  0.57482900  1
  O  O35  1  0.81553200  0.12591000  0.06400000  1
  O  O36  1  0.12911300  0.11980200  0.63311900  1
  O  O37  1  0.45345400  0.12294600  0.07482900  1
  O  O38  1  0.09868500  0.57428300  0.24011800  1
  O  O39  1  0.85459500  0.47123800  0.32109600  1
  O  O40  1  0.18446800  0.62591000  0.06400000  1
  O  O41  1  0.87088700  0.61980200  0.63311900  1
  O  O42  1  0.35459500  0.47123800  0.17890400  1
  O  O43  1  0.90131500  0.07428300  0.24011800  1
  O  O44  1  0.90897000  0.62424400  0.89304200  1
  O  O45  1  0.12911300  0.38019800  0.36688100  1
  O  O46  1  0.68446800  0.62591000  0.43600000  1
  O  O47  1  0.37088700  0.61980200  0.86688100  1
loop_
_geom_bond_atom_site_label_1
_geom_bond_atom_site_label_2
_geom_bond_distance
_geom_bond_site_symmetry_2
O0 P12 1.538411 1_555
O0 Sb3 2.073441 1_555
O1 P12 1.463471 1_565
O2 P3 1.582608 1_455
O2 P6 1.634830 1_555
O3 P1 1.522273 1_555
O3 Sb2 2.215285 1_555
O4 P13 1.582608 1_555
O4 P9 1.634830 1_555
O5 P6 1.538411 1_555
O5 Sb3 2.073441 1_555
O6 P2 1.522273 1_555
O6 Sb3 2.215285 1_655
O7 P8 1.463471 1_555
O8 P1 1.526615 1_555
O8 Sb0 2.157471 1_555
O9 P13 1.522273 1_555
O9 Sb0 2.215285 1_556
O10 P10 1.522273 1_555
O10 Sb2 2.215285 1_556
O11 P15 1.582976 1_555
O11 P11 1.640417 1_555
O12 P13 1.582976 1_555
O12 P6 1.640417 1_555
O13 P2 1.582608 1_465
O13 P12 1.634830 1_565
O14 P11 1.538411 1_555
O14 Sb2 2.073441 1_556
O15 P3 1.582976 1_555
O15 P9 1.640417 1_555
O16 P0 1.463471 1_565
O17 P5 1.463471 1_555
O18 P7 1.582976 1_555
O18 P12 1.640417 1_555
O19 P9 1.538411 1_555
O19 Sb0 2.073441 1_556
O20 P4 1.463471 1_545
O21 P10 1.526615 1_545
O21 Sb0 2.157471 1_556
O22 P2 1.526615 1_565
O22 Sb1 2.157471 1_555
O23 P7 1.582608 1_565
O23 P0 1.634830 1_565
O24 P1 1.582976 1_555
O24 P8 1.640417 1_555
O25 P10 1.582608 1_545
O25 P11 1.634830 1_545
O26 P14 1.522273 1_555
O26 Sb1 2.215285 1_455
O27 P7 1.526615 1_565
O27 Sb2 2.157471 1_555
O28 P6 1.463471 1_555
O29 P3 1.522273 1_555
O29 Sb3 2.215285 1_655
O30 P15 1.582608 1_645
O30 P4 1.634830 1_545
O31 P10 1.582976 1_555
O31 P4 1.640417 1_555
O32 P4 1.538411 1_555
O32 Sb1 2.073441 1_555
O33 P11 1.463471 1_545
O34 P15 1.522273 1_555
O34 Sb1 2.215285 1_455
O35 P0 1.538411 1_555
O35 Sb0 2.073441 1_555
O36 P15 1.526615 1_545
O36 Sb3 2.157471 1_555
O37 P7 1.522273 1_555
O37 Sb0 2.215285 1_555
O38 P14 1.582976 1_555
O38 P5 1.640417 1_555
O39 P14 1.582608 1_655
O39 P8 1.634830 1_555
O40 P5 1.538411 1_555
O40 Sb2 2.073441 1_555
O41 P3 1.526615 1_555
O41 Sb1 2.157471 1_555
O42 P1 1.582608 1_555
O42 P5 1.634830 1_555
O43 P2 1.582976 1_555
O43 P0 1.640417 1_555
O44 P9 1.463471 1_555
O45 P14 1.526615 1_555
O45 Sb3 2.157471 1_555
O46 P8 1.538411 1_555
O46 Sb1 2.073441 1_555
O47 P13 1.526615 1_555
O47 Sb2 2.157471 1_556
