# generated using pymatgen
data_Sr24Ni19O54
_symmetry_space_group_name_H-M   'P 1'
_cell_length_a   9.56248200
_cell_length_b   9.60323416
_cell_length_c   15.62455829
_cell_angle_alpha   89.98705537
_cell_angle_beta   90.28066120
_cell_angle_gamma   119.85267095
_symmetry_Int_Tables_number   1
_chemical_formula_structural   Sr24Ni19O54
_chemical_formula_sum   'Sr24 Ni19 O54'
_cell_volume   1244.40784615
_cell_formula_units_Z   1
loop_
 _symmetry_equiv_pos_site_id
 _symmetry_equiv_pos_as_xyz
  1  'x, y, z'
loop_
 _atom_site_type_symbol
 _atom_site_label
 _atom_site_symmetry_multiplicity
 _atom_site_fract_x
 _atom_site_fract_y
 _atom_site_fract_z
 _atom_site_occupancy
  Sr  Sr0  1  0.66813300  0.69253600  0.87117900  1
  Sr  Sr1  1  0.66843900  0.69094200  0.37793700  1
  Sr  Sr2  1  0.66446300  0.00056500  0.74818400  1
  Sr  Sr3  1  0.67130000  0.01018900  0.26177200  1
  Sr  Sr4  1  0.02880700  0.33373400  0.87501800  1
  Sr  Sr5  1  0.02697200  0.33605200  0.37535200  1
  Sr  Sr6  1  0.97245300  0.30707100  0.62575800  1
  Sr  Sr7  1  0.95119800  0.29061500  0.12595000  1
  Sr  Sr8  1  0.31049200  0.97269900  0.87155800  1
  Sr  Sr9  1  0.30595100  0.97184600  0.37594800  1
  Sr  Sr10  1  0.00570500  0.64191400  0.00171200  1
  Sr  Sr11  1  0.00427900  0.64446300  0.50185400  1
  Sr  Sr12  1  0.00461700  0.66935300  0.75011900  1
  Sr  Sr13  1  0.99608000  0.66877900  0.25352900  1
  Sr  Sr14  1  0.64573900  0.01234900  0.99081100  1
  Sr  Sr15  1  0.63571900  0.99813700  0.50245400  1
  Sr  Sr16  1  0.69621700  0.66781300  0.62623300  1
  Sr  Sr17  1  0.70017700  0.66885000  0.12276100  1
  Sr  Sr18  1  0.32992700  0.01538500  0.62508300  1
  Sr  Sr19  1  0.32638100  0.03823700  0.12352000  1
  Sr  Sr20  1  0.36196200  0.35111300  0.98904400  1
  Sr  Sr21  1  0.36038100  0.35453200  0.49966200  1
  Sr  Sr22  1  0.33269600  0.32669200  0.74880200  1
  Sr  Sr23  1  0.32818200  0.31722500  0.26078200  1
  Ni  Ni0  1  0.00000100  0.99978800  0.82833200  1
  Ni  Ni1  1  0.99527200  0.99729000  0.32969300  1
  Ni  Ni2  1  0.33771200  0.61089500  0.62083100  1
  Ni  Ni3  1  0.42190000  0.78560500  0.12065400  1
  Ni  Ni4  1  0.33677200  0.67240100  0.78932900  1
  Ni  Ni5  1  0.32576400  0.66315800  0.28738300  1
  Ni  Ni6  1  0.33171900  0.66407300  0.95245200  1
  Ni  Ni7  1  0.99472700  0.99610700  0.99671300  1
  Ni  Ni8  1  0.33194200  0.67051600  0.45215200  1
  Ni  Ni9  1  0.99989700  0.00126000  0.66968100  1
  Ni  Ni10  1  0.99813200  0.00055200  0.50160400  1
  Ni  Ni11  1  0.99695000  0.00223000  0.16963300  1
  Ni  Ni12  1  0.29272600  0.52443300  0.12237000  1
  Ni  Ni13  1  0.66513100  0.33517200  0.04942700  1
  Ni  Ni14  1  0.67016600  0.33734000  0.87876800  1
  Ni  Ni15  1  0.66875000  0.33544200  0.54985700  1
  Ni  Ni16  1  0.66828600  0.33477000  0.38009500  1
  Ni  Ni17  1  0.66939100  0.33657300  0.71021000  1
  Ni  Ni18  1  0.66376100  0.33373000  0.21069000  1
  O  O0  1  0.85028200  0.85269700  0.74880200  1
  O  O1  1  0.84677400  0.84853500  0.24889300  1
  O  O2  1  0.83714400  0.99019800  0.59829700  1
  O  O3  1  0.83458700  0.98801900  0.09537100  1
  O  O4  1  0.48843500  0.68381600  0.03145300  1
  O  O5  1  0.49285500  0.68262500  0.52723800  1
  O  O6  1  0.49189500  0.68791700  0.71338300  1
  O  O7  1  0.48673400  0.68183400  0.20046400  1
  O  O8  1  0.35365100  0.51422800  0.86393700  1
  O  O9  1  0.35243600  0.51874100  0.37589600  1
  O  O10  1  0.15193200  0.16181600  0.59852600  1
  O  O11  1  0.15341500  0.17482800  0.10334600  1
  O  O12  1  0.48936000  0.82985400  0.86763100  1
  O  O13  1  0.48302200  0.82726000  0.37460100  1
  O  O14  1  0.18646000  0.50775900  0.52628200  1
  O  O15  1  0.16548600  0.47503100  0.02035000  1
  O  O16  1  0.18862900  0.51551400  0.71464400  1
  O  O17  1  0.16749100  0.48072800  0.22482000  1
  O  O18  1  0.00087700  0.15078100  0.74934300  1
  O  O19  1  0.99017600  0.14388200  0.25129600  1
  O  O20  1  0.31731400  0.83011800  0.73299900  1
  O  O21  1  0.33172500  0.83282900  0.21565400  1
  O  O22  1  0.31693500  0.83104100  0.51231500  1
  O  O23  1  0.33057600  0.83794700  0.02860200  1
  O  O24  1  0.84869900  0.01170400  0.89829600  1
  O  O25  1  0.84335300  0.00781500  0.40065700  1
  O  O26  1  0.17673900  0.65043500  0.87287100  1
  O  O27  1  0.16344200  0.64754900  0.37530000  1
  O  O28  1  0.81298500  0.31699900  0.97882600  1
  O  O29  1  0.81868200  0.32182700  0.47932900  1
  O  O30  1  0.82218200  0.33193800  0.78107200  1
  O  O31  1  0.81065600  0.31867000  0.28162000  1
  O  O32  1  0.14942900  0.00202700  0.74932900  1
  O  O33  1  0.14522100  0.00077800  0.25040600  1
  O  O34  1  0.82802300  0.48037900  0.62981600  1
  O  O35  1  0.82573400  0.47753800  0.13010500  1
  O  O36  1  0.00921000  0.84817400  0.59970600  1
  O  O37  1  0.01351200  0.85476700  0.09716300  1
  O  O38  1  0.98882100  0.83538000  0.89915000  1
  O  O39  1  0.98733500  0.83459700  0.39875100  1
  O  O40  1  0.65492200  0.17589800  0.62952400  1
  O  O41  1  0.64409800  0.17207900  0.12911800  1
  O  O42  1  0.68704100  0.50314300  0.97886700  1
  O  O43  1  0.68204700  0.49963400  0.48027400  1
  O  O44  1  0.67686400  0.49645200  0.77818200  1
  O  O45  1  0.67945400  0.49512500  0.28130000  1
  O  O46  1  0.51294700  0.18899800  0.78173200  1
  O  O47  1  0.50561800  0.18852400  0.28264000  1
  O  O48  1  0.50245200  0.19037000  0.97623900  1
  O  O49  1  0.50668200  0.18827500  0.47752500  1
  O  O50  1  0.52191800  0.34697200  0.62896600  1
  O  O51  1  0.52002200  0.35156300  0.12862600  1
  O  O52  1  0.16115100  0.14754500  0.90042400  1
  O  O53  1  0.16063100  0.15108800  0.39964900  1
loop_
_geom_bond_atom_site_label_1
_geom_bond_atom_site_label_2
_geom_bond_distance
_geom_bond_site_symmetry_2
Ni0 O52 1.861111 1_565
Ni0 O24 1.865947 1_465
Ni0 O32 1.884839 1_565
Ni0 O0 1.886578 1_455
Ni0 O38 1.887025 1_455
Ni0 O18 1.900790 1_565
Ni1 O39 1.868962 1_555
Ni1 O25 1.874039 1_565
Ni1 O53 1.880220 1_665
Ni1 O19 1.884545 1_565
Ni1 O33 1.887167 1_665
Ni1 O1 1.901238 1_555
Ni2 O6 1.925085 1_555
Ni2 O16 1.933843 1_555
Ni2 O14 1.951629 1_555
Ni2 O5 1.953795 1_555
Ni3 O23 1.873041 1_555
Ni3 O7 1.881327 1_555
Ni3 O21 1.885370 1_555
Ni3 O4 1.982737 1_555
Ni4 O20 1.838912 1_555
Ni4 O6 1.851421 1_555
Ni4 O16 1.870353 1_555
Ni4 O12 1.923291 1_555
Ni4 O26 1.946344 1_555
Ni4 O8 1.983345 1_555
Ni5 O17 1.913633 1_555
Ni5 O21 1.954877 1_555
Ni5 O7 1.997853 1_555
Ni5 O27 2.026799 1_555
Ni5 O13 2.055126 1_555
Ni5 O9 2.061288 1_555
Ni6 O4 1.872027 1_556
Ni6 O26 1.883703 1_555
Ni6 O15 2.022559 1_556
Ni6 O12 2.047623 1_555
Ni6 O23 2.055003 1_556
Ni6 O8 2.081248 1_555
Ni7 O24 2.126972 1_565
Ni7 O37 2.139365 1_656
Ni7 O38 2.150057 1_555
Ni7 O52 2.151611 1_665
Ni7 O3 2.152178 1_556
Ni7 O11 2.325498 1_666
Ni8 O22 1.871589 1_555
Ni8 O5 1.887276 1_555
Ni8 O14 1.889474 1_555
Ni8 O13 1.916386 1_555
Ni8 O27 1.927200 1_555
Ni8 O9 1.967188 1_555
Ni9 O2 1.869725 1_545
Ni9 O36 1.869912 1_645
Ni9 O10 1.873612 1_655
Ni9 O32 1.888237 1_655
Ni9 O0 1.896063 1_545
Ni9 O18 1.896942 1_655
Ni10 O2 2.128986 1_545
Ni10 O10 2.136911 1_655
Ni10 O36 2.157250 1_645
Ni10 O25 2.182442 1_555
Ni10 O53 2.197489 1_655
Ni10 O39 2.229087 1_545
Ni11 O37 1.881056 1_645
Ni11 O3 1.883341 1_545
Ni11 O19 1.889979 1_555
Ni11 O11 1.898448 1_655
Ni11 O33 1.898778 1_655
Ni11 O1 1.918554 1_545
Ni12 O15 1.911301 1_555
Ni12 O17 1.921132 1_555
Ni12 O7 2.098174 1_555
Ni12 O4 2.244192 1_555
Ni13 O48 1.868428 1_554
Ni13 O28 1.872777 1_554
Ni13 O42 1.877849 1_554
Ni13 O35 1.925683 1_555
Ni13 O51 1.927655 1_555
Ni13 O41 1.931794 1_555
Ni14 O46 2.105895 1_555
Ni14 O30 2.131363 1_555
Ni14 O28 2.142881 1_555
Ni14 O48 2.157066 1_555
Ni14 O44 2.170550 1_555
Ni14 O42 2.179507 1_555
Ni15 O49 1.865333 1_555
Ni15 O43 1.866917 1_555
Ni15 O29 1.867928 1_555
Ni15 O50 1.919202 1_555
Ni15 O34 1.920803 1_555
Ni15 O40 1.927025 1_555
Ni16 O31 2.115396 1_555
Ni16 O47 2.124505 1_555
Ni16 O49 2.131284 1_555
Ni16 O45 2.145317 1_555
Ni16 O29 2.154945 1_555
Ni16 O43 2.183034 1_555
Ni17 O44 1.838777 1_555
Ni17 O46 1.843975 1_555
Ni17 O30 1.847002 1_555
Ni17 O34 1.928314 1_555
Ni17 O50 1.932006 1_555
Ni17 O40 1.943179 1_555
Ni18 O31 1.846398 1_555
Ni18 O45 1.846487 1_555
Ni18 O47 1.847094 1_555
Ni18 O41 1.943603 1_555
Ni18 O51 1.944127 1_555
Ni18 O35 1.944321 1_555
O0 Sr16 2.521940 1_555
O0 Sr0 2.533736 1_555
O0 Sr2 2.772300 1_565
O0 Sr12 2.804482 1_655
O1 Sr17 2.528413 1_555
O1 Sr1 2.593602 1_555
O1 Sr13 2.734252 1_555
O1 Sr3 2.804056 1_565
O2 Sr15 2.464988 1_555
O2 Sr6 2.682073 1_565
O2 Sr16 2.728193 1_555
O2 Sr2 2.902206 1_565
O3 Sr14 2.525009 1_564
O3 Sr7 2.585627 1_565
O3 Sr17 2.704172 1_555
O3 Sr3 3.100655 1_565
O4 Sr17 2.533185 1_555
O4 Sr14 2.811341 1_564
O4 Sr20 2.873355 1_554
O4 Sr0 3.021531 1_554
O5 Sr16 2.537742 1_555
O5 Sr15 2.660938 1_555
O5 Sr21 2.781972 1_555
O5 Sr1 2.858679 1_555
O6 Sr16 2.471962 1_555
O6 Sr2 2.663237 1_565
O6 Sr0 2.967438 1_555
O6 Sr22 3.067128 1_555
O7 Sr17 2.435794 1_555
O7 Sr3 2.901720 1_565
O8 Sr22 2.481614 1_555
O8 Sr20 2.530231 1_555
O8 Sr0 2.618900 1_555
O8 Sr4 2.707113 1_555
O9 Sr21 2.519623 1_555
O9 Sr23 2.566018 1_555
O9 Sr1 2.625089 1_555
O9 Sr5 2.707031 1_555
O10 Sr21 2.478052 1_555
O10 Sr18 2.724387 1_555
O10 Sr6 2.731886 1_455
O10 Sr22 2.871442 1_555
O11 Sr20 2.589384 1_554
O11 Sr19 2.590407 1_555
O11 Sr7 2.692160 1_455
O11 Sr23 2.898269 1_555
O12 Sr2 2.504157 1_565
O12 Sr14 2.525086 1_565
O12 Sr0 2.628268 1_555
O12 Sr8 2.673573 1_555
O13 Sr3 2.513229 1_565
O13 Sr15 2.530406 1_555
O13 Sr9 2.671394 1_555
O13 Sr1 2.677674 1_555
O14 Sr6 2.534038 1_455
O14 Sr11 2.678459 1_555
O14 Sr21 2.747284 1_555
O14 Sr5 2.840607 1_555
O15 Sr7 2.544929 1_455
O15 Sr4 2.629159 1_554
O15 Sr20 2.724036 1_554
O15 Sr10 2.724120 1_555
O16 Sr6 2.462227 1_455
O16 Sr22 2.819590 1_555
O16 Sr12 2.860757 1_555
O16 Sr4 3.006907 1_555
O17 Sr7 2.491617 1_455
O17 Sr5 2.727392 1_555
O17 Sr23 2.745063 1_555
O17 Sr13 3.017221 1_455
O18 Sr6 2.540637 1_455
O18 Sr4 2.557974 1_555
O18 Sr22 2.754233 1_555
O18 Sr2 2.794561 1_455
O19 Sr7 2.544528 1_555
O19 Sr5 2.575864 1_655
O19 Sr3 2.660905 1_555
O19 Sr23 2.806946 1_655
O20 Sr18 2.410402 1_565
O20 Sr8 2.580235 1_555
O20 Sr12 2.609204 1_555
O20 Sr2 2.887618 1_565
O21 Sr19 2.462590 1_565
O21 Sr13 2.849199 1_455
O21 Sr3 2.904476 1_565
O21 Sr9 2.907019 1_555
O22 Sr18 2.456455 1_565
O22 Sr9 2.552862 1_555
O22 Sr11 2.614976 1_555
O22 Sr15 2.650643 1_555
O23 Sr19 2.445266 1_565
O23 Sr14 2.688553 1_564
O23 Sr10 2.745300 1_555
O23 Sr8 2.823772 1_554
O24 Sr14 2.428105 1_555
O24 Sr0 2.698164 1_545
O24 Sr4 2.713934 1_655
O24 Sr2 2.896255 1_555
O25 Sr15 2.515510 1_545
O25 Sr1 2.666668 1_545
O25 Sr3 2.723728 1_555
O25 Sr5 2.769752 1_655
O26 Sr10 2.575469 1_556
O26 Sr12 2.585954 1_555
O26 Sr4 2.639952 1_555
O26 Sr8 2.696952 1_555
O27 Sr11 2.492350 1_555
O27 Sr13 2.552961 1_455
O27 Sr5 2.600968 1_555
O27 Sr9 2.707553 1_555
O28 Sr14 2.548861 1_555
O28 Sr4 2.572604 1_655
O28 Sr7 2.720032 1_556
O28 Sr10 2.743975 1_656
O29 Sr5 2.527022 1_655
O29 Sr11 2.719092 1_655
O29 Sr15 2.728659 1_545
O29 Sr6 2.755181 1_555
O30 Sr4 2.448790 1_655
O30 Sr2 2.807226 1_555
O30 Sr12 2.855986 1_655
O30 Sr6 2.896010 1_555
O31 Sr5 2.465388 1_655
O31 Sr3 2.591168 1_555
O31 Sr7 2.861378 1_555
O31 Sr13 2.951749 1_555
O32 Sr8 2.549793 1_545
O32 Sr18 2.564460 1_555
O32 Sr22 2.711584 1_555
O32 Sr12 2.778494 1_545
O33 Sr19 2.544364 1_555
O33 Sr9 2.585049 1_545
O33 Sr23 2.650778 1_555
O33 Sr13 2.770423 1_445
O34 Sr12 2.568608 1_655
O34 Sr11 2.590112 1_655
O34 Sr6 2.640208 1_555
O34 Sr16 2.662602 1_555
O35 Sr13 2.595716 1_555
O35 Sr10 2.608789 1_655
O35 Sr7 2.609734 1_555
O35 Sr17 2.650396 1_555
O36 Sr11 2.464874 1_555
O36 Sr16 2.642101 1_455
O36 Sr18 2.688299 1_565
O36 Sr12 2.897957 1_555
O37 Sr10 2.501281 1_555
O37 Sr19 2.639180 1_565
O37 Sr17 2.647817 1_455
O37 Sr13 2.982027 1_455
O38 Sr10 2.518048 1_656
O38 Sr0 2.697384 1_555
O38 Sr8 2.713110 1_655
O38 Sr12 2.869131 1_655
O39 Sr11 2.499186 1_655
O39 Sr1 2.666528 1_555
O39 Sr9 2.675722 1_655
O39 Sr13 2.797722 1_555
O40 Sr2 2.535864 1_555
O40 Sr15 2.564292 1_545
O40 Sr6 2.646465 1_555
O40 Sr18 2.695901 1_555
O41 Sr7 2.568175 1_555
O41 Sr19 2.645747 1_555
O41 Sr14 2.654962 1_554
O41 Sr3 2.678886 1_555
O42 Sr0 2.548482 1_555
O42 Sr10 2.671271 1_656
O42 Sr20 2.703056 1_555
O42 Sr17 2.720791 1_556
O43 Sr1 2.486662 1_555
O43 Sr21 2.690108 1_555
O43 Sr11 2.695600 1_655
O43 Sr16 2.758341 1_555
O44 Sr0 2.413103 1_555
O44 Sr12 2.757605 1_655
O44 Sr16 2.842215 1_555
O44 Sr22 2.888584 1_555
O45 Sr1 2.455025 1_555
O45 Sr13 2.668771 1_555
O45 Sr23 2.929370 1_555
O45 Sr17 2.938097 1_555
O46 Sr8 2.460548 1_545
O46 Sr22 2.691509 1_555
O46 Sr2 2.875155 1_555
O46 Sr18 2.981317 1_555
O47 Sr9 2.484229 1_545
O47 Sr23 2.570007 1_555
O47 Sr3 2.873312 1_555
O47 Sr19 2.949393 1_555
O48 Sr20 2.508990 1_555
O48 Sr8 2.562491 1_545
O48 Sr14 2.679672 1_555
O48 Sr19 2.802200 1_556
O49 Sr9 2.554027 1_545
O49 Sr21 2.618142 1_555
O49 Sr15 2.691894 1_545
O49 Sr18 2.858598 1_555
O50 Sr22 2.549510 1_555
O50 Sr21 2.560086 1_555
O50 Sr16 2.676043 1_555
O50 Sr18 2.773628 1_555
O51 Sr19 2.634525 1_555
O51 Sr20 2.646139 1_554
O51 Sr17 2.652542 1_555
O51 Sr23 2.678116 1_555
O52 Sr20 2.379975 1_555
O52 Sr4 2.683959 1_555
O52 Sr8 2.730560 1_545
O52 Sr22 2.913695 1_555
O53 Sr21 2.482819 1_555
O53 Sr5 2.681014 1_555
O53 Sr23 2.703317 1_555
O53 Sr9 2.723543 1_545
