# generated using pymatgen
data_UFeGe
_symmetry_space_group_name_H-M   'P 1'
_cell_length_a   4.40635433
_cell_length_b   7.00818110
_cell_length_c   6.93964082
_cell_angle_alpha   94.07646618
_cell_angle_beta   90.00000000
_cell_angle_gamma   90.00000000
_symmetry_Int_Tables_number   1
_chemical_formula_structural   UFeGe
_chemical_formula_sum   'U4 Fe4 Ge4'
_cell_volume   213.75761624
_cell_formula_units_Z   4
loop_
 _symmetry_equiv_pos_site_id
 _symmetry_equiv_pos_as_xyz
  1  'x, y, z'
loop_
 _atom_site_type_symbol
 _atom_site_label
 _atom_site_symmetry_multiplicity
 _atom_site_fract_x
 _atom_site_fract_y
 _atom_site_fract_z
 _atom_site_occupancy
  U  U0  1  0.25000000  0.51875195  0.80663915  1
  U  U1  1  0.75000000  0.96524177  0.28014375  1
  U  U2  1  0.25000000  0.03475823  0.71985625  1
  U  U3  1  0.75000000  0.48124805  0.19336085  1
  Fe  Fe0  1  0.75000000  0.25351866  0.96167482  1
  Fe  Fe1  1  0.75000000  0.64918527  0.54494660  1
  Fe  Fe2  1  0.25000000  0.74648134  0.03832518  1
  Fe  Fe3  1  0.25000000  0.35081473  0.45505340  1
  Ge  Ge0  1  0.75000000  0.29260104  0.59843932  1
  Ge  Ge1  1  0.25000000  0.70739896  0.40156068  1
  Ge  Ge2  1  0.75000000  0.80687387  0.87959057  1
  Ge  Ge3  1  0.25000000  0.19312613  0.12040943  1
loop_
_geom_bond_atom_site_label_1
_geom_bond_atom_site_label_2
_geom_bond_distance
_geom_bond_site_symmetry_2
Fe0 U3 2.183430 1_556
Fe0 Ge3 2.512538 1_656
Fe0 Ge3 2.512538 1_556
Fe0 Ge0 2.554844 1_555
Fe0 U1 3.098512 1_546
Fe0 U2 3.107213 1_555
Fe0 U2 3.107213 1_655
Fe0 U0 3.122661 1_655
Fe0 U0 3.122661 1_555
Fe0 Ge2 3.141485 1_545
Fe1 Ge1 2.463385 1_655
Fe1 Ge1 2.463385 1_555
Fe1 Ge2 2.499901 1_555
Fe1 Ge0 2.552398 1_555
Fe1 U3 2.632473 1_555
Fe1 U1 2.976869 1_555
Fe1 U0 3.037044 1_655
Fe1 U0 3.037044 1_555
Fe2 U0 2.183430 1_554
Fe2 Ge2 2.512538 1_454
Fe2 Ge2 2.512538 1_554
Fe2 Ge1 2.554844 1_555
Fe2 U2 3.098512 1_564
Fe2 U1 3.107213 1_555
Fe2 U1 3.107213 1_455
Fe2 U3 3.122661 1_455
Fe2 U3 3.122661 1_555
Fe2 Ge3 3.141485 1_565
Fe3 Ge0 2.463385 1_455
Fe3 Ge0 2.463385 1_555
Fe3 Ge3 2.499901 1_555
Fe3 Ge1 2.552398 1_555
Fe3 U0 2.632473 1_555
Fe3 U2 2.976869 1_555
Fe3 U3 3.037044 1_455
Fe3 U3 3.037044 1_555
Ge0 U2 3.007607 1_655
Ge0 U2 3.007607 1_555
Ge0 U0 3.021239 1_555
Ge0 U0 3.021239 1_655
Ge0 U1 3.069510 1_545
Ge0 U3 3.190383 1_555
Ge1 U1 3.007607 1_555
Ge1 U1 3.007607 1_455
Ge1 U3 3.021239 1_555
Ge1 U3 3.021239 1_455
Ge1 U2 3.069510 1_565
Ge1 U0 3.190383 1_555
Ge2 U1 2.918886 1_556
Ge2 U2 2.980779 1_665
Ge2 U2 2.980779 1_565
Ge2 U0 3.007018 1_655
Ge2 U0 3.007018 1_555
Ge2 U3 3.264277 1_556
Ge3 U2 2.918886 1_554
Ge3 U1 2.980779 1_545
Ge3 U1 2.980779 1_445
Ge3 U3 3.007018 1_455
Ge3 U3 3.007018 1_555
Ge3 U0 3.264277 1_554
