# generated using pymatgen
data_CaH4(N3O)2
_symmetry_space_group_name_H-M   'P 1'
_cell_length_a   6.18134500
_cell_length_b   7.93971400
_cell_length_c   12.16505059
_cell_angle_alpha   67.54799534
_cell_angle_beta   90.00000000
_cell_angle_gamma   90.00000000
_symmetry_Int_Tables_number   1
_chemical_formula_structural   CaH4(N3O)2
_chemical_formula_sum   'Ca4 H16 N24 O8'
_cell_volume   551.78211495
_cell_formula_units_Z   4
loop_
 _symmetry_equiv_pos_site_id
 _symmetry_equiv_pos_as_xyz
  1  'x, y, z'
loop_
 _atom_site_type_symbol
 _atom_site_label
 _atom_site_symmetry_multiplicity
 _atom_site_fract_x
 _atom_site_fract_y
 _atom_site_fract_z
 _atom_site_occupancy
  Ca  Ca0  1  0.25051500  0.32230700  0.48761600  1
  Ca  Ca1  1  0.24948500  0.32230700  0.98761600  1
  Ca  Ca2  1  0.74948500  0.67769300  0.51238400  1
  Ca  Ca3  1  0.75051500  0.67769300  0.01238400  1
  H  H0  1  0.30128100  0.57664400  0.62086300  1
  H  H1  1  0.19871900  0.57664400  0.12086300  1
  H  H2  1  0.69871900  0.42335600  0.37913700  1
  H  H3  1  0.80128100  0.42335600  0.87913700  1
  H  H4  1  0.45194300  0.41164500  0.69640100  1
  H  H5  1  0.04805700  0.41164500  0.19640100  1
  H  H6  1  0.54805700  0.58835500  0.30359900  1
  H  H7  1  0.95194300  0.58835500  0.80359900  1
  H  H8  1  0.97155700  0.31416800  0.68965700  1
  H  H9  1  0.52844300  0.31416800  0.18965700  1
  H  H10  1  0.02844300  0.68583200  0.31034300  1
  H  H11  1  0.47155700  0.68583200  0.81034300  1
  H  H12  1  0.79946800  0.27744400  0.60640000  1
  H  H13  1  0.70053200  0.27744400  0.10640000  1
  H  H14  1  0.20053200  0.72255600  0.39360000  1
  H  H15  1  0.29946800  0.72255600  0.89360000  1
  N  N0  1  0.93045000  0.29992100  0.35423600  1
  N  N1  1  0.56955000  0.29992100  0.85423600  1
  N  N2  1  0.06955000  0.70007900  0.64576400  1
  N  N3  1  0.43045000  0.70007900  0.14576400  1
  N  N4  1  0.58171700  0.14014200  0.59883100  1
  N  N5  1  0.91828300  0.14014200  0.09883100  1
  N  N6  1  0.41828300  0.85985800  0.40116900  1
  N  N7  1  0.08171700  0.85985800  0.90116900  1
  N  N8  1  0.89974000  0.14160800  0.37373400  1
  N  N9  1  0.60026000  0.14160800  0.87373400  1
  N  N10  1  0.10026000  0.85839200  0.62626600  1
  N  N11  1  0.39974000  0.85839200  0.12626600  1
  N  N12  1  0.59635200  0.97984100  0.62979600  1
  N  N13  1  0.90364800  0.97984100  0.12979600  1
  N  N14  1  0.40364800  0.02015900  0.37020400  1
  N  N15  1  0.09635200  0.02015900  0.87020400  1
  N  N16  1  0.87491000  0.98774000  0.39114500  1
  N  N17  1  0.62509000  0.98774000  0.89114500  1
  N  N18  1  0.12509000  0.01226000  0.60885500  1
  N  N19  1  0.37491000  0.01226000  0.10885500  1
  N  N20  1  0.60809300  0.81940300  0.66054000  1
  N  N21  1  0.89190700  0.81940300  0.16054000  1
  N  N22  1  0.39190700  0.18059700  0.33946000  1
  N  N23  1  0.10809300  0.18059700  0.83946000  1
  O  O0  1  0.41224300  0.48925300  0.61314400  1
  O  O1  1  0.08775700  0.48925300  0.11314400  1
  O  O2  1  0.58775700  0.51074700  0.38685600  1
  O  O3  1  0.91224300  0.51074700  0.88685600  1
  O  O4  1  0.91237900  0.36800600  0.60776100  1
  O  O5  1  0.58762100  0.36800600  0.10776100  1
  O  O6  1  0.08762100  0.63199400  0.39223900  1
  O  O7  1  0.41237900  0.63199400  0.89223900  1
loop_
_geom_bond_atom_site_label_1
_geom_bond_atom_site_label_2
_geom_bond_distance
_geom_bond_site_symmetry_2
Ca0 N18 2.462327 1_555
Ca0 O6 2.495357 1_555
Ca0 N4 2.572745 1_555
Ca0 O0 2.575715 1_555
Ca0 O2 2.585686 1_555
Ca0 N0 2.607453 1_455
Ca0 N22 2.612870 1_555
Ca0 O4 2.653595 1_455
Ca1 N19 2.462327 1_556
Ca1 O7 2.495357 1_555
Ca1 N5 2.572745 1_456
Ca1 O1 2.575715 1_556
Ca1 O3 2.585686 1_455
Ca1 N1 2.607453 1_555
Ca1 N23 2.612870 1_555
Ca1 O5 2.653595 1_556
Ca2 N16 2.462327 1_555
Ca2 O4 2.495357 1_555
Ca2 N6 2.572745 1_555
Ca2 O2 2.575715 1_555
Ca2 O0 2.585686 1_555
Ca2 N2 2.607453 1_655
Ca2 N20 2.612870 1_555
Ca2 O6 2.653595 1_655
Ca3 N17 2.462327 1_554
Ca3 O5 2.495357 1_555
Ca3 N7 2.572745 1_654
Ca3 O3 2.575715 1_554
Ca3 O1 2.585686 1_655
Ca3 N3 2.607453 1_555
Ca3 N21 2.612870 1_555
Ca3 O7 2.653595 1_554
H0 O0 1.005224 1_555
H0 N2 1.825046 1_555
H1 O1 1.005224 1_555
H1 N3 1.825046 1_555
H2 O2 1.005224 1_555
H2 N0 1.825046 1_555
H3 O3 1.005224 1_555
H3 N1 1.825046 1_555
H4 O0 0.994500 1_555
H5 O1 0.994500 1_555
H6 O2 0.994500 1_555
H7 O3 0.994500 1_555
H8 O4 0.991867 1_555
H9 O5 0.991867 1_555
H10 O6 0.991867 1_555
H11 O7 0.991867 1_555
H12 O4 1.006729 1_555
H12 N4 1.756488 1_555
H13 O5 1.006729 1_555
H13 N5 1.756488 1_555
H14 O6 1.006729 1_555
H14 N6 1.756488 1_555
H15 O7 1.006729 1_555
H15 N7 1.756488 1_555
N0 N8 1.201881 1_555
N1 N9 1.201881 1_555
N10 N18 1.167582 1_565
N10 N2 1.201881 1_555
N11 N19 1.167582 1_565
N11 N3 1.201881 1_555
N12 N4 1.184803 1_565
N12 N20 1.184862 1_555
N13 N5 1.184803 1_565
N13 N21 1.184862 1_555
N14 N6 1.184803 1_545
N14 N22 1.184862 1_555
N15 N7 1.184803 1_545
N15 N23 1.184862 1_555
N16 N8 1.167582 1_565
N17 N9 1.167582 1_565
