# generated using pymatgen
data_BaLaNiRuO6
_symmetry_space_group_name_H-M   'P 1'
_cell_length_a   5.68431890
_cell_length_b   5.68431890
_cell_length_c   5.68431890
_cell_angle_alpha   120.56657933
_cell_angle_beta   120.56657933
_cell_angle_gamma   89.02142557
_symmetry_Int_Tables_number   1
_chemical_formula_structural   BaLaNiRuO6
_chemical_formula_sum   'Ba1 La1 Ni1 Ru1 O6'
_cell_volume   128.74085058
_cell_formula_units_Z   1
loop_
 _symmetry_equiv_pos_site_id
 _symmetry_equiv_pos_as_xyz
  1  'x, y, z'
loop_
 _atom_site_type_symbol
 _atom_site_label
 _atom_site_symmetry_multiplicity
 _atom_site_fract_x
 _atom_site_fract_y
 _atom_site_fract_z
 _atom_site_occupancy
  Ba  Ba0  1  0.50000000  0.50000000  0.00000000  1
  La  La0  1  0.00000000  0.00000000  0.00000000  1
  Ni  Ni0  1  0.25000000  0.75000000  0.50000000  1
  Ru  Ru0  1  0.75000000  0.25000000  0.50000000  1
  O  O0  1  0.56823900  0.97785500  0.01191000  1
  O  O1  1  0.44367100  0.43176100  0.40961600  1
  O  O2  1  0.99351300  0.49351300  0.50000000  1
  O  O3  1  0.50648700  0.00648700  0.50000000  1
  O  O4  1  0.02214500  0.03405500  0.59038400  1
  O  O5  1  0.96594500  0.55632900  0.98809000  1
loop_
_geom_bond_atom_site_label_1
_geom_bond_atom_site_label_2
_geom_bond_distance
_geom_bond_site_symmetry_2
Ba0 O0 2.712097 1_555
Ba0 O4 2.712097 1_554
Ba0 O1 2.712097 1_555
Ba0 O5 2.712097 1_554
Ba0 O3 2.818276 1_565
Ba0 O2 2.818276 1_555
Ba0 O3 2.818276 1_554
Ba0 O2 2.818276 1_454
Ba0 O5 3.017057 1_454
Ba0 O0 3.017057 1_545
Ba0 O1 3.017057 1_554
Ba0 O4 3.017057 1_665
La0 O4 2.496411 1_554
La0 O0 2.496411 1_445
La0 O1 2.496411 1_555
La0 O5 2.496411 1_444
La0 O3 2.818276 1_555
La0 O2 2.818276 1_444
La0 O3 2.818276 1_454
La0 O2 2.818276 1_455
Ni0 O4 2.076118 1_565
Ni0 O5 2.076118 1_454
Ni0 O1 2.076118 1_555
Ni0 O0 2.076118 1_556
Ni0 O3 2.079390 1_565
Ni0 O2 2.079390 1_455
O0 Ru0 1.982929 1_565
O1 Ru0 1.982929 1_555
O2 Ru0 1.974208 1_555
O3 Ru0 1.974208 1_555
O4 Ru0 1.982929 1_455
O5 Ru0 1.982929 1_555
