# generated using pymatgen
data_Sr2B8Ru7
_symmetry_space_group_name_H-M   'P 1'
_cell_length_a   6.44045654
_cell_length_b   6.44045654
_cell_length_c   10.18016686
_cell_angle_alpha   90.00000000
_cell_angle_beta   90.00000000
_cell_angle_gamma   90.00000000
_symmetry_Int_Tables_number   1
_chemical_formula_structural   Sr2B8Ru7
_chemical_formula_sum   'Sr4 B16 Ru14'
_cell_volume   422.26803218
_cell_formula_units_Z   2
loop_
 _symmetry_equiv_pos_site_id
 _symmetry_equiv_pos_as_xyz
  1  'x, y, z'
loop_
 _atom_site_type_symbol
 _atom_site_label
 _atom_site_symmetry_multiplicity
 _atom_site_fract_x
 _atom_site_fract_y
 _atom_site_fract_z
 _atom_site_occupancy
  Sr  Sr0  1  0.73154265  0.89103293  0.00000000  1
  Sr  Sr1  1  0.10896707  0.73154265  0.50000000  1
  Sr  Sr2  1  0.89103293  0.26845735  0.50000000  1
  Sr  Sr3  1  0.26845735  0.10896707  0.00000000  1
  B  B0  1  0.50000000  -0.00000000  0.58838314  1
  B  B1  1  0.50000000  -0.00000000  0.41161686  1
  B  B2  1  0.89701870  0.27573358  0.16986845  1
  B  B3  1  0.10298130  0.72426642  0.83013155  1
  B  B4  1  0.50000000  0.50000000  0.34117598  1
  B  B5  1  0.50000000  0.50000000  0.84117598  1
  B  B6  1  0.27573358  0.10298130  0.66986845  1
  B  B7  1  0.10298130  0.72426642  0.16986845  1
  B  B8  1  0.27573358  0.10298130  0.33013155  1
  B  B9  1  0.89701870  0.27573358  0.83013155  1
  B  B10  1  0.50000000  0.50000000  0.65882402  1
  B  B11  1  0.50000000  0.50000000  0.15882402  1
  B  B12  1  -0.00000000  0.50000000  0.91161686  1
  B  B13  1  0.72426642  0.89701870  0.66986845  1
  B  B14  1  0.72426642  0.89701870  0.33013155  1
  B  B15  1  -0.00000000  0.50000000  0.08838314  1
  Ru  Ru0  1  0.20585430  0.39473232  0.75653447  1
  Ru  Ru1  1  0.40599205  0.28678860  0.50000000  1
  Ru  Ru2  1  0.39473232  0.79414570  0.25653447  1
  Ru  Ru3  1  0.20585430  0.39473232  0.24346553  1
  Ru  Ru4  1  0.59400795  0.71321140  0.50000000  1
  Ru  Ru5  1  0.60526768  0.20585430  0.74346553  1
  Ru  Ru6  1  0.28678860  0.59400795  0.00000000  1
  Ru  Ru7  1  0.71321140  0.40599205  0.00000000  1
  Ru  Ru8  1  0.79414570  0.60526768  0.24346553  1
  Ru  Ru9  1  0.79414570  0.60526768  0.75653447  1
  Ru  Ru10  1  0.39473232  0.79414570  0.74346553  1
  Ru  Ru11  1  -0.00000000  -0.00000000  0.25000000  1
  Ru  Ru12  1  0.60526768  0.20585430  0.25653447  1
  Ru  Ru13  1  -0.00000000  -0.00000000  0.75000000  1
loop_
_geom_bond_atom_site_label_1
_geom_bond_atom_site_label_2
_geom_bond_distance
_geom_bond_site_symmetry_2
Sr0 Sr3 3.296251 1_565
Sr1 Sr2 3.296251 1_455
B0 B13 1.792833 1_545
B0 B6 1.792833 1_555
B0 B1 1.799510 1_555
B0 Ru4 2.141898 1_545
B0 Ru1 2.141898 1_555
B0 Ru10 2.170225 1_545
B0 Ru5 2.170225 1_555
B0 Sr2 3.184564 1_555
B0 Sr1 3.184564 1_545
B1 B14 1.792833 1_545
B1 B8 1.792833 1_555
B1 Ru4 2.141898 1_545
B1 Ru1 2.141898 1_555
B1 Ru2 2.170225 1_545
B1 Ru12 2.170225 1_555
B1 Sr2 3.184564 1_555
B1 Sr1 3.184564 1_545
B2 Ru11 2.063733 1_655
B2 Ru12 2.124061 1_555
B2 Ru7 2.257349 1_555
B2 Ru3 2.259428 1_655
B2 Ru8 2.346207 1_555
B2 Sr3 3.141149 1_655
B2 Sr0 3.203901 1_545
B2 Sr2 3.361342 1_555
B3 Ru13 2.063733 1_565
B3 Ru10 2.124061 1_555
B3 Ru6 2.257349 1_556
B3 Ru9 2.259428 1_455
B3 Ru0 2.346207 1_555
B3 Sr0 3.141149 1_456
B3 Sr3 3.203901 1_566
B3 Sr1 3.361342 1_555
B4 Ru2 2.188832 1_555
B4 Ru12 2.188832 1_555
B4 Ru1 2.205995 1_555
B4 Ru4 2.205995 1_555
B4 Ru8 2.244541 1_555
B4 Ru3 2.244541 1_555
B4 Sr1 3.343727 1_555
B4 Sr2 3.343727 1_555
B5 Ru9 2.188832 1_555
B5 Ru0 2.188832 1_555
B5 Ru6 2.205995 1_556
B5 Ru7 2.205995 1_556
B5 Ru10 2.244541 1_555
B5 Ru5 2.244541 1_555
B5 Sr0 3.343727 1_556
B5 Sr3 3.343727 1_556
B6 Ru13 2.063733 1_555
B6 Ru0 2.124061 1_555
B6 Ru1 2.257349 1_555
B6 Ru10 2.259428 1_545
B6 Ru5 2.346207 1_555
B6 Sr1 3.141149 1_545
B6 Sr2 3.203901 1_455
B6 Sr3 3.361342 1_556
B7 Ru11 2.063733 1_565
B7 Ru2 2.124061 1_555
B7 Ru6 2.257349 1_555
B7 Ru8 2.259428 1_455
B7 Ru3 2.346207 1_555
B7 Sr0 3.141149 1_455
B7 Sr3 3.203901 1_565
B7 Sr1 3.361342 1_555
B8 Ru11 2.063733 1_555
B8 Ru3 2.124061 1_555
B8 Ru1 2.257349 1_555
B8 Ru2 2.259428 1_545
B8 Ru12 2.346207 1_555
B8 Sr1 3.141149 1_545
B8 Sr2 3.203901 1_455
B8 Sr3 3.361342 1_555
B9 Ru13 2.063733 1_655
B9 Ru5 2.124061 1_555
B9 Ru7 2.257349 1_556
B9 Ru0 2.259428 1_655
B9 Ru9 2.346207 1_555
B9 Sr3 3.141149 1_656
B9 Sr0 3.203901 1_546
B9 Sr2 3.361342 1_555
B10 B5 1.856373 1_555
B10 Ru10 2.188832 1_555
B10 Ru5 2.188832 1_555
B10 Ru4 2.205995 1_555
B10 Ru1 2.205995 1_555
B10 Ru9 2.244541 1_555
B10 Ru0 2.244541 1_555
B10 Sr2 3.343727 1_555
B10 Sr1 3.343727 1_555
B11 B4 1.856373 1_555
B11 Ru8 2.188832 1_555
B11 Ru3 2.188832 1_555
B11 Ru6 2.205995 1_555
B11 Ru7 2.205995 1_555
B11 Ru2 2.244541 1_555
B11 Ru12 2.244541 1_555
B11 Sr0 3.343727 1_555
B11 Sr3 3.343727 1_555
B12 B3 1.792833 1_555
B12 B9 1.792833 1_455
B12 B15 1.799510 1_556
B12 Ru6 2.141898 1_556
B12 Ru7 2.141898 1_456
B12 Ru9 2.170225 1_455
B12 Ru0 2.170225 1_555
B12 Sr3 3.184564 1_556
B12 Sr0 3.184564 1_456
B13 Ru13 2.063733 1_665
B13 Ru9 2.124061 1_555
B13 Ru4 2.257349 1_555
B13 Ru5 2.259428 1_565
B13 Ru10 2.346207 1_555
B13 Sr2 3.141149 1_565
B13 Sr1 3.203901 1_655
B13 Sr0 3.361342 1_556
B14 Ru11 2.063733 1_665
B14 Ru8 2.124061 1_555
B14 Ru4 2.257349 1_555
B14 Ru12 2.259428 1_565
B14 Ru2 2.346207 1_555
B14 Sr2 3.141149 1_565
B14 Sr1 3.203901 1_655
B14 Sr0 3.361342 1_555
B15 B7 1.792833 1_555
B15 B2 1.792833 1_455
B15 Ru7 2.141898 1_455
B15 Ru6 2.141898 1_555
B15 Ru3 2.170225 1_555
B15 Ru8 2.170225 1_455
B15 Sr0 3.184564 1_455
B15 Sr3 3.184564 1_555
Ru0 Sr3 3.113344 1_556
Ru0 Sr2 3.404821 1_455
Ru0 Sr1 3.451829 1_555
Ru1 Sr2 3.126115 1_555
Ru1 Sr2 3.318673 1_455
Ru1 Sr1 3.444470 1_555
Ru2 Sr1 3.113344 1_555
Ru2 Sr3 3.404821 1_565
Ru2 Sr0 3.451829 1_555
Ru3 Sr3 3.113344 1_555
Ru3 Sr2 3.404821 1_455
Ru3 Sr1 3.451829 1_555
Ru4 Sr1 3.126115 1_555
Ru4 Sr1 3.318673 1_655
Ru4 Sr2 3.444470 1_555
Ru5 Sr2 3.113344 1_555
Ru5 Sr0 3.404821 1_546
Ru5 Sr3 3.451829 1_556
Ru6 Sr3 3.126115 1_555
Ru6 Sr3 3.318673 1_565
Ru6 Sr0 3.444470 1_555
Ru7 Sr0 3.126115 1_555
Ru7 Sr0 3.318673 1_545
Ru7 Sr3 3.444470 1_555
Ru8 Sr0 3.113344 1_555
Ru8 Sr1 3.404821 1_655
Ru8 Sr2 3.451829 1_555
Ru9 Sr0 3.113344 1_556
Ru9 Sr1 3.404821 1_655
Ru9 Sr2 3.451829 1_555
Ru10 Sr1 3.113344 1_555
Ru10 Sr3 3.404821 1_566
Ru10 Sr0 3.451829 1_556
Ru11 Sr3 3.155813 1_555
Ru11 Sr0 3.155813 1_445
Ru11 Sr2 3.155813 1_455
Ru11 Sr1 3.155813 1_545
Ru12 Sr2 3.113344 1_555
Ru12 Sr0 3.404821 1_545
Ru12 Sr3 3.451829 1_555
Ru13 Sr3 3.155813 1_556
Ru13 Sr0 3.155813 1_446
Ru13 Sr2 3.155813 1_455
Ru13 Sr1 3.155813 1_545
