# generated using pymatgen
data_CsB9O14
_symmetry_space_group_name_H-M   'P 1'
_cell_length_a   8.77637116
_cell_length_b   8.84333744
_cell_length_c   15.59765721
_cell_angle_alpha   90.00000000
_cell_angle_beta   90.00000000
_cell_angle_gamma   90.00000000
_symmetry_Int_Tables_number   1
_chemical_formula_structural   CsB9O14
_chemical_formula_sum   'Cs4 B36 O56'
_cell_volume   1210.57179242
_cell_formula_units_Z   4
loop_
 _symmetry_equiv_pos_site_id
 _symmetry_equiv_pos_as_xyz
  1  'x, y, z'
loop_
 _atom_site_type_symbol
 _atom_site_label
 _atom_site_symmetry_multiplicity
 _atom_site_fract_x
 _atom_site_fract_y
 _atom_site_fract_z
 _atom_site_occupancy
  Cs  Cs0  1  0.98523637  0.00000000  0.50000000  1
  Cs  Cs1  1  0.50000000  0.53894988  0.25000000  1
  Cs  Cs2  1  0.50000000  0.46105012  0.75000000  1
  Cs  Cs3  1  0.01476363  0.00000000  -0.00000000  1
  B  B0  1  0.12044187  0.44941664  0.11893541  1
  B  B1  1  0.62949525  0.66099967  0.56120594  1
  B  B2  1  0.14637941  0.36643719  0.37651340  1
  B  B3  1  0.32444004  0.96789941  0.18203050  1
  B  B4  1  0.85362059  0.63356281  0.87651340  1
  B  B5  1  0.67555996  0.03210059  0.68203050  1
  B  B6  1  0.56262232  0.83034042  0.44943252  1
  B  B7  1  0.92656655  0.63267102  0.14086546  1
  B  B8  1  0.21800978  0.15552923  0.27558341  1
  B  B9  1  0.85362059  0.36643719  0.12348660  1
  B  B10  1  0.87955813  0.55058336  0.61893541  1
  B  B11  1  0.21800978  0.84447077  0.72441659  1
  B  B12  1  0.63630367  0.28861629  0.02946069  1
  B  B13  1  0.18224355  0.88790568  0.30367524  1
  B  B14  1  0.78199022  0.15552923  0.22441659  1
  B  B15  1  0.37050475  0.33900033  0.06120594  1
  B  B16  1  0.07343345  0.63267102  0.35913454  1
  B  B17  1  0.56262232  0.16965958  0.55056748  1
  B  B18  1  0.81775645  0.88790568  0.19632476  1
  B  B19  1  0.43737768  0.83034042  0.05056748  1
  B  B20  1  0.78199022  0.84447077  0.77558341  1
  B  B21  1  0.07343345  0.36732898  0.64086546  1
  B  B22  1  0.36369633  0.28861629  0.47053931  1
  B  B23  1  0.62949525  0.33900033  0.43879406  1
  B  B24  1  0.43737768  0.16965958  0.94943252  1
  B  B25  1  0.32444004  0.03210059  0.81796950  1
  B  B26  1  0.92656655  0.36732898  0.85913454  1
  B  B27  1  0.12044187  0.55058336  0.88106459  1
  B  B28  1  0.14637941  0.63356281  0.62348660  1
  B  B29  1  0.37050475  0.66099967  0.93879406  1
  B  B30  1  0.81775645  0.11209432  0.80367524  1
  B  B31  1  0.18224355  0.11209432  0.69632476  1
  B  B32  1  0.87955813  0.44941664  0.38106459  1
  B  B33  1  0.63630367  0.71138371  0.97053931  1
  B  B34  1  0.67555996  0.96789941  0.31796950  1
  B  B35  1  0.36369633  0.71138371  0.52946069  1
  O  O0  1  0.72573755  0.57018486  0.60417839  1
  O  O1  1  0.58833453  0.79933209  0.03979655  1
  O  O2  1  0.01802073  0.33759755  0.11416484  1
  O  O3  1  0.92025423  0.40332355  0.63825061  1
  O  O4  1  0.72573755  0.42981514  0.39582161  1
  O  O5  1  0.21680933  0.70332745  0.54808415  1
  O  O6  1  0.98197927  0.33759755  0.38583516  1
  O  O7  1  0.29683573  0.11596533  0.20116596  1
  O  O8  1  0.47662257  0.64073818  0.57759307  1
  O  O9  1  0.78319067  0.29667255  0.04808415  1
  O  O10  1  0.52337743  0.35926182  0.07759307  1
  O  O11  1  0.78319067  0.70332745  0.95191585  1
  O  O12  1  0.79314914  0.29983588  0.20307020  1
  O  O13  1  0.67382664  0.23720302  0.50148276  1
  O  O14  1  0.15743726  0.96236672  0.67599401  1
  O  O15  1  0.72048474  0.85275280  0.26366552  1
  O  O16  1  0.20685086  0.29983588  0.29692980  1
  O  O17  1  0.81730967  0.47105328  0.87016252  1
  O  O18  1  0.60037484  0.93848540  0.39146583  1
  O  O19  1  0.32617336  0.76279698  0.00148276  1
  O  O20  1  0.60037484  0.06151460  0.60853417  1
  O  O21  1  0.84256274  0.96236672  0.82400599  1
  O  O22  1  0.58833453  0.20066791  0.96020345  1
  O  O23  1  0.01802073  0.66240245  0.88583516  1
  O  O24  1  0.39962516  0.93848540  0.10853417  1
  O  O25  1  0.39962516  0.06151460  0.89146583  1
  O  O26  1  0.20685086  0.70016412  0.70307020  1
  O  O27  1  0.07974577  0.40332355  0.86174939  1
  O  O28  1  0.18269033  0.52894672  0.37016252  1
  O  O29  1  0.92025423  0.59667645  0.36174939  1
  O  O30  1  0.70316427  0.88403467  0.70116596  1
  O  O31  1  0.32617336  0.23720302  0.99851724  1
  O  O32  1  0.10270291  0.21517483  0.65226324  1
  O  O33  1  0.89729709  0.78482517  0.15226324  1
  O  O34  1  0.29683573  0.88403467  0.79883404  1
  O  O35  1  0.10270291  0.78482517  0.34773676  1
  O  O36  1  0.84256274  0.03763328  0.17599401  1
  O  O37  1  0.27426245  0.57018486  0.89582161  1
  O  O38  1  0.98197927  0.66240245  0.61416484  1
  O  O39  1  0.89729709  0.21517483  0.84773676  1
  O  O40  1  0.41166547  0.20066791  0.53979655  1
  O  O41  1  0.52337743  0.64073818  0.92240693  1
  O  O42  1  0.07974577  0.59667645  0.13825061  1
  O  O43  1  0.27951526  0.14724720  0.76366552  1
  O  O44  1  0.27426245  0.42981514  0.10417839  1
  O  O45  1  0.79314914  0.70016412  0.79692980  1
  O  O46  1  0.21680933  0.29667255  0.45191585  1
  O  O47  1  0.27951526  0.85275280  0.23633448  1
  O  O48  1  0.41166547  0.79933209  0.46020345  1
  O  O49  1  0.81730967  0.52894672  0.12983748  1
  O  O50  1  0.72048474  0.14724720  0.73633448  1
  O  O51  1  0.15743726  0.03763328  0.32400599  1
  O  O52  1  0.47662257  0.35926182  0.42240693  1
  O  O53  1  0.18269033  0.47105328  0.62983748  1
  O  O54  1  0.67382664  0.76279698  0.49851724  1
  O  O55  1  0.70316427  0.11596533  0.29883404  1
loop_
_geom_bond_atom_site_label_1
_geom_bond_atom_site_label_2
_geom_bond_distance
_geom_bond_site_symmetry_2
Cs0 O51 3.151242 1_655
Cs0 O14 3.151242 1_645
Cs0 O32 3.213113 1_655
Cs0 O35 3.213113 1_645
Cs0 O46 3.402378 1_655
Cs0 O5 3.402378 1_645
Cs0 O54 3.445328 1_545
Cs0 O13 3.445328 1_555
Cs0 O6 3.476330 1_555
Cs0 O38 3.476330 1_545
Cs1 O10 3.130279 1_555
Cs1 O52 3.130279 1_555
Cs1 O44 3.166965 1_555
Cs1 O4 3.166965 1_555
Cs1 O49 3.357963 1_555
Cs1 O28 3.357963 1_555
Cs1 O15 3.389817 1_555
Cs1 O47 3.389817 1_555
Cs1 O12 3.409755 1_555
Cs1 O16 3.409755 1_555
Cs2 O41 3.130279 1_555
Cs2 O8 3.130279 1_555
Cs2 O0 3.166965 1_555
Cs2 O37 3.166965 1_555
Cs2 O53 3.357963 1_555
Cs2 O17 3.357963 1_555
Cs2 O50 3.389817 1_555
Cs2 O43 3.389817 1_555
Cs2 O45 3.409755 1_555
Cs2 O26 3.409755 1_555
Cs3 O36 3.151242 1_455
Cs3 O21 3.151242 1_444
Cs3 O39 3.213113 1_454
Cs3 O33 3.213113 1_445
Cs3 O9 3.402378 1_455
Cs3 O11 3.402378 1_444
Cs3 O31 3.445328 1_554
Cs3 O19 3.445328 1_545
Cs3 O2 3.476330 1_555
Cs3 O23 3.476330 1_544
B0 O2 1.338419 1_555
B0 O44 1.380396 1_555
B0 O42 1.383558 1_555
B1 O0 1.344503 1_555
B1 O8 1.377501 1_555
B1 O54 1.384872 1_555
B2 O46 1.464895 1_555
B2 O6 1.472400 1_455
B2 O16 1.472898 1_555
B2 O28 1.475365 1_555
B3 O24 1.348048 1_555
B3 O7 1.364660 1_565
B3 O47 1.381949 1_555
B4 O11 1.464895 1_555
B4 O23 1.472400 1_655
B4 O45 1.472898 1_555
B4 O17 1.475365 1_555
B5 O20 1.348048 1_555
B5 O30 1.364660 1_545
B5 O50 1.381949 1_555
B6 O18 1.357161 1_555
B6 O48 1.363325 1_555
B6 O54 1.376754 1_555
B7 O49 1.338065 1_555
B7 O33 1.381339 1_555
B7 O42 1.382130 1_655
B8 O16 1.322503 1_555
B8 O51 1.392858 1_555
B8 O7 1.395823 1_555
B9 O9 1.464895 1_555
B9 O2 1.472400 1_655
B9 O12 1.472898 1_555
B9 O49 1.475365 1_555
B10 O38 1.338419 1_555
B10 O0 1.380396 1_555
B10 O3 1.383558 1_555
B11 O26 1.322503 1_555
B11 O14 1.392858 1_555
B11 O34 1.395823 1_555
B12 O9 1.323376 1_555
B12 O10 1.391466 1_555
B12 O22 1.396096 1_554
B13 O35 1.338135 1_555
B13 O51 1.378831 1_565
B13 O47 1.388770 1_555
B14 O12 1.322503 1_555
B14 O36 1.392858 1_555
B14 O55 1.395823 1_555
B15 O44 1.344503 1_555
B15 O10 1.377501 1_555
B15 O31 1.384872 1_554
B16 O28 1.338065 1_555
B16 O35 1.381339 1_555
B16 O29 1.382130 1_455
B17 O20 1.357161 1_555
B17 O40 1.363325 1_555
B17 O13 1.376754 1_555
B18 O33 1.338135 1_555
B18 O36 1.378831 1_565
B18 O15 1.388770 1_555
B19 O24 1.357161 1_555
B19 O1 1.363325 1_555
B19 O19 1.376754 1_555
B20 O45 1.322503 1_555
B20 O21 1.392858 1_555
B20 O30 1.395823 1_555
B21 O53 1.338065 1_555
B21 O32 1.381339 1_555
B21 O3 1.382130 1_455
B22 O46 1.323376 1_555
B22 O52 1.391466 1_555
B22 O40 1.396096 1_555
B23 O4 1.344503 1_555
B23 O52 1.377501 1_555
B23 O13 1.384872 1_555
B24 O25 1.357161 1_555
B24 O22 1.363325 1_555
B24 O31 1.376754 1_555
B25 O25 1.348048 1_555
B25 O34 1.364660 1_545
B25 O43 1.381949 1_555
B26 O17 1.338065 1_555
B26 O39 1.381339 1_555
B26 O27 1.382130 1_655
B27 O23 1.338419 1_555
B27 O37 1.380396 1_555
B27 O27 1.383558 1_555
B28 O5 1.464895 1_555
B28 O38 1.472400 1_455
B28 O26 1.472898 1_555
B28 O53 1.475365 1_555
B29 O37 1.344503 1_555
B29 O41 1.377501 1_555
B29 O19 1.384872 1_556
B30 O39 1.338135 1_555
B30 O21 1.378831 1_545
B30 O50 1.388770 1_555
B31 O32 1.338135 1_555
B31 O14 1.378831 1_545
B31 O43 1.388770 1_555
B32 O6 1.338419 1_555
B32 O4 1.380396 1_555
B32 O29 1.383558 1_555
B33 O11 1.323376 1_555
B33 O41 1.391466 1_555
B33 O1 1.396096 1_556
B34 O18 1.348048 1_555
B34 O55 1.364660 1_565
B34 O15 1.381949 1_555
B35 O5 1.323376 1_555
B35 O8 1.391466 1_555
B35 O48 1.396096 1_555
