# generated using pymatgen
data_K2LiSn4
_symmetry_space_group_name_H-M   'P 1'
_cell_length_a   15.78103580
_cell_length_b   15.78103580
_cell_length_c   19.18615608
_cell_angle_alpha   65.71713952
_cell_angle_beta   65.71713952
_cell_angle_gamma   89.96836092
_symmetry_Int_Tables_number   1
_chemical_formula_structural   K2LiSn4
_chemical_formula_sum   'K32 Li16 Sn64'
_cell_volume   3887.50169667
_cell_formula_units_Z   16
loop_
 _symmetry_equiv_pos_site_id
 _symmetry_equiv_pos_as_xyz
  1  'x, y, z'
loop_
 _atom_site_type_symbol
 _atom_site_label
 _atom_site_symmetry_multiplicity
 _atom_site_fract_x
 _atom_site_fract_y
 _atom_site_fract_z
 _atom_site_occupancy
  K  K0  1  0.12275100  0.87724900  0.75000000  1
  K  K1  1  0.40910900  0.92762100  0.13539200  1
  K  K2  1  0.86778900  0.63630300  0.25020700  1
  K  K3  1  0.92762100  0.40910900  0.63539200  1
  K  K4  1  0.86879700  0.60470400  0.74331000  1
  K  K5  1  0.07237900  0.59089100  0.36460800  1
  K  K6  1  0.43050700  0.46173900  0.62805100  1
  K  K7  1  0.93850900  0.91095400  0.63371400  1
  K  K8  1  0.61138800  0.38861200  0.75000000  1
  K  K9  1  0.87724900  0.12275100  0.25000000  1
  K  K10  1  0.64674200  0.35325800  0.25000000  1
  K  K11  1  0.35325800  0.64674200  0.75000000  1
  K  K12  1  0.38861200  0.61138800  0.25000000  1
  K  K13  1  0.11407000  0.88593000  0.25000000  1
  K  K14  1  0.13120300  0.39529600  0.25669000  1
  K  K15  1  0.91095400  0.93850900  0.13371400  1
  K  K16  1  0.08904600  0.06149100  0.86628600  1
  K  K17  1  0.06149100  0.08904600  0.36628600  1
  K  K18  1  0.13221100  0.36369700  0.74979300  1
  K  K19  1  0.56949300  0.53826100  0.37194900  1
  K  K20  1  0.63630300  0.86778900  0.75020700  1
  K  K21  1  0.53826100  0.56949300  0.87194900  1
  K  K22  1  0.39529600  0.13120300  0.75669000  1
  K  K23  1  0.95955900  0.43819400  0.13273400  1
  K  K24  1  0.36369700  0.13221100  0.24979300  1
  K  K25  1  0.88593000  0.11407000  0.75000000  1
  K  K26  1  0.46173900  0.43050700  0.12805100  1
  K  K27  1  0.56180600  0.04044100  0.36726600  1
  K  K28  1  0.43819400  0.95955900  0.63273400  1
  K  K29  1  0.04044100  0.56180600  0.86726600  1
  K  K30  1  0.60470400  0.86879700  0.24331000  1
  K  K31  1  0.59089100  0.07237900  0.86460800  1
  Li  Li0  1  0.54236900  0.24811300  0.99858000  1
  Li  Li1  1  0.04270800  0.24841900  0.50124600  1
  Li  Li2  1  0.54120000  0.75136000  0.50214100  1
  Li  Li3  1  0.95729200  0.75158100  0.49875400  1
  Li  Li4  1  0.75158100  0.95729200  0.99875400  1
  Li  Li5  1  0.45763100  0.75188700  0.00142000  1
  Li  Li6  1  0.95404600  0.24225100  0.00328000  1
  Li  Li7  1  0.45880000  0.24864000  0.49785900  1
  Li  Li8  1  0.24225100  0.95404600  0.50328000  1
  Li  Li9  1  0.24864000  0.45880000  0.99785900  1
  Li  Li10  1  0.04595400  0.75774900  0.99672000  1
  Li  Li11  1  0.75136000  0.54120000  0.00214100  1
  Li  Li12  1  0.75774900  0.04595400  0.49672000  1
  Li  Li13  1  0.24841900  0.04270800  0.00124600  1
  Li  Li14  1  0.75188700  0.45763100  0.50142000  1
  Li  Li15  1  0.24811300  0.54236900  0.49858000  1
  Sn  Sn0  1  0.39312200  0.76187400  0.87242700  1
  Sn  Sn1  1  0.26334600  0.14862300  0.63564800  1
  Sn  Sn2  1  0.40151300  0.69387300  0.44725300  1
  Sn  Sn3  1  0.10602300  0.63247200  0.12857200  1
  Sn  Sn4  1  0.79514900  0.59632100  0.57256200  1
  Sn  Sn5  1  0.63247200  0.10602300  0.62857200  1
  Sn  Sn6  1  0.34598300  0.80774100  0.55271800  1
  Sn  Sn7  1  0.34893300  0.13396100  0.46619200  1
  Sn  Sn8  1  0.64922900  0.60200300  0.13852800  1
  Sn  Sn9  1  0.23890400  0.87285700  0.87148100  1
  Sn  Sn10  1  0.26425800  0.11341900  0.11719700  1
  Sn  Sn11  1  0.13396100  0.34893300  0.96619200  1
  Sn  Sn12  1  0.77245700  0.76425300  0.61679100  1
  Sn  Sn13  1  0.76425300  0.77245700  0.11679100  1
  Sn  Sn14  1  0.22754300  0.23574700  0.38320900  1
  Sn  Sn15  1  0.73665400  0.85137700  0.36435200  1
  Sn  Sn16  1  0.23574700  0.22754300  0.88320900  1
  Sn  Sn17  1  0.80774100  0.34598300  0.05271800  1
  Sn  Sn18  1  0.90276300  0.35907500  0.45065200  1
  Sn  Sn19  1  0.85137700  0.73665400  0.86435200  1
  Sn  Sn20  1  0.76187400  0.39312200  0.37242700  1
  Sn  Sn21  1  0.73757300  0.26263300  0.86741200  1
  Sn  Sn22  1  0.60687800  0.23812600  0.12757300  1
  Sn  Sn23  1  0.84994900  0.14087100  0.55631200  1
  Sn  Sn24  1  0.12714300  0.76109600  0.62851900  1
  Sn  Sn25  1  0.59848700  0.30612700  0.55274700  1
  Sn  Sn26  1  0.76109600  0.12714300  0.12851900  1
  Sn  Sn27  1  0.73736700  0.26242700  0.63258800  1
  Sn  Sn28  1  0.15005100  0.85912900  0.44368800  1
  Sn  Sn29  1  0.86717400  0.90395900  0.42685100  1
  Sn  Sn30  1  0.89397700  0.36752800  0.87142800  1
  Sn  Sn31  1  0.65401700  0.19225900  0.44728200  1
  Sn  Sn32  1  0.68142000  0.63463500  0.46946800  1
  Sn  Sn33  1  0.87285700  0.23890400  0.37148100  1
  Sn  Sn34  1  0.64092500  0.09723700  0.04934800  1
  Sn  Sn35  1  0.09604100  0.13282600  0.07314900  1
  Sn  Sn36  1  0.39799700  0.35077100  0.36147200  1
  Sn  Sn37  1  0.26263300  0.73757300  0.36741200  1
  Sn  Sn38  1  0.69387300  0.40151300  0.94725300  1
  Sn  Sn39  1  0.26242700  0.73736700  0.13258800  1
  Sn  Sn40  1  0.35907500  0.90276300  0.95065200  1
  Sn  Sn41  1  0.40367900  0.20485100  0.92743800  1
  Sn  Sn42  1  0.73574200  0.88658100  0.88280300  1
  Sn  Sn43  1  0.65106700  0.86603900  0.53380800  1
  Sn  Sn44  1  0.85912900  0.15005100  0.94368800  1
  Sn  Sn45  1  0.09723700  0.64092500  0.54934800  1
  Sn  Sn46  1  0.30612700  0.59848700  0.05274700  1
  Sn  Sn47  1  0.20485100  0.40367900  0.42743800  1
  Sn  Sn48  1  0.13282600  0.09604100  0.57314900  1
  Sn  Sn49  1  0.63463500  0.68142000  0.96946800  1
  Sn  Sn50  1  0.88658100  0.73574200  0.38280300  1
  Sn  Sn51  1  0.14087100  0.84994900  0.05631200  1
  Sn  Sn52  1  0.36752800  0.89397700  0.37142800  1
  Sn  Sn53  1  0.86603900  0.65106700  0.03380800  1
  Sn  Sn54  1  0.35077100  0.39799700  0.86147200  1
  Sn  Sn55  1  0.11341900  0.26425800  0.61719700  1
  Sn  Sn56  1  0.14862300  0.26334600  0.13564800  1
  Sn  Sn57  1  0.23812600  0.60687800  0.62757300  1
  Sn  Sn58  1  0.90395900  0.86717400  0.92685100  1
  Sn  Sn59  1  0.36536500  0.31858000  0.03053200  1
  Sn  Sn60  1  0.31858000  0.36536500  0.53053200  1
  Sn  Sn61  1  0.59632100  0.79514900  0.07256200  1
  Sn  Sn62  1  0.19225900  0.65401700  0.94728200  1
  Sn  Sn63  1  0.60200300  0.64922900  0.63852800  1
loop_
_geom_bond_atom_site_label_1
_geom_bond_atom_site_label_2
_geom_bond_distance
_geom_bond_site_symmetry_2
K0 Sn9 3.489706 1_555
K0 Sn24 3.489706 1_555
K0 Sn58 3.658002 1_455
K0 Sn48 3.658002 1_565
K0 Li10 3.920987 1_555
K0 Li8 3.920987 1_555
K0 Sn1 4.044194 1_565
K0 Sn19 4.044194 1_455
K0 K16 4.251118 1_565
K0 K7 4.251118 1_455
K0 K28 4.463357 1_555
K0 K29 4.463357 1_555
K1 Sn61 3.699823 1_555
K1 Sn10 3.708286 1_565
K1 Sn39 3.823422 1_555
K1 Sn34 3.831762 1_565
K1 Sn37 3.836407 1_555
K1 Sn52 4.098729 1_555
K1 K13 4.164055 1_555
K1 K30 4.283578 1_555
K1 K12 4.498435 1_555
K2 Sn20 3.521627 1_555
K2 Sn3 3.533243 1_655
K2 Sn13 3.570858 1_555
K2 Sn50 3.595414 1_555
K2 Sn32 4.010051 1_555
K2 K23 4.478532 1_555
K3 Sn4 3.699823 1_555
K3 Sn55 3.708286 1_655
K3 Sn27 3.823422 1_555
K3 Sn45 3.831762 1_655
K3 Sn21 3.836407 1_555
K3 Sn30 4.098729 1_555
K3 K4 4.283578 1_555
K3 K8 4.498435 1_555
K4 Sn12 3.542258 1_555
K4 Sn19 3.640940 1_555
K4 Sn30 3.666590 1_555
K4 Sn38 3.744210 1_555
K4 Sn45 3.793437 1_655
K4 Li3 3.873964 1_555
K4 Sn4 3.948253 1_555
K4 Sn24 3.964676 1_655
K4 K7 4.328273 1_555
K5 Sn47 3.699823 1_555
K5 Sn50 3.708286 1_455
K5 Sn37 3.823422 1_555
K5 Sn18 3.831762 1_455
K5 Sn39 3.836407 1_555
K5 Sn3 4.098729 1_555
K6 Sn60 3.741023 1_555
K6 Sn54 3.783248 1_555
K6 Sn57 3.802799 1_555
K6 Sn25 3.860845 1_555
K6 Sn32 3.956753 1_555
K6 Sn2 4.063731 1_555
K6 Sn63 4.130957 1_555
K6 K8 4.268835 1_555
K7 Sn48 3.684132 1_665
K7 Sn12 3.695497 1_555
K7 Sn19 3.745196 1_555
K7 Sn24 3.795575 1_655
K7 Sn23 3.820081 1_565
K8 Sn21 3.604732 1_555
K8 Sn27 3.604732 1_555
K8 Sn41 3.668264 1_555
K8 Sn4 3.668264 1_555
K8 Sn54 3.812664 1_555
K8 Sn63 3.812664 1_555
K8 Li14 3.985134 1_555
K8 Li0 3.985134 1_555
K9 Sn33 3.489706 1_555
K9 Sn26 3.489706 1_555
K9 Sn29 3.658002 1_545
K9 Sn35 3.658002 1_655
K9 Li12 3.920987 1_555
K9 Li6 3.920987 1_555
K9 Sn56 4.044194 1_655
K9 Sn15 4.044194 1_545
K10 Sn36 3.607058 1_555
K10 Sn8 3.607058 1_555
K10 Sn31 3.639055 1_555
K10 Sn17 3.639055 1_555
K10 Sn20 3.733766 1_555
K10 Sn22 3.733766 1_555
K10 K26 4.330430 1_555
K10 K19 4.330430 1_555
K10 K27 4.429473 1_555
K10 K23 4.429473 1_555
K11 Sn54 3.607058 1_555
K11 Sn63 3.607058 1_555
K11 Sn62 3.639055 1_555
K11 Sn6 3.639055 1_555
K11 Sn0 3.733766 1_555
K11 Sn57 3.733766 1_555
K11 K6 4.330430 1_555
K11 K21 4.330430 1_555
K11 K29 4.429473 1_555
K11 K28 4.429473 1_555
K12 Sn37 3.604732 1_555
K12 Sn39 3.604732 1_555
K12 Sn47 3.668264 1_555
K12 Sn61 3.668264 1_555
K12 Sn36 3.812664 1_555
K12 Sn8 3.812664 1_555
K12 Li5 3.985134 1_555
K12 Li15 3.985134 1_555
K12 K26 4.268835 1_555
K12 K19 4.268835 1_555
K12 K5 4.498435 1_555
K13 Sn10 3.537907 1_565
K13 Sn50 3.537907 1_455
K13 Sn28 3.841020 1_555
K13 Sn51 3.841020 1_555
K13 Li13 3.919914 1_565
K13 Li3 3.919914 1_455
K13 Sn37 4.006554 1_555
K13 Sn39 4.006554 1_555
K13 Sn29 4.085853 1_455
K13 Sn35 4.085853 1_565
K13 K5 4.164055 1_555
K13 K17 4.505229 1_565
K13 K15 4.505229 1_455
K14 Sn14 3.542258 1_555
K14 Sn56 3.640940 1_555
K14 Sn3 3.666590 1_555
K14 Sn46 3.744210 1_555
K14 Sn18 3.793437 1_455
K14 Li1 3.873964 1_555
K14 Sn47 3.948253 1_555
K14 Sn33 3.964676 1_455
K14 K23 4.174168 1_455
K14 K5 4.283578 1_555
K14 K17 4.328273 1_555
K14 K26 4.679263 1_555
K15 Sn35 3.684132 1_665
K15 Sn13 3.695497 1_555
K15 Sn15 3.745196 1_555
K15 Sn26 3.795575 1_565
K15 Sn51 3.820081 1_655
K15 K9 4.251118 1_565
K15 K30 4.328273 1_555
K16 Sn58 3.684132 1_445
K16 Sn16 3.695497 1_555
K16 Sn1 3.745196 1_555
K16 Sn9 3.795575 1_545
K16 Sn44 3.820081 1_455
K16 K22 4.328273 1_555
K16 K25 4.505229 1_455
K17 Sn29 3.684132 1_445
K17 Sn14 3.695497 1_555
K17 Sn56 3.745196 1_555
K17 Sn33 3.795575 1_455
K17 Sn28 3.820081 1_545
K17 K9 4.251118 1_455
K18 Sn57 3.521627 1_555
K18 Sn30 3.533243 1_455
K18 Sn16 3.570858 1_555
K18 Sn55 3.595414 1_555
K18 Sn60 4.010051 1_555
K18 K6 4.242824 1_555
K18 K29 4.478532 1_555
K19 Sn32 3.741023 1_555
K19 Sn8 3.783248 1_555
K19 Sn20 3.802799 1_555
K19 Sn2 3.860845 1_555
K19 Sn60 3.956753 1_555
K19 Sn25 4.063731 1_555
K19 K6 4.083029 1_555
K19 Sn36 4.130957 1_555
K19 K2 4.242824 1_555
K19 K30 4.679263 1_555
K20 Sn0 3.521627 1_555
K20 Sn5 3.533243 1_565
K20 Sn12 3.570858 1_555
K20 Sn42 3.595414 1_555
K20 Sn49 4.010051 1_555
K20 K21 4.242824 1_555
K20 K28 4.478532 1_555
K21 Sn49 3.741023 1_555
K21 Sn63 3.783248 1_555
K21 Sn0 3.802799 1_555
K21 Sn38 3.860845 1_555
K21 Sn59 3.956753 1_556
K21 Sn46 4.063731 1_556
K21 K26 4.083029 1_556
K21 Sn54 4.130957 1_555
K21 K8 4.268835 1_555
K21 K4 4.679263 1_555
K22 Sn16 3.542258 1_555
K22 Sn1 3.640940 1_555
K22 Sn5 3.666590 1_555
K22 Sn25 3.744210 1_555
K22 Sn40 3.793437 1_545
K22 Li13 3.873964 1_556
K22 Sn41 3.948253 1_555
K22 Sn9 3.964676 1_545
K22 K28 4.174168 1_545
K22 K31 4.283578 1_555
K22 K6 4.679263 1_555
K23 Sn53 3.757663 1_555
K23 Sn3 3.795153 1_655
K23 Sn17 3.883417 1_555
K23 Sn33 3.968182 1_555
K23 Sn11 4.029098 1_654
K23 Sn56 4.064482 1_655
K23 Sn20 4.110873 1_555
K23 Sn62 4.128614 1_654
K23 K29 4.226125 1_654
K23 K9 4.463357 1_555
K24 Sn22 3.521627 1_555
K24 Sn52 3.533243 1_545
K24 Sn14 3.570858 1_555
K24 Sn10 3.595414 1_555
K24 Sn59 4.010051 1_555
K24 K26 4.242824 1_555
K24 K27 4.478532 1_555
K25 Sn55 3.537907 1_655
K25 Sn42 3.537907 1_545
K25 Sn44 3.841020 1_555
K25 Sn23 3.841020 1_555
K25 Li4 3.919914 1_545
K25 Li1 3.919914 1_655
K25 Sn21 4.006554 1_555
K25 Sn27 4.006554 1_555
K25 Sn58 4.085853 1_545
K25 Sn48 4.085853 1_655
K25 K3 4.164055 1_555
K25 K31 4.164055 1_555
K25 K7 4.505229 1_545
K26 Sn59 3.741023 1_555
K26 Sn36 3.783248 1_555
K26 Sn22 3.802799 1_555
K26 Sn46 3.860845 1_555
K26 Sn49 3.956753 1_554
K26 Sn38 4.063731 1_554
K26 Sn8 4.130957 1_555
K27 Sn7 3.757663 1_555
K27 Sn52 3.795153 1_545
K27 Sn31 3.883417 1_555
K27 Sn26 3.968182 1_555
K27 Sn43 4.029098 1_545
K27 Sn15 4.064482 1_545
K27 Sn22 4.110873 1_555
K27 Sn6 4.128614 1_545
K27 K30 4.174168 1_545
K27 K28 4.226125 1_545
K27 K9 4.463357 1_555
K28 Sn43 3.757663 1_555
K28 Sn5 3.795153 1_565
K28 Sn6 3.883417 1_555
K28 Sn9 3.968182 1_555
K28 Sn7 4.029098 1_565
K28 Sn1 4.064482 1_565
K28 Sn0 4.110873 1_555
K28 Sn31 4.128614 1_565
K29 Sn11 3.757663 1_555
K29 Sn30 3.795153 1_455
K29 Sn62 3.883417 1_555
K29 Sn24 3.968182 1_555
K29 Sn53 4.029098 1_456
K29 Sn19 4.064482 1_455
K29 Sn57 4.110873 1_555
K29 Sn17 4.128614 1_456
K29 K4 4.174168 1_455
K30 Sn13 3.542258 1_555
K30 Sn15 3.640940 1_555
K30 Sn52 3.666590 1_555
K30 Sn2 3.744210 1_555
K30 Sn34 3.793437 1_565
K30 Li4 3.873964 1_554
K30 Sn61 3.948253 1_555
K30 Sn26 3.964676 1_565
K31 Sn41 3.699823 1_555
K31 Sn42 3.708286 1_545
K31 Sn21 3.823422 1_555
K31 Sn40 3.831762 1_545
K31 Sn27 3.836407 1_555
K31 Sn5 4.098729 1_555
K31 K8 4.498435 1_555
Li0 Sn34 2.893315 1_556
Li0 Sn59 2.926409 1_556
Li0 Sn38 2.942036 1_555
Li0 Sn22 2.989560 1_556
Li0 Sn21 3.004272 1_555
Li0 Sn41 3.216310 1_555
Li1 Sn48 2.930795 1_555
Li1 Sn14 2.935245 1_555
Li1 Sn47 2.954478 1_555
Li1 Sn55 2.959094 1_555
Li1 Sn23 3.022864 1_455
Li1 Sn18 3.038725 1_455
Li2 Sn43 2.902533 1_555
Li2 Sn32 2.913241 1_555
Li2 Sn15 2.976703 1_555
Li2 Sn63 2.993383 1_555
Li2 Sn6 3.077739 1_555
Li2 Sn2 3.080381 1_555
Li3 Sn29 2.930795 1_555
Li3 Sn12 2.935245 1_555
Li3 Sn4 2.954478 1_555
Li3 Sn50 2.959094 1_555
Li3 Sn28 3.022864 1_655
Li3 Sn45 3.038725 1_655
Li4 Sn58 2.930795 1_555
Li4 Sn13 2.935245 1_556
Li4 Sn61 2.954478 1_556
Li4 Sn42 2.959094 1_555
Li4 Sn44 3.022864 1_565
Li4 Sn34 3.038725 1_566
Li5 Sn40 2.893315 1_554
Li5 Sn49 2.926409 1_554
Li5 Sn46 2.942036 1_555
Li5 Sn0 2.989560 1_554
Li5 Sn39 3.004272 1_555
Li5 Sn61 3.216310 1_555
Li6 Sn17 2.895154 1_555
Li6 Sn44 2.906409 1_554
Li6 Sn26 2.956946 1_555
Li6 Sn11 2.959775 1_654
Li6 Sn30 3.010568 1_554
Li6 Sn35 3.219115 1_655
Li7 Sn7 2.902533 1_555
Li7 Sn60 2.913241 1_555
Li7 Sn1 2.976703 1_555
Li7 Sn36 2.993383 1_555
Li7 Sn31 3.077739 1_555
Li7 Sn25 3.080381 1_555
Li8 Sn6 2.895154 1_555
Li8 Sn28 2.906409 1_555
Li8 Sn24 2.956946 1_555
Li8 Sn7 2.959775 1_565
Li8 Sn52 3.010568 1_555
Li8 Sn48 3.219115 1_565
Li9 Sn11 2.902533 1_555
Li9 Sn59 2.913241 1_556
Li9 Sn56 2.976703 1_556
Li9 Sn54 2.993383 1_555
Li9 Sn62 3.077739 1_555
Li9 Sn46 3.080381 1_556
Li10 Sn62 2.895154 1_555
Li10 Sn51 2.906409 1_556
Li10 Sn9 2.956946 1_555
Li10 Sn53 2.959775 1_456
Li10 Sn3 3.010568 1_556
Li10 Sn58 3.219115 1_455
Li11 Sn53 2.902533 1_555
Li11 Sn49 2.913241 1_554
Li11 Sn19 2.976703 1_554
Li11 Sn8 2.993383 1_555
Li11 Sn17 3.077739 1_555
Li11 Sn38 3.080381 1_554
Li12 Sn31 2.895154 1_555
Li12 Sn23 2.906409 1_555
Li12 Sn33 2.956946 1_555
Li12 Sn43 2.959775 1_545
Li12 Sn5 3.010568 1_555
Li12 Sn29 3.219115 1_545
Li13 Sn35 2.930795 1_555
Li13 Sn16 2.935245 1_554
Li13 Sn41 2.954478 1_554
Li13 Sn10 2.959094 1_555
Li13 Sn51 3.022864 1_545
Li13 Sn40 3.038725 1_544
Li14 Sn18 2.893315 1_555
Li14 Sn32 2.926409 1_555
Li14 Sn25 2.942036 1_555
Li14 Sn20 2.989560 1_555
Li14 Sn27 3.004272 1_555
Li14 Sn4 3.216310 1_555
Li15 Sn45 2.893315 1_555
Li15 Sn60 2.926409 1_555
Li15 Sn2 2.942036 1_555
Li15 Sn57 2.989560 1_555
Li15 Sn37 3.004272 1_555
Li15 Sn47 3.216310 1_555
Sn0 Sn9 2.999382 1_555
Sn0 Sn62 3.042798 1_555
Sn0 Sn46 3.043465 1_556
Sn0 Sn40 3.092667 1_555
Sn1 Sn55 3.034160 1_555
Sn1 Sn48 3.036557 1_555
Sn1 Sn60 3.067597 1_555
Sn1 Sn7 3.074868 1_555
Sn2 Sn52 3.039313 1_555
Sn2 Sn57 3.043465 1_555
Sn2 Sn37 3.084853 1_555
Sn2 Sn6 3.101911 1_555
Sn3 Sn39 3.017294 1_555
Sn3 Sn62 3.033230 1_554
Sn3 Sn46 3.039313 1_555
Sn3 Sn51 3.076484 1_555
Sn4 Sn50 3.045045 1_555
Sn4 Sn63 3.046796 1_555
Sn10 Sn59 3.031310 1_555
Sn10 Sn56 3.034160 1_555
Sn10 Sn41 3.045045 1_554
Sn10 Sn35 3.080025 1_555
Sn11 Sn16 3.030924 1_555
Sn11 Sn54 3.067936 1_555
Sn11 Sn35 3.071824 1_556
Sn11 Sn56 3.074868 1_556
Sn12 Sn63 3.027327 1_555
Sn12 Sn43 3.030924 1_555
Sn12 Sn29 3.048042 1_555
Sn12 Sn4 3.077378 1_555
Sn13 Sn8 3.027327 1_555
Sn13 Sn53 3.030924 1_555
Sn13 Sn58 3.048042 1_554
Sn13 Sn61 3.077378 1_555
Sn14 Sn36 3.027327 1_555
Sn14 Sn7 3.030924 1_555
Sn14 Sn48 3.048042 1_555
Sn14 Sn47 3.077378 1_555
Sn15 Sn50 3.034160 1_555
Sn15 Sn29 3.036557 1_555
Sn15 Sn32 3.067597 1_555
Sn15 Sn43 3.074868 1_555
Sn16 Sn54 3.027327 1_555
Sn16 Sn35 3.048042 1_556
Sn16 Sn41 3.077378 1_555
Sn17 Sn30 3.033230 1_554
Sn17 Sn22 3.042798 1_555
Sn17 Sn26 3.094362 1_555
Sn17 Sn38 3.101911 1_554
Sn18 Sn33 3.014360 1_555
Sn18 Sn27 3.074979 1_555
Sn18 Sn23 3.087693 1_555
Sn18 Sn20 3.092667 1_555
Sn19 Sn42 3.034160 1_555
Sn19 Sn58 3.036557 1_555
Sn19 Sn49 3.067597 1_555
Sn19 Sn53 3.074868 1_556
Sn20 Sn33 2.999382 1_555
Sn20 Sn31 3.042798 1_555
Sn20 Sn25 3.043465 1_555
Sn21 Sn30 3.017294 1_555
Sn21 Sn44 3.024018 1_555
Sn21 Sn34 3.074979 1_556
Sn21 Sn38 3.084853 1_555
Sn22 Sn26 2.999382 1_555
Sn22 Sn38 3.043465 1_554
Sn22 Sn34 3.092667 1_555
Sn23 Sn27 3.024018 1_555
Sn23 Sn5 3.076484 1_555
Sn23 Sn33 3.087637 1_555
Sn24 Sn57 2.999382 1_555
Sn24 Sn45 3.014360 1_555
Sn24 Sn28 3.087637 1_555
Sn24 Sn6 3.094362 1_555
Sn25 Sn5 3.039313 1_555
Sn25 Sn27 3.084853 1_555
Sn25 Sn31 3.101911 1_555
Sn26 Sn34 3.014360 1_555
Sn26 Sn44 3.087637 1_554
Sn27 Sn5 3.017294 1_555
Sn28 Sn37 3.024018 1_555
Sn28 Sn52 3.076484 1_555
Sn28 Sn45 3.087693 1_555
Sn29 Sn43 3.071824 1_555
Sn29 Sn50 3.080025 1_555
Sn30 Sn38 3.039313 1_555
Sn30 Sn44 3.076484 1_555
Sn31 Sn5 3.033230 1_555
Sn31 Sn33 3.094362 1_555
Sn32 Sn50 3.031310 1_555
Sn32 Sn63 3.068444 1_555
Sn32 Sn4 3.071500 1_555
Sn34 Sn44 3.087693 1_554
Sn35 Sn56 3.036557 1_555
Sn36 Sn47 3.046796 1_555
Sn36 Sn7 3.067936 1_555
Sn36 Sn60 3.068444 1_555
Sn37 Sn52 3.017294 1_555
Sn37 Sn45 3.074979 1_555
Sn39 Sn51 3.024018 1_555
Sn39 Sn40 3.074979 1_554
Sn39 Sn46 3.084853 1_555
Sn40 Sn9 3.014360 1_555
Sn40 Sn51 3.087693 1_556
Sn41 Sn54 3.046796 1_555
Sn41 Sn59 3.071500 1_556
Sn42 Sn49 3.031310 1_555
Sn42 Sn61 3.045045 1_556
Sn42 Sn58 3.080025 1_555
Sn43 Sn63 3.067936 1_555
Sn45 Sn57 3.092667 1_555
Sn46 Sn62 3.101911 1_554
Sn47 Sn55 3.045045 1_555
Sn47 Sn60 3.071500 1_555
Sn48 Sn7 3.071824 1_555
Sn48 Sn55 3.080025 1_555
Sn49 Sn8 3.068444 1_556
Sn49 Sn61 3.071500 1_556
Sn51 Sn9 3.087637 1_554
Sn52 Sn6 3.033230 1_555
Sn53 Sn8 3.067936 1_555
Sn53 Sn58 3.071824 1_554
Sn54 Sn59 3.068444 1_556
Sn55 Sn60 3.031310 1_555
Sn56 Sn59 3.067597 1_555
Sn57 Sn6 3.042798 1_555
Sn61 Sn8 3.046796 1_555
Sn62 Sn9 3.094362 1_555
