# generated using pymatgen
data_RbHO
_symmetry_space_group_name_H-M   'P 1'
_cell_length_a   4.17235912
_cell_length_b   4.15620205
_cell_length_c   5.95246420
_cell_angle_alpha   90.00000000
_cell_angle_beta   104.15530873
_cell_angle_gamma   90.00000000
_symmetry_Int_Tables_number   1
_chemical_formula_structural   RbHO
_chemical_formula_sum   'Rb2 H2 O2'
_cell_volume   100.08846641
_cell_formula_units_Z   2
loop_
 _symmetry_equiv_pos_site_id
 _symmetry_equiv_pos_as_xyz
  1  'x, y, z'
loop_
 _atom_site_type_symbol
 _atom_site_label
 _atom_site_symmetry_multiplicity
 _atom_site_fract_x
 _atom_site_fract_y
 _atom_site_fract_z
 _atom_site_occupancy
  Rb  Rb0  1  0.17333676  0.25000000  0.28828131  1
  Rb  Rb1  1  0.82666324  0.75000000  0.71171869  1
  H  H0  1  0.47784890  0.25000000  0.92234969  1
  H  H1  1  0.52215110  0.75000000  0.07765031  1
  O  O0  1  0.32904153  0.25000000  0.76989259  1
  O  O1  1  0.67095847  0.75000000  0.23010741  1
loop_
_geom_bond_atom_site_label_1
_geom_bond_atom_site_label_2
_geom_bond_distance
_geom_bond_site_symmetry_2
H0 O0 0.966155 1_555
H0 Rb0 2.777115 1_556
H0 Rb1 2.983463 1_545
H0 Rb1 2.983463 1_555
H0 Rb0 3.173899 1_656
H1 O1 0.966155 1_555
H1 Rb1 2.777115 1_554
H1 Rb0 2.983463 1_565
H1 Rb0 2.983463 1_555
H1 Rb1 3.173899 1_454
O0 Rb0 2.780204 1_555
O0 Rb1 2.911538 1_455
O0 Rb1 2.911538 1_445
O0 Rb1 3.016770 1_545
O0 Rb1 3.016770 1_555
O1 Rb1 2.780204 1_555
O1 Rb0 2.911538 1_655
O1 Rb0 2.911538 1_665
O1 Rb0 3.016770 1_555
O1 Rb0 3.016770 1_565
