# generated using pymatgen
data_SiO2
_symmetry_space_group_name_H-M   'P 1'
_cell_length_a   7.21293789
_cell_length_b   7.21293789
_cell_length_c   17.32623557
_cell_angle_alpha   90.00000000
_cell_angle_beta   90.00000000
_cell_angle_gamma   105.26847994
_symmetry_Int_Tables_number   1
_chemical_formula_structural   SiO2
_chemical_formula_sum   'Si16 O32'
_cell_volume   869.60489477
_cell_formula_units_Z   16
loop_
 _symmetry_equiv_pos_site_id
 _symmetry_equiv_pos_as_xyz
  1  'x, y, z'
loop_
 _atom_site_type_symbol
 _atom_site_label
 _atom_site_symmetry_multiplicity
 _atom_site_fract_x
 _atom_site_fract_y
 _atom_site_fract_z
 _atom_site_occupancy
  Si  Si0  1  0.66407195  0.87385816  0.79131502  1
  Si  Si1  1  0.87385816  0.66407195  0.20868498  1
  Si  Si2  1  0.12614184  0.33592805  0.70868498  1
  Si  Si3  1  0.33592805  0.12614184  0.29131502  1
  Si  Si4  1  0.66392968  0.91113215  0.12608746  1
  Si  Si5  1  0.91113215  0.66392968  0.87391254  1
  Si  Si6  1  0.08886785  0.33607032  0.37391254  1
  Si  Si7  1  0.33607032  0.08886785  0.62608746  1
  Si  Si8  1  0.23223458  0.94018534  0.13665387  1
  Si  Si9  1  0.94018534  0.23223458  0.86334613  1
  Si  Si10  1  0.05981466  0.76776542  0.36334613  1
  Si  Si11  1  0.76776542  0.05981466  0.63665387  1
  Si  Si12  1  0.22972305  0.77027695  0.75000000  1
  Si  Si13  1  0.77027695  0.22972305  0.25000000  1
  Si  Si14  1  0.96956321  0.96956321  0.00000000  1
  Si  Si15  1  0.03043679  0.03043679  0.50000000  1
  O  O0  1  0.71706749  0.69887159  0.83680371  1
  O  O1  1  0.69887159  0.71706749  0.16319629  1
  O  O2  1  0.30112841  0.28293251  0.66319629  1
  O  O3  1  0.28293251  0.30112841  0.33680371  1
  O  O4  1  0.74278835  0.89578549  0.70295289  1
  O  O5  1  0.89578549  0.74278835  0.29704711  1
  O  O6  1  0.10421451  0.25721165  0.79704711  1
  O  O7  1  0.25721165  0.10421451  0.20295289  1
  O  O8  1  0.43531206  0.82308790  0.79099317  1
  O  O9  1  0.82308790  0.43531206  0.20900683  1
  O  O10  1  0.17691210  0.56468794  0.70900683  1
  O  O11  1  0.56468794  0.17691210  0.29099317  1
  O  O12  1  0.74587573  0.07844172  0.83461719  1
  O  O13  1  0.07844172  0.74587573  0.16538281  1
  O  O14  1  0.92155828  0.25412427  0.66538281  1
  O  O15  1  0.25412427  0.92155828  0.33461719  1
  O  O16  1  0.76539150  0.95241769  0.04255851  1
  O  O17  1  0.95241769  0.76539150  0.95744149  1
  O  O18  1  0.04758231  0.23460850  0.45744149  1
  O  O19  1  0.23460850  0.04758231  0.54255851  1
  O  O20  1  0.43776312  0.89725556  0.11966882  1
  O  O21  1  0.89725556  0.43776312  0.88033118  1
  O  O22  1  0.10274444  0.56223688  0.38033118  1
  O  O23  1  0.56223688  0.10274444  0.61966882  1
  O  O24  1  0.77652663  0.07935097  0.18293317  1
  O  O25  1  0.07935097  0.77652663  0.81706683  1
  O  O26  1  0.92064903  0.22347337  0.31706683  1
  O  O27  1  0.22347337  0.92064903  0.68293317  1
  O  O28  1  0.14790091  0.01273315  0.05962027  1
  O  O29  1  0.01273315  0.14790091  0.94037973  1
  O  O30  1  0.98726685  0.85209909  0.44037973  1
  O  O31  1  0.85209909  0.98726685  0.55962027  1
loop_
_geom_bond_atom_site_label_1
_geom_bond_atom_site_label_2
_geom_bond_distance
_geom_bond_site_symmetry_2
O0 Si0 1.616932 1_555
O0 Si5 1.619289 1_555
O1 Si1 1.616932 1_555
O1 Si4 1.619289 1_555
O2 Si2 1.616932 1_555
O2 Si7 1.619289 1_555
O3 Si3 1.616932 1_555
O3 Si6 1.619289 1_555
O4 Si11 1.624665 1_565
O4 Si0 1.626037 1_555
O5 Si10 1.624665 1_655
O5 Si1 1.626037 1_555
O6 Si9 1.624665 1_455
O6 Si2 1.626037 1_555
O7 Si8 1.624665 1_545
O7 Si3 1.626037 1_555
O8 Si0 1.593264 1_555
O8 Si12 1.597202 1_555
O9 Si1 1.593264 1_555
O9 Si13 1.597202 1_555
O10 Si2 1.593264 1_555
O10 Si12 1.597202 1_555
O11 Si3 1.593264 1_555
O11 Si13 1.597202 1_555
O12 Si9 1.619810 1_555
O12 Si0 1.621729 1_545
O13 Si8 1.619810 1_555
O13 Si1 1.621729 1_455
O14 Si11 1.619810 1_555
O14 Si2 1.621729 1_655
O15 Si10 1.619810 1_555
O15 Si3 1.621729 1_565
O16 Si4 1.613689 1_555
O16 Si14 1.622307 1_555
O17 Si5 1.613689 1_555
O17 Si14 1.622307 1_556
O18 Si6 1.613689 1_555
O18 Si15 1.622307 1_555
O19 Si7 1.613689 1_555
O19 Si15 1.622307 1_555
O20 Si4 1.611711 1_555
O20 Si8 1.619247 1_555
O21 Si5 1.611711 1_555
O21 Si9 1.619247 1_555
O22 Si6 1.611711 1_555
O22 Si10 1.619247 1_555
O23 Si7 1.611711 1_555
O23 Si11 1.619247 1_555
O24 Si13 1.598272 1_555
O24 Si4 1.607134 1_545
O25 Si12 1.598272 1_555
O25 Si5 1.607134 1_455
O26 Si13 1.598272 1_555
O26 Si6 1.607134 1_655
O27 Si12 1.598272 1_555
O27 Si7 1.607134 1_565
O28 Si8 1.610256 1_545
O28 Si14 1.614851 1_445
O29 Si9 1.610256 1_455
O29 Si14 1.614851 1_446
O30 Si10 1.610256 1_655
O30 Si15 1.614851 1_665
O31 Si11 1.610256 1_565
O31 Si15 1.614851 1_665
