# generated using pymatgen
data_Ba(Ge3Pt)4
_symmetry_space_group_name_H-M   'P 1'
_cell_length_a   7.55422163
_cell_length_b   7.55422157
_cell_length_c   7.55422166
_cell_angle_alpha   109.47121536
_cell_angle_beta   109.47121527
_cell_angle_gamma   109.47123391
_symmetry_Int_Tables_number   1
_chemical_formula_structural   Ba(Ge3Pt)4
_chemical_formula_sum   'Ba1 Ge12 Pt4'
_cell_volume   331.85415545
_cell_formula_units_Z   1
loop_
 _symmetry_equiv_pos_site_id
 _symmetry_equiv_pos_as_xyz
  1  'x, y, z'
loop_
 _atom_site_type_symbol
 _atom_site_label
 _atom_site_symmetry_multiplicity
 _atom_site_fract_x
 _atom_site_fract_y
 _atom_site_fract_z
 _atom_site_occupancy
  Ba  Ba0  1  -0.00000000  0.00000000  -0.00000000  1
  Ge  Ge0  1  0.64317189  0.84757181  0.49074270  1
  Ge  Ge1  1  0.79559908  0.64317189  0.15242819  1
  Ge  Ge2  1  0.15242819  0.50925730  0.35682811  1
  Ge  Ge3  1  0.64317189  0.15242819  0.79559908  1
  Ge  Ge4  1  0.50925730  0.35682811  0.15242819  1
  Ge  Ge5  1  0.15242819  0.79559908  0.64317189  1
  Ge  Ge6  1  0.35682811  0.15242819  0.50925730  1
  Ge  Ge7  1  0.84757181  0.20439992  0.35682811  1
  Ge  Ge8  1  0.35682811  0.84757181  0.20439992  1
  Ge  Ge9  1  0.20439992  0.35682811  0.84757181  1
  Ge  Ge10  1  0.49074270  0.64317189  0.84757181  1
  Ge  Ge11  1  0.84757181  0.49074270  0.64317189  1
  Pt  Pt0  1  0.50000000  0.50000000  0.50000000  1
  Pt  Pt1  1  -0.00000000  0.00000000  0.50000000  1
  Pt  Pt2  1  -0.00000000  0.50000000  -0.00000000  1
  Pt  Pt3  1  0.50000000  0.00000000  -0.00000000  1
loop_
_geom_bond_atom_site_label_1
_geom_bond_atom_site_label_2
_geom_bond_distance
_geom_bond_site_symmetry_2
Ba0 Ge9 3.384658 1_554
Ba0 Ge7 3.384658 1_455
Ba0 Ge8 3.384659 1_545
Ba0 Ge1 3.384660 1_445
Ba0 Ge5 3.384661 1_544
Ba0 Ge3 3.384661 1_454
Ba0 Ge10 3.384664 1_444
Ba0 Ge4 3.384664 1_555
Ba0 Ge11 3.384664 1_444
Ba0 Ge2 3.384664 1_555
Ba0 Ge6 3.384664 1_555
Ba0 Ge0 3.384664 1_444
Ge0 Ge8 2.497734 1_555
Ge0 Pt1 2.519568 1_665
Ge0 Pt0 2.519575 1_555
Ge0 Ge3 2.659221 1_565
Ge1 Ge4 2.497729 1_555
Ge1 Pt1 2.519571 1_665
Ge1 Pt2 2.519579 1_655
Ge1 Ge10 2.659221 1_554
Ge2 Ge5 2.497729 1_555
Ge2 Pt2 2.519568 1_555
Ge2 Pt0 2.519576 1_555
Ge2 Ge7 2.659225 1_455
Ge3 Ge6 2.497729 1_555
Ge3 Pt2 2.519571 1_656
Ge3 Pt3 2.519578 1_556
Ge4 Pt3 2.519568 1_555
Ge4 Pt0 2.519576 1_555
Ge4 Ge9 2.659225 1_554
Ge5 Pt3 2.519571 1_566
Ge5 Pt1 2.519579 1_565
Ge6 Pt1 2.519568 1_555
Ge6 Pt0 2.519575 1_555
Ge6 Ge8 2.659225 1_545
Ge7 Pt3 2.519572 1_555
Ge7 Pt1 2.519572 1_655
Ge8 Pt2 2.519571 1_555
Ge8 Pt3 2.519572 1_565
Ge9 Pt1 2.519572 1_555
Ge9 Pt2 2.519572 1_556
Ge10 Ge9 2.497733 1_555
Ge10 Pt3 2.519568 1_566
Ge10 Pt0 2.519576 1_555
Ge11 Ge7 2.497734 1_555
Ge11 Pt2 2.519568 1_656
Ge11 Pt0 2.519576 1_555
Ge11 Ge5 2.659220 1_655
