# generated using pymatgen
data_NbP2S2Cl5
_symmetry_space_group_name_H-M   'P 1'
_cell_length_a   13.55571400
_cell_length_b   6.56110400
_cell_length_c   27.67611019
_cell_angle_alpha   79.99324379
_cell_angle_beta   90.00000000
_cell_angle_gamma   90.00000000
_symmetry_Int_Tables_number   1
_chemical_formula_structural   NbP2S2Cl5
_chemical_formula_sum   'Nb8 P16 S16 Cl40'
_cell_volume   2424.07915116
_cell_formula_units_Z   8
loop_
 _symmetry_equiv_pos_site_id
 _symmetry_equiv_pos_as_xyz
  1  'x, y, z'
loop_
 _atom_site_type_symbol
 _atom_site_label
 _atom_site_symmetry_multiplicity
 _atom_site_fract_x
 _atom_site_fract_y
 _atom_site_fract_z
 _atom_site_occupancy
  Nb  Nb0  1  0.29159200  0.75274300  0.47474600  1
  Nb  Nb1  1  0.61294400  0.01901200  0.29919600  1
  Nb  Nb2  1  0.70840800  0.24725700  0.52525400  1
  Nb  Nb3  1  0.11294400  0.98098800  0.20080400  1
  Nb  Nb4  1  0.79159200  0.24725700  0.02525400  1
  Nb  Nb5  1  0.20840800  0.75274300  0.97474600  1
  Nb  Nb6  1  0.38705600  0.98098800  0.70080400  1
  Nb  Nb7  1  0.88705600  0.01901200  0.79919600  1
  P  P0  1  0.92305400  0.53689500  0.38110100  1
  P  P1  1  0.34241200  0.67089700  0.90112500  1
  P  P2  1  0.91166200  0.24491600  0.70317800  1
  P  P3  1  0.06960100  0.93838300  0.35875800  1
  P  P4  1  0.08833800  0.75508400  0.29682200  1
  P  P5  1  0.84241200  0.32910300  0.59887500  1
  P  P6  1  0.56960100  0.06161700  0.14124200  1
  P  P7  1  0.43039900  0.93838300  0.85875800  1
  P  P8  1  0.93039900  0.06161700  0.64124200  1
  P  P9  1  0.57694600  0.53689500  0.88110100  1
  P  P10  1  0.07694600  0.46310500  0.61889900  1
  P  P11  1  0.42305400  0.46310500  0.11889900  1
  P  P12  1  0.58833800  0.24491600  0.20317800  1
  P  P13  1  0.65758800  0.32910300  0.09887500  1
  P  P14  1  0.15758800  0.67089700  0.40112500  1
  P  P15  1  0.41166200  0.75508400  0.79682200  1
  S  S0  1  0.96987800  0.54180600  0.30680600  1
  S  S1  1  0.04909200  0.44429100  0.42640300  1
  S  S2  1  0.71837300  0.38401900  0.16710100  1
  S  S3  1  0.92616300  0.86408400  0.38204600  1
  S  S4  1  0.07383700  0.13591600  0.61795400  1
  S  S5  1  0.57383700  0.86408400  0.88204600  1
  S  S6  1  0.03012200  0.45819400  0.69319400  1
  S  S7  1  0.54909200  0.55570900  0.07359700  1
  S  S8  1  0.53012200  0.54180600  0.80680600  1
  S  S9  1  0.28162700  0.61598100  0.83289900  1
  S  S10  1  0.95090800  0.55570900  0.57359700  1
  S  S11  1  0.42616300  0.13591600  0.11795400  1
  S  S12  1  0.21837300  0.61598100  0.33289900  1
  S  S13  1  0.78162700  0.38401900  0.66710100  1
  S  S14  1  0.46987800  0.45819400  0.19319400  1
  S  S15  1  0.45090800  0.44429100  0.92640300  1
  Cl  Cl0  1  0.86041500  0.11425800  0.50242500  1
  Cl  Cl1  1  0.52950600  0.13018700  0.72815800  1
  Cl  Cl2  1  0.90492500  0.40977700  0.06998300  1
  Cl  Cl3  1  0.36041500  0.88574200  0.99757500  1
  Cl  Cl4  1  0.24001600  0.42361400  0.51367200  1
  Cl  Cl5  1  0.75453500  0.25062500  0.79980000  1
  Cl  Cl6  1  0.78961600  0.83303500  0.75105200  1
  Cl  Cl7  1  0.13958500  0.88574200  0.49757500  1
  Cl  Cl8  1  0.25453500  0.74937500  0.70020000  1
  Cl  Cl9  1  0.10933300  0.83671600  0.03493300  1
  Cl  Cl10  1  0.48851600  0.72941600  0.67579300  1
  Cl  Cl11  1  0.47049400  0.86981300  0.27184200  1
  Cl  Cl12  1  0.39066700  0.83671600  0.53493300  1
  Cl  Cl13  1  0.97049400  0.13018700  0.22815800  1
  Cl  Cl14  1  0.51148400  0.27058400  0.32420700  1
  Cl  Cl15  1  0.18973500  0.05622100  0.91639800  1
  Cl  Cl16  1  0.31026500  0.05622100  0.41639800  1
  Cl  Cl17  1  0.98851600  0.27058400  0.82420700  1
  Cl  Cl18  1  0.89066700  0.16328400  0.96506700  1
  Cl  Cl19  1  0.75998400  0.57638600  0.48632800  1
  Cl  Cl20  1  0.28961600  0.16696500  0.74894800  1
  Cl  Cl21  1  0.74546500  0.25062500  0.29980000  1
  Cl  Cl22  1  0.21038400  0.16696500  0.24894800  1
  Cl  Cl23  1  0.02950600  0.86981300  0.77184200  1
  Cl  Cl24  1  0.71038400  0.83303500  0.25105200  1
  Cl  Cl25  1  0.68973500  0.94377900  0.58360200  1
  Cl  Cl26  1  0.74001600  0.57638600  0.98632800  1
  Cl  Cl27  1  0.40492500  0.59022300  0.43001700  1
  Cl  Cl28  1  0.60933300  0.16328400  0.46506700  1
  Cl  Cl29  1  0.09507500  0.59022300  0.93001700  1
  Cl  Cl30  1  0.63819400  0.80007300  0.37170200  1
  Cl  Cl31  1  0.24546500  0.74937500  0.20020000  1
  Cl  Cl32  1  0.63958500  0.11425800  0.00242500  1
  Cl  Cl33  1  0.36180600  0.19992700  0.62829800  1
  Cl  Cl34  1  0.01148400  0.72941600  0.17579300  1
  Cl  Cl35  1  0.13819400  0.19992700  0.12829800  1
  Cl  Cl36  1  0.81026500  0.94377900  0.08360200  1
  Cl  Cl37  1  0.25998400  0.42361400  0.01367200  1
  Cl  Cl38  1  0.86180600  0.80007300  0.87170200  1
  Cl  Cl39  1  0.59507500  0.40977700  0.56998300  1
loop_
_geom_bond_atom_site_label_1
_geom_bond_atom_site_label_2
_geom_bond_distance
_geom_bond_site_symmetry_2
Nb0 P14 2.849552 1_555
Nb1 P12 2.828619 1_555
Nb2 P5 2.849552 1_555
Nb3 P4 2.828619 1_555
Nb4 P13 2.849552 1_555
Nb5 P1 2.849552 1_555
Nb6 P15 2.828619 1_555
Nb7 P2 2.828619 1_555
P0 S1 2.143708 1_655
P0 S0 2.146822 1_555
P0 S3 2.151833 1_555
P1 S15 2.121689 1_555
P1 S9 2.147237 1_555
P1 P7 2.272083 1_555
P2 S6 2.116306 1_655
P2 S13 2.149509 1_555
P2 P8 2.272796 1_555
P3 S3 2.079559 1_455
P3 P4 2.272796 1_555
P4 S0 2.116306 1_455
P4 S12 2.149509 1_555
P5 S10 2.121689 1_555
P5 S13 2.147237 1_555
P5 P8 2.272083 1_555
P6 S11 2.079559 1_555
P7 S5 2.079559 1_555
P8 S4 2.079559 1_655
P9 S15 2.143708 1_555
P9 S8 2.146822 1_555
P9 S5 2.151833 1_555
P10 S10 2.143708 1_455
P10 S6 2.146822 1_555
P10 S4 2.151833 1_555
P11 S7 2.143708 1_555
P11 S14 2.146822 1_555
P11 S11 2.151833 1_555
P12 S14 2.116306 1_555
P12 S2 2.149509 1_555
P12 P6 2.272796 1_555
P13 S7 2.121689 1_555
P13 S2 2.147237 1_555
P13 P6 2.272083 1_555
P14 S1 2.121689 1_555
P14 S12 2.147237 1_555
P14 P3 2.272083 1_555
P15 S8 2.116306 1_555
P15 S9 2.149509 1_555
P15 P7 2.272796 1_555
Cl0 Nb2 2.366049 1_555
Cl1 Nb6 2.348989 1_545
Cl2 Nb4 2.342747 1_555
Cl3 Nb5 2.366049 1_555
Cl4 Nb0 2.346093 1_555
Cl5 Nb7 2.354892 1_555
Cl6 Nb7 2.360941 1_565
Cl7 Nb0 2.366049 1_555
Cl8 Nb6 2.354892 1_555
Cl9 Nb5 2.280555 1_554
Cl10 Nb6 2.343564 1_555
Cl11 Nb1 2.348989 1_565
Cl12 Nb0 2.280555 1_555
Cl13 Nb3 2.348989 1_645
Cl14 Nb1 2.343564 1_555
Cl15 Nb5 2.349263 1_545
Cl16 Nb0 2.349263 1_545
Cl17 Nb7 2.343564 1_555
Cl18 Nb4 2.280555 1_556
Cl19 Nb2 2.346093 1_555
Cl20 Nb6 2.360941 1_545
Cl21 Nb1 2.354892 1_555
Cl22 Nb3 2.360941 1_545
Cl23 Nb7 2.348989 1_465
Cl24 Nb1 2.360941 1_565
Cl25 Nb2 2.349263 1_565
Cl26 Nb4 2.346093 1_556
Cl27 Nb0 2.342747 1_555
Cl28 Nb2 2.280555 1_555
Cl29 Nb5 2.342747 1_555
Cl30 Nb1 2.281588 1_565
Cl31 Nb3 2.354892 1_555
Cl32 Nb4 2.366049 1_555
Cl33 Nb6 2.281588 1_545
Cl34 Nb3 2.343564 1_555
Cl35 Nb3 2.281588 1_545
Cl36 Nb4 2.349263 1_565
Cl37 Nb5 2.346093 1_554
Cl38 Nb7 2.281588 1_565
Cl39 Nb2 2.342747 1_555
