# generated using pymatgen
data_KP(HO2)2
_symmetry_space_group_name_H-M   'P 1'
_cell_length_a   7.32833400
_cell_length_b   7.69678600
_cell_length_c   7.74001300
_cell_angle_alpha   90.00000000
_cell_angle_beta   90.00000000
_cell_angle_gamma   90.00000000
_symmetry_Int_Tables_number   1
_chemical_formula_structural   KP(HO2)2
_chemical_formula_sum   'K4 P4 H8 O16'
_cell_volume   436.57248072
_cell_formula_units_Z   4
loop_
 _symmetry_equiv_pos_site_id
 _symmetry_equiv_pos_as_xyz
  1  'x, y, z'
loop_
 _atom_site_type_symbol
 _atom_site_label
 _atom_site_symmetry_multiplicity
 _atom_site_fract_x
 _atom_site_fract_y
 _atom_site_fract_z
 _atom_site_occupancy
  K  K0  1  0.16965500  0.25256400  0.31275000  1
  K  K1  1  0.33034500  0.74743600  0.81275000  1
  K  K2  1  0.83034500  0.75256400  0.18725000  1
  K  K3  1  0.66965500  0.24743600  0.68725000  1
  P  P0  1  0.32349500  0.73222900  0.26549700  1
  P  P1  1  0.17650500  0.26777100  0.76549700  1
  P  P2  1  0.82349500  0.76777100  0.73450300  1
  P  P3  1  0.67650500  0.23222900  0.23450300  1
  H  H0  1  0.61496700  0.64614000  0.56955700  1
  H  H1  1  0.38503300  0.14614000  0.93044300  1
  H  H2  1  0.43273400  0.52293800  0.42782500  1
  H  H3  1  0.93273400  0.97706200  0.57217500  1
  H  H4  1  0.11496700  0.85386000  0.43044300  1
  H  H5  1  0.88503300  0.35386000  0.06955700  1
  H  H6  1  0.06726600  0.47706200  0.92782500  1
  H  H7  1  0.56726600  0.02293800  0.07217500  1
  O  O0  1  0.78707000  0.39333500  0.14987400  1
  O  O1  1  0.92546800  0.84816800  0.56281100  1
  O  O2  1  0.69251800  0.90264300  0.80146200  1
  O  O3  1  0.71293000  0.60666500  0.64987400  1
  O  O4  1  0.57453200  0.15183200  0.06281100  1
  O  O5  1  0.30748200  0.40264300  0.69853800  1
  O  O6  1  0.19251800  0.59735700  0.19853800  1
  O  O7  1  0.03732000  0.18930200  0.64483900  1
  O  O8  1  0.07453200  0.34816800  0.93718900  1
  O  O9  1  0.42546800  0.65183200  0.43718900  1
  O  O10  1  0.21293000  0.89333500  0.35012600  1
  O  O11  1  0.53732000  0.31069800  0.35516100  1
  O  O12  1  0.28707000  0.10666500  0.85012600  1
  O  O13  1  0.96268000  0.68930200  0.85516100  1
  O  O14  1  0.46268000  0.81069800  0.14483900  1
  O  O15  1  0.80748200  0.09735700  0.30146200  1
loop_
_geom_bond_atom_site_label_1
_geom_bond_atom_site_label_2
_geom_bond_distance
_geom_bond_site_symmetry_2
K0 O11 2.750928 1_555
K0 O7 2.790055 1_555
K0 O10 2.798032 1_545
K0 O6 2.802173 1_555
K0 O15 2.911884 1_455
K1 O13 2.750928 1_455
K1 O14 2.790055 1_556
K1 O12 2.798032 1_565
K1 O5 2.802173 1_555
K1 O2 2.911884 1_555
K2 O14 2.750928 1_555
K2 O13 2.790055 1_554
K2 O0 2.798032 1_555
K2 O15 2.802173 1_565
K2 O6 2.911884 1_655
K3 O7 2.750928 1_655
K3 O11 2.790055 1_555
K3 O3 2.798032 1_555
K3 O2 2.802173 1_545
K3 O5 2.911884 1_555
H0 O3 0.997074 1_555
H1 O12 0.997074 1_555
H2 O9 0.996138 1_555
H3 O1 0.996138 1_555
H4 O10 0.997074 1_555
H5 O0 0.997074 1_555
H6 O8 0.996138 1_555
H7 O4 0.996138 1_555
O0 P3 1.619622 1_555
O1 P2 1.645396 1_555
O2 P2 1.505825 1_555
O3 P2 1.619622 1_555
O4 P3 1.645396 1_555
O5 P1 1.505825 1_555
O6 P0 1.505825 1_555
O7 P1 1.509077 1_555
O8 P1 1.645396 1_555
O9 P0 1.645396 1_555
O10 P0 1.619622 1_555
O11 P3 1.509077 1_555
O12 P1 1.619622 1_555
O13 P2 1.509077 1_555
O14 P0 1.509077 1_555
O15 P3 1.505825 1_555
