# generated using pymatgen
data_NaZn(HO)3
_symmetry_space_group_name_H-M   'P 1'
_cell_length_a   10.94096200
_cell_length_b   10.94096200
_cell_length_c   5.42079900
_cell_angle_alpha   90.00000000
_cell_angle_beta   90.00000000
_cell_angle_gamma   90.00000000
_symmetry_Int_Tables_number   1
_chemical_formula_structural   NaZn(HO)3
_chemical_formula_sum   'Na8 Zn8 H24 O24'
_cell_volume   648.89484423
_cell_formula_units_Z   8
loop_
 _symmetry_equiv_pos_site_id
 _symmetry_equiv_pos_as_xyz
  1  'x, y, z'
loop_
 _atom_site_type_symbol
 _atom_site_label
 _atom_site_symmetry_multiplicity
 _atom_site_fract_x
 _atom_site_fract_y
 _atom_site_fract_z
 _atom_site_occupancy
  Na  Na0  1  0.12599600  0.09145600  0.46506800  1
  Na  Na1  1  0.62599600  0.40854400  0.46506800  1
  Na  Na2  1  0.90854400  0.12599600  0.96506800  1
  Na  Na3  1  0.59145600  0.62599600  0.96506800  1
  Na  Na4  1  0.87400400  0.90854400  0.46506800  1
  Na  Na5  1  0.37400400  0.59145600  0.46506800  1
  Na  Na6  1  0.09145600  0.87400400  0.96506800  1
  Na  Na7  1  0.40854400  0.37400400  0.96506800  1
  Zn  Zn0  1  0.44577600  0.19651200  0.48275300  1
  Zn  Zn1  1  0.94577600  0.30348800  0.48275300  1
  Zn  Zn2  1  0.80348800  0.44577600  0.98275300  1
  Zn  Zn3  1  0.69651200  0.94577600  0.98275300  1
  Zn  Zn4  1  0.55422400  0.80348800  0.48275300  1
  Zn  Zn5  1  0.05422400  0.69651200  0.48275300  1
  Zn  Zn6  1  0.19651200  0.55422400  0.98275300  1
  Zn  Zn7  1  0.30348800  0.05422400  0.98275300  1
  H  H0  1  0.86659900  0.51171100  0.40286000  1
  H  H1  1  0.36659900  0.98828900  0.40286000  1
  H  H2  1  0.48828900  0.86659900  0.90286000  1
  H  H3  1  0.01171100  0.36659900  0.90286000  1
  H  H4  1  0.13340100  0.48828900  0.40286000  1
  H  H5  1  0.63340100  0.01171100  0.40286000  1
  H  H6  1  0.51171100  0.13340100  0.90286000  1
  H  H7  1  0.98828900  0.63340100  0.90286000  1
  H  H8  1  0.31052200  0.36546300  0.43938600  1
  H  H9  1  0.81052200  0.13453700  0.43938600  1
  H  H10  1  0.63453700  0.31052200  0.93938600  1
  H  H11  1  0.86546300  0.81052200  0.93938600  1
  H  H12  1  0.68947800  0.63453700  0.43938600  1
  H  H13  1  0.18947800  0.86546300  0.43938600  1
  H  H14  1  0.36546300  0.68947800  0.93938600  1
  H  H15  1  0.13453700  0.18947800  0.93938600  1
  H  H16  1  0.64060900  0.17651300  0.24652900  1
  H  H17  1  0.14060900  0.32348700  0.24652900  1
  H  H18  1  0.82348700  0.64060900  0.74652900  1
  H  H19  1  0.67651300  0.14060900  0.74652900  1
  H  H20  1  0.35939100  0.82348700  0.24652900  1
  H  H21  1  0.85939100  0.67651300  0.24652900  1
  H  H22  1  0.17651300  0.35939100  0.74652900  1
  H  H23  1  0.32348700  0.85939100  0.74652900  1
  O  O0  1  0.83672700  0.43051200  0.34880200  1
  O  O1  1  0.33672700  0.06948800  0.34880200  1
  O  O2  1  0.56948800  0.83672700  0.84880200  1
  O  O3  1  0.93051200  0.33672700  0.84880200  1
  O  O4  1  0.16327300  0.56948800  0.34880200  1
  O  O5  1  0.66327300  0.93051200  0.34880200  1
  O  O6  1  0.43051200  0.16327300  0.84880200  1
  O  O7  1  0.06948800  0.66327300  0.84880200  1
  O  O8  1  0.40017400  0.36987400  0.42824500  1
  O  O9  1  0.90017400  0.13012600  0.42824500  1
  O  O10  1  0.63012600  0.40017400  0.92824500  1
  O  O11  1  0.86987400  0.90017400  0.92824500  1
  O  O12  1  0.59982600  0.63012600  0.42824500  1
  O  O13  1  0.09982600  0.86987400  0.42824500  1
  O  O14  1  0.36987400  0.59982600  0.92824500  1
  O  O15  1  0.13012600  0.09982600  0.92824500  1
  O  O16  1  0.62352000  0.18678000  0.42435600  1
  O  O17  1  0.12352000  0.31322000  0.42435600  1
  O  O18  1  0.81322000  0.62352000  0.92435600  1
  O  O19  1  0.68678000  0.12352000  0.92435600  1
  O  O20  1  0.37648000  0.81322000  0.42435600  1
  O  O21  1  0.87648000  0.68678000  0.42435600  1
  O  O22  1  0.18678000  0.37648000  0.92435600  1
  O  O23  1  0.31322000  0.87648000  0.92435600  1
loop_
_geom_bond_atom_site_label_1
_geom_bond_atom_site_label_2
_geom_bond_distance
_geom_bond_site_symmetry_2
Na0 O1 2.402245 1_555
Na0 O17 2.436478 1_555
Na0 O13 2.449317 1_545
Na0 O15 2.512865 1_555
Na0 O9 2.514608 1_455
Na1 O0 2.402245 1_555
Na1 O16 2.436478 1_555
Na1 O12 2.449317 1_555
Na1 O10 2.512865 1_555
Na1 O8 2.514608 1_555
Na2 O3 2.402245 1_555
Na2 O19 2.436478 1_555
Na2 O15 2.449317 1_655
Na2 O9 2.512865 1_556
Na2 O11 2.514608 1_545
Na3 O2 2.402245 1_555
Na3 O18 2.436478 1_555
Na3 O14 2.449317 1_555
Na3 O12 2.512865 1_556
Na3 O10 2.514608 1_555
Na4 O5 2.402245 1_555
Na4 O21 2.436478 1_555
Na4 O9 2.449317 1_565
Na4 O11 2.512865 1_555
Na4 O13 2.514608 1_655
Na5 O4 2.402245 1_555
Na5 O20 2.436478 1_555
Na5 O8 2.449317 1_555
Na5 O14 2.512865 1_555
Na5 O12 2.514608 1_555
Na6 O7 2.402245 1_555
Na6 O23 2.436478 1_555
Na6 O11 2.449317 1_455
Na6 O13 2.512865 1_556
Na6 O15 2.514608 1_565
Na7 O6 2.402245 1_555
Na7 O22 2.436478 1_555
Na7 O10 2.449317 1_555
Na7 O8 2.512865 1_556
Na7 O14 2.514608 1_555
H0 O0 0.990926 1_555
H1 O1 0.990926 1_565
H2 O2 0.990926 1_555
H3 O3 0.990926 1_455
H4 O4 0.990926 1_555
H5 O5 0.990926 1_545
H6 O6 0.990926 1_555
H7 O7 0.990926 1_655
H8 O8 0.983921 1_555
H9 O9 0.983921 1_555
H10 O10 0.983921 1_555
H11 O11 0.983921 1_555
H12 O12 0.983921 1_555
H13 O13 0.983921 1_555
H14 O14 0.983921 1_555
H15 O15 0.983921 1_555
H16 O16 0.988334 1_555
H17 O17 0.988334 1_555
H18 O18 0.988334 1_555
H19 O19 0.988334 1_555
H20 O20 0.988334 1_555
H21 O21 0.988334 1_555
H22 O22 0.988334 1_555
H23 O23 0.988334 1_555
O0 Zn1 1.970327 1_555
O0 Zn2 2.024229 1_554
O1 Zn0 1.970327 1_555
O1 Zn7 2.024229 1_554
O2 Zn3 1.970327 1_555
O2 Zn4 2.024229 1_555
O3 Zn2 1.970327 1_555
O3 Zn1 2.024229 1_555
O4 Zn5 1.970327 1_555
O4 Zn6 2.024229 1_554
O5 Zn4 1.970327 1_555
O5 Zn3 2.024229 1_554
O6 Zn7 1.970327 1_555
O6 Zn0 2.024229 1_555
O7 Zn6 1.970327 1_555
O7 Zn5 2.024229 1_555
O8 Zn0 1.983403 1_555
O9 Zn1 1.983403 1_555
O10 Zn2 1.983403 1_555
O11 Zn3 1.983403 1_555
O12 Zn4 1.983403 1_555
O13 Zn5 1.983403 1_555
O14 Zn6 1.983403 1_555
O15 Zn7 1.983403 1_555
O16 Zn0 1.973162 1_555
O17 Zn1 1.973162 1_455
O18 Zn2 1.973162 1_555
O19 Zn3 1.973162 1_545
O20 Zn4 1.973162 1_555
O21 Zn5 1.973162 1_655
O22 Zn6 1.973162 1_555
O23 Zn7 1.973162 1_565
