# generated using pymatgen
data_K17In41
_symmetry_space_group_name_H-M   'P 1'
_cell_length_a   17.34702781
_cell_length_b   17.34702781
_cell_length_c   17.34702781
_cell_angle_alpha   60.00000000
_cell_angle_beta   60.00000000
_cell_angle_gamma   60.00000000
_symmetry_Int_Tables_number   1
_chemical_formula_structural   K17In41
_chemical_formula_sum   'K34 In82'
_cell_volume   3691.13752560
_cell_formula_units_Z   2
loop_
 _symmetry_equiv_pos_site_id
 _symmetry_equiv_pos_as_xyz
  1  'x, y, z'
loop_
 _atom_site_type_symbol
 _atom_site_label
 _atom_site_symmetry_multiplicity
 _atom_site_fract_x
 _atom_site_fract_y
 _atom_site_fract_z
 _atom_site_occupancy
  K  K0  1  0.40213700  0.40213700  0.40213700  1
  K  K1  1  0.87834900  0.24552300  0.63060500  1
  K  K2  1  0.24552300  0.87834900  0.63060500  1
  K  K3  1  0.87834900  0.63060500  0.24552300  1
  K  K4  1  0.37165100  0.00447700  0.61939500  1
  K  K5  1  0.87834900  0.24552300  0.24552300  1
  K  K6  1  0.40213700  0.79359000  0.40213700  1
  K  K7  1  0.24552300  0.63060500  0.87834900  1
  K  K8  1  0.75000000  0.75000000  0.75000000  1
  K  K9  1  0.40213700  0.40213700  0.79359000  1
  K  K10  1  0.45641000  0.84786300  0.84786300  1
  K  K11  1  0.00447700  0.37165100  0.61939500  1
  K  K12  1  0.00447700  0.61939500  0.00447700  1
  K  K13  1  0.24552300  0.87834900  0.24552300  1
  K  K14  1  0.84786300  0.45641000  0.84786300  1
  K  K15  1  0.00447700  0.37165100  0.00447700  1
  K  K16  1  0.84786300  0.84786300  0.84786300  1
  K  K17  1  0.37165100  0.00447700  0.00447700  1
  K  K18  1  0.63060500  0.24552300  0.24552300  1
  K  K19  1  0.84786300  0.84786300  0.45641000  1
  K  K20  1  0.37165100  0.61939500  0.00447700  1
  K  K21  1  0.00447700  0.00447700  0.61939500  1
  K  K22  1  0.63060500  0.87834900  0.24552300  1
  K  K23  1  0.00447700  0.00447700  0.37165100  1
  K  K24  1  0.24552300  0.24552300  0.63060500  1
  K  K25  1  0.61939500  0.00447700  0.37165100  1
  K  K26  1  0.61939500  0.00447700  0.00447700  1
  K  K27  1  0.24552300  0.24552300  0.87834900  1
  K  K28  1  0.63060500  0.24552300  0.87834900  1
  K  K29  1  0.61939500  0.37165100  0.00447700  1
  K  K30  1  0.24552300  0.63060500  0.24552300  1
  K  K31  1  0.50000000  0.50000000  0.50000000  1
  K  K32  1  0.00447700  0.61939500  0.37165100  1
  K  K33  1  0.79359000  0.40213700  0.40213700  1
  In  In0  1  0.61731800  0.96808500  0.79727900  1
  In  In1  1  0.04726400  0.22446800  0.86413400  1
  In  In2  1  0.08683200  0.43406900  0.73954900  1
  In  In3  1  0.51045100  0.16316800  0.51045100  1
  In  In4  1  0.02553200  0.20273600  0.38586600  1
  In  In5  1  0.08683200  0.73954900  0.73954900  1
  In  In6  1  0.45272100  0.28191500  0.63268200  1
  In  In7  1  0.45272100  0.63268200  0.63268200  1
  In  In8  1  0.08683200  0.73954900  0.43406900  1
  In  In9  1  0.38586600  0.38586600  0.02553200  1
  In  In10  1  0.86413400  0.04726400  0.86413400  1
  In  In11  1  0.22446800  0.04726400  0.86413400  1
  In  In12  1  0.63268200  0.45272100  0.28191500  1
  In  In13  1  0.61731800  0.79727900  0.61731800  1
  In  In14  1  0.04726400  0.86413400  0.86413400  1
  In  In15  1  0.86413400  0.22446800  0.86413400  1
  In  In16  1  0.61731800  0.61731800  0.79727900  1
  In  In17  1  0.43406900  0.73954900  0.73954900  1
  In  In18  1  0.79727900  0.61731800  0.96808500  1
  In  In19  1  0.16929900  0.16929900  0.49210300  1
  In  In20  1  0.96808500  0.61731800  0.79727900  1
  In  In21  1  0.81593100  0.51045100  0.16316800  1
  In  In22  1  0.81593100  0.16316800  0.51045100  1
  In  In23  1  0.73954900  0.08683200  0.43406900  1
  In  In24  1  0.63268200  0.63268200  0.28191500  1
  In  In25  1  0.22446800  0.86413400  0.04726400  1
  In  In26  1  0.79727900  0.96808500  0.61731800  1
  In  In27  1  0.20273600  0.02553200  0.38586600  1
  In  In28  1  0.38586600  0.38586600  0.20273600  1
  In  In29  1  0.96808500  0.79727900  0.61731800  1
  In  In30  1  0.04726400  0.86413400  0.22446800  1
  In  In31  1  0.20273600  0.38586600  0.02553200  1
  In  In32  1  0.00000000  0.00000000  0.00000000  1
  In  In33  1  0.38586600  0.20273600  0.02553200  1
  In  In34  1  0.38586600  0.20273600  0.38586600  1
  In  In35  1  0.51045100  0.51045100  0.81593100  1
  In  In36  1  0.28191500  0.63268200  0.63268200  1
  In  In37  1  0.43406900  0.08683200  0.73954900  1
  In  In38  1  0.73954900  0.43406900  0.73954900  1
  In  In39  1  0.51045100  0.16316800  0.81593100  1
  In  In40  1  0.16316800  0.81593100  0.51045100  1
  In  In41  1  0.38586600  0.02553200  0.20273600  1
  In  In42  1  0.28191500  0.63268200  0.45272100  1
  In  In43  1  0.86413400  0.22446800  0.04726400  1
  In  In44  1  0.61731800  0.61731800  0.96808500  1
  In  In45  1  0.63268200  0.28191500  0.45272100  1
  In  In46  1  0.51045100  0.81593100  0.16316800  1
  In  In47  1  0.22446800  0.86413400  0.86413400  1
  In  In48  1  0.16316800  0.51045100  0.51045100  1
  In  In49  1  0.08070100  0.75789700  0.08070100  1
  In  In50  1  0.73954900  0.73954900  0.43406900  1
  In  In51  1  0.73954900  0.43406900  0.08683200  1
  In  In52  1  0.51045100  0.81593100  0.51045100  1
  In  In53  1  0.49210300  0.16929900  0.16929900  1
  In  In54  1  0.02553200  0.38586600  0.20273600  1
  In  In55  1  0.61731800  0.96808500  0.61731800  1
  In  In56  1  0.43406900  0.73954900  0.08683200  1
  In  In57  1  0.25000000  0.25000000  0.25000000  1
  In  In58  1  0.20273600  0.38586600  0.38586600  1
  In  In59  1  0.16929900  0.49210300  0.16929900  1
  In  In60  1  0.73954900  0.08683200  0.73954900  1
  In  In61  1  0.45272100  0.63268200  0.28191500  1
  In  In62  1  0.16316800  0.51045100  0.81593100  1
  In  In63  1  0.81593100  0.51045100  0.51045100  1
  In  In64  1  0.02553200  0.38586600  0.38586600  1
  In  In65  1  0.75789700  0.08070100  0.08070100  1
  In  In66  1  0.08070100  0.08070100  0.08070100  1
  In  In67  1  0.16929900  0.16929900  0.16929900  1
  In  In68  1  0.63268200  0.45272100  0.63268200  1
  In  In69  1  0.08070100  0.08070100  0.75789700  1
  In  In70  1  0.73954900  0.73954900  0.08683200  1
  In  In71  1  0.96808500  0.61731800  0.61731800  1
  In  In72  1  0.86413400  0.04726400  0.22446800  1
  In  In73  1  0.86413400  0.86413400  0.22446800  1
  In  In74  1  0.51045100  0.51045100  0.16316800  1
  In  In75  1  0.28191500  0.45272100  0.63268200  1
  In  In76  1  0.86413400  0.86413400  0.04726400  1
  In  In77  1  0.63268200  0.63268200  0.45272100  1
  In  In78  1  0.79727900  0.61731800  0.61731800  1
  In  In79  1  0.38586600  0.02553200  0.38586600  1
  In  In80  1  0.61731800  0.79727900  0.96808500  1
  In  In81  1  0.63268200  0.28191500  0.63268200  1
loop_
_geom_bond_atom_site_label_1
_geom_bond_atom_site_label_2
_geom_bond_distance
_geom_bond_site_symmetry_2
K0 K30 4.039247 1_555
K0 K24 4.039247 1_555
K0 K18 4.039247 1_555
K1 K21 3.680788 1_655
K1 K11 3.680788 1_655
K1 K33 4.039238 1_555
K1 K28 4.297622 1_555
K2 K21 3.680788 1_565
K2 K4 3.680788 1_565
K2 K6 4.039238 1_555
K2 K7 4.297622 1_555
K3 K32 3.680788 1_655
K3 K33 4.039238 1_555
K7 K9 4.039238 1_555
K10 K4 4.039238 1_565
K10 K20 4.039238 1_556
K10 K17 4.039252 1_566
K11 K24 3.680788 1_555
K11 K14 4.039238 1_455
K11 K32 4.297622 1_555
K12 K3 3.680788 1_455
K12 K7 3.680788 1_554
K12 K16 4.039247 1_454
K12 K15 4.297622 1_555
K13 K23 3.680788 1_565
K13 K17 3.680788 1_565
K13 K6 4.039252 1_555
K13 K30 4.297622 1_555
K14 K29 4.039238 1_556
K14 K15 4.039252 1_656
K15 K27 3.680788 1_554
K15 K5 3.680788 1_455
K16 K26 4.039247 1_566
K16 K21 4.039247 1_665
K17 K27 3.680788 1_554
K17 K26 4.297622 1_555
K18 K29 3.680788 1_555
K18 K25 3.680788 1_555
K18 K5 4.297622 1_555
K19 K25 4.039238 1_565
K19 K32 4.039238 1_655
K19 K23 4.039252 1_665
K20 K30 3.680788 1_555
K20 K7 3.680788 1_554
K20 K29 4.297622 1_555
K21 K23 4.297622 1_555
K22 K26 3.680788 1_565
K22 K25 3.680788 1_565
K22 K6 4.039238 1_555
K22 K3 4.297622 1_555
K23 K5 3.680788 1_455
K24 K4 3.680788 1_555
K24 K27 4.297622 1_555
K25 K4 4.297622 1_555
K26 K28 3.680788 1_554
K27 K9 4.039252 1_555
K28 K29 3.680788 1_556
K28 K9 4.039238 1_555
K30 K32 3.680788 1_555
K33 K5 4.039252 1_555
In0 In80 2.962976 1_555
In0 In39 3.035646 1_565
In0 In26 3.121788 1_555
In0 In55 3.121788 1_555
In0 In60 3.150142 1_565
In0 In37 3.150157 1_565
In0 K8 3.576295 1_555
In0 K16 3.801615 1_555
In0 K10 3.801630 1_555
In0 K17 3.967352 1_566
In0 K26 3.967352 1_566
In1 In11 3.073963 1_555
In1 In43 3.176761 1_456
In1 In15 3.176761 1_455
In1 In2 3.393568 1_555
In1 In66 3.468854 1_556
In1 In69 3.468854 1_555
In1 K14 3.762492 1_455
In1 K27 3.770491 1_555
In1 K24 3.770491 1_555
In1 K15 3.938327 1_556
In1 K11 3.938327 1_555
In2 In75 3.035646 1_555
In2 In71 3.150148 1_455
In2 In20 3.150157 1_455
In2 In48 3.244896 1_555
In2 In62 3.244924 1_555
In2 K14 3.492512 1_455
In2 K24 3.717820 1_555
In2 K27 3.717830 1_555
In2 K11 3.786695 1_555
In2 K15 3.786710 1_556
In3 In55 3.035639 1_545
In3 In45 3.150142 1_555
In3 In6 3.150142 1_555
In3 In37 3.244896 1_555
In3 In34 3.393583 1_555
In3 K0 3.492512 1_555
In3 K4 3.717834 1_555
In3 K25 3.717834 1_555
In3 K24 3.786708 1_555
In3 K18 3.786708 1_555
In4 In54 3.176761 1_555
In4 In64 3.176761 1_555
In4 In67 3.468854 1_555
In4 K33 3.762492 1_455
In4 K21 3.770491 1_555
In4 K23 3.770491 1_555
In4 K1 3.938327 1_455
In4 K5 3.938327 1_455
In5 In62 3.244896 1_555
In5 K16 3.492512 1_455
In5 K7 3.717834 1_555
In5 K2 3.717834 1_555
In5 K12 3.786708 1_556
In5 K21 3.786708 1_565
In6 In75 2.962976 1_555
In6 In81 3.121788 1_555
In6 K31 3.576295 1_555
In6 K0 3.801615 1_555
In6 K9 3.801630 1_555
In6 K24 3.967352 1_555
In6 K27 3.967352 1_555
In7 In77 3.121788 1_555
In7 K31 3.576295 1_555
In7 K6 3.801616 1_555
In7 K9 3.801616 1_555
In7 K7 3.967352 1_555
In7 K2 3.967352 1_555
In8 K19 3.492512 1_455
In8 K30 3.717820 1_555
In8 K13 3.717830 1_555
In8 K32 3.786695 1_555
In8 K23 3.786710 1_565
In9 K9 3.762485 1_554
In9 K20 3.770491 1_555
In9 K29 3.770491 1_555
In9 K28 3.938327 1_554
In9 K7 3.938327 1_554
In10 In15 3.073963 1_555
In10 In76 3.176761 1_546
In10 In14 3.176761 1_645
In10 In60 3.393583 1_555
In10 In65 3.468854 1_556
In10 In69 3.468854 1_655
In10 K16 3.762502 1_545
In10 K28 3.770491 1_555
In10 K1 3.770491 1_555
In10 K21 3.938327 1_655
In10 K26 3.938327 1_556
In11 In25 3.176761 1_546
In11 In47 3.176761 1_545
In11 In37 3.393568 1_555
In11 In66 3.468854 1_556
In11 In69 3.468854 1_555
In11 K10 3.762492 1_545
In11 K27 3.770491 1_555
In11 K24 3.770491 1_555
In11 K17 3.938327 1_556
In11 K4 3.938327 1_555
In12 In45 2.962976 1_555
In12 In51 3.035646 1_555
In12 In61 3.121788 1_555
In12 In24 3.121788 1_555
In12 In74 3.150142 1_555
In12 In21 3.150157 1_555
In12 K31 3.576295 1_555
In12 K0 3.801615 1_555
In12 K33 3.801630 1_555
In12 K18 3.967352 1_555
In12 K5 3.967352 1_555
In13 In55 2.962976 1_555
In13 In52 3.035631 1_555
In13 In78 3.121788 1_555
In13 In16 3.121788 1_555
In13 In17 3.150157 1_555
In13 In50 3.150157 1_555
In13 K8 3.576295 1_555
In13 K10 3.801616 1_555
In13 K19 3.801616 1_555
In13 K4 3.967352 1_565
In13 K25 3.967352 1_565
In14 In47 3.073963 1_555
In14 In76 3.176761 1_456
In14 In5 3.393583 1_555
In14 In49 3.468854 1_556
In14 In69 3.468854 1_565
In14 K16 3.762502 1_455
In14 K7 3.770491 1_555
In14 K2 3.770491 1_555
In14 K12 3.938327 1_556
In14 K21 3.938327 1_565
In15 In43 3.176761 1_556
In15 In38 3.393575 1_555
In15 In69 3.468854 1_655
In15 In65 3.468854 1_556
In15 K14 3.762485 1_555
In15 K28 3.770491 1_555
In15 K1 3.770491 1_555
In15 K11 3.938327 1_655
In15 K29 3.938327 1_556
In16 In44 2.962976 1_555
In16 In35 3.035631 1_555
In16 In78 3.121788 1_555
In16 In17 3.150157 1_555
In16 In38 3.150157 1_555
In16 K8 3.576295 1_555
In16 K10 3.801616 1_555
In16 K14 3.801616 1_555
In16 K20 3.967352 1_556
In16 K29 3.967352 1_556
In17 In7 3.035631 1_555
In17 In52 3.244896 1_555
In17 In35 3.244896 1_555
In17 In47 3.393575 1_555
In17 K10 3.492512 1_555
In17 K7 3.717819 1_555
In17 K2 3.717819 1_555
In17 K20 3.786708 1_556
In17 K4 3.786708 1_565
In18 In20 2.962976 1_555
In18 In21 3.035646 1_556
In18 In80 3.121788 1_555
In18 In44 3.121788 1_555
In18 In70 3.150142 1_556
In18 In51 3.150157 1_556
In18 K8 3.576295 1_555
In18 K16 3.801615 1_555
In18 K14 3.801630 1_555
In18 K15 3.967352 1_656
In18 K12 3.967352 1_656
In19 In57 3.429096 1_555
In19 In4 3.468854 1_555
In19 In27 3.468854 1_555
In19 In79 3.468854 1_555
In19 In64 3.468854 1_555
In19 In58 3.468854 1_555
In19 In34 3.468854 1_555
In19 K21 4.095555 1_555
In19 K4 4.095555 1_555
In19 K11 4.095555 1_555
In19 K2 4.167890 1_545
In19 K1 4.167890 1_455
In19 K24 4.167890 1_555
In20 In62 3.035646 1_655
In20 In29 3.121788 1_555
In20 In71 3.121788 1_555
In20 In5 3.150142 1_655
In20 K8 3.576295 1_555
In20 K16 3.801615 1_555
In20 K14 3.801630 1_555
In20 K15 3.967352 1_656
In20 K12 3.967352 1_656
In21 In24 3.150148 1_555
In21 In70 3.244896 1_555
In21 In51 3.244924 1_555
In21 In54 3.393568 1_655
In21 K33 3.492512 1_555
In21 K12 3.717820 1_655
In21 K15 3.717830 1_655
In21 K3 3.786695 1_555
In21 K5 3.786710 1_555
In22 In26 3.035646 1_545
In22 In81 3.150148 1_555
In22 In45 3.150157 1_555
In22 In60 3.244896 1_555
In22 In23 3.244924 1_555
In22 In4 3.393568 1_655
In22 K33 3.492512 1_555
In22 K21 3.717820 1_655
In22 K23 3.717830 1_655
In22 K1 3.786695 1_555
In22 K5 3.786710 1_555
In23 In45 3.035646 1_555
In23 In55 3.150148 1_545
In23 In26 3.150157 1_545
In23 In3 3.244896 1_555
In23 In72 3.393568 1_555
In23 K19 3.492512 1_545
In23 K18 3.717820 1_555
In23 K5 3.717830 1_555
In23 K25 3.786695 1_555
In23 K23 3.786710 1_655
In24 In77 2.962976 1_555
In24 In70 3.035639 1_555
In24 In61 3.121788 1_555
In24 In46 3.150148 1_555
In24 K31 3.576295 1_555
In24 K6 3.801623 1_555
In24 K33 3.801623 1_555
In24 K22 3.967352 1_555
In24 K3 3.967352 1_555
In25 In30 3.073963 1_555
In25 In47 3.176761 1_554
In25 In56 3.393568 1_555
In25 In66 3.468854 1_565
In25 In49 3.468854 1_555
In25 K10 3.762492 1_554
In25 K13 3.770491 1_555
In25 K30 3.770491 1_555
In25 K17 3.938327 1_565
In25 K20 3.938327 1_555
In26 In29 2.962976 1_555
In26 In55 3.121788 1_555
In26 In60 3.150142 1_565
In26 K8 3.576295 1_555
In26 K16 3.801615 1_555
In26 K19 3.801630 1_555
In26 K23 3.967352 1_665
In26 K21 3.967352 1_665
In27 In4 3.073963 1_555
In27 In79 3.176761 1_555
In27 In41 3.176761 1_555
In27 In40 3.393568 1_545
In27 In67 3.468854 1_555
In27 K6 3.762492 1_545
In27 K21 3.770491 1_555
In27 K23 3.770491 1_555
In27 K2 3.938327 1_545
In27 K13 3.938327 1_545
In28 In9 3.073963 1_555
In28 In34 3.176761 1_555
In28 In58 3.176761 1_555
In28 In74 3.393583 1_555
In28 In59 3.468854 1_555
In28 In53 3.468854 1_555
In28 K0 3.762502 1_555
In28 K20 3.770491 1_555
In28 K29 3.770491 1_555
In28 K30 3.938327 1_555
In28 K18 3.938327 1_555
In29 In40 3.035646 1_655
In29 In71 3.121788 1_555
In29 In5 3.150142 1_655
In29 In8 3.150157 1_655
In29 K8 3.576295 1_555
In29 K16 3.801615 1_555
In29 K19 3.801630 1_555
In29 K23 3.967352 1_665
In29 K21 3.967352 1_665
In30 In72 3.176761 1_465
In30 In73 3.176761 1_455
In30 In8 3.393568 1_555
In30 In66 3.468854 1_565
In30 In49 3.468854 1_555
In30 K19 3.762492 1_455
In30 K13 3.770491 1_555
In30 K30 3.770491 1_555
In30 K23 3.938327 1_565
In30 K32 3.938327 1_555
In31 In54 3.073963 1_555
In31 In9 3.176761 1_555
In31 In33 3.176761 1_555
In31 In62 3.393568 1_554
In31 In59 3.468854 1_555
In31 In67 3.468854 1_555
In31 K9 3.762492 1_554
In31 K12 3.770491 1_555
In31 K15 3.770491 1_555
In31 K7 3.938327 1_554
In31 K27 3.938327 1_554
In32 In66 3.429096 1_555
In32 In69 3.429096 1_554
In32 In49 3.429096 1_545
In32 In65 3.429096 1_455
In33 In41 3.073963 1_555
In33 In9 3.176761 1_555
In33 In39 3.393568 1_554
In33 In53 3.468854 1_555
In33 In67 3.468854 1_555
In33 K9 3.762492 1_554
In33 K26 3.770491 1_555
In33 K17 3.770491 1_555
In33 K28 3.938327 1_554
In33 K27 3.938327 1_554
In34 In79 3.073963 1_555
In34 In58 3.176761 1_555
In34 In53 3.468854 1_555
In34 K0 3.762502 1_555
In34 K4 3.770491 1_555
In34 K25 3.770491 1_555
In34 K24 3.938327 1_555
In34 K18 3.938327 1_555
In35 In7 3.150157 1_555
In35 In68 3.150157 1_555
In35 In38 3.244896 1_555
In35 In9 3.393575 1_556
In35 K9 3.492512 1_555
In35 K20 3.717819 1_556
In35 K29 3.717819 1_556
In35 K7 3.786708 1_555
In35 K28 3.786708 1_555
In36 In7 2.962976 1_555
In36 In5 3.035639 1_555
In36 In75 3.121788 1_555
In36 In42 3.121788 1_555
In36 In62 3.150148 1_555
In36 In40 3.150148 1_555
In36 K31 3.576295 1_555
In36 K9 3.801623 1_555
In36 K6 3.801623 1_555
In36 K7 3.967352 1_555
In36 K2 3.967352 1_555
In37 In6 3.035646 1_555
In37 In55 3.150148 1_545
In37 In39 3.244924 1_555
In37 K10 3.492512 1_545
In37 K24 3.717820 1_555
In37 K27 3.717830 1_555
In37 K4 3.786695 1_555
In37 K17 3.786710 1_556
In38 In68 3.035631 1_555
In38 In78 3.150157 1_555
In38 In63 3.244896 1_555
In38 K14 3.492512 1_555
In38 K28 3.717819 1_555
In38 K1 3.717819 1_555
In38 K11 3.786708 1_655
In38 K29 3.786708 1_556
In39 In81 3.150148 1_555
In39 In6 3.150157 1_555
In39 In60 3.244896 1_555
In39 K9 3.492512 1_555
In39 K26 3.717820 1_556
In39 K17 3.717830 1_556
In39 K28 3.786695 1_555
In39 K27 3.786710 1_555
In40 In42 3.150157 1_555
In40 In5 3.244896 1_555
In40 In8 3.244924 1_555
In40 K6 3.492512 1_555
In40 K21 3.717820 1_565
In40 K23 3.717830 1_565
In40 K2 3.786695 1_555
In40 K13 3.786710 1_555
In41 In79 3.176761 1_555
In41 In46 3.393568 1_545
In41 In53 3.468854 1_555
In41 In67 3.468854 1_555
In41 K6 3.762492 1_545
In41 K26 3.770491 1_555
In41 K17 3.770491 1_555
In41 K22 3.938327 1_545
In41 K13 3.938327 1_545
In42 In61 2.962976 1_555
In42 In8 3.035646 1_555
In42 In75 3.121788 1_555
In42 In48 3.150142 1_555
In42 K31 3.576295 1_555
In42 K0 3.801615 1_555
In42 K6 3.801630 1_555
In42 K30 3.967352 1_555
In42 K13 3.967352 1_555
In43 In72 3.073963 1_555
In43 In51 3.393568 1_555
In43 In66 3.468854 1_655
In43 In65 3.468854 1_555
In43 K14 3.762492 1_554
In43 K5 3.770491 1_555
In43 K18 3.770491 1_555
In43 K15 3.938327 1_655
In43 K29 3.938327 1_555
In44 In74 3.035639 1_556
In44 In80 3.121788 1_555
In44 In56 3.150148 1_556
In44 In51 3.150148 1_556
In44 K8 3.576295 1_555
In44 K10 3.801623 1_555
In44 K14 3.801623 1_555
In44 K20 3.967352 1_556
In44 K29 3.967352 1_556
In45 In81 3.121788 1_555
In45 In6 3.121788 1_555
In45 K31 3.576295 1_555
In45 K0 3.801615 1_555
In45 K33 3.801630 1_555
In45 K18 3.967352 1_555
In45 K5 3.967352 1_555
In46 In80 3.035646 1_554
In46 In61 3.150157 1_555
In46 In70 3.244896 1_555
In46 In56 3.244924 1_555
In46 K6 3.492512 1_555
In46 K26 3.717820 1_565
In46 K17 3.717830 1_565
In46 K22 3.786695 1_555
In46 K13 3.786710 1_555
In47 In69 3.468854 1_565
In47 In49 3.468854 1_556
In47 K10 3.762485 1_555
In47 K7 3.770491 1_555
In47 K2 3.770491 1_555
In47 K20 3.938327 1_556
In47 K4 3.938327 1_565
In48 In71 3.035639 1_455
In48 In75 3.150142 1_555
In48 In8 3.244896 1_555
In48 In58 3.393583 1_555
In48 K0 3.492512 1_555
In48 K32 3.717834 1_555
In48 K11 3.717834 1_555
In48 K24 3.786708 1_555
In48 K30 3.786708 1_555
In49 In76 3.468854 1_455
In49 In73 3.468854 1_455
In49 K30 4.095555 1_555
In49 K3 4.095555 1_455
In49 K7 4.095555 1_554
In49 K12 4.167890 1_555
In49 K20 4.167890 1_555
In49 K32 4.167890 1_555
In50 In77 3.035631 1_555
In50 In78 3.150157 1_555
In50 In63 3.244896 1_555
In50 In52 3.244896 1_555
In50 In73 3.393575 1_555
In50 K19 3.492512 1_555
In50 K3 3.717819 1_555
In50 K22 3.717819 1_555
In50 K25 3.786708 1_565
In50 K32 3.786708 1_655
In51 In74 3.244896 1_555
In51 K14 3.492512 1_554
In51 K18 3.717820 1_555
In51 K5 3.717830 1_555
In51 K29 3.786695 1_555
In51 K15 3.786710 1_655
In52 In7 3.150157 1_555
In52 In77 3.150157 1_555
In52 In79 3.393575 1_565
In52 K6 3.492512 1_555
In52 K4 3.717819 1_565
In52 K25 3.717819 1_565
In52 K2 3.786708 1_555
In52 K22 3.786708 1_555
In53 In57 3.429096 1_555
In53 In79 3.468854 1_555
In53 In9 3.468854 1_555
In53 K25 4.095555 1_555
In53 K29 4.095555 1_555
In53 K26 4.095555 1_555
In53 K18 4.167890 1_555
In53 K22 4.167890 1_545
In53 K28 4.167890 1_554
In54 In64 3.176761 1_555
In54 In59 3.468854 1_555
In54 In67 3.468854 1_555
In54 K33 3.762492 1_455
In54 K12 3.770491 1_555
In54 K15 3.770491 1_555
In54 K3 3.938327 1_455
In54 K5 3.938327 1_455
In55 K8 3.576295 1_555
In55 K10 3.801623 1_555
In55 K19 3.801623 1_555
In55 K4 3.967352 1_565
In55 K25 3.967352 1_565
In56 In61 3.035646 1_555
In56 In80 3.150157 1_554
In56 In74 3.244896 1_555
In56 K10 3.492512 1_554
In56 K30 3.717820 1_555
In56 K13 3.717830 1_555
In56 K20 3.786695 1_555
In56 K17 3.786710 1_565
In57 In59 3.429096 1_555
In57 In67 3.429096 1_555
In58 In64 3.073963 1_555
In58 In59 3.468854 1_555
In58 K0 3.762502 1_555
In58 K11 3.770491 1_555
In58 K32 3.770491 1_555
In58 K30 3.938327 1_555
In58 K24 3.938327 1_555
In59 In9 3.468854 1_555
In59 In64 3.468854 1_555
In59 K32 4.095555 1_555
In59 K20 4.095555 1_555
In59 K12 4.095555 1_555
In59 K7 4.167890 1_554
In59 K3 4.167890 1_455
In59 K30 4.167890 1_555
In60 In81 3.035639 1_555
In60 K16 3.492512 1_545
In60 K28 3.717834 1_555
In60 K1 3.717834 1_555
In60 K21 3.786708 1_655
In60 K26 3.786708 1_556
In61 In74 3.150142 1_555
In61 K31 3.576295 1_555
In61 K0 3.801615 1_555
In61 K6 3.801630 1_555
In61 K30 3.967352 1_555
In61 K13 3.967352 1_555
In62 In75 3.150157 1_555
In62 K9 3.492512 1_555
In62 K12 3.717820 1_556
In62 K15 3.717830 1_556
In62 K7 3.786695 1_555
In62 K27 3.786710 1_555
In63 In78 3.035631 1_555
In63 In68 3.150157 1_555
In63 In77 3.150157 1_555
In63 In64 3.393575 1_655
In63 K33 3.492512 1_555
In63 K32 3.717819 1_655
In63 K11 3.717819 1_655
In63 K1 3.786708 1_555
In63 K3 3.786708 1_555
In64 K33 3.762485 1_455
In64 K32 3.770491 1_555
In64 K11 3.770491 1_555
In64 K3 3.938327 1_455
In64 K1 3.938327 1_455
In65 In76 3.468854 1_545
In65 In73 3.468854 1_545
In65 In72 3.468854 1_555
In65 K28 4.095555 1_554
In65 K18 4.095555 1_555
In65 K22 4.095555 1_545
In65 K26 4.167890 1_555
In65 K25 4.167890 1_555
In65 K29 4.167890 1_555
In66 In72 3.468854 1_455
In66 K13 4.095555 1_545
In66 K27 4.095555 1_554
In66 K5 4.095555 1_455
In66 K15 4.167890 1_555
In66 K17 4.167890 1_555
In66 K23 4.167890 1_555
In67 K15 4.095555 1_555
In67 K17 4.095555 1_555
In67 K23 4.095555 1_555
In67 K27 4.167890 1_554
In67 K5 4.167890 1_455
In67 K13 4.167890 1_545
In68 In81 2.962976 1_555
In68 In77 3.121788 1_555
In68 In7 3.121788 1_555
In68 K31 3.576295 1_555
In68 K9 3.801616 1_555
In68 K33 3.801616 1_555
In68 K28 3.967352 1_555
In68 K1 3.967352 1_555
In69 K24 4.095555 1_555
In69 K1 4.095555 1_455
In69 K2 4.095555 1_545
In69 K21 4.167890 1_555
In69 K4 4.167890 1_555
In69 K11 4.167890 1_555
In70 In80 3.150142 1_554
In70 In76 3.393583 1_555
In70 K16 3.492512 1_554
In70 K3 3.717834 1_555
In70 K22 3.717834 1_555
In70 K26 3.786708 1_565
In70 K12 3.786708 1_655
In71 In78 2.962976 1_555
In71 In8 3.150148 1_655
In71 K8 3.576295 1_555
In71 K19 3.801623 1_555
In71 K14 3.801623 1_555
In71 K11 3.967352 1_655
In71 K32 3.967352 1_655
In72 In73 3.176761 1_545
In72 K19 3.762492 1_545
In72 K5 3.770491 1_555
In72 K18 3.770491 1_555
In72 K23 3.938327 1_655
In72 K25 3.938327 1_555
In73 In76 3.073963 1_555
In73 K19 3.762485 1_555
In73 K22 3.770491 1_555
In73 K3 3.770491 1_555
In73 K25 3.938327 1_565
In73 K32 3.938327 1_655
In74 K0 3.492512 1_555
In74 K20 3.717834 1_555
In74 K29 3.717834 1_555
In74 K30 3.786708 1_555
In74 K18 3.786708 1_555
In75 K31 3.576295 1_555
In75 K0 3.801615 1_555
In75 K9 3.801630 1_555
In75 K24 3.967352 1_555
In75 K27 3.967352 1_555
In76 K16 3.762502 1_554
In76 K3 3.770491 1_555
In76 K22 3.770491 1_555
In76 K26 3.938327 1_565
In76 K12 3.938327 1_655
In77 K31 3.576295 1_555
In77 K6 3.801616 1_555
In77 K33 3.801616 1_555
In77 K22 3.967352 1_555
In77 K3 3.967352 1_555
In78 K8 3.576295 1_555
In78 K14 3.801616 1_555
In78 K19 3.801616 1_555
In78 K32 3.967352 1_655
In78 K11 3.967352 1_655
In79 K6 3.762485 1_545
In79 K25 3.770491 1_555
In79 K4 3.770491 1_555
In79 K22 3.938327 1_545
In79 K2 3.938327 1_545
In80 K8 3.576295 1_555
In80 K16 3.801615 1_555
In80 K10 3.801630 1_555
In80 K17 3.967352 1_566
In80 K26 3.967352 1_566
In81 K31 3.576295 1_555
In81 K33 3.801623 1_555
In81 K9 3.801623 1_555
In81 K28 3.967352 1_555
In81 K1 3.967352 1_555
