# generated using pymatgen
data_K2Cu(CO3)2
_symmetry_space_group_name_H-M   'P 1'
_cell_length_a   10.66693914
_cell_length_b   9.47593105
_cell_length_c   6.59620426
_cell_angle_alpha   81.01686218
_cell_angle_beta   61.33623515
_cell_angle_gamma   37.64690266
_symmetry_Int_Tables_number   1
_chemical_formula_structural   K2Cu(CO3)2
_chemical_formula_sum   'K4 Cu2 C4 O12'
_cell_volume   324.73104164
_cell_formula_units_Z   2
loop_
 _symmetry_equiv_pos_site_id
 _symmetry_equiv_pos_as_xyz
  1  'x, y, z'
loop_
 _atom_site_type_symbol
 _atom_site_label
 _atom_site_symmetry_multiplicity
 _atom_site_fract_x
 _atom_site_fract_y
 _atom_site_fract_z
 _atom_site_occupancy
  K  K0  1  0.57580000  0.01960700  0.58285300  1
  K  K1  1  0.80597600  0.59110400  0.02864900  1
  K  K2  1  0.66135300  0.43388300  0.68175700  1
  K  K3  1  0.22024600  0.67682400  0.43206000  1
  Cu  Cu0  1  0.99639900  0.99940700  0.00556300  1
  Cu  Cu1  1  0.24956200  0.25431800  0.24460500  1
  C  C0  1  0.16752100  0.57683200  0.99892500  1
  C  C1  1  0.25638400  0.99716000  0.57739500  1
  C  C2  1  0.25137500  0.99717200  0.09376200  1
  C  C3  1  0.65998100  0.08994600  0.99657200  1
  O  O0  1  0.99300100  0.81728300  0.16385700  1
  O  O1  1  0.01965200  0.17189400  0.81469400  1
  O  O2  1  0.09448000  0.21739800  0.24243200  1
  O  O3  1  0.44836300  0.24187200  0.22133300  1
  O  O4  1  0.10204800  0.49632200  0.09731300  1
  O  O5  1  0.31289000  0.08817500  0.48035900  1
  O  O6  1  0.15691900  0.94815500  0.14099000  1
  O  O7  1  0.75585500  0.14454300  0.94893900  1
  O  O8  1  0.35182000  0.47062200  0.76705300  1
  O  O9  1  0.40227600  0.77242500  0.47337100  1
  O  O10  1  0.47003800  0.85494000  0.90913800  1
  O  O11  1  0.77977700  0.90158800  0.83777600  1
loop_
_geom_bond_atom_site_label_1
_geom_bond_atom_site_label_2
_geom_bond_distance
_geom_bond_site_symmetry_2
K0 O0 2.731864 1_545
K0 O5 2.745964 1_555
K0 O10 2.783740 1_545
K0 O11 2.807434 1_545
K0 O8 2.848997 1_555
K0 O3 2.996313 1_555
K0 O4 3.105628 1_556
K0 O4 3.160609 1_645
K1 O1 2.700673 1_654
K1 O10 2.760485 1_554
K1 O4 2.781957 1_655
K1 O9 2.799964 1_555
K1 O11 2.863230 1_554
K1 O5 2.974000 1_565
K1 O2 3.057040 1_655
K1 O5 3.293057 1_654
K2 O7 2.730942 1_555
K2 O8 2.792525 1_555
K2 O2 2.820483 1_655
K2 O9 2.836521 1_555
K2 O10 2.893423 1_555
K2 O1 3.008195 1_655
K2 O6 3.053879 1_556
K2 O6 3.218776 1_645
K3 O3 2.739155 1_555
K3 O11 2.764811 1_455
K3 O6 2.775865 1_555
K3 O8 2.820373 1_555
K3 O9 2.834668 1_555
K3 O0 3.007767 1_455
K3 O7 3.091171 1_465
K3 O7 3.186945 1_554
Cu0 O0 1.889425 1_555
Cu0 O7 1.945614 1_564
Cu0 O6 1.995170 1_655
Cu0 O1 2.004476 1_664
Cu1 O4 1.932708 1_555
Cu1 O2 1.949344 1_555
Cu1 O3 1.957479 1_555
Cu1 O5 1.977946 1_555
C0 O8 1.296132 1_555
C0 O4 1.321091 1_556
C0 O0 1.398170 1_456
C1 O9 1.269460 1_555
C1 O5 1.340716 1_565
C1 O1 1.401632 1_565
C2 O10 1.244718 1_554
C2 O2 1.285083 1_565
C2 O6 1.312539 1_555
C3 O11 1.266397 1_545
C3 O3 1.294545 1_556
C3 O7 1.375171 1_555
