# generated using pymatgen
data_CsLiH4S2(NO3)2
_symmetry_space_group_name_H-M   'P 1'
_cell_length_a   5.59573600
_cell_length_b   8.05261070
_cell_length_c   9.98764364
_cell_angle_alpha   105.42787327
_cell_angle_beta   103.51682586
_cell_angle_gamma   86.66019277
_symmetry_Int_Tables_number   1
_chemical_formula_structural   CsLiH4S2(NO3)2
_chemical_formula_sum   'Cs2 Li2 H8 S4 N4 O12'
_cell_volume   421.80895745
_cell_formula_units_Z   2
loop_
 _symmetry_equiv_pos_site_id
 _symmetry_equiv_pos_as_xyz
  1  'x, y, z'
loop_
 _atom_site_type_symbol
 _atom_site_label
 _atom_site_symmetry_multiplicity
 _atom_site_fract_x
 _atom_site_fract_y
 _atom_site_fract_z
 _atom_site_occupancy
  Cs  Cs0  1  0.80287500  0.24202600  0.08502800  1
  Cs  Cs1  1  0.19712500  0.75797400  0.91497200  1
  Li  Li0  1  0.64550800  0.38732600  0.70875100  1
  Li  Li1  1  0.35449200  0.61267400  0.29124900  1
  H  H0  1  0.09847100  0.27041800  0.50454600  1
  H  H1  1  0.90152900  0.72958200  0.49545400  1
  H  H2  1  0.20062200  0.46463800  0.51244900  1
  H  H3  1  0.79937800  0.53536200  0.48755100  1
  H  H4  1  0.28623000  0.03123200  0.64552800  1
  H  H5  1  0.71377000  0.96876800  0.35447200  1
  H  H6  1  0.98168600  0.04695300  0.64041200  1
  H  H7  1  0.01831400  0.95304700  0.35958800  1
  S  S0  1  0.39221700  0.25617900  0.38370400  1
  S  S1  1  0.60778300  0.74382100  0.61629600  1
  S  S2  1  0.19825200  0.25161800  0.81484700  1
  S  S3  1  0.80174800  0.74838200  0.18515300  1
  N  N0  1  0.14928200  0.34483100  0.44556400  1
  N  N1  1  0.85071800  0.65516900  0.55443600  1
  N  N2  1  0.14012700  0.11407300  0.65326200  1
  N  N3  1  0.85987300  0.88592700  0.34673800  1
  O  O0  1  0.31654500  0.08077500  0.29998900  1
  O  O1  1  0.68345500  0.91922500  0.70001100  1
  O  O2  1  0.43781100  0.36809200  0.29670600  1
  O  O3  1  0.56218900  0.63190800  0.70329400  1
  O  O4  1  0.60476400  0.25751500  0.50449600  1
  O  O5  1  0.39523600  0.74248500  0.49550400  1
  O  O6  1  0.41667000  0.34812600  0.81941800  1
  O  O7  1  0.58333000  0.65187400  0.18058200  1
  O  O8  1  0.24321300  0.15726000  0.92552000  1
  O  O9  1  0.75678700  0.84274000  0.07448000  1
  O  O10  1  0.97744500  0.35994700  0.81665500  1
  O  O11  1  0.02255500  0.64005300  0.18334500  1
loop_
_geom_bond_atom_site_label_1
_geom_bond_atom_site_label_2
_geom_bond_distance
_geom_bond_site_symmetry_2
Cs0 O8 3.183669 1_654
Cs0 O8 3.185883 1_554
Cs0 O2 3.210708 1_555
Cs0 O9 3.212386 1_545
Cs0 O6 3.278502 1_554
Cs0 O11 3.311894 1_655
Cs0 O7 3.422308 1_555
Cs0 O10 3.424441 1_554
Cs0 O0 3.566659 1_655
Cs0 N0 3.570336 1_655
Cs1 O9 3.183669 1_456
Cs1 O9 3.185883 1_556
Cs1 O3 3.210708 1_555
Cs1 O8 3.212386 1_565
Cs1 O7 3.278502 1_556
Cs1 O10 3.311894 1_455
Cs1 O6 3.422308 1_555
Cs1 O11 3.424441 1_556
Cs1 O1 3.566659 1_455
Cs1 N1 3.570336 1_455
Li0 O10 1.950145 1_555
Li0 O6 1.963522 1_555
Li0 O4 1.995530 1_555
Li0 O3 2.009380 1_555
Li1 O11 1.950145 1_555
Li1 O7 1.963522 1_555
Li1 O5 1.995530 1_555
Li1 O2 2.009380 1_555
H0 N0 1.035805 1_555
H1 N1 1.035805 1_555
H2 N0 1.029190 1_555
H3 N1 1.029190 1_555
H4 N2 1.028555 1_555
H5 N3 1.028555 1_555
H6 N2 1.029751 1_655
H7 N3 1.029751 1_455
N0 S0 1.668589 1_555
N1 S1 1.668589 1_555
N2 S2 1.668125 1_555
N3 S3 1.668125 1_555
O0 S0 1.466042 1_555
O1 S1 1.466042 1_555
O2 S0 1.476237 1_555
O3 S1 1.476237 1_555
O4 S0 1.481212 1_555
O5 S1 1.481212 1_555
O6 S2 1.471577 1_555
O7 S3 1.471577 1_555
O8 S2 1.468690 1_555
O9 S3 1.468690 1_555
O10 S2 1.471192 1_655
O11 S3 1.471192 1_455
