# generated using pymatgen
data_CoP4(H5O8)2
_symmetry_space_group_name_H-M   'P 1'
_cell_length_a   7.22090173
_cell_length_b   8.46157087
_cell_length_c   10.68820471
_cell_angle_alpha   98.42994295
_cell_angle_beta   92.27676590
_cell_angle_gamma   99.72874700
_symmetry_Int_Tables_number   1
_chemical_formula_structural   CoP4(H5O8)2
_chemical_formula_sum   'Co2 P8 H20 O32'
_cell_volume   635.31048398
_cell_formula_units_Z   2
loop_
 _symmetry_equiv_pos_site_id
 _symmetry_equiv_pos_as_xyz
  1  'x, y, z'
loop_
 _atom_site_type_symbol
 _atom_site_label
 _atom_site_symmetry_multiplicity
 _atom_site_fract_x
 _atom_site_fract_y
 _atom_site_fract_z
 _atom_site_occupancy
  Co  Co0  1  0.49999900  0.50000000  0.75000000  1
  Co  Co1  1  0.50000100  0.50000100  0.25000100  1
  P  P0  1  0.32574000  0.27890600  0.46722200  1
  P  P1  1  0.32622100  0.27882200  0.96647100  1
  P  P2  1  0.67426000  0.72109100  0.03277700  1
  P  P3  1  0.67377900  0.72118000  0.53352900  1
  P  P4  1  0.81916800  0.25810900  0.27305800  1
  P  P5  1  0.82011200  0.25832300  0.77378000  1
  P  P6  1  0.18083200  0.74189100  0.22694100  1
  P  P7  1  0.17988700  0.74167600  0.72622100  1
  H  H0  1  0.58328000  0.23800600  0.06489300  1
  H  H1  1  0.58257200  0.23806700  0.56683100  1
  H  H2  1  0.41672200  0.76199700  0.43510800  1
  H  H3  1  0.41742900  0.76193300  0.93316700  1
  H  H4  1  0.07890400  0.16340500  0.05201600  1
  H  H5  1  0.07879900  0.16330600  0.55275500  1
  H  H6  1  0.92109700  0.83660100  0.44798600  1
  H  H7  1  0.92120000  0.83668800  0.94724200  1
  H  H8  1  0.63141800  0.09616000  0.36405800  1
  H  H9  1  0.63202900  0.09547100  0.86353200  1
  H  H10  1  0.36858100  0.90384000  0.13594000  1
  H  H11  1  0.36796800  0.90453500  0.63647400  1
  H  H12  1  0.12703400  0.26644100  0.25967000  1
  H  H13  1  0.12777300  0.26813700  0.75964100  1
  H  H14  1  0.87296700  0.73356100  0.24033100  1
  H  H15  1  0.87222400  0.73185800  0.74035800  1
  H  H16  1  0.80481800  0.46433300  0.41868300  1
  H  H17  1  0.80637200  0.46454000  0.91890100  1
  H  H18  1  0.19518500  0.53566800  0.08131600  1
  H  H19  1  0.19362600  0.53545900  0.58109700  1
  O  O0  1  0.50463000  0.19471800  0.48226200  1
  O  O1  1  0.50484000  0.19421000  0.98055900  1
  O  O2  1  0.49537300  0.80528400  0.01773600  1
  O  O3  1  0.49516000  0.80579000  0.51944200  1
  O  O4  1  0.14630200  0.14557500  0.47409700  1
  O  O5  1  0.14705200  0.14546100  0.97371400  1
  O  O6  1  0.85370100  0.85442100  0.02590200  1
  O  O7  1  0.85294700  0.85454200  0.52628700  1
  O  O8  1  0.31651800  0.32227300  0.33320400  1
  O  O9  1  0.31521300  0.32361700  0.83289000  1
  O  O10  1  0.68348100  0.67772800  0.16679700  1
  O  O11  1  0.68478600  0.67638100  0.66710900  1
  O  O12  1  0.33904300  0.41977100  0.07611300  1
  O  O13  1  0.33743200  0.42015800  0.57660900  1
  O  O14  1  0.66096100  0.58023300  0.42388700  1
  O  O15  1  0.66256300  0.57983700  0.92339100  1
  O  O16  1  0.73099300  0.08492500  0.30305300  1
  O  O17  1  0.73257000  0.08463500  0.80325000  1
  O  O18  1  0.26900600  0.91507500  0.19694400  1
  O  O19  1  0.26742400  0.91536700  0.69675300  1
  O  O20  1  0.00072500  0.23169500  0.20365100  1
  O  O21  1  0.00110300  0.23222500  0.70355900  1
  O  O22  1  0.99927600  0.76830600  0.29634900  1
  O  O23  1  0.99889500  0.76777000  0.79644200  1
  O  O24  1  0.88471300  0.37551400  0.39956500  1
  O  O25  1  0.88624200  0.37539200  0.90045600  1
  O  O26  1  0.11528700  0.62448500  0.10043500  1
  O  O27  1  0.11375800  0.62460900  0.59954200  1
  O  O28  1  0.68130100  0.32501600  0.19222200  1
  O  O29  1  0.68100200  0.32538200  0.69403900  1
  O  O30  1  0.31870100  0.67498600  0.30777800  1
  O  O31  1  0.31900000  0.67461800  0.80596000  1
loop_
_geom_bond_atom_site_label_1
_geom_bond_atom_site_label_2
_geom_bond_distance
_geom_bond_site_symmetry_2
Co0 O15 2.112079 1_555
Co0 O13 2.112093 1_555
Co0 O11 2.145078 1_555
Co0 O9 2.145080 1_555
Co0 O31 2.169034 1_555
Co0 O29 2.169057 1_555
Co1 O14 2.111318 1_555
Co1 O12 2.111327 1_555
Co1 O10 2.149444 1_555
Co1 O8 2.149455 1_555
Co1 O30 2.176878 1_555
Co1 O28 2.176882 1_555
H0 O1 1.030141 1_554
H0 O28 1.532548 1_555
H1 O0 1.030009 1_555
H1 O29 1.533241 1_555
H2 O3 1.030131 1_555
H2 O30 1.532558 1_555
H3 O2 1.030018 1_556
H3 O31 1.533230 1_555
H4 O5 0.993145 1_554
H5 O4 0.993575 1_555
H6 O7 0.993141 1_555
H7 O6 0.993579 1_556
H8 O16 0.996672 1_555
H9 O17 0.996469 1_555
H10 O18 0.996664 1_555
H11 O19 0.996460 1_555
H12 O20 1.044589 1_555
H12 O8 1.516650 1_555
H13 O21 1.047549 1_555
H13 O9 1.502845 1_555
H14 O22 1.044583 1_555
H14 O10 1.516662 1_555
H15 O23 1.047565 1_555
H15 O11 1.502831 1_555
H16 O24 1.024833 1_555
H16 O14 1.541691 1_555
H17 O25 1.026142 1_555
H17 O15 1.537871 1_555
H18 O26 1.024836 1_555
H18 O12 1.541678 1_555
H19 O27 1.026146 1_555
H19 O13 1.537880 1_555
O0 P0 1.590592 1_555
O1 P1 1.589680 1_555
O2 P2 1.590600 1_555
O3 P3 1.589669 1_555
O4 P0 1.579522 1_555
O5 P1 1.579037 1_555
O6 P2 1.579533 1_555
O7 P3 1.579035 1_555
O8 P0 1.531563 1_555
O9 P1 1.532405 1_555
O10 P2 1.531571 1_555
O11 P3 1.532408 1_555
O12 P1 1.532499 1_554
O13 P0 1.533270 1_555
O14 P3 1.532491 1_555
O15 P2 1.533271 1_556
O16 P4 1.579311 1_555
O17 P5 1.579972 1_555
O18 P6 1.579316 1_555
O19 P7 1.579978 1_555
O20 P4 1.564192 1_455
O21 P5 1.564284 1_455
O22 P6 1.564193 1_655
O23 P7 1.564284 1_655
O24 P4 1.560634 1_555
O25 P5 1.561398 1_555
O26 P6 1.560630 1_555
O27 P7 1.561414 1_555
O28 P4 1.524342 1_555
O29 P5 1.524399 1_555
O30 P6 1.524349 1_555
O31 P7 1.524397 1_555
