# generated using pymatgen
data_NaHS
_symmetry_space_group_name_H-M   'P 1'
_cell_length_a   3.90804851
_cell_length_b   4.45281087
_cell_length_c   5.91257147
_cell_angle_alpha   90.00000000
_cell_angle_beta   99.63077425
_cell_angle_gamma   90.00000000
_symmetry_Int_Tables_number   1
_chemical_formula_structural   NaHS
_chemical_formula_sum   'Na2 H2 S2'
_cell_volume   101.43930152
_cell_formula_units_Z   2
loop_
 _symmetry_equiv_pos_site_id
 _symmetry_equiv_pos_as_xyz
  1  'x, y, z'
loop_
 _atom_site_type_symbol
 _atom_site_label
 _atom_site_symmetry_multiplicity
 _atom_site_fract_x
 _atom_site_fract_y
 _atom_site_fract_z
 _atom_site_occupancy
  Na  Na0  1  0.23520620  0.25000000  0.76626308  1
  Na  Na1  1  0.76479380  0.75000000  0.23373692  1
  H  H0  1  0.54868199  0.25000000  0.39581207  1
  H  H1  1  0.45131901  0.75000000  0.60418793  1
  S  S0  1  0.24345299  0.25000000  0.25218448  1
  S  S1  1  0.75654701  0.75000000  0.74781552  1
loop_
_geom_bond_atom_site_label_1
_geom_bond_atom_site_label_2
_geom_bond_distance
_geom_bond_site_symmetry_2
Na0 S0 2.867829 1_556
Na0 S1 2.898231 1_455
Na0 S1 2.898231 1_445
Na0 S1 3.032200 1_545
Na0 S1 3.032200 1_555
Na0 S0 3.045084 1_555
Na1 S1 2.867829 1_554
Na1 S0 2.898231 1_655
Na1 S0 2.898231 1_665
Na1 S0 3.032200 1_555
Na1 S0 3.032200 1_565
Na1 S1 3.045084 1_555
H0 S0 1.343542 1_555
H0 Na1 2.619025 1_545
H0 Na1 2.619025 1_555
H0 Na0 2.682562 1_555
H1 S1 1.343539 1_555
H1 Na0 2.619027 1_565
H1 Na0 2.619027 1_555
H1 Na1 2.682559 1_555
