# generated using pymatgen
data_Ce7(GePd2)2
_symmetry_space_group_name_H-M   'P 1'
_cell_length_a   8.18862811
_cell_length_b   11.30059524
_cell_length_c   14.42554893
_cell_angle_alpha   90.06513231
_cell_angle_beta   89.97446341
_cell_angle_gamma   112.08774044
_symmetry_Int_Tables_number   1
_chemical_formula_structural   Ce7(GePd2)2
_chemical_formula_sum   'Ce28 Ge8 Pd16'
_cell_volume   1236.91854622
_cell_formula_units_Z   4
loop_
 _symmetry_equiv_pos_site_id
 _symmetry_equiv_pos_as_xyz
  1  'x, y, z'
loop_
 _atom_site_type_symbol
 _atom_site_label
 _atom_site_symmetry_multiplicity
 _atom_site_fract_x
 _atom_site_fract_y
 _atom_site_fract_z
 _atom_site_occupancy
  Ce  Ce0  1  0.62349694  0.00675670  0.32351864  1
  Ce  Ce1  1  0.63810398  0.36669043  0.71214922  1
  Ce  Ce2  1  0.01225753  0.35154747  0.43135728  1
  Ce  Ce3  1  0.62507784  0.65324957  0.53675687  1
  Ce  Ce4  1  0.10593829  0.85844728  0.82186838  1
  Ce  Ce5  1  0.37463920  0.99224791  0.67732390  1
  Ce  Ce6  1  0.10551205  0.35849000  0.67838817  1
  Ce  Ce7  1  0.01344310  0.85092050  0.06826616  1
  Ce  Ce8  1  0.17703835  0.40231178  0.04973940  1
  Ce  Ce9  1  0.17705999  0.90231840  0.45006689  1
  Ce  Ce10  1  0.62507031  0.50847520  0.17600194  1
  Ce  Ce11  1  0.38142151  0.67844483  0.68698551  1
  Ce  Ce12  1  0.63737720  0.86643633  0.78791070  1
  Ce  Ce13  1  0.37558040  0.49259760  0.82273338  1
  Ce  Ce14  1  0.98679215  0.14799077  0.93087098  1
  Ce  Ce15  1  0.89541684  0.64209010  0.32186916  1
  Ce  Ce16  1  0.61751716  0.31966310  0.31293620  1
  Ce  Ce17  1  0.38295758  0.17876525  0.81276814  1
  Ce  Ce18  1  0.82354238  0.09824721  0.54990193  1
  Ce  Ce19  1  0.89437333  0.14117328  0.17831677  1
  Ce  Ce20  1  0.61721021  0.82130962  0.18677575  1
  Ce  Ce21  1  0.82423922  0.59890705  0.95025689  1
  Ce  Ce22  1  0.36097655  0.13227007  0.21144239  1
  Ce  Ce23  1  0.37342586  0.34710092  0.46403046  1
  Ce  Ce24  1  0.36232770  0.63390145  0.28793213  1
  Ce  Ce25  1  0.98792148  0.64822523  0.56914360  1
  Ce  Ce26  1  0.62497783  0.15268105  0.96344381  1
  Ce  Ce27  1  0.37335306  0.84738306  0.03656728  1
  Ge  Ge0  1  0.93195712  0.87970373  0.62820936  1
  Ge  Ge1  1  0.93147422  0.37957092  0.87195823  1
  Ge  Ge2  1  0.98809168  0.92474656  0.26325473  1
  Ge  Ge3  1  0.01198403  0.57507983  0.76364400  1
  Ge  Ge4  1  0.06839906  0.12047231  0.37196925  1
  Ge  Ge5  1  0.98833068  0.42527984  0.23661831  1
  Ge  Ge6  1  0.06834689  0.62087707  0.12798379  1
  Ge  Ge7  1  0.01220320  0.07508061  0.73653349  1
  Pd  Pd0  1  0.24812520  0.34404492  0.26176010  1
  Pd  Pd1  1  0.22133431  0.64949488  0.90663395  1
  Pd  Pd2  1  0.75207321  0.65583988  0.73842815  1
  Pd  Pd3  1  0.50546345  0.62973658  0.02273706  1
  Pd  Pd4  1  0.75204377  0.15610639  0.76172023  1
  Pd  Pd5  1  0.26043005  0.10930137  0.02048993  1
  Pd  Pd6  1  0.26042288  0.60953116  0.47953216  1
  Pd  Pd7  1  0.73977151  0.89048197  0.97979745  1
  Pd  Pd8  1  0.73983450  0.39041743  0.52063129  1
  Pd  Pd9  1  0.24812131  0.84422070  0.23816218  1
  Pd  Pd10  1  0.50535805  0.12929521  0.47721911  1
  Pd  Pd11  1  0.22118939  0.14902371  0.59366653  1
  Pd  Pd12  1  0.49490397  0.87070087  0.52303088  1
  Pd  Pd13  1  0.49533586  0.37072686  0.97691769  1
  Pd  Pd14  1  0.77887599  0.35074528  0.09329677  1
  Pd  Pd15  1  0.77888164  0.85087976  0.40648342  1
loop_
_geom_bond_atom_site_label_1
_geom_bond_atom_site_label_2
_geom_bond_distance
_geom_bond_site_symmetry_2
Ce0 Pd15 2.801063 1_545
Ce0 Ce20 2.862713 1_545
Ce0 Pd10 2.961082 1_555
Ce0 Pd9 3.176537 1_545
Ce0 Pd12 3.247437 1_545
Ce0 Ge4 3.448437 1_655
Ce1 Ce17 2.765755 1_555
Ce1 Pd8 2.868848 1_555
Ce1 Pd4 2.952830 1_555
Ce1 Pd2 3.065252 1_555
Ce1 Ge3 3.169637 1_655
Ce1 Ge1 3.293629 1_555
Ce1 Pd11 3.782473 1_555
Ce2 Pd8 2.749700 1_455
Ce2 Pd6 2.941612 1_555
Ce2 Ge4 2.943040 1_555
Ce2 Ge5 2.958534 1_455
Ce2 Pd0 3.137134 1_555
Ce3 Pd15 2.828025 1_555
Ce3 Pd6 2.955281 1_555
Ce3 Pd12 3.030696 1_555
Ce3 Pd2 3.086333 1_555
Ce3 Ge0 3.124589 1_555
Ce3 Pd8 3.443291 1_555
Ce4 Ge7 3.085204 1_565
Ce4 Pd1 3.106350 1_555
Ce4 Ge3 3.113400 1_555
Ce4 Pd2 3.177246 1_455
Ce4 Ge0 3.186570 1_455
Ce4 Pd7 3.888456 1_455
Ce4 Pd5 3.890212 1_566
Ce5 Pd11 2.802581 1_565
Ce5 Pd12 2.969661 1_555
Ce5 Pd4 3.186898 1_565
Ce5 Pd10 3.261528 1_565
Ce5 Ge0 3.434078 1_455
Ce6 Ge3 3.080891 1_555
Ce6 Pd11 3.110097 1_555
Ce6 Ge7 3.116056 1_555
Ce6 Pd4 3.174610 1_455
Ce6 Ge1 3.183592 1_455
Ce6 Pd8 3.885354 1_455
Ce6 Pd6 3.898075 1_555
Ce7 Pd7 2.758251 1_454
Ce7 Ge6 2.930309 1_555
Ce7 Pd5 2.941631 1_565
Ce7 Ge2 2.962338 1_455
Ce7 Pd9 3.133577 1_555
Ce8 Pd13 2.953084 1_554
Ce8 Pd3 2.965263 1_555
Ce8 Ge6 3.132518 1_555
Ce8 Pd14 3.151947 1_455
Ce8 Ge5 3.165283 1_455
Ce8 Ge1 3.209531 1_454
Ce8 Pd0 3.228209 1_555
Ce8 Pd1 3.383237 1_554
Ce8 Pd5 3.647651 1_555
Ce9 Pd12 2.951652 1_555
Ce9 Pd10 2.961831 1_565
Ce9 Ge4 3.129756 1_565
Ce9 Pd15 3.152759 1_455
Ce9 Ge2 3.165626 1_455
Ce9 Ge0 3.210705 1_455
Ce9 Pd9 3.224142 1_555
Ce9 Pd11 3.379952 1_565
Ce9 Pd6 3.646365 1_555
Ce10 Pd14 2.805148 1_555
Ce10 Ce16 2.892870 1_555
Ce10 Pd3 2.956928 1_555
Ce10 Pd0 3.193604 1_555
Ce10 Pd13 3.247831 1_554
Ce10 Ge6 3.435289 1_655
Ce11 Ce12 2.769979 1_555
Ce11 Ce13 2.860328 1_555
Ce11 Ge3 3.013554 1_555
Ce11 Ce3 3.029910 1_555
Ce11 Pd12 3.109503 1_555
Ce11 Pd6 3.156115 1_555
Ce11 Pd2 3.226992 1_555
Ce11 Pd1 3.397250 1_555
Ce12 Pd7 2.875431 1_555
Ce12 Pd2 2.954979 1_555
Ce12 Pd4 3.070959 1_565
Ce12 Ge7 3.176267 1_665
Ce12 Ge0 3.297341 1_555
Ce12 Pd1 3.777955 1_555
Ce13 Pd1 2.807450 1_555
Ce13 Pd13 2.971527 1_555
Ce13 Pd2 3.179837 1_555
Ce13 Pd3 3.257308 1_556
Ce13 Ge1 3.444878 1_455
Ce14 Pd5 2.761150 1_656
Ce14 Pd7 2.938444 1_545
Ce14 Ge1 2.944996 1_555
Ce14 Ge7 2.950341 1_655
Ce14 Pd4 3.129672 1_555
Ce15 Ge5 3.080325 1_555
Ce15 Pd15 3.106956 1_555
Ce15 Ge2 3.110669 1_555
Ce15 Pd9 3.171581 1_655
Ce15 Ge6 3.183644 1_655
Ce15 Pd6 3.882871 1_655
Ce15 Pd8 3.901692 1_555
Ce16 Ce22 2.773298 1_555
Ce16 Ge5 3.021772 1_555
Ce16 Ce23 3.050021 1_555
Ce16 Pd10 3.100245 1_555
Ce16 Pd8 3.164520 1_555
Ce16 Pd0 3.224848 1_555
Ce16 Pd14 3.399688 1_555
Ce17 Ce5 2.854404 1_545
Ce17 Ge7 3.020630 1_555
Ce17 Ce26 3.030437 1_555
Ce17 Pd13 3.106246 1_555
Ce17 Pd5 3.164213 1_556
Ce17 Pd4 3.212754 1_555
Ce17 Pd11 3.394695 1_555
Ce18 Pd10 2.949881 1_555
Ce18 Pd12 2.966300 1_545
Ce18 Ge0 3.133620 1_545
Ce18 Pd11 3.150623 1_655
Ce18 Ge7 3.164320 1_655
Ce18 Ge4 3.207767 1_655
Ce18 Pd4 3.223152 1_555
Ce18 Pd15 3.383343 1_545
Ce18 Pd8 3.640712 1_555
Ce19 Ge2 3.080769 1_545
Ce19 Pd14 3.114415 1_555
Ce19 Ge5 3.121508 1_555
Ce19 Pd0 3.177797 1_655
Ce19 Ge4 3.185132 1_655
Ce19 Pd5 3.886163 1_655
Ce19 Pd7 3.888060 1_544
Ce20 Ce24 2.766006 1_555
Ce20 Ge2 3.022784 1_555
Ce20 Ce27 3.035989 1_555
Ce20 Pd3 3.102281 1_555
Ce20 Pd7 3.153691 1_554
Ce20 Pd9 3.215131 1_555
Ce20 Pd15 3.402653 1_555
Ce21 Pd3 2.951120 1_556
Ce21 Pd13 2.971385 1_555
Ce21 Ge1 3.133694 1_555
Ce21 Pd1 3.145972 1_655
Ce21 Ge3 3.160510 1_655
Ce21 Ge6 3.203167 1_656
Ce21 Pd2 3.223776 1_555
Ce21 Pd14 3.389586 1_556
Ce21 Pd7 3.636942 1_555
Ce22 Pd5 2.858798 1_555
Ce22 Pd0 2.960877 1_555
Ce22 Pd9 3.055928 1_545
Ce22 Ge2 3.162026 1_445
Ce22 Ge4 3.297821 1_555
Ce22 Pd14 3.789585 1_555
Ce23 Pd11 2.823209 1_555
Ce23 Pd8 2.967377 1_555
Ce23 Pd10 3.043440 1_555
Ce23 Pd0 3.089281 1_555
Ce23 Ge4 3.121830 1_555
Ce23 Pd6 3.429758 1_555
Ce24 Pd6 2.870254 1_555
Ce24 Pd9 2.952114 1_555
Ce24 Pd0 3.072482 1_555
Ce24 Ge5 3.170682 1_455
Ce24 Ge6 3.298227 1_555
Ce24 Pd15 3.778566 1_555
Ce25 Pd6 2.751617 1_655
Ce25 Pd8 2.941105 1_555
Ce25 Ge0 2.945297 1_555
Ce25 Ge3 2.953421 1_655
Ce25 Pd2 3.133847 1_555
Ce26 Pd14 2.824542 1_556
Ce26 Pd5 2.954117 1_556
Ce26 Pd13 3.033518 1_555
Ce26 Pd4 3.085343 1_555
Ce26 Ge1 3.127298 1_555
Ce26 Pd7 3.437308 1_545
Ce27 Pd1 2.821821 1_554
Ce27 Pd7 2.968224 1_554
Ce27 Pd3 3.042879 1_555
Ce27 Pd9 3.078968 1_555
Ce27 Ge6 3.118607 1_555
Ce27 Pd5 3.424835 1_565
Ge0 Ge7 2.578821 1_665
Ge0 Pd2 2.881355 1_555
Ge0 Pd11 3.114785 1_665
Ge1 Ge3 2.582409 1_655
Ge1 Pd4 2.875291 1_555
Ge1 Pd1 3.121059 1_655
Ge2 Ge4 2.585191 1_665
Ge2 Pd15 2.612651 1_555
Ge2 Pd9 2.636044 1_655
Ge3 Pd1 2.610704 1_555
Ge3 Pd2 2.637641 1_455
Ge4 Pd0 2.878786 1_555
Ge4 Pd15 3.117765 1_445
Ge5 Ge6 2.586242 1_655
Ge5 Pd14 2.615043 1_555
Ge5 Pd0 2.640090 1_655
Ge6 Pd9 2.874391 1_555
Ge6 Pd14 3.121459 1_455
Ge7 Pd11 2.607608 1_555
Ge7 Pd4 2.640894 1_455
Pd1 Pd3 2.943329 1_556
Pd3 Pd7 2.915244 1_554
Pd10 Pd8 2.919268 1_555
Pd10 Pd11 2.944827 1_555
Pd10 Pd12 2.966468 1_545
Pd12 Pd6 2.919955 1_555
Pd12 Pd15 2.944760 1_555
Pd13 Pd5 2.924429 1_556
Pd13 Pd14 2.942594 1_556
