# generated using pymatgen
data_Al3Ni
_symmetry_space_group_name_H-M   'P 1'
_cell_length_a   4.77057136
_cell_length_b   6.55890518
_cell_length_c   7.30433827
_cell_angle_alpha   90.00000000
_cell_angle_beta   90.00000000
_cell_angle_gamma   89.99973080
_symmetry_Int_Tables_number   1
_chemical_formula_structural   Al3Ni
_chemical_formula_sum   'Al12 Ni4'
_cell_volume   228.55073727
_cell_formula_units_Z   4
loop_
 _symmetry_equiv_pos_site_id
 _symmetry_equiv_pos_as_xyz
  1  'x, y, z'
loop_
 _atom_site_type_symbol
 _atom_site_label
 _atom_site_symmetry_multiplicity
 _atom_site_fract_x
 _atom_site_fract_y
 _atom_site_fract_z
 _atom_site_occupancy
  Al  Al0  1  0.91571276  0.01038501  0.25000000  1
  Al  Al1  1  0.36380402  0.17132164  0.44389873  1
  Al  Al2  1  0.36380402  0.17132164  0.05610127  1
  Al  Al3  1  0.86379595  0.32867677  0.55610415  1
  Al  Al4  1  0.13620405  0.67132323  0.44389585  1
  Al  Al5  1  0.63619598  0.82867836  0.94389873  1
  Al  Al6  1  0.13620405  0.67132323  0.05610415  1
  Al  Al7  1  0.63619598  0.82867836  0.55610127  1
  Al  Al8  1  0.86379595  0.32867677  0.94389585  1
  Al  Al9  1  0.58428442  0.51038625  0.25000000  1
  Al  Al10  1  0.08428724  0.98961499  0.75000000  1
  Al  Al11  1  0.41571558  0.48961375  0.75000000  1
  Ni  Ni0  1  0.44428432  0.87107972  0.25000000  1
  Ni  Ni1  1  0.05571624  0.37107796  0.25000000  1
  Ni  Ni2  1  0.55571568  0.12892028  0.75000000  1
  Ni  Ni3  1  0.94428376  0.62892204  0.75000000  1
loop_
_geom_bond_atom_site_label_1
_geom_bond_atom_site_label_2
_geom_bond_distance
_geom_bond_site_symmetry_2
Al0 Ni0 2.427504 1_545
Al0 Ni1 2.458227 1_655
Al0 Ni0 2.682017 1_645
Al0 Al2 2.773033 1_655
Al0 Al1 2.773033 1_655
Al0 Al4 2.838640 1_645
Al0 Al6 2.838640 1_645
Al0 Al7 2.863145 1_545
Al0 Al5 2.863145 1_544
Al1 Ni1 2.425418 1_555
Al1 Ni2 2.432002 1_555
Al1 Ni0 2.455868 1_545
Al1 Al9 2.838653 1_555
Al1 Al10 2.863145 1_545
Al2 Ni1 2.425418 1_555
Al2 Ni2 2.432002 1_554
Al2 Ni0 2.455868 1_545
Al2 Al9 2.838653 1_555
Al3 Ni2 2.425392 1_555
Al3 Ni1 2.432038 1_655
Al3 Ni3 2.455882 1_555
Al3 Al9 2.863152 1_555
Al4 Ni0 2.425392 1_555
Al4 Ni3 2.432038 1_455
Al4 Ni1 2.455882 1_555
Al4 Al9 2.772975 1_555
Al5 Ni3 2.425418 1_555
Al5 Ni0 2.432002 1_556
Al5 Ni2 2.455868 1_565
Al6 Ni0 2.425392 1_555
Al6 Ni3 2.432038 1_454
Al6 Ni1 2.455882 1_555
Al6 Al9 2.772975 1_555
Al7 Ni3 2.425418 1_555
Al7 Ni0 2.432002 1_555
Al7 Ni2 2.455868 1_565
Al8 Ni2 2.425392 1_555
Al8 Ni1 2.432038 1_656
Al8 Ni3 2.455882 1_555
Al8 Al9 2.863152 1_556
Al9 Ni1 2.427518 1_655
Al9 Ni0 2.458219 1_555
Al9 Ni1 2.682017 1_555
Al10 Ni2 2.427504 1_565
Al10 Ni3 2.458227 1_455
Al10 Ni2 2.682017 1_465
Al10 Al5 2.773033 1_455
Al10 Al7 2.773033 1_455
Al10 Al8 2.838640 1_465
Al10 Al3 2.838640 1_465
Al10 Al2 2.863145 1_566
Al11 Ni3 2.427518 1_455
Al11 Ni2 2.458219 1_555
Al11 Ni3 2.682017 1_555
Al11 Al8 2.772975 1_555
Al11 Al3 2.772975 1_555
Al11 Al7 2.838653 1_555
Al11 Al5 2.838653 1_555
Al11 Al6 2.863152 1_556
Al11 Al4 2.863152 1_555
