# generated using pymatgen
data_NaCa3MgFe(Si2O7)2
_symmetry_space_group_name_H-M   'P 1'
_cell_length_a   5.91945400
_cell_length_b   10.12881800
_cell_length_c   11.42194300
_cell_angle_alpha   90.00000000
_cell_angle_beta   90.00000000
_cell_angle_gamma   90.00000000
_symmetry_Int_Tables_number   1
_chemical_formula_structural   NaCa3MgFe(Si2O7)2
_chemical_formula_sum   'Na2 Ca6 Mg2 Fe2 Si8 O28'
_cell_volume   684.82626141
_cell_formula_units_Z   2
loop_
 _symmetry_equiv_pos_site_id
 _symmetry_equiv_pos_as_xyz
  1  'x, y, z'
loop_
 _atom_site_type_symbol
 _atom_site_label
 _atom_site_symmetry_multiplicity
 _atom_site_fract_x
 _atom_site_fract_y
 _atom_site_fract_z
 _atom_site_occupancy
  Na  Na0  1  0.14634200  0.48741000  0.75000000  1
  Na  Na1  1  0.14634200  0.51259000  0.25000000  1
  Ca  Ca0  1  0.06453900  0.19590200  0.25000000  1
  Ca  Ca1  1  0.06453900  0.80409800  0.75000000  1
  Ca  Ca2  1  0.79231200  0.18960600  0.59939800  1
  Ca  Ca3  1  0.79231200  0.18960600  0.90060200  1
  Ca  Ca4  1  0.79231200  0.81039400  0.40060200  1
  Ca  Ca5  1  0.79231200  0.81039400  0.09939800  1
  Mg  Mg0  1  0.27996400  0.00000000  0.00000000  1
  Mg  Mg1  1  0.27996400  0.00000000  0.50000000  1
  Fe  Fe0  1  0.45952400  0.50000000  0.50000000  1
  Fe  Fe1  1  0.45952400  0.50000000  0.00000000  1
  Si  Si0  1  0.33337200  0.21641700  0.63697600  1
  Si  Si1  1  0.33337200  0.78358300  0.36302400  1
  Si  Si2  1  0.33337200  0.78358300  0.13697600  1
  Si  Si3  1  0.33337200  0.21641700  0.86302400  1
  Si  Si4  1  0.59748400  0.68454000  0.75000000  1
  Si  Si5  1  0.60285300  0.95361100  0.75000000  1
  Si  Si6  1  0.59748400  0.31546000  0.25000000  1
  Si  Si7  1  0.60285300  0.04638900  0.25000000  1
  O  O0  1  0.86121100  0.36807800  0.25000000  1
  O  O1  1  0.86121100  0.63192200  0.75000000  1
  O  O2  1  0.44915500  0.05042600  0.86145800  1
  O  O3  1  0.42762900  0.59804300  0.65409900  1
  O  O4  1  0.42762900  0.59804300  0.84590100  1
  O  O5  1  0.44915500  0.94957400  0.36145800  1
  O  O6  1  0.44915500  0.05042600  0.63854200  1
  O  O7  1  0.42762900  0.40195700  0.34590100  1
  O  O8  1  0.44915500  0.94957400  0.13854200  1
  O  O9  1  0.42762900  0.40195700  0.15409900  1
  O  O10  1  0.14083300  0.25370800  0.75000000  1
  O  O11  1  0.53783200  0.75349400  0.25000000  1
  O  O12  1  0.53783200  0.24650600  0.75000000  1
  O  O13  1  0.14083300  0.74629200  0.25000000  1
  O  O14  1  0.61138400  0.17404200  0.35065100  1
  O  O15  1  0.61138400  0.82595800  0.85065100  1
  O  O16  1  0.61138400  0.17404200  0.14934900  1
  O  O17  1  0.61138400  0.82595800  0.64934900  1
  O  O18  1  0.47549100  0.67723600  0.44252000  1
  O  O19  1  0.13661000  0.83199300  0.46597100  1
  O  O20  1  0.13661000  0.83199300  0.03402900  1
  O  O21  1  0.13661000  0.16800700  0.96597100  1
  O  O22  1  0.47549100  0.67723600  0.05748000  1
  O  O23  1  0.13661000  0.16800700  0.53402900  1
  O  O24  1  0.47549100  0.32276400  0.94252000  1
  O  O25  1  0.47549100  0.32276400  0.55748000  1
  O  O26  1  0.85751400  0.02037800  0.75000000  1
  O  O27  1  0.85751400  0.97962200  0.25000000  1
loop_
_geom_bond_atom_site_label_1
_geom_bond_atom_site_label_2
_geom_bond_distance
_geom_bond_site_symmetry_2
Na0 O1 2.234112 1_455
Na0 O4 2.286481 1_555
Na0 O3 2.286481 1_555
Na0 O10 2.367350 1_555
Na1 O0 2.234112 1_455
Na1 O7 2.286481 1_555
Na1 O9 2.286481 1_555
Na1 O13 2.367350 1_555
Ca0 O0 2.118951 1_455
Ca0 O27 2.510136 1_445
Ca1 O1 2.118951 1_455
Ca1 O26 2.510136 1_465
Ca2 O23 2.181515 1_655
Ca2 O12 2.358033 1_555
Ca2 O25 2.359125 1_555
Ca2 O26 2.458864 1_555
Ca2 O6 2.512652 1_555
Ca2 O10 2.763463 1_655
Ca2 O14 3.040420 1_555
Ca3 O21 2.181515 1_655
Ca3 O12 2.358033 1_555
Ca3 O24 2.359125 1_555
Ca3 O26 2.458864 1_555
Ca3 O2 2.512652 1_555
Ca3 O10 2.763463 1_655
Ca3 O16 3.040420 1_556
Ca4 O19 2.181515 1_655
Ca4 O11 2.358033 1_555
Ca4 O18 2.359125 1_555
Ca4 O27 2.458864 1_555
Ca4 O5 2.512652 1_555
Ca4 O13 2.763463 1_655
Ca4 O17 3.040420 1_555
Ca5 O20 2.181515 1_655
Ca5 O11 2.358033 1_555
Ca5 O22 2.359125 1_555
Ca5 O27 2.458864 1_555
Ca5 O8 2.512652 1_555
Ca5 O13 2.763463 1_655
Ca5 O15 3.040420 1_554
Mg0 O20 1.940871 1_545
Mg0 O21 1.940871 1_554
Mg0 O2 1.941123 1_554
Mg0 O8 1.941123 1_545
Mg1 O23 1.940871 1_555
Mg1 O19 1.940871 1_545
Mg1 O6 1.941123 1_555
Mg1 O5 1.941123 1_545
Fe0 O18 1.913813 1_555
Fe0 O25 1.913813 1_555
Fe0 O3 2.029729 1_555
Fe0 O7 2.029729 1_555
Fe1 O22 1.913813 1_555
Fe1 O24 1.913813 1_554
Fe1 O9 2.029729 1_555
Fe1 O4 2.029729 1_554
O0 Si6 1.649588 1_555
O1 Si4 1.649588 1_555
O2 Si3 1.815709 1_555
O2 Si5 1.846637 1_545
O3 Si4 1.725789 1_555
O4 Si4 1.725789 1_555
O5 Si1 1.815709 1_555
O5 Si7 1.846637 1_565
O6 Si0 1.815709 1_555
O6 Si5 1.846637 1_545
O7 Si6 1.725789 1_555
O8 Si2 1.815709 1_555
O8 Si7 1.846637 1_565
O9 Si6 1.725789 1_555
O10 Si0 1.763010 1_555
O10 Si3 1.763010 1_555
O11 Si1 1.795620 1_555
O11 Si2 1.795620 1_555
O12 Si0 1.795620 1_555
O12 Si3 1.795620 1_555
O13 Si1 1.763010 1_555
O13 Si2 1.763010 1_555
O14 Si7 1.730890 1_555
O14 Si6 1.838527 1_555
O15 Si5 1.730890 1_555
O15 Si4 1.838527 1_555
O16 Si7 1.730890 1_555
O16 Si6 1.838527 1_555
O17 Si5 1.730890 1_555
O17 Si4 1.838527 1_555
O18 Si1 1.640880 1_555
O19 Si1 1.726165 1_555
O20 Si2 1.726165 1_555
O21 Si3 1.726165 1_555
O22 Si2 1.640880 1_555
O23 Si0 1.726165 1_555
O24 Si3 1.640880 1_555
O25 Si0 1.640880 1_555
O26 Si5 1.652199 1_545
O27 Si7 1.652199 1_565
