# generated using pymatgen
data_Mn2CuO4
_symmetry_space_group_name_H-M   'P 1'
_cell_length_a   6.19400092
_cell_length_b   5.80984031
_cell_length_c   6.19400038
_cell_angle_alpha   62.03129414
_cell_angle_beta   57.06198245
_cell_angle_gamma   62.03129602
_symmetry_Int_Tables_number   1
_chemical_formula_structural   Mn2CuO4
_chemical_formula_sum   'Mn4 Cu2 O8'
_cell_volume   158.18597969
_cell_formula_units_Z   2
loop_
 _symmetry_equiv_pos_site_id
 _symmetry_equiv_pos_as_xyz
  1  'x, y, z'
loop_
 _atom_site_type_symbol
 _atom_site_label
 _atom_site_symmetry_multiplicity
 _atom_site_fract_x
 _atom_site_fract_y
 _atom_site_fract_z
 _atom_site_occupancy
  Mn  Mn0  1  0.02397900  0.97602100  0.02397900  1
  Mn  Mn1  1  0.22602100  0.27397900  0.22602100  1
  Mn  Mn2  1  0.12500000  0.62500000  0.62500000  1
  Mn  Mn3  1  0.62500000  0.62500000  0.12500000  1
  Cu  Cu0  1  0.62500000  0.12500000  0.62500000  1
  Cu  Cu1  1  0.62500000  0.62500000  0.62500000  1
  O  O0  1  0.36315600  0.41282700  0.36315600  1
  O  O1  1  0.36688300  0.40931200  0.81449300  1
  O  O2  1  0.36315600  0.86086100  0.36315600  1
  O  O3  1  0.43550700  0.84068800  0.88311700  1
  O  O4  1  0.81449300  0.40931200  0.36688300  1
  O  O5  1  0.88311700  0.84068800  0.43550700  1
  O  O6  1  0.88684400  0.38913900  0.88684400  1
  O  O7  1  0.88684400  0.83717300  0.88684400  1
loop_
_geom_bond_atom_site_label_1
_geom_bond_atom_site_label_2
_geom_bond_distance
_geom_bond_site_symmetry_2
Mn0 O7 2.040535 1_454
Mn0 O6 2.040535 1_464
Mn0 O5 2.054738 1_455
Mn0 O3 2.054738 1_554
Mn1 O0 2.040535 1_555
Mn1 O2 2.040535 1_545
Mn1 O1 2.054738 1_554
Mn1 O4 2.054738 1_455
Mn2 O7 1.973302 1_455
Mn2 O0 1.973302 1_555
Mn2 O2 1.973302 1_555
Mn2 O6 1.973302 1_455
Mn2 O5 1.991055 1_455
Mn2 O1 1.991055 1_555
Mn3 O2 1.973302 1_555
Mn3 O6 1.973302 1_554
Mn3 O7 1.973302 1_554
Mn3 O0 1.973302 1_555
Mn3 O3 1.991054 1_554
Mn3 O4 1.991054 1_555
Cu0 O4 1.990720 1_555
Cu0 O3 1.990720 1_545
Cu0 O5 1.990720 1_545
Cu0 O1 1.990720 1_555
Cu0 O7 2.414518 1_545
Cu0 O0 2.414518 1_555
Cu1 O4 1.990720 1_555
Cu1 O3 1.990720 1_555
Cu1 O1 1.990720 1_555
Cu1 O5 1.990720 1_555
Cu1 O6 2.414517 1_555
Cu1 O2 2.414517 1_555
