# generated using pymatgen
data_Ca2AlH8S2Cl(O6F)2
_symmetry_space_group_name_H-M   'P 1'
_cell_length_a   8.24235690
_cell_length_b   8.24235690
_cell_length_c   8.24235690
_cell_angle_alpha   130.03116193
_cell_angle_beta   130.03116193
_cell_angle_gamma   73.35695221
_symmetry_Int_Tables_number   1
_chemical_formula_structural   Ca2AlH8S2Cl(O6F)2
_chemical_formula_sum   'Ca2 Al1 H8 S2 Cl1 O12 F2'
_cell_volume   320.46341506
_cell_formula_units_Z   1
loop_
 _symmetry_equiv_pos_site_id
 _symmetry_equiv_pos_as_xyz
  1  'x, y, z'
loop_
 _atom_site_type_symbol
 _atom_site_label
 _atom_site_symmetry_multiplicity
 _atom_site_fract_x
 _atom_site_fract_y
 _atom_site_fract_z
 _atom_site_occupancy
  Ca  Ca0  1  0.30236800  0.30236800  0.00000000  1
  Ca  Ca1  1  0.69763200  0.69763200  0.00000000  1
  Al  Al0  1  0.00000000  0.00000000  0.00000000  1
  H  H0  1  0.03578000  0.60090700  0.75943800  1
  H  H1  1  0.84146900  0.27634100  0.24056200  1
  H  H2  1  0.27634100  0.03578000  0.43487200  1
  H  H3  1  0.60090700  0.84146900  0.56512800  1
  H  H4  1  0.96422000  0.39909300  0.24056200  1
  H  H5  1  0.15853100  0.72365900  0.75943800  1
  H  H6  1  0.72365900  0.96422000  0.56512800  1
  H  H7  1  0.39909300  0.15853100  0.43487200  1
  S  S0  1  0.75000000  0.25000000  0.50000000  1
  S  S1  1  0.25000000  0.75000000  0.50000000  1
  Cl  Cl0  1  0.50000000  0.50000000  0.00000000  1
  O  O0  1  0.65444100  0.25269100  0.27497700  1
  O  O1  1  0.97771400  0.37946400  0.72502300  1
  O  O2  1  0.37946400  0.65444100  0.40175000  1
  O  O3  1  0.25269100  0.97771400  0.59825000  1
  O  O4  1  0.34555900  0.74730900  0.72502300  1
  O  O5  1  0.02228600  0.62053600  0.27497700  1
  O  O6  1  0.62053600  0.34555900  0.59825000  1
  O  O7  1  0.74730900  0.02228600  0.40175000  1
  O  O8  1  0.04379600  0.72497900  0.76877600  1
  O  O9  1  0.95620400  0.27502100  0.23122400  1
  O  O10  1  0.27502100  0.04379600  0.31881700  1
  O  O11  1  0.72497900  0.95620400  0.68118300  1
  F  F0  1  0.13421900  0.13421900  0.00000000  1
  F  F1  1  0.86578100  0.86578100  0.00000000  1
loop_
_geom_bond_atom_site_label_1
_geom_bond_atom_site_label_2
_geom_bond_distance
_geom_bond_site_symmetry_2
Ca0 F0 2.223055 1_555
Ca0 O0 2.403741 1_555
Ca0 O1 2.403741 1_454
Ca0 O2 2.403741 1_555
Ca0 O3 2.403741 1_544
Ca0 Cl0 2.612842 1_555
Ca1 F1 2.223055 1_555
Ca1 O5 2.403741 1_655
Ca1 O4 2.403741 1_554
Ca1 O6 2.403741 1_554
Ca1 O7 2.403741 1_565
Ca1 Cl0 2.612842 1_555
Al0 F0 1.774475 1_555
Al0 F1 1.774475 1_445
Al0 O9 1.939008 1_455
Al0 O8 1.939008 1_544
Al0 O10 1.939011 1_555
Al0 O11 1.939011 1_444
H0 O8 0.993480 1_555
H1 O9 0.993493 1_555
H2 O10 0.993482 1_555
H3 O11 0.993487 1_555
H4 O9 0.993480 1_555
H5 O8 0.993493 1_555
H6 O11 0.993482 1_555
H7 O10 0.993487 1_555
O0 S0 1.491484 1_555
O1 S0 1.491484 1_555
O2 S1 1.491484 1_555
O3 S1 1.491484 1_555
O4 S1 1.491484 1_555
O5 S1 1.491484 1_555
O6 S0 1.491484 1_555
O7 S0 1.491484 1_555
