# generated using pymatgen
data_Pr4In21Pd10
_symmetry_space_group_name_H-M   'P 1'
_cell_length_a   11.98043067
_cell_length_b   11.98043067
_cell_length_c   17.52906546
_cell_angle_alpha   56.23828586
_cell_angle_beta   56.23828586
_cell_angle_gamma   21.92696469
_symmetry_Int_Tables_number   1
_chemical_formula_structural   Pr4In21Pd10
_chemical_formula_sum   'Pr4 In21 Pd10'
_cell_volume   774.49939382
_cell_formula_units_Z   1
loop_
 _symmetry_equiv_pos_site_id
 _symmetry_equiv_pos_as_xyz
  1  'x, y, z'
loop_
 _atom_site_type_symbol
 _atom_site_label
 _atom_site_symmetry_multiplicity
 _atom_site_fract_x
 _atom_site_fract_y
 _atom_site_fract_z
 _atom_site_occupancy
  Pr  Pr0  1  0.77100700  0.77100700  0.32466500  1
  Pr  Pr1  1  0.87786900  0.87786900  0.83297300  1
  Pr  Pr2  1  0.12213100  0.12213100  0.16702700  1
  Pr  Pr3  1  0.22899300  0.22899300  0.67533500  1
  In  In0  1  0.00952700  0.00952700  0.40754500  1
  In  In1  1  0.61555800  0.61555800  0.79608500  1
  In  In2  1  0.79946900  0.79946900  0.50354600  1
  In  In3  1  0.54260300  0.54260300  0.13156400  1
  In  In4  1  0.60140200  0.60140200  0.50331400  1
  In  In5  1  0.29957500  0.29957500  0.00049000  1
  In  In6  1  0.93574000  0.93574000  0.29748000  1
  In  In7  1  0.25266200  0.25266200  0.20374100  1
  In  In8  1  0.20053100  0.20053100  0.49645400  1
  In  In9  1  0.88600800  0.88600800  0.04892700  1
  In  In10  1  0.06426000  0.06426000  0.70252000  1
  In  In11  1  0.11399200  0.11399200  0.95107300  1
  In  In12  1  0.63075800  0.63075800  0.30071100  1
  In  In13  1  0.36924200  0.36924200  0.69928900  1
  In  In14  1  0.50000000  0.50000000  0.00000000  1
  In  In15  1  0.74733800  0.74733800  0.79625900  1
  In  In16  1  0.38444200  0.38444200  0.20391500  1
  In  In17  1  0.99047300  0.99047300  0.59245500  1
  In  In18  1  0.70042500  0.70042500  0.99951000  1
  In  In19  1  0.45739700  0.45739700  0.86843600  1
  In  In20  1  0.39859800  0.39859800  0.49668600  1
  Pd  Pd0  1  0.24986100  0.24986100  0.88519300  1
  Pd  Pd1  1  0.65385700  0.65385700  0.61328400  1
  Pd  Pd2  1  0.13726400  0.13726400  0.39240700  1
  Pd  Pd3  1  0.75013900  0.75013900  0.11480700  1
  Pd  Pd4  1  0.34614300  0.34614300  0.38671600  1
  Pd  Pd5  1  0.86273600  0.86273600  0.60759300  1
  Pd  Pd6  1  0.49465400  0.49465400  0.68843000  1
  Pd  Pd7  1  0.97436300  0.97436300  0.11253300  1
  Pd  Pd8  1  0.50534600  0.50534600  0.31157000  1
  Pd  Pd9  1  0.02563700  0.02563700  0.88746700  1
loop_
_geom_bond_atom_site_label_1
_geom_bond_atom_site_label_2
_geom_bond_distance
_geom_bond_site_symmetry_2
In0 Pd2 2.862986 1_555
In0 Pd8 2.866840 1_545
In0 Pd8 2.866840 1_455
In0 Pd5 3.242133 1_445
In0 Pr2 3.485411 1_555
In1 Pd1 2.794826 1_555
In1 Pd9 2.897521 1_565
In1 Pd9 2.897521 1_655
In1 Pr3 3.224525 1_655
In1 Pr3 3.224525 1_565
In2 Pd1 2.823716 1_555
In2 Pd4 2.836423 1_655
In2 Pd4 2.836423 1_565
In2 Pd5 2.935029 1_555
In2 In6 3.195968 1_555
In2 In20 3.213418 1_565
In2 In20 3.213418 1_655
In2 In8 3.309251 1_565
In2 In8 3.309251 1_655
In2 Pr3 3.369848 1_565
In2 Pr3 3.369848 1_655
In2 Pr0 3.557690 1_555
In3 Pd8 2.755620 1_555
In3 Pd7 2.913045 1_455
In3 Pd7 2.913045 1_545
In3 Pr2 3.224023 1_565
In3 Pr2 3.224023 1_655
In4 Pd6 2.758626 1_555
In4 Pd2 2.797476 1_565
In4 Pd2 2.797476 1_655
In4 Pd1 2.816277 1_555
In4 In8 3.213418 1_565
In4 In8 3.213418 1_655
In4 Pr0 3.402854 1_555
In5 Pd3 2.814438 1_545
In5 Pd3 2.814438 1_455
In5 Pd0 2.850980 1_554
In5 Pr1 3.329152 1_454
In5 Pr1 3.329152 1_544
In5 Pr2 3.485647 1_555
In6 Pd7 2.828603 1_555
In6 Pd4 2.889278 1_565
In6 Pd4 2.889278 1_655
In6 Pd8 2.896778 1_565
In6 Pd8 2.896778 1_655
In6 Pr2 3.619722 1_665
In6 Pr0 3.626692 1_555
In7 Pd3 2.780287 1_545
In7 Pd3 2.780287 1_455
In7 Pd2 2.853468 1_555
In7 Pr0 3.302477 1_455
In7 Pr0 3.302477 1_545
In7 Pr2 3.475583 1_555
In8 Pd4 2.823716 1_555
In8 Pd1 2.836423 1_455
In8 Pd1 2.836423 1_545
In8 Pd2 2.935029 1_555
In8 Pr0 3.369848 1_455
In8 Pr0 3.369848 1_545
In8 Pr3 3.557690 1_555
In9 Pd3 2.714797 1_555
In9 Pd7 2.861211 1_555
In9 Pd9 2.876476 1_664
In9 Pr1 3.897048 1_554
In10 Pd9 2.828603 1_555
In10 Pd1 2.889278 1_455
In10 Pd1 2.889278 1_545
In10 Pd6 2.896778 1_545
In10 Pd6 2.896778 1_455
In10 In8 3.195968 1_555
In10 Pr1 3.619722 1_445
In10 Pr3 3.626692 1_555
In11 Pd0 2.714797 1_555
In11 Pd9 2.861211 1_555
In11 Pd7 2.876476 1_446
In11 Pr2 3.897048 1_556
In12 Pd2 2.841997 1_565
In12 Pd2 2.841997 1_655
In12 Pd8 2.846712 1_555
In12 Pd3 2.853940 1_555
In12 Pr2 3.355944 1_565
In12 Pr2 3.355944 1_655
In12 Pr0 3.553739 1_555
In13 Pd5 2.841997 1_455
In13 Pd5 2.841997 1_545
In13 Pd6 2.846712 1_555
In13 Pd0 2.853940 1_555
In13 Pr1 3.355944 1_455
In13 Pr1 3.355944 1_545
In13 Pr3 3.553739 1_555
In14 Pd9 2.845959 1_564
In14 Pd7 2.845959 1_545
In14 Pd7 2.845959 1_455
In14 Pd9 2.845959 1_654
In15 Pd0 2.780287 1_655
In15 Pd0 2.780287 1_565
In15 Pd5 2.853468 1_555
In15 Pr3 3.302477 1_655
In15 Pr3 3.302477 1_565
In15 Pr1 3.475583 1_555
In16 Pd4 2.794826 1_555
In16 Pd7 2.897521 1_545
In16 Pd7 2.897521 1_455
In16 Pr0 3.224525 1_455
In16 Pr0 3.224525 1_545
In17 Pd5 2.862986 1_555
In17 Pd6 2.866840 1_565
In17 Pd6 2.866840 1_655
In17 Pd2 3.242133 1_665
In17 Pr1 3.485411 1_555
In18 Pd0 2.814438 1_565
In18 Pd0 2.814438 1_655
In18 Pd3 2.850980 1_556
In18 Pr2 3.329152 1_656
In18 Pr2 3.329152 1_566
In18 Pr1 3.485647 1_555
In19 Pd6 2.755620 1_555
In19 Pd9 2.913045 1_565
In19 Pd9 2.913045 1_655
In19 Pr1 3.224023 1_545
In19 Pr1 3.224023 1_455
In20 Pd8 2.758626 1_555
In20 Pd5 2.797476 1_455
In20 Pd5 2.797476 1_545
In20 Pd4 2.816277 1_555
In20 Pr3 3.402854 1_555
Pd0 Pr1 3.460651 1_455
Pd0 Pr1 3.460651 1_545
Pd1 Pr3 3.416867 1_565
Pd1 Pr3 3.416867 1_655
Pd2 Pr0 3.502853 1_455
Pd2 Pr0 3.502853 1_545
Pd3 Pr2 3.460651 1_565
Pd3 Pr2 3.460651 1_655
Pd4 Pr0 3.416867 1_545
Pd4 Pr0 3.416867 1_455
Pd5 Pr3 3.502853 1_655
Pd5 Pr3 3.502853 1_565
Pd6 Pr1 3.358248 1_545
Pd6 Pr1 3.358248 1_455
Pd8 Pr2 3.358248 1_565
Pd8 Pr2 3.358248 1_655
