# generated using pymatgen
data_OsPbO3
_symmetry_space_group_name_H-M   'P 1'
_cell_length_a   7.30927469
_cell_length_b   7.30967332
_cell_length_c   7.30981758
_cell_angle_alpha   60.00259407
_cell_angle_beta   60.00078554
_cell_angle_gamma   60.00014000
_symmetry_Int_Tables_number   1
_chemical_formula_structural   OsPbO3
_chemical_formula_sum   'Os4 Pb4 O12'
_cell_volume   276.16926491
_cell_formula_units_Z   4
loop_
 _symmetry_equiv_pos_site_id
 _symmetry_equiv_pos_as_xyz
  1  'x, y, z'
loop_
 _atom_site_type_symbol
 _atom_site_label
 _atom_site_symmetry_multiplicity
 _atom_site_fract_x
 _atom_site_fract_y
 _atom_site_fract_z
 _atom_site_occupancy
  Os  Os0  1  0.12500168  0.12499909  0.12499898  1
  Os  Os1  1  0.62499921  0.12499845  0.12500081  1
  Os  Os2  1  0.12500128  0.12500002  0.62500026  1
  Os  Os3  1  0.12499976  0.62500053  0.12499975  1
  Pb  Pb0  1  0.62499928  0.62500048  0.62499899  1
  Pb  Pb1  1  0.12500125  0.62499937  0.62499951  1
  Pb  Pb2  1  0.62499748  0.12500090  0.62500045  1
  Pb  Pb3  1  0.62499884  0.62500161  0.12500129  1
  O  O0  1  0.44461091  0.05537314  0.05537318  1
  O  O1  1  0.05537611  0.44461175  0.44463587  1
  O  O2  1  0.44456731  0.05537443  0.44468409  1
  O  O3  1  0.05537443  0.05537451  0.44466348  1
  O  O4  1  0.19462464  0.80538732  0.80536375  1
  O  O5  1  0.80542074  0.80532774  0.19462562  1
  O  O6  1  0.05537493  0.44465166  0.05537490  1
  O  O7  1  0.80538933  0.19462725  0.19462682  1
  O  O8  1  0.19462572  0.80534801  0.19462568  1
  O  O9  1  0.19462549  0.19462566  0.80533616  1
  O  O10  1  0.44457904  0.44467210  0.05537465  1
  O  O11  1  0.80543259  0.19462597  0.80531576  1
loop_
_geom_bond_atom_site_label_1
_geom_bond_atom_site_label_2
_geom_bond_distance
_geom_bond_site_symmetry_2
O0 Os0 1.963822 1_555
O0 Os1 1.964086 1_555
O0 Pb3 2.610792 1_545
O0 Pb2 2.610873 1_554
O1 Os2 1.964027 1_555
O1 Os3 1.964230 1_555
O1 Pb0 2.610686 1_455
O1 Pb1 2.610776 1_555
O2 Os2 1.963568 1_555
O2 Os1 1.964504 1_555
O2 Pb2 2.610723 1_555
O2 Pb0 2.610836 1_545
O3 Os2 1.963788 1_555
O3 Os0 1.964394 1_555
O3 Pb2 2.610669 1_455
O3 Pb1 2.610858 1_545
O4 Os2 1.964031 1_565
O4 Os3 1.964227 1_556
O4 Pb0 2.610675 1_555
O4 Pb1 2.610773 1_555
O5 Os3 1.963639 1_655
O5 Os1 1.964370 1_565
O5 Pb3 2.610710 1_555
O5 Pb0 2.610897 1_555
O6 Os3 1.963841 1_555
O6 Os0 1.964263 1_555
O6 Pb3 2.610652 1_455
O6 Pb1 2.610922 1_554
O7 Os0 1.963837 1_655
O7 Os1 1.964108 1_555
O7 Pb3 2.610813 1_555
O7 Pb2 2.610880 1_555
O8 Os3 1.963844 1_555
O8 Os0 1.964253 1_565
O8 Pb3 2.610636 1_555
O8 Pb1 2.610914 1_555
O9 Os2 1.963769 1_555
O9 Os0 1.964385 1_556
O9 Pb2 2.610640 1_555
O9 Pb1 2.610852 1_555
O10 Os3 1.963642 1_555
O10 Os1 1.964383 1_555
O10 Pb3 2.610730 1_555
O10 Pb0 2.610909 1_554
O11 Os2 1.963581 1_655
O11 Os1 1.964515 1_556
O11 Pb2 2.610740 1_555
O11 Pb0 2.610843 1_555
