# generated using pymatgen
data_PH8N3O2
_symmetry_space_group_name_H-M   'P 1'
_cell_length_a   8.50897300
_cell_length_b   6.96105800
_cell_length_c   9.32760911
_cell_angle_alpha   67.73413917
_cell_angle_beta   90.00000000
_cell_angle_gamma   90.00000000
_symmetry_Int_Tables_number   1
_chemical_formula_structural   PH8N3O2
_chemical_formula_sum   'P4 H32 N12 O8'
_cell_volume   511.29195749
_cell_formula_units_Z   4
loop_
 _symmetry_equiv_pos_site_id
 _symmetry_equiv_pos_as_xyz
  1  'x, y, z'
loop_
 _atom_site_type_symbol
 _atom_site_label
 _atom_site_symmetry_multiplicity
 _atom_site_fract_x
 _atom_site_fract_y
 _atom_site_fract_z
 _atom_site_occupancy
  P  P0  1  0.67287300  0.69654100  0.57756400  1
  P  P1  1  0.17287300  0.30345900  0.92243600  1
  P  P2  1  0.32712700  0.30345900  0.42243600  1
  P  P3  1  0.82712700  0.69654100  0.07756400  1
  H  H0  1  0.50498300  0.87781200  0.67232800  1
  H  H1  1  0.00498300  0.12218800  0.82767200  1
  H  H2  1  0.49501700  0.12218800  0.32767200  1
  H  H3  1  0.99501700  0.87781200  0.17232800  1
  H  H4  1  0.54733700  0.37402800  0.26445100  1
  H  H5  1  0.04733700  0.62597200  0.23554900  1
  H  H6  1  0.45266300  0.62597200  0.73554900  1
  H  H7  1  0.95266300  0.37402800  0.76445100  1
  H  H8  1  0.48512600  0.71306700  0.39658300  1
  H  H9  1  0.98512600  0.28693300  0.10341700  1
  H  H10  1  0.51487400  0.28693300  0.60341700  1
  H  H11  1  0.01487400  0.71306700  0.89658300  1
  H  H12  1  0.65703500  0.80231000  0.31166000  1
  H  H13  1  0.15703500  0.19769000  0.18834000  1
  H  H14  1  0.34296500  0.19769000  0.68834000  1
  H  H15  1  0.84296500  0.80231000  0.81166000  1
  H  H16  1  0.67001200  0.33119500  0.84360200  1
  H  H17  1  0.17001200  0.66880500  0.65639800  1
  H  H18  1  0.32998800  0.66880500  0.15639800  1
  H  H19  1  0.82998800  0.33119500  0.34360200  1
  H  H20  1  0.67459500  0.09786800  0.00026900  1
  H  H21  1  0.17459500  0.90213200  0.49973100  1
  H  H22  1  0.32540500  0.90213200  0.99973100  1
  H  H23  1  0.82540500  0.09786800  0.50026900  1
  H  H24  1  0.51459500  0.24911000  0.96283100  1
  H  H25  1  0.01459500  0.75089000  0.53716900  1
  H  H26  1  0.48540500  0.75089000  0.03716900  1
  H  H27  1  0.98540500  0.24911000  0.46283100  1
  H  H28  1  0.68395700  0.33287600  0.02524000  1
  H  H29  1  0.18395700  0.66712400  0.47476000  1
  H  H30  1  0.31604300  0.66712400  0.97476000  1
  H  H31  1  0.81604300  0.33287600  0.52524000  1
  N  N0  1  0.54447000  0.72812800  0.70269200  1
  N  N1  1  0.04447000  0.27187200  0.79730800  1
  N  N2  1  0.45553000  0.27187200  0.29730800  1
  N  N3  1  0.95553000  0.72812800  0.20269200  1
  N  N4  1  0.58523300  0.79286500  0.40249300  1
  N  N5  1  0.08523300  0.20713500  0.09750700  1
  N  N6  1  0.41476700  0.20713500  0.59750700  1
  N  N7  1  0.91476700  0.79286500  0.90249300  1
  N  N8  1  0.63734300  0.25387500  0.95951300  1
  N  N9  1  0.13734300  0.74612500  0.54048700  1
  N  N10  1  0.36265700  0.74612500  0.04048700  1
  N  N11  1  0.86265700  0.25387500  0.45951300  1
  O  O0  1  0.68382900  0.83205300  0.06855100  1
  O  O1  1  0.18382900  0.16794700  0.43144900  1
  O  O2  1  0.31617100  0.16794700  0.93144900  1
  O  O3  1  0.81617100  0.83205300  0.56855100  1
  O  O4  1  0.70676400  0.46309500  0.63384600  1
  O  O5  1  0.20676400  0.53690500  0.86615400  1
  O  O6  1  0.29323600  0.53690500  0.36615400  1
  O  O7  1  0.79323600  0.46309500  0.13384600  1
loop_
_geom_bond_atom_site_label_1
_geom_bond_atom_site_label_2
_geom_bond_distance
_geom_bond_site_symmetry_2
H0 N0 1.027205 1_555
H1 N1 1.027205 1_555
H2 N2 1.027205 1_555
H3 N3 1.027205 1_555
H4 N2 1.022106 1_555
H5 N3 1.022106 1_455
H6 N0 1.022106 1_555
H7 N1 1.022106 1_655
H8 N4 1.029746 1_555
H9 N5 1.029746 1_655
H10 N6 1.029746 1_555
H11 N7 1.029746 1_455
H12 N4 1.026267 1_555
H13 N5 1.026267 1_555
H14 N6 1.026267 1_555
H15 N7 1.026267 1_555
H16 N8 1.046381 1_555
H17 N9 1.046381 1_555
H18 N10 1.046381 1_555
H19 N11 1.046381 1_555
H20 N8 1.054267 1_554
H21 N9 1.054267 1_555
H22 N10 1.054267 1_556
H23 N11 1.054267 1_555
H24 N8 1.045072 1_555
H25 N9 1.045072 1_555
H26 N10 1.045072 1_555
H27 N11 1.045072 1_555
H28 N8 1.044558 1_554
H29 N9 1.044558 1_555
H30 N10 1.044558 1_556
H31 N11 1.044558 1_555
N0 P0 1.672955 1_555
N1 P1 1.672955 1_555
N2 P2 1.672955 1_555
N3 P3 1.672955 1_555
N4 P0 1.686003 1_555
N5 P1 1.686003 1_554
N6 P2 1.686003 1_555
N7 P3 1.686003 1_556
O0 P3 1.524315 1_555
O1 P2 1.524315 1_555
O2 P1 1.524315 1_555
O3 P0 1.524315 1_555
O4 P0 1.533949 1_555
O5 P1 1.533949 1_555
O6 P2 1.533949 1_555
O7 P3 1.533949 1_555
