# generated using pymatgen
data_K3Cu(CN)4
_symmetry_space_group_name_H-M   'P 1'
_cell_length_a   8.07742524
_cell_length_b   8.07742524
_cell_length_c   8.07742568
_cell_angle_alpha   75.58064748
_cell_angle_beta   75.58064748
_cell_angle_gamma   75.58064832
_symmetry_Int_Tables_number   1
_chemical_formula_structural   K3Cu(CN)4
_chemical_formula_sum   'K6 Cu2 C8 N8'
_cell_volume   484.40631871
_cell_formula_units_Z   2
loop_
 _symmetry_equiv_pos_site_id
 _symmetry_equiv_pos_as_xyz
  1  'x, y, z'
loop_
 _atom_site_type_symbol
 _atom_site_label
 _atom_site_symmetry_multiplicity
 _atom_site_fract_x
 _atom_site_fract_y
 _atom_site_fract_z
 _atom_site_occupancy
  K  K0  1  0.00910300  0.50065700  0.66661800  1
  K  K1  1  0.66661800  0.00910300  0.50065700  1
  K  K2  1  0.50065700  0.66661800  0.00910300  1
  K  K3  1  0.50910300  0.16661800  0.00065700  1
  K  K4  1  0.00065700  0.50910300  0.16661800  1
  K  K5  1  0.16661800  0.00065700  0.50910300  1
  Cu  Cu0  1  0.49870400  0.49870400  0.49870400  1
  Cu  Cu1  1  0.99870400  0.99870400  0.99870400  1
  C  C0  1  0.36507000  0.50837100  0.73371900  1
  C  C1  1  0.50837100  0.73371900  0.36507000  1
  C  C2  1  0.88423300  0.88423300  0.88423300  1
  C  C3  1  0.38423300  0.38423300  0.38423300  1
  C  C4  1  0.73371900  0.36507000  0.50837100  1
  C  C5  1  0.00837100  0.86507000  0.23371900  1
  C  C6  1  0.23371900  0.00837100  0.86507000  1
  C  C7  1  0.86507000  0.23371900  0.00837100  1
  N  N0  1  0.00684200  0.78186200  0.37688500  1
  N  N1  1  0.87688500  0.28186200  0.50684200  1
  N  N2  1  0.28186200  0.50684200  0.87688500  1
  N  N3  1  0.50684200  0.87688500  0.28186200  1
  N  N4  1  0.81513600  0.81513600  0.81513600  1
  N  N5  1  0.31513600  0.31513600  0.31513600  1
  N  N6  1  0.78186200  0.37688500  0.00684200  1
  N  N7  1  0.37688500  0.00684200  0.78186200  1
loop_
_geom_bond_atom_site_label_1
_geom_bond_atom_site_label_2
_geom_bond_distance
_geom_bond_site_symmetry_2
K0 N0 2.826628 1_555
K0 N1 2.948206 1_455
K0 N4 2.990965 1_455
K0 N6 2.992371 1_456
K0 N2 3.114779 1_555
K1 N7 2.826628 1_555
K1 N3 2.948206 1_545
K1 N4 2.990965 1_545
K1 N0 2.992371 1_645
K1 N1 3.114779 1_555
K2 N6 2.826628 1_555
K2 N2 2.948206 1_554
K2 N4 2.990965 1_554
K2 N7 2.992371 1_564
K2 N3 3.114779 1_555
K3 N3 2.826628 1_545
K3 N7 2.948206 1_554
K3 N5 2.990965 1_555
K3 N2 2.992371 1_554
K3 N6 3.114779 1_555
K4 N2 2.826628 1_554
K4 N6 2.948206 1_455
K4 N5 2.990965 1_555
K4 N1 2.992371 1_455
K4 N0 3.114779 1_555
K5 N1 2.826628 1_455
K5 N0 2.948206 1_545
K5 N5 2.990965 1_555
K5 N3 2.992371 1_545
K5 N7 3.114779 1_555
C0 N2 1.182837 1_555
C0 Cu0 1.945811 1_555
C0 K0 3.073626 1_555
C0 K3 3.210669 1_556
C0 K2 3.332834 1_556
C1 N3 1.182837 1_555
C1 Cu0 1.945811 1_555
C1 K2 3.073626 1_555
C1 K5 3.210669 1_565
C1 K1 3.332834 1_565
C2 N4 1.183188 1_555
C2 Cu1 1.960153 1_555
C2 K3 3.387548 1_566
C2 K4 3.387548 1_656
C2 K5 3.387548 1_665
C3 N5 1.183188 1_555
C3 Cu0 1.960153 1_555
C3 K1 3.387548 1_555
C3 K0 3.387548 1_555
C3 K2 3.387548 1_555
C4 N1 1.182837 1_555
C4 Cu0 1.945811 1_555
C4 K1 3.073626 1_555
C4 K4 3.210669 1_655
C4 K0 3.332834 1_655
C5 N0 1.182837 1_555
C5 Cu1 1.945811 1_454
C5 K4 3.073626 1_555
C5 K1 3.210669 1_465
C5 K5 3.332834 1_565
C6 N7 1.182837 1_555
C6 Cu1 1.945811 1_445
C6 K5 3.073626 1_555
C6 K2 3.210669 1_546
C6 K3 3.332834 1_556
C7 N6 1.182837 1_555
C7 Cu1 1.945811 1_544
C7 K3 3.073626 1_555
C7 K0 3.210669 1_654
C7 K4 3.332834 1_655
