# generated using pymatgen
data_Cu11S20
_symmetry_space_group_name_H-M   'P 1'
_cell_length_a   3.70194799
_cell_length_b   3.70194800
_cell_length_c   69.68520424
_cell_angle_alpha   57.91081525
_cell_angle_beta   57.91081533
_cell_angle_gamma   60.00000516
_symmetry_Int_Tables_number   1
_chemical_formula_structural   Cu11S20
_chemical_formula_sum   'Cu11 S20'
_cell_volume   653.16753201
_cell_formula_units_Z   1
loop_
 _symmetry_equiv_pos_site_id
 _symmetry_equiv_pos_as_xyz
  1  'x, y, z'
loop_
 _atom_site_type_symbol
 _atom_site_label
 _atom_site_symmetry_multiplicity
 _atom_site_fract_x
 _atom_site_fract_y
 _atom_site_fract_z
 _atom_site_occupancy
  Cu  Cu0  1  0.73909700  0.73909700  0.08913500  1
  Cu  Cu1  1  0.77909000  0.77909000  0.48313600  1
  Cu  Cu2  1  0.83523800  0.83523800  0.57471400  1
  Cu  Cu3  1  0.79354900  0.79354900  0.63096800  1
  Cu  Cu4  1  0.76968400  0.76968400  0.68454700  1
  Cu  Cu5  1  0.75500100  0.75500100  0.73675000  1
  Cu  Cu6  1  0.74406800  0.74406800  0.78839000  1
  Cu  Cu7  1  0.73437900  0.73437900  0.83984300  1
  Cu  Cu8  1  0.72300400  0.72300400  0.89154900  1
  Cu  Cu9  1  0.70418700  0.70418700  0.94437200  1
  Cu  Cu10  1  0.67994300  0.67994300  0.99800900  1
  S  S0  1  0.89971700  0.89971700  0.01504200  1
  S  S1  1  0.99980000  0.99980000  0.05003000  1
  S  S2  1  0.98995600  0.98995600  0.10150700  1
  S  S3  1  0.87060000  0.87060000  0.16941000  1
  S  S4  1  0.86808400  0.86808400  0.26978700  1
  S  S5  1  0.11398100  0.11398100  0.18290300  1
  S  S6  1  0.80305500  0.80305500  0.37954200  1
  S  S7  1  0.10930500  0.10930500  0.28360400  1
  S  S8  1  0.98203000  0.98203000  0.40269500  1
  S  S9  1  0.03518700  0.03518700  0.49472200  1
  S  S10  1  0.15098700  0.15098700  0.42735200  1
  S  S11  1  0.09255900  0.09255900  0.53611600  1
  S  S12  1  0.02556000  0.02556000  0.69616600  1
  S  S13  1  0.06974100  0.06974100  0.58953900  1
  S  S14  1  0.04435400  0.04435400  0.64334700  1
  S  S15  1  0.01364900  0.01364900  0.74795300  1
  S  S16  1  0.00413300  0.00413300  0.79938000  1
  S  S17  1  0.99273700  0.99273700  0.85109000  1
  S  S18  1  0.97615900  0.97615900  0.90357600  1
  S  S19  1  0.95116400  0.95116400  0.95732500  1
loop_
_geom_bond_atom_site_label_1
_geom_bond_atom_site_label_2
_geom_bond_distance
_geom_bond_site_symmetry_2
Cu0 S1 2.152116 1_555
Cu0 S2 2.243137 1_455
Cu0 S2 2.243137 1_545
Cu0 S2 2.243189 1_555
Cu1 S9 2.230394 1_565
Cu1 S9 2.230394 1_655
Cu1 S9 2.230428 1_665
Cu1 S10 3.070032 1_665
Cu2 S11 2.124213 1_665
Cu2 S13 2.287742 1_565
Cu2 S13 2.287742 1_655
Cu2 S13 2.287769 1_665
Cu3 S14 2.243261 1_665
Cu3 S14 2.243277 1_565
Cu3 S14 2.243277 1_655
Cu3 S13 2.280015 1_665
Cu4 S12 2.230917 1_565
Cu4 S12 2.230917 1_655
Cu4 S12 2.230942 1_665
Cu4 S14 2.267412 1_665
Cu5 S15 2.224467 1_565
Cu5 S15 2.224467 1_655
Cu5 S15 2.224479 1_665
Cu5 S12 2.233511 1_665
Cu6 S16 2.221240 1_665
Cu6 S16 2.221256 1_565
Cu6 S16 2.221256 1_655
Cu6 S15 2.225421 1_665
Cu7 S17 2.225129 1_455
Cu7 S17 2.225129 1_545
Cu7 S17 2.225172 1_555
Cu7 S16 2.226852 1_665
Cu8 S17 2.226632 1_555
Cu8 S18 2.237460 1_455
Cu8 S18 2.237460 1_545
Cu8 S18 2.237475 1_555
Cu9 S18 2.245179 1_555
Cu9 S19 2.253048 1_555
Cu9 S19 2.253076 1_455
Cu9 S19 2.253076 1_545
Cu10 S19 2.239015 1_555
Cu10 S0 2.333815 1_556
Cu10 S0 2.333868 1_456
Cu10 S0 2.333868 1_546
S3 S5 2.262642 1_565
S3 S5 2.262642 1_655
S3 S5 2.262651 1_665
S4 S7 2.268556 1_565
S4 S7 2.268556 1_655
S4 S7 2.268565 1_665
S6 S8 2.488295 1_555
S6 S8 2.488336 1_455
S6 S8 2.488336 1_545
S10 S8 2.531696 1_545
S10 S8 2.531696 1_455
S10 S8 2.531726 1_445
