# generated using pymatgen
data_BaCu4S3
_symmetry_space_group_name_H-M   'P 1'
_cell_length_a   3.98503300
_cell_length_b   10.83591600
_cell_length_c   13.41404200
_cell_angle_alpha   90.00000000
_cell_angle_beta   90.00000000
_cell_angle_gamma   90.00000000
_symmetry_Int_Tables_number   1
_chemical_formula_structural   BaCu4S3
_chemical_formula_sum   'Ba4 Cu16 S12'
_cell_volume   579.23822451
_cell_formula_units_Z   4
loop_
 _symmetry_equiv_pos_site_id
 _symmetry_equiv_pos_as_xyz
  1  'x, y, z'
loop_
 _atom_site_type_symbol
 _atom_site_label
 _atom_site_symmetry_multiplicity
 _atom_site_fract_x
 _atom_site_fract_y
 _atom_site_fract_z
 _atom_site_occupancy
  Ba  Ba0  1  0.25000000  0.72398700  0.51952700  1
  Ba  Ba1  1  0.75000000  0.77601300  0.01952700  1
  Ba  Ba2  1  0.25000000  0.22398700  0.98047300  1
  Ba  Ba3  1  0.75000000  0.27601300  0.48047300  1
  Cu  Cu0  1  0.75000000  0.32109500  0.74757100  1
  Cu  Cu1  1  0.75000000  0.58325200  0.77571900  1
  Cu  Cu2  1  0.25000000  0.17890500  0.24757100  1
  Cu  Cu3  1  0.75000000  0.82109500  0.75242900  1
  Cu  Cu4  1  0.25000000  0.03486800  0.60151100  1
  Cu  Cu5  1  0.75000000  0.08325200  0.72428100  1
  Cu  Cu6  1  0.25000000  0.44953900  0.65456900  1
  Cu  Cu7  1  0.75000000  0.05046100  0.15456900  1
  Cu  Cu8  1  0.75000000  0.55046100  0.34543100  1
  Cu  Cu9  1  0.75000000  0.96513200  0.39848900  1
  Cu  Cu10  1  0.25000000  0.67890500  0.25242900  1
  Cu  Cu11  1  0.25000000  0.91674800  0.27571900  1
  Cu  Cu12  1  0.75000000  0.46513200  0.10151100  1
  Cu  Cu13  1  0.25000000  0.94953900  0.84543100  1
  Cu  Cu14  1  0.25000000  0.41674800  0.22428100  1
  Cu  Cu15  1  0.25000000  0.53486800  0.89848900  1
  S  S0  1  0.25000000  0.23441000  0.67734200  1
  S  S1  1  0.75000000  0.26559000  0.17734200  1
  S  S2  1  0.25000000  0.96580800  0.11024200  1
  S  S3  1  0.25000000  0.46580800  0.38975800  1
  S  S4  1  0.25000000  0.73441000  0.82265800  1
  S  S5  1  0.75000000  0.53419200  0.61024200  1
  S  S6  1  0.75000000  0.42854900  0.89903500  1
  S  S7  1  0.75000000  0.03419200  0.88975800  1
  S  S8  1  0.75000000  0.92854900  0.60096500  1
  S  S9  1  0.25000000  0.07145100  0.39903500  1
  S  S10  1  0.25000000  0.57145100  0.10096500  1
  S  S11  1  0.75000000  0.76559000  0.32265800  1
loop_
_geom_bond_atom_site_label_1
_geom_bond_atom_site_label_2
_geom_bond_distance
_geom_bond_site_symmetry_2
Ba0 S5 3.111346 1_455
Ba0 S5 3.111346 1_555
Ba0 S8 3.174410 1_555
Ba0 S8 3.174410 1_455
Ba0 S3 3.294955 1_555
Ba0 S11 3.338745 1_455
Ba0 S11 3.338745 1_555
Ba1 S2 3.111346 1_655
Ba1 S2 3.111346 1_555
Ba1 S10 3.174410 1_555
Ba1 S10 3.174410 1_655
Ba1 S7 3.294955 1_564
Ba1 S4 3.338745 1_654
Ba1 S4 3.338745 1_554
Ba2 S7 3.111346 1_555
Ba2 S7 3.111346 1_455
Ba2 S6 3.174410 1_555
Ba2 S6 3.174410 1_455
Ba2 S2 3.294955 1_546
Ba2 S1 3.338745 1_456
Ba2 S1 3.338745 1_556
Ba3 S3 3.111346 1_555
Ba3 S3 3.111346 1_655
Ba3 S9 3.174410 1_555
Ba3 S9 3.174410 1_655
Ba3 S5 3.294955 1_555
Ba3 S0 3.338745 1_655
Ba3 S0 3.338745 1_555
Cu0 S6 2.341736 1_555
Cu0 S0 2.395808 1_655
Cu0 S0 2.395808 1_555
Cu0 S5 2.953882 1_555
Cu1 S5 2.282487 1_555
Cu1 S6 2.355082 1_555
Cu1 S4 2.655071 1_655
Cu1 S4 2.655071 1_555
Cu2 S9 2.341736 1_555
Cu2 S1 2.395808 1_455
Cu2 S1 2.395808 1_555
Cu2 S2 2.953882 1_545
Cu3 S8 2.341736 1_555
Cu3 S4 2.395808 1_555
Cu3 S4 2.395808 1_655
Cu3 S7 2.953882 1_565
Cu4 S8 2.301614 1_445
Cu4 S8 2.301614 1_545
Cu4 S0 2.389538 1_555
Cu4 S9 2.744798 1_555
Cu5 S7 2.282487 1_555
Cu5 S8 2.355082 1_545
Cu5 S0 2.655071 1_655
Cu5 S0 2.655071 1_555
Cu6 S5 2.272686 1_555
Cu6 S5 2.272686 1_455
Cu6 S0 2.351050 1_555
Cu7 S2 2.272686 1_645
Cu7 S2 2.272686 1_545
Cu7 S1 2.351050 1_555
Cu8 S3 2.272686 1_555
Cu8 S3 2.272686 1_655
Cu8 S11 2.351050 1_555
Cu9 S9 2.301614 1_665
Cu9 S9 2.301614 1_565
Cu9 S11 2.389538 1_555
Cu9 S8 2.744798 1_555
Cu10 S10 2.341736 1_555
Cu10 S11 2.395808 1_455
Cu10 S11 2.395808 1_555
Cu10 S3 2.953882 1_555
Cu11 S2 2.282487 1_555
Cu11 S9 2.355082 1_565
Cu11 S11 2.655071 1_555
Cu11 S11 2.655071 1_455
Cu12 S10 2.301614 1_555
Cu12 S10 2.301614 1_655
Cu12 S1 2.389538 1_555
Cu12 S6 2.744798 1_554
Cu13 S7 2.272686 1_465
Cu13 S7 2.272686 1_565
Cu13 S4 2.351050 1_555
Cu14 S3 2.282487 1_555
Cu14 S10 2.355082 1_555
Cu14 S1 2.655071 1_555
Cu14 S1 2.655071 1_455
Cu15 S6 2.301614 1_455
Cu15 S6 2.301614 1_555
Cu15 S4 2.389538 1_555
Cu15 S10 2.744798 1_556
