# generated using pymatgen
data_NdCu9Sn4
_symmetry_space_group_name_H-M   'P 1'
_cell_length_a   8.71500356
_cell_length_b   8.71500356
_cell_length_c   8.71500356
_cell_angle_alpha   120.60180221
_cell_angle_beta   120.60180221
_cell_angle_gamma   88.96077065
_symmetry_Int_Tables_number   1
_chemical_formula_structural   NdCu9Sn4
_chemical_formula_sum   'Nd2 Cu18 Sn8'
_cell_volume   463.70493487
_cell_formula_units_Z   2
loop_
 _symmetry_equiv_pos_site_id
 _symmetry_equiv_pos_as_xyz
  1  'x, y, z'
loop_
 _atom_site_type_symbol
 _atom_site_label
 _atom_site_symmetry_multiplicity
 _atom_site_fract_x
 _atom_site_fract_y
 _atom_site_fract_z
 _atom_site_occupancy
  Nd  Nd0  1  0.75000000  0.75000000  0.00000000  1
  Nd  Nd1  1  0.25000000  0.25000000  0.00000000  1
  Cu  Cu0  1  0.19911500  0.05562100  0.25473600  1
  Cu  Cu1  1  0.78278400  0.06468400  0.50000000  1
  Cu  Cu2  1  0.71721600  0.21721600  0.28189900  1
  Cu  Cu3  1  0.06468400  0.56468400  0.28189900  1
  Cu  Cu4  1  0.55562100  0.69911500  0.25473600  1
  Cu  Cu5  1  0.69911500  0.44437900  0.14349400  1
  Cu  Cu6  1  0.80088500  0.94437900  0.74526400  1
  Cu  Cu7  1  0.21721600  0.93531600  0.50000000  1
  Cu  Cu8  1  0.05562100  0.80088500  0.85650600  1
  Cu  Cu9  1  0.93531600  0.43531600  0.71810100  1
  Cu  Cu10  1  0.28278400  0.78278400  0.71810100  1
  Cu  Cu11  1  0.94437900  0.19911500  0.14349400  1
  Cu  Cu12  1  0.30088500  0.55562100  0.85650600  1
  Cu  Cu13  1  0.43531600  0.71721600  0.50000000  1
  Cu  Cu14  1  0.44437900  0.30088500  0.74526400  1
  Cu  Cu15  1  0.50000000  0.00000000  0.50000000  1
  Cu  Cu16  1  0.00000000  0.50000000  0.50000000  1
  Cu  Cu17  1  0.56468400  0.28278400  0.50000000  1
  Sn  Sn0  1  0.31235300  0.44224300  0.50000000  1
  Sn  Sn1  1  0.81235300  0.31235300  0.87011000  1
  Sn  Sn2  1  0.68764700  0.55775700  0.50000000  1
  Sn  Sn3  1  0.94224300  0.81235300  0.50000000  1
  Sn  Sn4  1  0.05775700  0.18764700  0.50000000  1
  Sn  Sn5  1  0.55775700  0.05775700  0.87011000  1
  Sn  Sn6  1  0.18764700  0.68764700  0.12989000  1
  Sn  Sn7  1  0.44224300  0.94224300  0.12989000  1
loop_
_geom_bond_atom_site_label_1
_geom_bond_atom_site_label_2
_geom_bond_distance
_geom_bond_site_symmetry_2
Nd0 Sn0 3.504182 1_554
Nd0 Sn3 3.504182 1_555
Nd0 Sn4 3.504182 1_665
Nd0 Sn1 3.504182 1_554
Nd0 Sn2 3.504182 1_554
Nd0 Sn5 3.504182 1_564
Nd0 Sn7 3.504182 1_555
Nd0 Sn6 3.504182 1_655
Nd1 Sn7 3.504182 1_545
Nd1 Sn5 3.504182 1_554
Nd1 Sn3 3.504182 1_444
Nd1 Sn1 3.504182 1_454
Nd1 Sn0 3.504182 1_555
Nd1 Sn4 3.504182 1_554
Nd1 Sn2 3.504182 1_555
Nd1 Sn6 3.504182 1_555
Cu0 Cu8 2.524804 1_544
Cu0 Cu11 2.524804 1_455
Cu0 Cu15 2.642348 1_555
Cu0 Sn4 2.745167 1_555
Cu0 Sn0 2.745167 1_555
Cu0 Cu7 2.761405 1_545
Cu0 Cu17 2.761405 1_555
Cu0 Sn6 2.797570 1_545
Cu0 Sn7 2.797570 1_545
Cu0 Cu14 2.995310 1_555
Cu0 Nd0 3.585167 1_445
Cu0 Nd1 3.585167 1_555
Cu1 Cu15 2.538062 1_555
Cu1 Sn3 2.579973 1_545
Cu1 Sn4 2.642767 1_655
Cu1 Cu17 2.663567 1_555
Cu1 Cu9 2.673117 1_555
Cu1 Cu2 2.673126 1_555
Cu1 Sn1 2.686028 1_555
Cu1 Sn7 2.686028 1_545
Cu1 Cu4 2.761405 1_545
Cu1 Cu6 2.761405 1_545
Cu1 Nd0 3.631031 1_545
Cu1 Nd1 3.631031 1_656
Cu2 Sn5 2.579966 1_554
Cu2 Sn7 2.642771 1_545
Cu2 Cu9 2.663580 1_555
Cu2 Sn2 2.686030 1_555
Cu2 Sn4 2.686030 1_655
Cu2 Cu5 2.761398 1_555
Cu2 Nd1 3.631030 1_555
Cu2 Nd0 3.631030 1_545
Cu3 Sn1 2.579969 1_454
Cu3 Sn6 2.642759 1_555
Cu3 Cu7 2.673117 1_555
Cu3 Sn0 2.686032 1_555
Cu3 Sn3 2.686032 1_455
Cu3 Cu5 2.761408 1_455
Cu3 Nd1 3.631026 1_555
Cu3 Nd0 3.631026 1_455
Cu4 Cu5 2.524804 1_555
Cu4 Sn3 2.745167 1_555
Cu4 Sn2 2.745167 1_555
Cu4 Sn6 2.797570 1_555
Cu4 Sn7 2.797570 1_555
Cu4 Cu6 2.995310 1_555
Cu4 Nd0 3.585167 1_555
Cu4 Nd1 3.585167 1_555
Cu5 Sn1 2.745167 1_554
Cu5 Sn5 2.745167 1_554
Cu5 Sn2 2.797570 1_555
Cu5 Sn3 2.797570 1_555
Cu5 Nd0 3.585167 1_555
Cu5 Nd1 3.585167 1_555
Cu6 Cu8 2.524804 1_655
Cu6 Sn2 2.745167 1_555
Cu6 Sn3 2.745167 1_555
Cu6 Sn1 2.797570 1_565
Cu6 Sn5 2.797570 1_565
Cu6 Nd0 3.585167 1_556
Cu6 Nd1 3.585167 1_666
Cu7 Sn4 2.579973 1_565
Cu7 Sn3 2.642767 1_455
Cu7 Sn6 2.686028 1_555
Cu7 Sn5 2.686028 1_565
Cu7 Nd1 3.631031 1_566
Cu7 Nd0 3.631031 1_455
Cu8 Sn6 2.745167 1_556
Cu8 Sn7 2.745167 1_556
Cu8 Cu9 2.761408 1_455
Cu8 Sn2 2.797570 1_455
Cu8 Sn3 2.797570 1_455
Cu8 Nd0 3.585167 1_456
Cu8 Nd1 3.585167 1_566
Cu9 Sn6 2.579969 1_656
Cu9 Sn1 2.642759 1_555
Cu9 Sn2 2.686032 1_555
Cu9 Sn4 2.686032 1_655
Cu9 Nd1 3.631026 1_656
Cu9 Nd0 3.631026 1_556
Cu10 Cu16 2.538060 1_555
Cu10 Sn7 2.579966 1_556
Cu10 Sn5 2.642771 1_565
Cu10 Cu3 2.663580 1_555
Cu10 Cu7 2.673126 1_555
Cu10 Cu13 2.673126 1_555
Cu10 Sn3 2.686030 1_455
Cu10 Sn0 2.686030 1_555
Cu10 Cu12 2.761398 1_555
Cu10 Cu8 2.761398 1_555
Cu10 Nd1 3.631030 1_566
Cu10 Nd0 3.631030 1_556
Cu11 Cu6 2.524804 1_544
Cu11 Cu16 2.642348 1_655
Cu11 Sn5 2.745167 1_554
Cu11 Sn1 2.745167 1_554
Cu11 Cu2 2.761398 1_555
Cu11 Cu3 2.761408 1_655
Cu11 Sn0 2.797570 1_655
Cu11 Sn4 2.797570 1_655
Cu11 Cu5 2.995310 1_555
Cu11 Nd0 3.585167 1_545
Cu11 Nd1 3.585167 1_655
Cu12 Cu14 2.524804 1_555
Cu12 Cu4 2.524804 1_556
Cu12 Cu16 2.642348 1_555
Cu12 Sn7 2.745167 1_556
Cu12 Sn6 2.745167 1_556
Cu12 Cu9 2.761408 1_455
Cu12 Sn4 2.797570 1_555
Cu12 Sn0 2.797570 1_555
Cu12 Cu8 2.995310 1_555
Cu12 Nd1 3.585167 1_556
Cu12 Nd0 3.585167 1_556
Cu13 Cu15 2.538062 1_565
Cu13 Sn2 2.579973 1_555
Cu13 Sn0 2.642767 1_555
Cu13 Cu7 2.663567 1_555
Cu13 Cu3 2.673117 1_555
Cu13 Sn6 2.686028 1_555
Cu13 Sn5 2.686028 1_565
Cu13 Cu6 2.761405 1_555
Cu13 Cu4 2.761405 1_555
Cu13 Nd0 3.631031 1_556
Cu13 Nd1 3.631031 1_555
Cu14 Cu5 2.524804 1_556
Cu14 Cu15 2.642348 1_555
Cu14 Sn0 2.745167 1_555
Cu14 Sn4 2.745167 1_555
Cu14 Cu7 2.761405 1_545
Cu14 Cu17 2.761405 1_555
Cu14 Sn5 2.797570 1_555
Cu14 Sn1 2.797570 1_555
Cu14 Nd1 3.585167 1_556
Cu14 Nd0 3.585167 1_556
Cu15 Cu17 2.538062 1_555
Cu15 Cu7 2.538062 1_545
Cu15 Cu4 2.642348 1_545
Cu15 Cu6 2.642348 1_545
Cu15 Sn1 2.759312 1_555
Cu15 Sn6 2.759312 1_545
Cu15 Sn7 2.759312 1_545
Cu15 Sn5 2.759312 1_555
Cu16 Cu2 2.538060 1_455
Cu16 Cu3 2.538070 1_555
Cu16 Cu9 2.538070 1_455
Cu16 Cu8 2.642348 1_555
Cu16 Cu5 2.642348 1_455
Cu16 Sn4 2.759312 1_555
Cu16 Sn3 2.759312 1_455
Cu16 Sn2 2.759312 1_455
Cu16 Sn0 2.759312 1_555
Cu17 Sn0 2.579973 1_555
Cu17 Sn2 2.642767 1_555
Cu17 Cu9 2.673117 1_555
Cu17 Cu2 2.673126 1_555
Cu17 Sn7 2.686028 1_545
Cu17 Sn1 2.686028 1_555
Cu17 Nd0 3.631031 1_556
Cu17 Nd1 3.631031 1_555
