# generated using pymatgen
data_MgSiO3
_symmetry_space_group_name_H-M   'P 1'
_cell_length_a   5.09514300
_cell_length_b   8.53416400
_cell_length_c   9.56205200
_cell_angle_alpha   90.00000000
_cell_angle_beta   90.00000000
_cell_angle_gamma   90.00000000
_symmetry_Int_Tables_number   1
_chemical_formula_structural   MgSiO3
_chemical_formula_sum   'Mg8 Si8 O24'
_cell_volume   415.78466051
_cell_formula_units_Z   8
loop_
 _symmetry_equiv_pos_site_id
 _symmetry_equiv_pos_as_xyz
  1  'x, y, z'
loop_
 _atom_site_type_symbol
 _atom_site_label
 _atom_site_symmetry_multiplicity
 _atom_site_fract_x
 _atom_site_fract_y
 _atom_site_fract_z
 _atom_site_occupancy
  Mg  Mg0  1  0.92944200  0.88194400  0.71115900  1
  Mg  Mg1  1  0.83656200  0.64360700  0.51641900  1
  Mg  Mg2  1  0.07055800  0.11805600  0.21115900  1
  Mg  Mg3  1  0.57055800  0.38194400  0.21115900  1
  Mg  Mg4  1  0.16343800  0.35639300  0.01641900  1
  Mg  Mg5  1  0.66343800  0.14360700  0.01641900  1
  Mg  Mg6  1  0.42944200  0.61805600  0.71115900  1
  Mg  Mg7  1  0.33656200  0.85639300  0.51641900  1
  Si  Si0  1  0.80996900  0.34070500  0.75308300  1
  Si  Si1  1  0.69003100  0.84070500  0.25308300  1
  Si  Si2  1  0.30996900  0.15929500  0.75308300  1
  Si  Si3  1  0.19003100  0.65929500  0.25308300  1
  Si  Si4  1  0.65554400  0.15254200  0.46889900  1
  Si  Si5  1  0.84445600  0.65254200  0.96889900  1
  Si  Si6  1  0.15554400  0.34745800  0.46889900  1
  Si  Si7  1  0.34445600  0.84745800  0.96889900  1
  O  O0  1  0.36953500  0.20702900  0.12772200  1
  O  O1  1  0.07400000  0.50709000  0.38589700  1
  O  O2  1  0.92600000  0.49291000  0.88589700  1
  O  O3  1  0.13046500  0.70702900  0.62772200  1
  O  O4  1  0.98771300  0.79376600  0.34401700  1
  O  O5  1  0.63046500  0.79297100  0.62772200  1
  O  O6  1  0.57400000  0.99291000  0.38589700  1
  O  O7  1  0.48771300  0.70623400  0.34401700  1
  O  O8  1  0.45286200  0.29555400  0.41229300  1
  O  O9  1  0.84846700  0.65765300  0.14068200  1
  O  O10  1  0.04713800  0.79555400  0.91229300  1
  O  O11  1  0.01228700  0.20623400  0.84401700  1
  O  O12  1  0.95286200  0.20444600  0.41229300  1
  O  O13  1  0.54713800  0.70444600  0.91229300  1
  O  O14  1  0.19149100  0.03255900  0.63982900  1
  O  O15  1  0.34846700  0.84234700  0.14068200  1
  O  O16  1  0.86953500  0.29297100  0.12772200  1
  O  O17  1  0.42600000  0.00709000  0.88589700  1
  O  O18  1  0.80850900  0.96744100  0.13982900  1
  O  O19  1  0.65153300  0.15765300  0.64068200  1
  O  O20  1  0.51228700  0.29376600  0.84401700  1
  O  O21  1  0.30850900  0.53255900  0.13982900  1
  O  O22  1  0.15153300  0.34234700  0.64068200  1
  O  O23  1  0.69149100  0.46744100  0.63982900  1
loop_
_geom_bond_atom_site_label_1
_geom_bond_atom_site_label_2
_geom_bond_distance
_geom_bond_site_symmetry_2
Mg0 O5 1.879792 1_555
Mg0 O14 1.974864 1_665
Mg0 O3 1.978361 1_655
Mg0 O10 2.145246 1_655
Mg1 O3 1.915228 1_655
Mg1 O5 1.964752 1_555
Mg1 O23 2.049190 1_555
Mg1 O1 2.092506 1_655
Mg1 O4 2.225514 1_555
Mg1 O7 2.482447 1_555
Mg2 O0 1.879792 1_555
Mg2 O18 1.974864 1_445
Mg2 O16 1.978361 1_455
Mg2 O12 2.145246 1_455
Mg3 O16 1.879792 1_555
Mg3 O21 1.974864 1_555
Mg3 O0 1.978361 1_555
Mg3 O8 2.145246 1_555
Mg4 O16 1.915228 1_455
Mg4 O0 1.964752 1_555
Mg4 O21 2.049190 1_555
Mg4 O2 2.092506 1_454
Mg4 O11 2.225514 1_554
Mg4 O20 2.482447 1_554
Mg5 O0 1.915228 1_555
Mg5 O16 1.964752 1_555
Mg5 O18 2.049190 1_545
Mg5 O17 2.092506 1_554
Mg5 O20 2.225514 1_554
Mg5 O11 2.482447 1_654
Mg6 O3 1.879792 1_555
Mg6 O23 1.974864 1_555
Mg6 O5 1.978361 1_555
Mg6 O13 2.145246 1_555
Mg7 O5 1.915228 1_555
Mg7 O3 1.964752 1_555
Mg7 O14 2.049190 1_565
Mg7 O6 2.092506 1_555
Mg7 O7 2.225514 1_555
Mg7 O4 2.482447 1_455
O1 Si6 1.630480 1_555
O1 Si3 1.910392 1_555
O2 Si5 1.630480 1_555
O2 Si0 1.910392 1_555
O4 Si3 1.770781 1_655
O4 Si1 1.793601 1_555
O6 Si4 1.630480 1_565
O6 Si1 1.910392 1_555
O7 Si1 1.770781 1_555
O7 Si3 1.793601 1_555
O8 Si6 1.668544 1_555
O8 Si4 1.687904 1_555
O9 Si5 1.643304 1_554
O9 Si3 2.045498 1_655
O9 Si1 2.060892 1_555
O10 Si7 1.668544 1_555
O10 Si5 1.687904 1_455
O11 Si0 1.770781 1_455
O11 Si2 1.793601 1_555
O12 Si4 1.668544 1_555
O12 Si6 1.687904 1_655
O13 Si5 1.668544 1_555
O13 Si7 1.687904 1_555
O14 Si2 1.645295 1_555
O15 Si7 1.643304 1_554
O15 Si1 2.045498 1_555
O15 Si3 2.060892 1_555
O17 Si7 1.630480 1_545
O17 Si2 1.910392 1_555
O18 Si1 1.645295 1_555
O19 Si4 1.643304 1_555
O19 Si2 2.045498 1_555
O19 Si0 2.060892 1_555
O20 Si2 1.770781 1_555
O20 Si0 1.793601 1_555
O21 Si3 1.645295 1_555
O22 Si6 1.643304 1_555
O22 Si0 2.045498 1_455
O22 Si2 2.060892 1_555
O23 Si0 1.645295 1_555
