# generated using pymatgen
data_NaSm9Si6(SO12)2
_symmetry_space_group_name_H-M   'P 1'
_cell_length_a   6.77940500
_cell_length_b   9.86908700
_cell_length_c   19.74067421
_cell_angle_alpha   60.00889799
_cell_angle_beta   90.00000000
_cell_angle_gamma   90.00000000
_symmetry_Int_Tables_number   1
_chemical_formula_structural   NaSm9Si6(SO12)2
_chemical_formula_sum   'Na2 Sm18 Si12 S4 O48'
_cell_volume   1143.93171916
_cell_formula_units_Z   2
loop_
 _symmetry_equiv_pos_site_id
 _symmetry_equiv_pos_as_xyz
  1  'x, y, z'
loop_
 _atom_site_type_symbol
 _atom_site_label
 _atom_site_symmetry_multiplicity
 _atom_site_fract_x
 _atom_site_fract_y
 _atom_site_fract_z
 _atom_site_occupancy
  Na  Na0  1  0.25731700  0.66649100  0.33337000  1
  Na  Na1  1  0.74268300  0.66649100  0.83337000  1
  Sm  Sm0  1  0.49476700  0.74822900  0.12162700  1
  Sm  Sm1  1  0.24642100  0.33492500  0.16676100  1
  Sm  Sm2  1  0.75166600  0.33196800  0.16646700  1
  Sm  Sm3  1  0.49757000  0.00884100  0.37416600  1
  Sm  Sm4  1  0.50523300  0.74822900  0.62162700  1
  Sm  Sm5  1  0.00086700  0.76420300  0.49053500  1
  Sm  Sm6  1  0.50323700  0.24274800  0.00445600  1
  Sm  Sm7  1  0.99928200  0.98115900  0.12743100  1
  Sm  Sm8  1  0.74259000  0.66690600  0.33327500  1
  Sm  Sm9  1  0.24833400  0.33196800  0.66646700  1
  Sm  Sm10  1  0.75357900  0.33492500  0.66676100  1
  Sm  Sm11  1  0.50243000  0.00884100  0.87416600  1
  Sm  Sm12  1  0.99913300  0.76420300  0.99053500  1
  Sm  Sm13  1  0.49676300  0.24274800  0.50445600  1
  Sm  Sm14  1  0.00238000  0.25503300  0.38195100  1
  Sm  Sm15  1  0.00071800  0.98115900  0.62743100  1
  Sm  Sm16  1  0.25741000  0.66690600  0.83327500  1
  Sm  Sm17  1  0.99762000  0.25503300  0.88195100  1
  Si  Si0  1  0.50468800  0.37591800  0.29645600  1
  Si  Si1  1  0.49756300  0.59292300  0.01549900  1
  Si  Si2  1  0.99753300  0.97019100  0.30806200  1
  Si  Si3  1  0.50160800  0.03098100  0.18802500  1
  Si  Si4  1  0.49531200  0.37591800  0.79645600  1
  Si  Si5  1  0.50243700  0.59292300  0.51549900  1
  Si  Si6  1  0.99656900  0.41378600  0.48501100  1
  Si  Si7  1  0.99589200  0.61621000  0.20688900  1
  Si  Si8  1  0.00246700  0.97019100  0.80806200  1
  Si  Si9  1  0.49839200  0.03098100  0.68802500  1
  Si  Si10  1  0.00343100  0.41378600  0.98501100  1
  Si  Si11  1  0.00410800  0.61621000  0.70688900  1
  S  S0  1  0.74258700  0.99454900  0.00356100  1
  S  S1  1  0.25741300  0.99454900  0.50356100  1
  S  S2  1  0.74958300  0.00511500  0.49664000  1
  S  S3  1  0.25041700  0.00511500  0.99664000  1
  O  O0  1  0.30561700  0.63804500  0.05241000  1
  O  O1  1  0.69394700  0.63785300  0.04996800  1
  O  O2  1  0.49916300  0.47156400  0.19886400  1
  O  O3  1  0.99673000  0.49373800  0.17376600  1
  O  O4  1  0.69684500  0.25833000  0.31719600  1
  O  O5  1  0.30884400  0.26051100  0.32086600  1
  O  O6  1  0.49762700  0.39765500  0.06533000  1
  O  O7  1  0.00384700  0.34746400  0.07936400  1
  O  O8  1  0.99954200  0.15881900  0.24671300  1
  O  O9  1  0.49508000  0.13063100  0.23578500  1
  O  O10  1  0.18095900  0.92021600  0.37006700  1
  O  O11  1  0.80240200  0.90688600  0.36569400  1
  O  O12  1  0.69590200  0.10691300  0.13013700  1
  O  O13  1  0.30802900  0.09762800  0.12933900  1
  O  O14  1  0.30605300  0.63785300  0.54996800  1
  O  O15  1  0.69438300  0.63804500  0.55241000  1
  O  O16  1  0.50083700  0.47156400  0.69886400  1
  O  O17  1  0.00327000  0.49373800  0.67376600  1
  O  O18  1  0.99396800  0.87190500  0.26141900  1
  O  O19  1  0.51019000  0.84357200  0.24187400  1
  O  O20  1  0.69115600  0.26051100  0.82086600  1
  O  O21  1  0.30315500  0.25833000  0.81719600  1
  O  O22  1  0.51025000  0.67279700  0.42177100  1
  O  O23  1  0.99295400  0.60534300  0.43598100  1
  O  O24  1  0.50237300  0.39765500  0.56533000  1
  O  O25  1  0.99615300  0.34746400  0.57936400  1
  O  O26  1  0.17960200  0.74014800  0.17004700  1
  O  O27  1  0.80104700  0.73143000  0.18101300  1
  O  O28  1  0.00045800  0.15881900  0.74671300  1
  O  O29  1  0.50492000  0.13063100  0.73578500  1
  O  O30  1  0.51171000  0.48366900  0.33630000  1
  O  O31  1  0.99361200  0.52281100  0.30265100  1
  O  O32  1  0.80264200  0.36079600  0.45337800  1
  O  O33  1  0.18145500  0.34110100  0.45988500  1
  O  O34  1  0.19759800  0.90688600  0.86569400  1
  O  O35  1  0.81904100  0.92021600  0.87006700  1
  O  O36  1  0.30409800  0.10691300  0.63013700  1
  O  O37  1  0.69197100  0.09762800  0.62933900  1
  O  O38  1  0.00603200  0.87190500  0.76141900  1
  O  O39  1  0.48981000  0.84357200  0.74187400  1
  O  O40  1  0.48975000  0.67279700  0.92177100  1
  O  O41  1  0.00704600  0.60534300  0.93598100  1
  O  O42  1  0.19895300  0.73143000  0.68101300  1
  O  O43  1  0.82039800  0.74014800  0.67004700  1
  O  O44  1  0.48829000  0.48366900  0.83630000  1
  O  O45  1  0.00638800  0.52281100  0.80265100  1
  O  O46  1  0.81854500  0.34110100  0.95988500  1
  O  O47  1  0.19735800  0.36079600  0.95337800  1
loop_
_geom_bond_atom_site_label_1
_geom_bond_atom_site_label_2
_geom_bond_distance
_geom_bond_site_symmetry_2
Na0 O22 2.469438 1_555
Na0 O19 2.469768 1_555
Na0 O30 2.475646 1_555
Na0 O31 2.536570 1_455
Na0 O18 2.536924 1_455
Na0 O23 2.541116 1_455
Na1 O40 2.469438 1_555
Na1 O39 2.469768 1_555
Na1 O44 2.475646 1_555
Na1 O45 2.536570 1_655
Na1 O38 2.536924 1_655
Na1 O41 2.541116 1_655
S0 Sm0 2.915484 1_555
S0 Sm6 2.945609 1_565
S0 Sm7 2.949954 1_555
S0 Sm11 2.972400 1_564
S0 Sm12 2.973779 1_554
S0 Sm17 3.031734 1_564
S1 Sm4 2.915484 1_555
S1 Sm13 2.945609 1_565
S1 Sm15 2.949954 1_555
S1 Sm3 2.972400 1_565
S1 Sm5 2.973779 1_555
S1 Sm14 3.031734 1_565
S2 Sm14 2.926397 1_655
S2 Sm3 2.945642 1_555
S2 Sm13 2.970406 1_555
S2 Sm5 2.975900 1_645
S2 Sm4 3.000948 1_545
S2 Sm15 3.001753 1_645
S3 Sm17 2.926397 1_455
S3 Sm11 2.945642 1_555
S3 Sm6 2.970406 1_556
S3 Sm12 2.975900 1_445
S3 Sm0 3.000948 1_546
S3 Sm7 3.001753 1_446
O0 Si1 1.657392 1_555
O0 Sm12 2.416386 1_454
O0 Sm0 2.485817 1_555
O0 Sm1 2.730348 1_555
O1 Si1 1.653419 1_555
O1 Sm12 2.397810 1_554
O1 Sm0 2.559604 1_555
O1 Sm2 2.759448 1_555
O2 Si0 1.669104 1_555
O2 Sm0 2.370419 1_555
O2 Sm1 2.451595 1_555
O2 Sm2 2.473499 1_555
O3 Si7 1.636647 1_555
O3 Sm1 2.357494 1_655
O3 Sm2 2.357929 1_555
O4 Si0 1.654209 1_555
O4 Sm14 2.425699 1_655
O4 Sm3 2.526682 1_555
O4 Sm2 2.712564 1_555
O5 Si0 1.656367 1_555
O5 Sm14 2.389236 1_555
O5 Sm3 2.510070 1_555
O5 Sm1 2.781993 1_555
O6 Si1 1.669206 1_555
O6 Sm6 2.370519 1_555
O6 Sm1 2.460400 1_555
O6 Sm2 2.465456 1_555
O7 Si10 1.636725 1_554
O7 Sm1 2.341549 1_555
O7 Sm2 2.374856 1_455
O8 Si2 1.636605 1_545
O8 Sm2 2.355242 1_555
O8 Sm1 2.360211 1_655
O9 Si3 1.668834 1_555
O9 Sm3 2.371669 1_555
O9 Sm1 2.452951 1_555
O9 Sm2 2.475538 1_555
O10 Si2 1.638379 1_455
O10 Sm3 2.334414 1_565
O10 Sm5 2.419951 1_555
O11 Si2 1.650476 1_555
O11 Sm3 2.340812 1_565
O11 Sm5 2.529289 1_655
O11 Sm8 2.774621 1_555
O12 Si3 1.657206 1_555
O12 Sm7 2.416520 1_545
O12 Sm6 2.516658 1_555
O12 Sm2 2.680109 1_555
O13 Si3 1.653851 1_555
O13 Sm7 2.397306 1_445
O13 Sm6 2.519986 1_555
O13 Sm1 2.816785 1_555
O14 Si5 1.653419 1_555
O14 Sm5 2.397810 1_555
O14 Sm4 2.559604 1_555
O14 Sm9 2.759448 1_555
O15 Si5 1.657392 1_555
O15 Sm5 2.416386 1_655
O15 Sm4 2.485817 1_555
O15 Sm10 2.730348 1_555
O16 Si4 1.669104 1_555
O16 Sm4 2.370419 1_555
O16 Sm10 2.451595 1_555
O16 Sm9 2.473499 1_555
O17 Si11 1.636647 1_555
O17 Sm10 2.357494 1_455
O17 Sm9 2.357929 1_555
O18 Si2 1.637734 1_555
O18 Sm7 2.304084 1_555
O18 Sm8 2.478000 1_555
O19 Si3 1.608933 1_565
O19 Sm8 2.373338 1_555
O19 Sm0 2.960409 1_555
O20 Si4 1.656367 1_555
O20 Sm17 2.389236 1_555
O20 Sm11 2.510070 1_555
O20 Sm10 2.781993 1_555
O21 Si4 1.654209 1_555
O21 Sm17 2.425699 1_455
O21 Sm11 2.526682 1_555
O21 Sm9 2.712564 1_555
O22 Si5 1.609193 1_555
O22 Sm8 2.374416 1_555
O22 Sm3 2.962017 1_565
O23 Si6 1.637705 1_555
O23 Sm5 2.304047 1_655
O23 Sm8 2.475727 1_555
O24 Si5 1.669206 1_555
O24 Sm13 2.370519 1_555
O24 Sm10 2.460400 1_555
O24 Sm9 2.465456 1_555
O25 Si6 1.636725 1_555
O25 Sm10 2.341549 1_555
O25 Sm9 2.374856 1_655
O26 Si7 1.639159 1_455
O26 Sm0 2.325721 1_555
O26 Sm7 2.420582 1_455
O27 Si7 1.648675 1_555
O27 Sm0 2.349241 1_555
O27 Sm7 2.528430 1_555
O27 Sm8 2.771930 1_555
O28 Si8 1.636605 1_545
O28 Sm9 2.355242 1_555
O28 Sm10 2.360211 1_455
O29 Si9 1.668834 1_555
O29 Sm11 2.371669 1_555
O29 Sm10 2.452951 1_555
O29 Sm9 2.475538 1_555
O30 Si0 1.608709 1_555
O30 Sm8 2.369767 1_555
O30 Sm13 2.965159 1_555
O31 Si7 1.637524 1_555
O31 Sm14 2.302653 1_655
O31 Sm8 2.478573 1_555
O32 Si6 1.648750 1_555
O32 Sm13 2.345149 1_555
O32 Sm14 2.526379 1_655
O32 Sm8 2.784405 1_555
O33 Si6 1.639313 1_455
O33 Sm13 2.330633 1_555
O33 Sm14 2.422537 1_555
O34 Si8 1.650476 1_555
O34 Sm11 2.340812 1_565
O34 Sm12 2.529289 1_455
O34 Sm16 2.774621 1_555
O35 Si8 1.638379 1_655
O35 Sm11 2.334414 1_565
O35 Sm12 2.419951 1_555
O36 Si9 1.657206 1_555
O36 Sm15 2.416520 1_545
O36 Sm13 2.516658 1_555
O36 Sm9 2.680109 1_555
O37 Si9 1.653851 1_555
O37 Sm15 2.397306 1_645
O37 Sm13 2.519986 1_555
O37 Sm10 2.816785 1_555
O38 Si8 1.637734 1_555
O38 Sm15 2.304084 1_555
O38 Sm16 2.478000 1_555
O39 Si9 1.608933 1_565
O39 Sm16 2.373338 1_555
O39 Sm4 2.960409 1_555
O40 Si1 1.609193 1_556
O40 Sm16 2.374416 1_555
O40 Sm11 2.962017 1_565
O41 Si10 1.637705 1_555
O41 Sm12 2.304047 1_455
O41 Sm16 2.475727 1_555
O42 Si11 1.648675 1_555
O42 Sm4 2.349241 1_555
O42 Sm15 2.528430 1_555
O42 Sm16 2.771930 1_555
O43 Si11 1.639159 1_655
O43 Sm4 2.325721 1_555
O43 Sm15 2.420582 1_655
O44 Si4 1.608709 1_555
O44 Sm16 2.369767 1_555
O44 Sm6 2.965159 1_556
O45 Si11 1.637524 1_555
O45 Sm17 2.302653 1_455
O45 Sm16 2.478573 1_555
O46 Si10 1.639313 1_655
O46 Sm6 2.330633 1_556
O46 Sm17 2.422537 1_555
O47 Si10 1.648750 1_555
O47 Sm6 2.345149 1_556
O47 Sm17 2.526379 1_455
O47 Sm16 2.784405 1_555
