# generated using pymatgen
data_La(GePt)2
_symmetry_space_group_name_H-M   'P 1'
_cell_length_a   4.45843700
_cell_length_b   8.88562153
_cell_length_c   9.84995074
_cell_angle_alpha   89.06914052
_cell_angle_beta   90.00000000
_cell_angle_gamma   90.00000000
_symmetry_Int_Tables_number   1
_chemical_formula_structural   La(GePt)2
_chemical_formula_sum   'La4 Ge8 Pt8'
_cell_volume   390.16399108
_cell_formula_units_Z   4
loop_
 _symmetry_equiv_pos_site_id
 _symmetry_equiv_pos_as_xyz
  1  'x, y, z'
loop_
 _atom_site_type_symbol
 _atom_site_label
 _atom_site_symmetry_multiplicity
 _atom_site_fract_x
 _atom_site_fract_y
 _atom_site_fract_z
 _atom_site_occupancy
  La  La0  1  0.25455364  0.87168297  0.24336106  1
  La  La1  1  0.75455364  0.62831703  0.75663894  1
  La  La2  1  0.24544636  0.37168297  0.24336106  1
  La  La3  1  0.74544636  0.12831703  0.75663894  1
  Ge  Ge0  1  0.24185969  0.12535104  0.99949273  1
  Ge  Ge1  1  0.80334048  0.60990375  0.37917699  1
  Ge  Ge2  1  0.69665952  0.10990375  0.37917699  1
  Ge  Ge3  1  0.25814031  0.62535104  0.99949273  1
  Ge  Ge4  1  0.19665952  0.39009625  0.62082301  1
  Ge  Ge5  1  0.74185969  0.37464896  0.00050727  1
  Ge  Ge6  1  0.30334048  0.89009625  0.62082301  1
  Ge  Ge7  1  0.75814031  0.87464896  0.00050727  1
  Pt  Pt0  1  0.31825525  0.64079701  0.50014199  1
  Pt  Pt1  1  0.74278177  0.12270459  0.12305054  1
  Pt  Pt2  1  0.18174475  0.14079701  0.50014199  1
  Pt  Pt3  1  0.81825525  0.85920299  0.49985801  1
  Pt  Pt4  1  0.24278177  0.37729541  0.87694946  1
  Pt  Pt5  1  0.25721823  0.87729541  0.87694946  1
  Pt  Pt6  1  0.68174475  0.35920299  0.49985801  1
  Pt  Pt7  1  0.75721823  0.62270459  0.12305054  1
loop_
_geom_bond_atom_site_label_1
_geom_bond_atom_site_label_2
_geom_bond_distance
_geom_bond_site_symmetry_2
La0 Pt3 3.189066 1_455
La0 Pt0 3.243183 1_555
La0 Pt1 3.321399 1_565
La0 Pt7 3.361624 1_455
La0 Pt7 3.377344 1_555
La0 Pt1 3.391119 1_465
La0 Pt2 3.523804 1_565
La0 Pt3 3.564074 1_555
La0 Pt5 3.608690 1_554
La1 Pt0 3.189066 1_555
La1 Pt3 3.243183 1_555
La1 Pt4 3.321399 1_655
La1 Pt5 3.361624 1_555
La1 Pt5 3.377344 1_655
La1 Pt4 3.391119 1_555
La1 Pt6 3.523804 1_555
La1 Pt0 3.564074 1_655
La1 Pt7 3.608690 1_556
La2 Pt6 3.189066 1_555
La2 Pt2 3.243183 1_555
La2 Pt7 3.321399 1_455
La2 Pt1 3.361624 1_555
La2 Pt1 3.377344 1_455
La2 Pt7 3.391119 1_555
La2 Pt0 3.523804 1_555
La2 Pt6 3.564074 1_455
La2 Pt4 3.608690 1_554
La3 Pt2 3.189066 1_655
La3 Pt6 3.243183 1_555
La3 Pt5 3.321399 1_545
La3 Pt4 3.361624 1_655
La3 Pt4 3.377344 1_555
La3 Pt5 3.391119 1_645
La3 Pt3 3.523804 1_545
La3 Pt2 3.564074 1_555
La3 Pt1 3.608690 1_556
Ge0 Pt4 2.526039 1_555
Ge0 Pt5 2.531062 1_545
Ge0 Pt1 2.536121 1_456
Ge0 Pt1 2.543338 1_556
Ge0 La3 3.258704 1_455
Ge0 La0 3.267695 1_546
Ge0 La2 3.275978 1_556
Ge0 La3 3.280510 1_555
Ge1 Pt0 2.486567 1_555
Ge1 Pt3 2.531799 1_555
Ge1 Pt7 2.531913 1_555
Ge1 Pt6 2.565779 1_555
Ge1 Pt0 2.603067 1_655
Ge1 La2 3.201170 1_655
Ge1 La0 3.338580 1_655
Ge1 La2 3.542469 1_555
Ge1 La0 3.617409 1_555
Ge1 La1 3.730581 1_555
Ge2 Pt2 2.486567 1_655
Ge2 Pt6 2.531799 1_555
Ge2 Pt1 2.531913 1_555
Ge2 Pt3 2.565779 1_545
Ge2 Pt2 2.603067 1_555
Ge2 La0 3.201170 1_545
Ge2 La2 3.338580 1_555
Ge2 La0 3.542469 1_645
Ge2 La2 3.617409 1_655
Ge2 La3 3.730581 1_555
Ge3 Pt5 2.526039 1_555
Ge3 Pt4 2.531062 1_555
Ge3 Pt7 2.536121 1_556
Ge3 Pt7 2.543338 1_456
Ge3 La1 3.258704 1_555
Ge3 La2 3.267695 1_556
Ge3 La0 3.275978 1_556
Ge3 La1 3.280510 1_455
Ge4 Pt6 2.486567 1_555
Ge4 Pt2 2.531799 1_555
Ge4 Pt4 2.531913 1_555
Ge4 Pt0 2.565779 1_555
Ge4 Pt6 2.603067 1_455
Ge4 La1 3.201170 1_455
Ge4 La3 3.338580 1_455
Ge4 La1 3.542469 1_555
Ge4 La3 3.617409 1_555
Ge4 La2 3.730581 1_555
Ge5 Pt1 2.526039 1_555
Ge5 Pt7 2.531062 1_555
Ge5 Pt4 2.536121 1_554
Ge5 Pt4 2.543338 1_654
Ge5 La2 3.258704 1_555
Ge5 La1 3.267695 1_554
Ge5 La3 3.275978 1_554
Ge5 La2 3.280510 1_655
Ge6 Pt3 2.486567 1_455
Ge6 Pt0 2.531799 1_555
Ge6 Pt5 2.531913 1_555
Ge6 Pt2 2.565779 1_565
Ge6 Pt3 2.603067 1_555
Ge6 La3 3.201170 1_565
Ge6 La1 3.338580 1_555
Ge6 La3 3.542469 1_465
Ge6 La1 3.617409 1_455
Ge6 La0 3.730581 1_555
Ge7 Pt7 2.526039 1_555
Ge7 Pt1 2.531062 1_565
Ge7 Pt5 2.536121 1_654
Ge7 Pt5 2.543338 1_554
Ge7 La0 3.258704 1_655
Ge7 La3 3.267695 1_564
Ge7 La1 3.275978 1_554
Ge7 La0 3.280510 1_555
