# generated using pymatgen
data_Li3YbCl6
_symmetry_space_group_name_H-M   'P 1'
_cell_length_a   8.15791300
_cell_length_b   9.95456300
_cell_length_c   11.37044700
_cell_angle_alpha   90.00000000
_cell_angle_beta   90.00000000
_cell_angle_gamma   90.00000000
_symmetry_Int_Tables_number   1
_chemical_formula_structural   Li3YbCl6
_chemical_formula_sum   'Li12 Yb4 Cl24'
_cell_volume   923.37647795
_cell_formula_units_Z   4
loop_
 _symmetry_equiv_pos_site_id
 _symmetry_equiv_pos_as_xyz
  1  'x, y, z'
loop_
 _atom_site_type_symbol
 _atom_site_label
 _atom_site_symmetry_multiplicity
 _atom_site_fract_x
 _atom_site_fract_y
 _atom_site_fract_z
 _atom_site_occupancy
  Li  Li0  1  0.51258400  0.05345000  0.13635500  1
  Li  Li1  1  0.82776100  0.69408300  0.05184600  1
  Li  Li2  1  0.02746300  0.03866000  0.21601000  1
  Li  Li3  1  0.02746300  0.46134000  0.71601000  1
  Li  Li4  1  0.82776100  0.80591700  0.55184600  1
  Li  Li5  1  0.51258400  0.44655000  0.63635500  1
  Li  Li6  1  0.32776100  0.19408300  0.44815400  1
  Li  Li7  1  0.01258400  0.55345000  0.36364500  1
  Li  Li8  1  0.52746300  0.53866000  0.28399000  1
  Li  Li9  1  0.52746300  0.96134000  0.78399000  1
  Li  Li10  1  0.01258400  0.94655000  0.86364500  1
  Li  Li11  1  0.32776100  0.30591700  0.94815400  1
  Yb  Yb0  1  0.77792100  0.16666300  0.53237700  1
  Yb  Yb1  1  0.77792100  0.33333700  0.03237700  1
  Yb  Yb2  1  0.27792100  0.66666300  0.96762300  1
  Yb  Yb3  1  0.27792100  0.83333700  0.46762300  1
  Cl  Cl0  1  0.03685500  0.64417900  0.55979100  1
  Cl  Cl1  1  0.49618100  0.68531000  0.60606200  1
  Cl  Cl2  1  0.25465900  0.64808300  0.29419300  1
  Cl  Cl3  1  0.81698600  0.53396900  0.20827900  1
  Cl  Cl4  1  0.62115100  0.74342800  0.90368200  1
  Cl  Cl5  1  0.97007900  0.54073100  0.92633400  1
  Cl  Cl6  1  0.97007900  0.95926900  0.42633400  1
  Cl  Cl7  1  0.62115100  0.75657200  0.40368200  1
  Cl  Cl8  1  0.81698600  0.96603100  0.70827900  1
  Cl  Cl9  1  0.25465900  0.85191700  0.79419300  1
  Cl  Cl10  1  0.49618100  0.81469000  0.10606200  1
  Cl  Cl11  1  0.03685500  0.85582100  0.05979100  1
  Cl  Cl12  1  0.99618100  0.18531000  0.89393800  1
  Cl  Cl13  1  0.53685500  0.14417900  0.94020900  1
  Cl  Cl14  1  0.75465900  0.14808300  0.20580700  1
  Cl  Cl15  1  0.31698600  0.03396900  0.29172100  1
  Cl  Cl16  1  0.47007900  0.04073100  0.57366600  1
  Cl  Cl17  1  0.12115100  0.24342800  0.59631800  1
  Cl  Cl18  1  0.12115100  0.25657200  0.09631800  1
  Cl  Cl19  1  0.47007900  0.45926900  0.07366600  1
  Cl  Cl20  1  0.31698600  0.46603100  0.79172100  1
  Cl  Cl21  1  0.75465900  0.35191700  0.70580700  1
  Cl  Cl22  1  0.53685500  0.35582100  0.44020900  1
  Cl  Cl23  1  0.99618100  0.31469000  0.39393800  1
loop_
_geom_bond_atom_site_label_1
_geom_bond_atom_site_label_2
_geom_bond_distance
_geom_bond_site_symmetry_2
Cl0 Li4 2.347342 1_455
Cl0 Li7 2.414334 1_555
Cl0 Li3 2.544355 1_555
Cl0 Yb3 2.917433 1_555
Cl1 Li5 2.405306 1_555
Cl1 Yb3 2.796339 1_555
Cl2 Li7 2.326153 1_555
Cl2 Li8 2.480492 1_555
Cl2 Yb3 2.706565 1_555
Cl3 Li7 2.388427 1_655
Cl3 Li1 2.389969 1_555
Cl3 Li8 2.514331 1_555
Cl3 Yb1 2.844420 1_555
Cl4 Li1 2.433187 1_556
Cl4 Li9 2.672424 1_555
Cl4 Yb2 2.992115 1_555
Cl5 Li1 2.390610 1_556
Cl5 Li3 2.561815 1_655
Cl5 Yb2 2.845836 1_655
Cl5 Yb1 2.858929 1_556
Cl6 Li4 2.390610 1_555
Cl6 Li2 2.561815 1_665
Cl6 Yb3 2.845836 1_655
Cl6 Yb0 2.858929 1_565
Cl7 Li4 2.433187 1_555
Cl7 Li8 2.672424 1_555
Cl7 Yb3 2.992115 1_555
Cl8 Li10 2.388427 1_655
Cl8 Li4 2.389969 1_555
Cl8 Li9 2.514331 1_555
Cl8 Yb0 2.844420 1_565
Cl9 Li10 2.326153 1_555
Cl9 Li9 2.480492 1_555
Cl9 Yb2 2.706565 1_555
Cl10 Li0 2.405306 1_565
Cl10 Yb2 2.796339 1_554
Cl11 Li1 2.347342 1_455
Cl11 Li10 2.414334 1_554
Cl11 Li2 2.544355 1_565
Cl11 Yb2 2.917433 1_554
Cl12 Li10 2.405306 1_645
Cl12 Yb1 2.796339 1_556
Cl13 Li11 2.347342 1_555
Cl13 Li0 2.414334 1_556
Cl13 Li9 2.544355 1_545
Cl13 Yb1 2.917433 1_556
Cl14 Li0 2.326153 1_555
Cl14 Li2 2.480492 1_655
Cl14 Yb1 2.706565 1_555
Cl15 Li0 2.388427 1_555
Cl15 Li6 2.389969 1_555
Cl15 Li2 2.514331 1_555
Cl15 Yb3 2.844420 1_545
Cl16 Li6 2.390610 1_555
Cl16 Li9 2.561815 1_545
Cl16 Yb0 2.845836 1_555
Cl16 Yb3 2.858929 1_545
Cl17 Li6 2.433187 1_555
Cl17 Li3 2.672424 1_555
Cl17 Yb0 2.992115 1_455
Cl18 Li11 2.433187 1_554
Cl18 Li2 2.672424 1_555
Cl18 Yb1 2.992115 1_455
Cl19 Li11 2.390610 1_554
Cl19 Li8 2.561815 1_555
Cl19 Yb1 2.845836 1_555
Cl19 Yb2 2.858929 1_554
Cl20 Li5 2.388427 1_555
Cl20 Li11 2.389969 1_555
Cl20 Li3 2.514331 1_555
Cl20 Yb2 2.844420 1_555
Cl21 Li5 2.326153 1_555
Cl21 Li3 2.480492 1_655
Cl21 Yb0 2.706565 1_555
Cl22 Li6 2.347342 1_555
Cl22 Li5 2.414334 1_555
Cl22 Li8 2.544355 1_555
Cl22 Yb0 2.917433 1_555
Cl23 Li7 2.405306 1_655
Cl23 Yb0 2.796339 1_555
