# generated using pymatgen
data_RbHgC3(SN)3
_symmetry_space_group_name_H-M   'P 1'
_cell_length_a   4.24464600
_cell_length_b   11.34841700
_cell_length_c   11.63861884
_cell_angle_alpha   64.38264167
_cell_angle_beta   90.00000000
_cell_angle_gamma   90.00000000
_symmetry_Int_Tables_number   1
_chemical_formula_structural   RbHgC3(SN)3
_chemical_formula_sum   'Rb2 Hg2 C6 S6 N6'
_cell_volume   505.52313797
_cell_formula_units_Z   2
loop_
 _symmetry_equiv_pos_site_id
 _symmetry_equiv_pos_as_xyz
  1  'x, y, z'
loop_
 _atom_site_type_symbol
 _atom_site_label
 _atom_site_symmetry_multiplicity
 _atom_site_fract_x
 _atom_site_fract_y
 _atom_site_fract_z
 _atom_site_occupancy
  Rb  Rb0  1  0.25000000  0.71986300  0.40458400  1
  Rb  Rb1  1  0.75000000  0.28013700  0.59541600  1
  Hg  Hg0  1  0.75000000  0.72238700  0.85391400  1
  Hg  Hg1  1  0.25000000  0.27761300  0.14608600  1
  C  C0  1  0.75000000  0.80100300  0.08938600  1
  C  C1  1  0.75000000  0.03737400  0.36015200  1
  C  C2  1  0.25000000  0.47307700  0.27594400  1
  C  C3  1  0.25000000  0.96262600  0.63984800  1
  C  C4  1  0.75000000  0.52692300  0.72405600  1
  C  C5  1  0.25000000  0.19899700  0.91061400  1
  S  S0  1  0.75000000  0.19522900  0.32401800  1
  S  S1  1  0.25000000  0.50973800  0.12179200  1
  S  S2  1  0.25000000  0.10620500  0.06665300  1
  S  S3  1  0.75000000  0.49026200  0.87820800  1
  S  S4  1  0.25000000  0.80477100  0.67598200  1
  S  S5  1  0.75000000  0.89379500  0.93334700  1
  N  N0  1  0.25000000  0.07570900  0.61305900  1
  N  N1  1  0.75000000  0.55146200  0.61459400  1
  N  N2  1  0.75000000  0.74326200  0.20146400  1
  N  N3  1  0.75000000  0.92429100  0.38694100  1
  N  N4  1  0.25000000  0.25673800  0.79853600  1
  N  N5  1  0.25000000  0.44853800  0.38540600  1
loop_
_geom_bond_atom_site_label_1
_geom_bond_atom_site_label_2
_geom_bond_distance
_geom_bond_site_symmetry_2
Rb0 S4 3.679365 1_555
Rb1 S0 3.679365 1_555
Hg0 S5 2.488688 1_555
Hg0 S3 2.524908 1_555
Hg0 S4 2.827136 1_655
Hg0 S4 2.827136 1_555
Hg1 S2 2.488688 1_555
Hg1 S1 2.524908 1_555
Hg1 S0 2.827136 1_455
Hg1 S0 2.827136 1_555
C0 N2 1.179746 1_555
C0 S5 1.659321 1_554
C1 N3 1.182418 1_545
C1 S0 1.653643 1_555
C2 N5 1.180597 1_555
C2 S1 1.657255 1_555
C3 N0 1.182418 1_565
C3 S4 1.653643 1_555
C4 N1 1.180597 1_555
C4 S3 1.657255 1_555
C5 N4 1.179746 1_555
C5 S2 1.659321 1_556
N0 Rb1 3.084896 1_455
N0 Rb1 3.084896 1_555
N1 Rb0 3.176718 1_555
N1 Rb0 3.176718 1_655
N1 Rb1 3.181986 1_555
N2 Rb0 3.101711 1_655
N2 Rb0 3.101711 1_555
N3 Rb0 3.084896 1_655
N3 Rb0 3.084896 1_555
N4 Rb1 3.101711 1_455
N4 Rb1 3.101711 1_555
N5 Rb1 3.176718 1_455
N5 Rb1 3.176718 1_555
N5 Rb0 3.181986 1_555
