# generated using pymatgen
data_PH9C2NO3F
_symmetry_space_group_name_H-M   'P 1'
_cell_length_a   11.17482900
_cell_length_b   11.19762500
_cell_length_c   12.18220500
_cell_angle_alpha   90.00000000
_cell_angle_beta   90.00000000
_cell_angle_gamma   90.00000000
_symmetry_Int_Tables_number   1
_chemical_formula_structural   PH9C2NO3F
_chemical_formula_sum   'P8 H72 C16 N8 O24 F8'
_cell_volume   1524.37812805
_cell_formula_units_Z   8
loop_
 _symmetry_equiv_pos_site_id
 _symmetry_equiv_pos_as_xyz
  1  'x, y, z'
loop_
 _atom_site_type_symbol
 _atom_site_label
 _atom_site_symmetry_multiplicity
 _atom_site_fract_x
 _atom_site_fract_y
 _atom_site_fract_z
 _atom_site_occupancy
  P  P0  1  0.27039600  0.74973200  0.40631600  1
  P  P1  1  0.77039600  0.75026800  0.59368400  1
  P  P2  1  0.72960400  0.25026800  0.59368400  1
  P  P3  1  0.72960400  0.24973200  0.09368400  1
  P  P4  1  0.22960400  0.24973200  0.40631600  1
  P  P5  1  0.77039600  0.74973200  0.09368400  1
  P  P6  1  0.22960400  0.25026800  0.90631600  1
  P  P7  1  0.27039600  0.75026800  0.90631600  1
  H  H0  1  0.96088500  0.60846400  0.81957300  1
  H  H1  1  0.96088500  0.89153600  0.31957300  1
  H  H2  1  0.09850000  0.11963300  0.15825000  1
  H  H3  1  0.02071200  0.38896600  0.83748300  1
  H  H4  1  0.17452700  0.45218400  0.23809000  1
  H  H5  1  0.03911500  0.39153600  0.18042700  1
  H  H6  1  0.09850000  0.38036700  0.65825000  1
  H  H7  1  0.20511200  0.37238900  0.42017600  1
  H  H8  1  0.02071200  0.11103400  0.33748300  1
  H  H9  1  0.89916300  0.03350300  0.79943700  1
  H  H10  1  0.67452700  0.45218400  0.26191000  1
  H  H11  1  0.29488800  0.62761100  0.92017600  1
  H  H12  1  0.32547300  0.54781600  0.73809000  1
  H  H13  1  0.12453700  0.06991100  0.52448900  1
  H  H14  1  0.46088500  0.60846400  0.68042700  1
  H  H15  1  0.67452700  0.04781600  0.76191000  1
  H  H16  1  0.97928800  0.61103400  0.16251700  1
  H  H17  1  0.37546300  0.56991100  0.52448900  1
  H  H18  1  0.60083700  0.53350300  0.79943700  1
  H  H19  1  0.90387400  0.13857200  0.24988900  1
  H  H20  1  0.70511200  0.37238900  0.07982400  1
  H  H21  1  0.90150000  0.61963300  0.34175000  1
  H  H22  1  0.40150000  0.88036700  0.65825000  1
  H  H23  1  0.52071200  0.11103400  0.16251700  1
  H  H24  1  0.03911500  0.10846400  0.68042700  1
  H  H25  1  0.20511200  0.12761100  0.92017600  1
  H  H26  1  0.60083700  0.96649700  0.29943700  1
  H  H27  1  0.90387400  0.36142800  0.74988900  1
  H  H28  1  0.37546300  0.93008900  0.02448900  1
  H  H29  1  0.40150000  0.61963300  0.15825000  1
  H  H30  1  0.79488800  0.62761100  0.57982400  1
  H  H31  1  0.59612600  0.63857200  0.24988900  1
  H  H32  1  0.51375100  0.98131800  0.60936400  1
  H  H33  1  0.53911500  0.10846400  0.81957300  1
  H  H34  1  0.59850000  0.38036700  0.84175000  1
  H  H35  1  0.53911500  0.39153600  0.31957300  1
  H  H36  1  0.59850000  0.11963300  0.34175000  1
  H  H37  1  0.90150000  0.88036700  0.84175000  1
  H  H38  1  0.47928800  0.88896600  0.83748300  1
  H  H39  1  0.10083700  0.53350300  0.70056300  1
  H  H40  1  0.01375100  0.98131800  0.89063600  1
  H  H41  1  0.70511200  0.12761100  0.57982400  1
  H  H42  1  0.98624900  0.48131800  0.60936400  1
  H  H43  1  0.09612600  0.63857200  0.25011100  1
  H  H44  1  0.82547300  0.95218400  0.26191000  1
  H  H45  1  0.29488800  0.87238900  0.42017600  1
  H  H46  1  0.39916300  0.03350300  0.70056300  1
  H  H47  1  0.51375100  0.51868200  0.10936400  1
  H  H48  1  0.87546300  0.56991100  0.97551100  1
  H  H49  1  0.97928800  0.88896600  0.66251700  1
  H  H50  1  0.12453700  0.43008900  0.02448900  1
  H  H51  1  0.89916300  0.46649700  0.29943700  1
  H  H52  1  0.52071200  0.38896600  0.66251700  1
  H  H53  1  0.62453700  0.43008900  0.47551100  1
  H  H54  1  0.62453700  0.06991100  0.97551100  1
  H  H55  1  0.47928800  0.61103400  0.33748300  1
  H  H56  1  0.17452700  0.04781600  0.73809000  1
  H  H57  1  0.48624900  0.48131800  0.89063600  1
  H  H58  1  0.46088500  0.89153600  0.18042700  1
  H  H59  1  0.10083700  0.96649700  0.20056300  1
  H  H60  1  0.01375100  0.51868200  0.39063600  1
  H  H61  1  0.09612600  0.86142800  0.75011100  1
  H  H62  1  0.79488800  0.87238900  0.07982400  1
  H  H63  1  0.40387400  0.13857200  0.25011100  1
  H  H64  1  0.32547300  0.95218400  0.23809000  1
  H  H65  1  0.59612600  0.86142800  0.74988900  1
  H  H66  1  0.48624900  0.01868200  0.39063600  1
  H  H67  1  0.82547300  0.54781600  0.76191000  1
  H  H68  1  0.98624900  0.01868200  0.10936400  1
  H  H69  1  0.87546300  0.93008900  0.47551100  1
  H  H70  1  0.39916300  0.46649700  0.20056300  1
  H  H71  1  0.40387400  0.36142800  0.75011100  1
  C  C0  1  0.95675600  0.54228100  0.32070900  1
  C  C1  1  0.45675600  0.54228100  0.17929100  1
  C  C2  1  0.54324400  0.04228100  0.32070900  1
  C  C3  1  0.39943100  0.96853100  0.18003400  1
  C  C4  1  0.89943100  0.96853100  0.31996600  1
  C  C5  1  0.04324400  0.45771900  0.67929100  1
  C  C6  1  0.45675600  0.95771900  0.67929100  1
  C  C7  1  0.10056900  0.46853100  0.18003400  1
  C  C8  1  0.54324400  0.45771900  0.82070900  1
  C  C9  1  0.60056900  0.03146900  0.81996600  1
  C  C10  1  0.89943100  0.53146900  0.81996600  1
  C  C11  1  0.39943100  0.53146900  0.68003400  1
  C  C12  1  0.95675600  0.95771900  0.82070900  1
  C  C13  1  0.60056900  0.46853100  0.31996600  1
  C  C14  1  0.10056900  0.03146900  0.68003400  1
  C  C15  1  0.04324400  0.04228100  0.17929100  1
  N  N0  1  0.53283700  0.92635200  0.77494000  1
  N  N1  1  0.03283700  0.92635200  0.72506000  1
  N  N2  1  0.46716300  0.42635200  0.72506000  1
  N  N3  1  0.53283700  0.57364800  0.27494000  1
  N  N4  1  0.46716300  0.07364800  0.22506000  1
  N  N5  1  0.96716300  0.07364800  0.27494000  1
  N  N6  1  0.96716300  0.42635200  0.77494000  1
  N  N7  1  0.03283700  0.57364800  0.22506000  1
  O  O0  1  0.19970100  0.73041600  0.30345900  1
  O  O1  1  0.35801400  0.50269600  0.57596800  1
  O  O2  1  0.88303700  0.82186500  0.57218200  1
  O  O3  1  0.64198600  0.49730400  0.42403200  1
  O  O4  1  0.85801400  0.99730400  0.42403200  1
  O  O5  1  0.30029900  0.26958400  0.80345900  1
  O  O6  1  0.80029900  0.26958400  0.69654100  1
  O  O7  1  0.11696300  0.17813500  0.42781800  1
  O  O8  1  0.88303700  0.67813500  0.07218200  1
  O  O9  1  0.35801400  0.99730400  0.07596800  1
  O  O10  1  0.80029900  0.23041600  0.19654100  1
  O  O11  1  0.64198600  0.00269600  0.92403200  1
  O  O12  1  0.85801400  0.50269600  0.92403200  1
  O  O13  1  0.69970100  0.76958400  0.69654100  1
  O  O14  1  0.61696300  0.17813500  0.07218200  1
  O  O15  1  0.19970100  0.76958400  0.80345900  1
  O  O16  1  0.14198600  0.00269600  0.57596800  1
  O  O17  1  0.11696300  0.32186500  0.92781800  1
  O  O18  1  0.38303700  0.67813500  0.42781800  1
  O  O19  1  0.38303700  0.82186500  0.92781800  1
  O  O20  1  0.69970100  0.73041600  0.19654100  1
  O  O21  1  0.30029900  0.23041600  0.30345900  1
  O  O22  1  0.14198600  0.49730400  0.07596800  1
  O  O23  1  0.61696300  0.32186500  0.57218200  1
  F  F0  1  0.68555100  0.72968200  0.98994600  1
  F  F1  1  0.18555100  0.72968200  0.51005400  1
  F  F2  1  0.31444900  0.22968200  0.51005400  1
  F  F3  1  0.81444900  0.22968200  0.98994600  1
  F  F4  1  0.18555100  0.77031800  0.01005400  1
  F  F5  1  0.68555100  0.77031800  0.48994600  1
  F  F6  1  0.31444900  0.27031800  0.01005400  1
  F  F7  1  0.81444900  0.27031800  0.48994600  1
loop_
_geom_bond_atom_site_label_1
_geom_bond_atom_site_label_2
_geom_bond_distance
_geom_bond_site_symmetry_2
H3 N6 1.055390 1_455
H3 O17 1.712456 1_555
H7 P4 1.410613 1_555
H8 N5 1.055390 1_455
H8 O7 1.712456 1_555
H11 P7 1.410613 1_555
H13 O16 0.998894 1_555
H13 O7 1.691935 1_555
H16 N7 1.055390 1_655
H16 O8 1.712456 1_555
H17 O1 0.998894 1_555
H17 O18 1.691935 1_555
H19 N5 1.059173 1_555
H19 O10 1.679194 1_555
H20 P3 1.410613 1_555
H23 N4 1.055390 1_555
H23 O14 1.712456 1_555
H25 P6 1.410613 1_555
H27 N6 1.059173 1_555
H27 O6 1.679194 1_555
H28 O9 0.998894 1_555
H28 O19 1.691935 1_554
H30 P1 1.410613 1_555
H31 N3 1.059173 1_555
H31 O20 1.679194 1_555
H38 N0 1.055390 1_555
H38 O19 1.712456 1_555
H41 P2 1.410613 1_555
H43 N7 1.059173 1_555
H43 O0 1.679194 1_555
H45 P0 1.410613 1_555
H48 O12 0.998894 1_555
H48 O8 1.691935 1_556
H49 N1 1.055390 1_655
H49 O2 1.712456 1_555
H50 O22 0.998894 1_555
H50 O17 1.691935 1_554
H52 N2 1.055390 1_555
H52 O23 1.712456 1_555
H53 O3 0.998894 1_555
H53 O23 1.691935 1_555
H54 O11 0.998894 1_555
H54 O14 1.691935 1_556
H55 N3 1.055390 1_555
H55 O18 1.712456 1_555
H61 N1 1.059173 1_555
H61 O15 1.679194 1_555
H62 P5 1.410613 1_555
H63 N4 1.059173 1_555
H63 O21 1.679194 1_555
H65 N0 1.059173 1_555
H65 O13 1.679194 1_555
H69 O4 0.998894 1_555
H69 O2 1.691935 1_555
H71 N2 1.059173 1_555
H71 O5 1.679194 1_555
C0 H21 1.094171 1_555
C0 H60 1.095973 1_655
C0 H51 1.096124 1_555
C0 N7 1.484561 1_655
C1 H29 1.094171 1_555
C1 H47 1.095973 1_555
C1 H70 1.096124 1_555
C1 N3 1.484561 1_555
C2 H36 1.094171 1_555
C2 H66 1.095973 1_555
C2 H26 1.096124 1_545
C2 N4 1.484561 1_555
C3 H58 1.102249 1_555
C3 H64 1.103068 1_555
C3 O9 1.387521 1_555
C3 N4 1.503073 1_565
C4 H1 1.102249 1_555
C4 H44 1.103068 1_555
C4 O4 1.387521 1_555
C4 N5 1.503073 1_565
C5 H6 1.094171 1_555
C5 H42 1.095973 1_455
C5 H39 1.096124 1_555
C5 N6 1.484561 1_455
C6 H22 1.094171 1_555
C6 H32 1.095973 1_555
C6 H46 1.096124 1_565
C6 N0 1.484561 1_555
C7 H5 1.102249 1_555
C7 H4 1.103068 1_555
C7 O22 1.387521 1_555
C7 N7 1.503073 1_555
C8 H34 1.094171 1_555
C8 H57 1.095973 1_555
C8 H18 1.096124 1_555
C8 N2 1.484561 1_555
C9 H33 1.102249 1_555
C9 H15 1.103068 1_555
C9 O11 1.387521 1_555
C9 N0 1.503073 1_545
C10 H0 1.102249 1_555
C10 H67 1.103068 1_555
C10 O12 1.387521 1_555
C10 N6 1.503073 1_555
C11 H14 1.102249 1_555
C11 H12 1.103068 1_555
C11 O1 1.387521 1_555
C11 N2 1.503073 1_555
C12 H37 1.094171 1_555
C12 H40 1.095973 1_655
C12 H9 1.096124 1_565
C12 N1 1.484561 1_655
C13 H35 1.102249 1_555
C13 H10 1.103068 1_555
C13 O3 1.387521 1_555
C13 N3 1.503073 1_555
C14 H24 1.102249 1_555
C14 H56 1.103068 1_555
C14 O16 1.387521 1_555
C14 N1 1.503073 1_545
C15 H2 1.094171 1_555
C15 H68 1.095973 1_455
C15 H59 1.096124 1_545
C15 N5 1.484561 1_455
O0 P0 1.496984 1_555
O2 P1 1.515189 1_555
O5 P6 1.496984 1_555
O6 P2 1.496984 1_555
O7 P4 1.515189 1_555
O8 P5 1.515189 1_555
O10 P3 1.496984 1_555
O13 P1 1.496984 1_555
O14 P3 1.515189 1_555
O15 P7 1.496984 1_555
O17 P6 1.515189 1_555
O18 P0 1.515189 1_555
O19 P7 1.515189 1_555
O20 P5 1.496984 1_555
O21 P4 1.496984 1_555
O23 P2 1.515189 1_555
F0 P5 1.595756 1_556
F1 P0 1.595756 1_555
F2 P4 1.595756 1_555
F3 P3 1.595756 1_556
F4 P7 1.595756 1_554
F5 P1 1.595756 1_555
F6 P6 1.595756 1_554
F7 P2 1.595756 1_555
