# generated using pymatgen
data_TaTlO3
_symmetry_space_group_name_H-M   'P 1'
_cell_length_a   7.54030697
_cell_length_b   7.54030697
_cell_length_c   13.06202910
_cell_angle_alpha   72.93415426
_cell_angle_beta   72.93415426
_cell_angle_gamma   60.01921597
_symmetry_Int_Tables_number   1
_chemical_formula_structural   TaTlO3
_chemical_formula_sum   'Ta8 Tl8 O24'
_cell_volume   605.21610942
_cell_formula_units_Z   8
loop_
 _symmetry_equiv_pos_site_id
 _symmetry_equiv_pos_as_xyz
  1  'x, y, z'
loop_
 _atom_site_type_symbol
 _atom_site_label
 _atom_site_symmetry_multiplicity
 _atom_site_fract_x
 _atom_site_fract_y
 _atom_site_fract_z
 _atom_site_occupancy
  Ta  Ta0  1  0.50000000  0.00000000  0.50000000  1
  Ta  Ta1  1  0.50000000  0.50000000  0.50000000  1
  Ta  Ta2  1  -0.00000000  0.00000000  0.00000000  1
  Ta  Ta3  1  -0.00000000  0.00000000  0.50000000  1
  Ta  Ta4  1  0.25248020  0.74751980  0.75000000  1
  Ta  Ta5  1  -0.00000000  0.50000000  0.00000000  1
  Ta  Ta6  1  0.74751980  0.25248020  0.25000000  1
  Ta  Ta7  1  0.50000000  0.50000000  0.00000000  1
  Tl  Tl0  1  0.80727735  0.67056573  0.74148109  1
  Tl  Tl1  1  -0.00000000  0.50000000  0.50000000  1
  Tl  Tl2  1  0.76372083  0.23627917  0.75000000  1
  Tl  Tl3  1  0.67056573  0.80727735  0.24148109  1
  Tl  Tl4  1  0.50000000  0.00000000  0.00000000  1
  Tl  Tl5  1  0.32943427  0.19272265  0.75851891  1
  Tl  Tl6  1  0.23627917  0.76372083  0.25000000  1
  Tl  Tl7  1  0.19272265  0.32943427  0.25851891  1
  O  O0  1  0.09856680  0.59047649  0.84460026  1
  O  O1  1  0.77979624  0.91147153  0.52867168  1
  O  O2  1  0.40685412  0.27910986  0.53408902  1
  O  O3  1  0.46312180  0.59435038  0.84573712  1
  O  O4  1  0.71999567  0.21969987  0.96983968  1
  O  O5  1  0.59047649  0.09856680  0.34460026  1
  O  O6  1  0.27910986  0.40685412  0.03408902  1
  O  O7  1  0.40564962  0.53687820  0.65426288  1
  O  O8  1  0.09786034  0.96963049  0.84300337  1
  O  O9  1  0.78030013  0.28000433  0.53016032  1
  O  O10  1  0.91147153  0.77979624  0.02867168  1
  O  O11  1  0.03036951  0.90213966  0.65699663  1
  O  O12  1  0.08852847  0.22020376  0.97132832  1
  O  O13  1  0.96963049  0.09786034  0.34300337  1
  O  O14  1  0.21969987  0.71999567  0.46983968  1
  O  O15  1  0.90213966  0.03036951  0.15699663  1
  O  O16  1  0.59435038  0.46312180  0.34573712  1
  O  O17  1  0.72089014  0.59314588  0.96591098  1
  O  O18  1  0.28000433  0.78030013  0.03016032  1
  O  O19  1  0.40952351  0.90143320  0.65539974  1
  O  O20  1  0.53687820  0.40564962  0.15426288  1
  O  O21  1  0.59314588  0.72089014  0.46591098  1
  O  O22  1  0.22020376  0.08852847  0.47132832  1
  O  O23  1  0.90143320  0.40952351  0.15539974  1
loop_
_geom_bond_atom_site_label_1
_geom_bond_atom_site_label_2
_geom_bond_distance
_geom_bond_site_symmetry_2
O0 Ta5 1.986586 1_556
O0 Ta4 1.987192 1_555
O0 Tl0 2.633733 1_455
O1 Ta3 1.984644 1_665
O1 Ta0 1.986559 1_565
O1 Tl1 2.773422 1_655
O1 Tl0 2.840367 1_555
O2 Ta0 2.002492 1_555
O2 Ta1 2.003996 1_555
O2 Tl5 2.759283 1_555
O2 Tl1 2.764709 1_555
O3 Ta4 1.976144 1_555
O3 Ta7 1.983278 1_556
O3 Tl0 2.806404 1_555
O4 Ta2 1.991673 1_656
O4 Ta7 1.993784 1_556
O4 Tl4 2.762442 1_556
O4 Tl2 2.764950 1_555
O5 Ta0 1.986586 1_555
O5 Ta6 1.987192 1_555
O5 Tl3 2.633733 1_545
O6 Ta5 2.002492 1_555
O6 Ta7 2.003996 1_555
O6 Tl7 2.759283 1_555
O6 Tl4 2.764709 1_555
O7 Ta4 1.976144 1_555
O7 Ta1 1.983278 1_555
O7 Tl5 2.806404 1_555
O8 Ta2 2.005211 1_566
O8 Ta4 2.012794 1_555
O8 Tl2 2.676998 1_465
O8 Tl5 2.794922 1_565
O9 Ta3 1.991673 1_655
O9 Ta1 1.993784 1_555
O9 Tl1 2.762442 1_655
O9 Tl2 2.764950 1_555
O10 Ta2 1.984644 1_665
O10 Ta5 1.986559 1_655
O10 Tl4 2.773422 1_565
O10 Tl3 2.840367 1_555
O11 Ta3 2.005211 1_565
O11 Ta4 2.012794 1_555
O11 Tl2 2.676998 1_465
O11 Tl0 2.794922 1_455
O12 Ta2 1.984644 1_556
O12 Ta5 1.986559 1_556
O12 Tl4 2.773422 1_556
O12 Tl5 2.840367 1_555
O13 Ta3 2.005211 1_655
O13 Ta6 2.012794 1_555
O13 Tl6 2.676998 1_645
O13 Tl7 2.794922 1_655
O14 Ta3 1.991673 1_565
O14 Ta1 1.993784 1_555
O14 Tl1 2.762442 1_555
O14 Tl6 2.764950 1_555
O15 Ta2 2.005211 1_655
O15 Ta6 2.012794 1_555
O15 Tl6 2.676998 1_645
O15 Tl3 2.794922 1_545
O16 Ta6 1.976144 1_555
O16 Ta1 1.983278 1_555
O16 Tl3 2.806404 1_555
O17 Ta5 2.002492 1_656
O17 Ta7 2.003996 1_556
O17 Tl0 2.759283 1_555
O17 Tl4 2.764709 1_566
O18 Ta2 1.991673 1_565
O18 Ta7 1.993784 1_555
O18 Tl4 2.762442 1_565
O18 Tl6 2.764950 1_555
O19 Ta0 1.986586 1_565
O19 Ta4 1.987192 1_555
O19 Tl5 2.633733 1_565
O20 Ta6 1.976144 1_555
O20 Ta7 1.983278 1_555
O20 Tl7 2.806404 1_555
O21 Ta0 2.002492 1_565
O21 Ta1 2.003996 1_555
O21 Tl3 2.759283 1_555
O21 Tl1 2.764709 1_655
O22 Ta3 1.984644 1_555
O22 Ta0 1.986559 1_555
O22 Tl1 2.773422 1_555
O22 Tl7 2.840367 1_555
O23 Ta5 1.986586 1_655
O23 Ta6 1.987192 1_555
O23 Tl7 2.633733 1_655
