# generated using pymatgen
data_CsPF6
_symmetry_space_group_name_H-M   'P 1'
_cell_length_a   5.62227683
_cell_length_b   5.79388599
_cell_length_c   5.62227692
_cell_angle_alpha   60.97505125
_cell_angle_beta   60.00000533
_cell_angle_gamma   60.97505607
_symmetry_Int_Tables_number   1
_chemical_formula_structural   CsPF6
_chemical_formula_sum   'Cs1 P1 F6'
_cell_volume   131.37877768
_cell_formula_units_Z   1
loop_
 _symmetry_equiv_pos_site_id
 _symmetry_equiv_pos_as_xyz
  1  'x, y, z'
loop_
 _atom_site_type_symbol
 _atom_site_label
 _atom_site_symmetry_multiplicity
 _atom_site_fract_x
 _atom_site_fract_y
 _atom_site_fract_z
 _atom_site_occupancy
  Cs  Cs0  1  0.50000000  0.50000000  0.50000000  1
  P  P0  1  -0.00000000  -0.00000000  0.00000000  1
  F  F0  1  0.07120265  0.19441385  0.07120265  1
  F  F1  1  0.07120265  0.19441385  0.66317984  1
  F  F2  1  0.66317984  0.19441385  0.07120265  1
  F  F3  1  0.33682016  0.80558615  0.92879735  1
  F  F4  1  0.92879735  0.80558615  0.33682016  1
  F  F5  1  0.92879735  0.80558615  0.92879735  1
loop_
_geom_bond_atom_site_label_1
_geom_bond_atom_site_label_2
_geom_bond_distance
_geom_bond_site_symmetry_2
Cs0 F2 3.184723 1_556
Cs0 F3 3.184723 1_554
Cs0 F1 3.184723 1_655
Cs0 F4 3.184723 1_455
Cs0 F0 3.184726 1_556
Cs0 F5 3.184726 1_554
Cs0 F0 3.184726 1_655
Cs0 F5 3.184726 1_455
Cs0 F1 3.184727 1_555
Cs0 F4 3.184727 1_555
Cs0 F3 3.184728 1_555
Cs0 F2 3.184728 1_555
F0 P0 1.620097 1_555
F1 P0 1.620101 1_556
F2 P0 1.620101 1_655
F3 P0 1.620101 1_566
F4 P0 1.620101 1_665
F5 P0 1.620097 1_666
