# generated using pymatgen
data_Li3Sb2(PO4)3
_symmetry_space_group_name_H-M   'P 1'
_cell_length_a   9.17182200
_cell_length_b   9.12859600
_cell_length_c   15.93903919
_cell_angle_alpha   56.60403051
_cell_angle_beta   90.00000000
_cell_angle_gamma   90.00000000
_symmetry_Int_Tables_number   1
_chemical_formula_structural   Li3Sb2(PO4)3
_chemical_formula_sum   'Li12 Sb8 P12 O48'
_cell_volume   1114.16426787
_cell_formula_units_Z   4
loop_
 _symmetry_equiv_pos_site_id
 _symmetry_equiv_pos_as_xyz
  1  'x, y, z'
loop_
 _atom_site_type_symbol
 _atom_site_label
 _atom_site_symmetry_multiplicity
 _atom_site_fract_x
 _atom_site_fract_y
 _atom_site_fract_z
 _atom_site_occupancy
  Li  Li0  1  0.26272000  0.40038300  0.31421000  1
  Li  Li1  1  0.73728000  0.59961700  0.68579000  1
  Li  Li2  1  0.75862800  0.99535300  0.31307800  1
  Li  Li3  1  0.24137200  0.00464700  0.68692200  1
  Li  Li4  1  0.25862800  0.00464700  0.18692200  1
  Li  Li5  1  0.90655200  0.77884600  0.28180800  1
  Li  Li6  1  0.40655200  0.22115400  0.21819200  1
  Li  Li7  1  0.74137200  0.99535300  0.81307800  1
  Li  Li8  1  0.59344800  0.77884600  0.78180800  1
  Li  Li9  1  0.23728000  0.40038300  0.81421000  1
  Li  Li10  1  0.76272000  0.59961700  0.18579000  1
  Li  Li11  1  0.09344800  0.22115400  0.71819200  1
  Sb  Sb0  1  0.55125800  0.34172400  0.90038300  1
  Sb  Sb1  1  0.94574400  0.17112700  0.08702600  1
  Sb  Sb2  1  0.94874200  0.34172400  0.40038300  1
  Sb  Sb3  1  0.05425600  0.82887300  0.91297400  1
  Sb  Sb4  1  0.44574400  0.82887300  0.41297400  1
  Sb  Sb5  1  0.05125800  0.65827600  0.59961700  1
  Sb  Sb6  1  0.55425600  0.17112700  0.58702600  1
  Sb  Sb7  1  0.44874200  0.65827600  0.09961700  1
  P  P0  1  0.09981000  0.05218000  0.34506100  1
  P  P1  1  0.41748200  0.73403800  0.66071700  1
  P  P2  1  0.08251800  0.73403800  0.16071700  1
  P  P3  1  0.59981000  0.94782000  0.15493900  1
  P  P4  1  0.58251800  0.26596200  0.33928300  1
  P  P5  1  0.24466600  0.41998900  0.50916200  1
  P  P6  1  0.75533400  0.58001100  0.49083800  1
  P  P7  1  0.25533400  0.41998900  0.00916200  1
  P  P8  1  0.91748200  0.26596200  0.83928300  1
  P  P9  1  0.74466600  0.58001100  0.99083800  1
  P  P10  1  0.40019000  0.05218000  0.84506100  1
  P  P11  1  0.90019000  0.94782000  0.65493900  1
  O  O0  1  0.86829400  0.58096200  0.41944200  1
  O  O1  1  0.84808400  0.42137100  0.04031500  1
  O  O2  1  0.33637100  0.24582700  0.57426800  1
  O  O3  1  0.33056700  0.40892200  0.92483600  1
  O  O4  1  0.46064200  0.79157100  0.55201900  1
  O  O5  1  0.95510500  0.61902500  0.23184500  1
  O  O6  1  0.38731200  0.89494400  0.95763900  1
  O  O7  1  0.63170600  0.58096200  0.91944200  1
  O  O8  1  0.09213800  0.22777000  0.34254700  1
  O  O9  1  0.16362900  0.24582700  0.07426800  1
  O  O10  1  0.25767200  0.06265600  0.79024400  1
  O  O11  1  0.83056700  0.59107800  0.57516400  1
  O  O12  1  0.53446000  0.03011700  0.79507800  1
  O  O13  1  0.09004300  0.89878400  0.16619300  1
  O  O14  1  0.15191600  0.57862900  0.95968500  1
  O  O15  1  0.61268800  0.10505600  0.04236100  1
  O  O16  1  0.13170600  0.41903800  0.58055800  1
  O  O17  1  0.04489500  0.38097500  0.76815500  1
  O  O18  1  0.46554000  0.96988300  0.20492200  1
  O  O19  1  0.74232800  0.93734400  0.20975600  1
  O  O20  1  0.83637100  0.75417300  0.92573200  1
  O  O21  1  0.59004300  0.10121600  0.33380700  1
  O  O22  1  0.11268800  0.89494400  0.45763900  1
  O  O23  1  0.40995700  0.89878400  0.66619300  1
  O  O24  1  0.54489500  0.61902500  0.73184500  1
  O  O25  1  0.24232800  0.06265600  0.29024400  1
  O  O26  1  0.88731200  0.10505600  0.54236100  1
  O  O27  1  0.22736900  0.63279400  0.19349700  1
  O  O28  1  0.72736900  0.36720600  0.30650300  1
  O  O29  1  0.40786200  0.22777000  0.84254700  1
  O  O30  1  0.77263100  0.36720600  0.80650300  1
  O  O31  1  0.90995700  0.10121600  0.83380700  1
  O  O32  1  0.75767200  0.93734400  0.70975600  1
  O  O33  1  0.53935800  0.20842900  0.44798100  1
  O  O34  1  0.96064200  0.20842900  0.94798100  1
  O  O35  1  0.27263100  0.63279400  0.69349700  1
  O  O36  1  0.66943300  0.59107800  0.07516400  1
  O  O37  1  0.16943300  0.40892200  0.42483700  1
  O  O38  1  0.34808400  0.57862900  0.45968500  1
  O  O39  1  0.90786200  0.77223000  0.65745300  1
  O  O40  1  0.96554000  0.03011700  0.29507800  1
  O  O41  1  0.59213800  0.77223000  0.15745300  1
  O  O42  1  0.66362900  0.75417300  0.42573200  1
  O  O43  1  0.45510500  0.38097500  0.26815500  1
  O  O44  1  0.03935800  0.79157100  0.05201900  1
  O  O45  1  0.36829400  0.41903800  0.08055800  1
  O  O46  1  0.65191600  0.42137100  0.54031500  1
  O  O47  1  0.03446000  0.96988300  0.70492200  1
loop_
_geom_bond_atom_site_label_1
_geom_bond_atom_site_label_2
_geom_bond_distance
_geom_bond_site_symmetry_2
Li0 O27 1.953083 1_555
Li0 O43 1.956260 1_555
Li0 O37 1.999660 1_555
Li0 O8 2.085958 1_555
Li1 O30 1.953083 1_555
Li1 O24 1.956260 1_555
Li1 O11 1.999646 1_555
Li1 O39 2.085958 1_555
Li2 O40 1.919449 1_565
Li2 O21 1.945605 1_565
Li2 O19 1.993718 1_555
Li2 O42 2.116280 1_555
Li3 O47 1.919449 1_545
Li3 O23 1.945605 1_545
Li3 O10 1.993718 1_555
Li3 O2 2.116280 1_555
Li4 O18 1.919449 1_545
Li4 O13 1.945605 1_545
Li4 O25 1.993718 1_555
Li4 O9 2.116280 1_555
Li5 O0 1.958659 1_555
Li5 O19 1.962617 1_555
Li5 O5 2.059132 1_555
Li5 O13 2.281633 1_655
Li5 O40 2.476454 1_565
Li6 O45 1.958659 1_555
Li6 O25 1.962617 1_555
Li6 O43 2.059132 1_555
Li6 O21 2.281633 1_555
Li6 O18 2.476454 1_545
Li7 O12 1.919449 1_565
Li7 O31 1.945605 1_565
Li7 O32 1.993718 1_555
Li7 O20 2.116280 1_555
Li8 O7 1.958659 1_555
Li8 O32 1.962617 1_555
Li8 O24 2.059132 1_555
Li8 O23 2.281633 1_555
Li8 O12 2.476454 1_565
Li9 O35 1.953083 1_555
Li9 O17 1.956260 1_555
Li9 O3 1.999646 1_555
Li9 O29 2.085958 1_555
Li10 O28 1.953083 1_555
Li10 O5 1.956260 1_555
Li10 O36 1.999646 1_555
Li10 O41 2.085958 1_555
Li11 O16 1.958659 1_555
Li11 O10 1.962617 1_555
Li11 O17 2.059132 1_555
Li11 O31 2.281633 1_455
Li11 O47 2.476454 1_545
O0 P6 1.535449 1_555
O0 Sb2 2.477196 1_555
O1 P9 1.536745 1_554
O1 Sb1 2.168575 1_555
O2 P5 1.579796 1_555
O2 Sb6 2.085020 1_555
O3 P7 1.562804 1_556
O3 Sb0 2.211003 1_555
O4 P1 1.559663 1_555
O4 Sb4 2.053190 1_555
O5 P2 1.562987 1_655
O5 Sb2 2.478260 1_555
O6 P10 1.568022 1_565
O6 Sb7 2.173478 1_556
O7 P9 1.535449 1_555
O7 Sb0 2.477196 1_555
O8 P0 1.582753 1_555
O8 Sb2 2.171938 1_455
O9 P7 1.579796 1_555
O9 Sb1 2.085020 1_455
O10 P10 1.545706 1_555
O10 Sb3 2.695592 1_545
O11 P6 1.562804 1_555
O11 Sb5 2.211003 1_655
O12 P10 1.538991 1_555
O13 P2 1.555184 1_555
O13 Sb1 2.463973 1_465
O14 P7 1.536745 1_556
O14 Sb3 2.168575 1_555
O15 P3 1.568022 1_545
O15 Sb0 2.173478 1_554
O16 P5 1.535449 1_555
O16 Sb5 2.477196 1_555
O17 P8 1.562987 1_455
O17 Sb5 2.478260 1_555
O18 P3 1.538991 1_555
O19 P3 1.545706 1_555
O19 Sb1 2.695592 1_565
O20 P9 1.579796 1_555
O20 Sb3 2.085020 1_655
O21 P4 1.555184 1_555
O21 Sb4 2.463973 1_545
O22 P0 1.568022 1_565
O22 Sb5 2.173478 1_555
O23 P1 1.555184 1_555
O23 Sb6 2.463973 1_565
O24 P1 1.562987 1_555
O24 Sb0 2.478260 1_555
O25 P0 1.545706 1_555
O25 Sb4 2.695592 1_545
O26 P11 1.568022 1_545
O26 Sb2 2.173478 1_555
O27 P2 1.536430 1_555
O27 Sb7 2.456118 1_555
O28 P4 1.536430 1_555
O28 Sb2 2.456118 1_555
O29 P10 1.582753 1_555
O29 Sb0 2.171938 1_555
O30 P8 1.536430 1_555
O30 Sb0 2.456118 1_555
O31 P8 1.555184 1_555
O31 Sb3 2.463973 1_645
O32 P11 1.545706 1_555
O32 Sb6 2.695592 1_565
O33 P4 1.559663 1_555
O33 Sb6 2.053190 1_555
O34 P8 1.559663 1_555
O34 Sb1 2.053190 1_556
O35 P1 1.536430 1_555
O35 Sb5 2.456118 1_555
O36 P9 1.562804 1_554
O36 Sb7 2.211003 1_555
O37 P5 1.562790 1_555
O37 Sb2 2.211008 1_455
O38 P5 1.536745 1_555
O38 Sb4 2.168575 1_555
O39 P11 1.582753 1_555
O39 Sb5 2.171938 1_655
O40 P0 1.538991 1_655
O41 P3 1.582753 1_555
O41 Sb7 2.171938 1_555
O42 P6 1.579796 1_555
O42 Sb4 2.085020 1_555
O43 P4 1.562987 1_555
O43 Sb7 2.478260 1_555
O44 P2 1.559663 1_555
O44 Sb3 2.053190 1_554
O45 P7 1.535449 1_555
O45 Sb7 2.477196 1_555
O46 P6 1.536745 1_555
O46 Sb6 2.168575 1_555
O47 P11 1.538991 1_455
