# generated using pymatgen
data_RuC4(IO2)2
_symmetry_space_group_name_H-M   'P 1'
_cell_length_a   6.64031665
_cell_length_b   6.64031665
_cell_length_c   12.85154138
_cell_angle_alpha   89.42980825
_cell_angle_beta   89.42980825
_cell_angle_gamma   114.11913199
_symmetry_Int_Tables_number   1
_chemical_formula_structural   RuC4(IO2)2
_chemical_formula_sum   'Ru2 C8 I4 O8'
_cell_volume   517.11489757
_cell_formula_units_Z   2
loop_
 _symmetry_equiv_pos_site_id
 _symmetry_equiv_pos_as_xyz
  1  'x, y, z'
loop_
 _atom_site_type_symbol
 _atom_site_label
 _atom_site_symmetry_multiplicity
 _atom_site_fract_x
 _atom_site_fract_y
 _atom_site_fract_z
 _atom_site_occupancy
  Ru  Ru0  1  0.98333900  0.01666100  0.75000000  1
  Ru  Ru1  1  0.01666100  0.98333900  0.25000000  1
  C  C0  1  0.76423600  0.78072400  0.83822800  1
  C  C1  1  0.01507200  0.75724100  0.15725300  1
  C  C2  1  0.21927600  0.23576400  0.66177200  1
  C  C3  1  0.78072400  0.76423600  0.33822800  1
  C  C4  1  0.23576400  0.21927600  0.16177200  1
  C  C5  1  0.98492800  0.24275900  0.84274700  1
  C  C6  1  0.24275900  0.98492800  0.34274700  1
  C  C7  1  0.75724100  0.01507200  0.65725300  1
  I  I0  1  0.68326300  0.00040600  0.12475300  1
  I  I1  1  0.31673700  0.99959400  0.87524700  1
  I  I2  1  0.00040600  0.68326300  0.62475300  1
  I  I3  1  0.99959400  0.31673700  0.37524700  1
  O  O0  1  0.37679000  0.98737100  0.39980000  1
  O  O1  1  0.35761600  0.36578300  0.61249100  1
  O  O2  1  0.36578300  0.35761600  0.11249100  1
  O  O3  1  0.62321000  0.01262900  0.60020000  1
  O  O4  1  0.64238400  0.63421700  0.38750900  1
  O  O5  1  0.63421700  0.64238400  0.88750900  1
  O  O6  1  0.01262900  0.62321000  0.10020000  1
  O  O7  1  0.98737100  0.37679000  0.89980000  1
loop_
_geom_bond_atom_site_label_1
_geom_bond_atom_site_label_2
_geom_bond_distance
_geom_bond_site_symmetry_2
C0 O5 1.148798 1_555
C0 Ru0 1.981383 1_565
C1 O6 1.153869 1_555
C1 Ru1 1.922979 1_555
C2 O1 1.148798 1_555
C2 Ru0 1.981383 1_455
C3 O4 1.148798 1_555
C3 Ru1 1.981383 1_655
C4 O2 1.148798 1_555
C4 Ru1 1.981383 1_545
C5 O7 1.153869 1_555
C5 Ru0 1.922979 1_555
C6 O0 1.153869 1_555
C6 Ru1 1.922979 1_555
C7 O3 1.153869 1_555
C7 Ru0 1.922979 1_555
I0 Ru1 2.788776 1_645
I1 Ru0 2.788776 1_465
I2 Ru0 2.788776 1_465
I3 Ru1 2.788776 1_645
