# generated using pymatgen
data_K5Eu2Si4O13F
_symmetry_space_group_name_H-M   'P 1'
_cell_length_a   5.94874100
_cell_length_b   7.34472700
_cell_length_c   18.64428416
_cell_angle_alpha   88.06675370
_cell_angle_beta   90.00000000
_cell_angle_gamma   90.00000000
_symmetry_Int_Tables_number   1
_chemical_formula_structural   K5Eu2Si4O13F
_chemical_formula_sum   'K10 Eu4 Si8 O26 F2'
_cell_volume   814.14013562
_cell_formula_units_Z   2
loop_
 _symmetry_equiv_pos_site_id
 _symmetry_equiv_pos_as_xyz
  1  'x, y, z'
loop_
 _atom_site_type_symbol
 _atom_site_label
 _atom_site_symmetry_multiplicity
 _atom_site_fract_x
 _atom_site_fract_y
 _atom_site_fract_z
 _atom_site_occupancy
  K  K0  1  0.25000000  0.47976300  0.74817800  1
  K  K1  1  0.75000000  0.52023700  0.25182200  1
  K  K2  1  0.75000000  0.79168000  0.81424700  1
  K  K3  1  0.25000000  0.20832000  0.18575300  1
  K  K4  1  0.25000000  0.19510400  0.99423500  1
  K  K5  1  0.25000000  0.74106900  0.51008100  1
  K  K6  1  0.75000000  0.25893100  0.48991900  1
  K  K7  1  0.75000000  0.13682400  0.69380400  1
  K  K8  1  0.75000000  0.80489600  0.00576500  1
  K  K9  1  0.25000000  0.86317600  0.30619600  1
  Eu  Eu0  1  0.75000000  0.60101300  0.62841300  1
  Eu  Eu1  1  0.25000000  0.66596100  0.11055000  1
  Eu  Eu2  1  0.75000000  0.33403900  0.88945000  1
  Eu  Eu3  1  0.25000000  0.39898700  0.37158700  1
  Si  Si0  1  0.75000000  0.33057700  0.08403000  1
  Si  Si1  1  0.25000000  0.28576000  0.57731700  1
  Si  Si2  1  0.25000000  0.92043100  0.66964500  1
  Si  Si3  1  0.75000000  0.07956900  0.33035500  1
  Si  Si4  1  0.75000000  0.96020200  0.17316400  1
  Si  Si5  1  0.25000000  0.03979800  0.82683600  1
  Si  Si6  1  0.75000000  0.71424000  0.42268300  1
  Si  Si7  1  0.25000000  0.66942300  0.91597000  1
  O  O0  1  0.97925400  0.62690300  0.38890700  1
  O  O1  1  0.25000000  0.05852600  0.59635000  1
  O  O2  1  0.47925400  0.37309700  0.61109300  1
  O  O3  1  0.75000000  0.69242500  0.51076000  1
  O  O4  1  0.01893800  0.12693000  0.85585900  1
  O  O5  1  0.97898800  0.20026600  0.32831500  1
  O  O6  1  0.25000000  0.77861100  0.99123200  1
  O  O7  1  0.48106200  0.12693000  0.85585900  1
  O  O8  1  0.75000000  0.93518100  0.26288600  1
  O  O9  1  0.98106200  0.87307000  0.14414100  1
  O  O10  1  0.25000000  0.30757500  0.48924000  1
  O  O11  1  0.25000000  0.06481900  0.73711400  1
  O  O12  1  0.51893800  0.87307000  0.14414100  1
  O  O13  1  0.02101200  0.79973400  0.67168500  1
  O  O14  1  0.52101200  0.20026600  0.32831500  1
  O  O15  1  0.48093300  0.55304200  0.90566700  1
  O  O16  1  0.47898800  0.79973400  0.67168500  1
  O  O17  1  0.52074600  0.62690300  0.38890700  1
  O  O18  1  0.75000000  0.22138900  0.00876800  1
  O  O19  1  0.25000000  0.81661000  0.84380800  1
  O  O20  1  0.01906700  0.55304200  0.90566700  1
  O  O21  1  0.02074600  0.37309700  0.61109300  1
  O  O22  1  0.75000000  0.18339000  0.15619200  1
  O  O23  1  0.51906700  0.44695800  0.09433300  1
  O  O24  1  0.98093300  0.44695800  0.09433300  1
  O  O25  1  0.75000000  0.94147400  0.40365000  1
  F  F0  1  0.75000000  0.46077300  0.75781900  1
  F  F1  1  0.25000000  0.53922700  0.24218100  1
loop_
_geom_bond_atom_site_label_1
_geom_bond_atom_site_label_2
_geom_bond_distance
_geom_bond_site_symmetry_2
K0 O2 3.023428 1_555
K0 O21 3.023428 1_555
K0 O16 3.030894 1_555
K0 O13 3.030894 1_555
K0 O11 3.061559 1_555
K0 O19 3.097977 1_555
K0 O15 3.302302 1_555
K0 O20 3.302302 1_555
K1 O0 3.023428 1_555
K1 O17 3.023428 1_555
K1 O14 3.030894 1_555
K1 O5 3.030894 1_555
K1 O8 3.061559 1_555
K1 O22 3.097977 1_555
K1 O24 3.302302 1_555
K1 O23 3.302302 1_555
K2 O20 2.887497 1_655
K2 O15 2.887497 1_555
K2 O19 3.031662 1_655
K2 O19 3.031662 1_555
K2 O7 3.058318 1_565
K2 O4 3.058318 1_665
K2 O13 3.107539 1_655
K2 O16 3.107539 1_555
K3 O23 2.887497 1_555
K3 O24 2.887497 1_455
K3 O22 3.031662 1_555
K3 O22 3.031662 1_455
K3 O9 3.058318 1_445
K3 O12 3.058318 1_545
K3 O5 3.107539 1_455
K3 O14 3.107539 1_555
K4 O7 2.980470 1_555
K4 O4 2.980470 1_555
K4 O18 2.993509 1_556
K4 O18 2.993509 1_456
K4 O6 3.061428 1_545
K4 O23 3.114408 1_556
K4 O24 3.114408 1_456
K4 O20 3.351490 1_555
K4 O15 3.351490 1_555
K5 O1 2.876904 1_565
K5 O17 2.920436 1_555
K5 O0 2.920436 1_455
K5 O3 2.995727 1_455
K5 O3 2.995727 1_555
K5 O10 3.220503 1_555
K6 O25 2.876904 1_545
K6 O21 2.920436 1_655
K6 O2 2.920436 1_555
K6 O10 2.995727 1_555
K6 O10 2.995727 1_655
K6 O3 3.220503 1_555
K7 O21 2.793381 1_655
K7 O2 2.793381 1_555
K7 O13 2.994634 1_645
K7 O16 2.994634 1_545
K7 O11 3.122465 1_555
K7 O11 3.122465 1_655
K8 O12 2.980470 1_555
K8 O9 2.980470 1_555
K8 O6 2.993509 1_554
K8 O6 2.993509 1_654
K8 O18 3.061428 1_565
K8 O20 3.114408 1_654
K8 O15 3.114408 1_554
K8 O24 3.351490 1_555
K8 O23 3.351490 1_555
K9 O17 2.793381 1_555
K9 O0 2.793381 1_455
K9 O14 2.994634 1_565
K9 O5 2.994634 1_465
K9 O8 3.122465 1_455
K9 O8 3.122465 1_555
Eu0 O3 2.272244 1_555
Eu0 O13 2.336611 1_655
Eu0 O16 2.336611 1_555
Eu0 O21 2.353080 1_655
Eu0 O2 2.353080 1_555
Eu0 F0 2.591199 1_555
Eu1 O23 2.296413 1_555
Eu1 O24 2.296413 1_455
Eu1 O12 2.308663 1_555
Eu1 O9 2.308663 1_455
Eu1 O6 2.347172 1_554
Eu1 F1 2.595234 1_555
Eu2 O20 2.296413 1_655
Eu2 O15 2.296413 1_555
Eu2 O7 2.308663 1_555
Eu2 O4 2.308663 1_655
Eu2 O18 2.347172 1_556
Eu2 F0 2.595234 1_555
Eu3 O10 2.272244 1_555
Eu3 O5 2.336611 1_455
Eu3 O14 2.336611 1_555
Eu3 O17 2.353080 1_555
Eu3 O0 2.353080 1_455
Eu3 F1 2.591199 1_555
O0 Si6 1.641697 1_555
O1 Si2 1.674109 1_545
O1 Si1 1.694530 1_555
O2 Si1 1.641697 1_555
O3 Si6 1.644542 1_555
O4 Si5 1.617110 1_555
O5 Si3 1.624990 1_555
O6 Si7 1.639526 1_555
O7 Si5 1.617110 1_555
O8 Si3 1.672419 1_565
O8 Si4 1.676693 1_555
O9 Si4 1.617110 1_555
O10 Si1 1.644542 1_555
O11 Si2 1.672419 1_545
O11 Si5 1.676693 1_555
O12 Si4 1.617110 1_555
O13 Si2 1.624990 1_555
O14 Si3 1.624990 1_555
O15 Si7 1.632745 1_555
O16 Si2 1.624990 1_555
O17 Si6 1.641697 1_555
O18 Si0 1.639526 1_555
O19 Si5 1.659002 1_565
O19 Si7 1.697250 1_555
O20 Si7 1.632745 1_555
O21 Si1 1.641697 1_555
O22 Si4 1.659002 1_545
O22 Si0 1.697250 1_555
O23 Si0 1.632745 1_555
O24 Si0 1.632745 1_555
O25 Si3 1.674109 1_565
O25 Si6 1.694530 1_555
F0 K2 2.680727 1_555
F0 K7 2.697633 1_555
F0 K0 2.982776 1_555
F0 K0 2.982776 1_655
F1 K3 2.680727 1_555
F1 K9 2.697633 1_555
F1 K1 2.982776 1_455
F1 K1 2.982776 1_555
