# generated using pymatgen
data_EuSeClO3
_symmetry_space_group_name_H-M   'P 1'
_cell_length_a   7.21336600
_cell_length_b   7.39812000
_cell_length_c   9.10792900
_cell_angle_alpha   90.00000000
_cell_angle_beta   90.00000000
_cell_angle_gamma   90.00000000
_symmetry_Int_Tables_number   1
_chemical_formula_structural   EuSeClO3
_chemical_formula_sum   'Eu4 Se4 Cl4 O12'
_cell_volume   486.04779401
_cell_formula_units_Z   4
loop_
 _symmetry_equiv_pos_site_id
 _symmetry_equiv_pos_as_xyz
  1  'x, y, z'
loop_
 _atom_site_type_symbol
 _atom_site_label
 _atom_site_symmetry_multiplicity
 _atom_site_fract_x
 _atom_site_fract_y
 _atom_site_fract_z
 _atom_site_occupancy
  Eu  Eu0  1  0.25000000  0.61072900  0.95921500  1
  Eu  Eu1  1  0.25000000  0.11072900  0.54078500  1
  Eu  Eu2  1  0.75000000  0.38927100  0.04078500  1
  Eu  Eu3  1  0.75000000  0.88927100  0.45921500  1
  Se  Se0  1  0.25000000  0.21112300  0.13143600  1
  Se  Se1  1  0.75000000  0.78887700  0.86856400  1
  Se  Se2  1  0.25000000  0.71112300  0.36856400  1
  Se  Se3  1  0.75000000  0.28887700  0.63143600  1
  Cl  Cl0  1  0.25000000  0.45009300  0.68018100  1
  Cl  Cl1  1  0.75000000  0.54990700  0.31981900  1
  Cl  Cl2  1  0.75000000  0.04990700  0.18018100  1
  Cl  Cl3  1  0.25000000  0.95009300  0.81981900  1
  O  O0  1  0.07478600  0.85355200  0.43155800  1
  O  O1  1  0.75000000  0.24625100  0.81579900  1
  O  O2  1  0.25000000  0.25374900  0.31579900  1
  O  O3  1  0.92521400  0.14644800  0.56844200  1
  O  O4  1  0.57478600  0.64644800  0.93155800  1
  O  O5  1  0.57478600  0.14644800  0.56844200  1
  O  O6  1  0.42521400  0.85355200  0.43155800  1
  O  O7  1  0.07478600  0.35355200  0.06844200  1
  O  O8  1  0.25000000  0.75374900  0.18420100  1
  O  O9  1  0.75000000  0.74625100  0.68420100  1
  O  O10  1  0.42521400  0.35355200  0.06844200  1
  O  O11  1  0.92521400  0.64644800  0.93155800  1
loop_
_geom_bond_atom_site_label_1
_geom_bond_atom_site_label_2
_geom_bond_distance
_geom_bond_site_symmetry_2
Eu0 O8 2.306203 1_556
Eu0 O4 2.371075 1_555
Eu0 O11 2.371075 1_455
Eu0 O10 2.491401 1_556
Eu0 O7 2.491401 1_556
Eu1 O2 2.306203 1_555
Eu1 O5 2.371075 1_555
Eu1 O3 2.371075 1_455
Eu1 O6 2.491401 1_545
Eu1 O0 2.491401 1_545
Eu2 O1 2.306203 1_554
Eu2 O7 2.371075 1_655
Eu2 O10 2.371075 1_555
Eu2 O4 2.491401 1_554
Eu2 O11 2.491401 1_554
Eu3 O9 2.306203 1_555
Eu3 O0 2.371075 1_655
Eu3 O6 2.371075 1_555
Eu3 O5 2.491401 1_565
Eu3 O3 2.491401 1_565
Cl0 Eu0 2.805553 1_555
Cl0 Eu1 2.813414 1_555
Cl1 Eu2 2.805553 1_555
Cl1 Eu3 2.813414 1_555
Cl2 Eu3 2.805553 1_545
Cl2 Eu2 2.813414 1_555
Cl3 Eu1 2.805553 1_565
Cl3 Eu0 2.813414 1_555
O0 Se2 1.742665 1_555
O1 Se3 1.708521 1_555
O2 Se0 1.708521 1_555
O3 Se3 1.742665 1_555
O4 Se1 1.742665 1_555
O5 Se3 1.742665 1_555
O6 Se2 1.742665 1_555
O7 Se0 1.742665 1_555
O8 Se2 1.708521 1_555
O9 Se1 1.708521 1_555
O10 Se0 1.742665 1_555
O11 Se1 1.742665 1_555
