# generated using pymatgen
data_Ca2MnGaO5
_symmetry_space_group_name_H-M   'P 1'
_cell_length_a   5.30602058
_cell_length_b   5.53485815
_cell_length_c   14.95155074
_cell_angle_alpha   90.00003947
_cell_angle_beta   89.99932908
_cell_angle_gamma   89.99950601
_symmetry_Int_Tables_number   1
_chemical_formula_structural   Ca2MnGaO5
_chemical_formula_sum   'Ca8 Mn4 Ga4 O20'
_cell_volume   439.09820743
_cell_formula_units_Z   4
loop_
 _symmetry_equiv_pos_site_id
 _symmetry_equiv_pos_as_xyz
  1  'x, y, z'
loop_
 _atom_site_type_symbol
 _atom_site_label
 _atom_site_symmetry_multiplicity
 _atom_site_fract_x
 _atom_site_fract_y
 _atom_site_fract_z
 _atom_site_occupancy
  Ca  Ca0  1  0.01371951  0.52575883  0.60856597  1
  Ca  Ca1  1  0.98633919  0.47425368  0.10851683  1
  Ca  Ca2  1  0.51372134  0.97419628  0.60857100  1
  Ca  Ca3  1  0.48634562  0.02579234  0.10852053  1
  Ca  Ca4  1  0.51624965  0.97381149  0.89140807  1
  Ca  Ca5  1  0.01624830  0.52621989  0.89140321  1
  Ca  Ca6  1  0.98362971  0.47373627  0.39135300  1
  Ca  Ca7  1  0.48363463  0.02623065  0.39135911  1
  Mn  Mn0  1  0.99785562  0.99962344  0.50004199  1
  Mn  Mn1  1  0.49785532  0.50034124  0.50004355  1
  Mn  Mn2  1  0.50206262  0.49968858  1.00004174  1
  Mn  Mn3  1  0.00206581  0.00034694  1.00004042  1
  Ga  Ga0  1  0.54905898  0.43221013  0.75004024  1
  Ga  Ga1  1  0.45095504  0.56779648  0.24995001  1
  Ga  Ga2  1  0.95095561  0.93220515  0.24994953  1
  Ga  Ga3  1  0.04905968  0.06778811  0.75003942  1
  O  O0  1  0.47139627  0.56903567  0.85742408  1
  O  O1  1  0.97138865  0.93098523  0.85742490  1
  O  O2  1  0.40273247  0.12115293  0.75006876  1
  O  O3  1  0.25475622  0.24065875  0.51312124  1
  O  O4  1  0.52896724  0.43079768  0.35724080  1
  O  O5  1  0.59728236  0.87885841  0.24998239  1
  O  O6  1  0.74204614  0.75911075  0.48685519  1
  O  O7  1  0.24538693  0.74061746  0.01311417  1
  O  O8  1  0.75475344  0.25930096  0.51311971  1
  O  O9  1  0.24204146  0.74085098  0.48685363  1
  O  O10  1  0.74537925  0.75941704  0.01311455  1
  O  O11  1  0.75780448  0.25919893  0.98685792  1
  O  O12  1  0.02897327  0.06917784  0.35724329  1
  O  O13  1  0.25780590  0.24084474  0.98685768  1
  O  O14  1  0.09728103  0.62114079  0.24998162  1
  O  O15  1  0.46998665  0.56924156  0.64279527  1
  O  O16  1  0.96998886  0.93072495  0.64279932  1
  O  O17  1  0.90273255  0.37884662  0.75006768  1
  O  O18  1  0.02977098  0.06907276  0.14261871  1
  O  O19  1  0.52977121  0.43096343  0.14261346  1
loop_
_geom_bond_atom_site_label_1
_geom_bond_atom_site_label_2
_geom_bond_distance
_geom_bond_site_symmetry_2
Ca0 O16 2.310805 1_455
Ca0 O17 2.341802 1_455
Ca0 O8 2.469768 1_455
Ca0 O3 2.482364 1_555
Ca0 O15 2.486150 1_555
Ca0 O9 2.489296 1_555
Ca0 O6 2.656627 1_455
Ca0 O15 2.939958 1_455
Ca1 O18 2.311367 1_655
Ca1 O14 2.341206 1_655
Ca1 O7 2.469304 1_655
Ca1 O10 2.482031 1_555
Ca1 O19 2.487183 1_555
Ca1 O11 2.489182 1_554
Ca1 O13 2.655632 1_654
Ca1 O19 2.937972 1_655
Ca2 O15 2.310720 1_555
Ca2 O2 2.341832 1_565
Ca2 O3 2.469798 1_565
Ca2 O8 2.482439 1_565
Ca2 O16 2.486139 1_555
Ca2 O6 2.489312 1_555
Ca2 O9 2.656706 1_555
Ca2 O16 2.939953 1_455
Ca3 O19 2.311284 1_555
Ca3 O5 2.341247 1_545
Ca3 O10 2.469314 1_545
Ca3 O7 2.482116 1_545
Ca3 O18 2.487213 1_555
Ca3 O13 2.489223 1_554
Ca3 O11 2.655652 1_554
Ca3 O18 2.937940 1_655
Ca4 O0 2.309571 1_555
Ca4 O2 2.343859 1_565
Ca4 O13 2.470128 1_565
Ca4 O1 2.479199 1_555
Ca4 O11 2.484868 1_565
Ca4 O10 2.489488 1_556
Ca4 O7 2.653811 1_556
Ca4 O1 2.944916 1_455
Ca5 O1 2.309496 1_455
Ca5 O17 2.343870 1_455
Ca5 O11 2.470146 1_455
Ca5 O0 2.479232 1_555
Ca5 O13 2.484859 1_555
Ca5 O7 2.489577 1_556
Ca5 O10 2.653878 1_456
Ca5 O0 2.944851 1_455
Ca6 O12 2.309083 1_655
Ca6 O14 2.344586 1_655
Ca6 O9 2.470777 1_655
Ca6 O4 2.477208 1_555
Ca6 O6 2.485319 1_555
Ca6 O8 2.489587 1_555
Ca6 O3 2.654904 1_655
Ca6 O4 2.947766 1_655
Ca7 O4 2.309156 1_555
Ca7 O5 2.344586 1_545
Ca7 O6 2.470741 1_545
Ca7 O12 2.477214 1_555
Ca7 O9 2.485313 1_545
Ca7 O3 2.489512 1_555
Ca7 O8 2.654795 1_555
Ca7 O12 2.947789 1_655
Mn0 O6 1.911376 1_555
Mn0 O3 1.917339 1_665
Mn0 O8 1.941087 1_565
Mn0 O9 1.941381 1_655
Mn0 O16 2.173276 1_555
Mn0 O12 2.175764 1_665
Mn1 O9 1.911370 1_555
Mn1 O8 1.917328 1_555
Mn1 O3 1.941113 1_555
Mn1 O6 1.941403 1_555
Mn1 O15 2.173195 1_555
Mn1 O4 2.175810 1_555
Mn2 O11 1.911008 1_555
Mn2 O7 1.916050 1_556
Mn2 O13 1.941937 1_555
Mn2 O10 1.942064 1_556
Mn2 O19 2.170328 1_556
Mn2 O0 2.172728 1_555
Mn3 O13 1.911048 1_555
Mn3 O10 1.916114 1_446
Mn3 O11 1.941967 1_455
Mn3 O7 1.942069 1_546
Mn3 O18 2.170424 1_556
Mn3 O1 2.172715 1_445
Ga0 O0 1.822392 1_555
Ga0 O15 1.822754 1_555
Ga0 O2 1.888635 1_555
Ga0 O17 1.899698 1_555
Ga1 O4 1.821995 1_555
Ga1 O19 1.823180 1_555
Ga1 O5 1.888661 1_555
Ga1 O14 1.899684 1_555
Ga2 O12 1.821983 1_665
Ga2 O18 1.823187 1_665
Ga2 O14 1.888657 1_655
Ga2 O5 1.899687 1_555
Ga3 O1 1.822375 1_445
Ga3 O16 1.822763 1_445
Ga3 O17 1.888631 1_455
Ga3 O2 1.899700 1_555
