# generated using pymatgen
data_SnP4H8N2O13
_symmetry_space_group_name_H-M   'P 1'
_cell_length_a   5.22221300
_cell_length_b   8.13986001
_cell_length_c   15.19954518
_cell_angle_alpha   83.61522992
_cell_angle_beta   82.31818241
_cell_angle_gamma   80.19618193
_symmetry_Int_Tables_number   1
_chemical_formula_structural   SnP4H8N2O13
_chemical_formula_sum   'Sn2 P8 H16 N4 O26'
_cell_volume   628.36150460
_cell_formula_units_Z   2
loop_
 _symmetry_equiv_pos_site_id
 _symmetry_equiv_pos_as_xyz
  1  'x, y, z'
loop_
 _atom_site_type_symbol
 _atom_site_label
 _atom_site_symmetry_multiplicity
 _atom_site_fract_x
 _atom_site_fract_y
 _atom_site_fract_z
 _atom_site_occupancy
  Sn  Sn0  1  0.03865600  0.94601500  0.23943200  1
  Sn  Sn1  1  0.96134400  0.05398500  0.76056800  1
  P  P0  1  0.19139700  0.40699300  0.69080700  1
  P  P1  1  0.82530000  0.66908900  0.78993400  1
  P  P2  1  0.80860300  0.59300700  0.30919300  1
  P  P3  1  0.61886000  0.78316000  0.14112300  1
  P  P4  1  0.38114000  0.21684000  0.85887700  1
  P  P5  1  0.17470000  0.33091100  0.21006600  1
  P  P6  1  0.54623100  0.89848400  0.65529700  1
  P  P7  1  0.45376900  0.10151600  0.34470300  1
  H  H0  1  0.22155300  0.72245600  0.43554300  1
  H  H1  1  0.77844700  0.27754400  0.56445700  1
  H  H2  1  0.68276500  0.43871200  0.06965700  1
  H  H3  1  0.78430000  0.39121000  0.96479300  1
  H  H4  1  0.24024500  0.60930600  0.53472400  1
  H  H5  1  0.05917900  0.71325300  0.95125600  1
  H  H6  1  0.31723500  0.56128800  0.93034300  1
  H  H7  1  0.28642800  0.80752300  0.52302300  1
  H  H8  1  0.02453100  0.23440800  0.47819900  1
  H  H9  1  0.36709900  0.74291300  0.96266700  1
  H  H10  1  0.94082100  0.28674700  0.04874400  1
  H  H11  1  0.71357200  0.19247700  0.47697700  1
  H  H12  1  0.63290100  0.25708700  0.03733300  1
  H  H13  1  0.75975500  0.39069400  0.46527600  1
  H  H14  1  0.21570000  0.60879000  0.03520700  1
  H  H15  1  0.97546900  0.76559200  0.52180100  1
  N  N0  1  0.23961600  0.65842000  0.96922100  1
  N  N1  1  0.82405100  0.27255800  0.49690600  1
  N  N2  1  0.76038400  0.34158000  0.03077900  1
  N  N3  1  0.17594900  0.72744200  0.50309400  1
  O  O0  1  0.74801400  0.54363100  0.86276300  1
  O  O1  1  0.96667200  0.40988700  0.28811300  1
  O  O2  1  0.36374500  0.35393000  0.77112800  1
  O  O3  1  0.35503900  0.17567900  0.43076100  1
  O  O4  1  0.68902100  0.04017600  0.67589300  1
  O  O5  1  0.98525400  0.29089200  0.69648000  1
  O  O6  1  0.67787900  0.14989800  0.85681700  1
  O  O7  1  0.35645300  0.43074400  0.60471800  1
  O  O8  1  0.41861900  0.24749500  0.26083000  1
  O  O9  1  0.64496100  0.82432100  0.56923900  1
  O  O10  1  0.27721400  0.30436100  0.94043100  1
  O  O11  1  0.72278600  0.69563900  0.05956900  1
  O  O12  1  0.32212100  0.85010200  0.14318300  1
  O  O13  1  0.76092200  0.92753700  0.15839100  1
  O  O14  1  0.03332800  0.59011300  0.71188700  1
  O  O15  1  0.05573500  0.18830200  0.18008600  1
  O  O16  1  0.64354700  0.56925600  0.39528200  1
  O  O17  1  0.01474600  0.70910800  0.30352000  1
  O  O18  1  0.94426500  0.81169800  0.81991400  1
  O  O19  1  0.31097900  0.95982400  0.32410700  1
  O  O20  1  0.58138100  0.75250500  0.73917000  1
  O  O21  1  0.63625500  0.64607000  0.22887200  1
  O  O22  1  0.24754500  0.95711800  0.66341500  1
  O  O23  1  0.25198600  0.45636900  0.13723700  1
  O  O24  1  0.75245500  0.04288200  0.33658500  1
  O  O25  1  0.23907800  0.07246300  0.84160900  1
loop_
_geom_bond_atom_site_label_1
_geom_bond_atom_site_label_2
_geom_bond_distance
_geom_bond_site_symmetry_2
H0 N3 1.026242 1_555
H1 N1 1.026242 1_555
H2 N2 1.034093 1_555
H3 N2 1.038413 1_556
H4 N3 1.048306 1_555
H5 N0 1.029623 1_555
H6 N0 1.034093 1_555
H7 N3 1.033556 1_555
H8 N1 1.050104 1_455
H9 N0 1.024263 1_555
H10 N2 1.029623 1_555
H11 N1 1.033556 1_555
H12 N2 1.024263 1_555
H13 N1 1.048306 1_555
H14 N0 1.038413 1_554
H15 N3 1.050104 1_655
O0 P1 1.483456 1_555
O1 P5 1.608712 1_655
O1 P2 1.619369 1_555
O2 P0 1.590967 1_555
O2 P4 1.642924 1_555
O3 P7 1.493506 1_555
O4 P6 1.555589 1_545
O4 Sn1 2.065779 1_555
O5 P0 1.537196 1_655
O5 Sn1 2.077224 1_555
O6 P4 1.550008 1_555
O6 Sn1 2.054880 1_555
O7 P0 1.480375 1_555
O8 P5 1.590798 1_555
O8 P7 1.649908 1_555
O9 P6 1.493506 1_555
O10 P4 1.491149 1_555
O11 P3 1.491149 1_555
O12 P3 1.550008 1_555
O12 Sn0 2.054880 1_555
O13 P3 1.554979 1_555
O13 Sn0 2.058316 1_655
O14 P1 1.608712 1_455
O14 P0 1.619369 1_555
O15 P5 1.542736 1_555
O15 Sn0 2.086589 1_545
O16 P2 1.480375 1_555
O17 P2 1.537196 1_455
O17 Sn0 2.077224 1_555
O18 P1 1.542736 1_555
O18 Sn1 2.086589 1_565
O19 P7 1.555589 1_565
O19 Sn0 2.065779 1_555
O20 P1 1.590798 1_555
O20 P6 1.649908 1_555
O21 P2 1.590967 1_555
O21 P3 1.642924 1_555
O22 P6 1.544059 1_555
O22 Sn1 2.074542 1_465
O23 P5 1.483456 1_555
O24 P7 1.544059 1_555
O24 Sn0 2.074542 1_645
O25 P4 1.554979 1_555
O25 Sn1 2.058316 1_455
