# generated using pymatgen
data_Cs4CO4
_symmetry_space_group_name_H-M   'P 1'
_cell_length_a   6.24018100
_cell_length_b   6.24018100
_cell_length_c   6.24018100
_cell_angle_alpha   90.00000000
_cell_angle_beta   90.00000000
_cell_angle_gamma   90.00000000
_symmetry_Int_Tables_number   1
_chemical_formula_structural   Cs4CO4
_chemical_formula_sum   'Cs4 C1 O4'
_cell_volume   242.99176773
_cell_formula_units_Z   1
loop_
 _symmetry_equiv_pos_site_id
 _symmetry_equiv_pos_as_xyz
  1  'x, y, z'
loop_
 _atom_site_type_symbol
 _atom_site_label
 _atom_site_symmetry_multiplicity
 _atom_site_fract_x
 _atom_site_fract_y
 _atom_site_fract_z
 _atom_site_occupancy
  Cs  Cs0  1  0.77081100  0.22918900  0.22918900  1
  Cs  Cs1  1  0.22918900  0.77081100  0.22918900  1
  Cs  Cs2  1  0.77081100  0.77081100  0.77081100  1
  Cs  Cs3  1  0.22918900  0.22918900  0.77081100  1
  C  C0  1  0.50000000  0.50000000  0.50000000  1
  O  O0  1  0.36644900  0.36644900  0.36644900  1
  O  O1  1  0.63355100  0.63355100  0.36644900  1
  O  O2  1  0.36644900  0.63355100  0.63355100  1
  O  O3  1  0.63355100  0.36644900  0.63355100  1
loop_
_geom_bond_atom_site_label_1
_geom_bond_atom_site_label_2
_geom_bond_distance
_geom_bond_site_symmetry_2
Cs0 O1 2.798979 1_555
Cs0 O3 2.798979 1_555
Cs0 O0 2.798979 1_555
Cs1 O2 2.798979 1_555
Cs1 O1 2.798979 1_555
Cs1 O0 2.798979 1_555
Cs2 O1 2.798979 1_555
Cs2 O2 2.798979 1_555
Cs2 O3 2.798979 1_555
Cs3 O2 2.798979 1_555
Cs3 O3 2.798979 1_555
Cs3 O0 2.798979 1_555
C0 O1 1.443461 1_555
C0 O0 1.443461 1_555
C0 O2 1.443461 1_555
C0 O3 1.443461 1_555
