# generated using pymatgen
data_P3H18OsC6(SO)6
_symmetry_space_group_name_H-M   'P 1'
_cell_length_a   9.16140744
_cell_length_b   9.16140744
_cell_length_c   13.17390094
_cell_angle_alpha   84.28599400
_cell_angle_beta   84.28599400
_cell_angle_gamma   76.82973897
_symmetry_Int_Tables_number   1
_chemical_formula_structural   P3H18OsC6(SO)6
_chemical_formula_sum   'P6 H36 Os2 C12 S12 O12'
_cell_volume   1067.89349371
_cell_formula_units_Z   2
loop_
 _symmetry_equiv_pos_site_id
 _symmetry_equiv_pos_as_xyz
  1  'x, y, z'
loop_
 _atom_site_type_symbol
 _atom_site_label
 _atom_site_symmetry_multiplicity
 _atom_site_fract_x
 _atom_site_fract_y
 _atom_site_fract_z
 _atom_site_occupancy
  P  P0  1  0.64869400  0.70983400  0.64923400  1
  P  P1  1  0.29016600  0.35130600  0.85076600  1
  P  P2  1  0.35130600  0.29016600  0.35076600  1
  P  P3  1  0.70983400  0.64869400  0.14923400  1
  P  P4  1  0.06608300  0.93391700  0.75000000  1
  P  P5  1  0.93391700  0.06608300  0.25000000  1
  H  H0  1  0.69624400  0.08045200  0.65878700  1
  H  H1  1  0.91954800  0.30375600  0.84121300  1
  H  H2  1  0.30375600  0.91954800  0.34121300  1
  H  H3  1  0.08045200  0.69624400  0.15878700  1
  H  H4  1  0.59699800  0.98169800  0.75680500  1
  H  H5  1  0.01830200  0.40300200  0.74319500  1
  H  H6  1  0.40300200  0.01830200  0.24319500  1
  H  H7  1  0.98169800  0.59699800  0.25680500  1
  H  H8  1  0.52435400  0.03309400  0.63288900  1
  H  H9  1  0.96690600  0.47564600  0.86711100  1
  H  H10  1  0.47564600  0.96690600  0.36711100  1
  H  H11  1  0.03309400  0.52435400  0.13288900  1
  H  H12  1  0.88980500  0.40858300  0.52681900  1
  H  H13  1  0.59141700  0.11019500  0.97318100  1
  H  H14  1  0.11019500  0.59141700  0.47318100  1
  H  H15  1  0.40858300  0.88980500  0.02681900  1
  H  H16  1  0.68967100  0.45919200  0.52165500  1
  H  H17  1  0.54080800  0.31032900  0.97834500  1
  H  H18  1  0.31032900  0.54080800  0.47834500  1
  H  H19  1  0.45919200  0.68967100  0.02165500  1
  H  H20  1  0.76920100  0.38940200  0.64165100  1
  H  H21  1  0.61059800  0.23079900  0.85834900  1
  H  H22  1  0.23079900  0.61059800  0.35834900  1
  H  H23  1  0.38940200  0.76920100  0.14165100  1
  H  H24  1  0.07172800  0.20274400  0.53901500  1
  H  H25  1  0.79725600  0.92827200  0.96098500  1
  H  H26  1  0.92827200  0.79725600  0.46098500  1
  H  H27  1  0.20274400  0.07172800  0.03901500  1
  H  H28  1  0.14402900  0.00446000  0.53507500  1
  H  H29  1  0.99554000  0.85597100  0.96492500  1
  H  H30  1  0.85597100  0.99554000  0.46492500  1
  H  H31  1  0.00446000  0.14402900  0.03507500  1
  H  H32  1  0.23118200  0.11261000  0.60840300  1
  H  H33  1  0.88739000  0.76881800  0.89159700  1
  H  H34  1  0.76881800  0.88739000  0.39159700  1
  H  H35  1  0.11261000  0.23118200  0.10840300  1
  Os  Os0  1  0.33664500  0.66335500  0.75000000  1
  Os  Os1  1  0.66335500  0.33664500  0.25000000  1
  C  C0  1  0.62656200  0.99712400  0.67426200  1
  C  C1  1  0.00287600  0.37343800  0.82573800  1
  C  C2  1  0.37343800  0.00287600  0.32573800  1
  C  C3  1  0.99712400  0.62656200  0.17426200  1
  C  C4  1  0.78295500  0.45622300  0.56871200  1
  C  C5  1  0.54377700  0.21704500  0.93128800  1
  C  C6  1  0.21704500  0.54377700  0.43128800  1
  C  C7  1  0.45622300  0.78295500  0.06871200  1
  C  C8  1  0.12461400  0.10003600  0.58261800  1
  C  C9  1  0.89996400  0.87538600  0.91738200  1
  C  C10  1  0.87538600  0.89996400  0.41738200  1
  C  C11  1  0.10003600  0.12461400  0.08261800  1
  S  S0  1  0.60119800  0.62999700  0.79311700  1
  S  S1  1  0.37000300  0.39880200  0.70688300  1
  S  S2  1  0.39880200  0.37000300  0.20688300  1
  S  S3  1  0.62999700  0.60119800  0.29311700  1
  S  S4  1  0.45158300  0.73235300  0.58525900  1
  S  S5  1  0.26764700  0.54841700  0.91474100  1
  S  S6  1  0.54841700  0.26764700  0.41474100  1
  S  S7  1  0.73235300  0.45158300  0.08525900  1
  S  S8  1  0.26814100  0.90811900  0.80900200  1
  S  S9  1  0.09188100  0.73185900  0.69099800  1
  S  S10  1  0.73185900  0.09188100  0.19099800  1
  S  S11  1  0.90811900  0.26814100  0.30900200  1
  O  O0  1  0.71684500  0.85814100  0.63712300  1
  O  O1  1  0.14185900  0.28315500  0.86287700  1
  O  O2  1  0.28315500  0.14185900  0.36287700  1
  O  O3  1  0.85814100  0.71684500  0.13712300  1
  O  O4  1  0.78935700  0.60807400  0.58745100  1
  O  O5  1  0.39192600  0.21064300  0.91254900  1
  O  O6  1  0.21064300  0.39192600  0.41254900  1
  O  O7  1  0.60807400  0.78935700  0.08745100  1
  O  O8  1  0.02051400  0.07864200  0.67075100  1
  O  O9  1  0.92135800  0.97948600  0.82924900  1
  O  O10  1  0.97948600  0.92135800  0.32924900  1
  O  O11  1  0.07864200  0.02051400  0.17075100  1
loop_
_geom_bond_atom_site_label_1
_geom_bond_atom_site_label_2
_geom_bond_distance
_geom_bond_site_symmetry_2
P0 S0 2.005482 1_555
P0 S4 2.027932 1_555
P1 S1 2.005482 1_555
P1 S5 2.027932 1_555
P2 S2 2.005482 1_555
P2 S6 2.027932 1_555
P3 S3 2.005482 1_555
P3 S7 2.027932 1_555
P4 S9 2.034036 1_555
P4 S8 2.034036 1_555
P5 S10 2.034036 1_555
P5 S11 2.034036 1_555
Os0 S8 2.373808 1_555
Os0 S9 2.373808 1_555
Os0 S5 2.406984 1_555
Os0 S4 2.406984 1_555
Os0 S0 2.488433 1_555
Os0 S1 2.488433 1_555
Os1 S11 2.373808 1_555
Os1 S10 2.373808 1_555
Os1 S7 2.406984 1_555
Os1 S6 2.406984 1_555
Os1 S3 2.488433 1_555
Os1 S2 2.488433 1_555
C0 H0 1.094099 1_565
C0 H4 1.097266 1_555
C0 H8 1.098956 1_565
C0 O0 1.452000 1_555
C1 H1 1.094099 1_455
C1 H5 1.097266 1_555
C1 H9 1.098956 1_455
C1 O1 1.452000 1_555
C2 H2 1.094099 1_545
C2 H6 1.097266 1_555
C2 H10 1.098956 1_545
C2 O2 1.452000 1_555
C3 H3 1.094099 1_655
C3 H7 1.097266 1_555
C3 H11 1.098956 1_655
C3 O3 1.452000 1_555
C4 H12 1.094994 1_555
C4 H16 1.098615 1_555
C4 H20 1.099025 1_555
C4 O4 1.451959 1_555
C5 H13 1.094994 1_555
C5 H17 1.098615 1_555
C5 H21 1.099025 1_555
C5 O5 1.451959 1_555
C6 H14 1.094994 1_555
C6 H18 1.098615 1_555
C6 H22 1.099025 1_555
C6 O6 1.451959 1_555
C7 H15 1.094994 1_555
C7 H19 1.098615 1_555
C7 H23 1.099025 1_555
C7 O7 1.451959 1_555
C8 H24 1.090935 1_555
C8 H28 1.098484 1_555
C8 H32 1.098602 1_555
C8 O8 1.454437 1_555
C9 H25 1.090935 1_555
C9 H29 1.098484 1_555
C9 H33 1.098602 1_555
C9 O9 1.454437 1_555
C10 H26 1.090935 1_555
C10 H30 1.098484 1_555
C10 H34 1.098602 1_555
C10 O10 1.454437 1_555
C11 H27 1.090935 1_555
C11 H31 1.098484 1_555
C11 H35 1.098602 1_555
C11 O11 1.454437 1_555
O0 P0 1.607767 1_555
O1 P1 1.607767 1_555
O2 P2 1.607767 1_555
O3 P3 1.607767 1_555
O4 P0 1.608427 1_555
O5 P1 1.608427 1_555
O6 P2 1.608427 1_555
O7 P3 1.608427 1_555
O8 P4 1.606594 1_545
O9 P4 1.606594 1_655
O10 P5 1.606594 1_565
O11 P5 1.606594 1_455
