# generated using pymatgen
data_Ca(H8O5)2
_symmetry_space_group_name_H-M   'P 1'
_cell_length_a   6.06047700
_cell_length_b   6.36843576
_cell_length_c   11.32529704
_cell_angle_alpha   87.78741371
_cell_angle_beta   89.74920963
_cell_angle_gamma   88.58909937
_symmetry_Int_Tables_number   1
_chemical_formula_structural   Ca(H8O5)2
_chemical_formula_sum   'Ca2 H32 O20'
_cell_volume   436.64755606
_cell_formula_units_Z   2
loop_
 _symmetry_equiv_pos_site_id
 _symmetry_equiv_pos_as_xyz
  1  'x, y, z'
loop_
 _atom_site_type_symbol
 _atom_site_label
 _atom_site_symmetry_multiplicity
 _atom_site_fract_x
 _atom_site_fract_y
 _atom_site_fract_z
 _atom_site_occupancy
  Ca  Ca0  1  0.99439900  0.00373400  0.51402500  1
  Ca  Ca1  1  0.00252000  0.00259200  0.99867100  1
  H  H0  1  0.73842300  0.62119800  0.38837800  1
  H  H1  1  0.98570800  0.67419100  0.33597000  1
  H  H2  1  0.08391000  0.37278800  0.31739700  1
  H  H3  1  0.30004100  0.37840000  0.39817000  1
  H  H4  1  0.40940000  0.96106800  0.38787200  1
  H  H5  1  0.37831300  0.71727900  0.40272300  1
  H  H6  1  0.68688700  0.09582400  0.29881000  1
  H  H7  1  0.62234500  0.27962500  0.39504100  1
  H  H8  1  0.29142300  0.63765100  0.88929100  1
  H  H9  1  0.07463000  0.65009800  0.80333900  1
  H  H10  1  0.95649500  0.42173600  0.91447200  1
  H  H11  1  0.71004300  0.37764500  0.89782800  1
  H  H12  1  0.73134900  0.85589300  0.80149100  1
  H  H13  1  0.62110500  0.72497900  0.90791700  1
  H  H14  1  0.36921400  0.29982100  0.89198900  1
  H  H15  1  0.42621100  0.06706100  0.85950800  1
  H  H16  1  0.16185400  0.25848800  0.71637900  1
  H  H17  1  0.27902400  0.37596600  0.60730500  1
  H  H18  1  0.97350400  0.54536900  0.62532900  1
  H  H19  1  0.72868500  0.61659400  0.60240300  1
  H  H20  1  0.62702700  0.26542400  0.61497300  1
  H  H21  1  0.54619700  0.03303100  0.63103800  1
  H  H22  1  0.28047900  0.83672000  0.71887300  1
  H  H23  1  0.38278200  0.72965400  0.60508000  1
  H  H24  1  0.70165000  0.41219000  0.10366700  1
  H  H25  1  0.84126900  0.28002000  0.20283200  1
  H  H26  1  0.01742900  0.57597200  0.12473500  1
  H  H27  1  0.26736100  0.62577500  0.10364200  1
  H  H28  1  0.26261900  0.12179900  0.20644500  1
  H  H29  1  0.36890900  0.26169800  0.09818000  1
  H  H30  1  0.74140800  0.83266500  0.21648800  1
  H  H31  1  0.55607600  0.96712100  0.13922900  1
  O  O0  1  0.50955200  0.49881300  0.43490100  1
  O  O1  1  0.48566600  0.50453500  0.93600800  1
  O  O2  1  0.49991600  0.50246700  0.56710600  1
  O  O3  1  0.47641300  0.47018400  0.06709100  1
  O  O4  1  0.83970500  0.73182600  0.35323400  1
  O  O5  1  0.17070400  0.28668200  0.37356700  1
  O  O6  1  0.29409400  0.85588400  0.38702600  1
  O  O7  1  0.69612500  0.13694200  0.38151200  1
  O  O8  1  0.16883900  0.73588600  0.85095700  1
  O  O9  1  0.86282800  0.31559300  0.88233900  1
  O  O10  1  0.68992500  0.86501300  0.88488800  1
  O  O11  1  0.29920700  0.16456200  0.86581700  1
  O  O12  1  0.13406300  0.30998400  0.63416000  1
  O  O13  1  0.87812900  0.67564100  0.62244300  1
  O  O14  1  0.68215200  0.11787900  0.63312900  1
  O  O15  1  0.32131200  0.86834400  0.63489700  1
  O  O16  1  0.86415500  0.36432700  0.13052400  1
  O  O17  1  0.11865300  0.69719100  0.11729800  1
  O  O18  1  0.30395400  0.11458400  0.12301100  1
  O  O19  1  0.71696300  0.94701400  0.15496700  1
loop_
_geom_bond_atom_site_label_1
_geom_bond_atom_site_label_2
_geom_bond_distance
_geom_bond_site_symmetry_2
Ca0 O14 2.431993 1_555
Ca0 O7 2.467702 1_555
Ca0 O13 2.497354 1_545
Ca0 O6 2.500336 1_645
Ca0 O15 2.528077 1_645
Ca0 O12 2.582179 1_655
Ca0 O5 2.603397 1_655
Ca0 O4 2.744433 1_545
Ca1 O17 2.412916 1_546
Ca1 O18 2.448105 1_556
Ca1 O9 2.479870 1_455
Ca1 O10 2.491494 1_445
Ca1 O19 2.491689 1_446
Ca1 O11 2.551213 1_555
Ca1 O8 2.611484 1_545
Ca1 O16 2.898197 1_456
H0 O4 1.014422 1_555
H0 O0 1.680525 1_555
H1 O4 0.971565 1_555
H2 O5 0.971522 1_555
H3 O5 1.034528 1_555
H3 O0 1.565417 1_555
H4 O6 0.980174 1_555
H5 O6 1.018707 1_555
H5 O0 1.615548 1_555
H6 O7 0.984423 1_555
H7 O7 1.019427 1_555
H7 O0 1.618186 1_555
H8 O8 1.044390 1_555
H8 O1 1.518579 1_555
H9 O8 0.977807 1_555
H10 O9 0.975350 1_555
H11 O9 1.015002 1_555
H11 O1 1.629982 1_555
H12 O10 0.979752 1_555
H13 O10 1.018178 1_555
H13 O1 1.663078 1_555
H14 O11 1.024045 1_555
H14 O1 1.595258 1_555
H15 O11 0.981077 1_555
H16 O12 0.988959 1_555
H17 O12 1.023163 1_555
H17 O2 1.633365 1_555
H18 O13 0.998956 1_555
H19 O13 1.019005 1_555
H19 O2 1.639269 1_555
H20 O14 1.003505 1_555
H20 O2 1.746252 1_555
H21 O14 0.997256 1_555
H22 O15 0.995945 1_555
H23 O15 1.019142 1_555
H23 O2 1.666433 1_555
H24 O16 1.065857 1_555
H24 O3 1.462754 1_555
H25 O16 0.973057 1_555
H26 O17 0.998613 1_555
H27 O17 1.013426 1_555
H27 O3 1.650338 1_555
H28 O18 0.979001 1_555
H29 O18 1.052927 1_555
H29 O3 1.521780 1_555
H30 O19 0.997057 1_555
H31 O19 0.996244 1_555
O0 O2 1.499200 1_555
O1 O3 1.493218 1_556
