# generated using pymatgen
data_Na3Sr7Ti7Nb3O30
_symmetry_space_group_name_H-M   'P 1'
_cell_length_a   6.86301300
_cell_length_b   6.87397134
_cell_length_c   28.36077872
_cell_angle_alpha   94.59800049
_cell_angle_beta   94.65989994
_cell_angle_gamma   109.46387604
_symmetry_Int_Tables_number   1
_chemical_formula_structural   Na3Sr7Ti7Nb3O30
_chemical_formula_sum   'Na6 Sr14 Ti14 Nb6 O60'
_cell_volume   1249.10809458
_cell_formula_units_Z   2
loop_
 _symmetry_equiv_pos_site_id
 _symmetry_equiv_pos_as_xyz
  1  'x, y, z'
loop_
 _atom_site_type_symbol
 _atom_site_label
 _atom_site_symmetry_multiplicity
 _atom_site_fract_x
 _atom_site_fract_y
 _atom_site_fract_z
 _atom_site_occupancy
  Na  Na0  1  0.10149000  0.10187400  0.20122800  1
  Na  Na1  1  0.59927300  0.59963600  0.20101700  1
  Na  Na2  1  0.70004700  0.70007500  0.39982200  1
  Na  Na3  1  0.29990300  0.29990500  0.59984000  1
  Na  Na4  1  0.89973700  0.89972800  0.79972200  1
  Na  Na5  1  0.00093800  0.00057100  0.99945100  1
  Sr  Sr0  1  0.30091900  0.80169200  0.10072000  1
  Sr  Sr1  1  0.89922600  0.40022100  0.29994200  1
  Sr  Sr2  1  0.80024900  0.29962700  0.10074500  1
  Sr  Sr3  1  0.49980700  0.99984600  0.49980500  1
  Sr  Sr4  1  0.40071700  0.89964200  0.29994200  1
  Sr  Sr5  1  0.19947000  0.19951700  0.39954300  1
  Sr  Sr6  1  0.09980400  0.59982500  0.69983400  1
  Sr  Sr7  1  0.00000400  0.49995000  0.49980700  1
  Sr  Sr8  1  0.79992200  0.79992000  0.59984700  1
  Sr  Sr9  1  0.60000400  0.09999500  0.69983200  1
  Sr  Sr10  1  0.40033500  0.40026600  0.80005900  1
  Sr  Sr11  1  0.70060100  0.19855400  0.89966100  1
  Sr  Sr12  1  0.49857900  0.49780900  0.99883200  1
  Sr  Sr13  1  0.19898800  0.70110600  0.89966700  1
  Ti  Ti0  1  0.40221200  0.40177100  0.30034400  1
  Ti  Ti1  1  0.89777200  0.89751500  0.29861000  1
  Ti  Ti2  1  0.29928100  0.30299500  0.10238300  1
  Ti  Ti3  1  0.10478000  0.59759400  0.20274200  1
  Ti  Ti4  1  0.99900500  0.00054900  0.49949700  1
  Ti  Ti5  1  0.50042300  0.49887900  0.49942700  1
  Ti  Ti6  1  0.70027500  0.19885400  0.39919000  1
  Ti  Ti7  1  0.59894200  0.60038500  0.69946600  1
  Ti  Ti8  1  0.29963500  0.79959100  0.59918000  1
  Ti  Ti9  1  0.10056000  0.09903500  0.69952600  1
  Ti  Ti10  1  0.19500300  0.19621100  0.89850200  1
  Ti  Ti11  1  0.70351400  0.70336000  0.90014600  1
  Ti  Ti12  1  0.89898300  0.40028200  0.79921100  1
  Ti  Ti13  1  0.49391500  0.00421300  0.99929700  1
  Nb  Nb0  1  0.80336300  0.80245400  0.10124800  1
  Nb  Nb1  1  0.59674300  0.10441300  0.20147600  1
  Nb  Nb2  1  0.19926300  0.70043600  0.39979400  1
  Nb  Nb3  1  0.79996900  0.29994600  0.59988100  1
  Nb  Nb4  1  0.40046100  0.89935700  0.79976900  1
  Nb  Nb5  1  0.00274600  0.49554500  0.99923500  1
  O  O0  1  0.40417700  0.15053200  0.04995000  1
  O  O1  1  0.89900000  0.64660200  0.05012000  1
  O  O2  1  0.95321700  0.69502500  0.14896900  1
  O  O3  1  0.54748600  0.54673500  0.09857900  1
  O  O4  1  0.15258900  0.40325100  0.05072500  1
  O  O5  1  0.34777200  0.84893500  0.19964900  1
  O  O6  1  0.25372700  0.74818700  0.99986000  1
  O  O7  1  0.45150500  0.19685300  0.14835300  1
  O  O8  1  0.50164000  0.25104500  0.25148600  1
  O  O9  1  0.64559100  0.89911000  0.05036100  1
  O  O10  1  0.05195000  0.05236800  0.09977400  1
  O  O11  1  0.15100900  0.15054400  0.30095200  1
  O  O12  1  0.54823900  0.29489600  0.34950300  1
  O  O13  1  0.69520700  0.95259400  0.14930200  1
  O  O14  1  0.74827500  0.00264000  0.25138100  1
  O  O15  1  0.95071600  0.44657000  0.40029400  1
  O  O16  1  0.05316800  0.80164700  0.34911700  1
  O  O17  1  0.85156000  0.35036600  0.19941700  1
  O  O18  1  0.10413400  0.85319400  0.45070300  1
  O  O19  1  0.24793000  0.50360100  0.25106200  1
  O  O20  1  0.64938200  0.65007000  0.30012000  1
  O  O21  1  0.19841400  0.45108400  0.14835300  1
  O  O22  1  0.75097000  0.75036800  0.50118100  1
  O  O23  1  0.14838100  0.89480800  0.54964200  1
  O  O24  1  0.29602700  0.54665900  0.34931800  1
  O  O25  1  0.34664400  0.59863000  0.45087300  1
  O  O26  1  0.55086500  0.04669500  0.60030900  1
  O  O27  1  0.44950000  0.95366800  0.40005500  1
  O  O28  1  0.65297600  0.40186900  0.54924400  1
  O  O29  1  0.70414400  0.45319400  0.65073600  1
  O  O30  1  0.85227500  0.10492400  0.45083400  1
  O  O31  1  0.24921500  0.24981100  0.49917600  1
  O  O32  1  0.80201600  0.05514000  0.34979300  1
  O  O33  1  0.00254600  0.74664500  0.25083600  1
  O  O34  1  0.59655400  0.84850900  0.94943600  1
  O  O35  1  0.74836600  0.49476500  0.74963600  1
  O  O36  1  0.35096500  0.35037500  0.70118400  1
  O  O37  1  0.89636800  0.14648400  0.54946500  1
  O  O38  1  0.94667800  0.19867300  0.65095700  1
  O  O39  1  0.15088000  0.64674200  0.80031800  1
  O  O40  1  0.04931800  0.55350200  0.60006700  1
  O  O41  1  0.25304000  0.00192500  0.74928600  1
  O  O42  1  0.30421400  0.05312600  0.85068000  1
  O  O43  1  0.45235100  0.70487000  0.65090000  1
  O  O44  1  0.84922300  0.84982200  0.69916600  1
  O  O45  1  0.40227100  0.65494500  0.54985400  1
  O  O46  1  0.59747200  0.34592400  0.45061100  1
  O  O47  1  0.35396900  0.10078700  0.94932700  1
  O  O48  1  0.95088400  0.95015900  0.89992100  1
  O  O49  1  0.49631400  0.74643600  0.74945200  1
  O  O50  1  0.54650900  0.79864200  0.85084900  1
  O  O51  1  0.74652600  0.25159200  0.00010200  1
  O  O52  1  0.64928000  0.15339600  0.80007900  1
  O  O53  1  0.84827400  0.59601400  0.94919700  1
  O  O54  1  0.44929100  0.44974600  0.90013800  1
  O  O55  1  0.05239600  0.30474700  0.85087900  1
  O  O56  1  0.19749800  0.94596400  0.65069800  1
  O  O57  1  0.00235200  0.25494500  0.74987800  1
  O  O58  1  0.10219600  0.35088600  0.94907900  1
  O  O59  1  0.79770400  0.54561900  0.85057500  1
loop_
_geom_bond_atom_site_label_1
_geom_bond_atom_site_label_2
_geom_bond_distance
_geom_bond_site_symmetry_2
Na0 O17 2.795498 1_455
Na0 O5 2.800049 1_545
Na0 O11 2.800496 1_555
Na0 O8 2.806760 1_555
Na0 O19 2.815520 1_555
Na0 O14 2.824648 1_455
Na0 O33 2.829153 1_545
Na0 O10 2.849087 1_555
Na0 O21 2.851052 1_555
Na0 O7 2.853496 1_555
Na0 O13 2.860104 1_445
Na0 O2 2.871815 1_445
Na1 O20 2.783058 1_555
Na1 O8 2.806283 1_555
Na1 O5 2.808637 1_555
Na1 O19 2.812465 1_555
Na1 O17 2.813080 1_555
Na1 O33 2.819451 1_655
Na1 O14 2.828522 1_565
Na1 O21 2.838621 1_555
Na1 O13 2.852027 1_555
Na1 O7 2.853900 1_555
Na1 O2 2.861090 1_555
Na1 O3 2.876731 1_555
Na2 O20 2.799874 1_555
Na2 O27 2.827194 1_555
Na2 O15 2.827403 1_555
Na2 O24 2.831237 1_555
Na2 O16 2.833415 1_655
Na2 O32 2.835177 1_565
Na2 O18 2.835857 1_655
Na2 O12 2.840188 1_555
Na2 O25 2.840854 1_555
Na2 O46 2.842826 1_555
Na2 O30 2.846139 1_565
Na2 O22 2.846403 1_555
Na3 O31 2.826886 1_555
Na3 O37 2.827078 1_455
Na3 O26 2.827378 1_555
Na3 O40 2.827428 1_555
Na3 O28 2.831310 1_555
Na3 O45 2.834321 1_555
Na3 O29 2.836892 1_555
Na3 O23 2.838378 1_545
Na3 O38 2.840979 1_455
Na3 O56 2.842812 1_545
Na3 O36 2.845982 1_555
Na3 O43 2.847334 1_555
Na4 O48 2.813834 1_555
Na4 O44 2.823853 1_555
Na4 O49 2.825269 1_555
Na4 O52 2.827124 1_565
Na4 O39 2.827147 1_655
Na4 O41 2.829899 1_665
Na4 O57 2.832949 1_665
Na4 O35 2.836377 1_555
Na4 O42 2.838915 1_665
Na4 O50 2.841165 1_555
Na4 O59 2.843661 1_555
Na4 O55 2.848739 1_665
Na5 O48 2.795046 1_445
Na5 O58 2.814279 1_555
Na5 O10 2.817336 1_556
Na5 O47 2.823108 1_555
Na5 O0 2.826771 1_556
Na5 O34 2.827769 1_445
Na5 O6 2.832947 1_545
Na5 O51 2.834483 1_456
Na5 O53 2.835969 1_445
Na5 O4 2.836999 1_556
Na5 O1 2.839769 1_446
Na5 O9 2.849332 1_446
Nb0 O2 1.968490 1_555
Nb0 O13 1.980622 1_555
Nb0 O10 1.983300 1_665
Nb0 O1 2.013781 1_555
Nb0 O9 2.018900 1_555
Nb0 O3 2.019742 1_555
Nb1 O8 1.952751 1_555
Nb1 O5 1.994403 1_545
Nb1 O14 1.994641 1_555
Nb1 O17 1.995534 1_555
Nb1 O7 1.999694 1_555
Nb1 O13 2.029807 1_545
Nb2 O16 1.986465 1_555
Nb2 O15 1.994818 1_455
Nb2 O18 1.995100 1_555
Nb2 O27 1.995780 1_555
Nb2 O24 1.996840 1_555
Nb2 O25 2.001890 1_555
Nb3 O28 1.991961 1_555
Nb3 O37 1.992965 1_555
Nb3 O40 1.993914 1_655
Nb3 O26 1.994191 1_555
Nb3 O38 1.997129 1_555
Nb3 O29 1.998650 1_555
Nb4 O49 1.986706 1_555
Nb4 O50 1.992465 1_555
Nb4 O41 1.993106 1_565
Nb4 O52 1.993333 1_565
Nb4 O39 1.993990 1_555
Nb4 O42 2.003478 1_565
Nb5 O58 1.965021 1_555
Nb5 O4 1.982887 1_556
Nb5 O51 1.988291 1_456
Nb5 O6 1.994950 1_555
Nb5 O53 2.003838 1_455
Nb5 O1 2.021684 1_456
O0 Ti13 1.944101 1_554
O0 Ti2 2.062714 1_555
O0 Sr2 2.790159 1_555
O0 Sr12 2.810140 1_554
O0 Sr0 2.812889 1_545
O1 Sr2 2.799878 1_555
O1 Sr12 2.820061 1_554
O1 Sr0 2.820703 1_655
O2 Ti3 2.055858 1_655
O2 Sr2 2.762081 1_555
O2 Sr0 2.762212 1_655
O3 Ti2 1.969095 1_555
O3 Sr12 2.801145 1_554
O3 Sr2 2.803821 1_555
O3 Sr0 2.813313 1_555
O4 Ti2 2.004864 1_555
O4 Sr0 2.798734 1_555
O4 Sr12 2.814159 1_554
O4 Sr2 2.817553 1_455
O5 Ti3 1.975273 1_555
O5 Sr0 2.778231 1_555
O5 Sr4 2.816518 1_555
O6 Ti13 1.972375 1_565
O6 Sr12 2.777435 1_555
O6 Sr13 2.813960 1_555
O6 Sr0 2.832641 1_556
O7 Ti2 1.939768 1_555
O7 Sr0 2.754170 1_545
O7 Sr2 2.757142 1_555
O8 Ti0 1.963099 1_555
O8 Sr1 2.772300 1_555
O8 Sr4 2.788369 1_545
O9 Ti13 2.031473 1_564
O9 Sr0 2.780361 1_555
O9 Sr2 2.814892 1_565
O9 Sr12 2.832394 1_554
O10 Ti2 1.965988 1_555
O10 Sr2 2.798293 1_455
O10 Sr0 2.802074 1_545
O11 Ti0 1.995064 1_555
O11 Ti1 1.999591 1_445
O11 Sr5 2.768679 1_555
O11 Sr4 2.807512 1_545
O11 Sr1 2.812227 1_455
O12 Ti6 1.969682 1_555
O12 Ti0 1.978814 1_555
O12 Sr4 2.775955 1_545
O12 Sr5 2.797953 1_555
O12 Sr1 2.802385 1_555
O13 Sr0 2.755230 1_555
O13 Sr2 2.765624 1_565
O14 Ti1 1.948071 1_545
O14 Sr4 2.766280 1_545
O14 Sr1 2.777940 1_555
O15 Ti6 1.971536 1_555
O15 Sr5 2.780508 1_655
O15 Sr7 2.794706 1_655
O15 Sr1 2.818266 1_555
O16 Ti1 1.998744 1_455
O16 Sr4 2.776415 1_555
O16 Sr5 2.800513 1_565
O16 Sr1 2.806460 1_455
O17 Ti3 1.973978 1_655
O17 Sr2 2.770979 1_555
O17 Sr1 2.823044 1_555
O18 Ti4 1.971317 1_465
O18 Sr3 2.768693 1_555
O18 Sr5 2.805468 1_565
O18 Sr7 2.809565 1_555
O19 Ti3 1.899168 1_555
O19 Ti0 1.993723 1_555
O19 Sr4 2.772895 1_555
O19 Sr1 2.778057 1_455
O20 Ti0 1.965893 1_555
O20 Ti1 1.972865 1_555
O20 Sr4 2.794048 1_555
O20 Sr1 2.802209 1_555
O21 Ti2 1.902284 1_555
O21 Ti3 2.037118 1_555
O21 Sr2 2.766461 1_455
O21 Sr0 2.770343 1_555
O22 Ti4 1.983165 1_565
O22 Ti5 1.984693 1_555
O22 Sr8 2.770783 1_555
O22 Sr7 2.801148 1_655
O22 Sr3 2.807750 1_555
O23 Ti8 1.960373 1_555
O23 Ti4 2.006800 1_465
O23 Sr7 2.776831 1_555
O23 Sr8 2.799037 1_455
O23 Sr3 2.809454 1_555
O24 Ti0 1.969398 1_555
O24 Sr1 2.778103 1_455
O24 Sr5 2.794062 1_555
O24 Sr4 2.812652 1_555
O25 Ti5 1.969196 1_555
O25 Sr7 2.767254 1_555
O25 Sr3 2.802573 1_555
O25 Sr5 2.817842 1_555
O26 Ti8 1.972213 1_545
O26 Sr8 2.780594 1_545
O26 Sr9 2.794986 1_555
O26 Sr3 2.822491 1_545
O27 Ti6 1.970701 1_565
O27 Sr5 2.780852 1_565
O27 Sr3 2.801325 1_555
O27 Sr4 2.811613 1_555
O28 Ti5 1.978120 1_555
O28 Sr7 2.777891 1_655
O28 Sr8 2.803521 1_555
O28 Sr3 2.812688 1_545
O29 Ti7 1.969709 1_555
O29 Sr6 2.768575 1_655
O29 Sr8 2.803062 1_555
O29 Sr9 2.809179 1_555
O30 Ti4 1.961631 1_555
O30 Ti6 2.000647 1_555
O30 Sr7 2.768070 1_655
O30 Sr3 2.800799 1_545
O30 Sr5 2.810492 1_655
O31 Ti4 1.982141 1_455
O31 Ti5 1.983072 1_555
O31 Sr5 2.797939 1_555
O31 Sr7 2.800351 1_555
O31 Sr3 2.807088 1_545
O32 Ti6 1.955209 1_555
O32 Ti1 2.022461 1_545
O32 Sr1 2.776151 1_555
O32 Sr5 2.786091 1_655
O32 Sr4 2.808870 1_545
O33 Ti3 1.952691 1_555
O33 Ti1 1.964267 1_455
O33 Sr1 2.771260 1_455
O33 Sr4 2.782909 1_555
O34 Ti11 1.979825 1_555
O34 Ti13 2.015701 1_565
O34 Sr13 2.786790 1_555
O34 Sr12 2.800074 1_555
O34 Sr11 2.802820 1_565
O35 Ti12 1.955706 1_555
O35 Ti7 2.006993 1_555
O35 Sr9 2.775986 1_555
O35 Sr10 2.800360 1_555
O35 Sr6 2.808934 1_655
O36 Ti7 1.982410 1_555
O36 Ti9 1.983855 1_555
O36 Sr10 2.776652 1_555
O36 Sr9 2.800954 1_555
O36 Sr6 2.807573 1_555
O37 Ti4 1.978872 1_555
O37 Sr3 2.779945 1_545
O37 Sr8 2.793491 1_545
O37 Sr7 2.820021 1_655
O38 Ti9 1.969455 1_655
O38 Sr9 2.766457 1_555
O38 Sr6 2.801609 1_655
O38 Sr8 2.813303 1_545
O39 Ti12 1.972469 1_455
O39 Sr10 2.781129 1_555
O39 Sr13 2.790236 1_555
O39 Sr6 2.821926 1_555
O40 Ti8 1.972466 1_555
O40 Sr8 2.780454 1_455
O40 Sr6 2.801799 1_555
O40 Sr7 2.815681 1_555
O41 Ti9 1.977092 1_555
O41 Sr9 2.777819 1_555
O41 Sr10 2.807081 1_555
O41 Sr6 2.813267 1_545
O42 Ti10 1.952234 1_555
O42 Sr11 2.771400 1_555
O42 Sr10 2.800794 1_555
O42 Sr13 2.800798 1_545
O43 Ti7 1.959628 1_555
O43 Ti8 2.008012 1_555
O43 Sr9 2.768171 1_565
O43 Sr6 2.800625 1_555
O43 Sr8 2.808483 1_555
O44 Ti7 1.983030 1_555
O44 Ti9 1.983739 1_665
O44 Sr8 2.789121 1_555
O44 Sr9 2.800594 1_565
O44 Sr6 2.807213 1_655
O45 Ti8 1.961025 1_555
O45 Ti5 2.010501 1_555
O45 Sr3 2.778496 1_555
O45 Sr8 2.789907 1_555
O45 Sr7 2.816417 1_555
O46 Ti5 1.961873 1_555
O46 Ti6 2.013135 1_555
O46 Sr3 2.770658 1_545
O46 Sr5 2.804118 1_555
O46 Sr7 2.808410 1_655
O47 Ti13 1.930328 1_555
O47 Ti10 2.017729 1_555
O47 Sr11 2.779539 1_555
O47 Sr12 2.785410 1_555
O47 Sr13 2.802117 1_545
O48 Ti10 1.950043 1_665
O48 Ti11 1.960718 1_555
O48 Sr13 2.788001 1_655
O48 Sr11 2.796510 1_565
O49 Ti7 1.979649 1_555
O49 Sr6 2.779186 1_555
O49 Sr10 2.795133 1_555
O49 Sr9 2.819911 1_565
O50 Ti11 1.979165 1_555
O50 Sr13 2.770293 1_555
O50 Sr11 2.793976 1_565
O50 Sr10 2.807534 1_555
O51 Ti13 1.980010 1_554
O51 Sr12 2.771394 1_554
O51 Sr11 2.820945 1_554
O51 Sr2 2.826454 1_555
O52 Ti12 1.973044 1_555
O52 Sr10 2.780452 1_555
O52 Sr11 2.796713 1_555
O52 Sr9 2.815308 1_555
O53 Ti11 1.973652 1_555
O53 Sr11 2.788067 1_555
O53 Sr12 2.796194 1_555
O53 Sr13 2.800320 1_655
O54 Ti10 2.008007 1_555
O54 Ti11 2.013990 1_555
O54 Sr12 2.771572 1_555
O54 Sr10 2.810470 1_555
O54 Sr13 2.813286 1_555
O54 Sr11 2.817994 1_555
O55 Ti10 1.942187 1_555
O55 Ti12 2.012817 1_455
O55 Sr13 2.773553 1_555
O55 Sr11 2.793966 1_455
O55 Sr10 2.806531 1_555
O56 Ti9 1.962143 1_565
O56 Ti8 2.009786 1_555
O56 Sr6 2.770027 1_555
O56 Sr8 2.799248 1_455
O56 Sr9 2.807585 1_565
O57 Ti12 1.966826 1_455
O57 Ti9 2.008610 1_555
O57 Sr6 2.778295 1_555
O57 Sr10 2.793885 1_555
O57 Sr9 2.816854 1_455
O58 Ti10 1.987184 1_555
O58 Sr12 2.779991 1_555
O58 Sr13 2.797691 1_555
O58 Sr11 2.805508 1_455
O59 Ti11 1.985054 1_555
O59 Ti12 1.999306 1_555
O59 Sr11 2.774423 1_555
O59 Sr10 2.794273 1_555
O59 Sr13 2.800392 1_655
