# generated using pymatgen
data_Li9Mn20O40
_symmetry_space_group_name_H-M   'P 1'
_cell_length_a   10.01319040
_cell_length_b   10.01319040
_cell_length_c   10.01319040
_cell_angle_alpha   99.60891048
_cell_angle_beta   99.60891048
_cell_angle_gamma   131.77105887
_symmetry_Int_Tables_number   1
_chemical_formula_structural   Li9Mn20O40
_chemical_formula_sum   'Li9 Mn20 O40'
_cell_volume   683.42354880
_cell_formula_units_Z   1
loop_
 _symmetry_equiv_pos_site_id
 _symmetry_equiv_pos_as_xyz
  1  'x, y, z'
loop_
 _atom_site_type_symbol
 _atom_site_label
 _atom_site_symmetry_multiplicity
 _atom_site_fract_x
 _atom_site_fract_y
 _atom_site_fract_z
 _atom_site_occupancy
  Li  Li0  1  0.40108600  0.79888200  0.19970700  1
  Li  Li1  1  0.79862100  0.59891400  0.39779600  1
  Li  Li2  1  0.20111800  0.40082500  0.60220400  1
  Li  Li3  1  0.95144100  0.65123600  0.09656200  1
  Li  Li4  1  0.59917500  0.20137900  0.80029300  1
  Li  Li5  1  0.34876400  0.44532600  0.30020400  1
  Li  Li6  1  0.75000000  0.25000000  0.50000000  1
  Li  Li7  1  0.14512100  0.04855900  0.69979600  1
  Li  Li8  1  0.55467400  0.85487900  0.90343800  1
  Mn  Mn0  1  0.47248700  0.32218200  0.04839000  1
  Mn  Mn1  1  0.67781800  0.72620800  0.15030500  1
  Mn  Mn2  1  0.87559500  0.12260700  0.24711400  1
  Mn  Mn3  1  0.67542800  0.22452500  0.14778900  1
  Mn  Mn4  1  0.97501800  0.32281200  0.04694600  1
  Mn  Mn5  1  0.07396400  0.52269800  0.34754100  1
  Mn  Mn6  1  0.27357700  0.92603600  0.44873400  1
  Mn  Mn7  1  0.07192800  0.02498200  0.34779400  1
  Mn  Mn8  1  0.37151900  0.12440500  0.24701200  1
  Mn  Mn9  1  0.47236100  0.32457200  0.54909700  1
  Mn  Mn10  1  0.67718800  0.72413400  0.65220600  1
  Mn  Mn11  1  0.77547500  0.92326400  0.45090300  1
  Mn  Mn12  1  0.47730200  0.82484300  0.55126600  1
  Mn  Mn13  1  0.87739300  0.12450700  0.75298800  1
  Mn  Mn14  1  0.07673600  0.52763900  0.85221100  1
  Mn  Mn15  1  0.17515700  0.72642300  0.65245900  1
  Mn  Mn16  1  0.87549300  0.62848100  0.75288600  1
  Mn  Mn17  1  0.27586600  0.92807200  0.95305400  1
  Mn  Mn18  1  0.27379200  0.42409700  0.95161000  1
  Mn  Mn19  1  0.57590300  0.52751300  0.84969500  1
  O  O0  1  0.42909900  0.99230600  0.14233300  1
  O  O1  1  0.25232500  0.08245000  0.05443400  1
  O  O2  1  0.60694300  0.35036700  0.23259600  1
  O  O3  1  0.43272000  0.47677200  0.13308500  1
  O  O4  1  0.82732500  0.79222400  0.34273900  1
  O  O5  1  0.64963300  0.88222900  0.25657700  1
  O  O6  1  0.91755000  0.97198400  0.16987600  1
  O  O7  1  0.00769400  0.15002700  0.43679300  1
  O  O8  1  0.74358700  0.09805200  0.06378700  1
  O  O9  1  0.83272400  0.27648800  0.33184500  1
  O  O10  1  0.10072900  0.36554000  0.24213300  1
  O  O11  1  0.92203500  0.45573900  0.15325700  1
  O  O12  1  0.22693700  0.59021200  0.54182300  1
  O  O13  1  0.04838900  0.68511400  0.45817700  1
  O  O14  1  0.31488600  0.77306300  0.36327500  1
  O  O15  1  0.40978800  0.95161100  0.63672500  1
  O  O16  1  0.14140400  0.89927100  0.26481200  1
  O  O17  1  0.23122200  0.07796500  0.53370400  1
  O  O18  1  0.49912100  0.16727600  0.44376400  1
  O  O19  1  0.32020100  0.25641300  0.35446500  1
  O  O20  1  0.62565200  0.39305700  0.74342300  1
  O  O21  1  0.44948500  0.48458600  0.65726100  1
  O  O22  1  0.71323400  0.57090100  0.56320700  1
  O  O23  1  0.80210800  0.74767500  0.83012400  1
  O  O24  1  0.54426100  0.69751800  0.46629600  1
  O  O25  1  0.63446000  0.87659200  0.73518800  1
  O  O26  1  0.90194800  0.96573600  0.64553500  1
  O  O27  1  0.72351200  0.05535700  0.55623600  1
  O  O28  1  0.02801600  0.19789200  0.94556600  1
  O  O29  1  0.11777100  0.37434800  0.76740400  1
  O  O30  1  0.84997300  0.28676600  0.85766700  1
  O  O31  1  0.20777600  0.55051500  0.03510100  1
  O  O32  1  0.94464300  0.50087900  0.66815500  1
  O  O33  1  0.03426400  0.67979900  0.93621300  1
  O  O34  1  0.30248200  0.76877800  0.84674300  1
  O  O35  1  0.12340800  0.85859600  0.75786700  1
  O  O36  1  0.51541400  0.17267500  0.96489900  1
  O  O37  1  0.34368700  0.29963500  0.86691500  1
  O  O38  1  0.70036500  0.56728000  0.04405200  1
  O  O39  1  0.52322800  0.65631300  0.95594800  1
loop_
_geom_bond_atom_site_label_1
_geom_bond_atom_site_label_2
_geom_bond_distance
_geom_bond_site_symmetry_2
Li0 O31 1.949668 1_555
Li0 O14 1.952015 1_555
Li0 O5 1.953357 1_555
Li0 O0 1.965030 1_555
Li1 O4 1.949668 1_555
Li1 O13 1.952015 1_655
Li1 O2 1.953357 1_555
Li1 O22 1.965030 1_555
Li2 O21 1.949668 1_555
Li2 O12 1.952015 1_555
Li2 O29 1.953357 1_555
Li2 O7 1.965030 1_555
Li3 O33 1.905091 1_654
Li3 O16 1.965704 1_655
Li3 O38 1.974597 1_555
Li3 O11 1.974802 1_555
Li4 O36 1.949668 1_555
Li4 O15 1.952015 1_545
Li4 O20 1.953367 1_555
Li4 O30 1.965030 1_555
Li5 O19 1.905105 1_555
Li5 O10 1.965699 1_555
Li5 O3 1.974587 1_555
Li5 O24 1.974806 1_555
Li6 O27 1.978271 1_555
Li6 O9 1.978271 1_555
Li6 O18 1.978271 1_555
Li6 O32 1.978271 1_555
Li7 O26 1.905100 1_445
Li7 O35 1.965699 1_545
Li7 O37 1.974592 1_555
Li7 O17 1.974811 1_555
Li8 O8 1.905096 1_566
Li8 O25 1.965708 1_555
Li8 O39 1.974597 1_555
Li8 O34 1.974802 1_555
Mn0 O1 1.915321 1_555
Mn0 O36 1.919446 1_554
Mn0 O37 1.925883 1_554
Mn0 O3 1.941542 1_555
Mn0 O2 1.945599 1_555
Mn0 O38 1.959424 1_555
Mn1 O6 1.915318 1_555
Mn1 O4 1.919446 1_555
Mn1 O38 1.925883 1_555
Mn1 O39 1.941542 1_554
Mn1 O5 1.945603 1_555
Mn1 O3 1.959424 1_555
Mn2 O6 1.900675 1_545
Mn2 O10 1.942597 1_655
Mn2 O8 1.945168 1_555
Mn2 O5 1.952879 1_545
Mn2 O9 1.960791 1_555
Mn2 O7 1.983851 1_655
Mn3 O11 1.938154 1_555
Mn3 O8 1.940260 1_555
Mn3 O0 1.940351 1_545
Mn3 O9 1.940879 1_555
Mn3 O2 1.941035 1_555
Mn3 O36 1.945553 1_554
Mn4 O28 1.875385 1_654
Mn4 O30 1.915050 1_554
Mn4 O31 1.935785 1_655
Mn4 O10 1.941493 1_655
Mn4 O8 1.942242 1_555
Mn4 O11 1.960254 1_555
Mn5 O9 1.935802 1_455
Mn5 O10 1.940118 1_555
Mn5 O11 1.940632 1_455
Mn5 O12 1.942758 1_555
Mn5 O14 1.952702 1_555
Mn5 O13 1.996452 1_555
Mn6 O18 1.935802 1_565
Mn6 O16 1.940110 1_555
Mn6 O17 1.940632 1_565
Mn6 O14 1.942758 1_555
Mn6 O13 1.952702 1_555
Mn6 O15 1.996452 1_555
Mn7 O6 1.875385 1_445
Mn7 O7 1.915050 1_555
Mn7 O4 1.935785 1_445
Mn7 O16 1.941490 1_545
Mn7 O19 1.942247 1_555
Mn7 O17 1.960254 1_555
Mn8 O1 1.900679 1_555
Mn8 O16 1.942602 1_545
Mn8 O19 1.945159 1_555
Mn8 O2 1.952875 1_555
Mn8 O18 1.960791 1_555
Mn8 O0 1.983851 1_545
Mn9 O17 1.938154 1_555
Mn9 O19 1.940256 1_555
Mn9 O22 1.940351 1_555
Mn9 O18 1.940879 1_555
Mn9 O20 1.941023 1_555
Mn9 O21 1.945553 1_555
Mn10 O23 1.875380 1_555
Mn10 O22 1.915050 1_555
Mn10 O21 1.935785 1_555
Mn10 O25 1.941481 1_555
Mn10 O26 1.942247 1_555
Mn10 O24 1.960254 1_555
Mn11 O24 1.938154 1_555
Mn11 O26 1.940256 1_555
Mn11 O7 1.940351 1_665
Mn11 O27 1.940879 1_565
Mn11 O5 1.941026 1_555
Mn11 O4 1.945553 1_555
Mn12 O27 1.935802 1_565
Mn12 O25 1.940115 1_555
Mn12 O24 1.940632 1_555
Mn12 O15 1.942758 1_555
Mn12 O12 1.952702 1_555
Mn12 O14 1.996452 1_555
Mn13 O28 1.900675 1_655
Mn13 O25 1.942598 1_545
Mn13 O26 1.945159 1_545
Mn13 O29 1.952879 1_655
Mn13 O27 1.960791 1_555
Mn13 O30 1.983851 1_555
Mn14 O34 1.938154 1_555
Mn14 O33 1.940259 1_555
Mn14 O30 1.940351 1_455
Mn14 O32 1.940879 1_455
Mn14 O29 1.941026 1_555
Mn14 O31 1.945553 1_556
Mn15 O32 1.935802 1_455
Mn15 O35 1.940110 1_555
Mn15 O34 1.940632 1_555
Mn15 O13 1.942758 1_555
Mn15 O15 1.952702 1_555
Mn15 O12 1.996452 1_555
Mn16 O23 1.900684 1_555
Mn16 O35 1.942602 1_655
Mn16 O33 1.945167 1_655
Mn16 O20 1.952876 1_555
Mn16 O32 1.960791 1_555
Mn16 O22 1.983851 1_555
Mn17 O1 1.875392 1_566
Mn17 O0 1.915050 1_556
Mn17 O36 1.935785 1_565
Mn17 O35 1.941490 1_555
Mn17 O33 1.942250 1_555
Mn17 O34 1.960254 1_555
Mn18 O28 1.915318 1_555
Mn18 O31 1.919446 1_556
Mn18 O3 1.925883 1_556
Mn18 O37 1.941542 1_555
Mn18 O29 1.945603 1_555
Mn18 O39 1.959424 1_555
Mn19 O23 1.915322 1_555
Mn19 O21 1.919446 1_555
Mn19 O39 1.925883 1_555
Mn19 O38 1.941542 1_556
Mn19 O20 1.945596 1_555
Mn19 O37 1.959424 1_555
