# generated using pymatgen
data_K7(Mo9S11)4
_symmetry_space_group_name_H-M   'P 1'
_cell_length_a   13.20244151
_cell_length_b   52.82759310
_cell_length_c   24.69678050
_cell_angle_alpha   20.77283740
_cell_angle_beta   36.86282791
_cell_angle_gamma   41.57717090
_symmetry_Int_Tables_number   1
_chemical_formula_structural   K7(Mo9S11)4
_chemical_formula_sum   'K14 Mo72 S88'
_cell_volume   3664.81454673
_cell_formula_units_Z   2
loop_
 _symmetry_equiv_pos_site_id
 _symmetry_equiv_pos_as_xyz
  1  'x, y, z'
loop_
 _atom_site_type_symbol
 _atom_site_label
 _atom_site_symmetry_multiplicity
 _atom_site_fract_x
 _atom_site_fract_y
 _atom_site_fract_z
 _atom_site_occupancy
  K  K0  1  0.05258125  -0.00000091  0.05263440  1
  K  K1  1  0.05262138  0.24998144  0.05264414  1
  K  K2  1  0.44921015  -0.00000486  0.44925153  1
  K  K3  1  0.44724363  0.25019802  0.44701106  1
  K  K4  1  0.55261765  0.25001167  0.55258136  1
  K  K5  1  0.94775285  0.00001340  0.94711809  1
  K  K6  1  0.05265059  0.75001204  0.05257461  1
  K  K7  1  0.44777939  0.49998525  0.44716185  1
  K  K8  1  0.55257684  0.49999725  0.55263350  1
  K  K9  1  0.94725483  0.24981622  0.94777434  1
  K  K10  1  0.44703460  0.74985216  0.44779853  1
  K  K11  1  0.55266459  0.74997037  0.55265607  1
  K  K12  1  0.94919982  0.50001502  0.94921445  1
  K  K13  1  0.94703554  0.75014654  0.94721134  1
  Mo  Mo0  1  0.02656700  0.04512236  0.17697395  1
  Mo  Mo1  1  0.35597684  0.03704430  0.02834562  1
  Mo  Mo2  1  0.25004782  0.08372329  0.08256081  1
  Mo  Mo3  1  0.14308405  0.03719422  0.32338991  1
  Mo  Mo4  1  0.47169141  0.04494485  0.14373083  1
  Mo  Mo5  1  0.02814357  0.29478160  0.17679005  1
  Mo  Mo6  1  0.17689607  0.16732356  0.35747488  1
  Mo  Mo7  1  0.35732548  0.28705418  0.02728688  1
  Mo  Mo8  1  0.08251871  0.20822919  0.41728131  1
  Mo  Mo9  1  0.25021357  0.33352385  0.08277963  1
  Mo  Mo10  1  0.41826699  0.20788085  0.25005059  1
  Mo  Mo11  1  0.14208415  0.28732171  0.32441240  1
  Mo  Mo12  1  0.32331893  0.16774985  0.47216856  1
  Mo  Mo13  1  0.47239122  0.29498831  0.14359834  1
  Mo  Mo14  1  0.67541515  0.08166930  0.52875920  1
  Mo  Mo15  1  0.58303344  0.04185548  0.74987925  1
  Mo  Mo16  1  0.91720030  0.04179324  0.58286946  1
  Mo  Mo17  1  0.02864192  0.54489859  0.17564684  1
  Mo  Mo18  1  0.17544042  0.41834712  0.35540678  1
  Mo  Mo19  1  0.35541014  0.53668708  0.02867484  1
  Mo  Mo20  1  0.82365760  0.08214943  0.64349458  1
  Mo  Mo21  1  0.08303608  0.45814266  0.41729208  1
  Mo  Mo22  1  0.25023541  0.58360807  0.08272221  1
  Mo  Mo23  1  0.41719355  0.45821328  0.25002963  1
  Mo  Mo24  1  0.14360414  0.53703064  0.32366881  1
  Mo  Mo25  1  0.32366635  0.41785862  0.47206583  1
  Mo  Mo26  1  0.47379655  0.54547525  0.14219399  1
  Mo  Mo27  1  0.52815014  0.20522577  0.85589732  1
  Mo  Mo28  1  0.67692564  0.33266850  0.52677334  1
  Mo  Mo29  1  0.85731070  0.21295551  0.67549717  1
  Mo  Mo30  1  0.58252118  0.29177710  0.75017295  1
  Mo  Mo31  1  0.75022054  0.16647878  0.91686166  1
  Mo  Mo32  1  0.91826471  0.29211702  0.58157741  1
  Mo  Mo33  1  0.02732640  0.79535837  0.17572239  1
  Mo  Mo34  1  0.17663028  0.66809782  0.35598398  1
  Mo  Mo35  1  0.64208051  0.21268500  0.97369235  1
  Mo  Mo36  1  0.35749909  0.78754109  0.02666175  1
  Mo  Mo37  1  0.82333778  0.33224657  0.64315670  1
  Mo  Mo38  1  0.97239253  0.20502566  0.82351377  1
  Mo  Mo39  1  0.08285631  0.70832489  0.41686868  1
  Mo  Mo40  1  0.24997500  0.83416629  0.08163407  1
  Mo  Mo41  1  0.41721378  0.70802218  0.25034957  1
  Mo  Mo42  1  0.14359278  0.78712787  0.32370161  1
  Mo  Mo43  1  0.32429940  0.66714921  0.47356893  1
  Mo  Mo44  1  0.47228881  0.79496192  0.14329825  1
  Mo  Mo45  1  0.52654556  0.45487550  0.85747536  1
  Mo  Mo46  1  0.67559910  0.58246752  0.52739894  1
  Mo  Mo47  1  0.85598868  0.46294964  0.67652105  1
  Mo  Mo48  1  0.58164235  0.54209457  0.74994585  1
  Mo  Mo49  1  0.75002334  0.41628017  0.91746371  1
  Mo  Mo50  1  0.91678597  0.54187501  0.58282282  1
  Mo  Mo51  1  0.17560701  0.91753551  0.35726248  1
  Mo  Mo52  1  0.64309655  0.46281133  0.97212994  1
  Mo  Mo53  1  0.82348828  0.58200517  0.64367034  1
  Mo  Mo54  1  0.97168332  0.45505475  0.82351174  1
  Mo  Mo55  1  0.08163815  0.95790257  0.41832062  1
  Mo  Mo56  1  0.41678588  0.95812931  0.25030803  1
  Mo  Mo57  1  0.32351819  0.91798873  0.47170107  1
  Mo  Mo58  1  0.52735289  0.70463611  0.85715067  1
  Mo  Mo59  1  0.67664349  0.83189526  0.52837811  1
  Mo  Mo60  1  0.85748429  0.71245803  0.67683883  1
  Mo  Mo61  1  0.58285175  0.79167465  0.75016395  1
  Mo  Mo62  1  0.74998273  0.66583534  0.91828845  1
  Mo  Mo63  1  0.91720681  0.79196798  0.58246081  1
  Mo  Mo64  1  0.64360006  0.71286729  0.97221872  1
  Mo  Mo65  1  0.82432194  0.83284662  0.64216132  1
  Mo  Mo66  1  0.97227499  0.70504149  0.82313521  1
  Mo  Mo67  1  0.52861421  0.95509297  0.85525582  1
  Mo  Mo68  1  0.85543831  0.96330470  0.67540174  1
  Mo  Mo69  1  0.75021037  0.91638916  0.91717505  1
  Mo  Mo70  1  0.64359826  0.96296859  0.97178675  1
  Mo  Mo71  1  0.97380140  0.95451502  0.82411877  1
  S  S0  1  0.13582945  0.00003684  0.13626538  1
  S  S1  1  0.28457482  0.15164830  0.01627089  1
  S  S2  1  0.36370647  0.00003190  0.36387580  1
  S  S3  1  0.44535820  0.17375420  0.05471823  1
  S  S4  1  0.13617843  0.24988781  0.13639297  1
  S  S5  1  0.12141240  0.06717071  0.51655174  1
  S  S6  1  0.78514774  0.09900303  0.12106623  1
  S  S7  1  0.48340251  0.16566816  0.21569368  1
  S  S8  1  0.24968301  0.09827205  0.55365370  1
  S  S9  1  0.01620360  0.16571298  0.62210711  1
  S  S10  1  0.28513987  0.40100097  0.01707264  1
  S  S11  1  0.94681895  0.07597429  0.24964211  1
  S  S12  1  0.62238153  0.18253757  0.28515009  1
  S  S13  1  0.37741714  0.06724378  0.71513265  1
  S  S14  1  0.36379314  0.25000793  0.36385327  1
  S  S15  1  0.05471593  0.17385145  0.74998510  1
  S  S16  1  0.44681499  0.42403051  0.05353041  1
  S  S17  1  0.98385742  0.08445758  0.37753649  1
  S  S18  1  0.13513319  0.50003073  0.13511204  1
  S  S19  1  0.12239353  0.31746515  0.51529025  1
  S  S20  1  0.75013153  0.15230485  0.44552596  1
  S  S21  1  0.51597475  0.08459108  0.78457456  1
  S  S22  1  0.21508527  0.15146833  0.87773385  1
  S  S23  1  0.78458920  0.34835974  0.12284250  1
  S  S24  1  0.48386549  0.41554146  0.21536224  1
  S  S25  1  0.25013010  0.34770190  0.55472961  1
  S  S26  1  0.87765660  0.18274834  0.48403516  1
  S  S27  1  0.86413177  -0.00004636  0.86384980  1
  S  S28  1  0.01597974  0.41541293  0.62293177  1
  S  S29  1  0.55479555  0.07607807  0.94547764  1
  S  S30  1  0.28487029  0.65140607  0.01656453  1
  S  S31  1  0.94537508  0.32625333  0.24971723  1
  S  S32  1  0.63618322  0.25011579  0.63593218  1
  S  S33  1  0.62141451  0.43283084  0.28523084  1
  S  S34  1  0.37765981  0.31726012  0.71500972  1
  S  S35  1  0.36414187  0.50004832  0.36365702  1
  S  S36  1  0.05477749  0.42392655  0.74978676  1
  S  S37  1  0.71543599  0.09844552  0.98369077  1
  S  S38  1  0.44542986  0.67378159  0.05471887  1
  S  S39  1  0.98340274  0.33433755  0.37834728  1
  S  S40  1  0.13635383  0.75010390  0.13588349  1
  S  S41  1  0.12293213  0.56721397  0.51584112  1
  S  S42  1  0.74969252  0.40173163  0.44673293  1
  S  S43  1  0.51620478  0.33429296  0.78494455  1
  S  S44  1  0.21542141  0.40155296  0.87748281  1
  S  S45  1  0.78505912  0.59837191  0.12229225  1
  S  S46  1  0.48390042  0.66565498  0.21507951  1
  S  S47  1  0.24977109  0.59760739  0.55483401  1
  S  S48  1  0.87740693  0.43276103  0.48409795  1
  S  S49  1  0.86379367  0.25000620  0.86385207  1
  S  S50  1  0.01680181  0.66599821  0.62114731  1
  S  S51  1  0.55472244  0.32615683  0.94537408  1
  S  S52  1  0.28504377  0.90162628  0.01578712  1
  S  S53  1  0.94577931  0.57611314  0.25008233  1
  S  S54  1  0.63582354  0.49995683  0.63642419  1
  S  S55  1  0.62212764  0.68272487  0.28512374  1
  S  S56  1  0.37834765  0.56703020  0.71548487  1
  S  S57  1  0.36397684  0.74998625  0.36379848  1
  S  S58  1  0.05349240  0.67428277  0.74975298  1
  S  S59  1  0.71509400  0.34853281  0.98359984  1
  S  S60  1  0.44576117  0.92388353  0.05454570  1
  S  S61  1  0.98401968  0.58451765  0.37733656  1
  S  S62  1  0.12213874  0.81726381  0.51604592  1
  S  S63  1  0.74998464  0.65236066  0.44532439  1
  S  S64  1  0.51547219  0.58439589  0.78495759  1
  S  S65  1  0.21524931  0.65150145  0.87759328  1
  S  S66  1  0.78488443  0.84859220  0.12218279  1
  S  S67  1  0.48401911  0.91547599  0.21541869  1
  S  S68  1  0.24998297  0.84763277  0.55477712  1
  S  S69  1  0.87736185  0.68277722  0.48419718  1
  S  S70  1  0.86369333  0.49997277  0.86399431  1
  S  S71  1  0.01547484  0.91560495  0.62253587  1
  S  S72  1  0.55445062  0.57618090  0.94558068  1
  S  S73  1  0.94544184  0.82621006  0.24986456  1
  S  S74  1  0.63636137  0.74988424  0.63631556  1
  S  S75  1  0.62292536  0.93278531  0.28469901  1
  S  S76  1  0.37736741  0.81721454  0.71532032  1
  S  S77  1  0.05443816  0.92381610  0.75031085  1
  S  S78  1  0.71577408  0.59884739  0.98304072  1
  S  S79  1  0.98390106  0.83433707  0.37771558  1
  S  S80  1  0.74977942  0.90238962  0.44526732  1
  S  S81  1  0.51679487  0.83399922  0.78514615  1
  S  S82  1  0.21576004  0.90114761  0.87844374  1
  S  S83  1  0.87834611  0.93297208  0.48360327  1
  S  S84  1  0.86398007  0.75000789  0.86375017  1
  S  S85  1  0.55350250  0.82571264  0.94689369  1
  S  S86  1  0.63512081  0.99996846  0.63523308  1
  S  S87  1  0.71526605  0.84849381  0.98360059  1
loop_
_geom_bond_atom_site_label_1
_geom_bond_atom_site_label_2
_geom_bond_distance
_geom_bond_site_symmetry_2
K0 S0 3.019492 1_555
K0 S37 3.270093 1_454
K0 S79 3.271618 1_445
K0 S13 3.272732 1_554
K0 S15 3.449510 1_554
K0 S80 3.450862 1_445
K0 S60 3.453314 1_545
K1 S4 3.019719 1_555
K1 S17 3.268930 1_455
K1 S59 3.273838 1_454
K1 S34 3.273977 1_554
K1 S3 3.450232 1_555
K1 S36 3.451043 1_554
K1 S20 3.452795 1_455
K2 S2 3.085103 1_555
K2 S81 3.258202 1_545
K2 S5 3.260007 1_555
K2 S6 3.260610 1_555
K2 S3 3.470441 1_555
K2 S80 3.472028 1_545
K2 S77 3.472836 1_545
K3 S14 3.017868 1_555
K3 S23 3.268936 1_555
K3 S19 3.270549 1_555
K3 S21 3.271578 1_555
K3 S16 3.449377 1_555
K3 S15 3.449674 1_555
K3 S20 3.452020 1_555
K4 S32 3.019761 1_555
K4 S24 3.269030 1_555
K4 S22 3.273742 1_555
K4 S26 3.273828 1_555
K4 S31 3.450494 1_555
K4 S29 3.450895 1_555
K4 S25 3.452944 1_555
K5 S27 3.016303 1_555
K5 S52 3.270126 1_646
K5 S9 3.272298 1_655
K5 S75 3.273946 1_546
K5 S73 3.447677 1_546
K5 S29 3.450503 1_555
K5 S8 3.451410 1_655
K6 S40 3.019817 1_555
K6 S61 3.268328 1_455
K6 S76 3.270348 1_554
K6 S87 3.272202 1_454
K6 S77 3.449787 1_554
K6 S38 3.450816 1_555
K6 S63 3.451625 1_455
K7 S35 3.016281 1_555
K7 S45 3.270034 1_555
K7 S43 3.272145 1_555
K7 S41 3.274127 1_555
K7 S38 3.447618 1_555
K7 S36 3.450754 1_555
K7 S42 3.451236 1_555
K8 S54 3.019555 1_555
K8 S44 3.270087 1_555
K8 S46 3.271514 1_555
K8 S48 3.272623 1_555
K8 S51 3.449382 1_555
K8 S47 3.450965 1_555
K8 S53 3.453487 1_555
K9 S49 3.018101 1_555
K9 S1 3.268847 1_656
K9 S12 3.270707 1_556
K9 S28 3.271362 1_655
K9 S11 3.449563 1_556
K9 S51 3.449690 1_555
K9 S25 3.451950 1_655
K10 S57 3.017812 1_555
K10 S64 3.266994 1_555
K10 S62 3.274712 1_555
K10 S66 3.278074 1_555
K10 S63 3.450278 1_555
K10 S58 3.450604 1_555
K10 S60 3.450767 1_555
K11 S74 3.019610 1_555
K11 S67 3.268599 1_555
K11 S69 3.270220 1_555
K11 S65 3.272248 1_555
K11 S72 3.449544 1_555
K11 S73 3.450861 1_555
K11 S68 3.451739 1_555
K12 S70 3.085195 1_555
K12 S50 3.258005 1_655
K12 S33 3.260002 1_556
K12 S10 3.260720 1_656
K12 S31 3.470421 1_556
K12 S47 3.471891 1_655
K12 S72 3.472572 1_555
K13 S84 3.017944 1_555
K13 S71 3.266988 1_655
K13 S55 3.274767 1_556
K13 S30 3.278013 1_656
K13 S68 3.450266 1_655
K13 S85 3.450527 1_555
K13 S53 3.450780 1_556
Mo0 S0 2.404420 1_555
Mo0 S83 2.451938 1_445
Mo0 S22 2.494135 1_554
Mo0 S6 2.507344 1_455
Mo0 S11 2.620029 1_455
Mo1 S0 2.394831 1_555
Mo1 S22 2.457321 1_554
Mo1 S67 2.493482 1_545
Mo1 S21 2.515348 1_554
Mo1 S29 2.634574 1_554
Mo2 S22 2.453825 1_554
Mo2 S1 2.455946 1_555
Mo2 S11 2.465998 1_455
Mo2 S29 2.478364 1_554
Mo3 S2 2.402556 1_555
Mo3 S1 2.458712 1_555
Mo3 S71 2.492462 1_545
Mo3 S17 2.516754 1_455
Mo3 S11 2.619283 1_455
Mo4 S2 2.399360 1_555
Mo4 S75 2.462373 1_545
Mo4 S1 2.492890 1_555
Mo4 S37 2.516189 1_554
Mo4 S29 2.631904 1_554
Mo5 S4 2.396043 1_555
Mo5 S26 2.458150 1_455
Mo5 S44 2.494294 1_554
Mo5 S23 2.512514 1_455
Mo5 S31 2.633290 1_455
Mo6 S4 2.404212 1_555
Mo6 S7 2.452268 1_555
Mo6 S26 2.495716 1_455
Mo6 S5 2.507577 1_555
Mo6 S8 2.619149 1_555
Mo7 S4 2.394730 1_555
Mo7 S44 2.464561 1_554
Mo7 S7 2.483881 1_555
Mo7 S43 2.502338 1_554
Mo7 S51 2.637258 1_554
Mo8 S26 2.450992 1_455
Mo8 S9 2.451349 1_555
Mo8 S8 2.466918 1_555
Mo8 S31 2.475608 1_455
Mo9 S10 2.448983 1_555
Mo9 S44 2.452849 1_554
Mo9 S51 2.475512 1_554
Mo9 S31 2.478581 1_455
Mo10 S7 2.435980 1_555
Mo10 S12 2.444531 1_555
Mo10 S8 2.468230 1_555
Mo10 S51 2.477269 1_554
Mo11 S14 2.396175 1_555
Mo11 S10 2.456757 1_555
Mo11 S9 2.487089 1_555
Mo11 S39 2.503713 1_455
Mo11 S31 2.637743 1_455
Mo12 S14 2.402927 1_555
Mo12 S9 2.458954 1_555
Mo12 S12 2.493812 1_555
Mo12 S13 2.512714 1_555
Mo12 S8 2.619555 1_555
Mo13 S14 2.395405 1_555
Mo13 S12 2.464752 1_555
Mo13 S10 2.482457 1_555
Mo13 S59 2.506264 1_554
Mo13 S51 2.635908 1_554
Mo14 S86 2.408240 1_545
Mo14 S17 2.466866 1_555
Mo14 S13 2.488966 1_555
Mo14 S12 2.507967 1_555
Mo14 S20 2.653572 1_555
Mo15 S21 2.455205 1_555
Mo15 S13 2.456135 1_555
Mo15 S20 2.474153 1_555
Mo15 S60 2.475616 1_546
Mo16 S5 2.446340 1_655
Mo16 S17 2.454304 1_555
Mo16 S77 2.475121 1_645
Mo16 S20 2.475730 1_555
Mo17 S18 2.407530 1_555
Mo17 S48 2.465907 1_455
Mo17 S65 2.487780 1_554
Mo17 S45 2.507323 1_455
Mo17 S53 2.654614 1_455
Mo18 S18 2.408161 1_555
Mo18 S24 2.466797 1_555
Mo18 S48 2.489075 1_455
Mo18 S19 2.508376 1_555
Mo18 S25 2.653280 1_555
Mo19 S18 2.406568 1_555
Mo19 S65 2.463912 1_554
Mo19 S24 2.487433 1_555
Mo19 S64 2.508806 1_554
Mo19 S72 2.652693 1_554
Mo20 S27 2.397767 1_555
Mo20 S21 2.463015 1_555
Mo20 S5 2.484502 1_655
Mo20 S26 2.509830 1_555
Mo20 S20 2.628610 1_555
Mo21 S28 2.455503 1_555
Mo21 S48 2.456043 1_455
Mo21 S25 2.473991 1_555
Mo21 S53 2.475589 1_455
Mo22 S30 2.453224 1_555
Mo22 S65 2.455606 1_554
Mo22 S72 2.473212 1_554
Mo22 S53 2.476612 1_455
Mo23 S33 2.446464 1_555
Mo23 S24 2.454380 1_555
Mo23 S72 2.474996 1_554
Mo23 S25 2.475686 1_555
Mo24 S35 2.398421 1_555
Mo24 S30 2.457671 1_555
Mo24 S28 2.493016 1_555
Mo24 S61 2.516053 1_455
Mo24 S53 2.626365 1_455
Mo25 S35 2.397822 1_555
Mo25 S28 2.463079 1_555
Mo25 S33 2.484385 1_555
Mo25 S34 2.509930 1_555
Mo25 S25 2.628547 1_555
Mo26 S35 2.398460 1_555
Mo26 S33 2.458470 1_555
Mo26 S30 2.489204 1_555
Mo26 S78 2.502934 1_554
Mo26 S72 2.631493 1_554
Mo27 S32 2.396041 1_555
Mo27 S34 2.458199 1_555
Mo27 S37 2.494483 1_555
Mo27 S1 2.512607 1_556
Mo27 S3 2.633271 1_556
Mo28 S32 2.404156 1_555
Mo28 S39 2.452070 1_555
Mo28 S34 2.495864 1_555
Mo28 S33 2.507775 1_555
Mo28 S42 2.619238 1_555
Mo29 S32 2.394739 1_555
Mo29 S37 2.464591 1_555
Mo29 S39 2.483847 1_555
Mo29 S9 2.502507 1_655
Mo29 S15 2.637146 1_655
Mo30 S34 2.450808 1_555
Mo30 S43 2.451559 1_555
Mo30 S42 2.466849 1_555
Mo30 S3 2.475657 1_556
Mo31 S6 2.449113 1_556
Mo31 S37 2.452778 1_555
Mo31 S15 2.475398 1_655
Mo31 S3 2.478775 1_556
Mo32 S39 2.436166 1_555
Mo32 S19 2.444656 1_655
Mo32 S42 2.468300 1_555
Mo32 S15 2.477096 1_655
Mo33 S40 2.395667 1_555
Mo33 S69 2.466604 1_455
Mo33 S82 2.484309 1_554
Mo33 S66 2.500759 1_455
Mo33 S73 2.637207 1_455
Mo34 S40 2.396026 1_555
Mo34 S46 2.459793 1_555
Mo34 S69 2.495435 1_455
Mo34 S41 2.514122 1_555
Mo34 S47 2.632043 1_555
Mo35 S49 2.396084 1_555
Mo35 S6 2.456874 1_556
Mo35 S43 2.487074 1_555
Mo35 S7 2.503754 1_556
Mo35 S3 2.637965 1_556
Mo36 S40 2.402688 1_555
Mo36 S82 2.448836 1_554
Mo36 S46 2.493673 1_555
Mo36 S81 2.509734 1_554
Mo36 S85 2.620053 1_554
Mo37 S49 2.402819 1_555
Mo37 S43 2.459126 1_555
Mo37 S19 2.493673 1_655
Mo37 S48 2.512868 1_555
Mo37 S42 2.619388 1_555
Mo38 S49 2.395511 1_555
Mo38 S19 2.464552 1_655
Mo38 S6 2.482570 1_556
Mo38 S22 2.506449 1_655
Mo38 S15 2.635756 1_655
Mo39 S50 2.448467 1_555
Mo39 S69 2.451512 1_455
Mo39 S73 2.474631 1_455
Mo39 S47 2.477875 1_555
Mo40 S82 2.436781 1_554
Mo40 S52 2.446570 1_555
Mo40 S85 2.468773 1_554
Mo40 S73 2.477248 1_455
Mo41 S55 2.450494 1_555
Mo41 S46 2.452260 1_555
Mo41 S85 2.466935 1_554
Mo41 S47 2.475229 1_555
Mo42 S57 2.394175 1_555
Mo42 S52 2.462532 1_555
Mo42 S50 2.481840 1_555
Mo42 S79 2.509670 1_455
Mo42 S73 2.635169 1_455
Mo43 S57 2.397215 1_555
Mo43 S50 2.459113 1_555
Mo43 S55 2.488978 1_555
Mo43 S56 2.502545 1_555
Mo43 S47 2.636856 1_555
Mo44 S57 2.402620 1_555
Mo44 S55 2.457772 1_555
Mo44 S52 2.492645 1_555
Mo44 S87 2.512716 1_554
Mo44 S85 2.620204 1_554
Mo45 S54 2.404486 1_555
Mo45 S56 2.451935 1_555
Mo45 S59 2.494248 1_555
Mo45 S10 2.507193 1_556
Mo45 S16 2.619981 1_556
Mo46 S54 2.395861 1_555
Mo46 S61 2.467558 1_555
Mo46 S56 2.485554 1_555
Mo46 S55 2.501123 1_555
Mo46 S63 2.636384 1_555
Mo47 S54 2.394866 1_555
Mo47 S59 2.457236 1_555
Mo47 S61 2.493422 1_555
Mo47 S28 2.515024 1_655
Mo47 S36 2.634523 1_655
Mo48 S56 2.435651 1_555
Mo48 S64 2.447131 1_555
Mo48 S16 2.468180 1_556
Mo48 S63 2.476877 1_555
Mo49 S59 2.453963 1_555
Mo49 S23 2.455831 1_556
Mo49 S16 2.465804 1_556
Mo49 S36 2.478456 1_655
Mo50 S61 2.454023 1_555
Mo50 S41 2.457891 1_655
Mo50 S63 2.473914 1_555
Mo50 S36 2.477506 1_655
Mo51 S0 2.395748 1_565
Mo51 S67 2.467510 1_555
Mo51 S83 2.485617 1_455
Mo51 S62 2.501275 1_555
Mo51 S68 2.636333 1_555
Mo52 S70 2.402622 1_555
Mo52 S23 2.458599 1_556
Mo52 S64 2.492453 1_555
Mo52 S24 2.517152 1_556
Mo52 S16 2.618990 1_556
Mo53 S70 2.398886 1_555
Mo53 S64 2.465477 1_555
Mo53 S41 2.495292 1_655
Mo53 S69 2.516494 1_555
Mo53 S63 2.629777 1_555
Mo54 S70 2.399350 1_555
Mo54 S41 2.462388 1_655
Mo54 S23 2.492643 1_556
Mo54 S44 2.516218 1_655
Mo54 S36 2.631835 1_655
Mo55 S83 2.435386 1_455
Mo55 S71 2.447296 1_555
Mo55 S11 2.468324 1_465
Mo55 S68 2.476940 1_555
Mo56 S67 2.453975 1_555
Mo56 S75 2.457952 1_555
Mo56 S68 2.474082 1_555
Mo56 S29 2.477541 1_564
Mo57 S2 2.398885 1_565
Mo57 S71 2.465641 1_555
Mo57 S75 2.495117 1_555
Mo57 S76 2.516342 1_555
Mo57 S68 2.630120 1_555
Mo58 S74 2.395554 1_555
Mo58 S76 2.466678 1_555
Mo58 S78 2.484252 1_555
Mo58 S30 2.500858 1_556
Mo58 S38 2.637229 1_556
Mo59 S74 2.396053 1_555
Mo59 S79 2.459673 1_555
Mo59 S76 2.495532 1_555
Mo59 S75 2.514205 1_555
Mo59 S80 2.632195 1_555
Mo60 S74 2.402644 1_555
Mo60 S78 2.448776 1_555
Mo60 S79 2.493587 1_555
Mo60 S50 2.509882 1_655
Mo60 S58 2.619930 1_655
Mo61 S81 2.448569 1_555
Mo61 S76 2.451308 1_555
Mo61 S38 2.474773 1_556
Mo61 S80 2.477848 1_555
Mo62 S78 2.436686 1_555
Mo62 S45 2.446773 1_556
Mo62 S58 2.468629 1_655
Mo62 S38 2.477371 1_556
Mo63 S62 2.450664 1_655
Mo63 S79 2.452272 1_555
Mo63 S58 2.466862 1_655
Mo63 S80 2.475292 1_555
Mo64 S84 2.394092 1_555
Mo64 S45 2.462507 1_556
Mo64 S81 2.481939 1_555
Mo64 S46 2.509729 1_556
Mo64 S38 2.635393 1_556
Mo65 S84 2.397220 1_555
Mo65 S81 2.459349 1_555
Mo65 S62 2.488854 1_655
Mo65 S83 2.502661 1_555
Mo65 S80 2.636814 1_555
Mo66 S84 2.402641 1_555
Mo66 S62 2.457550 1_655
Mo66 S45 2.492585 1_556
Mo66 S65 2.512909 1_655
Mo66 S58 2.620124 1_655
Mo67 S86 2.407510 1_555
Mo67 S13 2.466076 1_565
Mo67 S87 2.487936 1_555
Mo67 S52 2.507043 1_556
Mo67 S60 2.654821 1_556
Mo68 S86 2.406589 1_555
Mo68 S87 2.463999 1_555
Mo68 S17 2.487419 1_565
Mo68 S71 2.508191 1_655
Mo68 S77 2.652879 1_655
Mo69 S66 2.453099 1_556
Mo69 S87 2.455684 1_555
Mo69 S77 2.473356 1_655
Mo69 S60 2.476517 1_556
Mo70 S27 2.398519 1_565
Mo70 S66 2.457749 1_556
Mo70 S21 2.493112 1_565
Mo70 S67 2.516209 1_556
Mo70 S60 2.626330 1_556
Mo71 S27 2.398424 1_565
Mo71 S5 2.458643 1_665
Mo71 S66 2.489008 1_556
Mo71 S82 2.502690 1_655
Mo71 S77 2.631690 1_655
