# generated using pymatgen
data_In4SnSe4
_symmetry_space_group_name_H-M   'P 1'
_cell_length_a   13.01279700
_cell_length_b   13.01279700
_cell_length_c   13.01279700
_cell_angle_alpha   90.00000000
_cell_angle_beta   90.00000000
_cell_angle_gamma   90.00000000
_symmetry_Int_Tables_number   1
_chemical_formula_structural   In4SnSe4
_chemical_formula_sum   'In32 Sn8 Se32'
_cell_volume   2203.49446786
_cell_formula_units_Z   8
loop_
 _symmetry_equiv_pos_site_id
 _symmetry_equiv_pos_as_xyz
  1  'x, y, z'
loop_
 _atom_site_type_symbol
 _atom_site_label
 _atom_site_symmetry_multiplicity
 _atom_site_fract_x
 _atom_site_fract_y
 _atom_site_fract_z
 _atom_site_occupancy
  In  In0  1  0.22683500  0.53187200  0.06821000  1
  In  In1  1  0.43179000  0.77316500  0.03187200  1
  In  In2  1  0.77316500  0.46812800  0.93179000  1
  In  In3  1  0.93179000  0.72683500  0.96812800  1
  In  In4  1  0.77368400  0.22631600  0.72631600  1
  In  In5  1  0.72631600  0.77368400  0.22631600  1
  In  In6  1  0.72683500  0.53187200  0.43179000  1
  In  In7  1  0.03187200  0.43179000  0.77316500  1
  In  In8  1  0.56821000  0.27316500  0.46812800  1
  In  In9  1  0.46812800  0.93179000  0.77316500  1
  In  In10  1  0.27368400  0.27368400  0.27368400  1
  In  In11  1  0.06821000  0.27316500  0.03187200  1
  In  In12  1  0.06821000  0.22683500  0.53187200  1
  In  In13  1  0.27368400  0.22631600  0.77368400  1
  In  In14  1  0.27316500  0.03187200  0.06821000  1
  In  In15  1  0.27316500  0.46812800  0.56821000  1
  In  In16  1  0.46812800  0.56821000  0.27316500  1
  In  In17  1  0.72683500  0.96812800  0.93179000  1
  In  In18  1  0.22683500  0.96812800  0.56821000  1
  In  In19  1  0.22631600  0.72631600  0.77368400  1
  In  In20  1  0.77316500  0.03187200  0.43179000  1
  In  In21  1  0.22631600  0.77368400  0.27368400  1
  In  In22  1  0.77368400  0.27368400  0.22631600  1
  In  In23  1  0.72631600  0.72631600  0.72631600  1
  In  In24  1  0.56821000  0.22683500  0.96812800  1
  In  In25  1  0.93179000  0.77316500  0.46812800  1
  In  In26  1  0.96812800  0.93179000  0.72683500  1
  In  In27  1  0.53187200  0.43179000  0.72683500  1
  In  In28  1  0.03187200  0.06821000  0.27316500  1
  In  In29  1  0.96812800  0.56821000  0.22683500  1
  In  In30  1  0.53187200  0.06821000  0.22683500  1
  In  In31  1  0.43179000  0.72683500  0.53187200  1
  Sn  Sn0  1  0.59889300  0.90110700  0.09889300  1
  Sn  Sn1  1  0.90110700  0.40110700  0.09889300  1
  Sn  Sn2  1  0.09889300  0.59889300  0.90110700  1
  Sn  Sn3  1  0.40110700  0.40110700  0.40110700  1
  Sn  Sn4  1  0.09889300  0.90110700  0.40110700  1
  Sn  Sn5  1  0.90110700  0.09889300  0.59889300  1
  Sn  Sn6  1  0.40110700  0.09889300  0.90110700  1
  Sn  Sn7  1  0.59889300  0.59889300  0.59889300  1
  Se  Se0  1  0.76337200  0.17386600  0.92834100  1
  Se  Se1  1  0.17386600  0.92834100  0.76337200  1
  Se  Se2  1  0.23662800  0.82613400  0.07165900  1
  Se  Se3  1  0.26337200  0.17386600  0.57165900  1
  Se  Se4  1  0.57396400  0.42603600  0.92603600  1
  Se  Se5  1  0.42834100  0.76337200  0.32613400  1
  Se  Se6  1  0.76337200  0.32613400  0.42834100  1
  Se  Se7  1  0.57165900  0.23662800  0.67386600  1
  Se  Se8  1  0.73662800  0.67386600  0.92834100  1
  Se  Se9  1  0.92834100  0.76337200  0.17386600  1
  Se  Se10  1  0.67386600  0.57165900  0.23662800  1
  Se  Se11  1  0.07165900  0.23662800  0.82613400  1
  Se  Se12  1  0.42603600  0.57396400  0.07396400  1
  Se  Se13  1  0.57396400  0.07396400  0.42603600  1
  Se  Se14  1  0.57165900  0.26337200  0.17386600  1
  Se  Se15  1  0.32613400  0.07165900  0.26337200  1
  Se  Se16  1  0.67386600  0.92834100  0.73662800  1
  Se  Se17  1  0.17386600  0.57165900  0.26337200  1
  Se  Se18  1  0.07396400  0.42603600  0.57396400  1
  Se  Se19  1  0.26337200  0.32613400  0.07165900  1
  Se  Se20  1  0.07165900  0.26337200  0.32613400  1
  Se  Se21  1  0.42834100  0.73662800  0.82613400  1
  Se  Se22  1  0.92603600  0.57396400  0.42603600  1
  Se  Se23  1  0.82613400  0.42834100  0.73662800  1
  Se  Se24  1  0.07396400  0.07396400  0.07396400  1
  Se  Se25  1  0.92834100  0.73662800  0.67386600  1
  Se  Se26  1  0.23662800  0.67386600  0.57165900  1
  Se  Se27  1  0.82613400  0.07165900  0.23662800  1
  Se  Se28  1  0.42603600  0.92603600  0.57396400  1
  Se  Se29  1  0.92603600  0.92603600  0.92603600  1
  Se  Se30  1  0.32613400  0.42834100  0.76337200  1
  Se  Se31  1  0.73662800  0.82613400  0.42834100  1
loop_
_geom_bond_atom_site_label_1
_geom_bond_atom_site_label_2
_geom_bond_distance
_geom_bond_site_symmetry_2
In0 Se12 2.650457 1_555
In0 Se17 2.681929 1_555
In0 Se19 2.719487 1_555
In0 Sn2 2.874161 1_554
In1 Se12 2.650457 1_555
In1 Se2 2.681929 1_555
In1 Se21 2.719487 1_554
In1 Sn0 2.874161 1_555
In2 Se4 2.650457 1_555
In2 Se23 2.681929 1_555
In2 Se8 2.719487 1_555
In2 Sn1 2.874161 1_556
In3 Se29 2.650457 1_555
In3 Se8 2.681929 1_555
In3 Se9 2.719487 1_556
In3 Sn2 2.874161 1_655
In4 Se7 2.719377 1_555
In4 Se23 2.719377 1_555
In4 Se0 2.719377 1_555
In4 Sn5 2.871965 1_555
In5 Se10 2.719377 1_555
In5 Se31 2.719377 1_555
In5 Se9 2.719377 1_555
In5 Sn0 2.871965 1_555
In6 Se22 2.650457 1_555
In6 Se10 2.681929 1_555
In6 Se6 2.719487 1_555
In6 Sn7 2.874161 1_555
In7 Se18 2.650457 1_555
In7 Se11 2.681929 1_555
In7 Se23 2.719487 1_455
In7 Sn2 2.874161 1_555
In8 Se13 2.650457 1_555
In8 Se6 2.681929 1_555
In8 Se7 2.719487 1_555
In8 Sn3 2.874161 1_555
In9 Se28 2.650457 1_555
In9 Se21 2.681929 1_555
In9 Se16 2.719487 1_555
In9 Sn6 2.874161 1_565
In10 Se19 2.719377 1_555
In10 Se20 2.719377 1_555
In10 Se15 2.719377 1_555
In10 Sn3 2.871965 1_555
In11 Se24 2.650457 1_555
In11 Se19 2.681929 1_555
In11 Se11 2.719487 1_554
In11 Sn1 2.874161 1_455
In12 Se18 2.650457 1_555
In12 Se3 2.681929 1_555
In12 Se20 2.719487 1_555
In12 Sn5 2.874161 1_455
In13 Se3 2.719377 1_555
In13 Se30 2.719377 1_555
In13 Se11 2.719377 1_555
In13 Sn6 2.871965 1_555
In14 Se24 2.650457 1_555
In14 Se15 2.681929 1_555
In14 Se2 2.719487 1_545
In14 Sn6 2.874161 1_554
In15 Se18 2.650457 1_555
In15 Se30 2.681929 1_555
In15 Se26 2.719487 1_555
In15 Sn3 2.874161 1_555
In16 Se12 2.650457 1_555
In16 Se5 2.681929 1_555
In16 Se10 2.719487 1_555
In16 Sn3 2.874161 1_555
In17 Se29 2.650457 1_555
In17 Se16 2.681929 1_555
In17 Se0 2.719487 1_565
In17 Sn0 2.874161 1_556
In18 Se28 2.650457 1_555
In18 Se1 2.681929 1_555
In18 Se3 2.719487 1_565
In18 Sn4 2.874161 1_555
In19 Se26 2.719377 1_555
In19 Se21 2.719377 1_555
In19 Se1 2.719377 1_555
In19 Sn2 2.871965 1_555
In20 Se13 2.650457 1_555
In20 Se27 2.681929 1_555
In20 Se31 2.719487 1_545
In20 Sn5 2.874161 1_555
In21 Se17 2.719377 1_555
In21 Se5 2.719377 1_555
In21 Se2 2.719377 1_555
In21 Sn4 2.871965 1_555
In22 Se14 2.719377 1_555
In22 Se6 2.719377 1_555
In22 Se27 2.719377 1_555
In22 Sn1 2.871965 1_555
In23 Se25 2.719377 1_555
In23 Se8 2.719377 1_555
In23 Se16 2.719377 1_555
In23 Sn7 2.871965 1_555
In24 Se4 2.650457 1_555
In24 Se0 2.681929 1_555
In24 Se14 2.719487 1_556
In24 Sn6 2.874161 1_555
In25 Se22 2.650457 1_555
In25 Se31 2.681929 1_555
In25 Se25 2.719487 1_555
In25 Sn4 2.874161 1_655
In26 Se29 2.650457 1_555
In26 Se25 2.681929 1_555
In26 Se1 2.719487 1_655
In26 Sn5 2.874161 1_565
In27 Se4 2.650457 1_555
In27 Se7 2.681929 1_555
In27 Se30 2.719487 1_555
In27 Sn7 2.874161 1_555
In28 Se24 2.650457 1_555
In28 Se20 2.681929 1_555
In28 Se27 2.719487 1_455
In28 Sn4 2.874161 1_545
In29 Se22 2.650457 1_555
In29 Se9 2.681929 1_555
In29 Se17 2.719487 1_655
In29 Sn1 2.874161 1_555
In30 Se13 2.650457 1_555
In30 Se14 2.681929 1_555
In30 Se15 2.719487 1_555
In30 Sn0 2.874161 1_545
In31 Se28 2.650457 1_555
In31 Se26 2.681929 1_555
In31 Se5 2.719487 1_555
In31 Sn7 2.874161 1_555
