# generated using pymatgen
data_Mo2H2O7
_symmetry_space_group_name_H-M   'P 1'
_cell_length_a   3.78006100
_cell_length_b   7.51951800
_cell_length_c   9.63562576
_cell_angle_alpha   74.83335617
_cell_angle_beta   90.00000000
_cell_angle_gamma   90.00000000
_symmetry_Int_Tables_number   1
_chemical_formula_structural   Mo2H2O7
_chemical_formula_sum   'Mo4 H4 O14'
_cell_volume   264.34560056
_cell_formula_units_Z   2
loop_
 _symmetry_equiv_pos_site_id
 _symmetry_equiv_pos_as_xyz
  1  'x, y, z'
loop_
 _atom_site_type_symbol
 _atom_site_label
 _atom_site_symmetry_multiplicity
 _atom_site_fract_x
 _atom_site_fract_y
 _atom_site_fract_z
 _atom_site_occupancy
  Mo  Mo0  1  0.25000000  0.81657900  0.97282900  1
  Mo  Mo1  1  0.75000000  0.18342100  0.02717100  1
  Mo  Mo2  1  0.75000000  0.83994900  0.44137600  1
  Mo  Mo3  1  0.25000000  0.16005100  0.55862400  1
  H  H0  1  0.75000000  0.66874900  0.74201700  1
  H  H1  1  0.25000000  0.33125100  0.25798300  1
  H  H2  1  0.75000000  0.61397800  0.29173300  1
  H  H3  1  0.25000000  0.38602200  0.70826700  1
  O  O0  1  0.75000000  0.70613600  0.63707900  1
  O  O1  1  0.25000000  0.29386400  0.36292100  1
  O  O2  1  0.25000000  0.64949200  0.87923100  1
  O  O3  1  0.75000000  0.35050800  0.12076900  1
  O  O4  1  0.75000000  0.90032100  0.96355800  1
  O  O5  1  0.25000000  0.09967900  0.03644200  1
  O  O6  1  0.25000000  0.68443500  0.14937200  1
  O  O7  1  0.75000000  0.31556500  0.85062800  1
  O  O8  1  0.25000000  0.90343200  0.46684400  1
  O  O9  1  0.75000000  0.09656800  0.53315600  1
  O  O10  1  0.25000000  0.02718100  0.74112000  1
  O  O11  1  0.75000000  0.97281900  0.25888000  1
  O  O12  1  0.75000000  0.61533100  0.39367100  1
  O  O13  1  0.25000000  0.38466900  0.60632900  1
loop_
_geom_bond_atom_site_label_1
_geom_bond_atom_site_label_2
_geom_bond_distance
_geom_bond_site_symmetry_2
Mo0 O2 1.727677 1_555
Mo0 O6 1.731081 1_556
Mo0 O4 1.986777 1_455
Mo0 O4 1.986777 1_555
Mo0 O5 2.364351 1_566
Mo0 O10 2.375410 1_565
Mo1 O3 1.727677 1_555
Mo1 O7 1.731081 1_554
Mo1 O5 1.986777 1_555
Mo1 O5 1.986777 1_655
Mo1 O4 2.364351 1_544
Mo1 O11 2.375410 1_545
Mo2 O11 1.780763 1_555
Mo2 O12 1.862882 1_555
Mo2 O0 1.890915 1_555
Mo2 O8 1.980305 1_655
Mo2 O8 1.980305 1_555
Mo2 O9 2.323484 1_565
Mo3 O10 1.780763 1_555
Mo3 O13 1.862882 1_555
Mo3 O1 1.890915 1_555
Mo3 O9 1.980305 1_555
Mo3 O9 1.980305 1_455
Mo3 O8 2.323484 1_545
H0 O0 0.976065 1_555
H1 O1 0.976065 1_555
H2 O12 0.984947 1_555
H3 O13 0.984947 1_555
