# generated using pymatgen
data_In4Au9
_symmetry_space_group_name_H-M   'P 1'
_cell_length_a   10.07753700
_cell_length_b   10.07753700
_cell_length_c   10.07753700
_cell_angle_alpha   90.00000000
_cell_angle_beta   90.00000000
_cell_angle_gamma   90.00000000
_symmetry_Int_Tables_number   1
_chemical_formula_structural   In4Au9
_chemical_formula_sum   'In16 Au36'
_cell_volume   1023.44192574
_cell_formula_units_Z   4
loop_
 _symmetry_equiv_pos_site_id
 _symmetry_equiv_pos_as_xyz
  1  'x, y, z'
loop_
 _atom_site_type_symbol
 _atom_site_label
 _atom_site_symmetry_multiplicity
 _atom_site_fract_x
 _atom_site_fract_y
 _atom_site_fract_z
 _atom_site_occupancy
  In  In0  1  0.87656700  0.87656700  0.12343300  1
  In  In1  1  0.46201400  0.80869300  0.19130700  1
  In  In2  1  0.80869300  0.46201400  0.19130700  1
  In  In3  1  0.80869300  0.80869300  0.53798600  1
  In  In4  1  0.87656700  0.12343300  0.87656700  1
  In  In5  1  0.19130700  0.19130700  0.53798600  1
  In  In6  1  0.19130700  0.53798600  0.19130700  1
  In  In7  1  0.12343300  0.12343300  0.12343300  1
  In  In8  1  0.53798600  0.80869300  0.80869300  1
  In  In9  1  0.46201400  0.19130700  0.80869300  1
  In  In10  1  0.80869300  0.19130700  0.46201400  1
  In  In11  1  0.53798600  0.19130700  0.19130700  1
  In  In12  1  0.80869300  0.53798600  0.80869300  1
  In  In13  1  0.19130700  0.46201400  0.80869300  1
  In  In14  1  0.12343300  0.87656700  0.87656700  1
  In  In15  1  0.19130700  0.80869300  0.46201400  1
  Au  Au0  1  0.03373000  0.68532600  0.68532600  1
  Au  Au1  1  0.03373000  0.31467400  0.31467400  1
  Au  Au2  1  0.00000000  0.36107200  0.00000000  1
  Au  Au3  1  0.50000000  0.86083600  0.50000000  1
  Au  Au4  1  0.31467400  0.68532600  0.96627000  1
  Au  Au5  1  0.68532600  0.03373000  0.68532600  1
  Au  Au6  1  0.31467400  0.31467400  0.03373000  1
  Au  Au7  1  0.68532600  0.68532600  0.03373000  1
  Au  Au8  1  0.68532600  0.31467400  0.96627000  1
  Au  Au9  1  0.83288300  0.83288300  0.83288300  1
  Au  Au10  1  0.31467400  0.96627000  0.68532600  1
  Au  Au11  1  0.83288300  0.16711700  0.16711700  1
  Au  Au12  1  0.60848100  0.60848100  0.60848100  1
  Au  Au13  1  0.67549800  0.32450200  0.67549800  1
  Au  Au14  1  0.50000000  0.50000000  0.86083600  1
  Au  Au15  1  0.96627000  0.31467400  0.68532600  1
  Au  Au16  1  0.68532600  0.96627000  0.31467400  1
  Au  Au17  1  0.32450200  0.32450200  0.32450200  1
  Au  Au18  1  0.39151900  0.39151900  0.60848100  1
  Au  Au19  1  0.50000000  0.13916400  0.50000000  1
  Au  Au20  1  0.86083600  0.50000000  0.50000000  1
  Au  Au21  1  0.32450200  0.67549800  0.67549800  1
  Au  Au22  1  0.00000000  0.00000000  0.63892800  1
  Au  Au23  1  0.96627000  0.68532600  0.31467400  1
  Au  Au24  1  0.00000000  0.00000000  0.36107200  1
  Au  Au25  1  0.16711700  0.16711700  0.83288300  1
  Au  Au26  1  0.36107200  0.00000000  0.00000000  1
  Au  Au27  1  0.00000000  0.63892800  0.00000000  1
  Au  Au28  1  0.50000000  0.50000000  0.13916400  1
  Au  Au29  1  0.67549800  0.67549800  0.32450200  1
  Au  Au30  1  0.16711700  0.83288300  0.16711700  1
  Au  Au31  1  0.39151900  0.60848100  0.39151900  1
  Au  Au32  1  0.60848100  0.39151900  0.39151900  1
  Au  Au33  1  0.63892800  0.00000000  0.00000000  1
  Au  Au34  1  0.31467400  0.03373000  0.31467400  1
  Au  Au35  1  0.13916400  0.50000000  0.50000000  1
loop_
_geom_bond_atom_site_label_1
_geom_bond_atom_site_label_2
_geom_bond_distance
_geom_bond_site_symmetry_2
Au0 Au35 2.846932 1_555
Au0 In14 2.871530 1_555
Au0 In12 2.982170 1_455
Au0 In3 2.982170 1_455
Au0 In15 3.021886 1_555
Au0 In13 3.021886 1_555
Au0 Au20 3.164151 1_455
Au0 Au22 3.223398 1_565
Au0 Au27 3.223398 1_556
Au1 Au35 2.846932 1_555
Au1 In7 2.871530 1_555
Au1 In10 2.982170 1_455
Au1 In2 2.982170 1_455
Au1 In6 3.021886 1_555
Au1 In5 3.021886 1_555
Au1 Au20 3.164151 1_455
Au1 Au24 3.223398 1_555
Au1 Au2 3.223398 1_555
Au2 Au27 2.800104 1_555
Au2 In2 2.910054 1_455
Au2 In13 2.910054 1_554
Au2 In4 2.971485 1_454
Au2 In7 2.971485 1_555
Au2 Au25 3.081070 1_554
Au2 Au6 3.223398 1_555
Au2 Au8 3.223398 1_454
Au2 In6 3.257638 1_555
Au2 In12 3.257638 1_454
Au3 Au31 2.976190 1_555
Au3 Au5 3.164151 1_565
Au3 Au34 3.164151 1_565
Au3 In3 3.178072 1_555
Au3 In15 3.178072 1_555
Au3 In8 3.178072 1_555
Au3 In1 3.178072 1_555
Au4 In14 2.871530 1_555
Au4 In1 2.982170 1_556
Au4 In6 2.982170 1_556
Au4 In13 3.021886 1_555
Au4 In8 3.021886 1_555
Au5 In4 2.871530 1_555
Au5 In8 2.982170 1_545
Au5 In3 2.982170 1_545
Au5 In9 3.021886 1_555
Au5 In10 3.021886 1_555
Au6 In7 2.871530 1_555
Au6 In9 2.982170 1_554
Au6 In13 2.982170 1_554
Au6 In6 3.021886 1_555
Au6 In11 3.021886 1_555
Au7 In0 2.871530 1_555
Au7 In12 2.982170 1_554
Au7 In8 2.982170 1_554
Au7 In2 3.021886 1_555
Au7 In1 3.021886 1_555
Au8 In4 2.871530 1_555
Au8 In2 2.982170 1_556
Au8 In11 2.982170 1_556
Au8 In9 3.021886 1_555
Au8 In12 3.021886 1_555
Au9 In8 2.991765 1_555
Au9 In3 2.991765 1_555
Au9 In12 2.991765 1_555
Au9 In14 2.993485 1_655
Au9 In4 2.993485 1_565
Au9 In0 2.993485 1_556
Au10 Au3 2.846932 1_555
Au10 In14 2.871530 1_555
Au10 In9 2.982170 1_565
Au10 In5 2.982170 1_565
Au10 In8 3.021886 1_555
Au10 In15 3.021886 1_555
Au10 Au19 3.164151 1_565
Au10 Au22 3.223398 1_565
Au10 Au26 3.223398 1_566
Au11 In2 2.991765 1_555
Au11 In10 2.991765 1_555
Au11 In11 2.991765 1_555
Au11 In7 2.993485 1_655
Au11 In0 2.993485 1_545
Au11 In4 2.993485 1_554
Au11 Au33 3.081070 1_555
Au11 Au2 3.081070 1_655
Au11 Au24 3.081070 1_655
Au12 In8 2.940487 1_555
Au12 In12 2.940487 1_555
Au12 In3 2.940487 1_555
Au12 Au3 2.976190 1_555
Au12 Au20 2.976190 1_555
Au12 Au14 2.976190 1_555
Au13 In12 2.869130 1_555
Au13 In9 2.869130 1_555
Au13 In10 2.869130 1_555
Au13 Au20 3.121586 1_555
Au13 Au14 3.121586 1_555
Au13 Au19 3.121586 1_555
Au14 Au28 2.804861 1_556
Au14 Au8 2.846932 1_555
Au14 Au4 2.846932 1_555
Au14 Au18 2.976190 1_555
Au14 Au21 3.121586 1_555
Au14 Au6 3.164151 1_556
Au14 Au7 3.164151 1_556
Au14 In12 3.178072 1_555
Au14 In9 3.178072 1_555
Au14 In13 3.178072 1_555
Au14 In8 3.178072 1_555
Au15 Au20 2.846932 1_555
Au15 In4 2.871530 1_555
Au15 In13 2.982170 1_655
Au15 In5 2.982170 1_655
Au15 In10 3.021886 1_555
Au15 In12 3.021886 1_555
Au15 Au35 3.164151 1_655
Au15 Au2 3.223398 1_656
Au15 Au22 3.223398 1_655
Au16 Au3 2.846932 1_555
Au16 In0 2.871530 1_555
Au16 In10 2.982170 1_565
Au16 In11 2.982170 1_565
Au16 In3 3.021886 1_555
Au16 In1 3.021886 1_555
Au16 Au19 3.164151 1_565
Au16 Au33 3.223398 1_565
Au16 Au24 3.223398 1_665
Au17 In5 2.869130 1_555
Au17 In11 2.869130 1_555
Au17 In6 2.869130 1_555
Au17 Au35 3.121586 1_555
Au17 Au19 3.121586 1_555
Au17 Au28 3.121586 1_555
Au18 In9 2.940487 1_555
Au18 In13 2.940487 1_555
Au18 In5 2.940487 1_555
Au18 Au35 2.976190 1_555
Au18 Au19 2.976190 1_555
Au19 Au3 2.804861 1_545
Au19 Au5 2.846932 1_555
Au19 Au34 2.846932 1_555
Au19 Au32 2.976190 1_555
Au19 In5 3.178072 1_555
Au19 In10 3.178072 1_555
Au19 In11 3.178072 1_555
Au19 In9 3.178072 1_555
Au20 Au35 2.804861 1_655
Au20 Au23 2.846932 1_555
Au20 Au32 2.976190 1_555
Au20 Au29 3.121586 1_555
Au20 In3 3.178072 1_555
Au20 In12 3.178072 1_555
Au20 In10 3.178072 1_555
Au20 In2 3.178072 1_555
Au21 In8 2.869130 1_555
Au21 In13 2.869130 1_555
Au21 In15 2.869130 1_555
Au21 Au3 3.121586 1_555
Au21 Au35 3.121586 1_555
Au22 Au24 2.800104 1_555
Au22 In5 2.910054 1_555
Au22 In3 2.910054 1_445
Au22 In4 2.971485 1_455
Au22 In14 2.971485 1_545
Au22 Au9 3.081070 1_445
Au22 Au25 3.081070 1_555
Au22 Au5 3.223398 1_455
Au22 In15 3.257638 1_545
Au22 In10 3.257638 1_455
Au23 In0 2.871530 1_555
Au23 In15 2.982170 1_655
Au23 In6 2.982170 1_655
Au23 In3 3.021886 1_555
Au23 In2 3.021886 1_555
Au23 Au35 3.164151 1_655
Au23 Au24 3.223398 1_665
Au23 Au27 3.223398 1_655
Au24 In15 2.910054 1_545
Au24 In10 2.910054 1_455
Au24 In0 2.971485 1_445
Au24 In7 2.971485 1_555
Au24 Au30 3.081070 1_545
Au24 Au34 3.223398 1_555
Au24 In5 3.257638 1_555
Au24 In3 3.257638 1_445
Au25 In9 2.991765 1_555
Au25 In13 2.991765 1_555
Au25 In5 2.991765 1_555
Au25 In7 2.993485 1_556
Au25 In4 2.993485 1_455
Au25 In14 2.993485 1_545
Au25 Au26 3.081070 1_556
Au26 Au33 2.800104 1_555
Au26 In9 2.910054 1_554
Au26 In1 2.910054 1_545
Au26 In7 2.971485 1_555
Au26 In14 2.971485 1_544
Au26 Au30 3.081070 1_545
Au26 Au4 3.223398 1_544
Au26 Au34 3.223398 1_555
Au26 Au6 3.223398 1_555
Au26 In11 3.257638 1_555
Au26 In8 3.257638 1_544
Au27 In12 2.910054 1_454
Au27 In6 2.910054 1_555
Au27 In14 2.971485 1_554
Au27 In0 2.971485 1_455
Au27 Au9 3.081070 1_454
Au27 Au30 3.081070 1_555
Au27 Au7 3.223398 1_455
Au27 Au4 3.223398 1_554
Au27 In13 3.257638 1_554
Au27 In2 3.257638 1_455
Au28 Au7 2.846932 1_555
Au28 Au6 2.846932 1_555
Au28 Au32 2.976190 1_555
Au28 Au31 2.976190 1_555
Au28 Au29 3.121586 1_555
Au28 Au4 3.164151 1_554
Au28 Au8 3.164151 1_554
Au28 In6 3.178072 1_555
Au28 In1 3.178072 1_555
Au28 In11 3.178072 1_555
Au28 In2 3.178072 1_555
Au29 In3 2.869130 1_555
Au29 In1 2.869130 1_555
Au29 In2 2.869130 1_555
Au29 Au3 3.121586 1_555
Au30 In1 2.991765 1_555
Au30 In15 2.991765 1_555
Au30 In6 2.991765 1_555
Au30 In7 2.993485 1_565
Au30 In14 2.993485 1_554
Au30 In0 2.993485 1_455
Au31 In1 2.940487 1_555
Au31 In15 2.940487 1_555
Au31 In6 2.940487 1_555
Au31 Au35 2.976190 1_555
Au32 In10 2.940487 1_555
Au32 In2 2.940487 1_555
Au32 In11 2.940487 1_555
Au33 In11 2.910054 1_555
Au33 In8 2.910054 1_544
Au33 In0 2.971485 1_545
Au33 In4 2.971485 1_554
Au33 Au9 3.081070 1_544
Au33 Au5 3.223398 1_554
Au33 Au8 3.223398 1_554
Au33 Au7 3.223398 1_545
Au33 In1 3.257638 1_545
Au33 In9 3.257638 1_554
Au34 In7 2.871530 1_555
Au34 In15 2.982170 1_545
Au34 In1 2.982170 1_545
Au34 In5 3.021886 1_555
Au34 In11 3.021886 1_555
Au35 In13 3.178072 1_555
Au35 In5 3.178072 1_555
Au35 In6 3.178072 1_555
Au35 In15 3.178072 1_555
