# generated using pymatgen
data_CeAsSe
_symmetry_space_group_name_H-M   'P 1'
_cell_length_a   5.73710800
_cell_length_b   5.75300400
_cell_length_c   17.37520300
_cell_angle_alpha   90.00000000
_cell_angle_beta   90.00000000
_cell_angle_gamma   90.00000000
_symmetry_Int_Tables_number   1
_chemical_formula_structural   CeAsSe
_chemical_formula_sum   'Ce8 As8 Se8'
_cell_volume   573.47909175
_cell_formula_units_Z   8
loop_
 _symmetry_equiv_pos_site_id
 _symmetry_equiv_pos_as_xyz
  1  'x, y, z'
loop_
 _atom_site_type_symbol
 _atom_site_label
 _atom_site_symmetry_multiplicity
 _atom_site_fract_x
 _atom_site_fract_y
 _atom_site_fract_z
 _atom_site_occupancy
  Ce  Ce0  1  0.75000000  0.00506100  0.86494900  1
  Ce  Ce1  1  0.25000000  0.99493900  0.13505100  1
  Ce  Ce2  1  0.25000000  0.00490200  0.63893300  1
  Ce  Ce3  1  0.25000000  0.49493900  0.36494900  1
  Ce  Ce4  1  0.75000000  0.49509800  0.13893300  1
  Ce  Ce5  1  0.75000000  0.50506100  0.63505100  1
  Ce  Ce6  1  0.25000000  0.50490200  0.86106700  1
  Ce  Ce7  1  0.75000000  0.99509800  0.36106700  1
  As  As0  1  0.99901900  0.23180700  0.50004700  1
  As  As1  1  0.00098100  0.26819300  0.00004700  1
  As  As2  1  0.49901900  0.26819300  0.00004700  1
  As  As3  1  0.00098100  0.76819300  0.49995300  1
  As  As4  1  0.49901900  0.76819300  0.49995300  1
  As  As5  1  0.50098100  0.23180700  0.50004700  1
  As  As6  1  0.99901900  0.73180700  0.99995300  1
  As  As7  1  0.50098100  0.73180700  0.99995300  1
  Se  Se0  1  0.75000000  0.49327100  0.31756000  1
  Se  Se1  1  0.25000000  0.99338300  0.31440200  1
  Se  Se2  1  0.75000000  0.99327100  0.18244000  1
  Se  Se3  1  0.75000000  0.50661700  0.81440200  1
  Se  Se4  1  0.25000000  0.49338300  0.18559800  1
  Se  Se5  1  0.25000000  0.00672900  0.81756000  1
  Se  Se6  1  0.25000000  0.50672900  0.68244000  1
  Se  Se7  1  0.75000000  0.00661700  0.68559800  1
loop_
_geom_bond_atom_site_label_1
_geom_bond_atom_site_label_2
_geom_bond_distance
_geom_bond_site_symmetry_2
Ce0 Se5 2.984405 1_555
Ce0 Se5 2.984405 1_655
Ce0 Se3 2.999032 1_545
Ce0 Se3 3.016155 1_555
Ce0 Se7 3.116273 1_555
Ce1 Se2 2.984405 1_455
Ce1 Se2 2.984405 1_555
Ce1 Se4 2.999032 1_565
Ce1 Se4 3.016155 1_555
Ce1 Se1 3.116273 1_555
Ce2 Se6 2.964010 1_545
Ce2 Se7 2.980959 1_555
Ce2 Se7 2.980959 1_455
Ce2 Se6 2.984341 1_555
Ce2 Se5 3.103698 1_555
Ce3 Se0 2.984405 1_455
Ce3 Se0 2.984405 1_555
Ce3 Se1 2.999032 1_555
Ce3 Se1 3.016155 1_545
Ce3 Se4 3.116273 1_555
Ce4 Se2 2.964010 1_555
Ce4 Se4 2.980959 1_555
Ce4 Se4 2.980959 1_655
Ce4 Se2 2.984341 1_545
Ce4 Se0 3.103698 1_555
Ce5 Se6 2.984405 1_555
Ce5 Se6 2.984405 1_655
Ce5 Se7 2.999032 1_555
Ce5 Se7 3.016155 1_565
Ce5 Se3 3.116273 1_555
Ce6 Se5 2.964010 1_555
Ce6 Se3 2.980959 1_455
Ce6 Se3 2.980959 1_555
Ce6 Se5 2.984341 1_565
Ce6 Se6 3.103698 1_555
Ce7 Se0 2.964010 1_565
Ce7 Se1 2.980959 1_655
Ce7 Se1 2.980959 1_555
Ce7 Se0 2.984341 1_555
Ce7 Se2 3.103698 1_555
As0 As3 2.667197 1_645
As0 As5 2.857298 1_555
As0 As5 2.879810 1_655
As0 As3 3.085852 1_655
As0 Ce2 3.098509 1_655
As0 Ce7 3.118780 1_545
As0 Ce3 3.142450 1_655
As0 Ce5 3.164606 1_555
As1 As6 2.667197 1_454
As1 As2 2.857298 1_555
As1 As2 2.879810 1_455
As1 As6 3.085852 1_444
As1 Ce4 3.098509 1_455
As1 Ce6 3.118780 1_554
As1 Ce0 3.142450 1_454
As1 Ce1 3.164606 1_545
As2 As7 2.667197 1_554
As2 As7 3.085852 1_544
As2 Ce4 3.098509 1_555
As2 Ce6 3.118780 1_554
As2 Ce0 3.142450 1_554
As2 Ce1 3.164606 1_545
As3 As4 2.857298 1_555
As3 As4 2.879810 1_455
As3 Ce7 3.098509 1_455
As3 Ce2 3.118780 1_565
As3 Ce5 3.142450 1_455
As3 Ce3 3.164606 1_555
As4 As5 2.667197 1_565
As4 As5 3.085852 1_555
As4 Ce7 3.098509 1_555
As4 Ce2 3.118780 1_565
As4 Ce5 3.142450 1_555
As4 Ce3 3.164606 1_555
As5 Ce2 3.098509 1_555
As5 Ce7 3.118780 1_545
As5 Ce3 3.142450 1_555
As5 Ce5 3.164606 1_555
As6 As7 2.857298 1_555
As6 As7 2.879810 1_655
As6 Ce6 3.098509 1_655
As6 Ce4 3.118780 1_556
As6 Ce1 3.142450 1_656
As6 Ce0 3.164606 1_565
As7 Ce6 3.098509 1_555
As7 Ce4 3.118780 1_556
As7 Ce1 3.142450 1_556
As7 Ce0 3.164606 1_565
