# generated using pymatgen
data_Ba3LiTi5(SbO7)3
_symmetry_space_group_name_H-M   'P 1'
_cell_length_a   9.18925900
_cell_length_b   9.19880127
_cell_length_c   11.77548050
_cell_angle_alpha   89.87476332
_cell_angle_beta   89.87488367
_cell_angle_gamma   60.07174945
_symmetry_Int_Tables_number   1
_chemical_formula_structural   Ba3LiTi5(SbO7)3
_chemical_formula_sum   'Ba6 Li2 Ti10 Sb6 O42'
_cell_volume   862.64707479
_cell_formula_units_Z   2
loop_
 _symmetry_equiv_pos_site_id
 _symmetry_equiv_pos_as_xyz
  1  'x, y, z'
loop_
 _atom_site_type_symbol
 _atom_site_label
 _atom_site_symmetry_multiplicity
 _atom_site_fract_x
 _atom_site_fract_y
 _atom_site_fract_z
 _atom_site_occupancy
  Ba  Ba0  1  0.60143700  0.39985600  0.75220500  1
  Ba  Ba1  1  0.99343000  0.40265600  0.24539000  1
  Ba  Ba2  1  0.99864300  0.59532800  0.75529400  1
  Ba  Ba3  1  0.40239400  0.99919900  0.74700100  1
  Ba  Ba4  1  0.59731900  0.99770300  0.25247800  1
  Ba  Ba5  1  0.40067700  0.59952600  0.24822700  1
  Li  Li0  1  0.99329000  0.00191900  0.25874800  1
  Li  Li1  1  0.00663400  0.99815200  0.75541800  1
  Ti  Ti0  1  0.26083600  0.74754500  0.59375400  1
  Ti  Ti1  1  0.66435700  0.67058200  0.99834300  1
  Ti  Ti2  1  0.99601900  0.26158400  0.58682000  1
  Ti  Ti3  1  0.99377300  0.26043300  0.90310100  1
  Ti  Ti4  1  0.25178200  0.00848600  0.41257500  1
  Ti  Ti5  1  0.99895500  0.73852400  0.09294800  1
  Ti  Ti6  1  0.26513700  0.73832500  0.90612000  1
  Ti  Ti7  1  0.74134800  0.01053300  0.59271400  1
  Ti  Ti8  1  0.74499400  0.26267900  0.09639400  1
  Ti  Ti9  1  0.74208500  0.26396200  0.41128900  1
  Sb  Sb0  1  0.66336700  0.67231100  0.49870800  1
  Sb  Sb1  1  0.24640800  0.99713000  0.08481300  1
  Sb  Sb2  1  0.99926400  0.75146300  0.41721800  1
  Sb  Sb3  1  0.33250200  0.33643400  0.50149500  1
  Sb  Sb4  1  0.33463200  0.33055400  0.00083100  1
  Sb  Sb5  1  0.75459800  0.99672900  0.91678500  1
  O  O0  1  0.20914000  0.79187900  0.74906700  1
  O  O1  1  0.20824200  0.99575700  0.91745500  1
  O  O2  1  0.48645900  0.68073200  0.90002400  1
  O  O3  1  0.48993000  0.68116600  0.60603400  1
  O  O4  1  0.47735100  0.83026500  0.39699700  1
  O  O5  1  0.49165400  0.82938200  0.09940000  1
  O  O6  1  0.79418000  0.19660700  0.92947300  1
  O  O7  1  0.78526600  0.21386700  0.56880100  1
  O  O8  1  0.69027100  0.48186100  0.10080700  1
  O  O9  1  0.67970900  0.49050000  0.39633600  1
  O  O10  1  0.82587300  0.47773000  0.89708200  1
  O  O11  1  0.83335300  0.49147400  0.59905000  1
  O  O12  1  0.00708500  0.19895200  0.07041000  1
  O  O13  1  0.00180200  0.21042200  0.42901600  1
  O  O14  1  0.68489400  0.82588600  0.89395400  1
  O  O15  1  0.67411300  0.84574100  0.59320100  1
  O  O16  1  0.99647500  0.20765100  0.74611800  1
  O  O17  1  0.83914000  0.67602600  0.09243100  1
  O  O18  1  0.82558300  0.68511000  0.38857200  1
  O  O19  1  0.21279900  0.99303700  0.56929300  1
  O  O20  1  0.20199400  0.99812800  0.25076700  1
  O  O21  1  0.16738600  0.31704000  0.60281900  1
  O  O22  1  0.16588200  0.31670700  0.90110800  1
  O  O23  1  0.00552100  0.78892600  0.25028500  1
  O  O24  1  0.32290600  0.16572800  0.40024100  1
  O  O25  1  0.32085700  0.16676100  0.10835400  1
  O  O26  1  0.99522500  0.79854200  0.92748300  1
  O  O27  1  0.99394300  0.79276600  0.58340800  1
  O  O28  1  0.16445800  0.50773400  0.39380700  1
  O  O29  1  0.17535900  0.51321200  0.10400600  1
  O  O30  1  0.31516900  0.51973200  0.59978300  1
  O  O31  1  0.31475400  0.51281500  0.89697000  1
  O  O32  1  0.21278600  0.79360000  0.06993100  1
  O  O33  1  0.19877700  0.78865800  0.42910400  1
  O  O34  1  0.51072900  0.16545200  0.89400600  1
  O  O35  1  0.51239200  0.17501900  0.60545300  1
  O  O36  1  0.51882800  0.31310800  0.10064100  1
  O  O37  1  0.51630800  0.31549000  0.39794300  1
  O  O38  1  0.79341800  0.00765500  0.74955300  1
  O  O39  1  0.79619400  0.99204400  0.08341800  1
  O  O40  1  0.80450600  0.99421400  0.42669700  1
  O  O41  1  0.79540500  0.21101400  0.25203100  1
loop_
_geom_bond_atom_site_label_1
_geom_bond_atom_site_label_2
_geom_bond_distance
_geom_bond_site_symmetry_2
Ba0 O7 2.749770 1_555
Ba0 O6 2.772134 1_555
Ba0 O3 2.837480 1_555
Ba0 O2 2.847711 1_555
Ba0 O31 2.860491 1_555
Ba0 O30 2.911171 1_555
Ba0 O10 3.028526 1_555
Ba0 O35 3.105454 1_555
Ba0 O38 3.127086 1_555
Ba0 O34 3.147043 1_555
Ba0 O16 3.147053 1_555
Ba0 O11 3.205195 1_555
Ba1 O12 2.748395 1_655
Ba1 O13 2.767060 1_655
Ba1 O18 2.825159 1_555
Ba1 O28 2.827345 1_655
Ba1 O17 2.830501 1_555
Ba1 O29 2.877126 1_655
Ba1 O8 3.029879 1_555
Ba1 O41 3.102402 1_555
Ba1 O9 3.127725 1_555
Ba1 O25 3.137649 1_655
Ba1 O20 3.226059 1_645
Ba1 O24 3.265582 1_655
Ba2 O27 2.702444 1_555
Ba2 O26 2.750321 1_555
Ba2 O22 2.817952 1_655
Ba2 O11 2.841219 1_555
Ba2 O10 2.858783 1_555
Ba2 O21 2.868516 1_655
Ba2 O14 3.060976 1_555
Ba2 O31 3.100476 1_655
Ba2 O30 3.203304 1_655
Ba2 O0 3.241055 1_655
Ba2 O38 3.287748 1_565
Ba2 O15 3.315699 1_555
Ba3 O1 2.693190 1_555
Ba3 O19 2.744549 1_555
Ba3 O34 2.804411 1_565
Ba3 O15 2.825162 1_555
Ba3 O35 2.833338 1_565
Ba3 O14 2.855352 1_555
Ba3 O3 3.102969 1_555
Ba3 O21 3.128672 1_565
Ba3 O2 3.186000 1_555
Ba3 O0 3.189088 1_555
Ba3 O22 3.196722 1_565
Ba3 O16 3.233213 1_465
Ba4 O39 2.682404 1_555
Ba4 O40 2.791119 1_555
Ba4 O25 2.796034 1_565
Ba4 O24 2.806910 1_565
Ba4 O5 2.847710 1_555
Ba4 O4 2.856278 1_555
Ba4 O18 3.035216 1_555
Ba4 O37 3.143024 1_565
Ba4 O36 3.166964 1_565
Ba4 O23 3.251312 1_655
Ba4 O17 3.269655 1_555
Ba4 O41 3.275291 1_565
Ba5 O32 2.738601 1_555
Ba5 O33 2.789923 1_555
Ba5 O9 2.840432 1_555
Ba5 O37 2.877780 1_555
Ba5 O36 2.880653 1_555
Ba5 O8 2.894942 1_555
Ba5 O29 3.076226 1_555
Ba5 O4 3.095860 1_555
Ba5 O23 3.147801 1_555
Ba5 O5 3.159449 1_555
Ba5 O20 3.177895 1_555
Ba5 O28 3.189022 1_555
Li0 O41 1.876811 1_555
Li0 O20 1.902796 1_645
Li0 O23 1.908511 1_645
Li0 O40 2.651945 1_545
Li1 O0 1.882965 1_555
Li1 O16 1.885254 1_465
Li1 O38 1.918572 1_465
O0 Ti0 1.882276 1_555
O0 Ti6 1.916999 1_555
O1 Sb1 2.003609 1_556
O1 Ti6 2.159764 1_555
O1 Ti3 2.247703 1_465
O2 Ti6 1.829345 1_555
O2 Ti1 1.969013 1_555
O3 Ti0 1.882529 1_555
O3 Sb0 2.001510 1_555
O4 Ti4 1.904393 1_565
O4 Sb0 1.997644 1_555
O5 Ti1 1.937696 1_554
O5 Sb1 2.004992 1_555
O6 Ti8 2.040687 1_556
O6 Sb5 2.050357 1_545
O6 Ti3 2.208244 1_555
O7 Ti9 1.904477 1_555
O7 Ti7 2.119219 1_555
O7 Ti2 2.199725 1_555
O8 Ti8 1.819161 1_555
O8 Ti1 2.026282 1_554
O9 Ti9 1.873251 1_555
O9 Sb0 2.007539 1_555
O10 Ti3 1.817558 1_555
O10 Ti1 2.036179 1_555
O11 Ti2 1.890327 1_555
O11 Sb0 2.002487 1_555
O12 Ti3 2.035541 1_454
O12 Sb1 2.058681 1_545
O12 Ti8 2.196940 1_455
O13 Ti2 1.911995 1_455
O13 Ti4 2.122890 1_555
O13 Ti9 2.193374 1_455
O14 Ti1 1.961602 1_555
O14 Sb5 1.989815 1_555
O15 Ti7 1.901097 1_565
O15 Sb0 1.989579 1_555
O16 Ti3 1.909238 1_555
O16 Ti2 1.938739 1_555
O17 Ti5 1.824776 1_555
O17 Ti1 1.974318 1_554
O18 Sb2 2.002207 1_555
O18 Sb0 2.020855 1_555
O19 Ti4 1.897603 1_565
O19 Ti0 2.092957 1_555
O19 Ti2 2.281100 1_465
O20 Ti4 1.974062 1_565
O20 Sb1 1.994584 1_555
O21 Ti2 1.891774 1_455
O21 Sb3 2.004707 1_555
O22 Ti3 1.893815 1_455
O22 Sb4 2.001375 1_556
O23 Ti5 1.919199 1_455
O23 Sb2 2.000605 1_455
O24 Ti4 1.866123 1_555
O24 Sb3 2.010476 1_555
O25 Sb1 2.011879 1_545
O25 Sb4 2.017556 1_555
O26 Ti5 2.019670 1_556
O26 Sb5 2.051005 1_555
O26 Ti6 2.269126 1_655
O27 Sb2 1.990166 1_555
O27 Ti7 2.184671 1_565
O27 Ti0 2.277271 1_655
O28 Sb2 2.002958 1_455
O28 Sb3 2.011814 1_555
O29 Ti5 1.894107 1_455
O29 Sb4 1.997169 1_555
O30 Ti0 1.897727 1_555
O30 Sb3 1.986875 1_555
O31 Ti6 1.892013 1_555
O31 Sb4 2.006610 1_556
O32 Ti6 1.991728 1_554
O32 Sb1 2.051897 1_555
O32 Ti5 2.276309 1_455
O33 Ti0 2.003431 1_555
O33 Sb2 2.031055 1_455
O33 Ti4 2.311905 1_565
O34 Sb5 2.008239 1_545
O34 Sb4 2.013620 1_556
O35 Ti7 1.887208 1_555
O35 Sb3 1.996891 1_555
O36 Ti8 1.890677 1_555
O36 Sb4 2.002225 1_555
O37 Ti9 1.890415 1_555
O37 Sb3 2.011015 1_555
O38 Ti7 1.905656 1_555
O38 Sb5 2.011739 1_545
O39 Sb5 1.996145 1_554
O39 Ti5 2.141682 1_555
O39 Ti8 2.296738 1_565
O40 Ti7 2.022502 1_565
O40 Sb2 2.052873 1_555
O40 Ti9 2.257729 1_565
O41 Ti8 1.891949 1_555
O41 Ti9 1.938053 1_555
