# generated using pymatgen
data_KUVO6
_symmetry_space_group_name_H-M   'P 1'
_cell_length_a   8.52681200
_cell_length_b   7.08498800
_cell_length_c   10.72042308
_cell_angle_alpha   89.99279555
_cell_angle_beta   90.00000000
_cell_angle_gamma   90.00000000
_symmetry_Int_Tables_number   1
_chemical_formula_structural   KUVO6
_chemical_formula_sum   'K4 U4 V4 O24'
_cell_volume   647.64606111
_cell_formula_units_Z   4
loop_
 _symmetry_equiv_pos_site_id
 _symmetry_equiv_pos_as_xyz
  1  'x, y, z'
loop_
 _atom_site_type_symbol
 _atom_site_label
 _atom_site_symmetry_multiplicity
 _atom_site_fract_x
 _atom_site_fract_y
 _atom_site_fract_z
 _atom_site_occupancy
  K  K0  1  0.75592200  0.52142300  0.29163000  1
  K  K1  1  0.74407800  0.52142300  0.79163000  1
  K  K2  1  0.24407800  0.47857700  0.70837000  1
  K  K3  1  0.25592200  0.47857700  0.20837000  1
  U  U0  1  0.48620900  0.99932800  0.31935700  1
  U  U1  1  0.01379100  0.99932800  0.81935700  1
  U  U2  1  0.51379100  0.00067200  0.68064300  1
  U  U3  1  0.98620900  0.00067200  0.18064300  1
  V  V0  1  0.35126400  0.09485700  0.95834300  1
  V  V1  1  0.64873600  0.90514300  0.04165700  1
  V  V2  1  0.85126400  0.90514300  0.54165700  1
  V  V3  1  0.14873600  0.09485700  0.45834300  1
  O  O0  1  0.28442100  0.04887000  0.79457500  1
  O  O1  1  0.86012300  0.67403700  0.52963200  1
  O  O2  1  0.78442100  0.95113000  0.70542500  1
  O  O3  1  0.05159300  0.99583500  0.60514000  1
  O  O4  1  0.01145200  0.74204300  0.18457700  1
  O  O5  1  0.94840700  0.00416500  0.39486000  1
  O  O6  1  0.63987700  0.67403700  0.02963200  1
  O  O7  1  0.44840700  0.99583500  0.10514000  1
  O  O8  1  0.21557900  0.04887000  0.29457500  1
  O  O9  1  0.84288400  0.97812900  0.98933700  1
  O  O10  1  0.03670500  0.74135300  0.81869600  1
  O  O11  1  0.48854800  0.74204300  0.68457700  1
  O  O12  1  0.51145200  0.25795700  0.31542300  1
  O  O13  1  0.55159300  0.00416500  0.89486000  1
  O  O14  1  0.36012300  0.32596300  0.97036800  1
  O  O15  1  0.34288400  0.02187100  0.51066300  1
  O  O16  1  0.15711600  0.02187100  0.01066300  1
  O  O17  1  0.46329500  0.74135300  0.31869600  1
  O  O18  1  0.13987700  0.32596300  0.47036800  1
  O  O19  1  0.98854800  0.25795700  0.81542300  1
  O  O20  1  0.53670500  0.25864700  0.68130400  1
  O  O21  1  0.96329500  0.25864700  0.18130400  1
  O  O22  1  0.71557900  0.95113000  0.20542500  1
  O  O23  1  0.65711600  0.97812900  0.48933700  1
loop_
_geom_bond_atom_site_label_1
_geom_bond_atom_site_label_2
_geom_bond_distance
_geom_bond_site_symmetry_2
K0 O12 2.809748 1_555
K0 O21 2.827055 1_555
K0 O1 2.910212 1_555
K0 O4 2.916731 1_655
K0 O17 2.956044 1_555
K0 O6 3.168034 1_555
K0 O22 3.200075 1_555
K1 O19 2.809748 1_555
K1 O20 2.827055 1_555
K1 O6 2.910212 1_556
K1 O11 2.916731 1_555
K1 O10 2.956044 1_655
K1 O1 3.168034 1_555
K1 O2 3.200075 1_555
K2 O11 2.809748 1_555
K2 O10 2.827055 1_555
K2 O18 2.910212 1_555
K2 O19 2.916731 1_455
K2 O20 2.956044 1_555
K2 O14 3.168034 1_555
K2 O0 3.200075 1_555
K3 O4 2.809748 1_555
K3 O17 2.827055 1_555
K3 O14 2.910212 1_554
K3 O12 2.916731 1_555
K3 O21 2.956044 1_455
K3 O18 3.168034 1_555
K3 O8 3.200075 1_555
O0 V0 1.874434 1_555
O0 U2 2.331022 1_555
O0 U1 2.349219 1_545
O1 V2 1.644202 1_555
O2 V2 1.874434 1_555
O2 U1 2.331022 1_655
O2 U2 2.349219 1_565
O3 V3 1.911714 1_565
O3 V2 1.947816 1_455
O3 U1 2.319142 1_555
O4 U3 1.845459 1_465
O5 V2 1.911714 1_545
O5 V3 1.947816 1_655
O5 U3 2.319142 1_555
O6 V1 1.644202 1_555
O7 V0 1.911714 1_564
O7 V1 1.947816 1_555
O7 U0 2.319142 1_555
O8 V3 1.874434 1_555
O8 U3 2.331022 1_455
O8 U0 2.349219 1_545
O9 V1 1.822768 1_556
O9 U1 2.338121 1_655
O9 U3 2.392749 1_566
O10 U1 1.838178 1_555
O11 U2 1.845459 1_565
O12 U0 1.845459 1_545
O13 V1 1.911714 1_546
O13 V0 1.947816 1_555
O13 U2 2.319142 1_555
O14 V0 1.644202 1_555
O15 V3 1.822768 1_555
O15 U2 2.338121 1_555
O15 U0 2.392749 1_545
O16 V0 1.822768 1_554
O16 U3 2.338121 1_455
O16 U1 2.392749 1_544
O17 U0 1.838178 1_555
O18 V3 1.644202 1_555
O19 U1 1.845459 1_645
O20 U2 1.838178 1_555
O21 U3 1.838178 1_555
O22 V1 1.874434 1_555
O22 U0 2.331022 1_555
O22 U3 2.349219 1_565
O23 V2 1.822768 1_555
O23 U0 2.338121 1_555
O23 U2 2.392749 1_565
