# generated using pymatgen
data_Sb2Te2O9
_symmetry_space_group_name_H-M   'P 1'
_cell_length_a   5.10277600
_cell_length_b   14.73863200
_cell_length_c   22.36280252
_cell_angle_alpha   72.26493010
_cell_angle_beta   90.00000000
_cell_angle_gamma   90.00000000
_symmetry_Int_Tables_number   1
_chemical_formula_structural   Sb2Te2O9
_chemical_formula_sum   'Sb16 Te16 O72'
_cell_volume   1601.93019990
_cell_formula_units_Z   8
loop_
 _symmetry_equiv_pos_site_id
 _symmetry_equiv_pos_as_xyz
  1  'x, y, z'
loop_
 _atom_site_type_symbol
 _atom_site_label
 _atom_site_symmetry_multiplicity
 _atom_site_fract_x
 _atom_site_fract_y
 _atom_site_fract_z
 _atom_site_occupancy
  Sb  Sb0  1  0.18783500  0.66007000  0.34761700  1
  Sb  Sb1  1  0.63137900  0.97468900  0.17734700  1
  Sb  Sb2  1  0.31073200  0.28231000  0.55115200  1
  Sb  Sb3  1  0.86862100  0.47468900  0.17734700  1
  Sb  Sb4  1  0.27992300  0.63753200  0.05530900  1
  Sb  Sb5  1  0.81216500  0.33993000  0.65238300  1
  Sb  Sb6  1  0.13137900  0.52531100  0.82265300  1
  Sb  Sb7  1  0.36862100  0.02531100  0.82265300  1
  Sb  Sb8  1  0.77992300  0.86246800  0.94469100  1
  Sb  Sb9  1  0.72007700  0.36246800  0.94469100  1
  Sb  Sb10  1  0.31216500  0.16007000  0.34761700  1
  Sb  Sb11  1  0.68926800  0.71769000  0.44884800  1
  Sb  Sb12  1  0.68783500  0.83993000  0.65238300  1
  Sb  Sb13  1  0.18926800  0.78231000  0.55115200  1
  Sb  Sb14  1  0.81073200  0.21769000  0.44884800  1
  Sb  Sb15  1  0.22007700  0.13753200  0.05530900  1
  Te  Te0  1  0.17659400  0.34513100  0.07834800  1
  Te  Te1  1  0.89812500  0.10020500  0.70946100  1
  Te  Te2  1  0.85714700  0.44412000  0.44452100  1
  Te  Te3  1  0.67659400  0.15486900  0.92165200  1
  Te  Te4  1  0.15919300  0.82591900  0.76621700  1
  Te  Te5  1  0.10187500  0.89979500  0.29053900  1
  Te  Te6  1  0.84080700  0.17408100  0.23378300  1
  Te  Te7  1  0.60187500  0.60020500  0.70946100  1
  Te  Te8  1  0.35714700  0.05588000  0.55547900  1
  Te  Te9  1  0.64285300  0.94412000  0.44452100  1
  Te  Te10  1  0.82340600  0.65486900  0.92165200  1
  Te  Te11  1  0.14285300  0.55588000  0.55547900  1
  Te  Te12  1  0.39812500  0.39979500  0.29053900  1
  Te  Te13  1  0.34080700  0.32591900  0.76621700  1
  Te  Te14  1  0.65919300  0.67408100  0.23378300  1
  Te  Te15  1  0.32340600  0.84513100  0.07834800  1
  O  O0  1  0.35812000  0.45052000  0.77983600  1
  O  O1  1  0.59381400  0.88792200  0.02050400  1
  O  O2  1  0.97760900  0.79413000  0.47343000  1
  O  O3  1  0.90116700  0.05738000  0.92148100  1
  O  O4  1  0.63338500  0.02279700  0.75955800  1
  O  O5  1  0.13338500  0.47720300  0.24044200  1
  O  O6  1  0.41930300  0.02437800  0.38241200  1
  O  O7  1  0.96767100  0.36800500  0.14932700  1
  O  O8  1  0.09381400  0.61207800  0.97949600  1
  O  O9  1  0.04368500  0.65090100  0.59427800  1
  O  O10  1  0.64188000  0.54948000  0.22016400  1
  O  O11  1  0.62256700  0.72335600  0.97152500  1
  O  O12  1  0.99243500  0.33961900  0.73364500  1
  O  O13  1  0.11506900  0.27125800  0.63039900  1
  O  O14  1  0.59883300  0.55738000  0.92148100  1
  O  O15  1  0.87743300  0.22335600  0.97152500  1
  O  O16  1  0.99813100  0.89129100  0.68657800  1
  O  O17  1  0.61506900  0.22874200  0.36960100  1
  O  O18  1  0.00186900  0.10870900  0.31342200  1
  O  O19  1  0.50756500  0.83961900  0.73364500  1
  O  O20  1  0.49243500  0.16038100  0.26635500  1
  O  O21  1  0.49813100  0.60870900  0.31342200  1
  O  O22  1  0.60470700  0.28313800  0.87239900  1
  O  O23  1  0.89225900  0.87512000  0.22545700  1
  O  O24  1  0.95631500  0.34909900  0.40572200  1
  O  O25  1  0.10470700  0.21686200  0.12760100  1
  O  O26  1  0.86661500  0.52279700  0.75955800  1
  O  O27  1  0.40116700  0.44262000  0.07851900  1
  O  O28  1  0.45631500  0.15090100  0.59427800  1
  O  O29  1  0.86610200  0.58810200  0.49239200  1
  O  O30  1  0.54368500  0.84909900  0.40572200  1
  O  O31  1  0.89261800  0.85276200  0.57420800  1
  O  O32  1  0.91930300  0.47562200  0.61758800  1
  O  O33  1  0.36661500  0.97720300  0.24044200  1
  O  O34  1  0.38493100  0.77125800  0.63039900  1
  O  O35  1  0.14188000  0.95052000  0.77983600  1
  O  O36  1  0.10774100  0.12488000  0.77454300  1
  O  O37  1  0.50186900  0.39129100  0.68657800  1
  O  O38  1  0.18005200  0.29027800  0.29884400  1
  O  O39  1  0.05546900  0.41207200  0.88948400  1
  O  O40  1  0.89529300  0.78313800  0.87239900  1
  O  O41  1  0.88493100  0.72874200  0.36960100  1
  O  O42  1  0.44453100  0.91207200  0.88948400  1
  O  O43  1  0.12256700  0.77664400  0.02847500  1
  O  O44  1  0.58069700  0.97562200  0.61758800  1
  O  O45  1  0.52239100  0.29413000  0.47343000  1
  O  O46  1  0.31994800  0.79027800  0.29884400  1
  O  O47  1  0.46767100  0.13199500  0.85067300  1
  O  O48  1  0.39529300  0.71686200  0.12760100  1
  O  O49  1  0.90618600  0.38792200  0.02050400  1
  O  O50  1  0.60774100  0.37512000  0.22545700  1
  O  O51  1  0.60738200  0.35276200  0.57420800  1
  O  O52  1  0.13389800  0.41189800  0.50760800  1
  O  O53  1  0.08069700  0.52437800  0.38241200  1
  O  O54  1  0.37743300  0.27664400  0.02847500  1
  O  O55  1  0.39261800  0.64723800  0.42579200  1
  O  O56  1  0.63389800  0.08810200  0.49239200  1
  O  O57  1  0.94453100  0.58792800  0.11051600  1
  O  O58  1  0.40618600  0.11207800  0.97949600  1
  O  O59  1  0.02239100  0.20587000  0.52657000  1
  O  O60  1  0.85812000  0.04948000  0.22016400  1
  O  O61  1  0.68005200  0.20972200  0.70115600  1
  O  O62  1  0.55546900  0.08792800  0.11051600  1
  O  O63  1  0.10738200  0.14723800  0.42579200  1
  O  O64  1  0.47760900  0.70587000  0.52657000  1
  O  O65  1  0.81994800  0.70972200  0.70115600  1
  O  O66  1  0.39225900  0.62488000  0.77454300  1
  O  O67  1  0.03232900  0.63199500  0.85067300  1
  O  O68  1  0.53232900  0.86800500  0.14932700  1
  O  O69  1  0.09883300  0.94262000  0.07851900  1
  O  O70  1  0.36610200  0.91189800  0.50760800  1
  O  O71  1  0.00756500  0.66038100  0.26635500  1
loop_
_geom_bond_atom_site_label_1
_geom_bond_atom_site_label_2
_geom_bond_distance
_geom_bond_site_symmetry_2
O0 Te13 1.952908 1_555
O0 Sb6 2.028207 1_555
O1 Te15 1.864927 1_555
O1 Sb8 2.074721 1_554
O2 Sb13 2.008311 1_655
O2 Sb11 2.028207 1_555
O3 Te3 1.838778 1_555
O4 Te1 1.898153 1_555
O4 Sb7 1.961983 1_555
O5 Te12 1.898153 1_555
O5 Sb3 1.961983 1_455
O6 Te9 1.904909 1_545
O6 Sb10 1.988954 1_555
O7 Sb3 1.928915 1_555
O7 Te0 2.023784 1_655
O8 Te10 1.864927 1_455
O8 Sb4 2.074721 1_556
O9 Te11 1.926274 1_555
O9 Sb13 2.023648 1_555
O10 Te14 1.952908 1_555
O10 Sb3 2.028207 1_555
O11 Te10 1.999737 1_555
O11 Sb8 2.111651 1_555
O11 Sb4 2.593014 1_556
O12 Te13 1.908357 1_655
O12 Sb5 2.035560 1_555
O13 Sb5 1.989545 1_455
O13 Sb2 1.997037 1_555
O14 Te10 1.838778 1_555
O15 Te3 1.999737 1_555
O15 Sb9 2.111651 1_555
O15 Sb15 2.593014 1_656
O16 Te4 1.931363 1_655
O16 Sb12 2.004376 1_555
O17 Sb10 1.989545 1_555
O17 Sb14 1.997037 1_555
O18 Te6 1.931363 1_455
O18 Sb10 2.004376 1_555
O19 Te4 1.908357 1_555
O19 Sb12 2.035560 1_555
O20 Te6 1.908357 1_555
O20 Sb10 2.035560 1_555
O21 Te14 1.931363 1_555
O21 Sb0 2.004376 1_555
O22 Te3 1.911323 1_555
O22 Sb9 2.340680 1_555
O22 Te13 2.633855 1_555
O23 Te5 1.927967 1_655
O23 Sb1 2.030106 1_555
O24 Te2 1.926274 1_555
O24 Sb14 2.023648 1_555
O25 Te0 1.911323 1_555
O25 Sb15 2.340680 1_555
O25 Te6 2.633855 1_455
O26 Te7 1.898153 1_555
O26 Sb6 1.961983 1_655
O27 Te0 1.838778 1_555
O28 Te8 1.926274 1_555
O28 Sb2 2.023648 1_555
O29 Te11 1.949876 1_655
O29 Sb11 2.068158 1_555
O30 Te9 1.926274 1_555
O30 Sb11 2.023648 1_555
O31 Sb13 1.990381 1_655
O31 Sb12 1.995627 1_555
O32 Te11 1.904909 1_655
O32 Sb5 1.988954 1_555
O33 Te5 1.898153 1_555
O33 Sb1 1.961983 1_555
O34 Sb12 1.989545 1_555
O34 Sb13 1.997037 1_555
O35 Te4 1.952908 1_555
O35 Sb7 2.028207 1_565
O36 Te1 1.927967 1_455
O36 Sb7 2.030106 1_555
O37 Te13 1.931363 1_555
O37 Sb5 2.004376 1_555
O38 Te12 1.922381 1_555
O38 Sb10 2.012903 1_555
O39 Sb6 1.910377 1_555
O39 Sb9 2.106608 1_455
O40 Te10 1.911323 1_555
O40 Sb8 2.340680 1_555
O40 Te4 2.633855 1_655
O41 Sb0 1.989545 1_655
O41 Sb11 1.997037 1_555
O42 Sb7 1.910377 1_565
O42 Sb8 2.106608 1_555
O43 Te15 1.999737 1_555
O43 Sb4 2.111651 1_555
O43 Sb8 2.593014 1_454
O44 Te8 1.904909 1_565
O44 Sb12 1.988954 1_555
O45 Sb2 2.008311 1_555
O45 Sb14 2.028207 1_555
O46 Te5 1.922381 1_555
O46 Sb0 2.012903 1_555
O47 Sb7 1.928915 1_555
O47 Te3 2.023784 1_555
O48 Te15 1.911323 1_555
O48 Sb4 2.340680 1_555
O48 Te14 2.633855 1_555
O49 Te0 1.864927 1_655
O49 Sb9 2.074721 1_554
O50 Te12 1.927967 1_555
O50 Sb3 2.030106 1_555
O51 Sb2 1.990381 1_555
O51 Sb5 1.995627 1_555
O52 Te2 1.949876 1_455
O52 Sb2 2.068158 1_555
O53 Te2 1.904909 1_455
O53 Sb0 1.988954 1_555
O54 Te0 1.999737 1_555
O54 Sb15 2.111651 1_555
O54 Sb9 2.593014 1_554
O55 Sb11 1.990381 1_555
O55 Sb0 1.995627 1_555
O56 Te8 1.949876 1_555
O56 Sb14 2.068158 1_555
O57 Sb3 1.910377 1_555
O57 Sb4 2.106608 1_655
O58 Te3 1.864927 1_555
O58 Sb15 2.074721 1_556
O59 Sb14 2.008311 1_455
O59 Sb2 2.028207 1_555
O60 Te6 1.952908 1_555
O60 Sb1 2.028207 1_545
O61 Te1 1.922381 1_555
O61 Sb5 2.012903 1_555
O62 Sb1 1.910377 1_545
O62 Sb15 2.106608 1_555
O63 Sb14 1.990381 1_455
O63 Sb10 1.995627 1_555
O64 Sb11 2.008311 1_555
O64 Sb13 2.028207 1_555
O65 Te7 1.922381 1_555
O65 Sb12 2.012903 1_555
O66 Te7 1.927967 1_555
O66 Sb6 2.030106 1_555
O67 Sb6 1.928915 1_555
O67 Te10 2.023784 1_455
O68 Sb1 1.928915 1_555
O68 Te15 2.023784 1_555
O69 Te15 1.838778 1_555
O70 Te9 1.949876 1_555
O70 Sb13 2.068158 1_555
O71 Te14 1.908357 1_455
O71 Sb0 2.035560 1_555
