# generated using pymatgen
data_Nd(Sn2Rh)2
_symmetry_space_group_name_H-M   'P 1'
_cell_length_a   4.48891052
_cell_length_b   7.22018300
_cell_length_c   18.53412332
_cell_angle_alpha   90.00000000
_cell_angle_beta   90.00000000
_cell_angle_gamma   90.00000000
_symmetry_Int_Tables_number   1
_chemical_formula_structural   Nd(Sn2Rh)2
_chemical_formula_sum   'Nd4 Sn16 Rh8'
_cell_volume   600.70493794
_cell_formula_units_Z   4
loop_
 _symmetry_equiv_pos_site_id
 _symmetry_equiv_pos_as_xyz
  1  'x, y, z'
loop_
 _atom_site_type_symbol
 _atom_site_label
 _atom_site_symmetry_multiplicity
 _atom_site_fract_x
 _atom_site_fract_y
 _atom_site_fract_z
 _atom_site_occupancy
  Nd  Nd0  1  0.25000000  0.00165694  0.85826885  1
  Nd  Nd1  1  0.75000000  0.99834306  0.14173115  1
  Nd  Nd2  1  0.75000000  0.50165694  0.64173115  1
  Nd  Nd3  1  0.25000000  0.49834306  0.35826885  1
  Sn  Sn0  1  0.25000000  0.27727745  0.19568862  1
  Sn  Sn1  1  0.75000000  0.97641341  0.56657772  1
  Sn  Sn2  1  0.75000000  0.30342576  0.81849194  1
  Sn  Sn3  1  0.25000000  0.13144168  0.03165858  1
  Sn  Sn4  1  0.75000000  0.19657424  0.31849194  1
  Sn  Sn5  1  0.25000000  0.47641341  0.93342228  1
  Sn  Sn6  1  0.75000000  0.86855832  0.96834142  1
  Sn  Sn7  1  0.25000000  0.36855832  0.53165858  1
  Sn  Sn8  1  0.25000000  0.69657424  0.18150806  1
  Sn  Sn9  1  0.75000000  0.52358659  0.06657772  1
  Sn  Sn10  1  0.75000000  0.72272255  0.80431138  1
  Sn  Sn11  1  0.25000000  0.02358659  0.43342228  1
  Sn  Sn12  1  0.75000000  0.77727745  0.30431138  1
  Sn  Sn13  1  0.75000000  0.63144168  0.46834142  1
  Sn  Sn14  1  0.25000000  0.22272255  0.69568862  1
  Sn  Sn15  1  0.25000000  0.80342576  0.68150806  1
  Rh  Rh0  1  0.25000000  0.51665301  0.78751628  1
  Rh  Rh1  1  0.25000000  0.74764533  0.03420825  1
  Rh  Rh2  1  0.75000000  0.24764533  0.46579175  1
  Rh  Rh3  1  0.25000000  0.98334699  0.28751628  1
  Rh  Rh4  1  0.25000000  0.75235467  0.53420825  1
  Rh  Rh5  1  0.75000000  0.25235467  0.96579175  1
  Rh  Rh6  1  0.75000000  0.01665301  0.71248372  1
  Rh  Rh7  1  0.75000000  0.48334699  0.21248372  1
loop_
_geom_bond_atom_site_label_1
_geom_bond_atom_site_label_2
_geom_bond_distance
_geom_bond_site_symmetry_2
Nd0 Sn10 3.177060 1_445
Nd0 Sn10 3.177060 1_545
Nd0 Sn6 3.181681 1_445
Nd0 Sn6 3.181681 1_545
Nd0 Sn2 3.213778 1_455
Nd0 Sn2 3.213778 1_555
Nd0 Sn3 3.347461 1_556
Nd0 Sn14 3.409914 1_555
Nd0 Sn15 3.575107 1_545
Nd1 Sn0 3.177060 1_665
Nd1 Sn0 3.177060 1_565
Nd1 Sn3 3.181681 1_665
Nd1 Sn3 3.181681 1_565
Nd1 Sn8 3.213778 1_555
Nd1 Sn8 3.213778 1_655
Nd1 Sn6 3.347461 1_554
Nd1 Sn12 3.409914 1_555
Nd1 Sn4 3.575107 1_565
Nd2 Sn14 3.177060 1_555
Nd2 Sn14 3.177060 1_655
Nd2 Sn7 3.181681 1_655
Nd2 Sn7 3.181681 1_555
Nd2 Sn15 3.213778 1_655
Nd2 Sn15 3.213778 1_555
Nd2 Sn13 3.347461 1_555
Nd2 Sn10 3.409914 1_555
Nd2 Sn2 3.575107 1_555
Nd3 Sn12 3.177060 1_555
Nd3 Sn12 3.177060 1_455
Nd3 Sn13 3.181681 1_555
Nd3 Sn13 3.181681 1_455
Nd3 Sn4 3.213778 1_555
Nd3 Sn4 3.213778 1_455
Nd3 Sn7 3.347461 1_555
Nd3 Sn0 3.409914 1_555
Nd3 Sn8 3.575107 1_555
Sn0 Sn8 3.038787 1_555
Sn0 Sn3 3.217337 1_555
Sn0 Sn4 3.249234 1_455
Sn0 Sn4 3.249234 1_555
Sn1 Sn13 3.085274 1_555
Sn1 Sn15 3.336923 1_555
Sn1 Sn15 3.336923 1_655
Sn2 Sn5 3.336923 1_555
Sn2 Sn5 3.336923 1_655
Sn3 Sn5 3.085274 1_554
Sn3 Sn6 3.165028 1_544
Sn3 Sn6 3.165028 1_444
Sn6 Sn9 3.085274 1_556
Sn8 Sn9 3.336923 1_555
Sn8 Sn9 3.336923 1_455
Sn10 Sn2 3.038787 1_555
Sn10 Sn6 3.217337 1_555
Sn10 Sn15 3.249234 1_655
Sn10 Sn15 3.249234 1_555
Sn11 Sn7 3.085274 1_555
Sn11 Sn4 3.336923 1_455
Sn11 Sn4 3.336923 1_555
Sn12 Sn4 3.038787 1_565
Sn12 Sn13 3.217337 1_555
Sn12 Sn8 3.249234 1_655
Sn12 Sn8 3.249234 1_555
Sn13 Sn7 3.165028 1_555
Sn13 Sn7 3.165028 1_655
Sn14 Sn15 3.038787 1_545
Sn14 Sn7 3.217337 1_555
Sn14 Sn2 3.249234 1_455
Sn14 Sn2 3.249234 1_555
Rh0 Sn10 2.710757 1_455
Rh0 Sn10 2.710757 1_555
Rh0 Sn5 2.719802 1_555
Rh0 Sn14 2.720383 1_555
Rh0 Sn2 2.781611 1_455
Rh0 Sn2 2.781611 1_555
Rh0 Sn15 2.854383 1_555
Rh1 Sn6 2.700009 1_554
Rh1 Sn6 2.700009 1_454
Rh1 Sn5 2.706374 1_554
Rh1 Sn8 2.754863 1_555
Rh1 Sn3 2.771483 1_565
Rh1 Sn9 2.831008 1_555
Rh1 Sn9 2.831008 1_455
Rh2 Sn7 2.700009 1_655
Rh2 Sn7 2.700009 1_555
Rh2 Sn1 2.706374 1_545
Rh2 Sn4 2.754863 1_555
Rh2 Sn13 2.771483 1_555
Rh2 Sn11 2.831008 1_655
Rh2 Sn11 2.831008 1_555
Rh3 Sn12 2.710757 1_455
Rh3 Sn12 2.710757 1_555
Rh3 Sn11 2.719802 1_565
Rh3 Sn0 2.720383 1_565
Rh3 Sn4 2.781611 1_565
Rh3 Sn4 2.781611 1_465
Rh3 Sn8 2.854383 1_555
Rh4 Sn13 2.700009 1_455
Rh4 Sn13 2.700009 1_555
Rh4 Sn11 2.706374 1_565
Rh4 Sn15 2.754863 1_555
Rh4 Sn7 2.771483 1_555
Rh4 Sn1 2.831008 1_455
Rh4 Sn1 2.831008 1_555
Rh5 Sn3 2.700009 1_656
Rh5 Sn3 2.700009 1_556
Rh5 Sn9 2.706374 1_556
Rh5 Sn2 2.754863 1_555
Rh5 Sn6 2.771483 1_545
Rh5 Sn5 2.831008 1_655
Rh5 Sn5 2.831008 1_555
Rh6 Sn14 2.710757 1_655
Rh6 Sn14 2.710757 1_555
Rh6 Sn1 2.719802 1_545
Rh6 Sn10 2.720383 1_545
Rh6 Sn15 2.781611 1_545
Rh6 Sn15 2.781611 1_645
Rh6 Sn2 2.854383 1_555
Rh7 Sn0 2.710757 1_655
Rh7 Sn0 2.710757 1_555
Rh7 Sn9 2.719802 1_555
Rh7 Sn12 2.720383 1_555
Rh7 Sn8 2.781611 1_555
Rh7 Sn8 2.781611 1_655
Rh7 Sn4 2.854383 1_555
