# generated using pymatgen
data_NaZr2(PO4)3
_symmetry_space_group_name_H-M   'P 1'
_cell_length_a   9.24747402
_cell_length_b   9.24747402
_cell_length_c   9.24747362
_cell_angle_alpha   57.83823333
_cell_angle_beta   57.83823333
_cell_angle_gamma   57.83823053
_symmetry_Int_Tables_number   1
_chemical_formula_structural   NaZr2(PO4)3
_chemical_formula_sum   'Na2 Zr4 P6 O24'
_cell_volume   531.43041438
_cell_formula_units_Z   2
loop_
 _symmetry_equiv_pos_site_id
 _symmetry_equiv_pos_as_xyz
  1  'x, y, z'
loop_
 _atom_site_type_symbol
 _atom_site_label
 _atom_site_symmetry_multiplicity
 _atom_site_fract_x
 _atom_site_fract_y
 _atom_site_fract_z
 _atom_site_occupancy
  Na  Na0  1  0.50000000  0.50000000  0.50000000  1
  Na  Na1  1  0.00000000  0.00000000  0.00000000  1
  Zr  Zr0  1  0.85488900  0.85488900  0.85488900  1
  Zr  Zr1  1  0.64511100  0.64511100  0.64511100  1
  Zr  Zr2  1  0.35488900  0.35488900  0.35488900  1
  Zr  Zr3  1  0.14511100  0.14511100  0.14511100  1
  P  P0  1  0.95895500  0.25000000  0.54104500  1
  P  P1  1  0.54104500  0.95895500  0.25000000  1
  P  P2  1  0.04104500  0.75000000  0.45895500  1
  P  P3  1  0.45895500  0.04104500  0.75000000  1
  P  P4  1  0.25000000  0.54104500  0.95895500  1
  P  P5  1  0.75000000  0.45895500  0.04104500  1
  O  O0  1  0.91569400  0.28056200  0.06261800  1
  O  O1  1  0.06261800  0.91569400  0.28056200  1
  O  O2  1  0.28056200  0.06261800  0.91569400  1
  O  O3  1  0.58430600  0.43738200  0.21943800  1
  O  O4  1  0.21943800  0.58430600  0.43738200  1
  O  O5  1  0.43738200  0.21943800  0.58430600  1
  O  O6  1  0.08430600  0.71943800  0.93738200  1
  O  O7  1  0.93738200  0.08430600  0.71943800  1
  O  O8  1  0.71943800  0.93738200  0.08430600  1
  O  O9  1  0.41569400  0.56261800  0.78056200  1
  O  O10  1  0.78056200  0.41569400  0.56261800  1
  O  O11  1  0.56261800  0.78056200  0.41569400  1
  O  O12  1  0.49580800  0.88057700  0.70913100  1
  O  O13  1  0.88057700  0.70913100  0.49580800  1
  O  O14  1  0.70913100  0.49580800  0.88057700  1
  O  O15  1  0.61942300  0.00419200  0.79086900  1
  O  O16  1  0.00419200  0.79086900  0.61942300  1
  O  O17  1  0.79086900  0.61942300  0.00419200  1
  O  O18  1  0.50419200  0.11942300  0.29086900  1
  O  O19  1  0.11942300  0.29086900  0.50419200  1
  O  O20  1  0.29086900  0.50419200  0.11942300  1
  O  O21  1  0.38057700  0.99580800  0.20913100  1
  O  O22  1  0.99580800  0.20913100  0.38057700  1
  O  O23  1  0.20913100  0.38057700  0.99580800  1
loop_
_geom_bond_atom_site_label_1
_geom_bond_atom_site_label_2
_geom_bond_distance
_geom_bond_site_symmetry_2
Na0 O9 2.576800 1_555
Na0 O3 2.576800 1_555
Na0 O10 2.576800 1_555
Na0 O4 2.576800 1_555
Na0 O11 2.576800 1_555
Na0 O5 2.576800 1_555
Na1 O1 2.576800 1_545
Na1 O7 2.576800 1_454
Na1 O0 2.576800 1_455
Na1 O6 2.576800 1_544
Na1 O2 2.576800 1_554
Na1 O8 2.576800 1_445
O0 P5 1.546942 1_555
O0 Zr3 2.128000 1_655
O1 P2 1.546942 1_555
O1 Zr3 2.128000 1_565
O2 P3 1.546942 1_555
O2 Zr3 2.128000 1_556
O3 P5 1.546942 1_555
O3 Zr2 2.128000 1_555
O4 P2 1.546942 1_555
O4 Zr2 2.128000 1_555
O5 P3 1.546942 1_555
O5 Zr2 2.128000 1_555
O6 P4 1.546942 1_555
O6 Zr0 2.128000 1_455
O7 P0 1.546942 1_555
O7 Zr0 2.128000 1_545
O8 P1 1.546942 1_555
O8 Zr0 2.128000 1_554
O9 P4 1.546942 1_555
O9 Zr1 2.128000 1_555
O10 P0 1.546942 1_555
O10 Zr1 2.128000 1_555
O11 P1 1.546942 1_555
O11 Zr1 2.128000 1_555
O12 P3 1.543553 1_565
O12 Zr1 2.073562 1_555
O13 P2 1.543553 1_655
O13 Zr1 2.073562 1_555
O14 P5 1.543553 1_556
O14 Zr1 2.073562 1_555
O15 P3 1.543553 1_555
O15 Zr0 2.073562 1_545
O16 P2 1.543553 1_555
O16 Zr0 2.073562 1_455
O17 P5 1.543553 1_555
O17 Zr0 2.073562 1_554
O18 P1 1.543553 1_545
O18 Zr2 2.073562 1_555
O19 P0 1.543553 1_455
O19 Zr2 2.073562 1_555
O20 P4 1.543553 1_554
O20 Zr2 2.073562 1_555
O21 P1 1.543553 1_555
O21 Zr3 2.073562 1_565
O22 P0 1.543553 1_555
O22 Zr3 2.073562 1_655
O23 P4 1.543553 1_555
O23 Zr3 2.073562 1_556
