# generated using pymatgen
data_Na25Zr11Sc5Si12(PO8)12
_symmetry_space_group_name_H-M   'P 1'
_cell_length_a   9.11973500
_cell_length_b   9.12563790
_cell_length_c   31.17348658
_cell_angle_alpha   82.09695426
_cell_angle_beta   81.75041476
_cell_angle_gamma   60.39066016
_symmetry_Int_Tables_number   1
_chemical_formula_structural   Na25Zr11Sc5Si12(PO8)12
_chemical_formula_sum   'Na25 Zr11 Sc5 Si12 P12 O96'
_cell_volume   2225.53939571
_cell_formula_units_Z   1
loop_
 _symmetry_equiv_pos_site_id
 _symmetry_equiv_pos_as_xyz
  1  'x, y, z'
loop_
 _atom_site_type_symbol
 _atom_site_label
 _atom_site_symmetry_multiplicity
 _atom_site_fract_x
 _atom_site_fract_y
 _atom_site_fract_z
 _atom_site_occupancy
  Na  Na0  1  0.30222600  0.17982700  0.07690100  1
  Na  Na1  1  0.60935500  0.16272800  0.12320700  1
  Na  Na2  1  0.58064000  0.79416700  0.18793200  1
  Na  Na3  1  0.54361500  0.71910100  0.46117500  1
  Na  Na4  1  0.82616400  0.39511700  0.37066500  1
  Na  Na5  1  0.99588000  0.49946300  0.00472500  1
  Na  Na6  1  0.96382900  0.80630500  0.04769300  1
  Na  Na7  1  0.92145800  0.70576900  0.31601500  1
  Na  Na8  1  0.94383900  0.08775700  0.17086400  1
  Na  Na9  1  0.81915400  0.03946400  0.44227800  1
  Na  Na10  1  0.79298700  0.96840100  0.71151000  1
  Na  Na11  1  0.07786500  0.64499100  0.62187900  1
  Na  Na12  1  0.27162100  0.71116000  0.24823900  1
  Na  Na13  1  0.20366300  0.05448400  0.29629300  1
  Na  Na14  1  0.18111300  0.95354000  0.56562600  1
  Na  Na15  1  0.18964600  0.33649100  0.42225600  1
  Na  Na16  1  0.07041800  0.28826600  0.69241100  1
  Na  Na17  1  0.05808100  0.17002200  0.95187200  1
  Na  Na18  1  0.32938400  0.89421700  0.87516400  1
  Na  Na19  1  0.45645100  0.27186300  0.53980400  1
  Na  Na20  1  0.43217800  0.20254700  0.81598400  1
  Na  Na21  1  0.44056300  0.58722600  0.67199000  1
  Na  Na22  1  0.32907400  0.54742700  0.94121400  1
  Na  Na23  1  0.70613700  0.52151400  0.79028700  1
  Na  Na24  1  0.68079500  0.84014100  0.92289200  1
  Zr  Zr0  1  0.29812700  0.77481100  0.13823200  1
  Zr  Zr1  1  0.65757400  0.17202500  0.01287600  1
  Zr  Zr2  1  0.54526100  0.03606600  0.38844900  1
  Zr  Zr3  1  0.57653100  0.09161100  0.23505200  1
  Zr  Zr4  1  0.90691700  0.41927600  0.26223400  1
  Zr  Zr5  1  0.79398200  0.28496300  0.63956600  1
  Zr  Zr6  1  0.83500600  0.33409000  0.48710100  1
  Zr  Zr7  1  0.15462900  0.66652500  0.51282500  1
  Zr  Zr8  1  0.04579300  0.53425400  0.88973300  1
  Zr  Zr9  1  0.08512800  0.58382200  0.73717700  1
  Zr  Zr10  1  0.40457500  0.91625800  0.76317500  1
  Sc  Sc0  1  0.95882700  0.45852400  0.11202800  1
  Sc  Sc1  1  0.22242200  0.70243000  0.36050800  1
  Sc  Sc2  1  0.47418200  0.95036400  0.61003500  1
  Sc  Sc3  1  0.34086800  0.82729500  0.98690800  1
  Sc  Sc4  1  0.72435800  0.19807400  0.86102400  1
  Si  Si0  1  0.30861900  0.51720800  0.05888300  1
  Si  Si1  1  0.23252700  0.14155500  0.18652900  1
  Si  Si2  1  0.65150600  0.43201700  0.18449000  1
  Si  Si3  1  0.55904800  0.77044000  0.30973700  1
  Si  Si4  1  0.48253100  0.39857000  0.43681100  1
  Si  Si5  1  0.90398600  0.68114000  0.43218600  1
  Si  Si6  1  0.81357800  0.02095900  0.56122800  1
  Si  Si7  1  0.73217700  0.64832000  0.68705800  1
  Si  Si8  1  0.15437100  0.93040400  0.68243800  1
  Si  Si9  1  0.06379100  0.26981900  0.81153500  1
  Si  Si10  1  0.98282800  0.89100300  0.93872100  1
  Si  Si11  1  0.39828900  0.18261200  0.93412700  1
  P  P0  1  0.60440400  0.81455700  0.06337000  1
  P  P1  1  0.01936600  0.10514300  0.06226100  1
  P  P2  1  0.93933100  0.72671300  0.18960300  1
  P  P3  1  0.85293300  0.06519300  0.31385900  1
  P  P4  1  0.26303700  0.35928600  0.31328700  1
  P  P5  1  0.18666900  0.97420200  0.43748300  1
  P  P6  1  0.09939100  0.31775700  0.56585300  1
  P  P7  1  0.51217200  0.60603900  0.56361700  1
  P  P8  1  0.43554000  0.22333600  0.68760500  1
  P  P9  1  0.34920800  0.56800200  0.81583100  1
  P  P10  1  0.76277600  0.85473500  0.81404300  1
  P  P11  1  0.68990900  0.47429000  0.93731900  1
  O  O0  1  0.13192400  0.02111600  0.02133400  1
  O  O1  1  0.15009000  0.26295000  0.14385400  1
  O  O2  1  0.13591700  0.49991700  0.06758000  1
  O  O3  1  0.29380200  0.63297500  0.01318400  1
  O  O4  1  0.38124600  0.26774300  0.27357000  1
  O  O5  1  0.47396500  0.32572400  0.05974800  1
  O  O6  1  0.32131700  0.61563800  0.09768900  1
  O  O7  1  0.24313100  0.95528000  0.18600700  1
  O  O8  1  0.39882400  0.53100600  0.39616700  1
  O  O9  1  0.46642300  0.60282400  0.18159900  1
  O  O10  1  0.63700600  0.25905400  0.19579600  1
  O  O11  1  0.38259500  0.76333200  0.31760600  1
  O  O12  1  0.51740900  0.80166800  0.02682900  1
  O  O13  1  0.84310100  0.11559500  0.06297200  1
  O  O14  1  0.49030900  0.83330800  0.10753600  1
  O  O15  1  0.78029800  0.39928200  0.14122900  1
  O  O16  1  0.42779900  0.10782300  0.18784500  1
  O  O17  1  0.73050300  0.46650200  0.22427300  1
  O  O18  1  0.54590700  0.88799100  0.26380000  1
  O  O19  1  0.61517400  0.98277700  0.05608900  1
  O  O20  1  0.62951200  0.52166400  0.52223600  1
  O  O21  1  0.78499200  0.66546200  0.06649400  1
  O  O22  1  0.73575900  0.58790500  0.30901000  1
  O  O23  1  0.58056700  0.86804100  0.34728800  1
  O  O24  1  0.00899600  0.27905900  0.06234700  1
  O  O25  1  0.49719000  0.21386700  0.43282800  1
  O  O26  1  0.90839500  0.64742200  0.15410900  1
  O  O27  1  0.64808000  0.77892400  0.64628300  1
  O  O28  1  0.78312500  0.90715700  0.19397500  1
  O  O29  1  0.71521000  0.84770100  0.42891800  1
  O  O30  1  0.88048600  0.51362800  0.44675500  1
  O  O31  1  0.95593500  0.61968900  0.23402000  1
  O  O32  1  0.63787800  0.01683600  0.57294200  1
  O  O33  1  0.75947800  0.05098400  0.27842200  1
  O  O34  1  0.08820700  0.36735200  0.31245400  1
  O  O35  1  0.74572400  0.08107200  0.35845700  1
  O  O36  1  0.02645700  0.64604400  0.38737500  1
  O  O37  1  0.67418600  0.37146100  0.43970100  1
  O  O38  1  0.98855000  0.71616100  0.47045500  1
  O  O39  1  0.09642400  0.75276900  0.17976200  1
  O  O40  1  0.79665700  0.13590100  0.51414200  1
  O  O41  1  0.87740200  0.22437800  0.30542200  1
  O  O42  1  0.88038100  0.77169200  0.77260800  1
  O  O43  1  0.02850800  0.90602200  0.31508000  1
  O  O44  1  0.98883900  0.83749900  0.55815200  1
  O  O45  1  0.10193400  0.99077700  0.10361500  1
  O  O46  1  0.84850400  0.11517300  0.59662500  1
  O  O47  1  0.23896800  0.53915500  0.31100500  1
  O  O48  1  0.74569900  0.46384300  0.68323400  1
  O  O49  1  0.14365100  0.90292600  0.40251700  1
  O  O50  1  0.89283500  0.01794800  0.89746700  1
  O  O51  1  0.03634500  0.15511600  0.44473200  1
  O  O52  1  0.96552900  0.09749200  0.67953400  1
  O  O53  1  0.11078400  0.22613000  0.23086500  1
  O  O54  1  0.12998400  0.76319200  0.69684000  1
  O  O55  1  0.21827400  0.85846700  0.48083400  1
  O  O56  1  0.88895500  0.26381200  0.82335900  1
  O  O57  1  0.01073100  0.30004500  0.52931900  1
  O  O58  1  0.33695700  0.61699700  0.56141400  1
  O  O59  1  0.98638900  0.34305600  0.60913700  1
  O  O60  1  0.27663900  0.89404900  0.63767600  1
  O  O61  1  0.92399900  0.62135900  0.68972500  1
  O  O62  1  0.23912400  0.96526700  0.72063500  1
  O  O63  1  0.34759000  0.99324000  0.42501300  1
  O  O64  1  0.04591500  0.38634400  0.76468400  1
  O  O65  1  0.12396400  0.47631200  0.55497400  1
  O  O66  1  0.27235400  0.15868700  0.56870900  1
  O  O67  1  0.23957700  0.08767300  0.80837400  1
  O  O68  1  0.34014600  0.25036500  0.35521100  1
  O  O69  1  0.09754200  0.36302500  0.84776500  1
  O  O70  1  0.48961300  0.78390200  0.56277600  1
  O  O71  1  0.99371300  0.70500400  0.93744800  1
  O  O72  1  0.39038400  0.15247400  0.65316800  1
  O  O73  1  0.28682100  0.40540500  0.69480400  1
  O  O74  1  0.20739900  0.35280400  0.93387800  1
  O  O75  1  0.36262800  0.47324400  0.48184900  1
  O  O76  1  0.37529000  0.01494300  0.94571600  1
  O  O77  1  0.46814600  0.10854000  0.73108900  1
  O  O78  1  0.25964100  0.55002100  0.77962000  1
  O  O79  1  0.58823200  0.86545100  0.81163800  1
  O  O80  1  0.23664400  0.59245000  0.85941300  1
  O  O81  1  0.51627500  0.16009700  0.88858100  1
  O  O82  1  0.17184700  0.86954200  0.93952200  1
  O  O83  1  0.48710200  0.21477900  0.97234100  1
  O  O84  1  0.59771900  0.24089000  0.67484300  1
  O  O85  1  0.37271900  0.72650500  0.80492800  1
  O  O86  1  0.52252100  0.40878700  0.81857700  1
  O  O87  1  0.59060900  0.48994500  0.60420500  1
  O  O88  1  0.73867000  0.03346000  0.81362300  1
  O  O89  1  0.65474100  0.40002700  0.90133400  1
  O  O90  1  0.54010600  0.65297900  0.94370700  1
  O  O91  1  0.61289300  0.72314200  0.73207700  1
  O  O92  1  0.72120400  0.35367500  0.97990400  1
  O  O93  1  0.85417100  0.48961600  0.92744500  1
  O  O94  1  0.84144700  0.73897700  0.85480100  1
  O  O95  1  0.86238800  0.97111300  0.98363300  1
loop_
_geom_bond_atom_site_label_1
_geom_bond_atom_site_label_2
_geom_bond_distance
_geom_bond_site_symmetry_2
Na0 O1 2.328302 1_555
Na0 O24 2.453434 1_555
Na0 O5 2.477108 1_555
Na0 O2 2.536211 1_555
Na0 O19 2.553017 1_545
Na0 O14 2.851928 1_545
Na1 O5 2.393193 1_555
Na1 O13 2.534251 1_555
Na1 O16 2.576324 1_555
Na1 O10 2.624231 1_555
Na1 O19 2.811430 1_545
Na1 O28 2.958666 1_545
Na2 O9 2.474678 1_555
Na2 O16 2.488408 1_565
Na2 O18 2.549677 1_555
Na2 O28 2.558006 1_555
Na2 O14 2.672625 1_555
Na2 O7 2.682563 1_555
Na2 O26 2.714380 1_555
Na2 O17 2.750779 1_555
Na3 O20 2.360773 1_555
Na3 O29 2.424042 1_555
Na3 O63 2.471552 1_555
Na3 O55 2.600000 1_555
Na3 O30 2.701724 1_555
Na3 O37 2.924503 1_555
Na4 O22 2.358084 1_555
Na4 O37 2.431261 1_555
Na4 O41 2.581055 1_555
Na4 O34 2.711405 1_655
Na4 O30 2.934871 1_555
Na5 O24 2.473207 1_655
Na5 O2 2.489147 1_655
Na5 O21 2.561608 1_555
Na5 O71 2.609712 1_554
Na5 O74 2.725625 1_654
Na5 O93 2.923983 1_554
Na6 O95 2.331318 1_554
Na6 O2 2.476152 1_655
Na6 O21 2.499080 1_555
Na6 O13 2.560042 1_565
Na6 O3 2.747768 1_655
Na6 O19 2.754849 1_555
Na7 O36 2.434073 1_655
Na7 O43 2.456342 1_655
Na7 O22 2.458310 1_555
Na7 O47 2.511114 1_655
Na7 O34 2.695800 1_655
Na7 O31 2.706820 1_555
Na7 O23 2.790375 1_555
Na7 O33 2.891867 1_565
Na8 O45 2.374603 1_645
Na8 O7 2.467074 1_645
Na8 O10 2.503063 1_555
Na8 O15 2.577424 1_555
Na8 O39 2.651878 1_645
Na8 O28 2.672240 1_545
Na9 O40 2.463158 1_555
Na9 O29 2.467256 1_545
Na9 O25 2.596666 1_555
Na9 O37 2.634160 1_555
Na9 O38 2.652450 1_545
Na9 O51 2.678505 1_655
Na9 O35 2.720000 1_555
Na9 O49 2.752245 1_645
Na10 O42 2.359423 1_555
Na10 O52 2.432309 1_565
Na10 O84 2.467355 1_565
Na10 O77 2.595422 1_565
Na10 O54 2.703016 1_655
Na10 O61 2.921980 1_555
Na11 O44 2.405334 1_455
Na11 O61 2.410533 1_455
Na11 O65 2.624488 1_555
Na11 O58 2.731123 1_555
Na11 O54 2.892848 1_555
Na12 O47 2.414752 1_555
Na12 O9 2.493836 1_555
Na12 O7 2.679205 1_555
Na12 O11 2.704484 1_555
Na12 O39 2.722159 1_555
Na12 O43 2.866481 1_555
Na13 O53 2.374279 1_555
Na13 O11 2.388506 1_545
Na13 O43 2.526252 1_545
Na13 O41 2.580243 1_455
Na13 O34 2.605156 1_555
Na13 O18 2.811774 1_545
Na14 O66 2.412078 1_565
Na14 O60 2.420176 1_555
Na14 O70 2.445828 1_555
Na14 O44 2.504066 1_455
Na14 O58 2.685770 1_555
Na14 O46 2.727637 1_465
Na14 O55 2.817348 1_555
Na14 O57 2.891272 1_565
Na15 O68 2.330728 1_555
Na15 O25 2.507930 1_555
Na15 O30 2.522601 1_455
Na15 O36 2.615811 1_555
Na15 O51 2.621391 1_555
Na15 O63 2.719736 1_545
Na16 O52 2.460685 1_455
Na16 O64 2.477787 1_555
Na16 O48 2.616684 1_455
Na16 O61 2.642150 1_455
Na16 O62 2.650172 1_545
Na16 O73 2.681786 1_555
Na16 O72 2.714076 1_555
Na16 O59 2.722403 1_455
Na17 O0 2.386189 1_556
Na17 O82 2.471440 1_545
Na17 O76 2.505615 1_555
Na17 O74 2.592148 1_555
Na17 O93 2.642012 1_455
Na17 O92 2.748702 1_455
Na18 O82 2.346951 1_555
Na18 O67 2.484405 1_565
Na18 O85 2.714398 1_555
Na18 O76 2.759073 1_565
Na18 O79 2.784282 1_555
Na18 O90 2.968047 1_555
Na19 O32 2.290256 1_555
Na19 O75 2.313040 1_555
Na19 O66 2.391817 1_555
Na19 O65 2.672003 1_555
Na19 O40 2.749943 1_555
Na19 O58 2.922723 1_555
Na20 O86 2.412632 1_555
Na20 O81 2.413154 1_555
Na20 O88 2.430916 1_555
Na20 O67 2.499575 1_555
Na20 O79 2.690720 1_545
Na20 O69 2.748563 1_555
Na20 O77 2.818600 1_555
Na20 O78 2.899770 1_555
Na21 O87 2.368841 1_555
Na21 O48 2.491904 1_555
Na21 O54 2.533604 1_555
Na21 O60 2.591884 1_555
Na21 O73 2.629239 1_555
Na21 O84 2.744842 1_555
Na22 O3 2.402681 1_556
Na22 O82 2.552161 1_555
Na22 O90 2.555998 1_555
Na22 O74 2.563198 1_555
Na22 O71 2.673225 1_455
Na22 O80 2.714491 1_555
Na22 O83 2.738932 1_555
Na22 O89 2.761941 1_555
Na23 O56 2.307631 1_555
Na23 O91 2.319477 1_555
Na23 O86 2.380961 1_555
Na23 O85 2.677536 1_555
Na23 O64 2.746705 1_655
Na23 O79 2.912807 1_555
Na24 O94 2.411275 1_555
Na24 O76 2.482898 1_565
Na24 O90 2.570256 1_555
Na24 O71 2.571107 1_555
Na24 O81 2.682007 1_565
Na24 O93 2.773796 1_555
O0 P1 1.544292 1_555
O0 Sc3 2.125042 1_544
O1 Si1 1.618938 1_555
O1 Sc0 2.036059 1_455
O2 Si0 1.640211 1_555
O2 Sc0 2.118389 1_455
O3 Si0 1.632215 1_555
O3 Sc3 2.061933 1_554
O4 P4 1.550627 1_555
O4 Zr3 2.070121 1_555
O5 Si0 1.650128 1_555
O5 Zr1 2.108736 1_555
O6 Si0 1.650896 1_555
O6 Zr0 1.968903 1_555
O7 Si1 1.656477 1_565
O7 Zr0 2.196765 1_555
O8 Si4 1.610435 1_555
O8 Sc1 1.954242 1_555
O9 Si2 1.640715 1_555
O9 Zr0 2.068376 1_555
O10 Si2 1.634913 1_555
O10 Zr3 2.064326 1_555
O11 Si3 1.624626 1_555
O11 Sc1 2.066030 1_555
O12 P0 1.526188 1_555
O12 Sc3 2.078080 1_554
O13 P1 1.559635 1_655
O13 Zr1 2.289723 1_555
O14 P0 1.576480 1_555
O14 Zr0 2.138968 1_555
O15 Si2 1.611528 1_555
O15 Sc0 2.020120 1_555
O16 Si1 1.656377 1_555
O16 Zr3 2.083741 1_555
O17 Si2 1.656456 1_555
O17 Zr4 1.973692 1_555
O18 Si3 1.647894 1_555
O18 Zr3 2.077728 1_565
O19 P0 1.569880 1_555
O19 Zr1 2.194859 1_565
O20 P7 1.569987 1_555
O20 Zr6 2.097223 1_555
O21 P0 1.538942 1_555
O21 Sc0 2.246015 1_555
O22 Si3 1.649110 1_555
O22 Zr4 2.126282 1_555
O23 Si3 1.651504 1_555
O23 Zr2 2.008939 1_565
O24 P1 1.542919 1_555
O24 Sc0 2.245835 1_455
O25 Si4 1.644515 1_555
O25 Zr2 2.116392 1_555
O26 P2 1.529353 1_555
O26 Sc0 2.137565 1_555
O27 Si7 1.607570 1_555
O27 Sc2 1.953439 1_555
O28 P2 1.564428 1_555
O28 Zr3 2.188461 1_565
O29 Si5 1.645147 1_555
O29 Zr2 2.068959 1_565
O30 Si5 1.641300 1_555
O30 Zr6 2.096043 1_555
O31 P2 1.560818 1_555
O31 Zr4 2.137988 1_555
O32 Si6 1.609388 1_555
O32 Sc2 2.034765 1_545
O33 P3 1.543482 1_555
O33 Zr3 2.155743 1_555
O34 P4 1.563201 1_555
O34 Zr4 2.274536 1_455
O35 P3 1.560486 1_555
O35 Zr2 2.128587 1_555
O36 Si5 1.619639 1_455
O36 Sc1 2.126217 1_555
O37 Si4 1.654102 1_555
O37 Zr6 2.107076 1_555
O38 Si5 1.653028 1_555
O38 Zr7 1.993834 1_655
O39 P2 1.547114 1_455
O39 Zr0 2.170444 1_555
O40 Si6 1.661398 1_555
O40 Zr6 2.055511 1_555
O41 P3 1.558084 1_555
O41 Zr4 2.181498 1_555
O42 P10 1.568912 1_555
O42 Zr9 2.100312 1_655
O43 P3 1.542451 1_465
O43 Sc1 2.309355 1_555
O44 Si6 1.650058 1_565
O44 Zr7 2.092612 1_655
O45 P1 1.565295 1_565
O45 Zr0 2.175942 1_555
O46 Si6 1.640304 1_555
O46 Zr5 2.014439 1_555
O47 P4 1.537478 1_555
O47 Sc1 2.228800 1_555
O48 Si7 1.645999 1_555
O48 Zr5 2.107243 1_555
O49 P5 1.528053 1_555
O49 Sc1 2.160734 1_555
O50 Si10 1.619614 1_545
O50 Sc4 1.960865 1_555
O51 P5 1.559898 1_545
O51 Zr6 2.171936 1_455
O52 Si8 1.646507 1_645
O52 Zr5 2.062798 1_555
O53 Si1 1.656745 1_555
O53 Zr4 2.057576 1_455
O54 Si8 1.642484 1_555
O54 Zr9 2.091863 1_555
O55 P5 1.563105 1_555
O55 Zr7 2.181212 1_555
O56 Si9 1.610379 1_655
O56 Sc4 2.045022 1_555
O57 P6 1.555952 1_555
O57 Zr6 2.097052 1_455
O58 P7 1.561970 1_555
O58 Zr7 2.248393 1_555
O59 P6 1.545151 1_655
O59 Zr5 2.136141 1_555
O60 Si8 1.617330 1_555
O60 Sc2 2.144702 1_555
O61 Si7 1.654849 1_555
O61 Zr9 2.109937 1_655
O62 Si8 1.651593 1_555
O62 Zr10 1.994888 1_555
O63 P5 1.550704 1_555
O63 Zr2 2.164653 1_565
O64 Si9 1.661431 1_555
O64 Zr9 2.057831 1_555
O65 P6 1.556427 1_555
O65 Zr7 2.136522 1_555
O66 P6 1.531451 1_555
O66 Sc2 2.282730 1_545
O67 Si9 1.645948 1_555
O67 Zr10 2.090024 1_545
O68 P4 1.551235 1_555
O68 Zr2 2.186609 1_555
O69 Si9 1.648156 1_555
O69 Zr8 2.008048 1_555
O70 P7 1.528849 1_555
O70 Sc2 2.200560 1_555
O71 Si10 1.656306 1_555
O71 Zr8 2.137609 1_655
O72 P8 1.523524 1_555
O72 Sc2 2.188151 1_545
O73 P8 1.561674 1_555
O73 Zr9 2.171146 1_555
O74 Si11 1.664820 1_555
O74 Zr8 2.086051 1_555
O75 Si4 1.648474 1_555
O75 Zr7 2.068389 1_555
O76 Si11 1.630659 1_555
O76 Sc3 2.119110 1_545
O77 P8 1.562278 1_555
O77 Zr10 2.184429 1_545
O78 P9 1.554464 1_555
O78 Zr9 2.094180 1_555
O79 P10 1.558013 1_555
O79 Zr10 2.251403 1_555
O80 P9 1.551191 1_555
O80 Zr8 2.123219 1_555
O81 Si11 1.624576 1_555
O81 Sc4 2.135272 1_555
O82 Si10 1.639475 1_455
O82 Sc3 2.148556 1_555
O83 Si11 1.664119 1_555
O83 Zr1 1.998677 1_556
O84 P8 1.555379 1_555
O84 Zr5 2.144671 1_555
O85 P9 1.550499 1_555
O85 Zr10 2.132095 1_555
O86 P9 1.533586 1_555
O86 Sc4 2.310472 1_555
O87 P7 1.541827 1_555
O87 Zr5 2.178417 1_555
O88 P10 1.532722 1_545
O88 Sc4 2.195096 1_555
O89 P11 1.532190 1_555
O89 Sc4 2.151808 1_555
O90 P11 1.541081 1_555
O90 Sc3 2.162486 1_555
O91 Si7 1.646375 1_555
O91 Zr10 2.070664 1_555
O92 P11 1.565814 1_555
O92 Zr1 2.109959 1_556
O93 P11 1.556040 1_555
O93 Zr8 2.141049 1_655
O94 P10 1.545501 1_555
O94 Zr8 2.175211 1_655
O95 Si10 1.657632 1_555
O95 Zr1 2.065992 1_566
