# generated using pymatgen
data_Ce3Br6N
_symmetry_space_group_name_H-M   'P 1'
_cell_length_a   11.16013337
_cell_length_b   11.82819154
_cell_length_c   17.11194621
_cell_angle_alpha   90.00000000
_cell_angle_beta   90.00000000
_cell_angle_gamma   90.00000000
_symmetry_Int_Tables_number   1
_chemical_formula_structural   Ce3Br6N
_chemical_formula_sum   'Ce24 Br48 N8'
_cell_volume   2258.84868626
_cell_formula_units_Z   8
loop_
 _symmetry_equiv_pos_site_id
 _symmetry_equiv_pos_as_xyz
  1  'x, y, z'
loop_
 _atom_site_type_symbol
 _atom_site_label
 _atom_site_symmetry_multiplicity
 _atom_site_fract_x
 _atom_site_fract_y
 _atom_site_fract_z
 _atom_site_occupancy
  Ce  Ce0  1  0.65251957  0.46179051  0.32800574  1
  Ce  Ce1  1  0.34748043  0.53820949  0.67199426  1
  Ce  Ce2  1  0.48962153  0.72140898  0.05018431  1
  Ce  Ce3  1  0.51037847  0.27859102  0.94981569  1
  Ce  Ce4  1  0.15251957  0.03820949  0.67199426  1
  Ce  Ce5  1  0.84748043  0.53820949  0.82800574  1
  Ce  Ce6  1  0.98962153  0.77859102  0.94981569  1
  Ce  Ce7  1  0.86529911  0.52045979  0.05874407  1
  Ce  Ce8  1  0.36529911  0.52045979  0.44125593  1
  Ce  Ce9  1  0.63470089  0.02045979  0.05874407  1
  Ce  Ce10  1  0.48962153  0.77859102  0.55018431  1
  Ce  Ce11  1  0.63470089  0.47954021  0.55874407  1
  Ce  Ce12  1  0.65251957  0.03820949  0.82800574  1
  Ce  Ce13  1  0.98962153  0.72140898  0.44981569  1
  Ce  Ce14  1  0.86529911  0.97954021  0.55874407  1
  Ce  Ce15  1  0.15251957  0.46179051  0.17199426  1
  Ce  Ce16  1  0.13470089  0.47954021  0.94125593  1
  Ce  Ce17  1  0.36529911  0.97954021  0.94125593  1
  Ce  Ce18  1  0.51037847  0.22140898  0.44981569  1
  Ce  Ce19  1  0.01037847  0.27859102  0.55018431  1
  Ce  Ce20  1  0.84748043  0.96179051  0.32800574  1
  Ce  Ce21  1  0.01037847  0.22140898  0.05018431  1
  Ce  Ce22  1  0.13470089  0.02045979  0.44125593  1
  Ce  Ce23  1  0.34748043  0.96179051  0.17199426  1
  Br  Br0  1  0.36788921  0.06249937  0.33836027  1
  Br  Br1  1  0.13211079  0.93750063  0.83836027  1
  Br  Br2  1  0.83504976  0.78622590  0.80993514  1
  Br  Br3  1  0.36788921  0.43750063  0.83836027  1
  Br  Br4  1  0.64116421  0.53143485  0.94552209  1
  Br  Br5  1  0.60437822  0.91410585  0.22532016  1
  Br  Br6  1  0.75566035  0.71510696  0.54579130  1
  Br  Br7  1  0.24433965  0.28489304  0.45420870  1
  Br  Br8  1  0.39562178  0.08589415  0.77467984  1
  Br  Br9  1  0.46772262  0.31417113  0.62507884  1
  Br  Br10  1  0.60437822  0.58589415  0.72532016  1
  Br  Br11  1  0.03227738  0.81417113  0.62507884  1
  Br  Br12  1  0.24433965  0.21510696  0.95420870  1
  Br  Br13  1  0.35883579  0.46856515  0.05447791  1
  Br  Br14  1  0.74433965  0.21510696  0.54579130  1
  Br  Br15  1  0.63211079  0.93750063  0.66163973  1
  Br  Br16  1  0.96772262  0.18582887  0.37492116  1
  Br  Br17  1  0.63211079  0.56249937  0.16163973  1
  Br  Br18  1  0.85883579  0.46856515  0.44552209  1
  Br  Br19  1  0.25566035  0.78489304  0.45420870  1
  Br  Br20  1  0.86788921  0.06249937  0.16163973  1
  Br  Br21  1  0.16495024  0.21377410  0.19006486  1
  Br  Br22  1  0.13211079  0.56249937  0.33836027  1
  Br  Br23  1  0.14116421  0.53143485  0.55447791  1
  Br  Br24  1  0.14116421  0.96856515  0.05447791  1
  Br  Br25  1  0.53227738  0.68582887  0.37492116  1
  Br  Br26  1  0.74433965  0.28489304  0.04579130  1
  Br  Br27  1  0.85883579  0.03143485  0.94552209  1
  Br  Br28  1  0.66495024  0.28622590  0.80993514  1
  Br  Br29  1  0.83504976  0.71377410  0.30993514  1
  Br  Br30  1  0.10437822  0.58589415  0.77467984  1
  Br  Br31  1  0.35883579  0.03143485  0.55447791  1
  Br  Br32  1  0.46772262  0.18582887  0.12507884  1
  Br  Br33  1  0.66495024  0.21377410  0.30993514  1
  Br  Br34  1  0.39562178  0.41410585  0.27467984  1
  Br  Br35  1  0.89562178  0.08589415  0.72532016  1
  Br  Br36  1  0.75566035  0.78489304  0.04579130  1
  Br  Br37  1  0.33504976  0.71377410  0.19006486  1
  Br  Br38  1  0.53227738  0.81417113  0.87492116  1
  Br  Br39  1  0.33504976  0.78622590  0.69006486  1
  Br  Br40  1  0.64116421  0.96856515  0.44552209  1
  Br  Br41  1  0.16495024  0.28622590  0.69006486  1
  Br  Br42  1  0.03227738  0.68582887  0.12507884  1
  Br  Br43  1  0.89562178  0.41410585  0.22532016  1
  Br  Br44  1  0.10437822  0.91410585  0.27467984  1
  Br  Br45  1  0.96772262  0.31417113  0.87492116  1
  Br  Br46  1  0.25566035  0.71510696  0.95420870  1
  Br  Br47  1  0.86788921  0.43750063  0.66163973  1
  N  N0  1  0.45100920  0.58951913  0.55909048  1
  N  N1  1  0.54899080  0.08951913  0.94090952  1
  N  N2  1  0.95100920  0.91048087  0.44090952  1
  N  N3  1  0.45100920  0.91048087  0.05909048  1
  N  N4  1  0.04899080  0.41048087  0.05909048  1
  N  N5  1  0.95100920  0.58951913  0.94090952  1
  N  N6  1  0.54899080  0.41048087  0.44090952  1
  N  N7  1  0.04899080  0.08951913  0.55909048  1
loop_
_geom_bond_atom_site_label_1
_geom_bond_atom_site_label_2
_geom_bond_distance
_geom_bond_site_symmetry_2
Ce0 N6 2.331502 1_555
Ce1 N0 2.331502 1_555
Ce2 N3 2.282610 1_555
Ce3 N1 2.282610 1_555
Ce4 N7 2.331502 1_555
Ce5 N5 2.331502 1_555
Ce6 N5 2.282610 1_555
Ce7 N5 2.376548 1_554
Ce7 N4 2.427931 1_655
Ce8 N0 2.376548 1_555
Ce8 N6 2.427931 1_555
Ce9 N1 2.376548 1_554
Ce9 N3 2.427931 1_545
Ce10 N0 2.282610 1_555
Ce11 N6 2.376548 1_555
Ce11 N0 2.427931 1_555
Ce12 N1 2.331502 1_555
Ce13 N2 2.282610 1_555
Ce14 N2 2.376548 1_555
Ce14 N7 2.427931 1_665
Ce15 N4 2.331502 1_555
Ce16 N4 2.376548 1_556
Ce16 N5 2.427931 1_455
Ce17 N3 2.376548 1_556
Ce17 N1 2.427931 1_565
Ce18 N6 2.282610 1_555
Ce19 N7 2.282610 1_555
Ce20 N2 2.331502 1_555
Ce21 N4 2.282610 1_555
Ce22 N7 2.376548 1_555
Ce22 N2 2.427931 1_445
Ce23 N3 2.331502 1_555
Br0 Ce23 3.094411 1_545
Br0 Ce18 3.114348 1_555
Br0 Ce22 3.181200 1_555
Br1 Ce4 3.094411 1_565
Br1 Ce6 3.114348 1_455
Br1 Ce17 3.181200 1_555
Br2 Ce6 2.951844 1_555
Br2 Ce5 2.953098 1_555
Br2 Ce12 3.623352 1_565
Br3 Ce1 3.094411 1_555
Br3 Ce3 3.114348 1_555
Br3 Ce16 3.181200 1_555
Br4 Ce5 3.058081 1_555
Br4 Ce7 3.166613 1_556
Br4 Ce3 3.328662 1_555
Br4 Ce2 3.334232 1_556
Br5 Ce23 3.061138 1_555
Br5 Ce9 3.134012 1_565
Br5 Ce20 3.281213 1_555
Br6 Ce10 3.063435 1_555
Br6 Ce13 3.085502 1_555
Br6 Ce11 3.104037 1_555
Br6 Ce14 3.365889 1_555
Br7 Ce18 3.063435 1_555
Br7 Ce19 3.085502 1_555
Br7 Ce8 3.104037 1_555
Br7 Ce22 3.365889 1_555
Br8 Ce12 3.061138 1_555
Br8 Ce17 3.134012 1_545
Br8 Ce4 3.281213 1_555
Br9 Ce11 2.930380 1_555
Br9 Ce1 3.076945 1_555
Br9 Ce18 3.228784 1_555
Br10 Ce1 3.061138 1_555
Br10 Ce11 3.134012 1_555
Br10 Ce5 3.281213 1_555
Br11 Ce14 2.930380 1_455
Br11 Ce4 3.076945 1_565
Br11 Ce13 3.228784 1_455
Br12 Ce3 3.063435 1_555
Br12 Ce21 3.085502 1_556
Br12 Ce17 3.104037 1_545
Br12 Ce16 3.365889 1_555
Br13 Ce15 3.058081 1_555
Br13 Ce16 3.166613 1_554
Br13 Ce2 3.328662 1_555
Br13 Ce3 3.334232 1_554
Br14 Ce19 3.063435 1_655
Br14 Ce18 3.085502 1_555
Br14 Ce14 3.104037 1_545
Br14 Ce11 3.365889 1_555
Br15 Ce12 3.094411 1_565
Br15 Ce10 3.114348 1_555
Br15 Ce14 3.181200 1_555
Br16 Ce22 2.930380 1_655
Br16 Ce20 3.076945 1_545
Br16 Ce19 3.228784 1_655
Br17 Ce0 3.094411 1_555
Br17 Ce2 3.114348 1_555
Br17 Ce7 3.181200 1_555
Br18 Ce0 3.058081 1_555
Br18 Ce11 3.166613 1_555
Br18 Ce13 3.328662 1_555
Br18 Ce19 3.334232 1_655
Br19 Ce13 3.063435 1_455
Br19 Ce10 3.085502 1_555
Br19 Ce22 3.104037 1_565
Br19 Ce8 3.365889 1_555
Br20 Ce20 3.094411 1_545
Br20 Ce21 3.114348 1_655
Br20 Ce9 3.181200 1_555
Br21 Ce21 2.951844 1_555
Br21 Ce15 2.953098 1_555
Br21 Ce23 3.623352 1_545
Br22 Ce15 3.094411 1_555
Br22 Ce13 3.114348 1_455
Br22 Ce8 3.181200 1_555
Br23 Ce1 3.058081 1_555
Br23 Ce8 3.166613 1_555
Br23 Ce19 3.328662 1_555
Br23 Ce13 3.334232 1_455
Br24 Ce23 3.058081 1_555
Br24 Ce17 3.166613 1_554
Br24 Ce21 3.328662 1_565
Br24 Ce6 3.334232 1_454
Br25 Ce8 2.930380 1_555
Br25 Ce0 3.076945 1_555
Br25 Ce10 3.228784 1_555
Br26 Ce21 3.063435 1_655
Br26 Ce3 3.085502 1_554
Br26 Ce7 3.104037 1_555
Br26 Ce9 3.365889 1_555
Br27 Ce12 3.058081 1_555
Br27 Ce9 3.166613 1_556
Br27 Ce6 3.328662 1_545
Br27 Ce21 3.334232 1_656
Br28 Ce3 2.951844 1_555
Br28 Ce12 2.953098 1_555
Br28 Ce5 3.623352 1_555
Br29 Ce13 2.951844 1_555
Br29 Ce20 2.953098 1_555
Br29 Ce0 3.623352 1_555
Br30 Ce5 3.061138 1_455
Br30 Ce16 3.134012 1_555
Br30 Ce1 3.281213 1_555
Br31 Ce4 3.058081 1_555
Br31 Ce22 3.166613 1_555
Br31 Ce10 3.328662 1_545
Br31 Ce18 3.334232 1_555
Br32 Ce9 2.930380 1_555
Br32 Ce23 3.076945 1_545
Br32 Ce3 3.228784 1_554
Br33 Ce18 2.951844 1_555
Br33 Ce0 2.953098 1_555
Br33 Ce20 3.623352 1_545
Br34 Ce0 3.061138 1_555
Br34 Ce8 3.134012 1_555
Br34 Ce15 3.281213 1_555
Br35 Ce4 3.061138 1_655
Br35 Ce14 3.134012 1_545
Br35 Ce12 3.281213 1_555
Br36 Ce2 3.063435 1_555
Br36 Ce6 3.085502 1_554
Br36 Ce9 3.104037 1_565
Br36 Ce7 3.365889 1_555
Br37 Ce2 2.951844 1_555
Br37 Ce23 2.953098 1_555
Br37 Ce15 3.623352 1_555
Br38 Ce17 2.930380 1_555
Br38 Ce12 3.076945 1_565
Br38 Ce2 3.228784 1_556
Br39 Ce10 2.951844 1_555
Br39 Ce1 2.953098 1_555
Br39 Ce4 3.623352 1_565
Br40 Ce20 3.058081 1_555
Br40 Ce14 3.166613 1_555
Br40 Ce18 3.328662 1_565
Br40 Ce10 3.334232 1_555
Br41 Ce19 2.951844 1_555
Br41 Ce4 2.953098 1_555
Br41 Ce1 3.623352 1_555
Br42 Ce7 2.930380 1_455
Br42 Ce15 3.076945 1_555
Br42 Ce6 3.228784 1_454
Br43 Ce15 3.061138 1_655
Br43 Ce7 3.134012 1_555
Br43 Ce0 3.281213 1_555
Br44 Ce20 3.061138 1_455
Br44 Ce22 3.134012 1_565
Br44 Ce23 3.281213 1_555
Br45 Ce16 2.930380 1_655
Br45 Ce5 3.076945 1_555
Br45 Ce21 3.228784 1_656
Br46 Ce6 3.063435 1_455
Br46 Ce2 3.085502 1_556
Br46 Ce16 3.104037 1_555
Br46 Ce17 3.365889 1_555
Br47 Ce5 3.094411 1_555
Br47 Ce19 3.114348 1_655
Br47 Ce11 3.181200 1_555
