# generated using pymatgen
data_NaFe3H6(SO7)2
_symmetry_space_group_name_H-M   'P 1'
_cell_length_a   7.03275443
_cell_length_b   7.03275443
_cell_length_c   7.03275465
_cell_angle_alpha   63.59791621
_cell_angle_beta   63.59791621
_cell_angle_gamma   63.59791594
_symmetry_Int_Tables_number   1
_chemical_formula_structural   NaFe3H6(SO7)2
_chemical_formula_sum   'Na1 Fe3 H6 S2 O14'
_cell_volume   265.51178757
_cell_formula_units_Z   1
loop_
 _symmetry_equiv_pos_site_id
 _symmetry_equiv_pos_as_xyz
  1  'x, y, z'
loop_
 _atom_site_type_symbol
 _atom_site_label
 _atom_site_symmetry_multiplicity
 _atom_site_fract_x
 _atom_site_fract_y
 _atom_site_fract_z
 _atom_site_occupancy
  Na  Na0  1  0.00000000  0.00000000  0.00000000  1
  Fe  Fe0  1  0.00000000  0.00000000  0.50000000  1
  Fe  Fe1  1  0.50000000  0.00000000  0.00000000  1
  Fe  Fe2  1  0.00000000  0.50000000  0.00000000  1
  H  H0  1  0.71710300  0.30588800  0.30588800  1
  H  H1  1  0.28289700  0.69411200  0.69411200  1
  H  H2  1  0.69411200  0.28289700  0.69411200  1
  H  H3  1  0.30588800  0.30588800  0.71710300  1
  H  H4  1  0.69411200  0.69411200  0.28289700  1
  H  H5  1  0.30588800  0.71710300  0.30588800  1
  S  S0  1  0.68715200  0.68715200  0.68715200  1
  S  S1  1  0.31284800  0.31284800  0.31284800  1
  O  O0  1  0.25706300  0.88154300  0.25706300  1
  O  O1  1  0.17326500  0.17326500  0.50266800  1
  O  O2  1  0.88154300  0.25706300  0.25706300  1
  O  O3  1  0.82673500  0.49733200  0.82673500  1
  O  O4  1  0.74293700  0.11845700  0.74293700  1
  O  O5  1  0.11845700  0.74293700  0.74293700  1
  O  O6  1  0.40113400  0.40113400  0.40113400  1
  O  O7  1  0.49733200  0.82673500  0.82673500  1
  O  O8  1  0.74293700  0.74293700  0.11845700  1
  O  O9  1  0.25706300  0.25706300  0.88154300  1
  O  O10  1  0.59886600  0.59886600  0.59886600  1
  O  O11  1  0.82673500  0.82673500  0.49733200  1
  O  O12  1  0.50266800  0.17326500  0.17326500  1
  O  O13  1  0.17326500  0.50266800  0.17326500  1
loop_
_geom_bond_atom_site_label_1
_geom_bond_atom_site_label_2
_geom_bond_distance
_geom_bond_site_symmetry_2
Na0 O9 2.731039 1_554
Na0 O8 2.731039 1_445
Na0 O2 2.731039 1_455
Na0 O0 2.731039 1_545
Na0 O4 2.731039 1_454
Na0 O5 2.731039 1_544
Na0 O13 2.990457 1_545
Na0 O12 2.990457 1_455
Na0 O7 2.990457 1_544
Na0 O3 2.990457 1_454
Na0 O11 2.990457 1_445
Na0 O1 2.990457 1_554
Fe0 O5 2.015158 1_545
Fe0 O4 2.015158 1_455
Fe0 O2 2.015158 1_455
Fe0 O0 2.015158 1_545
Fe0 O1 2.081142 1_555
Fe0 O11 2.081142 1_445
Fe1 O8 2.015158 1_545
Fe1 O9 2.015158 1_554
Fe1 O4 2.015158 1_554
Fe1 O0 2.015158 1_545
Fe1 O12 2.081142 1_555
Fe1 O7 2.081142 1_544
Fe2 O8 2.015158 1_455
Fe2 O9 2.015158 1_554
Fe2 O5 2.015158 1_554
Fe2 O2 2.015158 1_455
Fe2 O13 2.081142 1_555
Fe2 O3 2.081142 1_454
H0 O2 0.985785 1_555
H1 O5 0.985785 1_555
H2 O4 0.985785 1_555
H3 O9 0.985785 1_555
H4 O8 0.985785 1_555
H5 O0 0.985785 1_555
O1 S1 1.495163 1_555
O3 S0 1.495163 1_555
O6 S1 1.478198 1_555
O7 S0 1.495163 1_555
O10 S0 1.478198 1_555
O11 S0 1.495163 1_555
O12 S1 1.495163 1_555
O13 S1 1.495163 1_555
