# generated using pymatgen
data_Sb26O53
_symmetry_space_group_name_H-M   'P 1'
_cell_length_a   4.97978000
_cell_length_b   5.54024300
_cell_length_c   39.97684109
_cell_angle_alpha   92.68941714
_cell_angle_beta   93.02571289
_cell_angle_gamma   90.07700466
_symmetry_Int_Tables_number   1
_chemical_formula_structural   Sb26O53
_chemical_formula_sum   'Sb26 O53'
_cell_volume   1100.16998770
_cell_formula_units_Z   1
loop_
 _symmetry_equiv_pos_site_id
 _symmetry_equiv_pos_as_xyz
  1  'x, y, z'
loop_
 _atom_site_type_symbol
 _atom_site_label
 _atom_site_symmetry_multiplicity
 _atom_site_fract_x
 _atom_site_fract_y
 _atom_site_fract_z
 _atom_site_occupancy
  Sb  Sb0  1  0.23254800  0.02597100  0.86907200  1
  Sb  Sb1  1  0.17640600  0.47442500  0.93776000  1
  Sb  Sb2  1  0.65668400  0.70473700  0.72155600  1
  Sb  Sb3  1  0.65493600  0.11518400  0.79553300  1
  Sb  Sb4  1  0.65213300  0.54023200  0.86867700  1
  Sb  Sb5  1  0.73588300  0.98778600  0.94563400  1
  Sb  Sb6  1  0.07534900  0.39622800  0.57281000  1
  Sb  Sb7  1  0.07479800  0.80079100  0.64643200  1
  Sb  Sb8  1  0.07123800  0.20525300  0.72015600  1
  Sb  Sb9  1  0.15262700  0.61334000  0.79501900  1
  Sb  Sb10  1  0.49023400  0.09436700  0.42411700  1
  Sb  Sb11  1  0.49197700  0.49610100  0.49754900  1
  Sb  Sb12  1  0.49082300  0.89794400  0.57106000  1
  Sb  Sb13  1  0.57419300  0.30074200  0.64643400  1
  Sb  Sb14  1  0.91001100  0.79881800  0.27570800  1
  Sb  Sb15  1  0.90520300  0.19560900  0.34863600  1
  Sb  Sb16  1  0.90562300  0.59611700  0.42184000  1
  Sb  Sb17  1  0.99125000  0.99593100  0.49751100  1
  Sb  Sb18  1  0.33892200  0.87554600  0.20104600  1
  Sb  Sb19  1  0.32744900  0.29348200  0.27291300  1
  Sb  Sb20  1  0.40463700  0.69536500  0.34860800  1
  Sb  Sb21  1  0.72516200  0.64732100  0.08117000  1
  Sb  Sb22  1  0.80976100  0.99826400  0.14236000  1
  Sb  Sb23  1  0.81658800  0.39697200  0.20081500  1
  Sb  Sb24  1  0.24929600  0.59159100  0.01275300  1
  Sb  Sb25  1  0.27907000  0.12382200  0.06049700  1
  O  O0  1  0.51960000  0.86661200  0.89908300  1
  O  O1  1  0.46565400  0.61700000  0.96785000  1
  O  O2  1  0.39520300  0.36940000  0.89970000  1
  O  O3  1  0.97402400  0.55162400  0.74826800  1
  O  O4  1  0.96363800  0.32895600  0.81230200  1
  O  O5  1  0.78874300  0.04966700  0.74871300  1
  O  O6  1  0.99193300  0.75730200  0.92282700  1
  O  O7  1  0.85984900  0.82737100  0.81254200  1
  O  O8  1  0.02246700  0.38582100  0.97930200  1
  O  O9  1  0.93383300  0.22520900  0.91639700  1
  O  O10  1  0.39025100  0.24100200  0.59981100  1
  O  O11  1  0.05646300  0.89309700  0.99460000  1
  O  O12  1  0.37446200  0.02222400  0.66426400  1
  O  O13  1  0.21241200  0.73930900  0.59994600  1
  O  O14  1  0.44619500  0.39896400  0.77815400  1
  O  O15  1  0.29066400  0.52219000  0.66435600  1
  O  O16  1  0.53121100  0.18268800  0.84281000  1
  O  O17  1  0.34673100  0.89938000  0.77870600  1
  O  O18  1  0.80608200  0.93823200  0.45086400  1
  O  O19  1  0.32438400  0.67512600  0.84251300  1
  O  O20  1  0.79032400  0.71848700  0.51536800  1
  O  O21  1  0.62949100  0.43624700  0.45104400  1
  O  O22  1  0.85906900  0.08010300  0.62888700  1
  O  O23  1  0.70922400  0.21815900  0.51545400  1
  O  O24  1  0.93600700  0.86346800  0.69309800  1
  O  O25  1  0.77478400  0.57941000  0.62894800  1
  O  O26  1  0.22098700  0.63877100  0.30206200  1
  O  O27  1  0.75804500  0.36209100  0.69324800  1
  O  O28  1  0.20282200  0.41833700  0.36644600  1
  O  O29  1  0.04329000  0.13611200  0.30217100  1
  O  O30  1  0.27529200  0.77495500  0.47994900  1
  O  O31  1  0.12278700  0.91772000  0.36651700  1
  O  O32  1  0.35407600  0.55617800  0.54420700  1
  O  O33  1  0.19306700  0.27393800  0.48001500  1
  O  O34  1  0.66943800  0.32360900  0.15409800  1
  O  O35  1  0.17602200  0.05463800  0.54435500  1
  O  O36  1  0.61725200  0.11704900  0.21955400  1
  O  O37  1  0.50481100  0.82385000  0.15763200  1
  O  O38  1  0.68851200  0.47423800  0.33113100  1
  O  O39  1  0.52854900  0.59714700  0.22052500  1
  O  O40  1  0.76706000  0.25471400  0.39522700  1
  O  O41  1  0.60750700  0.97244200  0.33088900  1
  O  O42  1  0.97418200  0.03125600  0.02423000  1
  O  O43  1  0.58985500  0.75313200  0.39540000  1
  O  O44  1  0.02603100  0.55823600  0.05206100  1
  O  O45  1  0.09203400  0.13881800  0.18024400  1
  O  O46  1  0.18895200  0.95698700  0.24672800  1
  O  O47  1  0.01046200  0.68528200  0.18743400  1
  O  O48  1  0.00963900  0.44466300  0.24657900  1
  O  O49  1  0.48271000  0.82773800  0.03989400  1
  O  O50  1  0.01969000  0.75207100  0.11984700  1
  O  O51  1  0.47401900  0.32752500  0.02902600  1
  O  O52  1  0.66664500  0.02312900  0.09471900  1
loop_
_geom_bond_atom_site_label_1
_geom_bond_atom_site_label_2
_geom_bond_distance
_geom_bond_site_symmetry_2
O0 Sb0 2.045476 1_565
O0 Sb5 2.177868 1_555
O0 Sb4 2.250426 1_555
O1 Sb1 1.967360 1_555
O1 Sb24 2.151844 1_556
O1 Sb5 2.666363 1_555
O2 Sb1 1.983522 1_555
O2 Sb4 2.084535 1_555
O2 Sb0 2.334092 1_555
O3 Sb9 2.040755 1_655
O3 Sb2 2.065834 1_555
O3 Sb8 2.244410 1_655
O4 Sb9 2.003067 1_655
O4 Sb3 2.006758 1_555
O5 Sb3 2.036572 1_555
O5 Sb8 2.069764 1_655
O5 Sb2 2.233735 1_545
O6 Sb1 1.920985 1_655
O6 Sb5 2.026208 1_555
O7 Sb9 2.014198 1_655
O7 Sb3 2.019676 1_565
O8 Sb1 1.948459 1_555
O8 Sb24 2.014405 1_556
O9 Sb1 1.967450 1_655
O9 Sb5 2.080973 1_545
O9 Sb0 2.667589 1_655
O10 Sb13 2.045372 1_555
O10 Sb6 2.067809 1_555
O10 Sb12 2.245570 1_545
O11 O42 1.457342 1_466
O11 Sb24 2.069673 1_556
O11 Sb5 2.534621 1_455
O12 Sb7 2.010161 1_545
O12 Sb13 2.013029 1_555
O13 Sb7 2.028503 1_555
O13 Sb12 2.071009 1_555
O13 Sb6 2.231678 1_555
O14 Sb9 2.008958 1_555
O14 Sb3 2.016363 1_555
O15 Sb13 2.010224 1_555
O15 Sb7 2.019497 1_555
O16 Sb3 2.036845 1_555
O16 Sb0 2.077256 1_555
O16 Sb4 2.257132 1_555
O17 Sb9 2.007581 1_555
O17 Sb3 2.012008 1_565
O18 Sb17 2.047355 1_555
O18 Sb10 2.068422 1_565
O18 Sb16 2.245302 1_555
O19 Sb4 2.052504 1_555
O19 Sb9 2.054368 1_555
O19 Sb0 2.230393 1_565
O20 Sb11 2.008418 1_555
O20 Sb17 2.011885 1_555
O21 Sb11 2.027904 1_555
O21 Sb16 2.074029 1_555
O21 Sb10 2.225666 1_555
O22 Sb13 2.006998 1_555
O22 Sb7 2.016789 1_645
O23 Sb17 2.007712 1_545
O23 Sb11 2.019922 1_555
O24 Sb7 2.038271 1_655
O24 Sb2 2.063995 1_555
O24 Sb8 2.221852 1_665
O25 Sb7 2.007308 1_655
O25 Sb13 2.010196 1_555
O26 Sb20 2.040086 1_555
O26 Sb14 2.052672 1_455
O26 Sb19 2.270951 1_555
O27 Sb13 2.052986 1_555
O27 Sb8 2.063697 1_655
O27 Sb2 2.236162 1_555
O28 Sb15 2.006836 1_455
O28 Sb20 2.012057 1_555
O29 Sb15 2.027288 1_455
O29 Sb19 2.097067 1_555
O29 Sb14 2.188308 1_445
O30 Sb17 2.005310 1_455
O30 Sb11 2.018042 1_555
O31 Sb20 2.007006 1_555
O31 Sb15 2.020216 1_465
O32 Sb11 2.034467 1_555
O32 Sb6 2.068491 1_555
O32 Sb12 2.220348 1_555
O33 Sb11 2.006467 1_555
O33 Sb17 2.010643 1_445
O34 Sb22 1.978909 1_545
O34 Sb23 1.993382 1_555
O35 Sb17 2.054133 1_445
O35 Sb12 2.065143 1_545
O35 Sb6 2.233290 1_555
O36 Sb18 2.013096 1_545
O36 Sb23 2.033480 1_555
O37 Sb22 1.939552 1_555
O37 Sb18 1.970266 1_555
O38 Sb20 2.003989 1_555
O38 Sb15 2.015731 1_555
O39 Sb18 1.978910 1_555
O39 Sb23 1.987405 1_555
O40 Sb15 2.031805 1_555
O40 Sb10 2.069896 1_555
O40 Sb16 2.217152 1_555
O41 Sb15 2.007845 1_565
O41 Sb20 2.013016 1_555
O42 Sb25 2.089485 1_655
O43 Sb20 2.052599 1_555
O43 Sb16 2.064236 1_555
O43 Sb10 2.235419 1_565
O44 Sb24 1.987646 1_555
O44 Sb21 1.993664 1_455
O45 Sb18 2.083579 1_545
O45 Sb22 2.130154 1_445
O45 Sb23 2.148787 1_455
O46 Sb18 2.040580 1_555
O46 Sb14 2.073999 1_455
O46 Sb19 2.187262 1_565
O47 Sb23 1.974891 1_455
O47 Sb18 1.982476 1_555
O48 Sb23 2.027156 1_455
O48 Sb19 2.055467 1_555
O48 Sb14 2.302436 1_455
O49 Sb24 1.992372 1_555
O49 Sb25 2.088886 1_565
O49 Sb21 2.264356 1_555
O50 Sb22 1.936809 1_455
O50 Sb21 2.133716 1_455
O51 Sb24 1.957735 1_555
O51 Sb25 2.014497 1_555
O52 Sb22 2.008918 1_545
O52 Sb21 2.150759 1_545
O52 Sb25 2.388240 1_555
