# generated using pymatgen
data_La39Se56
_symmetry_space_group_name_H-M   'P 1'
_cell_length_a   7.88348528
_cell_length_b   7.88648989
_cell_length_c   55.10618151
_cell_angle_alpha   109.34806974
_cell_angle_beta   109.68223318
_cell_angle_gamma   109.39775146
_symmetry_Int_Tables_number   1
_chemical_formula_structural   La39Se56
_chemical_formula_sum   'La39 Se56'
_cell_volume   2636.93878106
_cell_formula_units_Z   1
loop_
 _symmetry_equiv_pos_site_id
 _symmetry_equiv_pos_as_xyz
  1  'x, y, z'
loop_
 _atom_site_type_symbol
 _atom_site_label
 _atom_site_symmetry_multiplicity
 _atom_site_fract_x
 _atom_site_fract_y
 _atom_site_fract_z
 _atom_site_occupancy
  La  La0  1  0.13022137  0.75209567  0.98285859  1
  La  La1  1  0.12241000  0.74781804  0.83880334  1
  La  La2  1  0.24898076  0.62355779  0.91013420  1
  La  La3  1  0.37563989  0.25118368  0.94648670  1
  La  La4  1  0.24945408  0.62532752  0.76791826  1
  La  La5  1  0.12666744  0.75082015  0.69684187  1
  La  La6  1  0.62398416  0.37414737  0.89217349  1
  La  La7  1  0.37430386  0.24976457  0.80349303  1
  La  La8  1  0.74738157  0.87027435  0.87401209  1
  La  La9  1  0.12196386  0.74951568  0.55264090  1
  La  La10  1  0.87689128  0.12619594  0.96445806  1
  La  La11  1  0.25237807  0.63013018  0.62607880  1
  La  La12  1  0.75075361  0.87596125  0.73259304  1
  La  La13  1  0.37570369  0.25070142  0.66115480  1
  La  La14  1  0.62465328  0.37481245  0.75018620  1
  La  La15  1  0.87406665  0.12495876  0.82109830  1
  La  La16  1  0.23738676  0.61448659  0.47799885  1
  La  La17  1  0.36772882  0.24855823  0.51604582  1
  La  La18  1  0.75197008  0.87737477  0.58959214  1
  La  La19  1  0.62856755  0.37702941  0.60758013  1
  La  La20  1  0.87972728  0.12885546  0.67912379  1
  La  La21  1  0.23532876  0.61995448  0.33819010  1
  La  La22  1  0.73722391  0.85510399  0.44155260  1
  La  La23  1  0.36053067  0.24280715  0.37213016  1
  La  La24  1  0.60767917  0.34882238  0.46098328  1
  La  La25  1  0.87586781  0.12403439  0.53531196  1
  La  La26  1  0.24380426  0.63376899  0.19782359  1
  La  La27  1  0.74662280  0.86904047  0.30133310  1
  La  La28  1  0.37816569  0.25013794  0.23280193  1
  La  La29  1  0.62339662  0.36282470  0.32118032  1
  La  La30  1  0.87910652  0.12681262  0.39184403  1
  La  La31  1  0.25165812  0.64069795  0.05771427  1
  La  La32  1  0.75247852  0.88058401  0.16120946  1
  La  La33  1  0.39150802  0.25774348  0.09312764  1
  La  La34  1  0.62694998  0.36917282  0.18027712  1
  La  La35  1  0.88599768  0.13626870  0.25127114  1
  La  La36  1  0.75453863  0.88418595  0.01906908  1
  La  La37  1  0.63902745  0.38623573  0.03875177  1
  La  La38  1  0.89299526  0.14000982  0.11060570  1
  Se  Se0  1  0.99934954  0.85036448  0.92847145  1
  Se  Se1  1  0.99888761  0.35013381  0.92843233  1
  Se  Se2  1  0.49864665  0.00081716  0.97773958  1
  Se  Se3  1  0.00011571  0.84886731  0.78579524  1
  Se  Se4  1  0.15062562  0.15102205  0.87884720  1
  Se  Se5  1  0.00028174  0.34883460  0.78575178  1
  Se  Se6  1  0.34904289  0.50069866  0.85735039  1
  Se  Se7  1  0.64747211  0.64784540  0.94934380  1
  Se  Se8  1  0.99905638  0.84884776  0.64289615  1
  Se  Se9  1  0.99976411  0.34837077  0.64278124  1
  Se  Se10  1  0.15039247  0.15035414  0.73582171  1
  Se  Se11  1  0.50071282  0.00042036  0.90699936  1
  Se  Se12  1  0.34876638  0.50015147  0.71419912  1
  Se  Se13  1  0.65140253  0.65116484  0.80742689  1
  Se  Se14  1  0.50026968  0.00037144  0.83570117  1
  Se  Se15  1  0.00431697  0.85776855  0.50115520  1
  Se  Se16  1  0.84901332  0.49990911  0.85726443  1
  Se  Se17  1  0.49919266  0.99923731  0.76409006  1
  Se  Se18  1  0.15365254  0.15336024  0.59356393  1
  Se  Se19  1  0.00381397  0.35916950  0.50125354  1
  Se  Se20  1  0.35424991  0.50144296  0.57188230  1
  Se  Se21  1  0.65082344  0.65063568  0.66429281  1
  Se  Se22  1  0.49918888  0.99984727  0.69261732  1
  Se  Se23  1  0.99619745  0.85471535  0.35600954  1
  Se  Se24  1  0.84830023  0.49908896  0.71417875  1
  Se  Se25  1  0.50022269  0.00012243  0.62154505  1
  Se  Se26  1  0.15846206  0.16482393  0.45283667  1
  Se  Se27  1  0.00132356  0.34383809  0.35738343  1
  Se  Se28  1  0.35889902  0.49822796  0.42966438  1
  Se  Se29  1  0.50386942  0.00401502  0.55146289  1
  Se  Se30  1  0.65673891  0.65869209  0.52294183  1
  Se  Se31  1  0.99367617  0.85175428  0.21243919  1
  Se  Se32  1  0.85467738  0.50170298  0.57198922  1
  Se  Se33  1  0.51292166  0.00915167  0.48172258  1
  Se  Se34  1  0.15552173  0.15799073  0.30810703  1
  Se  Se35  1  0.99960366  0.34155781  0.21363976  1
  Se  Se36  1  0.35976726  0.49426311  0.28650543  1
  Se  Se37  1  0.50386839  0.00221095  0.40721899  1
  Se  Se38  1  0.63648108  0.64761834  0.37771791  1
  Se  Se39  1  0.99318980  0.85180686  0.06953461  1
  Se  Se40  1  0.84638995  0.50214782  0.42975104  1
  Se  Se41  1  0.14889052  0.15213052  0.16430177  1
  Se  Se42  1  0.50831309  0.00414680  0.33808005  1
  Se  Se43  1  0.99446477  0.33555587  0.06948338  1
  Se  Se44  1  0.35708013  0.49267736  0.14307440  1
  Se  Se45  1  0.50289002  0.00143381  0.26363389  1
  Se  Se46  1  0.63277416  0.64323553  0.23396994  1
  Se  Se47  1  0.84260858  0.49844751  0.28585770  1
  Se  Se48  1  0.50918111  0.00421602  0.19450884  1
  Se  Se49  1  0.14428625  0.14111453  0.01925171  1
  Se  Se50  1  0.35195960  0.49709520  0.99943868  1
  Se  Se51  1  0.50072596  0.99846043  0.11969040  1
  Se  Se52  1  0.63260222  0.63903672  0.09076653  1
  Se  Se53  1  0.84153229  0.49553125  0.14213536  1
  Se  Se54  1  0.49503032  0.99577766  0.04841717  1
  Se  Se55  1  0.84979872  0.49600273  0.99904420  1
loop_
_geom_bond_atom_site_label_1
_geom_bond_atom_site_label_2
_geom_bond_distance
_geom_bond_site_symmetry_2
La0 Se49 2.999028 1_566
La0 Se55 3.052521 1_455
La0 Se2 3.081777 1_565
La0 Se1 3.089462 1_455
La0 Se54 3.121777 1_556
La0 Se50 3.226715 1_555
La0 Se0 3.261101 1_455
La0 Se7 3.278942 1_455
La1 Se5 3.061198 1_555
La1 Se14 3.081790 1_565
La1 Se16 3.081995 1_455
La1 Se4 3.095227 1_565
La1 Se3 3.202041 1_555
La1 Se13 3.206278 1_455
La1 Se6 3.230743 1_555
La1 Se11 3.244846 1_565
La2 Se16 3.044397 1_455
La2 Se7 3.054186 1_555
La2 Se11 3.074887 1_565
La2 Se1 3.083783 1_455
La2 Se6 3.194924 1_555
La2 Se4 3.222483 1_555
La2 Se2 3.229793 1_565
La2 Se0 3.251704 1_455
La3 Se50 3.027923 1_555
La3 Se7 3.065388 1_555
La3 Se0 3.079921 1_445
La3 Se11 3.083396 1_555
La3 Se2 3.194567 1_555
La3 Se55 3.208884 1_555
La3 Se4 3.213766 1_555
La3 Se1 3.237896 1_455
La4 Se24 3.067373 1_455
La4 Se17 3.074393 1_555
La4 Se13 3.074506 1_555
La4 Se5 3.074788 1_555
La4 Se3 3.224549 1_555
La4 Se14 3.229530 1_565
La4 Se12 3.238651 1_555
La4 Se10 3.241319 1_555
La5 Se10 3.070909 1_565
La5 Se24 3.073269 1_455
La5 Se22 3.077046 1_555
La5 Se9 3.093134 1_455
La5 Se17 3.198818 1_555
La5 Se12 3.211342 1_555
La5 Se8 3.236027 1_455
La5 Se21 3.236289 1_455
La6 Se6 3.046439 1_555
La6 Se14 3.048347 1_555
La6 Se1 3.067256 1_555
La6 Se7 3.074793 1_555
La6 Se16 3.197776 1_555
La6 Se4 3.239963 1_555
La6 Se0 3.242798 1_555
La6 Se11 3.244506 1_555
La7 Se3 3.077825 1_545
La7 Se13 3.077841 1_555
La7 Se17 3.078527 1_545
La7 Se6 3.087468 1_555
La7 Se10 3.216558 1_555
La7 Se5 3.217934 1_555
La7 Se14 3.229238 1_555
La7 Se16 3.229581 1_555
La8 Se14 3.049163 1_565
La8 Se6 3.066671 1_555
La8 Se4 3.072833 1_665
La8 Se0 3.079051 1_555
La8 Se13 3.175218 1_555
La8 Se16 3.208059 1_555
La8 Se11 3.257307 1_565
La8 Se1 3.276717 1_565
La9 Se19 2.984243 1_555
La9 Se29 3.049802 1_565
La9 Se32 3.091130 1_455
La9 Se18 3.102342 1_565
La9 Se15 3.161814 1_555
La9 Se30 3.174550 1_455
La9 Se25 3.271319 1_565
La9 Se20 3.278968 1_555
La10 Se49 2.981113 1_656
La10 Se55 3.031298 1_555
La10 Se0 3.069668 1_545
La10 Se11 3.073113 1_555
La10 Se2 3.224304 1_555
La10 Se50 3.228373 1_655
La10 Se1 3.235161 1_555
La10 Se7 3.250807 1_545
La11 Se21 3.051006 1_555
La11 Se32 3.055394 1_455
La11 Se9 3.066148 1_455
La11 Se25 3.069077 1_565
La11 Se22 3.173922 1_555
La11 Se8 3.209057 1_455
La11 Se18 3.256800 1_555
La11 Se20 3.277682 1_555
La12 Se3 3.052428 1_655
La12 Se12 3.075914 1_555
La12 Se10 3.078813 1_665
La12 Se22 3.083966 1_555
La12 Se5 3.219513 1_665
La12 Se17 3.220565 1_555
La12 Se24 3.240443 1_555
La12 Se21 3.253523 1_555
La13 Se12 3.056947 1_555
La13 Se8 3.081692 1_445
La13 Se25 3.083347 1_555
La13 Se21 3.086124 1_555
La13 Se24 3.206607 1_555
La13 Se22 3.206669 1_545
La13 Se18 3.216765 1_555
La13 Se9 3.227056 1_455
La14 Se5 3.067866 1_655
La14 Se13 3.071740 1_555
La14 Se12 3.076009 1_555
La14 Se22 3.084566 1_545
La14 Se17 3.225958 1_545
La14 Se10 3.228105 1_555
La14 Se3 3.234960 1_655
La14 Se24 3.240943 1_555
La15 Se17 3.053174 1_545
La15 Se3 3.073398 1_645
La15 Se16 3.082723 1_555
La15 Se4 3.085149 1_655
La15 Se5 3.212269 1_655
La15 Se6 3.234365 1_655
La15 Se14 3.239555 1_555
La15 Se13 3.240048 1_545
La16 Se40 2.908593 1_455
La16 Se33 3.038725 1_565
La16 Se28 3.088144 1_555
La16 Se26 3.095274 1_555
La16 Se19 3.150181 1_555
La16 Se30 3.214292 1_555
La16 Se15 3.314261 1_555
La16 Se29 3.461687 1_565
La17 Se33 2.996676 1_555
La17 Se26 3.028515 1_555
La17 Se15 3.042265 1_545
La17 Se30 3.082979 1_555
La17 Se20 3.122691 1_555
La17 Se19 3.195995 1_555
La17 Se32 3.329503 1_555
La17 Se29 3.337436 1_555
La18 Se29 3.026167 1_565
La18 Se8 3.057438 1_555
La18 Se20 3.069217 1_555
La18 Se18 3.074448 1_665
La18 Se30 3.180115 1_555
La18 Se9 3.211500 1_565
La18 Se25 3.236829 1_565
La18 Se32 3.254622 1_555
La19 Se29 3.030973 1_555
La19 Se9 3.046866 1_555
La19 Se20 3.054835 1_555
La19 Se21 3.060169 1_555
La19 Se8 3.212108 1_555
La19 Se32 3.234091 1_555
La19 Se18 3.238519 1_555
La19 Se25 3.239444 1_555
La20 Se10 3.043282 1_655
La20 Se24 3.063334 1_555
La20 Se8 3.077460 1_545
La20 Se25 3.082647 1_555
La20 Se12 3.197866 1_655
La20 Se9 3.223213 1_555
La20 Se22 3.250282 1_545
La20 Se21 3.254501 1_545
La21 Se47 3.000671 1_455
La21 Se38 3.062702 1_555
La21 Se27 3.071774 1_555
La21 Se42 3.082461 1_565
La21 Se34 3.192230 1_555
La21 Se23 3.210413 1_455
La21 Se36 3.273258 1_555
La21 Se37 3.282894 1_565
La22 Se37 2.972795 1_565
La22 Se38 3.020472 1_555
La22 Se28 3.021955 1_555
La22 Se26 3.097651 1_665
La22 Se40 3.111381 1_555
La22 Se15 3.238542 1_655
La22 Se33 3.432871 1_565
La22 Se19 3.488620 1_665
La23 Se42 3.001619 1_555
La23 Se23 3.007800 1_445
La23 Se38 3.050207 1_555
La23 Se34 3.063336 1_555
La23 Se27 3.113201 1_555
La23 Se28 3.150040 1_555
La23 Se37 3.316567 1_555
La23 Se40 3.352168 1_555
La24 Se37 2.904179 1_555
La24 Se28 2.969160 1_555
La24 Se19 3.118716 1_655
La24 Se26 3.151607 1_555
La24 Se40 3.164638 1_555
La24 Se33 3.211641 1_555
La24 Se30 3.276135 1_555
La24 Se15 3.449848 1_655
La25 Se33 2.922675 1_555
La25 Se15 3.009192 1_645
La25 Se32 3.090847 1_555
La25 Se18 3.096767 1_655
La25 Se30 3.202369 1_545
La25 Se19 3.212093 1_655
La25 Se20 3.254682 1_655
La25 Se29 3.280394 1_555
La26 Se46 3.001873 1_555
La26 Se35 3.048085 1_455
La26 Se48 3.081657 1_565
La26 Se53 3.097438 1_455
La26 Se45 3.136891 1_565
La26 Se31 3.145877 1_455
La26 Se41 3.306363 1_555
La26 Se44 3.374677 1_555
La27 Se45 3.029701 1_565
La27 Se23 3.056481 1_555
La27 Se36 3.072181 1_555
La27 Se34 3.077320 1_665
La27 Se46 3.173406 1_555
La27 Se47 3.177123 1_555
La27 Se27 3.279889 1_665
La27 Se42 3.350833 1_565
La28 Se36 3.030688 1_555
La28 Se46 3.048175 1_555
La28 Se31 3.060233 1_445
La28 Se48 3.060739 1_555
La28 Se47 3.165687 1_555
La28 Se45 3.172458 1_555
La28 Se35 3.217508 1_455
La28 Se41 3.264385 1_555
La29 Se36 3.018856 1_555
La29 Se45 3.043885 1_555
La29 Se27 3.060987 1_655
La29 Se38 3.123290 1_555
La29 Se34 3.196019 1_555
La29 Se42 3.209667 1_555
La29 Se47 3.215121 1_555
La29 Se23 3.326233 1_555
La30 Se42 2.940594 1_555
La30 Se23 3.015328 1_545
La30 Se27 3.123251 1_655
La30 Se40 3.156743 1_555
La30 Se26 3.185047 1_655
La30 Se28 3.242804 1_655
La30 Se37 3.277709 1_555
La30 Se38 3.285236 1_545
La31 Se52 2.948558 1_555
La31 Se51 2.982969 1_555
La31 Se43 3.000296 1_455
La31 Se39 3.126828 1_455
La31 Se54 3.135182 1_555
La31 Se55 3.169558 1_454
La31 Se49 3.431470 1_555
La31 Se50 3.480812 1_554
La32 Se31 2.955270 1_555
La32 Se41 3.055407 1_665
La32 Se51 3.100658 1_555
La32 Se44 3.100904 1_555
La32 Se35 3.147008 1_565
La32 Se48 3.228663 1_565
La32 Se53 3.258459 1_555
La32 Se52 3.320220 1_555
La33 Se44 2.922377 1_555
La33 Se53 3.027818 1_555
La33 Se52 3.049798 1_555
La33 Se51 3.060909 1_545
La33 Se39 3.100684 1_445
La33 Se54 3.179054 1_545
La33 Se43 3.306086 1_455
La33 Se49 3.493022 1_555
La34 Se46 3.005550 1_555
La34 Se35 3.018321 1_555
La34 Se44 3.072382 1_555
La34 Se48 3.157906 1_555
La34 Se51 3.169618 1_545
La34 Se41 3.223373 1_555
La34 Se31 3.279386 1_555
La34 Se53 3.306916 1_555
La35 Se48 3.036557 1_555
La35 Se34 3.045241 1_655
La35 Se47 3.064156 1_555
La35 Se31 3.105110 1_545
La35 Se36 3.188920 1_655
La35 Se35 3.199401 1_555
La35 Se45 3.232543 1_555
La35 Se46 3.334454 1_545
La36 Se39 2.933245 1_555
La36 Se49 3.062138 1_665
La36 Se43 3.066336 1_565
La36 Se50 3.102534 1_554
La36 Se2 3.102977 1_564
La36 Se54 3.171286 1_555
La36 Se7 3.312820 1_554
La36 Se55 3.316740 1_554
La37 Se52 2.927732 1_555
La37 Se43 2.979147 1_555
La37 Se50 3.137839 1_554
La37 Se39 3.166632 1_555
La37 Se54 3.197935 1_545
La37 Se2 3.202420 1_554
La37 Se49 3.300915 1_555
La37 Se55 3.323711 1_554
La38 Se41 2.915124 1_655
La38 Se53 3.007871 1_555
La38 Se44 3.139477 1_655
La38 Se39 3.146518 1_545
La38 Se51 3.190626 1_545
La38 Se54 3.268819 1_545
La38 Se43 3.297064 1_555
La38 Se52 3.355266 1_545
