# generated using pymatgen
data_Re8Pb8O27
_symmetry_space_group_name_H-M   'P 1'
_cell_length_a   7.48603227
_cell_length_b   7.48599465
_cell_length_c   59.86864736
_cell_angle_alpha   59.98882570
_cell_angle_beta   59.98914704
_cell_angle_gamma   60.00004317
_symmetry_Int_Tables_number   1
_chemical_formula_structural   Re8Pb8O27
_chemical_formula_sum   'Re32 Pb32 O108'
_cell_volume   2371.99341833
_cell_formula_units_Z   4
loop_
 _symmetry_equiv_pos_site_id
 _symmetry_equiv_pos_as_xyz
  1  'x, y, z'
loop_
 _atom_site_type_symbol
 _atom_site_label
 _atom_site_symmetry_multiplicity
 _atom_site_fract_x
 _atom_site_fract_y
 _atom_site_fract_z
 _atom_site_occupancy
  Re  Re0  1  0.50062755  0.50060644  0.99976525  1
  Re  Re1  1  0.50025302  0.50022414  0.06245933  1
  Re  Re2  1  0.49972258  0.49972550  0.12510106  1
  Re  Re3  1  0.49948691  0.00009810  0.18761634  1
  Re  Re4  1  0.50022375  0.99987577  0.06245852  1
  Re  Re5  1  0.99985514  0.50021543  0.06246098  1
  Re  Re6  1  0.49947526  0.49946825  0.18761803  1
  Re  Re7  1  0.50023066  -0.00009826  0.31245553  1
  Re  Re8  1  0.50007553  0.50003181  0.24998202  1
  Re  Re9  1  0.00010185  0.49947629  0.18761911  1
  Re  Re10  1  0.50021104  0.50022940  0.31245674  1
  Re  Re11  1  0.50000016  0.50002719  0.37499368  1
  Re  Re12  1  -0.00009404  0.50022540  0.31245542  1
  Re  Re13  1  0.49844830  0.49843281  0.43798867  1
  Re  Re14  1  0.49845168  0.99920809  0.43798857  1
  Re  Re15  1  0.49977631  -0.00054040  0.56262208  1
  Re  Re16  1  0.49937967  0.49936911  0.50023146  1
  Re  Re17  1  0.99919124  0.49845187  0.43799003  1
  Re  Re18  1  0.49978491  0.49977832  0.56262249  1
  Re  Re19  1  0.50005776  0.50005720  0.62498116  1
  Re  Re20  1  -0.00054414  0.49977777  0.56262241  1
  Re  Re21  1  0.50009721  0.50010654  0.68749435  1
  Re  Re22  1  0.49988670  -0.00005531  0.81253196  1
  Re  Re23  1  0.49983558  0.49987223  0.75005235  1
  Re  Re24  1  0.50009795  -0.00014322  0.68749104  1
  Re  Re25  1  -0.00013969  0.50009510  0.68749308  1
  Re  Re26  1  0.49989263  0.49991322  0.81253004  1
  Re  Re27  1  0.50038199  0.50035305  0.87486099  1
  Re  Re28  1  0.50143552  0.00084789  0.93703595  1
  Re  Re29  1  -0.00004175  0.49989740  0.81253080  1
  Re  Re30  1  0.50141005  0.50141898  0.93704137  1
  Re  Re31  1  0.00084337  0.50142715  0.93704038  1
  Pb  Pb0  1  0.00109682  0.00111549  0.00030451  1
  Pb  Pb1  1  0.00111180  0.49536319  0.00030322  1
  Pb  Pb2  1  0.49533505  0.00112312  0.00030463  1
  Pb  Pb3  1  0.00198502  0.00201481  0.12530873  1
  Pb  Pb4  1  0.00156576  0.00163399  0.06189938  1
  Pb  Pb5  1  0.49350544  0.00202390  0.12530734  1
  Pb  Pb6  1  0.00216853  0.00212368  0.25023066  1
  Pb  Pb7  1  0.49387491  0.00213884  0.25022946  1
  Pb  Pb8  1  0.00231453  0.00233637  0.18662486  1
  Pb  Pb9  1  0.00200035  0.49351535  0.12530791  1
  Pb  Pb10  1  0.00633570  0.00635473  0.43512370  1
  Pb  Pb11  1  0.49499526  -0.00015452  0.37566189  1
  Pb  Pb12  1  -0.00242351  -0.00241978  0.50054627  1
  Pb  Pb13  1  0.00212078  0.00212948  0.31169940  1
  Pb  Pb14  1  0.00214838  0.49390273  0.25022834  1
  Pb  Pb15  1  0.99853892  0.99855832  0.56304713  1
  Pb  Pb16  1  -0.00239980  0.50045998  0.50054809  1
  Pb  Pb17  1  -0.00016440  -0.00014588  0.37566611  1
  Pb  Pb18  1  0.50044977  -0.00239676  0.50054894  1
  Pb  Pb19  1  -0.00015674  0.49500142  0.37566298  1
  Pb  Pb20  1  0.49974947  0.00011498  0.62499674  1
  Pb  Pb21  1  0.00067439  0.00055787  0.81226949  1
  Pb  Pb22  1  0.00017197  0.00014840  0.62499551  1
  Pb  Pb23  1  0.50023789  0.99975522  0.75005230  1
  Pb  Pb24  1  0.00166208  0.00166756  0.87440433  1
  Pb  Pb25  1  0.00014174  0.49976543  0.62499408  1
  Pb  Pb26  1  0.99982975  0.99948530  0.75003269  1
  Pb  Pb27  1  0.50142764  0.00166236  0.87440108  1
  Pb  Pb28  1  0.99969027  0.50035076  0.75003312  1
  Pb  Pb29  1  0.99989209  0.99973429  0.68758434  1
  Pb  Pb30  1  0.00168390  0.50146233  0.87440123  1
  Pb  Pb31  1  0.00106789  0.00107206  0.93710010  1
  O  O0  1  0.18372965  0.56678723  0.02283734  1
  O  O1  1  0.18317189  0.18317600  0.07073758  1
  O  O2  1  0.56677200  0.18373183  0.02283824  1
  O  O3  1  0.18316746  0.56775115  0.07073883  1
  O  O4  1  0.56678461  0.56677645  0.02283810  1
  O  O5  1  0.56774950  0.18317267  0.07073806  1
  O  O6  1  0.43367567  0.43367547  0.10202196  1
  O  O7  1  0.43379966  0.81389337  0.05480210  1
  O  O8  1  0.18324426  0.18324169  0.19584407  1
  O  O9  1  0.18172844  0.56783853  0.14782423  1
  O  O10  1  0.81389325  0.43378222  0.05480333  1
  O  O11  1  0.43367790  0.81647666  0.10202082  1
  O  O12  1  0.18324256  0.56677493  0.19584242  1
  O  O13  1  0.56784763  0.18173028  0.14782239  1
  O  O14  1  0.81648065  0.43366969  0.10202344  1
  O  O15  1  0.81388791  0.81389679  0.05480287  1
  O  O16  1  0.56679240  0.18322272  0.19584506  1
  O  O17  1  0.56784869  0.56783379  0.14782336  1
  O  O18  1  0.43566936  0.43568495  0.22680843  1
  O  O19  1  0.18257736  0.18256872  0.32085646  1
  O  O20  1  0.43471548  0.81588288  0.17919068  1
  O  O21  1  0.18339911  0.56657009  0.27293358  1
  O  O22  1  0.81587495  0.43473570  0.17918972  1
  O  O23  1  0.87552490  0.87552889  0.10917531  1
  O  O24  1  0.43567417  0.81417839  0.22680868  1
  O  O25  1  0.56653500  0.18341505  0.27293766  1
  O  O26  1  0.18255696  0.56802055  0.32085838  1
  O  O27  1  0.81416241  0.43569978  0.22680441  1
  O  O28  1  0.81587415  0.81587475  0.17918880  1
  O  O29  1  0.56799917  0.18256705  0.32085790  1
  O  O30  1  0.56652930  0.56656087  0.27293700  1
  O  O31  1  0.43466212  0.43465746  0.35185762  1
  O  O32  1  0.17990900  0.56997005  0.39751836  1
  O  O33  1  0.43454051  0.81552451  0.30430158  1
  O  O34  1  0.19032639  0.19032519  0.44459945  1
  O  O35  1  0.81554368  0.43451091  0.30429993  1
  O  O36  1  0.87506468  0.87508756  0.23434769  1
  O  O37  1  0.56999077  0.17990971  0.39751790  1
  O  O38  1  0.12979295  0.12979458  0.51382537  1
  O  O39  1  0.43468038  0.81581281  0.35185575  1
  O  O40  1  0.19032127  0.56255894  0.44460019  1
  O  O41  1  0.81582963  0.43464405  0.35185916  1
  O  O42  1  0.56256050  0.19032815  0.44459870  1
  O  O43  1  0.81553168  0.81553454  0.30430221  1
  O  O44  1  0.56997926  0.56998990  0.39751698  1
  O  O45  1  0.43959182  0.43958397  0.47628147  1
  O  O46  1  0.18472039  0.56268187  0.52373911  1
  O  O47  1  0.43643498  0.81712142  0.42866602  1
  O  O48  1  0.18507144  0.18507200  0.57086549  1
  O  O49  1  0.56268253  0.18472110  0.52373798  1
  O  O50  1  0.81711566  0.43642803  0.42866771  1
  O  O51  1  0.87482337  0.87482528  0.35943996  1
  O  O52  1  0.43959346  0.81057080  0.47627887  1
  O  O53  1  0.12517488  0.12514951  0.64056107  1
  O  O54  1  0.18506418  0.56293400  0.57086681  1
  O  O55  1  0.81056484  0.43959844  0.47627927  1
  O  O56  1  0.56268132  0.56268513  0.52373993  1
  O  O57  1  0.81711507  0.81711838  0.42866718  1
  O  O58  1  0.56294075  0.18505606  0.57086770  1
  O  O59  1  0.43664945  0.81318812  0.55462198  1
  O  O60  1  0.43685594  0.43684921  0.60171042  1
  O  O61  1  0.18764383  0.18764455  0.69520334  1
  O  O62  1  0.18630627  0.56335349  0.64837372  1
  O  O63  1  0.81318103  0.43666753  0.55462176  1
  O  O64  1  0.89276432  0.89277712  0.47771126  1
  O  O65  1  0.18764310  0.56309085  0.69520340  1
  O  O66  1  0.56335293  0.18628662  0.64837168  1
  O  O67  1  0.12483549  0.12481316  0.76569058  1
  O  O68  1  0.43686061  0.81261899  0.60171051  1
  O  O69  1  0.81318175  0.81318328  0.55462204  1
  O  O70  1  0.81260647  0.43686042  0.60170878  1
  O  O71  1  0.56308624  0.18764537  0.69520261  1
  O  O72  1  0.56335900  0.56336804  0.64837237  1
  O  O73  1  0.43672959  0.43672060  0.72661883  1
  O  O74  1  0.18634243  0.18634238  0.82050182  1
  O  O75  1  0.43701939  0.81242362  0.67976675  1
  O  O76  1  0.18730852  0.56300697  0.77333493  1
  O  O77  1  0.81241245  0.43704032  0.67976745  1
  O  O78  1  0.18634741  0.56330966  0.82049898  1
  O  O79  1  0.56298848  0.18731032  0.77333533  1
  O  O80  1  0.87590141  0.87590082  0.60903433  1
  O  O81  1  0.11996821  0.11996116  0.89251127  1
  O  O82  1  0.43671444  0.81359925  0.72661858  1
  O  O83  1  0.81242103  0.81242559  0.67976622  1
  O  O84  1  0.81359763  0.43673404  0.72661874  1
  O  O85  1  0.56329779  0.18634381  0.82050109  1
  O  O86  1  0.56300233  0.56300427  0.77333531  1
  O  O87  1  0.43670769  0.81475598  0.80422210  1
  O  O88  1  0.18115294  0.18115995  0.94670024  1
  O  O89  1  0.43721955  0.43723529  0.85135050  1
  O  O90  1  0.18993734  0.55916600  0.89896817  1
  O  O91  1  0.81473197  0.43674193  0.80422362  1
  O  O92  1  0.87494373  0.87493596  0.73439803  1
  O  O93  1  0.18115036  0.56409136  0.94670080  1
  O  O94  1  0.55913823  0.18996004  0.89897199  1
  O  O95  1  0.43721165  0.81474391  0.85135274  1
  O  O96  1  0.81473426  0.81473308  0.80422398  1
  O  O97  1  0.56406360  0.18116385  0.94670144  1
  O  O98  1  0.81474395  0.43722315  0.85135043  1
  O  O99  1  0.55914187  0.55915879  0.89896960  1
  O  O100  1  0.43444923  0.43442433  0.97685740  1
  O  O101  1  0.43775762  0.81151791  0.92990046  1
  O  O102  1  0.81153660  0.43773239  0.92989942  1
  O  O103  1  0.87373069  0.87372675  0.85985285  1
  O  O104  1  0.43445444  0.81625320  0.97685531  1
  O  O105  1  0.81626296  0.43443605  0.97685684  1
  O  O106  1  0.81152682  0.81152880  0.92989881  1
  O  O107  1  0.85708658  0.85709994  0.99109078  1
loop_
_geom_bond_atom_site_label_1
_geom_bond_atom_site_label_2
_geom_bond_distance
_geom_bond_site_symmetry_2
O0 Re5 2.001863 1_455
O0 Re0 2.003146 1_554
O0 Pb1 2.696716 1_555
O0 Pb0 2.696775 1_565
O1 Re5 2.002101 1_455
O1 Re4 2.002152 1_545
O1 Pb4 2.694759 1_555
O1 Pb3 2.706891 1_555
O2 Re4 2.001682 1_545
O2 Re0 2.003015 1_554
O2 Pb2 2.696698 1_555
O2 Pb0 2.696767 1_655
O3 Re5 2.002272 1_455
O3 Re1 2.002370 1_555
O3 Pb4 2.694923 1_565
O3 Pb9 2.706776 1_555
O4 Re1 2.001780 1_555
O4 Re0 2.003219 1_554
O4 Pb1 2.696810 1_655
O4 Pb2 2.696870 1_565
O5 Re1 2.002176 1_555
O5 Re4 2.002179 1_545
O5 Pb4 2.694522 1_655
O5 Pb5 2.706772 1_555
O6 Re1 1.998427 1_555
O6 Re2 2.002336 1_555
O6 Pb5 2.693822 1_555
O6 Pb9 2.693985 1_555
O7 Re4 1.988588 1_555
O7 Re1 1.988599 1_555
O7 Pb4 2.701875 1_565
O7 Pb2 2.718361 1_565
O8 Re9 1.997496 1_555
O8 Re3 1.997552 1_555
O8 Pb6 2.698931 1_555
O8 Pb8 2.702403 1_555
O9 Re2 2.004521 1_555
O9 Re9 2.005609 1_555
O9 Pb3 2.692564 1_565
O9 Pb9 2.692602 1_555
O10 Re1 1.988446 1_555
O10 Re5 1.988548 1_555
O10 Pb4 2.701320 1_655
O10 Pb1 2.718443 1_655
O11 Re4 1.998445 1_555
O11 Re2 2.002450 1_555
O11 Pb5 2.693944 1_565
O11 Pb3 2.694085 1_565
O12 Re9 1.997455 1_555
O12 Re6 1.997479 1_555
O12 Pb14 2.698934 1_555
O12 Pb8 2.702231 1_565
O13 Re2 2.004485 1_555
O13 Re3 2.005572 1_555
O13 Pb3 2.692333 1_655
O13 Pb5 2.692497 1_555
O14 Re5 1.998418 1_555
O14 Re2 2.002470 1_555
O14 Pb9 2.693756 1_655
O14 Pb3 2.693797 1_655
O15 Re4 1.988622 1_555
O15 Re5 1.988682 1_555
O15 Pb4 2.701575 1_665
O15 Pb0 2.718374 1_665
O16 Re6 1.997502 1_555
O16 Re3 1.997608 1_555
O16 Pb7 2.698800 1_555
O16 Pb8 2.701975 1_655
O17 Re2 2.004609 1_555
O17 Re6 2.005588 1_555
O17 Pb9 2.692417 1_655
O17 Pb5 2.692612 1_565
O18 Re6 1.986824 1_555
O18 Re8 1.989776 1_555
O18 Pb14 2.707991 1_555
O18 Pb7 2.708146 1_555
O19 Re7 2.004356 1_555
O19 Re12 2.004369 1_555
O19 Pb13 2.693774 1_555
O19 Pb17 2.720427 1_555
O20 Re3 2.000125 1_565
O20 Re6 2.000272 1_555
O20 Pb5 2.690418 1_565
O20 Pb8 2.699340 1_565
O21 Re12 1.996870 1_555
O21 Re8 2.000372 1_555
O21 Pb6 2.703157 1_565
O21 Pb14 2.703253 1_555
O22 Re9 2.000206 1_655
O22 Re6 2.000216 1_555
O22 Pb9 2.690359 1_655
O22 Pb8 2.699301 1_655
O23 Pb4 2.310583 1_665
O23 Pb9 2.334868 1_655
O23 Pb3 2.334882 1_665
O23 Pb5 2.334923 1_565
O24 Re3 1.986874 1_565
O24 Re8 1.989782 1_555
O24 Pb6 2.707939 1_565
O24 Pb7 2.708052 1_565
O25 Re7 1.996726 1_555
O25 Re8 2.000087 1_555
O25 Pb7 2.703527 1_555
O25 Pb6 2.703705 1_655
O26 Re10 2.004333 1_555
O26 Re12 2.004416 1_555
O26 Pb13 2.693468 1_565
O26 Pb19 2.720177 1_555
O27 Re9 1.986615 1_655
O27 Re8 1.989540 1_555
O27 Pb14 2.708391 1_655
O27 Pb6 2.708403 1_655
O28 Re3 2.000120 1_565
O28 Re9 2.000176 1_655
O28 Pb3 2.690248 1_665
O28 Pb8 2.699245 1_665
O29 Re7 2.004344 1_555
O29 Re10 2.004386 1_555
O29 Pb13 2.693572 1_655
O29 Pb11 2.720158 1_555
O30 Re10 1.996805 1_555
O30 Re8 2.000127 1_555
O30 Pb7 2.703361 1_565
O30 Pb14 2.703643 1_655
O31 Re10 1.992670 1_555
O31 Re11 1.998100 1_555
O31 Pb11 2.713557 1_555
O31 Pb19 2.713611 1_555
O32 Re11 2.013397 1_555
O32 Re17 2.033548 1_455
O32 Pb17 2.664483 1_565
O32 Pb19 2.664483 1_555
O33 Re10 1.994502 1_555
O33 Re7 1.994522 1_565
O33 Pb7 2.699395 1_565
O33 Pb13 2.699845 1_565
O34 Re14 1.969068 1_545
O34 Re17 1.969100 1_455
O34 Pb12 2.792077 1_555
O35 Re12 1.994617 1_655
O35 Re10 1.994679 1_555
O35 Pb14 2.699298 1_655
O35 Pb13 2.699563 1_655
O36 Pb14 2.329780 1_655
O36 Pb7 2.329829 1_565
O36 Pb6 2.329910 1_665
O36 Pb8 2.332425 1_665
O37 Re11 2.013516 1_555
O37 Re14 2.033474 1_545
O37 Pb17 2.664273 1_655
O37 Pb11 2.664646 1_555
O38 Pb18 2.268272 1_555
O38 Pb12 2.268302 1_555
O38 Pb16 2.268305 1_555
O38 Pb15 2.405684 1_445
O39 Re7 1.992639 1_565
O39 Re11 1.998052 1_555
O39 Pb11 2.713503 1_565
O39 Pb17 2.713811 1_565
O40 Re17 1.969054 1_455
O40 Re13 1.969062 1_555
O40 Pb16 2.792115 1_555
O41 Re12 1.992775 1_655
O41 Re11 1.998259 1_555
O41 Pb17 2.713427 1_655
O41 Pb19 2.713481 1_655
O42 Re13 1.968937 1_555
O42 Re14 1.968987 1_545
O42 Pb18 2.792214 1_555
O43 Re7 1.994522 1_565
O43 Re12 1.994566 1_655
O43 Pb6 2.699348 1_665
O43 Pb13 2.699470 1_665
O44 Re11 2.013579 1_555
O44 Re13 2.033501 1_555
O44 Pb11 2.664306 1_565
O44 Pb19 2.664378 1_655
O45 Re13 1.953795 1_555
O45 Re16 1.985139 1_555
O45 Pb18 2.758934 1_555
O45 Pb16 2.759004 1_555
O46 Re20 1.972616 1_555
O46 Re16 1.997136 1_555
O46 Pb16 2.711418 1_555
O46 Pb12 2.711593 1_565
O47 Re14 2.009517 1_555
O47 Re13 2.009546 1_555
O47 Pb11 2.645555 1_565
O47 Pb10 2.695277 1_565
O48 Re20 1.993463 1_555
O48 Re15 1.993464 1_555
O48 Pb22 2.697347 1_555
O48 Pb15 2.715836 1_445
O49 Re15 1.972638 1_555
O49 Re16 1.997043 1_555
O49 Pb18 2.711355 1_555
O49 Pb12 2.711577 1_655
O50 Re13 2.009447 1_555
O50 Re17 2.009471 1_555
O50 Pb19 2.645574 1_655
O50 Pb10 2.695112 1_655
O51 Pb19 2.321546 1_655
O51 Pb11 2.321591 1_565
O51 Pb17 2.321723 1_665
O51 Pb13 2.333291 1_665
O52 Re14 1.953682 1_555
O52 Re16 1.985312 1_555
O52 Pb12 2.759178 1_565
O52 Pb18 2.759396 1_565
O53 Pb22 2.289113 1_555
O53 Pb20 2.289399 1_555
O53 Pb25 2.289633 1_555
O53 Pb29 2.298234 1_445
O54 Re20 1.993534 1_555
O54 Re18 1.993546 1_555
O54 Pb25 2.697275 1_555
O54 Pb15 2.716013 1_455
O55 Re17 1.953625 1_555
O55 Re16 1.985238 1_555
O55 Pb12 2.759161 1_655
O55 Pb16 2.759379 1_655
O56 Re18 1.972573 1_555
O56 Re16 1.997285 1_555
O56 Pb18 2.711691 1_565
O56 Pb16 2.711728 1_655
O57 Re17 2.009402 1_555
O57 Re14 2.009418 1_555
O57 Pb17 2.645406 1_665
O57 Pb10 2.695346 1_665
O58 Re18 1.993529 1_555
O58 Re15 1.993543 1_555
O58 Pb20 2.697331 1_555
O58 Pb15 2.715854 1_545
O59 Re15 1.987616 1_565
O59 Re18 1.987662 1_555
O59 Pb18 2.693691 1_565
O59 Pb15 2.725938 1_455
O60 Re19 1.982779 1_555
O60 Re18 1.984055 1_555
O60 Pb25 2.722364 1_555
O60 Pb20 2.722497 1_555
O61 Re25 1.985234 1_555
O61 Re24 1.985271 1_555
O61 Pb29 2.724453 1_445
O61 Pb26 2.733944 1_445
O62 Re25 1.984691 1_555
O62 Re19 1.990715 1_555
O62 Pb22 2.721944 1_565
O62 Pb25 2.721988 1_555
O63 Re20 1.987579 1_655
O63 Re18 1.987621 1_555
O63 Pb16 2.693739 1_655
O63 Pb15 2.725910 1_545
O64 Pb10 2.081442 1_665
O64 Pb12 2.421087 1_665
O64 Pb16 2.421207 1_655
O64 Pb18 2.421220 1_565
O65 Re21 1.985289 1_555
O65 Re25 1.985298 1_555
O65 Pb29 2.724631 1_455
O65 Pb28 2.733870 1_455
O66 Re24 1.984656 1_555
O66 Re19 1.990770 1_555
O66 Pb20 2.721870 1_555
O66 Pb22 2.722074 1_655
O67 Pb21 2.276516 1_555
O67 Pb23 2.294457 1_545
O67 Pb28 2.295264 1_455
O67 Pb26 2.295640 1_445
O68 Re19 1.982687 1_555
O68 Re15 1.984060 1_565
O68 Pb20 2.722141 1_565
O68 Pb22 2.722248 1_565
O69 Re20 1.987650 1_655
O69 Re15 1.987664 1_565
O69 Pb12 2.693812 1_665
O69 Pb15 2.726075 1_555
O70 Re19 1.982660 1_555
O70 Re20 1.983995 1_655
O70 Pb22 2.722411 1_655
O70 Pb25 2.722430 1_655
O71 Re21 1.985327 1_555
O71 Re24 1.985348 1_555
O71 Pb29 2.725700 1_545
O71 Pb23 2.734750 1_545
O72 Re21 1.984814 1_555
O72 Re19 1.990643 1_555
O72 Pb20 2.721665 1_565
O72 Pb25 2.721927 1_655
O73 Re21 1.984555 1_555
O73 Re23 1.991148 1_555
O73 Pb23 2.723197 1_545
O73 Pb28 2.723540 1_455
O74 Re22 1.988610 1_555
O74 Re29 1.988633 1_555
O74 Pb24 2.687392 1_555
O74 Pb21 2.722695 1_555
O75 Re24 1.983855 1_565
O75 Re21 1.983879 1_555
O75 Pb29 2.725700 1_455
O75 Pb20 2.730812 1_565
O76 Re23 1.982687 1_555
O76 Re29 1.989514 1_555
O76 Pb26 2.721256 1_455
O76 Pb28 2.722531 1_455
O77 Re25 1.983893 1_655
O77 Re21 1.983911 1_555
O77 Pb29 2.726836 1_545
O77 Pb25 2.730997 1_655
O78 Re29 1.988607 1_555
O78 Re26 1.988615 1_555
O78 Pb30 2.687409 1_555
O78 Pb21 2.722308 1_565
O79 Re23 1.982859 1_555
O79 Re22 1.989566 1_555
O79 Pb23 2.721645 1_545
O79 Pb26 2.723592 1_545
O80 Pb15 2.247597 1_555
O80 Pb25 2.298961 1_655
O80 Pb20 2.299082 1_565
O80 Pb22 2.299417 1_665
O81 Pb31 2.179252 1_555
O81 Pb24 2.334233 1_555
O81 Pb27 2.334271 1_555
O81 Pb30 2.334501 1_555
O82 Re24 1.984704 1_565
O82 Re23 1.991142 1_555
O82 Pb26 2.722480 1_455
O82 Pb23 2.724376 1_555
O83 Re24 1.983948 1_565
O83 Re25 1.983990 1_655
O83 Pb29 2.726954 1_555
O83 Pb22 2.730895 1_665
O84 Re25 1.984640 1_655
O84 Re23 1.991344 1_555
O84 Pb28 2.723459 1_555
O84 Pb26 2.724768 1_545
O85 Re22 1.988707 1_555
O85 Re26 1.988726 1_555
O85 Pb27 2.687258 1_555
O85 Pb21 2.723129 1_655
O86 Re23 1.982878 1_555
O86 Re26 1.989478 1_555
O86 Pb28 2.722530 1_555
O86 Pb23 2.722771 1_555
O87 Re26 1.993485 1_555
O87 Re22 1.993505 1_565
O87 Pb23 2.698994 1_555
O87 Pb21 2.716347 1_565
O88 Re31 2.015494 1_555
O88 Re28 2.015600 1_555
O88 Pb0 2.663684 1_556
O88 Pb31 2.707929 1_555
O89 Re26 1.969860 1_555
O89 Re27 1.995610 1_555
O89 Pb30 2.713159 1_555
O89 Pb27 2.713399 1_555
O90 Re31 1.945435 1_555
O90 Re27 1.983691 1_555
O90 Pb30 2.766514 1_555
O90 Pb24 2.766534 1_565
O91 Re26 1.993520 1_555
O91 Re29 1.993533 1_655
O91 Pb28 2.699963 1_555
O91 Pb21 2.717312 1_655
O92 Pb29 2.287991 1_555
O92 Pb26 2.289014 1_555
O92 Pb28 2.289443 1_555
O92 Pb23 2.290200 1_555
O93 Re31 2.015434 1_555
O93 Re30 2.015470 1_555
O93 Pb1 2.663602 1_556
O93 Pb31 2.707955 1_565
O94 Re28 1.945118 1_555
O94 Re27 1.983461 1_555
O94 Pb24 2.766735 1_655
O94 Pb27 2.767035 1_555
O95 Re22 1.969845 1_565
O95 Re27 1.995703 1_555
O95 Pb27 2.713077 1_565
O95 Pb24 2.713268 1_565
O96 Re29 1.993501 1_655
O96 Re22 1.993555 1_565
O96 Pb26 2.699904 1_555
O96 Pb21 2.716973 1_665
O97 Re30 2.015446 1_555
O97 Re28 2.015524 1_555
O97 Pb2 2.663636 1_556
O97 Pb31 2.708118 1_655
O98 Re29 1.969827 1_655
O98 Re27 1.995601 1_555
O98 Pb24 2.713293 1_655
O98 Pb30 2.713463 1_655
O99 Re30 1.945434 1_555
O99 Re27 1.983658 1_555
O99 Pb27 2.766548 1_565
O99 Pb30 2.766841 1_655
O100 Re0 1.994146 1_555
O100 Re30 2.011265 1_555
O100 Pb2 2.703054 1_556
O100 Pb1 2.703241 1_556
O101 Re28 1.975740 1_565
O101 Re30 1.975746 1_555
O101 Pb31 2.729411 1_565
O101 Pb27 2.767044 1_565
O102 Re30 1.975880 1_555
O102 Re31 1.975896 1_655
O102 Pb31 2.729193 1_655
O102 Pb30 2.766912 1_655
O103 Pb30 2.275822 1_655
O103 Pb24 2.275953 1_665
O103 Pb27 2.276078 1_565
O103 Pb21 2.325608 1_665
O104 Re0 1.994283 1_555
O104 Re28 2.011436 1_565
O104 Pb2 2.703362 1_566
O104 Pb0 2.703421 1_566
O105 Re0 1.994220 1_555
O105 Re31 2.011295 1_655
O105 Pb0 2.703157 1_656
O105 Pb1 2.703316 1_656
O106 Re28 1.975722 1_565
O106 Re31 1.975759 1_655
O106 Pb31 2.729417 1_665
O106 Pb24 2.766775 1_665
O107 Pb0 2.231777 1_666
O107 Pb1 2.231782 1_656
O107 Pb2 2.231882 1_566
O107 Pb31 2.638762 1_665
