# generated using pymatgen
data_KP(HO2)2
_symmetry_space_group_name_H-M   'P 1'
_cell_length_a   7.36768900
_cell_length_b   7.54348000
_cell_length_c   10.30922570
_cell_angle_alpha   46.96356628
_cell_angle_beta   90.00000000
_cell_angle_gamma   90.00000000
_symmetry_Int_Tables_number   1
_chemical_formula_structural   KP(HO2)2
_chemical_formula_sum   'K4 P4 H8 O16'
_cell_volume   418.79245615
_cell_formula_units_Z   4
loop_
 _symmetry_equiv_pos_site_id
 _symmetry_equiv_pos_as_xyz
  1  'x, y, z'
loop_
 _atom_site_type_symbol
 _atom_site_label
 _atom_site_symmetry_multiplicity
 _atom_site_fract_x
 _atom_site_fract_y
 _atom_site_fract_z
 _atom_site_occupancy
  K  K0  1  0.96726400  0.50000000  0.25000000  1
  K  K1  1  0.66190800  0.00000000  0.25000000  1
  K  K2  1  0.33809200  0.00000000  0.75000000  1
  K  K3  1  0.03273600  0.50000000  0.75000000  1
  P  P0  1  0.42577700  0.50000000  0.25000000  1
  P  P1  1  0.10709400  0.00000000  0.25000000  1
  P  P2  1  0.89290600  0.00000000  0.75000000  1
  P  P3  1  0.57422300  0.50000000  0.75000000  1
  H  H0  1  0.62808000  0.76588700  0.05478400  1
  H  H1  1  0.27729000  0.33422300  0.10495100  1
  H  H2  1  0.27729000  0.66577700  0.39504900  1
  H  H3  1  0.62808000  0.23411300  0.44521600  1
  H  H4  1  0.37192000  0.76588700  0.55478400  1
  H  H5  1  0.72271000  0.33422300  0.60495100  1
  H  H6  1  0.72271000  0.66577700  0.89504900  1
  H  H7  1  0.37192000  0.23411300  0.94521600  1
  O  O0  1  0.32005500  0.52941600  0.11026100  1
  O  O1  1  0.55916400  0.72869600  0.15524600  1
  O  O2  1  0.24788600  0.21126200  0.09379100  1
  O  O3  1  0.00382500  0.90421000  0.18389600  1
  O  O4  1  0.55916400  0.27130400  0.34475400  1
  O  O5  1  0.32005500  0.47058400  0.38973900  1
  O  O6  1  0.00382500  0.09579000  0.31610400  1
  O  O7  1  0.24788600  0.78873800  0.40620900  1
  O  O8  1  0.75211400  0.21126200  0.59379100  1
  O  O9  1  0.99617500  0.90421000  0.68389600  1
  O  O10  1  0.67994500  0.52941600  0.61026100  1
  O  O11  1  0.44083600  0.72869600  0.65524600  1
  O  O12  1  0.99617500  0.09579000  0.81610400  1
  O  O13  1  0.75211400  0.78873800  0.90620900  1
  O  O14  1  0.44083600  0.27130400  0.84475400  1
  O  O15  1  0.67994500  0.47058400  0.88973900  1
loop_
_geom_bond_atom_site_label_1
_geom_bond_atom_site_label_2
_geom_bond_distance
_geom_bond_site_symmetry_2
K0 O6 2.645385 1_655
K0 O3 2.645385 1_655
K0 O5 2.905920 1_655
K0 O0 2.905920 1_655
K0 O13 3.046566 1_554
K0 O8 3.046566 1_555
K1 O3 2.829265 1_645
K1 O6 2.829265 1_655
K1 O15 2.901296 1_554
K1 O10 2.901296 1_545
K1 O1 2.905934 1_545
K1 O4 2.905934 1_555
K2 O12 2.829265 1_455
K2 O9 2.829265 1_445
K2 O0 2.901296 1_546
K2 O5 2.901296 1_555
K2 O11 2.905934 1_545
K2 O14 2.905934 1_555
K3 O12 2.645385 1_455
K3 O9 2.645385 1_455
K3 O10 2.905920 1_455
K3 O15 2.905920 1_455
K3 O2 3.046566 1_556
K3 O7 3.046566 1_555
H0 O1 1.006265 1_555
H0 K0 2.967923 1_555
H1 O2 1.032562 1_555
H1 O0 1.542839 1_555
H2 O7 1.032562 1_555
H2 O5 1.542839 1_555
H3 O4 1.006265 1_555
H3 K0 2.967923 1_555
H4 O11 1.006265 1_555
H4 K3 2.967923 1_555
H5 O8 1.032562 1_555
H5 O10 1.542839 1_555
H6 O13 1.032562 1_555
H6 O15 1.542839 1_555
H7 O14 1.006265 1_555
H7 K3 2.967923 1_555
O0 P0 1.514917 1_555
O1 P0 1.611218 1_555
O2 P1 1.645038 1_555
O3 P1 1.495856 1_565
O4 P0 1.611218 1_555
O5 P0 1.514917 1_555
O6 P1 1.495856 1_555
O7 P1 1.645038 1_565
O8 P2 1.645038 1_555
O9 P2 1.495856 1_565
O10 P3 1.514917 1_555
O11 P3 1.611218 1_555
O12 P2 1.495856 1_555
O13 P2 1.645038 1_565
O14 P3 1.611218 1_555
O15 P3 1.514917 1_555
