# generated using pymatgen
data_SbH7(Br2O)3
_symmetry_space_group_name_H-M   'P 1'
_cell_length_a   13.74991800
_cell_length_b   7.22522900
_cell_length_c   13.03571842
_cell_angle_alpha   85.21566156
_cell_angle_beta   90.00000000
_cell_angle_gamma   90.00000000
_symmetry_Int_Tables_number   1
_chemical_formula_structural   SbH7(Br2O)3
_chemical_formula_sum   'Sb4 H28 Br24 O12'
_cell_volume   1290.53812379
_cell_formula_units_Z   4
loop_
 _symmetry_equiv_pos_site_id
 _symmetry_equiv_pos_as_xyz
  1  'x, y, z'
loop_
 _atom_site_type_symbol
 _atom_site_label
 _atom_site_symmetry_multiplicity
 _atom_site_fract_x
 _atom_site_fract_y
 _atom_site_fract_z
 _atom_site_occupancy
  Sb  Sb0  1  0.63207800  0.69440300  0.69301400  1
  Sb  Sb1  1  0.13207800  0.30559700  0.80698600  1
  Sb  Sb2  1  0.36792200  0.30559700  0.30698600  1
  Sb  Sb3  1  0.86792200  0.69440300  0.19301400  1
  H  H0  1  0.42351100  0.25746700  0.85796200  1
  H  H1  1  0.92351100  0.74253300  0.64203800  1
  H  H2  1  0.57648900  0.74253300  0.14203800  1
  H  H3  1  0.07648900  0.25746700  0.35796200  1
  H  H4  1  0.47318100  0.09391200  0.80615900  1
  H  H5  1  0.97318100  0.90608800  0.69384100  1
  H  H6  1  0.52681900  0.90608800  0.19384100  1
  H  H7  1  0.02681900  0.09391200  0.30615900  1
  H  H8  1  0.56412100  0.15623700  0.94757800  1
  H  H9  1  0.06412100  0.84376300  0.55242200  1
  H  H10  1  0.43587900  0.84376300  0.05242200  1
  H  H11  1  0.93587900  0.15623700  0.44757800  1
  H  H12  1  0.60138200  0.03029400  0.05247400  1
  H  H13  1  0.10138200  0.96970600  0.44752600  1
  H  H14  1  0.39861800  0.96970600  0.94752600  1
  H  H15  1  0.89861800  0.03029400  0.55247400  1
  H  H16  1  0.68752300  0.20263000  0.99206800  1
  H  H17  1  0.18752300  0.79737000  0.50793200  1
  H  H18  1  0.31247700  0.79737000  0.00793200  1
  H  H19  1  0.81247700  0.20263000  0.49206800  1
  H  H20  1  0.82319500  0.27733100  0.03182800  1
  H  H21  1  0.32319500  0.72266900  0.46817200  1
  H  H22  1  0.17680500  0.72266900  0.96817200  1
  H  H23  1  0.67680500  0.27733100  0.53182800  1
  H  H24  1  0.77736800  0.40184200  0.93838700  1
  H  H25  1  0.27736800  0.59815800  0.56161300  1
  H  H26  1  0.22263200  0.59815800  0.06161300  1
  H  H27  1  0.72263200  0.40184200  0.43838700  1
  Br  Br0  1  0.68737700  0.77674000  0.50423600  1
  Br  Br1  1  0.18737700  0.22326000  0.99576400  1
  Br  Br2  1  0.31262300  0.22326000  0.49576400  1
  Br  Br3  1  0.81262300  0.77674000  0.00423600  1
  Br  Br4  1  0.54278300  0.39880100  0.63805900  1
  Br  Br5  1  0.04278300  0.60119900  0.86194100  1
  Br  Br6  1  0.45721700  0.60119900  0.36194100  1
  Br  Br7  1  0.95721700  0.39880100  0.13805900  1
  Br  Br8  1  0.47364800  0.88830600  0.65870700  1
  Br  Br9  1  0.97364800  0.11169400  0.84129300  1
  Br  Br10  1  0.52635200  0.11169400  0.34129300  1
  Br  Br11  1  0.02635200  0.88830600  0.15870700  1
  Br  Br12  1  0.57617500  0.60538600  0.88266700  1
  Br  Br13  1  0.07617500  0.39461400  0.61733300  1
  Br  Br14  1  0.42382500  0.39461400  0.11733300  1
  Br  Br15  1  0.92382500  0.60538600  0.38266700  1
  Br  Br16  1  0.72059800  0.98732200  0.74989500  1
  Br  Br17  1  0.22059800  0.01267800  0.75010500  1
  Br  Br18  1  0.27940200  0.01267800  0.25010500  1
  Br  Br19  1  0.77940200  0.98732200  0.24989500  1
  Br  Br20  1  0.79266600  0.50070200  0.72588000  1
  Br  Br21  1  0.29266600  0.49929800  0.77412000  1
  Br  Br22  1  0.20733400  0.49929800  0.27412000  1
  Br  Br23  1  0.70733400  0.50070200  0.22588000  1
  O  O0  1  0.45933800  0.14077300  0.87379500  1
  O  O1  1  0.95933800  0.85922700  0.62620500  1
  O  O2  1  0.54066200  0.85922700  0.12620500  1
  O  O3  1  0.04066200  0.14077300  0.37379500  1
  O  O4  1  0.61327900  0.14511100  0.00467800  1
  O  O5  1  0.11327900  0.85488900  0.49532200  1
  O  O6  1  0.38672100  0.85488900  0.99532200  1
  O  O7  1  0.88672100  0.14511100  0.50467800  1
  O  O8  1  0.77541700  0.27711400  0.97461300  1
  O  O9  1  0.27541700  0.72288600  0.52538700  1
  O  O10  1  0.22458300  0.72288600  0.02538700  1
  O  O11  1  0.72458300  0.27711400  0.47461300  1
loop_
_geom_bond_atom_site_label_1
_geom_bond_atom_site_label_2
_geom_bond_distance
_geom_bond_site_symmetry_2
H0 O0 0.983428 1_555
H1 O1 0.983428 1_555
H2 O2 0.983428 1_555
H3 O3 0.983428 1_555
H4 O0 0.988954 1_555
H5 O1 0.988954 1_555
H6 O2 0.988954 1_555
H7 O3 0.988954 1_555
H8 O4 1.003687 1_556
H9 O5 1.003687 1_555
H10 O6 1.003687 1_554
H11 O7 1.003687 1_555
H12 O4 1.008434 1_555
H13 O5 1.008434 1_555
H14 O6 1.008434 1_555
H15 O7 1.008434 1_555
H16 O4 1.109266 1_556
H16 O8 1.334738 1_555
H17 O5 1.109266 1_555
H17 O9 1.334738 1_555
H18 O6 1.109266 1_554
H18 O10 1.334738 1_555
H19 O7 1.109266 1_555
H19 O11 1.334738 1_555
H20 O8 0.994006 1_554
H21 O9 0.994006 1_555
H22 O10 0.994006 1_556
H23 O11 0.994006 1_555
H24 O8 0.982280 1_555
H25 O9 0.982280 1_555
H26 O10 0.982280 1_555
H27 O11 0.982280 1_555
Br0 Sb0 2.596856 1_555
Br1 Sb1 2.596856 1_555
Br2 Sb2 2.596856 1_555
Br3 Sb3 2.596856 1_555
Br4 Sb0 2.614866 1_555
Br5 Sb1 2.614866 1_555
Br6 Sb2 2.614866 1_555
Br7 Sb3 2.614866 1_555
Br8 Sb0 2.608389 1_555
Br9 Sb1 2.608389 1_655
Br10 Sb2 2.608389 1_555
Br11 Sb3 2.608389 1_455
Br12 Sb0 2.617508 1_555
Br13 Sb1 2.617508 1_555
Br14 Sb2 2.617508 1_555
Br15 Sb3 2.617508 1_555
Br16 Sb0 2.602343 1_555
Br17 Sb1 2.602343 1_555
Br18 Sb2 2.602343 1_555
Br19 Sb3 2.602343 1_555
Br20 Sb0 2.630173 1_555
Br21 Sb1 2.630173 1_555
Br22 Sb2 2.630173 1_555
Br23 Sb3 2.630173 1_555
