# generated using pymatgen
data_CSNOF5
_symmetry_space_group_name_H-M   'P 1'
_cell_length_a   5.16110900
_cell_length_b   9.65333553
_cell_length_c   10.60846322
_cell_angle_alpha   73.21995877
_cell_angle_beta   84.78719767
_cell_angle_gamma   84.90603919
_symmetry_Int_Tables_number   1
_chemical_formula_structural   CSNOF5
_chemical_formula_sum   'C4 S4 N4 O4 F20'
_cell_volume   502.85027066
_cell_formula_units_Z   4
loop_
 _symmetry_equiv_pos_site_id
 _symmetry_equiv_pos_as_xyz
  1  'x, y, z'
loop_
 _atom_site_type_symbol
 _atom_site_label
 _atom_site_symmetry_multiplicity
 _atom_site_fract_x
 _atom_site_fract_y
 _atom_site_fract_z
 _atom_site_occupancy
  C  C0  1  0.72609800  0.39535500  0.89781100  1
  C  C1  1  0.27390200  0.60464500  0.10218900  1
  C  C2  1  0.23619800  0.05771700  0.10633800  1
  C  C3  1  0.76380200  0.94228300  0.89366200  1
  S  S0  1  0.99490100  0.58325200  0.71455600  1
  S  S1  1  0.00509900  0.41674800  0.28544400  1
  S  S2  1  0.50090600  0.91123500  0.30858000  1
  S  S3  1  0.49909400  0.08876500  0.69142000  1
  N  N0  1  0.93661300  0.43636400  0.84333400  1
  N  N1  1  0.06338700  0.56363600  0.15666600  1
  N  N2  1  0.43046000  0.98185500  0.14894100  1
  N  N3  1  0.56954000  0.01814500  0.85105900  1
  O  O0  1  0.54027100  0.34342800  0.95917300  1
  O  O1  1  0.45972900  0.65657200  0.04082700  1
  O  O2  1  0.06191100  0.12959300  0.05203600  1
  O  O3  1  0.93808900  0.87040700  0.94796400  1
  F  F0  1  0.06120400  0.72233500  0.59302000  1
  F  F1  1  0.93879600  0.27766500  0.40698000  1
  F  F2  1  0.81620900  0.53219600  0.62120200  1
  F  F3  1  0.18379100  0.46780400  0.37879800  1
  F  F4  1  0.74424300  0.67806600  0.75735600  1
  F  F5  1  0.25575700  0.32193400  0.24264400  1
  F  F6  1  0.17407500  0.64150600  0.80283100  1
  F  F7  1  0.82592500  0.35849400  0.19716900  1
  F  F8  1  0.24572200  0.49622200  0.66721900  1
  F  F9  1  0.75427800  0.50377800  0.33278100  1
  F  F10  1  0.57786500  0.84118100  0.45805300  1
  F  F11  1  0.42213500  0.15881900  0.54194700  1
  F  F12  1  0.23048800  0.97767000  0.36506700  1
  F  F13  1  0.76951200  0.02233000  0.63493300  1
  F  F14  1  0.36209800  0.76466000  0.31837900  1
  F  F15  1  0.63790200  0.23534000  0.68162100  1
  F  F16  1  0.77163600  0.84218700  0.25847500  1
  F  F17  1  0.22836400  0.15781300  0.74152500  1
  F  F18  1  0.64177600  0.05451400  0.30569800  1
  F  F19  1  0.35822400  0.94548600  0.69430200  1
loop_
_geom_bond_atom_site_label_1
_geom_bond_atom_site_label_2
_geom_bond_distance
_geom_bond_site_symmetry_2
C0 O0 1.174034 1_555
C0 N0 1.225296 1_555
C1 O1 1.174034 1_555
C1 N1 1.225296 1_555
C2 O2 1.172576 1_555
C2 N2 1.227448 1_545
C3 O3 1.172576 1_555
C3 N3 1.227448 1_565
N0 S0 1.688199 1_555
N1 S1 1.688199 1_555
N2 S2 1.692991 1_555
N3 S3 1.692991 1_555
F0 S0 1.607467 1_455
F1 S1 1.607467 1_655
F2 S0 1.613301 1_555
F3 S1 1.613301 1_555
F4 S0 1.624937 1_555
F5 S1 1.624937 1_555
F6 S0 1.613102 1_455
F7 S1 1.613102 1_655
F8 S0 1.601908 1_455
F9 S1 1.601908 1_655
F10 S2 1.605320 1_555
F11 S3 1.605320 1_555
F12 S2 1.621487 1_555
F13 S3 1.621487 1_555
F14 S2 1.614817 1_555
F15 S3 1.614817 1_555
F16 S2 1.607294 1_555
F17 S3 1.607294 1_555
F18 S2 1.610176 1_545
F19 S3 1.610176 1_565
