# generated using pymatgen
data_Na2Cd3Si3O10
_symmetry_space_group_name_H-M   'P 1'
_cell_length_a   8.79468504
_cell_length_b   8.79468504
_cell_length_c   11.15158499
_cell_angle_alpha   85.80098076
_cell_angle_beta   85.80098076
_cell_angle_gamma   34.30727356
_symmetry_Int_Tables_number   1
_chemical_formula_structural   Na2Cd3Si3O10
_chemical_formula_sum   'Na4 Cd6 Si6 O20'
_cell_volume   484.72242413
_cell_formula_units_Z   2
loop_
 _symmetry_equiv_pos_site_id
 _symmetry_equiv_pos_as_xyz
  1  'x, y, z'
loop_
 _atom_site_type_symbol
 _atom_site_label
 _atom_site_symmetry_multiplicity
 _atom_site_fract_x
 _atom_site_fract_y
 _atom_site_fract_z
 _atom_site_occupancy
  Na  Na0  1  0.18875200  0.71539100  0.46781900  1
  Na  Na1  1  0.28460900  0.81124800  0.03218100  1
  Na  Na2  1  0.81124800  0.28460900  0.53218100  1
  Na  Na3  1  0.71539100  0.18875200  0.96781900  1
  Cd  Cd0  1  0.37056800  0.94640600  0.29488500  1
  Cd  Cd1  1  0.05359400  0.62943200  0.20511500  1
  Cd  Cd2  1  0.62943200  0.05359400  0.70511500  1
  Cd  Cd3  1  0.94640600  0.37056800  0.79488500  1
  Cd  Cd4  1  0.00000000  0.50000000  0.50000000  1
  Cd  Cd5  1  0.50000000  0.00000000  0.00000000  1
  Si  Si0  1  0.54155600  0.15734200  0.39844200  1
  Si  Si1  1  0.84265800  0.45844400  0.10155800  1
  Si  Si2  1  0.45844400  0.84265800  0.60155800  1
  Si  Si3  1  0.15734200  0.54155600  0.89844200  1
  Si  Si4  1  0.81943500  0.18056500  0.25000000  1
  Si  Si5  1  0.18056500  0.81943500  0.75000000  1
  O  O0  1  0.84829300  0.83648400  0.39595200  1
  O  O1  1  0.16351600  0.15170700  0.10404800  1
  O  O2  1  0.15170700  0.16351600  0.60404800  1
  O  O3  1  0.83648400  0.84829300  0.89595200  1
  O  O4  1  0.31485500  0.24659600  0.32876600  1
  O  O5  1  0.75340400  0.68514500  0.17123400  1
  O  O6  1  0.68514500  0.75340400  0.67123400  1
  O  O7  1  0.24659600  0.31485500  0.82876600  1
  O  O8  1  0.55129500  0.32451600  0.32668900  1
  O  O9  1  0.67548400  0.44870500  0.17331100  1
  O  O10  1  0.44870500  0.67548400  0.67331100  1
  O  O11  1  0.32451600  0.55129500  0.82668900  1
  O  O12  1  0.03170400  0.05955800  0.34773500  1
  O  O13  1  0.94044200  0.96829600  0.15226500  1
  O  O14  1  0.96829600  0.94044200  0.65226500  1
  O  O15  1  0.05955800  0.03170400  0.84773500  1
  O  O16  1  0.70888000  0.58749400  0.96785000  1
  O  O17  1  0.41250600  0.29112000  0.53215000  1
  O  O18  1  0.29112000  0.41250600  0.03215000  1
  O  O19  1  0.58749400  0.70888000  0.46785000  1
loop_
_geom_bond_atom_site_label_1
_geom_bond_atom_site_label_2
_geom_bond_distance
_geom_bond_site_symmetry_2
Na0 O14 2.362145 1_455
Na0 O12 2.373468 1_565
Na0 O0 2.387523 1_455
Na0 O17 2.448290 1_555
Na0 O8 2.531831 1_555
Na1 O15 2.362145 1_564
Na1 O13 2.373468 1_455
Na1 O1 2.387523 1_565
Na1 O16 2.448290 1_554
Na1 O9 2.531831 1_555
Na2 O12 2.362145 1_655
Na2 O14 2.373468 1_545
Na2 O2 2.387523 1_655
Na2 O19 2.448290 1_555
Na2 O10 2.531831 1_555
Na3 O13 2.362145 1_546
Na3 O15 2.373468 1_655
Na3 O3 2.387523 1_545
Na3 O18 2.448290 1_556
Na3 O11 2.531831 1_555
Cd0 O19 2.255821 1_555
Cd0 O12 2.269012 1_565
Cd0 O4 2.309705 1_565
Cd0 O5 2.349569 1_555
Cd0 O1 2.382853 1_565
Cd1 O18 2.255821 1_555
Cd1 O13 2.269012 1_455
Cd1 O5 2.309705 1_455
Cd1 O4 2.349569 1_555
Cd1 O0 2.382853 1_455
Cd2 O17 2.255821 1_555
Cd2 O14 2.269012 1_545
Cd2 O6 2.309705 1_545
Cd2 O7 2.349569 1_555
Cd2 O3 2.382853 1_545
Cd3 O16 2.255821 1_555
Cd3 O15 2.269012 1_655
Cd3 O7 2.309705 1_655
Cd3 O6 2.349569 1_555
Cd3 O2 2.382853 1_655
Cd4 O2 2.254945 1_555
Cd4 O0 2.254945 1_455
Cd4 O17 2.397606 1_555
Cd4 O19 2.397606 1_455
Cd4 O4 2.436079 1_555
Cd4 O6 2.436079 1_455
Cd5 O3 2.254945 1_544
Cd5 O1 2.254945 1_555
Cd5 O16 2.397606 1_544
Cd5 O18 2.397606 1_555
Cd5 O5 2.436079 1_545
Cd5 O7 2.436079 1_554
O0 Si0 1.632604 1_565
O1 Si1 1.632604 1_455
O2 Si2 1.632604 1_545
O3 Si3 1.632604 1_655
O4 Si0 1.657414 1_555
O5 Si1 1.657414 1_555
O6 Si2 1.657414 1_555
O7 Si3 1.657414 1_555
O8 Si4 1.681157 1_555
O8 Si0 1.683725 1_555
O9 Si4 1.681157 1_555
O9 Si1 1.683725 1_555
O10 Si5 1.681157 1_555
O10 Si2 1.683725 1_555
O11 Si5 1.681157 1_555
O11 Si3 1.683725 1_555
O12 Si4 1.628330 1_455
O13 Si4 1.628330 1_565
O14 Si5 1.628330 1_655
O15 Si5 1.628330 1_545
O16 Si1 1.642764 1_556
O17 Si0 1.642764 1_555
O18 Si3 1.642764 1_554
O19 Si2 1.642764 1_555
