# generated using pymatgen
data_K3Gd3(PS4)4
_symmetry_space_group_name_H-M   'P 1'
_cell_length_a   10.03222971
_cell_length_b   10.03223006
_cell_length_c   14.74725892
_cell_angle_alpha   89.22925817
_cell_angle_beta   89.22925782
_cell_angle_gamma   72.01230118
_symmetry_Int_Tables_number   1
_chemical_formula_structural   K3Gd3(PS4)4
_chemical_formula_sum   'K6 Gd6 P8 S32'
_cell_volume   1411.50628538
_cell_formula_units_Z   2
loop_
 _symmetry_equiv_pos_site_id
 _symmetry_equiv_pos_as_xyz
  1  'x, y, z'
loop_
 _atom_site_type_symbol
 _atom_site_label
 _atom_site_symmetry_multiplicity
 _atom_site_fract_x
 _atom_site_fract_y
 _atom_site_fract_z
 _atom_site_occupancy
  K  K0  1  0.02815000  0.38751800  0.16307900  1
  K  K1  1  0.61248200  0.97185000  0.33692100  1
  K  K2  1  0.38751800  0.02815000  0.66307900  1
  K  K3  1  0.00000000  0.00000000  0.00000000  1
  K  K4  1  0.97185000  0.61248200  0.83692100  1
  K  K5  1  0.00000000  0.00000000  0.50000000  1
  Gd  Gd0  1  0.25359000  0.48555600  0.51180500  1
  Gd  Gd1  1  0.74641000  0.51444400  0.48819500  1
  Gd  Gd2  1  0.48555600  0.25359000  0.01180500  1
  Gd  Gd3  1  0.24922100  0.75077900  0.25000000  1
  Gd  Gd4  1  0.75077900  0.24922100  0.75000000  1
  Gd  Gd5  1  0.51444400  0.74641000  0.98819500  1
  P  P0  1  0.23731700  0.60137000  0.02336500  1
  P  P1  1  0.76268300  0.39863000  0.97663500  1
  P  P2  1  0.39863000  0.76268300  0.47663500  1
  P  P3  1  0.96132400  0.66823200  0.36142100  1
  P  P4  1  0.66823200  0.96132400  0.86142100  1
  P  P5  1  0.60137000  0.23731700  0.52336500  1
  P  P6  1  0.03867600  0.33176800  0.63857900  1
  P  P7  1  0.33176800  0.03867600  0.13857900  1
  S  S0  1  0.27017500  0.74050700  0.58128300  1
  S  S1  1  0.32155100  0.05272500  0.99964000  1
  S  S2  1  0.84344900  0.47214400  0.67111700  1
  S  S3  1  0.05272500  0.32155100  0.49964000  1
  S  S4  1  0.72982500  0.25949300  0.41871700  1
  S  S5  1  0.14382600  0.03912000  0.19455800  1
  S  S6  1  0.52785600  0.15655100  0.82888300  1
  S  S7  1  0.29693900  0.92398800  0.39263400  1
  S  S8  1  0.96088000  0.85617400  0.30544200  1
  S  S9  1  0.15655100  0.52785600  0.32888300  1
  S  S10  1  0.40184100  0.19447400  0.18702000  1
  S  S11  1  0.41578000  0.54542200  0.10416800  1
  S  S12  1  0.45457800  0.58422000  0.39583200  1
  S  S13  1  0.85617400  0.96088000  0.80544200  1
  S  S14  1  0.25949300  0.72982500  0.91871700  1
  S  S15  1  0.70306100  0.07601200  0.60736600  1
  S  S16  1  0.94727500  0.67844900  0.50036000  1
  S  S17  1  0.67844900  0.94727500  0.00036000  1
  S  S18  1  0.92398800  0.29693900  0.89263400  1
  S  S19  1  0.80552600  0.59815900  0.31298000  1
  S  S20  1  0.21189100  0.42070500  0.97429800  1
  S  S21  1  0.57929500  0.78810900  0.52570200  1
  S  S22  1  0.07601200  0.70306100  0.10736600  1
  S  S23  1  0.42070500  0.21189100  0.47429800  1
  S  S24  1  0.03912000  0.14382600  0.69455800  1
  S  S25  1  0.59815900  0.80552600  0.81298000  1
  S  S26  1  0.58422000  0.45457800  0.89583200  1
  S  S27  1  0.54542200  0.41578000  0.60416800  1
  S  S28  1  0.47214400  0.84344900  0.17111700  1
  S  S29  1  0.74050700  0.27017500  0.08128300  1
  S  S30  1  0.78810900  0.57929500  0.02570200  1
  S  S31  1  0.19447400  0.40184100  0.68702000  1
loop_
_geom_bond_atom_site_label_1
_geom_bond_atom_site_label_2
_geom_bond_distance
_geom_bond_site_symmetry_2
K0 S30 3.281768 1_455
K0 S9 3.304205 1_555
K0 S5 3.353265 1_555
K0 S19 3.379128 1_455
K0 S20 3.387542 1_554
K0 S22 3.432905 1_555
K0 S29 3.660349 1_455
K0 S10 3.669188 1_555
K1 S23 3.281768 1_565
K1 S28 3.304205 1_555
K1 S8 3.353265 1_555
K1 S10 3.379128 1_565
K1 S21 3.387542 1_555
K1 S7 3.432905 1_555
K1 S4 3.660349 1_565
K1 S19 3.669188 1_555
K2 S21 3.281768 1_545
K2 S6 3.304205 1_555
K2 S24 3.353265 1_555
K2 S25 3.379128 1_545
K2 S23 3.387542 1_555
K2 S15 3.432905 1_555
K2 S0 3.660349 1_545
K2 S31 3.669188 1_555
K3 S22 3.235008 1_545
K3 S18 3.235008 1_454
K3 S5 3.310542 1_555
K3 S13 3.310542 1_444
K3 S29 3.347539 1_455
K3 S14 3.347539 1_544
K3 S1 3.426282 1_554
K3 S17 3.426282 1_445
K4 S20 3.281768 1_655
K4 S2 3.304205 1_555
K4 S13 3.353265 1_555
K4 S31 3.379128 1_655
K4 S30 3.387542 1_556
K4 S18 3.432905 1_555
K4 S14 3.660349 1_655
K4 S25 3.669188 1_555
K5 S15 3.235008 1_455
K5 S7 3.235008 1_545
K5 S8 3.310542 1_445
K5 S24 3.310542 1_555
K5 S0 3.347539 1_545
K5 S4 3.347539 1_455
K5 S3 3.426282 1_555
K5 S16 3.426282 1_445
Gd0 S23 2.797745 1_555
Gd0 S31 2.818127 1_555
Gd0 S0 2.820888 1_555
Gd0 S9 2.861740 1_555
Gd0 S3 2.977495 1_555
Gd0 S12 3.010792 1_555
Gd0 S16 3.090154 1_455
Gd0 S27 3.119737 1_555
Gd1 S21 2.797745 1_555
Gd1 S19 2.818127 1_555
Gd1 S4 2.820888 1_555
Gd1 S2 2.861740 1_555
Gd1 S16 2.977495 1_555
Gd1 S27 3.010792 1_555
Gd1 S3 3.090154 1_655
Gd1 S12 3.119737 1_555
Gd2 S20 2.797745 1_554
Gd2 S10 2.818127 1_555
Gd2 S29 2.820888 1_555
Gd2 S6 2.861740 1_554
Gd2 S1 2.977495 1_554
Gd2 S26 3.010792 1_554
Gd2 S17 3.090154 1_545
Gd2 S11 3.119737 1_555
Gd3 S8 2.867887 1_455
Gd3 S5 2.867887 1_565
Gd3 S22 2.883127 1_555
Gd3 S7 2.883127 1_555
Gd3 S28 2.899002 1_555
Gd3 S9 2.899002 1_555
Gd3 S12 3.091602 1_555
Gd3 S11 3.091602 1_555
Gd4 S24 2.867887 1_655
Gd4 S13 2.867887 1_545
Gd4 S18 2.883127 1_555
Gd4 S15 2.883127 1_555
Gd4 S6 2.899002 1_555
Gd4 S2 2.899002 1_555
Gd4 S27 3.091602 1_555
Gd4 S26 3.091602 1_555
Gd5 S30 2.797745 1_556
Gd5 S25 2.818127 1_555
Gd5 S14 2.820888 1_555
Gd5 S28 2.861740 1_556
Gd5 S17 2.977495 1_556
Gd5 S11 3.010792 1_556
Gd5 S1 3.090154 1_565
Gd5 S26 3.119737 1_555
P0 S22 2.038264 1_555
P0 S20 2.049273 1_554
P0 S14 2.050911 1_554
P0 S11 2.087873 1_555
P1 S18 2.038264 1_555
P1 S30 2.049273 1_556
P1 S29 2.050911 1_556
P1 S26 2.087873 1_555
P2 S7 2.038264 1_555
P2 S21 2.049273 1_555
P2 S0 2.050911 1_555
P2 S12 2.087873 1_555
P3 S19 2.041978 1_555
P3 S8 2.046849 1_555
P3 S16 2.053681 1_555
P3 S9 2.082987 1_655
P4 S25 2.041978 1_555
P4 S13 2.046849 1_555
P4 S17 2.053681 1_556
P4 S6 2.082987 1_565
P5 S15 2.038264 1_555
P5 S23 2.049273 1_555
P5 S4 2.050911 1_555
P5 S27 2.087873 1_555
P6 S31 2.041978 1_555
P6 S24 2.046849 1_555
P6 S3 2.053681 1_555
P6 S2 2.082987 1_455
P7 S10 2.041978 1_555
P7 S5 2.046849 1_555
P7 S1 2.053681 1_554
P7 S28 2.082987 1_545
