# generated using pymatgen
data_LiMnO2
_symmetry_space_group_name_H-M   'P 1'
_cell_length_a   2.87178400
_cell_length_b   5.82278500
_cell_length_c   32.44334900
_cell_angle_alpha   90.00000000
_cell_angle_beta   90.00000000
_cell_angle_gamma   90.00000000
_symmetry_Int_Tables_number   1
_chemical_formula_structural   LiMnO2
_chemical_formula_sum   'Li14 Mn14 O28'
_cell_volume   542.51057035
_cell_formula_units_Z   14
loop_
 _symmetry_equiv_pos_site_id
 _symmetry_equiv_pos_as_xyz
  1  'x, y, z'
loop_
 _atom_site_type_symbol
 _atom_site_label
 _atom_site_symmetry_multiplicity
 _atom_site_fract_x
 _atom_site_fract_y
 _atom_site_fract_z
 _atom_site_occupancy
  Li  Li0  1  0.00000000  0.63950700  0.85833100  1
  Li  Li1  1  0.00000000  0.11366900  0.00000000  1
  Li  Li2  1  0.00000000  0.63950700  0.14166900  1
  Li  Li3  1  0.00000000  0.11849400  0.28520800  1
  Li  Li4  1  0.00000000  0.11633500  0.42834800  1
  Li  Li5  1  0.00000000  0.11633500  0.57165200  1
  Li  Li6  1  0.00000000  0.11849400  0.71479200  1
  Li  Li7  1  0.50000000  0.87349300  0.92946500  1
  Li  Li8  1  0.50000000  0.87915600  0.21173400  1
  Li  Li9  1  0.50000000  0.87754100  0.35593500  1
  Li  Li10  1  0.50000000  0.87349300  0.07053500  1
  Li  Li11  1  0.50000000  0.87587300  0.50000000  1
  Li  Li12  1  0.50000000  0.87754100  0.64406500  1
  Li  Li13  1  0.50000000  0.87915600  0.78826600  1
  Mn  Mn0  1  0.00000000  0.11983600  0.85924400  1
  Mn  Mn1  1  0.00000000  0.11983600  0.14075600  1
  Mn  Mn2  1  0.00000000  0.63535900  0.00000000  1
  Mn  Mn3  1  0.00000000  0.63574800  0.28395700  1
  Mn  Mn4  1  0.00000000  0.63223200  0.42790800  1
  Mn  Mn5  1  0.00000000  0.63223200  0.57209200  1
  Mn  Mn6  1  0.00000000  0.63574800  0.71604300  1
  Mn  Mn7  1  0.50000000  0.37465100  0.92977400  1
  Mn  Mn8  1  0.50000000  0.37465100  0.07022600  1
  Mn  Mn9  1  0.50000000  0.37755600  0.21204900  1
  Mn  Mn10  1  0.50000000  0.36242500  0.35573300  1
  Mn  Mn11  1  0.50000000  0.36053300  0.50000000  1
  Mn  Mn12  1  0.50000000  0.36242500  0.64426700  1
  Mn  Mn13  1  0.50000000  0.37755600  0.78795100  1
  O  O0  1  0.00000000  0.14407100  0.93033200  1
  O  O1  1  0.00000000  0.60465100  0.92911500  1
  O  O2  1  0.00000000  0.14407100  0.06966800  1
  O  O3  1  0.00000000  0.60465100  0.07088500  1
  O  O4  1  0.00000000  0.14754200  0.21227800  1
  O  O5  1  0.00000000  0.60779800  0.21170100  1
  O  O6  1  0.00000000  0.13811100  0.35544400  1
  O  O7  1  0.00000000  0.59820600  0.35609200  1
  O  O8  1  0.00000000  0.13634000  0.50000000  1
  O  O9  1  0.00000000  0.59621200  0.50000000  1
  O  O10  1  0.00000000  0.13811100  0.64455600  1
  O  O11  1  0.00000000  0.59820600  0.64390800  1
  O  O12  1  0.00000000  0.14754200  0.78772200  1
  O  O13  1  0.00000000  0.60779800  0.78829900  1
  O  O14  1  0.50000000  0.35646700  0.85900700  1
  O  O15  1  0.50000000  0.89632400  0.85915300  1
  O  O16  1  0.50000000  0.39855600  0.00000000  1
  O  O17  1  0.50000000  0.85863300  0.00000000  1
  O  O18  1  0.50000000  0.35646700  0.14099300  1
  O  O19  1  0.50000000  0.89632400  0.14084700  1
  O  O20  1  0.50000000  0.39985100  0.28403400  1
  O  O21  1  0.50000000  0.85959300  0.28420900  1
  O  O22  1  0.50000000  0.39623600  0.57205600  1
  O  O23  1  0.50000000  0.85658900  0.57203100  1
  O  O24  1  0.50000000  0.39985100  0.71596600  1
  O  O25  1  0.50000000  0.85959300  0.71579100  1
  O  O26  1  0.50000000  0.39623600  0.42794400  1
  O  O27  1  0.50000000  0.85658900  0.42796900  1
loop_
_geom_bond_atom_site_label_1
_geom_bond_atom_site_label_2
_geom_bond_distance
_geom_bond_site_symmetry_2
Li0 O15 2.073328 1_555
Li0 O15 2.073328 1_455
Li0 O14 2.185964 1_455
Li0 O14 2.185964 1_555
Li0 O13 2.279562 1_555
Li0 O1 2.305421 1_555
Li1 O17 2.065689 1_445
Li1 O17 2.065689 1_545
Li1 O16 2.193974 1_555
Li1 O16 2.193974 1_455
Li1 O0 2.267185 1_554
Li1 O2 2.267185 1_555
Li2 O19 2.073328 1_555
Li2 O19 2.073328 1_455
Li2 O18 2.185964 1_455
Li2 O18 2.185964 1_555
Li2 O5 2.279562 1_555
Li2 O3 2.305421 1_555
Li3 O21 2.082179 1_445
Li3 O21 2.082179 1_545
Li3 O20 2.178808 1_555
Li3 O20 2.178808 1_455
Li3 O6 2.281552 1_555
Li3 O4 2.372131 1_555
Li4 O27 2.085528 1_445
Li4 O27 2.085528 1_545
Li4 O26 2.172146 1_555
Li4 O26 2.172146 1_455
Li4 O8 2.327547 1_555
Li4 O6 2.368646 1_555
Li5 O23 2.085528 1_545
Li5 O23 2.085528 1_445
Li5 O22 2.172146 1_555
Li5 O22 2.172146 1_455
Li5 O8 2.327547 1_555
Li5 O10 2.368646 1_555
Li6 O25 2.082179 1_445
Li6 O25 2.082179 1_545
Li6 O24 2.178808 1_455
Li6 O24 2.178808 1_555
Li6 O10 2.281552 1_555
Li6 O12 2.372131 1_555
Li7 O1 2.124246 1_655
Li7 O1 2.124246 1_555
Li7 O0 2.131861 1_565
Li7 O0 2.131861 1_665
Li7 O15 2.285027 1_555
Li7 O17 2.290027 1_556
Li8 O4 2.122333 1_565
Li8 O4 2.122333 1_665
Li8 O5 2.135035 1_655
Li8 O5 2.135035 1_555
Li8 O19 2.301983 1_555
Li8 O21 2.354089 1_555
Li9 O6 2.089035 1_565
Li9 O6 2.089035 1_665
Li9 O7 2.169640 1_555
Li9 O7 2.169640 1_655
Li9 O21 2.329377 1_555
Li9 O27 2.340206 1_555
Li10 O3 2.124246 1_555
Li10 O3 2.124246 1_655
Li10 O2 2.131861 1_565
Li10 O2 2.131861 1_665
Li10 O19 2.285027 1_555
Li10 O17 2.290027 1_555
Li11 O8 2.088538 1_665
Li11 O8 2.088538 1_565
Li11 O9 2.171058 1_555
Li11 O9 2.171058 1_655
Li11 O23 2.339623 1_555
Li11 O27 2.339623 1_555
Li12 O10 2.089035 1_565
Li12 O10 2.089035 1_665
Li12 O11 2.169640 1_555
Li12 O11 2.169640 1_655
Li12 O25 2.329377 1_555
Li12 O23 2.340206 1_555
Li13 O12 2.122333 1_565
Li13 O12 2.122333 1_665
Li13 O13 2.135035 1_655
Li13 O13 2.135035 1_555
Li13 O15 2.301983 1_555
Li13 O25 2.354089 1_555
Mn0 O15 1.937937 1_445
Mn0 O15 1.937937 1_545
Mn0 O14 1.990055 1_455
Mn0 O14 1.990055 1_555
Mn0 O0 2.310646 1_555
Mn0 O12 2.326015 1_555
Mn1 O19 1.937937 1_445
Mn1 O19 1.937937 1_545
Mn1 O18 1.990055 1_455
Mn1 O18 1.990055 1_555
Mn1 O2 2.310646 1_555
Mn1 O4 2.326015 1_555
Mn2 O17 1.937004 1_555
Mn2 O17 1.937004 1_455
Mn2 O16 1.990734 1_555
Mn2 O16 1.990734 1_455
Mn2 O1 2.306687 1_554
Mn2 O3 2.306687 1_555
Mn3 O21 1.939254 1_455
Mn3 O21 1.939254 1_555
Mn3 O20 1.987085 1_455
Mn3 O20 1.987085 1_555
Mn3 O5 2.349869 1_555
Mn3 O7 2.350488 1_555
Mn4 O27 1.941243 1_455
Mn4 O27 1.941243 1_555
Mn4 O26 1.987482 1_455
Mn4 O26 1.987482 1_555
Mn4 O7 2.338360 1_555
Mn4 O9 2.348291 1_555
Mn5 O23 1.941243 1_455
Mn5 O23 1.941243 1_555
Mn5 O22 1.987482 1_555
Mn5 O22 1.987482 1_455
Mn5 O11 2.338360 1_555
Mn5 O9 2.348291 1_555
Mn6 O25 1.939254 1_555
Mn6 O25 1.939254 1_455
Mn6 O24 1.987085 1_555
Mn6 O24 1.987085 1_455
Mn6 O13 2.349869 1_555
Mn6 O11 2.350488 1_555
Mn7 O1 1.963621 1_555
Mn7 O1 1.963621 1_655
Mn7 O0 1.965893 1_655
Mn7 O0 1.965893 1_555
Mn7 O16 2.282615 1_556
Mn7 O14 2.298359 1_555
Mn8 O3 1.963621 1_655
Mn8 O3 1.963621 1_555
Mn8 O2 1.965893 1_555
Mn8 O2 1.965893 1_655
Mn8 O16 2.282615 1_555
Mn8 O18 2.298359 1_555
Mn9 O4 1.963574 1_655
Mn9 O4 1.963574 1_555
Mn9 O5 1.964499 1_655
Mn9 O5 1.964499 1_555
Mn9 O18 2.308563 1_555
Mn9 O20 2.339040 1_555
Mn10 O6 1.941096 1_555
Mn10 O6 1.941096 1_655
Mn10 O7 1.986651 1_555
Mn10 O7 1.986651 1_655
Mn10 O20 2.336341 1_555
Mn10 O26 2.351024 1_555
Mn11 O8 1.940600 1_555
Mn11 O8 1.940600 1_655
Mn11 O9 1.986206 1_555
Mn11 O9 1.986206 1_655
Mn11 O22 2.346963 1_555
Mn11 O26 2.346963 1_555
Mn12 O10 1.941096 1_555
Mn12 O10 1.941096 1_655
Mn12 O11 1.986651 1_555
Mn12 O11 1.986651 1_655
Mn12 O24 2.336341 1_555
Mn12 O22 2.351024 1_555
Mn13 O12 1.963574 1_555
Mn13 O12 1.963574 1_655
Mn13 O13 1.964499 1_555
Mn13 O13 1.964499 1_655
Mn13 O14 2.308563 1_555
Mn13 O24 2.339040 1_555
