# generated using pymatgen
data_TlP(HO2)2
_symmetry_space_group_name_H-M   'P 1'
_cell_length_a   4.62944400
_cell_length_b   6.56478400
_cell_length_c   14.64038830
_cell_angle_alpha   88.19177635
_cell_angle_beta   90.00000000
_cell_angle_gamma   90.00000000
_symmetry_Int_Tables_number   1
_chemical_formula_structural   TlP(HO2)2
_chemical_formula_sum   'Tl4 P4 H8 O16'
_cell_volume   444.71886979
_cell_formula_units_Z   4
loop_
 _symmetry_equiv_pos_site_id
 _symmetry_equiv_pos_as_xyz
  1  'x, y, z'
loop_
 _atom_site_type_symbol
 _atom_site_label
 _atom_site_symmetry_multiplicity
 _atom_site_fract_x
 _atom_site_fract_y
 _atom_site_fract_z
 _atom_site_occupancy
  Tl  Tl0  1  0.50216700  0.73508100  0.63222700  1
  Tl  Tl1  1  0.00216700  0.26491900  0.86777300  1
  Tl  Tl2  1  0.49783300  0.26491900  0.36777300  1
  Tl  Tl3  1  0.99783300  0.73508100  0.13222700  1
  P  P0  1  0.48253700  0.76046800  0.88088200  1
  P  P1  1  0.98253700  0.23953200  0.61911800  1
  P  P2  1  0.51746300  0.23953200  0.11911800  1
  P  P3  1  0.01746300  0.76046800  0.38088200  1
  H  H0  1  0.50000000  0.00000000  0.00000000  1
  H  H1  1  0.00000000  0.00000000  0.50000000  1
  H  H2  1  0.50000000  0.50000000  0.00000000  1
  H  H3  1  0.00000000  0.50000000  0.50000000  1
  H  H4  1  0.02457500  0.76027300  0.82296500  1
  H  H5  1  0.52457500  0.23972700  0.67703500  1
  H  H6  1  0.97542500  0.23972700  0.17703500  1
  H  H7  1  0.47542500  0.76027300  0.32296500  1
  O  O0  1  0.59447800  0.95706000  0.92641000  1
  O  O1  1  0.09447800  0.04294000  0.57359000  1
  O  O2  1  0.40552200  0.04294000  0.07359000  1
  O  O3  1  0.90552200  0.95706000  0.42641000  1
  O  O4  1  0.34852200  0.61056800  0.95369600  1
  O  O5  1  0.84852200  0.38943200  0.54630400  1
  O  O6  1  0.65147800  0.38943200  0.04630400  1
  O  O7  1  0.15147800  0.61056800  0.45369600  1
  O  O8  1  0.22490500  0.82893800  0.81457600  1
  O  O9  1  0.72490500  0.17106200  0.68542400  1
  O  O10  1  0.77509500  0.17106200  0.18542400  1
  O  O11  1  0.27509500  0.82893800  0.31457600  1
  O  O12  1  0.72168200  0.66830900  0.82322100  1
  O  O13  1  0.22168200  0.33169100  0.67677900  1
  O  O14  1  0.27831800  0.33169100  0.17677900  1
  O  O15  1  0.77831800  0.66830900  0.32322100  1
loop_
_geom_bond_atom_site_label_1
_geom_bond_atom_site_label_2
_geom_bond_distance
_geom_bond_site_symmetry_2
H0 O2 1.204447 1_555
H0 O0 1.204447 1_544
H1 O3 1.204447 1_445
H1 O1 1.204447 1_555
H2 O6 1.202970 1_555
H2 O4 1.202970 1_554
H3 O7 1.202970 1_555
H3 O5 1.202970 1_455
H4 O8 1.036767 1_555
H4 O12 1.526628 1_455
H5 O9 1.036767 1_555
H5 O13 1.526628 1_555
H6 O10 1.036767 1_555
H6 O14 1.526628 1_655
H7 O11 1.036767 1_555
H7 O15 1.526628 1_555
O0 P0 1.559724 1_555
O1 P1 1.559724 1_455
O2 P2 1.559724 1_555
O3 P3 1.559724 1_655
O4 P0 1.556759 1_555
O5 P1 1.556759 1_555
O6 P2 1.556759 1_555
O7 P3 1.556759 1_555
O8 P0 1.593540 1_555
O9 P1 1.593540 1_555
O10 P2 1.593540 1_555
O11 P3 1.593540 1_555
O12 P0 1.528591 1_555
O13 P1 1.528591 1_455
O14 P2 1.528591 1_555
O15 P3 1.528591 1_655
