# generated using pymatgen
data_LiSbP2O7
_symmetry_space_group_name_H-M   'P 1'
_cell_length_a   8.69620600
_cell_length_b   7.16725200
_cell_length_c   9.90846353
_cell_angle_alpha   70.91350872
_cell_angle_beta   90.00000000
_cell_angle_gamma   90.00000000
_symmetry_Int_Tables_number   1
_chemical_formula_structural   LiSbP2O7
_chemical_formula_sum   'Li4 Sb4 P8 O28'
_cell_volume   583.62324615
_cell_formula_units_Z   4
loop_
 _symmetry_equiv_pos_site_id
 _symmetry_equiv_pos_as_xyz
  1  'x, y, z'
loop_
 _atom_site_type_symbol
 _atom_site_label
 _atom_site_symmetry_multiplicity
 _atom_site_fract_x
 _atom_site_fract_y
 _atom_site_fract_z
 _atom_site_occupancy
  Li  Li0  1  0.04014100  0.29954500  0.21513100  1
  Li  Li1  1  0.45985900  0.29954500  0.71513100  1
  Li  Li2  1  0.95985900  0.70045500  0.78486900  1
  Li  Li3  1  0.54014100  0.70045500  0.28486900  1
  Sb  Sb0  1  0.50884400  0.74599600  0.75041300  1
  Sb  Sb1  1  0.49115600  0.25400400  0.24958700  1
  Sb  Sb2  1  0.00884400  0.25400400  0.74958700  1
  Sb  Sb3  1  0.99115600  0.74599600  0.25041300  1
  P  P0  1  0.75791600  0.90127200  0.96705000  1
  P  P1  1  0.74208400  0.90127200  0.46705000  1
  P  P2  1  0.77946800  0.34775500  0.44207700  1
  P  P3  1  0.24208400  0.09872800  0.03295000  1
  P  P4  1  0.27946800  0.65224500  0.05792300  1
  P  P5  1  0.22053200  0.65224500  0.55792300  1
  P  P6  1  0.72053200  0.34775500  0.94207700  1
  P  P7  1  0.25791600  0.09872800  0.53295000  1
  O  O0  1  0.12800800  0.55157600  0.11723600  1
  O  O1  1  0.25752200  0.17710700  0.36929500  1
  O  O2  1  0.72123700  0.13755500  0.91391600  1
  O  O3  1  0.09150200  0.12408000  0.10346700  1
  O  O4  1  0.74247800  0.82289300  0.63070500  1
  O  O5  1  0.91925700  0.44936400  0.34602800  1
  O  O6  1  0.75752200  0.82289300  0.13070500  1
  O  O7  1  0.61509700  0.82032300  0.91232100  1
  O  O8  1  0.30237400  0.68420000  0.90008700  1
  O  O9  1  0.90849800  0.87592000  0.89653300  1
  O  O10  1  0.80237400  0.31580000  0.59991300  1
  O  O11  1  0.38490300  0.17967700  0.08767900  1
  O  O12  1  0.62800800  0.44842400  0.38276400  1
  O  O13  1  0.58074200  0.44936400  0.84602800  1
  O  O14  1  0.40849800  0.12408000  0.60346700  1
  O  O15  1  0.11509700  0.17967700  0.58767900  1
  O  O16  1  0.87199200  0.44842400  0.88276400  1
  O  O17  1  0.19762600  0.68420000  0.40008700  1
  O  O18  1  0.27876300  0.86244500  0.08608400  1
  O  O19  1  0.41925700  0.55063600  0.15397200  1
  O  O20  1  0.88490300  0.82032300  0.41232100  1
  O  O21  1  0.37199200  0.55157600  0.61723600  1
  O  O22  1  0.24247800  0.17710700  0.86929500  1
  O  O23  1  0.59150200  0.87592000  0.39653300  1
  O  O24  1  0.69762600  0.31580000  0.09991300  1
  O  O25  1  0.08074300  0.55063600  0.65397200  1
  O  O26  1  0.77876300  0.13755500  0.41391600  1
  O  O27  1  0.22123700  0.86244500  0.58608400  1
loop_
_geom_bond_atom_site_label_1
_geom_bond_atom_site_label_2
_geom_bond_distance
_geom_bond_site_symmetry_2
Li0 O0 1.908355 1_555
Li0 O3 1.978687 1_555
Li0 O5 2.202522 1_455
Li0 O1 2.408390 1_555
Li1 O21 1.908355 1_555
Li1 O14 1.978687 1_555
Li1 O13 2.202517 1_555
Li1 O22 2.408390 1_555
Li2 O16 1.908355 1_555
Li2 O9 1.978687 1_555
Li2 O25 2.202522 1_655
Li2 O4 2.408390 1_555
Li3 O12 1.908355 1_555
Li3 O23 1.978687 1_555
Li3 O19 2.202522 1_555
Li3 O6 2.408390 1_555
O0 P4 1.524300 1_555
O0 Sb3 2.510354 1_455
O1 P7 1.532753 1_555
O1 Sb1 2.326164 1_555
O2 P6 1.619423 1_555
O2 P0 1.632106 1_545
O3 P3 1.522833 1_555
O3 Sb3 2.764824 1_445
O4 P1 1.532753 1_555
O4 Sb0 2.326164 1_555
O5 P2 1.568625 1_555
O5 Sb3 2.119259 1_555
O6 P0 1.532753 1_554
O6 Sb3 2.326164 1_555
O7 P0 1.542388 1_555
O7 Sb0 2.066428 1_555
O8 P4 1.517797 1_556
O8 Sb0 2.278122 1_555
O9 P0 1.522833 1_555
O9 Sb2 2.764824 1_665
O10 P2 1.517797 1_555
O10 Sb2 2.278122 1_655
O11 P3 1.542388 1_555
O11 Sb1 2.066428 1_555
O12 P2 1.524300 1_555
O12 Sb1 2.510354 1_555
O13 P6 1.568632 1_555
O13 Sb0 2.119257 1_555
O14 P7 1.522833 1_555
O14 Sb0 2.764824 1_545
O15 P7 1.542388 1_555
O15 Sb2 2.066428 1_555
O16 P6 1.524300 1_555
O16 Sb2 2.510354 1_655
O17 P5 1.517797 1_555
O17 Sb3 2.278122 1_455
O18 P4 1.619423 1_555
O18 P3 1.632106 1_565
O19 P4 1.568625 1_555
O19 Sb1 2.119259 1_555
O20 P1 1.542388 1_555
O20 Sb3 2.066428 1_555
O21 P5 1.524300 1_555
O21 Sb0 2.510354 1_555
O22 P3 1.532753 1_556
O22 Sb2 2.326164 1_555
O23 P1 1.522833 1_555
O23 Sb1 2.764824 1_565
O24 P6 1.517797 1_554
O24 Sb1 2.278122 1_555
O25 P5 1.568625 1_555
O25 Sb2 2.119259 1_555
O26 P2 1.619423 1_555
O26 P1 1.632106 1_545
O27 P5 1.619423 1_555
O27 P7 1.632106 1_565
