# generated using pymatgen
data_Li2H2Pd
_symmetry_space_group_name_H-M   'P 1'
_cell_length_a   5.56251059
_cell_length_b   5.56251059
_cell_length_c   5.56251059
_cell_angle_alpha   147.86723889
_cell_angle_beta   147.86723889
_cell_angle_gamma   46.08138689
_symmetry_Int_Tables_number   1
_chemical_formula_structural   Li2H2Pd
_chemical_formula_sum   'Li2 H2 Pd1'
_cell_volume   48.52275961
_cell_formula_units_Z   1
loop_
 _symmetry_equiv_pos_site_id
 _symmetry_equiv_pos_as_xyz
  1  'x, y, z'
loop_
 _atom_site_type_symbol
 _atom_site_label
 _atom_site_symmetry_multiplicity
 _atom_site_fract_x
 _atom_site_fract_y
 _atom_site_fract_z
 _atom_site_occupancy
  Li  Li0  1  0.64517055  0.64517055  0.00000000  1
  Li  Li1  1  0.35482945  0.35482945  -0.00000000  1
  H  H0  1  0.83666128  0.83666128  -0.00000000  1
  H  H1  1  0.16333872  0.16333872  0.00000000  1
  Pd  Pd0  1  -0.00000000  -0.00000000  0.00000000  1
loop_
_geom_bond_atom_site_label_1
_geom_bond_atom_site_label_2
_geom_bond_distance
_geom_bond_site_symmetry_2
Li0 Pd0 2.635991 1_565
Li0 Pd0 2.635991 1_655
Li0 Pd0 2.635991 1_666
Li0 Pd0 2.635991 1_554
Li1 Pd0 2.635991 1_565
Li1 Pd0 2.635991 1_666
Li1 Pd0 2.635991 1_554
Li1 Pd0 2.635991 1_655
H0 Pd0 1.672188 1_665
H0 Li0 1.960395 1_555
H0 Li1 2.185013 1_554
H0 Li1 2.185013 1_655
H0 Li1 2.185013 1_565
H0 Li1 2.185013 1_666
H1 Pd0 1.672188 1_555
H1 Li1 1.960395 1_555
H1 Li0 2.185013 1_444
H1 Li0 2.185013 1_545
H1 Li0 2.185013 1_455
H1 Li0 2.185013 1_556
