# generated using pymatgen
data_Na3SmBr6
_symmetry_space_group_name_H-M   'P 1'
_cell_length_a   7.51273000
_cell_length_b   8.04184271
_cell_length_c   31.10441037
_cell_angle_alpha   94.61939458
_cell_angle_beta   89.96072019
_cell_angle_gamma   117.82765399
_symmetry_Int_Tables_number   1
_chemical_formula_structural   Na3SmBr6
_chemical_formula_sum   'Na15 Sm5 Br30'
_cell_volume   1655.03909271
_cell_formula_units_Z   5
loop_
 _symmetry_equiv_pos_site_id
 _symmetry_equiv_pos_as_xyz
  1  'x, y, z'
loop_
 _atom_site_type_symbol
 _atom_site_label
 _atom_site_symmetry_multiplicity
 _atom_site_fract_x
 _atom_site_fract_y
 _atom_site_fract_z
 _atom_site_occupancy
  Na  Na0  1  0.56608600  0.13410500  0.93866000  1
  Na  Na1  1  0.29151300  0.57995500  0.89931900  1
  Na  Na2  1  0.16645200  0.33308300  0.73850800  1
  Na  Na3  1  0.89135900  0.78081300  0.69916400  1
  Na  Na4  1  0.86948900  0.73944200  0.83881100  1
  Na  Na5  1  0.76638500  0.53305800  0.53851700  1
  Na  Na6  1  0.49112900  0.98085300  0.49925600  1
  Na  Na7  1  0.46915500  0.93898500  0.63880700  1
  Na  Na8  1  0.36861700  0.73379400  0.33867300  1
  Na  Na9  1  0.13386600  0.25761900  0.15979000  1
  Na  Na10  1  0.09175500  0.17942500  0.30008300  1
  Na  Na11  1  0.06916600  0.13902800  0.43888000  1
  Na  Na12  1  0.69584000  0.40089200  0.09675100  1
  Na  Na13  1  0.66611500  0.33853100  0.23967400  1
  Na  Na14  1  0.27261500  0.53717800  0.03630600  1
  Sm  Sm0  1  0.98964000  0.98502100  0.00025500  1
  Sm  Sm1  1  0.79418200  0.58871700  0.39954000  1
  Sm  Sm2  1  0.59419500  0.18882500  0.79945900  1
  Sm  Sm3  1  0.19412300  0.38877300  0.59940300  1
  Sm  Sm4  1  0.40348200  0.80245700  0.19812000  1
  Br  Br0  1  0.31988300  0.91373700  0.85241600  1
  Br  Br1  1  0.21977200  0.79099400  0.97796400  1
  Br  Br2  1  0.73631200  0.84687100  0.92286400  1
  Br  Br3  1  0.84874800  0.38136300  0.87560400  1
  Br  Br4  1  0.41992700  0.43774600  0.81927400  1
  Br  Br5  1  0.91961200  0.11356400  0.65231200  1
  Br  Br6  1  0.28727300  0.29675700  0.95588300  1
  Br  Br7  1  0.81897400  0.98951000  0.77742800  1
  Br  Br8  1  0.33517100  0.04473500  0.72273900  1
  Br  Br9  1  0.44849400  0.58102100  0.67557100  1
  Br  Br10  1  0.01970100  0.63761700  0.61923000  1
  Br  Br11  1  0.51942400  0.31346000  0.45236900  1
  Br  Br12  1  0.89116000  0.50015900  0.75592000  1
  Br  Br13  1  0.41911500  0.18941900  0.57749700  1
  Br  Br14  1  0.93491300  0.24474500  0.52271500  1
  Br  Br15  1  0.04875500  0.78075300  0.47564300  1
  Br  Br16  1  0.62065300  0.83836900  0.41946400  1
  Br  Br17  1  0.11913500  0.50754100  0.24908700  1
  Br  Br18  1  0.49097500  0.70045800  0.55596200  1
  Br  Br19  1  0.01929600  0.38970600  0.37738500  1
  Br  Br20  1  0.53465200  0.44582800  0.32315000  1
  Br  Br21  1  0.65020700  0.98204700  0.27615000  1
  Br  Br22  1  0.21556000  0.03723000  0.22104900  1
  Br  Br23  1  0.71041700  0.70744600  0.04984400  1
  Br  Br24  1  0.09172200  0.89892300  0.35595400  1
  Br  Br25  1  0.58313200  0.56147800  0.17957200  1
  Br  Br26  1  0.14018600  0.61350300  0.12450500  1
  Br  Br27  1  0.25547200  0.18091300  0.07565800  1
  Br  Br28  1  0.82167100  0.23918900  0.01999400  1
  Br  Br29  1  0.69268400  0.11068600  0.15570300  1
loop_
_geom_bond_atom_site_label_1
_geom_bond_atom_site_label_2
_geom_bond_distance
_geom_bond_site_symmetry_2
Br0 Sm2 2.860080 1_565
Br0 Na4 3.011895 1_455
Br0 Na1 3.078155 1_555
Br0 Na0 3.152572 1_565
Br1 Sm0 2.871807 1_456
Br1 Na14 2.995189 1_556
Br1 Na1 3.055846 1_555
Br1 Na0 3.116687 1_565
Br2 Sm0 2.872710 1_556
Br2 Na4 3.003700 1_555
Br2 Na1 3.060037 1_555
Br2 Na0 3.128383 1_565
Br3 Sm2 2.883604 1_555
Br3 Na0 2.998379 1_555
Br3 Na1 3.002211 1_655
Br3 Na4 3.120548 1_555
Br4 Sm2 2.889307 1_555
Br4 Na2 2.969064 1_555
Br4 Na1 3.000935 1_555
Br4 Na4 3.126928 1_555
Br5 Sm3 2.860135 1_655
Br5 Na7 3.011843 1_545
Br5 Na3 3.070311 1_545
Br5 Na2 3.151439 1_655
Br6 Sm0 2.917013 1_446
Br6 Na0 2.971370 1_555
Br6 Na1 2.976704 1_555
Br6 Na14 3.070374 1_556
Br7 Sm2 2.870376 1_565
Br7 Na4 3.027460 1_555
Br7 Na3 3.038214 1_555
Br7 Na2 3.116831 1_665
Br8 Sm2 2.877471 1_555
Br8 Na7 2.998326 1_545
Br8 Na3 3.050449 1_445
Br8 Na2 3.128002 1_555
Br9 Sm3 2.883221 1_555
Br9 Na2 2.996027 1_555
Br9 Na3 3.002054 1_555
Br9 Na7 3.119520 1_555
Br10 Sm3 2.889715 1_555
Br10 Na5 2.967168 1_455
Br10 Na3 3.001605 1_455
Br10 Na7 3.125836 1_555
Br11 Sm1 2.859405 1_555
Br11 Na11 3.010520 1_555
Br11 Na6 3.069782 1_545
Br11 Na5 3.150672 1_555
Br12 Sm2 2.899466 1_555
Br12 Na3 2.974737 1_555
Br12 Na2 2.975172 1_655
Br12 Na4 3.141598 1_555
Br13 Sm3 2.871241 1_555
Br13 Na7 3.026630 1_545
Br13 Na6 3.035855 1_545
Br13 Na5 3.117307 1_555
Br14 Sm3 2.877351 1_655
Br14 Na11 2.996616 1_655
Br14 Na6 3.049581 1_545
Br14 Na5 3.126765 1_555
Br15 Sm1 2.882001 1_455
Br15 Na5 2.994863 1_455
Br15 Na6 2.999011 1_555
Br15 Na11 3.122547 1_565
Br16 Sm1 2.890752 1_555
Br16 Na8 2.964270 1_555
Br16 Na6 2.999862 1_555
Br16 Na11 3.118637 1_665
Br17 Sm4 2.927840 1_555
Br17 Na13 3.022383 1_455
Br17 Na10 3.112527 1_555
Br17 Na8 3.254968 1_555
Br17 Na9 3.327827 1_555
Br18 Sm3 2.899054 1_555
Br18 Na6 2.972160 1_555
Br18 Na5 2.978108 1_555
Br18 Na7 3.137405 1_555
Br19 Sm1 2.871272 1_455
Br19 Na10 3.023243 1_555
Br19 Na11 3.031530 1_555
Br19 Na8 3.121932 1_555
Br20 Sm1 2.870983 1_555
Br20 Na13 2.982097 1_555
Br20 Na10 3.045697 1_555
Br20 Na8 3.109323 1_555
Br21 Sm4 2.890418 1_555
Br21 Na8 2.986583 1_555
Br21 Na10 2.995798 1_665
Br21 Na13 3.118306 1_565
Br22 Sm4 2.887340 1_545
Br22 Na9 2.951205 1_555
Br22 Na10 2.958558 1_555
Br22 Na13 3.127850 1_555
Br23 Sm0 2.817927 1_555
Br23 Na12 2.923234 1_555
Br23 Na14 2.928245 1_555
Br24 Sm1 2.896938 1_455
Br24 Na10 2.956246 1_565
Br24 Na8 2.973603 1_555
Br24 Na11 3.148465 1_565
Br25 Sm4 2.858448 1_555
Br25 Na13 2.946692 1_555
Br25 Na12 3.082703 1_555
Br25 Na9 3.130854 1_555
Br26 Sm4 2.846796 1_555
Br26 Na14 3.031149 1_555
Br26 Na12 3.041361 1_455
Br26 Na9 3.126761 1_555
Br27 Na9 2.885493 1_555
Br27 Sm0 2.906012 1_445
Br27 Na12 2.976086 1_555
Br27 Na14 3.153306 1_555
Br28 Sm0 2.890005 1_545
Br28 Na12 2.988190 1_555
Br28 Na0 2.991414 1_554
Br28 Na14 3.115165 1_655
Br29 Sm4 2.846079 1_545
Br29 Na9 2.952634 1_655
Br29 Na12 3.073605 1_555
Br29 Na13 3.128722 1_555
