# generated using pymatgen
data_Ca2Al2Si(HO4)2
_symmetry_space_group_name_H-M   'P 1'
_cell_length_a   7.72294527
_cell_length_b   7.72294527
_cell_length_c   12.58672900
_cell_angle_alpha   90.00000000
_cell_angle_beta   90.00000000
_cell_angle_gamma   109.27028098
_symmetry_Int_Tables_number   1
_chemical_formula_structural   Ca2Al2Si(HO4)2
_chemical_formula_sum   'Ca8 Al8 Si4 H8 O32'
_cell_volume   708.66017648
_cell_formula_units_Z   4
loop_
 _symmetry_equiv_pos_site_id
 _symmetry_equiv_pos_as_xyz
  1  'x, y, z'
loop_
 _atom_site_type_symbol
 _atom_site_label
 _atom_site_symmetry_multiplicity
 _atom_site_fract_x
 _atom_site_fract_y
 _atom_site_fract_z
 _atom_site_occupancy
  Ca  Ca0  1  0.86104800  0.85641200  0.85695300  1
  Ca  Ca1  1  0.28420500  0.99847300  0.00061900  1
  Ca  Ca2  1  0.36104800  0.35641200  0.64304700  1
  Ca  Ca3  1  0.85641200  0.86104800  0.14304700  1
  Ca  Ca4  1  0.49847300  0.78420500  0.50061900  1
  Ca  Ca5  1  0.78420500  0.49847300  0.49938100  1
  Ca  Ca6  1  0.99847300  0.28420500  0.99938100  1
  Ca  Ca7  1  0.35641200  0.36104800  0.35695300  1
  Al  Al0  1  0.99978600  0.50041600  0.75264800  1
  Al  Al1  1  0.62439700  0.37519700  0.87898200  1
  Al  Al2  1  0.87519700  0.12439700  0.37898200  1
  Al  Al3  1  0.50041600  0.99978600  0.24735200  1
  Al  Al4  1  0.49978600  0.00041600  0.74735200  1
  Al  Al5  1  0.12439700  0.87519700  0.62101800  1
  Al  Al6  1  0.37519700  0.62439700  0.12101800  1
  Al  Al7  1  0.00041600  0.49978600  0.25264800  1
  Si  Si0  1  0.37637800  0.62447200  0.87224600  1
  Si  Si1  1  0.87637800  0.12447200  0.62775400  1
  Si  Si2  1  0.12447200  0.87637800  0.37224600  1
  Si  Si3  1  0.62447200  0.37637800  0.12775400  1
  H  H0  1  0.69053000  0.67435900  0.67383900  1
  H  H1  1  0.19053000  0.17435900  0.82616100  1
  H  H2  1  0.49124300  0.14332400  0.50699000  1
  H  H3  1  0.67435900  0.69053000  0.32616100  1
  H  H4  1  0.99124300  0.64332400  0.99301000  1
  H  H5  1  0.14332400  0.49124300  0.49301000  1
  H  H6  1  0.17435900  0.19053000  0.17383900  1
  H  H7  1  0.64332400  0.99124300  0.00699000  1
  O  O0  1  0.41910000  0.84682200  0.85721000  1
  O  O1  1  0.22982000  0.50703800  0.78161700  1
  O  O2  1  0.61299800  0.61410100  0.61498000  1
  O  O3  1  0.91910000  0.34682200  0.64279000  1
  O  O4  1  0.57188100  0.58310800  0.86157300  1
  O  O5  1  0.92631300  0.36319600  0.36666100  1
  O  O6  1  0.78490200  0.06045900  0.50976500  1
  O  O7  1  0.34682200  0.91910000  0.35721000  1
  O  O8  1  0.86319600  0.42631300  0.86666100  1
  O  O9  1  0.50111200  0.27094800  0.49811700  1
  O  O10  1  0.71647400  0.99147300  0.28607900  1
  O  O11  1  0.72982000  0.00703800  0.71838300  1
  O  O12  1  0.11299800  0.11410100  0.88502000  1
  O  O13  1  0.11410100  0.11299800  0.11498000  1
  O  O14  1  0.49147300  0.21647400  0.78607900  1
  O  O15  1  0.07188100  0.08310800  0.63842700  1
  O  O16  1  0.08310800  0.07188100  0.36157300  1
  O  O17  1  0.42631300  0.86319600  0.13333900  1
  O  O18  1  0.36319600  0.92631300  0.63333900  1
  O  O19  1  0.28490200  0.56045900  0.99023500  1
  O  O20  1  0.00111200  0.77094800  0.00188300  1
  O  O21  1  0.06045900  0.78490200  0.49023500  1
  O  O22  1  0.21647400  0.49147300  0.21392100  1
  O  O23  1  0.61410100  0.61299800  0.38502000  1
  O  O24  1  0.00703800  0.72982000  0.28161700  1
  O  O25  1  0.99147300  0.71647400  0.71392100  1
  O  O26  1  0.58310800  0.57188100  0.13842700  1
  O  O27  1  0.84682200  0.41910000  0.14279000  1
  O  O28  1  0.56045900  0.28490200  0.00976500  1
  O  O29  1  0.27094800  0.50111200  0.50188300  1
  O  O30  1  0.50703800  0.22982000  0.21838300  1
  O  O31  1  0.77094800  0.00111200  0.99811700  1
loop_
_geom_bond_atom_site_label_1
_geom_bond_atom_site_label_2
_geom_bond_distance
_geom_bond_site_symmetry_2
Ca0 O12 2.305546 1_665
Ca0 O31 2.324494 1_565
Ca0 O20 2.324795 1_656
Ca0 O25 2.478343 1_555
Ca0 O11 2.490085 1_565
Ca0 O4 2.516842 1_555
Ca1 O20 2.309138 1_555
Ca1 O13 2.312358 1_565
Ca1 O12 2.332832 1_564
Ca1 O17 2.417308 1_555
Ca1 O28 2.518582 1_565
Ca1 O0 2.553540 1_554
Ca2 O2 2.305546 1_555
Ca2 O29 2.324494 1_555
Ca2 O9 2.324795 1_555
Ca2 O14 2.478343 1_555
Ca2 O1 2.490085 1_555
Ca2 O15 2.516842 1_555
Ca3 O13 2.305546 1_665
Ca3 O20 2.324494 1_655
Ca3 O31 2.324795 1_564
Ca3 O10 2.478343 1_555
Ca3 O24 2.490085 1_655
Ca3 O26 2.516842 1_555
Ca4 O29 2.309138 1_555
Ca4 O2 2.312358 1_555
Ca4 O23 2.332832 1_555
Ca4 O18 2.417308 1_555
Ca4 O6 2.518582 1_565
Ca4 O7 2.553540 1_555
Ca5 O9 2.309138 1_555
Ca5 O23 2.312358 1_555
Ca5 O2 2.332832 1_555
Ca5 O5 2.417308 1_555
Ca5 O21 2.518582 1_655
Ca5 O3 2.553540 1_555
Ca6 O31 2.309138 1_555
Ca6 O12 2.312358 1_655
Ca6 O13 2.332832 1_656
Ca6 O8 2.417308 1_555
Ca6 O19 2.518582 1_655
Ca6 O27 2.553540 1_556
Ca7 O23 2.305546 1_555
Ca7 O9 2.324494 1_555
Ca7 O29 2.324795 1_555
Ca7 O22 2.478343 1_555
Ca7 O30 2.490085 1_555
Ca7 O16 2.516842 1_555
Al0 O25 1.759737 1_555
Al0 O8 1.761018 1_555
Al0 O3 1.794292 1_555
Al0 O1 1.797691 1_655
Al1 O14 1.758756 1_555
Al1 O8 1.760834 1_555
Al1 O28 1.792367 1_556
Al1 O4 1.794597 1_555
Al2 O10 1.758756 1_545
Al2 O5 1.760834 1_555
Al2 O6 1.792367 1_555
Al2 O16 1.794597 1_655
Al3 O10 1.759737 1_555
Al3 O17 1.761018 1_555
Al3 O7 1.794292 1_555
Al3 O30 1.797691 1_565
Al4 O14 1.759737 1_555
Al4 O18 1.761018 1_545
Al4 O0 1.794292 1_545
Al4 O11 1.797691 1_555
Al5 O25 1.758756 1_455
Al5 O18 1.760834 1_555
Al5 O21 1.792367 1_555
Al5 O15 1.794597 1_565
Al6 O22 1.758756 1_555
Al6 O17 1.760834 1_555
Al6 O19 1.792367 1_554
Al6 O26 1.794597 1_555
Al7 O22 1.759737 1_555
Al7 O5 1.761018 1_455
Al7 O27 1.794292 1_455
Al7 O24 1.797691 1_555
H0 O2 0.969548 1_555
H1 O12 0.969548 1_555
H2 O9 0.969624 1_555
H3 O23 0.969548 1_555
H4 O20 0.969624 1_656
H5 O29 0.969624 1_555
H6 O13 0.969548 1_555
H7 O31 0.969624 1_564
O0 Si0 1.649084 1_555
O1 Si0 1.651463 1_555
O3 Si1 1.649084 1_555
O4 Si0 1.648675 1_555
O6 Si1 1.648780 1_555
O7 Si2 1.649084 1_555
O11 Si1 1.651463 1_555
O15 Si1 1.648675 1_455
O16 Si2 1.648675 1_545
O19 Si0 1.648780 1_555
O21 Si2 1.648780 1_555
O24 Si2 1.651463 1_555
O26 Si3 1.648675 1_555
O27 Si3 1.649084 1_555
O28 Si3 1.648780 1_555
O30 Si3 1.651463 1_555
