# generated using pymatgen
data_BaNb8O14
_symmetry_space_group_name_H-M   'P 1'
_cell_length_a   10.05259698
_cell_length_b   10.26158905
_cell_length_c   24.38988658
_cell_angle_alpha   90.00000000
_cell_angle_beta   90.00000000
_cell_angle_gamma   90.00000000
_symmetry_Int_Tables_number   1
_chemical_formula_structural   BaNb8O14
_chemical_formula_sum   'Ba8 Nb64 O112'
_cell_volume   2515.95384979
_cell_formula_units_Z   8
loop_
 _symmetry_equiv_pos_site_id
 _symmetry_equiv_pos_as_xyz
  1  'x, y, z'
loop_
 _atom_site_type_symbol
 _atom_site_label
 _atom_site_symmetry_multiplicity
 _atom_site_fract_x
 _atom_site_fract_y
 _atom_site_fract_z
 _atom_site_occupancy
  Ba  Ba0  1  0.02917380  0.97878576  0.13998869  1
  Ba  Ba1  1  0.52917380  0.97878576  0.36001131  1
  Ba  Ba2  1  0.47082620  0.47878576  0.13998869  1
  Ba  Ba3  1  0.97082620  0.02121424  0.86001131  1
  Ba  Ba4  1  0.02917380  0.52121424  0.63998869  1
  Ba  Ba5  1  0.97082620  0.47878576  0.36001131  1
  Ba  Ba6  1  0.52917380  0.52121424  0.86001131  1
  Ba  Ba7  1  0.47082620  0.02121424  0.63998869  1
  Nb  Nb0  1  0.39226578  0.59036428  0.32047285  1
  Nb  Nb1  1  0.61652103  0.34701546  0.00406062  1
  Nb  Nb2  1  0.37548174  0.17169050  0.88595388  1
  Nb  Nb3  1  0.89226578  0.59036428  0.17952715  1
  Nb  Nb4  1  0.38226639  0.91258515  0.06542848  1
  Nb  Nb5  1  0.59586358  0.39398731  0.31968494  1
  Nb  Nb6  1  0.88582736  0.91932859  0.56610906  1
  Nb  Nb7  1  0.38347897  0.84701546  0.49593938  1
  Nb  Nb8  1  0.86898600  0.14629653  0.38116064  1
  Nb  Nb9  1  0.40413642  0.89398731  0.18031506  1
  Nb  Nb10  1  0.61417264  0.08067141  0.06610906  1
  Nb  Nb11  1  0.13101400  0.85370347  0.61883936  1
  Nb  Nb12  1  0.38226639  0.58741485  0.56542848  1
  Nb  Nb13  1  0.90413642  0.89398731  0.31968494  1
  Nb  Nb14  1  0.64951442  0.64845000  0.24639881  1
  Nb  Nb15  1  0.35048558  0.14845000  0.25360119  1
  Nb  Nb16  1  0.11773361  0.41258515  0.06542848  1
  Nb  Nb17  1  0.62451826  0.67169050  0.61404612  1
  Nb  Nb18  1  0.60773422  0.40963572  0.67952715  1
  Nb  Nb19  1  0.10773422  0.40963572  0.82047285  1
  Nb  Nb20  1  0.36898600  0.35370347  0.61883936  1
  Nb  Nb21  1  0.88347897  0.65298454  0.50406062  1
  Nb  Nb22  1  0.38582736  0.91932859  0.93389094  1
  Nb  Nb23  1  0.63101400  0.85370347  0.88116064  1
  Nb  Nb24  1  0.36898600  0.14629653  0.11883936  1
  Nb  Nb25  1  0.61773361  0.08741485  0.93457152  1
  Nb  Nb26  1  0.61417264  0.41932859  0.56610906  1
  Nb  Nb27  1  0.10773422  0.09036428  0.32047285  1
  Nb  Nb28  1  0.14951442  0.85155000  0.75360119  1
  Nb  Nb29  1  0.89226578  0.90963572  0.67952715  1
  Nb  Nb30  1  0.61773361  0.41258515  0.43457152  1
  Nb  Nb31  1  0.85048558  0.35155000  0.74639881  1
  Nb  Nb32  1  0.87548174  0.32830950  0.11404612  1
  Nb  Nb33  1  0.63101400  0.64629653  0.38116064  1
  Nb  Nb34  1  0.35048558  0.35155000  0.75360119  1
  Nb  Nb35  1  0.12451826  0.82830950  0.38595388  1
  Nb  Nb36  1  0.37548174  0.32830950  0.38595388  1
  Nb  Nb37  1  0.88347897  0.84701546  0.00406062  1
  Nb  Nb38  1  0.39226578  0.90963572  0.82047285  1
  Nb  Nb39  1  0.11773361  0.08741485  0.56542848  1
  Nb  Nb40  1  0.11417264  0.08067141  0.43389094  1
  Nb  Nb41  1  0.61652103  0.15298454  0.50406062  1
  Nb  Nb42  1  0.86898600  0.35370347  0.88116064  1
  Nb  Nb43  1  0.60773422  0.09036428  0.17952715  1
  Nb  Nb44  1  0.14951442  0.64845000  0.25360119  1
  Nb  Nb45  1  0.12451826  0.67169050  0.88595388  1
  Nb  Nb46  1  0.59586358  0.10601269  0.81968494  1
  Nb  Nb47  1  0.87548174  0.17169050  0.61404612  1
  Nb  Nb48  1  0.09586358  0.10601269  0.68031506  1
  Nb  Nb49  1  0.90413642  0.60601269  0.81968494  1
  Nb  Nb50  1  0.62451826  0.82830950  0.11404612  1
  Nb  Nb51  1  0.11417264  0.41932859  0.93389094  1
  Nb  Nb52  1  0.88226639  0.58741485  0.93457152  1
  Nb  Nb53  1  0.64951442  0.85155000  0.74639881  1
  Nb  Nb54  1  0.40413642  0.60601269  0.68031506  1
  Nb  Nb55  1  0.13101400  0.64629653  0.11883936  1
  Nb  Nb56  1  0.38347897  0.65298454  0.99593938  1
  Nb  Nb57  1  0.85048558  0.14845000  0.24639881  1
  Nb  Nb58  1  0.11652103  0.34701546  0.49593938  1
  Nb  Nb59  1  0.09586358  0.39398731  0.18031506  1
  Nb  Nb60  1  0.38582736  0.58067141  0.43389094  1
  Nb  Nb61  1  0.88582736  0.58067141  0.06610906  1
  Nb  Nb62  1  0.88226639  0.91258515  0.43457152  1
  Nb  Nb63  1  0.11652103  0.15298454  0.99593938  1
  O  O0  1  0.46021158  0.23154917  0.18749847  1
  O  O1  1  0.50307519  0.00086838  0.24178046  1
  O  O2  1  0.23021640  0.55088038  0.18505708  1
  O  O3  1  0.26151967  0.56987821  0.06019369  1
  O  O4  1  0.23848033  0.06987821  0.06019369  1
  O  O5  1  0.28908042  0.00785032  0.30166017  1
  O  O6  1  0.72009236  0.30947180  0.62164011  1
  O  O7  1  0.50299046  0.75820314  0.56038006  1
  O  O8  1  0.73848033  0.06987821  0.43980631  1
  O  O9  1  0.49700954  0.24179686  0.43961994  1
  O  O10  1  0.00000000  0.50000000  0.50000000  1
  O  O11  1  0.27990764  0.69052820  0.37835989  1
  O  O12  1  0.21091958  0.99214968  0.80166017  1
  O  O13  1  0.69590997  0.25382338  0.74588814  1
  O  O14  1  0.46021158  0.26845083  0.68749847  1
  O  O15  1  0.75877273  0.57417698  0.56075564  1
  O  O16  1  0.30409003  0.74617662  0.25411186  1
  O  O17  1  0.26978360  0.44911962  0.68505708  1
  O  O18  1  0.22009236  0.19052820  0.37835989  1
  O  O19  1  0.27990764  0.80947180  0.87835989  1
  O  O20  1  0.00299046  0.75820314  0.93961994  1
  O  O21  1  0.25877273  0.57417698  0.93924436  1
  O  O22  1  0.99646182  0.24247593  0.93805162  1
  O  O23  1  0.26151967  0.93012179  0.56019369  1
  O  O24  1  0.24122727  0.42582302  0.43924436  1
  O  O25  1  0.00353818  0.74247593  0.56194838  1
  O  O26  1  0.54306065  0.73608511  0.18443365  1
  O  O27  1  0.00000000  0.00000000  -0.00000000  1
  O  O28  1  0.03978842  0.73154917  0.18749847  1
  O  O29  1  0.28001140  0.68506881  0.49877698  1
  O  O30  1  0.21998860  0.18506881  0.49877698  1
  O  O31  1  0.45693935  0.23608511  0.31556635  1
  O  O32  1  0.50000000  0.00000000  0.50000000  1
  O  O33  1  0.23848033  0.43012179  0.56019369  1
  O  O34  1  0.00353818  0.75752407  0.06194838  1
  O  O35  1  0.77990764  0.80947180  0.62164011  1
  O  O36  1  0.04306065  0.73608511  0.31556635  1
  O  O37  1  0.28001140  0.81493119  0.99877698  1
  O  O38  1  0.78001140  0.81493119  0.50122302  1
  O  O39  1  0.21091958  0.50785032  0.30166017  1
  O  O40  1  0.76151967  0.93012179  0.93980631  1
  O  O41  1  0.77990764  0.69052820  0.12164011  1
  O  O42  1  0.04306065  0.76391489  0.81556635  1
  O  O43  1  0.73021640  0.94911962  0.81494292  1
  O  O44  1  0.54306065  0.76391489  0.68443365  1
  O  O45  1  0.50000000  0.00000000  -0.00000000  1
  O  O46  1  0.19590997  0.25382338  0.75411186  1
  O  O47  1  0.50353818  0.75752407  0.43805162  1
  O  O48  1  0.80409003  0.75382338  0.74588814  1
  O  O49  1  0.50000000  0.50000000  -0.00000000  1
  O  O50  1  0.73072512  0.31669096  0.37591646  1
  O  O51  1  0.00307519  0.00086838  0.25821954  1
  O  O52  1  0.49700954  0.25820314  0.93961994  1
  O  O53  1  0.19590997  0.24617662  0.25411186  1
  O  O54  1  0.95693935  0.23608511  0.18443365  1
  O  O55  1  0.53978842  0.73154917  0.31250153  1
  O  O56  1  0.78908042  0.00785032  0.19833983  1
  O  O57  1  0.99692481  0.50086838  0.24178046  1
  O  O58  1  0.76978360  0.05088038  0.31494292  1
  O  O59  1  0.75877273  0.92582302  0.06075564  1
  O  O60  1  0.50307519  0.49913162  0.74178046  1
  O  O61  1  0.24122727  0.07417698  0.93924436  1
  O  O62  1  0.49646182  0.25752407  0.06194838  1
  O  O63  1  0.71091958  0.99214968  0.69833983  1
  O  O64  1  0.72009236  0.19052820  0.12164011  1
  O  O65  1  0.28908042  0.49214968  0.80166017  1
  O  O66  1  0.76151967  0.56987821  0.43980631  1
  O  O67  1  0.71091958  0.50785032  0.19833983  1
  O  O68  1  0.74122727  0.42582302  0.06075564  1
  O  O69  1  0.23072512  0.31669096  0.12408354  1
  O  O70  1  0.71998860  0.18506881  0.00122302  1
  O  O71  1  0.69590997  0.24617662  0.24588814  1
  O  O72  1  0.49692481  0.50086838  0.25821954  1
  O  O73  1  0.95693935  0.26391489  0.68443365  1
  O  O74  1  0.23072512  0.18330904  0.62408354  1
  O  O75  1  0.25877273  0.92582302  0.43924436  1
  O  O76  1  0.23021640  0.94911962  0.68505708  1
  O  O77  1  0.22009236  0.30947180  0.87835989  1
  O  O78  1  0.99646182  0.25752407  0.43805162  1
  O  O79  1  0.74122727  0.07417698  0.56075564  1
  O  O80  1  0.50000000  0.50000000  0.50000000  1
  O  O81  1  0.00000000  0.00000000  0.50000000  1
  O  O82  1  0.96021158  0.26845083  0.81250153  1
  O  O83  1  0.76927488  0.81669096  0.37591646  1
  O  O84  1  0.96021158  0.23154917  0.31250153  1
  O  O85  1  0.76978360  0.44911962  0.81494292  1
  O  O86  1  0.26927488  0.81669096  0.12408354  1
  O  O87  1  0.00307519  0.49913162  0.75821954  1
  O  O88  1  0.78001140  0.68506881  0.00122302  1
  O  O89  1  0.50299046  0.74179686  0.06038006  1
  O  O90  1  0.99700954  0.24179686  0.06038006  1
  O  O91  1  0.50353818  0.74247593  0.93805162  1
  O  O92  1  0.26927488  0.68330904  0.62408354  1
  O  O93  1  0.73021640  0.55088038  0.31494292  1
  O  O94  1  0.99700954  0.25820314  0.56038006  1
  O  O95  1  0.21998860  0.31493119  0.99877698  1
  O  O96  1  0.45693935  0.26391489  0.81556635  1
  O  O97  1  0.73072512  0.18330904  0.87591646  1
  O  O98  1  0.76927488  0.68330904  0.87591646  1
  O  O99  1  0.80409003  0.74617662  0.24588814  1
  O  O100  1  0.03978842  0.76845083  0.68749847  1
  O  O101  1  0.78908042  0.49214968  0.69833983  1
  O  O102  1  0.30409003  0.75382338  0.75411186  1
  O  O103  1  0.00000000  0.50000000  -0.00000000  1
  O  O104  1  0.73848033  0.43012179  0.93980631  1
  O  O105  1  0.00299046  0.74179686  0.43961994  1
  O  O106  1  0.49646182  0.24247593  0.56194838  1
  O  O107  1  0.26978360  0.05088038  0.18505708  1
  O  O108  1  0.71998860  0.31493119  0.50122302  1
  O  O109  1  0.53978842  0.76845083  0.81250153  1
  O  O110  1  0.49692481  0.99913162  0.75821954  1
  O  O111  1  0.99692481  0.99913162  0.74178046  1
loop_
_geom_bond_atom_site_label_1
_geom_bond_atom_site_label_2
_geom_bond_distance
_geom_bond_site_symmetry_2
Ba0 O107 2.757888 1_565
Ba0 O28 2.791179 1_555
Ba0 O56 2.817742 1_465
Ba0 O51 2.904401 1_565
Ba0 O54 2.945088 1_465
Ba0 O86 2.956835 1_555
Ba0 O34 2.973966 1_555
Ba0 O4 3.014722 1_565
Ba0 O90 3.340458 1_465
Ba0 O59 3.379151 1_455
Ba0 O27 3.433788 1_565
Ba1 O58 2.757888 1_565
Ba1 O55 2.791179 1_555
Ba1 O5 2.817742 1_565
Ba1 O1 2.904401 1_565
Ba1 O31 2.945088 1_565
Ba1 O83 2.956835 1_555
Ba1 O47 2.973966 1_555
Ba1 O8 3.014722 1_565
Ba1 O9 3.340458 1_565
Ba1 O75 3.379151 1_555
Ba1 O32 3.433788 1_565
Ba2 O2 2.757888 1_555
Ba2 O0 2.791179 1_555
Ba2 O67 2.817742 1_555
Ba2 O72 2.904401 1_555
Ba2 O26 2.945088 1_555
Ba2 O69 2.956835 1_555
Ba2 O62 2.973966 1_555
Ba2 O3 3.014722 1_555
Ba2 O89 3.340458 1_555
Ba2 O68 3.379151 1_555
Ba2 O49 3.433788 1_555
Ba3 O43 2.757888 1_545
Ba3 O82 2.791179 1_555
Ba3 O12 2.817742 1_645
Ba3 O111 2.904401 1_545
Ba3 O42 2.945088 1_645
Ba3 O97 2.956835 1_555
Ba3 O22 2.973966 1_555
Ba3 O40 3.014722 1_545
Ba3 O20 3.340458 1_645
Ba3 O61 3.379151 1_655
Ba3 O27 3.433788 1_656
Ba4 O17 2.757888 1_555
Ba4 O100 2.791179 1_555
Ba4 O101 2.817742 1_455
Ba4 O87 2.904401 1_555
Ba4 O73 2.945088 1_455
Ba4 O92 2.956835 1_555
Ba4 O25 2.973966 1_555
Ba4 O33 3.014722 1_555
Ba4 O94 3.340458 1_455
Ba4 O15 3.379151 1_455
Ba4 O10 3.433788 1_555
Ba5 O93 2.757888 1_555
Ba5 O84 2.791179 1_555
Ba5 O39 2.817742 1_655
Ba5 O57 2.904401 1_555
Ba5 O36 2.945088 1_655
Ba5 O50 2.956835 1_555
Ba5 O78 2.973966 1_555
Ba5 O66 3.014722 1_555
Ba5 O105 3.340458 1_655
Ba5 O24 3.379151 1_655
Ba5 O10 3.433788 1_655
Ba6 O85 2.757888 1_555
Ba6 O109 2.791179 1_555
Ba6 O65 2.817742 1_555
Ba6 O60 2.904401 1_555
Ba6 O96 2.945088 1_555
Ba6 O98 2.956835 1_555
Ba6 O91 2.973966 1_555
Ba6 O104 3.014722 1_555
Ba6 O52 3.340458 1_555
Ba6 O21 3.379151 1_555
Ba6 O49 3.433788 1_556
Ba7 O76 2.757888 1_545
Ba7 O14 2.791179 1_555
Ba7 O63 2.817742 1_545
Ba7 O110 2.904401 1_545
Ba7 O44 2.945088 1_545
Ba7 O74 2.956835 1_555
Ba7 O106 2.973966 1_555
Ba7 O23 3.014722 1_545
Ba7 O7 3.340458 1_545
Ba7 O79 3.379151 1_555
Ba7 O32 3.433788 1_555
Nb0 O39 2.061748 1_555
Nb0 O72 2.062934 1_555
Nb0 O11 2.079796 1_555
Nb0 O55 2.082309 1_555
Nb0 O16 2.441676 1_555
Nb1 O49 1.961203 1_555
Nb1 O70 1.961712 1_555
Nb1 O68 2.034120 1_555
Nb1 O62 2.072037 1_555
Nb1 O104 2.164796 1_554
Nb1 O52 2.178113 1_554
Nb2 O52 1.998458 1_555
Nb2 O77 2.115028 1_555
Nb2 O61 2.124164 1_555
Nb2 O96 2.124466 1_555
Nb3 O67 2.061748 1_555
Nb3 O57 2.062934 1_555
Nb3 O41 2.079796 1_555
Nb3 O28 2.082309 1_655
Nb3 O99 2.441676 1_555
Nb4 O86 2.074866 1_555
Nb4 O89 2.135281 1_555
Nb4 O37 2.168746 1_554
Nb4 O4 2.170436 1_565
Nb4 O45 2.179893 1_565
Nb5 O50 2.085197 1_555
Nb5 O93 2.104636 1_555
Nb5 O72 2.107017 1_555
Nb5 O31 2.141472 1_555
Nb5 O71 2.559630 1_555
Nb6 O35 2.058868 1_555
Nb6 O81 2.145315 1_665
Nb6 O79 2.157524 1_565
Nb6 O25 2.168860 1_655
Nb6 O38 2.187159 1_555
Nb7 O32 1.961203 1_565
Nb7 O29 1.961712 1_555
Nb7 O75 2.034120 1_555
Nb7 O47 2.072037 1_555
Nb7 O23 2.164796 1_555
Nb7 O7 2.178113 1_555
Nb8 O8 2.093322 1_555
Nb8 O84 2.100132 1_555
Nb8 O58 2.135774 1_555
Nb8 O78 2.206856 1_555
Nb8 O50 2.237285 1_555
Nb9 O86 2.085197 1_555
Nb9 O107 2.104636 1_565
Nb9 O1 2.107017 1_565
Nb9 O26 2.141472 1_555
Nb9 O16 2.559630 1_555
Nb10 O64 2.058868 1_555
Nb10 O45 2.145315 1_555
Nb10 O59 2.157524 1_545
Nb10 O62 2.168860 1_555
Nb10 O70 2.187159 1_555
Nb11 O23 2.093322 1_555
Nb11 O100 2.100132 1_555
Nb11 O76 2.135774 1_555
Nb11 O25 2.206856 1_555
Nb11 O92 2.237285 1_555
Nb12 O92 2.074866 1_555
Nb12 O7 2.135281 1_555
Nb12 O29 2.168746 1_555
Nb12 O33 2.170436 1_555
Nb12 O80 2.179893 1_555
Nb13 O83 2.085197 1_555
Nb13 O58 2.104636 1_565
Nb13 O51 2.107017 1_665
Nb13 O36 2.141472 1_655
Nb13 O99 2.559630 1_555
Nb14 O99 1.849429 1_555
Nb14 O67 1.958719 1_555
Nb14 O26 2.058637 1_555
Nb14 O93 2.110793 1_555
Nb14 O55 2.131463 1_555
Nb14 O72 2.174744 1_555
Nb15 O53 1.849429 1_555
Nb15 O5 1.958719 1_555
Nb15 O31 2.058637 1_555
Nb15 O107 2.110793 1_555
Nb15 O0 2.131463 1_555
Nb15 O1 2.174744 1_555
Nb16 O69 2.074866 1_555
Nb16 O90 2.135281 1_455
Nb16 O95 2.168746 1_554
Nb16 O3 2.170436 1_555
Nb16 O103 2.179893 1_555
Nb17 O7 1.998458 1_555
Nb17 O35 2.115028 1_555
Nb17 O15 2.124164 1_555
Nb17 O44 2.124466 1_555
Nb18 O101 2.061748 1_555
Nb18 O60 2.062934 1_555
Nb18 O6 2.079796 1_555
Nb18 O14 2.082309 1_555
Nb18 O13 2.441676 1_555
Nb19 O65 2.061748 1_555
Nb19 O87 2.062934 1_555
Nb19 O77 2.079796 1_555
Nb19 O82 2.082309 1_455
Nb19 O46 2.441676 1_555
Nb20 O33 2.093322 1_555
Nb20 O14 2.100132 1_555
Nb20 O17 2.135774 1_555
Nb20 O106 2.206856 1_555
Nb20 O74 2.237285 1_555
Nb21 O10 1.961203 1_655
Nb21 O38 1.961712 1_555
Nb21 O15 2.034120 1_555
Nb21 O25 2.072037 1_655
Nb21 O66 2.164796 1_555
Nb21 O105 2.178113 1_655
Nb22 O19 2.058868 1_555
Nb22 O45 2.145315 1_566
Nb22 O61 2.157524 1_565
Nb22 O91 2.168860 1_555
Nb22 O37 2.187159 1_555
Nb23 O40 2.093322 1_555
Nb23 O109 2.100132 1_555
Nb23 O43 2.135774 1_555
Nb23 O91 2.206856 1_555
Nb23 O98 2.237285 1_555
Nb24 O4 2.093322 1_555
Nb24 O0 2.100132 1_555
Nb24 O107 2.135774 1_555
Nb24 O62 2.206856 1_555
Nb24 O69 2.237285 1_555
Nb25 O97 2.074866 1_555
Nb25 O52 2.135281 1_555
Nb25 O70 2.168746 1_556
Nb25 O40 2.170436 1_545
Nb25 O45 2.179893 1_556
Nb26 O6 2.058868 1_555
Nb26 O80 2.145315 1_555
Nb26 O15 2.157524 1_555
Nb26 O106 2.168860 1_555
Nb26 O108 2.187159 1_555
Nb27 O5 2.061748 1_555
Nb27 O51 2.062934 1_555
Nb27 O18 2.079796 1_555
Nb27 O84 2.082309 1_455
Nb27 O53 2.441676 1_555
Nb28 O102 1.849429 1_555
Nb28 O12 1.958719 1_555
Nb28 O42 2.058637 1_555
Nb28 O76 2.110793 1_555
Nb28 O100 2.131463 1_555
Nb28 O111 2.174744 1_455
Nb29 O63 2.061748 1_555
Nb29 O111 2.062934 1_555
Nb29 O35 2.079796 1_555
Nb29 O100 2.082309 1_655
Nb29 O48 2.441676 1_555
Nb30 O50 2.074866 1_555
Nb30 O9 2.135281 1_555
Nb30 O108 2.168746 1_555
Nb30 O66 2.170436 1_555
Nb30 O80 2.179893 1_555
Nb31 O13 1.849429 1_555
Nb31 O101 1.958719 1_555
Nb31 O73 2.058637 1_555
Nb31 O85 2.110793 1_555
Nb31 O82 2.131463 1_555
Nb31 O87 2.174744 1_655
Nb32 O90 1.998458 1_555
Nb32 O64 2.115028 1_555
Nb32 O68 2.124164 1_555
Nb32 O54 2.124466 1_555
Nb33 O66 2.093322 1_555
Nb33 O55 2.100132 1_555
Nb33 O93 2.135774 1_555
Nb33 O47 2.206856 1_555
Nb33 O83 2.237285 1_555
Nb34 O46 1.849429 1_555
Nb34 O65 1.958719 1_555
Nb34 O96 2.058637 1_555
Nb34 O17 2.110793 1_555
Nb34 O14 2.131463 1_555
Nb34 O60 2.174744 1_555
Nb35 O105 1.998458 1_555
Nb35 O11 2.115028 1_555
Nb35 O75 2.124164 1_555
Nb35 O36 2.124466 1_555
Nb36 O9 1.998458 1_555
Nb36 O18 2.115028 1_555
Nb36 O24 2.124164 1_555
Nb36 O31 2.124466 1_555
Nb37 O27 1.961203 1_665
Nb37 O88 1.961712 1_555
Nb37 O59 2.034120 1_555
Nb37 O34 2.072037 1_655
Nb37 O40 2.164796 1_554
Nb37 O20 2.178113 1_654
Nb38 O12 2.061748 1_555
Nb38 O110 2.062934 1_555
Nb38 O19 2.079796 1_555
Nb38 O109 2.082309 1_555
Nb38 O102 2.441676 1_555
Nb39 O74 2.074866 1_555
Nb39 O94 2.135281 1_455
Nb39 O30 2.168746 1_555
Nb39 O23 2.170436 1_545
Nb39 O81 2.179893 1_555
Nb40 O18 2.058868 1_555
Nb40 O81 2.145315 1_555
Nb40 O75 2.157524 1_545
Nb40 O78 2.168860 1_455
Nb40 O30 2.187159 1_555
Nb41 O32 1.961203 1_555
Nb41 O108 1.961712 1_555
Nb41 O79 2.034120 1_555
Nb41 O106 2.072037 1_555
Nb41 O8 2.164796 1_555
Nb41 O9 2.178113 1_555
Nb42 O104 2.093322 1_555
Nb42 O82 2.100132 1_555
Nb42 O85 2.135774 1_555
Nb42 O22 2.206856 1_555
Nb42 O97 2.237285 1_555
Nb43 O56 2.061748 1_555
Nb43 O1 2.062934 1_555
Nb43 O64 2.079796 1_555
Nb43 O0 2.082309 1_555
Nb43 O71 2.441676 1_555
Nb44 O16 1.849429 1_555
Nb44 O39 1.958719 1_555
Nb44 O36 2.058637 1_555
Nb44 O2 2.110793 1_555
Nb44 O28 2.131463 1_555
Nb44 O57 2.174744 1_455
Nb45 O20 1.998458 1_555
Nb45 O19 2.115028 1_555
Nb45 O21 2.124164 1_555
Nb45 O42 2.124466 1_555
Nb46 O97 2.085197 1_555
Nb46 O43 2.104636 1_545
Nb46 O110 2.107017 1_545
Nb46 O96 2.141472 1_555
Nb46 O13 2.559630 1_555
Nb47 O94 1.998458 1_555
Nb47 O6 2.115028 1_555
Nb47 O79 2.124164 1_555
Nb47 O73 2.124466 1_555
Nb48 O74 2.085197 1_555
Nb48 O76 2.104636 1_545
Nb48 O111 2.107017 1_445
Nb48 O73 2.141472 1_455
Nb48 O46 2.559630 1_555
Nb49 O98 2.085197 1_555
Nb49 O85 2.104636 1_555
Nb49 O87 2.107017 1_655
Nb49 O42 2.141472 1_655
Nb49 O48 2.559630 1_555
Nb50 O89 1.998458 1_555
Nb50 O41 2.115028 1_555
Nb50 O59 2.124164 1_555
Nb50 O26 2.124466 1_555
Nb51 O77 2.058868 1_555
Nb51 O103 2.145315 1_556
Nb51 O21 2.157524 1_555
Nb51 O22 2.168860 1_455
Nb51 O95 2.187159 1_555
Nb52 O98 2.074866 1_555
Nb52 O20 2.135281 1_655
Nb52 O88 2.168746 1_556
Nb52 O104 2.170436 1_555
Nb52 O103 2.179893 1_656
Nb53 O48 1.849429 1_555
Nb53 O63 1.958719 1_555
Nb53 O44 2.058637 1_555
Nb53 O43 2.110793 1_555
Nb53 O109 2.131463 1_555
Nb53 O110 2.174744 1_555
Nb54 O92 2.085197 1_555
Nb54 O17 2.104636 1_555
Nb54 O60 2.107017 1_555
Nb54 O44 2.141472 1_555
Nb54 O102 2.559630 1_555
Nb55 O3 2.093322 1_555
Nb55 O28 2.100132 1_555
Nb55 O2 2.135774 1_555
Nb55 O34 2.206856 1_555
Nb55 O86 2.237285 1_555
Nb56 O49 1.961203 1_556
Nb56 O37 1.961712 1_555
Nb56 O21 2.034120 1_555
Nb56 O91 2.072037 1_555
Nb56 O3 2.164796 1_556
Nb56 O89 2.178113 1_556
Nb57 O71 1.849429 1_555
Nb57 O56 1.958719 1_555
Nb57 O54 2.058637 1_555
Nb57 O58 2.110793 1_555
Nb57 O84 2.131463 1_555
Nb57 O51 2.174744 1_655
Nb58 O10 1.961203 1_555
Nb58 O30 1.961712 1_555
Nb58 O24 2.034120 1_555
Nb58 O78 2.072037 1_455
Nb58 O33 2.164796 1_555
Nb58 O94 2.178113 1_455
Nb59 O69 2.085197 1_555
Nb59 O2 2.104636 1_555
Nb59 O57 2.107017 1_455
Nb59 O54 2.141472 1_455
Nb59 O53 2.559630 1_555
Nb60 O11 2.058868 1_555
Nb60 O80 2.145315 1_555
Nb60 O24 2.157524 1_555
Nb60 O47 2.168860 1_555
Nb60 O29 2.187159 1_555
Nb61 O41 2.058868 1_555
Nb61 O103 2.145315 1_655
Nb61 O68 2.157524 1_555
Nb61 O34 2.168860 1_655
Nb61 O88 2.187159 1_555
Nb62 O83 2.074866 1_555
Nb62 O105 2.135281 1_655
Nb62 O38 2.168746 1_555
Nb62 O8 2.170436 1_565
Nb62 O81 2.179893 1_665
Nb63 O27 1.961203 1_556
Nb63 O95 1.961712 1_555
Nb63 O61 2.034120 1_555
Nb63 O22 2.072037 1_455
Nb63 O4 2.164796 1_556
Nb63 O90 2.178113 1_456
