# generated using pymatgen
data_Bi4Cl2O5
_symmetry_space_group_name_H-M   'P 1'
_cell_length_a   3.86079900
_cell_length_b   15.48087300
_cell_length_c   41.30677700
_cell_angle_alpha   90.00000000
_cell_angle_beta   90.00000000
_cell_angle_gamma   90.00000000
_symmetry_Int_Tables_number   1
_chemical_formula_structural   Bi4Cl2O5
_chemical_formula_sum   'Bi48 Cl24 O60'
_cell_volume   2468.84571199
_cell_formula_units_Z   12
loop_
 _symmetry_equiv_pos_site_id
 _symmetry_equiv_pos_as_xyz
  1  'x, y, z'
loop_
 _atom_site_type_symbol
 _atom_site_label
 _atom_site_symmetry_multiplicity
 _atom_site_fract_x
 _atom_site_fract_y
 _atom_site_fract_z
 _atom_site_occupancy
  Bi  Bi0  1  0.75000000  0.88607700  0.84167800  1
  Bi  Bi1  1  0.25000000  0.51623100  0.26833600  1
  Bi  Bi2  1  0.75000000  0.25768700  0.59695500  1
  Bi  Bi3  1  0.75000000  0.23830300  0.40798900  1
  Bi  Bi4  1  0.25000000  0.63448300  0.17550400  1
  Bi  Bi5  1  0.75000000  0.78754400  0.74693400  1
  Bi  Bi6  1  0.25000000  0.46650600  0.91129500  1
  Bi  Bi7  1  0.25000000  0.21245600  0.25306600  1
  Bi  Bi8  1  0.25000000  0.38607700  0.65832200  1
  Bi  Bi9  1  0.25000000  0.10979200  0.64969200  1
  Bi  Bi10  1  0.75000000  0.60979200  0.85030800  1
  Bi  Bi11  1  0.25000000  0.34185300  0.33821200  1
  Bi  Bi12  1  0.25000000  0.03349400  0.41129500  1
  Bi  Bi13  1  0.75000000  0.10099700  0.99253400  1
  Bi  Bi14  1  0.75000000  0.36551700  0.82449600  1
  Bi  Bi15  1  0.75000000  0.26169700  0.90798900  1
  Bi  Bi16  1  0.75000000  0.48376900  0.73166400  1
  Bi  Bi17  1  0.75000000  0.13448300  0.32449600  1
  Bi  Bi18  1  0.75000000  0.71245600  0.24693400  1
  Bi  Bi19  1  0.75000000  0.09622200  0.49086800  1
  Bi  Bi20  1  0.75000000  0.96650600  0.58870500  1
  Bi  Bi21  1  0.75000000  0.52637500  0.57806900  1
  Bi  Bi22  1  0.25000000  0.75768700  0.90304500  1
  Bi  Bi23  1  0.25000000  0.90377800  0.50913200  1
  Bi  Bi24  1  0.75000000  0.89020800  0.35030800  1
  Bi  Bi25  1  0.75000000  0.84185300  0.16178800  1
  Bi  Bi26  1  0.25000000  0.89900300  0.00746600  1
  Bi  Bi27  1  0.25000000  0.76169700  0.59201100  1
  Bi  Bi28  1  0.75000000  0.40377800  0.99086800  1
  Bi  Bi29  1  0.25000000  0.15814700  0.83821200  1
  Bi  Bi30  1  0.25000000  0.74231300  0.40304500  1
  Bi  Bi31  1  0.25000000  0.11392300  0.15832200  1
  Bi  Bi32  1  0.25000000  0.47362500  0.42193100  1
  Bi  Bi33  1  0.75000000  0.97362500  0.07806900  1
  Bi  Bi34  1  0.25000000  0.28754400  0.75306600  1
  Bi  Bi35  1  0.75000000  0.01623100  0.23166400  1
  Bi  Bi36  1  0.25000000  0.98376900  0.76833600  1
  Bi  Bi37  1  0.25000000  0.39020800  0.14969200  1
  Bi  Bi38  1  0.75000000  0.39900300  0.49253400  1
  Bi  Bi39  1  0.25000000  0.73830300  0.09201100  1
  Bi  Bi40  1  0.25000000  0.60099700  0.50746600  1
  Bi  Bi41  1  0.25000000  0.59622200  0.00913200  1
  Bi  Bi42  1  0.75000000  0.61392300  0.34167800  1
  Bi  Bi43  1  0.75000000  0.65814700  0.66178800  1
  Bi  Bi44  1  0.75000000  0.53349400  0.08870500  1
  Bi  Bi45  1  0.75000000  0.24231300  0.09695500  1
  Bi  Bi46  1  0.25000000  0.02637500  0.92193100  1
  Bi  Bi47  1  0.25000000  0.86551700  0.67550400  1
  Cl  Cl0  1  0.25000000  0.63635600  0.72408500  1
  Cl  Cl1  1  0.75000000  0.49102200  0.19777500  1
  Cl  Cl2  1  0.75000000  0.00897800  0.69777500  1
  Cl  Cl3  1  0.75000000  0.62536600  0.44641900  1
  Cl  Cl4  1  0.25000000  0.99102200  0.30222500  1
  Cl  Cl5  1  0.25000000  0.36167100  0.05490600  1
  Cl  Cl6  1  0.25000000  0.13832900  0.55490600  1
  Cl  Cl7  1  0.75000000  0.24244900  0.19441700  1
  Cl  Cl8  1  0.25000000  0.25542800  0.47018300  1
  Cl  Cl9  1  0.75000000  0.13635600  0.77591500  1
  Cl  Cl10  1  0.25000000  0.75755100  0.80558300  1
  Cl  Cl11  1  0.75000000  0.87463400  0.94641900  1
  Cl  Cl12  1  0.75000000  0.86167100  0.44509400  1
  Cl  Cl13  1  0.25000000  0.50897800  0.80222500  1
  Cl  Cl14  1  0.25000000  0.74244900  0.30558300  1
  Cl  Cl15  1  0.25000000  0.12536600  0.05358100  1
  Cl  Cl16  1  0.25000000  0.24457200  0.97018300  1
  Cl  Cl17  1  0.75000000  0.75542800  0.02981700  1
  Cl  Cl18  1  0.75000000  0.36364400  0.27591500  1
  Cl  Cl19  1  0.75000000  0.25755100  0.69441700  1
  Cl  Cl20  1  0.75000000  0.74457200  0.52981700  1
  Cl  Cl21  1  0.25000000  0.37463400  0.55358100  1
  Cl  Cl22  1  0.75000000  0.63832900  0.94509400  1
  Cl  Cl23  1  0.25000000  0.86364400  0.22408500  1
  O  O0  1  0.25000000  0.25597000  0.62693300  1
  O  O1  1  0.75000000  0.38996000  0.62453700  1
  O  O2  1  0.25000000  0.98277000  0.62630000  1
  O  O3  1  0.25000000  0.03026600  0.97995700  1
  O  O4  1  0.25000000  0.09075100  0.22393100  1
  O  O5  1  0.25000000  0.51191900  0.32065700  1
  O  O6  1  0.25000000  0.73116800  0.64867600  1
  O  O7  1  0.75000000  0.79525800  0.69054400  1
  O  O8  1  0.75000000  0.26883200  0.35132400  1
  O  O9  1  0.25000000  0.29525800  0.80945600  1
  O  O10  1  0.75000000  0.70474200  0.19054400  1
  O  O11  1  0.25000000  0.46973400  0.47995700  1
  O  O12  1  0.25000000  0.89629100  0.56456200  1
  O  O13  1  0.25000000  0.13974100  0.88997100  1
  O  O14  1  0.75000000  0.66731200  0.10999400  1
  O  O15  1  0.75000000  0.37286000  0.12249800  1
  O  O16  1  0.75000000  0.59075100  0.27606900  1
  O  O17  1  0.75000000  0.75597000  0.87306700  1
  O  O18  1  0.25000000  0.98808100  0.82065700  1
  O  O19  1  0.75000000  0.97205500  0.52110500  1
  O  O20  1  0.25000000  0.20474200  0.30945600  1
  O  O21  1  0.75000000  0.11004000  0.12453700  1
  O  O22  1  0.25000000  0.88996000  0.87546300  1
  O  O23  1  0.25000000  0.36025900  0.38997100  1
  O  O24  1  0.25000000  0.60370900  0.06456200  1
  O  O25  1  0.75000000  0.23116800  0.85132400  1
  O  O26  1  0.25000000  0.62714000  0.87750200  1
  O  O27  1  0.75000000  0.83268800  0.60999400  1
  O  O28  1  0.25000000  0.91002000  0.06154500  1
  O  O29  1  0.25000000  0.85461100  0.73232600  1
  O  O30  1  0.75000000  0.10370900  0.43543800  1
  O  O31  1  0.75000000  0.08998000  0.93845500  1
  O  O32  1  0.75000000  0.63974100  0.61002900  1
  O  O33  1  0.25000000  0.40924900  0.72393100  1
  O  O34  1  0.75000000  0.35461100  0.76767400  1
  O  O35  1  0.25000000  0.24403000  0.12693300  1
  O  O36  1  0.75000000  0.86025900  0.11002900  1
  O  O37  1  0.75000000  0.39629100  0.93543800  1
  O  O38  1  0.25000000  0.16731200  0.39000600  1
  O  O39  1  0.25000000  0.33268800  0.89000600  1
  O  O40  1  0.75000000  0.48277000  0.87370000  1
  O  O41  1  0.25000000  0.58998000  0.56154500  1
  O  O42  1  0.75000000  0.12714000  0.62249800  1
  O  O43  1  0.75000000  0.96973400  0.02004300  1
  O  O44  1  0.75000000  0.74403000  0.37306700  1
  O  O45  1  0.75000000  0.53026600  0.52004300  1
  O  O46  1  0.25000000  0.02794500  0.47889500  1
  O  O47  1  0.75000000  0.48808100  0.67934300  1
  O  O48  1  0.25000000  0.76883200  0.14867600  1
  O  O49  1  0.25000000  0.64538900  0.23232600  1
  O  O50  1  0.75000000  0.52794500  0.02110500  1
  O  O51  1  0.25000000  0.61004000  0.37546300  1
  O  O52  1  0.75000000  0.90924900  0.77606900  1
  O  O53  1  0.75000000  0.01723000  0.37370000  1
  O  O54  1  0.25000000  0.47205500  0.97889500  1
  O  O55  1  0.75000000  0.14538900  0.26767400  1
  O  O56  1  0.75000000  0.41002000  0.43845500  1
  O  O57  1  0.25000000  0.51723000  0.12630000  1
  O  O58  1  0.25000000  0.87286000  0.37750200  1
  O  O59  1  0.75000000  0.01191900  0.17934300  1
loop_
_geom_bond_atom_site_label_1
_geom_bond_atom_site_label_2
_geom_bond_distance
_geom_bond_site_symmetry_2
Bi0 O22 2.382774 1_555
Bi0 O22 2.382774 1_655
Bi0 O17 2.395411 1_555
Bi0 O18 2.640832 1_555
Bi0 O18 2.640832 1_655
Bi0 O52 2.733734 1_555
Bi0 Cl10 3.147747 1_555
Bi0 Cl10 3.147747 1_655
Bi1 O5 2.162243 1_555
Bi1 O16 2.271420 1_455
Bi1 O16 2.271420 1_555
Bi1 O49 2.492076 1_555
Bi1 Cl18 3.066651 1_455
Bi1 Cl18 3.066651 1_555
Bi2 O42 2.279825 1_555
Bi2 O0 2.293583 1_555
Bi2 O0 2.293583 1_655
Bi2 O1 2.343318 1_555
Bi2 Cl6 3.187089 1_655
Bi2 Cl6 3.187089 1_555
Bi2 Cl21 3.195953 1_655
Bi2 Cl21 3.195953 1_555
Bi3 O38 2.342228 1_655
Bi3 O38 2.342228 1_555
Bi3 O30 2.372150 1_555
Bi3 O8 2.387886 1_555
Bi3 Cl8 3.224385 1_655
Bi3 Cl8 3.224385 1_555
Bi4 O10 2.301179 1_455
Bi4 O10 2.301179 1_555
Bi4 O49 2.353198 1_555
Bi4 O48 2.356649 1_555
Bi4 O57 2.725025 1_555
Bi4 Cl1 3.083041 1_555
Bi4 Cl1 3.083041 1_455
Bi5 O52 2.235661 1_555
Bi5 O29 2.273438 1_555
Bi5 O29 2.273438 1_655
Bi5 O7 2.332348 1_555
Bi5 Cl10 3.132256 1_655
Bi5 Cl10 3.132256 1_555
Bi5 Cl0 3.177307 1_555
Bi5 Cl0 3.177307 1_655
Bi6 O39 2.250537 1_555
Bi6 O37 2.429513 1_555
Bi6 O37 2.429513 1_455
Bi6 O40 2.490265 1_455
Bi6 O40 2.490265 1_555
Bi6 O54 2.793659 1_555
Bi6 O26 2.851741 1_555
Bi7 O4 2.235661 1_555
Bi7 O55 2.273438 1_455
Bi7 O55 2.273438 1_555
Bi7 O20 2.332348 1_555
Bi7 Cl7 3.132256 1_555
Bi7 Cl7 3.132256 1_455
Bi7 Cl18 3.177307 1_455
Bi7 Cl18 3.177307 1_555
Bi8 O1 2.382774 1_555
Bi8 O1 2.382774 1_455
Bi8 O0 2.395411 1_555
Bi8 O47 2.640832 1_455
Bi8 O47 2.640832 1_555
Bi8 O33 2.733734 1_555
Bi8 Cl19 3.147747 1_455
Bi8 Cl19 3.147747 1_555
Bi9 O2 2.190984 1_545
Bi9 O42 2.249525 1_555
Bi9 O42 2.249525 1_455
Bi9 O0 2.450468 1_555
Bi9 Cl2 3.179151 1_555
Bi9 Cl2 3.179151 1_455
Bi10 O40 2.190984 1_555
Bi10 O26 2.249525 1_655
Bi10 O26 2.249525 1_555
Bi10 O17 2.450468 1_555
Bi10 Cl13 3.179151 1_555
Bi10 Cl13 3.179151 1_655
Bi11 O23 2.156902 1_555
Bi11 O8 2.301664 1_455
Bi11 O8 2.301664 1_555
Bi11 O20 2.432351 1_555
Bi11 O5 2.730807 1_555
Bi11 Cl18 3.234510 1_455
Bi11 Cl18 3.234510 1_555
Bi12 O38 2.250537 1_555
Bi12 O30 2.429513 1_555
Bi12 O30 2.429513 1_455
Bi12 O53 2.490265 1_455
Bi12 O53 2.490265 1_555
Bi12 O46 2.793659 1_555
Bi12 O58 2.851741 1_545
Bi13 O31 2.240331 1_555
Bi13 O3 2.279323 1_655
Bi13 O3 2.279323 1_555
Bi13 O43 2.328194 1_546
Bi13 Cl16 3.085300 1_555
Bi13 Cl16 3.085300 1_655
Bi13 Cl15 3.198047 1_556
Bi13 Cl15 3.198047 1_656
Bi14 O9 2.301179 1_655
Bi14 O9 2.301179 1_555
Bi14 O34 2.353198 1_555
Bi14 O25 2.356649 1_555
Bi14 O40 2.725025 1_555
Bi14 Cl13 3.083041 1_555
Bi14 Cl13 3.083041 1_655
Bi15 O39 2.342228 1_655
Bi15 O39 2.342228 1_555
Bi15 O37 2.372150 1_555
Bi15 O25 2.387886 1_555
Bi15 Cl16 3.224385 1_655
Bi15 Cl16 3.224385 1_555
Bi16 O47 2.162243 1_555
Bi16 O33 2.271420 1_655
Bi16 O33 2.271420 1_555
Bi16 O34 2.492076 1_555
Bi16 Cl0 3.066651 1_655
Bi16 Cl0 3.066651 1_555
Bi17 O20 2.301179 1_555
Bi17 O20 2.301179 1_655
Bi17 O55 2.353198 1_555
Bi17 O8 2.356649 1_555
Bi17 O53 2.725025 1_555
Bi17 Cl4 3.083041 1_645
Bi17 Cl4 3.083041 1_545
Bi18 O16 2.235661 1_555
Bi18 O49 2.273438 1_655
Bi18 O49 2.273438 1_555
Bi18 O10 2.332348 1_555
Bi18 Cl14 3.132256 1_555
Bi18 Cl14 3.132256 1_655
Bi18 Cl23 3.177307 1_555
Bi18 Cl23 3.177307 1_655
Bi19 O46 2.255717 1_555
Bi19 O46 2.255717 1_655
Bi19 O19 2.292354 1_545
Bi19 O30 2.292566 1_555
Bi19 Cl8 3.245148 1_655
Bi19 Cl8 3.245148 1_555
Bi20 O27 2.250537 1_555
Bi20 O12 2.429513 1_655
Bi20 O12 2.429513 1_555
Bi20 O2 2.490265 1_555
Bi20 O2 2.490265 1_655
Bi20 O19 2.793659 1_555
Bi20 O42 2.851741 1_565
Bi21 O32 2.196105 1_555
Bi21 O41 2.271977 1_555
Bi21 O41 2.271977 1_655
Bi21 O45 2.397624 1_555
Bi21 O1 2.853780 1_555
Bi21 Cl21 3.204342 1_555
Bi21 Cl21 3.204342 1_655
Bi22 O26 2.279825 1_555
Bi22 O17 2.293583 1_555
Bi22 O17 2.293583 1_455
Bi22 O22 2.343318 1_555
Bi22 Cl22 3.187089 1_555
Bi22 Cl22 3.187089 1_455
Bi22 Cl11 3.195953 1_455
Bi22 Cl11 3.195953 1_555
Bi23 O19 2.255717 1_455
Bi23 O19 2.255717 1_555
Bi23 O46 2.292354 1_565
Bi23 O12 2.292566 1_555
Bi23 Cl20 3.245148 1_455
Bi23 Cl20 3.245148 1_555
Bi24 O53 2.190984 1_565
Bi24 O58 2.249525 1_555
Bi24 O58 2.249525 1_655
Bi24 O44 2.450468 1_555
Bi24 Cl4 3.179151 1_555
Bi24 Cl4 3.179151 1_655
Bi25 O36 2.156902 1_555
Bi25 O48 2.301664 1_655
Bi25 O48 2.301664 1_555
Bi25 O10 2.432351 1_555
Bi25 O59 2.730807 1_565
Bi25 Cl23 3.234510 1_555
Bi25 Cl23 3.234510 1_655
Bi26 O28 2.240331 1_555
Bi26 O43 2.279323 1_455
Bi26 O43 2.279323 1_555
Bi26 O3 2.328194 1_564
Bi26 Cl17 3.085300 1_555
Bi26 Cl17 3.085300 1_455
Bi26 Cl11 3.198047 1_554
Bi26 Cl11 3.198047 1_454
Bi27 O27 2.342228 1_455
Bi27 O27 2.342228 1_555
Bi27 O12 2.372150 1_555
Bi27 O6 2.387886 1_555
Bi27 Cl20 3.224385 1_555
Bi27 Cl20 3.224385 1_455
Bi28 O54 2.255717 1_555
Bi28 O54 2.255717 1_655
Bi28 O50 2.292354 1_556
Bi28 O37 2.292566 1_555
Bi28 Cl16 3.245148 1_555
Bi28 Cl16 3.245148 1_655
Bi29 O13 2.156902 1_555
Bi29 O25 2.301664 1_455
Bi29 O25 2.301664 1_555
Bi29 O9 2.432351 1_555
Bi29 O18 2.730807 1_545
Bi29 Cl9 3.234510 1_455
Bi29 Cl9 3.234510 1_555
Bi30 O58 2.279825 1_555
Bi30 O44 2.293583 1_455
Bi30 O44 2.293583 1_555
Bi30 O51 2.343318 1_555
Bi30 Cl12 3.187089 1_455
Bi30 Cl12 3.187089 1_555
Bi30 Cl3 3.195953 1_455
Bi30 Cl3 3.195953 1_555
Bi31 O21 2.382774 1_555
Bi31 O21 2.382774 1_455
Bi31 O35 2.395411 1_555
Bi31 O59 2.640832 1_555
Bi31 O59 2.640832 1_455
Bi31 O4 2.733734 1_555
Bi31 Cl7 3.147747 1_455
Bi31 Cl7 3.147747 1_555
Bi32 O23 2.196105 1_555
Bi32 O56 2.271977 1_555
Bi32 O56 2.271977 1_455
Bi32 O11 2.397624 1_555
Bi32 O51 2.853780 1_555
Bi32 Cl3 3.204342 1_555
Bi32 Cl3 3.204342 1_455
Bi33 O36 2.196105 1_555
Bi33 O28 2.271977 1_555
Bi33 O28 2.271977 1_655
Bi33 O43 2.397624 1_555
Bi33 O21 2.853780 1_565
Bi33 Cl15 3.204342 1_565
Bi33 Cl15 3.204342 1_665
Bi34 O33 2.235661 1_555
Bi34 O34 2.273438 1_455
Bi34 O34 2.273438 1_555
Bi34 O9 2.332348 1_555
Bi34 Cl19 3.132256 1_455
Bi34 Cl19 3.132256 1_555
Bi34 Cl9 3.177307 1_555
Bi34 Cl9 3.177307 1_455
Bi35 O59 2.162243 1_555
Bi35 O4 2.271420 1_655
Bi35 O4 2.271420 1_555
Bi35 O55 2.492076 1_555
Bi35 Cl23 3.066651 1_545
Bi35 Cl23 3.066651 1_645
Bi36 O18 2.162243 1_555
Bi36 O52 2.271420 1_455
Bi36 O52 2.271420 1_555
Bi36 O29 2.492076 1_555
Bi36 Cl9 3.066651 1_565
Bi36 Cl9 3.066651 1_465
Bi37 O57 2.190984 1_555
Bi37 O15 2.249525 1_455
Bi37 O15 2.249525 1_555
Bi37 O35 2.450468 1_555
Bi37 Cl1 3.179151 1_455
Bi37 Cl1 3.179151 1_555
Bi38 O56 2.240331 1_555
Bi38 O11 2.279323 1_555
Bi38 O11 2.279323 1_655
Bi38 O45 2.328194 1_555
Bi38 Cl8 3.085300 1_555
Bi38 Cl8 3.085300 1_655
Bi38 Cl21 3.198047 1_555
Bi38 Cl21 3.198047 1_655
Bi39 O14 2.342228 1_455
Bi39 O14 2.342228 1_555
Bi39 O24 2.372150 1_555
Bi39 O48 2.387886 1_555
Bi39 Cl17 3.224385 1_455
Bi39 Cl17 3.224385 1_555
Bi40 O41 2.240331 1_555
Bi40 O45 2.279323 1_555
Bi40 O45 2.279323 1_455
Bi40 O11 2.328194 1_555
Bi40 Cl20 3.085300 1_555
Bi40 Cl20 3.085300 1_455
Bi40 Cl3 3.198047 1_555
Bi40 Cl3 3.198047 1_455
Bi41 O50 2.255717 1_455
Bi41 O50 2.255717 1_555
Bi41 O54 2.292354 1_554
Bi41 O24 2.292566 1_555
Bi41 Cl17 3.245148 1_455
Bi41 Cl17 3.245148 1_555
Bi42 O51 2.382774 1_555
Bi42 O51 2.382774 1_655
Bi42 O44 2.395411 1_555
Bi42 O5 2.640832 1_555
Bi42 O5 2.640832 1_655
Bi42 O16 2.733734 1_555
Bi42 Cl14 3.147747 1_655
Bi42 Cl14 3.147747 1_555
Bi43 O32 2.156902 1_555
Bi43 O6 2.301664 1_555
Bi43 O6 2.301664 1_655
Bi43 O7 2.432351 1_555
Bi43 O47 2.730807 1_555
Bi43 Cl0 3.234510 1_655
Bi43 Cl0 3.234510 1_555
Bi44 O14 2.250537 1_555
Bi44 O24 2.429513 1_555
Bi44 O24 2.429513 1_655
Bi44 O57 2.490265 1_555
Bi44 O57 2.490265 1_655
Bi44 O50 2.793659 1_555
Bi44 O15 2.851741 1_555
Bi45 O15 2.279825 1_555
Bi45 O35 2.293583 1_655
Bi45 O35 2.293583 1_555
Bi45 O21 2.343318 1_555
Bi45 Cl5 3.187089 1_555
Bi45 Cl5 3.187089 1_655
Bi45 Cl15 3.195953 1_555
Bi45 Cl15 3.195953 1_655
Bi46 O13 2.196105 1_555
Bi46 O31 2.271977 1_455
Bi46 O31 2.271977 1_555
Bi46 O3 2.397624 1_555
Bi46 O22 2.853780 1_545
Bi46 Cl11 3.204342 1_545
Bi46 Cl11 3.204342 1_445
Bi47 O7 2.301179 1_555
Bi47 O7 2.301179 1_455
Bi47 O29 2.353198 1_555
Bi47 O6 2.356649 1_555
Bi47 O2 2.725025 1_555
Bi47 Cl2 3.083041 1_565
Bi47 Cl2 3.083041 1_465
