# generated using pymatgen
data_Ca2CO3F2
_symmetry_space_group_name_H-M   'P 1'
_cell_length_a   6.70872200
_cell_length_b   7.54761900
_cell_length_c   7.73786700
_cell_angle_alpha   90.00000000
_cell_angle_beta   90.00000000
_cell_angle_gamma   90.00000000
_symmetry_Int_Tables_number   1
_chemical_formula_structural   Ca2CO3F2
_chemical_formula_sum   'Ca8 C4 O12 F8'
_cell_volume   391.80594868
_cell_formula_units_Z   4
loop_
 _symmetry_equiv_pos_site_id
 _symmetry_equiv_pos_as_xyz
  1  'x, y, z'
loop_
 _atom_site_type_symbol
 _atom_site_label
 _atom_site_symmetry_multiplicity
 _atom_site_fract_x
 _atom_site_fract_y
 _atom_site_fract_z
 _atom_site_occupancy
  Ca  Ca0  1  0.53920100  0.33687100  0.17292300  1
  Ca  Ca1  1  0.03920100  0.16312900  0.32707700  1
  Ca  Ca2  1  0.96079900  0.33687100  0.82707700  1
  Ca  Ca3  1  0.46079900  0.16312900  0.67292300  1
  Ca  Ca4  1  0.46079900  0.66312900  0.82707700  1
  Ca  Ca5  1  0.96079900  0.83687100  0.67292300  1
  Ca  Ca6  1  0.03920100  0.66312900  0.17292300  1
  Ca  Ca7  1  0.53920100  0.83687100  0.32707700  1
  C  C0  1  0.75000000  0.46689100  0.50000000  1
  C  C1  1  0.25000000  0.03310900  0.00000000  1
  C  C2  1  0.25000000  0.53310900  0.50000000  1
  C  C3  1  0.75000000  0.96689100  0.00000000  1
  O  O0  1  0.32658300  0.44911000  0.62957400  1
  O  O1  1  0.17341700  0.44911000  0.37042600  1
  O  O2  1  0.82658300  0.05089000  0.87042600  1
  O  O3  1  0.67341700  0.55089000  0.37042600  1
  O  O4  1  0.32658300  0.94911000  0.87042600  1
  O  O5  1  0.82658300  0.55089000  0.62957400  1
  O  O6  1  0.17341700  0.94911000  0.12957400  1
  O  O7  1  0.25000000  0.20626200  0.00000000  1
  O  O8  1  0.75000000  0.79373800  0.00000000  1
  O  O9  1  0.25000000  0.70626200  0.50000000  1
  O  O10  1  0.75000000  0.29373800  0.50000000  1
  O  O11  1  0.67341700  0.05089000  0.12957400  1
  F  F0  1  0.89718200  0.37937000  0.12130800  1
  F  F1  1  0.39718200  0.12063000  0.37869200  1
  F  F2  1  0.60281800  0.37937000  0.87869200  1
  F  F3  1  0.10281800  0.12063000  0.62130800  1
  F  F4  1  0.89718200  0.87937000  0.37869200  1
  F  F5  1  0.39718200  0.62063000  0.12130800  1
  F  F6  1  0.60281800  0.87937000  0.62130800  1
  F  F7  1  0.10281800  0.62063000  0.87869200  1
loop_
_geom_bond_atom_site_label_1
_geom_bond_atom_site_label_2
_geom_bond_distance
_geom_bond_site_symmetry_2
Ca0 F2 2.338481 1_554
Ca0 O11 2.362685 1_555
Ca0 F5 2.377851 1_555
Ca0 O3 2.399085 1_555
Ca0 F0 2.455618 1_555
Ca0 F1 2.471168 1_555
Ca0 O7 2.554687 1_555
Ca1 F3 2.338481 1_555
Ca1 O1 2.362685 1_555
Ca1 F4 2.377851 1_445
Ca1 O6 2.399085 1_545
Ca1 F1 2.455618 1_555
Ca1 F0 2.471168 1_455
Ca1 O10 2.554687 1_455
Ca2 F0 2.338481 1_556
Ca2 O2 2.362685 1_555
Ca2 F7 2.377851 1_655
Ca2 O5 2.399085 1_555
Ca2 F2 2.455618 1_555
Ca2 F3 2.471168 1_655
Ca2 O7 2.554687 1_656
Ca3 F1 2.338481 1_555
Ca3 O0 2.362685 1_555
Ca3 F6 2.377851 1_545
Ca3 O4 2.399085 1_545
Ca3 F3 2.455618 1_555
Ca3 F2 2.471168 1_555
Ca3 O10 2.554687 1_555
Ca4 F5 2.338481 1_556
Ca4 O4 2.362685 1_555
Ca4 F2 2.377851 1_555
Ca4 O0 2.399085 1_555
Ca4 F7 2.455618 1_555
Ca4 F6 2.471168 1_555
Ca4 O8 2.554687 1_556
Ca5 F4 2.338481 1_555
Ca5 O5 2.362685 1_555
Ca5 F3 2.377851 1_665
Ca5 O2 2.399085 1_565
Ca5 F6 2.455618 1_555
Ca5 F7 2.471168 1_655
Ca5 O9 2.554687 1_655
Ca6 F7 2.338481 1_554
Ca6 O6 2.362685 1_555
Ca6 F0 2.377851 1_455
Ca6 O1 2.399085 1_555
Ca6 F5 2.455618 1_555
Ca6 F4 2.471168 1_455
Ca6 O8 2.554687 1_455
Ca7 F6 2.338481 1_555
Ca7 O3 2.362685 1_555
Ca7 F1 2.377851 1_565
Ca7 O11 2.399085 1_565
Ca7 F4 2.455618 1_555
Ca7 F5 2.471168 1_555
Ca7 O9 2.554687 1_555
C0 O5 1.292737 1_555
C0 O3 1.292737 1_555
C0 O10 1.306893 1_555
C1 O4 1.292737 1_544
C1 O6 1.292737 1_545
C1 O7 1.306893 1_555
C2 O0 1.292737 1_555
C2 O1 1.292737 1_555
C2 O9 1.306893 1_555
C3 O2 1.292737 1_564
C3 O11 1.292737 1_565
C3 O8 1.306893 1_555
