# generated using pymatgen
data_FeSbPt
_symmetry_space_group_name_H-M   'P 1'
_cell_length_a   6.23219398
_cell_length_b   6.23219398
_cell_length_c   6.23219415
_cell_angle_alpha   89.03850975
_cell_angle_beta   89.03850975
_cell_angle_gamma   89.03850769
_symmetry_Int_Tables_number   1
_chemical_formula_structural   FeSbPt
_chemical_formula_sum   'Fe4 Sb4 Pt4'
_cell_volume   241.95881073
_cell_formula_units_Z   4
loop_
 _symmetry_equiv_pos_site_id
 _symmetry_equiv_pos_as_xyz
  1  'x, y, z'
loop_
 _atom_site_type_symbol
 _atom_site_label
 _atom_site_symmetry_multiplicity
 _atom_site_fract_x
 _atom_site_fract_y
 _atom_site_fract_z
 _atom_site_occupancy
  Fe  Fe0  1  0.38359100  0.38359100  0.38359100  1
  Fe  Fe1  1  0.62083200  0.87503200  0.12349000  1
  Fe  Fe2  1  0.87503200  0.12349000  0.62083200  1
  Fe  Fe3  1  0.12349000  0.62083200  0.87503200  1
  Sb  Sb0  1  0.87588700  0.37544900  0.12685000  1
  Sb  Sb1  1  0.37544900  0.12685000  0.87588700  1
  Sb  Sb2  1  0.61276600  0.61276600  0.61276600  1
  Sb  Sb3  1  0.12685000  0.87588700  0.37544900  1
  Pt  Pt0  1  0.52107900  0.02830700  0.47700500  1
  Pt  Pt1  1  0.02830700  0.47700500  0.52107900  1
  Pt  Pt2  1  0.97921400  0.97921400  0.97921400  1
  Pt  Pt3  1  0.47700500  0.52107900  0.02830700  1
loop_
_geom_bond_atom_site_label_1
_geom_bond_atom_site_label_2
_geom_bond_distance
_geom_bond_site_symmetry_2
Fe0 Pt0 2.426027 1_555
Fe0 Pt1 2.426027 1_555
Fe0 Pt3 2.426027 1_555
Fe0 Sb2 2.514993 1_555
Fe1 Pt3 2.479813 1_555
Fe1 Pt0 2.481467 1_565
Fe1 Pt2 2.486016 1_554
Fe1 Sb1 2.664619 1_564
Fe2 Pt0 2.479813 1_555
Fe2 Pt1 2.481467 1_655
Fe2 Pt2 2.486016 1_545
Fe2 Sb3 2.664619 1_645
Fe3 Pt1 2.479813 1_555
Fe3 Pt3 2.481467 1_556
Fe3 Pt2 2.486016 1_455
Fe3 Sb0 2.664619 1_456
Pt0 Sb1 2.708774 1_555
Pt0 Sb3 2.736790 1_545
Pt0 Sb2 2.764438 1_545
Pt1 Sb3 2.708774 1_555
Pt1 Sb0 2.736790 1_455
Pt1 Sb2 2.764438 1_455
Pt2 Sb0 2.713348 1_566
Pt2 Sb1 2.713348 1_665
Pt2 Sb3 2.713348 1_656
Pt3 Sb0 2.708773 1_555
Pt3 Sb1 2.736790 1_554
Pt3 Sb2 2.764438 1_554
