# generated using pymatgen
data_Li2CuP
_symmetry_space_group_name_H-M   'P 1'
_cell_length_a   4.01649997
_cell_length_b   4.01649997
_cell_length_c   7.38675500
_cell_angle_alpha   90.00000000
_cell_angle_beta   90.00000000
_cell_angle_gamma   119.99999951
_symmetry_Int_Tables_number   1
_chemical_formula_structural   Li2CuP
_chemical_formula_sum   'Li4 Cu2 P2'
_cell_volume   103.20003981
_cell_formula_units_Z   2
loop_
 _symmetry_equiv_pos_site_id
 _symmetry_equiv_pos_as_xyz
  1  'x, y, z'
loop_
 _atom_site_type_symbol
 _atom_site_label
 _atom_site_symmetry_multiplicity
 _atom_site_fract_x
 _atom_site_fract_y
 _atom_site_fract_z
 _atom_site_occupancy
  Li  Li0  1  0.33333300  0.66666700  0.40549800  1
  Li  Li1  1  0.33333300  0.66666700  0.09046800  1
  Li  Li2  1  0.66666700  0.33333300  0.90953200  1
  Li  Li3  1  0.66666700  0.33333300  0.59450200  1
  Cu  Cu0  1  0.00000000  0.00000000  0.75538700  1
  Cu  Cu1  1  0.00000000  0.00000000  0.24461300  1
  P  P0  1  0.33333300  0.66666700  0.74842700  1
  P  P1  1  0.66666700  0.33333300  0.25157300  1
loop_
_geom_bond_atom_site_label_1
_geom_bond_atom_site_label_2
_geom_bond_distance
_geom_bond_site_symmetry_2
Li0 Li1 2.327049 1_555
Li0 P0 2.533133 1_555
Li0 P1 2.582672 1_455
Li0 P1 2.582672 1_565
Li0 P1 2.582679 1_555
Li0 Li3 2.706766 1_565
Li0 Li3 2.706766 1_455
Li0 Li3 2.706772 1_555
Li1 P0 2.526573 1_554
Li1 P1 2.606457 1_455
Li1 P1 2.606457 1_565
Li1 P1 2.606463 1_555
Li1 Li2 2.676514 1_454
Li1 Li2 2.676514 1_564
Li1 Li2 2.676520 1_554
Li2 Li3 2.327049 1_555
Li2 P1 2.526573 1_556
Li2 P0 2.606457 1_655
Li2 P0 2.606457 1_545
Li2 P0 2.606463 1_555
Li3 P1 2.533133 1_555
Li3 P0 2.582672 1_545
Li3 P0 2.582672 1_655
Li3 P0 2.582679 1_555
Cu0 P0 2.319495 1_545
Cu0 P0 2.319498 1_445
Cu0 P0 2.319498 1_555
Cu0 Li2 2.583388 1_455
Cu0 Li2 2.583391 1_555
Cu0 Li2 2.583391 1_445
Cu0 Li3 2.605715 1_455
Cu0 Li3 2.605718 1_445
Cu0 Li3 2.605718 1_555
Cu1 P1 2.319495 1_455
Cu1 P1 2.319498 1_555
Cu1 P1 2.319498 1_445
Cu1 Li1 2.583388 1_545
Cu1 Li1 2.583391 1_445
Cu1 Li1 2.583391 1_555
Cu1 Li0 2.605715 1_545
Cu1 Li0 2.605718 1_445
Cu1 Li0 2.605718 1_555
