# generated using pymatgen
data_Al(HO)3
_symmetry_space_group_name_H-M   'P 1'
_cell_length_a   5.18089200
_cell_length_b   6.12813554
_cell_length_c   7.09928293
_cell_angle_alpha   85.05369069
_cell_angle_beta   85.71618017
_cell_angle_gamma   81.70847875
_symmetry_Int_Tables_number   1
_chemical_formula_structural   Al(HO)3
_chemical_formula_sum   'Al4 H12 O12'
_cell_volume   221.76635185
_cell_formula_units_Z   4
loop_
 _symmetry_equiv_pos_site_id
 _symmetry_equiv_pos_as_xyz
  1  'x, y, z'
loop_
 _atom_site_type_symbol
 _atom_site_label
 _atom_site_symmetry_multiplicity
 _atom_site_fract_x
 _atom_site_fract_y
 _atom_site_fract_z
 _atom_site_occupancy
  Al  Al0  1  0.51878800  0.16614200  0.83359400  1
  Al  Al1  1  0.48121200  0.83385800  0.16640600  1
  Al  Al2  1  0.00120200  0.33266600  0.66818100  1
  Al  Al3  1  0.99879800  0.66733400  0.33181900  1
  H  H0  1  0.16435300  0.94660800  0.79105200  1
  H  H1  1  0.83564700  0.05339200  0.20894800  1
  H  H2  1  0.63202400  0.45815200  0.30616000  1
  H  H3  1  0.36797600  0.54184800  0.69384000  1
  H  H4  1  0.27698500  0.27317500  0.35155900  1
  H  H5  1  0.72301500  0.72682500  0.64844100  1
  H  H6  1  0.81979700  0.78982000  0.90349000  1
  H  H7  1  0.18020300  0.21018000  0.09651000  1
  H  H8  1  0.73338200  0.09019700  0.50108700  1
  H  H9  1  0.26661800  0.90980300  0.49891300  1
  H  H10  1  0.22717900  0.59270400  0.99456500  1
  H  H11  1  0.77282100  0.40729600  0.00543500  1
  O  O0  1  0.23969500  0.06121100  0.71140500  1
  O  O1  1  0.76030500  0.93878900  0.28859500  1
  O  O2  1  0.71503000  0.55857300  0.21496000  1
  O  O3  1  0.28497000  0.44142700  0.78504000  1
  O  O4  1  0.14769400  0.37606900  0.41653700  1
  O  O5  1  0.85230600  0.62393100  0.58346300  1
  O  O6  1  0.64082200  0.86256600  0.91579800  1
  O  O7  1  0.35917800  0.13743400  0.08420200  1
  O  O8  1  0.72760700  0.18217200  0.60876100  1
  O  O9  1  0.27239300  0.81782800  0.39123900  1
  O  O10  1  0.19689200  0.69749900  0.09504200  1
  O  O11  1  0.80310800  0.30250100  0.90495800  1
loop_
_geom_bond_atom_site_label_1
_geom_bond_atom_site_label_2
_geom_bond_distance
_geom_bond_site_symmetry_2
Al0 O8 1.863714 1_555
Al0 O7 1.910045 1_556
Al0 O11 1.914232 1_555
Al0 O6 1.931293 1_545
Al0 O3 1.950610 1_555
Al0 O0 1.951534 1_555
Al1 O9 1.863714 1_555
Al1 O6 1.910045 1_554
Al1 O10 1.914232 1_555
Al1 O7 1.931293 1_565
Al1 O2 1.950610 1_555
Al1 O1 1.951534 1_555
Al2 O8 1.889750 1_455
Al2 O4 1.900537 1_555
Al2 O5 1.905198 1_455
Al2 O11 1.912187 1_455
Al2 O0 1.940090 1_555
Al2 O3 1.963178 1_555
Al3 O9 1.889750 1_655
Al3 O5 1.900537 1_555
Al3 O4 1.905198 1_655
Al3 O10 1.912187 1_655
Al3 O1 1.940090 1_555
Al3 O2 1.963178 1_555
H0 O0 0.971044 1_565
H1 O1 0.971044 1_545
H2 O2 0.974099 1_555
H3 O3 0.974099 1_555
H4 O4 0.970182 1_555
H5 O5 0.970182 1_555
H6 O6 0.970337 1_555
H7 O7 0.970337 1_555
H8 O8 0.984336 1_555
H9 O9 0.984336 1_555
H10 O10 0.989478 1_556
H11 O11 0.989478 1_554
