# generated using pymatgen
data_Ba3WN4
_symmetry_space_group_name_H-M   'P 1'
_cell_length_a   18.69893858
_cell_length_b   18.69893858
_cell_length_c   10.57218700
_cell_angle_alpha   90.00000000
_cell_angle_beta   90.00000000
_cell_angle_gamma   120.00000205
_symmetry_Int_Tables_number   1
_chemical_formula_structural   Ba3WN4
_chemical_formula_sum   'Ba54 W18 N72'
_cell_volume   3201.32207360
_cell_formula_units_Z   18
loop_
 _symmetry_equiv_pos_site_id
 _symmetry_equiv_pos_as_xyz
  1  'x, y, z'
loop_
 _atom_site_type_symbol
 _atom_site_label
 _atom_site_symmetry_multiplicity
 _atom_site_fract_x
 _atom_site_fract_y
 _atom_site_fract_z
 _atom_site_occupancy
  Ba  Ba0  1  0.47941500  0.60450300  0.64088600  1
  Ba  Ba1  1  0.81301400  0.24942500  0.64749500  1
  Ba  Ba2  1  0.02092700  0.32978500  0.84405800  1
  Ba  Ba3  1  0.24942500  0.81301400  0.14749500  1
  Ba  Ba4  1  0.67021500  0.69114200  0.84405800  1
  Ba  Ba5  1  0.12508800  0.52058500  0.64088600  1
  Ba  Ba6  1  0.52864600  0.42960000  0.48490300  1
  Ba  Ba7  1  0.47135400  0.90095400  0.98490300  1
  Ba  Ba8  1  0.07533200  0.84759000  0.91254800  1
  Ba  Ba9  1  0.39549700  0.87491200  0.64088600  1
  Ba  Ba10  1  0.08206800  0.22058700  0.56736000  1
  Ba  Ba11  1  0.33333300  0.66666700  0.83207600  1
  Ba  Ba12  1  0.18698600  0.43641100  0.14749500  1
  Ba  Ba13  1  0.75057500  0.56358900  0.64749500  1
  Ba  Ba14  1  0.55186200  0.81585900  0.48996500  1
  Ba  Ba15  1  0.92466800  0.77225700  0.41254800  1
  Ba  Ba16  1  0.81585900  0.55186200  0.98996500  1
  Ba  Ba17  1  0.69114200  0.67021500  0.34405800  1
  Ba  Ba18  1  0.87491200  0.39549700  0.14088600  1
  Ba  Ba19  1  0.86148100  0.77941300  0.06736000  1
  Ba  Ba20  1  0.09904600  0.57040000  0.98490300  1
  Ba  Ba21  1  0.56358900  0.75057500  0.14749500  1
  Ba  Ba22  1  0.66868700  0.02008400  0.72182000  1
  Ba  Ba23  1  0.77225700  0.92466800  0.91254800  1
  Ba  Ba24  1  0.52058500  0.12508800  0.14088600  1
  Ba  Ba25  1  0.91793200  0.13851900  0.06736000  1
  Ba  Ba26  1  0.32978500  0.02092700  0.34405800  1
  Ba  Ba27  1  0.00000000  0.00000000  0.24943900  1
  Ba  Ba28  1  0.64860300  0.97991600  0.22182000  1
  Ba  Ba29  1  0.15241000  0.22774300  0.91254800  1
  Ba  Ba30  1  0.13851900  0.91793200  0.56736000  1
  Ba  Ba31  1  0.42960000  0.52864600  0.98490300  1
  Ba  Ba32  1  0.97907300  0.30885800  0.34405800  1
  Ba  Ba33  1  0.35139700  0.33131300  0.72182000  1
  Ba  Ba34  1  0.33131300  0.35139700  0.22182000  1
  Ba  Ba35  1  0.97991600  0.64860300  0.72182000  1
  Ba  Ba36  1  0.90095400  0.47135400  0.48490300  1
  Ba  Ba37  1  0.66666700  0.33333300  0.80113300  1
  Ba  Ba38  1  0.57040000  0.09904600  0.48490300  1
  Ba  Ba39  1  0.73600400  0.18414100  0.98996500  1
  Ba  Ba40  1  0.33333300  0.66666700  0.30113300  1
  Ba  Ba41  1  0.00000000  0.00000000  0.74943900  1
  Ba  Ba42  1  0.30885800  0.97907300  0.84405800  1
  Ba  Ba43  1  0.60450300  0.47941500  0.14088600  1
  Ba  Ba44  1  0.77941300  0.86148100  0.56736000  1
  Ba  Ba45  1  0.66666700  0.33333300  0.33207600  1
  Ba  Ba46  1  0.26399600  0.44813800  0.48996500  1
  Ba  Ba47  1  0.22058700  0.08206800  0.06736000  1
  Ba  Ba48  1  0.43641100  0.18698600  0.64749500  1
  Ba  Ba49  1  0.22774300  0.15241000  0.41254800  1
  Ba  Ba50  1  0.18414100  0.73600400  0.48996500  1
  Ba  Ba51  1  0.44813800  0.26399600  0.98996500  1
  Ba  Ba52  1  0.02008400  0.66868700  0.22182000  1
  Ba  Ba53  1  0.84759000  0.07533200  0.41254800  1
  W  W0  1  0.76399800  0.20390700  0.32568800  1
  W  W1  1  0.22491100  0.10450100  0.73297700  1
  W  W2  1  0.10978900  0.54878200  0.31959500  1
  W  W3  1  0.56100700  0.45121800  0.81959500  1
  W  W4  1  0.54878200  0.10978900  0.81959500  1
  W  W5  1  0.20390700  0.76399800  0.82568800  1
  W  W6  1  0.43990900  0.23600200  0.32568800  1
  W  W7  1  0.10450100  0.22491100  0.23297700  1
  W  W8  1  0.89021100  0.43899300  0.81959500  1
  W  W9  1  0.56009100  0.79609300  0.82568800  1
  W  W10  1  0.23600200  0.43990900  0.82568800  1
  W  W11  1  0.89549900  0.12041000  0.73297700  1
  W  W12  1  0.45121800  0.56100700  0.31959500  1
  W  W13  1  0.87959000  0.77508900  0.73297700  1
  W  W14  1  0.43899300  0.89021100  0.31959500  1
  W  W15  1  0.79609300  0.56009100  0.32568800  1
  W  W16  1  0.77508900  0.87959000  0.23297700  1
  W  W17  1  0.12041000  0.89549900  0.23297700  1
  N  N0  1  0.69214800  0.51792200  0.40406300  1
  N  N1  1  0.45850500  0.03397000  0.71866600  1
  N  N2  1  0.52584000  0.32687200  0.23716100  1
  N  N3  1  0.14843100  0.16522800  0.15390900  1
  N  N4  1  0.83128500  0.47490800  0.71694000  1
  N  N5  1  0.82577400  0.30785200  0.40406300  1
  N  N6  1  0.33865900  0.81351800  0.39828100  1
  N  N7  1  0.16871500  0.64362300  0.21694000  1
  N  N8  1  0.51792200  0.69214800  0.90406300  1
  N  N9  1  0.52514100  0.18648200  0.89828100  1
  N  N10  1  0.07224200  0.27520300  0.10644200  1
  N  N11  1  0.48207800  0.17422600  0.40406300  1
  N  N12  1  0.05900500  0.57759300  0.44961000  1
  N  N13  1  0.85949100  0.84913300  0.82708500  1
  N  N14  1  0.39085200  0.27126800  0.44917200  1
  N  N15  1  0.30695500  0.18586400  0.84155300  1
  N  N16  1  0.18586400  0.30695500  0.34155300  1
  N  N17  1  0.47490800  0.83128500  0.21694000  1
  N  N18  1  0.48141300  0.42240700  0.94961000  1
  N  N19  1  0.79703900  0.72479700  0.60644200  1
  N  N20  1  0.47416000  0.80103200  0.73716100  1
  N  N21  1  0.64199300  0.80494500  0.71067500  1
  N  N22  1  0.42240700  0.48141300  0.44961000  1
  N  N23  1  0.57759300  0.05900500  0.94961000  1
  N  N24  1  0.87890900  0.69304500  0.84155300  1
  N  N25  1  0.98964200  0.14050900  0.82708500  1
  N  N26  1  0.85156900  0.01679700  0.65390900  1
  N  N27  1  0.72479700  0.79703900  0.10644200  1
  N  N28  1  0.32687200  0.52584000  0.73716100  1
  N  N29  1  0.60914800  0.88041600  0.94917200  1
  N  N30  1  0.72873200  0.11958400  0.44917200  1
  N  N31  1  0.27520300  0.07224200  0.60644200  1
  N  N32  1  0.16295200  0.35800700  0.71067500  1
  N  N33  1  0.01035800  0.15086700  0.32708500  1
  N  N34  1  0.80494500  0.64199300  0.21067500  1
  N  N35  1  0.67312800  0.19896800  0.23716100  1
  N  N36  1  0.88041600  0.60914800  0.44917200  1
  N  N37  1  0.84913300  0.85949100  0.32708500  1
  N  N38  1  0.15086700  0.01035800  0.82708500  1
  N  N39  1  0.35637700  0.52509200  0.21694000  1
  N  N40  1  0.81413600  0.12109100  0.84155300  1
  N  N41  1  0.66134100  0.47485900  0.89828100  1
  N  N42  1  0.57546400  0.54149500  0.71866600  1
  N  N43  1  0.80103200  0.47416000  0.23716100  1
  N  N44  1  0.47485900  0.66134100  0.39828100  1
  N  N45  1  0.54149500  0.57546400  0.21866600  1
  N  N46  1  0.64362300  0.16871500  0.71694000  1
  N  N47  1  0.94099500  0.51858700  0.94961000  1
  N  N48  1  0.20296100  0.92775800  0.10644200  1
  N  N49  1  0.01679700  0.85156900  0.15390900  1
  N  N50  1  0.18648200  0.52514100  0.39828100  1
  N  N51  1  0.51858700  0.94099500  0.44961000  1
  N  N52  1  0.98320300  0.83477200  0.65390900  1
  N  N53  1  0.81351800  0.33865900  0.89828100  1
  N  N54  1  0.27126800  0.39085200  0.94917200  1
  N  N55  1  0.14050900  0.98964200  0.32708500  1
  N  N56  1  0.83704800  0.19505500  0.21067500  1
  N  N57  1  0.42453600  0.96603000  0.21866600  1
  N  N58  1  0.03397000  0.45850500  0.21866600  1
  N  N59  1  0.92775800  0.20296100  0.60644200  1
  N  N60  1  0.19505500  0.83704800  0.71067500  1
  N  N61  1  0.11958400  0.72873200  0.94917200  1
  N  N62  1  0.69304500  0.87890900  0.34155300  1
  N  N63  1  0.16522800  0.14843100  0.65390900  1
  N  N64  1  0.19896800  0.67312800  0.73716100  1
  N  N65  1  0.83477200  0.98320300  0.15390900  1
  N  N66  1  0.35800700  0.16295200  0.21067500  1
  N  N67  1  0.96603000  0.42453600  0.71866600  1
  N  N68  1  0.52509200  0.35637700  0.71694000  1
  N  N69  1  0.17422600  0.48207800  0.90406300  1
  N  N70  1  0.12109100  0.81413600  0.34155300  1
  N  N71  1  0.30785200  0.82577400  0.90406300  1
loop_
_geom_bond_atom_site_label_1
_geom_bond_atom_site_label_2
_geom_bond_distance
_geom_bond_site_symmetry_2
Ba0 N28 2.672096 1_555
Ba0 N42 2.721397 1_555
Ba0 N44 2.793904 1_555
Ba0 N22 2.840724 1_555
Ba0 N8 3.125029 1_555
Ba1 N59 2.722305 1_555
Ba1 N5 2.759225 1_555
Ba1 N46 2.840607 1_555
Ba1 N30 2.991361 1_555
Ba1 N53 3.130210 1_555
Ba1 N40 3.165206 1_555
Ba1 N67 3.178939 1_555
Ba2 N67 2.787279 1_455
Ba2 N32 2.813959 1_555
Ba2 N69 2.926749 1_555
Ba2 N10 3.261386 1_556
Ba2 N25 3.290947 1_455
Ba2 N59 3.292154 1_455
Ba3 N48 2.722305 1_555
Ba3 N71 2.759225 1_554
Ba3 N7 2.840607 1_555
Ba3 N61 2.991361 1_554
Ba3 N6 3.130210 1_555
Ba3 N70 3.165206 1_555
Ba3 N57 3.178939 1_555
Ba4 N42 2.787266 1_555
Ba4 N21 2.813959 1_555
Ba4 N8 2.926749 1_555
Ba4 N27 3.261386 1_556
Ba4 N13 3.290946 1_555
Ba4 N19 3.292154 1_555
Ba5 N64 2.672096 1_555
Ba5 N67 2.721411 1_455
Ba5 N50 2.793904 1_555
Ba5 N12 2.840736 1_555
Ba5 N69 3.125029 1_555
Ba6 N22 2.636089 1_555
Ba6 N0 2.784943 1_555
Ba6 N68 2.793922 1_555
Ba6 N14 2.813996 1_555
Ba6 N42 3.069240 1_555
Ba6 N2 3.232942 1_555
Ba7 N23 2.636075 1_565
Ba7 N71 2.784943 1_555
Ba7 N17 2.793922 1_556
Ba7 N29 2.813996 1_555
Ba7 N57 3.069230 1_556
Ba7 N20 3.232942 1_555
Ba8 N61 2.759215 1_555
Ba8 N38 2.788531 1_565
Ba8 N49 2.792175 1_556
Ba8 N48 2.926972 1_556
Ba8 N60 3.169682 1_555
Ba8 N52 3.176338 1_455
Ba8 N24 3.433747 1_455
Ba9 N20 2.672096 1_555
Ba9 N1 2.721413 1_565
Ba9 N6 2.793904 1_555
Ba9 N51 2.840725 1_555
Ba9 N71 3.125029 1_555
Ba10 N63 2.678397 1_555
Ba10 N32 2.701791 1_555
Ba10 N59 2.766599 1_455
Ba10 N33 2.863963 1_555
Ba10 N16 2.989945 1_555
Ba10 N25 3.190757 1_455
Ba11 N64 2.763628 1_555
Ba11 N20 2.763637 1_555
Ba11 N28 2.763645 1_555
Ba11 N71 3.327942 1_555
Ba11 N69 3.327953 1_555
Ba11 N8 3.327960 1_555
Ba12 N10 2.722305 1_555
Ba12 N69 2.759225 1_554
Ba12 N39 2.840607 1_555
Ba12 N54 2.991361 1_554
Ba12 N50 3.130210 1_555
Ba12 N16 3.165206 1_555
Ba12 N58 3.178929 1_555
Ba13 N19 2.722305 1_555
Ba13 N0 2.759225 1_555
Ba13 N4 2.840608 1_555
Ba13 N36 2.991361 1_555
Ba13 N41 3.130210 1_555
Ba13 N24 3.165206 1_555
Ba13 N42 3.178947 1_555
Ba14 N44 2.683413 1_555
Ba14 N51 2.738659 1_555
Ba14 N62 2.776484 1_555
Ba14 N20 2.935125 1_555
Ba14 N21 2.944607 1_555
Ba14 N17 3.301604 1_555
Ba15 N36 2.759197 1_555
Ba15 N37 2.788547 1_555
Ba15 N52 2.792179 1_555
Ba15 N19 2.926974 1_555
Ba15 N34 3.169674 1_555
Ba15 N49 3.176341 1_655
Ba15 N70 3.433741 1_655
Ba16 N41 2.683413 1_555
Ba16 N47 2.738659 1_555
Ba16 N24 2.776484 1_555
Ba16 N43 2.935125 1_556
Ba16 N34 2.944607 1_556
Ba16 N4 3.301604 1_555
Ba17 N45 2.787266 1_555
Ba17 N34 2.813959 1_555
Ba17 N0 2.926749 1_555
Ba17 N19 3.261386 1_555
Ba17 N37 3.290946 1_555
Ba17 N27 3.292154 1_555
Ba18 N43 2.672096 1_555
Ba18 N58 2.721413 1_655
Ba18 N53 2.793904 1_554
Ba18 N47 2.840725 1_554
Ba18 N5 3.125029 1_555
Ba19 N49 2.678397 1_655
Ba19 N34 2.701791 1_555
Ba19 N27 2.766599 1_555
Ba19 N13 2.863963 1_554
Ba19 N24 2.989945 1_554
Ba19 N37 3.190757 1_555
Ba20 N47 2.636072 1_455
Ba20 N69 2.784943 1_555
Ba20 N7 2.793922 1_556
Ba20 N61 2.813996 1_555
Ba20 N58 3.069239 1_556
Ba20 N64 3.232942 1_555
Ba21 N27 2.722305 1_555
Ba21 N8 2.759225 1_554
Ba21 N17 2.840608 1_555
Ba21 N29 2.991361 1_554
Ba21 N44 3.130210 1_555
Ba21 N62 3.165206 1_555
Ba21 N45 3.178947 1_555
Ba22 N40 2.725763 1_555
Ba22 N46 3.041225 1_555
Ba22 N23 3.235799 1_555
Ba22 N29 3.306040 1_545
Ba22 N30 3.307870 1_555
Ba23 N29 2.759197 1_555
Ba23 N13 2.788547 1_555
Ba23 N65 2.792179 1_556
Ba23 N27 2.926974 1_556
Ba23 N21 3.169674 1_555
Ba23 N26 3.176341 1_565
Ba23 N40 3.433741 1_565
Ba24 N35 2.672096 1_555
Ba24 N57 2.721411 1_545
Ba24 N9 2.793904 1_554
Ba24 N23 2.840736 1_554
Ba24 N11 3.125029 1_555
Ba25 N65 2.678397 1_545
Ba25 N56 2.701791 1_555
Ba25 N10 2.766599 1_655
Ba25 N25 2.863963 1_554
Ba25 N40 2.989945 1_554
Ba25 N33 3.190757 1_655
Ba26 N57 2.787279 1_545
Ba26 N66 2.813959 1_555
Ba26 N11 2.926749 1_555
Ba26 N31 3.261386 1_555
Ba26 N55 3.290947 1_545
Ba26 N48 3.292154 1_545
Ba27 N37 2.850143 1_445
Ba27 N33 2.850143 1_555
Ba27 N55 2.850143 1_545
Ba27 N3 3.113492 1_555
Ba27 N65 3.113492 1_445
Ba27 N49 3.113492 1_545
Ba28 N62 2.725763 1_555
Ba28 N17 3.041225 1_555
Ba28 N51 3.235810 1_555
Ba28 N30 3.306040 1_565
Ba28 N29 3.307870 1_554
Ba29 N54 2.759201 1_555
Ba29 N25 2.788532 1_455
Ba29 N3 2.792182 1_556
Ba29 N10 2.926962 1_556
Ba29 N32 3.169668 1_555
Ba29 N63 3.176347 1_555
Ba29 N15 3.433759 1_555
Ba30 N52 2.678397 1_455
Ba30 N60 2.701791 1_555
Ba30 N31 2.766599 1_565
Ba30 N55 2.863963 1_555
Ba30 N70 2.989945 1_555
Ba30 N38 3.190757 1_565
Ba31 N18 2.636089 1_555
Ba31 N8 2.784943 1_555
Ba31 N39 2.793922 1_556
Ba31 N54 2.813996 1_555
Ba31 N45 3.069240 1_556
Ba31 N28 3.232942 1_555
Ba32 N58 2.787264 1_655
Ba32 N56 2.813959 1_555
Ba32 N5 2.926749 1_555
Ba32 N59 3.261386 1_555
Ba32 N33 3.290947 1_655
Ba32 N10 3.292154 1_655
Ba33 N15 2.725763 1_555
Ba33 N68 3.041225 1_555
Ba33 N18 3.235808 1_555
Ba33 N54 3.306040 1_555
Ba33 N14 3.307870 1_555
Ba34 N16 2.725763 1_555
Ba34 N39 3.041225 1_555
Ba34 N22 3.235808 1_555
Ba34 N14 3.306040 1_555
Ba34 N54 3.307870 1_554
Ba35 N24 2.725763 1_555
Ba35 N4 3.041225 1_555
Ba35 N47 3.235810 1_555
Ba35 N61 3.306040 1_655
Ba35 N36 3.307870 1_555
Ba36 N12 2.636075 1_655
Ba36 N5 2.784943 1_555
Ba36 N4 2.793922 1_555
Ba36 N36 2.813996 1_555
Ba36 N67 3.069230 1_555
Ba36 N43 3.232942 1_555
Ba37 N53 2.886451 1_555
Ba37 N9 2.886459 1_555
Ba37 N41 2.886468 1_555
Ba37 N46 3.021056 1_555
Ba37 N4 3.021063 1_555
Ba37 N68 3.021074 1_555
Ba38 N51 2.636072 1_545
Ba38 N11 2.784943 1_555
Ba38 N46 2.793922 1_555
Ba38 N30 2.813996 1_555
Ba38 N1 3.069239 1_555
Ba38 N35 3.232942 1_555
Ba39 N53 2.683413 1_555
Ba39 N23 2.738659 1_555
Ba39 N40 2.776470 1_555
Ba39 N35 2.935134 1_556
Ba39 N56 2.944596 1_556
Ba39 N46 3.301613 1_555
Ba40 N6 2.886451 1_555
Ba40 N50 2.886459 1_555
Ba40 N44 2.886468 1_555
Ba40 N7 3.021056 1_555
Ba40 N17 3.021063 1_555
Ba40 N39 3.021074 1_555
Ba41 N13 2.850143 1_445
Ba41 N38 2.850143 1_555
Ba41 N25 2.850143 1_455
Ba41 N63 3.113492 1_555
Ba41 N52 3.113492 1_445
Ba41 N26 3.113492 1_455
Ba42 N1 2.787264 1_565
Ba42 N60 2.813959 1_555
Ba42 N71 2.926749 1_555
Ba42 N48 3.261386 1_556
Ba42 N38 3.290947 1_565
Ba42 N31 3.292154 1_565
Ba43 N2 2.672096 1_555
Ba43 N45 2.721397 1_555
Ba43 N41 2.793904 1_554
Ba43 N18 2.840724 1_554
Ba43 N0 3.125029 1_555
Ba44 N26 2.678397 1_565
Ba44 N21 2.701791 1_555
Ba44 N19 2.766599 1_555
Ba44 N37 2.863963 1_555
Ba44 N62 2.989945 1_555
Ba44 N13 3.190757 1_555
Ba45 N35 2.763628 1_555
Ba45 N43 2.763637 1_555
Ba45 N2 2.763645 1_555
Ba45 N5 3.327942 1_555
Ba45 N11 3.327953 1_555
Ba45 N0 3.327960 1_555
Ba46 N50 2.683398 1_555
Ba46 N22 2.738659 1_555
Ba46 N16 2.776483 1_555
Ba46 N28 2.935128 1_555
Ba46 N32 2.944600 1_555
Ba46 N39 3.301610 1_555
Ba47 N3 2.678397 1_555
Ba47 N66 2.701791 1_555
Ba47 N48 2.766599 1_545
Ba47 N38 2.863963 1_554
Ba47 N15 2.989945 1_554
Ba47 N55 3.190757 1_545
Ba48 N31 2.722305 1_555
Ba48 N11 2.759225 1_555
Ba48 N68 2.840607 1_555
Ba48 N14 2.991361 1_555
Ba48 N9 3.130210 1_555
Ba48 N15 3.165206 1_555
Ba48 N1 3.178929 1_555
Ba49 N14 2.759201 1_555
Ba49 N55 2.788532 1_545
Ba49 N63 2.792182 1_555
Ba49 N31 2.926962 1_555
Ba49 N66 3.169668 1_555
Ba49 N3 3.176347 1_555
Ba49 N16 3.433759 1_555
Ba50 N6 2.683413 1_555
Ba50 N12 2.738659 1_555
Ba50 N70 2.776470 1_555
Ba50 N64 2.935134 1_555
Ba50 N60 2.944596 1_555
Ba50 N7 3.301613 1_555
Ba51 N9 2.683398 1_555
Ba51 N18 2.738659 1_555
Ba51 N15 2.776483 1_555
Ba51 N2 2.935128 1_556
Ba51 N66 2.944600 1_556
Ba51 N68 3.301610 1_555
Ba52 N70 2.725763 1_555
Ba52 N7 3.041225 1_555
Ba52 N12 3.235799 1_555
Ba52 N36 3.306040 1_455
Ba52 N61 3.307870 1_554
Ba53 N30 2.759215 1_555
Ba53 N33 2.788531 1_655
Ba53 N26 2.792175 1_555
Ba53 N59 2.926972 1_555
Ba53 N56 3.169682 1_555
Ba53 N65 3.176338 1_545
Ba53 N62 3.433747 1_545
N0 W15 1.885083 1_555
N1 W4 1.898662 1_555
N2 W6 1.901248 1_555
N3 W7 1.880359 1_555
N4 W8 1.892859 1_555
N5 W0 1.885083 1_555
N6 W14 1.891554 1_555
N7 W2 1.892859 1_555
N8 W9 1.885083 1_555
N9 W4 1.891554 1_555
N10 W7 1.898702 1_555
N11 W6 1.885083 1_555
N12 W2 1.895506 1_555
N13 W13 1.889033 1_555
N14 W6 1.893555 1_555
N15 W1 1.910979 1_555
N16 W7 1.910979 1_555
N17 W14 1.892859 1_555
N18 W3 1.895494 1_555
N19 W13 1.898702 1_555
N20 W9 1.901248 1_555
N21 W9 1.896798 1_555
N22 W12 1.895494 1_555
N23 W4 1.895506 1_555
N24 W13 1.910979 1_555
N25 W11 1.889033 1_555
N26 W11 1.880359 1_555
N27 W16 1.898702 1_555
N28 W10 1.901248 1_555
N29 W9 1.893555 1_555
N30 W0 1.893555 1_555
N31 W1 1.898702 1_555
N32 W10 1.896798 1_555
N33 W7 1.889033 1_555
N34 W15 1.896798 1_555
N35 W0 1.901248 1_555
N36 W15 1.893555 1_555
N37 W16 1.889033 1_555
N38 W1 1.889033 1_555
N39 W12 1.892859 1_555
N40 W11 1.910979 1_555
N41 W3 1.891554 1_555
N42 W3 1.898668 1_555
N43 W15 1.901248 1_555
N44 W12 1.891554 1_555
N45 W12 1.898668 1_555
N46 W4 1.892859 1_555
N47 W8 1.895496 1_555
N48 W17 1.898702 1_555
N49 W17 1.880359 1_555
N50 W2 1.891554 1_555
N51 W14 1.895496 1_555
N52 W13 1.880359 1_555
N53 W8 1.891554 1_555
N54 W10 1.893555 1_555
N55 W17 1.889033 1_555
N56 W0 1.896798 1_555
N57 W14 1.898653 1_555
N58 W2 1.898662 1_555
N59 W11 1.898702 1_555
N60 W5 1.896798 1_555
N61 W5 1.893555 1_555
N62 W16 1.910979 1_555
N63 W1 1.880359 1_555
N64 W5 1.901248 1_555
N65 W16 1.880359 1_555
N66 W6 1.896798 1_555
N67 W8 1.898653 1_555
N68 W3 1.892859 1_555
N69 W10 1.885083 1_555
N70 W17 1.910979 1_555
N71 W5 1.885083 1_555
