# generated using pymatgen
data_Tl9BiSe6
_symmetry_space_group_name_H-M   'P 1'
_cell_length_a   8.55749716
_cell_length_b   8.55624735
_cell_length_c   8.91734134
_cell_angle_alpha   118.74366478
_cell_angle_beta   118.68596825
_cell_angle_gamma   89.97132532
_symmetry_Int_Tables_number   1
_chemical_formula_structural   Tl9BiSe6
_chemical_formula_sum   'Tl9 Bi1 Se6'
_cell_volume   479.16463874
_cell_formula_units_Z   1
loop_
 _symmetry_equiv_pos_site_id
 _symmetry_equiv_pos_as_xyz
  1  'x, y, z'
loop_
 _atom_site_type_symbol
 _atom_site_label
 _atom_site_symmetry_multiplicity
 _atom_site_fract_x
 _atom_site_fract_y
 _atom_site_fract_z
 _atom_site_occupancy
  Tl  Tl0  1  -0.00466831  0.51461851  0.30934897  1
  Tl  Tl1  1  0.20505907  0.00501802  0.69118463  1
  Tl  Tl2  1  0.00000000  0.00000000  0.00000000  1
  Tl  Tl3  1  0.31354410  0.79491538  0.30883118  1
  Tl  Tl4  1  0.48515717  0.68527771  0.69041371  1
  Tl  Tl5  1  0.51484283  0.31472229  0.30958629  1
  Tl  Tl6  1  0.68645590  0.20508462  0.69116982  1
  Tl  Tl7  1  0.79494093  -0.00501802  0.30881537  1
  Tl  Tl8  1  0.00466831  0.48538149  0.69065103  1
  Bi  Bi0  1  0.50000000  0.50000000  0.00000000  1
  Se  Se0  1  0.27218438  0.27191917  0.54574398  1
  Se  Se1  1  0.18202772  0.35260299  0.00059197  1
  Se  Se2  1  0.35230012  0.81827013  -0.00014536  1
  Se  Se3  1  0.72781562  0.72808083  0.45425602  1
  Se  Se4  1  0.64769988  0.18172987  0.00014536  1
  Se  Se5  1  0.81797228  0.64739701  -0.00059197  1
loop_
_geom_bond_atom_site_label_1
_geom_bond_atom_site_label_2
_geom_bond_distance
_geom_bond_site_symmetry_2
Bi0 Se3 2.972739 1_555
Bi0 Se0 2.972739 1_554
Bi0 Se4 3.001955 1_555
Bi0 Se2 3.001955 1_555
Bi0 Se5 3.003047 1_555
Bi0 Se1 3.003047 1_555
Se0 Tl1 3.285166 1_555
Se0 Tl8 3.288185 1_555
Se0 Tl4 3.294802 1_555
Se0 Tl6 3.297625 1_555
Se1 Tl1 3.020876 1_554
Se1 Tl5 3.022086 1_555
Se1 Tl3 3.189685 1_555
Se1 Tl8 3.197539 1_554
Se1 Tl2 3.392638 1_555
Se2 Tl8 3.024172 1_554
Se2 Tl3 3.024597 1_555
Se2 Tl4 3.192525 1_554
Se2 Tl7 3.194578 1_565
Se2 Tl2 3.391752 1_565
Se3 Tl7 3.285166 1_565
Se3 Tl0 3.288185 1_655
Se3 Tl5 3.294802 1_555
Se3 Tl3 3.297626 1_555
Se4 Tl0 3.024172 1_655
Se4 Tl6 3.024588 1_554
Se4 Tl5 3.192525 1_555
Se4 Tl1 3.194578 1_554
Se4 Tl2 3.391752 1_655
Se5 Tl7 3.020876 1_565
Se5 Tl4 3.022086 1_554
Se5 Tl6 3.189684 1_554
Se5 Tl0 3.197539 1_655
Se5 Tl2 3.392638 1_665
