# generated using pymatgen
data_SrIO
_symmetry_space_group_name_H-M   'P 1'
_cell_length_a   4.15094500
_cell_length_b   7.71149800
_cell_length_c   10.94932300
_cell_angle_alpha   90.00000000
_cell_angle_beta   90.00000000
_cell_angle_gamma   90.00000000
_symmetry_Int_Tables_number   1
_chemical_formula_structural   SrIO
_chemical_formula_sum   'Sr4 I4 O4'
_cell_volume   350.48787375
_cell_formula_units_Z   4
loop_
 _symmetry_equiv_pos_site_id
 _symmetry_equiv_pos_as_xyz
  1  'x, y, z'
loop_
 _atom_site_type_symbol
 _atom_site_label
 _atom_site_symmetry_multiplicity
 _atom_site_fract_x
 _atom_site_fract_y
 _atom_site_fract_z
 _atom_site_occupancy
  Sr  Sr0  1  0.25000000  0.68870500  0.41629600  1
  Sr  Sr1  1  0.25000000  0.18870500  0.08370400  1
  Sr  Sr2  1  0.75000000  0.31129500  0.58370400  1
  Sr  Sr3  1  0.75000000  0.81129500  0.91629600  1
  I  I0  1  0.75000000  0.54193200  0.17340500  1
  I  I1  1  0.75000000  0.04193200  0.32659500  1
  I  I2  1  0.25000000  0.45806800  0.82659500  1
  I  I3  1  0.25000000  0.95806800  0.67340500  1
  O  O0  1  0.25000000  0.88926600  0.02223900  1
  O  O1  1  0.25000000  0.38926600  0.47776100  1
  O  O2  1  0.75000000  0.11073400  0.97776100  1
  O  O3  1  0.75000000  0.61073400  0.52223900  1
loop_
_geom_bond_atom_site_label_1
_geom_bond_atom_site_label_2
_geom_bond_distance
_geom_bond_site_symmetry_2
I0 Sr3 3.498558 1_554
I0 Sr0 3.558306 1_655
I0 Sr0 3.558306 1_555
I0 Sr1 3.562572 1_555
I0 Sr1 3.562572 1_655
I1 Sr2 3.498558 1_555
I1 Sr1 3.558306 1_655
I1 Sr1 3.558306 1_555
I1 Sr0 3.562572 1_545
I1 Sr0 3.562572 1_645
I2 Sr1 3.498558 1_556
I2 Sr2 3.558306 1_455
I2 Sr2 3.558306 1_555
I2 Sr3 3.562572 1_455
I2 Sr3 3.562572 1_555
I3 Sr0 3.498558 1_555
I3 Sr3 3.558306 1_455
I3 Sr3 3.558306 1_555
I3 Sr2 3.562572 1_565
I3 Sr2 3.562572 1_465
O0 Sr1 2.405198 1_565
O0 Sr3 2.452494 1_554
O0 Sr3 2.452494 1_454
O1 Sr0 2.405198 1_555
O1 Sr2 2.452494 1_555
O1 Sr2 2.452494 1_455
O2 Sr3 2.405198 1_545
O2 Sr1 2.452494 1_656
O2 Sr1 2.452494 1_556
O3 Sr2 2.405198 1_555
O3 Sr0 2.452494 1_555
O3 Sr0 2.452494 1_655
