# generated using pymatgen
data_Ce12InPt7
_symmetry_space_group_name_H-M   'P 1'
_cell_length_a   11.09021574
_cell_length_b   11.09021574
_cell_length_c   11.09021574
_cell_angle_alpha   114.56803204
_cell_angle_beta   114.56803204
_cell_angle_gamma   99.69789437
_symmetry_Int_Tables_number   1
_chemical_formula_structural   Ce12InPt7
_chemical_formula_sum   'Ce24 In2 Pt14'
_cell_volume   1027.68413468
_cell_formula_units_Z   2
loop_
 _symmetry_equiv_pos_site_id
 _symmetry_equiv_pos_as_xyz
  1  'x, y, z'
loop_
 _atom_site_type_symbol
 _atom_site_label
 _atom_site_symmetry_multiplicity
 _atom_site_fract_x
 _atom_site_fract_y
 _atom_site_fract_z
 _atom_site_occupancy
  Ce  Ce0  1  0.28567200  0.14737000  0.72072000  1
  Ce  Ce1  1  0.67463300  0.17463300  0.84926600  1
  Ce  Ce2  1  0.57334900  0.43504800  0.72072000  1
  Ce  Ce3  1  0.42665100  0.56495200  0.27928000  1
  Ce  Ce4  1  0.56495200  0.28567200  0.13830200  1
  Ce  Ce5  1  0.78567200  0.06495200  0.13830200  1
  Ce  Ce6  1  0.35263000  0.21432800  0.27928000  1
  Ce  Ce7  1  0.06495200  0.92665100  0.27928000  1
  Ce  Ce8  1  0.92665100  0.64737000  0.86169800  1
  Ce  Ce9  1  0.35377500  0.85377500  0.50000000  1
  Ce  Ce10  1  0.32536700  0.82536700  0.15073400  1
  Ce  Ce11  1  0.64622500  0.14622500  0.50000000  1
  Ce  Ce12  1  0.14622500  0.64622500  0.50000000  1
  Ce  Ce13  1  0.14737000  0.42665100  0.86169800  1
  Ce  Ce14  1  0.85263000  0.57334900  0.13830200  1
  Ce  Ce15  1  0.71432800  0.85263000  0.27928000  1
  Ce  Ce16  1  0.21432800  0.93504800  0.86169800  1
  Ce  Ce17  1  0.64737000  0.78567200  0.72072000  1
  Ce  Ce18  1  0.07334900  0.35263000  0.13830200  1
  Ce  Ce19  1  0.17463300  0.32536700  0.50000000  1
  Ce  Ce20  1  0.82536700  0.67463300  0.50000000  1
  Ce  Ce21  1  0.93504800  0.07334900  0.72072000  1
  Ce  Ce22  1  0.85377500  0.35377500  0.50000000  1
  Ce  Ce23  1  0.43504800  0.71432800  0.86169800  1
  In  In0  1  0.50000000  0.50000000  0.00000000  1
  In  In1  1  0.00000000  0.00000000  0.00000000  1
  Pt  Pt0  1  0.51845000  0.01845000  0.15152900  1
  Pt  Pt1  1  0.63308000  0.48155000  0.50000000  1
  Pt  Pt2  1  0.36692000  0.51845000  0.50000000  1
  Pt  Pt3  1  0.37409500  0.12590500  0.50000000  1
  Pt  Pt4  1  0.12590500  0.62590500  0.75181000  1
  Pt  Pt5  1  0.86692000  0.36692000  0.84847100  1
  Pt  Pt6  1  0.48155000  0.98155000  0.84847100  1
  Pt  Pt7  1  0.13308000  0.63308000  0.15152900  1
  Pt  Pt8  1  0.01845000  0.86692000  0.50000000  1
  Pt  Pt9  1  0.62590500  0.87409500  0.50000000  1
  Pt  Pt10  1  0.87409500  0.37409500  0.24819000  1
  Pt  Pt11  1  0.25000000  0.25000000  0.00000000  1
  Pt  Pt12  1  0.75000000  0.75000000  0.00000000  1
  Pt  Pt13  1  0.98155000  0.13308000  0.50000000  1
loop_
_geom_bond_atom_site_label_1
_geom_bond_atom_site_label_2
_geom_bond_distance
_geom_bond_site_symmetry_2
Ce0 Pt3 2.932634 1_555
Ce0 Pt8 2.996603 1_545
Ce0 Pt11 3.047009 1_556
Ce0 Pt13 3.166184 1_455
Ce0 Pt6 3.325855 1_545
Ce0 In0 3.348285 1_556
Ce1 Pt5 2.755792 1_555
Ce1 Pt6 2.755806 1_545
Ce1 Pt10 3.381589 1_556
Ce1 Pt9 3.649889 1_545
Ce1 Pt3 3.649889 1_555
Ce2 Pt3 2.932632 1_555
Ce2 Pt1 2.996609 1_555
Ce2 Pt12 3.047009 1_556
Ce2 Pt2 3.166179 1_555
Ce2 Pt5 3.325861 1_555
Ce2 In0 3.348277 1_556
Ce3 Pt9 2.932632 1_555
Ce3 Pt2 2.996609 1_555
Ce3 Pt11 3.047009 1_555
Ce3 Pt1 3.166179 1_555
Ce3 Pt7 3.325861 1_555
Ce3 In0 3.348277 1_555
Ce4 Pt10 2.932634 1_555
Ce4 Pt0 2.996598 1_555
Ce4 Pt11 3.047009 1_555
Ce4 Pt6 3.166179 1_544
Ce4 Pt1 3.325851 1_555
Ce4 In0 3.348285 1_555
Ce5 Pt10 2.932634 1_555
Ce5 Pt0 2.996598 1_555
Ce5 Pt12 3.047009 1_545
Ce5 Pt6 3.166179 1_544
Ce5 Pt13 3.325851 1_555
Ce5 In1 3.348285 1_655
Ce6 Pt3 2.932634 1_555
Ce6 Pt1 2.996603 1_555
Ce6 Pt11 3.047009 1_555
Ce6 Pt2 3.166184 1_555
Ce6 Pt0 3.325855 1_555
Ce6 In1 3.348285 1_555
Ce7 Pt3 2.932632 1_565
Ce7 Pt8 2.996609 1_555
Ce7 Pt12 3.047009 1_455
Ce7 Pt13 3.166179 1_465
Ce7 Pt7 3.325861 1_555
Ce7 In1 3.348277 1_565
Ce8 Pt4 2.932624 1_655
Ce8 Pt5 2.996609 1_555
Ce8 Pt12 3.047019 1_556
Ce8 Pt7 3.166173 1_656
Ce8 Pt1 3.325855 1_555
Ce8 In1 3.348286 1_666
Ce9 Pt9 2.988286 1_555
Ce9 Pt3 2.988286 1_565
Ce9 Pt7 3.027722 1_555
Ce9 Pt6 3.027725 1_555
Ce10 Pt7 2.755792 1_555
Ce10 Pt0 2.755806 1_565
Ce10 Pt4 3.381589 1_554
Ce10 Pt9 3.649889 1_555
Ce10 Pt3 3.649889 1_565
Ce11 Ce22 2.968391 1_555
Ce11 Pt9 2.988286 1_545
Ce11 Pt3 2.988286 1_555
Ce11 Pt5 3.027722 1_555
Ce11 Pt0 3.027725 1_555
Ce12 Ce9 2.968391 1_555
Ce12 Pt10 2.988286 1_455
Ce12 Pt4 2.988286 1_555
Ce12 Pt2 3.027715 1_555
Ce12 Pt8 3.027715 1_555
Ce13 Pt4 2.932624 1_555
Ce13 Pt5 2.996609 1_455
Ce13 Pt11 3.047019 1_556
Ce13 Pt7 3.166173 1_556
Ce13 Pt13 3.325855 1_455
Ce13 In0 3.348286 1_556
Ce14 Pt10 2.932624 1_555
Ce14 Pt7 2.996609 1_655
Ce14 Pt12 3.047019 1_555
Ce14 Pt5 3.166173 1_554
Ce14 Pt8 3.325855 1_655
Ce14 In0 3.348286 1_555
Ce15 Pt9 2.932634 1_555
Ce15 Pt13 2.996603 1_565
Ce15 Pt12 3.047009 1_555
Ce15 Pt8 3.166184 1_655
Ce15 Pt0 3.325855 1_565
Ce15 In0 3.348285 1_555
Ce16 Pt4 2.932634 1_555
Ce16 Pt6 2.996598 1_555
Ce16 Pt11 3.047009 1_566
Ce16 Pt0 3.166179 1_566
Ce16 Pt8 3.325851 1_555
Ce16 In1 3.348285 1_566
Ce17 Pt9 2.932634 1_555
Ce17 Pt2 2.996603 1_555
Ce17 Pt12 3.047009 1_556
Ce17 Pt1 3.166184 1_555
Ce17 Pt6 3.325855 1_555
Ce17 In1 3.348285 1_666
Ce18 Pt10 2.932624 1_455
Ce18 Pt7 2.996609 1_555
Ce18 Pt11 3.047019 1_555
Ce18 Pt5 3.166173 1_454
Ce18 Pt2 3.325855 1_555
Ce18 In1 3.348286 1_555
Ce19 Pt13 2.755799 1_455
Ce19 Pt2 2.755799 1_555
Ce19 Pt3 3.381589 1_555
Ce19 Pt4 3.649889 1_555
Ce19 Pt10 3.649889 1_455
Ce20 Pt1 2.755799 1_555
Ce20 Pt8 2.755799 1_655
Ce20 Pt9 3.381589 1_555
Ce20 Pt4 3.649889 1_655
Ce20 Pt10 3.649889 1_555
Ce21 Pt9 2.932632 1_545
Ce21 Pt13 2.996609 1_555
Ce21 Pt11 3.047009 1_656
Ce21 Pt8 3.166179 1_645
Ce21 Pt5 3.325861 1_555
Ce21 In1 3.348277 1_656
Ce22 Pt10 2.988286 1_555
Ce22 Pt4 2.988286 1_655
Ce22 Pt1 3.027715 1_555
Ce22 Pt13 3.027715 1_555
Ce23 Pt4 2.932634 1_555
Ce23 Pt6 2.996598 1_555
Ce23 Pt12 3.047009 1_556
Ce23 Pt0 3.166179 1_566
Ce23 Pt2 3.325851 1_555
Ce23 In0 3.348285 1_556
Pt0 Pt6 3.047500 1_544
Pt1 Pt2 3.047522 1_555
Pt5 Pt7 3.047516 1_656
Pt13 Pt8 3.047522 1_645
