# generated using pymatgen
data_NiH12(BrO7)2
_symmetry_space_group_name_H-M   'P 1'
_cell_length_a   7.89589500
_cell_length_b   7.89608013
_cell_length_c   11.22306801
_cell_angle_alpha   90.00269071
_cell_angle_beta   90.00372347
_cell_angle_gamma   60.00409301
_symmetry_Int_Tables_number   1
_chemical_formula_structural   NiH12(BrO7)2
_chemical_formula_sum   'Ni2 H24 Br4 O28'
_cell_volume   606.00059044
_cell_formula_units_Z   2
loop_
 _symmetry_equiv_pos_site_id
 _symmetry_equiv_pos_as_xyz
  1  'x, y, z'
loop_
 _atom_site_type_symbol
 _atom_site_label
 _atom_site_symmetry_multiplicity
 _atom_site_fract_x
 _atom_site_fract_y
 _atom_site_fract_z
 _atom_site_occupancy
  Ni  Ni0  1  0.99994400  0.00010700  0.74960500  1
  Ni  Ni1  1  0.00065600  0.99961400  0.25023400  1
  H  H0  1  0.77466900  0.29160300  0.39011400  1
  H  H1  1  0.77457200  0.29173900  0.89003800  1
  H  H2  1  0.29197300  0.93363000  0.39015300  1
  H  H3  1  0.29164900  0.93375300  0.89001900  1
  H  H4  1  0.93355000  0.77447800  0.39019500  1
  H  H5  1  0.93359600  0.77473100  0.89003800  1
  H  H6  1  0.22537300  0.70820100  0.10984000  1
  H  H7  1  0.22541300  0.70822600  0.60989500  1
  H  H8  1  0.70836800  0.06628200  0.10998500  1
  H  H9  1  0.70806600  0.06632300  0.60988200  1
  H  H10  1  0.06623100  0.22534000  0.11000800  1
  H  H11  1  0.06633900  0.22548300  0.60984400  1
  H  H12  1  0.92068100  0.35255400  0.33725000  1
  H  H13  1  0.92035800  0.35276200  0.83692700  1
  H  H14  1  0.35286000  0.72664500  0.33730100  1
  H  H15  1  0.35260800  0.72696400  0.83692700  1
  H  H16  1  0.72680400  0.92062700  0.33716100  1
  H  H17  1  0.72683900  0.92041500  0.83688400  1
  H  H18  1  0.07934900  0.64733900  0.16277600  1
  H  H19  1  0.07951800  0.64733300  0.66303700  1
  H  H20  1  0.64756600  0.27311800  0.16289200  1
  H  H21  1  0.64722900  0.27313200  0.66300900  1
  H  H22  1  0.27330100  0.07952200  0.16282200  1
  H  H23  1  0.27308600  0.07966200  0.66308700  1
  Br  Br0  1  0.33327700  0.33336300  0.41050800  1
  Br  Br1  1  0.33328500  0.33333700  0.91043700  1
  Br  Br2  1  0.66661200  0.66671600  0.08951300  1
  Br  Br3  1  0.66661600  0.66673400  0.58956600  1
  O  O0  1  0.33330000  0.33332100  0.05704800  1
  O  O1  1  0.33329100  0.33333800  0.55713300  1
  O  O2  1  0.66660300  0.66675300  0.44294300  1
  O  O3  1  0.66660500  0.66671800  0.94287200  1
  O  O4  1  0.90975800  0.23977600  0.36266000  1
  O  O5  1  0.90953500  0.23993800  0.86240300  1
  O  O6  1  0.24014300  0.85032400  0.36274700  1
  O  O7  1  0.23977800  0.85064800  0.86239900  1
  O  O8  1  0.85063400  0.90948100  0.36262800  1
  O  O9  1  0.85044300  0.90966700  0.86237100  1
  O  O10  1  0.09040700  0.76008200  0.13745200  1
  O  O11  1  0.09039000  0.76007200  0.63741600  1
  O  O12  1  0.76031700  0.14935200  0.13763800  1
  O  O13  1  0.75996400  0.14957800  0.63738900  1
  O  O14  1  0.14961900  0.09029800  0.13752700  1
  O  O15  1  0.14946700  0.09050400  0.63740900  1
  O  O16  1  0.48902400  0.39885500  0.35938000  1
  O  O17  1  0.48902500  0.39884300  0.85929300  1
  O  O18  1  0.39875300  0.11216500  0.35935300  1
  O  O19  1  0.39875400  0.11216300  0.85925600  1
  O  O20  1  0.11209700  0.48907200  0.35936100  1
  O  O21  1  0.11209400  0.48906900  0.85928100  1
  O  O22  1  0.51083900  0.60125000  0.14064100  1
  O  O23  1  0.51090000  0.60119400  0.64070400  1
  O  O24  1  0.60116300  0.88788200  0.14066900  1
  O  O25  1  0.60110400  0.88792100  0.64072900  1
  O  O26  1  0.88779300  0.51097200  0.14064800  1
  O  O27  1  0.88781400  0.51103100  0.64070500  1
loop_
_geom_bond_atom_site_label_1
_geom_bond_atom_site_label_2
_geom_bond_distance
_geom_bond_site_symmetry_2
Ni0 O15 2.081289 1_655
Ni0 O13 2.081652 1_555
Ni0 O11 2.081864 1_645
Ni0 O5 2.084850 1_555
Ni0 O7 2.084851 1_645
Ni0 O9 2.085250 1_545
Ni1 O6 2.081074 1_555
Ni1 O14 2.082923 1_565
Ni1 O10 2.083585 1_555
Ni1 O4 2.083817 1_465
Ni1 O8 2.084240 1_455
Ni1 O12 2.086246 1_465
H0 O4 0.981695 1_555
H1 O5 0.981488 1_555
H2 O6 0.981786 1_555
H3 O7 0.981391 1_555
H4 O8 0.981264 1_555
H5 O9 0.981455 1_555
H6 O10 0.981347 1_555
H7 O11 0.981455 1_555
H8 O12 0.981729 1_555
H9 O13 0.982191 1_555
H10 O14 0.981795 1_555
H11 O15 0.981324 1_555
H12 O4 0.979073 1_555
H13 O5 0.979207 1_555
H14 O6 0.978940 1_555
H15 O7 0.979414 1_555
H16 O8 0.979467 1_555
H17 O9 0.979121 1_555
H18 O10 0.979108 1_555
H19 O11 0.979253 1_555
H20 O12 0.978798 1_555
H21 O13 0.979035 1_555
H22 O14 0.978990 1_555
H23 O15 0.979557 1_555
Br0 O1 1.645582 1_555
Br0 O20 1.656538 1_555
Br0 O18 1.656675 1_555
Br0 O16 1.656800 1_555
Br1 O0 1.645425 1_556
Br1 O19 1.656618 1_555
Br1 O21 1.656671 1_555
Br1 O17 1.656888 1_555
Br2 O3 1.645762 1_554
Br2 O24 1.656497 1_555
Br2 O26 1.656556 1_555
Br2 O22 1.656844 1_555
Br3 O2 1.645560 1_555
Br3 O25 1.656567 1_555
Br3 O27 1.656594 1_555
Br3 O23 1.656878 1_555
