# generated using pymatgen
data_Ba11(Cd4Bi7)2
_symmetry_space_group_name_H-M   'P 1'
_cell_length_a   4.95966638
_cell_length_b   14.69186624
_cell_length_c   17.12397970
_cell_angle_alpha   91.34500118
_cell_angle_beta   90.00293845
_cell_angle_gamma   99.72459989
_symmetry_Int_Tables_number   1
_chemical_formula_structural   Ba11(Cd4Bi7)2
_chemical_formula_sum   'Ba11 Cd8 Bi14'
_cell_volume   1229.49063502
_cell_formula_units_Z   1
loop_
 _symmetry_equiv_pos_site_id
 _symmetry_equiv_pos_as_xyz
  1  'x, y, z'
loop_
 _atom_site_type_symbol
 _atom_site_label
 _atom_site_symmetry_multiplicity
 _atom_site_fract_x
 _atom_site_fract_y
 _atom_site_fract_z
 _atom_site_occupancy
  Ba  Ba0  1  0.74417687  0.48757913  0.70740657  1
  Ba  Ba1  1  0.38162653  0.76422882  0.83751241  1
  Ba  Ba2  1  0.14520103  0.29061248  0.53716613  1
  Ba  Ba3  1  0.65586258  0.31051413  0.90242375  1
  Ba  Ba4  1  0.99013282  0.98021865  0.63304613  1
  Ba  Ba5  1  0.50000000  0.00000000  -0.00000000  1
  Ba  Ba6  1  0.25582313  0.51242087  0.29259343  1
  Ba  Ba7  1  0.34413742  0.68948587  0.09757625  1
  Ba  Ba8  1  0.85479897  0.70938752  0.46283387  1
  Ba  Ba9  1  0.61837347  0.23577118  0.16248759  1
  Ba  Ba10  1  0.00986718  0.01978135  0.36695387  1
  Cd  Cd0  1  0.79803182  0.59655997  0.95978052  1
  Cd  Cd1  1  0.37830078  0.75656216  0.60819956  1
  Cd  Cd2  1  0.20196818  0.40344003  0.04021948  1
  Cd  Cd3  1  0.59523213  0.18915989  0.68823141  1
  Cd  Cd4  1  0.62169922  0.24343784  0.39180044  1
  Cd  Cd5  1  0.93894754  0.87936173  0.15725574  1
  Cd  Cd6  1  0.06105246  0.12063827  0.84274426  1
  Cd  Cd7  1  0.40476787  0.81084011  0.31176859  1
  Bi  Bi0  1  0.55830087  0.11672258  0.52295500  1
  Bi  Bi1  1  0.90543041  0.81183703  0.98684346  1
  Bi  Bi2  1  0.14899946  0.29676029  0.74114509  1
  Bi  Bi3  1  0.09456959  0.18816297  0.01315654  1
  Bi  Bi4  1  0.85100054  0.70323971  0.25885491  1
  Bi  Bi5  1  0.86524992  0.73073200  0.69222012  1
  Bi  Bi6  1  0.25831413  0.51707981  0.88487665  1
  Bi  Bi7  1  0.44169913  0.88327742  0.47704500  1
  Bi  Bi8  1  0.72744572  0.45488856  0.45692764  1
  Bi  Bi9  1  0.48975372  0.98063822  0.20928130  1
  Bi  Bi10  1  0.27255428  0.54511144  0.54307236  1
  Bi  Bi11  1  0.13475008  0.26926800  0.30777988  1
  Bi  Bi12  1  0.51024628  0.01936178  0.79071870  1
  Bi  Bi13  1  0.74168587  0.48292019  0.11512335  1
loop_
_geom_bond_atom_site_label_1
_geom_bond_atom_site_label_2
_geom_bond_distance
_geom_bond_site_symmetry_2
Ba0 Bi5 3.536803 1_555
Ba0 Bi2 3.766621 1_555
Ba0 Bi2 3.768551 1_655
Ba0 Bi10 3.855503 1_655
Ba0 Bi10 3.857930 1_555
Ba0 Bi6 3.935681 1_655
Ba0 Bi6 3.939774 1_555
Ba1 Bi5 3.536571 1_455
Ba1 Bi5 3.539420 1_555
Ba1 Bi1 3.616455 1_555
Ba1 Bi1 3.616754 1_455
Ba1 Bi6 3.688455 1_555
Ba1 Bi12 3.799029 1_565
Ba1 Cd1 3.925674 1_555
Ba2 Bi2 3.491947 1_555
Ba2 Bi0 3.538006 1_455
Ba2 Bi0 3.538776 1_555
Ba2 Cd4 3.567683 1_455
Ba2 Cd4 3.568569 1_555
Ba2 Bi10 3.684316 1_555
Ba2 Bi8 3.721637 1_455
Ba2 Bi8 3.722040 1_555
Ba2 Cd3 3.893816 1_455
Ba2 Cd3 3.898662 1_555
Ba2 Bi11 3.932800 1_555
Ba3 Bi3 3.611364 1_656
Ba3 Bi3 3.611993 1_556
Ba3 Cd2 3.656032 1_656
Ba3 Cd2 3.658827 1_556
Ba3 Bi2 3.713359 1_555
Ba3 Bi2 3.713673 1_655
Ba3 Cd6 3.822953 1_555
Ba3 Cd6 3.824289 1_655
Ba3 Bi6 3.899734 1_655
Ba3 Bi6 3.905429 1_555
Ba4 Bi12 3.698048 1_565
Ba4 Bi12 3.701370 1_665
Ba4 Bi0 3.712891 1_665
Ba4 Bi0 3.713647 1_565
Ba4 Bi5 3.775341 1_555
Ba4 Bi7 3.882681 1_555
Ba4 Bi7 3.883314 1_655
Ba4 Cd3 4.005924 1_565
Ba4 Cd3 4.009256 1_665
Ba4 Cd6 4.084247 1_665
Ba4 Cd1 4.092945 1_555
Ba4 Cd1 4.093439 1_655
Ba5 Bi12 3.601334 1_554
Ba5 Bi9 3.601334 1_545
Ba5 Bi3 3.685790 1_555
Ba5 Bi1 3.685790 1_544
Ba5 Bi3 3.688573 1_655
Ba5 Bi1 3.688573 1_444
Ba6 Bi11 3.536803 1_555
Ba6 Bi4 3.766621 1_555
Ba6 Bi4 3.768551 1_455
Ba6 Bi8 3.855503 1_455
Ba6 Bi8 3.857930 1_555
Ba6 Bi13 3.935681 1_455
Ba6 Bi13 3.939774 1_555
Ba7 Bi1 3.611364 1_454
Ba7 Bi1 3.611993 1_554
Ba7 Cd0 3.656032 1_454
Ba7 Cd0 3.658827 1_554
Ba7 Bi4 3.713359 1_555
Ba7 Bi4 3.713673 1_455
Ba7 Cd5 3.822953 1_555
Ba7 Cd5 3.824289 1_455
Ba7 Bi13 3.899734 1_455
Ba7 Bi13 3.905429 1_555
Ba8 Bi4 3.491947 1_555
Ba8 Bi7 3.538006 1_655
Ba8 Bi7 3.538776 1_555
Ba8 Cd1 3.567683 1_655
Ba8 Cd1 3.568569 1_555
Ba8 Bi8 3.684316 1_555
Ba8 Bi10 3.721637 1_655
Ba8 Bi10 3.722040 1_555
Ba8 Cd7 3.893816 1_655
Ba8 Cd7 3.898662 1_555
Ba8 Bi5 3.932800 1_555
Ba9 Bi11 3.536571 1_655
Ba9 Bi11 3.539420 1_555
Ba9 Bi3 3.616455 1_555
Ba9 Bi3 3.616754 1_655
Ba9 Bi13 3.688455 1_555
Ba9 Bi9 3.799029 1_545
Ba9 Cd4 3.925674 1_555
Ba10 Bi9 3.698048 1_545
Ba10 Bi9 3.701370 1_445
Ba10 Bi7 3.712891 1_445
Ba10 Bi7 3.713647 1_545
Ba10 Bi11 3.775341 1_555
Ba10 Bi0 3.882681 1_555
Ba10 Bi0 3.883314 1_455
Ba10 Cd7 4.005924 1_545
Ba10 Cd7 4.009256 1_445
Ba10 Cd5 4.084247 1_445
Ba10 Cd4 4.092945 1_555
Ba10 Cd4 4.093439 1_455
Bi0 Cd4 2.933828 1_555
Bi0 Cd3 2.994800 1_555
Bi0 Bi7 3.452384 1_545
Bi1 Cd5 3.055434 1_556
Bi1 Cd0 3.140694 1_555
Bi2 Cd3 3.054356 1_455
Bi2 Cd3 3.055012 1_555
Bi2 Cd6 3.121330 1_555
Bi3 Cd6 3.055434 1_554
Bi3 Cd2 3.140694 1_555
Bi4 Cd7 3.054356 1_655
Bi4 Cd7 3.055012 1_555
Bi4 Cd5 3.121330 1_555
Bi5 Cd1 2.895116 1_555
Bi5 Cd1 2.896316 1_655
Bi6 Cd0 3.007904 1_555
Bi6 Cd0 3.008433 1_455
Bi6 Cd2 3.161109 1_556
Bi7 Cd1 2.933828 1_555
Bi7 Cd7 2.994800 1_555
Bi8 Cd4 3.233680 1_555
Bi9 Cd5 3.004796 1_555
Bi9 Cd5 3.005793 1_455
Bi9 Cd7 3.054721 1_555
Bi10 Bi8 3.152691 1_455
Bi10 Bi8 3.153089 1_555
Bi10 Cd1 3.233680 1_555
Bi11 Cd4 2.895116 1_555
Bi11 Cd4 2.896316 1_455
Bi12 Cd6 3.004796 1_555
Bi12 Cd6 3.005793 1_655
Bi12 Cd3 3.054721 1_555
Bi13 Cd2 3.007904 1_555
Bi13 Cd2 3.008433 1_655
Bi13 Cd0 3.161109 1_554
