# generated using pymatgen
data_Cs2CaH4
_symmetry_space_group_name_H-M   'P 1'
_cell_length_a   8.40934201
_cell_length_b   8.40934201
_cell_length_c   8.40934201
_cell_angle_alpha   148.23204929
_cell_angle_beta   148.23204929
_cell_angle_gamma   45.54293069
_symmetry_Int_Tables_number   1
_chemical_formula_structural   Cs2CaH4
_chemical_formula_sum   'Cs2 Ca1 H4'
_cell_volume   164.29408376
_cell_formula_units_Z   1
loop_
 _symmetry_equiv_pos_site_id
 _symmetry_equiv_pos_as_xyz
  1  'x, y, z'
loop_
 _atom_site_type_symbol
 _atom_site_label
 _atom_site_symmetry_multiplicity
 _atom_site_fract_x
 _atom_site_fract_y
 _atom_site_fract_z
 _atom_site_occupancy
  Cs  Cs0  1  0.64805889  0.64805889  -0.00000000  1
  Cs  Cs1  1  0.35194211  0.35194211  0.00000000  1
  Ca  Ca0  1  -0.00000000  -0.00000000  -0.00000000  1
  H  H0  1  0.85147726  0.85147726  -0.00000000  1
  H  H1  1  0.14852274  0.14852274  0.00000000  1
  H  H2  1  -0.00000000  0.50000000  0.50000000  1
  H  H3  1  0.50000000  -0.00000000  0.50000000  1
loop_
_geom_bond_atom_site_label_1
_geom_bond_atom_site_label_2
_geom_bond_distance
_geom_bond_site_symmetry_2
Cs0 H0 3.154565 1_555
Cs0 H2 3.251009 1_554
Cs0 H3 3.251009 1_565
Cs0 H2 3.251009 1_655
Cs0 H3 3.251009 1_554
Cs0 H1 3.254898 1_554
Cs0 H1 3.254898 1_655
Cs0 H1 3.254898 1_565
Cs0 H1 3.254898 1_666
Cs1 H1 3.154581 1_555
Cs1 H3 3.250998 1_554
Cs1 H2 3.250998 1_554
Cs1 H3 3.250998 1_565
Cs1 H2 3.250998 1_655
Cs1 H0 3.254898 1_545
Cs1 H0 3.254898 1_444
Cs1 H0 3.254898 1_556
Cs1 H0 3.254898 1_455
Ca0 H2 2.301555 1_555
Ca0 H3 2.301555 1_454
Ca0 H3 2.301555 1_555
Ca0 H2 2.301555 1_544
Ca0 H0 2.303256 1_445
Ca0 H1 2.303256 1_555
