# generated using pymatgen
data_CoH14C10(N4O)2
_symmetry_space_group_name_H-M   'P 1'
_cell_length_a   7.82041859
_cell_length_b   7.82041859
_cell_length_c   8.27926812
_cell_angle_alpha   69.66590548
_cell_angle_beta   69.66590548
_cell_angle_gamma   56.69294494
_symmetry_Int_Tables_number   1
_chemical_formula_structural   CoH14C10(N4O)2
_chemical_formula_sum   'Co1 H14 C10 N8 O2'
_cell_volume   388.79509865
_cell_formula_units_Z   1
loop_
 _symmetry_equiv_pos_site_id
 _symmetry_equiv_pos_as_xyz
  1  'x, y, z'
loop_
 _atom_site_type_symbol
 _atom_site_label
 _atom_site_symmetry_multiplicity
 _atom_site_fract_x
 _atom_site_fract_y
 _atom_site_fract_z
 _atom_site_occupancy
  Co  Co0  1  0.00000000  0.00000000  0.50000000  1
  H  H0  1  0.50490700  0.26464500  0.82335100  1
  H  H1  1  0.26464500  0.50490700  0.82335100  1
  H  H2  1  0.49509300  0.73535500  0.17664900  1
  H  H3  1  0.73535500  0.49509300  0.17664900  1
  H  H4  1  0.22977700  0.22977700  0.23313500  1
  H  H5  1  0.77022300  0.77022300  0.76686500  1
  H  H6  1  0.24673500  0.24673500  0.72168600  1
  H  H7  1  0.75326500  0.75326500  0.27831400  1
  H  H8  1  0.25581000  0.01662000  0.87366000  1
  H  H9  1  0.01662000  0.25581000  0.87366000  1
  H  H10  1  0.74419000  0.98338000  0.12634000  1
  H  H11  1  0.98338000  0.74419000  0.12634000  1
  H  H12  1  0.38155500  0.38155500  0.01365400  1
  H  H13  1  0.61844500  0.61844500  0.98634600  1
  C  C0  1  0.76583900  0.46049500  0.58102700  1
  C  C1  1  0.46049500  0.76583900  0.58102700  1
  C  C2  1  0.23416100  0.53950500  0.41897300  1
  C  C3  1  0.53950500  0.23416100  0.41897300  1
  C  C4  1  0.18288700  0.18288700  0.15162800  1
  C  C5  1  0.81711300  0.81711300  0.84837200  1
  C  C6  1  0.18626100  0.18626100  0.85562200  1
  C  C7  1  0.81373900  0.81373900  0.14437800  1
  C  C8  1  0.35443800  0.35443800  0.90548400  1
  C  C9  1  0.64556200  0.64556200  0.09451600  1
  N  N0  1  0.89405500  0.30203000  0.53370900  1
  N  N1  1  0.30203000  0.89405500  0.53370900  1
  N  N2  1  0.10594500  0.69797000  0.46629100  1
  N  N3  1  0.69797000  0.10594500  0.46629100  1
  N  N4  1  0.63221700  0.63221700  0.63997700  1
  N  N5  1  0.36778300  0.36778300  0.36002300  1
  N  N6  1  0.23903300  0.23903300  0.97811400  1
  N  N7  1  0.76096700  0.76096700  0.02188600  1
  O  O0  1  0.08336300  0.08336300  0.22005100  1
  O  O1  1  0.91663700  0.91663700  0.77994900  1
loop_
_geom_bond_atom_site_label_1
_geom_bond_atom_site_label_2
_geom_bond_distance
_geom_bond_site_symmetry_2
Co0 N1 2.119331 1_545
Co0 N3 2.119331 1_455
Co0 N0 2.119331 1_455
Co0 N2 2.119331 1_545
Co0 O1 2.142098 1_445
Co0 O0 2.142098 1_555
C0 N0 1.180833 1_555
C0 N4 1.301351 1_555
C1 N1 1.180833 1_555
C1 N4 1.301351 1_555
C2 N2 1.180833 1_555
C2 N5 1.301351 1_555
C3 N3 1.180833 1_555
C3 N5 1.301351 1_555
C4 H4 1.102703 1_555
C4 O0 1.258936 1_555
C4 N6 1.335776 1_554
C5 H5 1.102703 1_555
C5 O1 1.258936 1_555
C5 N7 1.335776 1_556
C6 H6 1.092550 1_555
C6 H9 1.097476 1_555
C6 H8 1.097476 1_555
C6 N6 1.462169 1_555
C7 H7 1.092550 1_555
C7 H11 1.097476 1_555
C7 H10 1.097476 1_555
C7 N7 1.462169 1_555
C8 H12 1.097890 1_556
C8 H1 1.099294 1_555
C8 H0 1.099294 1_555
C8 N6 1.459752 1_555
C9 H13 1.097890 1_554
C9 H3 1.099294 1_555
C9 H2 1.099294 1_555
C9 N7 1.459752 1_555
