# generated using pymatgen
data_Sr(H2O3)2
_symmetry_space_group_name_H-M   'P 1'
_cell_length_a   5.13869089
_cell_length_b   5.13869089
_cell_length_c   9.38844240
_cell_angle_alpha   76.13297231
_cell_angle_beta   76.13297231
_cell_angle_gamma   69.43074774
_symmetry_Int_Tables_number   1
_chemical_formula_structural   Sr(H2O3)2
_chemical_formula_sum   'Sr2 H8 O12'
_cell_volume   222.02237863
_cell_formula_units_Z   2
loop_
 _symmetry_equiv_pos_site_id
 _symmetry_equiv_pos_as_xyz
  1  'x, y, z'
loop_
 _atom_site_type_symbol
 _atom_site_label
 _atom_site_symmetry_multiplicity
 _atom_site_fract_x
 _atom_site_fract_y
 _atom_site_fract_z
 _atom_site_occupancy
  Sr  Sr0  1  0.88375500  0.11337300  0.73880900  1
  Sr  Sr1  1  0.11337300  0.88375500  0.23880900  1
  H  H0  1  0.10055400  0.41566200  0.94263700  1
  H  H1  1  0.30079500  0.01132100  0.88700700  1
  H  H2  1  0.64400100  0.82274900  0.61502000  1
  H  H3  1  0.82274900  0.64400100  0.11502000  1
  H  H4  1  0.41566200  0.10055400  0.44263700  1
  H  H5  1  0.01132100  0.30079500  0.38700700  1
  H  H6  1  0.35444000  0.80298900  0.51259800  1
  H  H7  1  0.80298900  0.35444000  0.01259800  1
  O  O0  1  0.01734800  0.26292300  0.98458600  1
  O  O1  1  0.84175900  0.79109300  0.56517400  1
  O  O2  1  0.79109300  0.84175900  0.06517400  1
  O  O3  1  0.26292300  0.01734800  0.48458600  1
  O  O4  1  0.41278700  0.93275000  0.79751100  1
  O  O5  1  0.99106700  0.60605500  0.68756200  1
  O  O6  1  0.60605500  0.99106700  0.18756200  1
  O  O7  1  0.93275000  0.41278700  0.29751100  1
  O  O8  1  0.50167800  0.47961300  0.53875000  1
  O  O9  1  0.41596800  0.55280900  0.90438000  1
  O  O10  1  0.55280900  0.41596800  0.40438000  1
  O  O11  1  0.47961300  0.50167800  0.03875000  1
loop_
_geom_bond_atom_site_label_1
_geom_bond_atom_site_label_2
_geom_bond_distance
_geom_bond_site_symmetry_2
H0 O0 0.980246 1_555
H1 O4 0.983743 1_545
H1 Sr0 2.663323 1_455
H2 O1 0.985158 1_555
H3 O2 0.985158 1_555
H4 O3 0.980246 1_555
H5 O7 0.983743 1_455
H5 Sr1 2.663323 1_545
H6 O3 1.029613 1_565
H6 O8 1.550516 1_555
H7 O0 1.029613 1_654
H7 O11 1.550516 1_555
O0 Sr1 2.719612 1_546
O1 O5 1.483007 1_555
O1 Sr0 2.675910 1_565
O1 Sr1 3.046469 1_655
O2 O6 1.483007 1_555
O2 Sr1 2.675910 1_655
O2 Sr0 3.046469 1_564
O3 Sr0 2.719612 1_455
O4 Sr0 2.693618 1_465
O4 Sr0 2.777821 1_565
O5 Sr0 2.606848 1_565
O5 Sr0 2.686121 1_555
O6 Sr1 2.606848 1_655
O6 Sr1 2.686121 1_555
O7 Sr1 2.693618 1_645
O7 Sr1 2.777821 1_655
O8 Sr0 2.898511 1_555
O9 Sr0 3.061210 1_555
O10 O8 1.321343 1_555
O10 Sr1 3.061210 1_555
O11 O9 1.321343 1_554
O11 Sr1 2.898511 1_555
