# generated using pymatgen
data_KHCO3
_symmetry_space_group_name_H-M   'P 1'
_cell_length_a   5.60651043
_cell_length_b   3.65240247
_cell_length_c   15.04573194
_cell_angle_alpha   75.59534779
_cell_angle_beta   90.00000000
_cell_angle_gamma   90.00000000
_symmetry_Int_Tables_number   1
_chemical_formula_structural   KHCO3
_chemical_formula_sum   'K4 H4 C4 O12'
_cell_volume   298.40935953
_cell_formula_units_Z   4
loop_
 _symmetry_equiv_pos_site_id
 _symmetry_equiv_pos_as_xyz
  1  'x, y, z'
loop_
 _atom_site_type_symbol
 _atom_site_label
 _atom_site_symmetry_multiplicity
 _atom_site_fract_x
 _atom_site_fract_y
 _atom_site_fract_z
 _atom_site_occupancy
  K  K0  1  0.52527520  0.96076482  0.66585803  1
  K  K1  1  0.02527520  0.03923518  0.83414197  1
  K  K2  1  0.47472480  0.03923518  0.33414197  1
  K  K3  1  0.97472480  0.96076482  0.16585803  1
  H  H0  1  0.19136344  0.51553772  0.51450069  1
  H  H1  1  0.69136344  0.48446228  0.98549931  1
  H  H2  1  0.80863656  0.48446228  0.48549931  1
  H  H3  1  0.30863656  0.51553772  0.01450069  1
  C  C0  1  0.01574467  0.61458571  0.61906972  1
  C  C1  1  0.51574467  0.38541429  0.88093028  1
  C  C2  1  0.98425533  0.38541429  0.38093028  1
  C  C3  1  0.48425533  0.61458571  0.11906972  1
  O  O0  1  0.03246343  0.70878536  0.69364452  1
  O  O1  1  0.53246343  0.29121464  0.80635548  1
  O  O2  1  0.96753657  0.29121464  0.30635548  1
  O  O3  1  0.46753657  0.70878536  0.19364452  1
  O  O4  1  0.82092186  0.55832103  0.58095098  1
  O  O5  1  0.32092186  0.44167897  0.91904902  1
  O  O6  1  0.17907814  0.44167897  0.41904902  1
  O  O7  1  0.67907814  0.55832103  0.08095098  1
  O  O8  1  0.22309836  0.56961398  0.57689214  1
  O  O9  1  0.72309836  0.43038602  0.92310786  1
  O  O10  1  0.77690164  0.43038602  0.42310786  1
  O  O11  1  0.27690164  0.56961398  0.07689214  1
loop_
_geom_bond_atom_site_label_1
_geom_bond_atom_site_label_2
_geom_bond_distance
_geom_bond_site_symmetry_2
K0 O1 2.682576 1_565
K0 O4 2.733909 1_555
K0 O8 2.766652 1_555
K0 O4 2.784889 1_565
K0 O1 2.806860 1_555
K0 O8 2.850621 1_565
K0 O0 2.909342 1_555
K0 O0 2.985995 1_655
K1 O0 2.682576 1_545
K1 O5 2.733909 1_555
K1 O9 2.766652 1_455
K1 O5 2.784889 1_545
K1 O0 2.806860 1_555
K1 O9 2.850621 1_445
K1 O1 2.909342 1_455
K1 O1 2.985995 1_555
K2 O3 2.682576 1_545
K2 O6 2.733909 1_555
K2 O10 2.766652 1_555
K2 O6 2.784889 1_545
K2 O3 2.806860 1_555
K2 O10 2.850621 1_545
K2 O2 2.909342 1_555
K2 O2 2.985995 1_455
K3 O2 2.682576 1_565
K3 O7 2.733909 1_555
K3 O11 2.766652 1_655
K3 O7 2.784889 1_565
K3 O2 2.806860 1_555
K3 O11 2.850621 1_665
K3 O3 2.909342 1_655
K3 O3 2.985995 1_555
H0 O8 1.021820 1_555
H0 O6 1.527340 1_555
H1 O9 1.021820 1_555
H1 O7 1.527340 1_556
H2 O10 1.021820 1_555
H2 O4 1.527340 1_555
H3 O11 1.021820 1_555
H3 O5 1.527340 1_554
C0 O0 1.256259 1_555
C0 O4 1.273918 1_455
C0 O8 1.353893 1_555
C1 O1 1.256259 1_555
C1 O5 1.273918 1_555
C1 O9 1.353893 1_555
C2 O2 1.256259 1_555
C2 O6 1.273918 1_655
C2 O10 1.353893 1_555
C3 O3 1.256259 1_555
C3 O7 1.273918 1_555
C3 O11 1.353893 1_555
