# generated using pymatgen
data_NaLaH2S2O9
_symmetry_space_group_name_H-M   'P 1'
_cell_length_a   7.20262592
_cell_length_b   7.20262592
_cell_length_c   12.81594900
_cell_angle_alpha   90.00000000
_cell_angle_beta   90.00000000
_cell_angle_gamma   119.99999928
_symmetry_Int_Tables_number   1
_chemical_formula_structural   NaLaH2S2O9
_chemical_formula_sum   'Na3 La3 H6 S6 O27'
_cell_volume   575.78868310
_cell_formula_units_Z   3
loop_
 _symmetry_equiv_pos_site_id
 _symmetry_equiv_pos_as_xyz
  1  'x, y, z'
loop_
 _atom_site_type_symbol
 _atom_site_label
 _atom_site_symmetry_multiplicity
 _atom_site_fract_x
 _atom_site_fract_y
 _atom_site_fract_z
 _atom_site_occupancy
  Na  Na0  1  0.47558400  0.99740200  0.83243800  1
  Na  Na1  1  0.52181800  0.52441600  0.49910500  1
  Na  Na2  1  0.00259800  0.47818200  0.16577100  1
  La  La0  1  0.56117300  0.55921400  0.99901000  1
  La  La1  1  0.44078600  0.00195900  0.33234300  1
  La  La2  1  0.99804100  0.43882700  0.66567600  1
  H  H0  1  0.03787000  0.94145500  0.03808600  1
  H  H1  1  0.05854500  0.09641500  0.37142000  1
  H  H2  1  0.09199300  0.05880400  0.62208300  1
  H  H3  1  0.90358500  0.96213000  0.70475300  1
  H  H4  1  0.96681100  0.90800700  0.28875000  1
  H  H5  1  0.94119600  0.03318900  0.95541600  1
  S  S0  1  0.00318300  0.43837600  0.91896200  1
  S  S1  1  0.43519300  0.99681700  0.58562900  1
  S  S2  1  0.56162400  0.56480700  0.25229600  1
  S  S3  1  0.55984400  0.55768100  0.74605000  1
  S  S4  1  0.44231900  0.00216300  0.07938400  1
  S  S5  1  0.99783700  0.44015600  0.41271700  1
  O  O0  1  0.13612300  0.62104000  0.34234900  1
  O  O1  1  0.12035400  0.61891700  0.84365300  1
  O  O2  1  0.24649900  0.87173700  0.14430000  1
  O  O3  1  0.25240500  0.84578600  0.65249700  1
  O  O4  1  0.12826300  0.37476300  0.47763300  1
  O  O5  1  0.15421400  0.40661900  0.98583000  1
  O  O6  1  0.48491700  0.86387700  0.00901500  1
  O  O7  1  0.49856400  0.87964600  0.51032000  1
  O  O8  1  0.09365000  0.00489000  0.32947800  1
  O  O9  1  0.38108300  0.50143600  0.17698600  1
  O  O10  1  0.37896000  0.51508300  0.67568200  1
  O  O11  1  0.59338100  0.74759500  0.31916300  1
  O  O12  1  0.62523700  0.75350100  0.81096700  1
  O  O13  1  0.51856400  0.38375100  0.32268900  1
  O  O14  1  0.49658600  0.37692000  0.82118400  1
  O  O15  1  0.37001100  0.12764500  0.52083300  1
  O  O16  1  0.41011900  0.15290500  0.01248900  1
  O  O17  1  0.75763400  0.62998900  0.18750000  1
  O  O18  1  0.74278700  0.58988100  0.67915500  1
  O  O19  1  0.91124000  0.90635000  0.99614400  1
  O  O20  1  0.61624900  0.13481400  0.65602300  1
  O  O21  1  0.62308000  0.11966600  0.15451700  1
  O  O22  1  0.88033400  0.50341400  0.48785100  1
  O  O23  1  0.86518600  0.48143600  0.98935600  1
  O  O24  1  0.84709500  0.25721300  0.34582200  1
  O  O25  1  0.87235500  0.24236600  0.85416700  1
  O  O26  1  0.99511000  0.08876000  0.66281100  1
loop_
_geom_bond_atom_site_label_1
_geom_bond_atom_site_label_2
_geom_bond_distance
_geom_bond_site_symmetry_2
Na0 O20 2.472869 1_565
Na0 O6 2.472907 1_556
Na0 O12 2.493438 1_555
Na0 O25 2.513034 1_565
Na0 O1 2.650216 1_555
Na0 O14 2.665024 1_565
Na0 O16 2.707320 1_566
Na0 O3 2.709107 1_555
Na1 O13 2.472880 1_555
Na1 O10 2.472907 1_555
Na1 O4 2.493446 1_555
Na1 O15 2.513032 1_555
Na1 O7 2.650212 1_555
Na1 O22 2.665024 1_555
Na1 O18 2.707313 1_555
Na1 O11 2.709118 1_555
Na2 O23 2.472871 1_454
Na2 O0 2.472919 1_555
Na2 O2 2.493444 1_555
Na2 O17 2.513034 1_455
Na2 O9 2.650220 1_555
Na2 O21 2.665024 1_455
Na2 O24 2.707323 1_455
Na2 O5 2.709107 1_554
La0 O19 2.511181 1_555
La0 O6 2.517664 1_556
La0 O23 2.520033 1_555
La0 O9 2.553146 1_556
La0 O14 2.554104 1_555
La0 O16 2.567864 1_556
La0 O5 2.570348 1_555
La0 O12 2.708009 1_555
La0 O17 2.715944 1_556
La1 O8 2.511181 1_555
La1 O0 2.517664 1_545
La1 O13 2.520040 1_555
La1 O7 2.553160 1_545
La1 O21 2.554104 1_555
La1 O24 2.567863 1_555
La1 O11 2.570348 1_545
La1 O2 2.708009 1_545
La1 O15 2.715944 1_555
La2 O26 2.511181 1_555
La2 O10 2.517664 1_655
La2 O20 2.520037 1_555
La2 O1 2.553158 1_655
La2 O22 2.554092 1_555
La2 O18 2.567858 1_555
La2 O3 2.570347 1_655
La2 O4 2.708006 1_655
La2 O25 2.715955 1_555
H0 O19 0.976791 1_454
H1 O8 0.976791 1_555
H2 O26 0.978012 1_455
H3 O26 0.976791 1_565
H4 O8 0.978012 1_665
H5 O19 0.978012 1_545
O0 S5 1.484957 1_455
O1 S0 1.495757 1_555
O2 S4 1.496318 1_565
O3 S1 1.489598 1_555
O4 S5 1.496313 1_455
O5 S0 1.489598 1_555
O6 S4 1.484965 1_565
O7 S1 1.495761 1_555
O9 S2 1.495764 1_555
O10 S3 1.484957 1_555
O11 S2 1.489590 1_555
O12 S3 1.496326 1_555
O13 S2 1.485341 1_555
O14 S3 1.495553 1_555
O15 S1 1.496779 1_545
O16 S4 1.489775 1_555
O17 S2 1.496779 1_555
O18 S3 1.489780 1_555
O20 S1 1.485350 1_545
O21 S4 1.495545 1_555
O22 S5 1.495553 1_555
O23 S0 1.485354 1_655
O24 S5 1.489778 1_555
O25 S0 1.496772 1_655
