# generated using pymatgen
data_GeTeRh
_symmetry_space_group_name_H-M   'P 1'
_cell_length_a   6.43667500
_cell_length_b   6.48034400
_cell_length_c   11.65967500
_cell_angle_alpha   90.00000000
_cell_angle_beta   90.00000000
_cell_angle_gamma   90.00000000
_symmetry_Int_Tables_number   1
_chemical_formula_structural   GeTeRh
_chemical_formula_sum   'Ge8 Te8 Rh8'
_cell_volume   486.34682704
_cell_formula_units_Z   8
loop_
 _symmetry_equiv_pos_site_id
 _symmetry_equiv_pos_as_xyz
  1  'x, y, z'
loop_
 _atom_site_type_symbol
 _atom_site_label
 _atom_site_symmetry_multiplicity
 _atom_site_fract_x
 _atom_site_fract_y
 _atom_site_fract_z
 _atom_site_occupancy
  Ge  Ge0  1  0.84437700  0.76714000  0.42894000  1
  Ge  Ge1  1  0.15562300  0.26714000  0.07106000  1
  Ge  Ge2  1  0.34437700  0.76714000  0.07106000  1
  Ge  Ge3  1  0.65562300  0.23286000  0.92894000  1
  Ge  Ge4  1  0.84437700  0.73286000  0.92894000  1
  Ge  Ge5  1  0.15562300  0.23286000  0.57106000  1
  Ge  Ge6  1  0.65562300  0.26714000  0.42894000  1
  Ge  Ge7  1  0.34437700  0.73286000  0.57106000  1
  Te  Te0  1  0.61701700  0.00428700  0.67382500  1
  Te  Te1  1  0.88298300  0.99571300  0.17382500  1
  Te  Te2  1  0.11701700  0.00428700  0.82617500  1
  Te  Te3  1  0.38298300  0.50428700  0.82617500  1
  Te  Te4  1  0.61701700  0.49571300  0.17382500  1
  Te  Te5  1  0.88298300  0.50428700  0.67382500  1
  Te  Te6  1  0.38298300  0.99571300  0.32617500  1
  Te  Te7  1  0.11701700  0.49571300  0.32617500  1
  Rh  Rh0  1  0.50259800  0.61147500  0.38893400  1
  Rh  Rh1  1  0.49740200  0.11147500  0.11106600  1
  Rh  Rh2  1  0.99740200  0.38852500  0.88893400  1
  Rh  Rh3  1  0.50259800  0.88852500  0.88893400  1
  Rh  Rh4  1  0.99740200  0.11147500  0.38893400  1
  Rh  Rh5  1  0.49740200  0.38852500  0.61106600  1
  Rh  Rh6  1  0.00259800  0.61147500  0.11106600  1
  Rh  Rh7  1  0.00259800  0.88852500  0.61106600  1
loop_
_geom_bond_atom_site_label_1
_geom_bond_atom_site_label_2
_geom_bond_distance
_geom_bond_site_symmetry_2
Ge0 Rh0 2.464718 1_555
Ge0 Rh7 2.483006 1_655
Ge0 Rh4 2.483332 1_565
Ge0 Te7 2.758483 1_655
Ge1 Rh1 2.464718 1_555
Ge1 Rh2 2.483006 1_454
Ge1 Rh6 2.483332 1_555
Ge1 Te1 2.758483 1_445
Ge2 Rh6 2.464718 1_555
Ge2 Rh3 2.483006 1_554
Ge2 Rh1 2.483332 1_565
Ge2 Te4 2.758483 1_555
Ge3 Rh2 2.464718 1_555
Ge3 Rh1 2.483006 1_556
Ge3 Rh3 2.483332 1_545
Ge3 Te3 2.758483 1_555
Ge4 Rh3 2.464718 1_555
Ge4 Rh6 2.483006 1_656
Ge4 Rh2 2.483332 1_555
Ge4 Te2 2.758483 1_665
Ge5 Rh5 2.464718 1_555
Ge5 Rh4 2.483006 1_455
Ge5 Rh7 2.483332 1_545
Ge5 Te5 2.758483 1_455
Ge6 Rh4 2.464718 1_555
Ge6 Rh5 2.483006 1_555
Ge6 Rh0 2.483332 1_555
Ge6 Te6 2.758483 1_545
Ge7 Rh7 2.464718 1_555
Ge7 Rh0 2.483006 1_555
Ge7 Rh5 2.483332 1_555
Ge7 Te0 2.758483 1_565
Rh0 Te7 2.694040 1_555
Rh0 Te6 2.707085 1_555
Rh0 Te4 2.719510 1_555
Rh1 Te1 2.694040 1_545
Rh1 Te4 2.707085 1_555
Rh1 Te6 2.719510 1_545
Rh2 Te3 2.694040 1_655
Rh2 Te2 2.707085 1_655
Rh2 Te5 2.719510 1_555
Rh3 Te2 2.694040 1_565
Rh3 Te3 2.707085 1_555
Rh3 Te0 2.719510 1_565
Rh4 Te6 2.694040 1_645
Rh4 Te7 2.707085 1_655
Rh4 Te1 2.719510 1_545
Rh5 Te5 2.694040 1_555
Rh5 Te0 2.707085 1_555
Rh5 Te3 2.719510 1_555
Rh6 Te4 2.694040 1_455
Rh6 Te1 2.707085 1_455
Rh6 Te7 2.719510 1_555
Rh7 Te0 2.694040 1_465
Rh7 Te5 2.707085 1_455
Rh7 Te2 2.719510 1_565
