# generated using pymatgen
data_NaGa(SiO3)2
_symmetry_space_group_name_H-M   'P 1'
_cell_length_a   6.56401647
_cell_length_b   6.56401647
_cell_length_c   5.34421818
_cell_angle_alpha   76.81031052
_cell_angle_beta   76.81031052
_cell_angle_gamma   84.47387608
_symmetry_Int_Tables_number   1
_chemical_formula_structural   NaGa(SiO3)2
_chemical_formula_sum   'Na2 Ga2 Si4 O12'
_cell_volume   218.03643757
_cell_formula_units_Z   2
loop_
 _symmetry_equiv_pos_site_id
 _symmetry_equiv_pos_as_xyz
  1  'x, y, z'
loop_
 _atom_site_type_symbol
 _atom_site_label
 _atom_site_symmetry_multiplicity
 _atom_site_fract_x
 _atom_site_fract_y
 _atom_site_fract_z
 _atom_site_occupancy
  Na  Na0  1  0.70091100  0.29908900  0.75000000  1
  Na  Na1  1  0.29908900  0.70091100  0.25000000  1
  Ga  Ga0  1  0.09996400  0.90003600  0.75000000  1
  Ga  Ga1  1  0.90003600  0.09996400  0.25000000  1
  Si  Si0  1  0.80010400  0.61868400  0.23077600  1
  Si  Si1  1  0.19989600  0.38131600  0.76922400  1
  Si  Si2  1  0.38131600  0.19989600  0.26922400  1
  Si  Si3  1  0.61868400  0.80010400  0.73077600  1
  O  O0  1  0.35994200  0.34289400  0.49227000  1
  O  O1  1  0.65710600  0.64005800  0.00773000  1
  O  O2  1  0.64005800  0.65710600  0.50773000  1
  O  O3  1  0.34289400  0.35994200  0.99227000  1
  O  O4  1  0.61647400  0.10172000  0.19842800  1
  O  O5  1  0.89828000  0.38352600  0.30157200  1
  O  O6  1  0.38352600  0.89828000  0.80157200  1
  O  O7  1  0.10172000  0.61647400  0.69842800  1
  O  O8  1  0.03361100  0.19039500  0.86711900  1
  O  O9  1  0.80960500  0.96638900  0.63288100  1
  O  O10  1  0.96638900  0.80960500  0.13288100  1
  O  O11  1  0.19039500  0.03361100  0.36711900  1
loop_
_geom_bond_atom_site_label_1
_geom_bond_atom_site_label_2
_geom_bond_distance
_geom_bond_site_symmetry_2
Na0 O8 2.406220 1_655
Na0 O9 2.406220 1_545
Na0 O4 2.417455 1_556
Na0 O5 2.417455 1_555
Na0 O2 2.454636 1_555
Na0 O3 2.454636 1_555
Na0 O0 2.844493 1_555
Na0 O1 2.844493 1_556
Na1 O11 2.406220 1_565
Na1 O10 2.406220 1_455
Na1 O7 2.417455 1_555
Na1 O6 2.417455 1_554
Na1 O1 2.454636 1_555
Na1 O0 2.454636 1_555
Na1 O3 2.844493 1_554
Na1 O2 2.844493 1_555
Ga0 O6 1.941412 1_555
Ga0 O7 1.941412 1_555
Ga0 O11 2.008796 1_565
Ga0 O10 2.008796 1_456
Ga0 O8 2.115209 1_565
Ga0 O9 2.115209 1_455
Ga1 O4 1.941412 1_555
Ga1 O5 1.941412 1_555
Ga1 O9 2.008796 1_545
Ga1 O8 2.008796 1_654
Ga1 O11 2.115209 1_655
Ga1 O10 2.115209 1_545
O0 Si2 1.652430 1_555
O0 Si1 1.663637 1_555
O1 Si0 1.652430 1_555
O1 Si3 1.663637 1_554
O2 Si3 1.652430 1_555
O2 Si0 1.663637 1_555
O3 Si1 1.652430 1_555
O3 Si2 1.663637 1_556
O4 Si2 1.610667 1_555
O5 Si0 1.610667 1_555
O6 Si3 1.610667 1_555
O7 Si1 1.610667 1_555
O8 Si1 1.655071 1_555
O9 Si3 1.655071 1_555
O10 Si0 1.655071 1_555
O11 Si2 1.655071 1_555
