# generated using pymatgen
data_Mn(GaTe2)2
_symmetry_space_group_name_H-M   'P 1'
_cell_length_a   4.26051600
_cell_length_b   7.07272800
_cell_length_c   27.80089800
_cell_angle_alpha   90.00000000
_cell_angle_beta   90.00000000
_cell_angle_gamma   90.00000000
_symmetry_Int_Tables_number   1
_chemical_formula_structural   Mn(GaTe2)2
_chemical_formula_sum   'Mn4 Ga8 Te16'
_cell_volume   837.73754831
_cell_formula_units_Z   4
loop_
 _symmetry_equiv_pos_site_id
 _symmetry_equiv_pos_as_xyz
  1  'x, y, z'
loop_
 _atom_site_type_symbol
 _atom_site_label
 _atom_site_symmetry_multiplicity
 _atom_site_fract_x
 _atom_site_fract_y
 _atom_site_fract_z
 _atom_site_occupancy
  Mn  Mn0  1  0.25000000  0.35220400  0.30951700  1
  Mn  Mn1  1  0.75000000  0.85220400  0.19048300  1
  Mn  Mn2  1  0.75000000  0.64779600  0.69048300  1
  Mn  Mn3  1  0.25000000  0.14779600  0.80951700  1
  Ga  Ga0  1  0.75000000  0.95414900  0.34998100  1
  Ga  Ga1  1  0.25000000  0.07401100  0.04700100  1
  Ga  Ga2  1  0.25000000  0.45414900  0.15001900  1
  Ga  Ga3  1  0.25000000  0.04585100  0.65001900  1
  Ga  Ga4  1  0.25000000  0.42598900  0.54700100  1
  Ga  Ga5  1  0.75000000  0.57401100  0.45299900  1
  Ga  Ga6  1  0.75000000  0.54585100  0.84998100  1
  Ga  Ga7  1  0.75000000  0.92598900  0.95299900  1
  Te  Te0  1  0.75000000  0.61193600  0.10656000  1
  Te  Te1  1  0.25000000  0.42404900  0.64322900  1
  Te  Te2  1  0.75000000  0.36426300  0.76640500  1
  Te  Te3  1  0.75000000  0.24914600  0.00558900  1
  Te  Te4  1  0.75000000  0.57595100  0.35677100  1
  Te  Te5  1  0.75000000  0.92404900  0.85677100  1
  Te  Te6  1  0.75000000  0.13573700  0.26640500  1
  Te  Te7  1  0.25000000  0.11193600  0.39344000  1
  Te  Te8  1  0.25000000  0.38806400  0.89344000  1
  Te  Te9  1  0.25000000  0.86426300  0.73359500  1
  Te  Te10  1  0.25000000  0.74914600  0.49441100  1
  Te  Te11  1  0.25000000  0.63573700  0.23359500  1
  Te  Te12  1  0.25000000  0.75085400  0.99441100  1
  Te  Te13  1  0.25000000  0.07595100  0.14322900  1
  Te  Te14  1  0.75000000  0.25085400  0.50558900  1
  Te  Te15  1  0.75000000  0.88806400  0.60656000  1
loop_
_geom_bond_atom_site_label_1
_geom_bond_atom_site_label_2
_geom_bond_distance
_geom_bond_site_symmetry_2
Mn0 Te6 2.884185 1_555
Mn0 Te6 2.884185 1_455
Mn0 Te7 2.886401 1_555
Mn0 Te11 2.911441 1_555
Mn0 Te4 2.961102 1_455
Mn0 Te4 2.961102 1_555
Mn1 Te11 2.884185 1_555
Mn1 Te11 2.884185 1_655
Mn1 Te0 2.886401 1_555
Mn1 Te6 2.911441 1_565
Mn1 Te13 2.961102 1_665
Mn1 Te13 2.961102 1_565
Mn2 Te9 2.884185 1_655
Mn2 Te9 2.884185 1_555
Mn2 Te15 2.886401 1_555
Mn2 Te2 2.911441 1_555
Mn2 Te1 2.961102 1_555
Mn2 Te1 2.961102 1_655
Mn3 Te2 2.884185 1_455
Mn3 Te2 2.884185 1_555
Mn3 Te8 2.886401 1_555
Mn3 Te9 2.911441 1_545
Mn3 Te5 2.961102 1_445
Mn3 Te5 2.961102 1_545
Ga0 Te6 2.654822 1_565
Ga0 Te4 2.681544 1_555
Ga0 Te7 2.691313 1_665
Ga0 Te7 2.691313 1_565
Ga1 Te13 2.675260 1_555
Ga1 Te12 2.713220 1_544
Ga1 Te3 2.719890 1_555
Ga1 Te3 2.719890 1_455
Ga2 Te11 2.654822 1_555
Ga2 Te13 2.681544 1_555
Ga2 Te0 2.691313 1_555
Ga2 Te0 2.691313 1_455
Ga3 Te9 2.654822 1_545
Ga3 Te1 2.681544 1_555
Ga3 Te15 2.691313 1_445
Ga3 Te15 2.691313 1_545
Ga4 Te1 2.675260 1_555
Ga4 Te10 2.713220 1_555
Ga4 Te14 2.719890 1_555
Ga4 Te14 2.719890 1_455
Ga5 Te4 2.675260 1_555
Ga5 Te14 2.713220 1_555
Ga5 Te10 2.719890 1_655
Ga5 Te10 2.719890 1_555
Ga6 Te2 2.654822 1_555
Ga6 Te5 2.681544 1_555
Ga6 Te8 2.691313 1_655
Ga6 Te8 2.691313 1_555
Ga7 Te5 2.675260 1_555
Ga7 Te3 2.713220 1_566
Ga7 Te12 2.719890 1_655
Ga7 Te12 2.719890 1_555
