# generated using pymatgen
data_MgH16C4S4N2(O4F3)4
_symmetry_space_group_name_H-M   'P 1'
_cell_length_a   16.26985700
_cell_length_b   7.43584200
_cell_length_c   14.68634431
_cell_angle_alpha   67.98617041
_cell_angle_beta   90.00000000
_cell_angle_gamma   90.00000000
_symmetry_Int_Tables_number   1
_chemical_formula_structural   MgH16C4S4N2(O4F3)4
_chemical_formula_sum   'Mg2 H32 C8 S8 N4 O32 F24'
_cell_volume   1647.21803188
_cell_formula_units_Z   2
loop_
 _symmetry_equiv_pos_site_id
 _symmetry_equiv_pos_as_xyz
  1  'x, y, z'
loop_
 _atom_site_type_symbol
 _atom_site_label
 _atom_site_symmetry_multiplicity
 _atom_site_fract_x
 _atom_site_fract_y
 _atom_site_fract_z
 _atom_site_occupancy
  Mg  Mg0  1  0.00000000  0.00000000  0.00000000  1
  Mg  Mg1  1  0.50000000  0.00000000  0.50000000  1
  H  H0  1  0.96671000  0.99154500  0.74886100  1
  H  H1  1  0.77250600  0.49035100  0.30349100  1
  H  H2  1  0.83590200  0.49644500  0.62486700  1
  H  H3  1  0.53329000  0.99154500  0.24886100  1
  H  H4  1  0.40061000  0.89196400  0.66109000  1
  H  H5  1  0.16409800  0.50355500  0.37513300  1
  H  H6  1  0.86160700  0.90403700  0.86339900  1
  H  H7  1  0.22749400  0.50964900  0.69650900  1
  H  H8  1  0.59939000  0.10803600  0.33891000  1
  H  H9  1  0.68914600  0.40809500  0.35449900  1
  H  H10  1  0.18914600  0.59190500  0.14550100  1
  H  H11  1  0.16090900  0.76886700  0.78893500  1
  H  H12  1  0.46671000  0.00845500  0.75113900  1
  H  H13  1  0.13839300  0.09596300  0.13660100  1
  H  H14  1  0.27250600  0.50964900  0.19650900  1
  H  H15  1  0.90061000  0.10803600  0.83891000  1
  H  H16  1  0.21259600  0.94152700  0.40048400  1
  H  H17  1  0.66090900  0.23113300  0.71106500  1
  H  H18  1  0.78740400  0.05847300  0.59951600  1
  H  H19  1  0.72749400  0.49035100  0.80349100  1
  H  H20  1  0.03329000  0.00845500  0.25113900  1
  H  H21  1  0.33590200  0.50355500  0.87513300  1
  H  H22  1  0.71259600  0.05847300  0.09951600  1
  H  H23  1  0.31085400  0.59190500  0.64550100  1
  H  H24  1  0.66409800  0.49644500  0.12486700  1
  H  H25  1  0.83909100  0.23113300  0.21106500  1
  H  H26  1  0.36160700  0.09596300  0.63660100  1
  H  H27  1  0.09939000  0.89196400  0.16109000  1
  H  H28  1  0.33909100  0.76886700  0.28893500  1
  H  H29  1  0.28740400  0.94152700  0.90048400  1
  H  H30  1  0.81085400  0.40809500  0.85449900  1
  H  H31  1  0.63839300  0.90403700  0.36339900  1
  C  C0  1  0.11221000  0.46054000  0.42620700  1
  C  C1  1  0.35850900  0.86330400  0.15135200  1
  C  C2  1  0.14149100  0.86330400  0.65135200  1
  C  C3  1  0.64149100  0.13669600  0.84864800  1
  C  C4  1  0.61221000  0.53946000  0.07379300  1
  C  C5  1  0.88779000  0.53946000  0.57379300  1
  C  C6  1  0.85850900  0.13669600  0.34864800  1
  C  C7  1  0.38779000  0.46054000  0.92620700  1
  S  S0  1  0.34978100  0.28089500  0.41854000  1
  S  S1  1  0.25196800  0.99598400  0.31383700  1
  S  S2  1  0.65021900  0.71910500  0.58146000  1
  S  S3  1  0.15021900  0.28089500  0.91854000  1
  S  S4  1  0.75196800  0.00401600  0.18616300  1
  S  S5  1  0.74803200  0.00401600  0.68616300  1
  S  S6  1  0.84978100  0.71910500  0.08146000  1
  S  S7  1  0.24803200  0.99598400  0.81383700  1
  N  N0  1  0.19838700  0.78042300  0.84830100  1
  N  N1  1  0.80161300  0.21957700  0.15169900  1
  N  N2  1  0.30161300  0.78042300  0.34830100  1
  N  N3  1  0.69838700  0.21957700  0.65169900  1
  O  O0  1  0.75172300  0.38230200  0.85762000  1
  O  O1  1  0.97108100  0.39154400  0.78914300  1
  O  O2  1  0.41434100  0.02839100  0.64798100  1
  O  O3  1  0.24827700  0.61769800  0.14238000  1
  O  O4  1  0.72763000  0.73078600  0.63772000  1
  O  O5  1  0.40327100  0.44653800  0.36041900  1
  O  O6  1  0.90327100  0.55346200  0.13958100  1
  O  O7  1  0.93011700  0.31121200  0.86906200  1
  O  O8  1  0.30449100  0.66191900  0.43377700  1
  O  O9  1  0.22763000  0.26921400  0.86228000  1
  O  O10  1  0.27237000  0.26921400  0.36228000  1
  O  O11  1  0.77237000  0.73078600  0.13772000  1
  O  O12  1  0.25172300  0.61769800  0.64238000  1
  O  O13  1  0.59672900  0.55346200  0.63958100  1
  O  O14  1  0.91434100  0.97160900  0.85201900  1
  O  O15  1  0.02891900  0.60845600  0.21085700  1
  O  O16  1  0.10188600  0.08872400  0.93397300  1
  O  O17  1  0.69550900  0.33808100  0.56622300  1
  O  O18  1  0.39811400  0.08872400  0.43397300  1
  O  O19  1  0.74827700  0.38230200  0.35762000  1
  O  O20  1  0.60188600  0.91127600  0.56602700  1
  O  O21  1  0.56988300  0.31121200  0.36906200  1
  O  O22  1  0.19550900  0.66191900  0.93377700  1
  O  O23  1  0.52891900  0.39154400  0.28914300  1
  O  O24  1  0.89811400  0.91127600  0.06602700  1
  O  O25  1  0.08565900  0.02839100  0.14798100  1
  O  O26  1  0.09672900  0.44653800  0.86041900  1
  O  O27  1  0.43011700  0.68878800  0.63093800  1
  O  O28  1  0.06988300  0.68878800  0.13093800  1
  O  O29  1  0.47108100  0.60845600  0.71085700  1
  O  O30  1  0.58565900  0.97160900  0.35201900  1
  O  O31  1  0.80449100  0.33808100  0.06622300  1
  F  F0  1  0.44442500  0.60453900  0.90469700  1
  F  F1  1  0.00638100  0.00416800  0.69816300  1
  F  F2  1  0.42405300  0.29990000  0.92139500  1
  F  F3  1  0.86203700  0.57995000  0.48046800  1
  F  F4  1  0.32063100  0.02923500  0.09994100  1
  F  F5  1  0.92405300  0.70010000  0.57860500  1
  F  F6  1  0.67936900  0.97076500  0.90005900  1
  F  F7  1  0.50638100  0.99583200  0.80183700  1
  F  F8  1  0.36203700  0.42005000  0.01953200  1
  F  F9  1  0.55557500  0.39546100  0.09530300  1
  F  F10  1  0.99361900  0.99583200  0.30183700  1
  F  F11  1  0.94442500  0.39546100  0.59530300  1
  F  F12  1  0.09905500  0.81753300  0.58760800  1
  F  F13  1  0.90094500  0.18246700  0.41239200  1
  F  F14  1  0.57594700  0.70010000  0.07860500  1
  F  F15  1  0.82063100  0.97076500  0.40005900  1
  F  F16  1  0.17936900  0.02923500  0.59994100  1
  F  F17  1  0.49361900  0.00416800  0.19816300  1
  F  F18  1  0.05557500  0.60453900  0.40469700  1
  F  F19  1  0.63796300  0.57995000  0.98046800  1
  F  F20  1  0.59905500  0.18246700  0.91239200  1
  F  F21  1  0.13796300  0.42005000  0.51953200  1
  F  F22  1  0.40094500  0.81753300  0.08760800  1
  F  F23  1  0.07594700  0.29990000  0.42139500  1
loop_
_geom_bond_atom_site_label_1
_geom_bond_atom_site_label_2
_geom_bond_distance
_geom_bond_site_symmetry_2
Mg0 O16 1.908885 1_554
Mg0 O24 1.908885 1_445
Mg1 O20 1.908885 1_545
Mg1 O18 1.908885 1_555
H1 O19 0.976757 1_555
H4 O2 0.984718 1_565
H6 O14 0.976504 1_555
H7 O12 0.976757 1_555
H8 O30 0.984718 1_545
H9 O19 0.978693 1_555
H10 O3 0.978693 1_555
H11 N0 1.093395 1_555
H13 O25 0.976504 1_555
H14 O3 0.976757 1_555
H15 O14 0.984718 1_545
H16 S1 1.344375 1_555
H17 N3 1.093395 1_555
H18 S5 1.344375 1_555
H19 O0 0.976757 1_555
H22 S4 1.344375 1_555
H23 O12 0.978693 1_555
H25 N1 1.093395 1_555
H26 O2 0.976504 1_555
H27 O25 0.984718 1_565
H28 N2 1.093395 1_555
H29 S7 1.344375 1_555
H30 O0 0.978693 1_555
H31 O30 0.976504 1_555
C0 H5 1.094429 1_555
C0 F21 1.354772 1_555
C0 F18 1.357126 1_555
C0 F23 1.357640 1_555
C1 F22 1.306825 1_555
C1 F4 1.331858 1_565
C2 F12 1.306825 1_555
C2 F16 1.331858 1_565
C3 F20 1.306825 1_555
C3 F6 1.331858 1_545
C4 H24 1.094429 1_555
C4 F19 1.354772 1_554
C4 F9 1.357126 1_555
C4 F14 1.357640 1_555
C5 H2 1.094429 1_555
C5 F3 1.354772 1_555
C5 F11 1.357126 1_555
C5 F5 1.357640 1_555
C6 F13 1.306825 1_555
C6 F15 1.331858 1_545
C7 H21 1.094429 1_555
C7 F8 1.354772 1_556
C7 F0 1.357126 1_555
C7 F2 1.357640 1_555
N0 O22 1.235017 1_555
N0 S7 1.693993 1_555
N1 O31 1.235017 1_555
N1 S4 1.693993 1_555
N2 O8 1.235017 1_555
N2 S1 1.693993 1_555
N3 O17 1.235017 1_555
N3 S5 1.693993 1_555
O1 O7 1.285701 1_555
O4 S2 1.526530 1_555
O5 S0 1.488253 1_555
O6 S6 1.488253 1_555
O9 S3 1.526530 1_555
O10 S0 1.526530 1_555
O11 S6 1.526530 1_555
O13 S2 1.488253 1_555
O15 O28 1.285701 1_555
O16 S3 1.571261 1_555
O18 S0 1.571261 1_555
O20 S2 1.571261 1_555
O21 O23 1.285701 1_555
O24 S6 1.571261 1_555
O26 S3 1.488253 1_555
O27 O29 1.285701 1_555
F1 H0 0.963014 1_445
F7 H12 0.963014 1_565
F10 H20 0.963014 1_665
F17 H3 0.963014 1_545
