# generated using pymatgen
data_MoO2
_symmetry_space_group_name_H-M   'P 1'
_cell_length_a   6.23180100
_cell_length_b   6.24051193
_cell_length_c   6.39065079
_cell_angle_alpha   118.26972041
_cell_angle_beta   117.96172761
_cell_angle_gamma   91.42424315
_symmetry_Int_Tables_number   1
_chemical_formula_structural   MoO2
_chemical_formula_sum   'Mo4 O8'
_cell_volume   183.33605857
_cell_formula_units_Z   4
loop_
 _symmetry_equiv_pos_site_id
 _symmetry_equiv_pos_as_xyz
  1  'x, y, z'
loop_
 _atom_site_type_symbol
 _atom_site_label
 _atom_site_symmetry_multiplicity
 _atom_site_fract_x
 _atom_site_fract_y
 _atom_site_fract_z
 _atom_site_occupancy
  Mo  Mo0  1  0.50000000  0.50000000  0.00000000  1
  Mo  Mo1  1  0.50000000  0.50000000  0.50000000  1
  Mo  Mo2  1  0.00000000  0.50000000  0.50000000  1
  Mo  Mo3  1  0.50000000  0.00000000  0.00000000  1
  O  O0  1  0.73115900  0.68969800  0.45108900  1
  O  O1  1  0.72149000  0.25973400  0.44906100  1
  O  O2  1  0.26884100  0.31030200  0.54891100  1
  O  O3  1  0.26359100  0.72126800  0.95223600  1
  O  O4  1  0.27851000  0.74026600  0.55093900  1
  O  O5  1  0.68964000  0.73006400  0.94858100  1
  O  O6  1  0.73640900  0.27873200  0.04776400  1
  O  O7  1  0.31036000  0.26993600  0.05141900  1
loop_
_geom_bond_atom_site_label_1
_geom_bond_atom_site_label_2
_geom_bond_distance
_geom_bond_site_symmetry_2
Mo0 O6 2.061309 1_555
Mo0 O3 2.061309 1_554
Mo0 O5 2.071865 1_554
Mo0 O7 2.071865 1_555
Mo0 O0 2.138967 1_555
Mo0 O2 2.138967 1_554
Mo1 O2 2.064521 1_555
Mo1 O0 2.064521 1_555
Mo1 O4 2.078747 1_555
Mo1 O1 2.078747 1_555
Mo1 O7 2.125083 1_555
Mo1 O5 2.125083 1_555
Mo2 O4 2.060326 1_555
Mo2 O1 2.060326 1_455
Mo2 O0 2.064939 1_455
Mo2 O2 2.064939 1_555
Mo2 O3 2.147718 1_555
Mo2 O6 2.147718 1_455
Mo3 O6 2.058453 1_555
Mo3 O3 2.058453 1_544
Mo3 O7 2.069080 1_555
Mo3 O5 2.069080 1_544
Mo3 O1 2.129818 1_555
Mo3 O4 2.129818 1_544
