# generated using pymatgen
data_CaHClO
_symmetry_space_group_name_H-M   'P 1'
_cell_length_a   3.86983755
_cell_length_b   3.86983755
_cell_length_c   9.80982907
_cell_angle_alpha   90.00000000
_cell_angle_beta   90.00000000
_cell_angle_gamma   120.00000150
_symmetry_Int_Tables_number   1
_chemical_formula_structural   CaHClO
_chemical_formula_sum   'Ca2 H2 Cl2 O2'
_cell_volume   127.22648640
_cell_formula_units_Z   2
loop_
 _symmetry_equiv_pos_site_id
 _symmetry_equiv_pos_as_xyz
  1  'x, y, z'
loop_
 _atom_site_type_symbol
 _atom_site_label
 _atom_site_symmetry_multiplicity
 _atom_site_fract_x
 _atom_site_fract_y
 _atom_site_fract_z
 _atom_site_occupancy
  Ca  Ca0  1  0.66666700  0.33333300  0.50007235  1
  Ca  Ca1  1  0.33333300  0.66666700  0.00007235  1
  H  H0  1  0.00000000  0.00000000  0.66693797  1
  H  H1  1  0.00000000  0.00000000  0.16693797  1
  Cl  Cl0  1  0.66666700  0.33333300  0.81666600  1
  Cl  Cl1  1  0.33333300  0.66666700  0.31666600  1
  O  O0  1  0.00000000  -0.00000000  0.56812268  1
  O  O1  1  -0.00000000  0.00000000  0.06812268  1
loop_
_geom_bond_atom_site_label_1
_geom_bond_atom_site_label_2
_geom_bond_distance
_geom_bond_site_symmetry_2
Ca0 O0 2.331847 1_655
Ca0 O0 2.331850 1_555
Ca0 O0 2.331850 1_665
Ca0 Cl1 2.868612 1_545
Ca0 Cl1 2.868612 1_655
Ca0 Cl1 2.868618 1_555
Ca0 Cl0 3.105730 1_555
Ca1 O1 2.331847 1_565
Ca1 O1 2.331850 1_555
Ca1 O1 2.331850 1_665
Ca1 Cl0 2.868612 1_454
Ca1 Cl0 2.868612 1_564
Ca1 Cl0 2.868618 1_554
Ca1 Cl1 3.105730 1_555
H0 O0 0.969361 1_555
H1 O1 0.969361 1_555
