# generated using pymatgen
data_CaZn(SiO3)2
_symmetry_space_group_name_H-M   'P 1'
_cell_length_a   6.74657432
_cell_length_b   6.74657432
_cell_length_c   5.32473472
_cell_angle_alpha   78.02277596
_cell_angle_beta   78.02277596
_cell_angle_gamma   84.79787998
_symmetry_Int_Tables_number   1
_chemical_formula_structural   CaZn(SiO3)2
_chemical_formula_sum   'Ca2 Zn2 Si4 O12'
_cell_volume   231.63739223
_cell_formula_units_Z   2
loop_
 _symmetry_equiv_pos_site_id
 _symmetry_equiv_pos_as_xyz
  1  'x, y, z'
loop_
 _atom_site_type_symbol
 _atom_site_label
 _atom_site_symmetry_multiplicity
 _atom_site_fract_x
 _atom_site_fract_y
 _atom_site_fract_z
 _atom_site_occupancy
  Ca  Ca0  1  0.70271800  0.29728200  0.25000000  1
  Ca  Ca1  1  0.29728200  0.70271800  0.75000000  1
  Zn  Zn0  1  0.09600300  0.90399700  0.25000000  1
  Zn  Zn1  1  0.90399700  0.09600300  0.75000000  1
  Si  Si0  1  0.80590400  0.62164200  0.73066200  1
  Si  Si1  1  0.37835800  0.19409600  0.76933800  1
  Si  Si2  1  0.19409600  0.37835800  0.26933800  1
  Si  Si3  1  0.62164200  0.80590400  0.23066200  1
  O  O0  1  0.66862900  0.63365500  0.49714300  1
  O  O1  1  0.36634500  0.33137100  0.00285700  1
  O  O2  1  0.33137100  0.36634500  0.50285700  1
  O  O3  1  0.63365500  0.66862900  0.99714300  1
  O  O4  1  0.88570200  0.39178200  0.82337300  1
  O  O5  1  0.60821800  0.11429800  0.67662700  1
  O  O6  1  0.11429800  0.60821800  0.17662700  1
  O  O7  1  0.39178200  0.88570200  0.32337300  1
  O  O8  1  0.79412500  0.97311400  0.14386800  1
  O  O9  1  0.02688600  0.20587500  0.35613200  1
  O  O10  1  0.20587500  0.02688600  0.85613200  1
  O  O11  1  0.97311400  0.79412500  0.64386800  1
loop_
_geom_bond_atom_site_label_1
_geom_bond_atom_site_label_2
_geom_bond_distance
_geom_bond_site_symmetry_2
Ca0 O5 2.338516 1_555
Ca0 O4 2.338516 1_554
Ca0 O8 2.367803 1_545
Ca0 O9 2.367803 1_655
Ca0 O2 2.637270 1_555
Ca0 O3 2.637270 1_554
Ca0 O0 2.820272 1_555
Ca0 O1 2.820272 1_555
Ca1 O6 2.338516 1_556
Ca1 O7 2.338516 1_555
Ca1 O11 2.367803 1_455
Ca1 O10 2.367803 1_565
Ca1 O1 2.637270 1_556
Ca1 O0 2.637270 1_555
Ca1 O2 2.820272 1_555
Ca1 O3 2.820272 1_555
O0 Si0 1.683130 1_555
O0 Si3 1.702892 1_555
O1 Si1 1.683130 1_554
O1 Si2 1.702892 1_555
O2 Si2 1.683130 1_555
O2 Si1 1.702892 1_555
O3 Si3 1.683130 1_556
O3 Si0 1.702892 1_555
O4 Si0 1.606109 1_555
O4 Zn1 2.099709 1_555
O5 Si1 1.606109 1_555
O5 Zn1 2.099709 1_555
O6 Si2 1.606109 1_555
O6 Zn0 2.099709 1_555
O7 Si3 1.606109 1_555
O7 Zn0 2.099709 1_555
O8 Si3 1.624427 1_555
O8 Zn1 2.092799 1_564
O8 Zn0 2.209260 1_655
O9 Si2 1.624427 1_555
O9 Zn1 2.092799 1_455
O9 Zn0 2.209260 1_545
O10 Si1 1.624427 1_555
O10 Zn0 2.092799 1_546
O10 Zn1 2.209260 1_455
O11 Si0 1.624427 1_555
O11 Zn0 2.092799 1_655
O11 Zn1 2.209260 1_565
