# generated using pymatgen
data_La3AgGeS7
_symmetry_space_group_name_H-M   'P 1'
_cell_length_a   10.52249253
_cell_length_b   10.52249253
_cell_length_c   5.89843500
_cell_angle_alpha   90.00000000
_cell_angle_beta   90.00000000
_cell_angle_gamma   120.00000336
_symmetry_Int_Tables_number   1
_chemical_formula_structural   La3AgGeS7
_chemical_formula_sum   'La6 Ag2 Ge2 S14'
_cell_volume   565.59383564
_cell_formula_units_Z   2
loop_
 _symmetry_equiv_pos_site_id
 _symmetry_equiv_pos_as_xyz
  1  'x, y, z'
loop_
 _atom_site_type_symbol
 _atom_site_label
 _atom_site_symmetry_multiplicity
 _atom_site_fract_x
 _atom_site_fract_y
 _atom_site_fract_z
 _atom_site_occupancy
  La  La0  1  0.87557500  0.64096100  0.95666600  1
  La  La1  1  0.23461300  0.87557500  0.45666600  1
  La  La2  1  0.64096100  0.76538700  0.45666600  1
  La  La3  1  0.76538700  0.12442500  0.95666600  1
  La  La4  1  0.35903900  0.23461300  0.95666600  1
  La  La5  1  0.12442500  0.35903900  0.45666600  1
  Ag  Ag0  1  0.00000000  0.00000000  0.39861900  1
  Ag  Ag1  1  0.00000000  0.00000000  0.89861900  1
  Ge  Ge0  1  0.66666700  0.33333300  0.54077200  1
  Ge  Ge1  1  0.33333300  0.66666700  0.04077200  1
  S  S0  1  0.33333300  0.66666700  0.66611700  1
  S  S1  1  0.66666700  0.33333300  0.16611700  1
  S  S2  1  0.26554100  0.17435500  0.44271300  1
  S  S3  1  0.52191800  0.10936900  0.69128400  1
  S  S4  1  0.58745200  0.47808200  0.69128400  1
  S  S5  1  0.47808200  0.89063100  0.19128400  1
  S  S6  1  0.73445900  0.82564500  0.94271300  1
  S  S7  1  0.09118500  0.26554100  0.94271300  1
  S  S8  1  0.89063100  0.41254800  0.69128400  1
  S  S9  1  0.17435500  0.90881500  0.94271300  1
  S  S10  1  0.41254800  0.52191800  0.19128400  1
  S  S11  1  0.90881500  0.73445900  0.44271300  1
  S  S12  1  0.82564500  0.09118500  0.44271300  1
  S  S13  1  0.10936900  0.58745200  0.19128400  1
loop_
_geom_bond_atom_site_label_1
_geom_bond_atom_site_label_2
_geom_bond_distance
_geom_bond_site_symmetry_2
La0 S8 2.938170 1_555
La0 S6 2.978905 1_555
La0 S11 2.994221 1_556
La0 S9 2.995623 1_655
La0 S4 3.063205 1_555
La0 S13 3.109561 1_656
La0 S1 3.117863 1_556
La0 S11 3.152182 1_555
La1 S5 2.938170 1_555
La1 S11 2.978886 1_455
La1 S9 2.994221 1_555
La1 S2 2.995614 1_565
La1 S13 3.063205 1_555
La1 S3 3.109573 1_565
La1 S0 3.117863 1_555
La1 S9 3.152182 1_554
La2 S10 2.938170 1_555
La2 S12 2.978888 1_565
La2 S6 2.994221 1_555
La2 S11 2.995635 1_555
La2 S5 3.063205 1_555
La2 S4 3.109579 1_555
La2 S0 3.117863 1_555
La2 S6 3.152182 1_554
La3 S3 2.938170 1_555
La3 S7 2.978886 1_655
La3 S12 2.994221 1_556
La3 S6 2.995614 1_545
La3 S8 3.063205 1_555
La3 S5 3.109573 1_546
La3 S1 3.117863 1_556
La3 S12 3.152182 1_555
La4 S4 2.938170 1_555
La4 S9 2.978888 1_545
La4 S2 2.994221 1_556
La4 S7 2.995635 1_555
La4 S3 3.063205 1_555
La4 S10 3.109579 1_556
La4 S1 3.117863 1_556
La4 S2 3.152182 1_555
La5 S13 2.938170 1_555
La5 S2 2.978905 1_555
La5 S7 2.994221 1_555
La5 S12 2.995623 1_455
La5 S10 3.063205 1_555
La5 S8 3.109561 1_455
La5 S0 3.117863 1_555
La5 S7 3.152182 1_554
Ag0 S12 2.472760 1_455
Ag0 S2 2.472768 1_555
Ag0 S11 2.472770 1_445
Ag1 S9 2.472760 1_545
Ag1 S6 2.472768 1_445
Ag1 S7 2.472770 1_555
Ge0 S1 2.209878 1_555
Ge0 S3 2.252205 1_555
Ge0 S8 2.252205 1_555
Ge0 S4 2.252205 1_555
Ge1 S0 2.209878 1_554
Ge1 S5 2.252205 1_555
Ge1 S13 2.252205 1_555
Ge1 S10 2.252205 1_555
