# generated using pymatgen
data_Ce(FeP)2
_symmetry_space_group_name_H-M   'P 1'
_cell_length_a   3.78284406
_cell_length_b   3.78284511
_cell_length_c   5.81339204
_cell_angle_alpha   108.98713343
_cell_angle_beta   108.98714490
_cell_angle_gamma   89.99999217
_symmetry_Int_Tables_number   1
_chemical_formula_structural   Ce(FeP)2
_chemical_formula_sum   'Ce1 Fe2 P2'
_cell_volume   73.85991730
_cell_formula_units_Z   1
loop_
 _symmetry_equiv_pos_site_id
 _symmetry_equiv_pos_as_xyz
  1  'x, y, z'
loop_
 _atom_site_type_symbol
 _atom_site_label
 _atom_site_symmetry_multiplicity
 _atom_site_fract_x
 _atom_site_fract_y
 _atom_site_fract_z
 _atom_site_occupancy
  Ce  Ce0  1  -0.00000000  -0.00000000  -0.00000000  1
  Fe  Fe0  1  0.25000000  0.75000000  0.50000000  1
  Fe  Fe1  1  0.75000000  0.25000000  0.50000000  1
  P  P0  1  0.64555588  0.64555588  0.29111176  1
  P  P1  1  0.35444412  0.35444412  0.70888824  1
loop_
_geom_bond_atom_site_label_1
_geom_bond_atom_site_label_2
_geom_bond_distance
_geom_bond_site_symmetry_2
Ce0 P1 3.068002 1_454
Ce0 P0 3.068002 1_545
Ce0 P0 3.068002 1_445
Ce0 P1 3.068002 1_554
Ce0 P1 3.068003 1_544
Ce0 P0 3.068003 1_455
Ce0 P0 3.068003 1_555
Ce0 P1 3.068003 1_444
Ce0 Fe1 3.199628 1_454
Ce0 Fe0 3.199628 1_545
Ce0 Fe0 3.199628 1_544
Ce0 Fe1 3.199628 1_455
Ce0 Fe1 3.199628 1_555
Ce0 Fe0 3.199628 1_444
Ce0 Fe1 3.199629 1_444
Ce0 Fe0 3.199629 1_555
Fe0 P0 2.177136 1_555
Fe0 P0 2.177136 1_455
Fe0 P1 2.177136 1_555
Fe0 P1 2.177137 1_565
Fe1 P1 2.177136 1_555
Fe1 P1 2.177136 1_655
Fe1 P0 2.177136 1_555
Fe1 P0 2.177137 1_545
