# generated using pymatgen
data_ZrSe
_symmetry_space_group_name_H-M   'P 1'
_cell_length_a   5.25085100
_cell_length_b   5.42770063
_cell_length_c   27.71260212
_cell_angle_alpha   87.96966874
_cell_angle_beta   89.82840766
_cell_angle_gamma   89.94354555
_symmetry_Int_Tables_number   1
_chemical_formula_structural   ZrSe
_chemical_formula_sum   'Zr16 Se16'
_cell_volume   789.31079248
_cell_formula_units_Z   16
loop_
 _symmetry_equiv_pos_site_id
 _symmetry_equiv_pos_as_xyz
  1  'x, y, z'
loop_
 _atom_site_type_symbol
 _atom_site_label
 _atom_site_symmetry_multiplicity
 _atom_site_fract_x
 _atom_site_fract_y
 _atom_site_fract_z
 _atom_site_occupancy
  Zr  Zr0  1  0.50135500  0.10314700  0.29137200  1
  Zr  Zr1  1  0.49930400  0.96949600  0.50723800  1
  Zr  Zr2  1  0.49511200  0.98040800  0.71950800  1
  Zr  Zr3  1  0.49836200  0.53043700  0.99989600  1
  Zr  Zr4  1  0.50404400  0.44130900  0.19833300  1
  Zr  Zr5  1  0.99984400  0.49628600  0.10138800  1
  Zr  Zr6  1  0.50019600  0.45902600  0.37810000  1
  Zr  Zr7  1  0.99713800  0.47247400  0.29734200  1
  Zr  Zr8  1  0.99806000  0.48125700  0.50453200  1
  Zr  Zr9  1  0.50141400  0.52322100  0.57800400  1
  Zr  Zr10  1  0.48496900  0.55156900  0.79397000  1
  Zr  Zr11  1  0.00362900  0.52411600  0.71825500  1
  Zr  Zr12  1  0.01797100  0.53287800  0.91084500  1
  Zr  Zr13  1  0.00012600  0.02931700  0.57872800  1
  Zr  Zr14  1  0.49255900  0.92152400  0.91741400  1
  Zr  Zr15  1  0.00762300  0.93269300  0.82596300  1
  Se  Se0  1  0.50062900  0.01605600  0.60692900  1
  Se  Se1  1  0.99893900  0.45650500  0.00772400  1
  Se  Se2  1  0.49990000  0.50571600  0.09970700  1
  Se  Se3  1  0.00337900  0.54230900  0.19595400  1
  Se  Se4  1  0.49667700  0.59719600  0.28668100  1
  Se  Se5  1  0.99942400  0.50741000  0.39428800  1
  Se  Se6  1  0.49849200  0.48348000  0.47691700  1
  Se  Se7  1  0.00097300  0.52040700  0.60817900  1
  Se  Se8  1  0.50267400  0.49327900  0.69391600  1
  Se  Se9  1  0.98504900  0.44279100  0.81308700  1
  Se  Se10  1  0.51548600  0.43153600  0.90302800  1
  Se  Se11  1  0.00176300  0.99530100  0.28557700  1
  Se  Se12  1  0.99907100  0.98881100  0.47878000  1
  Se  Se13  1  0.99729100  0.01711800  0.68871600  1
  Se  Se14  1  0.50507200  0.03673800  0.81578400  1
  Se  Se15  1  0.99347600  0.01619000  0.92384500  1
loop_
_geom_bond_atom_site_label_1
_geom_bond_atom_site_label_2
_geom_bond_distance
_geom_bond_site_symmetry_2
Se0 Zr13 2.734788 1_655
Se0 Zr13 2.744201 1_555
Se0 Zr1 2.783163 1_545
Se0 Zr9 2.819551 1_545
Se0 Zr9 2.839681 1_555
Se0 Zr2 3.119051 1_545
Se1 Zr5 2.612269 1_555
Se1 Zr3 2.660365 1_654
Se1 Zr3 2.666839 1_554
Se1 Zr12 2.703595 1_654
Se2 Zr5 2.626100 1_555
Se2 Zr5 2.626510 1_455
Se2 Zr4 2.743285 1_555
Se2 Zr3 2.764558 1_554
Se3 Zr5 2.641466 1_455
Se3 Zr4 2.679298 1_455
Se3 Zr4 2.685463 1_555
Se3 Zr7 2.821934 1_455
Se4 Zr6 2.616639 1_555
Se4 Zr4 2.618775 1_555
Se4 Zr0 2.680187 1_555
Se4 Zr7 2.722204 1_455
Se4 Zr7 2.727288 1_555
Se4 Zr0 2.753960 1_565
Se5 Zr6 2.675548 1_555
Se5 Zr6 2.680355 1_655
Se5 Zr7 2.700066 1_555
Se5 Zr8 3.053403 1_555
Se6 Zr8 2.734583 1_455
Se6 Zr8 2.734605 1_555
Se6 Zr6 2.746371 1_555
Se6 Zr1 2.796777 1_555
Se6 Zr9 2.817374 1_555
Se6 Zr1 2.884907 1_545
Se7 Zr9 2.755095 1_555
Se7 Zr9 2.755426 1_455
Se7 Zr13 2.815168 1_555
Se7 Zr13 2.852404 1_565
Se7 Zr8 2.887763 1_455
Se7 Zr11 3.051346 1_555
Se8 Zr11 2.710362 1_555
Se8 Zr11 2.724274 1_655
Se8 Zr2 2.761838 1_555
Se8 Zr10 2.803119 1_555
Se8 Zr2 2.848468 1_545
Se8 Zr9 3.210602 1_555
Se9 Zr11 2.650908 1_655
Se9 Zr15 2.698144 1_655
Se9 Zr10 2.737238 1_655
Se9 Zr10 2.739970 1_555
Se9 Zr12 2.775821 1_655
Se9 Zr15 2.781448 1_645
Se10 Zr12 2.678847 1_555
Se10 Zr14 2.705666 1_555
Se10 Zr12 2.706614 1_655
Se10 Zr3 2.757383 1_555
Se10 Zr14 2.785407 1_545
Se10 Zr10 3.073677 1_555
Se11 Zr7 2.621909 1_465
Se11 Zr0 2.694857 1_565
Se11 Zr0 2.696970 1_465
Se11 Zr7 2.845037 1_455
Se12 Zr1 2.738919 1_555
Se12 Zr1 2.745586 1_655
Se12 Zr13 2.786307 1_665
Se12 Zr8 2.790800 1_565
Se12 Zr8 2.821212 1_555
Se13 Zr2 2.757003 1_645
Se13 Zr11 2.770607 1_645
Se13 Zr2 2.774247 1_545
Se13 Zr11 2.898925 1_655
Se13 Zr13 3.046419 1_655
Se14 Zr15 2.684846 1_545
Se14 Zr2 2.696927 1_545
Se14 Zr15 2.711475 1_645
Se14 Zr10 2.724860 1_545
Se14 Zr10 2.839908 1_555
Se14 Zr14 2.863885 1_545
Se15 Zr12 2.663441 1_645
Se15 Zr14 2.676641 1_645
Se15 Zr14 2.688103 1_545
Se15 Zr15 2.766721 1_645
Se15 Zr12 2.817799 1_655
