# generated using pymatgen
data_Li19Mn5N9
_symmetry_space_group_name_H-M   'P 1'
_cell_length_a   7.45135909
_cell_length_b   7.45135909
_cell_length_c   11.38490682
_cell_angle_alpha   59.33722322
_cell_angle_beta   59.33722322
_cell_angle_gamma   50.85234328
_symmetry_Int_Tables_number   1
_chemical_formula_structural   Li19Mn5N9
_chemical_formula_sum   'Li19 Mn5 N9'
_cell_volume   404.58671281
_cell_formula_units_Z   1
loop_
 _symmetry_equiv_pos_site_id
 _symmetry_equiv_pos_as_xyz
  1  'x, y, z'
loop_
 _atom_site_type_symbol
 _atom_site_label
 _atom_site_symmetry_multiplicity
 _atom_site_fract_x
 _atom_site_fract_y
 _atom_site_fract_z
 _atom_site_occupancy
  Li  Li0  1  0.26387800  0.00229000  0.07460200  1
  Li  Li1  1  0.63478700  0.99977500  0.12180400  1
  Li  Li2  1  0.73922300  0.26393600  0.17166500  1
  Li  Li3  1  0.26727800  0.99115100  0.41786000  1
  Li  Li4  1  0.66679000  0.66610900  0.05299400  1
  Li  Li5  1  0.34153400  0.33345300  0.27288800  1
  Li  Li6  1  0.72027700  0.27972300  0.50000000  1
  Li  Li7  1  0.99928200  0.74031000  0.25344200  1
  Li  Li8  1  0.25969000  0.00071800  0.74655800  1
  Li  Li9  1  0.65710300  0.67362700  0.39127200  1
  Li  Li10  1  0.32637300  0.34289700  0.60872800  1
  Li  Li11  1  0.36574900  0.62703800  0.33395000  1
  Li  Li12  1  0.73606400  0.26077700  0.82833500  1
  Li  Li13  1  0.00884900  0.73272200  0.58214000  1
  Li  Li14  1  0.66654700  0.65846600  0.72711200  1
  Li  Li15  1  0.33389100  0.33321000  0.94700600  1
  Li  Li16  1  0.37296200  0.63425100  0.66605000  1
  Li  Li17  1  0.00022500  0.36521300  0.87819600  1
  Li  Li18  1  0.99771000  0.73612200  0.92539800  1
  Mn  Mn0  1  0.00329500  0.37240700  0.20995400  1
  Mn  Mn1  1  0.63087800  0.99801000  0.45853500  1
  Mn  Mn2  1  0.00199000  0.36912200  0.54146500  1
  Mn  Mn3  1  0.62759300  0.99670500  0.79004600  1
  Mn  Mn4  1  0.35978800  0.64021200  0.00000000  1
  N  N0  1  0.63839000  0.00256600  0.29547600  1
  N  N1  1  0.00065200  0.36563700  0.05464700  1
  N  N2  1  0.36503300  0.63754000  0.15950100  1
  N  N3  1  0.63248900  0.00053900  0.62279500  1
  N  N4  1  0.99946100  0.36751100  0.37720500  1
  N  N5  1  0.36577700  0.63422300  0.50000000  1
  N  N6  1  0.63436300  0.99934800  0.94535200  1
  N  N7  1  0.99743400  0.36161000  0.70452400  1
  N  N8  1  0.36246000  0.63496700  0.84049900  1
loop_
_geom_bond_atom_site_label_1
_geom_bond_atom_site_label_2
_geom_bond_distance
_geom_bond_site_symmetry_2
Li0 N1 2.085887 1_555
Li0 N2 2.089559 1_545
Li0 N6 2.366416 1_544
Li1 N0 2.001854 1_565
Li1 N6 2.012129 1_554
Li2 N0 2.076475 1_555
Li2 N1 2.081108 1_655
Li2 N2 2.396497 1_555
Li3 N5 2.045783 1_555
Li3 N4 2.147822 1_465
Li3 N0 2.416947 1_565
Li4 N2 2.032628 1_555
Li4 N6 2.041231 1_554
Li4 N1 2.043035 1_655
Li5 N0 2.021212 1_555
Li5 N2 2.029337 1_555
Li5 N4 2.091617 1_455
Li6 N3 2.128164 1_555
Li6 N4 2.128164 1_555
Li6 N5 2.268250 1_555
Li7 N0 2.070090 1_565
Li7 N2 2.094037 1_655
Li7 N4 2.388904 1_555
Li8 N7 2.070090 1_455
Li8 N8 2.094037 1_545
Li8 N3 2.388904 1_555
Li9 N5 2.006005 1_555
Li9 N0 2.052693 1_565
Li9 N4 2.084476 1_555
Li10 N5 2.006005 1_555
Li10 N7 2.052693 1_455
Li10 N3 2.084476 1_555
Li11 N5 1.918429 1_555
Li11 N2 1.949986 1_555
Li12 N7 2.076475 1_555
Li12 N6 2.081108 1_545
Li12 N8 2.396497 1_555
Li13 N5 2.045783 1_555
Li13 N3 2.147822 1_465
Li13 N7 2.416947 1_455
Li14 N7 2.021212 1_555
Li14 N8 2.029337 1_555
Li14 N3 2.091617 1_565
Li15 N8 2.032628 1_555
Li15 N1 2.041230 1_556
Li15 N6 2.043035 1_545
Li16 N5 1.918429 1_555
Li16 N8 1.949986 1_555
Li17 N7 2.001854 1_455
Li17 N1 2.012118 1_556
Li18 N6 2.085888 1_555
Li18 N8 2.089559 1_655
Li18 N1 2.366415 1_656
Mn0 N1 1.804732 1_555
Mn0 N4 1.871594 1_455
Mn1 N0 1.811817 1_565
Mn1 N3 1.885960 1_565
Mn2 N7 1.811817 1_455
Mn2 N4 1.885960 1_455
Mn3 N6 1.804720 1_555
Mn3 N3 1.871594 1_565
Mn4 N2 1.825913 1_555
Mn4 N8 1.825913 1_554
