# generated using pymatgen
data_PbWO4
_symmetry_space_group_name_H-M   'P 1'
_cell_length_a   7.18063300
_cell_length_b   7.49582400
_cell_length_c   14.83947451
_cell_angle_alpha   60.01140047
_cell_angle_beta   90.00000000
_cell_angle_gamma   90.00000000
_symmetry_Int_Tables_number   1
_chemical_formula_structural   PbWO4
_chemical_formula_sum   'Pb8 W8 O32'
_cell_volume   691.80093579
_cell_formula_units_Z   8
loop_
 _symmetry_equiv_pos_site_id
 _symmetry_equiv_pos_as_xyz
  1  'x, y, z'
loop_
 _atom_site_type_symbol
 _atom_site_label
 _atom_site_symmetry_multiplicity
 _atom_site_fract_x
 _atom_site_fract_y
 _atom_site_fract_z
 _atom_site_occupancy
  Pb  Pb0  1  0.79683400  0.98485600  0.34601300  1
  Pb  Pb1  1  0.70316600  0.98485600  0.84601300  1
  Pb  Pb2  1  0.20316600  0.01514400  0.65398700  1
  Pb  Pb3  1  0.29683400  0.01514400  0.15398700  1
  Pb  Pb4  1  0.53927700  0.51953400  0.35439900  1
  Pb  Pb5  1  0.96072300  0.51953400  0.85439900  1
  Pb  Pb6  1  0.46072300  0.48046600  0.64560100  1
  Pb  Pb7  1  0.03927700  0.48046600  0.14560100  1
  W  W0  1  0.33269400  0.99757800  0.41875000  1
  W  W1  1  0.16730600  0.99757800  0.91875000  1
  W  W2  1  0.66730600  0.00242200  0.58125000  1
  W  W3  1  0.83269400  0.00242200  0.08125000  1
  W  W4  1  0.04219500  0.43378300  0.41325000  1
  W  W5  1  0.45780500  0.43378300  0.91325000  1
  W  W6  1  0.95780500  0.56621700  0.58675000  1
  W  W7  1  0.54219500  0.56621700  0.08675000  1
  O  O0  1  0.48409200  0.82145800  0.39649200  1
  O  O1  1  0.01590800  0.82145800  0.89649200  1
  O  O2  1  0.51590800  0.17854200  0.60350800  1
  O  O3  1  0.98409200  0.17854200  0.10350800  1
  O  O4  1  0.91571700  0.40989900  0.31257500  1
  O  O5  1  0.58428300  0.40989900  0.81257500  1
  O  O6  1  0.08428300  0.59010100  0.68742500  1
  O  O7  1  0.41571700  0.59010100  0.18742500  1
  O  O8  1  0.85812700  0.58718500  0.44428400  1
  O  O9  1  0.64187300  0.58718500  0.94428400  1
  O  O10  1  0.14187300  0.41281500  0.55571600  1
  O  O11  1  0.35812700  0.41281500  0.05571600  1
  O  O12  1  0.24799300  0.15222600  0.28444700  1
  O  O13  1  0.25200700  0.15222600  0.78444700  1
  O  O14  1  0.75200700  0.84777400  0.71555300  1
  O  O15  1  0.74799300  0.84777400  0.21555300  1
  O  O16  1  0.22990300  0.22278100  0.44893500  1
  O  O17  1  0.27009700  0.22278100  0.94893500  1
  O  O18  1  0.77009700  0.77721900  0.55106500  1
  O  O19  1  0.72990300  0.77721900  0.05106500  1
  O  O20  1  0.19131600  0.64761600  0.33048700  1
  O  O21  1  0.30868400  0.64761600  0.83048700  1
  O  O22  1  0.80868400  0.35238400  0.66951300  1
  O  O23  1  0.69131600  0.35238400  0.16951300  1
  O  O24  1  0.12170800  0.83262500  0.47634900  1
  O  O25  1  0.37829200  0.83262500  0.97634900  1
  O  O26  1  0.87829200  0.16737500  0.52365100  1
  O  O27  1  0.62170800  0.16737500  0.02365100  1
  O  O28  1  0.57671700  0.13940900  0.41858200  1
  O  O29  1  0.92328300  0.13940900  0.91858200  1
  O  O30  1  0.42328300  0.86059100  0.58141800  1
  O  O31  1  0.07671700  0.86059100  0.08141800  1
loop_
_geom_bond_atom_site_label_1
_geom_bond_atom_site_label_2
_geom_bond_distance
_geom_bond_site_symmetry_2
O0 W0 1.862709 1_555
O0 Pb0 2.487410 1_555
O0 Pb4 2.661260 1_555
O1 W1 1.862709 1_555
O1 Pb1 2.487410 1_455
O1 Pb5 2.661260 1_455
O2 W2 1.862709 1_555
O2 Pb2 2.487410 1_555
O2 Pb6 2.661260 1_555
O3 W3 1.862709 1_555
O3 Pb3 2.487410 1_655
O3 Pb7 2.661260 1_655
O4 W4 1.831984 1_655
O4 Pb7 2.428232 1_655
O5 W5 1.831984 1_555
O5 Pb6 2.428232 1_555
O6 W6 1.831984 1_455
O6 Pb5 2.428232 1_455
O7 W7 1.831984 1_555
O7 Pb4 2.428232 1_555
O8 W4 1.952081 1_655
O8 W6 2.162023 1_555
O8 Pb0 2.619244 1_555
O8 Pb4 2.820367 1_555
O9 W5 1.952081 1_555
O9 W7 2.162023 1_556
O9 Pb1 2.619244 1_555
O9 Pb5 2.820367 1_555
O10 W6 1.952081 1_455
O10 W4 2.162023 1_555
O10 Pb2 2.619244 1_555
O10 Pb6 2.820367 1_555
O11 W7 1.952081 1_555
O11 W5 2.162023 1_554
O11 Pb3 2.619244 1_555
O11 Pb7 2.820367 1_555
O12 W0 1.837440 1_545
O12 Pb3 2.629709 1_555
O12 Pb7 2.734480 1_555
O13 W1 1.837440 1_545
O13 Pb2 2.629709 1_555
O13 Pb6 2.734480 1_555
O14 W2 1.837440 1_565
O14 Pb1 2.629709 1_555
O14 Pb5 2.734480 1_555
O15 W3 1.837440 1_565
O15 Pb0 2.629709 1_555
O15 Pb4 2.734480 1_555
O16 W4 1.939448 1_555
O16 W0 2.085891 1_545
O16 Pb2 2.642722 1_555
O17 W5 1.939448 1_555
O17 W1 2.085891 1_545
O17 Pb3 2.642722 1_556
O18 W6 1.939448 1_555
O18 W2 2.085891 1_565
O18 Pb0 2.642722 1_555
O19 W7 1.939448 1_555
O19 W3 2.085891 1_565
O19 Pb1 2.642722 1_554
O20 W4 1.804498 1_555
O20 Pb4 2.636287 1_555
O20 Pb3 2.794748 1_565
O21 W5 1.804498 1_555
O21 Pb5 2.636287 1_455
O21 Pb2 2.794748 1_565
O22 W6 1.804498 1_555
O22 Pb6 2.636287 1_555
O22 Pb1 2.794748 1_545
O23 W7 1.804498 1_555
O23 Pb7 2.636287 1_655
O23 Pb0 2.794748 1_545
O24 W0 1.870344 1_555
O24 W6 2.187808 1_455
O24 Pb0 2.877259 1_455
O25 W1 1.870344 1_555
O25 W7 2.187808 1_556
O25 Pb1 2.877259 1_555
O26 W2 1.870344 1_555
O26 W4 2.187808 1_655
O26 Pb2 2.877259 1_655
O27 W3 1.870344 1_555
O27 W5 2.187808 1_554
O27 Pb3 2.877259 1_555
O28 W0 2.048894 1_545
O28 W2 2.196962 1_555
O28 Pb0 2.499437 1_545
O28 Pb4 2.526918 1_555
O29 W1 2.048894 1_645
O29 W3 2.196962 1_556
O29 Pb1 2.499437 1_545
O29 Pb5 2.526918 1_555
O30 W2 2.048894 1_565
O30 W0 2.196962 1_555
O30 Pb2 2.499437 1_565
O30 Pb6 2.526918 1_555
O31 W3 2.048894 1_465
O31 W1 2.196962 1_554
O31 Pb3 2.499437 1_565
O31 Pb7 2.526918 1_555
