# generated using pymatgen
data_CeAlRu
_symmetry_space_group_name_H-M   'P 1'
_cell_length_a   4.01384570
_cell_length_b   7.43379199
_cell_length_c   15.58292121
_cell_angle_alpha   90.00000000
_cell_angle_beta   90.00000000
_cell_angle_gamma   90.00000000
_symmetry_Int_Tables_number   1
_chemical_formula_structural   CeAlRu
_chemical_formula_sum   'Ce8 Al8 Ru8'
_cell_volume   464.96466807
_cell_formula_units_Z   8
loop_
 _symmetry_equiv_pos_site_id
 _symmetry_equiv_pos_as_xyz
  1  'x, y, z'
loop_
 _atom_site_type_symbol
 _atom_site_label
 _atom_site_symmetry_multiplicity
 _atom_site_fract_x
 _atom_site_fract_y
 _atom_site_fract_z
 _atom_site_occupancy
  Ce  Ce0  1  0.75000000  0.94604647  0.21824348  1
  Ce  Ce1  1  0.25000000  0.17369491  0.56144065  1
  Ce  Ce2  1  0.75000000  0.82629692  0.43857221  1
  Ce  Ce3  1  0.75000000  0.44606003  0.28174707  1
  Ce  Ce4  1  0.75000000  0.32630509  0.06144065  1
  Ce  Ce5  1  0.25000000  0.67370308  0.93857221  1
  Ce  Ce6  1  0.25000000  0.05393997  0.78174707  1
  Ce  Ce7  1  0.25000000  0.55395353  0.71824348  1
  Al  Al0  1  0.75000000  0.50254711  0.56217614  1
  Al  Al1  1  0.75000000  0.36845158  0.84680671  1
  Al  Al2  1  0.75000000  0.00257368  0.93782786  1
  Al  Al3  1  0.75000000  0.86842336  0.65317751  1
  Al  Al4  1  0.25000000  0.49742632  0.43782786  1
  Al  Al5  1  0.25000000  0.99745289  0.06217614  1
  Al  Al6  1  0.25000000  0.63157664  0.15317751  1
  Al  Al7  1  0.25000000  0.13154842  0.34680671  1
  Ru  Ru0  1  0.75000000  0.73001301  0.82672432  1
  Ru  Ru1  1  0.25000000  0.23009163  0.93185633  1
  Ru  Ru2  1  0.75000000  0.26990837  0.43185633  1
  Ru  Ru3  1  0.25000000  0.76998699  0.32672432  1
  Ru  Ru4  1  0.75000000  0.76997515  0.06815784  1
  Ru  Ru5  1  0.75000000  0.23002895  0.67326988  1
  Ru  Ru6  1  0.25000000  0.26997105  0.17326988  1
  Ru  Ru7  1  0.25000000  0.73002485  0.56815784  1
loop_
_geom_bond_atom_site_label_1
_geom_bond_atom_site_label_2
_geom_bond_distance
_geom_bond_site_symmetry_2
Ce0 Ru4 2.680115 1_555
Ce0 Ru3 2.932283 1_655
Ce0 Ru3 2.932283 1_555
Ce0 Ru6 3.212054 1_665
Ce0 Ru6 3.212054 1_565
Ce1 Ru5 2.690698 1_455
Ce1 Ru5 2.690698 1_555
Ce1 Ru2 2.935452 1_555
Ce1 Ru2 2.935452 1_455
Ce1 Ru7 3.299812 1_545
Ce2 Ru3 2.690859 1_655
Ce2 Ru3 2.690859 1_555
Ce2 Ru7 2.935572 1_655
Ce2 Ru7 2.935572 1_555
Ce2 Ru2 3.299375 1_565
Ce3 Ru2 2.680728 1_555
Ce3 Ru6 2.932348 1_655
Ce3 Ru6 2.932348 1_555
Ce3 Ru3 3.212080 1_655
Ce3 Ru3 3.212080 1_555
Ce4 Ru6 2.690698 1_655
Ce4 Ru6 2.690698 1_555
Ce4 Ru1 2.935452 1_654
Ce4 Ru1 2.935452 1_554
Ce4 Ru4 3.299812 1_555
Ce5 Ru0 2.690859 1_455
Ce5 Ru0 2.690859 1_555
Ce5 Ru4 2.935572 1_556
Ce5 Ru4 2.935572 1_456
Ce5 Ru1 3.299375 1_555
Ce6 Ru1 2.680728 1_555
Ce6 Ru5 2.932348 1_555
Ce6 Ru5 2.932348 1_455
Ce6 Ru0 3.212080 1_445
Ce6 Ru0 3.212080 1_545
Ce7 Ru7 2.680115 1_555
Ce7 Ru0 2.932283 1_555
Ce7 Ru0 2.932283 1_455
Ce7 Ru5 3.212054 1_455
Ce7 Ru5 3.212054 1_555
Al0 Ru7 2.626021 1_555
Al0 Ru7 2.626021 1_655
Al0 Ru5 2.664765 1_555
Al0 Ru2 2.667355 1_555
Al0 Ce7 3.176212 1_555
Al0 Ce7 3.176212 1_655
Al1 Ru1 2.615743 1_655
Al1 Ru1 2.615743 1_555
Al1 Ru0 2.705929 1_555
Al1 Ru5 2.893373 1_555
Al1 Ce7 3.153238 1_655
Al1 Ce7 3.153238 1_555
Al1 Ce6 3.243744 1_555
Al1 Ce6 3.243744 1_655
Al2 Ru1 2.626207 1_555
Al2 Ru1 2.626207 1_655
Al2 Ru0 2.665105 1_545
Al2 Ru4 2.667282 1_546
Al2 Ce6 3.176337 1_555
Al2 Ce6 3.176337 1_655
Al3 Ru7 2.615619 1_555
Al3 Ru7 2.615619 1_655
Al3 Ru5 2.706273 1_565
Al3 Ru0 2.893486 1_555
Al3 Ce6 3.153348 1_665
Al3 Ce6 3.153348 1_565
Al3 Ce7 3.243551 1_655
Al3 Ce7 3.243551 1_555
Al4 Ru2 2.626207 1_555
Al4 Ru2 2.626207 1_455
Al4 Ru3 2.665105 1_555
Al4 Ru7 2.667282 1_555
Al4 Ce3 3.176337 1_455
Al4 Ce3 3.176337 1_555
Al5 Ru4 2.626021 1_455
Al5 Ru4 2.626021 1_555
Al5 Ru6 2.664765 1_565
Al5 Ru1 2.667355 1_564
Al5 Ce0 3.176212 1_555
Al5 Ce0 3.176212 1_455
Al6 Ru4 2.615619 1_455
Al6 Ru4 2.615619 1_555
Al6 Ru6 2.706273 1_555
Al6 Ru3 2.893486 1_555
Al6 Ce3 3.153348 1_455
Al6 Ce3 3.153348 1_555
Al6 Ce0 3.243551 1_455
Al6 Ce0 3.243551 1_555
Al7 Ru2 2.615743 1_455
Al7 Ru2 2.615743 1_555
Al7 Ru3 2.705929 1_545
Al7 Ru6 2.893373 1_555
Al7 Ce0 3.153238 1_445
Al7 Ce0 3.153238 1_545
Al7 Ce3 3.243744 1_455
Al7 Ce3 3.243744 1_555
