# generated using pymatgen
data_CsTiCuOF5
_symmetry_space_group_name_H-M   'P 1'
_cell_length_a   7.45688822
_cell_length_b   7.45688822
_cell_length_c   7.45688822
_cell_angle_alpha   121.51748851
_cell_angle_beta   121.44322528
_cell_angle_gamma   87.45453021
_symmetry_Int_Tables_number   1
_chemical_formula_structural   CsTiCuOF5
_chemical_formula_sum   'Cs2 Ti2 Cu2 O2 F10'
_cell_volume   286.32823149
_cell_formula_units_Z   2
loop_
 _symmetry_equiv_pos_site_id
 _symmetry_equiv_pos_as_xyz
  1  'x, y, z'
loop_
 _atom_site_type_symbol
 _atom_site_label
 _atom_site_symmetry_multiplicity
 _atom_site_fract_x
 _atom_site_fract_y
 _atom_site_fract_z
 _atom_site_occupancy
  Cs  Cs0  1  0.62697800  0.37697800  0.25000000  1
  Cs  Cs1  1  0.37302200  0.62302200  0.75000000  1
  Ti  Ti0  1  0.00000000  0.50000000  0.00000000  1
  Ti  Ti1  1  0.00000000  0.00000000  0.50000000  1
  Cu  Cu0  1  0.50000000  0.00000000  0.50000000  1
  Cu  Cu1  1  0.00000000  0.00000000  0.00000000  1
  O  O0  1  0.04183000  0.29183000  0.75000000  1
  O  O1  1  0.95817000  0.70817000  0.25000000  1
  F  F0  1  0.31467000  0.08163200  0.64879100  1
  F  F1  1  0.31421600  0.06421600  0.25000000  1
  F  F2  1  0.93284100  0.08163200  0.26696200  1
  F  F3  1  0.31467000  0.66587900  0.23303800  1
  F  F4  1  0.06715900  0.33412100  0.14879100  1
  F  F5  1  0.93284100  0.66587900  0.85120900  1
  F  F6  1  0.06715900  0.91836800  0.73303800  1
  F  F7  1  0.68533000  0.33412100  0.76696200  1
  F  F8  1  0.68533000  0.91836800  0.35120900  1
  F  F9  1  0.68578400  0.93578400  0.75000000  1
loop_
_geom_bond_atom_site_label_1
_geom_bond_atom_site_label_2
_geom_bond_distance
_geom_bond_site_symmetry_2
Cs0 F0 3.100399 1_554
Cs0 F2 3.100399 1_555
Cs0 F5 3.100399 1_555
Cs0 F3 3.100399 1_555
Cs0 F1 3.370719 1_555
Cs1 F7 3.100399 1_555
Cs1 F4 3.100399 1_555
Cs1 F8 3.100399 1_556
Cs1 F6 3.100399 1_555
Cs1 F9 3.370719 1_555
Cu0 F1 1.950329 1_555
Cu0 F9 1.950329 1_545
Cu0 F0 2.080948 1_555
Cu0 F7 2.080948 1_555
Cu0 F8 2.080948 1_545
Cu0 F3 2.080948 1_545
Cu1 F1 1.950329 1_555
Cu1 F9 1.950329 1_444
Cu1 F2 2.080948 1_455
Cu1 F4 2.080948 1_555
Cu1 F5 2.080948 1_444
Cu1 F6 2.080948 1_544
O0 Ti1 1.876264 1_555
O0 Ti0 1.876264 1_556
O1 Ti0 1.876264 1_655
O1 Ti1 1.876264 1_665
F0 Ti1 1.952434 1_555
F2 Ti1 1.952434 1_655
F3 Ti0 1.952434 1_555
F4 Ti0 1.952434 1_555
F5 Ti0 1.952434 1_656
F6 Ti1 1.952434 1_565
F7 Ti0 1.952434 1_656
F8 Ti1 1.952434 1_665
