# generated using pymatgen
data_Cr14MoO24
_symmetry_space_group_name_H-M   'P 1'
_cell_length_a   5.12565300
_cell_length_b   5.45046379
_cell_length_c   16.96727481
_cell_angle_alpha   83.78500978
_cell_angle_beta   81.36382837
_cell_angle_gamma   62.22564786
_symmetry_Int_Tables_number   1
_chemical_formula_structural   Cr14MoO24
_chemical_formula_sum   'Cr14 Mo1 O24'
_cell_volume   414.25347582
_cell_formula_units_Z   1
loop_
 _symmetry_equiv_pos_site_id
 _symmetry_equiv_pos_as_xyz
  1  'x, y, z'
loop_
 _atom_site_type_symbol
 _atom_site_label
 _atom_site_symmetry_multiplicity
 _atom_site_fract_x
 _atom_site_fract_y
 _atom_site_fract_z
 _atom_site_occupancy
  Cr  Cr0  1  0.70077300  0.28406800  0.83159500  1
  Cr  Cr1  1  0.42657100  0.84198100  0.79066300  1
  Cr  Cr2  1  0.43738200  0.03678400  0.58820200  1
  Cr  Cr3  1  0.18755900  0.58786000  0.53761100  1
  Cr  Cr4  1  0.05975400  0.66265500  0.71302900  1
  Cr  Cr5  1  0.18905900  0.78686800  0.33812900  1
  Cr  Cr6  1  0.81094100  0.21313200  0.66187100  1
  Cr  Cr7  1  0.94024600  0.33734500  0.28697100  1
  Cr  Cr8  1  0.81244100  0.41214000  0.46238900  1
  Cr  Cr9  1  0.91016100  0.57990100  0.09025500  1
  Cr  Cr10  1  0.56261800  0.96321600  0.41179800  1
  Cr  Cr11  1  0.57342900  0.15801900  0.20933700  1
  Cr  Cr12  1  0.29922700  0.71593200  0.16840500  1
  Cr  Cr13  1  0.08983900  0.42009900  0.90974500  1
  Mo  Mo0  1  0.50000000  0.50000000  0.00000000  1
  O  O0  1  0.70894300  0.00925100  0.76262200  1
  O  O1  1  0.23475100  0.93877100  0.68900500  1
  O  O2  1  0.10426200  0.12328600  0.85357200  1
  O  O3  1  0.38628600  0.38764400  0.63805300  1
  O  O4  1  0.26252800  0.55832600  0.81238800  1
  O  O5  1  0.46324500  0.76210700  0.51273900  1
  O  O6  1  0.77886600  0.49495200  0.73520900  1
  O  O7  1  0.98686100  0.68810000  0.43739200  1
  O  O8  1  0.86263400  0.86336900  0.61214600  1
  O  O9  1  0.13736600  0.13663100  0.38785400  1
  O  O10  1  0.01313900  0.31190000  0.56260800  1
  O  O11  1  0.22113400  0.50504800  0.26479100  1
  O  O12  1  0.53675500  0.23789300  0.48726100  1
  O  O13  1  0.73747200  0.44167400  0.18761200  1
  O  O14  1  0.61371400  0.61235600  0.36194700  1
  O  O15  1  0.89573800  0.87671400  0.14642800  1
  O  O16  1  0.76524900  0.06122900  0.31099500  1
  O  O17  1  0.91133900  0.30890200  0.01530300  1
  O  O18  1  0.29105700  0.99074900  0.23737800  1
  O  O19  1  0.50616700  0.21599500  0.93704000  1
  O  O20  1  0.35113300  0.38136500  0.10842600  1
  O  O21  1  0.64886700  0.61863500  0.89157400  1
  O  O22  1  0.49383300  0.78400500  0.06296000  1
  O  O23  1  0.08866100  0.69109800  0.98469700  1
loop_
_geom_bond_atom_site_label_1
_geom_bond_atom_site_label_2
_geom_bond_distance
_geom_bond_site_symmetry_2
Cr0 O2 1.912059 1_655
Cr0 O0 1.980235 1_555
Cr0 O6 1.995277 1_555
Cr0 O19 1.999701 1_555
Cr0 O21 2.073672 1_555
Cr0 O4 2.090811 1_555
Cr1 O2 1.919242 1_565
Cr1 O1 2.012216 1_555
Cr1 O0 2.020252 1_565
Cr1 O4 2.056261 1_555
Cr1 O6 2.101323 1_555
Cr1 O21 2.133926 1_555
Cr2 O8 2.017972 1_545
Cr2 O1 2.018713 1_545
Cr2 O5 2.019274 1_545
Cr2 O12 2.060619 1_555
Cr2 O3 2.063500 1_555
Cr2 O10 2.066237 1_555
Cr3 O7 2.012119 1_455
Cr3 O5 2.015371 1_555
Cr3 O8 2.018879 1_455
Cr3 O3 2.053171 1_555
Cr3 O10 2.059789 1_555
Cr3 O12 2.069694 1_555
Cr4 O4 2.003379 1_555
Cr4 O6 2.009790 1_455
Cr4 O3 2.025269 1_555
Cr4 O8 2.057035 1_455
Cr4 O0 2.057677 1_465
Cr4 O1 2.061816 1_555
Cr5 O7 1.999994 1_455
Cr5 O11 2.012940 1_555
Cr5 O14 2.014248 1_555
Cr5 O9 2.055879 1_565
Cr5 O16 2.071438 1_465
Cr5 O18 2.071768 1_555
Cr6 O10 1.999994 1_655
Cr6 O6 2.012940 1_555
Cr6 O3 2.014248 1_555
Cr6 O8 2.055879 1_545
Cr6 O1 2.071438 1_645
Cr6 O0 2.071768 1_555
Cr7 O13 2.003379 1_555
Cr7 O11 2.009790 1_655
Cr7 O14 2.025269 1_555
Cr7 O9 2.057035 1_655
Cr7 O18 2.057677 1_645
Cr7 O16 2.061816 1_555
Cr8 O10 2.012119 1_655
Cr8 O12 2.015371 1_555
Cr8 O9 2.018879 1_655
Cr8 O14 2.053171 1_555
Cr8 O7 2.059789 1_555
Cr8 O5 2.069694 1_555
Cr9 O15 1.931909 1_555
Cr9 O22 1.994640 1_555
Cr9 O13 1.998185 1_555
Cr9 O17 2.048212 1_555
Cr9 O23 2.049844 1_654
Cr9 O20 2.057277 1_655
Cr10 O9 2.017972 1_565
Cr10 O16 2.018713 1_565
Cr10 O12 2.019274 1_565
Cr10 O5 2.060619 1_555
Cr10 O14 2.063500 1_555
Cr10 O7 2.066237 1_555
Cr11 O15 1.919242 1_545
Cr11 O16 2.012216 1_555
Cr11 O18 2.020252 1_545
Cr11 O13 2.056261 1_555
Cr11 O11 2.101323 1_555
Cr11 O20 2.133926 1_555
Cr12 O15 1.912059 1_455
Cr12 O18 1.980235 1_555
Cr12 O11 1.995277 1_555
Cr12 O22 1.999701 1_555
Cr12 O20 2.073672 1_555
Cr12 O13 2.090811 1_555
Cr13 O2 1.931909 1_555
Cr13 O19 1.994640 1_555
Cr13 O4 1.998185 1_555
Cr13 O23 2.048212 1_555
Cr13 O17 2.049844 1_456
Cr13 O21 2.057277 1_455
Mo0 O23 1.912264 1_554
Mo0 O17 1.912264 1_555
Mo0 O22 1.959758 1_555
Mo0 O19 1.959758 1_554
Mo0 O20 2.040958 1_555
Mo0 O21 2.040958 1_554
