# generated using pymatgen
data_MoCl2
_symmetry_space_group_name_H-M   'P 1'
_cell_length_a   9.28185164
_cell_length_b   9.28184986
_cell_length_c   11.38363907
_cell_angle_alpha   90.00000000
_cell_angle_beta   90.00000000
_cell_angle_gamma   104.13092524
_symmetry_Int_Tables_number   1
_chemical_formula_structural   MoCl2
_chemical_formula_sum   'Mo12 Cl24'
_cell_volume   951.05527984
_cell_formula_units_Z   12
loop_
 _symmetry_equiv_pos_site_id
 _symmetry_equiv_pos_as_xyz
  1  'x, y, z'
loop_
 _atom_site_type_symbol
 _atom_site_label
 _atom_site_symmetry_multiplicity
 _atom_site_fract_x
 _atom_site_fract_y
 _atom_site_fract_z
 _atom_site_occupancy
  Mo  Mo0  1  0.62589473  0.37410527  0.50000000  1
  Mo  Mo1  1  0.35390435  0.35390435  0.56737426  1
  Mo  Mo2  1  0.64609565  0.64609565  0.43262574  1
  Mo  Mo3  1  0.14609565  0.14609565  0.06737426  1
  Mo  Mo4  1  0.93273724  0.93273724  0.14645417  1
  Mo  Mo5  1  0.87410527  0.12589473  0.00000000  1
  Mo  Mo6  1  0.56726276  0.56726276  0.64645417  1
  Mo  Mo7  1  0.06726276  0.06726276  0.85354583  1
  Mo  Mo8  1  0.85390435  0.85390435  0.93262574  1
  Mo  Mo9  1  0.12589473  0.87410527  0.00000000  1
  Mo  Mo10  1  0.43273724  0.43273724  0.35354583  1
  Mo  Mo11  1  0.37410527  0.62589473  0.50000000  1
  Cl  Cl0  1  0.19516895  0.95668305  0.20512996  1
  Cl  Cl1  1  0.17611016  0.41487528  0.42394294  1
  Cl  Cl2  1  0.08512472  0.32388984  0.92394294  1
  Cl  Cl3  1  0.35134233  0.35134233  0.14815739  1
  Cl  Cl4  1  0.95668305  0.19516895  0.20512996  1
  Cl  Cl5  1  0.32388984  0.08512472  0.92394294  1
  Cl  Cl6  1  0.04331695  0.80483105  0.79487004  1
  Cl  Cl7  1  0.71157061  0.28842939  0.00000000  1
  Cl  Cl8  1  0.64865767  0.64865767  0.85184261  1
  Cl  Cl9  1  0.21157061  0.78842939  0.50000000  1
  Cl  Cl10  1  0.85134233  0.85134233  0.35184261  1
  Cl  Cl11  1  0.69516895  0.45668305  0.29487004  1
  Cl  Cl12  1  0.82388984  0.58512472  0.57605706  1
  Cl  Cl13  1  0.41487528  0.17611016  0.42394294  1
  Cl  Cl14  1  0.67611016  0.91487528  0.07605706  1
  Cl  Cl15  1  0.58512472  0.82388984  0.57605706  1
  Cl  Cl16  1  0.54331695  0.30483105  0.70512996  1
  Cl  Cl17  1  0.80483105  0.04331695  0.79487004  1
  Cl  Cl18  1  0.28842939  0.71157061  0.00000000  1
  Cl  Cl19  1  0.91487528  0.67611016  0.07605706  1
  Cl  Cl20  1  0.78842939  0.21157061  0.50000000  1
  Cl  Cl21  1  0.14865767  0.14865767  0.64815739  1
  Cl  Cl22  1  0.30483105  0.54331695  0.70512996  1
  Cl  Cl23  1  0.45668305  0.69516895  0.29487004  1
loop_
_geom_bond_atom_site_label_1
_geom_bond_atom_site_label_2
_geom_bond_distance
_geom_bond_site_symmetry_2
Cl0 Mo3 2.479622 1_565
Cl0 Mo4 2.482856 1_455
Cl0 Mo9 2.492608 1_555
Cl1 Mo10 2.480053 1_555
Cl1 Mo1 2.483058 1_555
Cl1 Mo11 2.491130 1_555
Cl2 Mo7 2.480053 1_555
Cl2 Mo3 2.483057 1_556
Cl2 Mo5 2.491131 1_456
Cl3 Mo10 2.515832 1_555
Cl3 Mo3 2.516377 1_555
Cl4 Mo3 2.479622 1_655
Cl4 Mo4 2.482856 1_545
Cl4 Mo5 2.492608 1_555
Cl5 Mo7 2.480053 1_555
Cl5 Mo3 2.483058 1_556
Cl5 Mo9 2.491130 1_546
Cl6 Mo8 2.479622 1_455
Cl6 Mo7 2.482856 1_565
Cl6 Mo9 2.492608 1_556
Cl7 Mo5 2.379742 1_555
Cl8 Mo6 2.515832 1_555
Cl8 Mo8 2.516377 1_555
Cl9 Mo11 2.379742 1_555
Cl10 Mo4 2.515832 1_555
Cl10 Mo2 2.516377 1_555
Cl11 Mo2 2.479622 1_555
Cl11 Mo10 2.482856 1_555
Cl11 Mo0 2.492608 1_555
Cl12 Mo6 2.480053 1_555
Cl12 Mo2 2.483058 1_555
Cl12 Mo0 2.491130 1_555
Cl13 Mo10 2.480053 1_555
Cl13 Mo1 2.483057 1_555
Cl13 Mo0 2.491131 1_555
Cl14 Mo4 2.480053 1_555
Cl14 Mo8 2.483058 1_554
Cl14 Mo5 2.491130 1_565
Cl15 Mo6 2.480053 1_555
Cl15 Mo2 2.483057 1_555
Cl15 Mo11 2.491131 1_555
Cl16 Mo1 2.479622 1_555
Cl16 Mo6 2.482856 1_555
Cl16 Mo0 2.492608 1_555
Cl17 Mo8 2.479622 1_545
Cl17 Mo7 2.482856 1_655
Cl17 Mo5 2.492608 1_556
Cl18 Mo9 2.379742 1_555
Cl19 Mo4 2.480053 1_555
Cl19 Mo8 2.483057 1_554
Cl19 Mo9 2.491131 1_655
Cl20 Mo0 2.379742 1_555
Cl21 Mo7 2.515832 1_555
Cl21 Mo1 2.516377 1_555
Cl22 Mo1 2.479622 1_555
Cl22 Mo6 2.482856 1_555
Cl22 Mo11 2.492608 1_555
Cl23 Mo2 2.479622 1_555
Cl23 Mo10 2.482856 1_555
Cl23 Mo11 2.492608 1_555
