# generated using pymatgen
data_Ni4(BiO2)9
_symmetry_space_group_name_H-M   'P 1'
_cell_length_a   8.45282900
_cell_length_b   8.50874102
_cell_length_c   8.69942240
_cell_angle_alpha   110.74022966
_cell_angle_beta   109.57399535
_cell_angle_gamma   104.76772183
_symmetry_Int_Tables_number   1
_chemical_formula_structural   Ni4(BiO2)9
_chemical_formula_sum   'Ni4 Bi9 O18'
_cell_volume   499.33310962
_cell_formula_units_Z   1
loop_
 _symmetry_equiv_pos_site_id
 _symmetry_equiv_pos_as_xyz
  1  'x, y, z'
loop_
 _atom_site_type_symbol
 _atom_site_label
 _atom_site_symmetry_multiplicity
 _atom_site_fract_x
 _atom_site_fract_y
 _atom_site_fract_z
 _atom_site_occupancy
  Ni  Ni0  1  0.27558700  0.46252500  0.16992800  1
  Ni  Ni1  1  0.48441500  0.17972500  0.27254200  1
  Ni  Ni2  1  0.78997000  0.66705500  0.50403900  1
  Ni  Ni3  1  0.70036300  0.50316900  0.81258300  1
  Bi  Bi0  1  0.84738400  0.18065600  0.67737100  1
  Bi  Bi1  1  0.01771800  0.01028200  0.99928500  1
  Bi  Bi2  1  0.68758400  0.86597100  0.15602100  1
  Bi  Bi3  1  0.17645500  0.66037100  0.88183600  1
  Bi  Bi4  1  0.84143900  0.37400100  0.18508100  1
  Bi  Bi5  1  0.36233500  0.22495300  0.82602300  1
  Bi  Bi6  1  0.20563100  0.35394900  0.48185500  1
  Bi  Bi7  1  0.52705800  0.82341300  0.68589300  1
  Bi  Bi8  1  0.15072800  0.81999400  0.32890300  1
  O  O0  1  0.96485900  0.63713800  0.98934200  1
  O  O1  1  0.66144300  0.07676800  0.35413900  1
  O  O2  1  0.36357400  0.64833100  0.10180000  1
  O  O3  1  0.28934300  0.96442400  0.03670400  1
  O  O4  1  0.10962100  0.31482000  0.69430900  1
  O  O5  1  0.66130000  0.40641400  0.31592600  1
  O  O6  1  0.69507400  0.01642000  0.99802400  1
  O  O7  1  0.90213400  0.67555700  0.32444000  1
  O  O8  1  0.38944200  0.64991200  0.76828600  1
  O  O9  1  0.87703700  0.93323300  0.63652100  1
  O  O10  1  0.30016500  0.95102100  0.64841700  1
  O  O11  1  0.66466300  0.34440900  0.92655200  1
  O  O12  1  0.43169500  0.30762400  0.63479400  1
  O  O13  1  0.24578200  0.60436200  0.38233100  1
  O  O14  1  0.71305300  0.66121000  0.70078700  1
  O  O15  1  0.01911000  0.27109900  0.98545300  1
  O  O16  1  0.00371700  0.02591100  0.27440600  1
  O  O17  1  0.29132000  0.27028600  0.25141100  1
loop_
_geom_bond_atom_site_label_1
_geom_bond_atom_site_label_2
_geom_bond_distance
_geom_bond_site_symmetry_2
Ni0 O2 1.939961 1_555
Ni0 O13 1.954935 1_555
Ni0 O15 1.986380 1_554
Ni0 O17 2.016102 1_555
Ni1 O5 1.932476 1_555
Ni1 O3 1.953319 1_545
Ni1 O17 1.957573 1_555
Ni1 O1 1.976738 1_555
Ni2 O9 1.931989 1_555
Ni2 O5 1.945907 1_555
Ni2 O14 2.035729 1_555
Ni2 O7 2.093536 1_555
Ni3 O14 1.920503 1_555
Ni3 O0 1.954013 1_555
Ni3 O11 1.959617 1_555
Ni3 O12 2.053165 1_555
Bi0 O9 2.102389 1_545
Bi0 O4 2.147180 1_655
Bi0 O15 2.290274 1_655
Bi0 O1 2.393442 1_555
Bi1 O15 2.261934 1_555
Bi1 O3 2.361297 1_546
Bi1 O17 2.368487 1_556
Bi1 O16 2.394246 1_556
Bi1 O9 2.725044 1_445
Bi1 O6 2.737469 1_455
Bi2 O1 2.122296 1_565
Bi2 O6 2.189781 1_564
Bi2 O16 2.315771 1_665
Bi2 O2 2.661378 1_555
Bi3 O2 2.089829 1_556
Bi3 O3 2.197768 1_556
Bi3 O0 2.276907 1_455
Bi3 O8 2.331519 1_555
Bi3 O4 2.600726 1_555
Bi4 O11 2.123616 1_554
Bi4 O5 2.200772 1_555
Bi4 O7 2.241780 1_555
Bi4 O6 2.580931 1_554
Bi4 O15 2.716436 1_654
Bi5 O10 2.092121 1_545
Bi5 O11 2.208476 1_555
Bi5 O12 2.208650 1_555
Bi5 O4 2.504792 1_555
Bi6 O12 2.151490 1_555
Bi6 O17 2.296818 1_555
Bi6 O4 2.342760 1_555
Bi6 O16 2.429089 1_555
Bi6 O8 2.435482 1_555
Bi6 O13 2.557242 1_555
Bi7 O8 2.116351 1_555
Bi7 O6 2.270640 1_565
Bi7 O14 2.343010 1_555
Bi7 O10 2.420099 1_555
Bi7 O13 2.479589 1_555
Bi8 O7 2.126602 1_455
Bi8 O10 2.302016 1_555
Bi8 O13 2.309382 1_555
Bi8 O0 2.450318 1_454
Bi8 O16 2.478375 1_565
