# generated using pymatgen
data_CsCrCl3
_symmetry_space_group_name_H-M   'P 1'
_cell_length_a   7.38377276
_cell_length_b   7.38377276
_cell_length_c   6.19073500
_cell_angle_alpha   90.00000000
_cell_angle_beta   90.00000000
_cell_angle_gamma   120.00000677
_symmetry_Int_Tables_number   1
_chemical_formula_structural   CsCrCl3
_chemical_formula_sum   'Cs2 Cr2 Cl6'
_cell_volume   292.30043433
_cell_formula_units_Z   2
loop_
 _symmetry_equiv_pos_site_id
 _symmetry_equiv_pos_as_xyz
  1  'x, y, z'
loop_
 _atom_site_type_symbol
 _atom_site_label
 _atom_site_symmetry_multiplicity
 _atom_site_fract_x
 _atom_site_fract_y
 _atom_site_fract_z
 _atom_site_occupancy
  Cs  Cs0  1  0.66666700  0.33333300  0.25433200  1
  Cs  Cs1  1  0.33333300  0.66666700  0.75433200  1
  Cr  Cr0  1  0.00000000  0.00000000  0.52005500  1
  Cr  Cr1  1  0.00000000  0.00000000  0.02005500  1
  Cl  Cl0  1  0.15448900  0.84551100  0.26953800  1
  Cl  Cl1  1  0.30897800  0.15448900  0.76953800  1
  Cl  Cl2  1  0.15448900  0.30897800  0.26953800  1
  Cl  Cl3  1  0.84551100  0.15448900  0.76953800  1
  Cl  Cl4  1  0.69102200  0.84551100  0.26953800  1
  Cl  Cl5  1  0.84551100  0.69102200  0.76953800  1
loop_
_geom_bond_atom_site_label_1
_geom_bond_atom_site_label_2
_geom_bond_distance
_geom_bond_site_symmetry_2
Cl0 Cr1 2.507807 1_565
Cl0 Cr0 2.511755 1_565
Cl0 Cs0 3.696369 1_455
Cl0 Cs0 3.696369 1_565
Cl0 Cs1 3.773446 1_555
Cl0 Cs1 3.924849 1_554
Cl1 Cr0 2.507807 1_555
Cl1 Cr1 2.511755 1_556
Cl1 Cs1 3.696365 1_545
Cl1 Cs1 3.696372 1_555
Cl1 Cs0 3.773450 1_556
Cl1 Cs0 3.924853 1_555
Cl2 Cr1 2.507807 1_555
Cl2 Cr0 2.511755 1_555
Cl2 Cs0 3.696365 1_455
Cl2 Cs0 3.696372 1_555
Cl2 Cs1 3.773450 1_555
Cl2 Cs1 3.924853 1_554
Cl3 Cr0 2.507807 1_655
Cl3 Cr1 2.511755 1_656
Cl3 Cs1 3.696369 1_545
Cl3 Cs1 3.696369 1_655
Cl3 Cs0 3.773446 1_556
Cl3 Cs0 3.924849 1_555
Cl4 Cr1 2.507807 1_665
Cl4 Cr0 2.511755 1_665
Cl4 Cs0 3.696365 1_565
Cl4 Cs0 3.696372 1_555
Cl4 Cs1 3.773450 1_555
Cl4 Cs1 3.924853 1_554
Cl5 Cr0 2.507807 1_665
Cl5 Cr1 2.511755 1_666
Cl5 Cs1 3.696365 1_655
Cl5 Cs1 3.696372 1_555
Cl5 Cs0 3.773450 1_556
Cl5 Cs0 3.924853 1_555
