# generated using pymatgen
data_GdAl4Ge2Au
_symmetry_space_group_name_H-M   'P 1'
_cell_length_a   11.50944333
_cell_length_b   11.50944333
_cell_length_c   11.50944434
_cell_angle_alpha   22.64243350
_cell_angle_beta   22.64243350
_cell_angle_gamma   22.64243106
_symmetry_Int_Tables_number   1
_chemical_formula_structural   GdAl4Ge2Au
_chemical_formula_sum   'Gd1 Al4 Ge2 Au1'
_cell_volume   198.23510479
_cell_formula_units_Z   1
loop_
 _symmetry_equiv_pos_site_id
 _symmetry_equiv_pos_as_xyz
  1  'x, y, z'
loop_
 _atom_site_type_symbol
 _atom_site_label
 _atom_site_symmetry_multiplicity
 _atom_site_fract_x
 _atom_site_fract_y
 _atom_site_fract_z
 _atom_site_occupancy
  Gd  Gd0  1  0.50000000  0.50000000  0.50000000  1
  Al  Al0  1  0.69296300  0.69296300  0.69296300  1
  Al  Al1  1  0.08351900  0.08351900  0.08351900  1
  Al  Al2  1  0.30703700  0.30703700  0.30703700  1
  Al  Al3  1  0.91648100  0.91648100  0.91648100  1
  Ge  Ge0  1  0.77669800  0.77669800  0.77669900  1
  Ge  Ge1  1  0.22330100  0.22330100  0.22330100  1
  Au  Au0  1  0.00000000  0.00000000  0.00000000  1
loop_
_geom_bond_atom_site_label_1
_geom_bond_atom_site_label_2
_geom_bond_distance
_geom_bond_site_symmetry_2
Gd0 Ge1 3.230175 1_655
Gd0 Ge1 3.230175 1_565
Gd0 Ge1 3.230176 1_556
Gd0 Ge0 3.230187 1_554
Gd0 Ge0 3.230189 1_455
Gd0 Ge0 3.230189 1_545
Al0 Au0 2.754746 1_656
Al0 Au0 2.754746 1_566
Al0 Au0 2.754746 1_665
Al0 Ge0 2.815981 1_555
Al1 Ge0 2.757089 1_544
Al1 Ge0 2.757089 1_454
Al1 Ge0 2.757093 1_445
Al1 Au0 2.808706 1_555
Al2 Au0 2.754746 1_565
Al2 Au0 2.754746 1_655
Al2 Au0 2.754746 1_556
Al2 Ge1 2.816004 1_555
Al3 Ge1 2.757097 1_656
Al3 Ge1 2.757097 1_566
Al3 Ge1 2.757098 1_665
Al3 Au0 2.808706 1_666
