# generated using pymatgen
data_TiFeH2
_symmetry_space_group_name_H-M   'P 1'
_cell_length_a   4.66649770
_cell_length_b   4.66649770
_cell_length_c   2.78356000
_cell_angle_alpha   90.00000000
_cell_angle_beta   90.00000000
_cell_angle_gamma   97.66061980
_symmetry_Int_Tables_number   1
_chemical_formula_structural   TiFeH2
_chemical_formula_sum   'Ti2 Fe2 H4'
_cell_volume   60.07437278
_cell_formula_units_Z   2
loop_
 _symmetry_equiv_pos_site_id
 _symmetry_equiv_pos_as_xyz
  1  'x, y, z'
loop_
 _atom_site_type_symbol
 _atom_site_label
 _atom_site_symmetry_multiplicity
 _atom_site_fract_x
 _atom_site_fract_y
 _atom_site_fract_z
 _atom_site_occupancy
  Ti  Ti0  1  0.21688600  0.78311400  0.50000000  1
  Ti  Ti1  1  0.78311400  0.21688600  0.50000000  1
  Fe  Fe0  1  0.29526700  0.29526700  0.00000000  1
  Fe  Fe1  1  0.70473300  0.70473300  0.00000000  1
  H  H0  1  0.50000000  0.00000000  0.00000000  1
  H  H1  1  0.00000000  0.00000000  0.00000000  1
  H  H2  1  0.00000000  0.50000000  0.00000000  1
  H  H3  1  0.50000000  0.50000000  0.50000000  1
loop_
_geom_bond_atom_site_label_1
_geom_bond_atom_site_label_2
_geom_bond_distance
_geom_bond_site_symmetry_2
Fe0 H0 1.778266 1_555
Fe0 H2 1.778266 1_555
Fe0 H1 1.814070 1_555
Fe0 H3 1.875960 1_555
Fe0 H3 1.875960 1_554
Fe1 H0 1.778266 1_565
Fe1 H2 1.778266 1_655
Fe1 H1 1.814070 1_665
Fe1 H3 1.875960 1_555
Fe1 H3 1.875960 1_554
H0 Ti0 2.085747 1_544
H0 Ti0 2.085747 1_545
H0 Ti1 2.085747 1_555
H0 Ti1 2.085747 1_554
H1 Ti0 2.063695 1_544
H1 Ti0 2.063695 1_545
H1 Ti1 2.063695 1_455
H1 Ti1 2.063695 1_454
H2 Ti0 2.085747 1_555
H2 Ti0 2.085747 1_554
H2 Ti1 2.085747 1_455
H2 Ti1 2.085747 1_454
H3 Ti1 1.989028 1_555
H3 Ti0 1.989028 1_555
