# generated using pymatgen
data_ZnH6C2(SO3)2
_symmetry_space_group_name_H-M   'P 1'
_cell_length_a   6.95888484
_cell_length_b   6.95888484
_cell_length_c   9.12393470
_cell_angle_alpha   74.58561640
_cell_angle_beta   74.58561640
_cell_angle_gamma   105.50469919
_symmetry_Int_Tables_number   1
_chemical_formula_structural   ZnH6C2(SO3)2
_chemical_formula_sum   'Zn2 H12 C4 S4 O12'
_cell_volume   382.50703575
_cell_formula_units_Z   2
loop_
 _symmetry_equiv_pos_site_id
 _symmetry_equiv_pos_as_xyz
  1  'x, y, z'
loop_
 _atom_site_type_symbol
 _atom_site_label
 _atom_site_symmetry_multiplicity
 _atom_site_fract_x
 _atom_site_fract_y
 _atom_site_fract_z
 _atom_site_occupancy
  Zn  Zn0  1  0.14693500  0.85735800  0.93859400  1
  Zn  Zn1  1  0.85735800  0.14693500  0.43859400  1
  H  H0  1  0.90886000  0.83795700  0.66758500  1
  H  H1  1  0.83795700  0.90886000  0.16758500  1
  H  H2  1  0.07153900  0.66134100  0.25867400  1
  H  H3  1  0.66134100  0.07153900  0.75867400  1
  H  H4  1  0.60431600  0.52805000  0.79002100  1
  H  H5  1  0.52805000  0.60431600  0.29002100  1
  H  H6  1  0.62370100  0.53322800  0.58906400  1
  H  H7  1  0.53322800  0.62370100  0.08906400  1
  H  H8  1  0.46903300  0.99830300  0.17616200  1
  H  H9  1  0.99830300  0.46903300  0.67616200  1
  H  H10  1  0.23081500  0.90658000  0.35606100  1
  H  H11  1  0.90658000  0.23081500  0.85606100  1
  C  C0  1  0.64280200  0.63226300  0.66365000  1
  C  C1  1  0.63226300  0.64280200  0.16365000  1
  C  C2  1  0.29359000  0.94221800  0.22408200  1
  C  C3  1  0.94221800  0.29359000  0.72408200  1
  S  S0  1  0.43403900  0.75631900  0.66979700  1
  S  S1  1  0.75631900  0.43403900  0.16979700  1
  S  S2  1  0.22153300  0.17177300  0.12612600  1
  S  S3  1  0.17177300  0.22153300  0.62612600  1
  O  O0  1  0.43364700  0.83235400  0.81652500  1
  O  O1  1  0.83235400  0.43364700  0.31652500  1
  O  O2  1  0.54972100  0.95190800  0.51013800  1
  O  O3  1  0.95190800  0.54972100  0.01013800  1
  O  O4  1  0.84774100  0.79138400  0.58928300  1
  O  O5  1  0.79138400  0.84774100  0.08928300  1
  O  O6  1  0.24772500  0.15072200  0.95905300  1
  O  O7  1  0.15072200  0.24772500  0.45905300  1
  O  O8  1  0.97700000  0.08523000  0.22685800  1
  O  O9  1  0.08523000  0.97700000  0.72685800  1
  O  O10  1  0.21158600  0.76883000  0.17788500  1
  O  O11  1  0.76883000  0.21158600  0.67788500  1
loop_
_geom_bond_atom_site_label_1
_geom_bond_atom_site_label_2
_geom_bond_distance
_geom_bond_site_symmetry_2
H0 O4 1.003621 1_555
H0 O9 1.652621 1_655
H1 O5 1.003621 1_555
H1 O8 1.652621 1_565
H2 O10 0.993936 1_555
H3 O11 0.993936 1_555
C0 H6 1.097341 1_555
C0 H4 1.102074 1_555
C0 O4 1.400825 1_555
C1 H7 1.097341 1_555
C1 H5 1.102074 1_555
C1 O5 1.400825 1_555
C2 H8 1.097645 1_555
C2 H10 1.098201 1_555
C2 O10 1.410412 1_555
C3 H9 1.097645 1_555
C3 H11 1.098201 1_555
C3 O11 1.410412 1_555
O0 S0 1.564473 1_555
O0 Zn0 2.087788 1_555
O1 S1 1.564473 1_555
O1 Zn1 2.087788 1_555
O2 S0 1.536044 1_555
O2 Zn1 2.020868 1_565
O3 S1 1.536044 1_555
O3 Zn0 2.020868 1_654
O4 Zn1 2.463901 1_565
O5 Zn0 2.463901 1_654
O6 S2 1.537416 1_556
O6 Zn0 2.049660 1_545
O7 S3 1.537416 1_555
O7 Zn1 2.049660 1_455
O8 S2 1.558701 1_655
O8 Zn1 2.094457 1_555
O9 S3 1.558701 1_565
O9 Zn0 2.094457 1_555
O10 Zn0 2.303033 1_554
O11 Zn1 2.303033 1_555
