# generated using pymatgen
data_K2O
_symmetry_space_group_name_H-M   'P 1'
_cell_length_a   5.22695334
_cell_length_b   5.22695334
_cell_length_c   7.59035953
_cell_angle_alpha   70.34957383
_cell_angle_beta   70.34957383
_cell_angle_gamma   90.03292635
_symmetry_Int_Tables_number   1
_chemical_formula_structural   K2O
_chemical_formula_sum   'K4 O2'
_cell_volume   182.40890167
_cell_formula_units_Z   2
loop_
 _symmetry_equiv_pos_site_id
 _symmetry_equiv_pos_as_xyz
  1  'x, y, z'
loop_
 _atom_site_type_symbol
 _atom_site_label
 _atom_site_symmetry_multiplicity
 _atom_site_fract_x
 _atom_site_fract_y
 _atom_site_fract_z
 _atom_site_occupancy
  K  K0  1  0.07607100  0.32098500  0.85153900  1
  K  K1  1  0.67901500  0.92392900  0.64846100  1
  K  K2  1  0.92392900  0.67901500  0.14846100  1
  K  K3  1  0.32098500  0.07607100  0.35153900  1
  O  O0  1  0.12936900  0.87063100  0.75000000  1
  O  O1  1  0.87063100  0.12936900  0.25000000  1
loop_
_geom_bond_atom_site_label_1
_geom_bond_atom_site_label_2
_geom_bond_distance
_geom_bond_site_symmetry_2
K0 O1 2.660967 1_456
K0 O0 2.699885 1_545
K0 O0 2.700194 1_555
K1 O1 2.660967 1_565
K1 O0 2.699885 1_655
K1 O0 2.700194 1_555
K2 O0 2.660967 1_654
K2 O1 2.699885 1_565
K2 O1 2.700194 1_555
K3 O0 2.660967 1_545
K3 O1 2.699885 1_455
K3 O1 2.700194 1_555
