# generated using pymatgen
data_NaSr3RuO6
_symmetry_space_group_name_H-M   'P 1'
_cell_length_a   6.83117998
_cell_length_b   6.83117998
_cell_length_c   6.83117998
_cell_angle_alpha   90.81839776
_cell_angle_beta   90.81839776
_cell_angle_gamma   90.81839546
_symmetry_Int_Tables_number   1
_chemical_formula_structural   NaSr3RuO6
_chemical_formula_sum   'Na2 Sr6 Ru2 O12'
_cell_volume   318.67865478
_cell_formula_units_Z   2
loop_
 _symmetry_equiv_pos_site_id
 _symmetry_equiv_pos_as_xyz
  1  'x, y, z'
loop_
 _atom_site_type_symbol
 _atom_site_label
 _atom_site_symmetry_multiplicity
 _atom_site_fract_x
 _atom_site_fract_y
 _atom_site_fract_z
 _atom_site_occupancy
  Na  Na0  1  0.25000000  0.25000000  0.25000000  1
  Na  Na1  1  0.75000000  0.75000000  0.75000000  1
  Sr  Sr0  1  0.75000000  0.39202100  0.10797900  1
  Sr  Sr1  1  0.10797900  0.75000000  0.39202100  1
  Sr  Sr2  1  0.39202100  0.10797900  0.75000000  1
  Sr  Sr3  1  0.25000000  0.60797900  0.89202100  1
  Sr  Sr4  1  0.89202100  0.25000000  0.60797900  1
  Sr  Sr5  1  0.60797900  0.89202100  0.25000000  1
  Ru  Ru0  1  0.00000000  0.00000000  0.00000000  1
  Ru  Ru1  1  0.50000000  0.50000000  0.50000000  1
  O  O0  1  0.44462400  0.77833200  0.57547000  1
  O  O1  1  0.57547000  0.44462400  0.77833200  1
  O  O2  1  0.77833200  0.57547000  0.44462400  1
  O  O3  1  0.05537600  0.92453000  0.72166800  1
  O  O4  1  0.72166800  0.05537600  0.92453000  1
  O  O5  1  0.92453000  0.72166800  0.05537600  1
  O  O6  1  0.55537600  0.22166800  0.42453000  1
  O  O7  1  0.42453000  0.55537600  0.22166800  1
  O  O8  1  0.22166800  0.42453000  0.55537600  1
  O  O9  1  0.94462400  0.07547000  0.27833200  1
  O  O10  1  0.07547000  0.27833200  0.94462400  1
  O  O11  1  0.27833200  0.94462400  0.07547000  1
loop_
_geom_bond_atom_site_label_1
_geom_bond_atom_site_label_2
_geom_bond_distance
_geom_bond_site_symmetry_2
Na0 O6 2.399523 1_555
Na0 O11 2.399523 1_545
Na0 O8 2.399523 1_555
Na0 O10 2.399523 1_554
Na0 O7 2.399523 1_555
Na0 O9 2.399523 1_455
Na1 O4 2.399523 1_565
Na1 O0 2.399523 1_555
Na1 O5 2.399523 1_556
Na1 O2 2.399523 1_555
Na1 O3 2.399523 1_655
Na1 O1 2.399523 1_555
O0 Ru1 2.005513 1_555
O0 Sr2 2.565188 1_565
O0 Sr1 2.606621 1_555
O0 Sr5 2.624330 1_555
O0 Sr3 2.812061 1_555
O1 Ru1 2.005513 1_555
O1 Sr0 2.565188 1_556
O1 Sr2 2.606621 1_555
O1 Sr3 2.624330 1_555
O1 Sr4 2.812061 1_555
O2 Ru1 2.005513 1_555
O2 Sr1 2.565188 1_655
O2 Sr0 2.606621 1_555
O2 Sr4 2.624330 1_555
O2 Sr5 2.812061 1_555
O3 Ru0 2.005513 1_566
O3 Sr1 2.565188 1_555
O3 Sr2 2.606621 1_565
O3 Sr4 2.624330 1_465
O3 Sr3 2.812061 1_555
O4 Ru0 2.005513 1_656
O4 Sr2 2.565188 1_555
O4 Sr0 2.606621 1_556
O4 Sr5 2.624330 1_546
O4 Sr4 2.812061 1_555
O5 Ru0 2.005513 1_665
O5 Sr0 2.565188 1_555
O5 Sr1 2.606621 1_655
O5 Sr3 2.624330 1_654
O5 Sr5 2.812061 1_555
O6 Ru1 2.005513 1_555
O6 Sr5 2.565188 1_545
O6 Sr4 2.606621 1_555
O6 Sr2 2.624330 1_555
O6 Sr0 2.812061 1_555
O7 Ru1 2.005513 1_555
O7 Sr3 2.565188 1_554
O7 Sr5 2.606621 1_555
O7 Sr0 2.624330 1_555
O7 Sr1 2.812061 1_555
O8 Ru1 2.005513 1_555
O8 Sr4 2.565188 1_455
O8 Sr3 2.606621 1_555
O8 Sr1 2.624330 1_555
O8 Sr2 2.812061 1_555
O9 Ru0 2.005513 1_655
O9 Sr4 2.565188 1_555
O9 Sr5 2.606621 1_545
O9 Sr1 2.624330 1_645
O9 Sr0 2.812061 1_555
O10 Ru0 2.005513 1_556
O10 Sr3 2.565188 1_555
O10 Sr4 2.606621 1_455
O10 Sr0 2.624330 1_456
O10 Sr2 2.812061 1_555
O11 Ru0 2.005513 1_565
O11 Sr5 2.565188 1_555
O11 Sr3 2.606621 1_554
O11 Sr2 2.624330 1_564
O11 Sr1 2.812061 1_555
