# generated using pymatgen
data_La8Cu7O19
_symmetry_space_group_name_H-M   'P 1'
_cell_length_a   3.77502513
_cell_length_b   7.15672187
_cell_length_c   34.24698284
_cell_angle_alpha   87.11969785
_cell_angle_beta   86.88906093
_cell_angle_gamma   74.83754526
_symmetry_Int_Tables_number   1
_chemical_formula_structural   La8Cu7O19
_chemical_formula_sum   'La16 Cu14 O38'
_cell_volume   891.09428463
_cell_formula_units_Z   2
loop_
 _symmetry_equiv_pos_site_id
 _symmetry_equiv_pos_as_xyz
  1  'x, y, z'
loop_
 _atom_site_type_symbol
 _atom_site_label
 _atom_site_symmetry_multiplicity
 _atom_site_fract_x
 _atom_site_fract_y
 _atom_site_fract_z
 _atom_site_occupancy
  La  La0  1  0.46206500  0.94477900  0.18212700  1
  La  La1  1  0.34262300  0.07632200  0.28928500  1
  La  La2  1  0.53121000  0.05283900  0.81853000  1
  La  La3  1  0.66157800  0.92145300  0.71146100  1
  La  La4  1  0.40657300  0.44340200  0.68201800  1
  La  La5  1  0.70520900  0.42146000  0.21086000  1
  La  La6  1  0.75534400  0.79091000  0.60558400  1
  La  La7  1  0.58728900  0.55491700  0.31834900  1
  La  La8  1  0.83875000  0.29403700  0.10585600  1
  La  La9  1  0.56094600  0.32105200  0.57584500  1
  La  La10  1  0.45993000  0.18033100  0.92426100  1
  La  La11  1  0.23944700  0.20888000  0.39441100  1
  La  La12  1  0.29693900  0.57561900  0.78946900  1
  La  La13  1  0.53924400  0.81930000  0.07574500  1
  La  La14  1  0.43264900  0.68192300  0.42391500  1
  La  La15  1  0.15736900  0.70620300  0.89432300  1
  Cu  Cu0  1  0.76577100  0.99099200  0.46861700  1
  Cu  Cu1  1  0.02700900  0.74947400  0.24977000  1
  Cu  Cu2  1  0.77250000  0.49920700  0.96890000  1
  Cu  Cu3  1  0.22919200  0.50198200  0.03104200  1
  Cu  Cu4  1  0.13971300  0.61973300  0.14201500  1
  Cu  Cu5  1  0.23399500  0.00739400  0.53115500  1
  Cu  Cu6  1  0.77628500  0.15217000  0.02300400  1
  Cu  Cu7  1  0.85718500  0.37916200  0.85825800  1
  Cu  Cu8  1  0.97509700  0.24714200  0.74998900  1
  Cu  Cu9  1  0.95177600  0.34818700  0.47711800  1
  Cu  Cu10  1  0.04262300  0.65348800  0.52304900  1
  Cu  Cu11  1  0.90349300  0.88357600  0.35824200  1
  Cu  Cu12  1  0.09380100  0.11856100  0.64190900  1
  Cu  Cu13  1  0.22081500  0.84468600  0.97711200  1
  O  O0  1  0.67311600  0.72065500  0.83510200  1
  O  O1  1  0.64286500  0.61750100  0.14252200  1
  O  O2  1  0.08249600  0.67748800  0.19662200  1
  O  O3  1  0.67052000  0.34789800  0.43021700  1
  O  O4  1  0.40433300  0.88563000  0.35772800  1
  O  O5  1  0.79002900  0.59344000  0.73001400  1
  O  O6  1  0.81923100  0.44202100  0.91328800  1
  O  O7  1  0.44453100  0.15434800  0.06918800  1
  O  O8  1  0.76023300  0.44545000  0.02818500  1
  O  O9  1  0.22559000  0.06354300  0.47161600  1
  O  O10  1  0.21646100  0.40532000  0.27011500  1
  O  O11  1  0.76044800  0.22038500  0.33486800  1
  O  O12  1  0.24065400  0.55535000  0.97181100  1
  O  O13  1  0.17949100  0.55616800  0.08680300  1
  O  O14  1  0.77017800  0.93640300  0.52876000  1
  O  O15  1  0.52532400  0.74963400  0.25019200  1
  O  O16  1  0.32526200  0.65455100  0.56972300  1
  O  O17  1  0.07783500  0.36728000  0.52971300  1
  O  O18  1  0.59443200  0.11665100  0.64252100  1
  O  O19  1  0.97730100  0.12777400  0.96948200  1
  O  O20  1  0.17178200  0.05581200  0.58691200  1
  O  O21  1  0.91834900  0.63393700  0.46944400  1
  O  O22  1  0.82566300  0.94345800  0.41299500  1
  O  O23  1  0.47380400  0.24709500  0.75047200  1
  O  O24  1  0.02459400  0.86729400  0.03028300  1
  O  O25  1  0.89059300  0.46493200  0.62846300  1
  O  O26  1  0.32155900  0.27977400  0.16520900  1
  O  O27  1  0.09989800  0.53467600  0.37164500  1
  O  O28  1  0.55213000  0.84250900  0.93052900  1
  O  O29  1  0.91679700  0.31890800  0.80325200  1
  O  O30  1  0.35566500  0.38097100  0.85759900  1
  O  O31  1  0.23003200  0.77567000  0.66511900  1
  O  O32  1  0.11711600  0.90206300  0.76963600  1
  O  O33  1  0.99241300  0.03435100  0.87097100  1
  O  O34  1  0.88475000  0.09506500  0.22973900  1
  O  O35  1  0.00589800  0.96392700  0.12883800  1
  O  O36  1  0.03933400  0.17850000  0.69658500  1
  O  O37  1  0.96024000  0.82206400  0.30346400  1
loop_
_geom_bond_atom_site_label_1
_geom_bond_atom_site_label_2
_geom_bond_distance
_geom_bond_site_symmetry_2
La0 O26 2.365040 1_565
La0 O35 2.550943 1_555
La0 O15 2.645742 1_555
La0 O2 2.660522 1_655
La0 O34 2.670132 1_465
La0 O1 2.678458 1_555
La0 O2 2.687021 1_555
La0 O35 2.698050 1_655
La0 O34 2.778143 1_565
La1 O10 2.343865 1_555
La1 O37 2.607233 1_545
La1 O37 2.615304 1_445
La1 O11 2.633253 1_455
La1 O4 2.642424 1_545
La1 O15 2.665568 1_545
La1 O11 2.695840 1_555
La1 O34 2.719940 1_455
La1 O34 2.833388 1_555
La2 O0 2.343514 1_545
La2 O33 2.543460 1_555
La2 O23 2.642694 1_555
La2 O29 2.645866 1_455
La2 O33 2.664656 1_455
La2 O30 2.673872 1_555
La2 O29 2.699182 1_555
La2 O32 2.718719 1_645
La2 O32 2.785670 1_545
La3 O5 2.331880 1_555
La3 O31 2.614937 1_655
La3 O36 2.622324 1_665
La3 O36 2.633757 1_565
La3 O23 2.657950 1_565
La3 O18 2.671761 1_565
La3 O32 2.676769 1_655
La3 O31 2.756349 1_555
La3 O32 2.808922 1_555
La4 O31 2.346971 1_555
La4 O25 2.545860 1_555
La4 O36 2.640026 1_555
La4 O23 2.661051 1_555
La4 O18 2.673439 1_555
La4 O5 2.683090 1_555
La4 O36 2.685932 1_655
La4 O25 2.717366 1_455
La4 O5 2.779696 1_455
La5 O34 2.324111 1_555
La5 O26 2.596789 1_555
La5 O2 2.612223 1_655
La5 O2 2.627283 1_555
La5 O1 2.656731 1_555
La5 O15 2.678816 1_555
La5 O10 2.686470 1_555
La5 O26 2.723318 1_655
La5 O10 2.853279 1_655
La6 O25 2.356653 1_555
La6 O16 2.413454 1_655
La6 O16 2.502466 1_555
La6 O20 2.588905 1_565
La6 O18 2.622217 1_565
La6 O31 2.766238 1_655
La6 O14 2.783639 1_555
La6 O31 2.784507 1_555
La6 O20 2.793311 1_665
La7 O11 2.358951 1_555
La7 O27 2.546776 1_555
La7 O15 2.647047 1_555
La7 O10 2.654680 1_555
La7 O37 2.670139 1_555
La7 O37 2.680310 1_455
La7 O4 2.694843 1_555
La7 O27 2.703192 1_655
La7 O10 2.817423 1_655
La8 O35 2.384589 1_645
La8 O7 2.428654 1_555
La8 O7 2.534670 1_655
La8 O13 2.578358 1_655
La8 O1 2.603541 1_555
La8 O26 2.758022 1_555
La8 O26 2.783522 1_655
La8 O13 2.783840 1_555
La8 O8 2.822331 1_555
La9 O16 2.321912 1_555
La9 O17 2.424075 1_555
La9 O17 2.522598 1_655
La9 O20 2.607115 1_655
La9 O25 2.637484 1_555
La9 O18 2.639874 1_555
La9 O20 2.689116 1_555
La9 O25 3.006638 1_455
La9 O14 3.157941 1_545
La10 O28 2.351221 1_545
La10 O19 2.419306 1_455
La10 O19 2.497982 1_555
La10 O6 2.586753 1_555
La10 O30 2.627011 1_555
La10 O6 2.675256 1_455
La10 O33 2.675387 1_555
La10 O33 3.007120 1_455
La10 O12 3.109846 1_555
La11 O27 2.353985 1_555
La11 O3 2.413542 1_455
La11 O3 2.515515 1_555
La11 O22 2.596732 1_545
La11 O4 2.602208 1_545
La11 O11 2.768716 1_555
La11 O11 2.782112 1_455
La11 O22 2.788568 1_445
La11 O9 2.795107 1_555
La12 O32 2.332649 1_555
La12 O0 2.590623 1_555
La12 O29 2.618683 1_555
La12 O29 2.622214 1_455
La12 O30 2.646071 1_555
La12 O23 2.674875 1_555
La12 O5 2.704407 1_555
La12 O0 2.747795 1_455
La12 O5 2.844853 1_455
La13 O7 2.331103 1_565
La13 O24 2.421747 1_655
La13 O24 2.498410 1_555
La13 O13 2.597007 1_555
La13 O1 2.634082 1_555
La13 O35 2.670741 1_555
La13 O13 2.679193 1_655
La13 O35 2.995238 1_655
La13 O8 3.103271 1_555
La14 O3 2.326756 1_555
La14 O21 2.416209 1_555
La14 O21 2.506979 1_455
La14 O22 2.583176 1_455
La14 O4 2.624395 1_555
La14 O27 2.649326 1_555
La14 O22 2.677037 1_555
La14 O27 2.995215 1_655
La14 O9 3.151492 1_565
La15 O33 2.375483 1_465
La15 O28 2.406752 1_555
La15 O28 2.521407 1_455
La15 O6 2.583601 1_455
La15 O30 2.615414 1_555
La15 O0 2.751430 1_555
La15 O0 2.783578 1_455
La15 O6 2.796569 1_555
La15 O12 2.816339 1_555
Cu0 O22 1.942570 1_555
Cu0 O9 1.946646 1_665
Cu0 O9 1.966525 1_565
Cu0 O14 2.077206 1_555
Cu0 O21 2.467164 1_555
Cu1 O15 1.882291 1_555
Cu1 O15 1.892845 1_455
Cu1 O2 1.902281 1_555
Cu1 O37 1.921462 1_455
Cu1 O10 2.454291 1_555
Cu1 O34 2.459849 1_465
Cu2 O12 1.920760 1_655
Cu2 O12 1.939761 1_555
Cu2 O6 1.957039 1_555
Cu2 O8 2.047686 1_556
Cu2 O19 2.566251 1_555
Cu3 O8 1.924784 1_455
Cu3 O8 1.936612 1_555
Cu3 O13 1.956990 1_555
Cu3 O12 2.045422 1_554
Cu3 O24 2.524188 1_555
Cu4 O1 1.878987 1_455
Cu4 O1 1.896312 1_555
Cu4 O2 1.924060 1_555
Cu4 O13 1.955680 1_555
Cu4 O35 2.405986 1_555
Cu4 O26 2.452124 1_555
Cu5 O20 1.948513 1_555
Cu5 O14 1.951939 1_545
Cu5 O14 1.953383 1_445
Cu5 O9 2.058674 1_555
Cu5 O17 2.485922 1_555
Cu6 O19 1.943702 1_554
Cu6 O7 1.961536 1_555
Cu6 O24 2.017918 1_645
Cu6 O8 2.100086 1_555
Cu7 O30 1.884107 1_655
Cu7 O30 1.891259 1_555
Cu7 O29 1.941680 1_555
Cu7 O6 1.948550 1_555
Cu7 O33 2.407684 1_555
Cu7 O0 2.461986 1_555
Cu8 O23 1.883514 1_655
Cu8 O23 1.891656 1_555
Cu8 O36 1.903928 1_655
Cu8 O29 1.905521 1_555
Cu8 O32 2.453322 1_645
Cu8 O5 2.464560 1_555
Cu9 O17 1.908221 1_655
Cu9 O3 1.973280 1_555
Cu9 O21 2.020333 1_555
Cu9 O9 2.041990 1_655
Cu10 O21 1.939973 1_455
Cu10 O16 1.970808 1_555
Cu10 O17 2.019707 1_555
Cu10 O14 2.030825 1_455
Cu11 O4 1.881583 1_555
Cu11 O4 1.893703 1_655
Cu11 O22 1.934212 1_555
Cu11 O37 1.936244 1_555
Cu11 O11 2.432023 1_565
Cu11 O27 2.438978 1_655
Cu12 O18 1.887613 1_555
Cu12 O18 1.887725 1_455
Cu12 O36 1.930103 1_555
Cu12 O20 1.947178 1_555
Cu12 O25 2.423683 1_455
Cu12 O31 2.471124 1_545
Cu13 O24 1.926456 1_556
Cu13 O28 1.971130 1_555
Cu13 O19 2.004133 1_465
Cu13 O12 2.069187 1_555
