# generated using pymatgen
data_La7P12Pd17
_symmetry_space_group_name_H-M   'P 1'
_cell_length_a   12.55279613
_cell_length_b   12.55279613
_cell_length_c   13.77475463
_cell_angle_alpha   68.03725489
_cell_angle_beta   68.03725489
_cell_angle_gamma   18.90657977
_symmetry_Int_Tables_number   1
_chemical_formula_structural   La7P12Pd17
_chemical_formula_sum   'La7 P12 Pd17'
_cell_volume   650.79373226
_cell_formula_units_Z   1
loop_
 _symmetry_equiv_pos_site_id
 _symmetry_equiv_pos_as_xyz
  1  'x, y, z'
loop_
 _atom_site_type_symbol
 _atom_site_label
 _atom_site_symmetry_multiplicity
 _atom_site_fract_x
 _atom_site_fract_y
 _atom_site_fract_z
 _atom_site_occupancy
  La  La0  1  0.50000000  0.50000000  0.50000000  1
  La  La1  1  0.36507800  0.36507800  0.00038600  1
  La  La2  1  0.63492200  0.63492200  0.99961400  1
  La  La3  1  0.23348900  0.23348900  0.31367800  1
  La  La4  1  0.76651100  0.76651100  0.68632200  1
  La  La5  1  0.41749000  0.41749000  0.26248800  1
  La  La6  1  0.58251000  0.58251000  0.73751200  1
  P  P0  1  0.06017600  0.06017600  0.92623500  1
  P  P1  1  0.93982400  0.93982400  0.07376500  1
  P  P2  1  0.88718900  0.88718900  0.82739600  1
  P  P3  1  0.11281100  0.11281100  0.17260400  1
  P  P4  1  0.18796600  0.18796600  0.61895600  1
  P  P5  1  0.81203400  0.81203400  0.38104400  1
  P  P6  1  0.36447100  0.36447100  0.57938500  1
  P  P7  1  0.63552900  0.63552900  0.42061500  1
  P  P8  1  0.01073200  0.01073200  0.67233100  1
  P  P9  1  0.98926800  0.98926800  0.32766900  1
  P  P10  1  0.23358200  0.23358200  0.88200000  1
  P  P11  1  0.76641800  0.76641800  0.11800000  1
  Pd  Pd0  1  0.83882500  0.83882500  0.19307400  1
  Pd  Pd1  1  0.16117500  0.16117500  0.80692600  1
  Pd  Pd2  1  0.02594100  0.02594100  0.12526200  1
  Pd  Pd3  1  0.97405900  0.97405900  0.87473800  1
  Pd  Pd4  1  0.89043300  0.89043300  0.45824300  1
  Pd  Pd5  1  0.10956700  0.10956700  0.54175700  1
  Pd  Pd6  1  0.50000000  0.50000000  0.00000000  1
  Pd  Pd7  1  0.54775800  0.54775800  0.25422000  1
  Pd  Pd8  1  0.45224200  0.45224200  0.74578000  1
  Pd  Pd9  1  0.29693300  0.29693300  0.48671000  1
  Pd  Pd10  1  0.70306700  0.70306700  0.51329000  1
  Pd  Pd11  1  0.66560900  0.66560900  0.22213400  1
  Pd  Pd12  1  0.33439100  0.33439100  0.77786600  1
  Pd  Pd13  1  0.90627800  0.90627800  0.64518000  1
  Pd  Pd14  1  0.09372200  0.09372200  0.35482000  1
  Pd  Pd15  1  0.21820800  0.21820800  0.07077800  1
  Pd  Pd16  1  0.78179200  0.78179200  0.92922200  1
loop_
_geom_bond_atom_site_label_1
_geom_bond_atom_site_label_2
_geom_bond_distance
_geom_bond_site_symmetry_2
La0 P6 3.110883 1_555
La0 P7 3.110883 1_555
La0 Pd8 3.134399 1_555
La0 Pd7 3.134399 1_555
La0 Pd13 3.180759 1_455
La0 Pd13 3.180759 1_545
La0 Pd14 3.180759 1_565
La0 Pd14 3.180759 1_655
La0 P9 3.230283 1_455
La0 P9 3.230283 1_545
La0 P8 3.230283 1_565
La0 P8 3.230283 1_655
La0 Pd4 3.623189 1_545
La0 Pd4 3.623189 1_455
La0 Pd5 3.623189 1_565
La0 Pd5 3.623189 1_655
La1 P2 3.039614 1_544
La1 P2 3.039614 1_454
La1 P11 3.137415 1_455
La1 P11 3.137415 1_545
La1 P1 3.180810 1_545
La1 P1 3.180810 1_455
La1 Pd0 3.226412 1_455
La1 Pd0 3.226412 1_545
La1 Pd3 3.314819 1_454
La1 Pd3 3.314819 1_544
La1 Pd16 3.316456 1_454
La1 Pd16 3.316456 1_544
La1 Pd6 3.339284 1_555
La1 Pd8 3.349444 1_554
La1 Pd15 3.390422 1_555
La1 Pd12 3.426237 1_554
La2 P3 3.039614 1_566
La2 P3 3.039614 1_656
La2 P10 3.137415 1_655
La2 P10 3.137415 1_565
La2 P0 3.180810 1_655
La2 P0 3.180810 1_565
La2 Pd1 3.226412 1_655
La2 Pd1 3.226412 1_565
La2 Pd2 3.314819 1_656
La2 Pd2 3.314819 1_566
La2 Pd15 3.316456 1_656
La2 Pd15 3.316456 1_566
La2 Pd6 3.339284 1_556
La2 Pd7 3.349444 1_556
La2 Pd16 3.390422 1_555
La2 Pd11 3.426237 1_556
La3 P7 3.097725 1_545
La3 P7 3.097725 1_455
La3 P5 3.203758 1_545
La3 P5 3.203758 1_455
La3 Pd11 3.205316 1_545
La3 Pd11 3.205316 1_455
La3 P11 3.242553 1_545
La3 P11 3.242553 1_455
La3 Pd0 3.244867 1_545
La3 Pd0 3.244867 1_455
La3 Pd10 3.287514 1_455
La3 Pd10 3.287514 1_545
La3 Pd14 3.288490 1_555
La3 Pd9 3.315003 1_555
La3 Pd5 3.460817 1_555
La3 Pd15 3.506897 1_555
La4 P6 3.097725 1_565
La4 P6 3.097725 1_655
La4 P4 3.203758 1_565
La4 P4 3.203758 1_655
La4 Pd12 3.205316 1_655
La4 Pd12 3.205316 1_565
La4 P10 3.242553 1_565
La4 P10 3.242553 1_655
La4 Pd1 3.244867 1_655
La4 Pd1 3.244867 1_565
La4 Pd9 3.287514 1_655
La4 Pd9 3.287514 1_565
La4 Pd13 3.288490 1_555
La4 Pd10 3.315003 1_555
La4 Pd4 3.460817 1_555
La4 Pd16 3.506897 1_555
La5 P9 3.070303 1_455
La5 P9 3.070303 1_545
La5 Pd7 3.184605 1_555
La5 P1 3.197539 1_545
La5 P1 3.197539 1_455
La5 Pd0 3.220645 1_545
La5 Pd0 3.220645 1_455
La5 P5 3.240967 1_455
La5 P5 3.240967 1_545
La5 Pd4 3.255846 1_455
La5 Pd4 3.255846 1_545
La5 Pd2 3.344737 1_565
La5 Pd2 3.344737 1_655
La5 Pd9 3.385339 1_555
La5 Pd6 3.412641 1_555
La6 P8 3.070303 1_655
La6 P8 3.070303 1_565
La6 Pd8 3.184605 1_555
La6 P0 3.197539 1_565
La6 P0 3.197539 1_655
La6 Pd1 3.220645 1_565
La6 Pd1 3.220645 1_655
La6 P4 3.240967 1_655
La6 P4 3.240967 1_565
La6 Pd5 3.255846 1_565
La6 Pd5 3.255846 1_655
La6 Pd3 3.344737 1_455
La6 Pd3 3.344737 1_545
La6 Pd10 3.385339 1_555
La6 Pd6 3.412641 1_556
P0 Pd1 2.416581 1_555
P0 Pd3 2.489698 1_445
P0 Pd6 2.521048 1_456
P0 Pd6 2.521048 1_546
P0 Pd2 2.544077 1_556
P1 Pd0 2.416581 1_555
P1 Pd2 2.489698 1_665
P1 Pd6 2.521048 1_565
P1 Pd6 2.521048 1_655
P1 Pd3 2.544077 1_554
P2 Pd13 2.371437 1_555
P2 Pd16 2.450289 1_555
P2 Pd3 2.473302 1_555
P2 Pd8 2.595484 1_565
P2 Pd8 2.595484 1_655
P2 Pd12 2.665002 1_655
P2 Pd12 2.665002 1_565
P3 Pd14 2.371437 1_555
P3 Pd15 2.450289 1_555
P3 Pd2 2.473302 1_555
P3 Pd7 2.595484 1_545
P3 Pd7 2.595484 1_455
P3 Pd11 2.665002 1_545
P3 Pd11 2.665002 1_455
P4 Pd1 2.416957 1_555
P4 Pd10 2.469070 1_545
P4 Pd10 2.469070 1_455
P4 Pd5 2.542820 1_555
P4 Pd9 2.621607 1_555
P5 Pd0 2.416957 1_555
P5 Pd9 2.469070 1_655
P5 Pd9 2.469070 1_565
P5 Pd4 2.542820 1_555
P5 Pd10 2.621607 1_555
P6 Pd9 2.458897 1_555
P6 Pd12 2.546649 1_555
P6 Pd4 2.575857 1_545
P6 Pd4 2.575857 1_455
P6 Pd13 2.618307 1_545
P6 Pd13 2.618307 1_455
P7 Pd10 2.458897 1_555
P7 Pd11 2.546649 1_555
P7 Pd5 2.575857 1_655
P7 Pd5 2.575857 1_565
P7 Pd14 2.618307 1_565
P7 Pd14 2.618307 1_655
P8 Pd5 2.426428 1_555
P8 Pd8 2.502221 1_455
P8 Pd8 2.502221 1_545
P8 Pd3 2.584225 1_445
P8 Pd13 2.750429 1_445
P9 Pd4 2.426428 1_555
P9 Pd7 2.502221 1_565
P9 Pd7 2.502221 1_655
P9 Pd2 2.584225 1_665
P9 Pd14 2.750429 1_665
P10 Pd12 2.361051 1_555
P10 Pd1 2.385559 1_555
P10 Pd15 2.481155 1_556
P10 Pd16 2.586134 1_455
P10 Pd16 2.586134 1_545
P11 Pd11 2.361051 1_555
P11 Pd0 2.385559 1_555
P11 Pd16 2.481155 1_554
P11 Pd15 2.586134 1_565
P11 Pd15 2.586134 1_655
Pd2 Pd7 2.902730 1_455
Pd2 Pd7 2.902730 1_545
Pd2 Pd6 2.912236 1_545
Pd2 Pd6 2.912236 1_455
Pd3 Pd8 2.902730 1_655
Pd3 Pd8 2.902730 1_565
Pd3 Pd6 2.912236 1_656
Pd3 Pd6 2.912236 1_566
Pd4 Pd9 3.012878 1_565
Pd4 Pd9 3.012878 1_655
Pd10 Pd5 3.012878 1_565
Pd10 Pd5 3.012878 1_655
Pd10 Pd9 3.023724 1_655
Pd10 Pd9 3.023724 1_565
Pd11 Pd7 2.781197 1_555
Pd11 Pd15 2.869637 1_655
Pd11 Pd15 2.869637 1_565
Pd11 Pd14 2.879784 1_655
Pd11 Pd14 2.879784 1_565
Pd12 Pd8 2.781197 1_555
Pd12 Pd16 2.869637 1_455
Pd12 Pd16 2.869637 1_545
Pd12 Pd13 2.879784 1_455
Pd12 Pd13 2.879784 1_545
Pd13 Pd4 2.747884 1_555
Pd13 Pd8 2.943256 1_565
Pd13 Pd8 2.943256 1_655
Pd14 Pd5 2.747884 1_555
Pd14 Pd7 2.943256 1_455
Pd14 Pd7 2.943256 1_545
Pd15 Pd16 2.864257 1_544
Pd15 Pd16 2.864257 1_454
