# generated using pymatgen
data_AgC3N3O
_symmetry_space_group_name_H-M   'P 1'
_cell_length_a   8.04371800
_cell_length_b   10.41635900
_cell_length_c   11.69432200
_cell_angle_alpha   90.00000000
_cell_angle_beta   90.00000000
_cell_angle_gamma   90.00000000
_symmetry_Int_Tables_number   1
_chemical_formula_structural   AgC3N3O
_chemical_formula_sum   'Ag8 C24 N24 O8'
_cell_volume   979.82343793
_cell_formula_units_Z   8
loop_
 _symmetry_equiv_pos_site_id
 _symmetry_equiv_pos_as_xyz
  1  'x, y, z'
loop_
 _atom_site_type_symbol
 _atom_site_label
 _atom_site_symmetry_multiplicity
 _atom_site_fract_x
 _atom_site_fract_y
 _atom_site_fract_z
 _atom_site_occupancy
  Ag  Ag0  1  0.21383000  0.07851500  0.00489500  1
  Ag  Ag1  1  0.71383000  0.42148500  0.00489500  1
  Ag  Ag2  1  0.78617000  0.92148500  0.99510500  1
  Ag  Ag3  1  0.28617000  0.57851500  0.99510500  1
  Ag  Ag4  1  0.21383000  0.57851500  0.49510500  1
  Ag  Ag5  1  0.28617000  0.07851500  0.50489500  1
  Ag  Ag6  1  0.78617000  0.42148500  0.50489500  1
  Ag  Ag7  1  0.71383000  0.92148500  0.49510500  1
  C  C0  1  0.26103600  0.80310400  0.20278900  1
  C  C1  1  0.43011700  0.89502300  0.84363300  1
  C  C2  1  0.73375600  0.12720200  0.19499400  1
  C  C3  1  0.76103600  0.19689600  0.29721100  1
  C  C4  1  0.73896400  0.69689600  0.70278900  1
  C  C5  1  0.43011700  0.39502300  0.65636700  1
  C  C6  1  0.06988300  0.89502300  0.34363300  1
  C  C7  1  0.93011700  0.60497700  0.84363300  1
  C  C8  1  0.76624400  0.12720200  0.69499400  1
  C  C9  1  0.23896400  0.30310400  0.79721100  1
  C  C10  1  0.23375600  0.37279800  0.19499400  1
  C  C11  1  0.73896400  0.19689600  0.79721100  1
  C  C12  1  0.26624400  0.37279800  0.69499400  1
  C  C13  1  0.56988300  0.60497700  0.34363300  1
  C  C14  1  0.23896400  0.80310400  0.70278900  1
  C  C15  1  0.76624400  0.62720200  0.80500600  1
  C  C16  1  0.06988300  0.39502300  0.15636700  1
  C  C17  1  0.76103600  0.69689600  0.20278900  1
  C  C18  1  0.73375600  0.62720200  0.30500600  1
  C  C19  1  0.56988300  0.10497700  0.15636700  1
  C  C20  1  0.23375600  0.87279800  0.30500600  1
  C  C21  1  0.93011700  0.10497700  0.65636700  1
  C  C22  1  0.26103600  0.30310400  0.29721100  1
  C  C23  1  0.26624400  0.87279800  0.80500600  1
  N  N0  1  0.56296900  0.91609100  0.87914000  1
  N  N1  1  0.64222500  0.07854100  0.62884100  1
  N  N2  1  0.35777500  0.42145900  0.12884100  1
  N  N3  1  0.21234400  0.24794600  0.88252700  1
  N  N4  1  0.35777500  0.92145900  0.37115900  1
  N  N5  1  0.71234400  0.75205400  0.61747300  1
  N  N6  1  0.06296900  0.58390900  0.87914000  1
  N  N7  1  0.14222500  0.42145900  0.62884100  1
  N  N8  1  0.78765600  0.25205400  0.38252700  1
  N  N9  1  0.71234400  0.25205400  0.88252700  1
  N  N10  1  0.06296900  0.08390900  0.62086000  1
  N  N11  1  0.85777500  0.07854100  0.12884100  1
  N  N12  1  0.28765600  0.74794600  0.11747300  1
  N  N13  1  0.93703100  0.91609100  0.37914000  1
  N  N14  1  0.78765600  0.75205400  0.11747300  1
  N  N15  1  0.43703100  0.58390900  0.37914000  1
  N  N16  1  0.14222500  0.92145900  0.87115900  1
  N  N17  1  0.56296900  0.41609100  0.62086000  1
  N  N18  1  0.28765600  0.24794600  0.38252700  1
  N  N19  1  0.21234400  0.74794600  0.61747300  1
  N  N20  1  0.85777500  0.57854100  0.37115900  1
  N  N21  1  0.64222500  0.57854100  0.87115900  1
  N  N22  1  0.93703100  0.41609100  0.12086000  1
  N  N23  1  0.43703100  0.08390900  0.12086000  1
  O  O0  1  0.50753900  0.89793400  0.34211700  1
  O  O1  1  0.00753900  0.10206600  0.15788300  1
  O  O2  1  0.00753900  0.60206600  0.34211700  1
  O  O3  1  0.49246100  0.60206600  0.84211700  1
  O  O4  1  0.99246100  0.39793400  0.65788300  1
  O  O5  1  0.99246100  0.89793400  0.84211700  1
  O  O6  1  0.50753900  0.39793400  0.15788300  1
  O  O7  1  0.49246100  0.10206600  0.65788300  1
loop_
_geom_bond_atom_site_label_1
_geom_bond_atom_site_label_2
_geom_bond_distance
_geom_bond_site_symmetry_2
Ag0 N23 2.250686 1_555
Ag0 N3 2.272145 1_554
Ag0 N16 2.335385 1_544
Ag0 O1 2.452439 1_555
Ag1 N22 2.250686 1_555
Ag1 N9 2.272145 1_554
Ag1 N21 2.335385 1_554
Ag1 O6 2.452439 1_555
Ag2 N0 2.250686 1_555
Ag2 N14 2.272145 1_556
Ag2 N11 2.335385 1_566
Ag2 O5 2.452439 1_555
Ag3 N6 2.250686 1_555
Ag3 N12 2.272145 1_556
Ag3 N2 2.335385 1_556
Ag3 O3 2.452439 1_555
Ag4 N15 2.250686 1_555
Ag4 N19 2.272145 1_555
Ag4 N7 2.335385 1_555
Ag4 O2 2.452439 1_555
Ag5 N10 2.250686 1_555
Ag5 N18 2.272145 1_555
Ag5 N4 2.335385 1_545
Ag5 O7 2.452439 1_555
Ag6 N17 2.250686 1_555
Ag6 N8 2.272145 1_555
Ag6 N20 2.335385 1_555
Ag6 O4 2.452439 1_555
Ag7 N13 2.250686 1_555
Ag7 N5 2.272145 1_555
Ag7 N1 2.335385 1_565
Ag7 O0 2.452439 1_555
C0 N12 1.171060 1_555
C0 C20 1.415644 1_555
C1 N0 1.167276 1_555
C1 C23 1.412500 1_555
C2 N11 1.360349 1_555
C2 C3 1.415644 1_555
C3 N8 1.171060 1_555
C4 N5 1.171060 1_555
C5 N17 1.167276 1_555
C6 N13 1.167276 1_455
C7 N6 1.167276 1_655
C8 N1 1.360349 1_555
C9 N3 1.171060 1_555
C10 N2 1.360349 1_555
C10 C16 1.412500 1_555
C10 C22 1.415644 1_555
C11 N9 1.171060 1_555
C11 C8 1.415644 1_555
C12 N7 1.360349 1_555
C12 C5 1.412500 1_555
C12 C9 1.415644 1_555
C13 N15 1.167276 1_555
C13 C18 1.412500 1_555
C14 N19 1.171060 1_555
C14 C23 1.415644 1_555
C15 N21 1.360349 1_555
C15 C7 1.412500 1_555
C15 C4 1.415644 1_555
C16 N22 1.167276 1_455
C17 N14 1.171060 1_555
C17 C18 1.415644 1_555
C18 N20 1.360349 1_555
C19 N23 1.167276 1_555
C19 C2 1.412500 1_555
C20 N4 1.360349 1_555
C20 C6 1.412500 1_555
C21 N10 1.167276 1_655
C21 C8 1.412500 1_555
C22 N18 1.171060 1_555
C23 N16 1.360349 1_555
N1 O7 1.275381 1_555
N2 O6 1.275381 1_555
N4 O0 1.275381 1_555
N7 O4 1.275381 1_455
N11 O1 1.275381 1_655
N16 O5 1.275381 1_455
N20 O2 1.275381 1_655
N21 O3 1.275381 1_555
