# generated using pymatgen
data_SeBr4
_symmetry_space_group_name_H-M   'P 1'
_cell_length_a   10.76156417
_cell_length_b   10.76156417
_cell_length_c   31.50138100
_cell_angle_alpha   90.00000000
_cell_angle_beta   90.00000000
_cell_angle_gamma   120.00000102
_symmetry_Int_Tables_number   1
_chemical_formula_structural   SeBr4
_chemical_formula_sum   'Se16 Br64'
_cell_volume   3159.44660147
_cell_formula_units_Z   16
loop_
 _symmetry_equiv_pos_site_id
 _symmetry_equiv_pos_as_xyz
  1  'x, y, z'
loop_
 _atom_site_type_symbol
 _atom_site_label
 _atom_site_symmetry_multiplicity
 _atom_site_fract_x
 _atom_site_fract_y
 _atom_site_fract_z
 _atom_site_occupancy
  Se  Se0  1  0.95834100  0.21822700  0.91399800  1
  Se  Se1  1  0.92166000  0.55923900  0.60498100  1
  Se  Se2  1  0.25988600  0.04165900  0.91399800  1
  Se  Se3  1  0.00000000  0.00000000  0.29871700  1
  Se  Se4  1  0.55923900  0.92166000  0.10498100  1
  Se  Se5  1  0.74011400  0.78177300  0.41399800  1
  Se  Se6  1  0.21822700  0.95834100  0.41399800  1
  Se  Se7  1  0.04165900  0.25988600  0.41399800  1
  Se  Se8  1  0.63757900  0.07834000  0.60498100  1
  Se  Se9  1  0.36242100  0.44076100  0.10498100  1
  Se  Se10  1  0.00000000  0.00000000  0.79871700  1
  Se  Se11  1  0.33333300  0.66666700  0.21942100  1
  Se  Se12  1  0.66666700  0.33333300  0.71942100  1
  Se  Se13  1  0.07834000  0.63757900  0.10498100  1
  Se  Se14  1  0.44076100  0.36242100  0.60498100  1
  Se  Se15  1  0.78177300  0.74011400  0.91399800  1
  Br  Br0  1  0.43767200  0.92237200  0.56033200  1
  Br  Br1  1  0.92237200  0.43767200  0.06033200  1
  Br  Br2  1  0.48470000  0.56232800  0.56033200  1
  Br  Br3  1  0.27841100  0.86115300  0.95417800  1
  Br  Br4  1  0.85666700  0.30323000  0.65867500  1
  Br  Br5  1  0.22045700  0.18848600  0.36132900  1
  Br  Br6  1  0.99148900  0.18711700  0.25941400  1
  Br  Br7  1  0.33333300  0.66666700  0.05879900  1
  Br  Br8  1  0.58274300  0.72158900  0.95417800  1
  Br  Br9  1  0.81288300  0.80437200  0.25941400  1
  Br  Br10  1  0.00851100  0.19562800  0.75941400  1
  Br  Br11  1  0.88074400  0.49510800  0.75853100  1
  Br  Br12  1  0.91766900  0.35636800  0.86188500  1
  Br  Br13  1  0.50489200  0.38563700  0.75853100  1
  Br  Br14  1  0.81151400  0.03197100  0.36132900  1
  Br  Br15  1  0.74344400  0.92417400  0.06198000  1
  Br  Br16  1  0.08233100  0.43869800  0.36188500  1
  Br  Br17  1  0.66666700  0.33333300  0.55879900  1
  Br  Br18  1  0.89911300  0.61446100  0.15467200  1
  Br  Br19  1  0.75849600  0.16711800  0.95953200  1
  Br  Br20  1  0.59137800  0.83288200  0.45953200  1
  Br  Br21  1  0.49510800  0.88074400  0.25853100  1
  Br  Br22  1  0.51530000  0.07762800  0.06033200  1
  Br  Br23  1  0.38563700  0.50489200  0.25853100  1
  Br  Br24  1  0.72158900  0.58274300  0.45417800  1
  Br  Br25  1  0.07762800  0.51530000  0.56033200  1
  Br  Br26  1  0.64363200  0.56130200  0.86188500  1
  Br  Br27  1  0.44656300  0.14333300  0.65867500  1
  Br  Br28  1  0.00000000  0.00000000  0.46164200  1
  Br  Br29  1  0.11925600  0.61436300  0.25853100  1
  Br  Br30  1  0.10088700  0.71534800  0.65467200  1
  Br  Br31  1  0.18711700  0.99148900  0.75941400  1
  Br  Br32  1  0.00000000  0.00000000  0.96164200  1
  Br  Br33  1  0.83288200  0.59137800  0.95953200  1
  Br  Br34  1  0.35636800  0.91766900  0.36188500  1
  Br  Br35  1  0.19562800  0.00851100  0.25941400  1
  Br  Br36  1  0.41725700  0.13884700  0.45417800  1
  Br  Br37  1  0.61446100  0.89911300  0.65467200  1
  Br  Br38  1  0.30323000  0.85666700  0.15867500  1
  Br  Br39  1  0.18073000  0.25655600  0.06198000  1
  Br  Br40  1  0.24150400  0.40862200  0.45953200  1
  Br  Br41  1  0.56130200  0.64363200  0.36188500  1
  Br  Br42  1  0.28465200  0.38553900  0.65467200  1
  Br  Br43  1  0.56232800  0.48470000  0.06033200  1
  Br  Br44  1  0.25655600  0.18073000  0.56198000  1
  Br  Br45  1  0.18848600  0.22045700  0.86132900  1
  Br  Br46  1  0.43869800  0.08233100  0.86188500  1
  Br  Br47  1  0.69677000  0.55343700  0.65867500  1
  Br  Br48  1  0.61436300  0.11925600  0.75853100  1
  Br  Br49  1  0.71534800  0.10088700  0.15467200  1
  Br  Br50  1  0.14333300  0.44656300  0.15867500  1
  Br  Br51  1  0.81927000  0.07582600  0.56198000  1
  Br  Br52  1  0.55343700  0.69677000  0.15867500  1
  Br  Br53  1  0.07582600  0.81927000  0.06198000  1
  Br  Br54  1  0.38553900  0.28465200  0.15467200  1
  Br  Br55  1  0.77954300  0.96802900  0.86132900  1
  Br  Br56  1  0.96802900  0.77954300  0.36132900  1
  Br  Br57  1  0.03197100  0.81151400  0.86132900  1
  Br  Br58  1  0.16711800  0.75849600  0.45953200  1
  Br  Br59  1  0.92417400  0.74344400  0.56198000  1
  Br  Br60  1  0.13884700  0.41725700  0.95417800  1
  Br  Br61  1  0.80437200  0.81288300  0.75941400  1
  Br  Br62  1  0.86115300  0.27841100  0.45417800  1
  Br  Br63  1  0.40862200  0.24150400  0.95953200  1
loop_
_geom_bond_atom_site_label_1
_geom_bond_atom_site_label_2
_geom_bond_distance
_geom_bond_site_symmetry_2
Br0 Se8 2.410962 1_565
Br1 Se13 2.410962 1_655
Br2 Se14 2.410962 1_555
Br3 Se2 2.408832 1_565
Br4 Se8 2.927619 1_555
Br4 Se12 2.934267 1_555
Br4 Se1 3.002254 1_555
Br5 Se7 2.919584 1_555
Br5 Se3 2.970002 1_555
Br5 Se6 2.971203 1_545
Br6 Se3 2.404285 1_655
Br7 Se13 2.980879 1_555
Br7 Se4 2.980882 1_555
Br7 Se9 2.980888 1_555
Br8 Se15 2.408823 1_555
Br9 Se3 2.404285 1_665
Br10 Se10 2.404285 1_555
Br11 Se12 2.417743 1_555
Br12 Se0 2.397338 1_555
Br13 Se12 2.417756 1_555
Br14 Se5 2.919584 1_545
Br14 Se3 2.970002 1_655
Br14 Se7 2.971203 1_655
Br15 Se4 2.389909 1_555
Br16 Se7 2.397331 1_555
Br17 Se8 2.980879 1_555
Br17 Se1 2.980882 1_555
Br17 Se14 2.980888 1_555
Br18 Se13 2.398426 1_655
Br19 Se0 2.408809 1_555
Br20 Se5 2.408809 1_555
Br21 Se11 2.417743 1_555
Br22 Se4 2.410962 1_545
Br23 Se11 2.417756 1_555
Br24 Se5 2.408823 1_555
Br25 Se1 2.410962 1_455
Br26 Se15 2.397333 1_555
Br27 Se14 2.927619 1_555
Br27 Se12 2.934272 1_555
Br27 Se8 3.002254 1_555
Br28 Se5 3.003611 1_445
Br28 Se7 3.003611 1_555
Br28 Se6 3.003611 1_545
Br29 Se11 2.417738 1_555
Br30 Se1 2.398426 1_455
Br31 Se10 2.404285 1_565
Br32 Se15 3.003611 1_445
Br32 Se2 3.003611 1_555
Br32 Se0 3.003611 1_455
Br33 Se15 2.408809 1_555
Br34 Se6 2.397338 1_555
Br35 Se3 2.404285 1_555
Br36 Se6 2.408827 1_545
Br37 Se8 2.398426 1_565
Br38 Se13 2.927619 1_555
Br38 Se11 2.934267 1_555
Br38 Se4 3.002254 1_555
Br39 Se9 2.389909 1_555
Br40 Se7 2.408809 1_555
Br41 Se5 2.397333 1_555
Br42 Se14 2.398426 1_555
Br43 Se9 2.410962 1_555
Br44 Se14 2.389909 1_555
Br45 Se2 2.919584 1_555
Br45 Se10 2.970002 1_555
Br45 Se0 2.971203 1_455
Br46 Se2 2.397331 1_555
Br47 Se1 2.927619 1_555
Br47 Se12 2.934275 1_555
Br47 Se14 3.002254 1_555
Br48 Se12 2.417738 1_555
Br49 Se4 2.398426 1_545
Br50 Se9 2.927619 1_555
Br50 Se11 2.934272 1_555
Br50 Se13 3.002254 1_555
Br51 Se8 2.389909 1_555
Br52 Se4 2.927619 1_555
Br52 Se11 2.934275 1_555
Br52 Se9 3.002254 1_555
Br53 Se13 2.389909 1_555
Br54 Se9 2.398426 1_555
Br55 Se0 2.919584 1_565
Br55 Se10 2.970002 1_665
Br55 Se15 2.971203 1_555
Br56 Se6 2.919584 1_655
Br56 Se3 2.970002 1_665
Br56 Se5 2.971203 1_555
Br57 Se15 2.919584 1_455
Br57 Se10 2.970002 1_565
Br57 Se2 2.971203 1_565
Br58 Se6 2.408809 1_555
Br59 Se1 2.389909 1_555
Br60 Se0 2.408827 1_455
Br61 Se10 2.404285 1_665
Br62 Se7 2.408832 1_655
Br63 Se2 2.408809 1_555
