# generated using pymatgen
data_CdI2
_symmetry_space_group_name_H-M   'P 1'
_cell_length_a   4.28800467
_cell_length_b   4.28800454
_cell_length_c   50.93885075
_cell_angle_alpha   90.00000000
_cell_angle_beta   90.00000000
_cell_angle_gamma   120.00000092
_symmetry_Int_Tables_number   1
_chemical_formula_structural   CdI2
_chemical_formula_sum   'Cd7 I14'
_cell_volume   811.12961185
_cell_formula_units_Z   7
loop_
 _symmetry_equiv_pos_site_id
 _symmetry_equiv_pos_as_xyz
  1  'x, y, z'
loop_
 _atom_site_type_symbol
 _atom_site_label
 _atom_site_symmetry_multiplicity
 _atom_site_fract_x
 _atom_site_fract_y
 _atom_site_fract_z
 _atom_site_occupancy
  Cd  Cd0  1  0.00000000  -0.00000000  0.17857004  1
  Cd  Cd1  1  0.33333300  0.66666700  0.03571177  1
  Cd  Cd2  1  0.33333300  0.66666700  0.89286315  1
  Cd  Cd3  1  0.00000000  -0.00000000  0.75000208  1
  Cd  Cd4  1  0.33333300  0.66666700  0.32143682  1
  Cd  Cd5  1  0.33333300  0.66666700  0.46428212  1
  Cd  Cd6  1  0.00000000  -0.00000000  0.60715306  1
  I  I0  1  0.66666700  0.33333300  0.21237547  1
  I  I1  1  0.00000000  -0.00000000  0.43047734  1
  I  I2  1  0.33333300  0.66666700  0.57333705  1
  I  I3  1  0.33333300  0.66666700  0.71619535  1
  I  I4  1  0.66666700  0.33333300  0.92666130  1
  I  I5  1  0.66666700  0.33333300  0.35523181  1
  I  I6  1  0.00000000  -0.00000000  0.85905330  1
  I  I7  1  0.66666700  0.33333300  0.64094955  1
  I  I8  1  0.33333300  0.66666700  0.14476323  1
  I  I9  1  0.66666700  0.33333300  0.49808836  1
  I  I10  1  0.66666700  0.33333300  0.78380330  1
  I  I11  1  0.66666700  0.33333300  0.06951842  1
  I  I12  1  0.00000000  -0.00000000  0.00190827  1
  I  I13  1  0.00000000  -0.00000000  0.28762122  1
loop_
_geom_bond_atom_site_label_1
_geom_bond_atom_site_label_2
_geom_bond_distance
_geom_bond_site_symmetry_2
Cd0 I0 3.015676 1_455
Cd0 I0 3.015679 1_445
Cd0 I0 3.015679 1_555
Cd0 I8 3.015716 1_545
Cd0 I8 3.015719 1_555
Cd0 I8 3.015719 1_445
Cd1 I12 3.015620 1_565
Cd1 I12 3.015623 1_555
Cd1 I12 3.015623 1_665
Cd1 I11 3.015711 1_565
Cd1 I11 3.015711 1_455
Cd1 I11 3.015717 1_555
Cd2 I4 3.015464 1_565
Cd2 I4 3.015464 1_455
Cd2 I4 3.015470 1_555
Cd2 I6 3.015804 1_565
Cd2 I6 3.015807 1_555
Cd2 I6 3.015807 1_665
Cd3 I10 3.015553 1_455
Cd3 I10 3.015556 1_445
Cd3 I10 3.015556 1_555
Cd3 I3 3.015714 1_545
Cd3 I3 3.015716 1_555
Cd3 I3 3.015717 1_445
Cd4 I5 3.015372 1_565
Cd4 I5 3.015372 1_455
Cd4 I5 3.015378 1_555
Cd4 I13 3.015972 1_565
Cd4 I13 3.015975 1_555
Cd4 I13 3.015975 1_665
Cd5 I1 3.015657 1_565
Cd5 I1 3.015660 1_555
Cd5 I1 3.015660 1_665
Cd5 I9 3.015699 1_565
Cd5 I9 3.015699 1_455
Cd5 I9 3.015705 1_555
Cd6 I7 3.015416 1_455
Cd6 I7 3.015419 1_445
Cd6 I7 3.015419 1_555
Cd6 I2 3.015983 1_545
Cd6 I2 3.015986 1_555
Cd6 I2 3.015987 1_445
