# generated using pymatgen
data_SrLiEuTeO6
_symmetry_space_group_name_H-M   'P 1'
_cell_length_a   5.80837600
_cell_length_b   5.65758200
_cell_length_c   9.64954510
_cell_angle_alpha   54.55878049
_cell_angle_beta   90.00000000
_cell_angle_gamma   90.00000000
_symmetry_Int_Tables_number   1
_chemical_formula_structural   SrLiEuTeO6
_chemical_formula_sum   'Sr2 Li2 Eu2 Te2 O12'
_cell_volume   258.34253387
_cell_formula_units_Z   2
loop_
 _symmetry_equiv_pos_site_id
 _symmetry_equiv_pos_as_xyz
  1  'x, y, z'
loop_
 _atom_site_type_symbol
 _atom_site_label
 _atom_site_symmetry_multiplicity
 _atom_site_fract_x
 _atom_site_fract_y
 _atom_site_fract_z
 _atom_site_occupancy
  Sr  Sr0  1  0.29218500  0.74245300  0.24987400  1
  Sr  Sr1  1  0.70781500  0.74245300  0.74987400  1
  Li  Li0  1  0.25495400  0.50110300  0.99916200  1
  Li  Li1  1  0.74504600  0.50110300  0.49916200  1
  Eu  Eu0  1  0.80701300  0.26143600  0.24787900  1
  Eu  Eu1  1  0.19298700  0.26143600  0.74787900  1
  Te  Te0  1  0.74774100  0.99996800  0.00017200  1
  Te  Te1  1  0.25225900  0.99996800  0.50017200  1
  O  O0  1  0.78040300  0.17136600  0.75858500  1
  O  O1  1  0.01885800  0.76172300  0.04166900  1
  O  O2  1  0.05167500  0.30821400  0.46459300  1
  O  O3  1  0.56667900  0.67001100  0.04722500  1
  O  O4  1  0.53323000  0.22653600  0.45142900  1
  O  O5  1  0.27197300  0.85719100  0.73941200  1
  O  O6  1  0.21959700  0.17136600  0.25858500  1
  O  O7  1  0.98114200  0.76172300  0.54166900  1
  O  O8  1  0.94832500  0.30821400  0.96459300  1
  O  O9  1  0.43332100  0.67001100  0.54722500  1
  O  O10  1  0.46677000  0.22653600  0.95142900  1
  O  O11  1  0.72802700  0.85719100  0.23941200  1
loop_
_geom_bond_atom_site_label_1
_geom_bond_atom_site_label_2
_geom_bond_distance
_geom_bond_site_symmetry_2
Li0 O6 2.091166 1_556
Li0 O5 2.120059 1_555
Li0 O8 2.212774 1_455
Li0 O3 2.218246 1_556
Li0 O1 2.219073 1_556
Li0 O10 2.229035 1_555
Li1 O0 2.091166 1_555
Li1 O11 2.120059 1_555
Li1 O2 2.212774 1_655
Li1 O9 2.218246 1_555
Li1 O7 2.219073 1_555
Li1 O4 2.229035 1_555
Eu0 O11 2.380012 1_545
Eu0 O3 2.418737 1_555
Eu0 O6 2.439719 1_655
Eu0 O4 2.444587 1_555
Eu0 O1 2.636866 1_655
Eu0 O2 2.665418 1_655
Eu0 O8 2.716101 1_554
Eu0 O7 2.785247 1_545
Eu1 O5 2.380012 1_545
Eu1 O9 2.418737 1_555
Eu1 O0 2.439719 1_455
Eu1 O10 2.444587 1_555
Eu1 O7 2.636866 1_455
Eu1 O8 2.665418 1_455
Eu1 O2 2.716101 1_555
Eu1 O1 2.785247 1_546
O0 Te0 1.946578 1_546
O0 Sr1 2.511936 1_545
O1 Te0 1.957304 1_455
O1 Sr0 2.512909 1_555
O2 Te1 1.955037 1_545
O2 Sr0 2.525221 1_555
O3 Te0 1.952944 1_555
O3 Sr0 2.731904 1_555
O3 Sr1 2.776522 1_554
O4 Te1 1.956649 1_545
O4 Sr1 2.770478 1_545
O4 Sr0 2.771076 1_555
O5 Te1 1.957647 1_555
O5 Sr1 2.600815 1_555
O6 Te1 1.946578 1_545
O6 Sr0 2.511936 1_545
O7 Te1 1.957304 1_655
O7 Sr1 2.512909 1_555
O8 Te0 1.955037 1_546
O8 Sr1 2.525221 1_555
O9 Te1 1.952944 1_555
O9 Sr1 2.731904 1_555
O9 Sr0 2.776522 1_555
O10 Te0 1.956649 1_546
O10 Sr0 2.770478 1_546
O10 Sr1 2.771076 1_555
O11 Te0 1.957647 1_555
O11 Sr0 2.600815 1_555
