# generated using pymatgen
data_Ca5MnPb3
_symmetry_space_group_name_H-M   'P 1'
_cell_length_a   9.51820893
_cell_length_b   9.51820893
_cell_length_c   6.92257500
_cell_angle_alpha   90.00000000
_cell_angle_beta   90.00000000
_cell_angle_gamma   120.00000646
_symmetry_Int_Tables_number   1
_chemical_formula_structural   Ca5MnPb3
_chemical_formula_sum   'Ca10 Mn2 Pb6'
_cell_volume   543.13618839
_cell_formula_units_Z   2
loop_
 _symmetry_equiv_pos_site_id
 _symmetry_equiv_pos_as_xyz
  1  'x, y, z'
loop_
 _atom_site_type_symbol
 _atom_site_label
 _atom_site_symmetry_multiplicity
 _atom_site_fract_x
 _atom_site_fract_y
 _atom_site_fract_z
 _atom_site_occupancy
  Ca  Ca0  1  0.70767500  0.00000000  0.75000000  1
  Ca  Ca1  1  0.29232500  0.00000000  0.25000000  1
  Ca  Ca2  1  0.29232500  0.29232500  0.75000000  1
  Ca  Ca3  1  0.00000000  0.70767500  0.75000000  1
  Ca  Ca4  1  0.33333300  0.66666700  0.50000000  1
  Ca  Ca5  1  0.66666700  0.33333300  0.50000000  1
  Ca  Ca6  1  0.70767500  0.70767500  0.25000000  1
  Ca  Ca7  1  0.00000000  0.29232500  0.25000000  1
  Ca  Ca8  1  0.33333300  0.66666700  0.00000000  1
  Ca  Ca9  1  0.66666700  0.33333300  0.00000000  1
  Mn  Mn0  1  0.00000000  0.00000000  0.00000000  1
  Mn  Mn1  1  0.00000000  0.00000000  0.50000000  1
  Pb  Pb0  1  0.00000000  0.63752200  0.25000000  1
  Pb  Pb1  1  0.00000000  0.36247800  0.75000000  1
  Pb  Pb2  1  0.36247800  0.00000000  0.75000000  1
  Pb  Pb3  1  0.36247800  0.36247800  0.25000000  1
  Pb  Pb4  1  0.63752200  0.00000000  0.25000000  1
  Pb  Pb5  1  0.63752200  0.63752200  0.75000000  1
loop_
_geom_bond_atom_site_label_1
_geom_bond_atom_site_label_2
_geom_bond_distance
_geom_bond_site_symmetry_2
Ca0 Pb1 3.169475 1_655
Ca0 Pb5 3.169475 1_545
Ca0 Mn0 3.276726 1_656
Ca0 Mn1 3.276726 1_655
Ca0 Pb2 3.285657 1_555
Ca0 Pb4 3.525106 1_556
Ca0 Pb4 3.525106 1_555
Ca1 Pb0 3.169475 1_545
Ca1 Pb3 3.169475 1_555
Ca1 Mn1 3.276726 1_555
Ca1 Mn0 3.276726 1_555
Ca1 Pb4 3.285657 1_555
Ca1 Pb2 3.525106 1_555
Ca1 Pb2 3.525106 1_554
Ca2 Pb2 3.169475 1_555
Ca2 Pb1 3.169475 1_555
Ca2 Mn1 3.276726 1_555
Ca2 Mn0 3.276726 1_556
Ca2 Pb5 3.285657 1_555
Ca2 Pb3 3.525106 1_555
Ca2 Pb3 3.525106 1_556
Ca3 Pb2 3.169475 1_565
Ca3 Pb5 3.169475 1_455
Ca3 Mn0 3.276726 1_566
Ca3 Mn1 3.276726 1_565
Ca3 Pb1 3.285657 1_555
Ca3 Pb0 3.525106 1_555
Ca3 Pb0 3.525106 1_556
Ca4 Pb2 3.501168 1_565
Ca4 Pb0 3.501168 1_555
Ca4 Pb4 3.501171 1_565
Ca4 Pb1 3.501171 1_555
Ca4 Pb3 3.501176 1_555
Ca4 Pb5 3.501176 1_555
Ca5 Pb4 3.501168 1_555
Ca5 Pb1 3.501168 1_655
Ca5 Pb2 3.501171 1_555
Ca5 Pb0 3.501171 1_655
Ca5 Pb3 3.501176 1_555
Ca5 Pb5 3.501176 1_555
Ca6 Pb4 3.169475 1_565
Ca6 Pb0 3.169475 1_655
Ca6 Mn1 3.276726 1_665
Ca6 Mn0 3.276726 1_665
Ca6 Pb3 3.285657 1_555
Ca6 Pb5 3.525106 1_554
Ca6 Pb5 3.525106 1_555
Ca7 Pb4 3.169475 1_455
Ca7 Pb3 3.169475 1_555
Ca7 Mn1 3.276726 1_555
Ca7 Mn0 3.276726 1_555
Ca7 Pb0 3.285657 1_555
Ca7 Pb1 3.525106 1_555
Ca7 Pb1 3.525106 1_554
Ca8 Pb2 3.501168 1_564
Ca8 Pb0 3.501168 1_555
Ca8 Pb1 3.501171 1_554
Ca8 Pb4 3.501171 1_565
Ca8 Pb5 3.501176 1_554
Ca8 Pb3 3.501176 1_555
Ca9 Pb4 3.501168 1_555
Ca9 Pb1 3.501168 1_654
Ca9 Pb0 3.501171 1_655
Ca9 Pb2 3.501171 1_554
Ca9 Pb5 3.501176 1_554
Ca9 Pb3 3.501176 1_555
