# generated using pymatgen
data_Rb2Sn(GeO3)3
_symmetry_space_group_name_H-M   'P 1'
_cell_length_a   12.33523623
_cell_length_b   12.33523623
_cell_length_c   10.88836300
_cell_angle_alpha   90.00000000
_cell_angle_beta   90.00000000
_cell_angle_gamma   120.00000122
_symmetry_Int_Tables_number   1
_chemical_formula_structural   Rb2Sn(GeO3)3
_chemical_formula_sum   'Rb12 Sn6 Ge18 O54'
_cell_volume   1434.78939919
_cell_formula_units_Z   6
loop_
 _symmetry_equiv_pos_site_id
 _symmetry_equiv_pos_as_xyz
  1  'x, y, z'
loop_
 _atom_site_type_symbol
 _atom_site_label
 _atom_site_symmetry_multiplicity
 _atom_site_fract_x
 _atom_site_fract_y
 _atom_site_fract_z
 _atom_site_occupancy
  Rb  Rb0  1  0.64912700  0.64986700  0.01687300  1
  Rb  Rb1  1  0.35087300  0.00074100  0.48312700  1
  Rb  Rb2  1  0.35013300  0.99925900  0.01687300  1
  Rb  Rb3  1  0.64986700  0.00074100  0.98312700  1
  Rb  Rb4  1  0.35087300  0.35013300  0.98312700  1
  Rb  Rb5  1  0.64912700  0.99925900  0.51687300  1
  Rb  Rb6  1  0.00074100  0.64986700  0.51687300  1
  Rb  Rb7  1  0.00074100  0.35087300  0.01687300  1
  Rb  Rb8  1  0.35013300  0.35087300  0.51687300  1
  Rb  Rb9  1  0.99925900  0.35013300  0.48312700  1
  Rb  Rb10  1  0.64986700  0.64912700  0.48312700  1
  Rb  Rb11  1  0.99925900  0.64912700  0.98312700  1
  Sn  Sn0  1  0.33333300  0.66666700  0.99266500  1
  Sn  Sn1  1  0.66666700  0.33333300  0.00733500  1
  Sn  Sn2  1  0.00000000  0.00000000  0.50000000  1
  Sn  Sn3  1  0.66666700  0.33333300  0.50733500  1
  Sn  Sn4  1  0.00000000  0.00000000  0.00000000  1
  Sn  Sn5  1  0.33333300  0.66666700  0.49266500  1
  Ge  Ge0  1  0.54950200  0.71589600  0.73843600  1
  Ge  Ge1  1  0.00000000  0.17746600  0.25000000  1
  Ge  Ge2  1  0.17746600  0.00000000  0.25000000  1
  Ge  Ge3  1  0.54950200  0.83360600  0.23843600  1
  Ge  Ge4  1  0.28410400  0.83360600  0.73843600  1
  Ge  Ge5  1  0.16639400  0.71589600  0.23843600  1
  Ge  Ge6  1  0.28410400  0.45049800  0.23843600  1
  Ge  Ge7  1  0.71589600  0.54950200  0.76156400  1
  Ge  Ge8  1  0.16639400  0.45049800  0.73843600  1
  Ge  Ge9  1  0.45049800  0.16639400  0.76156400  1
  Ge  Ge10  1  0.00000000  0.82253400  0.75000000  1
  Ge  Ge11  1  0.83360600  0.28410400  0.76156400  1
  Ge  Ge12  1  0.71589600  0.16639400  0.26156400  1
  Ge  Ge13  1  0.83360600  0.54950200  0.26156400  1
  Ge  Ge14  1  0.45049800  0.28410400  0.26156400  1
  Ge  Ge15  1  0.82253400  0.00000000  0.75000000  1
  Ge  Ge16  1  0.82253400  0.82253400  0.25000000  1
  Ge  Ge17  1  0.17746600  0.17746600  0.75000000  1
  O  O0  1  0.15539800  0.06525200  0.11577600  1
  O  O1  1  0.81111600  0.45341900  0.38968600  1
  O  O2  1  0.61828600  0.61828600  0.75000000  1
  O  O3  1  0.50617900  0.23211400  0.61594600  1
  O  O4  1  0.61828600  0.00000000  0.25000000  1
  O  O5  1  0.64230300  0.45341900  0.88968600  1
  O  O6  1  0.09014700  0.93474800  0.38422400  1
  O  O7  1  0.27406500  0.76788600  0.88405400  1
  O  O8  1  0.23211400  0.72593500  0.38405400  1
  O  O9  1  0.54658100  0.18888400  0.88968600  1
  O  O10  1  0.67109100  0.79925400  0.19952600  1
  O  O11  1  0.35769700  0.54658100  0.11031400  1
  O  O12  1  0.12816300  0.79925400  0.69952600  1
  O  O13  1  0.20074600  0.87183700  0.19952600  1
  O  O14  1  0.32890900  0.20074600  0.80047400  1
  O  O15  1  0.49382100  0.76788600  0.38405400  1
  O  O16  1  0.06525200  0.15539800  0.38422400  1
  O  O17  1  0.76788600  0.49382100  0.11594600  1
  O  O18  1  0.38171400  0.38171400  0.25000000  1
  O  O19  1  0.87183700  0.20074600  0.30047400  1
  O  O20  1  0.93474800  0.84460200  0.61577600  1
  O  O21  1  0.32890900  0.12816300  0.30047400  1
  O  O22  1  0.15539800  0.09014700  0.61577600  1
  O  O23  1  0.27406500  0.50617900  0.38405400  1
  O  O24  1  0.90985300  0.06525200  0.61577600  1
  O  O25  1  0.64230300  0.18888400  0.38968600  1
  O  O26  1  0.09014700  0.15539800  0.88422400  1
  O  O27  1  0.12816300  0.32890900  0.19952600  1
  O  O28  1  0.84460200  0.93474800  0.88422400  1
  O  O29  1  0.93474800  0.09014700  0.11577600  1
  O  O30  1  0.45341900  0.81111600  0.11031400  1
  O  O31  1  0.81111600  0.35769700  0.88968600  1
  O  O32  1  0.84460200  0.90985300  0.38422400  1
  O  O33  1  0.35769700  0.81111600  0.61031400  1
  O  O34  1  0.45341900  0.64230300  0.61031400  1
  O  O35  1  0.38171400  0.00000000  0.75000000  1
  O  O36  1  0.72593500  0.49382100  0.61594600  1
  O  O37  1  0.87183700  0.67109100  0.80047400  1
  O  O38  1  0.54658100  0.35769700  0.38968600  1
  O  O39  1  0.67109100  0.87183700  0.69952600  1
  O  O40  1  0.00000000  0.38171400  0.75000000  1
  O  O41  1  0.06525200  0.90985300  0.88422400  1
  O  O42  1  0.20074600  0.32890900  0.69952600  1
  O  O43  1  0.18888400  0.64230300  0.11031400  1
  O  O44  1  0.79925400  0.12816300  0.80047400  1
  O  O45  1  0.18888400  0.54658100  0.61031400  1
  O  O46  1  0.23211400  0.50617900  0.88405400  1
  O  O47  1  0.76788600  0.27406500  0.61594600  1
  O  O48  1  0.50617900  0.27406500  0.11594600  1
  O  O49  1  0.79925400  0.67109100  0.30047400  1
  O  O50  1  0.49382100  0.72593500  0.88405400  1
  O  O51  1  0.72593500  0.23211400  0.11594600  1
  O  O52  1  0.00000000  0.61828600  0.25000000  1
  O  O53  1  0.90985300  0.84460200  0.11577600  1
loop_
_geom_bond_atom_site_label_1
_geom_bond_atom_site_label_2
_geom_bond_distance
_geom_bond_site_symmetry_2
Ge0 O50 1.756723 1_555
Ge0 O34 1.760401 1_555
Ge0 O2 1.790826 1_555
Ge0 O39 1.801131 1_555
Ge1 O29 1.754130 1_455
Ge1 O16 1.754135 1_555
Ge1 O27 1.826963 1_555
Ge1 O19 1.826963 1_455
Ge2 O6 1.754130 1_545
Ge2 O0 1.754135 1_555
Ge2 O21 1.826963 1_555
Ge2 O13 1.826963 1_545
Ge3 O15 1.756723 1_555
Ge3 O30 1.760401 1_555
Ge3 O4 1.790826 1_565
Ge3 O10 1.801131 1_555
Ge4 O7 1.756723 1_555
Ge4 O33 1.760401 1_555
Ge4 O35 1.790826 1_565
Ge4 O12 1.801131 1_555
Ge5 O8 1.756723 1_555
Ge5 O43 1.760401 1_555
Ge5 O52 1.790826 1_555
Ge5 O13 1.801131 1_555
Ge6 O23 1.756723 1_555
Ge6 O11 1.760401 1_555
Ge6 O18 1.790826 1_555
Ge6 O27 1.801131 1_555
Ge7 O36 1.756723 1_555
Ge7 O5 1.760401 1_555
Ge7 O2 1.790826 1_555
Ge7 O37 1.801131 1_555
Ge8 O46 1.756723 1_555
Ge8 O45 1.760401 1_555
Ge8 O40 1.790826 1_555
Ge8 O42 1.801131 1_555
Ge9 O3 1.756723 1_555
Ge9 O9 1.760401 1_555
Ge9 O35 1.790826 1_555
Ge9 O14 1.801131 1_555
Ge10 O41 1.754130 1_555
Ge10 O20 1.754135 1_455
Ge10 O37 1.826963 1_455
Ge10 O12 1.826963 1_555
Ge11 O47 1.756723 1_555
Ge11 O31 1.760401 1_555
Ge11 O40 1.790826 1_655
Ge11 O44 1.801131 1_555
Ge12 O51 1.756723 1_555
Ge12 O25 1.760401 1_555
Ge12 O4 1.790826 1_555
Ge12 O19 1.801131 1_555
Ge13 O17 1.756723 1_555
Ge13 O1 1.760401 1_555
Ge13 O52 1.790826 1_655
Ge13 O49 1.801131 1_555
Ge14 O48 1.756723 1_555
Ge14 O38 1.760401 1_555
Ge14 O18 1.790826 1_555
Ge14 O21 1.801131 1_555
Ge15 O24 1.754130 1_555
Ge15 O28 1.754135 1_545
Ge15 O39 1.826963 1_545
Ge15 O44 1.826963 1_555
Ge16 O53 1.754129 1_555
Ge16 O32 1.754129 1_555
Ge16 O10 1.826963 1_555
Ge16 O49 1.826963 1_555
Ge17 O26 1.754129 1_555
Ge17 O22 1.754129 1_555
Ge17 O42 1.826963 1_555
Ge17 O14 1.826963 1_555
O0 Sn4 2.090098 1_555
O0 Rb2 3.089961 1_545
O0 Rb4 3.431559 1_554
O1 Sn3 2.090614 1_555
O1 Rb6 2.755544 1_655
O1 Rb9 3.316812 1_555
O2 Rb0 2.931214 1_556
O2 Rb10 2.931214 1_555
O3 Sn3 2.098751 1_555
O3 Rb1 2.905072 1_555
O3 Rb8 3.136009 1_555
O4 Rb3 2.931213 1_554
O4 Rb5 2.931215 1_545
O5 Sn1 2.090620 1_556
O5 Rb0 2.755539 1_556
O5 Rb4 3.316823 1_555
O6 Sn2 2.090107 1_565
O6 Rb1 3.089938 1_565
O6 Rb6 3.431559 1_555
O7 Sn0 2.098744 1_555
O7 Rb2 2.905070 1_556
O7 Rb11 3.136019 1_455
O8 Sn5 2.098744 1_555
O8 Rb6 2.905070 1_555
O8 Rb1 3.136019 1_565
O9 Sn1 2.090614 1_556
O9 Rb2 2.755544 1_546
O9 Rb3 3.316812 1_555
O10 Rb0 2.631554 1_555
O11 Sn0 2.090620 1_554
O11 Rb4 2.755539 1_554
O11 Rb0 3.316823 1_555
O12 Rb6 2.631551 1_555
O13 Rb2 2.631551 1_555
O14 Rb4 2.631554 1_555
O15 Sn5 2.098751 1_555
O15 Rb5 2.905072 1_555
O15 Rb10 3.136009 1_555
O16 Sn2 2.090098 1_555
O16 Rb9 3.089961 1_455
O16 Rb8 3.431559 1_555
O17 Sn1 2.098751 1_555
O17 Rb11 2.905072 1_554
O17 Rb0 3.136009 1_555
O18 Rb8 2.931214 1_555
O18 Rb4 2.931214 1_554
O19 Rb9 2.631551 1_555
O20 Sn2 2.090098 1_665
O20 Rb6 3.089961 1_655
O20 Rb10 3.431559 1_555
O21 Rb1 2.631546 1_555
O22 Sn2 2.090099 1_555
O22 Rb8 3.089944 1_555
O22 Rb1 3.431559 1_555
O23 Sn5 2.098753 1_555
O23 Rb8 2.905080 1_555
O23 Rb9 3.136019 1_455
O24 Sn2 2.090107 1_655
O24 Rb5 3.089938 1_545
O24 Rb9 3.431559 1_555
O25 Sn3 2.090611 1_555
O25 Rb5 2.755550 1_545
O25 Rb1 3.316821 1_555
O26 Sn4 2.090099 1_556
O26 Rb4 3.089944 1_555
O26 Rb7 3.431559 1_556
O27 Rb7 2.631546 1_555
O28 Sn4 2.090098 1_666
O28 Rb3 3.089961 1_565
O28 Rb0 3.431559 1_556
O29 Sn4 2.090107 1_655
O29 Rb7 3.089938 1_655
O29 Rb3 3.431559 1_554
O30 Sn0 2.090614 1_554
O30 Rb3 2.755544 1_564
O30 Rb2 3.316812 1_555
O31 Sn1 2.090611 1_556
O31 Rb7 2.755550 1_656
O31 Rb11 3.316821 1_555
O32 Sn2 2.090099 1_665
O32 Rb10 3.089944 1_555
O32 Rb5 3.431559 1_555
O33 Sn5 2.090611 1_555
O33 Rb1 2.755550 1_565
O33 Rb5 3.316821 1_555
O34 Sn5 2.090620 1_555
O34 Rb10 2.755539 1_555
O34 Rb8 3.316823 1_555
O35 Rb2 2.931213 1_546
O35 Rb1 2.931215 1_555
O36 Sn3 2.098753 1_555
O36 Rb10 2.905080 1_555
O36 Rb6 3.136019 1_655
O37 Rb11 2.631546 1_555
O38 Sn3 2.090620 1_555
O38 Rb8 2.755539 1_555
O38 Rb10 3.316823 1_555
O39 Rb5 2.631546 1_555
O40 Rb9 2.931213 1_455
O40 Rb7 2.931215 1_556
O41 Sn4 2.090107 1_566
O41 Rb11 3.089938 1_455
O41 Rb2 3.431559 1_556
O42 Rb8 2.631554 1_555
O43 Sn0 2.090611 1_554
O43 Rb11 2.755550 1_454
O43 Rb7 3.316821 1_555
O44 Rb3 2.631551 1_555
O45 Sn5 2.090614 1_555
O45 Rb9 2.755544 1_455
O45 Rb6 3.316812 1_555
O46 Sn0 2.098751 1_555
O46 Rb7 2.905072 1_556
O46 Rb4 3.136009 1_555
O47 Sn3 2.098744 1_555
O47 Rb9 2.905070 1_555
O47 Rb5 3.136019 1_545
O48 Sn1 2.098753 1_555
O48 Rb4 2.905080 1_554
O48 Rb2 3.136019 1_545
O49 Rb10 2.631554 1_555
O50 Sn0 2.098753 1_555
O50 Rb0 2.905080 1_556
O50 Rb3 3.136019 1_565
O51 Sn1 2.098744 1_555
O51 Rb3 2.905070 1_554
O51 Rb7 3.136019 1_655
O52 Rb6 2.931213 1_555
O52 Rb11 2.931215 1_454
O53 Sn4 2.090099 1_665
O53 Rb0 3.089944 1_555
O53 Rb11 3.431559 1_554
