# generated using pymatgen
data_Ag3SI
_symmetry_space_group_name_H-M   'P 1'
_cell_length_a   7.16907300
_cell_length_b   4.91261400
_cell_length_c   7.02294458
_cell_angle_alpha   89.33742770
_cell_angle_beta   90.00000000
_cell_angle_gamma   90.00000000
_symmetry_Int_Tables_number   1
_chemical_formula_structural   Ag3SI
_chemical_formula_sum   'Ag6 S2 I2'
_cell_volume   247.32376322
_cell_formula_units_Z   2
loop_
 _symmetry_equiv_pos_site_id
 _symmetry_equiv_pos_as_xyz
  1  'x, y, z'
loop_
 _atom_site_type_symbol
 _atom_site_label
 _atom_site_symmetry_multiplicity
 _atom_site_fract_x
 _atom_site_fract_y
 _atom_site_fract_z
 _atom_site_occupancy
  Ag  Ag0  1  0.73674800  0.38134800  0.49079300  1
  Ag  Ag1  1  0.69095100  0.51698900  0.06629800  1
  Ag  Ag2  1  0.19095100  0.48301100  0.93370200  1
  Ag  Ag3  1  0.23674800  0.61865200  0.50920700  1
  Ag  Ag4  1  0.57695400  0.00602900  0.82356700  1
  Ag  Ag5  1  0.07695400  0.99397100  0.17643300  1
  S  S0  1  0.50064000  0.50865600  0.75435700  1
  S  S1  1  0.00064000  0.49134400  0.24564300  1
  I  I0  1  0.99470600  0.00894600  0.73040100  1
  I  I1  1  0.49470600  0.99105400  0.26959900  1
loop_
_geom_bond_atom_site_label_1
_geom_bond_atom_site_label_2
_geom_bond_distance
_geom_bond_site_symmetry_2
Ag0 S0 2.590222 1_555
Ag0 S1 2.610322 1_655
Ag0 I1 3.028085 1_545
Ag0 I0 3.086648 1_555
Ag1 S1 2.554962 1_655
Ag1 S0 2.581583 1_554
Ag1 I1 3.085216 1_555
Ag1 I1 3.257016 1_545
Ag2 S0 2.554962 1_555
Ag2 S1 2.581583 1_556
Ag2 I0 3.085216 1_455
Ag2 I0 3.257016 1_465
Ag3 S1 2.590222 1_555
Ag3 S0 2.610322 1_555
Ag3 I0 3.028085 1_465
Ag3 I1 3.086648 1_555
Ag4 S0 2.556022 1_545
Ag4 S0 2.569985 1_555
Ag4 I0 3.065533 1_555
Ag4 I1 3.187484 1_546
Ag5 S1 2.556022 1_565
Ag5 S1 2.569985 1_555
Ag5 I1 3.065533 1_555
Ag5 I0 3.187484 1_464
