# generated using pymatgen
data_Cs2LiGaF6
_symmetry_space_group_name_H-M   'P 1'
_cell_length_a   6.36087582
_cell_length_b   6.36087582
_cell_length_c   5.17959700
_cell_angle_alpha   90.00000000
_cell_angle_beta   90.00000000
_cell_angle_gamma   119.99999814
_symmetry_Int_Tables_number   1
_chemical_formula_structural   Cs2LiGaF6
_chemical_formula_sum   'Cs2 Li1 Ga1 F6'
_cell_volume   181.49323636
_cell_formula_units_Z   1
loop_
 _symmetry_equiv_pos_site_id
 _symmetry_equiv_pos_as_xyz
  1  'x, y, z'
loop_
 _atom_site_type_symbol
 _atom_site_label
 _atom_site_symmetry_multiplicity
 _atom_site_fract_x
 _atom_site_fract_y
 _atom_site_fract_z
 _atom_site_occupancy
  Cs  Cs0  1  0.66666700  0.33333300  0.73177000  1
  Cs  Cs1  1  0.33333300  0.66666700  0.26823000  1
  Li  Li0  1  0.00000000  0.00000000  0.50000000  1
  Ga  Ga0  1  0.00000000  0.00000000  0.00000000  1
  F  F0  1  0.27670400  0.13835200  0.22929000  1
  F  F1  1  0.86164800  0.13835200  0.22929000  1
  F  F2  1  0.86164800  0.72329600  0.22929000  1
  F  F3  1  0.13835200  0.86164800  0.77071000  1
  F  F4  1  0.13835200  0.27670400  0.77071000  1
  F  F5  1  0.72329600  0.86164800  0.77071000  1
loop_
_geom_bond_atom_site_label_1
_geom_bond_atom_site_label_2
_geom_bond_distance
_geom_bond_site_symmetry_2
Cs0 F4 3.202055 1_655
Cs0 F5 3.202055 1_545
Cs0 F3 3.202059 1_545
Cs0 F3 3.202059 1_655
Cs0 F4 3.202062 1_555
Cs0 F5 3.202062 1_555
Cs0 F1 3.354899 1_556
Cs0 F2 3.354902 1_556
Cs0 F0 3.354902 1_556
Cs0 F1 3.374673 1_555
Cs0 F0 3.374676 1_555
Cs0 F2 3.374676 1_555
Cs1 F0 3.202055 1_565
Cs1 F2 3.202055 1_455
Cs1 F1 3.202059 1_455
Cs1 F1 3.202059 1_565
Cs1 F2 3.202062 1_555
Cs1 F0 3.202062 1_555
Cs1 F3 3.354899 1_554
Cs1 F4 3.354902 1_554
Cs1 F5 3.354902 1_554
Cs1 F3 3.374673 1_555
Cs1 F4 3.374676 1_555
Cs1 F5 3.374676 1_555
F0 Ga0 1.932324 1_555
F0 Li0 2.071108 1_555
F1 Ga0 1.932324 1_655
F1 Li0 2.071108 1_655
F2 Ga0 1.932324 1_665
F2 Li0 2.071108 1_665
F3 Ga0 1.932324 1_566
F3 Li0 2.071108 1_565
F4 Ga0 1.932324 1_556
F4 Li0 2.071108 1_555
F5 Ga0 1.932324 1_666
F5 Li0 2.071108 1_665
