# generated using pymatgen
data_K4UC3O11
_symmetry_space_group_name_H-M   'P 1'
_cell_length_a   7.02041559
_cell_length_b   7.02041559
_cell_length_c   12.45348210
_cell_angle_alpha   86.62786860
_cell_angle_beta   86.62786860
_cell_angle_gamma   83.54087492
_symmetry_Int_Tables_number   1
_chemical_formula_structural   K4UC3O11
_chemical_formula_sum   'K8 U2 C6 O22'
_cell_volume   607.98942814
_cell_formula_units_Z   2
loop_
 _symmetry_equiv_pos_site_id
 _symmetry_equiv_pos_as_xyz
  1  'x, y, z'
loop_
 _atom_site_type_symbol
 _atom_site_label
 _atom_site_symmetry_multiplicity
 _atom_site_fract_x
 _atom_site_fract_y
 _atom_site_fract_z
 _atom_site_occupancy
  K  K0  1  0.42540600  0.78748100  0.95709600  1
  K  K1  1  0.21251900  0.57459400  0.54290400  1
  K  K2  1  0.57459400  0.21251900  0.04290400  1
  K  K3  1  0.78748100  0.42540600  0.45709600  1
  K  K4  1  0.03337700  0.33391000  0.15656300  1
  K  K5  1  0.66609000  0.96662300  0.34343700  1
  K  K6  1  0.96662300  0.66609000  0.84343700  1
  K  K7  1  0.33391000  0.03337700  0.65656300  1
  U  U0  1  0.20007400  0.79992600  0.25000000  1
  U  U1  1  0.79992600  0.20007400  0.75000000  1
  C  C0  1  0.51006900  0.48993100  0.25000000  1
  C  C1  1  0.48993100  0.51006900  0.75000000  1
  C  C2  1  0.16822100  0.08098100  0.41363000  1
  C  C3  1  0.91901900  0.83177900  0.08637000  1
  C  C4  1  0.83177900  0.91901900  0.58637000  1
  C  C5  1  0.08098100  0.16822100  0.91363000  1
  O  O0  1  0.36395300  0.95933500  0.17911900  1
  O  O1  1  0.04066500  0.63604700  0.32088100  1
  O  O2  1  0.63604700  0.04066500  0.82088100  1
  O  O3  1  0.95933500  0.36395300  0.67911900  1
  O  O4  1  0.60850800  0.47611300  0.82889400  1
  O  O5  1  0.52388700  0.39149200  0.67110600  1
  O  O6  1  0.39149200  0.52388700  0.17110600  1
  O  O7  1  0.47611300  0.60850800  0.32889400  1
  O  O8  1  0.92086400  0.28727900  0.91995400  1
  O  O9  1  0.71272100  0.07913600  0.58004600  1
  O  O10  1  0.07913600  0.71272100  0.08004600  1
  O  O11  1  0.28727900  0.92086400  0.41995400  1
  O  O12  1  0.08434100  0.04497600  0.83746200  1
  O  O13  1  0.95502400  0.91565900  0.66253800  1
  O  O14  1  0.91565900  0.95502400  0.16253800  1
  O  O15  1  0.04497600  0.08434100  0.33746200  1
  O  O16  1  0.35439800  0.64560200  0.75000000  1
  O  O17  1  0.64560200  0.35439800  0.25000000  1
  O  O18  1  0.21784600  0.17370500  0.97390300  1
  O  O19  1  0.82629500  0.78215400  0.52609700  1
  O  O20  1  0.78215400  0.82629500  0.02609700  1
  O  O21  1  0.17370500  0.21784600  0.47390300  1
loop_
_geom_bond_atom_site_label_1
_geom_bond_atom_site_label_2
_geom_bond_distance
_geom_bond_site_symmetry_2
K0 O20 2.742178 1_556
K0 O2 2.857504 1_565
K0 O10 2.878211 1_556
K0 O16 2.908157 1_555
K0 O4 2.918326 1_555
K0 O18 2.942965 1_565
K0 O0 3.069485 1_556
K0 O6 3.166794 1_556
K0 O12 3.217104 1_565
K1 O21 2.742178 1_555
K1 O3 2.857504 1_455
K1 O11 2.878211 1_555
K1 O16 2.908157 1_555
K1 O5 2.918326 1_555
K1 O19 2.942965 1_455
K1 O1 3.069485 1_555
K1 O7 3.166794 1_555
K1 O13 3.217104 1_455
K2 O18 2.742178 1_554
K2 O0 2.857504 1_545
K2 O8 2.878211 1_554
K2 O17 2.908157 1_555
K2 O6 2.918326 1_555
K2 O20 2.942965 1_545
K2 O2 3.069485 1_554
K2 O4 3.166794 1_554
K2 O14 3.217104 1_545
K3 O19 2.742178 1_555
K3 O1 2.857504 1_655
K3 O9 2.878211 1_555
K3 O17 2.908157 1_555
K3 O7 2.918326 1_555
K3 O21 2.942965 1_655
K3 O3 3.069485 1_555
K3 O5 3.166794 1_555
K3 O15 3.217104 1_655
K4 O15 2.770695 1_555
K4 O18 2.782683 1_554
K4 O10 2.818114 1_555
K4 O14 2.868423 1_445
K4 O17 2.888731 1_455
K4 O6 2.994792 1_555
K4 O1 3.039183 1_555
K4 O8 3.139912 1_454
K4 O0 3.316145 1_545
K5 O14 2.770695 1_555
K5 O19 2.782683 1_555
K5 O11 2.818114 1_555
K5 O15 2.868423 1_665
K5 O17 2.888731 1_565
K5 O7 2.994792 1_555
K5 O0 3.039183 1_555
K5 O9 3.139912 1_565
K5 O1 3.316145 1_655
K6 O13 2.770695 1_555
K6 O20 2.782683 1_556
K6 O8 2.818114 1_555
K6 O12 2.868423 1_665
K6 O16 2.888731 1_655
K6 O4 2.994792 1_555
K6 O3 3.039183 1_555
K6 O10 3.139912 1_656
K6 O2 3.316145 1_565
K7 O12 2.770695 1_555
K7 O21 2.782683 1_555
K7 O9 2.818114 1_555
K7 O13 2.868423 1_445
K7 O16 2.888731 1_545
K7 O5 2.994792 1_555
K7 O2 3.039183 1_555
K7 O11 3.139912 1_545
K7 O3 3.316145 1_455
C0 O17 1.267676 1_555
C0 O6 1.318768 1_555
C0 O7 1.318768 1_555
C1 O16 1.267676 1_555
C1 O5 1.318768 1_555
C1 O4 1.318768 1_555
C2 O21 1.258847 1_555
C2 O15 1.318434 1_555
C2 O11 1.324515 1_545
C3 O20 1.258847 1_555
C3 O14 1.318434 1_555
C3 O10 1.324515 1_655
C4 O19 1.258847 1_555
C4 O13 1.318434 1_555
C4 O9 1.324515 1_565
C5 O18 1.258847 1_555
C5 O12 1.318434 1_555
C5 O8 1.324515 1_455
O0 U0 1.846416 1_555
O1 U0 1.846416 1_555
O2 U1 1.846416 1_555
O3 U1 1.846416 1_555
O4 U1 2.451416 1_555
O5 U1 2.451416 1_555
O6 U0 2.451416 1_555
O7 U0 2.451416 1_555
O8 U1 2.460916 1_555
O9 U1 2.460916 1_555
O10 U0 2.460916 1_555
O11 U0 2.460916 1_555
O12 U1 2.446631 1_455
O13 U1 2.446631 1_565
O14 U0 2.446631 1_655
O15 U0 2.446631 1_545
