# generated using pymatgen
data_Ba14Na11Li5N6
_symmetry_space_group_name_H-M   'P 1'
_cell_length_a   12.65737119
_cell_length_b   12.65737119
_cell_length_c   12.65737119
_cell_angle_alpha   60.00000000
_cell_angle_beta   60.00000000
_cell_angle_gamma   60.00000000
_symmetry_Int_Tables_number   1
_chemical_formula_structural   Ba14Na11Li5N6
_chemical_formula_sum   'Ba14 Na11 Li5 N6'
_cell_volume   1433.88906018
_cell_formula_units_Z   1
loop_
 _symmetry_equiv_pos_site_id
 _symmetry_equiv_pos_as_xyz
  1  'x, y, z'
loop_
 _atom_site_type_symbol
 _atom_site_label
 _atom_site_symmetry_multiplicity
 _atom_site_fract_x
 _atom_site_fract_y
 _atom_site_fract_z
 _atom_site_occupancy
  Ba  Ba0  1  0.28536800  0.71463200  0.71463200  1
  Ba  Ba1  1  0.10238700  0.10238700  0.10238700  1
  Ba  Ba2  1  0.10238700  0.10238700  0.69283900  1
  Ba  Ba3  1  0.89675300  0.89675300  0.89675300  1
  Ba  Ba4  1  0.89675300  0.89675300  0.30974000  1
  Ba  Ba5  1  0.89675300  0.30974000  0.89675300  1
  Ba  Ba6  1  0.28536800  0.28536800  0.71463200  1
  Ba  Ba7  1  0.28536800  0.71463200  0.28536800  1
  Ba  Ba8  1  0.71463200  0.28536800  0.71463200  1
  Ba  Ba9  1  0.10238700  0.69283900  0.10238700  1
  Ba  Ba10  1  0.30974000  0.89675300  0.89675300  1
  Ba  Ba11  1  0.71463200  0.71463200  0.28536800  1
  Ba  Ba12  1  0.69283900  0.10238700  0.10238700  1
  Ba  Ba13  1  0.71463200  0.28536800  0.28536800  1
  Na  Na0  1  0.32969000  0.01092900  0.32969000  1
  Na  Na1  1  0.51035700  0.98964300  0.98964300  1
  Na  Na2  1  0.32969000  0.32969000  0.32969000  1
  Na  Na3  1  0.51035700  0.51035700  0.98964300  1
  Na  Na4  1  0.98964300  0.51035700  0.51035700  1
  Na  Na5  1  0.50000000  0.50000000  0.50000000  1
  Na  Na6  1  0.98964300  0.98964300  0.51035700  1
  Na  Na7  1  0.32969000  0.32969000  0.01092900  1
  Na  Na8  1  0.51035700  0.98964300  0.51035700  1
  Na  Na9  1  0.98964300  0.51035700  0.98964300  1
  Na  Na10  1  0.01092900  0.32969000  0.32969000  1
  Li  Li0  1  0.64302700  0.64302700  0.64302700  1
  Li  Li1  1  0.64302700  0.64302700  0.07092000  1
  Li  Li2  1  0.64302700  0.07092000  0.64302700  1
  Li  Li3  1  0.07092000  0.64302700  0.64302700  1
  Li  Li4  1  0.00000000  0.00000000  0.00000000  1
  N  N0  1  0.14544700  0.14544700  0.85455300  1
  N  N1  1  0.85455300  0.85455300  0.14544700  1
  N  N2  1  0.14544700  0.85455300  0.14544700  1
  N  N3  1  0.14544700  0.85455300  0.85455300  1
  N  N4  1  0.85455300  0.14544700  0.14544700  1
  N  N5  1  0.85455300  0.14544700  0.85455300  1
loop_
_geom_bond_atom_site_label_1
_geom_bond_atom_site_label_2
_geom_bond_distance
_geom_bond_site_symmetry_2
Ba0 N3 2.504618 1_555
Ba0 Li3 3.840858 1_555
Ba0 Li0 3.840870 1_555
Ba0 Na5 3.841961 1_555
Ba0 Na0 4.383740 1_565
Ba0 Na7 4.383740 1_556
Ba1 N0 2.704081 1_554
Ba1 N2 2.704081 1_545
Ba1 N4 2.704081 1_455
Ba1 Na6 4.246936 1_445
Ba1 Na9 4.246936 1_454
Ba1 Na1 4.246936 1_544
Ba1 Na0 4.417172 1_555
Ba1 Na7 4.417172 1_555
Ba1 Na10 4.417172 1_555
Ba2 N3 2.704081 1_545
Ba2 N5 2.704081 1_455
Ba2 N0 2.704081 1_555
Ba2 Na6 4.246936 1_445
Ba2 Na4 4.246936 1_455
Ba2 Na8 4.246936 1_545
Ba2 Na2 4.417177 1_555
Ba2 Na0 4.417182 1_555
Ba2 Na10 4.417182 1_555
Ba3 N1 2.720642 1_556
Ba3 N5 2.720642 1_565
Ba3 N3 2.720642 1_655
Ba3 Na9 4.070144 1_555
Ba3 Na6 4.070144 1_555
Ba3 Na1 4.070144 1_555
Ba4 N1 2.720629 1_555
Ba4 N2 2.720638 1_655
Ba4 N4 2.720638 1_565
Ba4 Na4 4.070147 1_555
Ba4 Na8 4.070147 1_555
Ba4 Na6 4.070156 1_555
Ba5 N5 2.720629 1_555
Ba5 N0 2.720638 1_655
Ba5 N4 2.720638 1_556
Ba5 Na4 4.070147 1_555
Ba5 Na3 4.070147 1_555
Ba5 Na9 4.070156 1_555
Ba6 N0 2.504618 1_555
Ba6 Li3 3.840867 1_555
Ba6 Li2 3.840867 1_555
Ba6 Na5 3.841961 1_555
Ba6 Na7 4.383732 1_556
Ba6 Na2 4.383744 1_555
Ba7 N2 2.504618 1_555
Ba7 Li3 3.840867 1_555
Ba7 Li1 3.840867 1_555
Ba7 Na5 3.841961 1_555
Ba7 Na0 4.383732 1_565
Ba7 Na2 4.383744 1_555
Ba8 N5 2.504618 1_555
Ba8 Li2 3.840858 1_555
Ba8 Li0 3.840870 1_555
Ba8 Na5 3.841961 1_555
Ba8 Na7 4.383740 1_556
Ba8 Na10 4.383740 1_655
Ba9 N1 2.704081 1_455
Ba9 N3 2.704081 1_554
Ba9 N2 2.704081 1_555
Ba9 Na9 4.246936 1_454
Ba9 Na3 4.246936 1_554
Ba9 Na4 4.246936 1_455
Ba9 Na2 4.417177 1_555
Ba9 Na7 4.417182 1_555
Ba9 Na10 4.417182 1_555
Ba10 N3 2.720629 1_555
Ba10 N2 2.720638 1_556
Ba10 N0 2.720638 1_565
Ba10 Na8 4.070147 1_555
Ba10 Na3 4.070147 1_555
Ba10 Na1 4.070156 1_555
Ba11 N1 2.504618 1_555
Ba11 Li1 3.840858 1_555
Ba11 Li0 3.840870 1_555
Ba11 Na5 3.841961 1_555
Ba11 Na0 4.383740 1_565
Ba11 Na10 4.383740 1_655
Ba12 N5 2.704081 1_554
Ba12 N1 2.704081 1_545
Ba12 N4 2.704081 1_555
Ba12 Na1 4.246936 1_544
Ba12 Na3 4.246936 1_554
Ba12 Na8 4.246936 1_545
Ba12 Na2 4.417177 1_555
Ba12 Na0 4.417182 1_555
Ba12 Na7 4.417182 1_555
Ba13 N4 2.504618 1_555
Ba13 Li2 3.840867 1_555
Ba13 Li1 3.840867 1_555
Ba13 Na5 3.841961 1_555
Ba13 Na10 4.383732 1_655
Ba13 Na2 4.383744 1_555
Na0 Na6 3.811591 1_445
Na0 Na1 3.811591 1_544
Na0 Na8 3.811602 1_545
Na0 Na2 4.034676 1_555
Na0 Na7 4.034676 1_555
Na0 Na10 4.034676 1_555
Na1 Na7 3.811591 1_566
Na2 Na3 3.811595 1_554
Na2 Na8 3.811595 1_545
Na2 Na4 3.811595 1_455
Na2 Na7 4.034676 1_555
Na3 Na7 3.811602 1_556
Na7 Na9 3.811591 1_454
Na10 Na6 3.811591 1_445
Na10 Na9 3.811591 1_454
Na10 Na4 3.811602 1_455
Na10 Na2 4.034676 1_555
Na10 Na7 4.034676 1_555
Li0 Na3 3.601807 1_555
Li0 Na4 3.601807 1_555
Li0 Na8 3.601807 1_555
Li1 Na9 3.601806 1_554
Li1 Na1 3.601806 1_554
Li1 Na3 3.601817 1_554
Li2 Na1 3.601806 1_545
Li2 Na6 3.601806 1_545
Li2 Na8 3.601817 1_545
Li3 Na9 3.601806 1_455
Li3 Na6 3.601806 1_455
Li3 Na4 3.601817 1_455
Li4 N1 2.603534 1_445
Li4 N4 2.603534 1_455
Li4 N0 2.603534 1_554
Li4 N3 2.603534 1_544
Li4 N2 2.603534 1_545
Li4 N5 2.603534 1_454
