# generated using pymatgen
data_MgTi3Pb5WO15
_symmetry_space_group_name_H-M   'P 1'
_cell_length_a   5.68507100
_cell_length_b   5.68507100
_cell_length_c   19.88940300
_cell_angle_alpha   90.00000000
_cell_angle_beta   90.00000000
_cell_angle_gamma   90.00000000
_symmetry_Int_Tables_number   1
_chemical_formula_structural   MgTi3Pb5WO15
_chemical_formula_sum   'Mg2 Ti6 Pb10 W2 O30'
_cell_volume   642.82614689
_cell_formula_units_Z   2
loop_
 _symmetry_equiv_pos_site_id
 _symmetry_equiv_pos_as_xyz
  1  'x, y, z'
loop_
 _atom_site_type_symbol
 _atom_site_label
 _atom_site_symmetry_multiplicity
 _atom_site_fract_x
 _atom_site_fract_y
 _atom_site_fract_z
 _atom_site_occupancy
  Mg  Mg0  1  0.00000000  0.50000000  0.89858500  1
  Mg  Mg1  1  0.50000000  0.00000000  0.10141500  1
  Ti  Ti0  1  0.50000000  0.00000000  0.29606400  1
  Ti  Ti1  1  0.50000000  0.00000000  0.69551800  1
  Ti  Ti2  1  0.00000000  0.50000000  0.30448200  1
  Ti  Ti3  1  0.00000000  0.50000000  0.70393600  1
  Ti  Ti4  1  0.00000000  0.50000000  0.50368100  1
  Ti  Ti5  1  0.50000000  0.00000000  0.49631900  1
  Pb  Pb0  1  0.50000000  0.50000000  0.00000000  1
  Pb  Pb1  1  0.50000000  0.50000000  0.20319300  1
  Pb  Pb2  1  0.50000000  0.50000000  0.40065800  1
  Pb  Pb3  1  0.50000000  0.50000000  0.79680700  1
  Pb  Pb4  1  0.00000000  0.00000000  0.00000000  1
  Pb  Pb5  1  0.00000000  0.00000000  0.20319300  1
  Pb  Pb6  1  0.00000000  0.00000000  0.40065800  1
  Pb  Pb7  1  0.00000000  0.00000000  0.79680700  1
  Pb  Pb8  1  0.50000000  0.50000000  0.59934200  1
  Pb  Pb9  1  0.00000000  0.00000000  0.59934200  1
  W  W0  1  0.00000000  0.50000000  0.09936000  1
  W  W1  1  0.50000000  0.00000000  0.90064000  1
  O  O0  1  0.75854000  0.74146000  0.09992100  1
  O  O1  1  0.50000000  0.00000000  0.99743800  1
  O  O2  1  0.50000000  0.00000000  0.20479400  1
  O  O3  1  0.74874800  0.75125200  0.69993900  1
  O  O4  1  0.50000000  0.00000000  0.40189600  1
  O  O5  1  0.50000000  0.00000000  0.60094000  1
  O  O6  1  0.74146000  0.75854000  0.90007900  1
  O  O7  1  0.50000000  0.00000000  0.80070700  1
  O  O8  1  0.75854000  0.25854000  0.09992100  1
  O  O9  1  0.75125200  0.25125200  0.30006100  1
  O  O10  1  0.75000000  0.25000000  0.50000000  1
  O  O11  1  0.74874800  0.24874800  0.69993900  1
  O  O12  1  0.74146000  0.24146000  0.90007900  1
  O  O13  1  0.24146000  0.25854000  0.09992100  1
  O  O14  1  0.00000000  0.50000000  0.00256200  1
  O  O15  1  0.00000000  0.50000000  0.19929300  1
  O  O16  1  0.25125200  0.24874800  0.69993900  1
  O  O17  1  0.25854000  0.24146000  0.90007900  1
  O  O18  1  0.00000000  0.50000000  0.39906000  1
  O  O19  1  0.00000000  0.50000000  0.79520600  1
  O  O20  1  0.75125200  0.74874800  0.30006100  1
  O  O21  1  0.00000000  0.50000000  0.59810400  1
  O  O22  1  0.75000000  0.75000000  0.50000000  1
  O  O23  1  0.24146000  0.74146000  0.09992100  1
  O  O24  1  0.24874800  0.74874800  0.30006100  1
  O  O25  1  0.25000000  0.75000000  0.50000000  1
  O  O26  1  0.25125200  0.75125200  0.69993900  1
  O  O27  1  0.25854000  0.75854000  0.90007900  1
  O  O28  1  0.24874800  0.25125200  0.30006100  1
  O  O29  1  0.25000000  0.25000000  0.50000000  1
loop_
_geom_bond_atom_site_label_1
_geom_bond_atom_site_label_2
_geom_bond_distance
_geom_bond_site_symmetry_2
Mg0 O19 2.056147 1_555
Mg0 O14 2.068040 1_556
Mg0 O17 2.078849 1_555
Mg0 O12 2.078849 1_455
Mg0 O6 2.078849 1_455
Mg0 O27 2.078849 1_555
Mg1 O2 2.056147 1_555
Mg1 O1 2.068040 1_554
Mg1 O23 2.078849 1_545
Mg1 O13 2.078849 1_555
Mg1 O0 2.078849 1_545
Mg1 O8 2.078849 1_555
O0 W0 1.941347 1_655
O0 Pb4 2.827429 1_665
O0 Pb0 2.827429 1_555
O0 Pb5 2.874667 1_665
O0 Pb1 2.874667 1_555
O1 W1 1.925254 1_555
O1 Pb4 2.842992 1_556
O1 Pb0 2.842992 1_546
O1 Pb4 2.842992 1_656
O1 Pb0 2.842992 1_556
O2 Ti0 1.815306 1_555
O2 Pb1 2.842714 1_545
O2 Pb5 2.842714 1_655
O2 Pb1 2.842714 1_555
O2 Pb5 2.842714 1_555
O3 Ti1 2.001842 1_565
O3 Ti3 2.021606 1_655
O3 Pb3 2.784254 1_555
O3 Pb7 2.784254 1_665
O3 Pb8 2.836082 1_555
O3 Pb9 2.836082 1_665
O4 Ti5 1.878017 1_555
O4 Ti0 2.104935 1_555
O4 Pb6 2.842642 1_655
O4 Pb2 2.842642 1_545
O4 Pb2 2.842642 1_555
O4 Pb6 2.842642 1_555
O5 Ti1 1.881100 1_555
O5 Ti5 2.080849 1_555
O5 Pb8 2.842713 1_545
O5 Pb9 2.842713 1_655
O5 Pb9 2.842713 1_555
O5 Pb8 2.842713 1_555
O6 W1 1.941347 1_565
O6 Pb4 2.827429 1_666
O6 Pb0 2.827429 1_556
O6 Pb7 2.874667 1_665
O6 Pb3 2.874667 1_555
O7 W1 1.987608 1_555
O7 Ti1 2.092146 1_555
O7 Pb3 2.843594 1_545
O7 Pb3 2.843594 1_555
O7 Pb7 2.843594 1_655
O7 Pb7 2.843594 1_555
O8 W0 1.941347 1_655
O8 Pb4 2.827429 1_655
O8 Pb0 2.827429 1_555
O8 Pb1 2.874667 1_555
O8 Pb5 2.874667 1_655
O9 Ti2 2.001842 1_655
O9 Ti0 2.021606 1_555
O9 Pb1 2.784254 1_555
O9 Pb5 2.784254 1_655
O9 Pb2 2.836082 1_555
O9 Pb6 2.836082 1_655
O10 Ti4 2.011309 1_655
O10 Ti5 2.011309 1_555
O10 Pb9 2.818510 1_655
O10 Pb8 2.818510 1_555
O10 Pb2 2.818510 1_555
O10 Pb6 2.818510 1_655
O11 Ti1 2.001842 1_555
O11 Ti3 2.021606 1_655
O11 Pb3 2.784254 1_555
O11 Pb7 2.784254 1_655
O11 Pb8 2.836082 1_555
O11 Pb9 2.836082 1_655
O12 W1 1.941347 1_555
O12 Pb0 2.827429 1_556
O12 Pb4 2.827429 1_656
O12 Pb3 2.874667 1_555
O12 Pb7 2.874667 1_655
O13 W0 1.941347 1_555
O13 Pb0 2.827429 1_555
O13 Pb4 2.827429 1_555
O13 Pb1 2.874667 1_555
O13 Pb5 2.874667 1_555
O14 W0 1.925254 1_555
O14 Pb4 2.842992 1_555
O14 Pb0 2.842992 1_455
O14 Pb4 2.842992 1_565
O14 Pb0 2.842992 1_555
O15 W0 1.987608 1_555
O15 Ti2 2.092146 1_555
O15 Pb5 2.843594 1_565
O15 Pb1 2.843594 1_555
O15 Pb5 2.843594 1_555
O15 Pb1 2.843594 1_455
O16 Ti1 2.001842 1_555
O16 Ti3 2.021606 1_555
O16 Pb3 2.784254 1_555
O16 Pb7 2.784254 1_555
O16 Pb8 2.836082 1_555
O16 Pb9 2.836082 1_555
O17 W1 1.941347 1_555
O17 Pb0 2.827429 1_556
O17 Pb4 2.827429 1_556
O17 Pb3 2.874667 1_555
O17 Pb7 2.874667 1_555
O18 Ti2 1.881100 1_555
O18 Ti4 2.080849 1_555
O18 Pb2 2.842713 1_555
O18 Pb6 2.842713 1_565
O18 Pb2 2.842713 1_455
O18 Pb6 2.842713 1_555
O19 Ti3 1.815306 1_555
O19 Pb7 2.842714 1_565
O19 Pb7 2.842714 1_555
O19 Pb3 2.842714 1_455
O19 Pb3 2.842714 1_555
O20 Ti2 2.001842 1_655
O20 Ti0 2.021606 1_565
O20 Pb1 2.784254 1_555
O20 Pb5 2.784254 1_665
O20 Pb2 2.836082 1_555
O20 Pb6 2.836082 1_665
O21 Ti4 1.878017 1_555
O21 Ti3 2.104935 1_555
O21 Pb9 2.842642 1_565
O21 Pb9 2.842642 1_555
O21 Pb8 2.842642 1_455
O21 Pb8 2.842642 1_555
O22 Ti4 2.011309 1_655
O22 Ti5 2.011309 1_565
O22 Pb9 2.818510 1_665
O22 Pb8 2.818510 1_555
O22 Pb2 2.818510 1_555
O22 Pb6 2.818510 1_665
O23 W0 1.941347 1_555
O23 Pb0 2.827429 1_555
O23 Pb4 2.827429 1_565
O23 Pb5 2.874667 1_565
O23 Pb1 2.874667 1_555
O24 Ti2 2.001842 1_555
O24 Ti0 2.021606 1_565
O24 Pb5 2.784254 1_565
O24 Pb1 2.784254 1_555
O24 Pb2 2.836082 1_555
O24 Pb6 2.836082 1_565
O25 Ti4 2.011309 1_555
O25 Ti5 2.011309 1_565
O25 Pb9 2.818510 1_565
O25 Pb8 2.818510 1_555
O25 Pb6 2.818510 1_565
O25 Pb2 2.818510 1_555
O26 Ti1 2.001842 1_565
O26 Ti3 2.021606 1_555
O26 Pb3 2.784254 1_555
O26 Pb7 2.784254 1_565
O26 Pb8 2.836082 1_555
O26 Pb9 2.836082 1_565
O27 W1 1.941347 1_565
O27 Pb4 2.827429 1_566
O27 Pb0 2.827429 1_556
O27 Pb7 2.874667 1_565
O27 Pb3 2.874667 1_555
O28 Ti2 2.001842 1_555
O28 Ti0 2.021606 1_555
O28 Pb5 2.784254 1_555
O28 Pb1 2.784254 1_555
O28 Pb6 2.836082 1_555
O28 Pb2 2.836082 1_555
O29 Ti4 2.011309 1_555
O29 Ti5 2.011309 1_555
O29 Pb9 2.818510 1_555
O29 Pb8 2.818510 1_555
O29 Pb2 2.818510 1_555
O29 Pb6 2.818510 1_555
