# generated using pymatgen
data_NaSr8LaTi10O30
_symmetry_space_group_name_H-M   'P 1'
_cell_length_a   5.55176300
_cell_length_b   5.55176300
_cell_length_c   19.65870600
_cell_angle_alpha   90.00000000
_cell_angle_beta   90.00000000
_cell_angle_gamma   90.00000000
_symmetry_Int_Tables_number   1
_chemical_formula_structural   NaSr8LaTi10O30
_chemical_formula_sum   'Na1 Sr8 La1 Ti10 O30'
_cell_volume   605.92205978
_cell_formula_units_Z   1
loop_
 _symmetry_equiv_pos_site_id
 _symmetry_equiv_pos_as_xyz
  1  'x, y, z'
loop_
 _atom_site_type_symbol
 _atom_site_label
 _atom_site_symmetry_multiplicity
 _atom_site_fract_x
 _atom_site_fract_y
 _atom_site_fract_z
 _atom_site_occupancy
  Na  Na0  1  0.00000000  0.00000000  0.00000000  1
  Sr  Sr0  1  0.00000000  0.00000000  0.19914700  1
  Sr  Sr1  1  0.50000000  0.50000000  0.20048100  1
  Sr  Sr2  1  0.50000000  0.50000000  0.40001100  1
  Sr  Sr3  1  0.50000000  0.50000000  0.59998900  1
  Sr  Sr4  1  0.50000000  0.50000000  0.79951900  1
  Sr  Sr5  1  0.00000000  0.00000000  0.39998200  1
  Sr  Sr6  1  0.00000000  0.00000000  0.60001800  1
  Sr  Sr7  1  0.00000000  0.00000000  0.80085300  1
  La  La0  1  0.50000000  0.50000000  0.00000000  1
  Ti  Ti0  1  0.00000000  0.50000000  0.50000000  1
  Ti  Ti1  1  0.00000000  0.50000000  0.29991900  1
  Ti  Ti2  1  0.00000000  0.50000000  0.90095200  1
  Ti  Ti3  1  0.00000000  0.50000000  0.70008100  1
  Ti  Ti4  1  0.00000000  0.50000000  0.09904800  1
  Ti  Ti5  1  0.50000000  0.00000000  0.29991900  1
  Ti  Ti6  1  0.50000000  0.00000000  0.50000000  1
  Ti  Ti7  1  0.50000000  0.00000000  0.90095200  1
  Ti  Ti8  1  0.50000000  0.00000000  0.09904800  1
  Ti  Ti9  1  0.50000000  0.00000000  0.70008100  1
  O  O0  1  0.00000000  0.50000000  0.39999300  1
  O  O1  1  0.00000000  0.50000000  0.80035900  1
  O  O2  1  0.24985600  0.75014400  0.29999000  1
  O  O3  1  0.25001000  0.74999000  0.50000000  1
  O  O4  1  0.24985600  0.75014400  0.70001000  1
  O  O5  1  0.25696500  0.74303500  0.90095400  1
  O  O6  1  0.25696500  0.74303500  0.09904600  1
  O  O7  1  0.50000000  0.00000000  0.39999300  1
  O  O8  1  0.24985600  0.24985600  0.29999000  1
  O  O9  1  0.50000000  0.00000000  0.19964100  1
  O  O10  1  0.25001000  0.25001000  0.50000000  1
  O  O11  1  0.24985600  0.24985600  0.70001000  1
  O  O12  1  0.25696500  0.25696500  0.09904600  1
  O  O13  1  0.50000000  0.00000000  0.80035900  1
  O  O14  1  0.50000000  0.00000000  0.00000000  1
  O  O15  1  0.25696500  0.25696500  0.90095400  1
  O  O16  1  0.50000000  0.00000000  0.60000700  1
  O  O17  1  0.75014400  0.24985600  0.29999000  1
  O  O18  1  0.74999000  0.25001000  0.50000000  1
  O  O19  1  0.75014400  0.24985600  0.70001000  1
  O  O20  1  0.74303500  0.25696500  0.90095400  1
  O  O21  1  0.74303500  0.25696500  0.09904600  1
  O  O22  1  0.75014400  0.75014400  0.29999000  1
  O  O23  1  0.74999000  0.74999000  0.50000000  1
  O  O24  1  0.75014400  0.75014400  0.70001000  1
  O  O25  1  0.74303500  0.74303500  0.90095400  1
  O  O26  1  0.00000000  0.50000000  0.19964100  1
  O  O27  1  0.00000000  0.50000000  0.60000700  1
  O  O28  1  0.74303500  0.74303500  0.09904600  1
  O  O29  1  0.00000000  0.50000000  0.00000000  1
loop_
_geom_bond_atom_site_label_1
_geom_bond_atom_site_label_2
_geom_bond_distance
_geom_bond_site_symmetry_2
Na0 O29 2.775882 1_545
Na0 O14 2.775882 1_555
Na0 O29 2.775882 1_555
Na0 O14 2.775882 1_455
Na0 O25 2.803870 1_444
Na0 O20 2.803870 1_454
Na0 O15 2.803870 1_554
Na0 O5 2.803870 1_544
Na0 O28 2.803870 1_445
Na0 O21 2.803870 1_455
Na0 O12 2.803870 1_555
Na0 O6 2.803870 1_545
La0 O5 2.726231 1_554
La0 O20 2.726231 1_554
La0 O15 2.726231 1_554
La0 O25 2.726231 1_554
La0 O28 2.726231 1_555
La0 O21 2.726231 1_555
La0 O6 2.726231 1_555
La0 O12 2.726231 1_555
La0 O29 2.775882 1_655
La0 O14 2.775882 1_565
La0 O14 2.775882 1_555
La0 O29 2.775882 1_555
O0 Ti0 1.966008 1_555
O0 Ti1 1.967325 1_555
O0 Sr5 2.775882 1_555
O0 Sr5 2.775882 1_565
O0 Sr2 2.775882 1_555
O0 Sr2 2.775882 1_455
O1 Ti3 1.971336 1_555
O1 Ti2 1.977528 1_555
O1 Sr7 2.775898 1_555
O1 Sr7 2.775898 1_565
O1 Sr4 2.775931 1_555
O1 Sr4 2.775931 1_455
O2 Ti1 1.962845 1_555
O2 Ti5 1.962845 1_565
O2 Sr1 2.772001 1_555
O2 Sr5 2.777112 1_565
O2 Sr2 2.779113 1_555
O2 Sr0 2.788979 1_565
O3 Ti6 1.962845 1_565
O3 Ti0 1.962845 1_555
O3 Sr2 2.777814 1_555
O3 Sr3 2.777814 1_555
O3 Sr5 2.778328 1_565
O3 Sr6 2.778328 1_565
O4 Ti9 1.962845 1_565
O4 Ti3 1.962845 1_555
O4 Sr4 2.772001 1_555
O4 Sr6 2.777112 1_565
O4 Sr3 2.779113 1_555
O4 Sr7 2.788979 1_565
O5 Ti7 1.963606 1_565
O5 Ti2 1.963606 1_555
O5 Sr4 2.759970 1_555
O5 Sr7 2.818312 1_565
O6 Ti4 1.963606 1_555
O6 Ti8 1.963606 1_565
O6 Sr1 2.759970 1_555
O6 Sr0 2.818312 1_565
O7 Ti6 1.966008 1_555
O7 Ti5 1.967325 1_555
O7 Sr5 2.775882 1_655
O7 Sr5 2.775882 1_555
O7 Sr2 2.775882 1_555
O7 Sr2 2.775882 1_545
O8 Ti1 1.962845 1_555
O8 Ti5 1.962845 1_555
O8 Sr1 2.772001 1_555
O8 Sr5 2.777112 1_555
O8 Sr2 2.779113 1_555
O8 Sr0 2.788979 1_555
O9 Ti5 1.971336 1_555
O9 Ti8 1.977528 1_555
O9 Sr0 2.775898 1_655
O9 Sr0 2.775898 1_555
O9 Sr1 2.775931 1_555
O9 Sr1 2.775931 1_545
O10 Ti6 1.962845 1_555
O10 Ti0 1.962845 1_555
O10 Sr2 2.777814 1_555
O10 Sr3 2.777814 1_555
O10 Sr5 2.778328 1_555
O10 Sr6 2.778328 1_555
O11 Ti9 1.962845 1_555
O11 Ti3 1.962845 1_555
O11 Sr4 2.772001 1_555
O11 Sr6 2.777112 1_555
O11 Sr3 2.779113 1_555
O11 Sr7 2.788979 1_555
O12 Ti4 1.963606 1_555
O12 Ti8 1.963606 1_555
O12 Sr1 2.759970 1_555
O12 Sr0 2.818312 1_555
O13 Ti9 1.971336 1_555
O13 Ti7 1.977528 1_555
O13 Sr7 2.775898 1_555
O13 Sr7 2.775898 1_655
O13 Sr4 2.775931 1_545
O13 Sr4 2.775931 1_555
O14 Ti8 1.947156 1_555
O14 Ti7 1.947156 1_554
O15 Ti7 1.963606 1_555
O15 Ti2 1.963606 1_555
O15 Sr4 2.759970 1_555
O15 Sr7 2.818312 1_555
O16 Ti6 1.966008 1_555
O16 Ti9 1.967325 1_555
O16 Sr6 2.775882 1_655
O16 Sr6 2.775882 1_555
O16 Sr3 2.775882 1_545
O16 Sr3 2.775882 1_555
O17 Ti5 1.962845 1_555
O17 Ti1 1.962845 1_655
O17 Sr1 2.772001 1_555
O17 Sr5 2.777112 1_655
O17 Sr2 2.779113 1_555
O17 Sr0 2.788979 1_655
O18 Ti0 1.962845 1_655
O18 Ti6 1.962845 1_555
O18 Sr2 2.777814 1_555
O18 Sr3 2.777814 1_555
O18 Sr5 2.778328 1_655
O18 Sr6 2.778328 1_655
O19 Ti9 1.962845 1_555
O19 Ti3 1.962845 1_655
O19 Sr4 2.772001 1_555
O19 Sr6 2.777112 1_655
O19 Sr3 2.779113 1_555
O19 Sr7 2.788979 1_655
O20 Ti7 1.963606 1_555
O20 Ti2 1.963606 1_655
O20 Sr4 2.759970 1_555
O20 Sr7 2.818312 1_655
O21 Ti8 1.963606 1_555
O21 Ti4 1.963606 1_655
O21 Sr1 2.759970 1_555
O21 Sr0 2.818312 1_655
O22 Ti5 1.962845 1_565
O22 Ti1 1.962845 1_655
O22 Sr1 2.772001 1_555
O22 Sr5 2.777112 1_665
O22 Sr2 2.779113 1_555
O22 Sr0 2.788979 1_665
O23 Ti6 1.962845 1_565
O23 Ti0 1.962845 1_655
O23 Sr3 2.777814 1_555
O23 Sr2 2.777814 1_555
O23 Sr5 2.778328 1_665
O23 Sr6 2.778328 1_665
O24 Ti9 1.962845 1_565
O24 Ti3 1.962845 1_655
O24 Sr4 2.772001 1_555
O24 Sr6 2.777112 1_665
O24 Sr3 2.779113 1_555
O24 Sr7 2.788979 1_665
O25 Ti2 1.963606 1_655
O25 Ti7 1.963606 1_565
O25 Sr4 2.759970 1_555
O25 Sr7 2.818312 1_665
O26 Ti1 1.971336 1_555
O26 Ti4 1.977528 1_555
O26 Sr0 2.775898 1_565
O26 Sr0 2.775898 1_555
O26 Sr1 2.775931 1_455
O26 Sr1 2.775931 1_555
O27 Ti0 1.966008 1_555
O27 Ti3 1.967325 1_555
O27 Sr6 2.775882 1_565
O27 Sr6 2.775882 1_555
O27 Sr3 2.775882 1_455
O27 Sr3 2.775882 1_555
O28 Ti4 1.963606 1_655
O28 Ti8 1.963606 1_565
O28 Sr1 2.759970 1_555
O28 Sr0 2.818312 1_665
O29 Ti4 1.947156 1_555
O29 Ti2 1.947156 1_554
