# generated using pymatgen
data_Na4Cr13Se23
_symmetry_space_group_name_H-M   'P 1'
_cell_length_a   13.08783401
_cell_length_b   13.08783401
_cell_length_c   18.88093820
_cell_angle_alpha   85.46649102
_cell_angle_beta   85.46649102
_cell_angle_gamma   16.18341861
_symmetry_Int_Tables_number   1
_chemical_formula_structural   Na4Cr13Se23
_chemical_formula_sum   'Na4 Cr13 Se23'
_cell_volume   898.52078566
_cell_formula_units_Z   1
loop_
 _symmetry_equiv_pos_site_id
 _symmetry_equiv_pos_as_xyz
  1  'x, y, z'
loop_
 _atom_site_type_symbol
 _atom_site_label
 _atom_site_symmetry_multiplicity
 _atom_site_fract_x
 _atom_site_fract_y
 _atom_site_fract_z
 _atom_site_occupancy
  Na  Na0  1  0.49912100  0.49912100  0.72256900  1
  Na  Na1  1  0.49917600  0.49917600  0.39467900  1
  Na  Na2  1  0.99880400  0.99880400  0.22250000  1
  Na  Na3  1  0.49656300  0.49656300  0.05106100  1
  Cr  Cr0  1  0.74526300  0.74526300  0.91351400  1
  Cr  Cr1  1  0.86611200  0.86611200  0.90053700  1
  Cr  Cr2  1  0.13782600  0.13782600  0.76713900  1
  Cr  Cr3  1  0.36075100  0.36075100  0.74261100  1
  Cr  Cr4  1  0.63267800  0.63267800  0.60031900  1
  Cr  Cr5  1  0.74970200  0.74970200  0.58395800  1
  Cr  Cr6  1  0.86700200  0.86700200  0.56524000  1
  Cr  Cr7  1  0.13864300  0.13864300  0.42612500  1
  Cr  Cr8  1  0.36053200  0.36053200  0.40508900  1
  Cr  Cr9  1  0.63898800  0.63898800  0.26090300  1
  Cr  Cr10  1  0.85945000  0.85945000  0.23817700  1
  Cr  Cr11  1  0.14385600  0.14385600  0.09851800  1
  Cr  Cr12  1  0.36057000  0.36057000  0.07416700  1
  Se  Se0  1  0.30543600  0.30543600  0.96539900  1
  Se  Se1  1  0.58454100  0.58454100  0.81965700  1
  Se  Se2  1  0.80607000  0.80607000  0.80066300  1
  Se  Se3  1  0.08310700  0.08310700  0.65970500  1
  Se  Se4  1  0.19358200  0.19358200  0.87100600  1
  Se  Se5  1  0.30595400  0.30595400  0.63208000  1
  Se  Se6  1  0.41774300  0.41774300  0.84288400  1
  Se  Se7  1  0.58486500  0.58486500  0.49086200  1
  Se  Se8  1  0.69204100  0.69204100  0.70021200  1
  Se  Se9  1  0.80652500  0.80652500  0.46580100  1
  Se  Se10  1  0.91338400  0.91338400  0.67778400  1
  Se  Se11  1  0.08235100  0.08235100  0.32329700  1
  Se  Se12  1  0.19361000  0.19361000  0.53402200  1
  Se  Se13  1  0.30783100  0.30783100  0.29930400  1
  Se  Se14  1  0.41801700  0.41801700  0.50967100  1
  Se  Se15  1  0.58162900  0.58162900  0.14712200  1
  Se  Se16  1  0.69147900  0.69147900  0.36483900  1
  Se  Se17  1  0.80768600  0.80768600  0.13280200  1
  Se  Se18  1  0.91585200  0.91585200  0.34453200  1
  Se  Se19  1  0.19239400  0.19239400  0.20256000  1
  Se  Se20  1  0.41685300  0.41685300  0.17623900  1
  Se  Se21  1  0.68919400  0.68919400  0.03446800  1
  Se  Se22  1  0.91627600  0.91627600  0.00893500  1
loop_
_geom_bond_atom_site_label_1
_geom_bond_atom_site_label_2
_geom_bond_distance
_geom_bond_site_symmetry_2
Na0 Se6 2.973720 1_555
Na0 Se1 2.984720 1_555
Na0 Se3 3.021132 1_565
Na0 Se3 3.021132 1_655
Na0 Se10 3.057044 1_455
Na0 Se10 3.057044 1_545
Na1 Se14 2.899724 1_555
Na1 Se7 2.978774 1_555
Na1 Se18 3.046222 1_455
Na1 Se18 3.046222 1_545
Na1 Se11 3.064714 1_655
Na1 Se11 3.064714 1_565
Na2 Se20 2.993870 1_655
Na2 Se20 2.993870 1_565
Na2 Se11 2.994606 1_665
Na2 Se18 3.023100 1_555
Na2 Se15 3.088464 1_655
Na2 Se15 3.088464 1_565
Na3 Se22 2.935934 1_455
Na3 Se22 2.935934 1_545
Na3 Se15 2.964422 1_555
Na3 Se20 3.012232 1_555
Cr0 Se4 2.450168 1_655
Cr0 Se4 2.450168 1_565
Cr0 Se2 2.546977 1_555
Cr0 Se21 2.607077 1_556
Cr0 Se0 2.651238 1_655
Cr0 Se0 2.651238 1_565
Cr1 Se6 2.477181 1_565
Cr1 Se6 2.477181 1_655
Cr1 Se22 2.510706 1_556
Cr1 Se2 2.538807 1_555
Cr1 Se0 2.656798 1_565
Cr1 Se0 2.656798 1_655
Cr2 Se1 2.462766 1_545
Cr2 Se1 2.462766 1_455
Cr2 Se4 2.527092 1_555
Cr2 Se3 2.566082 1_555
Cr2 Se8 2.584774 1_545
Cr2 Se8 2.584774 1_455
Cr3 Se6 2.492441 1_555
Cr3 Se2 2.520953 1_545
Cr3 Se2 2.520953 1_455
Cr3 Se10 2.546725 1_455
Cr3 Se10 2.546725 1_545
Cr3 Se5 2.616309 1_555
Cr4 Se3 2.463998 1_655
Cr4 Se3 2.463998 1_565
Cr4 Se7 2.493038 1_555
Cr4 Se8 2.527298 1_555
Cr4 Se12 2.671788 1_655
Cr4 Se12 2.671788 1_565
Cr5 Se8 2.554826 1_555
Cr5 Se5 2.560448 1_565
Cr5 Se5 2.560448 1_655
Cr5 Se12 2.571883 1_565
Cr5 Se12 2.571883 1_655
Cr5 Se9 2.573109 1_555
Cr6 Se14 2.453757 1_655
Cr6 Se14 2.453757 1_565
Cr6 Se10 2.523484 1_555
Cr6 Se9 2.539917 1_555
Cr6 Se5 2.677786 1_655
Cr6 Se5 2.677786 1_565
Cr7 Se11 2.519871 1_555
Cr7 Se16 2.520830 1_545
Cr7 Se16 2.520830 1_455
Cr7 Se7 2.560871 1_455
Cr7 Se7 2.560871 1_545
Cr7 Se12 2.577335 1_555
Cr8 Se13 2.508012 1_555
Cr8 Se9 2.531888 1_455
Cr8 Se9 2.531888 1_545
Cr8 Se18 2.548451 1_545
Cr8 Se18 2.548451 1_455
Cr8 Se14 2.566721 1_555
Cr9 Se16 2.475426 1_555
Cr9 Se19 2.505852 1_565
Cr9 Se19 2.505852 1_655
Cr9 Se11 2.580656 1_655
Cr9 Se11 2.580656 1_565
Cr9 Se15 2.708251 1_555
Cr10 Se17 2.486789 1_555
Cr10 Se13 2.503745 1_655
Cr10 Se13 2.503745 1_565
Cr10 Se18 2.576337 1_555
Cr10 Se20 2.587770 1_565
Cr10 Se20 2.587770 1_655
Cr11 Se19 2.415716 1_555
Cr11 Se21 2.451495 1_545
Cr11 Se21 2.451495 1_455
Cr11 Se15 2.569076 1_455
Cr11 Se15 2.569076 1_545
Cr12 Se17 2.501076 1_455
Cr12 Se17 2.501076 1_545
Cr12 Se20 2.508077 1_555
Cr12 Se22 2.590531 1_455
Cr12 Se22 2.590531 1_545
Cr12 Se0 2.593731 1_554
