# generated using pymatgen
data_Mg9(In13S24)2
_symmetry_space_group_name_H-M   'P 1'
_cell_length_a   7.69293157
_cell_length_b   7.69293157
_cell_length_c   37.59255810
_cell_angle_alpha   89.96191396
_cell_angle_beta   89.96191396
_cell_angle_gamma   60.26358080
_symmetry_Int_Tables_number   1
_chemical_formula_structural   Mg9(In13S24)2
_chemical_formula_sum   'Mg9 In26 S48'
_cell_volume   1931.80594117
_cell_formula_units_Z   1
loop_
 _symmetry_equiv_pos_site_id
 _symmetry_equiv_pos_as_xyz
  1  'x, y, z'
loop_
 _atom_site_type_symbol
 _atom_site_label
 _atom_site_symmetry_multiplicity
 _atom_site_fract_x
 _atom_site_fract_y
 _atom_site_fract_z
 _atom_site_occupancy
  Mg  Mg0  1  0.33434800  0.33434800  0.16680800  1
  Mg  Mg1  1  0.66657500  0.66657500  0.33330200  1
  Mg  Mg2  1  0.49994600  0.49994600  0.24997900  1
  Mg  Mg3  1  0.99991500  0.99991500  0.49994400  1
  Mg  Mg4  1  0.83312400  0.83312400  0.41657100  1
  Mg  Mg5  1  0.33314000  0.33314000  0.66641800  1
  Mg  Mg6  1  0.16647200  0.16647200  0.58322000  1
  Mg  Mg7  1  0.66530900  0.66530900  0.83269800  1
  Mg  Mg8  1  0.49979500  0.49979500  0.74988300  1
  In  In0  1  0.99987600  0.99987600  0.00619900  1
  In  In1  1  0.99583400  0.99583400  0.19022700  1
  In  In2  1  0.67899600  0.16015100  0.08172200  1
  In  In3  1  0.16015100  0.67899600  0.08172200  1
  In  In4  1  0.32876000  0.32876000  0.35523500  1
  In  In5  1  0.00000600  0.49965600  0.24999700  1
  In  In6  1  0.49965600  0.00000600  0.24999700  1
  In  In7  1  0.16034700  0.16034700  0.08162300  1
  In  In8  1  0.66729500  0.66729500  0.14397400  1
  In  In9  1  0.66207900  0.66207900  0.52190800  1
  In  In10  1  0.83309900  0.33361800  0.41659100  1
  In  In11  1  0.00418300  0.00418300  0.31113500  1
  In  In12  1  0.66641700  0.16671300  0.58313600  1
  In  In13  1  0.99528900  0.99528900  0.68846000  1
  In  In14  1  0.33361800  0.83309900  0.41659100  1
  In  In15  1  0.16671300  0.66641700  0.58313600  1
  In  In16  1  0.33762300  0.33762300  0.47769100  1
  In  In17  1  0.99927700  0.50059400  0.74962400  1
  In  In18  1  0.33236600  0.33236600  0.85390300  1
  In  In19  1  0.50059400  0.99927700  0.74962400  1
  In  In20  1  0.67087500  0.67087500  0.64442000  1
  In  In21  1  0.82813100  0.34316600  0.91717600  1
  In  In22  1  0.00354300  0.00354300  0.81078700  1
  In  In23  1  0.34316600  0.82813100  0.91717600  1
  In  In24  1  0.82843400  0.82843400  0.91716700  1
  In  In25  1  0.33356500  0.33356500  0.97956900  1
  S  S0  1  0.83993700  0.32038400  0.04336100  1
  S  S1  1  0.32038400  0.83993700  0.04336100  1
  S  S2  1  0.99982600  0.99982600  0.12406300  1
  S  S3  1  0.83927500  0.83927500  0.04348100  1
  S  S4  1  0.48640200  0.48640200  0.12396100  1
  S  S5  1  0.18273700  0.63929700  0.21001600  1
  S  S6  1  0.02788400  0.48548900  0.12406900  1
  S  S7  1  0.63929700  0.18273700  0.21001600  1
  S  S8  1  0.33360700  0.33360700  0.04548100  1
  S  S9  1  0.33596600  0.33596600  0.28792500  1
  S  S10  1  0.17867800  0.17867800  0.20915700  1
  S  S11  1  0.48548900  0.02788400  0.12406900  1
  S  S12  1  0.82167700  0.82167700  0.29123500  1
  S  S13  1  0.51561800  0.97379700  0.37639900  1
  S  S14  1  0.35962900  0.81720300  0.29039500  1
  S  S15  1  0.97379700  0.51561800  0.37639900  1
  S  S16  1  0.66412500  0.66412500  0.21224000  1
  S  S17  1  0.66910000  0.66910000  0.45447800  1
  S  S18  1  0.51142500  0.51142500  0.37561200  1
  S  S19  1  0.81720300  0.35962900  0.29039500  1
  S  S20  1  0.84919100  0.30684900  0.54310600  1
  S  S21  1  0.15501000  0.15501000  0.45797400  1
  S  S22  1  0.30684900  0.84919100  0.54310600  1
  S  S23  1  0.69297200  0.15046000  0.45714700  1
  S  S24  1  0.99729300  0.99729300  0.37905100  1
  S  S25  1  0.00243300  0.00243300  0.62114200  1
  S  S26  1  0.84474100  0.84474100  0.54229500  1
  S  S27  1  0.15046000  0.69297200  0.45714700  1
  S  S28  1  0.18233200  0.64075300  0.70972200  1
  S  S29  1  0.48838500  0.48838500  0.62467200  1
  S  S30  1  0.02618100  0.48382900  0.62382700  1
  S  S31  1  0.64075300  0.18233200  0.70972200  1
  S  S32  1  0.33055800  0.33055800  0.54578900  1
  S  S33  1  0.33566600  0.33566600  0.78696100  1
  S  S34  1  0.17782900  0.17782900  0.70888200  1
  S  S35  1  0.48382900  0.02618100  0.62382700  1
  S  S36  1  0.82132400  0.82132400  0.79125500  1
  S  S37  1  0.51114200  0.97765000  0.87460900  1
  S  S38  1  0.35931600  0.81758100  0.79047500  1
  S  S39  1  0.66386600  0.66386600  0.71251300  1
  S  S40  1  0.97765000  0.51114200  0.87460900  1
  S  S41  1  0.66637600  0.66637600  0.95357300  1
  S  S42  1  0.51039500  0.51039500  0.87471000  1
  S  S43  1  0.81758100  0.35931600  0.79047500  1
  S  S44  1  0.15508700  0.15508700  0.95643800  1
  S  S45  1  0.68969300  0.15481400  0.95653100  1
  S  S46  1  0.99994200  0.99994200  0.87928200  1
  S  S47  1  0.15481400  0.68969300  0.95653100  1
loop_
_geom_bond_atom_site_label_1
_geom_bond_atom_site_label_2
_geom_bond_distance
_geom_bond_site_symmetry_2
Mg0 S4 2.585227 1_555
Mg0 S6 2.602844 1_555
Mg0 S11 2.602844 1_555
Mg0 S7 2.605837 1_555
Mg0 S5 2.605837 1_555
Mg0 S10 2.611593 1_555
Mg1 S12 2.599148 1_555
Mg1 S18 2.605216 1_555
Mg1 S19 2.609303 1_555
Mg1 S14 2.609303 1_555
Mg1 S15 2.615166 1_555
Mg1 S13 2.615166 1_555
Mg2 S5 2.601665 1_555
Mg2 S7 2.601665 1_555
Mg2 S16 2.604011 1_555
Mg2 S9 2.606038 1_555
Mg2 S14 2.611425 1_555
Mg2 S19 2.611425 1_555
Mg3 S21 2.596859 1_665
Mg3 S26 2.606409 1_555
Mg3 S27 2.606735 1_655
Mg3 S23 2.606735 1_565
Mg3 S22 2.615176 1_655
Mg3 S20 2.615176 1_565
Mg4 S24 2.599429 1_555
Mg4 S17 2.605727 1_555
Mg4 S15 2.607359 1_555
Mg4 S13 2.607359 1_555
Mg4 S23 2.615439 1_565
Mg4 S27 2.615439 1_655
Mg5 S29 2.593346 1_555
Mg5 S30 2.602039 1_555
Mg5 S35 2.602039 1_555
Mg5 S34 2.610446 1_555
Mg5 S31 2.622057 1_555
Mg5 S28 2.622057 1_555
Mg6 S32 2.596689 1_555
Mg6 S20 2.604944 1_455
Mg6 S22 2.604944 1_545
Mg6 S25 2.606202 1_555
Mg6 S35 2.616182 1_555
Mg6 S30 2.616182 1_555
Mg7 S43 2.588413 1_555
Mg7 S38 2.588413 1_555
Mg7 S36 2.594662 1_555
Mg7 S42 2.595906 1_555
Mg7 S37 2.614958 1_555
Mg7 S40 2.614958 1_555
Mg8 S33 2.590013 1_555
Mg8 S39 2.595280 1_555
Mg8 S31 2.606769 1_555
Mg8 S28 2.606769 1_555
Mg8 S43 2.618186 1_555
Mg8 S38 2.618186 1_555
In0 S3 2.554764 1_555
In0 S1 2.556895 1_655
In0 S0 2.556895 1_565
In0 S44 2.785516 1_664
In0 S47 2.789699 1_654
In0 S45 2.789699 1_564
In1 S2 2.487800 1_555
In1 S7 2.496052 1_565
In1 S5 2.496052 1_655
In1 S10 2.535530 1_665
In2 S0 2.577060 1_555
In2 S3 2.581339 1_545
In2 S2 2.670048 1_545
In2 S8 2.679885 1_555
In2 S11 2.698697 1_555
In2 S4 2.707211 1_555
In3 S1 2.577060 1_555
In3 S3 2.581339 1_455
In3 S2 2.670048 1_455
In3 S8 2.679885 1_555
In3 S6 2.698697 1_555
In3 S4 2.707211 1_555
In4 S15 2.502142 1_455
In4 S13 2.502142 1_545
In4 S9 2.532098 1_555
In4 S18 2.549099 1_555
In5 S5 2.623392 1_555
In5 S19 2.634801 1_455
In5 S10 2.641762 1_555
In5 S16 2.655442 1_455
In5 S12 2.655768 1_455
In5 S9 2.659380 1_555
In6 S7 2.623392 1_555
In6 S14 2.634801 1_545
In6 S10 2.641762 1_555
In6 S16 2.655442 1_545
In6 S12 2.655768 1_545
In6 S9 2.659380 1_555
In7 S1 2.579194 1_545
In7 S0 2.579194 1_455
In7 S2 2.665098 1_445
In7 S8 2.675197 1_555
In7 S6 2.704736 1_555
In7 S11 2.704736 1_555
In8 S11 2.522082 1_565
In8 S6 2.522082 1_655
In8 S4 2.522495 1_555
In8 S16 2.566608 1_555
In9 S20 2.504269 1_555
In9 S22 2.504269 1_555
In9 S17 2.536516 1_555
In9 S26 2.549175 1_555
In10 S15 2.629282 1_555
In10 S23 2.640751 1_555
In10 S18 2.648069 1_555
In10 S24 2.653627 1_545
In10 S17 2.655824 1_555
In10 S21 2.658498 1_655
In11 S19 2.500158 1_455
In11 S14 2.500158 1_545
In11 S12 2.541733 1_445
In11 S24 2.554711 1_445
In12 S20 2.627262 1_555
In12 S35 2.642554 1_555
In12 S26 2.646821 1_545
In12 S32 2.647141 1_555
In12 S29 2.660391 1_555
In12 S25 2.661235 1_655
In13 S31 2.500717 1_565
In13 S28 2.500717 1_655
In13 S25 2.532368 1_665
In13 S34 2.548023 1_665
In14 S13 2.629282 1_555
In14 S27 2.640751 1_555
In14 S18 2.648069 1_555
In14 S24 2.653627 1_455
In14 S17 2.655824 1_555
In14 S21 2.658498 1_565
In15 S22 2.627262 1_555
In15 S30 2.642554 1_555
In15 S26 2.646821 1_455
In15 S32 2.647141 1_555
In15 S29 2.660391 1_555
In15 S25 2.661235 1_565
In16 S23 2.497317 1_555
In16 S27 2.497317 1_555
In16 S21 2.541074 1_555
In16 S32 2.561631 1_555
In17 S28 2.626229 1_655
In17 S39 2.639926 1_555
In17 S43 2.644867 1_555
In17 S34 2.648906 1_655
In17 S33 2.649899 1_655
In17 S36 2.657573 1_555
In18 S40 2.493861 1_455
In18 S37 2.493861 1_545
In18 S42 2.495361 1_555
In18 S33 2.516870 1_555
In19 S31 2.626229 1_565
In19 S39 2.639926 1_555
In19 S38 2.644867 1_555
In19 S34 2.648906 1_565
In19 S33 2.649899 1_565
In19 S36 2.657573 1_555
In20 S30 2.497588 1_655
In20 S35 2.497588 1_565
In20 S29 2.539849 1_555
In20 S39 2.561417 1_555
In21 S41 2.556527 1_555
In21 S45 2.635989 1_555
In21 S44 2.643911 1_655
In21 S40 2.650069 1_555
In21 S42 2.657296 1_555
In21 S46 2.699707 1_545
In22 S43 2.496988 1_455
In22 S38 2.496988 1_545
In22 S36 2.534030 1_445
In22 S46 2.575311 1_445
In23 S41 2.556527 1_555
In23 S47 2.635989 1_555
In23 S44 2.643911 1_565
In23 S37 2.650069 1_555
In23 S42 2.657296 1_555
In23 S46 2.699707 1_455
In24 S41 2.553215 1_555
In24 S47 2.641504 1_655
In24 S45 2.641504 1_565
In24 S40 2.656774 1_555
In24 S37 2.656774 1_555
In24 S46 2.689217 1_555
In25 S8 2.477801 1_556
In25 S44 2.529783 1_555
In25 S45 2.531384 1_555
In25 S47 2.531384 1_555
