# generated using pymatgen
data_NaAlH2CO5
_symmetry_space_group_name_H-M   'P 1'
_cell_length_a   6.74953688
_cell_length_b   6.74953688
_cell_length_c   6.74953688
_cell_angle_alpha   131.28529070
_cell_angle_beta   120.18636515
_cell_angle_gamma   80.64082048
_symmetry_Int_Tables_number   1
_chemical_formula_structural   NaAlH2CO5
_chemical_formula_sum   'Na2 Al2 H4 C2 O10'
_cell_volume   192.83118466
_cell_formula_units_Z   2
loop_
 _symmetry_equiv_pos_site_id
 _symmetry_equiv_pos_as_xyz
  1  'x, y, z'
loop_
 _atom_site_type_symbol
 _atom_site_label
 _atom_site_symmetry_multiplicity
 _atom_site_fract_x
 _atom_site_fract_y
 _atom_site_fract_z
 _atom_site_occupancy
  Na  Na0  1  0.50000000  0.00000000  0.50000000  1
  Na  Na1  1  0.00000000  0.00000000  -0.00000000  1
  Al  Al0  1  0.50000000  0.50000000  0.50000000  1
  Al  Al1  1  0.50000000  0.00000000  -0.00000000  1
  H  H0  1  0.22769599  0.27958876  0.94810722  1
  H  H1  1  0.16851846  0.72041124  0.44810722  1
  H  H2  1  0.77230401  0.72041124  0.05189278  1
  H  H3  1  0.83148154  0.27958876  0.55189278  1
  C  C0  1  0.75065463  0.50065463  0.25000000  1
  C  C1  1  0.24934537  0.49934537  0.75000000  1
  O  O0  1  0.87335344  0.62335344  0.25000000  1
  O  O1  1  0.12664656  0.37664656  0.75000000  1
  O  O2  1  0.68699631  0.63976801  0.45277170  1
  O  O3  1  0.31300369  0.36023199  0.54722830  1
  O  O4  1  0.31300369  0.76577539  0.95277170  1
  O  O5  1  0.68699631  0.23422461  0.04722830  1
  O  O6  1  0.29310676  0.22497522  0.06813054  1
  O  O7  1  0.34315532  0.77502478  0.56813054  1
  O  O8  1  0.70689324  0.77502478  0.93186946  1
  O  O9  1  0.65684468  0.22497522  0.43186946  1
loop_
_geom_bond_atom_site_label_1
_geom_bond_atom_site_label_2
_geom_bond_distance
_geom_bond_site_symmetry_2
Na0 O9 2.360460 1_555
Na0 O7 2.360460 1_545
Na0 O3 2.447453 1_555
Na0 O2 2.447453 1_545
Na0 O5 2.447453 1_556
Na0 O4 2.447453 1_544
Na1 O6 2.360466 1_555
Na1 O8 2.360466 1_444
Na1 O5 2.447453 1_455
Na1 O3 2.447453 1_555
Na1 O2 2.447453 1_444
Na1 O4 2.447453 1_544
Al0 O6 1.871343 1_555
Al0 O8 1.871343 1_555
Al0 O9 1.871344 1_555
Al0 O7 1.871344 1_555
Al0 O3 1.942483 1_555
Al0 O2 1.942483 1_555
Al1 O6 1.871339 1_555
Al1 O8 1.871339 1_544
Al1 O9 1.871344 1_555
Al1 O7 1.871344 1_544
Al1 O5 1.942483 1_555
Al1 O4 1.942483 1_544
H0 O6 0.984134 1_556
H0 O1 1.666054 1_555
H1 O7 0.984134 1_555
H1 O0 1.666054 1_455
H2 O8 0.984134 1_554
H2 O0 1.666054 1_555
H3 O9 0.984134 1_555
H3 O1 1.666054 1_655
C0 O0 1.262841 1_555
C0 O2 1.305257 1_555
C0 O5 1.305257 1_555
C1 O1 1.262841 1_555
C1 O4 1.305257 1_555
C1 O3 1.305257 1_555
