# generated using pymatgen
data_As3Pb5ClO9
_symmetry_space_group_name_H-M   'P 1'
_cell_length_a   10.79276107
_cell_length_b   10.79276107
_cell_length_c   7.36859200
_cell_angle_alpha   90.00000000
_cell_angle_beta   90.00000000
_cell_angle_gamma   119.99999432
_symmetry_Int_Tables_number   1
_chemical_formula_structural   As3Pb5ClO9
_chemical_formula_sum   'As6 Pb10 Cl2 O18'
_cell_volume   743.32765825
_cell_formula_units_Z   2
loop_
 _symmetry_equiv_pos_site_id
 _symmetry_equiv_pos_as_xyz
  1  'x, y, z'
loop_
 _atom_site_type_symbol
 _atom_site_label
 _atom_site_symmetry_multiplicity
 _atom_site_fract_x
 _atom_site_fract_y
 _atom_site_fract_z
 _atom_site_occupancy
  As  As0  1  0.69611100  0.64977700  0.26463600  1
  As  As1  1  0.35022300  0.04633400  0.26463600  1
  As  As2  1  0.95366600  0.30388900  0.26463600  1
  As  As3  1  0.30388900  0.35022300  0.76463600  1
  As  As4  1  0.04633400  0.69611100  0.76463600  1
  As  As5  1  0.64977700  0.95366600  0.76463600  1
  Pb  Pb0  1  0.31234600  0.37469500  0.25049200  1
  Pb  Pb1  1  0.93765100  0.31234600  0.75049200  1
  Pb  Pb2  1  0.37469500  0.06234900  0.75049200  1
  Pb  Pb3  1  0.62530500  0.93765100  0.25049200  1
  Pb  Pb4  1  0.33333300  0.66666700  0.64019700  1
  Pb  Pb5  1  0.06234900  0.68765400  0.25049200  1
  Pb  Pb6  1  0.66666700  0.33333300  0.14019700  1
  Pb  Pb7  1  0.68765400  0.62530500  0.75049200  1
  Pb  Pb8  1  0.00000000  0.00000000  0.02007600  1
  Pb  Pb9  1  0.00000000  0.00000000  0.52007600  1
  Cl  Cl0  1  0.66666700  0.33333300  0.74442600  1
  Cl  Cl1  1  0.33333300  0.66666700  0.24442600  1
  O  O0  1  0.80747400  0.84240700  0.22237600  1
  O  O1  1  0.84240700  0.03493300  0.72237600  1
  O  O2  1  0.56176500  0.93137600  0.54990000  1
  O  O3  1  0.63038900  0.56176500  0.04990000  1
  O  O4  1  0.93137600  0.36961100  0.04990000  1
  O  O5  1  0.17916800  0.41164000  0.79769700  1
  O  O6  1  0.36961100  0.43823500  0.54990000  1
  O  O7  1  0.76752800  0.17916800  0.29769700  1
  O  O8  1  0.58836000  0.76752800  0.79769700  1
  O  O9  1  0.03493300  0.19252600  0.22237600  1
  O  O10  1  0.15759300  0.96506700  0.22237600  1
  O  O11  1  0.23247200  0.82083200  0.79769700  1
  O  O12  1  0.41164000  0.23247200  0.29769700  1
  O  O13  1  0.43823500  0.06862400  0.04990000  1
  O  O14  1  0.19252600  0.15759300  0.72237600  1
  O  O15  1  0.06862400  0.63038900  0.54990000  1
  O  O16  1  0.82083200  0.58836000  0.29769700  1
  O  O17  1  0.96506700  0.80747400  0.72237600  1
loop_
_geom_bond_atom_site_label_1
_geom_bond_atom_site_label_2
_geom_bond_distance
_geom_bond_site_symmetry_2
As0 O16 1.789675 1_555
As0 O3 1.798703 1_555
As0 O0 1.834409 1_555
As1 O12 1.789675 1_555
As1 O13 1.798703 1_555
As1 O10 1.834409 1_545
As2 O7 1.789675 1_555
As2 O4 1.798703 1_555
As2 O9 1.834409 1_655
As3 O5 1.789675 1_555
As3 O6 1.798703 1_555
As3 O14 1.834409 1_555
As4 O11 1.789675 1_555
As4 O15 1.798703 1_555
As4 O17 1.834409 1_455
As5 O8 1.789675 1_555
As5 O2 1.798703 1_555
As5 O1 1.834409 1_565
Cl0 Pb6 2.916275 1_556
Cl0 Pb1 3.044574 1_555
Cl0 Pb2 3.044580 1_555
Cl0 Pb7 3.044585 1_555
Cl1 Pb4 2.916275 1_555
Cl1 Pb5 3.044574 1_555
Cl1 Pb3 3.044580 1_555
Cl1 Pb0 3.044585 1_555
O0 Pb8 2.428669 1_665
O0 Pb3 2.643146 1_555
O1 Pb9 2.428669 1_655
O1 Pb1 2.643146 1_555
O2 Pb3 2.301263 1_555
O2 Pb4 2.763972 1_555
O3 Pb7 2.301263 1_554
O3 Pb6 2.763978 1_555
O4 Pb1 2.301263 1_554
O4 Pb6 2.763967 1_555
O5 Pb1 2.295771 1_455
O5 Pb4 2.666757 1_555
O6 Pb0 2.301263 1_555
O6 Pb4 2.763978 1_555
O7 Pb3 2.295772 1_545
O7 Pb6 2.666749 1_555
O8 Pb7 2.295771 1_555
O8 Pb4 2.666758 1_555
O9 Pb8 2.428669 1_555
O9 Pb0 2.643146 1_555
O10 Pb8 2.428669 1_565
O10 Pb5 2.643146 1_555
O11 Pb2 2.295772 1_565
O11 Pb4 2.666749 1_555
O12 Pb0 2.295771 1_555
O12 Pb6 2.666758 1_555
O13 Pb2 2.301263 1_554
O13 Pb6 2.763972 1_555
O14 Pb9 2.428669 1_555
O14 Pb2 2.643146 1_555
O15 Pb5 2.301263 1_555
O15 Pb4 2.763967 1_555
O16 Pb5 2.295771 1_655
O16 Pb6 2.666757 1_555
O17 Pb9 2.428669 1_665
O17 Pb7 2.643146 1_555
