# generated using pymatgen
data_Ti3H2O7
_symmetry_space_group_name_H-M   'P 1'
_cell_length_a   3.77956000
_cell_length_b   9.49472764
_cell_length_c   16.06678547
_cell_angle_alpha   96.90595444
_cell_angle_beta   96.40610609
_cell_angle_gamma   89.95729999
_symmetry_Int_Tables_number   1
_chemical_formula_structural   Ti3H2O7
_chemical_formula_sum   'Ti6 H4 O14'
_cell_volume   568.76694797
_cell_formula_units_Z   2
loop_
 _symmetry_equiv_pos_site_id
 _symmetry_equiv_pos_as_xyz
  1  'x, y, z'
loop_
 _atom_site_type_symbol
 _atom_site_label
 _atom_site_symmetry_multiplicity
 _atom_site_fract_x
 _atom_site_fract_y
 _atom_site_fract_z
 _atom_site_occupancy
  Ti  Ti0  1  0.22758400  0.20869100  0.45603900  1
  Ti  Ti1  1  0.77168500  0.79180200  0.54473800  1
  Ti  Ti2  1  0.21318500  0.52081600  0.42315700  1
  Ti  Ti3  1  0.78731900  0.47969700  0.57642600  1
  Ti  Ti4  1  0.20616300  0.83434000  0.39723500  1
  Ti  Ti5  1  0.80043200  0.16557700  0.60296400  1
  H  H0  1  0.15511400  0.77456400  0.22811400  1
  H  H1  1  0.00025800  0.92975900  0.24003400  1
  H  H2  1  0.88619800  0.23494800  0.77206000  1
  H  H3  1  0.88345200  0.06125900  0.76680900  1
  O  O0  1  0.19216900  0.04056600  0.39730400  1
  O  O1  1  0.80062600  0.95896600  0.60469800  1
  O  O2  1  0.18970500  0.33948700  0.37549400  1
  O  O3  1  0.81032100  0.66135600  0.62490400  1
  O  O4  1  0.17377900  0.64953500  0.34285500  1
  O  O5  1  0.82600500  0.35269000  0.65616500  1
  O  O6  1  0.20309300  0.87151500  0.25560900  1
  O  O7  1  0.86691600  0.14407600  0.73663500  1
  O  O8  1  0.28728300  0.15435800  0.57702100  1
  O  O9  1  0.71351800  0.84490900  0.42276200  1
  O  O10  1  0.27005300  0.45271800  0.54111100  1
  O  O11  1  0.73035100  0.54804500  0.45853800  1
  O  O12  1  0.25440800  0.76427100  0.50828900  1
  O  O13  1  0.74561400  0.23682000  0.49194600  1
loop_
_geom_bond_atom_site_label_1
_geom_bond_atom_site_label_2
_geom_bond_distance
_geom_bond_site_symmetry_2
H0 O6 0.979785 1_555
H1 O6 0.972623 1_555
H2 O7 0.972849 1_555
H3 O7 0.970609 1_555
O0 Ti0 1.751143 1_555
O0 Ti4 1.958605 1_545
O1 Ti1 1.751630 1_555
O1 Ti5 1.965258 1_565
O2 Ti2 1.796235 1_555
O2 Ti0 1.892698 1_555
O3 Ti3 1.803112 1_555
O3 Ti1 1.885653 1_555
O4 Ti4 1.861455 1_555
O4 Ti2 1.875228 1_555
O5 Ti3 1.856441 1_555
O5 Ti5 1.874264 1_555
O6 Ti4 2.343022 1_555
O7 Ti5 2.168457 1_555
O8 Ti5 1.931624 1_455
O8 Ti5 1.938012 1_555
O8 Ti0 2.058754 1_555
O9 Ti4 1.915797 1_555
O9 Ti4 1.950767 1_655
O9 Ti1 2.069924 1_555
O10 Ti3 1.977828 1_455
O10 Ti3 1.981915 1_555
O10 Ti2 2.063827 1_555
O10 Ti0 2.540151 1_555
O11 Ti2 1.978810 1_655
O11 Ti2 1.981953 1_555
O11 Ti3 2.063833 1_555
O11 Ti1 2.545667 1_555
O12 Ti4 1.967789 1_555
O12 Ti1 1.985172 1_455
O12 Ti1 1.985465 1_555
O12 Ti2 2.535943 1_555
O13 Ti5 1.972196 1_555
O13 Ti0 1.979708 1_655
O13 Ti0 1.987284 1_555
O13 Ti3 2.526880 1_555
