# generated using pymatgen
data_NbBW
_symmetry_space_group_name_H-M   'P 1'
_cell_length_a   4.17184374
_cell_length_b   4.17184374
_cell_length_c   4.17184374
_cell_angle_alpha   60.00000000
_cell_angle_beta   60.00000000
_cell_angle_gamma   60.00000000
_symmetry_Int_Tables_number   1
_chemical_formula_structural   NbBW
_chemical_formula_sum   'Nb1 B1 W1'
_cell_volume   51.34156495
_cell_formula_units_Z   1
loop_
 _symmetry_equiv_pos_site_id
 _symmetry_equiv_pos_as_xyz
  1  'x, y, z'
loop_
 _atom_site_type_symbol
 _atom_site_label
 _atom_site_symmetry_multiplicity
 _atom_site_fract_x
 _atom_site_fract_y
 _atom_site_fract_z
 _atom_site_occupancy
  Nb  Nb0  1  0.25000000  0.25000000  0.25000000  1
  B  B0  1  0.50000000  0.50000000  0.50000000  1
  W  W0  1  0.00000000  0.00000000  0.00000000  1
loop_
_geom_bond_atom_site_label_1
_geom_bond_atom_site_label_2
_geom_bond_distance
_geom_bond_site_symmetry_2
Nb0 W0 2.554722 1_655
Nb0 W0 2.554722 1_556
Nb0 W0 2.554722 1_555
Nb0 W0 2.554722 1_565
B0 Nb0 2.554722 1_655
B0 Nb0 2.554722 1_556
B0 Nb0 2.554722 1_555
B0 Nb0 2.554722 1_565
B0 W0 2.949939 1_665
B0 W0 2.949939 1_656
B0 W0 2.949939 1_556
B0 W0 2.949939 1_565
B0 W0 2.949939 1_655
B0 W0 2.949939 1_566
