# generated using pymatgen
data_LiZr2(PO4)3
_symmetry_space_group_name_H-M   'P 1'
_cell_length_a   8.97942935
_cell_length_b   8.97942935
_cell_length_c   9.19461384
_cell_angle_alpha   60.90076714
_cell_angle_beta   60.90076714
_cell_angle_gamma   60.39740018
_symmetry_Int_Tables_number   1
_chemical_formula_structural   LiZr2(PO4)3
_chemical_formula_sum   'Li2 Zr4 P6 O24'
_cell_volume   532.86670064
_cell_formula_units_Z   2
loop_
 _symmetry_equiv_pos_site_id
 _symmetry_equiv_pos_as_xyz
  1  'x, y, z'
loop_
 _atom_site_type_symbol
 _atom_site_label
 _atom_site_symmetry_multiplicity
 _atom_site_fract_x
 _atom_site_fract_y
 _atom_site_fract_z
 _atom_site_occupancy
  Li  Li0  1  0.37188600  0.14366300  0.27919100  1
  Li  Li1  1  0.85633700  0.62811400  0.72080900  1
  Zr  Zr0  1  0.85678300  0.35629700  0.17929500  1
  Zr  Zr1  1  0.64370300  0.14321700  0.82070500  1
  Zr  Zr2  1  0.35525200  0.85585700  0.68156500  1
  Zr  Zr3  1  0.14414300  0.64474800  0.31843500  1
  P  P0  1  0.53954500  0.75169000  0.99806500  1
  P  P1  1  0.24831000  0.46045500  0.00193500  1
  P  P2  1  0.96250000  0.03750000  0.00000000  1
  P  P3  1  0.03718800  0.96281200  0.50000000  1
  P  P4  1  0.74750200  0.53938900  0.50165300  1
  P  P5  1  0.46061100  0.25249800  0.49834700  1
  O  O0  1  0.49391700  0.21204200  0.66438600  1
  O  O1  1  0.87540800  0.99317500  0.66614000  1
  O  O2  1  0.71908700  0.58803500  0.00282900  1
  O  O3  1  0.71428700  0.37439100  0.66564500  1
  O  O4  1  0.37762800  0.71398300  0.16098500  1
  O  O5  1  0.56170400  0.91776200  0.98282000  1
  O  O6  1  0.08223800  0.43829600  0.01718000  1
  O  O7  1  0.41196500  0.28091300  0.99717100  1
  O  O8  1  0.78957700  0.06324200  0.98086300  1
  O  O9  1  0.00682500  0.12459200  0.33386000  1
  O  O10  1  0.05500800  0.78530300  0.49262400  1
  O  O11  1  0.78795800  0.50608300  0.33561400  1
  O  O12  1  0.21665600  0.48421000  0.17275700  1
  O  O13  1  0.93675800  0.21042300  0.01913700  1
  O  O14  1  0.99701300  0.87193900  0.16367600  1
  O  O15  1  0.21469700  0.94499200  0.50737600  1
  O  O16  1  0.58091400  0.71096200  0.52143100  1
  O  O17  1  0.90830300  0.56821600  0.49653000  1
  O  O18  1  0.43178400  0.09169700  0.50347000  1
  O  O19  1  0.62560900  0.28571300  0.33435500  1
  O  O20  1  0.28601700  0.62237200  0.83901500  1
  O  O21  1  0.28903800  0.41908600  0.47856900  1
  O  O22  1  0.12806100  0.00298700  0.83632400  1
  O  O23  1  0.51579000  0.78334400  0.82724300  1
loop_
_geom_bond_atom_site_label_1
_geom_bond_atom_site_label_2
_geom_bond_distance
_geom_bond_site_symmetry_2
Li0 O18 2.157412 1_555
Li0 O7 2.189644 1_554
Li0 O15 2.354458 1_545
Li0 O12 2.540960 1_555
Li1 O17 2.157412 1_555
Li1 O2 2.189644 1_556
Li1 O10 2.354458 1_655
Li1 O23 2.540960 1_555
O0 P5 1.532789 1_555
O0 Zr1 2.109940 1_555
O1 P3 1.540637 1_655
O1 Zr1 2.093010 1_565
O2 P0 1.557568 1_554
O2 Zr0 2.148692 1_555
O3 P4 1.543989 1_555
O3 Zr1 2.070196 1_555
O4 P0 1.532038 1_554
O4 Zr3 2.082799 1_555
O5 P0 1.531574 1_555
O5 Zr1 2.081465 1_565
O6 P1 1.531574 1_555
O6 Zr0 2.081465 1_455
O7 P1 1.557568 1_556
O7 Zr1 2.148692 1_555
O8 P2 1.538510 1_556
O8 Zr1 2.078028 1_555
O9 P3 1.540637 1_545
O9 Zr0 2.093010 1_455
O10 P3 1.553519 1_555
O10 Zr3 2.126006 1_555
O11 P4 1.532789 1_555
O11 Zr0 2.109940 1_555
O12 P1 1.557225 1_555
O12 Zr3 2.097278 1_555
O13 P2 1.538510 1_555
O13 Zr0 2.078028 1_555
O14 P2 1.547041 1_565
O14 Zr3 2.067428 1_655
O15 P3 1.553519 1_555
O15 Zr2 2.126006 1_555
O16 P4 1.541202 1_555
O16 Zr2 2.079268 1_555
O17 P4 1.563750 1_555
O17 Zr3 2.146797 1_655
O18 P5 1.563750 1_555
O18 Zr2 2.146797 1_545
O19 P5 1.543989 1_555
O19 Zr0 2.070196 1_555
O20 P1 1.532038 1_556
O20 Zr2 2.082799 1_555
O21 P5 1.541202 1_555
O21 Zr3 2.079268 1_555
O22 P2 1.547041 1_456
O22 Zr2 2.067428 1_545
O23 P0 1.557225 1_555
O23 Zr2 2.097278 1_555
