# generated using pymatgen
data_Ca2FeWO6
_symmetry_space_group_name_H-M   'P 1'
_cell_length_a   5.60640916
_cell_length_b   5.60640916
_cell_length_c   5.60640917
_cell_angle_alpha   60.13687652
_cell_angle_beta   60.13687652
_cell_angle_gamma   60.13687424
_symmetry_Int_Tables_number   1
_chemical_formula_structural   Ca2FeWO6
_chemical_formula_sum   'Ca2 Fe1 W1 O6'
_cell_volume   124.99247687
_cell_formula_units_Z   1
loop_
 _symmetry_equiv_pos_site_id
 _symmetry_equiv_pos_as_xyz
  1  'x, y, z'
loop_
 _atom_site_type_symbol
 _atom_site_label
 _atom_site_symmetry_multiplicity
 _atom_site_fract_x
 _atom_site_fract_y
 _atom_site_fract_z
 _atom_site_occupancy
  Ca  Ca0  1  0.25764900  0.25764900  0.25764900  1
  Ca  Ca1  1  0.74235100  0.74235100  0.74235100  1
  Fe  Fe0  1  0.50000000  0.50000000  0.50000000  1
  W  W0  1  0.00000000  0.00000000  0.00000000  1
  O  O0  1  0.75372900  0.24890600  0.75372900  1
  O  O1  1  0.75109400  0.24627100  0.24627100  1
  O  O2  1  0.24890600  0.75372900  0.75372900  1
  O  O3  1  0.24627100  0.24627100  0.75109400  1
  O  O4  1  0.24627100  0.75109400  0.24627100  1
  O  O5  1  0.75372900  0.75372900  0.24890600  1
loop_
_geom_bond_atom_site_label_1
_geom_bond_atom_site_label_2
_geom_bond_distance
_geom_bond_site_symmetry_2
Ca0 O4 2.704437 1_555
Ca0 O1 2.704437 1_555
Ca0 O3 2.704437 1_555
Ca0 O5 2.810069 1_545
Ca0 O5 2.810069 1_455
Ca0 O0 2.810069 1_554
Ca0 O2 2.810069 1_554
Ca0 O2 2.810069 1_545
Ca0 O0 2.810069 1_455
Ca0 O3 2.904884 1_554
Ca0 O4 2.904884 1_545
Ca0 O1 2.904884 1_455
Ca1 O0 2.704437 1_555
Ca1 O2 2.704437 1_555
Ca1 O5 2.704437 1_555
Ca1 O3 2.810069 1_565
Ca1 O3 2.810069 1_655
Ca1 O4 2.810069 1_556
Ca1 O1 2.810069 1_556
Ca1 O4 2.810069 1_655
Ca1 O1 2.810069 1_565
Ca1 O5 2.904884 1_556
Ca1 O0 2.904884 1_565
Ca1 O2 2.904884 1_655
Fe0 O4 2.013823 1_555
Fe0 O0 2.013823 1_555
Fe0 O2 2.013823 1_555
Fe0 O1 2.013823 1_555
Fe0 O5 2.013823 1_555
Fe0 O3 2.013823 1_555
O0 W0 1.954718 1_656
O1 W0 1.954718 1_655
O2 W0 1.954718 1_566
O3 W0 1.954718 1_556
O4 W0 1.954718 1_565
O5 W0 1.954718 1_665
