# generated using pymatgen
data_K10Th3(P5S18)2
_symmetry_space_group_name_H-M   'P 1'
_cell_length_a   17.25483619
_cell_length_b   17.25483619
_cell_length_c   28.28950794
_cell_angle_alpha   54.02349944
_cell_angle_beta   54.02349944
_cell_angle_gamma   30.81480833
_symmetry_Int_Tables_number   1
_chemical_formula_structural   K10Th3(P5S18)2
_chemical_formula_sum   'K20 Th6 P20 S72'
_cell_volume   3421.05130712
_cell_formula_units_Z   2
loop_
 _symmetry_equiv_pos_site_id
 _symmetry_equiv_pos_as_xyz
  1  'x, y, z'
loop_
 _atom_site_type_symbol
 _atom_site_label
 _atom_site_symmetry_multiplicity
 _atom_site_fract_x
 _atom_site_fract_y
 _atom_site_fract_z
 _atom_site_occupancy
  K  K0  1  0.28931000  0.69656400  0.07332900  1
  K  K1  1  0.45969900  0.73124400  0.62692600  1
  K  K2  1  0.69656400  0.28931000  0.57332900  1
  K  K3  1  0.13521500  0.74257500  0.66347700  1
  K  K4  1  0.86478500  0.25742500  0.33652300  1
  K  K5  1  0.54030100  0.26875600  0.37307400  1
  K  K6  1  0.71069000  0.30343600  0.92667100  1
  K  K7  1  0.26875600  0.54030100  0.87307400  1
  K  K8  1  0.25742500  0.86478500  0.83652300  1
  K  K9  1  0.53211100  0.89387800  0.26365800  1
  K  K10  1  0.80545700  0.75184200  0.39935100  1
  K  K11  1  0.46788900  0.10612200  0.73634200  1
  K  K12  1  0.73124400  0.45969900  0.12692600  1
  K  K13  1  0.89387800  0.53211100  0.76365800  1
  K  K14  1  0.30343600  0.71069000  0.42667100  1
  K  K15  1  0.10612200  0.46788900  0.23634200  1
  K  K16  1  0.74257500  0.13521500  0.16347700  1
  K  K17  1  0.75184200  0.80545700  0.89935100  1
  K  K18  1  0.19454300  0.24815800  0.60064900  1
  K  K19  1  0.24815800  0.19454300  0.10064900  1
  Th  Th0  1  0.88509300  0.77721000  0.05543200  1
  Th  Th1  1  0.22279000  0.11490700  0.44456800  1
  Th  Th2  1  0.21540900  0.78459100  0.25000000  1
  Th  Th3  1  0.77721000  0.88509300  0.55543200  1
  Th  Th4  1  0.78459100  0.21540900  0.75000000  1
  Th  Th5  1  0.11490700  0.22279000  0.94456800  1
  P  P0  1  0.86649300  0.97754200  0.89980400  1
  P  P1  1  0.86315600  0.48745200  0.39111800  1
  P  P2  1  0.57056100  0.82171100  0.65175400  1
  P  P3  1  0.02245800  0.13350700  0.60019600  1
  P  P4  1  0.82171100  0.57056100  0.15175400  1
  P  P5  1  0.13684400  0.51254800  0.60888200  1
  P  P6  1  0.29332700  0.51279900  0.24641900  1
  P  P7  1  0.42943900  0.17828900  0.34824600  1
  P  P8  1  0.70667300  0.48720100  0.75358100  1
  P  P9  1  0.72340800  0.47091700  0.97040600  1
  P  P10  1  0.51254800  0.13684400  0.10888200  1
  P  P11  1  0.13350700  0.02245800  0.10019600  1
  P  P12  1  0.17828900  0.42943900  0.84824600  1
  P  P13  1  0.47091700  0.72340800  0.47040600  1
  P  P14  1  0.51279900  0.29332700  0.74641900  1
  P  P15  1  0.97754200  0.86649300  0.39980400  1
  P  P16  1  0.52908300  0.27659200  0.52959400  1
  P  P17  1  0.27659200  0.52908300  0.02959400  1
  P  P18  1  0.48745200  0.86315600  0.89111800  1
  P  P19  1  0.48720100  0.70667300  0.25358100  1
  S  S0  1  0.57544300  0.75207100  0.16234800  1
  S  S1  1  0.79432200  0.50322500  0.98655700  1
  S  S2  1  0.45161500  0.47168900  0.23906500  1
  S  S3  1  0.02446800  0.91738900  0.82030300  1
  S  S4  1  0.21000500  0.32741800  0.67088500  1
  S  S5  1  0.91385400  0.25522400  0.75560800  1
  S  S6  1  0.20567800  0.49677500  0.01344300  1
  S  S7  1  0.32888800  0.90264500  0.40916500  1
  S  S8  1  0.92156600  0.36417600  0.19117300  1
  S  S9  1  0.63582400  0.07843400  0.30882700  1
  S  S10  1  0.83458700  0.86319700  0.44213000  1
  S  S11  1  0.24792900  0.42455700  0.33765200  1
  S  S12  1  0.74477600  0.08614600  0.74439200  1
  S  S13  1  0.90264500  0.32888800  0.90916500  1
  S  S14  1  0.50322500  0.79432200  0.48655700  1
  S  S15  1  0.33879200  0.79516800  0.12352800  1
  S  S16  1  0.06285400  0.56735900  0.54719400  1
  S  S17  1  0.09735500  0.67111200  0.09083500  1
  S  S18  1  0.56735900  0.06285400  0.04719400  1
  S  S19  1  0.14654700  0.36958000  0.82317000  1
  S  S20  1  0.34698200  0.60610200  0.96131300  1
  S  S21  1  0.54838500  0.52831100  0.76093500  1
  S  S22  1  0.35825300  0.42678000  0.18887100  1
  S  S23  1  0.67258200  0.78999500  0.82911500  1
  S  S24  1  0.52831100  0.54838500  0.26093500  1
  S  S25  1  0.51319100  0.68996900  0.93622300  1
  S  S26  1  0.39264600  0.12167700  0.43920300  1
  S  S27  1  0.67111200  0.09735500  0.59083500  1
  S  S28  1  0.36417600  0.92156600  0.69117300  1
  S  S29  1  0.08261100  0.97553200  0.67969700  1
  S  S30  1  0.79516800  0.33879200  0.62352800  1
  S  S31  1  0.31003100  0.48680900  0.56377700  1
  S  S32  1  0.39389800  0.65301800  0.53868700  1
  S  S33  1  0.28786100  0.03082600  0.86398500  1
  S  S34  1  0.97553200  0.08261100  0.17969700  1
  S  S35  1  0.32741800  0.21000500  0.17088500  1
  S  S36  1  0.43264100  0.93714600  0.95280600  1
  S  S37  1  0.64174700  0.57322000  0.81112900  1
  S  S38  1  0.20483200  0.66120800  0.37647200  1
  S  S39  1  0.68996900  0.51319100  0.43622300  1
  S  S40  1  0.49677500  0.20567800  0.51344300  1
  S  S41  1  0.07843400  0.63582400  0.80882700  1
  S  S42  1  0.36958000  0.14654700  0.32317000  1
  S  S43  1  0.03082600  0.28786100  0.36398500  1
  S  S44  1  0.91738900  0.02446800  0.32030300  1
  S  S45  1  0.42678000  0.35825300  0.68887100  1
  S  S46  1  0.93714600  0.43264100  0.45280600  1
  S  S47  1  0.78999500  0.67258200  0.32911500  1
  S  S48  1  0.87832300  0.60735400  0.06079700  1
  S  S49  1  0.57322000  0.64174700  0.31112900  1
  S  S50  1  0.71213900  0.96917400  0.13601500  1
  S  S51  1  0.60610200  0.34698200  0.46131300  1
  S  S52  1  0.08614600  0.74477600  0.24439200  1
  S  S53  1  0.25522400  0.91385400  0.25560800  1
  S  S54  1  0.94600300  0.92838700  0.45842200  1
  S  S55  1  0.13680300  0.16541300  0.05787000  1
  S  S56  1  0.47168900  0.45161500  0.73906500  1
  S  S57  1  0.07161300  0.05399700  0.04157800  1
  S  S58  1  0.85345300  0.63042000  0.17683000  1
  S  S59  1  0.12167700  0.39264600  0.93920300  1
  S  S60  1  0.75207100  0.57544300  0.66234800  1
  S  S61  1  0.63042000  0.85345300  0.67683000  1
  S  S62  1  0.92838700  0.94600300  0.95842200  1
  S  S63  1  0.86319700  0.83458700  0.94213000  1
  S  S64  1  0.60735400  0.87832300  0.56079700  1
  S  S65  1  0.96917400  0.71213900  0.63601500  1
  S  S66  1  0.48680900  0.31003100  0.06377700  1
  S  S67  1  0.66120800  0.20483200  0.87647200  1
  S  S68  1  0.05399700  0.07161300  0.54157800  1
  S  S69  1  0.65301800  0.39389800  0.03868700  1
  S  S70  1  0.42455700  0.24792900  0.83765200  1
  S  S71  1  0.16541300  0.13680300  0.55787000  1
loop_
_geom_bond_atom_site_label_1
_geom_bond_atom_site_label_2
_geom_bond_distance
_geom_bond_site_symmetry_2
K0 S69 3.179748 1_555
K0 S57 3.258352 1_565
K0 S22 3.308838 1_555
K0 S17 3.424069 1_555
K0 S25 3.484162 1_554
K0 S15 3.521210 1_555
K0 S20 3.592626 1_554
K1 S14 3.215495 1_555
K1 S21 3.315198 1_555
K1 S28 3.316664 1_555
K1 S29 3.347220 1_555
K1 S30 3.486303 1_555
K1 S71 3.623367 1_565
K1 S60 3.627795 1_555
K2 S32 3.179748 1_555
K2 S68 3.258352 1_655
K2 S45 3.308838 1_555
K2 S27 3.424069 1_555
K2 S39 3.484162 1_555
K2 S30 3.521210 1_555
K2 S51 3.592626 1_555
K3 S41 3.275390 1_555
K3 S32 3.289714 1_555
K3 S45 3.338624 1_555
K3 S29 3.550027 1_555
K4 S8 3.275390 1_555
K4 S51 3.289714 1_555
K4 S49 3.338624 1_555
K4 S44 3.550027 1_555
K5 S40 3.215495 1_555
K5 S2 3.315198 1_555
K5 S9 3.316664 1_555
K5 S44 3.347220 1_555
K5 S38 3.486303 1_555
K5 S10 3.623367 1_545
K5 S11 3.627795 1_555
K6 S20 3.179748 1_555
K6 S62 3.258352 1_545
K6 S37 3.308838 1_555
K6 S13 3.424069 1_555
K6 S66 3.484162 1_556
K6 S67 3.521210 1_555
K6 S69 3.592626 1_556
K7 S6 3.215495 1_556
K7 S56 3.315198 1_555
K7 S41 3.316664 1_555
K7 S3 3.347220 1_555
K7 S67 3.486303 1_555
K7 S63 3.623367 1_455
K7 S70 3.627795 1_555
K8 S28 3.275390 1_555
K8 S20 3.289714 1_555
K8 S37 3.338624 1_555
K8 S3 3.550027 1_555
K9 S47 3.162021 1_555
K9 S35 3.177374 1_565
K9 S49 3.191811 1_555
K9 S58 3.356394 1_555
K9 S42 3.432495 1_565
K9 S7 3.482055 1_555
K9 S50 3.552152 1_555
K10 S47 3.214298 1_555
K10 S9 3.225120 1_565
K10 S10 3.242618 1_555
K10 S46 3.246573 1_555
K11 S4 3.162021 1_555
K11 S23 3.177374 1_545
K11 S45 3.191811 1_555
K11 S19 3.356394 1_555
K11 S61 3.432495 1_545
K11 S27 3.482055 1_555
K11 S33 3.552152 1_555
K12 S1 3.215495 1_554
K12 S24 3.315198 1_555
K12 S8 3.316664 1_555
K12 S34 3.347220 1_555
K12 S15 3.486303 1_555
K12 S55 3.623367 1_655
K12 S0 3.627795 1_555
K13 S23 3.162021 1_555
K13 S4 3.177374 1_655
K13 S37 3.191811 1_555
K13 S61 3.356394 1_555
K13 S19 3.432495 1_655
K13 S13 3.482055 1_555
K13 S65 3.552152 1_555
K14 S51 3.179748 1_555
K14 S54 3.258352 1_455
K14 S49 3.308838 1_555
K14 S7 3.424069 1_555
K14 S31 3.484162 1_555
K14 S38 3.521210 1_555
K14 S32 3.592626 1_555
K15 S35 3.162021 1_555
K15 S47 3.177374 1_455
K15 S22 3.191811 1_555
K15 S42 3.356394 1_555
K15 S58 3.432495 1_455
K15 S17 3.482055 1_555
K15 S43 3.552152 1_555
K16 S9 3.275390 1_555
K16 S69 3.289714 1_555
K16 S22 3.338624 1_555
K16 S34 3.550027 1_555
K17 S23 3.214298 1_555
K17 S41 3.225120 1_655
K17 S63 3.242618 1_555
K17 S36 3.246573 1_555
K18 S4 3.214298 1_555
K18 S28 3.225120 1_545
K18 S71 3.242618 1_555
K18 S16 3.246573 1_555
K19 S35 3.214298 1_555
K19 S8 3.225120 1_455
K19 S55 3.242618 1_555
K19 S18 3.246573 1_555
P0 S67 2.051260 1_565
P0 S62 2.051530 1_555
P0 S63 2.052367 1_555
P0 S3 2.060556 1_655
P1 S47 1.991562 1_555
P1 S46 2.043137 1_555
P1 S43 2.049989 1_655
P1 S39 2.159075 1_555
P2 S28 1.986565 1_555
P2 S61 2.039368 1_555
P2 S64 2.042303 1_555
P2 S60 2.168530 1_555
P3 S30 2.051260 1_455
P3 S68 2.051530 1_555
P3 S71 2.052367 1_555
P3 S29 2.060556 1_545
P4 S8 1.986565 1_555
P4 S58 2.039368 1_555
P4 S48 2.042303 1_555
P4 S0 2.168530 1_555
P5 S4 1.991562 1_555
P5 S16 2.043137 1_555
P5 S65 2.049989 1_455
P5 S31 2.159075 1_555
P6 S22 1.987083 1_555
P6 S2 2.045511 1_555
P6 S52 2.048819 1_555
P6 S11 2.156245 1_555
P7 S9 1.986565 1_555
P7 S42 2.039368 1_555
P7 S26 2.042303 1_555
P7 S11 2.168530 1_555
P8 S37 1.987083 1_555
P8 S21 2.045511 1_555
P8 S5 2.048819 1_555
P8 S60 2.156245 1_555
P9 S69 1.993107 1_556
P9 S1 2.035811 1_555
P9 S13 2.060777 1_555
P9 S25 2.157802 1_555
P10 S35 1.991562 1_555
P10 S18 2.043137 1_555
P10 S50 2.049989 1_545
P10 S66 2.159075 1_555
P11 S15 2.051260 1_545
P11 S57 2.051530 1_555
P11 S55 2.052367 1_555
P11 S34 2.060556 1_455
P12 S41 1.986565 1_555
P12 S19 2.039368 1_555
P12 S59 2.042303 1_555
P12 S70 2.168530 1_555
P13 S32 1.993107 1_555
P13 S14 2.035811 1_555
P13 S7 2.060777 1_555
P13 S39 2.157802 1_555
P14 S45 1.987083 1_555
P14 S56 2.045511 1_555
P14 S12 2.048819 1_555
P14 S70 2.156245 1_555
P15 S38 2.051260 1_655
P15 S54 2.051530 1_555
P15 S10 2.052367 1_555
P15 S44 2.060556 1_565
P16 S51 1.993107 1_555
P16 S40 2.035811 1_555
P16 S27 2.060777 1_555
P16 S31 2.157802 1_555
P17 S20 1.993107 1_554
P17 S6 2.035811 1_555
P17 S17 2.060777 1_555
P17 S66 2.157802 1_555
P18 S23 1.991562 1_555
P18 S36 2.043137 1_555
P18 S33 2.049989 1_565
P18 S25 2.159075 1_555
P19 S49 1.987083 1_555
P19 S24 2.045511 1_555
P19 S53 2.048819 1_555
P19 S0 2.156245 1_555
S1 Th5 2.912311 1_655
S2 Th2 2.922499 1_555
S3 Th4 2.937202 1_465
S5 Th4 2.940685 1_555
S6 Th0 2.912311 1_455
S7 Th1 2.899551 1_565
S10 Th3 2.906640 1_555
S12 Th4 2.940685 1_555
S13 Th5 2.899551 1_655
S14 Th1 2.912311 1_565
S15 Th2 2.884011 1_555
S16 Th3 2.853404 1_455
S17 Th0 2.899551 1_455
S18 Th0 2.853404 1_545
S19 Th5 2.908612 1_555
S21 Th4 2.922499 1_555
S24 Th2 2.922499 1_555
S26 Th1 2.944673 1_555
S27 Th3 2.899551 1_545
S29 Th4 2.937202 1_465
S30 Th4 2.884011 1_555
S33 Th5 2.995649 1_555
S34 Th2 2.937202 1_645
S36 Th5 2.853404 1_565
S38 Th2 2.884011 1_555
S40 Th3 2.912311 1_545
S42 Th1 2.908612 1_555
S43 Th1 2.995649 1_555
S44 Th2 2.937202 1_645
S46 Th1 2.853404 1_655
S48 Th0 2.944673 1_555
S50 Th0 2.995649 1_555
S52 Th2 2.940685 1_555
S53 Th2 2.940685 1_555
S54 Th3 2.917137 1_555
S55 Th5 2.906640 1_554
S56 Th4 2.922499 1_555
S57 Th5 2.917137 1_554
S58 Th0 2.908612 1_555
S59 Th5 2.944673 1_555
S61 Th3 2.908612 1_555
S62 Th0 2.917137 1_556
S63 Th0 2.906640 1_556
S64 Th3 2.944673 1_555
S65 Th3 2.995649 1_555
S67 Th4 2.884011 1_555
S68 Th1 2.917137 1_555
S71 Th1 2.906640 1_555
