# generated using pymatgen
data_H6C2NO
_symmetry_space_group_name_H-M   'P 1'
_cell_length_a   5.55398900
_cell_length_b   7.33280300
_cell_length_c   8.47014100
_cell_angle_alpha   90.00000000
_cell_angle_beta   90.00000000
_cell_angle_gamma   90.00000000
_symmetry_Int_Tables_number   1
_chemical_formula_structural   H6C2NO
_chemical_formula_sum   'H24 C8 N4 O4'
_cell_volume   344.95756440
_cell_formula_units_Z   4
loop_
 _symmetry_equiv_pos_site_id
 _symmetry_equiv_pos_as_xyz
  1  'x, y, z'
loop_
 _atom_site_type_symbol
 _atom_site_label
 _atom_site_symmetry_multiplicity
 _atom_site_fract_x
 _atom_site_fract_y
 _atom_site_fract_z
 _atom_site_occupancy
  H  H0  1  0.54222200  0.00000000  0.74798000  1
  H  H1  1  0.77328800  0.12225500  0.64327100  1
  H  H2  1  0.77056200  0.66182900  0.89446500  1
  H  H3  1  0.45769000  0.28812000  0.50000000  1
  H  H4  1  0.45769000  0.71188000  0.50000000  1
  H  H5  1  0.22671200  0.62225500  0.14327100  1
  H  H6  1  0.77056200  0.66182900  0.10553500  1
  H  H7  1  0.22671200  0.37774500  0.14327100  1
  H  H8  1  0.45777800  0.50000000  0.75202000  1
  H  H9  1  0.22671200  0.62225500  0.85672900  1
  H  H10  1  0.22943800  0.83817100  0.39446500  1
  H  H11  1  0.22943800  0.83817100  0.60553500  1
  H  H12  1  0.77056200  0.33817100  0.89446500  1
  H  H13  1  0.77328800  0.87774500  0.64327100  1
  H  H14  1  0.22943800  0.16182900  0.60553500  1
  H  H15  1  0.22671200  0.37774500  0.85672900  1
  H  H16  1  0.77056200  0.33817100  0.10553500  1
  H  H17  1  0.54231000  0.21188000  0.00000000  1
  H  H18  1  0.77328800  0.12225500  0.35672900  1
  H  H19  1  0.54222200  0.00000000  0.25202000  1
  H  H20  1  0.77328800  0.87774500  0.35672900  1
  H  H21  1  0.22943800  0.16182900  0.39446500  1
  H  H22  1  0.45777800  0.50000000  0.24798000  1
  H  H23  1  0.54231000  0.78812000  0.00000000  1
  C  C0  1  0.34327500  0.16625200  0.50000000  1
  C  C1  1  0.34038000  0.50000000  0.85558400  1
  C  C2  1  0.65962000  0.00000000  0.35558400  1
  C  C3  1  0.34038000  0.50000000  0.14441600  1
  C  C4  1  0.65672500  0.66625200  0.00000000  1
  C  C5  1  0.65672500  0.33374800  0.00000000  1
  C  C6  1  0.65962000  0.00000000  0.64441600  1
  C  C7  1  0.34327500  0.83374800  0.50000000  1
  N  N0  1  0.96064900  0.50000000  0.50000000  1
  N  N1  1  0.49741100  0.50000000  0.00000000  1
  N  N2  1  0.50258900  0.00000000  0.50000000  1
  N  N3  1  0.03935100  0.00000000  0.00000000  1
  O  O0  1  0.83960600  0.50000000  0.37274700  1
  O  O1  1  0.16039400  0.00000000  0.87274700  1
  O  O2  1  0.16039400  0.00000000  0.12725300  1
  O  O3  1  0.83960600  0.50000000  0.62725300  1
loop_
_geom_bond_atom_site_label_1
_geom_bond_atom_site_label_2
_geom_bond_distance
_geom_bond_site_symmetry_2
C0 H14 1.095373 1_555
C0 H21 1.095373 1_555
C0 H3 1.096536 1_555
C0 N2 1.506356 1_555
C1 H8 1.092988 1_555
C1 H15 1.096499 1_555
C1 H9 1.096499 1_555
C1 N1 1.502305 1_556
C2 H19 1.092988 1_555
C2 H18 1.096499 1_555
C2 H20 1.096499 1_545
C2 N2 1.502305 1_555
C3 H22 1.092988 1_555
C3 H5 1.096499 1_555
C3 H7 1.096499 1_555
C3 N1 1.502305 1_555
C4 H6 1.095373 1_555
C4 H2 1.095373 1_554
C4 H23 1.096536 1_555
C4 N1 1.506356 1_555
C5 H16 1.095373 1_555
C5 H12 1.095373 1_554
C5 H17 1.096536 1_555
C5 N1 1.506356 1_555
C6 H0 1.092988 1_555
C6 H1 1.096499 1_555
C6 H13 1.096499 1_545
C6 N2 1.502305 1_555
C7 H11 1.095373 1_555
C7 H10 1.095373 1_555
C7 H4 1.096536 1_555
C7 N2 1.506356 1_565
N0 O3 1.270319 1_555
N0 O0 1.270319 1_555
N3 O2 1.270319 1_555
N3 O1 1.270319 1_554
