# generated using pymatgen
data_KBaAl3Si5O16
_symmetry_space_group_name_H-M   'P 1'
_cell_length_a   7.30802900
_cell_length_b   7.89114761
_cell_length_c   7.93030168
_cell_angle_alpha   113.21308385
_cell_angle_beta   103.79190370
_cell_angle_gamma   103.73054746
_symmetry_Int_Tables_number   1
_chemical_formula_structural   KBaAl3Si5O16
_chemical_formula_sum   'K1 Ba1 Al3 Si5 O16'
_cell_volume   379.02397510
_cell_formula_units_Z   1
loop_
 _symmetry_equiv_pos_site_id
 _symmetry_equiv_pos_as_xyz
  1  'x, y, z'
loop_
 _atom_site_type_symbol
 _atom_site_label
 _atom_site_symmetry_multiplicity
 _atom_site_fract_x
 _atom_site_fract_y
 _atom_site_fract_z
 _atom_site_occupancy
  K  K0  1  0.87440900  0.71390100  0.72170700  1
  Ba  Ba0  1  0.14066200  0.27376000  0.28872200  1
  Al  Al0  1  0.64986300  0.17722100  0.41213100  1
  Al  Al1  1  0.22341000  0.82415500  0.19345000  1
  Al  Al2  1  0.22141500  0.19399500  0.82392100  1
  Si  Si0  1  0.77460000  0.17691000  0.80921300  1
  Si  Si1  1  0.77026000  0.80270600  0.16529300  1
  Si  Si2  1  0.65306100  0.41024600  0.17529900  1
  Si  Si3  1  0.34569600  0.58944600  0.82426300  1
  Si  Si4  1  0.34797700  0.82816700  0.59080600  1
  O  O0  1  0.99170800  0.14821600  0.86794200  1
  O  O1  1  0.98419400  0.84712400  0.13301000  1
  O  O2  1  0.76437800  0.30889700  0.02574300  1
  O  O3  1  0.76879400  0.01646800  0.30453800  1
  O  O4  1  0.72996500  0.38100200  0.36814300  1
  O  O5  1  0.75169700  0.28197600  0.67194500  1
  O  O6  1  0.74019600  0.65261600  0.26109000  1
  O  O7  1  0.38670200  0.07238700  0.31340300  1
  O  O8  1  0.40734000  0.31649500  0.06672300  1
  O  O9  1  0.59292800  0.68876200  0.94220800  1
  O  O10  1  0.59564300  0.95232800  0.69711500  1
  O  O11  1  0.25939900  0.34753400  0.71319200  1
  O  O12  1  0.26640600  0.71726800  0.35065800  1
  O  O13  1  0.30522600  0.63541400  0.63435700  1
  O  O14  1  0.22520700  0.96136300  0.68278200  1
  O  O15  1  0.22886200  0.68164000  0.96234900  1
loop_
_geom_bond_atom_site_label_1
_geom_bond_atom_site_label_2
_geom_bond_distance
_geom_bond_site_symmetry_2
K0 O4 2.709784 1_555
K0 O1 2.834908 1_556
K0 O15 2.958997 1_655
K0 O0 2.970508 1_565
K0 O14 2.992795 1_655
K0 O9 3.020502 1_555
K0 O10 3.106061 1_555
K0 O5 3.145950 1_555
K0 O6 3.348594 1_555
Ba0 O7 2.688909 1_555
Ba0 O13 2.781452 1_555
Ba0 O1 2.896336 1_445
Ba0 O0 2.907155 1_454
Ba0 O8 2.967027 1_555
Ba0 O11 3.040677 1_555
Ba0 O3 3.044240 1_455
Ba0 O2 3.173570 1_455
Ba0 O12 3.199562 1_555
Ba0 O4 3.436286 1_455
Al0 O7 1.735582 1_555
Al0 O3 1.765320 1_555
Al0 O5 1.765405 1_555
Al0 O4 1.772835 1_555
Al1 O7 1.745333 1_565
Al1 O15 1.748273 1_554
Al1 O12 1.769862 1_555
Al1 O1 1.771488 1_455
Al2 O14 1.744328 1_545
Al2 O11 1.763907 1_555
Al2 O8 1.774812 1_556
Al2 O0 1.778026 1_455
O0 Si0 1.639186 1_555
O1 Si1 1.623013 1_555
O2 Si0 1.651426 1_554
O2 Si2 1.652033 1_555
O3 Si1 1.615778 1_545
O4 Si2 1.624156 1_555
O5 Si0 1.609620 1_555
O6 Si1 1.641196 1_555
O6 Si2 1.647984 1_555
O8 Si2 1.625838 1_555
O9 Si3 1.642471 1_555
O9 Si1 1.648487 1_556
O10 Si4 1.651096 1_555
O10 Si0 1.656770 1_565
O11 Si3 1.629679 1_555
O12 Si4 1.626459 1_555
O13 Si3 1.660219 1_555
O13 Si4 1.664463 1_555
O14 Si4 1.611547 1_555
O15 Si3 1.603158 1_555
