# generated using pymatgen
data_NaCS(OF)3
_symmetry_space_group_name_H-M   'P 1'
_cell_length_a   10.22097800
_cell_length_b   11.03350717
_cell_length_c   11.33079768
_cell_angle_alpha   101.24554006
_cell_angle_beta   105.05376919
_cell_angle_gamma   110.72370447
_symmetry_Int_Tables_number   1
_chemical_formula_structural   NaCS(OF)3
_chemical_formula_sum   'Na8 C8 S8 O24 F24'
_cell_volume   1094.33711301
_cell_formula_units_Z   8
loop_
 _symmetry_equiv_pos_site_id
 _symmetry_equiv_pos_as_xyz
  1  'x, y, z'
loop_
 _atom_site_type_symbol
 _atom_site_label
 _atom_site_symmetry_multiplicity
 _atom_site_fract_x
 _atom_site_fract_y
 _atom_site_fract_z
 _atom_site_occupancy
  Na  Na0  1  0.26803400  0.83819000  0.53806400  1
  Na  Na1  1  0.34549000  0.36736100  0.52871400  1
  Na  Na2  1  0.25523200  0.00548600  0.32119800  1
  Na  Na3  1  0.74564700  0.99933900  0.68678500  1
  Na  Na4  1  0.65263100  0.62755900  0.47352400  1
  Na  Na5  1  0.92717100  0.96185800  0.47415400  1
  Na  Na6  1  0.73155000  0.16753200  0.46528000  1
  Na  Na7  1  0.00069300  0.49960200  0.50103100  1
  C  C0  1  0.05500300  0.84999700  0.85270100  1
  C  C1  1  0.10560600  0.36683800  0.86085800  1
  C  C2  1  0.51695100  0.72856000  0.84167700  1
  C  C3  1  0.48618300  0.81695200  0.18268400  1
  C  C4  1  0.51384700  0.18310400  0.81686900  1
  C  C5  1  0.48282400  0.27131000  0.15791700  1
  C  C6  1  0.89403600  0.63162900  0.13802700  1
  C  C7  1  0.94497100  0.15117900  0.14664100  1
  S  S0  1  0.05599900  0.28710900  0.68352600  1
  S  S1  1  0.02344600  0.20197500  0.32715100  1
  S  S2  1  0.44443900  0.69635000  0.66324000  1
  S  S3  1  0.49296200  0.81715100  0.34975200  1
  S  S4  1  0.50882000  0.18287000  0.65010700  1
  S  S5  1  0.55497500  0.30346900  0.33619100  1
  S  S6  1  0.97644800  0.79896800  0.67181600  1
  S  S7  1  0.94608600  0.71192500  0.31573000  1
  O  O0  1  0.09780300  0.87985000  0.63548600  1
  O  O1  1  0.03508600  0.85822700  0.33904200  1
  O  O2  1  0.03611600  0.64688700  0.37492600  1
  O  O3  1  0.07297900  0.34950600  0.37350100  1
  O  O4  1  0.28111300  0.63830000  0.62152200  1
  O  O5  1  0.19617700  0.31880000  0.66166900  1
  O  O6  1  0.37573100  0.85881100  0.36467000  1
  O  O7  1  0.14747400  0.16147800  0.35366100  1
  O  O8  1  0.50891000  0.83301200  0.65075400  1
  O  O9  1  0.50436500  0.60418000  0.61294300  1
  O  O10  1  0.46541500  0.67865600  0.34958800  1
  O  O11  1  0.35796300  0.07986000  0.56555700  1
  O  O12  1  0.64640700  0.91990600  0.43300000  1
  O  O13  1  0.53708100  0.32168500  0.65071200  1
  O  O14  1  0.49373400  0.39448000  0.38633700  1
  O  O15  1  0.49164800  0.16660400  0.34853100  1
  O  O16  1  0.84987100  0.83772100  0.64377700  1
  O  O17  1  0.62862700  0.14301400  0.63773500  1
  O  O18  1  0.80782200  0.68635900  0.34124200  1
  O  O19  1  0.71838200  0.36296300  0.37844300  1
  O  O20  1  0.92761900  0.65158600  0.62679400  1
  O  O21  1  0.96366100  0.35043700  0.62390800  1
  O  O22  1  0.96693500  0.14037400  0.65953100  1
  O  O23  1  0.89831200  0.12165200  0.36083900  1
  F  F0  1  0.08519600  0.98267400  0.90527100  1
  F  F1  1  0.18290300  0.83440200  0.89242600  1
  F  F2  1  0.02036200  0.67163900  0.10898000  1
  F  F3  1  0.16849400  0.50408000  0.89285700  1
  F  F4  1  0.20154800  0.32773400  0.93179900  1
  F  F5  1  0.04476700  0.22801000  0.10279600  1
  F  F6  1  0.46243000  0.80702700  0.90133400  1
  F  F7  1  0.47863300  0.61059300  0.86967000  1
  F  F8  1  0.35057600  0.72543400  0.09647300  1
  F  F9  1  0.40767800  0.21629000  0.84415100  1
  F  F10  1  0.50889600  0.94217500  0.17028900  1
  F  F11  1  0.66863500  0.79680900  0.88756700  1
  F  F12  1  0.33128900  0.20327800  0.11201200  1
  F  F13  1  0.49095500  0.05761000  0.82939300  1
  F  F14  1  0.59283600  0.78389400  0.15558900  1
  F  F15  1  0.64968500  0.27429600  0.90356100  1
  F  F16  1  0.52156100  0.38954600  0.13024200  1
  F  F17  1  0.53756300  0.19295700  0.09850300  1
  F  F18  1  0.95509500  0.77228200  0.89596200  1
  F  F19  1  0.79841600  0.67205900  0.06864700  1
  F  F20  1  0.83080300  0.49462200  0.10580500  1
  F  F21  1  0.97899400  0.32697500  0.88969800  1
  F  F22  1  0.81689100  0.16628500  0.10604100  1
  F  F23  1  0.91491800  0.01812400  0.09494700  1
loop_
_geom_bond_atom_site_label_1
_geom_bond_atom_site_label_2
_geom_bond_distance
_geom_bond_site_symmetry_2
Na0 O0 2.413080 1_555
Na0 O11 2.417574 1_565
Na0 O2 2.480367 1_555
Na0 O8 2.487987 1_555
Na0 O6 2.498794 1_555
Na0 O4 2.594751 1_555
Na0 O1 2.929356 1_555
Na1 O13 2.358727 1_555
Na1 O9 2.365304 1_555
Na1 O5 2.411642 1_555
Na1 O7 2.468653 1_555
Na1 O14 2.474887 1_555
Na1 O3 2.796754 1_555
Na2 O15 2.334851 1_555
Na2 O1 2.349646 1_545
Na2 O7 2.369768 1_555
Na2 O6 2.405188 1_545
Na2 O11 2.536911 1_555
Na3 O8 2.332673 1_555
Na3 O17 2.364874 1_565
Na3 O22 2.385758 1_565
Na3 O16 2.413971 1_555
Na3 O12 2.634148 1_555
Na4 O14 2.333863 1_555
Na4 O10 2.372325 1_555
Na4 O9 2.446306 1_555
Na4 O18 2.463633 1_555
Na4 O16 2.467653 1_555
Na4 O20 2.782735 1_555
Na5 O22 2.415178 1_565
Na5 O23 2.428631 1_565
Na5 O1 2.440228 1_655
Na5 O12 2.635794 1_555
Na5 O16 2.691434 1_555
Na5 O0 2.703313 1_655
Na5 O18 2.762601 1_555
Na6 O21 2.431754 1_555
Na6 O23 2.446769 1_555
Na6 O15 2.460597 1_555
Na6 O17 2.463881 1_555
Na6 O12 2.473478 1_545
Na6 O19 2.569032 1_555
Na7 O21 2.348841 1_455
Na7 O2 2.360421 1_555
Na7 O3 2.421514 1_555
Na7 O20 2.430586 1_455
Na7 O4 2.543427 1_555
Na7 O19 2.559469 1_455
C0 F18 1.350019 1_455
C0 F1 1.350887 1_555
C0 F0 1.355626 1_555
C1 F3 1.346685 1_555
C1 F4 1.348755 1_555
C1 F21 1.359348 1_455
C2 F7 1.346441 1_555
C2 F6 1.351248 1_555
C2 F11 1.357691 1_555
C3 F8 1.347742 1_555
C3 F14 1.351729 1_555
C3 F10 1.359482 1_555
C4 F9 1.348514 1_555
C4 F15 1.349939 1_555
C4 F13 1.362610 1_555
C5 F16 1.347391 1_555
C5 F17 1.350769 1_555
C5 F12 1.356218 1_555
C6 F20 1.344198 1_555
C6 F19 1.348477 1_555
C6 F2 1.358070 1_655
C7 F5 1.349588 1_655
C7 F22 1.350798 1_555
C7 F23 1.358183 1_555
O0 S6 1.459274 1_455
O1 S7 1.473988 1_455
O2 S7 1.464938 1_455
O3 S1 1.458434 1_555
O4 S2 1.461411 1_555
O5 S0 1.449112 1_555
O6 S3 1.462967 1_555
O7 S1 1.467085 1_555
O8 S2 1.468438 1_555
O9 S2 1.459542 1_555
O10 S3 1.452050 1_555
O11 S4 1.467917 1_555
O12 S3 1.480166 1_555
O13 S4 1.452963 1_555
O14 S5 1.459473 1_555
O15 S5 1.468508 1_555
O16 S6 1.479358 1_555
O17 S4 1.469277 1_555
O18 S7 1.456753 1_555
O19 S5 1.461424 1_555
O20 S6 1.457217 1_555
O21 S0 1.467961 1_655
O22 S0 1.476643 1_655
O23 S1 1.466387 1_655
