# generated using pymatgen
data_Cs3Re3(SI)4
_symmetry_space_group_name_H-M   'P 1'
_cell_length_a   11.44884933
_cell_length_b   11.44884933
_cell_length_c   11.44884933
_cell_angle_alpha   60.00000000
_cell_angle_beta   60.00000000
_cell_angle_gamma   60.00000000
_symmetry_Int_Tables_number   1
_chemical_formula_structural   Cs3Re3(SI)4
_chemical_formula_sum   'Cs6 Re6 S8 I8'
_cell_volume   1061.13471428
_cell_formula_units_Z   2
loop_
 _symmetry_equiv_pos_site_id
 _symmetry_equiv_pos_as_xyz
  1  'x, y, z'
loop_
 _atom_site_type_symbol
 _atom_site_label
 _atom_site_symmetry_multiplicity
 _atom_site_fract_x
 _atom_site_fract_y
 _atom_site_fract_z
 _atom_site_occupancy
  Cs  Cs0  1  0.50000000  0.00000000  0.00000000  1
  Cs  Cs1  1  0.50000000  0.00000000  0.50000000  1
  Cs  Cs2  1  0.00000000  0.50000000  0.00000000  1
  Cs  Cs3  1  0.00000000  0.00000000  0.50000000  1
  Cs  Cs4  1  0.00000000  0.50000000  0.50000000  1
  Cs  Cs5  1  0.50000000  0.50000000  0.00000000  1
  Re  Re0  1  0.61491200  0.38508800  0.38508800  1
  Re  Re1  1  0.38508800  0.61491200  0.61491200  1
  Re  Re2  1  0.38508800  0.38508800  0.61491200  1
  Re  Re3  1  0.61491200  0.38508800  0.61491200  1
  Re  Re4  1  0.61491200  0.61491200  0.38508800  1
  Re  Re5  1  0.38508800  0.61491200  0.38508800  1
  S  S0  1  0.39426800  0.81719700  0.39426800  1
  S  S1  1  0.60573200  0.60573200  0.60573200  1
  S  S2  1  0.18280300  0.60573200  0.60573200  1
  S  S3  1  0.39426800  0.39426800  0.39426800  1
  S  S4  1  0.60573200  0.60573200  0.18280300  1
  S  S5  1  0.81719700  0.39426800  0.39426800  1
  S  S6  1  0.60573200  0.18280300  0.60573200  1
  S  S7  1  0.39426800  0.39426800  0.81719700  1
  I  I0  1  0.21052800  0.21052800  0.78947200  1
  I  I1  1  0.21052800  0.78947200  0.78947200  1
  I  I2  1  0.78947200  0.21052800  0.21052800  1
  I  I3  1  0.75000000  0.75000000  0.75000000  1
  I  I4  1  0.21052800  0.78947200  0.21052800  1
  I  I5  1  0.25000000  0.25000000  0.25000000  1
  I  I6  1  0.78947200  0.78947200  0.21052800  1
  I  I7  1  0.78947200  0.21052800  0.78947200  1
loop_
_geom_bond_atom_site_label_1
_geom_bond_atom_site_label_2
_geom_bond_distance
_geom_bond_site_symmetry_2
Cs0 S7 3.720637 1_554
Cs0 S0 3.720637 1_545
Cs0 S6 3.720637 1_554
Cs0 S4 3.720637 1_545
Cs0 I5 4.047779 1_555
Cs0 I3 4.047779 1_544
Cs0 I7 4.097922 1_554
Cs0 I6 4.097922 1_545
Cs0 I4 4.097922 1_545
Cs0 I0 4.097922 1_554
Cs1 S6 3.720629 1_555
Cs1 S0 3.720629 1_545
Cs1 S3 3.720639 1_555
Cs1 S1 3.720639 1_545
Cs1 I3 4.047779 1_545
Cs1 I5 4.047779 1_555
Cs1 I0 4.097922 1_555
Cs1 I2 4.097922 1_555
Cs1 I6 4.097922 1_545
Cs1 I1 4.097922 1_545
Cs2 S5 3.720637 1_455
Cs2 S7 3.720637 1_554
Cs2 S2 3.720637 1_554
Cs2 S4 3.720637 1_455
Cs2 I5 4.047779 1_555
Cs2 I3 4.047779 1_454
Cs2 I1 4.097922 1_554
Cs2 I6 4.097922 1_455
Cs2 I2 4.097922 1_455
Cs2 I0 4.097922 1_554
Cs3 S0 3.720637 1_545
Cs3 S5 3.720637 1_455
Cs3 S6 3.720637 1_455
Cs3 S2 3.720637 1_545
Cs3 I3 4.047779 1_445
Cs3 I5 4.047779 1_555
Cs3 I1 4.097922 1_545
Cs3 I7 4.097922 1_455
Cs3 I4 4.097922 1_545
Cs3 I2 4.097922 1_455
Cs4 S2 3.720629 1_555
Cs4 S5 3.720629 1_455
Cs4 S3 3.720639 1_555
Cs4 S1 3.720639 1_455
Cs4 I5 4.047779 1_555
Cs4 I3 4.047779 1_455
Cs4 I4 4.097922 1_555
Cs4 I0 4.097922 1_555
Cs4 I6 4.097922 1_455
Cs4 I7 4.097922 1_455
Cs5 S4 3.720629 1_555
Cs5 S7 3.720629 1_554
Cs5 S3 3.720639 1_555
Cs5 S1 3.720639 1_554
Cs5 I3 4.047779 1_554
Cs5 I5 4.047779 1_555
Cs5 I4 4.097922 1_555
Cs5 I2 4.097922 1_555
Cs5 I7 4.097922 1_554
Cs5 I1 4.097922 1_554
Re0 S3 2.425578 1_555
Re0 S6 2.425583 1_555
Re0 S4 2.425583 1_555
Re0 S5 2.425589 1_555
Re1 S1 2.425578 1_555
Re1 S0 2.425583 1_555
Re1 S7 2.425583 1_555
Re1 S2 2.425589 1_555
Re2 S3 2.425578 1_555
Re2 S6 2.425583 1_555
Re2 S2 2.425583 1_555
Re2 S7 2.425589 1_555
Re3 S1 2.425578 1_555
Re3 S5 2.425583 1_555
Re3 S7 2.425583 1_555
Re3 S6 2.425589 1_555
Re4 S1 2.425578 1_555
Re4 S5 2.425583 1_555
Re4 S0 2.425583 1_555
Re4 S4 2.425589 1_555
Re5 S3 2.425578 1_555
Re5 S2 2.425583 1_555
Re5 S4 2.425583 1_555
Re5 S0 2.425589 1_555
I0 Re2 2.826322 1_555
I1 Re1 2.826322 1_555
I2 Re0 2.826322 1_555
I4 Re5 2.826322 1_555
I6 Re4 2.826322 1_555
I7 Re3 2.826322 1_555
