# generated using pymatgen
data_K5(Mo6S7)4
_symmetry_space_group_name_H-M   'P 1'
_cell_length_a   9.67781333
_cell_length_b   9.67781333
_cell_length_c   14.58724000
_cell_angle_alpha   90.00000000
_cell_angle_beta   90.00000000
_cell_angle_gamma   119.99999540
_symmetry_Int_Tables_number   1
_chemical_formula_structural   K5(Mo6S7)4
_chemical_formula_sum   'K5 Mo24 S28'
_cell_volume   1183.20027487
_cell_formula_units_Z   1
loop_
 _symmetry_equiv_pos_site_id
 _symmetry_equiv_pos_as_xyz
  1  'x, y, z'
loop_
 _atom_site_type_symbol
 _atom_site_label
 _atom_site_symmetry_multiplicity
 _atom_site_fract_x
 _atom_site_fract_y
 _atom_site_fract_z
 _atom_site_occupancy
  K  K0  1  0.33333300  0.66666700  0.24582300  1
  K  K1  1  0.00000000  0.00000000  0.19319600  1
  K  K2  1  0.66666700  0.33333300  0.75417700  1
  K  K3  1  0.00000000  0.00000000  0.50000000  1
  K  K4  1  0.00000000  0.00000000  0.80680400  1
  Mo  Mo0  1  0.14649100  0.63034800  0.65313300  1
  Mo  Mo1  1  0.05487000  0.60219100  0.04780600  1
  Mo  Mo2  1  0.10543600  0.63527700  0.44807400  1
  Mo  Mo3  1  0.28505500  0.79488800  0.81544300  1
  Mo  Mo4  1  0.20511200  0.49016700  0.81544300  1
  Mo  Mo5  1  0.52984000  0.89456400  0.44807400  1
  Mo  Mo6  1  0.54732100  0.94513000  0.04780600  1
  Mo  Mo7  1  0.36965200  0.51614300  0.65313300  1
  Mo  Mo8  1  0.48385700  0.85350900  0.65313300  1
  Mo  Mo9  1  0.39780900  0.45267900  0.04780600  1
  Mo  Mo10  1  0.36472300  0.47016000  0.44807400  1
  Mo  Mo11  1  0.50983300  0.71494500  0.81544300  1
  Mo  Mo12  1  0.49016700  0.28505500  0.18455700  1
  Mo  Mo13  1  0.63527700  0.52984000  0.55192600  1
  Mo  Mo14  1  0.60219100  0.54732100  0.95219400  1
  Mo  Mo15  1  0.51614300  0.14649100  0.34686700  1
  Mo  Mo16  1  0.63034800  0.48385700  0.34686700  1
  Mo  Mo17  1  0.45267900  0.05487000  0.95219400  1
  Mo  Mo18  1  0.47016000  0.10543600  0.55192600  1
  Mo  Mo19  1  0.79488800  0.50983300  0.18455700  1
  Mo  Mo20  1  0.71494500  0.20511200  0.18455700  1
  Mo  Mo21  1  0.89456400  0.36472300  0.55192600  1
  Mo  Mo22  1  0.94513000  0.39780900  0.95219400  1
  Mo  Mo23  1  0.85350900  0.36965200  0.34686700  1
  S  S0  1  0.00838400  0.57783000  0.80616500  1
  S  S1  1  0.93120700  0.62618700  0.56436500  1
  S  S2  1  0.17669000  0.85871800  0.94521400  1
  S  S3  1  0.07451300  0.34645600  0.67105200  1
  S  S4  1  0.27194400  0.92548700  0.67105200  1
  S  S5  1  0.14128200  0.31797200  0.94521400  1
  S  S6  1  0.33333300  0.66666700  0.52993200  1
  S  S7  1  0.33333300  0.66666700  0.04372000  1
  S  S8  1  0.37381300  0.30502000  0.56436500  1
  S  S9  1  0.56944600  0.99161600  0.80616500  1
  S  S10  1  0.42217000  0.43055400  0.80616500  1
  S  S11  1  0.69498000  0.06879300  0.56436500  1
  S  S12  1  0.34645600  0.27194400  0.32894800  1
  S  S13  1  0.31797200  0.17669000  0.05478600  1
  S  S14  1  0.68202800  0.82331000  0.94521400  1
  S  S15  1  0.65354400  0.72805600  0.67105200  1
  S  S16  1  0.30502000  0.93120700  0.43563500  1
  S  S17  1  0.57783000  0.56944600  0.19383500  1
  S  S18  1  0.43055400  0.00838400  0.19383500  1
  S  S19  1  0.62618700  0.69498000  0.43563500  1
  S  S20  1  0.66666700  0.33333300  0.95628000  1
  S  S21  1  0.66666700  0.33333300  0.47006800  1
  S  S22  1  0.85871800  0.68202800  0.05478600  1
  S  S23  1  0.72805600  0.07451300  0.32894800  1
  S  S24  1  0.92548700  0.65354400  0.32894800  1
  S  S25  1  0.82331000  0.14128200  0.05478600  1
  S  S26  1  0.06879300  0.37381300  0.43563500  1
  S  S27  1  0.99161600  0.42217000  0.19383500  1
loop_
_geom_bond_atom_site_label_1
_geom_bond_atom_site_label_2
_geom_bond_distance
_geom_bond_site_symmetry_2
K0 S7 2.948125 1_555
K0 S18 3.047217 1_565
K0 S27 3.047220 1_455
K0 S17 3.047226 1_555
K1 S25 3.347836 1_455
K1 S22 3.347836 1_445
K1 S13 3.347836 1_555
K1 S24 3.642211 1_445
K1 S12 3.642214 1_555
K1 S23 3.642219 1_455
K2 S20 2.948125 1_555
K2 S9 3.047217 1_545
K2 S0 3.047220 1_655
K2 S10 3.047226 1_555
K3 S11 3.464672 1_455
K3 S16 3.464672 1_545
K3 S1 3.464672 1_445
K3 S26 3.464672 1_555
K3 S19 3.464673 1_445
K3 S8 3.464673 1_555
K4 S2 3.347836 1_545
K4 S5 3.347836 1_555
K4 S14 3.347836 1_445
K4 S3 3.642211 1_555
K4 S15 3.642214 1_445
K4 S4 3.642219 1_545
Mo0 S1 2.436251 1_455
Mo0 S6 2.446924 1_555
Mo0 S3 2.487612 1_555
Mo0 S4 2.496593 1_555
Mo0 S0 2.519655 1_555
Mo1 Mo22 2.210168 1_454
Mo1 S22 2.382795 1_455
Mo1 S7 2.444152 1_555
Mo1 S2 2.620316 1_554
Mo1 S27 2.623186 1_455
Mo2 S1 2.362240 1_455
Mo2 S26 2.379972 1_555
Mo2 S6 2.390090 1_555
Mo2 S24 2.528174 1_455
Mo2 S16 2.536565 1_555
Mo3 S2 2.390133 1_555
Mo3 S0 2.444542 1_555
Mo3 S9 2.445023 1_555
Mo3 S4 2.492048 1_555
Mo4 S5 2.390133 1_555
Mo4 S10 2.444542 1_555
Mo4 S0 2.445023 1_555
Mo4 S3 2.492051 1_555
Mo5 S11 2.362244 1_565
Mo5 S16 2.379962 1_555
Mo5 S6 2.390090 1_555
Mo5 S23 2.528174 1_565
Mo5 S19 2.536572 1_555
Mo6 S25 2.382796 1_565
Mo6 S7 2.444155 1_555
Mo6 S14 2.620316 1_554
Mo6 S18 2.623186 1_565
Mo7 S8 2.436251 1_555
Mo7 S6 2.446930 1_555
Mo7 S15 2.487610 1_555
Mo7 S3 2.496594 1_555
Mo7 S10 2.519655 1_555
Mo8 S11 2.436251 1_565
Mo8 S6 2.446926 1_555
Mo8 S4 2.487603 1_555
Mo8 S15 2.496601 1_555
Mo8 S9 2.519655 1_555
Mo9 S13 2.382795 1_555
Mo9 S7 2.444161 1_555
Mo9 S5 2.620316 1_554
Mo9 S17 2.623186 1_555
Mo10 S8 2.362247 1_555
Mo10 S19 2.379968 1_555
Mo10 S6 2.390090 1_555
Mo10 S12 2.528174 1_555
Mo10 S26 2.536563 1_555
Mo11 S14 2.390133 1_555
Mo11 S9 2.444542 1_555
Mo11 S10 2.445023 1_555
Mo11 S15 2.492054 1_555
Mo12 S13 2.390133 1_555
Mo12 S18 2.444542 1_555
Mo12 S17 2.445023 1_555
Mo12 S12 2.492054 1_555
Mo13 S19 2.362247 1_555
Mo13 S8 2.379968 1_555
Mo13 S21 2.390090 1_555
Mo13 S15 2.528174 1_555
Mo13 S1 2.536563 1_555
Mo14 Mo9 2.210168 1_556
Mo14 S14 2.382795 1_555
Mo14 S20 2.444161 1_555
Mo14 S22 2.620316 1_556
Mo14 S10 2.623186 1_555
Mo15 S16 2.436251 1_545
Mo15 S21 2.446926 1_555
Mo15 S23 2.487603 1_555
Mo15 S12 2.496601 1_555
Mo15 S18 2.519655 1_555
Mo16 S19 2.436251 1_555
Mo16 S21 2.446930 1_555
Mo16 S12 2.487610 1_555
Mo16 S24 2.496594 1_555
Mo16 S17 2.519655 1_555
Mo17 Mo6 2.210168 1_546
Mo17 S2 2.382796 1_545
Mo17 S20 2.444155 1_555
Mo17 S13 2.620316 1_556
Mo17 S9 2.623186 1_545
Mo18 S16 2.362244 1_545
Mo18 S11 2.379962 1_555
Mo18 S21 2.390090 1_555
Mo18 S4 2.528174 1_545
Mo18 S8 2.536572 1_555
Mo19 S22 2.390133 1_555
Mo19 S17 2.444542 1_555
Mo19 S27 2.445023 1_555
Mo19 S24 2.492051 1_555
Mo20 S25 2.390133 1_555
Mo20 S27 2.444542 1_555
Mo20 S18 2.445023 1_555
Mo20 S23 2.492048 1_555
Mo21 S26 2.362240 1_655
Mo21 S1 2.379972 1_555
Mo21 S21 2.390090 1_555
Mo21 S3 2.528174 1_655
Mo21 S11 2.536565 1_555
Mo22 S5 2.382795 1_655
Mo22 S20 2.444152 1_555
Mo22 S25 2.620316 1_556
Mo22 S0 2.623186 1_655
Mo23 S26 2.436251 1_655
Mo23 S21 2.446924 1_555
Mo23 S24 2.487612 1_555
Mo23 S23 2.496593 1_555
Mo23 S27 2.519655 1_555
