# generated using pymatgen
data_Mn7FeCl3O10
_symmetry_space_group_name_H-M   'P 1'
_cell_length_a   9.43892376
_cell_length_b   9.43892376
_cell_length_c   9.43892376
_cell_angle_alpha   60.00000000
_cell_angle_beta   60.00000000
_cell_angle_gamma   60.00000000
_symmetry_Int_Tables_number   1
_chemical_formula_structural   Mn7FeCl3O10
_chemical_formula_sum   'Mn14 Fe2 Cl6 O20'
_cell_volume   594.63769628
_cell_formula_units_Z   2
loop_
 _symmetry_equiv_pos_site_id
 _symmetry_equiv_pos_as_xyz
  1  'x, y, z'
loop_
 _atom_site_type_symbol
 _atom_site_label
 _atom_site_symmetry_multiplicity
 _atom_site_fract_x
 _atom_site_fract_y
 _atom_site_fract_z
 _atom_site_occupancy
  Mn  Mn0  1  0.64863800  0.00000000  0.35136200  1
  Mn  Mn1  1  0.35136200  0.64863800  0.00000000  1
  Mn  Mn2  1  0.00000000  0.00000000  0.35136200  1
  Mn  Mn3  1  0.64863800  0.00000000  0.00000000  1
  Mn  Mn4  1  0.35136200  0.00000000  0.64863800  1
  Mn  Mn5  1  0.00000000  0.35136200  0.64863800  1
  Mn  Mn6  1  0.00000000  0.35136200  0.00000000  1
  Mn  Mn7  1  0.64863800  0.35136200  0.00000000  1
  Mn  Mn8  1  0.50000000  0.50000000  0.50000000  1
  Mn  Mn9  1  0.00000000  0.64863800  0.00000000  1
  Mn  Mn10  1  0.00000000  0.00000000  0.64863800  1
  Mn  Mn11  1  0.00000000  0.64863800  0.35136200  1
  Mn  Mn12  1  0.35136200  0.00000000  0.00000000  1
  Mn  Mn13  1  0.00000000  0.00000000  0.00000000  1
  Fe  Fe0  1  0.25000000  0.25000000  0.25000000  1
  Fe  Fe1  1  0.75000000  0.75000000  0.75000000  1
  Cl  Cl0  1  0.69650900  0.30349100  0.30349100  1
  Cl  Cl1  1  0.30349100  0.69650900  0.69650900  1
  Cl  Cl2  1  0.69650900  0.69650900  0.30349100  1
  Cl  Cl3  1  0.30349100  0.69650900  0.30349100  1
  Cl  Cl4  1  0.69650900  0.30349100  0.69650900  1
  Cl  Cl5  1  0.30349100  0.30349100  0.69650900  1
  O  O0  1  0.59628100  0.90371900  0.90371900  1
  O  O1  1  0.59628100  0.90371900  0.59628100  1
  O  O2  1  0.30004300  0.89998600  0.89998600  1
  O  O3  1  0.59628100  0.59628100  0.90371900  1
  O  O4  1  0.90371900  0.59628100  0.90371900  1
  O  O5  1  0.09628100  0.09628100  0.40371900  1
  O  O6  1  0.40371900  0.09628100  0.09628100  1
  O  O7  1  0.90371900  0.59628100  0.59628100  1
  O  O8  1  0.10001400  0.69995700  0.10001400  1
  O  O9  1  0.89998600  0.30004300  0.89998600  1
  O  O10  1  0.10001400  0.10001400  0.10001400  1
  O  O11  1  0.40371900  0.40371900  0.09628100  1
  O  O12  1  0.90371900  0.90371900  0.59628100  1
  O  O13  1  0.69995700  0.10001400  0.10001400  1
  O  O14  1  0.09628100  0.40371900  0.40371900  1
  O  O15  1  0.89998600  0.89998600  0.30004300  1
  O  O16  1  0.40371900  0.09628100  0.40371900  1
  O  O17  1  0.89998600  0.89998600  0.89998600  1
  O  O18  1  0.10001400  0.10001400  0.69995700  1
  O  O19  1  0.09628100  0.40371900  0.09628100  1
loop_
_geom_bond_atom_site_label_1
_geom_bond_atom_site_label_2
_geom_bond_distance
_geom_bond_site_symmetry_2
Mn0 O16 1.902671 1_555
Mn0 O1 1.902671 1_545
Mn0 O15 1.955193 1_545
Mn0 O13 1.955193 1_555
Mn1 O11 1.902671 1_555
Mn1 O3 1.902671 1_554
Mn1 O2 1.955193 1_554
Mn1 O8 1.955193 1_555
Mn2 O5 1.902671 1_555
Mn2 O12 1.902671 1_445
Mn2 O15 1.955185 1_445
Mn2 O10 1.955192 1_555
Mn3 O6 1.902671 1_555
Mn3 O0 1.902671 1_544
Mn3 O13 1.955185 1_555
Mn3 O17 1.955192 1_544
Mn4 O16 1.902671 1_555
Mn4 O1 1.902671 1_545
Mn4 O2 1.955193 1_545
Mn4 O18 1.955193 1_555
Mn5 O14 1.902671 1_555
Mn5 O7 1.902671 1_455
Mn5 O9 1.955193 1_455
Mn5 O18 1.955193 1_555
Mn6 O19 1.902671 1_555
Mn6 O4 1.902671 1_454
Mn6 O9 1.955185 1_454
Mn6 O10 1.955192 1_555
Mn7 O11 1.902671 1_555
Mn7 O3 1.902671 1_554
Mn7 O9 1.955193 1_554
Mn7 O13 1.955193 1_555
Mn9 O19 1.902671 1_555
Mn9 O4 1.902671 1_454
Mn9 O8 1.955185 1_555
Mn9 O17 1.955192 1_454
Mn10 O5 1.902671 1_555
Mn10 O12 1.902671 1_445
Mn10 O18 1.955185 1_555
Mn10 O17 1.955192 1_445
Mn11 O14 1.902671 1_555
Mn11 O7 1.902671 1_455
Mn11 O15 1.955193 1_455
Mn11 O8 1.955193 1_555
Mn12 O6 1.902671 1_555
Mn12 O0 1.902671 1_544
Mn12 O2 1.955185 1_544
Mn12 O10 1.955192 1_555
Mn13 O10 2.312378 1_555
Mn13 O17 2.312378 1_444
Mn13 O9 2.312386 1_454
Mn13 O2 2.312386 1_544
Mn13 O15 2.312386 1_445
Mn13 O8 2.312386 1_545
Mn13 O13 2.312386 1_455
Mn13 O18 2.312386 1_554
Fe0 O16 2.051942 1_555
Fe0 O14 2.051942 1_555
Fe0 O11 2.051942 1_555
Fe0 O19 2.051942 1_555
Fe0 O6 2.051942 1_555
Fe0 O5 2.051942 1_555
Fe1 O0 2.051942 1_555
Fe1 O12 2.051942 1_555
Fe1 O4 2.051942 1_555
Fe1 O1 2.051942 1_555
Fe1 O3 2.051942 1_555
Fe1 O7 2.051942 1_555
Cl0 Mn8 2.623131 1_555
Cl0 Mn7 2.900046 1_555
Cl0 Mn0 2.900046 1_555
Cl0 Mn6 2.900046 1_655
Cl0 Mn2 2.900046 1_655
Cl1 Mn8 2.623131 1_555
Cl1 Mn9 2.900046 1_556
Cl1 Mn10 2.900046 1_565
Cl1 Mn4 2.900046 1_565
Cl1 Mn1 2.900046 1_556
Cl2 Mn8 2.623131 1_555
Cl2 Mn9 2.900046 1_655
Cl2 Mn3 2.900046 1_565
Cl2 Mn11 2.900046 1_655
Cl2 Mn0 2.900046 1_565
Cl3 Mn8 2.623131 1_555
Cl3 Mn1 2.900046 1_555
Cl3 Mn11 2.900046 1_555
Cl3 Mn12 2.900046 1_565
Cl3 Mn2 2.900046 1_565
Cl4 Mn8 2.623131 1_555
Cl4 Mn3 2.900046 1_556
Cl4 Mn10 2.900046 1_655
Cl4 Mn5 2.900046 1_655
Cl4 Mn7 2.900046 1_556
Cl5 Mn8 2.623131 1_555
Cl5 Mn4 2.900046 1_555
Cl5 Mn5 2.900046 1_555
Cl5 Mn12 2.900046 1_556
Cl5 Mn6 2.900046 1_556
