# generated using pymatgen
data_AuC5(SCl)4
_symmetry_space_group_name_H-M   'P 1'
_cell_length_a   9.51618121
_cell_length_b   9.51618121
_cell_length_c   8.13703470
_cell_angle_alpha   85.49567387
_cell_angle_beta   85.49567387
_cell_angle_gamma   74.12658936
_symmetry_Int_Tables_number   1
_chemical_formula_structural   AuC5(SCl)4
_chemical_formula_sum   'Au2 C10 S8 Cl8'
_cell_volume   705.33211353
_cell_formula_units_Z   2
loop_
 _symmetry_equiv_pos_site_id
 _symmetry_equiv_pos_as_xyz
  1  'x, y, z'
loop_
 _atom_site_type_symbol
 _atom_site_label
 _atom_site_symmetry_multiplicity
 _atom_site_fract_x
 _atom_site_fract_y
 _atom_site_fract_z
 _atom_site_occupancy
  Au  Au0  1  0.85659100  0.85659100  0.11428800  1
  Au  Au1  1  0.14340900  0.14340900  0.88571200  1
  C  C0  1  0.34647000  0.46604100  0.67343500  1
  C  C1  1  0.47896500  0.47896500  0.92562600  1
  C  C2  1  0.91885300  0.35450500  0.39722600  1
  C  C3  1  0.46604100  0.34647000  0.67343500  1
  C  C4  1  0.35450500  0.91885300  0.39722600  1
  C  C5  1  0.52103500  0.52103500  0.07437400  1
  C  C6  1  0.64549500  0.08114700  0.60277400  1
  C  C7  1  0.08114700  0.64549500  0.60277400  1
  C  C8  1  0.53395900  0.65353000  0.32656500  1
  C  C9  1  0.65353000  0.53395900  0.32656500  1
  S  S0  1  0.21144800  0.50950800  0.52303000  1
  S  S1  1  0.67663500  0.42092800  0.16564000  1
  S  S2  1  0.57907200  0.32336500  0.83436000  1
  S  S3  1  0.78855200  0.49049200  0.47697000  1
  S  S4  1  0.49049200  0.78855200  0.47697000  1
  S  S5  1  0.50950800  0.21144800  0.52303000  1
  S  S6  1  0.42092800  0.67663500  0.16564000  1
  S  S7  1  0.32336500  0.57907200  0.83436000  1
  Cl  Cl0  1  0.96686900  0.96686900  0.29050100  1
  Cl  Cl1  1  0.94859400  0.35273700  0.87351000  1
  Cl  Cl2  1  0.05140600  0.64726300  0.12649000  1
  Cl  Cl3  1  0.74801700  0.74801700  0.92980200  1
  Cl  Cl4  1  0.35273700  0.94859400  0.87351000  1
  Cl  Cl5  1  0.03313100  0.03313100  0.70949900  1
  Cl  Cl6  1  0.64726300  0.05140600  0.12649000  1
  Cl  Cl7  1  0.25198300  0.25198300  0.07019800  1
loop_
_geom_bond_atom_site_label_1
_geom_bond_atom_site_label_2
_geom_bond_distance
_geom_bond_site_symmetry_2
Au0 Cl0 2.309468 1_555
Au0 Cl6 2.322189 1_565
Au0 Cl2 2.322189 1_655
Au0 Cl3 2.336611 1_554
Au1 Cl5 2.309468 1_555
Au1 Cl4 2.322189 1_545
Au1 Cl1 2.322189 1_455
Au1 Cl7 2.336611 1_556
C0 C3 1.371569 1_555
C0 S7 1.722385 1_555
C0 S0 1.787905 1_555
C1 C5 1.423179 1_556
C1 S7 1.715086 1_555
C1 S2 1.715086 1_555
C2 S3 1.661611 1_555
C3 S2 1.722385 1_555
C3 S5 1.787905 1_555
C4 S4 1.661611 1_555
C5 S6 1.715086 1_555
C5 S1 1.715086 1_555
C6 S5 1.661611 1_555
C7 S0 1.661611 1_555
C8 C9 1.371569 1_555
C8 S6 1.722385 1_555
C8 S4 1.787905 1_555
C9 S1 1.722385 1_555
C9 S3 1.787905 1_555
