# generated using pymatgen
data_Mn9(Cu3O10)2
_symmetry_space_group_name_H-M   'P 1'
_cell_length_a   6.03159054
_cell_length_b   6.03159054
_cell_length_c   24.85801667
_cell_angle_alpha   81.75159345
_cell_angle_beta   81.75159345
_cell_angle_gamma   59.58707352
_symmetry_Int_Tables_number   1
_chemical_formula_structural   Mn9(Cu3O10)2
_chemical_formula_sum   'Mn18 Cu12 O40'
_cell_volume   769.16858078
_cell_formula_units_Z   2
loop_
 _symmetry_equiv_pos_site_id
 _symmetry_equiv_pos_as_xyz
  1  'x, y, z'
loop_
 _atom_site_type_symbol
 _atom_site_label
 _atom_site_symmetry_multiplicity
 _atom_site_fract_x
 _atom_site_fract_y
 _atom_site_fract_z
 _atom_site_occupancy
  Mn  Mn0  1  0.99404200  0.99404200  0.99944100  1
  Mn  Mn1  1  0.59433300  0.59433300  0.19749800  1
  Mn  Mn2  1  0.12626000  0.62408200  0.12500500  1
  Mn  Mn3  1  0.62408200  0.12626000  0.12500500  1
  Mn  Mn4  1  0.19741100  0.19741100  0.39896100  1
  Mn  Mn5  1  0.32406900  0.32406900  0.02512200  1
  Mn  Mn6  1  0.72570400  0.22313700  0.32493200  1
  Mn  Mn7  1  0.22313700  0.72570400  0.32493200  1
  Mn  Mn8  1  0.79440400  0.79440400  0.59999200  1
  Mn  Mn9  1  0.72560500  0.72560500  0.32482900  1
  Mn  Mn10  1  0.32591400  0.82264200  0.52496500  1
  Mn  Mn11  1  0.82264200  0.32591400  0.52496500  1
  Mn  Mn12  1  0.92628500  0.42372100  0.72586700  1
  Mn  Mn13  1  0.42372100  0.92628500  0.72586700  1
  Mn  Mn14  1  0.12554200  0.12554200  0.62586300  1
  Mn  Mn15  1  0.52486100  0.02515600  0.92373800  1
  Mn  Mn16  1  0.02515600  0.52486100  0.92373800  1
  Mn  Mn17  1  0.72471500  0.72471500  0.82461800  1
  Cu  Cu0  1  0.65371300  0.65371300  0.04929300  1
  Cu  Cu1  1  0.25075700  0.25075700  0.25056900  1
  Cu  Cu2  1  0.12499700  0.12499700  0.12509700  1
  Cu  Cu3  1  0.85477400  0.85477400  0.45208600  1
  Cu  Cu4  1  0.92362600  0.92362600  0.22478800  1
  Cu  Cu5  1  0.52529800  0.52529800  0.42596600  1
  Cu  Cu6  1  0.45372300  0.45372300  0.65094400  1
  Cu  Cu7  1  0.39704600  0.39704600  0.80007900  1
  Cu  Cu8  1  0.32618800  0.32618800  0.52473100  1
  Cu  Cu9  1  0.05341100  0.05341100  0.84935600  1
  Cu  Cu10  1  0.92536700  0.92536700  0.72560800  1
  Cu  Cu11  1  0.52540100  0.52540100  0.92395900  1
  O  O0  1  0.46466000  0.46466000  0.07863300  1
  O  O1  1  0.28497300  0.28497300  0.16935000  1
  O  O2  1  0.01171700  0.46670400  0.07703800  1
  O  O3  1  0.46670400  0.01171700  0.07703800  1
  O  O4  1  0.06134200  0.06134200  0.28125700  1
  O  O5  1  0.78363000  0.24034700  0.17084700  1
  O  O6  1  0.24034700  0.78363000  0.17084700  1
  O  O7  1  0.60493100  0.05876700  0.27975300  1
  O  O8  1  0.87706900  0.87706900  0.37153400  1
  O  O9  1  0.96518100  0.96518100  0.08155000  1
  O  O10  1  0.05876700  0.60493100  0.27975300  1
  O  O11  1  0.78587700  0.78587700  0.16883400  1
  O  O12  1  0.66626900  0.66626900  0.48187600  1
  O  O13  1  0.39266300  0.84127300  0.37039300  1
  O  O14  1  0.84127300  0.39266300  0.37039300  1
  O  O15  1  0.48598100  0.48598100  0.56963600  1
  O  O16  1  0.20772700  0.66795800  0.47945400  1
  O  O17  1  0.57238200  0.57238200  0.27967500  1
  O  O18  1  0.66795800  0.20772700  0.47945400  1
  O  O19  1  0.38976100  0.38976100  0.36853700  1
  O  O20  1  0.98697100  0.43525200  0.57282300  1
  O  O21  1  0.26647000  0.26647000  0.67837100  1
  O  O22  1  0.08354700  0.08354700  0.76803500  1
  O  O23  1  0.43525200  0.98697100  0.57282300  1
  O  O24  1  0.16442700  0.16442700  0.48157700  1
  O  O25  1  0.81176400  0.26775500  0.67712200  1
  O  O26  1  0.26775500  0.81176400  0.67712200  1
  O  O27  1  0.98826500  0.98826500  0.57092900  1
  O  O28  1  0.58229100  0.04024700  0.77349300  1
  O  O29  1  0.86441200  0.86441200  0.87697300  1
  O  O30  1  0.68438900  0.68438900  0.96768700  1
  O  O31  1  0.04024700  0.58229100  0.77349300  1
  O  O32  1  0.76640600  0.76640600  0.68336800  1
  O  O33  1  0.40955800  0.86698900  0.87657400  1
  O  O34  1  0.86698900  0.40955800  0.87657400  1
  O  O35  1  0.58504500  0.58504500  0.77316800  1
  O  O36  1  0.18561200  0.63641700  0.97224200  1
  O  O37  1  0.63641700  0.18561200  0.97224200  1
  O  O38  1  0.36617500  0.36617500  0.88100800  1
  O  O39  1  0.18661600  0.18661600  0.97071100  1
loop_
_geom_bond_atom_site_label_1
_geom_bond_atom_site_label_2
_geom_bond_distance
_geom_bond_site_symmetry_2
Mn0 O9 2.013292 1_556
Mn0 O39 2.024414 1_665
Mn0 O36 2.028780 1_655
Mn0 O37 2.028780 1_565
Mn1 O6 2.005453 1_555
Mn1 O5 2.005453 1_555
Mn1 O11 2.013997 1_555
Mn1 O17 2.017538 1_555
Mn2 O6 1.976928 1_555
Mn2 O9 1.995807 1_455
Mn2 O1 1.997125 1_555
Mn2 O11 1.997286 1_455
Mn2 O2 2.006290 1_555
Mn2 O0 2.018730 1_555
Mn3 O5 1.976928 1_555
Mn3 O9 1.995807 1_545
Mn3 O1 1.997125 1_555
Mn3 O11 1.997286 1_545
Mn3 O3 2.006290 1_555
Mn3 O0 2.018730 1_555
Mn4 O24 2.025421 1_555
Mn4 O19 2.030576 1_555
Mn4 O13 2.035177 1_545
Mn4 O14 2.035177 1_455
Mn5 O2 1.983664 1_555
Mn5 O3 1.983664 1_555
Mn5 O36 1.996519 1_554
Mn5 O37 1.996519 1_554
Mn5 O39 2.131542 1_554
Mn5 O0 2.140765 1_555
Mn6 O4 1.975475 1_655
Mn6 O19 1.977704 1_555
Mn6 O7 2.014996 1_555
Mn6 O14 2.021806 1_555
Mn6 O17 2.050469 1_555
Mn6 O8 2.052488 1_545
Mn7 O4 1.975475 1_565
Mn7 O19 1.977704 1_555
Mn7 O10 2.014996 1_555
Mn7 O13 2.021806 1_555
Mn7 O17 2.050469 1_555
Mn7 O8 2.052488 1_455
Mn8 O20 2.035960 1_555
Mn8 O23 2.035960 1_555
Mn8 O27 2.038605 1_555
Mn8 O32 2.044645 1_555
Mn9 O7 1.982542 1_565
Mn9 O10 1.982542 1_655
Mn9 O14 1.989462 1_555
Mn9 O13 1.989462 1_555
Mn9 O17 2.104308 1_555
Mn9 O8 2.114424 1_555
Mn10 O16 1.966248 1_555
Mn10 O12 1.987405 1_555
Mn10 O15 1.991044 1_555
Mn10 O24 1.998067 1_565
Mn10 O27 2.012716 1_455
Mn10 O23 2.014410 1_555
Mn11 O18 1.966248 1_555
Mn11 O12 1.987405 1_555
Mn11 O15 1.991044 1_555
Mn11 O24 1.998067 1_655
Mn11 O27 2.012716 1_545
Mn11 O20 2.014410 1_555
Mn12 O22 1.976374 1_655
Mn12 O32 1.991471 1_555
Mn12 O31 2.003205 1_655
Mn12 O25 2.013809 1_555
Mn12 O21 2.039486 1_655
Mn12 O35 2.042502 1_555
Mn13 O22 1.976374 1_565
Mn13 O32 1.991471 1_555
Mn13 O28 2.003205 1_565
Mn13 O26 2.013809 1_555
Mn13 O21 2.039486 1_565
Mn13 O35 2.042502 1_555
Mn14 O26 1.979711 1_545
Mn14 O25 1.979711 1_455
Mn14 O20 1.988780 1_455
Mn14 O23 1.988780 1_545
Mn14 O21 2.125313 1_555
Mn14 O27 2.139828 1_445
Mn15 O38 1.986632 1_555
Mn15 O33 1.998729 1_545
Mn15 O30 1.999726 1_545
Mn15 O37 2.017433 1_555
Mn15 O39 2.026138 1_555
Mn15 O29 2.028719 1_545
Mn16 O38 1.986632 1_555
Mn16 O34 1.998729 1_455
Mn16 O30 1.999726 1_455
Mn16 O36 2.017433 1_555
Mn16 O39 2.026138 1_555
Mn16 O29 2.028719 1_455
Mn17 O31 1.984710 1_655
Mn17 O28 1.984710 1_565
Mn17 O33 1.994961 1_555
Mn17 O34 1.994961 1_555
Mn17 O35 2.095688 1_555
Mn17 O29 2.112293 1_555
Cu0 O0 1.992902 1_555
Cu0 O30 2.000702 1_554
Cu0 O2 2.036860 1_655
Cu0 O3 2.036860 1_565
Cu1 O1 1.991314 1_555
Cu1 O4 2.003445 1_555
Cu1 O10 2.032189 1_555
Cu1 O7 2.032189 1_555
Cu2 O6 2.030176 1_545
Cu2 O5 2.030176 1_455
Cu2 O2 2.060065 1_555
Cu2 O3 2.060065 1_555
Cu2 O9 2.137693 1_445
Cu2 O1 2.150340 1_555
Cu3 O8 1.977223 1_555
Cu3 O12 1.989852 1_555
Cu3 O16 2.007860 1_655
Cu3 O18 2.007860 1_565
Cu4 O6 2.029044 1_655
Cu4 O5 2.029044 1_565
Cu4 O7 2.050816 1_565
Cu4 O10 2.050816 1_655
Cu4 O11 2.162706 1_555
Cu4 O4 2.172101 1_665
Cu5 O16 2.026335 1_555
Cu5 O18 2.026335 1_555
Cu5 O14 2.049042 1_555
Cu5 O13 2.049042 1_555
Cu5 O19 2.172773 1_555
Cu5 O12 2.188071 1_555
Cu6 O21 1.966135 1_555
Cu6 O15 1.993349 1_555
Cu6 O25 2.021531 1_555
Cu6 O26 2.021531 1_555
Cu7 O35 1.971199 1_555
Cu7 O38 1.984076 1_555
Cu7 O31 2.019470 1_555
Cu7 O28 2.019470 1_555
Cu8 O16 2.024966 1_555
Cu8 O18 2.024966 1_555
Cu8 O23 2.051637 1_545
Cu8 O20 2.051637 1_455
Cu8 O24 2.149196 1_555
Cu8 O15 2.159105 1_555
Cu9 O29 1.984171 1_445
Cu9 O22 1.993752 1_555
Cu9 O33 2.022327 1_545
Cu9 O34 2.022327 1_455
Cu10 O28 2.063296 1_565
Cu10 O31 2.063296 1_655
Cu10 O26 2.068114 1_655
Cu10 O25 2.068114 1_565
Cu10 O22 2.105195 1_665
Cu10 O32 2.109384 1_555
Cu11 O34 2.050088 1_555
Cu11 O33 2.050088 1_555
Cu11 O36 2.055382 1_555
Cu11 O37 2.055382 1_555
Cu11 O38 2.122940 1_555
Cu11 O30 2.133059 1_555
