# generated using pymatgen
data_Ho2Zr2O7
_symmetry_space_group_name_H-M   'P 1'
_cell_length_a   3.60393200
_cell_length_b   7.51531500
_cell_length_c   10.61101000
_cell_angle_alpha   90.00000000
_cell_angle_beta   90.00000000
_cell_angle_gamma   90.00000000
_symmetry_Int_Tables_number   1
_chemical_formula_structural   Ho2Zr2O7
_chemical_formula_sum   'Ho4 Zr4 O14'
_cell_volume   287.39585509
_cell_formula_units_Z   2
loop_
 _symmetry_equiv_pos_site_id
 _symmetry_equiv_pos_as_xyz
  1  'x, y, z'
loop_
 _atom_site_type_symbol
 _atom_site_label
 _atom_site_symmetry_multiplicity
 _atom_site_fract_x
 _atom_site_fract_y
 _atom_site_fract_z
 _atom_site_occupancy
  Ho  Ho0  1  0.50000000  0.00000000  0.50000000  1
  Ho  Ho1  1  0.00000000  0.75000000  0.22567900  1
  Ho  Ho2  1  0.00000000  0.25000000  0.77432100  1
  Ho  Ho3  1  0.50000000  0.50000000  0.50000000  1
  Zr  Zr0  1  0.00000000  0.75000000  0.75507900  1
  Zr  Zr1  1  0.00000000  0.25000000  0.24492100  1
  Zr  Zr2  1  0.50000000  0.00000000  0.00000000  1
  Zr  Zr3  1  0.50000000  0.50000000  0.00000000  1
  O  O0  1  0.50000000  0.75000000  0.61949500  1
  O  O1  1  0.00000000  0.95641200  0.37089100  1
  O  O2  1  0.50000000  0.75000000  0.11172500  1
  O  O3  1  0.50000000  0.25000000  0.13237800  1
  O  O4  1  0.00000000  0.98122800  0.88053000  1
  O  O5  1  0.00000000  0.51877200  0.88053000  1
  O  O6  1  0.00000000  0.01877200  0.11947000  1
  O  O7  1  0.50000000  0.25000000  0.88827500  1
  O  O8  1  0.50000000  0.75000000  0.86762200  1
  O  O9  1  0.00000000  0.04358800  0.62910900  1
  O  O10  1  0.00000000  0.54358800  0.37089100  1
  O  O11  1  0.00000000  0.45641200  0.62910900  1
  O  O12  1  0.50000000  0.25000000  0.38050500  1
  O  O13  1  0.00000000  0.48122800  0.11947000  1
loop_
_geom_bond_atom_site_label_1
_geom_bond_atom_site_label_2
_geom_bond_distance
_geom_bond_site_symmetry_2
Ho0 O12 2.266655 1_555
Ho0 O0 2.266655 1_545
Ho0 O1 2.287187 1_645
Ho0 O1 2.287187 1_545
Ho0 O9 2.287187 1_655
Ho0 O9 2.287187 1_555
Ho1 O2 2.170061 1_455
Ho1 O2 2.170061 1_555
Ho1 O10 2.186455 1_555
Ho1 O1 2.186455 1_555
Ho1 O6 2.313032 1_565
Ho1 O13 2.313032 1_555
Ho2 O7 2.170061 1_455
Ho2 O7 2.170061 1_555
Ho2 O9 2.186455 1_555
Ho2 O11 2.186455 1_555
Ho2 O5 2.313032 1_555
Ho2 O4 2.313032 1_545
Ho3 O12 2.266655 1_555
Ho3 O0 2.266655 1_555
Ho3 O10 2.287187 1_655
Ho3 O10 2.287187 1_555
Ho3 O11 2.287187 1_655
Ho3 O11 2.287187 1_555
O0 Zr0 2.305838 1_655
O0 Zr0 2.305838 1_555
O1 Zr1 2.579712 1_565
O2 Zr2 2.221586 1_565
O2 Zr3 2.221586 1_555
O3 Zr1 2.161755 1_555
O3 Zr1 2.161755 1_655
O3 Zr3 2.345864 1_555
O3 Zr2 2.345864 1_555
O4 Zr0 2.189011 1_555
O4 Zr2 2.207723 1_466
O4 Zr2 2.207723 1_566
O5 Zr0 2.189011 1_555
O5 Zr3 2.207723 1_556
O5 Zr3 2.207723 1_456
O6 Zr1 2.189011 1_555
O6 Zr2 2.207723 1_455
O6 Zr2 2.207723 1_555
O7 Zr2 2.221586 1_556
O7 Zr3 2.221586 1_556
O8 Zr0 2.161755 1_555
O8 Zr0 2.161755 1_655
O8 Zr2 2.345864 1_566
O8 Zr3 2.345864 1_556
O9 Zr0 2.579712 1_545
O10 Zr1 2.579712 1_555
O11 Zr0 2.579712 1_555
O12 Zr1 2.305838 1_655
O12 Zr1 2.305838 1_555
O13 Zr1 2.189011 1_555
O13 Zr3 2.207723 1_555
O13 Zr3 2.207723 1_455
