# generated using pymatgen
data_Eu(MnGe)2
_symmetry_space_group_name_H-M   'P 1'
_cell_length_a   5.78387107
_cell_length_b   5.78387107
_cell_length_c   5.78387107
_cell_angle_alpha   140.39057591
_cell_angle_beta   140.39057591
_cell_angle_gamma   57.26074236
_symmetry_Int_Tables_number   1
_chemical_formula_structural   Eu(MnGe)2
_chemical_formula_sum   'Eu1 Mn2 Ge2'
_cell_volume   77.98342857
_cell_formula_units_Z   1
loop_
 _symmetry_equiv_pos_site_id
 _symmetry_equiv_pos_as_xyz
  1  'x, y, z'
loop_
 _atom_site_type_symbol
 _atom_site_label
 _atom_site_symmetry_multiplicity
 _atom_site_fract_x
 _atom_site_fract_y
 _atom_site_fract_z
 _atom_site_occupancy
  Eu  Eu0  1  0.00000000  0.00000000  0.00000000  1
  Mn  Mn0  1  0.75000000  0.25000000  0.50000000  1
  Mn  Mn1  1  0.25000000  0.75000000  0.50000000  1
  Ge  Ge0  1  0.37502000  0.37502000  0.00000000  1
  Ge  Ge1  1  0.62498000  0.62498000  0.00000000  1
loop_
_geom_bond_atom_site_label_1
_geom_bond_atom_site_label_2
_geom_bond_distance
_geom_bond_site_symmetry_2
Eu0 Ge0 3.048088 1_455
Eu0 Ge0 3.048088 1_556
Eu0 Ge0 3.048088 1_444
Eu0 Ge0 3.048088 1_545
Eu0 Ge1 3.048088 1_444
Eu0 Ge1 3.048088 1_545
Eu0 Ge1 3.048088 1_455
Eu0 Ge1 3.048088 1_556
Eu0 Mn0 3.206779 1_555
Eu0 Mn1 3.206779 1_545
Eu0 Mn0 3.206779 1_455
Eu0 Mn0 3.206779 1_454
Eu0 Mn0 3.206779 1_444
Eu0 Mn1 3.206779 1_544
Eu0 Mn1 3.206779 1_444
Eu0 Mn1 3.206779 1_555
Ge0 Mn1 2.334863 1_555
Ge0 Mn0 2.334863 1_555
Ge0 Mn1 2.334863 1_544
Ge0 Mn0 2.334863 1_454
Ge0 Ge1 2.537930 1_555
Ge1 Mn1 2.334863 1_655
Ge1 Mn0 2.334863 1_554
Ge1 Mn0 2.334863 1_565
Ge1 Mn1 2.334863 1_554
