# generated using pymatgen
data_Cs6Bi4O9
_symmetry_space_group_name_H-M   'P 1'
_cell_length_a   8.18024525
_cell_length_b   9.99954165
_cell_length_c   12.33908246
_cell_angle_alpha   104.25466829
_cell_angle_beta   94.12693361
_cell_angle_gamma   92.32356796
_symmetry_Int_Tables_number   1
_chemical_formula_structural   Cs6Bi4O9
_chemical_formula_sum   'Cs12 Bi8 O18'
_cell_volume   973.93453100
_cell_formula_units_Z   2
loop_
 _symmetry_equiv_pos_site_id
 _symmetry_equiv_pos_as_xyz
  1  'x, y, z'
loop_
 _atom_site_type_symbol
 _atom_site_label
 _atom_site_symmetry_multiplicity
 _atom_site_fract_x
 _atom_site_fract_y
 _atom_site_fract_z
 _atom_site_occupancy
  Cs  Cs0  1  0.84903291  0.85462179  0.55268019  1
  Cs  Cs1  1  0.15096709  0.14537821  0.44731981  1
  Cs  Cs2  1  0.37975416  0.63549686  0.94379397  1
  Cs  Cs3  1  0.43913606  0.23712769  0.74091872  1
  Cs  Cs4  1  0.11805305  0.96071493  0.86426926  1
  Cs  Cs5  1  0.62004897  0.55102981  0.63806301  1
  Cs  Cs6  1  0.56086394  0.76287231  0.25908128  1
  Cs  Cs7  1  0.88194695  0.03928507  0.13573074  1
  Cs  Cs8  1  0.93254932  0.24728095  0.75254610  1
  Cs  Cs9  1  0.62024584  0.36450314  0.05620603  1
  Cs  Cs10  1  0.06745068  0.75271905  0.24745390  1
  Cs  Cs11  1  0.37995103  0.44897019  0.36193699  1
  Bi  Bi0  1  0.11017984  0.54200848  0.63255979  1
  Bi  Bi1  1  0.38871916  0.06768905  0.14561404  1
  Bi  Bi2  1  0.66610646  0.16881966  0.41467208  1
  Bi  Bi3  1  0.13560797  0.35705476  0.07171338  1
  Bi  Bi4  1  0.88982016  0.45799152  0.36744021  1
  Bi  Bi5  1  0.86439203  0.64294524  0.92828662  1
  Bi  Bi6  1  0.33389354  0.83118034  0.58532792  1
  Bi  Bi7  1  0.61128084  0.93231095  0.85438596  1
  O  O0  1  0.74415560  0.72234258  0.06726877  1
  O  O1  1  0.22959981  0.89829130  0.10285351  1
  O  O2  1  0.18537002  0.99018961  0.63299690  1
  O  O3  1  0.89917406  0.37688966  0.51006500  1
  O  O4  1  0.10082594  0.62311034  0.48993500  1
  O  O5  1  0.29334888  0.52425799  0.14507918  1
  O  O6  1  0.25584440  0.27765742  0.93273123  1
  O  O7  1  0.29269714  0.72596270  0.70944358  1
  O  O8  1  0.70730286  0.27403730  0.29055642  1
  O  O9  1  0.79029318  0.78125736  0.82545846  1
  O  O10  1  0.44049747  0.06567035  0.31473488  1
  O  O11  1  0.81462998  0.00981039  0.36700310  1
  O  O12  1  0.70665112  0.47574201  0.85492082  1
  O  O13  1  0.20970682  0.21874264  0.17454154  1
  O  O14  1  0.77040019  0.10170870  0.89714649  1
  O  O15  1  0.28877912  0.40556196  0.59798350  1
  O  O16  1  0.55950253  0.93432965  0.68526512  1
  O  O17  1  0.71122088  0.59443804  0.40201650  1
loop_
_geom_bond_atom_site_label_1
_geom_bond_atom_site_label_2
_geom_bond_distance
_geom_bond_site_symmetry_2
Cs0 O17 2.928226 1_555
Cs0 O16 2.998295 1_555
Cs0 O2 3.005514 1_655
Cs0 O11 3.070812 1_565
Cs0 O4 3.151931 1_655
Cs1 O15 2.928226 1_555
Cs1 O10 2.998295 1_555
Cs1 O11 3.005514 1_455
Cs1 O2 3.070812 1_545
Cs1 O3 3.151931 1_455
Cs2 O5 3.074894 1_556
Cs2 O1 3.214808 1_556
Cs2 O0 3.232022 1_556
Cs2 O7 3.275864 1_555
Cs2 O12 3.288014 1_555
Cs2 O6 3.646262 1_555
Cs3 O6 2.846354 1_555
Cs3 O15 2.962899 1_555
Cs3 O2 3.122015 1_545
Cs3 O16 3.150237 1_545
Cs3 O12 3.152996 1_555
Cs4 O2 3.026692 1_555
Cs4 O9 3.104835 1_455
Cs4 O7 3.107618 1_555
Cs4 O6 3.206755 1_565
Cs4 O14 3.232569 1_465
Cs4 O1 3.233167 1_556
Cs5 O15 2.972722 1_555
Cs5 O12 2.998525 1_555
Cs5 O9 3.039921 1_555
Cs5 O17 3.183845 1_555
Cs5 O3 3.198002 1_555
Cs5 O7 3.311630 1_555
Cs6 O0 2.846354 1_555
Cs6 O17 2.962899 1_555
Cs6 O11 3.122015 1_565
Cs6 O10 3.150237 1_565
Cs6 O5 3.152996 1_555
Cs7 O11 3.026692 1_555
Cs7 O13 3.104835 1_655
Cs7 O8 3.107618 1_555
Cs7 O0 3.206755 1_545
Cs7 O1 3.232569 1_645
Cs7 O14 3.233167 1_554
Cs8 O14 2.919751 1_555
Cs8 O12 3.080022 1_555
Cs8 O6 3.284125 1_655
Cs8 O2 3.473448 1_645
Cs8 O3 3.539351 1_555
Cs9 O12 3.074894 1_554
Cs9 O14 3.214808 1_554
Cs9 O6 3.232022 1_554
Cs9 O8 3.275864 1_555
Cs9 O5 3.288014 1_555
Cs9 O0 3.646262 1_555
Cs10 O1 2.919751 1_555
Cs10 O5 3.080022 1_555
Cs10 O0 3.284125 1_455
Cs10 O11 3.473448 1_465
Cs10 O4 3.539351 1_555
Cs11 O17 2.972722 1_555
Cs11 O5 2.998525 1_555
Cs11 O13 3.039921 1_555
Cs11 O15 3.183845 1_555
Cs11 O4 3.198002 1_555
Cs11 O8 3.311630 1_555
Bi0 O15 2.035381 1_555
Bi0 O4 2.109301 1_555
Bi0 O7 2.286223 1_555
Bi0 O3 2.480821 1_455
Bi1 O1 2.030806 1_545
Bi1 O10 2.104459 1_555
Bi1 O13 2.131280 1_555
Bi2 O11 2.036955 1_555
Bi2 O8 2.098808 1_555
Bi2 O10 2.209575 1_555
Bi2 O3 2.738362 1_555
Bi3 O6 2.043097 1_554
Bi3 O5 2.047322 1_555
Bi3 O13 2.170623 1_555
Bi4 O17 2.035381 1_555
Bi4 O3 2.109301 1_555
Bi4 O8 2.286223 1_555
Bi4 O4 2.480821 1_655
Bi5 O0 2.043097 1_556
Bi5 O12 2.047322 1_555
Bi5 O9 2.170623 1_555
Bi6 O2 2.036955 1_555
Bi6 O7 2.098808 1_555
Bi6 O16 2.209575 1_555
Bi6 O4 2.738362 1_555
Bi7 O14 2.030806 1_565
Bi7 O16 2.104459 1_555
Bi7 O9 2.131280 1_555
