# generated using pymatgen
data_GdInRh
_symmetry_space_group_name_H-M   'P 1'
_cell_length_a   7.49721793
_cell_length_b   7.49518925
_cell_length_c   3.97934889
_cell_angle_alpha   90.00000000
_cell_angle_beta   90.00000000
_cell_angle_gamma   119.99935285
_symmetry_Int_Tables_number   1
_chemical_formula_structural   GdInRh
_chemical_formula_sum   'Gd3 In3 Rh3'
_cell_volume   193.65477925
_cell_formula_units_Z   3
loop_
 _symmetry_equiv_pos_site_id
 _symmetry_equiv_pos_as_xyz
  1  'x, y, z'
loop_
 _atom_site_type_symbol
 _atom_site_label
 _atom_site_symmetry_multiplicity
 _atom_site_fract_x
 _atom_site_fract_y
 _atom_site_fract_z
 _atom_site_occupancy
  Gd  Gd0  1  0.00020099  0.59201486  0.50000000  1
  Gd  Gd1  1  0.59170859  -0.00000304  0.50000000  1
  Gd  Gd2  1  0.40811487  0.40792229  0.50000000  1
  In  In0  1  0.99994797  0.25387360  0.00000000  1
  In  In1  1  0.25381595  0.99984897  -0.00000000  1
  In  In2  1  0.74636497  0.74626160  -0.00000000  1
  Rh  Rh0  1  -0.00019138  0.00018122  0.50000000  1
  Rh  Rh1  1  0.66653255  0.33328834  0.00000000  1
  Rh  Rh2  1  0.33350649  0.66661215  -0.00000000  1
loop_
_geom_bond_atom_site_label_1
_geom_bond_atom_site_label_2
_geom_bond_distance
_geom_bond_site_symmetry_2
Gd0 Rh2 3.019702 1_556
Gd0 Rh2 3.019702 1_555
Gd0 Rh1 3.020969 1_456
Gd0 Rh1 3.020969 1_455
Gd0 Rh0 3.060756 1_565
Gd0 In0 3.221389 1_456
Gd0 In0 3.221389 1_455
Gd0 In1 3.332573 1_556
Gd0 In1 3.332573 1_555
Gd0 In2 3.334239 1_455
Gd0 In2 3.334239 1_456
Gd1 Rh1 3.018705 1_555
Gd1 Rh1 3.018705 1_556
Gd1 Rh2 3.018772 1_546
Gd1 Rh2 3.018772 1_545
Gd1 Rh0 3.058925 1_655
Gd1 In1 3.220772 1_545
Gd1 In1 3.220772 1_546
Gd1 In0 3.335179 1_555
Gd1 In0 3.335179 1_556
Gd1 In2 3.335435 1_545
Gd1 In2 3.335435 1_546
Gd2 Rh1 3.018122 1_555
Gd2 Rh1 3.018122 1_556
Gd2 Rh2 3.019215 1_556
Gd2 Rh2 3.019215 1_555
Gd2 Rh0 3.058662 1_555
Gd2 In2 3.223329 1_556
Gd2 In2 3.223329 1_555
Gd2 In1 3.333741 1_545
Gd2 In1 3.333741 1_546
Gd2 In0 3.335125 1_455
Gd2 In0 3.335125 1_456
In0 Rh0 2.751802 1_654
In0 Rh0 2.751802 1_655
In0 Rh2 2.843904 1_655
In0 Rh1 2.844397 1_555
In0 In2 3.294944 1_545
In0 In1 3.297179 1_645
In1 Rh0 2.755013 1_564
In1 Rh0 2.755013 1_565
In1 Rh1 2.843815 1_565
In1 Rh2 2.843862 1_555
In1 In2 3.294790 1_455
In2 Rh0 2.752299 1_664
In2 Rh0 2.752299 1_665
In2 Rh1 2.843697 1_555
In2 Rh2 2.844187 1_555
