# generated using pymatgen
data_NaSr3IrO6
_symmetry_space_group_name_H-M   'P 1'
_cell_length_a   6.83199823
_cell_length_b   6.83199823
_cell_length_c   6.83199919
_cell_angle_alpha   90.78646090
_cell_angle_beta   90.78646090
_cell_angle_gamma   90.78646404
_symmetry_Int_Tables_number   1
_chemical_formula_structural   NaSr3IrO6
_chemical_formula_sum   'Na2 Sr6 Ir2 O12'
_cell_volume   318.80080234
_cell_formula_units_Z   2
loop_
 _symmetry_equiv_pos_site_id
 _symmetry_equiv_pos_as_xyz
  1  'x, y, z'
loop_
 _atom_site_type_symbol
 _atom_site_label
 _atom_site_symmetry_multiplicity
 _atom_site_fract_x
 _atom_site_fract_y
 _atom_site_fract_z
 _atom_site_occupancy
  Na  Na0  1  0.75000000  0.75000000  0.75000000  1
  Na  Na1  1  0.25000000  0.25000000  0.25000000  1
  Sr  Sr0  1  0.25000000  0.89213400  0.60786600  1
  Sr  Sr1  1  0.60786600  0.25000000  0.89213400  1
  Sr  Sr2  1  0.89213400  0.60786600  0.25000000  1
  Sr  Sr3  1  0.75000000  0.10786600  0.39213400  1
  Sr  Sr4  1  0.39213400  0.75000000  0.10786600  1
  Sr  Sr5  1  0.10786600  0.39213400  0.75000000  1
  Ir  Ir0  1  0.50000000  0.50000000  0.50000000  1
  Ir  Ir1  1  0.00000000  0.00000000  0.00000000  1
  O  O0  1  0.94432800  0.27935100  0.07678000  1
  O  O1  1  0.07678000  0.94432800  0.27935100  1
  O  O2  1  0.27935100  0.07678000  0.94432800  1
  O  O3  1  0.55567200  0.42322000  0.22064900  1
  O  O4  1  0.22064900  0.55567200  0.42322000  1
  O  O5  1  0.42322000  0.22064900  0.55567200  1
  O  O6  1  0.05567200  0.72064900  0.92322000  1
  O  O7  1  0.92322000  0.05567200  0.72064900  1
  O  O8  1  0.72064900  0.92322000  0.05567200  1
  O  O9  1  0.44432800  0.57678000  0.77935100  1
  O  O10  1  0.57678000  0.77935100  0.44432800  1
  O  O11  1  0.77935100  0.44432800  0.57678000  1
loop_
_geom_bond_atom_site_label_1
_geom_bond_atom_site_label_2
_geom_bond_distance
_geom_bond_site_symmetry_2
Na0 O9 2.398356 1_555
Na0 O7 2.398356 1_565
Na0 O6 2.398356 1_655
Na0 O11 2.398356 1_555
Na0 O10 2.398356 1_555
Na0 O8 2.398356 1_556
Na1 O3 2.398356 1_555
Na1 O1 2.398356 1_545
Na1 O4 2.398356 1_555
Na1 O0 2.398356 1_455
Na1 O5 2.398356 1_555
Na1 O2 2.398356 1_554
Ir0 O10 2.014999 1_555
Ir0 O5 2.014999 1_555
Ir0 O11 2.014999 1_555
Ir0 O4 2.014999 1_555
Ir0 O9 2.015000 1_555
Ir0 O3 2.015000 1_555
Ir1 O2 2.014999 1_554
Ir1 O8 2.014999 1_445
Ir1 O0 2.014999 1_455
Ir1 O6 2.014999 1_544
Ir1 O1 2.015000 1_545
Ir1 O7 2.015000 1_454
O0 Sr2 2.554548 1_555
O0 Sr1 2.610833 1_554
O0 Sr5 2.630296 1_654
O0 Sr3 2.807533 1_555
O1 Sr0 2.554549 1_555
O1 Sr2 2.610833 1_455
O1 Sr3 2.630296 1_465
O1 Sr4 2.807533 1_555
O2 Sr1 2.554548 1_555
O2 Sr0 2.610833 1_545
O2 Sr4 2.630296 1_546
O2 Sr5 2.807533 1_555
O3 Sr1 2.554549 1_554
O3 Sr2 2.610833 1_555
O3 Sr4 2.630296 1_555
O3 Sr3 2.807533 1_555
O4 Sr2 2.554548 1_455
O4 Sr0 2.610833 1_555
O4 Sr5 2.630296 1_555
O4 Sr4 2.807533 1_555
O5 Sr0 2.554548 1_545
O5 Sr1 2.610833 1_555
O5 Sr3 2.630296 1_555
O5 Sr5 2.807533 1_555
O6 Sr5 2.554548 1_555
O6 Sr4 2.610833 1_556
O6 Sr2 2.630296 1_456
O6 Sr0 2.807533 1_555
O7 Sr3 2.554549 1_555
O7 Sr5 2.610833 1_655
O7 Sr0 2.630296 1_645
O7 Sr1 2.807533 1_555
O8 Sr4 2.554548 1_555
O8 Sr3 2.610833 1_565
O8 Sr1 2.630296 1_564
O8 Sr2 2.807533 1_555
O9 Sr4 2.554549 1_556
O9 Sr5 2.610833 1_555
O9 Sr1 2.630296 1_555
O9 Sr0 2.807533 1_555
O10 Sr3 2.554548 1_565
O10 Sr4 2.610833 1_555
O10 Sr0 2.630296 1_555
O10 Sr2 2.807533 1_555
O11 Sr5 2.554548 1_655
O11 Sr3 2.610833 1_555
O11 Sr2 2.630296 1_555
O11 Sr1 2.807533 1_555
