# generated using pymatgen
data_FeI(NO)2
_symmetry_space_group_name_H-M   'P 1'
_cell_length_a   7.49585600
_cell_length_b   13.22566000
_cell_length_c   15.43123708
_cell_angle_alpha   56.28683729
_cell_angle_beta   90.00000000
_cell_angle_gamma   90.00000000
_symmetry_Int_Tables_number   1
_chemical_formula_structural   FeI(NO)2
_chemical_formula_sum   'Fe8 I8 N16 O16'
_cell_volume   1272.54208551
_cell_formula_units_Z   8
loop_
 _symmetry_equiv_pos_site_id
 _symmetry_equiv_pos_as_xyz
  1  'x, y, z'
loop_
 _atom_site_type_symbol
 _atom_site_label
 _atom_site_symmetry_multiplicity
 _atom_site_fract_x
 _atom_site_fract_y
 _atom_site_fract_z
 _atom_site_occupancy
  Fe  Fe0  1  0.43235800  0.05946500  0.37937300  1
  Fe  Fe1  1  0.93235800  0.94053500  0.12062700  1
  Fe  Fe2  1  0.56764200  0.94053500  0.62062700  1
  Fe  Fe3  1  0.06764200  0.05946500  0.87937300  1
  Fe  Fe4  1  0.92416700  0.56974200  0.05623900  1
  Fe  Fe5  1  0.42416700  0.43025800  0.44376100  1
  Fe  Fe6  1  0.07583300  0.43025800  0.94376100  1
  Fe  Fe7  1  0.57583300  0.56974200  0.55623900  1
  I  I0  1  0.73161200  0.11674600  0.44165100  1
  I  I1  1  0.23161200  0.88325400  0.05834900  1
  I  I2  1  0.26838800  0.88325400  0.55834900  1
  I  I3  1  0.76838800  0.11674600  0.94165100  1
  I  I4  1  0.77389900  0.38104300  0.05818500  1
  I  I5  1  0.27389900  0.61895700  0.44181500  1
  I  I6  1  0.22610100  0.61895700  0.94181500  1
  I  I7  1  0.72610100  0.38104300  0.55818500  1
  N  N0  1  0.29143900  0.19081600  0.31524300  1
  N  N1  1  0.79143900  0.80918400  0.18475700  1
  N  N2  1  0.70856100  0.80918400  0.68475700  1
  N  N3  1  0.20856100  0.19081600  0.81524300  1
  N  N4  1  0.49460800  0.99716100  0.30634900  1
  N  N5  1  0.99460800  0.00283900  0.19365100  1
  N  N6  1  0.50539200  0.00283900  0.69365100  1
  N  N7  1  0.00539200  0.99716100  0.80634900  1
  N  N8  1  0.77552700  0.69662300  0.99125700  1
  N  N9  1  0.27552700  0.30337700  0.50874300  1
  N  N10  1  0.22447300  0.30337700  0.00874300  1
  N  N11  1  0.72447300  0.69662300  0.49125700  1
  N  N12  1  0.97990300  0.52006900  0.18695700  1
  N  N13  1  0.47990300  0.47993100  0.31304300  1
  N  N14  1  0.02009700  0.47993100  0.81304300  1
  N  N15  1  0.52009700  0.52006900  0.68695700  1
  O  O0  1  0.21511800  0.27808500  0.24802200  1
  O  O1  1  0.71511800  0.72191500  0.25197800  1
  O  O2  1  0.78488200  0.72191500  0.75197800  1
  O  O3  1  0.28488200  0.27808500  0.74802200  1
  O  O4  1  0.52422400  0.97630700  0.24224200  1
  O  O5  1  0.02422400  0.02369300  0.25775800  1
  O  O6  1  0.47577600  0.02369300  0.75775800  1
  O  O7  1  0.97577600  0.97630700  0.74224200  1
  O  O8  1  0.67551800  0.77611500  0.97190800  1
  O  O9  1  0.17551800  0.22388500  0.52809200  1
  O  O10  1  0.32448200  0.22388500  0.02809200  1
  O  O11  1  0.82448200  0.77611500  0.47190800  1
  O  O12  1  0.98290100  0.50726600  0.26935300  1
  O  O13  1  0.48290100  0.49273400  0.23064700  1
  O  O14  1  0.01709900  0.49273400  0.73064700  1
  O  O15  1  0.51709900  0.50726600  0.76935300  1
loop_
_geom_bond_atom_site_label_1
_geom_bond_atom_site_label_2
_geom_bond_distance
_geom_bond_site_symmetry_2
Fe0 N4 1.788089 1_545
Fe0 N0 1.790142 1_555
Fe0 I0 2.708778 1_555
Fe0 I2 2.724827 1_545
Fe1 N5 1.788089 1_565
Fe1 N1 1.790142 1_555
Fe1 I1 2.708778 1_655
Fe1 I3 2.724827 1_564
Fe2 N6 1.788089 1_565
Fe2 N2 1.790142 1_555
Fe2 I2 2.708778 1_555
Fe2 I0 2.724827 1_565
Fe3 N7 1.788089 1_545
Fe3 N3 1.790142 1_555
Fe3 I3 2.708778 1_455
Fe3 I1 2.724827 1_546
Fe4 N8 1.787447 1_554
Fe4 N12 1.789960 1_555
Fe4 I6 2.718069 1_654
Fe4 I4 2.723017 1_555
Fe5 N9 1.787447 1_555
Fe5 N13 1.789960 1_555
Fe5 I7 2.718069 1_555
Fe5 I5 2.723017 1_555
Fe6 N10 1.787447 1_556
Fe6 N14 1.789960 1_555
Fe6 I4 2.718069 1_456
Fe6 I6 2.723017 1_555
Fe7 N11 1.787447 1_555
Fe7 N15 1.789960 1_555
Fe7 I5 2.718069 1_555
Fe7 I7 2.723017 1_555
N0 O0 1.185923 1_555
N1 O1 1.185923 1_555
N2 O2 1.185923 1_555
N3 O3 1.185923 1_555
N4 O4 1.186105 1_555
N5 O5 1.186105 1_655
N6 O6 1.186105 1_555
N7 O7 1.186105 1_455
N8 O8 1.186581 1_555
N9 O9 1.186581 1_555
N10 O10 1.186581 1_555
N11 O11 1.186581 1_555
N12 O12 1.186096 1_555
N13 O13 1.186096 1_555
N14 O14 1.186096 1_555
N15 O15 1.186096 1_555
