# generated using pymatgen
data_RbCa(H2N)3
_symmetry_space_group_name_H-M   'P 1'
_cell_length_a   7.05899984
_cell_length_b   7.05899984
_cell_length_c   6.67904466
_cell_angle_alpha   79.39460581
_cell_angle_beta   79.39460581
_cell_angle_gamma   116.95462998
_symmetry_Int_Tables_number   1
_chemical_formula_structural   RbCa(H2N)3
_chemical_formula_sum   'Rb2 Ca2 H12 N6'
_cell_volume   277.67105835
_cell_formula_units_Z   2
loop_
 _symmetry_equiv_pos_site_id
 _symmetry_equiv_pos_as_xyz
  1  'x, y, z'
loop_
 _atom_site_type_symbol
 _atom_site_label
 _atom_site_symmetry_multiplicity
 _atom_site_fract_x
 _atom_site_fract_y
 _atom_site_fract_z
 _atom_site_occupancy
  Rb  Rb0  1  0.28917400  0.71082600  0.75000000  1
  Rb  Rb1  1  0.71082600  0.28917400  0.25000000  1
  Ca  Ca0  1  0.00000000  0.00000000  0.50000000  1
  Ca  Ca1  1  0.00000000  0.00000000  0.00000000  1
  H  H0  1  0.09684700  0.68530000  0.33564100  1
  H  H1  1  0.31470000  0.90315300  0.16435900  1
  H  H2  1  0.90315300  0.31470000  0.66435900  1
  H  H3  1  0.68530000  0.09684700  0.83564100  1
  H  H4  1  0.19725100  0.46473900  0.19817900  1
  H  H5  1  0.53526100  0.80274900  0.30182100  1
  H  H6  1  0.80274900  0.53526100  0.80182100  1
  H  H7  1  0.46473900  0.19725100  0.69817900  1
  H  H8  1  0.67585900  0.65726500  0.88696900  1
  H  H9  1  0.34273500  0.32414100  0.61303100  1
  H  H10  1  0.32414100  0.34273500  0.11303100  1
  H  H11  1  0.65726500  0.67585900  0.38696900  1
  N  N0  1  0.84702000  0.15298000  0.75000000  1
  N  N1  1  0.15298000  0.84702000  0.25000000  1
  N  N2  1  0.16577500  0.31783500  0.16528300  1
  N  N3  1  0.68216500  0.83422500  0.33471700  1
  N  N4  1  0.83422500  0.68216500  0.83471700  1
  N  N5  1  0.31783500  0.16577500  0.66528300  1
loop_
_geom_bond_atom_site_label_1
_geom_bond_atom_site_label_2
_geom_bond_distance
_geom_bond_site_symmetry_2
Ca0 N0 2.485479 1_455
Ca0 N1 2.485479 1_545
Ca0 N2 2.492309 1_555
Ca0 N4 2.492309 1_445
Ca0 N5 2.574642 1_555
Ca0 N3 2.574642 1_445
Ca1 N1 2.485479 1_545
Ca1 N0 2.485479 1_454
Ca1 N3 2.492309 1_445
Ca1 N5 2.492309 1_554
Ca1 N4 2.574642 1_444
Ca1 N2 2.574642 1_555
H0 N1 1.026419 1_555
H0 Rb1 3.134678 1_455
H0 Rb0 3.298427 1_555
H1 N1 1.026419 1_555
H1 Rb1 3.134678 1_565
H1 Rb0 3.298427 1_554
H2 N0 1.026419 1_555
H2 Rb0 3.134678 1_655
H2 Rb1 3.298427 1_555
H3 N0 1.026419 1_555
H3 Rb0 3.134678 1_545
H3 Rb1 3.298427 1_556
H4 N2 1.032451 1_555
H4 Rb0 2.957749 1_554
H4 Rb1 2.998775 1_455
H5 N3 1.032451 1_555
H5 Rb0 2.957749 1_555
H5 Rb1 2.998775 1_565
H6 N4 1.032451 1_555
H6 Rb1 2.957749 1_556
H6 Rb0 2.998775 1_655
H7 N5 1.032451 1_555
H7 Rb1 2.957749 1_555
H7 Rb0 2.998775 1_545
H8 N4 1.028632 1_555
H8 Rb0 3.187172 1_555
H9 N5 1.028632 1_555
H9 Rb0 3.187172 1_555
H10 N2 1.028632 1_555
H10 Rb1 3.187172 1_555
H11 N3 1.028632 1_555
H11 Rb1 3.187172 1_555
N2 Rb1 3.061811 1_455
N2 Rb0 3.199313 1_554
N3 Rb1 3.061811 1_565
N3 Rb0 3.199313 1_555
N4 Rb0 3.061811 1_655
N4 Rb1 3.199313 1_556
N5 Rb0 3.061811 1_545
N5 Rb1 3.199313 1_555
