# generated using pymatgen
data_Tb5NiPb3
_symmetry_space_group_name_H-M   'P 1'
_cell_length_a   9.14249773
_cell_length_b   9.14249773
_cell_length_c   6.73956922
_cell_angle_alpha   90.00000000
_cell_angle_beta   90.00000000
_cell_angle_gamma   119.99998923
_symmetry_Int_Tables_number   1
_chemical_formula_structural   Tb5NiPb3
_chemical_formula_sum   'Tb10 Ni2 Pb6'
_cell_volume   487.85699853
_cell_formula_units_Z   2
loop_
 _symmetry_equiv_pos_site_id
 _symmetry_equiv_pos_as_xyz
  1  'x, y, z'
loop_
 _atom_site_type_symbol
 _atom_site_label
 _atom_site_symmetry_multiplicity
 _atom_site_fract_x
 _atom_site_fract_y
 _atom_site_fract_z
 _atom_site_occupancy
  Tb  Tb0  1  0.23817091  0.23817091  0.75000000  1
  Tb  Tb1  1  -0.00000000  0.76182909  0.75000000  1
  Tb  Tb2  1  0.23817091  0.00000000  0.25000000  1
  Tb  Tb3  1  0.76182909  -0.00000000  0.75000000  1
  Tb  Tb4  1  0.33333300  0.66666700  0.50000000  1
  Tb  Tb5  1  0.66666700  0.33333300  0.50000000  1
  Tb  Tb6  1  0.76182909  0.76182909  0.25000000  1
  Tb  Tb7  1  0.00000000  0.23817091  0.25000000  1
  Tb  Tb8  1  0.33333300  0.66666700  0.00000000  1
  Tb  Tb9  1  0.66666700  0.33333300  0.00000000  1
  Ni  Ni0  1  0.00000000  0.00000000  0.00000000  1
  Ni  Ni1  1  0.00000000  0.00000000  0.50000000  1
  Pb  Pb0  1  0.60083849  0.00000000  0.25000000  1
  Pb  Pb1  1  0.00000000  0.60083849  0.25000000  1
  Pb  Pb2  1  0.60083849  0.60083849  0.75000000  1
  Pb  Pb3  1  0.39916151  0.39916151  0.25000000  1
  Pb  Pb4  1  -0.00000000  0.39916151  0.75000000  1
  Pb  Pb5  1  0.39916151  -0.00000000  0.75000000  1
loop_
_geom_bond_atom_site_label_1
_geom_bond_atom_site_label_2
_geom_bond_distance
_geom_bond_site_symmetry_2
Tb4 Tb8 3.369785 1_555
Tb4 Tb8 3.369785 1_556
Tb5 Tb9 3.369785 1_555
Tb5 Tb9 3.369785 1_556
Ni0 Tb7 2.753229 1_555
Ni0 Tb1 2.753229 1_544
Ni0 Tb2 2.753229 1_555
Ni0 Tb3 2.753229 1_454
Ni0 Tb0 2.753229 1_554
Ni0 Tb6 2.753229 1_445
Ni1 Tb7 2.753229 1_555
Ni1 Tb1 2.753229 1_545
Ni1 Tb2 2.753229 1_555
Ni1 Tb3 2.753229 1_455
Ni1 Tb0 2.753229 1_555
Ni1 Tb6 2.753229 1_445
Pb0 Tb6 3.180047 1_545
Pb0 Tb7 3.180048 1_655
Pb0 Tb9 3.264078 1_555
Pb0 Tb5 3.264078 1_555
Pb0 Tb4 3.264081 1_545
Pb0 Tb8 3.264081 1_545
Pb0 Tb2 3.315688 1_555
Pb0 Tb3 3.677201 1_554
Pb0 Tb3 3.677201 1_555
Pb1 Tb6 3.180047 1_455
Pb1 Tb2 3.180048 1_565
Pb1 Tb4 3.264078 1_555
Pb1 Tb8 3.264078 1_555
Pb1 Tb5 3.264081 1_455
Pb1 Tb9 3.264081 1_455
Pb1 Tb7 3.315688 1_555
Pb1 Tb1 3.677201 1_554
Pb1 Tb1 3.677201 1_555
Pb2 Tb1 3.180047 1_655
Pb2 Tb3 3.180047 1_565
Pb2 Tb9 3.264086 1_556
Pb2 Tb4 3.264086 1_555
Pb2 Tb8 3.264086 1_556
Pb2 Tb5 3.264086 1_555
Pb2 Tb0 3.315688 1_555
Pb2 Tb6 3.677201 1_556
Pb2 Tb6 3.677201 1_555
Pb3 Tb2 3.180047 1_555
Pb3 Tb7 3.180047 1_555
Pb3 Tb9 3.264086 1_555
Pb3 Tb5 3.264086 1_555
Pb3 Tb4 3.264086 1_555
Pb3 Tb8 3.264086 1_555
Pb3 Tb6 3.315688 1_555
Pb3 Tb0 3.677201 1_555
Pb3 Tb0 3.677201 1_554
Pb4 Tb0 3.180047 1_555
Pb4 Tb3 3.180048 1_455
Pb4 Tb9 3.264078 1_456
Pb4 Tb5 3.264078 1_455
Pb4 Tb4 3.264081 1_555
Pb4 Tb8 3.264081 1_556
Pb4 Tb1 3.315688 1_555
Pb4 Tb7 3.677201 1_556
Pb4 Tb7 3.677201 1_555
Pb5 Tb0 3.180047 1_555
Pb5 Tb1 3.180048 1_545
Pb5 Tb8 3.264078 1_546
Pb5 Tb4 3.264078 1_545
Pb5 Tb9 3.264081 1_556
Pb5 Tb5 3.264081 1_555
Pb5 Tb3 3.315688 1_555
Pb5 Tb2 3.677201 1_555
Pb5 Tb2 3.677201 1_556
