# generated using pymatgen
data_Li2SO4
_symmetry_space_group_name_H-M   'P 1'
_cell_length_a   5.39082300
_cell_length_b   5.40071526
_cell_length_c   5.67311656
_cell_angle_alpha   91.76612852
_cell_angle_beta   90.70967133
_cell_angle_gamma   90.32006230
_symmetry_Int_Tables_number   1
_chemical_formula_structural   Li2SO4
_chemical_formula_sum   'Li4 S2 O8'
_cell_volume   165.07474878
_cell_formula_units_Z   2
loop_
 _symmetry_equiv_pos_site_id
 _symmetry_equiv_pos_as_xyz
  1  'x, y, z'
loop_
 _atom_site_type_symbol
 _atom_site_label
 _atom_site_symmetry_multiplicity
 _atom_site_fract_x
 _atom_site_fract_y
 _atom_site_fract_z
 _atom_site_occupancy
  Li  Li0  1  0.48983100  0.98615300  0.61990300  1
  Li  Li1  1  0.01696400  0.51830800  0.38258400  1
  Li  Li2  1  0.49474500  0.98673700  0.11992800  1
  Li  Li3  1  0.00540100  0.50832400  0.88408900  1
  S  S0  1  0.99251600  0.01220600  0.00073400  1
  S  S1  1  0.50505600  0.49015700  0.49818700  1
  O  O0  1  0.03032800  0.24532100  0.14360000  1
  O  O1  1  0.95670300  0.79325700  0.15032800  1
  O  O2  1  0.76432500  0.04085900  0.85396200  1
  O  O3  1  0.52849500  0.24924400  0.36677800  1
  O  O4  1  0.29093800  0.47039200  0.65868100  1
  O  O5  1  0.21712600  0.96788500  0.85569400  1
  O  O6  1  0.74443400  0.54360400  0.62676600  1
  O  O7  1  0.45339000  0.70178600  0.34219100  1
loop_
_geom_bond_atom_site_label_1
_geom_bond_atom_site_label_2
_geom_bond_distance
_geom_bond_site_symmetry_2
Li0 O2 1.990572 1_565
Li0 O5 2.003879 1_555
Li0 O3 2.062604 1_565
Li0 O7 2.172377 1_555
Li1 O0 1.974176 1_555
Li1 O6 2.033979 1_455
Li1 O1 2.040103 1_455
Li1 O4 2.161868 1_555
Li2 O3 1.967897 1_565
Li2 O7 2.032414 1_555
Li2 O5 2.104892 1_554
Li2 O2 2.133261 1_564
Li3 O4 2.020576 1_555
Li3 O6 2.028748 1_455
Li3 O0 2.080677 1_556
Li3 O1 2.142275 1_456
O0 S0 1.487833 1_455
O1 S0 1.489675 1_565
O2 S0 1.488353 1_556
O3 S1 1.486265 1_555
O4 S1 1.484385 1_555
O5 S0 1.488703 1_466
O6 S1 1.496729 1_555
O7 S1 1.492280 1_555
