# generated using pymatgen
data_CsHS2(O3F)2
_symmetry_space_group_name_H-M   'P 1'
_cell_length_a   7.82422178
_cell_length_b   7.82422178
_cell_length_c   9.56379934
_cell_angle_alpha   57.42061737
_cell_angle_beta   57.42061737
_cell_angle_gamma   60.12153093
_symmetry_Int_Tables_number   1
_chemical_formula_structural   CsHS2(O3F)2
_chemical_formula_sum   'Cs2 H2 S4 O12 F4'
_cell_volume   397.44688767
_cell_formula_units_Z   2
loop_
 _symmetry_equiv_pos_site_id
 _symmetry_equiv_pos_as_xyz
  1  'x, y, z'
loop_
 _atom_site_type_symbol
 _atom_site_label
 _atom_site_symmetry_multiplicity
 _atom_site_fract_x
 _atom_site_fract_y
 _atom_site_fract_z
 _atom_site_occupancy
  Cs  Cs0  1  0.11570900  0.88429100  0.75000000  1
  Cs  Cs1  1  0.88429100  0.11570900  0.25000000  1
  H  H0  1  0.00000000  0.50000000  0.50000000  1
  H  H1  1  0.50000000  0.00000000  0.00000000  1
  S  S0  1  0.82411200  0.51572100  0.78090000  1
  S  S1  1  0.48427900  0.17588800  0.71910000  1
  S  S2  1  0.17588800  0.48427900  0.21910000  1
  S  S3  1  0.51572100  0.82411200  0.28090000  1
  O  O0  1  0.86084600  0.28992400  0.85023400  1
  O  O1  1  0.71007600  0.13915400  0.64976600  1
  O  O2  1  0.13915400  0.71007600  0.14976600  1
  O  O3  1  0.28992400  0.86084600  0.35023400  1
  O  O4  1  0.83559300  0.60058500  0.87544200  1
  O  O5  1  0.39941500  0.16440700  0.62455800  1
  O  O6  1  0.16440700  0.39941500  0.12455800  1
  O  O7  1  0.60058500  0.83559300  0.37544200  1
  O  O8  1  0.93489100  0.60938300  0.58247200  1
  O  O9  1  0.39061700  0.06510900  0.91752800  1
  O  O10  1  0.06510900  0.39061700  0.41752800  1
  O  O11  1  0.60938300  0.93489100  0.08247200  1
  F  F0  1  0.57945600  0.61772700  0.79714800  1
  F  F1  1  0.38227300  0.42054400  0.70285200  1
  F  F2  1  0.42054400  0.38227300  0.20285200  1
  F  F3  1  0.61772700  0.57945600  0.29714800  1
loop_
_geom_bond_atom_site_label_1
_geom_bond_atom_site_label_2
_geom_bond_distance
_geom_bond_site_symmetry_2
Cs0 O1 3.143321 1_465
Cs0 O0 3.143321 1_465
Cs0 O4 3.212128 1_455
Cs0 O5 3.212128 1_565
Cs0 F0 3.305797 1_555
Cs0 F1 3.305797 1_555
Cs0 O3 3.376816 1_555
Cs0 O2 3.376816 1_556
Cs0 O10 3.491240 1_565
Cs0 O11 3.491240 1_456
Cs0 O6 3.572696 1_556
Cs0 O7 3.572696 1_555
Cs1 O2 3.143321 1_645
Cs1 O3 3.143321 1_645
Cs1 O6 3.212128 1_655
Cs1 O7 3.212128 1_545
Cs1 F3 3.305797 1_555
Cs1 F2 3.305797 1_555
Cs1 O1 3.376816 1_555
Cs1 O0 3.376816 1_554
Cs1 O9 3.491240 1_654
Cs1 O8 3.491240 1_545
Cs1 O5 3.572696 1_555
Cs1 O4 3.572696 1_554
H0 O10 1.214067 1_555
H0 O8 1.214067 1_455
H1 O9 1.214067 1_554
H1 O11 1.214067 1_545
O0 S0 1.442641 1_555
O1 S1 1.442641 1_555
O2 S2 1.442641 1_555
O3 S3 1.442641 1_555
O4 S0 1.435256 1_555
O5 S1 1.435256 1_555
O6 S2 1.435256 1_555
O7 S3 1.435256 1_555
O8 S0 1.501134 1_555
O9 S1 1.501134 1_555
O10 S2 1.501134 1_555
O11 S3 1.501134 1_555
F0 S0 1.617563 1_555
F1 S1 1.617563 1_555
F2 S2 1.617563 1_555
F3 S3 1.617563 1_555
