# generated using pymatgen
data_Na3Sr(BO2)5
_symmetry_space_group_name_H-M   'P 1'
_cell_length_a   7.34576800
_cell_length_b   7.69531351
_cell_length_c   9.82860198
_cell_angle_alpha   81.55611841
_cell_angle_beta   109.02998004
_cell_angle_gamma   117.97314671
_symmetry_Int_Tables_number   1
_chemical_formula_structural   Na3Sr(BO2)5
_chemical_formula_sum   'Na6 Sr2 B10 O20'
_cell_volume   463.85102441
_cell_formula_units_Z   2
loop_
 _symmetry_equiv_pos_site_id
 _symmetry_equiv_pos_as_xyz
  1  'x, y, z'
loop_
 _atom_site_type_symbol
 _atom_site_label
 _atom_site_symmetry_multiplicity
 _atom_site_fract_x
 _atom_site_fract_y
 _atom_site_fract_z
 _atom_site_occupancy
  Na  Na0  1  0.79233800  0.28086200  0.45215400  1
  Na  Na1  1  0.20766200  0.71913800  0.54784600  1
  Na  Na2  1  0.15644000  0.50128900  0.16507300  1
  Na  Na3  1  0.84356000  0.49871100  0.83492700  1
  Na  Na4  1  0.72101000  0.01381900  0.11498700  1
  Na  Na5  1  0.27899000  0.98618100  0.88501300  1
  Sr  Sr0  1  0.78401300  0.94757800  0.77642200  1
  Sr  Sr1  1  0.21598700  0.05242200  0.22357800  1
  B  B0  1  0.83828700  0.74998000  0.54768400  1
  B  B1  1  0.16171300  0.25002000  0.45231600  1
  B  B2  1  0.86270100  0.67776400  0.08282000  1
  B  B3  1  0.13729900  0.32223600  0.91718000  1
  B  B4  1  0.51209700  0.77329900  0.37786500  1
  B  B5  1  0.48790300  0.22670100  0.62213500  1
  B  B6  1  0.61813100  0.33960800  0.13767100  1
  B  B7  1  0.38186900  0.66039200  0.86232900  1
  B  B8  1  0.70192200  0.62690500  0.29009800  1
  B  B9  1  0.29807800  0.37309500  0.70990200  1
  O  O0  1  0.83455700  0.75070300  0.19259600  1
  O  O1  1  0.34198400  0.80686700  0.35557300  1
  O  O2  1  0.01561100  0.20450100  0.00032800  1
  O  O3  1  0.98438900  0.79549900  0.99967200  1
  O  O4  1  0.65801600  0.19313300  0.64442700  1
  O  O5  1  0.84439800  0.65302000  0.44045600  1
  O  O6  1  0.40042500  0.58485200  0.74842900  1
  O  O7  1  0.59957500  0.41514800  0.25157100  1
  O  O8  1  0.46687500  0.31333400  0.72761800  1
  O  O9  1  0.53312500  0.68666600  0.27238200  1
  O  O10  1  0.32044200  0.17971500  0.48858600  1
  O  O11  1  0.67955800  0.82028500  0.51141400  1
  O  O12  1  0.50035000  0.85034400  0.89615700  1
  O  O13  1  0.49965000  0.14965600  0.10384300  1
  O  O14  1  0.23161100  0.52871200  0.93497500  1
  O  O15  1  0.76838900  0.47128800  0.06502500  1
  O  O16  1  0.02741900  0.22278200  0.31839800  1
  O  O17  1  0.97258100  0.77721800  0.68160200  1
  O  O18  1  0.15560200  0.34698000  0.55954400  1
  O  O19  1  0.16544300  0.24929700  0.80740400  1
loop_
_geom_bond_atom_site_label_1
_geom_bond_atom_site_label_2
_geom_bond_distance
_geom_bond_site_symmetry_2
Na0 O4 2.284073 1_555
Na0 O18 2.353908 1_655
Na0 O7 2.431760 1_555
Na0 O5 2.695510 1_555
Na0 O16 2.699458 1_655
Na1 O1 2.284073 1_555
Na1 O5 2.353908 1_455
Na1 O6 2.431760 1_555
Na1 O18 2.695510 1_555
Na1 O17 2.699458 1_455
Na2 O9 2.374785 1_555
Na2 O16 2.416579 1_555
Na2 O14 2.455385 1_554
Na2 O2 2.585610 1_555
Na2 O15 2.601376 1_455
Na2 O1 2.741379 1_555
Na3 O8 2.374785 1_555
Na3 O17 2.416579 1_555
Na3 O15 2.455385 1_556
Na3 O3 2.585610 1_555
Na3 O14 2.601376 1_655
Na3 O4 2.741379 1_555
Na4 O13 2.278928 1_555
Na4 O12 2.333247 1_544
Na4 O0 2.468408 1_545
Na4 O2 2.496422 1_655
Na4 O16 2.502626 1_655
Na4 O9 2.761337 1_545
Na5 O12 2.278928 1_555
Na5 O13 2.333247 1_566
Na5 O19 2.468408 1_565
Na5 O3 2.496422 1_455
Na5 O17 2.502626 1_455
Na5 O8 2.761337 1_565
B0 O17 1.337852 1_555
B0 O5 1.400948 1_555
B0 O11 1.429472 1_555
B1 O16 1.337852 1_555
B1 O18 1.400948 1_555
B1 O10 1.429472 1_555
B2 O3 1.336765 1_554
B2 O0 1.397885 1_555
B2 O15 1.416011 1_555
B3 O2 1.336765 1_556
B3 O19 1.397885 1_555
B3 O14 1.416011 1_555
B4 O1 1.335631 1_555
B4 O9 1.395414 1_555
B4 O11 1.426896 1_555
B5 O4 1.335631 1_555
B5 O8 1.395414 1_555
B5 O10 1.426896 1_555
B6 O13 1.328631 1_555
B6 O7 1.405234 1_555
B6 O15 1.416728 1_555
B7 O12 1.328631 1_555
B7 O6 1.405234 1_555
B7 O14 1.416728 1_555
B8 O9 1.466251 1_555
B8 O5 1.483561 1_555
B8 O7 1.486699 1_555
B8 O0 1.498404 1_555
B9 O8 1.466251 1_555
B9 O18 1.483561 1_555
B9 O6 1.486699 1_555
B9 O19 1.498404 1_555
O0 Sr1 2.623458 1_665
O1 Sr1 2.499617 1_565
O2 Sr1 2.665790 1_555
O2 Sr0 2.706862 1_444
O3 Sr0 2.665790 1_555
O3 Sr1 2.706862 1_666
O4 Sr0 2.499617 1_545
O6 Sr0 2.854516 1_555
O7 Sr1 2.854516 1_555
O10 Sr1 2.659590 1_555
O11 Sr0 2.659590 1_555
O12 Sr0 2.482856 1_555
O13 Sr1 2.482856 1_555
O16 Sr1 2.722148 1_555
O17 Sr0 2.722148 1_555
O19 Sr0 2.623458 1_445
