# generated using pymatgen
data_Sr(BIr)2
_symmetry_space_group_name_H-M   'P 1'
_cell_length_a   5.60908576
_cell_length_b   5.60908608
_cell_length_c   6.16988731
_cell_angle_alpha   105.37769419
_cell_angle_beta   105.37769967
_cell_angle_gamma   114.62086983
_symmetry_Int_Tables_number   1
_chemical_formula_structural   Sr(BIr)2
_chemical_formula_sum   'Sr2 B4 Ir4'
_cell_volume   153.73202537
_cell_formula_units_Z   2
loop_
 _symmetry_equiv_pos_site_id
 _symmetry_equiv_pos_as_xyz
  1  'x, y, z'
loop_
 _atom_site_type_symbol
 _atom_site_label
 _atom_site_symmetry_multiplicity
 _atom_site_fract_x
 _atom_site_fract_y
 _atom_site_fract_z
 _atom_site_occupancy
  Sr  Sr0  1  0.87500000  0.12500000  0.25000000  1
  Sr  Sr1  1  0.12500000  0.87500000  0.75000000  1
  B  B0  1  0.54879688  0.45120312  0.25000000  1
  B  B1  1  0.79879688  0.20120312  0.75000000  1
  B  B2  1  0.20120312  0.79879688  0.25000000  1
  B  B3  1  0.45120312  0.54879688  0.75000000  1
  Ir  Ir0  1  0.50584861  0.75584861  0.51169622  1
  Ir  Ir1  1  0.75584861  0.50584861  0.01169622  1
  Ir  Ir2  1  0.49415139  0.24415139  0.48830378  1
  Ir  Ir3  1  0.24415139  0.49415139  0.98830378  1
loop_
_geom_bond_atom_site_label_1
_geom_bond_atom_site_label_2
_geom_bond_distance
_geom_bond_site_symmetry_2
B0 Ir2 2.110113 1_555
B0 Ir1 2.110113 1_555
B0 Ir3 2.161251 1_554
B0 Ir0 2.161251 1_555
B0 Sr0 3.079787 1_555
B0 Sr1 3.167728 1_655
B0 Sr1 3.167728 1_544
B1 Ir3 2.110109 1_655
B1 Ir0 2.110109 1_545
B1 Ir2 2.161251 1_555
B1 Ir1 2.161251 1_556
B1 Sr1 3.079787 1_645
B1 Sr0 3.167727 1_556
B1 Sr0 3.167727 1_555
B2 Ir1 2.110109 1_455
B2 Ir2 2.110109 1_565
B2 Ir0 2.161251 1_555
B2 Ir3 2.161251 1_554
B2 Sr0 3.079787 1_465
B2 Sr1 3.167727 1_554
B2 Sr1 3.167727 1_555
B3 Ir0 2.110113 1_555
B3 Ir3 2.110113 1_555
B3 Ir1 2.161251 1_556
B3 Ir2 2.161251 1_555
B3 Sr1 3.079787 1_555
B3 Sr0 3.167728 1_455
B3 Sr0 3.167728 1_566
Ir0 Sr1 3.083195 1_655
Ir0 Sr1 3.083198 1_555
Ir0 Sr0 3.340024 1_565
Ir0 Sr0 3.340030 1_455
Ir1 Sr0 3.083196 1_565
Ir1 Sr0 3.083198 1_555
Ir1 Sr1 3.340024 1_654
Ir1 Sr1 3.340030 1_544
Ir2 Sr0 3.083195 1_455
Ir2 Sr0 3.083198 1_555
Ir2 Sr1 3.340024 1_545
Ir2 Sr1 3.340030 1_655
Ir3 Sr1 3.083196 1_545
Ir3 Sr1 3.083198 1_555
Ir3 Sr0 3.340024 1_456
Ir3 Sr0 3.340030 1_566
