# generated using pymatgen
data_K3Ba2Pr2(BiO5)3
_symmetry_space_group_name_H-M   'P 1'
_cell_length_a   6.28651922
_cell_length_b   6.28650457
_cell_length_c   31.39736720
_cell_angle_alpha   59.96282277
_cell_angle_beta   59.96263100
_cell_angle_gamma   59.99997076
_symmetry_Int_Tables_number   1
_chemical_formula_structural   K3Ba2Pr2(BiO5)3
_chemical_formula_sum   'K6 Ba4 Pr4 Bi6 O30'
_cell_volume   876.90534611
_cell_formula_units_Z   2
loop_
 _symmetry_equiv_pos_site_id
 _symmetry_equiv_pos_as_xyz
  1  'x, y, z'
loop_
 _atom_site_type_symbol
 _atom_site_label
 _atom_site_symmetry_multiplicity
 _atom_site_fract_x
 _atom_site_fract_y
 _atom_site_fract_z
 _atom_site_occupancy
  K  K0  1  0.25620920  0.25621581  0.04627320  1
  K  K1  1  0.25118980  0.25119261  0.24928643  1
  K  K2  1  0.74883848  0.74884247  0.55069705  1
  K  K3  1  0.24681591  0.24681122  0.85191172  1
  K  K4  1  0.74376938  0.74378103  0.75373245  1
  K  K5  1  0.75307397  0.75307720  0.94815396  1
  Ba  Ba0  1  0.75507722  0.75507319  0.14695403  1
  Ba  Ba1  1  0.24921542  0.24921532  0.45047101  1
  Ba  Ba2  1  0.75065361  0.75065661  0.34960715  1
  Ba  Ba3  1  0.24512900  0.24513151  0.65292239  1
  Pr  Pr0  1  0.50716552  0.50716508  0.09570001  1
  Pr  Pr1  1  0.50311443  0.50311474  0.29813086  1
  Pr  Pr2  1  0.49662241  0.49662397  0.50202231  1
  Pr  Pr3  1  0.49309951  0.49309835  0.70414148  1
  Bi  Bi0  1  0.00443045  0.00443021  0.99734204  1
  Bi  Bi1  1  0.00276336  0.00276203  0.19834264  1
  Bi  Bi2  1  -0.00004986  -0.00005081  0.40003034  1
  Bi  Bi3  1  0.99735006  0.99734974  0.60158991  1
  Bi  Bi4  1  0.99552209  0.99552159  0.80268683  1
  Bi  Bi5  1  0.49996783  0.49996737  0.90001965  1
  O  O0  1  0.24165222  0.24165073  0.15105879  1
  O  O1  1  0.22919636  0.76742928  0.04718928  1
  O  O2  1  0.76743041  0.22919601  0.04718929  1
  O  O3  1  0.24165109  0.76140347  0.15105846  1
  O  O4  1  0.23934419  0.23934388  0.35449816  1
  O  O5  1  0.23630578  0.76412506  0.24708838  1
  O  O6  1  0.76140399  0.24165232  0.15105857  1
  O  O7  1  0.76742940  0.76742753  0.04718919  1
  O  O8  1  0.76412611  0.23630557  0.24708842  1
  O  O9  1  0.23934452  0.74882243  0.35449795  1
  O  O10  1  0.23581701  0.23581863  0.55293507  1
  O  O11  1  0.25106792  0.76074027  0.44549060  1
  O  O12  1  0.74882358  0.23934321  0.35449794  1
  O  O13  1  0.76412644  0.76412568  0.24708840  1
  O  O14  1  0.76074022  0.25106768  0.44549054  1
  O  O15  1  0.23581804  0.76368999  0.55293515  1
  O  O16  1  0.23250550  0.23250368  0.75281109  1
  O  O17  1  0.23845330  0.75844392  0.64893172  1
  O  O18  1  0.76369185  0.23581632  0.55293505  1
  O  O19  1  0.76073982  0.76074106  0.44549048  1
  O  O20  1  0.75844369  0.23845344  0.64893172  1
  O  O21  1  0.23250409  0.77093495  0.75281133  1
  O  O22  1  0.25253695  0.25253442  0.94845317  1
  O  O23  1  0.24743323  0.74743800  0.85153808  1
  O  O24  1  0.77093498  0.23250160  0.75281150  1
  O  O25  1  0.75844481  0.75844413  0.64893190  1
  O  O26  1  0.74743983  0.24743326  0.85153783  1
  O  O27  1  0.25253667  0.75266075  0.94845385  1
  O  O28  1  0.75266122  0.25253511  0.94845400  1
  O  O29  1  0.74743902  0.74743837  0.85153865  1
loop_
_geom_bond_atom_site_label_1
_geom_bond_atom_site_label_2
_geom_bond_distance
_geom_bond_site_symmetry_2
K0 O27 3.094559 1_554
K0 O28 3.094574 1_554
K0 O22 3.094604 1_554
K0 O7 3.146376 1_455
K0 O1 3.146383 1_555
K0 O2 3.146400 1_455
K0 O1 3.146418 1_545
K0 O2 3.146420 1_555
K0 O7 3.146430 1_545
K0 O6 3.200949 1_455
K0 O0 3.200966 1_555
K0 O3 3.200974 1_545
K1 O3 3.145247 1_555
K1 O6 3.145251 1_555
K1 O0 3.145271 1_555
K1 O5 3.145348 1_555
K1 O13 3.145368 1_455
K1 O8 3.145372 1_555
K1 O13 3.145391 1_545
K1 O8 3.145400 1_455
K1 O5 3.145408 1_545
K1 O12 3.230516 1_455
K1 O4 3.230526 1_555
K1 O9 3.230534 1_545
K2 O18 3.145375 1_565
K2 O10 3.145398 1_565
K2 O15 3.145400 1_655
K2 O10 3.145413 1_655
K2 O15 3.145418 1_555
K2 O18 3.145431 1_555
K2 O17 3.145912 1_555
K2 O25 3.145917 1_555
K2 O20 3.145930 1_555
K2 O14 3.230017 1_565
K2 O11 3.230023 1_655
K2 O19 3.230047 1_555
K3 O22 3.067581 1_555
K3 O27 3.067582 1_545
K3 O28 3.067593 1_455
K3 O29 3.143256 1_545
K3 O23 3.143258 1_545
K3 O26 3.143273 1_455
K3 O23 3.143275 1_555
K3 O26 3.143276 1_555
K3 O29 3.143282 1_455
K3 O24 3.204052 1_555
K3 O21 3.204076 1_555
K3 O16 3.204077 1_555
K4 O23 3.093995 1_555
K4 O26 3.094033 1_555
K4 O29 3.094085 1_555
K4 O21 3.146386 1_555
K4 O16 3.146393 1_565
K4 O24 3.146430 1_555
K4 O24 3.146443 1_565
K4 O16 3.146476 1_655
K4 O21 3.146497 1_655
K4 O25 3.200794 1_555
K4 O20 3.200815 1_565
K4 O17 3.200844 1_655
K5 O29 3.069351 1_555
K5 O26 3.069376 1_565
K5 O23 3.069377 1_655
K5 O27 3.143243 1_555
K5 O22 3.143246 1_565
K5 O28 3.143251 1_555
K5 O28 3.143272 1_565
K5 O22 3.143282 1_655
K5 O27 3.143295 1_655
K5 O1 3.202292 1_556
K5 O2 3.202310 1_556
K5 O7 3.202317 1_556
Ba0 O1 3.056570 1_655
Ba0 O7 3.056578 1_555
Ba0 O2 3.056586 1_565
Ba0 O6 3.145803 1_555
Ba0 O0 3.145822 1_655
Ba0 O3 3.145835 1_555
Ba0 O3 3.145837 1_655
Ba0 O0 3.145838 1_565
Ba0 O6 3.145853 1_565
Ba0 O8 3.201903 1_555
Ba0 O5 3.201909 1_555
Ba0 O13 3.201928 1_555
Ba1 O12 3.076667 1_555
Ba1 O9 3.076669 1_555
Ba1 O4 3.076672 1_555
Ba1 O18 3.135027 1_455
Ba1 O15 3.135040 1_545
Ba1 O10 3.135044 1_555
Ba1 O19 3.146035 1_545
Ba1 O11 3.146036 1_545
Ba1 O11 3.146038 1_555
Ba1 O14 3.146043 1_555
Ba1 O19 3.146044 1_455
Ba1 O14 3.146046 1_455
Ba2 O11 3.075248 1_555
Ba2 O14 3.075263 1_555
Ba2 O19 3.075263 1_555
Ba2 O8 3.136308 1_565
Ba2 O5 3.136313 1_655
Ba2 O13 3.136323 1_555
Ba2 O12 3.145929 1_565
Ba2 O4 3.145929 1_565
Ba2 O9 3.145939 1_555
Ba2 O12 3.145946 1_555
Ba2 O9 3.145950 1_655
Ba2 O4 3.145950 1_655
Ba3 O16 3.058839 1_555
Ba3 O24 3.058840 1_455
Ba3 O21 3.058851 1_545
Ba3 O17 3.145738 1_555
Ba3 O25 3.145744 1_455
Ba3 O20 3.145752 1_555
Ba3 O25 3.145764 1_545
Ba3 O17 3.145765 1_545
Ba3 O20 3.145766 1_455
Ba3 O15 3.199000 1_555
Ba3 O18 3.199010 1_555
Ba3 O10 3.199018 1_555
Bi0 O2 2.107146 1_456
Bi0 O7 2.107152 1_446
Bi0 O1 2.107155 1_546
Bi0 O27 2.204689 1_545
Bi0 O22 2.204689 1_555
Bi0 O28 2.204694 1_455
Bi1 O8 2.120587 1_455
Bi1 O5 2.120589 1_545
Bi1 O13 2.120589 1_445
Bi1 O0 2.122721 1_555
Bi1 O3 2.122730 1_545
Bi1 O6 2.122740 1_455
Bi2 O19 2.126921 1_445
Bi2 O14 2.126926 1_455
Bi2 O11 2.126933 1_545
Bi2 O4 2.128525 1_555
Bi2 O9 2.128525 1_545
Bi2 O12 2.128533 1_455
Bi3 O15 2.119058 1_655
Bi3 O18 2.119062 1_565
Bi3 O10 2.119067 1_665
Bi3 O25 2.122854 1_555
Bi3 O20 2.122863 1_565
Bi3 O17 2.122870 1_655
Bi4 O21 2.107013 1_655
Bi4 O16 2.107018 1_665
Bi4 O24 2.107020 1_565
Bi4 O29 2.204505 1_555
Bi4 O26 2.204507 1_565
Bi4 O23 2.204520 1_655
Bi5 O22 2.198850 1_555
Bi5 O27 2.198853 1_555
Bi5 O28 2.198865 1_555
Bi5 O29 2.199178 1_555
Bi5 O26 2.199183 1_555
Bi5 O23 2.199189 1_555
O0 Pr0 2.360166 1_555
O1 Pr0 2.315404 1_555
O2 Pr0 2.315394 1_555
O3 Pr0 2.360180 1_555
O4 Pr1 2.346290 1_555
O5 Pr1 2.319555 1_555
O6 Pr0 2.360192 1_555
O7 Pr0 2.315410 1_555
O8 Pr1 2.319547 1_555
O9 Pr1 2.346299 1_555
O10 Pr2 2.317772 1_555
O11 Pr2 2.349426 1_555
O12 Pr1 2.346315 1_555
O13 Pr1 2.319554 1_555
O14 Pr2 2.349426 1_555
O15 Pr2 2.317861 1_555
O16 Pr3 2.318207 1_555
O17 Pr3 2.358599 1_555
O18 Pr2 2.317883 1_555
O19 Pr2 2.349508 1_555
O20 Pr3 2.358584 1_555
O21 Pr3 2.318194 1_555
O24 Pr3 2.318202 1_555
O25 Pr3 2.358571 1_555
