# generated using pymatgen
data_HoPaO4
_symmetry_space_group_name_H-M   'P 1'
_cell_length_a   6.00019968
_cell_length_b   6.00019968
_cell_length_c   6.00019968
_cell_angle_alpha   133.63455435
_cell_angle_beta   133.63455435
_cell_angle_gamma   67.65936018
_symmetry_Int_Tables_number   1
_chemical_formula_structural   HoPaO4
_chemical_formula_sum   'Ho2 Pa2 O8'
_cell_volume   111.23778606
_cell_formula_units_Z   2
loop_
 _symmetry_equiv_pos_site_id
 _symmetry_equiv_pos_as_xyz
  1  'x, y, z'
loop_
 _atom_site_type_symbol
 _atom_site_label
 _atom_site_symmetry_multiplicity
 _atom_site_fract_x
 _atom_site_fract_y
 _atom_site_fract_z
 _atom_site_occupancy
  Ho  Ho0  1  0.50000000  0.50000000  0.00000000  1
  Ho  Ho1  1  0.25000000  0.75000000  0.50000000  1
  Pa  Pa0  1  0.00000000  0.00000000  0.00000000  1
  Pa  Pa1  1  0.75000000  0.25000000  0.50000000  1
  O  O0  1  0.37500000  0.37702400  0.50202400  1
  O  O1  1  0.87500000  0.87297600  0.49797600  1
  O  O2  1  0.12702400  0.12500000  0.50202400  1
  O  O3  1  0.62297600  0.12500000  0.99797600  1
  O  O4  1  0.87500000  0.37702400  0.00202400  1
  O  O5  1  0.62297600  0.62500000  0.49797600  1
  O  O6  1  0.12702400  0.62500000  0.00202400  1
  O  O7  1  0.37500000  0.87297600  0.99797600  1
loop_
_geom_bond_atom_site_label_1
_geom_bond_atom_site_label_2
_geom_bond_distance
_geom_bond_site_symmetry_2
Ho0 O7 2.078441 1_554
Ho0 O5 2.078441 1_555
Ho0 O0 2.078441 1_554
Ho0 O6 2.078441 1_555
Ho0 O3 2.078441 1_554
Ho0 O1 2.078441 1_555
Ho0 O4 2.078441 1_555
Ho0 O2 2.078441 1_554
Ho1 O7 2.078441 1_555
Ho1 O0 2.078441 1_555
Ho1 O6 2.078441 1_555
Ho1 O2 2.078441 1_565
Ho1 O1 2.078441 1_455
Ho1 O3 2.078441 1_565
Ho1 O4 2.078441 1_455
Ho1 O5 2.078441 1_555
O0 Pa0 2.089279 1_555
O0 Pa1 2.089279 1_555
O1 Pa1 2.089279 1_565
O1 Pa0 2.089279 1_666
O2 Pa0 2.089279 1_555
O2 Pa1 2.089279 1_455
O3 Pa1 2.089279 1_556
O3 Pa0 2.089279 1_656
O4 Pa1 2.089279 1_554
O4 Pa0 2.089279 1_655
O5 Pa1 2.089279 1_555
O5 Pa0 2.089279 1_666
O6 Pa0 2.089279 1_565
O6 Pa1 2.089279 1_454
O7 Pa1 2.089279 1_566
O7 Pa0 2.089279 1_566
