# generated using pymatgen
data_Li(Mo3S4)2
_symmetry_space_group_name_H-M   'P 1'
_cell_length_a   6.53171600
_cell_length_b   9.05160914
_cell_length_c   9.44187187
_cell_angle_alpha   89.82814408
_cell_angle_beta   89.57265669
_cell_angle_gamma   86.36190818
_symmetry_Int_Tables_number   1
_chemical_formula_structural   Li(Mo3S4)2
_chemical_formula_sum   'Li2 Mo12 S16'
_cell_volume   557.08520855
_cell_formula_units_Z   2
loop_
 _symmetry_equiv_pos_site_id
 _symmetry_equiv_pos_as_xyz
  1  'x, y, z'
loop_
 _atom_site_type_symbol
 _atom_site_label
 _atom_site_symmetry_multiplicity
 _atom_site_fract_x
 _atom_site_fract_y
 _atom_site_fract_z
 _atom_site_occupancy
  Li  Li0  1  0.09994700  0.30326700  0.26317400  1
  Li  Li1  1  0.90005300  0.69673300  0.73682600  1
  Mo  Mo0  1  0.21616700  0.27065400  0.67816500  1
  Mo  Mo1  1  0.21718100  0.77247200  0.17692000  1
  Mo  Mo2  1  0.40449600  0.86780300  0.41709900  1
  Mo  Mo3  1  0.45321400  0.56650600  0.34333200  1
  Mo  Mo4  1  0.40483600  0.36527800  0.91501500  1
  Mo  Mo5  1  0.45005700  0.06085900  0.84424800  1
  Mo  Mo6  1  0.54678600  0.43349400  0.65666800  1
  Mo  Mo7  1  0.59550400  0.13219700  0.58290100  1
  Mo  Mo8  1  0.54994300  0.93914100  0.15575200  1
  Mo  Mo9  1  0.59516400  0.63472200  0.08498500  1
  Mo  Mo10  1  0.78383300  0.72934600  0.32183500  1
  Mo  Mo11  1  0.78281900  0.22752800  0.82308000  1
  S  S0  1  0.13383500  0.69368600  0.42052600  1
  S  S1  1  0.13139900  0.19281300  0.92246700  1
  S  S2  1  0.27306900  0.01015000  0.62389200  1
  S  S3  1  0.21508900  0.03142100  0.25034800  1
  S  S4  1  0.26933000  0.50921000  0.12387100  1
  S  S5  1  0.21507700  0.52947500  0.75071100  1
  S  S6  1  0.38647000  0.31818400  0.44957000  1
  S  S7  1  0.38954700  0.81940400  0.95270400  1
  S  S8  1  0.61353000  0.68181600  0.55043000  1
  S  S9  1  0.61045300  0.18059600  0.04729600  1
  S  S10  1  0.78491100  0.96857900  0.74965200  1
  S  S11  1  0.72693100  0.98985000  0.37610800  1
  S  S12  1  0.78492300  0.47052500  0.24928900  1
  S  S13  1  0.73067000  0.49079000  0.87612900  1
  S  S14  1  0.86616500  0.30631400  0.57947400  1
  S  S15  1  0.86860100  0.80718700  0.07753300  1
loop_
_geom_bond_atom_site_label_1
_geom_bond_atom_site_label_2
_geom_bond_distance
_geom_bond_site_symmetry_2
Li0 S12 2.480050 1_455
Li0 S3 2.529945 1_555
Li0 S4 2.579582 1_555
Li0 S6 2.588564 1_555
Li1 S5 2.480050 1_655
Li1 S10 2.529945 1_555
Li1 S13 2.579582 1_555
Li1 S8 2.588564 1_555
Mo0 S2 2.419502 1_555
Mo0 S5 2.442362 1_555
Mo0 S6 2.469888 1_555
Mo0 S14 2.476920 1_455
Mo0 S1 2.478796 1_555
Mo1 S4 2.438634 1_555
Mo1 S7 2.439161 1_554
Mo1 S3 2.445462 1_565
Mo1 S15 2.470339 1_455
Mo1 S0 2.473081 1_555
Mo2 S0 2.441882 1_555
Mo2 S3 2.446494 1_565
Mo2 S8 2.450373 1_555
Mo2 S2 2.461525 1_565
Mo2 S11 2.467024 1_555
Mo3 S0 2.426072 1_555
Mo3 S12 2.444290 1_555
Mo3 S4 2.475454 1_555
Mo3 S8 2.488161 1_555
Mo3 S6 2.520468 1_555
Mo4 S9 2.426054 1_556
Mo4 S5 2.435752 1_555
Mo4 S1 2.446034 1_555
Mo4 S4 2.492488 1_556
Mo4 S13 2.499531 1_555
Mo5 S1 2.443571 1_555
Mo5 S2 2.446391 1_555
Mo5 S10 2.454107 1_545
Mo5 S7 2.464074 1_545
Mo5 S9 2.476741 1_556
Mo6 S14 2.426072 1_555
Mo6 S5 2.444290 1_555
Mo6 S13 2.475454 1_555
Mo6 S6 2.488161 1_555
Mo6 S8 2.520468 1_555
Mo7 S14 2.441882 1_555
Mo7 S10 2.446494 1_545
Mo7 S6 2.450373 1_555
Mo7 S11 2.461525 1_545
Mo7 S2 2.467024 1_555
Mo8 S15 2.443571 1_555
Mo8 S11 2.446391 1_555
Mo8 S3 2.454107 1_565
Mo8 S9 2.464074 1_565
Mo8 S7 2.476741 1_554
Mo9 S7 2.426054 1_554
Mo9 S12 2.435752 1_555
Mo9 S15 2.446034 1_555
Mo9 S13 2.492488 1_554
Mo9 S4 2.499531 1_555
Mo10 S11 2.419502 1_555
Mo10 S12 2.442362 1_555
Mo10 S8 2.469888 1_555
Mo10 S0 2.476920 1_655
Mo10 S15 2.478796 1_555
Mo11 S13 2.438634 1_555
Mo11 S9 2.439161 1_556
Mo11 S10 2.445462 1_545
Mo11 S1 2.470339 1_655
Mo11 S14 2.473081 1_555
