# generated using pymatgen
data_K49Tl108
_symmetry_space_group_name_H-M   'P 1'
_cell_length_a   17.77957643
_cell_length_b   17.77957643
_cell_length_c   17.77957643
_cell_angle_alpha   90.00000000
_cell_angle_beta   90.00000000
_cell_angle_gamma   90.00000000
_symmetry_Int_Tables_number   1
_chemical_formula_structural   K49Tl108
_chemical_formula_sum   'K49 Tl108'
_cell_volume   5620.36125405
_cell_formula_units_Z   1
loop_
 _symmetry_equiv_pos_site_id
 _symmetry_equiv_pos_as_xyz
  1  'x, y, z'
loop_
 _atom_site_type_symbol
 _atom_site_label
 _atom_site_symmetry_multiplicity
 _atom_site_fract_x
 _atom_site_fract_y
 _atom_site_fract_z
 _atom_site_occupancy
  K  K0  1  0.00000000  0.87724955  0.69501481  1
  K  K1  1  0.20512706  0.63464805  0.50000000  1
  K  K2  1  0.87724955  0.69501481  0.00000000  1
  K  K3  1  0.81270414  0.81270414  0.81270414  1
  K  K4  1  0.36535195  0.50000000  0.20512706  1
  K  K5  1  0.18729586  0.18729586  0.18729586  1
  K  K6  1  0.63464805  0.50000000  0.79487294  1
  K  K7  1  0.00000000  0.12275045  0.30498519  1
  K  K8  1  0.50000000  0.79487294  0.63464805  1
  K  K9  1  0.68955618  0.68955618  0.31044382  1
  K  K10  1  0.68955618  0.68955618  0.68955618  1
  K  K11  1  0.79487294  0.63464805  0.50000000  1
  K  K12  1  0.50000000  0.50000000  0.00000000  1
  K  K13  1  0.00000000  0.22913368  0.50000000  1
  K  K14  1  0.81270414  0.18729586  0.18729586  1
  K  K15  1  0.18729586  0.81270414  0.81270414  1
  K  K16  1  0.36535195  0.50000000  0.79487294  1
  K  K17  1  0.50000000  0.20512706  0.63464805  1
  K  K18  1  0.31044382  0.31044382  0.31044382  1
  K  K19  1  0.50000000  0.00000000  0.50000000  1
  K  K20  1  0.50000000  0.79487294  0.36535195  1
  K  K21  1  0.63464805  0.50000000  0.20512706  1
  K  K22  1  0.68955618  0.31044382  0.68955618  1
  K  K23  1  0.18729586  0.81270414  0.18729586  1
  K  K24  1  0.18729586  0.18729586  0.81270414  1
  K  K25  1  0.68955618  0.31044382  0.31044382  1
  K  K26  1  0.81270414  0.18729586  0.81270414  1
  K  K27  1  0.30498519  0.00000000  0.12275045  1
  K  K28  1  0.69501481  0.00000000  0.12275045  1
  K  K29  1  0.31044382  0.31044382  0.68955618  1
  K  K30  1  0.22913368  0.50000000  0.00000000  1
  K  K31  1  0.81270414  0.81270414  0.18729586  1
  K  K32  1  0.77086632  0.50000000  0.00000000  1
  K  K33  1  0.50000000  0.00000000  0.77086632  1
  K  K34  1  0.00000000  0.50000000  0.50000000  1
  K  K35  1  0.31044382  0.68955618  0.68955618  1
  K  K36  1  0.20512706  0.36535195  0.50000000  1
  K  K37  1  0.00000000  0.12275045  0.69501481  1
  K  K38  1  0.87724955  0.30498519  0.00000000  1
  K  K39  1  0.12275045  0.69501481  0.00000000  1
  K  K40  1  0.50000000  0.20512706  0.36535195  1
  K  K41  1  0.50000000  0.00000000  0.22913368  1
  K  K42  1  0.30498519  0.00000000  0.87724955  1
  K  K43  1  0.31044382  0.68955618  0.31044382  1
  K  K44  1  0.00000000  0.87724955  0.30498519  1
  K  K45  1  0.69501481  0.00000000  0.87724955  1
  K  K46  1  0.79487294  0.36535195  0.50000000  1
  K  K47  1  0.00000000  0.77086632  0.50000000  1
  K  K48  1  0.12275045  0.30498519  0.00000000  1
  Tl  Tl0  1  0.17861555  0.16284201  0.40803736  1
  Tl  Tl1  1  0.59196264  0.82138445  0.16284201  1
  Tl  Tl2  1  0.50000000  0.34065172  0.82284129  1
  Tl  Tl3  1  0.33424430  0.09157380  0.66918721  1
  Tl  Tl4  1  0.82138445  0.16284201  0.40803736  1
  Tl  Tl5  1  0.82284129  0.50000000  0.34065172  1
  Tl  Tl6  1  0.09157380  0.33081279  0.66575570  1
  Tl  Tl7  1  0.50000000  0.34065172  0.17715871  1
  Tl  Tl8  1  0.90842620  0.33081279  0.66575570  1
  Tl  Tl9  1  0.17390604  0.00000000  0.31848228  1
  Tl  Tl10  1  0.16284201  0.40803736  0.17861555  1
  Tl  Tl11  1  0.31848228  0.82609396  0.00000000  1
  Tl  Tl12  1  0.82138445  0.83715799  0.40803736  1
  Tl  Tl13  1  0.33424430  0.90842620  0.66918721  1
  Tl  Tl14  1  0.00000000  0.50000000  0.09165971  1
  Tl  Tl15  1  0.27631081  0.00000000  0.50000000  1
  Tl  Tl16  1  0.50000000  0.27631081  0.00000000  1
  Tl  Tl17  1  0.17861555  0.83715799  0.40803736  1
  Tl  Tl18  1  0.66575570  0.90842620  0.66918721  1
  Tl  Tl19  1  0.66918721  0.33424430  0.90842620  1
  Tl  Tl20  1  0.34869023  0.50000000  0.59078158  1
  Tl  Tl21  1  0.82138445  0.83715799  0.59196264  1
  Tl  Tl22  1  0.83715799  0.59196264  0.82138445  1
  Tl  Tl23  1  0.82609396  0.00000000  0.31848228  1
  Tl  Tl24  1  0.82609396  0.00000000  0.68151772  1
  Tl  Tl25  1  0.50000000  0.90834029  0.00000000  1
  Tl  Tl26  1  0.17390604  0.00000000  0.68151772  1
  Tl  Tl27  1  0.66575570  0.09157380  0.33081279  1
  Tl  Tl28  1  0.00000000  0.68151772  0.17390604  1
  Tl  Tl29  1  0.16284201  0.59196264  0.17861555  1
  Tl  Tl30  1  0.00000000  0.31848228  0.17390604  1
  Tl  Tl31  1  0.50000000  0.65934828  0.17715871  1
  Tl  Tl32  1  0.17715871  0.50000000  0.34065172  1
  Tl  Tl33  1  0.00000000  0.68151772  0.82609396  1
  Tl  Tl34  1  0.66918721  0.66575570  0.90842620  1
  Tl  Tl35  1  0.66575570  0.90842620  0.33081279  1
  Tl  Tl36  1  0.33424430  0.09157380  0.33081279  1
  Tl  Tl37  1  0.90781624  0.00000000  0.15101685  1
  Tl  Tl38  1  0.40921842  0.65130977  0.50000000  1
  Tl  Tl39  1  0.50000000  0.59078158  0.34869023  1
  Tl  Tl40  1  0.66575570  0.09157380  0.66918721  1
  Tl  Tl41  1  0.50000000  0.59078158  0.65130977  1
  Tl  Tl42  1  0.09218376  0.00000000  0.15101685  1
  Tl  Tl43  1  0.31848228  0.17390604  0.00000000  1
  Tl  Tl44  1  0.34065172  0.82284129  0.50000000  1
  Tl  Tl45  1  0.65130977  0.50000000  0.59078158  1
  Tl  Tl46  1  0.33081279  0.33424430  0.09157380  1
  Tl  Tl47  1  0.84898315  0.09218376  0.00000000  1
  Tl  Tl48  1  0.50000000  0.72368919  0.00000000  1
  Tl  Tl49  1  0.66918721  0.66575570  0.09157380  1
  Tl  Tl50  1  0.50000000  0.65934828  0.82284129  1
  Tl  Tl51  1  0.68151772  0.17390604  0.00000000  1
  Tl  Tl52  1  0.40803736  0.82138445  0.16284201  1
  Tl  Tl53  1  0.66918721  0.33424430  0.09157380  1
  Tl  Tl54  1  0.33424430  0.90842620  0.33081279  1
  Tl  Tl55  1  0.83715799  0.59196264  0.17861555  1
  Tl  Tl56  1  0.33081279  0.33424430  0.90842620  1
  Tl  Tl57  1  0.82284129  0.50000000  0.65934828  1
  Tl  Tl58  1  0.00000000  0.31848228  0.82609396  1
  Tl  Tl59  1  0.65934828  0.82284129  0.50000000  1
  Tl  Tl60  1  0.09165971  0.00000000  0.50000000  1
  Tl  Tl61  1  0.16284201  0.59196264  0.82138445  1
  Tl  Tl62  1  0.09157380  0.66918721  0.66575570  1
  Tl  Tl63  1  0.83715799  0.40803736  0.82138445  1
  Tl  Tl64  1  0.34065172  0.17715871  0.50000000  1
  Tl  Tl65  1  0.09218376  0.00000000  0.84898315  1
  Tl  Tl66  1  0.59196264  0.82138445  0.83715799  1
  Tl  Tl67  1  0.33081279  0.66575570  0.09157380  1
  Tl  Tl68  1  0.15101685  0.09218376  0.00000000  1
  Tl  Tl69  1  0.09157380  0.66918721  0.33424430  1
  Tl  Tl70  1  0.90781624  0.00000000  0.84898315  1
  Tl  Tl71  1  0.34869023  0.50000000  0.40921842  1
  Tl  Tl72  1  0.82138445  0.16284201  0.59196264  1
  Tl  Tl73  1  0.40803736  0.82138445  0.83715799  1
  Tl  Tl74  1  0.00000000  0.15101685  0.09218376  1
  Tl  Tl75  1  0.90842620  0.33081279  0.33424430  1
  Tl  Tl76  1  0.84898315  0.90781624  0.00000000  1
  Tl  Tl77  1  0.59196264  0.17861555  0.83715799  1
  Tl  Tl78  1  0.17861555  0.16284201  0.59196264  1
  Tl  Tl79  1  0.40921842  0.34869023  0.50000000  1
  Tl  Tl80  1  0.40803736  0.17861555  0.83715799  1
  Tl  Tl81  1  0.09157380  0.33081279  0.33424430  1
  Tl  Tl82  1  0.00000000  0.84898315  0.90781624  1
  Tl  Tl83  1  0.17861555  0.83715799  0.59196264  1
  Tl  Tl84  1  0.16284201  0.40803736  0.82138445  1
  Tl  Tl85  1  0.00000000  0.50000000  0.27631081  1
  Tl  Tl86  1  0.90834029  0.00000000  0.50000000  1
  Tl  Tl87  1  0.50000000  0.09165971  0.00000000  1
  Tl  Tl88  1  0.17715871  0.50000000  0.65934828  1
  Tl  Tl89  1  0.68151772  0.82609396  0.00000000  1
  Tl  Tl90  1  0.40803736  0.17861555  0.16284201  1
  Tl  Tl91  1  0.72368919  0.00000000  0.50000000  1
  Tl  Tl92  1  0.00000000  0.84898315  0.09218376  1
  Tl  Tl93  1  0.90842620  0.66918721  0.66575570  1
  Tl  Tl94  1  0.65934828  0.17715871  0.50000000  1
  Tl  Tl95  1  0.00000000  0.50000000  0.90834029  1
  Tl  Tl96  1  0.83715799  0.40803736  0.17861555  1
  Tl  Tl97  1  0.00000000  0.15101685  0.90781624  1
  Tl  Tl98  1  0.90842620  0.66918721  0.33424430  1
  Tl  Tl99  1  0.59196264  0.17861555  0.16284201  1
  Tl  Tl100  1  0.50000000  0.40921842  0.34869023  1
  Tl  Tl101  1  0.00000000  0.50000000  0.72368919  1
  Tl  Tl102  1  0.59078158  0.65130977  0.50000000  1
  Tl  Tl103  1  0.15101685  0.90781624  0.00000000  1
  Tl  Tl104  1  0.65130977  0.50000000  0.40921842  1
  Tl  Tl105  1  0.50000000  0.40921842  0.65130977  1
  Tl  Tl106  1  0.59078158  0.34869023  0.50000000  1
  Tl  Tl107  1  0.33081279  0.66575570  0.90842620  1
loop_
_geom_bond_atom_site_label_1
_geom_bond_atom_site_label_2
_geom_bond_distance
_geom_bond_site_symmetry_2
K0 Tl21 3.735006 1_455
K0 Tl83 3.735006 1_555
K0 Tl24 3.792228 1_465
K0 Tl26 3.792228 1_565
K0 Tl82 3.816751 1_555
K0 Tl70 3.865648 1_465
K0 Tl65 3.865648 1_565
K0 Tl62 4.075046 1_555
K0 Tl93 4.075046 1_455
K0 K3 4.096895 1_455
K0 K15 4.096895 1_555
K0 Tl33 4.188315 1_555
K1 Tl62 3.624690 1_555
K1 Tl69 3.624690 1_555
K1 Tl38 3.640730 1_555
K1 Tl32 3.742345 1_555
K1 Tl88 3.742345 1_555
K1 Tl71 3.853773 1_555
K1 Tl20 3.853773 1_555
K1 K35 3.977147 1_555
K1 K43 3.977147 1_555
K1 Tl83 3.982397 1_555
K1 Tl17 3.982397 1_555
K1 Tl44 4.123315 1_555
K2 Tl22 3.735006 1_554
K2 Tl55 3.735006 1_555
K2 Tl33 3.792228 1_654
K2 Tl28 3.792228 1_655
K2 Tl76 3.816751 1_555
K2 Tl82 3.865648 1_654
K2 Tl92 3.865648 1_655
K2 Tl49 4.075046 1_555
K2 Tl34 4.075046 1_554
K2 K3 4.096895 1_554
K2 K31 4.096895 1_555
K2 Tl89 4.188315 1_555
K3 Tl76 3.790104 1_556
K3 Tl82 3.790104 1_655
K3 Tl70 3.790104 1_565
K3 Tl21 3.951714 1_555
K3 Tl66 3.951714 1_555
K3 Tl22 3.951714 1_555
K3 Tl34 4.029092 1_555
K3 Tl18 4.029092 1_555
K3 Tl93 4.029092 1_555
K3 Tl89 4.072606 1_556
K3 Tl24 4.072606 1_565
K3 Tl33 4.072606 1_655
K3 K45 4.096895 1_565
K4 Tl67 3.624690 1_555
K4 Tl46 3.624690 1_555
K4 Tl71 3.640730 1_555
K4 Tl31 3.742345 1_555
K4 Tl7 3.742345 1_555
K4 Tl100 3.853773 1_555
K4 Tl39 3.853773 1_555
K4 K43 3.977147 1_555
K4 Tl10 3.982397 1_555
K4 Tl29 3.982397 1_555
K4 Tl32 4.123315 1_555
K5 Tl42 3.790104 1_555
K5 Tl68 3.790104 1_555
K5 Tl74 3.790104 1_555
K5 Tl0 3.951714 1_555
K5 Tl10 3.951714 1_555
K5 Tl90 3.951714 1_555
K5 Tl46 4.029092 1_555
K5 Tl81 4.029092 1_555
K5 Tl36 4.029092 1_555
K5 Tl30 4.072606 1_555
K5 Tl43 4.072606 1_555
K5 Tl9 4.072606 1_555
K5 K7 4.096895 1_555
K6 Tl34 3.624690 1_555
K6 Tl19 3.624690 1_555
K6 Tl45 3.640730 1_555
K6 Tl50 3.742345 1_555
K6 Tl2 3.742345 1_555
K6 Tl105 3.853773 1_555
K6 Tl41 3.853773 1_555
K6 Tl63 3.982397 1_555
K6 Tl22 3.982397 1_555
K6 Tl57 4.123315 1_555
K7 Tl4 3.735006 1_455
K7 Tl0 3.735006 1_555
K7 Tl23 3.792228 1_455
K7 Tl9 3.792228 1_555
K7 Tl74 3.816751 1_555
K7 Tl37 3.865648 1_455
K7 Tl42 3.865648 1_555
K7 Tl81 4.075046 1_555
K7 Tl75 4.075046 1_455
K7 Tl30 4.188315 1_555
K8 Tl18 3.624690 1_555
K8 Tl13 3.624690 1_555
K8 Tl41 3.640730 1_555
K8 Tl59 3.742345 1_555
K8 Tl44 3.742345 1_555
K8 Tl38 3.853773 1_555
K8 Tl102 3.853773 1_555
K8 Tl66 3.982397 1_555
K8 Tl73 3.982397 1_555
K8 Tl50 4.123315 1_555
K9 Tl39 3.860697 1_555
K9 Tl102 3.860697 1_555
K9 Tl104 3.860697 1_555
K9 Tl55 3.923187 1_555
K9 Tl1 3.923187 1_555
K9 Tl12 3.923187 1_555
K9 Tl49 3.931074 1_555
K9 Tl98 3.931074 1_555
K9 Tl35 3.931074 1_555
K9 Tl5 4.154832 1_555
K9 Tl31 4.154832 1_555
K9 Tl59 4.154832 1_555
K10 K3 3.792357 1_555
K10 Tl102 3.860697 1_555
K10 Tl41 3.860697 1_555
K10 Tl45 3.860697 1_555
K10 Tl21 3.923187 1_555
K10 Tl66 3.923187 1_555
K10 Tl22 3.923187 1_555
K10 Tl34 3.931074 1_555
K10 Tl18 3.931074 1_555
K10 Tl93 3.931074 1_555
K10 K11 3.977147 1_555
K10 K8 3.977147 1_555
K10 K6 3.977147 1_555
K10 Tl59 4.154832 1_555
K10 Tl50 4.154832 1_555
K10 Tl57 4.154832 1_555
K11 Tl93 3.624690 1_555
K11 Tl98 3.624690 1_555
K11 Tl102 3.640730 1_555
K11 Tl57 3.742345 1_555
K11 Tl5 3.742345 1_555
K11 Tl104 3.853773 1_555
K11 Tl45 3.853773 1_555
K11 K9 3.977147 1_555
K11 Tl21 3.982397 1_555
K11 Tl12 3.982397 1_555
K11 Tl59 4.123315 1_555
K12 Tl48 3.977099 1_555
K12 Tl16 3.977099 1_555
K12 Tl7 4.236507 1_555
K12 Tl31 4.236507 1_555
K12 Tl50 4.236507 1_554
K12 Tl2 4.236507 1_554
K13 Tl4 3.761346 1_455
K13 Tl72 3.761346 1_455
K13 Tl0 3.761346 1_555
K13 Tl78 3.761346 1_555
K13 Tl6 3.821548 1_555
K13 Tl8 3.821548 1_455
K13 Tl81 3.821548 1_555
K13 Tl75 3.821548 1_455
K14 Tl74 3.790104 1_655
K14 Tl47 3.790104 1_555
K14 Tl37 3.790104 1_555
K14 K25 3.792357 1_555
K14 Tl4 3.951714 1_555
K14 Tl96 3.951714 1_555
K14 Tl99 3.951714 1_555
K14 Tl75 4.029092 1_555
K14 Tl53 4.029092 1_555
K14 Tl27 4.029092 1_555
K14 Tl30 4.072606 1_655
K14 Tl51 4.072606 1_555
K14 Tl23 4.072606 1_555
K14 K7 4.096895 1_655
K14 K28 4.096895 1_555
K14 K38 4.096895 1_555
K15 Tl65 3.790104 1_565
K15 Tl103 3.790104 1_556
K15 Tl82 3.790104 1_555
K15 K35 3.792357 1_555
K15 Tl73 3.951714 1_555
K15 Tl83 3.951714 1_555
K15 Tl61 3.951714 1_555
K15 Tl13 4.029092 1_555
K15 Tl62 4.029092 1_555
K15 Tl107 4.029092 1_555
K15 Tl11 4.072606 1_556
K15 Tl33 4.072606 1_555
K15 Tl26 4.072606 1_565
K15 K42 4.096895 1_565
K15 K39 4.096895 1_556
K16 Tl107 3.624690 1_555
K16 Tl56 3.624690 1_555
K16 Tl20 3.640730 1_555
K16 Tl50 3.742345 1_555
K16 Tl2 3.742345 1_555
K16 Tl105 3.853773 1_555
K16 Tl41 3.853773 1_555
K16 K35 3.977147 1_555
K16 K29 3.977147 1_555
K16 Tl84 3.982397 1_555
K16 Tl61 3.982397 1_555
K16 Tl88 4.123315 1_555
K17 Tl40 3.624690 1_555
K17 Tl3 3.624690 1_555
K17 Tl105 3.640730 1_555
K17 Tl64 3.742345 1_555
K17 Tl94 3.742345 1_555
K17 Tl106 3.853773 1_555
K17 Tl79 3.853773 1_555
K17 K22 3.977147 1_555
K17 K29 3.977147 1_555
K17 Tl77 3.982397 1_555
K17 Tl80 3.982397 1_555
K17 Tl2 4.123315 1_555
K18 K5 3.792357 1_555
K18 Tl71 3.860697 1_555
K18 Tl79 3.860697 1_555
K18 Tl100 3.860697 1_555
K18 Tl0 3.923187 1_555
K18 Tl10 3.923187 1_555
K18 Tl90 3.923187 1_555
K18 Tl81 3.931074 1_555
K18 Tl36 3.931074 1_555
K18 Tl46 3.931074 1_555
K18 K40 3.977147 1_555
K18 K4 3.977147 1_555
K18 K36 3.977147 1_555
K18 Tl7 4.154832 1_555
K18 Tl32 4.154832 1_555
K18 Tl64 4.154832 1_555
K19 Tl91 3.977099 1_555
K19 Tl15 3.977099 1_555
K19 Tl64 4.236507 1_555
K19 Tl94 4.236507 1_555
K19 Tl59 4.236507 1_545
K19 Tl44 4.236507 1_545
K20 Tl35 3.624690 1_555
K20 Tl54 3.624690 1_555
K20 Tl39 3.640730 1_555
K20 Tl44 3.742345 1_555
K20 Tl59 3.742345 1_555
K20 Tl38 3.853773 1_555
K20 Tl102 3.853773 1_555
K20 K9 3.977147 1_555
K20 K43 3.977147 1_555
K20 Tl52 3.982397 1_555
K20 Tl1 3.982397 1_555
K20 Tl31 4.123315 1_555
K21 Tl49 3.624690 1_555
K21 Tl53 3.624690 1_555
K21 Tl104 3.640730 1_555
K21 Tl31 3.742345 1_555
K21 Tl7 3.742345 1_555
K21 Tl100 3.853773 1_555
K21 Tl39 3.853773 1_555
K21 K9 3.977147 1_555
K21 K25 3.977147 1_555
K21 Tl96 3.982397 1_555
K21 Tl55 3.982397 1_555
K21 Tl5 4.123315 1_555
K22 K26 3.792357 1_555
K22 Tl106 3.860697 1_555
K22 Tl105 3.860697 1_555
K22 Tl45 3.860697 1_555
K22 Tl77 3.923187 1_555
K22 Tl72 3.923187 1_555
K22 Tl63 3.923187 1_555
K22 Tl40 3.931074 1_555
K22 Tl19 3.931074 1_555
K22 Tl8 3.931074 1_555
K22 K46 3.977147 1_555
K22 K6 3.977147 1_555
K22 Tl2 4.154832 1_555
K22 Tl94 4.154832 1_555
K22 Tl57 4.154832 1_555
K23 Tl42 3.790104 1_565
K23 Tl92 3.790104 1_555
K23 Tl103 3.790104 1_555
K23 K43 3.792357 1_555
K23 Tl52 3.951714 1_555
K23 Tl17 3.951714 1_555
K23 Tl29 3.951714 1_555
K23 Tl69 4.029092 1_555
K23 Tl54 4.029092 1_555
K23 Tl67 4.029092 1_555
K23 Tl9 4.072606 1_565
K23 Tl11 4.072606 1_555
K23 Tl28 4.072606 1_555
K23 K27 4.096895 1_565
K23 K39 4.096895 1_555
K23 K44 4.096895 1_555
K24 Tl68 3.790104 1_556
K24 Tl65 3.790104 1_555
K24 Tl97 3.790104 1_555
K24 K29 3.792357 1_555
K24 Tl80 3.951714 1_555
K24 Tl84 3.951714 1_555
K24 Tl78 3.951714 1_555
K24 Tl3 4.029092 1_555
K24 Tl56 4.029092 1_555
K24 Tl6 4.029092 1_555
K24 Tl43 4.072606 1_556
K24 Tl58 4.072606 1_555
K24 Tl26 4.072606 1_555
K24 K48 4.096895 1_556
K24 K42 4.096895 1_555
K24 K37 4.096895 1_555
K25 Tl106 3.860697 1_555
K25 Tl100 3.860697 1_555
K25 Tl104 3.860697 1_555
K25 Tl99 3.923187 1_555
K25 Tl96 3.923187 1_555
K25 Tl4 3.923187 1_555
K25 Tl75 3.931074 1_555
K25 Tl27 3.931074 1_555
K25 Tl53 3.931074 1_555
K25 K40 3.977147 1_555
K25 K46 3.977147 1_555
K25 Tl7 4.154832 1_555
K25 Tl5 4.154832 1_555
K25 Tl94 4.154832 1_555
K26 Tl47 3.790104 1_556
K26 Tl97 3.790104 1_655
K26 Tl70 3.790104 1_555
K26 Tl63 3.951714 1_555
K26 Tl77 3.951714 1_555
K26 Tl72 3.951714 1_555
K26 Tl8 4.029092 1_555
K26 Tl19 4.029092 1_555
K26 Tl40 4.029092 1_555
K26 Tl51 4.072606 1_556
K26 Tl58 4.072606 1_655
K26 Tl24 4.072606 1_555
K26 K38 4.096895 1_556
K26 K37 4.096895 1_655
K26 K45 4.096895 1_555
K27 Tl52 3.735006 1_545
K27 Tl90 3.735006 1_555
K27 Tl11 3.792228 1_545
K27 Tl43 3.792228 1_555
K27 Tl42 3.816751 1_555
K27 Tl68 3.865648 1_555
K27 Tl103 3.865648 1_545
K27 Tl54 4.075046 1_545
K27 Tl36 4.075046 1_555
K27 K5 4.096895 1_555
K27 Tl9 4.188315 1_555
K28 Tl1 3.735006 1_545
K28 Tl99 3.735006 1_555
K28 Tl89 3.792228 1_545
K28 Tl51 3.792228 1_555
K28 Tl37 3.816751 1_555
K28 Tl76 3.865648 1_545
K28 Tl47 3.865648 1_555
K28 Tl27 4.075046 1_555
K28 Tl35 4.075046 1_545
K28 K31 4.096895 1_545
K28 Tl23 4.188315 1_555
K29 Tl79 3.860697 1_555
K29 Tl20 3.860697 1_555
K29 Tl105 3.860697 1_555
K29 Tl78 3.923187 1_555
K29 Tl80 3.923187 1_555
K29 Tl84 3.923187 1_555
K29 Tl6 3.931074 1_555
K29 Tl3 3.931074 1_555
K29 Tl56 3.931074 1_555
K29 K36 3.977147 1_555
K29 Tl64 4.154832 1_555
K29 Tl88 4.154832 1_555
K29 Tl2 4.154832 1_555
K30 Tl61 3.761346 1_554
K30 Tl84 3.761346 1_554
K30 Tl10 3.761346 1_555
K30 Tl29 3.761346 1_555
K30 Tl67 3.821548 1_555
K30 Tl107 3.821548 1_554
K30 Tl46 3.821548 1_555
K30 Tl56 3.821548 1_554
K31 Tl92 3.790104 1_655
K31 Tl37 3.790104 1_565
K31 Tl76 3.790104 1_555
K31 K9 3.792357 1_555
K31 Tl12 3.951714 1_555
K31 Tl1 3.951714 1_555
K31 Tl55 3.951714 1_555
K31 Tl98 4.029092 1_555
K31 Tl49 4.029092 1_555
K31 Tl35 4.029092 1_555
K31 Tl89 4.072606 1_555
K31 Tl23 4.072606 1_565
K31 Tl28 4.072606 1_655
K31 K44 4.096895 1_655
K32 Tl22 3.761346 1_554
K32 Tl63 3.761346 1_554
K32 Tl96 3.761346 1_555
K32 Tl55 3.761346 1_555
K32 Tl49 3.821548 1_555
K32 Tl34 3.821548 1_554
K32 Tl53 3.821548 1_555
K32 Tl19 3.821548 1_554
K33 Tl73 3.761346 1_545
K33 Tl66 3.761346 1_545
K33 Tl77 3.761346 1_555
K33 Tl80 3.761346 1_555
K33 Tl40 3.821548 1_555
K33 Tl18 3.821548 1_545
K33 Tl3 3.821548 1_555
K33 Tl13 3.821548 1_545
K34 Tl85 3.977099 1_555
K34 Tl101 3.977099 1_555
K34 Tl88 4.236507 1_555
K34 Tl32 4.236507 1_555
K34 Tl5 4.236507 1_455
K34 Tl57 4.236507 1_455
K35 Tl20 3.860697 1_555
K35 Tl41 3.860697 1_555
K35 Tl38 3.860697 1_555
K35 Tl83 3.923187 1_555
K35 Tl61 3.923187 1_555
K35 Tl73 3.923187 1_555
K35 Tl62 3.931074 1_555
K35 Tl13 3.931074 1_555
K35 Tl107 3.931074 1_555
K35 K8 3.977147 1_555
K35 Tl44 4.154832 1_555
K35 Tl88 4.154832 1_555
K35 Tl50 4.154832 1_555
K36 Tl6 3.624690 1_555
K36 Tl81 3.624690 1_555
K36 Tl79 3.640730 1_555
K36 Tl32 3.742345 1_555
K36 Tl88 3.742345 1_555
K36 Tl71 3.853773 1_555
K36 Tl20 3.853773 1_555
K36 Tl78 3.982397 1_555
K36 Tl0 3.982397 1_555
K36 Tl64 4.123315 1_555
K37 Tl72 3.735006 1_455
K37 Tl78 3.735006 1_555
K37 Tl24 3.792228 1_455
K37 Tl26 3.792228 1_555
K37 Tl97 3.816751 1_555
K37 Tl70 3.865648 1_455
K37 Tl65 3.865648 1_555
K37 Tl6 4.075046 1_555
K37 Tl8 4.075046 1_455
K37 Tl58 4.188315 1_555
K38 Tl63 3.735006 1_554
K38 Tl96 3.735006 1_555
K38 Tl58 3.792228 1_654
K38 Tl30 3.792228 1_655
K38 Tl47 3.816751 1_555
K38 Tl97 3.865648 1_654
K38 Tl74 3.865648 1_655
K38 Tl19 4.075046 1_554
K38 Tl53 4.075046 1_555
K38 Tl51 4.188315 1_555
K39 Tl61 3.735006 1_554
K39 Tl29 3.735006 1_555
K39 Tl33 3.792228 1_554
K39 Tl28 3.792228 1_555
K39 Tl103 3.816751 1_555
K39 Tl82 3.865648 1_554
K39 Tl92 3.865648 1_555
K39 Tl107 4.075046 1_554
K39 Tl67 4.075046 1_555
K39 Tl11 4.188315 1_555
K40 Tl27 3.624690 1_555
K40 Tl36 3.624690 1_555
K40 Tl100 3.640730 1_555
K40 Tl64 3.742345 1_555
K40 Tl94 3.742345 1_555
K40 Tl106 3.853773 1_555
K40 Tl79 3.853773 1_555
K40 Tl90 3.982397 1_555
K40 Tl99 3.982397 1_555
K40 Tl7 4.123315 1_555
K41 Tl52 3.761346 1_545
K41 Tl1 3.761346 1_545
K41 Tl90 3.761346 1_555
K41 Tl99 3.761346 1_555
K41 Tl27 3.821548 1_555
K41 Tl35 3.821548 1_545
K41 Tl36 3.821548 1_555
K41 Tl54 3.821548 1_545
K42 Tl73 3.735006 1_545
K42 Tl80 3.735006 1_555
K42 Tl11 3.792228 1_546
K42 Tl43 3.792228 1_556
K42 Tl65 3.816751 1_555
K42 Tl68 3.865648 1_556
K42 Tl103 3.865648 1_546
K42 Tl3 4.075046 1_555
K42 Tl13 4.075046 1_545
K42 Tl26 4.188315 1_555
K43 Tl71 3.860697 1_555
K43 Tl39 3.860697 1_555
K43 Tl38 3.860697 1_555
K43 Tl29 3.923187 1_555
K43 Tl17 3.923187 1_555
K43 Tl52 3.923187 1_555
K43 Tl69 3.931074 1_555
K43 Tl54 3.931074 1_555
K43 Tl67 3.931074 1_555
K43 Tl32 4.154832 1_555
K43 Tl31 4.154832 1_555
K43 Tl44 4.154832 1_555
K44 Tl12 3.735006 1_455
K44 Tl17 3.735006 1_555
K44 Tl23 3.792228 1_465
K44 Tl9 3.792228 1_565
K44 Tl92 3.816751 1_555
K44 Tl42 3.865648 1_565
K44 Tl37 3.865648 1_465
K44 Tl98 4.075046 1_455
K44 Tl69 4.075046 1_555
K44 Tl28 4.188315 1_555
K45 Tl66 3.735006 1_545
K45 Tl77 3.735006 1_555
K45 Tl89 3.792228 1_546
K45 Tl51 3.792228 1_556
K45 Tl70 3.816751 1_555
K45 Tl76 3.865648 1_546
K45 Tl47 3.865648 1_556
K45 Tl18 4.075046 1_545
K45 Tl40 4.075046 1_555
K45 Tl24 4.188315 1_555
K46 Tl8 3.624690 1_555
K46 Tl75 3.624690 1_555
K46 Tl106 3.640730 1_555
K46 Tl57 3.742345 1_555
K46 Tl5 3.742345 1_555
K46 Tl104 3.853773 1_555
K46 Tl45 3.853773 1_555
K46 Tl72 3.982397 1_555
K46 Tl4 3.982397 1_555
K46 Tl94 4.123315 1_555
K47 Tl21 3.761346 1_455
K47 Tl12 3.761346 1_455
K47 Tl17 3.761346 1_555
K47 Tl83 3.761346 1_555
K47 Tl62 3.821548 1_555
K47 Tl93 3.821548 1_455
K47 Tl69 3.821548 1_555
K47 Tl98 3.821548 1_455
K48 Tl84 3.735006 1_554
K48 Tl10 3.735006 1_555
K48 Tl58 3.792228 1_554
K48 Tl30 3.792228 1_555
K48 Tl68 3.816751 1_555
K48 Tl97 3.865648 1_554
K48 Tl74 3.865648 1_555
K48 Tl46 4.075046 1_555
K48 Tl56 4.075046 1_554
K48 K5 4.096895 1_555
K48 Tl43 4.188315 1_555
Tl0 Tl78 3.270114 1_555
Tl0 Tl9 3.305271 1_555
Tl0 Tl64 3.322347 1_555
Tl0 Tl36 3.338733 1_555
Tl0 Tl81 3.610430 1_555
Tl1 Tl52 3.270114 1_555
Tl1 Tl89 3.305271 1_555
Tl1 Tl31 3.322347 1_555
Tl1 Tl49 3.338733 1_555
Tl1 Tl35 3.610430 1_555
Tl2 Tl80 3.322347 1_555
Tl2 Tl77 3.322347 1_555
Tl2 Tl56 3.372976 1_555
Tl3 Tl78 3.338733 1_555
Tl3 Tl64 3.372976 1_555
Tl3 Tl80 3.610430 1_555
Tl4 Tl72 3.270114 1_555
Tl4 Tl94 3.322347 1_555
Tl4 Tl75 3.610430 1_555
Tl5 Tl96 3.322347 1_555
Tl5 Tl55 3.322347 1_555
Tl5 Tl85 3.351106 1_655
Tl5 Tl75 3.372976 1_555
Tl5 Tl98 3.372976 1_555
Tl6 Tl8 3.256287 1_455
Tl6 Tl84 3.338733 1_555
Tl6 Tl88 3.372976 1_555
Tl6 Tl78 3.610430 1_555
Tl7 Tl90 3.322347 1_555
Tl7 Tl99 3.322347 1_555
Tl10 Tl29 3.270114 1_555
Tl10 Tl30 3.305271 1_555
Tl10 Tl32 3.322347 1_555
Tl10 Tl81 3.338733 1_555
Tl10 Tl46 3.610430 1_555
Tl11 Tl67 3.290238 1_555
Tl11 Tl73 3.305271 1_554
Tl11 Tl52 3.305271 1_555
Tl11 Tl25 3.543142 1_555
Tl12 Tl21 3.270114 1_555
Tl12 Tl23 3.305271 1_565
Tl12 Tl59 3.322347 1_555
Tl12 Tl35 3.338733 1_555
Tl12 Tl98 3.610430 1_555
Tl13 Tl3 3.256287 1_565
Tl13 Tl26 3.290238 1_565
Tl13 Tl83 3.338733 1_555
Tl13 Tl44 3.372976 1_555
Tl13 Tl15 3.572163 1_565
Tl13 Tl73 3.610430 1_555
Tl14 Tl95 3.259342 1_554
Tl14 Tl85 3.283018 1_555
Tl14 Tl30 3.543142 1_555
Tl14 Tl28 3.543142 1_555
Tl15 Tl60 3.283018 1_555
Tl15 Tl64 3.351106 1_555
Tl15 Tl44 3.351106 1_545
Tl15 Tl54 3.572163 1_545
Tl15 Tl36 3.572163 1_555
Tl15 Tl3 3.572163 1_555
Tl16 Tl87 3.283018 1_555
Tl16 Tl7 3.351106 1_555
Tl16 Tl2 3.351106 1_554
Tl16 Tl46 3.572163 1_555
Tl16 Tl56 3.572163 1_554
Tl16 Tl53 3.572163 1_555
Tl16 Tl19 3.572163 1_554
Tl17 Tl83 3.270114 1_555
Tl17 Tl9 3.305271 1_565
Tl17 Tl44 3.322347 1_555
Tl17 Tl54 3.338733 1_555
Tl17 Tl69 3.610430 1_555
Tl18 Tl40 3.256287 1_565
Tl18 Tl24 3.290238 1_565
Tl18 Tl21 3.338733 1_555
Tl18 Tl59 3.372976 1_555
Tl18 Tl91 3.572163 1_565
Tl18 Tl66 3.610430 1_555
Tl19 Tl53 3.256287 1_556
Tl19 Tl51 3.290238 1_556
Tl19 Tl77 3.338733 1_555
Tl19 Tl2 3.372976 1_555
Tl19 Tl63 3.610430 1_555
Tl20 Tl71 3.228116 1_555
Tl20 Tl88 3.284387 1_555
Tl20 Tl79 3.316718 1_555
Tl20 Tl41 3.316718 1_555
Tl20 Tl38 3.316718 1_555
Tl21 Tl24 3.305271 1_565
Tl21 Tl59 3.322347 1_555
Tl21 Tl93 3.610430 1_555
Tl22 Tl63 3.270114 1_555
Tl22 Tl33 3.305271 1_655
Tl22 Tl57 3.322347 1_555
Tl22 Tl93 3.338733 1_555
Tl22 Tl34 3.610430 1_555
Tl23 Tl27 3.290238 1_555
Tl23 Tl35 3.290238 1_545
Tl23 Tl4 3.305271 1_555
Tl23 Tl37 3.313075 1_555
Tl23 Tl86 3.543142 1_555
Tl24 Tl40 3.290238 1_555
Tl24 Tl72 3.305271 1_555
Tl24 Tl70 3.313075 1_555
Tl24 Tl86 3.543142 1_555
Tl25 Tl87 3.259342 1_565
Tl25 Tl48 3.283018 1_555
Tl25 Tl89 3.543142 1_555
Tl26 Tl3 3.290238 1_555
Tl26 Tl83 3.305271 1_545
Tl26 Tl78 3.305271 1_555
Tl26 Tl65 3.313075 1_555
Tl26 Tl60 3.543142 1_555
Tl27 Tl35 3.256287 1_545
Tl27 Tl4 3.338733 1_555
Tl27 Tl94 3.372976 1_555
Tl27 Tl91 3.572163 1_555
Tl27 Tl99 3.610430 1_555
Tl28 Tl69 3.290238 1_555
Tl28 Tl98 3.290238 1_455
Tl28 Tl55 3.305271 1_455
Tl28 Tl29 3.305271 1_555
Tl28 Tl92 3.313075 1_555
Tl29 Tl32 3.322347 1_555
Tl29 Tl69 3.338733 1_555
Tl29 Tl67 3.610430 1_555
Tl30 Tl81 3.290238 1_555
Tl30 Tl75 3.290238 1_455
Tl30 Tl96 3.305271 1_455
Tl30 Tl74 3.313075 1_555
Tl31 Tl39 3.284387 1_555
Tl31 Tl52 3.322347 1_555
Tl31 Tl48 3.351106 1_555
Tl31 Tl67 3.372976 1_555
Tl31 Tl49 3.372976 1_555
Tl32 Tl71 3.284387 1_555
Tl32 Tl85 3.351106 1_555
Tl32 Tl81 3.372976 1_555
Tl32 Tl69 3.372976 1_555
Tl33 Tl62 3.290238 1_555
Tl33 Tl93 3.290238 1_455
Tl33 Tl61 3.305271 1_555
Tl33 Tl82 3.313075 1_555
Tl33 Tl95 3.543142 1_555
Tl34 Tl49 3.256287 1_556
Tl34 Tl89 3.290238 1_556
Tl34 Tl66 3.338733 1_555
Tl34 Tl50 3.372976 1_555
Tl34 Tl48 3.572163 1_556
Tl35 Tl59 3.372976 1_555
Tl35 Tl91 3.572163 1_565
Tl36 Tl54 3.256287 1_545
Tl36 Tl9 3.290238 1_555
Tl36 Tl64 3.372976 1_555
Tl36 Tl90 3.610430 1_555
Tl37 Tl42 3.277976 1_655
Tl37 Tl74 3.315081 1_655
Tl37 Tl92 3.315081 1_645
Tl37 Tl76 3.315081 1_545
Tl37 Tl47 3.315081 1_555
Tl38 Tl44 3.284387 1_555
Tl38 Tl41 3.316718 1_555
Tl38 Tl39 3.316718 1_555
Tl38 Tl71 3.316718 1_555
Tl39 Tl71 3.316718 1_555
Tl40 Tl72 3.338733 1_555
Tl40 Tl94 3.372976 1_555
Tl40 Tl91 3.572163 1_555
Tl40 Tl77 3.610430 1_555
Tl41 Tl50 3.284387 1_555
Tl41 Tl45 3.316718 1_555
Tl42 Tl9 3.313075 1_555
Tl42 Tl92 3.315081 1_545
Tl42 Tl74 3.315081 1_555
Tl42 Tl68 3.315081 1_555
Tl43 Tl46 3.290238 1_555
Tl43 Tl56 3.290238 1_554
Tl43 Tl80 3.305271 1_554
Tl43 Tl90 3.305271 1_555
Tl43 Tl68 3.313075 1_555
Tl43 Tl87 3.543142 1_555
Tl44 Tl83 3.322347 1_555
Tl44 Tl54 3.372976 1_555
Tl45 Tl57 3.284387 1_555
Tl46 Tl56 3.256287 1_554
Tl46 Tl90 3.338733 1_555
Tl46 Tl7 3.372976 1_555
Tl47 Tl76 3.277976 1_545
Tl47 Tl51 3.313075 1_555
Tl47 Tl97 3.315081 1_654
Tl47 Tl70 3.315081 1_554
Tl47 Tl74 3.315081 1_655
Tl48 Tl50 3.351106 1_554
Tl48 Tl67 3.572163 1_555
Tl48 Tl49 3.572163 1_555
Tl49 Tl89 3.290238 1_555
Tl49 Tl55 3.610430 1_555
Tl50 Tl66 3.322347 1_555
Tl50 Tl73 3.322347 1_555
Tl51 Tl53 3.290238 1_555
Tl51 Tl77 3.305271 1_554
Tl51 Tl99 3.305271 1_555
Tl51 Tl87 3.543142 1_555
Tl52 Tl67 3.338733 1_555
Tl52 Tl54 3.610430 1_555
Tl53 Tl99 3.338733 1_555
Tl53 Tl7 3.372976 1_555
Tl53 Tl96 3.610430 1_555
Tl54 Tl9 3.290238 1_565
Tl55 Tl96 3.270114 1_555
Tl55 Tl98 3.338733 1_555
Tl56 Tl80 3.338733 1_555
Tl56 Tl84 3.610430 1_555
Tl57 Tl63 3.322347 1_555
Tl57 Tl8 3.372976 1_555
Tl57 Tl93 3.372976 1_555
Tl58 Tl6 3.290238 1_555
Tl58 Tl8 3.290238 1_455
Tl58 Tl63 3.305271 1_455
Tl58 Tl84 3.305271 1_555
Tl58 Tl97 3.313075 1_555
Tl58 Tl95 3.543142 1_555
Tl59 Tl91 3.351106 1_565
Tl60 Tl86 3.259342 1_455
Tl60 Tl9 3.543142 1_555
Tl61 Tl84 3.270114 1_555
Tl61 Tl88 3.322347 1_555
Tl61 Tl62 3.338733 1_555
Tl62 Tl93 3.256287 1_455
Tl62 Tl88 3.372976 1_555
Tl62 Tl83 3.610430 1_555
Tl63 Tl8 3.338733 1_555
Tl64 Tl79 3.284387 1_555
Tl64 Tl78 3.322347 1_555
Tl65 Tl70 3.277976 1_455
Tl65 Tl68 3.315081 1_556
Tl65 Tl82 3.315081 1_545
Tl65 Tl97 3.315081 1_555
Tl66 Tl73 3.270114 1_555
Tl66 Tl89 3.305271 1_556
Tl68 Tl97 3.315081 1_554
Tl68 Tl74 3.315081 1_555
Tl69 Tl98 3.256287 1_455
Tl69 Tl85 3.572163 1_555
Tl70 Tl82 3.315081 1_645
Tl70 Tl76 3.315081 1_546
Tl70 Tl97 3.315081 1_655
Tl71 Tl79 3.316718 1_555
Tl72 Tl94 3.322347 1_555
Tl72 Tl8 3.610430 1_555
Tl74 Tl97 3.277976 1_554
Tl75 Tl81 3.256287 1_655
Tl75 Tl96 3.338733 1_555
Tl75 Tl85 3.572163 1_655
Tl76 Tl89 3.313075 1_555
Tl76 Tl82 3.315081 1_654
Tl76 Tl92 3.315081 1_655
Tl77 Tl80 3.270114 1_555
Tl81 Tl85 3.572163 1_555
Tl82 Tl92 3.277976 1_556
Tl84 Tl88 3.322347 1_555
Tl85 Tl98 3.572163 1_455
Tl86 Tl91 3.283018 1_555
Tl90 Tl99 3.270114 1_555
Tl91 Tl94 3.351106 1_555
Tl100 Tl39 3.228116 1_555
Tl100 Tl7 3.284387 1_555
Tl100 Tl104 3.316718 1_555
Tl100 Tl71 3.316718 1_555
Tl100 Tl79 3.316718 1_555
Tl100 Tl106 3.316718 1_555
Tl101 Tl95 3.283018 1_555
Tl101 Tl88 3.351106 1_555
Tl101 Tl57 3.351106 1_455
Tl101 Tl6 3.572163 1_555
Tl101 Tl8 3.572163 1_455
Tl101 Tl62 3.572163 1_555
Tl101 Tl93 3.572163 1_455
Tl102 Tl38 3.228116 1_555
Tl102 Tl59 3.284387 1_555
Tl102 Tl104 3.316718 1_555
Tl102 Tl39 3.316718 1_555
Tl102 Tl45 3.316718 1_555
Tl102 Tl41 3.316718 1_555
Tl103 Tl68 3.277976 1_565
Tl103 Tl11 3.313075 1_555
Tl103 Tl65 3.315081 1_564
Tl103 Tl42 3.315081 1_565
Tl103 Tl82 3.315081 1_554
Tl103 Tl92 3.315081 1_555
Tl104 Tl45 3.228116 1_555
Tl104 Tl5 3.284387 1_555
Tl104 Tl106 3.316718 1_555
Tl104 Tl39 3.316718 1_555
Tl105 Tl41 3.228116 1_555
Tl105 Tl2 3.284387 1_555
Tl105 Tl20 3.316718 1_555
Tl105 Tl45 3.316718 1_555
Tl105 Tl79 3.316718 1_555
Tl105 Tl106 3.316718 1_555
Tl106 Tl79 3.228116 1_555
Tl106 Tl94 3.284387 1_555
Tl106 Tl45 3.316718 1_555
Tl107 Tl67 3.256287 1_556
Tl107 Tl11 3.290238 1_556
Tl107 Tl73 3.338733 1_555
Tl107 Tl50 3.372976 1_555
Tl107 Tl48 3.572163 1_556
Tl107 Tl61 3.610430 1_555
