# generated using pymatgen
data_Si3N4
_symmetry_space_group_name_H-M   'P 1'
_cell_length_a   4.57578800
_cell_length_b   5.57778500
_cell_length_c   9.52379400
_cell_angle_alpha   90.00000000
_cell_angle_beta   90.00000000
_cell_angle_gamma   90.00000000
_symmetry_Int_Tables_number   1
_chemical_formula_structural   Si3N4
_chemical_formula_sum   'Si12 N16'
_cell_volume   243.07352445
_cell_formula_units_Z   4
loop_
 _symmetry_equiv_pos_site_id
 _symmetry_equiv_pos_as_xyz
  1  'x, y, z'
loop_
 _atom_site_type_symbol
 _atom_site_label
 _atom_site_symmetry_multiplicity
 _atom_site_fract_x
 _atom_site_fract_y
 _atom_site_fract_z
 _atom_site_occupancy
  Si  Si0  1  0.56017900  0.75000000  0.09228000  1
  Si  Si1  1  0.06017900  0.25000000  0.40772000  1
  Si  Si2  1  0.49115700  0.75000000  0.77410300  1
  Si  Si3  1  0.43982100  0.25000000  0.90772000  1
  Si  Si4  1  0.00884300  0.75000000  0.27410300  1
  Si  Si5  1  0.93982100  0.75000000  0.59228000  1
  Si  Si6  1  0.99115700  0.25000000  0.72589700  1
  Si  Si7  1  0.50000000  0.00000000  0.50000000  1
  Si  Si8  1  0.00000000  0.00000000  0.00000000  1
  Si  Si9  1  0.50884300  0.25000000  0.22589700  1
  Si  Si10  1  0.00000000  0.50000000  0.00000000  1
  Si  Si11  1  0.50000000  0.50000000  0.50000000  1
  N  N0  1  0.31248500  0.75000000  0.59171500  1
  N  N1  1  0.18751500  0.75000000  0.09171500  1
  N  N2  1  0.24210800  0.00475000  0.33744700  1
  N  N3  1  0.24349300  0.25000000  0.57138900  1
  N  N4  1  0.75789200  0.50475000  0.66255300  1
  N  N5  1  0.75789200  0.99525000  0.66255300  1
  N  N6  1  0.74210800  0.50475000  0.16255300  1
  N  N7  1  0.75650700  0.75000000  0.42861100  1
  N  N8  1  0.25789200  0.49525000  0.83744700  1
  N  N9  1  0.74210800  0.99525000  0.16255300  1
  N  N10  1  0.25650700  0.25000000  0.07138900  1
  N  N11  1  0.25789200  0.00475000  0.83744700  1
  N  N12  1  0.68751500  0.25000000  0.40828500  1
  N  N13  1  0.74349300  0.75000000  0.92861100  1
  N  N14  1  0.24210800  0.49525000  0.33744700  1
  N  N15  1  0.81248500  0.25000000  0.90828500  1
loop_
_geom_bond_atom_site_label_1
_geom_bond_atom_site_label_2
_geom_bond_distance
_geom_bond_site_symmetry_2
N0 Si5 1.705240 1_455
N0 Si7 1.855708 1_565
N0 Si11 1.855708 1_555
N0 Si2 1.919810 1_555
N1 Si0 1.705240 1_555
N1 Si10 1.855708 1_555
N1 Si8 1.855708 1_565
N1 Si4 1.919810 1_555
N2 Si1 1.735573 1_555
N2 Si4 1.876778 1_545
N2 Si7 1.946772 1_555
N2 Si9 2.118872 1_555
N3 Si1 1.770112 1_555
N3 Si6 1.870429 1_455
N3 Si7 1.945343 1_555
N3 Si11 1.945343 1_555
N4 Si5 1.735573 1_555
N4 Si6 1.876778 1_555
N4 Si11 1.946772 1_555
N4 Si2 2.118872 1_555
N5 Si5 1.735573 1_555
N5 Si6 1.876778 1_565
N5 Si7 1.946772 1_565
N5 Si2 2.118872 1_555
N6 Si0 1.735573 1_555
N6 Si9 1.876778 1_555
N6 Si10 1.946772 1_655
N6 Si4 2.118872 1_655
N7 Si5 1.770112 1_555
N7 Si4 1.870429 1_655
N7 Si11 1.945343 1_555
N7 Si7 1.945343 1_565
N8 Si3 1.735573 1_555
N8 Si2 1.876778 1_555
N8 Si10 1.946772 1_556
N8 Si6 2.118872 1_455
N9 Si0 1.735573 1_555
N9 Si9 1.876778 1_565
N9 Si8 1.946772 1_665
N9 Si4 2.118872 1_655
N10 Si3 1.770112 1_554
N10 Si9 1.870429 1_555
N10 Si8 1.945343 1_555
N10 Si10 1.945343 1_555
N11 Si3 1.735573 1_555
N11 Si2 1.876778 1_545
N11 Si8 1.946772 1_556
N11 Si6 2.118872 1_455
N12 Si1 1.705240 1_655
N12 Si7 1.855708 1_555
N12 Si11 1.855708 1_555
N12 Si9 1.919810 1_555
N13 Si0 1.770112 1_556
N13 Si2 1.870429 1_555
N13 Si8 1.945343 1_666
N13 Si10 1.945343 1_656
N14 Si1 1.735573 1_555
N14 Si4 1.876778 1_555
N14 Si11 1.946772 1_555
N14 Si9 2.118872 1_555
N15 Si3 1.705240 1_555
N15 Si8 1.855708 1_656
N15 Si10 1.855708 1_656
N15 Si6 1.919810 1_555
