# generated using pymatgen
data_I
_symmetry_space_group_name_H-M   'P 1'
_cell_length_a   5.76085478
_cell_length_b   8.39340384
_cell_length_c   8.98212163
_cell_angle_alpha   117.71902454
_cell_angle_beta   108.51091095
_cell_angle_gamma   90.32314884
_symmetry_Int_Tables_number   1
_chemical_formula_structural   I
_chemical_formula_sum   I8
_cell_volume   358.44840360
_cell_formula_units_Z   8
loop_
 _symmetry_equiv_pos_site_id
 _symmetry_equiv_pos_as_xyz
  1  'x, y, z'
loop_
 _atom_site_type_symbol
 _atom_site_label
 _atom_site_symmetry_multiplicity
 _atom_site_fract_x
 _atom_site_fract_y
 _atom_site_fract_z
 _atom_site_occupancy
  I  I0_0  1  0.00866050  0.49771900  0.00166100  1
  I  I0_1  1  0.00866050  0.49771900  0.50166100  1
  I  I0_2  1  0.00866050  0.99771900  0.00166100  1
  I  I0_3  1  0.00866050  0.99771900  0.50166100  1
  I  I0_4  1  0.50866050  0.49771900  0.00166100  1
  I  I0_5  1  0.50866050  0.49771900  0.50166100  1
  I  I0_6  1  0.50866050  0.99771900  0.00166100  1
  I  I0_7  1  0.50866050  0.99771900  0.50166100  1
loop_
_geom_bond_atom_site_label_1
_geom_bond_atom_site_label_2
_geom_bond_distance
_geom_bond_site_symmetry_2
I0_0 I0_4 2.880427 1_555
I0_0 I0_4 2.880427 1_455
I0_1 I0_5 2.880427 1_555
I0_1 I0_5 2.880427 1_455
I0_2 I0_6 2.880427 1_555
I0_2 I0_6 2.880427 1_455
I0_3 I0_7 2.880427 1_455
I0_3 I0_7 2.880427 1_555
