# generated using pymatgen
data_Ce3Si2Rh3
_symmetry_space_group_name_H-M   'P 1'
_cell_length_a   5.65599700
_cell_length_b   7.72691800
_cell_length_c   14.88003400
_cell_angle_alpha   90.00000000
_cell_angle_beta   90.00000000
_cell_angle_gamma   90.00000000
_symmetry_Int_Tables_number   1
_chemical_formula_structural   Ce3Si2Rh3
_chemical_formula_sum   'Ce12 Si8 Rh12'
_cell_volume   650.30845032
_cell_formula_units_Z   4
loop_
 _symmetry_equiv_pos_site_id
 _symmetry_equiv_pos_as_xyz
  1  'x, y, z'
loop_
 _atom_site_type_symbol
 _atom_site_label
 _atom_site_symmetry_multiplicity
 _atom_site_fract_x
 _atom_site_fract_y
 _atom_site_fract_z
 _atom_site_occupancy
  Ce  Ce0  1  0.88174600  0.83743200  0.75000000  1
  Ce  Ce1  1  0.85630500  0.52711300  0.39215400  1
  Ce  Ce2  1  0.35630500  0.97288700  0.60784600  1
  Ce  Ce3  1  0.14369500  0.47288700  0.89215400  1
  Ce  Ce4  1  0.64369500  0.02711400  0.10784600  1
  Ce  Ce5  1  0.11825400  0.16256800  0.25000000  1
  Ce  Ce6  1  0.14369500  0.47288700  0.60784600  1
  Ce  Ce7  1  0.64369500  0.02711400  0.39215400  1
  Ce  Ce8  1  0.38174600  0.66256800  0.25000000  1
  Ce  Ce9  1  0.35630500  0.97288700  0.89215400  1
  Ce  Ce10  1  0.61825400  0.33743200  0.75000000  1
  Ce  Ce11  1  0.85630500  0.52711300  0.10784600  1
  Si  Si0  1  0.64415200  0.62568200  0.89882000  1
  Si  Si1  1  0.85584800  0.12568200  0.60118000  1
  Si  Si2  1  0.14415200  0.87431800  0.10118000  1
  Si  Si3  1  0.14415200  0.87431800  0.39882000  1
  Si  Si4  1  0.64415200  0.62568200  0.60118000  1
  Si  Si5  1  0.85584800  0.12568200  0.89882000  1
  Si  Si6  1  0.35584800  0.37431800  0.10118000  1
  Si  Si7  1  0.35584800  0.37431800  0.39882000  1
  Rh  Rh0  1  0.59511600  0.33707800  0.96365700  1
  Rh  Rh1  1  0.09511600  0.16292200  0.46365700  1
  Rh  Rh2  1  0.09511600  0.16292200  0.03634300  1
  Rh  Rh3  1  0.41879500  0.68870100  0.75000000  1
  Rh  Rh4  1  0.90488400  0.83707800  0.96365700  1
  Rh  Rh5  1  0.58120500  0.31129900  0.25000000  1
  Rh  Rh6  1  0.90488400  0.83707800  0.53634300  1
  Rh  Rh7  1  0.91879500  0.81129900  0.25000000  1
  Rh  Rh8  1  0.59511600  0.33707800  0.53634300  1
  Rh  Rh9  1  0.40488400  0.66292200  0.46365700  1
  Rh  Rh10  1  0.08120500  0.18870100  0.75000000  1
  Rh  Rh11  1  0.40488400  0.66292200  0.03634300  1
loop_
_geom_bond_atom_site_label_1
_geom_bond_atom_site_label_2
_geom_bond_distance
_geom_bond_site_symmetry_2
Ce0 Rh3 2.859548 1_555
Ce0 Rh10 2.939341 1_665
Ce0 Si4 3.063776 1_555
Ce0 Si0 3.063776 1_555
Ce0 Si1 3.144205 1_565
Ce0 Si5 3.144205 1_565
Ce0 Rh4 3.181917 1_555
Ce0 Rh6 3.181917 1_555
Ce0 Rh3 3.247681 1_655
Ce1 Rh9 2.958420 1_555
Ce1 Rh8 2.990293 1_555
Ce1 Si7 3.063772 1_655
Ce1 Si7 3.068540 1_555
Ce1 Rh7 3.069386 1_555
Ce1 Rh5 3.110651 1_555
Ce1 Si3 3.139741 1_655
Ce1 Rh6 3.227260 1_555
Ce1 Rh1 3.297797 1_655
Ce2 Rh6 2.958420 1_455
Ce2 Rh1 2.990293 1_565
Ce2 Si1 3.063772 1_565
Ce2 Si1 3.068540 1_465
Ce2 Rh3 3.069386 1_555
Ce2 Rh10 3.110651 1_565
Ce2 Si4 3.139741 1_555
Ce2 Rh9 3.227260 1_555
Ce2 Rh8 3.297797 1_565
Ce3 Rh0 2.958420 1_555
Ce3 Rh11 2.990293 1_556
Ce3 Si0 3.063772 1_455
Ce3 Si0 3.068540 1_555
Ce3 Rh10 3.069386 1_555
Ce3 Rh3 3.110651 1_555
Ce3 Si5 3.139741 1_455
Ce3 Rh2 3.227260 1_556
Ce3 Rh4 3.297797 1_455
Ce4 Rh2 2.958417 1_655
Ce4 Rh4 2.990297 1_544
Ce4 Si2 3.063775 1_545
Ce4 Si2 3.068543 1_645
Ce4 Rh5 3.069380 1_555
Ce4 Rh7 3.110655 1_545
Ce4 Si6 3.139734 1_555
Ce4 Rh0 3.227254 1_554
Ce4 Rh11 3.297804 1_545
Ce5 Rh5 2.859548 1_555
Ce5 Rh7 2.939341 1_445
Ce5 Si6 3.063776 1_555
Ce5 Si7 3.063776 1_555
Ce5 Si2 3.144205 1_545
Ce5 Si3 3.144205 1_545
Ce5 Rh2 3.181917 1_555
Ce5 Rh1 3.181917 1_555
Ce5 Rh5 3.247681 1_455
Ce6 Rh8 2.958420 1_555
Ce6 Rh9 2.990293 1_555
Ce6 Si4 3.063772 1_455
Ce6 Si4 3.068540 1_555
Ce6 Rh10 3.069386 1_555
Ce6 Rh3 3.110651 1_555
Ce6 Si1 3.139741 1_455
Ce6 Rh1 3.227260 1_555
Ce6 Rh6 3.297797 1_455
Ce7 Rh1 2.958417 1_655
Ce7 Rh6 2.990297 1_545
Ce7 Si3 3.063775 1_545
Ce7 Si3 3.068543 1_645
Ce7 Rh5 3.069380 1_555
Ce7 Rh7 3.110655 1_545
Ce7 Si7 3.139734 1_555
Ce7 Rh8 3.227254 1_555
Ce7 Rh9 3.297804 1_545
Ce8 Rh7 2.859548 1_455
Ce8 Rh5 2.939341 1_555
Ce8 Si3 3.063776 1_555
Ce8 Si2 3.063776 1_555
Ce8 Si7 3.144205 1_555
Ce8 Si6 3.144205 1_555
Ce8 Rh11 3.181917 1_555
Ce8 Rh9 3.181917 1_555
Ce8 Rh7 3.247681 1_555
Ce9 Rh4 2.958420 1_455
Ce9 Rh2 2.990293 1_566
Ce9 Si5 3.063772 1_565
Ce9 Si5 3.068540 1_465
Ce9 Rh3 3.069386 1_555
Ce9 Rh10 3.110651 1_565
Ce9 Si0 3.139741 1_555
Ce9 Rh11 3.227260 1_556
Ce9 Rh0 3.297797 1_565
Ce10 Rh10 2.859548 1_655
Ce10 Rh3 2.939341 1_555
Ce10 Si1 3.063776 1_555
Ce10 Si5 3.063776 1_555
Ce10 Si4 3.144205 1_555
Ce10 Si0 3.144205 1_555
Ce10 Rh0 3.181917 1_555
Ce10 Rh8 3.181917 1_555
Ce10 Rh10 3.247681 1_555
Ce11 Rh11 2.958420 1_555
Ce11 Rh0 2.990293 1_554
Ce11 Si6 3.063772 1_655
Ce11 Si6 3.068540 1_555
Ce11 Rh7 3.069386 1_555
Ce11 Rh5 3.110651 1_555
Ce11 Si2 3.139741 1_655
Ce11 Rh4 3.227260 1_554
Ce11 Rh2 3.297797 1_655
Rh0 Si5 2.402844 1_555
Rh0 Si0 2.445547 1_555
Rh0 Si6 2.470173 1_556
Rh1 Si7 2.402844 1_555
Rh1 Si3 2.445547 1_545
Rh1 Si1 2.470173 1_455
Rh2 Si6 2.402844 1_555
Rh2 Si2 2.445547 1_545
Rh2 Si5 2.470173 1_454
Rh3 Si4 2.601065 1_555
Rh3 Si0 2.601065 1_555
Rh4 Si0 2.402844 1_555
Rh4 Si5 2.445547 1_565
Rh4 Si2 2.470173 1_656
Rh5 Si6 2.601065 1_555
Rh5 Si7 2.601065 1_555
Rh6 Si4 2.402844 1_555
Rh6 Si1 2.445547 1_565
Rh6 Si3 2.470173 1_655
Rh7 Si3 2.601065 1_655
Rh7 Si2 2.601065 1_655
Rh8 Si1 2.402844 1_555
Rh8 Si4 2.445547 1_555
Rh8 Si7 2.470173 1_555
Rh9 Si3 2.402844 1_555
Rh9 Si7 2.445547 1_555
Rh9 Si4 2.470173 1_555
Rh10 Si1 2.601065 1_455
Rh10 Si5 2.601065 1_455
Rh11 Si2 2.402844 1_555
Rh11 Si6 2.445547 1_555
Rh11 Si0 2.470173 1_554
