# generated using pymatgen
data_SrLaFeRuO6
_symmetry_space_group_name_H-M   'P 1'
_cell_length_a   5.63868800
_cell_length_b   5.63457700
_cell_length_c   9.71578817
_cell_angle_alpha   54.67542356
_cell_angle_beta   90.00000000
_cell_angle_gamma   90.00000000
_symmetry_Int_Tables_number   1
_chemical_formula_structural   SrLaFeRuO6
_chemical_formula_sum   'Sr2 La2 Fe2 Ru2 O12'
_cell_volume   251.85399482
_cell_formula_units_Z   2
loop_
 _symmetry_equiv_pos_site_id
 _symmetry_equiv_pos_as_xyz
  1  'x, y, z'
loop_
 _atom_site_type_symbol
 _atom_site_label
 _atom_site_symmetry_multiplicity
 _atom_site_fract_x
 _atom_site_fract_y
 _atom_site_fract_z
 _atom_site_occupancy
  Sr  Sr0  1  0.27583100  0.75571400  0.24945500  1
  Sr  Sr1  1  0.72416900  0.75571400  0.74945500  1
  La  La0  1  0.78462100  0.23993100  0.24973600  1
  La  La1  1  0.21537900  0.23993100  0.74973600  1
  Fe  Fe0  1  0.25273000  0.49989700  0.99984900  1
  Fe  Fe1  1  0.74727000  0.49989700  0.49984900  1
  Ru  Ru0  1  0.25112700  0.00012600  0.50006000  1
  Ru  Ru1  1  0.74887300  0.00012600  0.00006000  1
  O  O0  1  0.74114500  0.66775500  0.24950500  1
  O  O1  1  0.46821900  0.23797200  0.54170700  1
  O  O2  1  0.46939200  0.82529300  0.95763800  1
  O  O3  1  0.98013100  0.18932700  0.53933100  1
  O  O4  1  0.97820300  0.76842900  0.96186100  1
  O  O5  1  0.23503300  0.31555500  0.25085900  1
  O  O6  1  0.25885500  0.66775500  0.74950500  1
  O  O7  1  0.53178100  0.23797200  0.04170700  1
  O  O8  1  0.53060800  0.82529300  0.45763800  1
  O  O9  1  0.01986900  0.18932700  0.03933100  1
  O  O10  1  0.02179700  0.76842900  0.46186100  1
  O  O11  1  0.76496700  0.31555500  0.75085900  1
loop_
_geom_bond_atom_site_label_1
_geom_bond_atom_site_label_2
_geom_bond_distance
_geom_bond_site_symmetry_2
La0 O0 2.421750 1_555
La0 O8 2.476411 1_545
La0 O7 2.478631 1_555
La0 O5 2.576297 1_655
La0 O9 2.587255 1_655
La0 O10 2.600463 1_645
La0 O4 2.872339 1_554
La0 O3 2.878450 1_555
La1 O6 2.421750 1_555
La1 O2 2.476411 1_545
La1 O1 2.478631 1_555
La1 O11 2.576297 1_455
La1 O3 2.587255 1_455
La1 O4 2.600463 1_445
La1 O10 2.872339 1_555
La1 O9 2.878450 1_556
Fe0 O5 2.026586 1_556
Fe0 O7 2.031071 1_556
Fe0 O6 2.037515 1_555
Fe0 O2 2.037838 1_555
Fe0 O9 2.038918 1_556
Fe0 O4 2.043528 1_455
Fe1 O11 2.026586 1_555
Fe1 O1 2.031071 1_555
Fe1 O0 2.037515 1_555
Fe1 O8 2.037838 1_555
Fe1 O3 2.038918 1_555
Fe1 O10 2.043528 1_655
O0 Ru1 2.033247 1_565
O0 Sr0 2.670107 1_555
O0 Sr0 3.055346 1_655
O1 Ru0 2.021215 1_555
O1 Sr1 2.682940 1_545
O1 Sr0 2.858436 1_555
O2 Ru1 2.023199 1_566
O2 Sr1 2.688070 1_555
O2 Sr0 2.845708 1_556
O3 Ru0 2.021740 1_655
O3 Sr1 2.540111 1_545
O3 Sr0 3.240813 1_655
O4 Ru1 2.018558 1_566
O4 Sr1 2.546911 1_555
O4 Sr0 3.224540 1_656
O5 Ru0 2.013186 1_555
O5 Sr0 2.482928 1_555
O5 Sr0 3.170730 1_545
O6 Ru0 2.033247 1_565
O6 Sr1 2.670107 1_555
O6 Sr1 3.055346 1_455
O7 Ru1 2.021215 1_555
O7 Sr0 2.682940 1_545
O7 Sr1 2.858436 1_554
O8 Ru0 2.023199 1_565
O8 Sr0 2.688070 1_555
O8 Sr1 2.845708 1_555
O9 Ru1 2.021740 1_455
O9 Sr0 2.540111 1_545
O9 Sr1 3.240813 1_454
O10 Ru0 2.018558 1_565
O10 Sr0 2.546911 1_555
O10 Sr1 3.224540 1_455
O11 Ru1 2.013186 1_556
O11 Sr1 2.482928 1_555
O11 Sr1 3.170730 1_545
