# generated using pymatgen
data_Cs4Fe3F10
_symmetry_space_group_name_H-M   'P 1'
_cell_length_a   7.82640721
_cell_length_b   7.82640721
_cell_length_c   13.93718469
_cell_angle_alpha   90.00000000
_cell_angle_beta   90.00000000
_cell_angle_gamma   132.70697733
_symmetry_Int_Tables_number   1
_chemical_formula_structural   Cs4Fe3F10
_chemical_formula_sum   'Cs8 Fe6 F20'
_cell_volume   627.31836250
_cell_formula_units_Z   2
loop_
 _symmetry_equiv_pos_site_id
 _symmetry_equiv_pos_as_xyz
  1  'x, y, z'
loop_
 _atom_site_type_symbol
 _atom_site_label
 _atom_site_symmetry_multiplicity
 _atom_site_fract_x
 _atom_site_fract_y
 _atom_site_fract_z
 _atom_site_occupancy
  Cs  Cs0  1  0.25552227  0.74447773  0.39124483  1
  Cs  Cs1  1  0.24447773  0.75552227  0.89124483  1
  Cs  Cs2  1  0.53877788  0.46122212  0.86128152  1
  Cs  Cs3  1  0.74447773  0.25552227  0.60875517  1
  Cs  Cs4  1  0.03877788  0.96122212  0.63871848  1
  Cs  Cs5  1  0.96122212  0.03877788  0.36128152  1
  Cs  Cs6  1  0.75552227  0.24447773  0.10875517  1
  Cs  Cs7  1  0.46122212  0.53877788  0.13871848  1
  Fe  Fe0  1  0.37659953  0.62340047  0.65172983  1
  Fe  Fe1  1  0.62340047  0.37659953  0.34827017  1
  Fe  Fe2  1  0.12340047  0.87659953  0.15172983  1
  Fe  Fe3  1  0.50000000  0.50000000  0.50000000  1
  Fe  Fe4  1  0.87659953  0.12340047  0.84827017  1
  Fe  Fe5  1  -0.00000000  -0.00000000  0.00000000  1
  F  F0  1  0.75738371  0.24261629  0.35568671  1
  F  F1  1  0.97731381  0.02268619  0.14391568  1
  F  F2  1  0.11580923  0.31312552  0.96807450  1
  F  F3  1  0.18687448  0.38419077  0.53192550  1
  F  F4  1  0.24261629  0.75738371  0.64431329  1
  F  F5  1  0.81312552  0.61580923  0.46807450  1
  F  F6  1  0.74261629  0.25738371  0.85568671  1
  F  F7  1  0.88419077  0.68687448  0.03192550  1
  F  F8  1  0.31312552  0.11580923  0.03192550  1
  F  F9  1  0.86676942  0.63323058  0.25000000  1
  F  F10  1  0.63323058  0.86676942  0.75000000  1
  F  F11  1  0.02268619  0.97731381  0.85608432  1
  F  F12  1  0.68687448  0.88419077  0.96807450  1
  F  F13  1  0.38419077  0.18687448  0.46807450  1
  F  F14  1  0.61580923  0.81312552  0.53192550  1
  F  F15  1  0.47731381  0.52268619  0.35608432  1
  F  F16  1  0.25738371  0.74261629  0.14431329  1
  F  F17  1  0.52268619  0.47731381  0.64391568  1
  F  F18  1  0.13323058  0.36676942  0.75000000  1
  F  F19  1  0.36676942  0.13323058  0.25000000  1
loop_
_geom_bond_atom_site_label_1
_geom_bond_atom_site_label_2
_geom_bond_distance
_geom_bond_site_symmetry_2
Cs0 F5 3.069051 1_455
Cs0 F13 3.069051 1_565
Cs0 F3 3.166850 1_555
Cs0 F14 3.166850 1_555
Cs0 F0 3.178106 1_455
Cs0 F0 3.178106 1_565
Cs0 F9 3.208878 1_455
Cs0 F19 3.208878 1_565
Cs0 F15 3.217706 1_555
Cs0 F16 3.441634 1_555
Cs0 F4 3.531913 1_555
Cs1 F12 3.069051 1_555
Cs1 F2 3.069051 1_555
Cs1 F8 3.166850 1_566
Cs1 F7 3.166850 1_456
Cs1 F6 3.178106 1_565
Cs1 F6 3.178106 1_455
Cs1 F10 3.208878 1_555
Cs1 F18 3.208878 1_555
Cs1 F11 3.217706 1_555
Cs1 F4 3.441634 1_555
Cs1 F16 3.531913 1_556
Cs2 F6 2.923790 1_555
Cs2 F17 3.038242 1_555
Cs2 F12 3.051602 1_555
Cs2 F2 3.051602 1_555
Cs2 F8 3.099523 1_556
Cs2 F7 3.099523 1_556
Cs2 F10 3.137405 1_555
Cs2 F18 3.137405 1_555
Cs2 F11 3.148417 1_655
Cs2 F11 3.148417 1_545
Cs3 F3 3.069051 1_655
Cs3 F14 3.069051 1_545
Cs3 F5 3.166850 1_555
Cs3 F13 3.166850 1_555
Cs3 F4 3.178106 1_545
Cs3 F4 3.178106 1_655
Cs3 F18 3.208878 1_655
Cs3 F10 3.208878 1_545
Cs3 F17 3.217706 1_555
Cs3 F6 3.441634 1_555
Cs3 F0 3.531913 1_555
Cs4 F4 2.923790 1_555
Cs4 F11 3.038242 1_555
Cs4 F3 3.051602 1_565
Cs4 F14 3.051602 1_455
Cs4 F5 3.099523 1_455
Cs4 F13 3.099523 1_565
Cs4 F10 3.137405 1_455
Cs4 F18 3.137405 1_565
Cs4 F17 3.148417 1_455
Cs4 F17 3.148417 1_565
Cs5 F0 2.923790 1_555
Cs5 F1 3.038242 1_555
Cs5 F13 3.051602 1_655
Cs5 F5 3.051602 1_545
Cs5 F14 3.099523 1_545
Cs5 F3 3.099523 1_655
Cs5 F9 3.137405 1_545
Cs5 F19 3.137405 1_655
Cs5 F15 3.148417 1_545
Cs5 F15 3.148417 1_655
Cs6 F7 3.069051 1_555
Cs6 F8 3.069051 1_555
Cs6 F2 3.166850 1_654
Cs6 F12 3.166850 1_544
Cs6 F16 3.178106 1_655
Cs6 F16 3.178106 1_545
Cs6 F19 3.208878 1_555
Cs6 F9 3.208878 1_555
Cs6 F1 3.217706 1_555
Cs6 F0 3.441634 1_555
Cs6 F6 3.531913 1_554
Cs7 F16 2.923790 1_555
Cs7 F15 3.038242 1_555
Cs7 F8 3.051602 1_555
Cs7 F7 3.051602 1_555
Cs7 F12 3.099523 1_554
Cs7 F2 3.099523 1_554
Cs7 F9 3.137405 1_555
Cs7 F19 3.137405 1_555
Cs7 F1 3.148417 1_565
Cs7 F1 3.148417 1_455
F0 Fe1 1.923906 1_555
F1 Fe5 2.031985 1_655
F1 Fe2 2.097502 1_645
F2 Fe5 2.003027 1_556
F2 Fe4 2.174137 1_455
F3 Fe3 2.003027 1_555
F3 Fe0 2.174137 1_555
F4 Fe0 1.923906 1_555
F5 Fe3 2.003027 1_555
F5 Fe1 2.174137 1_555
F6 Fe4 1.923906 1_555
F7 Fe5 2.003027 1_665
F7 Fe2 2.174137 1_655
F8 Fe5 2.003027 1_555
F8 Fe2 2.174137 1_545
F9 Fe2 2.085277 1_655
F9 Fe1 2.085277 1_555
F10 Fe4 2.085277 1_565
F10 Fe0 2.085277 1_555
F11 Fe5 2.031985 1_566
F11 Fe4 2.097502 1_465
F12 Fe5 2.003027 1_666
F12 Fe4 2.174137 1_565
F13 Fe3 2.003027 1_555
F13 Fe1 2.174137 1_555
F14 Fe3 2.003027 1_555
F14 Fe0 2.174137 1_555
F15 Fe3 2.031985 1_555
F15 Fe1 2.097502 1_555
F16 Fe2 1.923906 1_555
F17 Fe3 2.031985 1_555
F17 Fe0 2.097502 1_555
F18 Fe4 2.085277 1_455
F18 Fe0 2.085277 1_555
F19 Fe2 2.085277 1_545
F19 Fe1 2.085277 1_555
