# generated using pymatgen
data_Ga2O3
_symmetry_space_group_name_H-M   'P 1'
_cell_length_a   5.91070000
_cell_length_b   5.94872328
_cell_length_c   14.62254913
_cell_angle_alpha   88.72910888
_cell_angle_beta   87.97764636
_cell_angle_gamma   61.99429923
_symmetry_Int_Tables_number   1
_chemical_formula_structural   Ga2O3
_chemical_formula_sum   'Ga16 O24'
_cell_volume   453.64732640
_cell_formula_units_Z   8
loop_
 _symmetry_equiv_pos_site_id
 _symmetry_equiv_pos_as_xyz
  1  'x, y, z'
loop_
 _atom_site_type_symbol
 _atom_site_label
 _atom_site_symmetry_multiplicity
 _atom_site_fract_x
 _atom_site_fract_y
 _atom_site_fract_z
 _atom_site_occupancy
  Ga  Ga0  1  0.53633100  0.04035000  0.39725900  1
  Ga  Ga1  1  0.79181500  0.78450800  0.18024900  1
  Ga  Ga2  1  0.34092200  0.32436200  0.17583300  1
  Ga  Ga3  1  0.17912400  0.68995300  0.70139600  1
  Ga  Ga4  1  0.49061800  0.50178100  0.50086500  1
  Ga  Ga5  1  0.00147000  0.98672400  0.49817200  1
  Ga  Ga6  1  0.03106700  0.06317100  0.11134200  1
  Ga  Ga7  1  0.29828400  0.79257500  0.29629400  1
  Ga  Ga8  1  0.17337000  0.17586200  0.82525800  1
  Ga  Ga9  1  0.83674800  0.32115100  0.65812300  1
  Ga  Ga10  1  0.83210000  0.33743700  0.30560300  1
  Ga  Ga11  1  0.67896800  0.64949300  0.98608900  1
  Ga  Ga12  1  0.64601100  0.67900400  0.80008800  1
  Ga  Ga13  1  0.48540400  0.99016400  0.61978600  1
  Ga  Ga14  1  0.65279100  0.16616600  0.95310600  1
  Ga  Ga15  1  0.17554900  0.65279500  0.95888000  1
  O  O0  1  0.64334200  0.66258500  0.10318800  1
  O  O1  1  0.49347700  0.99469300  0.25584900  1
  O  O2  1  0.21413100  0.21611400  0.08106000  1
  O  O3  1  0.68569200  0.15514400  0.08346900  1
  O  O4  1  0.34003200  0.36714700  0.42250400  1
  O  O5  1  0.01051400  0.49427600  0.24609500  1
  O  O6  1  0.13460000  0.71037900  0.08605700  1
  O  O7  1  0.17460800  0.68197600  0.57692500  1
  O  O8  1  0.86772000  0.84199100  0.41693300  1
  O  O9  1  0.50447200  0.47828500  0.24694900  1
  O  O10  1  0.34570700  0.84669800  0.41623100  1
  O  O11  1  0.98816900  0.00815800  0.23991400  1
  O  O12  1  0.01104100  0.02148200  0.75528500  1
  O  O13  1  0.67286900  0.16750700  0.58386800  1
  O  O14  1  0.83092000  0.34677000  0.91453800  1
  O  O15  1  0.82421600  0.32253400  0.42769700  1
  O  O16  1  0.51614800  0.49133200  0.74483200  1
  O  O17  1  0.14531900  0.15214100  0.58396700  1
  O  O18  1  0.65469000  0.64486100  0.58668500  1
  O  O19  1  0.99378000  0.50047000  0.75297500  1
  O  O20  1  0.37439400  0.80824800  0.91266000  1
  O  O21  1  0.83395800  0.82219600  0.91870000  1
  O  O22  1  0.48989300  0.00576600  0.75277600  1
  O  O23  1  0.32506800  0.32908500  0.91016600  1
loop_
_geom_bond_atom_site_label_1
_geom_bond_atom_site_label_2
_geom_bond_distance
_geom_bond_site_symmetry_2
Ga0 O4 1.773431 1_555
Ga0 O8 1.779307 1_545
Ga0 O10 1.963728 1_545
Ga0 O1 2.130752 1_545
Ga1 O0 1.808237 1_555
Ga1 O5 1.870041 1_655
Ga1 O1 1.935990 1_555
Ga1 O6 2.277606 1_655
Ga1 O11 2.334787 1_565
Ga1 O3 2.425449 1_565
Ga2 O2 1.860883 1_555
Ga2 O9 1.949036 1_555
Ga2 O5 1.985413 1_555
Ga2 O1 2.083268 1_545
Ga2 O3 2.220310 1_555
Ga2 O6 2.415150 1_555
Ga3 O7 1.823216 1_555
Ga3 O16 1.900874 1_555
Ga3 O12 1.916002 1_565
Ga3 O19 2.025627 1_455
Ga4 O4 1.878498 1_555
Ga4 O7 1.975043 1_555
Ga4 O15 2.024070 1_555
Ga4 O18 2.036702 1_555
Ga4 O13 2.135704 1_555
Ga4 O10 2.187896 1_555
Ga5 O8 1.878371 1_455
Ga5 O7 1.976906 1_555
Ga5 O15 2.041960 1_465
Ga5 O17 2.044716 1_565
Ga5 O13 2.103705 1_465
Ga5 O10 2.133068 1_555
Ga6 O2 1.751420 1_555
Ga6 O3 1.905974 1_455
Ga6 O11 1.929499 1_455
Ga6 O6 1.930784 1_545
Ga7 O9 1.832854 1_555
Ga7 O10 1.844583 1_555
Ga7 O11 1.880522 1_465
Ga7 O1 2.085547 1_555
Ga8 O12 1.936329 1_555
Ga8 O22 1.943493 1_555
Ga8 O19 2.009081 1_455
Ga8 O23 2.018056 1_555
Ga8 O14 2.185133 1_455
Ga8 O20 2.317422 1_545
Ga9 O17 1.923497 1_655
Ga9 O13 1.975415 1_555
Ga9 O18 2.000355 1_555
Ga9 O16 2.075846 1_555
Ga9 O12 2.126963 1_655
Ga9 O19 2.238169 1_555
Ga10 O15 1.785611 1_555
Ga10 O5 1.887575 1_655
Ga10 O9 1.936307 1_555
Ga10 O11 1.983545 1_555
Ga11 O0 1.716798 1_556
Ga11 O21 1.908132 1_555
Ga11 O14 1.908556 1_555
Ga11 O20 1.944337 1_555
Ga12 O16 1.837644 1_555
Ga12 O22 1.846471 1_565
Ga12 O19 1.926184 1_555
Ga12 O20 2.142107 1_555
Ga12 O14 2.419742 1_555
Ga12 O21 2.461308 1_555
Ga13 O17 1.864509 1_565
Ga13 O18 1.880043 1_555
Ga13 O13 1.910158 1_565
Ga13 O22 1.950629 1_565
Ga14 O23 1.838907 1_555
Ga14 O21 1.880579 1_545
Ga14 O14 1.890595 1_555
Ga14 O3 1.919508 1_556
Ga15 O23 1.847920 1_555
Ga15 O6 1.884902 1_556
Ga15 O21 1.893127 1_455
Ga15 O20 1.905310 1_555
