# generated using pymatgen
data_V2P4S13
_symmetry_space_group_name_H-M   'P 1'
_cell_length_a   9.50727300
_cell_length_b   9.91189610
_cell_length_c   11.99678132
_cell_angle_alpha   72.33340089
_cell_angle_beta   72.40654584
_cell_angle_gamma   70.22186442
_symmetry_Int_Tables_number   1
_chemical_formula_structural   V2P4S13
_chemical_formula_sum   'V4 P8 S26'
_cell_volume   988.22914344
_cell_formula_units_Z   2
loop_
 _symmetry_equiv_pos_site_id
 _symmetry_equiv_pos_as_xyz
  1  'x, y, z'
loop_
 _atom_site_type_symbol
 _atom_site_label
 _atom_site_symmetry_multiplicity
 _atom_site_fract_x
 _atom_site_fract_y
 _atom_site_fract_z
 _atom_site_occupancy
  V  V0  1  0.60161000  0.00519500  0.60977100  1
  V  V1  1  0.10404800  0.50394600  0.10883900  1
  V  V2  1  0.39839000  0.99480500  0.39022900  1
  V  V3  1  0.89595200  0.49605400  0.89116100  1
  P  P0  1  0.24190700  0.56984200  0.27313600  1
  P  P1  1  0.49874400  0.25462700  0.39460500  1
  P  P2  1  0.75809300  0.43015800  0.72686400  1
  P  P3  1  0.22816400  0.93420600  0.24800700  1
  P  P4  1  0.12614200  0.23521400  0.02298100  1
  P  P5  1  0.87385800  0.76478600  0.97701900  1
  P  P6  1  0.50125600  0.74537300  0.60539500  1
  P  P7  1  0.77183600  0.06579400  0.75199300  1
  S  S0  1  0.14392200  0.00585600  0.08657100  1
  S  S1  1  0.85607800  0.99414400  0.91342900  1
  S  S2  1  0.88478800  0.23663500  0.65746400  1
  S  S3  1  0.92564000  0.36669700  0.10612100  1
  S  S4  1  0.51564300  0.17314400  0.25239600  1
  S  S5  1  0.30506700  0.79612900  0.55298200  1
  S  S6  1  0.45634400  0.87104400  0.22298800  1
  S  S7  1  0.85779200  0.92269200  0.64251000  1
  S  S8  1  0.48435700  0.82685600  0.74760400  1
  S  S9  1  0.35552000  0.14991500  0.53467500  1
  S  S10  1  0.08850100  0.45102900  0.32239800  1
  S  S11  1  0.42236500  0.48847000  0.36914900  1
  S  S12  1  0.11521200  0.76336500  0.34253600  1
  S  S13  1  0.07436000  0.63330300  0.89387900  1
  S  S14  1  0.54365600  0.12895600  0.77701200  1
  S  S15  1  0.64448000  0.85008500  0.46532500  1
  S  S16  1  0.68469200  0.39314900  0.90541700  1
  S  S17  1  0.69493300  0.20387100  0.44701800  1
  S  S18  1  0.70581400  0.69804600  0.95402900  1
  S  S19  1  0.11070000  0.27332900  0.85239000  1
  S  S20  1  0.91149900  0.54897100  0.67760200  1
  S  S21  1  0.31530800  0.60685100  0.09458300  1
  S  S22  1  0.88930000  0.72667100  0.14761000  1
  S  S23  1  0.29418600  0.30195400  0.04597100  1
  S  S24  1  0.57763500  0.51153000  0.63085100  1
  S  S25  1  0.14220800  0.07730800  0.35749000  1
loop_
_geom_bond_atom_site_label_1
_geom_bond_atom_site_label_2
_geom_bond_distance
_geom_bond_site_symmetry_2
P0 S21 2.000659 1_555
P0 S10 2.020445 1_555
P0 S11 2.148271 1_555
P0 S12 2.150095 1_555
P1 S17 2.002367 1_555
P1 S4 2.042431 1_555
P1 S9 2.066330 1_555
P1 S11 2.135010 1_555
P2 S16 2.000659 1_555
P2 S20 2.020445 1_555
P2 S24 2.148271 1_555
P2 S2 2.150095 1_555
P3 S6 1.997371 1_555
P3 S25 2.025412 1_565
P3 S0 2.148165 1_565
P3 S12 2.153042 1_555
P4 S19 2.006847 1_554
P4 S23 2.039238 1_555
P4 S3 2.070101 1_455
P4 S0 2.131671 1_555
P5 S22 2.006847 1_556
P5 S18 2.039238 1_555
P5 S13 2.070101 1_655
P5 S1 2.131671 1_555
P6 S5 2.002367 1_555
P6 S8 2.042431 1_555
P6 S15 2.066330 1_555
P6 S24 2.135010 1_555
P7 S14 1.997371 1_555
P7 S7 2.025412 1_545
P7 S1 2.148165 1_545
P7 S2 2.153042 1_555
S3 V1 2.520061 1_655
S3 V3 2.561677 1_554
S4 V2 2.355155 1_545
S5 V2 2.505780 1_555
S6 V2 2.490380 1_555
S7 V0 2.406352 1_565
S8 V0 2.355155 1_565
S9 V2 2.509728 1_545
S9 V0 2.561601 1_555
S10 V1 2.422565 1_555
S13 V3 2.520061 1_455
S13 V1 2.561677 1_556
S14 V0 2.490380 1_555
S15 V0 2.509728 1_565
S15 V2 2.561601 1_555
S16 V3 2.485279 1_555
S17 V0 2.505780 1_555
S18 V3 2.342665 1_555
S19 V3 2.501444 1_455
S20 V3 2.422565 1_555
S21 V1 2.485279 1_555
S22 V1 2.501444 1_655
S23 V1 2.342665 1_555
S25 V2 2.406352 1_545
