# generated using pymatgen
data_CsEuBr3
_symmetry_space_group_name_H-M   'P 1'
_cell_length_a   8.16822568
_cell_length_b   8.39819241
_cell_length_c   11.78891638
_cell_angle_alpha   90.00000000
_cell_angle_beta   90.00000000
_cell_angle_gamma   90.00000000
_symmetry_Int_Tables_number   1
_chemical_formula_structural   CsEuBr3
_chemical_formula_sum   'Cs4 Eu4 Br12'
_cell_volume   808.69998689
_cell_formula_units_Z   4
loop_
 _symmetry_equiv_pos_site_id
 _symmetry_equiv_pos_as_xyz
  1  'x, y, z'
loop_
 _atom_site_type_symbol
 _atom_site_label
 _atom_site_symmetry_multiplicity
 _atom_site_fract_x
 _atom_site_fract_y
 _atom_site_fract_z
 _atom_site_occupancy
  Cs  Cs0  1  0.51156978  0.44693933  0.25000000  1
  Cs  Cs1  1  0.98843022  0.94693933  0.25000000  1
  Cs  Cs2  1  0.01156978  0.05306067  0.75000000  1
  Cs  Cs3  1  0.48843022  0.55306067  0.75000000  1
  Eu  Eu0  1  -0.00000000  0.50000000  0.00000000  1
  Eu  Eu1  1  0.50000000  -0.00000000  0.00000000  1
  Eu  Eu2  1  0.50000000  -0.00000000  0.50000000  1
  Eu  Eu3  1  -0.00000000  0.50000000  0.50000000  1
  Br  Br0  1  0.79838339  0.20429860  0.03378317  1
  Br  Br1  1  0.20161661  0.79570140  0.96621683  1
  Br  Br2  1  0.29838339  0.29570140  0.53378317  1
  Br  Br3  1  0.70161661  0.70429860  0.46621683  1
  Br  Br4  1  0.70161661  0.70429860  0.03378317  1
  Br  Br5  1  0.93531668  0.49202747  0.75000000  1
  Br  Br6  1  0.79838339  0.20429860  0.46621683  1
  Br  Br7  1  0.43531668  0.00797253  0.25000000  1
  Br  Br8  1  0.29838339  0.29570140  0.96621683  1
  Br  Br9  1  0.06468332  0.50797253  0.25000000  1
  Br  Br10  1  0.20161661  0.79570140  0.53378317  1
  Br  Br11  1  0.56468332  0.99202747  0.75000000  1
loop_
_geom_bond_atom_site_label_1
_geom_bond_atom_site_label_2
_geom_bond_distance
_geom_bond_site_symmetry_2
Br0 Eu0 3.006293 1_655
Br0 Eu1 3.007096 1_555
Br0 Cs1 3.684892 1_545
Br0 Cs2 3.979683 1_654
Br0 Cs0 4.017228 1_555
Br1 Eu0 3.006293 1_556
Br1 Eu1 3.007096 1_566
Br1 Cs2 3.684892 1_565
Br1 Cs1 3.979683 1_456
Br1 Cs3 4.017228 1_555
Br2 Eu2 3.006293 1_555
Br2 Eu3 3.007096 1_555
Br2 Cs3 3.684892 1_555
Br2 Cs0 3.979683 1_555
Br2 Cs2 4.017228 1_555
Br3 Eu2 3.006293 1_565
Br3 Eu3 3.007096 1_655
Br3 Cs0 3.684892 1_555
Br3 Cs3 3.979683 1_555
Br3 Cs1 4.017228 1_555
Br4 Eu1 3.006293 1_565
Br4 Eu0 3.007096 1_655
Br4 Cs0 3.684892 1_555
Br4 Cs3 3.979683 1_554
Br4 Cs1 4.017228 1_555
Br5 Eu3 2.994961 1_655
Br5 Eu0 2.994961 1_656
Br5 Cs3 3.686081 1_555
Br5 Cs2 3.738774 1_655
Br6 Eu3 3.006293 1_655
Br6 Eu2 3.007096 1_555
Br6 Cs1 3.684892 1_545
Br6 Cs2 3.979683 1_655
Br6 Cs0 4.017228 1_555
Br7 Eu2 2.994961 1_555
Br7 Eu1 2.994961 1_555
Br7 Cs1 3.686081 1_445
Br7 Cs0 3.738774 1_555
Br8 Eu1 3.006293 1_556
Br8 Eu0 3.007096 1_556
Br8 Cs3 3.684892 1_555
Br8 Cs0 3.979683 1_556
Br8 Cs2 4.017228 1_555
Br9 Eu3 2.994961 1_555
Br9 Eu0 2.994961 1_555
Br9 Cs0 3.686081 1_555
Br9 Cs1 3.738774 1_455
Br10 Eu3 3.006293 1_555
Br10 Eu2 3.007096 1_565
Br10 Cs2 3.684892 1_565
Br10 Cs1 3.979683 1_455
Br10 Cs3 4.017228 1_555
Br11 Eu2 2.994961 1_565
Br11 Eu1 2.994961 1_566
Br11 Cs2 3.686081 1_665
Br11 Cs3 3.738774 1_555
