# generated using pymatgen
data_C28Cl5
_symmetry_space_group_name_H-M   'P 1'
_cell_length_a   11.60310778
_cell_length_b   11.60310778
_cell_length_c   13.94963800
_cell_angle_alpha   90.00000000
_cell_angle_beta   90.00000000
_cell_angle_gamma   108.83995014
_symmetry_Int_Tables_number   1
_chemical_formula_structural   C28Cl5
_chemical_formula_sum   'C112 Cl20'
_cell_volume   1777.45037871
_cell_formula_units_Z   4
loop_
 _symmetry_equiv_pos_site_id
 _symmetry_equiv_pos_as_xyz
  1  'x, y, z'
loop_
 _atom_site_type_symbol
 _atom_site_label
 _atom_site_symmetry_multiplicity
 _atom_site_fract_x
 _atom_site_fract_y
 _atom_site_fract_z
 _atom_site_occupancy
  C  C0  1  0.19018800  0.06297300  0.56791200  1
  C  C1  1  0.06297300  0.19018800  0.93208800  1
  C  C2  1  0.45801900  0.73394700  0.30160900  1
  C  C3  1  0.60593400  0.73183800  0.46369400  1
  C  C4  1  0.26605300  0.54198100  0.69839100  1
  C  C5  1  0.67730600  0.03946200  0.14361400  1
  C  C6  1  0.73183800  0.60593400  0.46369400  1
  C  C7  1  0.53072900  0.37977000  0.83389000  1
  C  C8  1  0.42701200  0.04673700  0.70050700  1
  C  C9  1  0.15792100  0.48072300  0.85088900  1
  C  C10  1  0.80981200  0.93702700  0.06791200  1
  C  C11  1  0.45801900  0.73394700  0.19839100  1
  C  C12  1  0.04673700  0.42701200  0.70050700  1
  C  C13  1  0.95861100  0.95861100  0.19850000  1
  C  C14  1  0.94616300  0.20680400  0.70074100  1
  C  C15  1  0.73183800  0.60593400  0.03630600  1
  C  C16  1  0.12975300  0.00078500  0.65015300  1
  C  C17  1  0.00078500  0.12975300  0.65015300  1
  C  C18  1  0.32269400  0.96053800  0.64361400  1
  C  C19  1  0.54198100  0.26605300  0.69839100  1
  C  C20  1  0.16766500  0.16766500  0.96623000  1
  C  C21  1  0.83957100  0.59036300  0.06542300  1
  C  C22  1  0.96032700  0.68996600  0.05256300  1
  C  C23  1  0.87024700  0.99921500  0.15015300  1
  C  C24  1  0.67730600  0.03946200  0.35638600  1
  C  C25  1  0.39406600  0.26816200  0.96369400  1
  C  C26  1  0.62135000  0.54456000  0.08682400  1
  C  C27  1  0.59036300  0.83957100  0.43457700  1
  C  C28  1  0.20680400  0.94616300  0.79925900  1
  C  C29  1  0.03946200  0.67730600  0.14361400  1
  C  C30  1  0.26816200  0.39406600  0.96369400  1
  C  C31  1  0.16766500  0.16766500  0.53377000  1
  C  C32  1  0.54198100  0.26605300  0.80160900  1
  C  C33  1  0.32269400  0.96053800  0.85638600  1
  C  C34  1  0.00078500  0.12975300  0.84984700  1
  C  C35  1  0.51927700  0.84207900  0.14911100  1
  C  C36  1  0.80981200  0.93702700  0.43208800  1
  C  C37  1  0.45184700  0.52591100  0.75000000  1
  C  C38  1  0.12975300  0.00078500  0.84984700  1
  C  C39  1  0.94616300  0.20680400  0.79925900  1
  C  C40  1  0.60593400  0.73183800  0.03630600  1
  C  C41  1  0.15792100  0.48072300  0.64911100  1
  C  C42  1  0.42701200  0.04673700  0.79949300  1
  C  C43  1  0.79319600  0.05383700  0.20074100  1
  C  C44  1  0.84207900  0.51927700  0.35088900  1
  C  C45  1  0.79319600  0.05383700  0.29925900  1
  C  C46  1  0.26605300  0.54198100  0.80160900  1
  C  C47  1  0.68996600  0.96032700  0.44743700  1
  C  C48  1  0.99921500  0.87024700  0.34984700  1
  C  C49  1  0.06297300  0.19018800  0.56791200  1
  C  C50  1  0.51927700  0.84207900  0.35088900  1
  C  C51  1  0.40963700  0.16042900  0.93457700  1
  C  C52  1  0.96053800  0.32269400  0.64361400  1
  C  C53  1  0.83233500  0.83233500  0.03377000  1
  C  C54  1  0.37865000  0.45544000  0.91317600  1
  C  C55  1  0.93702700  0.80981200  0.06791200  1
  C  C56  1  0.57298800  0.95326300  0.20050700  1
  C  C57  1  0.27394100  0.27394100  0.49381600  1
  C  C58  1  0.40963700  0.16042900  0.56542300  1
  C  C59  1  0.59036300  0.83957100  0.06542300  1
  C  C60  1  0.04138900  0.04138900  0.69850000  1
  C  C61  1  0.95326300  0.57298800  0.29949300  1
  C  C62  1  0.57298800  0.95326300  0.29949300  1
  C  C63  1  0.54456000  0.62135000  0.41317600  1
  C  C64  1  0.54815300  0.47408900  0.25000000  1
  C  C65  1  0.87024700  0.99921500  0.34984700  1
  C  C66  1  0.83957100  0.59036300  0.43457700  1
  C  C67  1  0.53072900  0.37977000  0.66611000  1
  C  C68  1  0.62023000  0.46927100  0.33389000  1
  C  C69  1  0.68996600  0.96032700  0.05256300  1
  C  C70  1  0.62023000  0.46927100  0.16611000  1
  C  C71  1  0.95326300  0.57298800  0.20050700  1
  C  C72  1  0.96032700  0.68996600  0.44743700  1
  C  C73  1  0.47408900  0.54815300  0.25000000  1
  C  C74  1  0.05383700  0.79319600  0.20074100  1
  C  C75  1  0.46927100  0.62023000  0.33389000  1
  C  C76  1  0.48072300  0.15792100  0.85088900  1
  C  C77  1  0.62135000  0.54456000  0.41317600  1
  C  C78  1  0.45544000  0.37865000  0.58682400  1
  C  C79  1  0.05383700  0.79319600  0.29925900  1
  C  C80  1  0.03967300  0.31003400  0.55256300  1
  C  C81  1  0.83233500  0.83233500  0.46623000  1
  C  C82  1  0.54456000  0.62135000  0.08682400  1
  C  C83  1  0.20680400  0.94616300  0.70074100  1
  C  C84  1  0.46927100  0.62023000  0.16611000  1
  C  C85  1  0.72605900  0.72605900  0.99381600  1
  C  C86  1  0.31003400  0.03967300  0.94743700  1
  C  C87  1  0.31003400  0.03967300  0.55256300  1
  C  C88  1  0.72605900  0.72605900  0.50618400  1
  C  C89  1  0.84207900  0.51927700  0.14911100  1
  C  C90  1  0.95861100  0.95861100  0.30150000  1
  C  C91  1  0.16042900  0.40963700  0.93457700  1
  C  C92  1  0.39406600  0.26816200  0.53630600  1
  C  C93  1  0.03967300  0.31003400  0.94743700  1
  C  C94  1  0.45544000  0.37865000  0.91317600  1
  C  C95  1  0.48072300  0.15792100  0.64911100  1
  C  C96  1  0.73394700  0.45801900  0.30160900  1
  C  C97  1  0.19018800  0.06297300  0.93208800  1
  C  C98  1  0.99921500  0.87024700  0.15015300  1
  C  C99  1  0.37977000  0.53072900  0.83389000  1
  C  C100  1  0.37977000  0.53072900  0.66611000  1
  C  C101  1  0.16042900  0.40963700  0.56542300  1
  C  C102  1  0.27394100  0.27394100  0.00618400  1
  C  C103  1  0.52591100  0.45184700  0.75000000  1
  C  C104  1  0.04138900  0.04138900  0.80150000  1
  C  C105  1  0.26816200  0.39406600  0.53630600  1
  C  C106  1  0.04673700  0.42701200  0.79949300  1
  C  C107  1  0.37865000  0.45544000  0.58682400  1
  C  C108  1  0.96053800  0.32269400  0.85638600  1
  C  C109  1  0.73394700  0.45801900  0.19839100  1
  C  C110  1  0.93702700  0.80981200  0.43208800  1
  C  C111  1  0.03946200  0.67730600  0.35638600  1
  Cl  Cl0  1  0.31505200  0.97179100  0.43793000  1
  Cl  Cl1  1  0.81995100  0.34793100  0.88300000  1
  Cl  Cl2  1  0.02820900  0.68494800  0.93793000  1
  Cl  Cl3  1  0.18004900  0.65206900  0.11700000  1
  Cl  Cl4  1  0.34793100  0.81995100  0.88300000  1
  Cl  Cl5  1  0.31505200  0.97179100  0.06207000  1
  Cl  Cl6  1  0.65206900  0.18004900  0.11700000  1
  Cl  Cl7  1  0.27450300  0.27450300  0.36340500  1
  Cl  Cl8  1  0.02820900  0.68494800  0.56207000  1
  Cl  Cl9  1  0.81995100  0.34793100  0.61700000  1
  Cl  Cl10  1  0.34793100  0.81995100  0.61700000  1
  Cl  Cl11  1  0.72549700  0.72549700  0.86340500  1
  Cl  Cl12  1  0.97179100  0.31505200  0.43793000  1
  Cl  Cl13  1  0.68494800  0.02820900  0.93793000  1
  Cl  Cl14  1  0.18004900  0.65206900  0.38300000  1
  Cl  Cl15  1  0.65206900  0.18004900  0.38300000  1
  Cl  Cl16  1  0.68494800  0.02820900  0.56207000  1
  Cl  Cl17  1  0.72549700  0.72549700  0.63659500  1
  Cl  Cl18  1  0.97179100  0.31505200  0.06207000  1
  Cl  Cl19  1  0.27450300  0.27450300  0.13659500  1
loop_
_geom_bond_atom_site_label_1
_geom_bond_atom_site_label_2
_geom_bond_distance
_geom_bond_site_symmetry_2
C0 C31 1.405626 1_555
C0 C16 1.414830 1_555
C0 C87 1.515081 1_555
C1 C20 1.405626 1_555
C1 C34 1.414830 1_555
C1 C93 1.515081 1_555
C2 C50 1.405705 1_555
C2 C75 1.439474 1_555
C3 C63 1.434449 1_555
C3 C88 1.535877 1_555
C4 C41 1.405705 1_555
C4 C46 1.439854 1_555
C5 C56 1.520995 1_545
C5 C69 1.601571 1_545
C5 Cl6 1.786910 1_555
C6 C66 1.380607 1_555
C6 C77 1.434449 1_555
C6 C88 1.535877 1_555
C7 C94 1.406858 1_555
C8 C95 1.430897 1_555
C9 C91 1.435109 1_555
C10 C53 1.405626 1_555
C10 C23 1.414830 1_555
C10 C69 1.515081 1_555
C11 C35 1.405705 1_555
C11 C84 1.439474 1_555
C11 C2 1.439854 1_555
C12 C41 1.430897 1_555
C12 C52 1.520995 1_455
C13 C23 1.428295 1_555
C13 C98 1.428295 1_555
C13 C90 1.436813 1_555
C14 C39 1.374290 1_555
C14 C17 1.436983 1_655
C14 C52 1.525186 1_555
C15 C21 1.380607 1_555
C15 C26 1.434449 1_555
C15 C85 1.535877 1_554
C16 C60 1.428295 1_555
C16 C83 1.436983 1_545
C17 C49 1.414830 1_555
C17 C60 1.428295 1_555
C18 C8 1.520995 1_565
C18 C83 1.525186 1_555
C18 C87 1.601571 1_565
C18 Cl10 1.786910 1_555
C19 C95 1.405705 1_555
C19 C67 1.439474 1_555
C19 C32 1.439854 1_555
C20 C97 1.405626 1_555
C21 C89 1.435109 1_555
C21 C22 1.511690 1_555
C22 C55 1.515081 1_555
C22 C29 1.601571 1_655
C22 Cl2 1.791780 1_654
C23 C43 1.436983 1_565
C24 C62 1.520995 1_545
C24 C45 1.525186 1_555
C24 C47 1.601571 1_545
C24 Cl15 1.786910 1_555
C25 C51 1.380607 1_555
C25 C94 1.434449 1_555
C26 C70 1.406858 1_555
C26 C82 1.449311 1_555
C27 C3 1.380607 1_555
C27 C50 1.435109 1_555
C27 C47 1.511690 1_555
C28 C83 1.374290 1_555
C28 C38 1.436983 1_565
C28 C33 1.525186 1_555
C29 C71 1.520995 1_455
C29 C74 1.525186 1_555
C29 Cl3 1.786910 1_555
C30 C91 1.380607 1_555
C30 C54 1.434449 1_555
C31 C49 1.405626 1_555
C31 C57 1.539406 1_555
C32 C76 1.405705 1_555
C32 C7 1.439474 1_555
C33 C42 1.520995 1_565
C33 C86 1.601571 1_565
C33 Cl4 1.786910 1_555
C34 C39 1.436983 1_455
C35 C56 1.430897 1_555
C35 C59 1.435109 1_555
C36 C81 1.405626 1_555
C36 C65 1.414830 1_555
C36 C47 1.515081 1_555
C37 C99 1.449896 1_555
C38 C97 1.414830 1_555
C40 C59 1.380607 1_555
C40 C82 1.434449 1_555
C40 C85 1.535877 1_554
C42 C8 1.380819 1_555
C42 C76 1.430897 1_555
C43 C45 1.374290 1_555
C43 C5 1.525186 1_555
C44 C96 1.405705 1_555
C44 C61 1.430897 1_555
C44 C66 1.435109 1_555
C45 C65 1.436983 1_545
C46 C9 1.405705 1_555
C46 C99 1.439474 1_555
C47 Cl16 1.791780 1_565
C48 C90 1.428295 1_555
C48 C79 1.436983 1_655
C49 C80 1.515081 1_555
C50 C62 1.430897 1_555
C51 C76 1.435109 1_555
C51 C86 1.511690 1_555
C52 C80 1.601571 1_655
C52 Cl9 1.786910 1_555
C53 C55 1.405626 1_555
C53 C85 1.539406 1_554
C54 C99 1.406858 1_555
C54 C94 1.449311 1_555
C55 C98 1.414830 1_555
C56 C62 1.380819 1_555
C57 C92 1.535877 1_555
C57 Cl7 1.819202 1_555
C58 C92 1.380607 1_555
C58 C95 1.435109 1_555
C58 C87 1.511690 1_555
C59 C69 1.511690 1_555
C61 C71 1.380819 1_555
C63 C75 1.406858 1_555
C63 C77 1.449311 1_555
C64 C73 1.397862 1_555
C64 C70 1.449896 1_555
C64 C68 1.449896 1_555
C65 C90 1.428295 1_555
C66 C72 1.511690 1_555
C67 C78 1.406858 1_555
C68 C77 1.406858 1_555
C68 C96 1.439474 1_555
C69 Cl13 1.791780 1_564
C71 C89 1.430897 1_555
C72 Cl8 1.791780 1_655
C73 C84 1.449896 1_555
C73 C75 1.449896 1_555
C74 C79 1.374290 1_555
C74 C98 1.436983 1_455
C78 C92 1.434449 1_555
C80 Cl12 1.791780 1_455
C81 C88 1.539406 1_555
C82 C84 1.406858 1_555
C85 Cl11 1.819202 1_555
C86 C97 1.515081 1_555
C86 Cl5 1.791780 1_546
C87 Cl0 1.791780 1_545
C88 Cl17 1.819202 1_555
C91 C93 1.511690 1_555
C93 Cl18 1.791780 1_456
C100 C107 1.406858 1_555
C100 C4 1.439474 1_555
C100 C37 1.449896 1_555
C101 C105 1.380607 1_555
C101 C41 1.435109 1_555
C101 C80 1.511690 1_555
C102 C25 1.535877 1_554
C102 C30 1.535877 1_554
C102 C20 1.539406 1_554
C102 Cl19 1.819202 1_555
C103 C37 1.397862 1_555
C103 C7 1.449896 1_555
C103 C67 1.449896 1_555
C104 C34 1.428295 1_555
C104 C38 1.428295 1_555
C104 C60 1.436813 1_555
C105 C107 1.434449 1_555
C105 C57 1.535877 1_555
C106 C12 1.380819 1_555
C106 C9 1.430897 1_555
C106 C108 1.520995 1_455
C107 C78 1.449311 1_555
C108 C39 1.525186 1_555
C108 C93 1.601571 1_655
C108 Cl1 1.786910 1_555
C109 C89 1.405705 1_555
C109 C70 1.439474 1_555
C109 C96 1.439854 1_555
C110 C81 1.405626 1_555
C110 C48 1.414830 1_555
C110 C72 1.515081 1_555
C111 C61 1.520995 1_455
C111 C79 1.525186 1_555
C111 C72 1.601571 1_455
C111 Cl14 1.786910 1_555
