# generated using pymatgen
data_ReC5ClO5
_symmetry_space_group_name_H-M   'P 1'
_cell_length_a   6.08787100
_cell_length_b   11.76267500
_cell_length_c   11.77609200
_cell_angle_alpha   90.00000000
_cell_angle_beta   90.00000000
_cell_angle_gamma   90.00000000
_symmetry_Int_Tables_number   1
_chemical_formula_structural   ReC5ClO5
_chemical_formula_sum   'Re4 C20 Cl4 O20'
_cell_volume   843.28180311
_cell_formula_units_Z   4
loop_
 _symmetry_equiv_pos_site_id
 _symmetry_equiv_pos_as_xyz
  1  'x, y, z'
loop_
 _atom_site_type_symbol
 _atom_site_label
 _atom_site_symmetry_multiplicity
 _atom_site_fract_x
 _atom_site_fract_y
 _atom_site_fract_z
 _atom_site_occupancy
  Re  Re0  1  0.94933600  0.12504200  0.75000000  1
  Re  Re1  1  0.44933600  0.37495800  0.25000000  1
  Re  Re2  1  0.55066400  0.62504200  0.75000000  1
  Re  Re3  1  0.05066400  0.87495800  0.25000000  1
  C  C0  1  0.79507800  0.97340900  0.25000000  1
  C  C1  1  0.69309200  0.52991500  0.62790400  1
  C  C2  1  0.19309200  0.97008500  0.12790400  1
  C  C3  1  0.41617000  0.72460500  0.87156800  1
  C  C4  1  0.08383000  0.22460500  0.62843200  1
  C  C5  1  0.80690800  0.02991500  0.87209600  1
  C  C6  1  0.30690800  0.47008500  0.37209600  1
  C  C7  1  0.41617000  0.72460500  0.62843200  1
  C  C8  1  0.08383000  0.22460500  0.87156800  1
  C  C9  1  0.30690800  0.47008500  0.12790400  1
  C  C10  1  0.58383000  0.27539500  0.12843200  1
  C  C11  1  0.69309200  0.52991500  0.87209600  1
  C  C12  1  0.20492200  0.02659100  0.75000000  1
  C  C13  1  0.58383000  0.27539500  0.37156800  1
  C  C14  1  0.19309200  0.97008500  0.37209600  1
  C  C15  1  0.91617000  0.77539500  0.37156800  1
  C  C16  1  0.70492200  0.47340900  0.25000000  1
  C  C17  1  0.29507800  0.52659100  0.75000000  1
  C  C18  1  0.80690800  0.02991500  0.62790400  1
  C  C19  1  0.91617000  0.77539500  0.12843200  1
  Cl  Cl0  1  0.61720500  0.25191000  0.75000000  1
  Cl  Cl1  1  0.88279500  0.75191000  0.75000000  1
  Cl  Cl2  1  0.38279500  0.74809000  0.25000000  1
  Cl  Cl3  1  0.11720500  0.24809000  0.25000000  1
  O  O0  1  0.23455300  0.52337800  0.44513600  1
  O  O1  1  0.73455300  0.97662200  0.55486400  1
  O  O2  1  0.84360400  0.71960700  0.44252700  1
  O  O3  1  0.85871200  0.53227600  0.25000000  1
  O  O4  1  0.64128800  0.03227600  0.25000000  1
  O  O5  1  0.23455300  0.52337800  0.05486400  1
  O  O6  1  0.15639600  0.28039300  0.94252700  1
  O  O7  1  0.65639600  0.21960700  0.05747300  1
  O  O8  1  0.26544700  0.02337800  0.05486400  1
  O  O9  1  0.35871200  0.96772400  0.75000000  1
  O  O10  1  0.34360400  0.78039300  0.55747300  1
  O  O11  1  0.14128800  0.46772400  0.75000000  1
  O  O12  1  0.65639600  0.21960700  0.44252700  1
  O  O13  1  0.26544700  0.02337800  0.44513600  1
  O  O14  1  0.84360400  0.71960700  0.05747300  1
  O  O15  1  0.73455300  0.97662200  0.94513600  1
  O  O16  1  0.15639600  0.28039300  0.55747300  1
  O  O17  1  0.34360400  0.78039300  0.94252700  1
  O  O18  1  0.76544700  0.47662200  0.55486400  1
  O  O19  1  0.76544700  0.47662200  0.94513600  1
loop_
_geom_bond_atom_site_label_1
_geom_bond_atom_site_label_2
_geom_bond_distance
_geom_bond_site_symmetry_2
C0 O4 1.164489 1_565
C0 Re3 1.939621 1_655
C1 O18 1.151872 1_555
C1 Re2 2.017718 1_555
C2 O8 1.151872 1_565
C2 Re3 2.017718 1_555
C3 O17 1.150671 1_555
C3 Re2 2.022723 1_555
C4 O16 1.150671 1_555
C4 Re0 2.022723 1_455
C5 O15 1.151872 1_545
C5 Re0 2.017718 1_555
C6 O0 1.151872 1_555
C6 Re1 2.017718 1_555
C7 O10 1.150671 1_555
C7 Re2 2.022723 1_555
C8 O6 1.150671 1_555
C8 Re0 2.022723 1_455
C9 O5 1.151872 1_555
C9 Re1 2.017718 1_555
C10 O7 1.150671 1_555
C10 Re1 2.022723 1_555
C11 O19 1.151872 1_555
C11 Re2 2.017718 1_555
C12 O9 1.164489 1_545
C12 Re0 1.939621 1_455
C13 O12 1.150671 1_555
C13 Re1 2.022723 1_555
C14 O13 1.151872 1_565
C14 Re3 2.017718 1_555
C15 O2 1.150671 1_555
C15 Re3 2.022723 1_655
C16 O3 1.164489 1_555
C16 Re1 1.939621 1_555
C17 O11 1.164489 1_555
C17 Re2 1.939621 1_555
C18 O1 1.151872 1_545
C18 Re0 2.017718 1_555
C19 O14 1.150671 1_555
C19 Re3 2.022723 1_655
Cl0 Re0 2.513035 1_555
Cl1 Re2 2.513035 1_555
Cl2 Re3 2.513035 1_555
Cl3 Re1 2.513035 1_555
