# generated using pymatgen
data_Eu(InAu)3
_symmetry_space_group_name_H-M   'P 1'
_cell_length_a   4.56751655
_cell_length_b   7.74061048
_cell_length_c   9.18197622
_cell_angle_alpha   90.00000000
_cell_angle_beta   90.00000000
_cell_angle_gamma   90.00000000
_symmetry_Int_Tables_number   1
_chemical_formula_structural   Eu(InAu)3
_chemical_formula_sum   'Eu2 In6 Au6'
_cell_volume   324.63213422
_cell_formula_units_Z   2
loop_
 _symmetry_equiv_pos_site_id
 _symmetry_equiv_pos_as_xyz
  1  'x, y, z'
loop_
 _atom_site_type_symbol
 _atom_site_label
 _atom_site_symmetry_multiplicity
 _atom_site_fract_x
 _atom_site_fract_y
 _atom_site_fract_z
 _atom_site_occupancy
  Eu  Eu0  1  0.00000000  0.50000000  0.27561849  1
  Eu  Eu1  1  0.50000000  0.00000000  0.72428727  1
  In  In0  1  0.50000000  0.50000000  0.63299629  1
  In  In1  1  0.00000000  0.29967473  0.88496873  1
  In  In2  1  -0.00000000  0.70032527  0.88496873  1
  In  In3  1  0.50000000  0.79987359  0.11488226  1
  In  In4  1  0.00000000  0.00000000  0.36705881  1
  In  In5  1  0.50000000  0.20012641  0.11488226  1
  Au  Au0  1  -0.00000000  0.73508092  0.59071827  1
  Au  Au1  1  0.50000000  0.50000000  0.94868046  1
  Au  Au2  1  -0.00000000  0.26491908  0.59071827  1
  Au  Au3  1  0.50000000  0.76503195  0.40938819  1
  Au  Au4  1  -0.00000000  0.00000000  0.05144279  1
  Au  Au5  1  0.50000000  0.23496805  0.40938819  1
loop_
_geom_bond_atom_site_label_1
_geom_bond_atom_site_label_2
_geom_bond_distance
_geom_bond_site_symmetry_2
Eu0 In5 3.575158 1_555
Eu0 In5 3.575158 1_455
Eu0 In3 3.575158 1_455
Eu0 In3 3.575158 1_555
Eu1 In1 3.573951 1_555
Eu1 In2 3.573951 1_645
Eu1 In2 3.573951 1_545
Eu1 In1 3.573951 1_655
Au0 In2 2.715162 1_555
Au0 Au3 2.835740 1_455
Au0 Au3 2.835740 1_555
Au0 In4 2.902159 1_565
Au0 In0 2.945751 1_455
Au0 In0 2.945751 1_555
Au0 Eu1 3.305266 1_465
Au0 Eu1 3.305266 1_565
Au0 Eu0 3.417898 1_555
Au1 In5 2.777922 1_556
Au1 In3 2.777922 1_556
Au1 In1 2.821748 1_555
Au1 In1 2.821748 1_655
Au1 In2 2.821748 1_555
Au1 In2 2.821748 1_655
Au1 In0 2.898605 1_555
Au2 In1 2.715162 1_555
Au2 Au5 2.835740 1_555
Au2 Au5 2.835740 1_455
Au2 In4 2.902159 1_555
Au2 In0 2.945751 1_455
Au2 In0 2.945751 1_555
Au2 Eu1 3.305266 1_455
Au2 Eu1 3.305266 1_555
Au2 Eu0 3.417898 1_555
Au3 In3 2.717562 1_555
Au3 In0 2.902443 1_555
Au3 In4 2.945273 1_665
Au3 In4 2.945273 1_565
Au3 Eu0 3.306492 1_555
Au3 Eu0 3.306492 1_655
Au3 Eu1 3.415873 1_565
Au4 In1 2.778011 1_554
Au4 In2 2.778011 1_544
Au4 In3 2.820385 1_545
Au4 In3 2.820385 1_445
Au4 In5 2.820385 1_555
Au4 In5 2.820385 1_455
Au4 In4 2.897979 1_555
Au5 In5 2.717562 1_555
Au5 In0 2.902443 1_555
Au5 In4 2.945273 1_555
Au5 In4 2.945273 1_655
Au5 Eu0 3.306492 1_555
Au5 Eu0 3.306492 1_655
Au5 Eu1 3.415873 1_555
