# generated using pymatgen
data_Ca(YbS2)2
_symmetry_space_group_name_H-M   'P 1'
_cell_length_a   7.32030304
_cell_length_b   7.32030304
_cell_length_c   7.32030304
_cell_angle_alpha   111.34534998
_cell_angle_beta   111.34534998
_cell_angle_gamma   105.78467597
_symmetry_Int_Tables_number   1
_chemical_formula_structural   Ca(YbS2)2
_chemical_formula_sum   'Ca2 Yb4 S8'
_cell_volume   301.04122326
_cell_formula_units_Z   2
loop_
 _symmetry_equiv_pos_site_id
 _symmetry_equiv_pos_as_xyz
  1  'x, y, z'
loop_
 _atom_site_type_symbol
 _atom_site_label
 _atom_site_symmetry_multiplicity
 _atom_site_fract_x
 _atom_site_fract_y
 _atom_site_fract_z
 _atom_site_occupancy
  Ca  Ca0  1  0.75000000  0.25000000  0.50000000  1
  Ca  Ca1  1  0.00000000  0.00000000  0.00000000  1
  Yb  Yb0  1  0.25272400  0.62500000  0.12772400  1
  Yb  Yb1  1  0.37500000  0.50272400  0.62772400  1
  Yb  Yb2  1  0.49727600  0.12500000  0.87227600  1
  Yb  Yb3  1  0.87500000  0.74727600  0.37227600  1
  S  S0  1  0.26408900  0.03751700  0.41847100  1
  S  S1  1  0.48591100  0.40438200  0.27342900  1
  S  S2  1  0.78751700  0.51408900  0.91847100  1
  S  S3  1  0.59561800  0.86904600  0.08152900  1
  S  S4  1  0.61904600  0.84561800  0.58152900  1
  S  S5  1  0.15438200  0.73591100  0.77342900  1
  S  S6  1  0.96248300  0.38095400  0.22657100  1
  S  S7  1  0.13095400  0.21248300  0.72657100  1
loop_
_geom_bond_atom_site_label_1
_geom_bond_atom_site_label_2
_geom_bond_distance
_geom_bond_site_symmetry_2
Ca0 S1 2.825650 1_555
Ca0 S7 2.825652 1_655
Ca0 S3 2.825654 1_545
Ca0 S2 2.825654 1_555
Ca0 S5 3.193224 1_655
Ca0 S4 3.193225 1_545
Ca0 S0 3.193225 1_555
Ca0 S6 3.193232 1_555
Ca1 S5 2.825650 1_544
Ca1 S6 2.825652 1_455
Ca1 S0 2.825654 1_555
Ca1 S4 2.825654 1_444
Ca1 S1 3.193224 1_555
Ca1 S2 3.193225 1_444
Ca1 S3 3.193225 1_445
Ca1 S7 3.193232 1_554
S0 Yb2 2.843950 1_555
S0 Yb3 2.867841 1_445
S0 Yb1 2.897526 1_555
S0 Yb0 2.951498 1_545
S1 Yb0 2.843952 1_555
S1 Yb3 2.867844 1_555
S1 Yb1 2.897519 1_555
S1 Yb2 2.951504 1_554
S2 Yb3 2.843950 1_556
S2 Yb2 2.867841 1_555
S2 Yb0 2.897526 1_656
S2 Yb1 2.951498 1_555
S3 Yb1 2.843950 1_554
S3 Yb0 2.867841 1_555
S3 Yb2 2.897526 1_564
S3 Yb3 2.951498 1_555
S4 Yb0 2.843950 1_555
S4 Yb1 2.867841 1_555
S4 Yb3 2.897526 1_555
S4 Yb2 2.951498 1_565
S5 Yb1 2.843952 1_555
S5 Yb2 2.867844 1_565
S5 Yb0 2.897519 1_556
S5 Yb3 2.951504 1_455
S6 Yb3 2.843951 1_555
S6 Yb0 2.867836 1_655
S6 Yb2 2.897524 1_554
S6 Yb1 2.951502 1_655
S7 Yb2 2.843951 1_555
S7 Yb1 2.867836 1_555
S7 Yb3 2.897524 1_445
S7 Yb0 2.951502 1_556
