# generated using pymatgen
data_CaInPd
_symmetry_space_group_name_H-M   'P 1'
_cell_length_a   4.42032051
_cell_length_b   7.31004190
_cell_length_c   8.43036225
_cell_angle_alpha   89.99980360
_cell_angle_beta   89.99937063
_cell_angle_gamma   90.00537147
_symmetry_Int_Tables_number   1
_chemical_formula_structural   CaInPd
_chemical_formula_sum   'Ca4 In4 Pd4'
_cell_volume   272.40800192
_cell_formula_units_Z   4
loop_
 _symmetry_equiv_pos_site_id
 _symmetry_equiv_pos_as_xyz
  1  'x, y, z'
loop_
 _atom_site_type_symbol
 _atom_site_label
 _atom_site_symmetry_multiplicity
 _atom_site_fract_x
 _atom_site_fract_y
 _atom_site_fract_z
 _atom_site_occupancy
  Ca  Ca0  1  0.74996624  0.53301073  0.17759990  1
  Ca  Ca1  1  0.25004019  0.96698540  0.67760089  1
  Ca  Ca2  1  0.74996183  0.03301345  0.32239996  1
  Ca  Ca3  1  0.25003238  0.46699033  0.82239898  1
  In  In0  1  0.24999656  0.35521715  0.43829807  1
  In  In1  1  0.25000073  0.85521276  0.06170123  1
  In  In2  1  0.74999924  0.14478874  0.93829903  1
  In  In3  1  0.75000360  0.64478206  0.56170287  1
  Pd  Pd0  1  0.24998848  0.23135541  0.12811051  1
  Pd  Pd1  1  0.75000943  0.76864793  0.87189045  1
  Pd  Pd2  1  0.75001725  0.26865514  0.62811409  1
  Pd  Pd3  1  0.24998407  0.73134093  0.37188503  1
loop_
_geom_bond_atom_site_label_1
_geom_bond_atom_site_label_2
_geom_bond_distance
_geom_bond_site_symmetry_2
Ca0 Pd1 3.099873 1_554
Ca0 Pd3 3.109546 1_655
Ca0 Pd3 3.109601 1_555
Ca0 Pd0 3.149615 1_555
Ca0 Pd0 3.150037 1_655
Ca0 In3 3.339620 1_555
Ca0 In1 3.374402 1_655
Ca0 In1 3.374506 1_555
Ca0 In0 3.376826 1_555
Ca0 In0 3.377192 1_655
Ca0 In2 3.481910 1_554
Ca1 Pd3 3.099957 1_555
Ca1 Pd1 3.109600 1_455
Ca1 Pd1 3.109625 1_555
Ca1 Pd2 3.149676 1_565
Ca1 Pd2 3.150115 1_465
Ca1 In1 3.339595 1_556
Ca1 In3 3.374432 1_455
Ca1 In3 3.374496 1_555
Ca1 In2 3.376860 1_565
Ca1 In2 3.377225 1_465
Ca1 In0 3.481967 1_565
Ca2 Pd2 3.099934 1_555
Ca2 Pd0 3.109602 1_655
Ca2 Pd0 3.109653 1_555
Ca2 Pd3 3.149690 1_545
Ca2 Pd3 3.150125 1_645
Ca2 In2 3.339605 1_554
Ca2 In0 3.374429 1_655
Ca2 In0 3.374503 1_555
Ca2 In1 3.376861 1_545
Ca2 In1 3.377214 1_645
Ca2 In3 3.481965 1_545
Ca3 Pd0 3.099878 1_556
Ca3 Pd2 3.109553 1_455
Ca3 Pd2 3.109626 1_555
Ca3 Pd1 3.149627 1_555
Ca3 Pd1 3.150053 1_455
Ca3 In0 3.339606 1_555
Ca3 In2 3.374400 1_455
Ca3 In2 3.374511 1_555
Ca3 In3 3.376814 1_555
Ca3 In3 3.377171 1_455
Ca3 In1 3.481920 1_556
In0 Pd0 2.767313 1_555
In0 Pd2 2.800920 1_455
In0 Pd2 2.801186 1_555
In0 Pd3 2.805905 1_555
In1 Pd3 2.767301 1_555
In1 Pd1 2.800972 1_454
In1 Pd1 2.801098 1_554
In1 Pd0 2.806038 1_565
In2 Pd2 2.767297 1_555
In2 Pd0 2.800971 1_656
In2 Pd0 2.801112 1_556
In2 Pd1 2.806024 1_545
In3 Pd1 2.767323 1_555
In3 Pd3 2.800928 1_655
In3 Pd3 2.801186 1_555
In3 Pd2 2.805925 1_555
