# generated using pymatgen
data_InBi37Br48
_symmetry_space_group_name_H-M   'P 1'
_cell_length_a   22.91885555
_cell_length_b   22.91885555
_cell_length_c   13.38791000
_cell_angle_alpha   90.00000000
_cell_angle_beta   90.00000000
_cell_angle_gamma   119.99999870
_symmetry_Int_Tables_number   1
_chemical_formula_structural   InBi37Br48
_chemical_formula_sum   'In2 Bi74 Br96'
_cell_volume   6090.16804611
_cell_formula_units_Z   2
loop_
 _symmetry_equiv_pos_site_id
 _symmetry_equiv_pos_as_xyz
  1  'x, y, z'
loop_
 _atom_site_type_symbol
 _atom_site_label
 _atom_site_symmetry_multiplicity
 _atom_site_fract_x
 _atom_site_fract_y
 _atom_site_fract_z
 _atom_site_occupancy
  In  In0  1  0.66666700  0.33333300  0.98840500  1
  In  In1  1  0.33333300  0.66666700  0.48840500  1
  Bi  Bi0  1  0.69274100  0.19303900  0.76828400  1
  Bi  Bi1  1  0.25952000  0.24261100  0.71520900  1
  Bi  Bi2  1  0.76211900  0.56330400  0.58555300  1
  Bi  Bi3  1  0.71665000  0.88602400  0.19827600  1
  Bi  Bi4  1  0.47802000  0.19361100  0.19497900  1
  Bi  Bi5  1  0.19881500  0.76211900  0.08555300  1
  Bi  Bi6  1  0.49970200  0.69274100  0.26828400  1
  Bi  Bi7  1  0.71559100  0.52198000  0.19497900  1
  Bi  Bi8  1  0.88220800  0.67069700  0.89611100  1
  Bi  Bi9  1  0.11397600  0.83062700  0.19827600  1
  Bi  Bi10  1  0.73457800  0.58296900  0.81706700  1
  Bi  Bi11  1  0.98309200  0.74048000  0.71520900  1
  Bi  Bi12  1  0.44635200  0.40751300  0.16485200  1
  Bi  Bi13  1  0.59248700  0.03883900  0.16485200  1
  Bi  Bi14  1  0.16937300  0.28335000  0.19827600  1
  Bi  Bi15  1  0.24261100  0.98309200  0.21520900  1
  Bi  Bi16  1  0.39743900  0.35912500  0.79899400  1
  Bi  Bi17  1  0.96168600  0.60256100  0.79899400  1
  Bi  Bi18  1  0.80118500  0.23788100  0.58555300  1
  Bi  Bi19  1  0.95666200  0.87217100  0.05589300  1
  Bi  Bi20  1  0.41703100  0.15160900  0.81706700  1
  Bi  Bi21  1  0.35912500  0.96168600  0.29899400  1
  Bi  Bi22  1  0.12782900  0.08449100  0.05589300  1
  Bi  Bi23  1  0.56330400  0.80118500  0.08555300  1
  Bi  Bi24  1  0.30725900  0.80696100  0.26828400  1
  Bi  Bi25  1  0.26542200  0.41703100  0.31706700  1
  Bi  Bi26  1  0.58296900  0.84839100  0.31706700  1
  Bi  Bi27  1  0.80696100  0.49970200  0.76828400  1
  Bi  Bi28  1  0.78624200  0.09811900  0.51406300  1
  Bi  Bi29  1  0.96116100  0.55364800  0.16485200  1
  Bi  Bi30  1  0.19361100  0.71559100  0.69497900  1
  Bi  Bi31  1  0.40751300  0.96116100  0.66485200  1
  Bi  Bi32  1  0.84839100  0.26542200  0.81706700  1
  Bi  Bi33  1  0.23788100  0.43669600  0.08555300  1
  Bi  Bi34  1  0.88602400  0.16937300  0.69827600  1
  Bi  Bi35  1  0.75738900  0.01690800  0.71520900  1
  Bi  Bi36  1  0.64087500  0.03831400  0.79899400  1
  Bi  Bi37  1  0.83062700  0.71665000  0.69827600  1
  Bi  Bi38  1  0.03883900  0.44635200  0.66485200  1
  Bi  Bi39  1  0.28440900  0.47802000  0.69497900  1
  Bi  Bi40  1  0.65409000  0.09610400  0.58156100  1
  Bi  Bi41  1  0.08449100  0.95666200  0.55589300  1
  Bi  Bi42  1  0.31187800  0.21375800  0.51406300  1
  Bi  Bi43  1  0.60256100  0.64087500  0.29899400  1
  Bi  Bi44  1  0.87217100  0.91550900  0.55589300  1
  Bi  Bi45  1  0.74048000  0.75738900  0.21520900  1
  Bi  Bi46  1  0.67069700  0.78849000  0.39611100  1
  Bi  Bi47  1  0.55364800  0.59248700  0.66485200  1
  Bi  Bi48  1  0.66666700  0.33333300  0.43844100  1
  Bi  Bi49  1  0.33333300  0.66666700  0.93844100  1
  Bi  Bi50  1  0.68812200  0.78624200  0.01406300  1
  Bi  Bi51  1  0.43669600  0.19881500  0.58555300  1
  Bi  Bi52  1  0.90389600  0.55798600  0.58156100  1
  Bi  Bi53  1  0.32930300  0.21151000  0.89611100  1
  Bi  Bi54  1  0.80638900  0.28440900  0.19497900  1
  Bi  Bi55  1  0.34591000  0.90389600  0.08156100  1
  Bi  Bi56  1  0.21151000  0.88220800  0.39611100  1
  Bi  Bi57  1  0.15160900  0.73457800  0.31706700  1
  Bi  Bi58  1  0.44201400  0.34591000  0.58156100  1
  Bi  Bi59  1  0.52198000  0.80638900  0.69497900  1
  Bi  Bi60  1  0.01690800  0.25952000  0.21520900  1
  Bi  Bi61  1  0.11779200  0.32930300  0.39611100  1
  Bi  Bi62  1  0.19303900  0.50029800  0.26828400  1
  Bi  Bi63  1  0.91550900  0.04333800  0.05589300  1
  Bi  Bi64  1  0.55798600  0.65409000  0.08156100  1
  Bi  Bi65  1  0.09811900  0.31187800  0.01406300  1
  Bi  Bi66  1  0.50029800  0.30725900  0.76828400  1
  Bi  Bi67  1  0.04333800  0.12782900  0.55589300  1
  Bi  Bi68  1  0.21375800  0.90188100  0.01406300  1
  Bi  Bi69  1  0.09610400  0.44201400  0.08156100  1
  Bi  Bi70  1  0.90188100  0.68812200  0.51406300  1
  Bi  Bi71  1  0.03831400  0.39743900  0.29899400  1
  Bi  Bi72  1  0.28335000  0.11397600  0.69827600  1
  Bi  Bi73  1  0.78849000  0.11779200  0.89611100  1
  Br  Br0  1  0.92111100  0.76529600  0.17693700  1
  Br  Br1  1  0.15967400  0.19904100  0.94222900  1
  Br  Br2  1  0.42735200  0.51162000  0.23818300  1
  Br  Br3  1  0.71075600  0.61393400  0.06068200  1
  Br  Br4  1  0.76669600  0.63078500  0.32164000  1
  Br  Br5  1  0.47687100  0.70764100  0.86330200  1
  Br  Br6  1  0.58916300  0.22187300  0.55975700  1
  Br  Br7  1  0.48859000  0.51116000  0.50482400  1
  Br  Br8  1  0.48884000  0.97743000  0.50482400  1
  Br  Br9  1  0.76529600  0.84418500  0.67693700  1
  Br  Br10  1  0.47818000  0.89281600  0.77842700  1
  Br  Br11  1  0.97395500  0.32779700  0.55244200  1
  Br  Br12  1  0.20392600  0.04399700  0.93539500  1
  Br  Br13  1  0.02257000  0.51141000  0.50482400  1
  Br  Br14  1  0.97743000  0.48859000  0.00482400  1
  Br  Br15  1  0.04399700  0.84007100  0.43539500  1
  Br  Br16  1  0.33333300  0.66666700  0.68917400  1
  Br  Br17  1  0.19904100  0.03936800  0.44222900  1
  Br  Br18  1  0.79607400  0.95600300  0.43539500  1
  Br  Br19  1  0.36921500  0.13591000  0.32164000  1
  Br  Br20  1  0.00000000  0.00000000  0.42881600  1
  Br  Br21  1  0.15992900  0.20392600  0.43539500  1
  Br  Br22  1  0.66666700  0.33333300  0.18917400  1
  Br  Br23  1  0.61393400  0.90317800  0.56068200  1
  Br  Br24  1  0.02604500  0.67220300  0.05244200  1
  Br  Br25  1  0.80095900  0.96063200  0.94222900  1
  Br  Br26  1  0.23330400  0.36921500  0.82164000  1
  Br  Br27  1  0.32901700  0.97295600  0.83590000  1
  Br  Br28  1  0.70943800  0.16481400  0.07694200  1
  Br  Br29  1  0.15581500  0.92111100  0.67693700  1
  Br  Br30  1  0.95600300  0.15992900  0.93539500  1
  Br  Br31  1  0.07690100  0.95938500  0.18434000  1
  Br  Br32  1  0.77812700  0.36729000  0.55975700  1
  Br  Br33  1  0.67220300  0.64615800  0.55244200  1
  Br  Br34  1  0.92309900  0.04061500  0.68434000  1
  Br  Br35  1  0.83518600  0.54462500  0.07694200  1
  Br  Br36  1  0.89281600  0.41463600  0.27842700  1
  Br  Br37  1  0.97295600  0.64393900  0.33590000  1
  Br  Br38  1  0.11751600  0.07690100  0.68434000  1
  Br  Br39  1  0.36729000  0.58916300  0.05975700  1
  Br  Br40  1  0.38606600  0.09682200  0.06068200  1
  Br  Br41  1  0.96063200  0.15967400  0.44222900  1
  Br  Br42  1  0.64615800  0.97395500  0.05244200  1
  Br  Br43  1  0.08426700  0.57264800  0.23818300  1
  Br  Br44  1  0.63271000  0.41083700  0.55975700  1
  Br  Br45  1  0.91573300  0.42735200  0.73818300  1
  Br  Br46  1  0.84007100  0.79607400  0.93539500  1
  Br  Br47  1  0.43489700  0.78955200  0.48880200  1
  Br  Br48  1  0.64393900  0.67098300  0.83590000  1
  Br  Br49  1  0.84032600  0.80095900  0.44222900  1
  Br  Br50  1  0.07888900  0.23470400  0.67693700  1
  Br  Br51  1  0.03936800  0.84032600  0.94222900  1
  Br  Br52  1  0.00000000  0.00000000  0.92881600  1
  Br  Br53  1  0.52312900  0.29235900  0.36330200  1
  Br  Br54  1  0.13591000  0.76669600  0.82164000  1
  Br  Br55  1  0.67098300  0.02704400  0.33590000  1
  Br  Br56  1  0.76923100  0.47687100  0.36330200  1
  Br  Br57  1  0.32779700  0.35384200  0.05244200  1
  Br  Br58  1  0.56510300  0.21044800  0.98880200  1
  Br  Br59  1  0.45537500  0.29056200  0.07694200  1
  Br  Br60  1  0.21044800  0.64534500  0.48880200  1
  Br  Br61  1  0.16481400  0.45537500  0.57694200  1
  Br  Br62  1  0.86409000  0.23330400  0.32164000  1
  Br  Br63  1  0.29056200  0.83518600  0.57694200  1
  Br  Br64  1  0.57264800  0.48838000  0.73818300  1
  Br  Br65  1  0.51162000  0.08426700  0.73818300  1
  Br  Br66  1  0.09682200  0.71075600  0.56068200  1
  Br  Br67  1  0.51141000  0.48884000  0.00482400  1
  Br  Br68  1  0.41083700  0.77812700  0.05975700  1
  Br  Br69  1  0.35606100  0.32901700  0.33590000  1
  Br  Br70  1  0.23470400  0.15581500  0.17693700  1
  Br  Br71  1  0.54462500  0.70943800  0.57694200  1
  Br  Br72  1  0.90317800  0.28924400  0.06068200  1
  Br  Br73  1  0.66666700  0.33333300  0.78794300  1
  Br  Br74  1  0.29235900  0.76923100  0.86330200  1
  Br  Br75  1  0.35465500  0.56510300  0.48880200  1
  Br  Br76  1  0.28924400  0.38606600  0.56068200  1
  Br  Br77  1  0.70764100  0.23076900  0.36330200  1
  Br  Br78  1  0.41463600  0.52182000  0.77842700  1
  Br  Br79  1  0.48838000  0.91573300  0.23818300  1
  Br  Br80  1  0.22187300  0.63271000  0.05975700  1
  Br  Br81  1  0.58536400  0.47818000  0.27842700  1
  Br  Br82  1  0.64534500  0.43489700  0.98880200  1
  Br  Br83  1  0.33333300  0.66666700  0.28794300  1
  Br  Br84  1  0.02704400  0.35606100  0.83590000  1
  Br  Br85  1  0.51116000  0.02257000  0.00482400  1
  Br  Br86  1  0.52182000  0.10718400  0.27842700  1
  Br  Br87  1  0.84418500  0.07888900  0.17693700  1
  Br  Br88  1  0.63078500  0.86409000  0.82164000  1
  Br  Br89  1  0.10718400  0.58536400  0.77842700  1
  Br  Br90  1  0.23076900  0.52312900  0.86330200  1
  Br  Br91  1  0.78955200  0.35465500  0.98880200  1
  Br  Br92  1  0.95938500  0.88248400  0.68434000  1
  Br  Br93  1  0.88248400  0.92309900  0.18434000  1
  Br  Br94  1  0.04061500  0.11751600  0.18434000  1
  Br  Br95  1  0.35384200  0.02604500  0.55244200  1
loop_
_geom_bond_atom_site_label_1
_geom_bond_atom_site_label_2
_geom_bond_distance
_geom_bond_site_symmetry_2
Bi0 Bi32 3.160131 1_555
Bi2 Br44 3.280627 1_555
Bi4 Br19 2.746826 1_555
Bi4 Br40 2.814238 1_555
Bi4 Br86 2.857946 1_555
Bi4 Br59 2.976094 1_555
Bi4 Br53 2.988195 1_555
Bi4 Br58 3.313800 1_554
Bi5 Bi57 3.239270 1_555
Bi5 Br80 3.280627 1_555
Bi7 Br4 2.746826 1_555
Bi7 Br3 2.814238 1_555
Bi7 Br81 2.857946 1_555
Bi7 Br35 2.976075 1_555
Bi7 Br56 2.988209 1_555
Bi7 Br82 3.313800 1_554
Bi10 Bi8 3.131716 1_555
Bi10 Bi27 3.160131 1_555
Bi10 Bi37 3.165061 1_555
Bi10 Bi2 3.239270 1_555
Bi10 Br64 3.397479 1_555
Bi10 Br3 3.438976 1_556
Bi12 Br67 2.740126 1_555
Bi12 Br57 2.796158 1_555
Bi12 Br2 2.808117 1_555
Bi12 Br69 3.006648 1_555
Bi12 Br59 3.027653 1_555
Bi12 Br81 3.150500 1_555
Bi13 Br85 2.740126 1_555
Bi13 Br42 2.796158 1_545
Bi13 Br79 2.808104 1_545
Bi13 Br55 3.006648 1_555
Bi13 Br28 3.027664 1_555
Bi13 Br86 3.150500 1_555
Bi14 Bi25 3.165061 1_555
Bi18 Bi32 3.239270 1_555
Bi18 Br32 3.280627 1_555
Bi19 Br0 2.700744 1_555
Bi19 Br51 2.797284 1_654
Bi19 Br46 2.850288 1_554
Bi19 Br31 3.006383 1_655
Bi19 Br93 3.032183 1_555
Bi19 Br52 3.090976 1_664
Bi20 Bi53 3.131699 1_555
Bi20 Bi66 3.160131 1_555
Bi20 Bi72 3.165056 1_555
Bi20 Bi51 3.239270 1_555
Bi20 Br65 3.397496 1_555
Bi20 Br40 3.438976 1_556
Bi22 Br70 2.700744 1_555
Bi22 Br1 2.797266 1_554
Bi22 Br12 2.850288 1_554
Bi22 Br94 3.006383 1_555
Bi22 Br31 3.032183 1_545
Bi22 Br52 3.090976 1_554
Bi23 Bi26 3.239270 1_555
Bi23 Br68 3.280627 1_555
Bi24 Bi57 3.160131 1_555
Bi25 Bi61 3.131716 1_555
Bi25 Bi62 3.160131 1_555
Bi25 Bi33 3.239270 1_555
Bi25 Br2 3.397479 1_555
Bi25 Br76 3.438976 1_555
Bi26 Bi46 3.131699 1_555
Bi26 Bi6 3.160131 1_555
Bi26 Bi3 3.165056 1_555
Bi26 Br79 3.397496 1_555
Bi26 Br23 3.438976 1_555
Bi28 Br55 3.319313 1_555
Bi29 Br14 2.740126 1_555
Bi29 Br24 2.796158 1_655
Bi29 Br43 2.808096 1_655
Bi29 Br37 3.006648 1_555
Bi29 Br35 3.027674 1_555
Bi29 Br36 3.150500 1_555
Bi30 Br54 2.746842 1_555
Bi30 Br66 2.814238 1_555
Bi30 Br89 2.857946 1_555
Bi30 Br63 2.976081 1_555
Bi30 Br74 2.988196 1_555
Bi30 Br60 3.313800 1_555
Bi31 Br8 2.740126 1_555
Bi31 Br95 2.796158 1_565
Bi31 Br65 2.808104 1_565
Bi31 Br27 3.006648 1_555
Bi31 Br63 3.027664 1_555
Bi31 Br10 3.150500 1_555
Bi32 Bi73 3.131718 1_555
Bi32 Bi34 3.165075 1_555
Bi32 Br45 3.397477 1_555
Bi32 Br72 3.438976 1_556
Bi33 Br39 3.280627 1_555
Bi38 Br13 2.740126 1_555
Bi38 Br11 2.796158 1_455
Bi38 Br45 2.808096 1_455
Bi38 Br84 3.006648 1_555
Bi38 Br61 3.027674 1_555
Bi38 Br89 3.150500 1_555
Bi39 Br26 2.746826 1_555
Bi39 Br76 2.814238 1_555
Bi39 Br78 2.857946 1_555
Bi39 Br61 2.976075 1_555
Bi39 Br90 2.988209 1_555
Bi39 Br75 3.313800 1_555
Bi41 Br29 2.700744 1_555
Bi41 Br17 2.797270 1_565
Bi41 Br15 2.850288 1_555
Bi41 Br38 3.006383 1_565
Bi41 Br92 3.032183 1_455
Bi41 Br20 3.090976 1_565
Bi42 Br69 3.319315 1_555
Bi44 Br9 2.700744 1_555
Bi44 Br49 2.797266 1_555
Bi44 Br18 2.850288 1_555
Bi44 Br92 3.006383 1_555
Bi44 Br34 3.032183 1_565
Bi44 Br20 3.090976 1_665
Bi47 Br7 2.740126 1_555
Bi47 Br33 2.796158 1_555
Bi47 Br64 2.808117 1_555
Bi47 Br48 3.006648 1_555
Bi47 Br71 3.027653 1_555
Bi47 Br78 3.150500 1_555
Bi48 Br32 2.789475 1_555
Bi48 Br6 2.789480 1_555
Bi48 Br44 2.789493 1_555
Bi48 Br77 3.102709 1_555
Bi48 Br53 3.102709 1_555
Bi48 Br56 3.102709 1_555
Bi48 Br22 3.337164 1_555
Bi49 Br80 2.789475 1_556
Bi49 Br68 2.789480 1_556
Bi49 Br39 2.789493 1_556
Bi49 Br74 3.102709 1_555
Bi49 Br5 3.102709 1_555
Bi49 Br90 3.102709 1_555
Bi49 Br16 3.337164 1_555
Bi50 Br48 3.319315 1_554
Bi51 Br6 3.280627 1_555
Bi54 Br62 2.746842 1_555
Bi54 Br72 2.814238 1_555
Bi54 Br36 2.857946 1_555
Bi54 Br28 2.976081 1_555
Bi54 Br77 2.988196 1_555
Bi54 Br91 3.313800 1_554
Bi56 Bi57 3.131718 1_555
Bi57 Bi9 3.165075 1_555
Bi57 Br43 3.397477 1_555
Bi57 Br66 3.438976 1_555
Bi59 Br88 2.746826 1_555
Bi59 Br23 2.814238 1_555
Bi59 Br10 2.857946 1_555
Bi59 Br71 2.976094 1_555
Bi59 Br5 2.988195 1_555
Bi59 Br47 3.313800 1_555
Bi63 Br87 2.700744 1_555
Bi63 Br25 2.797270 1_544
Bi63 Br30 2.850288 1_554
Bi63 Br93 3.006383 1_545
Bi63 Br94 3.032183 1_655
Bi63 Br52 3.090976 1_654
Bi65 Br84 3.319300 1_554
Bi67 Br50 2.700744 1_555
Bi67 Br41 2.797284 1_455
Bi67 Br21 2.850288 1_555
Bi67 Br34 3.006383 1_455
Bi67 Br38 3.032183 1_555
Bi67 Br20 3.090976 1_555
Bi68 Br27 3.319313 1_554
Bi70 Br37 3.319300 1_555
Br16 In1 2.687877 1_555
Br22 In0 2.687877 1_554
Br47 In1 2.606644 1_555
Br58 In0 2.606644 1_555
Br60 In1 2.606636 1_555
Br73 In0 2.683767 1_555
Br75 In1 2.606658 1_555
Br82 In0 2.606658 1_555
Br83 In1 2.683767 1_555
Br91 In0 2.606636 1_555
