# generated using pymatgen
data_Ca2HoF7
_symmetry_space_group_name_H-M   'P 1'
_cell_length_a   4.30468047
_cell_length_b   4.30468047
_cell_length_c   30.33645987
_cell_angle_alpha   84.61415345
_cell_angle_beta   84.61415345
_cell_angle_gamma   50.68387091
_symmetry_Int_Tables_number   1
_chemical_formula_structural   Ca2HoF7
_chemical_formula_sum   'Ca6 Ho3 F21'
_cell_volume   432.55668105
_cell_formula_units_Z   3
loop_
 _symmetry_equiv_pos_site_id
 _symmetry_equiv_pos_as_xyz
  1  'x, y, z'
loop_
 _atom_site_type_symbol
 _atom_site_label
 _atom_site_symmetry_multiplicity
 _atom_site_fract_x
 _atom_site_fract_y
 _atom_site_fract_z
 _atom_site_occupancy
  Ca  Ca0  1  0.98530000  0.98530000  0.00229600  1
  Ca  Ca1  1  0.69258300  0.69258300  0.08884300  1
  Ca  Ca2  1  0.11083500  0.11083500  0.21115900  1
  Ca  Ca3  1  0.52609200  0.52609200  0.33351900  1
  Ca  Ca4  1  0.09731100  0.09731100  0.45458800  1
  Ca  Ca5  1  0.47638700  0.47638700  0.87625400  1
  Ho  Ho0  1  0.82644700  0.82644700  0.54930500  1
  Ho  Ho1  1  0.39076800  0.39076800  0.65800200  1
  Ho  Ho2  1  0.95378600  0.95378600  0.76675400  1
  F  F0  1  0.01161800  0.01161800  0.09440700  1
  F  F1  1  0.69440100  0.69440100  0.16400700  1
  F  F2  1  0.41368100  0.41368100  0.22173500  1
  F  F3  1  0.11208900  0.11208900  0.28600300  1
  F  F4  1  0.78450000  0.78450000  0.46902800  1
  F  F5  1  0.83069100  0.83069100  0.34355200  1
  F  F6  1  0.53679000  0.53679000  0.40796300  1
  F  F7  1  0.32627600  0.32627600  0.58587500  1
  F  F8  1  0.44799800  0.44799800  0.50468900  1
  F  F9  1  0.11981700  0.11981700  0.53141300  1
  F  F10  1  0.87483900  0.87483900  0.69467800  1
  F  F11  1  0.97978800  0.97978800  0.61115600  1
  F  F12  1  0.40320200  0.40320200  0.80497600  1
  F  F13  1  0.66734200  0.66734200  0.63647100  1
  F  F14  1  0.53683200  0.53683200  0.72058600  1
  F  F15  1  0.22458600  0.22458600  0.74374400  1
  F  F16  1  0.01481500  0.01481500  0.93492900  1
  F  F17  1  0.07524800  0.07524800  0.83148000  1
  F  F18  1  0.76624200  0.76624200  0.88279300  1
  F  F19  1  0.66356300  0.66356300  0.01025500  1
  F  F20  1  0.33894800  0.33894800  0.05009700  1
loop_
_geom_bond_atom_site_label_1
_geom_bond_atom_site_label_2
_geom_bond_distance
_geom_bond_site_symmetry_2
Ca0 F16 2.032699 1_664
Ca0 F19 2.333775 1_655
Ca0 F19 2.333775 1_565
Ca0 F19 2.489928 1_555
Ca0 F20 2.539947 1_565
Ca0 F20 2.539947 1_655
Ca0 F0 2.822946 1_665
Ca1 F1 2.281722 1_555
Ca1 F0 2.314419 1_565
Ca1 F0 2.314419 1_655
Ca1 F20 2.407341 1_565
Ca1 F20 2.407341 1_655
Ca1 F19 2.417985 1_555
Ca1 F0 2.505533 1_665
Ca2 F3 2.271536 1_555
Ca2 F1 2.381274 1_545
Ca2 F1 2.381274 1_455
Ca2 F2 2.397648 1_545
Ca2 F2 2.397648 1_455
Ca2 F2 2.410940 1_555
Ca3 F6 2.268524 1_555
Ca3 F5 2.388068 1_545
Ca3 F5 2.388068 1_455
Ca3 F3 2.391648 1_565
Ca3 F3 2.391648 1_655
Ca3 F5 2.420661 1_555
Ca4 F9 2.355234 1_555
Ca4 F6 2.399061 1_545
Ca4 F6 2.399061 1_455
Ca4 F4 2.416725 1_455
Ca4 F4 2.416725 1_545
Ca4 F4 2.427862 1_445
Ca4 F8 2.586075 1_545
Ca4 F8 2.586075 1_455
Ca5 F18 2.284464 1_555
Ca5 F12 2.292524 1_555
Ca5 F17 2.369468 1_565
Ca5 F17 2.369468 1_655
Ca5 F18 2.457708 1_455
Ca5 F18 2.457708 1_545
Ca5 F16 2.600593 1_655
Ca5 F16 2.600593 1_565
F4 Ho0 2.490464 1_555
F7 Ho0 2.150635 1_545
F7 Ho0 2.150635 1_455
F7 Ho1 2.295116 1_555
F8 Ho0 2.419771 1_545
F8 Ho0 2.419771 1_455
F9 Ho0 2.290822 1_445
F9 Ho0 2.540774 1_455
F9 Ho0 2.540774 1_545
F10 Ho1 2.149279 1_655
F10 Ho1 2.149279 1_565
F10 Ho2 2.331789 1_555
F11 Ho0 2.325772 1_555
F11 Ho1 2.385311 1_655
F11 Ho1 2.385311 1_565
F12 Ho2 2.190745 1_455
F12 Ho2 2.190745 1_545
F13 Ho1 2.183054 1_555
F13 Ho1 2.660727 1_565
F13 Ho1 2.660727 1_655
F13 Ho0 2.800890 1_555
F14 Ho1 2.311803 1_555
F14 Ho2 2.363455 1_545
F14 Ho2 2.363455 1_455
F15 Ho2 2.149759 1_445
F15 Ho2 2.705740 1_545
F15 Ho2 2.705740 1_455
F15 Ho1 2.781926 1_555
F17 Ho2 2.265876 1_445
