# generated using pymatgen
data_GeS2
_symmetry_space_group_name_H-M   'P 1'
_cell_length_a   12.78558302
_cell_length_b   11.99576282
_cell_length_c   6.95108916
_cell_angle_alpha   80.07464674
_cell_angle_beta   67.54554455
_cell_angle_gamma   32.37980871
_symmetry_Int_Tables_number   1
_chemical_formula_structural   GeS2
_chemical_formula_sum   'Ge6 S12'
_cell_volume   502.76212865
_cell_formula_units_Z   6
loop_
 _symmetry_equiv_pos_site_id
 _symmetry_equiv_pos_as_xyz
  1  'x, y, z'
loop_
 _atom_site_type_symbol
 _atom_site_label
 _atom_site_symmetry_multiplicity
 _atom_site_fract_x
 _atom_site_fract_y
 _atom_site_fract_z
 _atom_site_occupancy
  Ge  Ge0  1  0.51113900  0.98999900  0.99714700  1
  Ge  Ge1  1  0.24890200  0.74820700  0.74756500  1
  Ge  Ge2  1  0.49217800  0.72682600  0.25912100  1
  Ge  Ge3  1  0.51471600  0.26480200  0.73246900  1
  Ge  Ge4  1  0.98785400  0.73759500  0.76192000  1
  Ge  Ge5  1  0.51224800  0.76578400  0.72846900  1
  S  S0  1  0.28207400  0.06845800  0.29909000  1
  S  S1  1  0.35296700  0.29376400  0.07288600  1
  S  S2  1  0.95670600  0.89736400  0.96642800  1
  S  S3  1  0.19086500  0.95869900  0.89253200  1
  S  S4  1  0.84984400  0.69120900  0.97684700  1
  S  S5  1  0.48936900  0.97279000  0.69389800  1
  S  S6  1  0.26646700  0.77137700  0.40480200  1
  S  S7  1  0.55375000  0.40752400  0.77477400  1
  S  S8  1  0.72144600  0.51422500  0.90896800  1
  S  S9  1  0.85741900  0.90435000  0.52571000  1
  S  S10  1  0.33986300  0.40221700  0.53407800  1
  S  S11  1  0.72382400  0.53693200  0.40329300  1
loop_
_geom_bond_atom_site_label_1
_geom_bond_atom_site_label_2
_geom_bond_distance
_geom_bond_site_symmetry_2
Ge0 S1 2.246381 1_566
Ge0 S4 2.260788 1_555
Ge0 S0 2.279910 1_566
Ge0 S5 2.293171 1_555
Ge1 S2 2.186150 1_455
Ge1 S3 2.254551 1_555
Ge1 S6 2.296248 1_555
Ge1 S7 2.306840 1_555
Ge2 S6 2.233479 1_555
Ge2 S11 2.247273 1_555
Ge2 S8 2.254697 1_554
Ge2 S0 2.305694 1_565
Ge3 S10 2.227987 1_555
Ge3 S7 2.235071 1_555
Ge3 S9 2.300468 1_545
Ge3 S1 2.308342 1_556
Ge4 S9 2.191667 1_555
Ge4 S4 2.239021 1_555
Ge4 S2 2.251702 1_555
Ge4 S10 2.262376 1_655
Ge5 S3 2.193024 1_555
Ge5 S11 2.210948 1_555
Ge5 S5 2.220511 1_555
Ge5 S8 2.336675 1_555
