# generated using pymatgen
data_Cs2Co2(MoO4)3
_symmetry_space_group_name_H-M   'P 1'
_cell_length_a   11.02117200
_cell_length_b   11.02117200
_cell_length_c   11.02117200
_cell_angle_alpha   90.00000000
_cell_angle_beta   90.00000000
_cell_angle_gamma   90.00000000
_symmetry_Int_Tables_number   1
_chemical_formula_structural   Cs2Co2(MoO4)3
_chemical_formula_sum   'Cs8 Co8 Mo12 O48'
_cell_volume   1338.70023786
_cell_formula_units_Z   4
loop_
 _symmetry_equiv_pos_site_id
 _symmetry_equiv_pos_as_xyz
  1  'x, y, z'
loop_
 _atom_site_type_symbol
 _atom_site_label
 _atom_site_symmetry_multiplicity
 _atom_site_fract_x
 _atom_site_fract_y
 _atom_site_fract_z
 _atom_site_occupancy
  Cs  Cs0  1  0.45788500  0.04211500  0.95788500  1
  Cs  Cs1  1  0.82096000  0.17904000  0.67904000  1
  Cs  Cs2  1  0.17904000  0.67904000  0.82096000  1
  Cs  Cs3  1  0.95788500  0.45788500  0.04211500  1
  Cs  Cs4  1  0.67904000  0.82096000  0.17904000  1
  Cs  Cs5  1  0.32096000  0.32096000  0.32096000  1
  Cs  Cs6  1  0.04211500  0.95788500  0.45788500  1
  Cs  Cs7  1  0.54211500  0.54211500  0.54211500  1
  Co  Co0  1  0.88786800  0.61213200  0.38786800  1
  Co  Co1  1  0.11213200  0.11213200  0.11213200  1
  Co  Co2  1  0.33732900  0.66267100  0.16267100  1
  Co  Co3  1  0.83732900  0.83732900  0.83732900  1
  Co  Co4  1  0.16267100  0.33732900  0.66267100  1
  Co  Co5  1  0.66267100  0.16267100  0.33732900  1
  Co  Co6  1  0.61213200  0.38786800  0.88786800  1
  Co  Co7  1  0.38786800  0.88786800  0.61213200  1
  Mo  Mo0  1  0.19929000  0.62398200  0.47372900  1
  Mo  Mo1  1  0.87601800  0.52627100  0.69929000  1
  Mo  Mo2  1  0.30071000  0.37601800  0.97372900  1
  Mo  Mo3  1  0.80071000  0.12398200  0.02627100  1
  Mo  Mo4  1  0.47372900  0.19929000  0.62398200  1
  Mo  Mo5  1  0.02627100  0.80071000  0.12398200  1
  Mo  Mo6  1  0.69929000  0.87601800  0.52627100  1
  Mo  Mo7  1  0.62398200  0.47372900  0.19929000  1
  Mo  Mo8  1  0.97372900  0.30071000  0.37601800  1
  Mo  Mo9  1  0.52627100  0.69929000  0.87601800  1
  Mo  Mo10  1  0.37601800  0.97372900  0.30071000  1
  Mo  Mo11  1  0.12398200  0.02627100  0.80071000  1
  O  O0  1  0.98406300  0.45770700  0.32953400  1
  O  O1  1  0.39760800  0.81948700  0.25491400  1
  O  O2  1  0.94559400  0.77544000  0.98350900  1
  O  O3  1  0.54927000  0.28787400  0.73799900  1
  O  O4  1  0.21212600  0.26200100  0.04927000  1
  O  O5  1  0.32953400  0.98406300  0.45770700  1
  O  O6  1  0.05440600  0.27544000  0.51649100  1
  O  O7  1  0.25491400  0.39760800  0.81948700  1
  O  O8  1  0.48350900  0.55440600  0.22456000  1
  O  O9  1  0.23799900  0.95073000  0.71212600  1
  O  O10  1  0.54229300  0.82953400  0.51593700  1
  O  O11  1  0.67046600  0.48406300  0.04229300  1
  O  O12  1  0.74508600  0.89760800  0.68051300  1
  O  O13  1  0.01593700  0.95770700  0.17046600  1
  O  O14  1  0.22456000  0.48350900  0.55440600  1
  O  O15  1  0.75491400  0.10239200  0.18051300  1
  O  O16  1  0.51593700  0.54229300  0.82953400  1
  O  O17  1  0.73799900  0.54927000  0.28787400  1
  O  O18  1  0.95073000  0.71212600  0.23799900  1
  O  O19  1  0.98350900  0.94559400  0.77544000  1
  O  O20  1  0.77544000  0.98350900  0.94559400  1
  O  O21  1  0.17046600  0.01593700  0.95770700  1
  O  O22  1  0.24508600  0.60239200  0.31948700  1
  O  O23  1  0.45770700  0.32953400  0.98406300  1
  O  O24  1  0.18051300  0.75491400  0.10239200  1
  O  O25  1  0.04927000  0.21212600  0.26200100  1
  O  O26  1  0.44559400  0.72456000  0.01649100  1
  O  O27  1  0.31948700  0.24508600  0.60239200  1
  O  O28  1  0.45073000  0.78787400  0.76200100  1
  O  O29  1  0.26200100  0.04927000  0.21212600  1
  O  O30  1  0.68051300  0.74508600  0.89760800  1
  O  O31  1  0.95770700  0.17046600  0.01593700  1
  O  O32  1  0.78787400  0.76200100  0.45073000  1
  O  O33  1  0.01649100  0.44559400  0.72456000  1
  O  O34  1  0.71212600  0.23799900  0.95073000  1
  O  O35  1  0.04229300  0.67046600  0.48406300  1
  O  O36  1  0.55440600  0.22456000  0.48350900  1
  O  O37  1  0.28787400  0.73799900  0.54927000  1
  O  O38  1  0.89760800  0.68051300  0.74508600  1
  O  O39  1  0.51649100  0.05440600  0.27544000  1
  O  O40  1  0.76200100  0.45073000  0.78787400  1
  O  O41  1  0.10239200  0.18051300  0.75491400  1
  O  O42  1  0.82953400  0.51593700  0.54229300  1
  O  O43  1  0.48406300  0.04229300  0.67046600  1
  O  O44  1  0.27544000  0.51649100  0.05440600  1
  O  O45  1  0.81948700  0.25491400  0.39760800  1
  O  O46  1  0.72456000  0.01649100  0.44559400  1
  O  O47  1  0.60239200  0.31948700  0.24508600  1
loop_
_geom_bond_atom_site_label_1
_geom_bond_atom_site_label_2
_geom_bond_distance
_geom_bond_site_symmetry_2
Cs0 O23 3.180806 1_555
Cs0 O43 3.180806 1_555
Cs0 O21 3.180806 1_555
Cs0 O29 3.538126 1_556
Cs0 O34 3.538126 1_555
Cs0 O28 3.538126 1_545
Cs0 O39 3.561509 1_556
Cs0 O26 3.561509 1_546
Cs0 O20 3.561509 1_545
Cs1 O41 3.212497 1_655
Cs1 O12 3.212497 1_545
Cs1 O45 3.212497 1_555
Cs1 O3 3.290451 1_555
Cs1 O40 3.290451 1_555
Cs1 O34 3.290451 1_555
Cs1 O6 3.310247 1_655
Cs1 O46 3.310247 1_555
Cs1 O19 3.310247 1_545
Cs2 O24 3.212497 1_556
Cs2 O38 3.212497 1_455
Cs2 O7 3.212497 1_555
Cs2 O37 3.290451 1_555
Cs2 O28 3.290451 1_555
Cs2 O9 3.290451 1_555
Cs2 O44 3.310247 1_556
Cs2 O33 3.310247 1_555
Cs2 O2 3.310247 1_455
Cs3 O11 3.180806 1_555
Cs3 O0 3.180806 1_555
Cs3 O31 3.180806 1_555
Cs3 O4 3.538126 1_655
Cs3 O18 3.538126 1_555
Cs3 O40 3.538126 1_554
Cs3 O33 3.561509 1_654
Cs3 O44 3.561509 1_655
Cs3 O2 3.561509 1_554
Cs4 O15 3.212497 1_565
Cs4 O30 3.212497 1_554
Cs4 O1 3.212497 1_555
Cs4 O17 3.290451 1_555
Cs4 O32 3.290451 1_555
Cs4 O18 3.290451 1_555
Cs4 O39 3.310247 1_565
Cs4 O26 3.310247 1_555
Cs4 O20 3.310247 1_554
Cs5 O27 3.212497 1_555
Cs5 O47 3.212497 1_555
Cs5 O22 3.212497 1_555
Cs5 O29 3.290451 1_555
Cs5 O4 3.290451 1_555
Cs5 O25 3.290451 1_555
Cs5 O36 3.310247 1_555
Cs5 O14 3.310247 1_555
Cs5 O8 3.310247 1_555
Cs6 O5 3.180806 1_555
Cs6 O35 3.180806 1_555
Cs6 O13 3.180806 1_555
Cs6 O25 3.538126 1_565
Cs6 O9 3.538126 1_555
Cs6 O32 3.538126 1_455
Cs6 O46 3.561509 1_465
Cs6 O6 3.561509 1_565
Cs6 O19 3.561509 1_455
Cs7 O16 3.180806 1_555
Cs7 O10 3.180806 1_555
Cs7 O42 3.180806 1_555
Cs7 O17 3.538126 1_555
Cs7 O37 3.538126 1_555
Cs7 O3 3.538126 1_555
Cs7 O8 3.561509 1_555
Cs7 O36 3.561509 1_555
Cs7 O14 3.561509 1_555
Co0 O32 2.103028 1_555
Co0 O18 2.103028 1_555
Co0 O17 2.103028 1_555
Co0 O35 2.105690 1_655
Co0 O0 2.105690 1_555
Co0 O42 2.105690 1_555
Co1 O25 2.103028 1_555
Co1 O29 2.103028 1_555
Co1 O4 2.103028 1_555
Co1 O31 2.105690 1_455
Co1 O13 2.105690 1_545
Co1 O21 2.105690 1_554
Co2 O1 2.112319 1_555
Co2 O22 2.112319 1_555
Co2 O24 2.112319 1_555
Co2 O26 2.117676 1_555
Co2 O8 2.117676 1_555
Co2 O44 2.117676 1_555
Co3 O38 2.112319 1_555
Co3 O12 2.112319 1_555
Co3 O30 2.112319 1_555
Co3 O20 2.117676 1_555
Co3 O2 2.117676 1_555
Co3 O19 2.117676 1_555
Co4 O7 2.112319 1_555
Co4 O27 2.112319 1_555
Co4 O41 2.112319 1_555
Co4 O33 2.117676 1_555
Co4 O14 2.117676 1_555
Co4 O6 2.117676 1_555
Co5 O45 2.112319 1_555
Co5 O47 2.112319 1_555
Co5 O15 2.112319 1_555
Co5 O46 2.117676 1_555
Co5 O36 2.117676 1_555
Co5 O39 2.117676 1_555
Co6 O40 2.103028 1_555
Co6 O34 2.103028 1_555
Co6 O3 2.103028 1_555
Co6 O11 2.105690 1_556
Co6 O23 2.105690 1_555
Co6 O16 2.105690 1_555
Co7 O28 2.103028 1_555
Co7 O9 2.103028 1_555
Co7 O37 2.103028 1_555
Co7 O43 2.105690 1_565
Co7 O5 2.105690 1_555
Co7 O10 2.105690 1_555
Mo0 O22 1.789168 1_555
Mo0 O37 1.795925 1_555
Mo0 O14 1.806935 1_555
Mo0 O35 1.808131 1_555
Mo1 O38 1.789168 1_555
Mo1 O40 1.795925 1_555
Mo1 O33 1.806935 1_655
Mo1 O42 1.808131 1_555
Mo2 O7 1.789168 1_555
Mo2 O4 1.795925 1_556
Mo2 O44 1.806935 1_556
Mo2 O23 1.808131 1_555
Mo3 O15 1.789168 1_555
Mo3 O34 1.795925 1_554
Mo3 O20 1.806935 1_544
Mo3 O31 1.808131 1_555
Mo4 O27 1.789168 1_555
Mo4 O3 1.795925 1_555
Mo4 O36 1.806935 1_555
Mo4 O43 1.808131 1_555
Mo5 O24 1.789168 1_555
Mo5 O18 1.795925 1_455
Mo5 O2 1.806935 1_454
Mo5 O13 1.808131 1_555
Mo6 O12 1.789168 1_555
Mo6 O32 1.795925 1_555
Mo6 O46 1.806935 1_565
Mo6 O10 1.808131 1_555
Mo7 O47 1.789168 1_555
Mo7 O17 1.795925 1_555
Mo7 O8 1.806935 1_555
Mo7 O11 1.808131 1_555
Mo8 O45 1.789168 1_555
Mo8 O25 1.795925 1_655
Mo8 O6 1.806935 1_655
Mo8 O0 1.808131 1_555
Mo9 O30 1.789168 1_555
Mo9 O28 1.795925 1_555
Mo9 O26 1.806935 1_556
Mo9 O16 1.808131 1_555
Mo10 O1 1.789168 1_555
Mo10 O29 1.795925 1_565
Mo10 O39 1.806935 1_565
Mo10 O5 1.808131 1_555
Mo11 O41 1.789168 1_555
Mo11 O9 1.795925 1_545
Mo11 O19 1.806935 1_445
Mo11 O21 1.808131 1_555
