# generated using pymatgen
data_HgH16(Br3N2)2
_symmetry_space_group_name_H-M   'P 1'
_cell_length_a   9.12397500
_cell_length_b   9.12984700
_cell_length_c   9.48261400
_cell_angle_alpha   90.00000000
_cell_angle_beta   90.00000000
_cell_angle_gamma   90.00000000
_symmetry_Int_Tables_number   1
_chemical_formula_structural   HgH16(Br3N2)2
_chemical_formula_sum   'Hg2 H32 Br12 N8'
_cell_volume   789.90644751
_cell_formula_units_Z   2
loop_
 _symmetry_equiv_pos_site_id
 _symmetry_equiv_pos_as_xyz
  1  'x, y, z'
loop_
 _atom_site_type_symbol
 _atom_site_label
 _atom_site_symmetry_multiplicity
 _atom_site_fract_x
 _atom_site_fract_y
 _atom_site_fract_z
 _atom_site_occupancy
  Hg  Hg0  1  0.50000000  0.50000000  0.50000000  1
  Hg  Hg1  1  0.00000000  0.00000000  0.00000000  1
  H  H0  1  0.81058000  0.77833900  0.40999700  1
  H  H1  1  0.68782000  0.20839700  0.72158400  1
  H  H2  1  0.81218000  0.70839700  0.77841600  1
  H  H3  1  0.31218000  0.79160300  0.27841600  1
  H  H4  1  0.31058000  0.27833900  0.09000300  1
  H  H5  1  0.81218000  0.29160300  0.22158400  1
  H  H6  1  0.18421200  0.07339900  0.69768100  1
  H  H7  1  0.81058000  0.22166100  0.59000300  1
  H  H8  1  0.67603400  0.90280900  0.41888600  1
  H  H9  1  0.31578800  0.57339900  0.80231900  1
  H  H10  1  0.81578800  0.07339900  0.69768100  1
  H  H11  1  0.81578800  0.92660100  0.30231900  1
  H  H12  1  0.17603400  0.40280900  0.08111400  1
  H  H13  1  0.82396600  0.40280900  0.08111400  1
  H  H14  1  0.31218000  0.20839700  0.72158400  1
  H  H15  1  0.17603400  0.59719100  0.91888600  1
  H  H16  1  0.31578800  0.42660100  0.19768100  1
  H  H17  1  0.82396600  0.59719100  0.91888600  1
  H  H18  1  0.68782000  0.79160300  0.27841600  1
  H  H19  1  0.18942000  0.22166100  0.59000300  1
  H  H20  1  0.68942000  0.27833900  0.09000300  1
  H  H21  1  0.32396600  0.90280900  0.41888600  1
  H  H22  1  0.68421200  0.42660100  0.19768100  1
  H  H23  1  0.18782000  0.29160300  0.22158400  1
  H  H24  1  0.32396600  0.09719100  0.58111400  1
  H  H25  1  0.68421200  0.57339900  0.80231900  1
  H  H26  1  0.18421200  0.92660100  0.30231900  1
  H  H27  1  0.18942000  0.77833900  0.40999700  1
  H  H28  1  0.18782000  0.70839700  0.77841600  1
  H  H29  1  0.31058000  0.72166100  0.90999700  1
  H  H30  1  0.68942000  0.72166100  0.90999700  1
  H  H31  1  0.67603400  0.09719100  0.58111400  1
  Br  Br0  1  0.50000000  0.63791700  0.17957800  1
  Br  Br1  1  0.50000000  0.82546900  0.62230500  1
  Br  Br2  1  0.21739400  0.50000000  0.50000000  1
  Br  Br3  1  0.00000000  0.32546900  0.87769500  1
  Br  Br4  1  0.78260600  0.50000000  0.50000000  1
  Br  Br5  1  0.00000000  0.13791700  0.32042200  1
  Br  Br6  1  0.00000000  0.67453100  0.12230500  1
  Br  Br7  1  0.50000000  0.36208300  0.82042200  1
  Br  Br8  1  0.71739400  0.00000000  0.00000000  1
  Br  Br9  1  0.28260600  0.00000000  0.00000000  1
  Br  Br10  1  0.50000000  0.17453100  0.37769500  1
  Br  Br11  1  0.00000000  0.86208300  0.67957800  1
  N  N0  1  0.25121500  0.85100900  0.35192600  1
  N  N1  1  0.24878500  0.35100900  0.14807400  1
  N  N2  1  0.75121500  0.35100900  0.14807400  1
  N  N3  1  0.25121500  0.14899100  0.64807400  1
  N  N4  1  0.74878500  0.85100900  0.35192600  1
  N  N5  1  0.75121500  0.64899100  0.85192600  1
  N  N6  1  0.24878500  0.64899100  0.85192600  1
  N  N7  1  0.74878500  0.14899100  0.64807400  1
loop_
_geom_bond_atom_site_label_1
_geom_bond_atom_site_label_2
_geom_bond_distance
_geom_bond_site_symmetry_2
H0 N4 1.030198 1_555
H1 N7 1.043778 1_555
H2 N5 1.043778 1_555
H3 N0 1.043778 1_555
H4 N1 1.030198 1_555
H5 N2 1.043778 1_555
H6 N3 1.035039 1_555
H7 N7 1.030198 1_555
H8 N4 1.033165 1_555
H9 N6 1.035039 1_555
H10 N7 1.035039 1_555
H11 N4 1.035039 1_555
H12 N1 1.033165 1_555
H13 N2 1.033165 1_555
H14 N3 1.043778 1_555
H15 N6 1.033165 1_555
H16 N1 1.035039 1_555
H17 N5 1.033165 1_555
H18 N4 1.043778 1_555
H19 N3 1.030198 1_555
H20 N2 1.030198 1_555
H21 N0 1.033165 1_555
H22 N2 1.035039 1_555
H23 N1 1.043778 1_555
H24 N3 1.033165 1_555
H25 N5 1.035039 1_555
H26 N0 1.035039 1_555
H27 N0 1.030198 1_555
H28 N6 1.043778 1_555
H29 N6 1.030198 1_555
H30 N5 1.030198 1_555
H31 N7 1.033165 1_555
Br1 Hg0 3.189792 1_555
Br2 Hg0 2.578490 1_555
Br3 Hg1 3.189792 1_556
Br4 Hg0 2.578490 1_555
Br6 Hg1 3.189792 1_565
Br8 Hg1 2.578490 1_655
Br9 Hg1 2.578490 1_555
Br10 Hg0 3.189792 1_555
