# generated using pymatgen
data_Te(HO2)2
_symmetry_space_group_name_H-M   'P 1'
_cell_length_a   4.85307420
_cell_length_b   5.22485861
_cell_length_c   5.89496330
_cell_angle_alpha   63.85182013
_cell_angle_beta   90.00000000
_cell_angle_gamma   90.00000000
_symmetry_Int_Tables_number   1
_chemical_formula_structural   Te(HO2)2
_chemical_formula_sum   'Te2 H4 O8'
_cell_volume   134.17856833
_cell_formula_units_Z   2
loop_
 _symmetry_equiv_pos_site_id
 _symmetry_equiv_pos_as_xyz
  1  'x, y, z'
loop_
 _atom_site_type_symbol
 _atom_site_label
 _atom_site_symmetry_multiplicity
 _atom_site_fract_x
 _atom_site_fract_y
 _atom_site_fract_z
 _atom_site_occupancy
  Te  Te0  1  0.50000000  0.50000000  -0.00000000  1
  Te  Te1  1  -0.00000000  -0.00000000  -0.00000000  1
  H  H0  1  0.74031733  0.19800434  0.39159521  1
  H  H1  1  0.24031733  0.30199566  0.60840479  1
  H  H2  1  0.25968267  0.80199566  0.60840479  1
  H  H3  1  0.75968267  0.69800434  0.39159521  1
  O  O0  1  0.63502969  0.37603560  0.33659813  1
  O  O1  1  0.13502969  0.12396440  0.66340187  1
  O  O2  1  0.36497031  0.62396440  0.66340187  1
  O  O3  1  0.86497031  0.87603560  0.33659813  1
  O  O4  1  0.81325934  0.35847899  0.88930055  1
  O  O5  1  0.31325934  0.14152101  0.11069945  1
  O  O6  1  0.18674066  0.64152101  0.11069945  1
  O  O7  1  0.68674066  0.85847899  0.88930055  1
loop_
_geom_bond_atom_site_label_1
_geom_bond_atom_site_label_2
_geom_bond_distance
_geom_bond_site_symmetry_2
H0 O0 0.982673 1_555
H1 O1 0.982673 1_555
H2 O2 0.982673 1_555
H3 O3 0.982673 1_555
O0 Te0 1.911382 1_555
O1 Te1 1.911382 1_556
O2 Te0 1.911382 1_556
O3 Te1 1.911382 1_665
O4 Te1 1.917815 1_656
O4 Te0 1.925907 1_556
O5 Te0 1.917815 1_555
O5 Te1 1.925907 1_555
O6 Te1 1.917815 1_565
O6 Te0 1.925907 1_555
O7 Te0 1.917815 1_556
O7 Te1 1.925907 1_666
