# generated using pymatgen
data_H13(C5N)2
_symmetry_space_group_name_H-M   'P 1'
_cell_length_a   13.55591600
_cell_length_b   11.46085900
_cell_length_c   13.22152805
_cell_angle_alpha   78.02107097
_cell_angle_beta   90.00000000
_cell_angle_gamma   90.00000000
_symmetry_Int_Tables_number   1
_chemical_formula_structural   H13(C5N)2
_chemical_formula_sum   'H104 C80 N16'
_cell_volume   2009.39816425
_cell_formula_units_Z   8
loop_
 _symmetry_equiv_pos_site_id
 _symmetry_equiv_pos_as_xyz
  1  'x, y, z'
loop_
 _atom_site_type_symbol
 _atom_site_label
 _atom_site_symmetry_multiplicity
 _atom_site_fract_x
 _atom_site_fract_y
 _atom_site_fract_z
 _atom_site_occupancy
  H  H0  1  0.03654900  0.48678500  0.18349600  1
  H  H1  1  0.41080300  0.01680500  0.54005400  1
  H  H2  1  0.60342400  0.38224200  0.64758200  1
  H  H3  1  0.15269400  0.12900300  0.08772500  1
  H  H4  1  0.92603200  0.37965000  0.50370900  1
  H  H5  1  0.12122200  0.99203400  0.17209400  1
  H  H6  1  0.83536100  0.87703400  0.63892100  1
  H  H7  1  0.34671600  0.51656100  0.62279400  1
  H  H8  1  0.18763900  0.79756600  0.48617700  1
  H  H9  1  0.52584900  0.63089600  0.79430100  1
  H  H10  1  0.81236100  0.20243400  0.51382300  1
  H  H11  1  0.39559200  0.05934000  0.03251500  1
  H  H12  1  0.94754700  0.70614500  0.89259100  1
  H  H13  1  0.84730600  0.87099700  0.91227500  1
  H  H14  1  0.75841500  0.48195400  0.07281000  1
  H  H15  1  0.25044900  0.81587000  0.10072700  1
  H  H16  1  0.06179500  0.52171600  0.61924600  1
  H  H17  1  0.15328400  0.51656100  0.12279400  1
  H  H18  1  0.24158500  0.51804600  0.92719000  1
  H  H19  1  0.37877800  0.99203400  0.67209400  1
  H  H20  1  0.10342400  0.61775800  0.85241800  1
  H  H21  1  0.39657600  0.61775800  0.35241800  1
  H  H22  1  0.89559200  0.94066000  0.46748500  1
  H  H23  1  0.31625700  0.36923900  0.06501500  1
  H  H24  1  0.25992400  0.96437600  0.30267600  1
  H  H25  1  0.42603200  0.62035000  0.99629100  1
  H  H26  1  0.33226200  0.11810100  0.12780600  1
  H  H27  1  0.37922300  0.84451100  0.08736000  1
  H  H28  1  0.62077700  0.15548900  0.91264000  1
  H  H29  1  0.44948500  0.60901400  0.57630600  1
  H  H30  1  0.25841500  0.51804600  0.42719000  1
  H  H31  1  0.55057600  0.82539600  0.91508300  1
  H  H32  1  0.55515700  0.24817200  0.19430500  1
  H  H33  1  0.08327700  0.05136100  0.84248600  1
  H  H34  1  0.89657600  0.38224200  0.14758200  1
  H  H35  1  0.65269400  0.87099700  0.41227500  1
  H  H36  1  0.02584900  0.36910400  0.70569900  1
  H  H37  1  0.56179500  0.47828400  0.88075400  1
  H  H38  1  0.05057600  0.17460400  0.58491700  1
  H  H39  1  0.51089800  0.75250200  0.68827400  1
  H  H40  1  0.24955100  0.81587000  0.60072700  1
  H  H41  1  0.84671600  0.48343900  0.87720600  1
  H  H42  1  0.55051500  0.39098600  0.42369400  1
  H  H43  1  0.53654900  0.51321500  0.31650400  1
  H  H44  1  0.94484300  0.24817200  0.69430500  1
  H  H45  1  0.75992400  0.03562400  0.19732400  1
  H  H46  1  0.66773800  0.88189900  0.87219400  1
  H  H47  1  0.62122200  0.00796600  0.32790600  1
  H  H48  1  0.18374300  0.36923900  0.56501500  1
  H  H49  1  0.49426800  0.66577500  0.09740400  1
  H  H50  1  0.50573200  0.33422500  0.90259600  1
  H  H51  1  0.97415100  0.63089600  0.29430100  1
  H  H52  1  0.48910200  0.24749800  0.31172600  1
  H  H53  1  0.25477000  0.26860800  0.72362900  1
  H  H54  1  0.98910200  0.75250200  0.18827400  1
  H  H55  1  0.08919700  0.01680500  0.04005400  1
  H  H56  1  0.75044900  0.18413000  0.39927300  1
  H  H57  1  0.07396800  0.62035000  0.49629100  1
  H  H58  1  0.57396800  0.37965000  0.00370900  1
  H  H59  1  0.87877800  0.00796600  0.82790600  1
  H  H60  1  0.74007600  0.03562400  0.69732400  1
  H  H61  1  0.75477000  0.73139200  0.77637100  1
  H  H62  1  0.74158500  0.48195400  0.57281000  1
  H  H63  1  0.47415100  0.36910400  0.20569900  1
  H  H64  1  0.05051500  0.60901400  0.07630600  1
  H  H65  1  0.05515700  0.75182800  0.30569500  1
  H  H66  1  0.00573200  0.66577500  0.59740400  1
  H  H67  1  0.34730600  0.12900300  0.58772500  1
  H  H68  1  0.94948500  0.39098600  0.92369400  1
  H  H69  1  0.24523000  0.26860800  0.22362900  1
  H  H70  1  0.93820500  0.47828400  0.38075400  1
  H  H71  1  0.44942400  0.17460400  0.08491700  1
  H  H72  1  0.16463900  0.12296600  0.36107900  1
  H  H73  1  0.10440800  0.05934000  0.53251500  1
  H  H74  1  0.74523000  0.73139200  0.27637100  1
  H  H75  1  0.43820500  0.52171600  0.11924600  1
  H  H76  1  0.41672300  0.05136100  0.34248600  1
  H  H77  1  0.44484300  0.75182800  0.80569500  1
  H  H78  1  0.01089800  0.24749800  0.81172600  1
  H  H79  1  0.58919700  0.98319500  0.45994600  1
  H  H80  1  0.91080300  0.98319500  0.95994600  1
  H  H81  1  0.44754700  0.29385500  0.60740900  1
  H  H82  1  0.91672300  0.94863900  0.15751400  1
  H  H83  1  0.68374300  0.63076100  0.93498500  1
  H  H84  1  0.96345100  0.51321500  0.81650400  1
  H  H85  1  0.12077700  0.84451100  0.58736000  1
  H  H86  1  0.66463900  0.87703400  0.13892100  1
  H  H87  1  0.60440800  0.94066000  0.96748500  1
  H  H88  1  0.68763900  0.20243400  0.01382300  1
  H  H89  1  0.87922300  0.15548900  0.41264000  1
  H  H90  1  0.31236100  0.79756600  0.98617700  1
  H  H91  1  0.55245300  0.70614500  0.39259100  1
  H  H92  1  0.46345100  0.48678500  0.68349600  1
  H  H93  1  0.65328400  0.48343900  0.37720600  1
  H  H94  1  0.33536100  0.12296600  0.86107900  1
  H  H95  1  0.05245300  0.29385500  0.10740900  1
  H  H96  1  0.81625700  0.63076100  0.43498500  1
  H  H97  1  0.94942400  0.82539600  0.41508300  1
  H  H98  1  0.99426800  0.33422500  0.40259600  1
  H  H99  1  0.24007600  0.96437600  0.80267600  1
  H  H100  1  0.58327700  0.94863900  0.65751400  1
  H  H101  1  0.74955100  0.18413000  0.89927300  1
  H  H102  1  0.16773800  0.11810100  0.62780600  1
  H  H103  1  0.83226200  0.88189900  0.37219400  1
  C  C0  1  0.81918600  0.21344000  0.42943800  1
  C  C1  1  0.16830300  0.23338800  0.47444600  1
  C  C2  1  0.82416700  0.09330700  0.17860700  1
  C  C3  1  0.74218100  0.59307700  0.68738900  1
  C  C4  1  0.47214300  0.69606200  0.75391600  1
  C  C5  1  0.33169700  0.23338800  0.97444600  1
  C  C6  1  0.31506100  0.78403400  0.32024900  1
  C  C7  1  0.26856700  0.29233400  0.79808100  1
  C  C8  1  0.18081400  0.78656000  0.57056200  1
  C  C9  1  0.81356500  0.79079700  0.62337200  1
  C  C10  1  0.90496600  0.93934800  0.89354200  1
  C  C11  1  0.02785700  0.69606200  0.25391600  1
  C  C12  1  0.71322800  0.40352900  0.80318700  1
  C  C13  1  0.18643500  0.20920300  0.37662800  1
  C  C14  1  0.20564000  0.66372500  0.24025300  1
  C  C15  1  0.66830300  0.76661200  0.02555400  1
  C  C16  1  0.08660700  0.95583900  0.84430600  1
  C  C17  1  0.70564000  0.33627500  0.25974700  1
  C  C18  1  0.69613900  0.65382200  0.01010900  1
  C  C19  1  0.41339300  0.95583900  0.34430600  1
  C  C20  1  0.76856700  0.70766600  0.70191900  1
  C  C21  1  0.52785700  0.30393800  0.24608400  1
  C  C22  1  0.39964500  0.71344200  0.34846500  1
  C  C23  1  0.49829200  0.88587300  0.36964300  1
  C  C24  1  0.41314200  0.55817600  0.64633400  1
  C  C25  1  0.91339300  0.04416100  0.15569400  1
  C  C26  1  0.28677200  0.59647100  0.19681300  1
  C  C27  1  0.83169700  0.76661200  0.52555400  1
  C  C28  1  0.08685800  0.55817600  0.14633400  1
  C  C29  1  0.99829200  0.11412700  0.13035700  1
  C  C30  1  0.07031300  0.61489100  0.58030200  1
  C  C31  1  0.32416700  0.90669300  0.32139300  1
  C  C32  1  0.67583300  0.09330700  0.67860700  1
  C  C33  1  0.30386100  0.34617800  0.98989100  1
  C  C34  1  0.76090900  0.56857700  0.58880000  1
  C  C35  1  0.21322800  0.59647100  0.69681300  1
  C  C36  1  0.58660700  0.04416100  0.65569400  1
  C  C37  1  0.79436000  0.33627500  0.75974700  1
  C  C38  1  0.62056800  0.85792000  0.94112000  1
  C  C39  1  0.37943200  0.14208000  0.05888000  1
  C  C40  1  0.01151900  0.76387400  0.87208400  1
  C  C41  1  0.18493900  0.78403400  0.82024900  1
  C  C42  1  0.60035500  0.28655800  0.65153500  1
  C  C43  1  0.00170800  0.88587300  0.86964300  1
  C  C44  1  0.23909100  0.43142300  0.41120000  1
  C  C45  1  0.75781900  0.59307700  0.18738900  1
  C  C46  1  0.78677200  0.40352900  0.30318700  1
  C  C47  1  0.10035500  0.71344200  0.84846500  1
  C  C48  1  0.50170800  0.11412700  0.63035700  1
  C  C49  1  0.24218100  0.40692300  0.81261100  1
  C  C50  1  0.23143300  0.29233400  0.29808100  1
  C  C51  1  0.51151900  0.23612600  0.62791600  1
  C  C52  1  0.92968700  0.38510900  0.41969800  1
  C  C53  1  0.29436000  0.66372500  0.74025300  1
  C  C54  1  0.57031300  0.38510900  0.91969800  1
  C  C55  1  0.31356500  0.20920300  0.87662800  1
  C  C56  1  0.17583300  0.90669300  0.82139300  1
  C  C57  1  0.31918600  0.78656000  0.07056200  1
  C  C58  1  0.42968700  0.61489100  0.08030200  1
  C  C59  1  0.98848100  0.23612600  0.12791600  1
  C  C60  1  0.59503400  0.93934800  0.39354200  1
  C  C61  1  0.26090900  0.43142300  0.91120000  1
  C  C62  1  0.40496600  0.06065200  0.60645800  1
  C  C63  1  0.58685800  0.44182400  0.35366600  1
  C  C64  1  0.73143300  0.70766600  0.20191900  1
  C  C65  1  0.12056800  0.14208000  0.55888000  1
  C  C66  1  0.81506100  0.21596600  0.17975100  1
  C  C67  1  0.48848100  0.76387400  0.37208400  1
  C  C68  1  0.89964500  0.28655800  0.15153500  1
  C  C69  1  0.87943200  0.85792000  0.44112000  1
  C  C70  1  0.09503400  0.06065200  0.10645800  1
  C  C71  1  0.97214300  0.30393800  0.74608400  1
  C  C72  1  0.91314200  0.44182400  0.85366600  1
  C  C73  1  0.73909100  0.56857700  0.08880000  1
  C  C74  1  0.25781900  0.40692300  0.31261100  1
  C  C75  1  0.19613900  0.34617800  0.48989100  1
  C  C76  1  0.68081400  0.21344000  0.92943800  1
  C  C77  1  0.68493900  0.21596600  0.67975100  1
  C  C78  1  0.80386100  0.65382200  0.51010900  1
  C  C79  1  0.68643500  0.79079700  0.12337200  1
  N  N0  1  0.84025100  0.33757400  0.38260000  1
  N  N1  1  0.77752500  0.25645700  0.70450200  1
  N  N2  1  0.72247500  0.25645700  0.20450200  1
  N  N3  1  0.30575700  0.48378400  0.23136700  1
  N  N4  1  0.80575700  0.51621600  0.26863300  1
  N  N5  1  0.15974900  0.66242600  0.61740000  1
  N  N6  1  0.69424300  0.51621600  0.76863300  1
  N  N7  1  0.34025100  0.66242600  0.11740000  1
  N  N8  1  0.11107500  0.63578400  0.21743600  1
  N  N9  1  0.88892500  0.36421600  0.78256400  1
  N  N10  1  0.38892500  0.63578400  0.71743600  1
  N  N11  1  0.19424300  0.48378400  0.73136700  1
  N  N12  1  0.27752500  0.74354300  0.79549800  1
  N  N13  1  0.65974900  0.33757400  0.88260000  1
  N  N14  1  0.22247500  0.74354300  0.29549800  1
  N  N15  1  0.61107500  0.36421600  0.28256400  1
loop_
_geom_bond_atom_site_label_1
_geom_bond_atom_site_label_2
_geom_bond_distance
_geom_bond_site_symmetry_2
C0 H56 1.093506 1_555
C0 H10 1.100380 1_555
C0 H89 1.101835 1_555
C0 N0 1.457170 1_555
C1 C13 1.399530 1_555
C1 C75 1.401663 1_555
C1 C65 1.508350 1_555
C2 H45 1.090320 1_555
C2 C66 1.414391 1_555
C3 N6 1.399760 1_555
C3 C34 1.412209 1_555
C4 H77 1.093499 1_555
C4 H9 1.098816 1_555
C4 H39 1.102094 1_555
C4 N10 1.456299 1_555
C5 C55 1.399530 1_555
C6 N14 1.400260 1_555
C7 H53 1.090420 1_555
C8 H40 1.093506 1_555
C8 H8 1.100380 1_555
C8 H85 1.101835 1_555
C8 N5 1.457170 1_555
C9 H6 1.091212 1_555
C10 H13 1.097913 1_555
C10 H80 1.101250 1_555
C10 H59 1.101945 1_565
C10 C43 1.508536 1_655
C11 H65 1.093499 1_555
C11 H51 1.098816 1_455
C11 H54 1.102094 1_455
C11 N8 1.456299 1_555
C12 N6 1.303064 1_555
C12 N13 1.367448 1_555
C12 C37 1.522285 1_555
C13 H72 1.091212 1_555
C13 C50 1.395567 1_555
C14 N14 1.303760 1_555
C14 N8 1.370023 1_555
C14 C26 1.522285 1_555
C15 C79 1.399530 1_555
C15 C18 1.401663 1_555
C15 C38 1.508350 1_554
C16 H33 1.090958 1_565
C16 C43 1.402941 1_555
C17 N2 1.303760 1_555
C17 N15 1.370023 1_555
C17 C46 1.522285 1_555
C18 H83 1.092527 1_554
C19 H76 1.090958 1_565
C19 C23 1.402941 1_555
C20 H61 1.090420 1_555
C20 C9 1.395567 1_555
C20 C3 1.412197 1_555
C21 H32 1.093499 1_555
C21 H63 1.098816 1_555
C21 H52 1.102094 1_555
C21 N15 1.456299 1_555
C22 H21 1.087772 1_555
C22 C6 1.408248 1_555
C23 C67 1.398213 1_555
C23 C60 1.508536 1_555
C24 H7 1.093983 1_555
C24 H92 1.099588 1_555
C24 H29 1.102502 1_555
C24 N10 1.459361 1_555
C25 H82 1.090958 1_545
C25 C29 1.402941 1_555
C26 N3 1.303064 1_555
C26 N7 1.367448 1_555
C27 C9 1.399530 1_555
C27 C78 1.401663 1_555
C27 C69 1.508350 1_555
C28 H17 1.093983 1_555
C28 H0 1.099588 1_555
C28 H64 1.102502 1_555
C28 N8 1.459361 1_555
C29 C59 1.398213 1_555
C29 C70 1.508536 1_655
C30 H16 1.091123 1_555
C30 H57 1.100589 1_555
C30 H66 1.101080 1_555
C30 N5 1.455399 1_555
C31 H24 1.090320 1_555
C31 C6 1.414391 1_555
C32 H60 1.090320 1_555
C32 C77 1.414391 1_555
C33 H23 1.092527 1_556
C33 C5 1.401663 1_555
C34 H62 1.089054 1_555
C35 N11 1.303064 1_555
C35 N5 1.367448 1_555
C35 C53 1.522285 1_555
C36 H100 1.090958 1_545
C36 C48 1.402941 1_555
C37 N1 1.303760 1_555
C37 N9 1.370023 1_555
C38 H87 1.098150 1_555
C38 H46 1.100418 1_555
C38 H31 1.100432 1_555
C39 H11 1.098150 1_555
C39 H26 1.100418 1_555
C39 H71 1.100432 1_555
C39 C5 1.508350 1_554
C40 H12 1.090334 1_455
C40 C43 1.398213 1_555
C41 N12 1.400260 1_555
C41 C47 1.408248 1_555
C41 C56 1.414391 1_555
C42 H2 1.087772 1_555
C42 C77 1.408248 1_555
C44 H30 1.089054 1_555
C44 C74 1.412209 1_555
C45 N4 1.399760 1_555
C45 C64 1.412197 1_555
C45 C73 1.412209 1_555
C46 N4 1.303064 1_555
C46 N0 1.367448 1_555
C47 H20 1.087772 1_555
C48 C51 1.398213 1_555
C48 C62 1.508536 1_555
C49 N11 1.399760 1_555
C49 C7 1.412197 1_555
C49 C61 1.412209 1_555
C50 H69 1.090420 1_555
C50 C74 1.412197 1_555
C51 H81 1.090334 1_555
C52 H70 1.091123 1_555
C52 H4 1.100589 1_555
C52 H98 1.101080 1_555
C52 N0 1.455399 1_555
C53 N12 1.303760 1_555
C53 N10 1.370023 1_555
C54 H37 1.091123 1_555
C54 H58 1.100589 1_556
C54 H50 1.101080 1_555
C54 N13 1.455399 1_555
C55 H94 1.091212 1_555
C55 C7 1.395567 1_555
C56 H99 1.090320 1_555
C57 H15 1.093506 1_555
C57 H90 1.100380 1_554
C57 H27 1.101835 1_555
C57 N7 1.457170 1_555
C58 H75 1.091123 1_555
C58 H25 1.100589 1_554
C58 H49 1.101080 1_555
C58 N7 1.455399 1_555
C59 H95 1.090334 1_655
C60 H35 1.097913 1_555
C60 H79 1.101250 1_555
C60 H47 1.101945 1_565
C61 H18 1.089054 1_555
C62 H67 1.097913 1_555
C62 H1 1.101250 1_555
C62 H19 1.101945 1_545
C63 H93 1.093983 1_555
C63 H43 1.099588 1_555
C63 H42 1.102502 1_555
C63 N15 1.459361 1_555
C64 H74 1.090420 1_555
C64 C79 1.395567 1_555
C65 H73 1.098150 1_555
C65 H102 1.100418 1_555
C65 H38 1.100432 1_555
C66 N2 1.400260 1_555
C66 C68 1.408248 1_555
C67 H91 1.090334 1_555
C68 H34 1.087772 1_555
C69 H22 1.098150 1_555
C69 H103 1.100418 1_555
C69 H97 1.100432 1_555
C70 H3 1.097913 1_555
C70 H55 1.101250 1_555
C70 H5 1.101945 1_545
C71 H44 1.093499 1_555
C71 H36 1.098816 1_655
C71 H78 1.102094 1_655
C71 N9 1.456299 1_555
C72 H41 1.093983 1_555
C72 H84 1.099588 1_555
C72 H68 1.102502 1_555
C72 N9 1.459361 1_555
C73 H14 1.089054 1_555
C74 N3 1.399760 1_555
C75 H48 1.092527 1_555
C76 H101 1.093506 1_555
C76 H88 1.100380 1_556
C76 H28 1.101835 1_555
C76 N13 1.457170 1_555
C77 N1 1.400260 1_555
C78 H96 1.092527 1_555
C79 H86 1.091212 1_555
