# generated using pymatgen
data_Li7Mn11O24
_symmetry_space_group_name_H-M   'P 1'
_cell_length_a   5.86218527
_cell_length_b   5.86218531
_cell_length_c   53.34637066
_cell_angle_alpha   59.60108983
_cell_angle_beta   59.60108984
_cell_angle_gamma   60.78786997
_symmetry_Int_Tables_number   1
_chemical_formula_structural   Li7Mn11O24
_chemical_formula_sum   'Li21 Mn33 O72'
_cell_volume   1295.83901093
_cell_formula_units_Z   3
loop_
 _symmetry_equiv_pos_site_id
 _symmetry_equiv_pos_as_xyz
  1  'x, y, z'
loop_
 _atom_site_type_symbol
 _atom_site_label
 _atom_site_symmetry_multiplicity
 _atom_site_fract_x
 _atom_site_fract_y
 _atom_site_fract_z
 _atom_site_occupancy
  Li  Li0  1  0.12948700  0.12948700  0.01174400  1
  Li  Li1  1  0.12578800  0.12578800  0.12571300  1
  Li  Li2  1  0.12578500  0.12578500  0.23556200  1
  Li  Li3  1  0.87434300  0.87434300  0.09606000  1
  Li  Li4  1  0.12706000  0.12706000  0.34677400  1
  Li  Li5  1  0.12565700  0.12565700  0.45949500  1
  Li  Li6  1  0.87294000  0.87294000  0.20878100  1
  Li  Li7  1  0.87421500  0.87421500  0.31999300  1
  Li  Li8  1  0.11450000  0.11450000  0.57073000  1
  Li  Li9  1  0.87421200  0.87421200  0.42984300  1
  Li  Li10  1  0.12652200  0.12652200  0.67906700  1
  Li  Li11  1  0.49981900  0.49981900  0.61137600  1
  Li  Li12  1  0.87051300  0.87051300  0.54381200  1
  Li  Li13  1  0.11738500  0.11738500  0.79439900  1
  Li  Li14  1  0.88798500  0.88798500  0.65137200  1
  Li  Li15  1  0.50000000  0.50000000  0.77777800  1
  Li  Li16  1  0.11201500  0.11201500  0.90418400  1
  Li  Li17  1  0.88261500  0.88261500  0.76115800  1
  Li  Li18  1  0.50018100  0.50018100  0.94417900  1
  Li  Li19  1  0.87347800  0.87347800  0.87648900  1
  Li  Li20  1  0.88550000  0.88550000  0.98482500  1
  Mn  Mn0  1  0.00294700  0.49890200  0.05444800  1
  Mn  Mn1  1  0.49890200  0.00294700  0.05444800  1
  Mn  Mn2  1  0.50622500  0.50622500  0.99775600  1
  Mn  Mn3  1  0.50156600  0.50156600  0.05443200  1
  Mn  Mn4  1  0.00145700  0.50306600  0.16677300  1
  Mn  Mn5  1  0.49790200  0.49790200  0.11053000  1
  Mn  Mn6  1  0.49991200  0.49991200  0.16678300  1
  Mn  Mn7  1  0.00000000  0.50000000  0.27777800  1
  Mn  Mn8  1  0.50306600  0.00145700  0.16677300  1
  Mn  Mn9  1  0.49778900  0.49778900  0.22228800  1
  Mn  Mn10  1  0.50000000  0.50000000  0.27777800  1
  Mn  Mn11  1  0.99854300  0.49693400  0.38878300  1
  Mn  Mn12  1  0.50221100  0.50221100  0.33326700  1
  Mn  Mn13  1  0.50000000  0.00000000  0.27777800  1
  Mn  Mn14  1  0.50008800  0.50008800  0.38877300  1
  Mn  Mn15  1  0.99705300  0.50109800  0.50110800  1
  Mn  Mn16  1  0.49693400  0.99854300  0.38878300  1
  Mn  Mn17  1  0.50109800  0.99705300  0.50110800  1
  Mn  Mn18  1  0.50209800  0.50209800  0.44502500  1
  Mn  Mn19  1  0.49843400  0.49843400  0.50112400  1
  Mn  Mn20  1  0.99853000  0.49837300  0.61128100  1
  Mn  Mn21  1  0.49837300  0.99853000  0.61128100  1
  Mn  Mn22  1  0.49377500  0.49377500  0.55780000  1
  Mn  Mn23  1  0.99602900  0.50255500  0.72213900  1
  Mn  Mn24  1  0.50261500  0.50261500  0.66580500  1
  Mn  Mn25  1  0.50255500  0.99602900  0.72213900  1
  Mn  Mn26  1  0.50114100  0.50114100  0.72224200  1
  Mn  Mn27  1  0.00397100  0.49744500  0.83341600  1
  Mn  Mn28  1  0.49885900  0.49885900  0.83331300  1
  Mn  Mn29  1  0.00147000  0.50162700  0.94427400  1
  Mn  Mn30  1  0.49744500  0.00397100  0.83341600  1
  Mn  Mn31  1  0.50162700  0.00147000  0.94427400  1
  Mn  Mn32  1  0.49738500  0.49738500  0.88975100  1
  O  O0  1  0.26715100  0.26715100  0.02819100  1
  O  O1  1  0.26453900  0.26453900  0.07890200  1
  O  O2  1  0.27024800  0.70783100  0.02884600  1
  O  O3  1  0.70783100  0.27024800  0.02884600  1
  O  O4  1  0.28491400  0.74700700  0.07891400  1
  O  O5  1  0.26656300  0.26656300  0.13915500  1
  O  O6  1  0.74700700  0.28491400  0.07891400  1
  O  O7  1  0.26793600  0.26793600  0.19102100  1
  O  O8  1  0.26028200  0.71306400  0.14241600  1
  O  O9  1  0.73678100  0.73678100  0.03094700  1
  O  O10  1  0.73574600  0.73574600  0.08064000  1
  O  O11  1  0.71306400  0.26028200  0.14241600  1
  O  O12  1  0.26207400  0.26207400  0.25058200  1
  O  O13  1  0.29353400  0.73088700  0.19311700  1
  O  O14  1  0.73088700  0.29353400  0.19311700  1
  O  O15  1  0.73398800  0.73398800  0.14218200  1
  O  O16  1  0.26737100  0.26737100  0.30142000  1
  O  O17  1  0.25597000  0.71367400  0.24915400  1
  O  O18  1  0.71367400  0.25597000  0.24915400  1
  O  O19  1  0.73068500  0.73068500  0.19518800  1
  O  O20  1  0.28632600  0.74403000  0.30640200  1
  O  O21  1  0.26931500  0.26931500  0.36036800  1
  O  O22  1  0.26601200  0.26601200  0.41337300  1
  O  O23  1  0.74403000  0.28632600  0.30640200  1
  O  O24  1  0.26911300  0.70646600  0.36243900  1
  O  O25  1  0.73262900  0.73262900  0.25413500  1
  O  O26  1  0.70646600  0.26911300  0.36243900  1
  O  O27  1  0.73792600  0.73792600  0.30497400  1
  O  O28  1  0.26425400  0.26425400  0.47491600  1
  O  O29  1  0.28693600  0.73971800  0.41314000  1
  O  O30  1  0.25299300  0.71508600  0.47664200  1
  O  O31  1  0.26321900  0.26321900  0.52460800  1
  O  O32  1  0.73206400  0.73206400  0.36453400  1
  O  O33  1  0.73971800  0.28693600  0.41314000  1
  O  O34  1  0.71508600  0.25299300  0.47664200  1
  O  O35  1  0.73343700  0.73343700  0.41640100  1
  O  O36  1  0.25667100  0.25667100  0.58567100  1
  O  O37  1  0.29216900  0.72975200  0.52671000  1
  O  O38  1  0.25467100  0.25467100  0.63368100  1
  O  O39  1  0.72975200  0.29216900  0.52671000  1
  O  O40  1  0.73546100  0.73546100  0.47665400  1
  O  O41  1  0.25825200  0.71095700  0.58178100  1
  O  O42  1  0.73284900  0.73284900  0.52736500  1
  O  O43  1  0.71095700  0.25825200  0.58178100  1
  O  O44  1  0.28949900  0.74287300  0.63983700  1
  O  O45  1  0.26622700  0.26622700  0.69564800  1
  O  O46  1  0.26114600  0.26114600  0.74546200  1
  O  O47  1  0.74287300  0.28949900  0.63983700  1
  O  O48  1  0.27003500  0.70665600  0.69582800  1
  O  O49  1  0.74597200  0.74597200  0.58844800  1
  O  O50  1  0.70665600  0.27003500  0.69582800  1
  O  O51  1  0.74227300  0.74227300  0.63670800  1
  O  O52  1  0.24839900  0.24839900  0.81087000  1
  O  O53  1  0.29110300  0.74766500  0.74518600  1
  O  O54  1  0.26043400  0.26043400  0.85719500  1
  O  O55  1  0.73956600  0.73956600  0.69836100  1
  O  O56  1  0.25233500  0.70889700  0.81036900  1
  O  O57  1  0.74766500  0.29110300  0.74518600  1
  O  O58  1  0.70889700  0.25233500  0.81036900  1
  O  O59  1  0.75160100  0.75160100  0.74468600  1
  O  O60  1  0.25772700  0.25772700  0.91884700  1
  O  O61  1  0.29334400  0.72996500  0.85972700  1
  O  O62  1  0.25712700  0.71050100  0.91571800  1
  O  O63  1  0.25402800  0.25402800  0.96710800  1
  O  O64  1  0.72996500  0.29334400  0.85972700  1
  O  O65  1  0.73885400  0.73885400  0.81009400  1
  O  O66  1  0.71050100  0.25712700  0.91571800  1
  O  O67  1  0.73377300  0.73377300  0.85990700  1
  O  O68  1  0.28904300  0.74174800  0.97377400  1
  O  O69  1  0.74174800  0.28904300  0.97377400  1
  O  O70  1  0.74532900  0.74532900  0.92187500  1
  O  O71  1  0.74332900  0.74332900  0.96988400  1
loop_
_geom_bond_atom_site_label_1
_geom_bond_atom_site_label_2
_geom_bond_distance
_geom_bond_site_symmetry_2
Li0 O63 1.933271 1_554
Li0 O3 2.027781 1_455
Li0 O2 2.027781 1_545
Li0 O0 2.034996 1_555
Li1 O5 1.933602 1_555
Li1 O11 1.984089 1_455
Li1 O8 1.984089 1_545
Li1 O1 2.023290 1_555
Li2 O7 1.924773 1_555
Li2 O12 1.958948 1_555
Li2 O18 1.982979 1_455
Li2 O17 1.982979 1_545
Li3 O4 1.973851 1_655
Li3 O6 1.973851 1_565
Li3 O15 1.992725 1_555
Li3 O10 1.998512 1_555
Li4 O21 1.954388 1_555
Li4 O16 1.959402 1_555
Li4 O26 2.021366 1_455
Li4 O24 2.021366 1_545
Li5 O34 1.973853 1_455
Li5 O30 1.973853 1_545
Li5 O22 1.992725 1_555
Li5 O28 1.998555 1_555
Li6 O19 1.954345 1_555
Li6 O25 1.959402 1_555
Li6 O13 2.021366 1_655
Li6 O14 2.021366 1_565
Li7 O32 1.924773 1_555
Li7 O27 1.958904 1_555
Li7 O20 1.982982 1_655
Li7 O23 1.982982 1_565
Li8 O43 1.949224 1_455
Li8 O41 1.949224 1_545
Li8 O31 1.993503 1_555
Li8 O36 2.011733 1_555
Li9 O35 1.933602 1_555
Li9 O29 1.984089 1_655
Li9 O33 1.984089 1_565
Li9 O40 2.023290 1_555
Li10 O38 1.964725 1_555
Li10 O50 2.019469 1_455
Li10 O48 2.019469 1_545
Li10 O45 2.060291 1_555
Li11 O38 2.025118 1_555
Li11 O49 2.029911 1_555
Li11 O47 2.106089 1_555
Li11 O44 2.106089 1_555
Li11 O41 2.145710 1_555
Li11 O43 2.145710 1_555
Li12 O49 1.933271 1_555
Li12 O37 2.027781 1_655
Li12 O39 2.027781 1_565
Li12 O42 2.034996 1_555
Li13 O58 1.963226 1_455
Li13 O56 1.963226 1_545
Li13 O52 1.973191 1_555
Li13 O46 2.115621 1_555
Li14 O44 1.937006 1_655
Li14 O47 1.937006 1_565
Li14 O55 2.030266 1_555
Li14 O51 2.033698 1_555
Li15 O59 2.078580 1_555
Li15 O52 2.078580 1_555
Li15 O58 2.120138 1_555
Li15 O56 2.120138 1_555
Li15 O53 2.120179 1_555
Li15 O57 2.120179 1_555
Li16 O66 1.937010 1_455
Li16 O62 1.937010 1_545
Li16 O54 2.030266 1_555
Li16 O60 2.033655 1_555
Li17 O53 1.963228 1_655
Li17 O57 1.963228 1_565
Li17 O59 1.973236 1_555
Li17 O65 2.115576 1_555
Li18 O70 2.025125 1_555
Li18 O63 2.029905 1_555
Li18 O62 2.106089 1_555
Li18 O66 2.106089 1_555
Li18 O69 2.145710 1_555
Li18 O68 2.145710 1_555
Li19 O70 1.964725 1_555
Li19 O61 2.019471 1_655
Li19 O64 2.019471 1_565
Li19 O67 2.060336 1_555
Li20 O68 1.949224 1_655
Li20 O69 1.949224 1_565
Li20 O9 1.993503 1_556
Li20 O71 2.011733 1_555
Mn0 O6 1.930424 1_455
Mn0 O2 1.958400 1_555
Mn0 O0 1.970530 1_555
Mn0 O10 1.989756 1_455
Mn0 O9 2.009355 1_455
Mn0 O1 2.023671 1_555
Mn1 O4 1.930424 1_545
Mn1 O3 1.958400 1_555
Mn1 O0 1.970530 1_555
Mn1 O10 1.989756 1_545
Mn1 O9 2.009355 1_545
Mn1 O1 2.023671 1_555
Mn2 O68 1.819053 1_555
Mn2 O69 1.819053 1_555
Mn2 O71 1.943544 1_555
Mn2 O0 1.968750 1_556
Mn2 O3 2.031538 1_556
Mn2 O2 2.031538 1_556
Mn3 O9 1.931691 1_555
Mn3 O2 1.940700 1_555
Mn3 O3 1.940700 1_555
Mn3 O1 1.943875 1_555
Mn3 O6 1.956611 1_555
Mn3 O4 1.956611 1_555
Mn4 O8 1.927457 1_555
Mn4 O14 1.974432 1_455
Mn4 O19 2.035276 1_455
Mn4 O7 2.037724 1_555
Mn4 O5 2.038366 1_555
Mn4 O15 2.055375 1_455
Mn5 O5 1.900968 1_555
Mn5 O10 1.956569 1_555
Mn5 O4 2.096412 1_555
Mn5 O6 2.096412 1_555
Mn5 O11 2.117333 1_555
Mn5 O8 2.117333 1_555
Mn6 O7 1.901713 1_555
Mn6 O15 1.918609 1_555
Mn6 O8 1.927503 1_555
Mn6 O11 1.927503 1_555
Mn6 O14 1.968913 1_555
Mn6 O13 1.968913 1_555
Mn7 O23 1.931929 1_455
Mn7 O17 1.931929 1_555
Mn7 O16 2.020065 1_555
Mn7 O25 2.020101 1_455
Mn7 O27 2.027582 1_455
Mn7 O12 2.027582 1_555
Mn8 O11 1.927457 1_555
Mn8 O13 1.974432 1_545
Mn8 O19 2.035276 1_545
Mn8 O7 2.037724 1_555
Mn8 O5 2.038366 1_555
Mn8 O15 2.055375 1_545
Mn9 O19 1.908498 1_555
Mn9 O18 1.921877 1_555
Mn9 O17 1.921877 1_555
Mn9 O12 1.933698 1_555
Mn9 O13 1.964499 1_555
Mn9 O14 1.964499 1_555
Mn10 O25 1.908942 1_555
Mn10 O16 1.908946 1_555
Mn10 O23 2.114971 1_555
Mn10 O17 2.114971 1_555
Mn10 O20 2.114971 1_555
Mn10 O18 2.114971 1_555
Mn11 O33 1.927457 1_555
Mn11 O24 1.974432 1_655
Mn11 O21 2.035276 1_655
Mn11 O32 2.037761 1_555
Mn11 O35 2.038366 1_555
Mn11 O22 2.055338 1_655
Mn12 O21 1.908500 1_555
Mn12 O20 1.921839 1_555
Mn12 O23 1.921839 1_555
Mn12 O27 1.933695 1_555
Mn12 O26 1.964539 1_555
Mn12 O24 1.964539 1_555
Mn13 O20 1.931929 1_545
Mn13 O18 1.931929 1_555
Mn13 O16 2.020065 1_555
Mn13 O25 2.020101 1_545
Mn13 O27 2.027582 1_545
Mn13 O12 2.027582 1_555
Mn14 O32 1.901711 1_555
Mn14 O22 1.918611 1_555
Mn14 O33 1.927503 1_555
Mn14 O29 1.927503 1_555
Mn14 O24 1.968913 1_555
Mn14 O26 1.968913 1_555
Mn15 O30 1.930424 1_655
Mn15 O39 1.958400 1_555
Mn15 O42 1.970530 1_555
Mn15 O28 1.989756 1_655
Mn15 O31 2.009320 1_655
Mn15 O40 2.023671 1_555
Mn16 O29 1.927457 1_555
Mn16 O26 1.974432 1_565
Mn16 O21 2.035276 1_565
Mn16 O32 2.037761 1_555
Mn16 O35 2.038366 1_555
Mn16 O22 2.055338 1_565
Mn17 O34 1.930424 1_565
Mn17 O37 1.958400 1_555
Mn17 O42 1.970530 1_555
Mn17 O28 1.989756 1_565
Mn17 O31 2.009320 1_565
Mn17 O40 2.023671 1_555
Mn18 O35 1.900963 1_555
Mn18 O28 1.956574 1_555
Mn18 O34 2.096452 1_555
Mn18 O30 2.096452 1_555
Mn18 O29 2.117292 1_555
Mn18 O33 2.117292 1_555
Mn19 O31 1.931695 1_555
Mn19 O39 1.940700 1_555
Mn19 O37 1.940700 1_555
Mn19 O40 1.943875 1_555
Mn19 O30 1.956611 1_555
Mn19 O34 1.956611 1_555
Mn20 O47 1.912849 1_555
Mn20 O38 1.928178 1_655
Mn20 O49 1.928910 1_555
Mn20 O41 1.946820 1_655
Mn20 O36 1.984433 1_655
Mn20 O51 1.986190 1_555
Mn21 O44 1.912849 1_555
Mn21 O38 1.928178 1_565
Mn21 O49 1.928910 1_555
Mn21 O43 1.946820 1_565
Mn21 O36 1.984433 1_565
Mn21 O51 1.986190 1_555
Mn22 O43 1.819017 1_555
Mn22 O41 1.819017 1_555
Mn22 O36 1.943542 1_555
Mn22 O42 1.968750 1_555
Mn22 O37 2.031538 1_555
Mn22 O39 2.031538 1_555
Mn23 O57 1.890924 1_555
Mn23 O59 1.903255 1_555
Mn23 O48 1.968857 1_655
Mn23 O55 1.976671 1_555
Mn23 O46 1.998590 1_655
Mn23 O45 1.999864 1_655
Mn24 O44 1.876957 1_555
Mn24 O47 1.876957 1_555
Mn24 O45 1.945286 1_555
Mn24 O51 1.967133 1_555
Mn24 O50 1.997954 1_555
Mn24 O48 1.997954 1_555
Mn25 O53 1.890924 1_555
Mn25 O59 1.903255 1_555
Mn25 O50 1.968857 1_565
Mn25 O55 1.976671 1_555
Mn25 O46 1.998590 1_565
Mn25 O45 1.999864 1_565
Mn26 O57 1.905459 1_555
Mn26 O53 1.905459 1_555
Mn26 O55 1.957759 1_555
Mn26 O48 1.973121 1_555
Mn26 O50 1.973121 1_555
Mn26 O46 1.974265 1_555
Mn27 O56 1.890924 1_555
Mn27 O52 1.903221 1_555
Mn27 O64 1.968857 1_455
Mn27 O54 1.976706 1_555
Mn27 O65 1.998555 1_455
Mn27 O67 1.999864 1_455
Mn28 O56 1.905459 1_555
Mn28 O58 1.905459 1_555
Mn28 O54 1.957756 1_555
Mn28 O64 1.973121 1_555
Mn28 O61 1.973121 1_555
Mn28 O65 1.974270 1_555
Mn29 O62 1.912849 1_555
Mn29 O70 1.928144 1_455
Mn29 O63 1.928944 1_555
Mn29 O69 1.946820 1_455
Mn29 O71 1.984433 1_455
Mn29 O60 1.986190 1_555
Mn30 O58 1.890924 1_555
Mn30 O52 1.903221 1_555
Mn30 O61 1.968857 1_545
Mn30 O54 1.976706 1_555
Mn30 O65 1.998555 1_545
Mn30 O67 1.999864 1_545
Mn31 O66 1.912849 1_555
Mn31 O70 1.928144 1_545
Mn31 O63 1.928944 1_555
Mn31 O68 1.946820 1_545
Mn31 O71 1.984433 1_545
Mn31 O60 1.986190 1_555
Mn32 O66 1.876920 1_555
Mn32 O62 1.876920 1_555
Mn32 O67 1.945291 1_555
Mn32 O60 1.967129 1_555
Mn32 O61 1.997994 1_555
Mn32 O64 1.997994 1_555
