# generated using pymatgen
data_CdI2
_symmetry_space_group_name_H-M   'P 1'
_cell_length_a   4.28266299
_cell_length_b   4.28266319
_cell_length_c   71.66248870
_cell_angle_alpha   90.00000000
_cell_angle_beta   90.00000000
_cell_angle_gamma   120.00000635
_symmetry_Int_Tables_number   1
_chemical_formula_structural   CdI2
_chemical_formula_sum   'Cd10 I20'
_cell_volume   1138.28316221
_cell_formula_units_Z   10
loop_
 _symmetry_equiv_pos_site_id
 _symmetry_equiv_pos_as_xyz
  1  'x, y, z'
loop_
 _atom_site_type_symbol
 _atom_site_label
 _atom_site_symmetry_multiplicity
 _atom_site_fract_x
 _atom_site_fract_y
 _atom_site_fract_z
 _atom_site_occupancy
  Cd  Cd0  1  0.66666700  0.33333300  0.22499855  1
  Cd  Cd1  1  0.66666700  0.33333300  0.72499958  1
  Cd  Cd2  1  0.00000000  0.00000000  0.82499594  1
  Cd  Cd3  1  0.66666700  0.33333300  0.42500177  1
  Cd  Cd4  1  -0.00000000  0.00000000  0.92500035  1
  Cd  Cd5  1  0.66666700  0.33333300  0.02499746  1
  Cd  Cd6  1  0.00000000  0.00000000  0.32500242  1
  Cd  Cd7  1  -0.00000000  0.00000000  0.52500047  1
  Cd  Cd8  1  -0.00000000  0.00000000  0.12500458  1
  Cd  Cd9  1  -0.00000000  0.00000000  0.62499694  1
  I  I0  1  0.00000000  0.00000000  0.20094553  1
  I  I1  1  0.33333300  0.66666700  0.44905440  1
  I  I2  1  0.33333300  0.66666700  0.34905386  1
  I  I3  1  0.66666700  0.33333300  0.10095245  1
  I  I4  1  0.66666700  0.33333300  0.90094602  1
  I  I5  1  0.33333300  0.66666700  0.94904927  1
  I  I6  1  0.00000000  0.00000000  0.40094571  1
  I  I7  1  0.33333300  0.66666700  0.04905490  1
  I  I8  1  0.66666700  0.33333300  0.30094583  1
  I  I9  1  0.00000000  -0.00000000  0.00094563  1
  I  I10  1  0.33333300  0.66666700  0.54905515  1
  I  I11  1  0.66666700  0.33333300  0.60094806  1
  I  I12  1  0.33333300  0.66666700  0.14905400  1
  I  I13  1  0.33333300  0.66666700  0.24905356  1
  I  I14  1  0.00000000  0.00000000  0.70094901  1
  I  I15  1  0.66666700  0.33333300  0.50094463  1
  I  I16  1  0.33333300  0.66666700  0.84905211  1
  I  I17  1  0.33333300  0.66666700  0.64905347  1
  I  I18  1  0.66666700  0.33333300  0.80094554  1
  I  I19  1  0.33333300  0.66666700  0.74905482  1
loop_
_geom_bond_atom_site_label_1
_geom_bond_atom_site_label_2
_geom_bond_distance
_geom_bond_site_symmetry_2
Cd0 I0 3.014110 1_655
Cd0 I0 3.014113 1_555
Cd0 I0 3.014113 1_665
Cd0 I13 3.014192 1_655
Cd0 I13 3.014192 1_545
Cd0 I13 3.014198 1_555
Cd1 I14 3.014010 1_655
Cd1 I14 3.014013 1_555
Cd1 I14 3.014013 1_665
Cd1 I19 3.014201 1_655
Cd1 I19 3.014201 1_545
Cd1 I19 3.014208 1_555
Cd2 I18 3.014003 1_455
Cd2 I18 3.014006 1_555
Cd2 I18 3.014006 1_445
Cd2 I16 3.014240 1_545
Cd2 I16 3.014242 1_445
Cd2 I16 3.014242 1_555
Cd3 I1 3.014094 1_655
Cd3 I1 3.014094 1_545
Cd3 I1 3.014101 1_555
Cd3 I6 3.014235 1_655
Cd3 I6 3.014238 1_555
Cd3 I6 3.014238 1_665
Cd4 I5 3.013942 1_545
Cd4 I5 3.013945 1_445
Cd4 I5 3.013945 1_555
Cd4 I4 3.014164 1_455
Cd4 I4 3.014167 1_555
Cd4 I4 3.014167 1_445
Cd5 I9 3.014062 1_655
Cd5 I9 3.014064 1_555
Cd5 I9 3.014065 1_665
Cd5 I7 3.014291 1_655
Cd5 I7 3.014291 1_545
Cd5 I7 3.014298 1_555
Cd6 I2 3.014046 1_545
Cd6 I2 3.014048 1_445
Cd6 I2 3.014049 1_555
Cd6 I8 3.014257 1_455
Cd6 I8 3.014260 1_555
Cd6 I8 3.014260 1_445
Cd7 I10 3.014178 1_545
Cd7 I10 3.014181 1_445
Cd7 I10 3.014181 1_555
Cd7 I15 3.014226 1_455
Cd7 I15 3.014229 1_555
Cd7 I15 3.014229 1_445
Cd8 I12 3.013963 1_545
Cd8 I12 3.013966 1_445
Cd8 I12 3.013966 1_555
Cd8 I3 3.014074 1_455
Cd8 I3 3.014077 1_555
Cd8 I3 3.014077 1_445
Cd9 I11 3.013941 1_455
Cd9 I11 3.013944 1_555
Cd9 I11 3.013944 1_445
Cd9 I17 3.014254 1_545
Cd9 I17 3.014257 1_445
Cd9 I17 3.014257 1_555
