# generated using pymatgen
data_Ba2Tl2CuO6
_symmetry_space_group_name_H-M   'P 1'
_cell_length_a   12.28312762
_cell_length_b   12.28312762
_cell_length_c   5.58574300
_cell_angle_alpha   90.00000000
_cell_angle_beta   90.00000000
_cell_angle_gamma   154.10576399
_symmetry_Int_Tables_number   1
_chemical_formula_structural   Ba2Tl2CuO6
_chemical_formula_sum   'Ba4 Tl4 Cu2 O12'
_cell_volume   368.03853860
_cell_formula_units_Z   2
loop_
 _symmetry_equiv_pos_site_id
 _symmetry_equiv_pos_as_xyz
  1  'x, y, z'
loop_
 _atom_site_type_symbol
 _atom_site_label
 _atom_site_symmetry_multiplicity
 _atom_site_fract_x
 _atom_site_fract_y
 _atom_site_fract_z
 _atom_site_occupancy
  Ba  Ba0  1  0.08116500  0.91883500  0.50102600  1
  Ba  Ba1  1  0.91883500  0.08116500  0.49897400  1
  Ba  Ba2  1  0.41883500  0.58116500  0.00102600  1
  Ba  Ba3  1  0.58116500  0.41883500  0.99897400  1
  Tl  Tl0  1  0.70207400  0.29792600  0.48078700  1
  Tl  Tl1  1  0.29792600  0.70207400  0.51921300  1
  Tl  Tl2  1  0.79792600  0.20207400  0.98078700  1
  Tl  Tl3  1  0.20207400  0.79792600  0.01921300  1
  Cu  Cu0  1  0.50000000  0.50000000  0.50000000  1
  Cu  Cu1  1  0.00000000  0.00000000  0.00000000  1
  O  O0  1  0.78818200  0.21181800  0.54549200  1
  O  O1  1  0.21181800  0.78818200  0.45450800  1
  O  O2  1  0.71181800  0.28818200  0.04549200  1
  O  O3  1  0.28818200  0.71181800  0.95450800  1
  O  O4  1  0.61703900  0.38296100  0.49935300  1
  O  O5  1  0.38296100  0.61703900  0.50064700  1
  O  O6  1  0.88296100  0.11703900  0.99935300  1
  O  O7  1  0.11703900  0.88296100  0.00064700  1
  O  O8  1  0.75000700  0.74999300  0.25000000  1
  O  O9  1  0.74999300  0.75000700  0.75000000  1
  O  O10  1  0.25000700  0.24999300  0.25000000  1
  O  O11  1  0.24999300  0.25000700  0.75000000  1
loop_
_geom_bond_atom_site_label_1
_geom_bond_atom_site_label_2
_geom_bond_distance
_geom_bond_site_symmetry_2
Ba0 O9 2.757590 1_455
Ba0 O11 2.757590 1_565
Ba0 O10 2.763152 1_565
Ba0 O8 2.763152 1_455
Ba0 O4 2.882981 1_565
Ba0 O4 2.882981 1_455
Ba0 O7 2.919931 1_556
Ba0 O7 2.923977 1_555
Ba0 O1 3.138830 1_555
Ba1 O8 2.757590 1_545
Ba1 O10 2.757590 1_655
Ba1 O11 2.763152 1_655
Ba1 O9 2.763152 1_545
Ba1 O5 2.882981 1_545
Ba1 O5 2.882981 1_655
Ba1 O6 2.919931 1_554
Ba1 O6 2.923977 1_555
Ba1 O0 3.138830 1_555
Ba2 O8 2.757590 1_555
Ba2 O10 2.757590 1_555
Ba2 O9 2.763152 1_554
Ba2 O11 2.763152 1_554
Ba2 O6 2.882981 1_454
Ba2 O6 2.882981 1_564
Ba2 O5 2.919931 1_555
Ba2 O5 2.923977 1_554
Ba2 O3 3.138830 1_554
Ba3 O9 2.757590 1_555
Ba3 O11 2.757590 1_555
Ba3 O8 2.763152 1_556
Ba3 O10 2.763152 1_556
Ba3 O7 2.882981 1_546
Ba3 O7 2.882981 1_656
Ba3 O4 2.919931 1_555
Ba3 O4 2.923977 1_556
Ba3 O2 3.138830 1_556
Cu0 O11 1.960481 1_555
Cu0 O10 1.960481 1_555
Cu0 O8 1.960481 1_555
Cu0 O9 1.960481 1_555
Cu1 O10 1.960481 1_555
Cu1 O11 1.960481 1_554
Cu1 O9 1.960481 1_444
Cu1 O8 1.960481 1_445
O0 Tl0 2.093015 1_555
O0 Tl2 2.442612 1_555
O0 Tl1 2.765823 1_655
O0 Tl1 2.765823 1_545
O1 Tl1 2.093015 1_555
O1 Tl3 2.442612 1_555
O1 Tl0 2.765823 1_565
O1 Tl0 2.765823 1_455
O2 Tl2 2.093015 1_554
O2 Tl0 2.442612 1_555
O2 Tl3 2.765823 1_655
O2 Tl3 2.765823 1_545
O3 Tl3 2.093015 1_556
O3 Tl1 2.442612 1_555
O3 Tl2 2.765823 1_455
O3 Tl2 2.765823 1_565
O4 Tl0 2.038523 1_555
O5 Tl1 2.038523 1_555
O6 Tl2 2.038523 1_555
O7 Tl3 2.038523 1_555
