# generated using pymatgen
data_Cs2SiSe4
_symmetry_space_group_name_H-M   'P 1'
_cell_length_a   7.71213562
_cell_length_b   8.59092714
_cell_length_c   9.74701307
_cell_angle_alpha   67.24088672
_cell_angle_beta   66.69564357
_cell_angle_gamma   63.32985252
_symmetry_Int_Tables_number   1
_chemical_formula_structural   Cs2SiSe4
_chemical_formula_sum   'Cs4 Si2 Se8'
_cell_volume   512.47280217
_cell_formula_units_Z   2
loop_
 _symmetry_equiv_pos_site_id
 _symmetry_equiv_pos_as_xyz
  1  'x, y, z'
loop_
 _atom_site_type_symbol
 _atom_site_label
 _atom_site_symmetry_multiplicity
 _atom_site_fract_x
 _atom_site_fract_y
 _atom_site_fract_z
 _atom_site_occupancy
  Cs  Cs0  1  0.58994769  0.67407479  0.14603184  1
  Cs  Cs1  1  0.15978400  0.96518590  0.71524410  1
  Cs  Cs2  1  0.41005231  0.32592521  0.85396816  1
  Cs  Cs3  1  0.84021600  0.03481410  0.28475590  1
  Si  Si0  1  0.84493648  0.61009356  0.70003448  1
  Si  Si1  1  0.15506352  0.38990644  0.29996552  1
  Se  Se0  1  0.31012028  0.11189074  0.26786769  1
  Se  Se1  1  0.67129792  0.63818712  0.53813686  1
  Se  Se2  1  0.68987972  0.88810926  0.73213231  1
  Se  Se3  1  0.84762090  0.36181288  0.46186314  1
  Se  Se4  1  0.87430759  0.36211614  0.88926769  1
  Se  Se5  1  0.12569241  0.63788386  0.11073231  1
  Se  Se6  1  0.32870208  0.36181288  0.46186314  1
  Se  Se7  1  0.15237910  0.63818712  0.53813686  1
loop_
_geom_bond_atom_site_label_1
_geom_bond_atom_site_label_2
_geom_bond_distance
_geom_bond_site_symmetry_2
Cs0 Se2 3.650073 1_554
Cs0 Se4 3.718331 1_554
Cs0 Se3 3.779851 1_555
Cs0 Se6 3.779863 1_555
Cs0 Se0 3.788917 1_565
Cs0 Se5 3.884720 1_655
Cs0 Se5 3.884728 1_555
Cs0 Se1 3.988370 1_555
Cs0 Se7 3.988374 1_555
Cs1 Se4 3.759421 1_465
Cs1 Se5 3.782930 1_556
Cs1 Se3 3.786155 1_465
Cs1 Se6 3.786159 1_565
Cs1 Se7 3.853455 1_555
Cs1 Se1 3.853467 1_555
Cs1 Se0 3.873851 1_565
Cs1 Se2 3.898272 1_455
Cs1 Se2 3.898295 1_555
Cs2 Se0 3.650073 1_556
Cs2 Se5 3.718331 1_556
Cs2 Se7 3.779851 1_555
Cs2 Se1 3.779863 1_555
Cs2 Se2 3.788917 1_545
Cs2 Se4 3.884720 1_455
Cs2 Se4 3.884728 1_555
Cs2 Se6 3.988370 1_555
Cs2 Se3 3.988374 1_555
Cs3 Se5 3.759421 1_645
Cs3 Se4 3.782930 1_554
Cs3 Se7 3.786155 1_645
Cs3 Se1 3.786159 1_545
Cs3 Se3 3.853455 1_555
Cs3 Se6 3.853467 1_555
Cs3 Se2 3.873851 1_545
Cs3 Se0 3.898272 1_655
Cs3 Se0 3.898295 1_555
Se0 Si1 2.224985 1_555
Se1 Si0 2.329986 1_555
Se2 Si0 2.224985 1_555
Se3 Si1 2.329986 1_655
Se4 Si0 2.202029 1_555
Se5 Si1 2.202029 1_555
Se6 Si1 2.329986 1_555
Se7 Si0 2.329986 1_455
