# generated using pymatgen
data_K6U4O15
_symmetry_space_group_name_H-M   'P 1'
_cell_length_a   7.67597022
_cell_length_b   7.67597022
_cell_length_c   25.00253000
_cell_angle_alpha   90.00000000
_cell_angle_beta   90.00000000
_cell_angle_gamma   109.04689232
_symmetry_Int_Tables_number   1
_chemical_formula_structural   K6U4O15
_chemical_formula_sum   'K18 U12 O45'
_cell_volume   1392.50907796
_cell_formula_units_Z   3
loop_
 _symmetry_equiv_pos_site_id
 _symmetry_equiv_pos_as_xyz
  1  'x, y, z'
loop_
 _atom_site_type_symbol
 _atom_site_label
 _atom_site_symmetry_multiplicity
 _atom_site_fract_x
 _atom_site_fract_y
 _atom_site_fract_z
 _atom_site_occupancy
  K  K0  1  0.75012800  0.24987200  0.00000000  1
  K  K1  1  0.00000000  0.00000000  0.88022300  1
  K  K2  1  0.00000000  0.50000000  0.87493000  1
  K  K3  1  0.24987200  0.75012800  0.00000000  1
  K  K4  1  0.24994500  0.76770900  0.74693900  1
  K  K5  1  0.50000000  0.50000000  0.62061900  1
  K  K6  1  0.75005500  0.23229100  0.74693900  1
  K  K7  1  0.50000000  0.50000000  0.88431900  1
  K  K8  1  0.74120100  0.25879900  0.50000000  1
  K  K9  1  0.00000000  0.00000000  0.37064800  1
  K  K10  1  0.25879900  0.74120100  0.50000000  1
  K  K11  1  0.00000000  0.00000000  0.62935200  1
  K  K12  1  0.50000000  0.50000000  0.11568100  1
  K  K13  1  0.23229100  0.75005500  0.25306100  1
  K  K14  1  0.50000000  0.00000000  0.12507000  1
  K  K15  1  0.50000000  0.50000000  0.37938100  1
  K  K16  1  0.76770900  0.24994500  0.25306100  1
  K  K17  1  0.00000000  0.00000000  0.11977700  1
  U  U0  1  0.24371200  0.24180300  0.74930200  1
  U  U1  1  0.24949700  0.24949700  0.00000000  1
  U  U2  1  0.50000000  0.00000000  0.87510200  1
  U  U3  1  0.74315800  0.74315800  0.50000000  1
  U  U4  1  0.75628800  0.75819700  0.74930200  1
  U  U5  1  0.75050300  0.75050300  0.00000000  1
  U  U6  1  0.00000000  0.50000000  0.62492100  1
  U  U7  1  0.25684200  0.25684200  0.50000000  1
  U  U8  1  0.50000000  0.00000000  0.37507900  1
  U  U9  1  0.75819700  0.75628800  0.25069800  1
  U  U10  1  0.00000000  0.50000000  0.12489800  1
  U  U11  1  0.24180300  0.24371200  0.25069800  1
  O  O0  1  0.85619600  0.64347300  0.94581600  1
  O  O1  1  0.87499400  0.62428500  0.06402600  1
  O  O2  1  0.00000000  0.00000000  0.00000000  1
  O  O3  1  0.15550800  0.36689600  0.80183000  1
  O  O4  1  0.35652700  0.14380400  0.05418400  1
  O  O5  1  0.36644000  0.15369200  0.69634400  1
  O  O6  1  0.37571500  0.12500600  0.93597400  1
  O  O7  1  0.38252200  0.14011500  0.80869300  1
  O  O8  1  0.12500600  0.37571500  0.06402600  1
  O  O9  1  0.14380400  0.35652700  0.94581600  1
  O  O10  1  0.65530900  0.86564400  0.55256000  1
  O  O11  1  0.28567800  0.78906700  0.87235900  1
  O  O12  1  0.71432200  0.21093300  0.87235900  1
  O  O13  1  0.86564400  0.65530900  0.44744000  1
  O  O14  1  0.50000000  0.50000000  0.00000000  1
  O  O15  1  0.62428500  0.87499400  0.93597400  1
  O  O16  1  0.88200000  0.63886200  0.56079500  1
  O  O17  1  0.86073600  0.61840300  0.68871400  1
  O  O18  1  0.61747800  0.85988500  0.80869300  1
  O  O19  1  0.63356000  0.84630800  0.69634400  1
  O  O20  1  0.64347300  0.85619600  0.05418400  1
  O  O21  1  0.79037400  0.29040100  0.62520100  1
  O  O22  1  0.36689600  0.15550800  0.19817000  1
  O  O23  1  0.20962600  0.70959900  0.62520100  1
  O  O24  1  0.84449200  0.63310400  0.80183000  1
  O  O25  1  0.36113800  0.11800000  0.43920500  1
  O  O26  1  0.00000000  0.00000000  0.74877300  1
  O  O27  1  0.13926400  0.38159700  0.68871400  1
  O  O28  1  0.38159700  0.13926400  0.31128600  1
  O  O29  1  0.11800000  0.36113800  0.56079500  1
  O  O30  1  0.13435600  0.34469100  0.44744000  1
  O  O31  1  0.29040100  0.79037400  0.37479900  1
  O  O32  1  0.70959900  0.20962600  0.37479900  1
  O  O33  1  0.84630800  0.63356000  0.30365600  1
  O  O34  1  0.34469100  0.13435600  0.55256000  1
  O  O35  1  0.63886200  0.88200000  0.43920500  1
  O  O36  1  0.85988500  0.61747800  0.19130700  1
  O  O37  1  0.50000000  0.50000000  0.50000000  1
  O  O38  1  0.61840300  0.86073600  0.31128600  1
  O  O39  1  0.63310400  0.84449200  0.19817000  1
  O  O40  1  0.78906700  0.28567800  0.12764100  1
  O  O41  1  0.21093300  0.71432200  0.12764100  1
  O  O42  1  0.14011500  0.38252200  0.19130700  1
  O  O43  1  0.00000000  0.00000000  0.25122700  1
  O  O44  1  0.15369200  0.36644000  0.30365600  1
loop_
_geom_bond_atom_site_label_1
_geom_bond_atom_site_label_2
_geom_bond_distance
_geom_bond_site_symmetry_2
K0 O2 3.123875 1_655
K0 O14 3.127075 1_555
K0 O6 3.153275 1_554
K0 O1 3.153275 1_555
K0 O8 3.156230 1_655
K0 O15 3.156230 1_544
K0 O0 3.165559 1_554
K0 O4 3.165559 1_555
K0 O9 3.165819 1_654
K0 O20 3.165819 1_545
K0 O40 3.208732 1_555
K0 O12 3.208732 1_554
K1 O2 2.994728 1_556
K1 O15 3.061842 1_445
K1 O6 3.061842 1_555
K1 O9 3.070152 1_555
K1 O0 3.070152 1_445
K1 O12 3.128283 1_455
K1 O11 3.128283 1_545
K1 O26 3.286583 1_555
K1 O7 3.303862 1_555
K1 O18 3.303862 1_445
K1 O24 3.317206 1_445
K1 O3 3.317206 1_555
K2 O9 2.523071 1_555
K2 O0 2.523071 1_455
K2 O11 2.561326 1_555
K2 O12 2.561326 1_455
K2 O24 2.570052 1_455
K2 O3 2.570052 1_555
K3 O2 3.123875 1_565
K3 O14 3.127075 1_555
K3 O15 3.153275 1_554
K3 O8 3.153275 1_555
K3 O1 3.156230 1_455
K3 O6 3.156230 1_564
K3 O20 3.165559 1_555
K3 O9 3.165559 1_554
K3 O4 3.165819 1_565
K3 O0 3.165819 1_454
K3 O11 3.208732 1_554
K3 O41 3.208732 1_555
K4 O26 3.015808 1_565
K4 O5 3.073890 1_565
K4 O23 3.077191 1_555
K4 O19 3.078226 1_555
K4 O18 3.088813 1_555
K4 O7 3.113255 1_565
K4 O11 3.147397 1_555
K4 O27 3.159373 1_555
K4 O17 3.181743 1_455
K4 O3 3.227847 1_555
K4 O24 3.246281 1_455
K5 O37 3.015780 1_555
K5 O17 3.122416 1_555
K5 O27 3.122416 1_555
K5 O21 3.148039 1_555
K5 O23 3.148039 1_555
K5 O5 3.150120 1_555
K5 O19 3.150120 1_555
K5 O29 3.151412 1_555
K5 O16 3.151412 1_555
K5 O10 3.163917 1_555
K5 O34 3.163917 1_555
K6 O26 3.015808 1_655
K6 O19 3.073890 1_545
K6 O21 3.077191 1_555
K6 O5 3.078226 1_555
K6 O7 3.088813 1_555
K6 O18 3.113255 1_545
K6 O12 3.147397 1_555
K6 O17 3.159373 1_555
K6 O27 3.181743 1_655
K6 O24 3.227847 1_555
K6 O3 3.246281 1_655
K7 O14 2.892318 1_556
K7 O6 3.011851 1_555
K7 O15 3.011851 1_555
K7 O0 3.014512 1_555
K7 O9 3.014512 1_555
K7 O11 3.178327 1_555
K7 O12 3.178327 1_555
K7 O18 3.223939 1_555
K7 O7 3.223939 1_555
K7 O24 3.244462 1_555
K7 O3 3.244462 1_555
K8 O37 3.015471 1_555
K8 O29 3.132098 1_655
K8 O35 3.132098 1_545
K8 O25 3.151443 1_555
K8 O16 3.151443 1_555
K8 O21 3.152870 1_555
K8 O32 3.152870 1_555
K8 O30 3.157593 1_655
K8 O10 3.157593 1_545
K8 O34 3.163121 1_555
K8 O13 3.163121 1_555
K9 O43 2.985827 1_555
K9 O35 3.131166 1_445
K9 O25 3.131166 1_555
K9 O28 3.143515 1_555
K9 O38 3.143515 1_445
K9 O31 3.148001 1_545
K9 O32 3.148001 1_455
K9 O44 3.153287 1_555
K9 O33 3.153287 1_445
K9 O13 3.157447 1_445
K9 O30 3.157447 1_555
K10 O37 3.015471 1_555
K10 O25 3.132098 1_565
K10 O16 3.132098 1_455
K10 O35 3.151443 1_555
K10 O29 3.151443 1_555
K10 O23 3.152870 1_555
K10 O31 3.152870 1_555
K10 O34 3.157593 1_565
K10 O13 3.157593 1_455
K10 O30 3.163121 1_555
K10 O10 3.163121 1_555
K11 O26 2.985827 1_555
K11 O29 3.131166 1_555
K11 O16 3.131166 1_445
K11 O17 3.143515 1_445
K11 O27 3.143515 1_555
K11 O23 3.148001 1_545
K11 O21 3.148001 1_455
K11 O19 3.153287 1_445
K11 O5 3.153287 1_555
K11 O34 3.157447 1_555
K11 O10 3.157447 1_445
K12 O14 2.892318 1_555
K12 O8 3.011851 1_555
K12 O1 3.011851 1_555
K12 O20 3.014512 1_555
K12 O4 3.014512 1_555
K12 O41 3.178327 1_555
K12 O40 3.178327 1_555
K12 O36 3.223939 1_555
K12 O42 3.223939 1_555
K12 O22 3.244462 1_555
K12 O39 3.244462 1_555
K13 O43 3.015808 1_565
K13 O33 3.073890 1_455
K13 O31 3.077191 1_555
K13 O44 3.078226 1_555
K13 O42 3.088813 1_555
K13 O36 3.113255 1_455
K13 O41 3.147397 1_555
K13 O38 3.159373 1_555
K13 O28 3.181743 1_565
K13 O39 3.227847 1_555
K13 O22 3.246281 1_565
K14 O4 2.523071 1_555
K14 O20 2.523071 1_545
K14 O41 2.561326 1_545
K14 O40 2.561326 1_555
K14 O39 2.570052 1_545
K14 O22 2.570052 1_555
K15 O37 3.015780 1_555
K15 O38 3.122416 1_555
K15 O28 3.122416 1_555
K15 O31 3.148039 1_555
K15 O32 3.148039 1_555
K15 O33 3.150120 1_555
K15 O44 3.150120 1_555
K15 O25 3.151412 1_555
K15 O35 3.151412 1_555
K15 O13 3.163917 1_555
K15 O30 3.163917 1_555
K16 O43 3.015808 1_655
K16 O44 3.073890 1_655
K16 O32 3.077191 1_555
K16 O33 3.078226 1_555
K16 O36 3.088813 1_555
K16 O42 3.113255 1_655
K16 O40 3.147397 1_555
K16 O28 3.159373 1_555
K16 O38 3.181743 1_545
K16 O22 3.227847 1_555
K16 O39 3.246281 1_545
K17 O2 2.994728 1_555
K17 O8 3.061842 1_555
K17 O1 3.061842 1_445
K17 O4 3.070152 1_555
K17 O20 3.070152 1_445
K17 O41 3.128283 1_545
K17 O40 3.128283 1_455
K17 O43 3.286583 1_555
K17 O42 3.303862 1_555
K17 O36 3.303862 1_445
K17 O39 3.317206 1_445
K17 O22 3.317206 1_555
O0 U5 1.898290 1_556
O1 U10 2.178226 1_655
O1 U5 2.240241 1_555
O2 U5 2.222969 1_445
O2 U1 2.222969 1_555
O3 U0 1.878713 1_555
O4 U1 1.898290 1_555
O5 U0 1.874555 1_555
O6 U2 2.178226 1_555
O6 U1 2.240241 1_556
O7 U0 2.119525 1_555
O7 U2 2.315129 1_555
O8 U10 2.178226 1_555
O8 U1 2.240241 1_555
O9 U1 1.898290 1_556
O10 U3 1.865325 1_555
O11 U2 1.895828 1_565
O12 U2 1.895828 1_555
O13 U3 1.865325 1_555
O14 U1 2.231932 1_555
O14 U5 2.231932 1_555
O15 U2 2.178226 1_565
O15 U5 2.240241 1_556
O16 U3 2.155017 1_555
O16 U6 2.270969 1_655
O17 U4 2.156507 1_555
O17 U6 2.268668 1_655
O18 U4 2.119525 1_555
O18 U2 2.315129 1_565
O19 U4 1.874555 1_555
O20 U5 1.898290 1_555
O21 U6 1.867619 1_655
O22 U11 1.878713 1_555
O23 U6 1.867619 1_555
O24 U4 1.878713 1_555
O25 U7 2.155017 1_555
O25 U8 2.270969 1_555
O26 U4 2.162995 1_445
O26 U0 2.162995 1_555
O27 U0 2.156507 1_555
O27 U6 2.268668 1_555
O28 U11 2.156507 1_555
O28 U8 2.268668 1_555
O29 U7 2.155017 1_555
O29 U6 2.270969 1_555
O30 U7 1.865325 1_555
O31 U8 1.867619 1_565
O32 U8 1.867619 1_555
O33 U9 1.874555 1_555
O34 U7 1.865325 1_555
O35 U3 2.155017 1_555
O35 U8 2.270969 1_565
O36 U9 2.119525 1_555
O36 U10 2.315129 1_655
O37 U7 2.166490 1_555
O37 U3 2.166490 1_555
O38 U9 2.156507 1_555
O38 U8 2.268668 1_565
O39 U9 1.878713 1_555
O40 U10 1.895828 1_655
O41 U10 1.895828 1_555
O42 U11 2.119525 1_555
O42 U10 2.315129 1_555
O43 U11 2.162995 1_555
O43 U9 2.162995 1_445
O44 U11 1.874555 1_555
