# generated using pymatgen
data_CoPH6O6F
_symmetry_space_group_name_H-M   'P 1'
_cell_length_a   4.83367007
_cell_length_b   11.28062536
_cell_length_c   10.41229616
_cell_angle_alpha   96.37804334
_cell_angle_beta   99.36758852
_cell_angle_gamma   90.90338812
_symmetry_Int_Tables_number   1
_chemical_formula_structural   CoPH6O6F
_chemical_formula_sum   'Co4 P4 H24 O24 F4'
_cell_volume   556.37916239
_cell_formula_units_Z   4
loop_
 _symmetry_equiv_pos_site_id
 _symmetry_equiv_pos_as_xyz
  1  'x, y, z'
loop_
 _atom_site_type_symbol
 _atom_site_label
 _atom_site_symmetry_multiplicity
 _atom_site_fract_x
 _atom_site_fract_y
 _atom_site_fract_z
 _atom_site_occupancy
  Co  Co0  1  0.00000000  0.50000000  0.00000000  1
  Co  Co1  1  0.50000000  0.00000000  0.50000000  1
  Co  Co2  1  0.00000000  0.00000000  0.00000000  1
  Co  Co3  1  0.50000000  0.50000000  0.50000000  1
  P  P0  1  0.07322400  0.41944900  0.69526300  1
  P  P1  1  0.07361800  0.91994400  0.69579100  1
  P  P2  1  0.92638300  0.08005700  0.30420900  1
  P  P3  1  0.92677500  0.58055100  0.30473700  1
  H  H0  1  0.50885200  0.38552800  0.89678500  1
  H  H1  1  0.50945900  0.88542300  0.89699500  1
  H  H2  1  0.49054000  0.11457700  0.10300500  1
  H  H3  1  0.49114800  0.61447200  0.10321500  1
  H  H4  1  0.73113300  0.28144100  0.91953800  1
  H  H5  1  0.73193000  0.78136300  0.91943300  1
  H  H6  1  0.26807000  0.21863800  0.08056700  1
  H  H7  1  0.26886600  0.71855800  0.08046200  1
  H  H8  1  0.23618000  0.40881100  0.21117200  1
  H  H9  1  0.23580900  0.90899600  0.21077900  1
  H  H10  1  0.76419100  0.09100400  0.78922100  1
  H  H11  1  0.76382000  0.59118900  0.78882800  1
  H  H12  1  0.46144300  0.39912200  0.11517100  1
  H  H13  1  0.46132400  0.89911600  0.11494300  1
  H  H14  1  0.53867600  0.10088400  0.88505700  1
  H  H15  1  0.53855700  0.60087800  0.88482900  1
  H  H16  1  0.64646900  0.26680000  0.40518000  1
  H  H17  1  0.64511900  0.76744300  0.40389600  1
  H  H18  1  0.35488200  0.23255700  0.59610400  1
  H  H19  1  0.35353100  0.73320000  0.59482000  1
  H  H20  1  0.85881500  0.37065800  0.38963500  1
  H  H21  1  0.85835600  0.87092200  0.38808300  1
  H  H22  1  0.14164400  0.12907800  0.61191700  1
  H  H23  1  0.14118500  0.62934200  0.61036500  1
  O  O0  1  0.20464400  0.44473400  0.84081400  1
  O  O1  1  0.20625400  0.94482000  0.84116300  1
  O  O2  1  0.79374600  0.05518000  0.15883700  1
  O  O3  1  0.79535600  0.55526600  0.15918600  1
  O  O4  1  0.28704400  0.38842800  0.60558500  1
  O  O5  1  0.28497900  0.88918900  0.60480100  1
  O  O6  1  0.71502100  0.11081100  0.39519900  1
  O  O7  1  0.71295600  0.61157300  0.39441500  1
  O  O8  1  0.86634700  0.01558200  0.65425900  1
  O  O9  1  0.86690500  0.51519100  0.65267900  1
  O  O10  1  0.13309500  0.48481000  0.34732100  1
  O  O11  1  0.13365300  0.98441800  0.34574100  1
  O  O12  1  0.69038700  0.36479800  0.94984100  1
  O  O13  1  0.69107000  0.86461700  0.94994100  1
  O  O14  1  0.30893000  0.13538300  0.05005900  1
  O  O15  1  0.30961300  0.63520200  0.05015900  1
  O  O16  1  0.26308900  0.38183100  0.11884700  1
  O  O17  1  0.26299200  0.88160600  0.11845900  1
  O  O18  1  0.73700800  0.11839400  0.88154100  1
  O  O19  1  0.73691100  0.61816900  0.88115300  1
  O  O20  1  0.66231600  0.35360400  0.39755300  1
  O  O21  1  0.66185000  0.85424100  0.39622300  1
  O  O22  1  0.33815000  0.14575900  0.60377800  1
  O  O23  1  0.33768400  0.64639700  0.60244800  1
  F  F0  1  0.88905100  0.29893500  0.68582600  1
  F  F1  1  0.88960200  0.79927300  0.68645300  1
  F  F2  1  0.11039900  0.20072700  0.31354700  1
  F  F3  1  0.11094900  0.70106400  0.31417300  1
loop_
_geom_bond_atom_site_label_1
_geom_bond_atom_site_label_2
_geom_bond_distance
_geom_bond_site_symmetry_2
Co0 O12 2.082117 1_454
Co0 O15 2.082117 1_555
Co0 O3 2.106663 1_455
Co0 O0 2.106663 1_554
Co0 O19 2.198436 1_454
Co0 O16 2.198436 1_555
Co1 O21 2.098624 1_545
Co1 O22 2.098629 1_555
Co1 O5 2.113014 1_545
Co1 O6 2.113014 1_555
Co1 O11 2.178999 1_545
Co1 O8 2.178999 1_555
Co2 O14 2.081282 1_555
Co2 O13 2.081282 1_444
Co2 O2 2.108138 1_455
Co2 O1 2.108138 1_544
Co2 O17 2.197763 1_545
Co2 O18 2.197763 1_454
Co3 O20 2.098238 1_555
Co3 O23 2.098251 1_555
Co3 O4 2.118317 1_555
Co3 O7 2.118324 1_555
Co3 O9 2.171176 1_555
Co3 O10 2.171176 1_555
H0 O12 1.003598 1_555
H0 O0 1.669245 1_555
H1 O13 1.003656 1_555
H1 O1 1.665837 1_555
H2 O14 1.003652 1_555
H2 O2 1.665841 1_555
H3 O15 1.003598 1_555
H3 O3 1.669245 1_555
H4 O12 0.991311 1_555
H5 O13 0.990919 1_555
H6 O14 0.990930 1_555
H7 O15 0.991302 1_555
H8 O16 1.005298 1_555
H8 O10 1.722303 1_555
H9 O17 1.006562 1_555
H9 O11 1.707621 1_555
H10 O18 1.006562 1_555
H10 O8 1.707621 1_555
H11 O19 1.005298 1_555
H11 O9 1.722298 1_555
H12 O16 0.983094 1_555
H13 O17 0.983091 1_555
H14 O18 0.983091 1_555
H15 O19 0.983094 1_555
H16 O20 0.993934 1_555
H17 O21 0.994292 1_555
H18 O22 0.994294 1_555
H19 O23 0.993925 1_555
H20 O20 0.984481 1_555
H21 O21 0.984334 1_555
H22 O22 0.984331 1_555
H23 O23 0.984480 1_555
O0 P0 1.538355 1_555
O1 P1 1.537849 1_555
O2 P2 1.537851 1_555
O3 P3 1.538353 1_555
O4 P0 1.521683 1_555
O5 P1 1.521503 1_555
O6 P2 1.521504 1_555
O7 P3 1.521681 1_555
O8 P1 1.533427 1_645
O9 P0 1.534288 1_655
O10 P3 1.534283 1_455
O11 P2 1.533433 1_465
F0 P0 1.598129 1_655
F1 P1 1.599332 1_655
F2 P2 1.599322 1_455
F3 P3 1.598124 1_455
