# generated using pymatgen
data_TlNO3
_symmetry_space_group_name_H-M   'P 1'
_cell_length_a   7.71215500
_cell_length_b   8.86520300
_cell_length_c   10.54960400
_cell_angle_alpha   90.00000000
_cell_angle_beta   90.00000000
_cell_angle_gamma   90.00000000
_symmetry_Int_Tables_number   1
_chemical_formula_structural   TlNO3
_chemical_formula_sum   'Tl8 N8 O24'
_cell_volume   721.27452278
_cell_formula_units_Z   8
loop_
 _symmetry_equiv_pos_site_id
 _symmetry_equiv_pos_as_xyz
  1  'x, y, z'
loop_
 _atom_site_type_symbol
 _atom_site_label
 _atom_site_symmetry_multiplicity
 _atom_site_fract_x
 _atom_site_fract_y
 _atom_site_fract_z
 _atom_site_occupancy
  Tl  Tl0  1  0.68957000  0.45253400  0.12782500  1
  Tl  Tl1  1  0.18957000  0.54746600  0.37217500  1
  Tl  Tl2  1  0.31043000  0.95253400  0.87217500  1
  Tl  Tl3  1  0.81043000  0.04746600  0.62782500  1
  Tl  Tl4  1  0.31043000  0.54746600  0.87217500  1
  Tl  Tl5  1  0.81043000  0.45253400  0.62782500  1
  Tl  Tl6  1  0.68957000  0.04746600  0.12782500  1
  Tl  Tl7  1  0.18957000  0.95253400  0.37217500  1
  N  N0  1  0.74419300  0.75000000  0.34200700  1
  N  N1  1  0.24419300  0.25000000  0.15799300  1
  N  N2  1  0.25580700  0.25000000  0.65799300  1
  N  N3  1  0.75580700  0.75000000  0.84200700  1
  N  N4  1  0.85058900  0.75000000  0.09721700  1
  N  N5  1  0.35058900  0.25000000  0.40278300  1
  N  N6  1  0.14941100  0.25000000  0.90278300  1
  N  N7  1  0.64941100  0.75000000  0.59721700  1
  O  O0  1  0.82453900  0.87493300  0.35700200  1
  O  O1  1  0.32453900  0.12506700  0.14299800  1
  O  O2  1  0.17546100  0.37493300  0.64299800  1
  O  O3  1  0.67546100  0.62506700  0.85700200  1
  O  O4  1  0.17546100  0.12506700  0.64299800  1
  O  O5  1  0.67546100  0.87493300  0.85700200  1
  O  O6  1  0.82453900  0.62506700  0.35700200  1
  O  O7  1  0.32453900  0.37493300  0.14299800  1
  O  O8  1  0.58690100  0.75000000  0.31081400  1
  O  O9  1  0.08690100  0.25000000  0.18918600  1
  O  O10  1  0.41309900  0.25000000  0.68918600  1
  O  O11  1  0.91309900  0.75000000  0.81081400  1
  O  O12  1  0.99499900  0.75000000  0.06304700  1
  O  O13  1  0.49499900  0.25000000  0.43695300  1
  O  O14  1  0.00500100  0.25000000  0.93695300  1
  O  O15  1  0.50500100  0.75000000  0.56304700  1
  O  O16  1  0.34097200  0.75000000  0.07878700  1
  O  O17  1  0.84097200  0.25000000  0.42121300  1
  O  O18  1  0.65902800  0.25000000  0.92121300  1
  O  O19  1  0.15902800  0.75000000  0.57878700  1
  O  O20  1  0.22395400  0.75000000  0.17225200  1
  O  O21  1  0.72395400  0.25000000  0.32774800  1
  O  O22  1  0.77604600  0.25000000  0.82774800  1
  O  O23  1  0.27604600  0.75000000  0.67225200  1
loop_
_geom_bond_atom_site_label_1
_geom_bond_atom_site_label_2
_geom_bond_distance
_geom_bond_site_symmetry_2
N0 O8 1.256903 1_555
N0 O0 1.278929 1_555
N0 O6 1.278929 1_555
N1 O9 1.256903 1_555
N1 O7 1.278929 1_555
N1 O1 1.278929 1_555
N2 O10 1.256903 1_555
N2 O2 1.278929 1_555
N2 O4 1.278929 1_555
N3 O11 1.256903 1_555
N3 O5 1.278929 1_555
N3 O3 1.278929 1_555
N4 O12 1.170599 1_555
N4 Tl6 2.932681 1_565
N4 Tl0 2.932681 1_555
N5 O13 1.170599 1_555
N5 Tl1 2.932681 1_555
N5 Tl7 2.932681 1_545
N6 O14 1.170599 1_555
N6 Tl2 2.932681 1_545
N6 Tl4 2.932681 1_555
N7 O15 1.170599 1_555
N7 Tl3 2.932681 1_565
N7 Tl5 2.932681 1_555
O0 Tl7 2.902432 1_655
O1 Tl6 2.902432 1_555
O2 Tl5 2.902432 1_455
O3 Tl4 2.902432 1_555
O4 Tl3 2.902432 1_455
O5 Tl2 2.902432 1_555
O6 Tl1 2.902432 1_655
O7 Tl0 2.902432 1_555
O16 O20 1.336663 1_555
O16 Tl4 2.833779 1_554
O16 Tl2 2.833779 1_554
O17 O21 1.336663 1_555
O17 Tl3 2.833779 1_555
O17 Tl5 2.833779 1_555
O18 O22 1.336663 1_555
O18 Tl0 2.833779 1_556
O18 Tl6 2.833779 1_556
O19 O23 1.336663 1_555
O19 Tl1 2.833779 1_555
O19 Tl7 2.833779 1_555
O20 Tl7 2.782534 1_555
O20 Tl1 2.782534 1_555
O21 Tl0 2.782534 1_555
O21 Tl6 2.782534 1_555
O22 Tl5 2.782534 1_555
O22 Tl3 2.782534 1_555
O23 Tl4 2.782534 1_555
O23 Tl2 2.782534 1_555
