# generated using pymatgen
data_Ca(H8O5)2
_symmetry_space_group_name_H-M   'P 1'
_cell_length_a   6.51461000
_cell_length_b   6.53775720
_cell_length_c   11.24267653
_cell_angle_alpha   83.86397254
_cell_angle_beta   83.13601300
_cell_angle_gamma   81.49729771
_symmetry_Int_Tables_number   1
_chemical_formula_structural   Ca(H8O5)2
_chemical_formula_sum   'Ca2 H32 O20'
_cell_volume   468.23407233
_cell_formula_units_Z   2
loop_
 _symmetry_equiv_pos_site_id
 _symmetry_equiv_pos_as_xyz
  1  'x, y, z'
loop_
 _atom_site_type_symbol
 _atom_site_label
 _atom_site_symmetry_multiplicity
 _atom_site_fract_x
 _atom_site_fract_y
 _atom_site_fract_z
 _atom_site_occupancy
  Ca  Ca0  1  0.02818600  0.01520700  0.75653200  1
  Ca  Ca1  1  0.01955100  0.04255600  0.26184600  1
  H  H0  1  0.27047100  0.64424000  0.65062400  1
  H  H1  1  0.12850500  0.71953500  0.54747600  1
  H  H2  1  0.72093600  0.36387600  0.64686600  1
  H  H3  1  0.85711300  0.27995200  0.53127500  1
  H  H4  1  0.71050200  0.01003200  0.61436800  1
  H  H5  1  0.58387100  0.68950900  0.66896700  1
  H  H6  1  0.31635400  0.26250300  0.62392800  1
  H  H7  1  0.44983800  0.01575300  0.60778500  1
  H  H8  1  0.68515800  0.58251500  0.16472200  1
  H  H9  1  0.98884500  0.71452700  0.11753200  1
  H  H10  1  0.26738300  0.33207700  0.12161700  1
  H  H11  1  0.01804300  0.44943900  0.10613500  1
  H  H12  1  0.35813500  0.72058800  0.15026900  1
  H  H13  1  0.26459900  0.85512900  0.03850900  1
  H  H14  1  0.64628300  0.26786000  0.15015400  1
  H  H15  1  0.71921600  0.11990800  0.04896500  1
  H  H16  1  0.95645400  0.41227700  0.34844200  1
  H  H17  1  0.70171600  0.40416400  0.35340300  1
  H  H18  1  0.27640400  0.62285000  0.35617700  1
  H  H19  1  0.01489000  0.66936700  0.38119700  1
  H  H20  1  0.37580700  0.26573400  0.33976100  1
  H  H21  1  0.28347800  0.13318800  0.45392300  1
  H  H22  1  0.61169800  0.87297900  0.33860000  1
  H  H23  1  0.69315900  0.87309200  0.46642200  1
  H  H24  1  0.13045800  0.28558900  0.95060100  1
  H  H25  1  0.26049800  0.38218800  0.83730300  1
  H  H26  1  0.84675500  0.61604100  0.83528200  1
  H  H27  1  0.86413800  0.69446100  0.96202300  1
  H  H28  1  0.64245500  0.03051300  0.87097600  1
  H  H29  1  0.61104700  0.28900900  0.85462400  1
  H  H30  1  0.38905000  0.72544900  0.85782400  1
  H  H31  1  0.36242700  0.98557700  0.86708000  1
  O  O0  1  0.52629700  0.54770700  0.68572300  1
  O  O1  1  0.53992400  0.52463600  0.18337300  1
  O  O2  1  0.49573700  0.48817600  0.31608100  1
  O  O3  1  0.48049400  0.51019000  0.81834400  1
  O  O4  1  0.12720900  0.71202800  0.63597600  1
  O  O5  1  0.83106000  0.24863000  0.62012000  1
  O  O6  1  0.62455400  0.90236300  0.60322900  1
  O  O7  1  0.28967900  0.12486700  0.61024700  1
  O  O8  1  0.89210400  0.62248500  0.09968600  1
  O  O9  1  0.13054500  0.29712700  0.11117700  1
  O  O10  1  0.24116000  0.83147700  0.12777800  1
  O  O11  1  0.71814000  0.12554200  0.13624400  1
  O  O12  1  0.84878200  0.32496500  0.37668100  1
  O  O13  1  0.14702100  0.72070100  0.38715100  1
  O  O14  1  0.29094000  0.14870500  0.36391200  1
  O  O15  1  0.74134400  0.85909500  0.37666400  1
  O  O16  1  0.15253600  0.28583900  0.86128300  1
  O  O17  1  0.84669400  0.74288700  0.87332600  1
  O  O18  1  0.70481400  0.15430700  0.88062600  1
  O  O19  1  0.29510400  0.86036300  0.88489400  1
loop_
_geom_bond_atom_site_label_1
_geom_bond_atom_site_label_2
_geom_bond_distance
_geom_bond_site_symmetry_2
Ca0 O7 2.358014 1_555
Ca0 O5 2.391856 1_455
Ca0 O19 2.428592 1_545
Ca0 O17 2.458340 1_445
Ca0 O4 2.483779 1_545
Ca0 O18 2.492707 1_455
Ca0 O16 2.504204 1_555
Ca1 O10 2.365567 1_545
Ca1 O9 2.371204 1_555
Ca1 O12 2.423270 1_455
Ca1 O14 2.437650 1_555
Ca1 O15 2.478386 1_445
Ca1 O13 2.496218 1_545
Ca1 O11 2.515545 1_455
H0 O4 0.996692 1_555
H1 O4 0.990017 1_555
H2 O5 1.004896 1_555
H3 O5 0.997237 1_555
H4 O6 0.988353 1_545
H5 O0 1.041259 1_555
H5 O6 1.547696 1_555
H6 O7 0.972507 1_555
H7 O7 1.172816 1_555
H7 O6 1.261886 1_545
H8 O1 1.060107 1_555
H8 O8 1.499396 1_555
H9 O8 0.983731 1_555
H10 O9 0.975520 1_555
H11 O9 1.146294 1_555
H11 O8 1.296342 1_455
H12 O10 1.006841 1_555
H12 O1 1.654391 1_555
H13 O10 0.995821 1_555
H14 O11 0.997056 1_555
H15 O11 0.985019 1_555
H16 O12 0.972155 1_555
H17 O12 1.067132 1_555
H17 O2 1.464831 1_555
H18 O13 1.029065 1_555
H18 O2 1.605913 1_555
H19 O13 0.980848 1_555
H20 O14 1.004779 1_555
H20 O2 1.731969 1_555
H21 O14 1.002237 1_555
H22 O15 0.979861 1_555
H23 O15 1.029935 1_555
H23 O6 1.573332 1_555
H24 O16 0.997121 1_555
H25 O16 1.006738 1_555
H25 O3 1.744502 1_555
H26 O17 0.972805 1_555
H27 O17 1.027860 1_555
H27 O8 1.592593 1_556
H28 O18 0.978959 1_555
H29 O18 1.030881 1_555
H29 O3 1.604328 1_555
H30 O19 1.048051 1_555
H30 O3 1.534549 1_555
H31 O19 0.976078 1_555
O0 O3 1.486419 1_555
O1 O2 1.485709 1_555
