# generated using pymatgen
data_FeSiO3
_symmetry_space_group_name_H-M   'P 1'
_cell_length_a   6.75377800
_cell_length_b   7.55564072
_cell_length_c   20.89641864
_cell_angle_alpha   84.26484862
_cell_angle_beta   81.20590443
_cell_angle_gamma   84.60398827
_symmetry_Int_Tables_number   1
_chemical_formula_structural   FeSiO3
_chemical_formula_sum   'Fe18 Si18 O54'
_cell_volume   1045.14649622
_cell_formula_units_Z   18
loop_
 _symmetry_equiv_pos_site_id
 _symmetry_equiv_pos_as_xyz
  1  'x, y, z'
loop_
 _atom_site_type_symbol
 _atom_site_label
 _atom_site_symmetry_multiplicity
 _atom_site_fract_x
 _atom_site_fract_y
 _atom_site_fract_z
 _atom_site_occupancy
  Fe  Fe0  1  0.14829100  0.32478600  0.64969200  1
  Fe  Fe1  1  0.78471800  0.69497500  0.51150000  1
  Fe  Fe2  1  0.21528200  0.30502500  0.48850000  1
  Fe  Fe3  1  0.38274800  0.20765000  0.33947300  1
  Fe  Fe4  1  0.21758800  0.60781000  0.88227500  1
  Fe  Fe5  1  0.61725200  0.79235000  0.66052700  1
  Fe  Fe6  1  0.88689700  0.35519000  0.96680100  1
  Fe  Fe7  1  0.02893200  0.34902400  0.80511400  1
  Fe  Fe8  1  0.95149700  0.03726100  0.58080600  1
  Fe  Fe9  1  0.30198400  0.91005500  0.10951900  1
  Fe  Fe10  1  0.80950400  0.05751400  0.73973000  1
  Fe  Fe11  1  0.85170900  0.67521400  0.35030800  1
  Fe  Fe12  1  0.69801600  0.08994500  0.89048100  1
  Fe  Fe13  1  0.97106800  0.65097600  0.19488600  1
  Fe  Fe14  1  0.19049600  0.94248600  0.26027000  1
  Fe  Fe15  1  0.11310300  0.64481000  0.03319900  1
  Fe  Fe16  1  0.04850300  0.96273900  0.41919400  1
  Fe  Fe17  1  0.78241200  0.39219000  0.11772500  1
  Si  Si0  1  0.54461300  0.43419000  0.79528800  1
  Si  Si1  1  0.82291100  0.99359300  0.08941800  1
  Si  Si2  1  0.33388600  0.59638600  0.35301100  1
  Si  Si3  1  0.25808300  0.29549300  0.13444800  1
  Si  Si4  1  0.23020400  0.68944500  0.55072800  1
  Si  Si5  1  0.10367700  0.71837200  0.69279900  1
  Si  Si6  1  0.89632300  0.28162800  0.30720100  1
  Si  Si7  1  0.76979600  0.31055500  0.44927200  1
  Si  Si8  1  0.74191700  0.70450700  0.86555200  1
  Si  Si9  1  0.37265000  0.27048600  0.98393500  1
  Si  Si10  1  0.17708900  0.00640700  0.91058200  1
  Si  Si11  1  0.49129800  0.15069700  0.56929200  1
  Si  Si12  1  0.66611400  0.40361400  0.64698900  1
  Si  Si13  1  0.70419800  0.01739400  0.23851700  1
  Si  Si14  1  0.50870200  0.84930300  0.43070800  1
  Si  Si15  1  0.45538700  0.56581000  0.20471200  1
  Si  Si16  1  0.29580200  0.98260600  0.76148300  1
  Si  Si17  1  0.62735000  0.72951400  0.01606500  1
  O  O0  1  0.95044300  0.48480100  0.28468300  1
  O  O1  1  0.25226200  0.12122300  0.57434300  1
  O  O2  1  0.95231600  0.17963800  0.47736200  1
  O  O3  1  0.74773800  0.87877700  0.42565700  1
  O  O4  1  0.68009100  0.91644800  0.04272800  1
  O  O5  1  0.56859300  0.48881000  0.71582700  1
  O  O6  1  0.21323200  0.78910600  0.74988400  1
  O  O7  1  0.31508300  0.97891800  0.83918300  1
  O  O8  1  0.39808500  0.70613100  0.05109200  1
  O  O9  1  0.07767900  0.45170200  0.12532300  1
  O  O10  1  0.34926200  0.02027700  0.42225000  1
  O  O11  1  0.28340400  0.41368300  0.39694600  1
  O  O12  1  0.08422400  0.14111900  0.32599400  1
  O  O13  1  0.85399300  0.24975400  0.64880300  1
  O  O14  1  0.51618600  0.70065000  0.37530200  1
  O  O15  1  0.04768400  0.82036200  0.52263800  1
  O  O16  1  0.17516800  0.48429300  0.55460200  1
  O  O17  1  0.19952500  0.43084200  0.97021300  1
  O  O18  1  0.04955700  0.51519900  0.71531700  1
  O  O19  1  0.57457900  0.61609300  0.83048300  1
  O  O20  1  0.99084400  0.15590400  0.89927600  1
  O  O21  1  0.68491700  0.02108200  0.16081700  1
  O  O22  1  0.28000200  0.72738500  0.19538200  1
  O  O23  1  0.27229900  0.72670600  0.62464000  1
  O  O24  1  0.72770100  0.27329400  0.37536000  1
  O  O25  1  0.68609300  0.59807100  0.17538300  1
  O  O26  1  0.71999800  0.27261500  0.80461800  1
  O  O27  1  0.92232100  0.54829800  0.87467700  1
  O  O28  1  0.62838500  0.76734800  0.93679200  1
  O  O29  1  0.37161500  0.23265200  0.06320800  1
  O  O30  1  0.44254200  0.73321200  0.50205100  1
  O  O31  1  0.52202900  0.98464400  0.72142000  1
  O  O32  1  0.71659600  0.58631700  0.60305400  1
  O  O33  1  0.60191500  0.29386900  0.94890800  1
  O  O34  1  0.55745800  0.26678800  0.49794900  1
  O  O35  1  0.91577600  0.85888100  0.67400600  1
  O  O36  1  0.47797100  0.01535600  0.27858000  1
  O  O37  1  0.42542100  0.38390700  0.16951700  1
  O  O38  1  0.86979600  0.85816200  0.26040100  1
  O  O39  1  0.48381400  0.29935000  0.62469800  1
  O  O40  1  0.87608900  0.19335200  0.05893100  1
  O  O41  1  0.79646900  0.89656800  0.82786100  1
  O  O42  1  0.31990900  0.08355200  0.95727200  1
  O  O43  1  0.14600700  0.75024600  0.35119700  1
  O  O44  1  0.43140700  0.51119000  0.28417300  1
  O  O45  1  0.12391100  0.80664800  0.94106900  1
  O  O46  1  0.65073800  0.97972300  0.57775000  1
  O  O47  1  0.82483200  0.51570700  0.44539800  1
  O  O48  1  0.20353100  0.10343200  0.17213900  1
  O  O49  1  0.78676800  0.21089400  0.25011600  1
  O  O50  1  0.80047500  0.56915800  0.02978700  1
  O  O51  1  0.31390700  0.40192900  0.82461700  1
  O  O52  1  0.13020400  0.14183800  0.73959900  1
  O  O53  1  0.00915600  0.84409600  0.10072400  1
loop_
_geom_bond_atom_site_label_1
_geom_bond_atom_site_label_2
_geom_bond_distance
_geom_bond_site_symmetry_2
Fe0 O18 2.080697 1_555
Fe0 O13 2.120780 1_455
Fe0 O16 2.210425 1_555
Fe0 O52 2.213107 1_555
Fe0 O39 2.240750 1_555
Fe0 O1 2.297958 1_555
Fe1 O47 2.001621 1_555
Fe1 O32 2.008437 1_555
Fe1 O15 2.143090 1_655
Fe1 O3 2.186919 1_555
Fe1 O30 2.337870 1_555
Fe1 O46 2.685175 1_555
Fe2 O16 2.001621 1_555
Fe2 O11 2.008437 1_555
Fe2 O2 2.143090 1_455
Fe2 O1 2.186919 1_555
Fe2 O34 2.337870 1_555
Fe2 O10 2.685175 1_555
Fe3 O36 2.021678 1_555
Fe3 O11 2.060752 1_555
Fe3 O10 2.120992 1_555
Fe3 O12 2.188492 1_555
Fe3 O44 2.489813 1_555
Fe3 O24 2.657424 1_555
Fe4 O45 2.029582 1_555
Fe4 O51 2.058934 1_555
Fe4 O27 2.117504 1_455
Fe4 O17 2.156510 1_555
Fe4 O19 2.491044 1_555
Fe5 O31 2.021678 1_555
Fe5 O32 2.060752 1_555
Fe5 O46 2.120992 1_555
Fe5 O35 2.188492 1_555
Fe5 O5 2.489813 1_555
Fe5 O23 2.657424 1_555
Fe6 O33 2.116918 1_555
Fe6 O20 2.161948 1_555
Fe6 O50 2.167837 1_556
Fe6 O40 2.170303 1_556
Fe6 O17 2.251903 1_655
Fe6 O27 2.292467 1_555
Fe7 O51 2.108857 1_555
Fe7 O18 2.144516 1_555
Fe7 O52 2.175600 1_555
Fe7 O27 2.193604 1_455
Fe7 O26 2.218362 1_455
Fe7 O20 2.325711 1_455
Fe8 O46 2.128470 1_545
Fe8 O15 2.131105 1_645
Fe8 O1 2.165230 1_655
Fe8 O13 2.236352 1_555
Fe8 O35 2.249560 1_545
Fe8 O2 2.315716 1_555
Fe9 O48 2.054875 1_565
Fe9 O8 2.057054 1_555
Fe9 O53 2.123260 1_555
Fe9 O22 2.146714 1_555
Fe9 O29 2.589154 1_565
Fe9 O4 2.718705 1_555
Fe10 O41 2.097874 1_545
Fe10 O35 2.135817 1_545
Fe10 O31 2.165505 1_545
Fe10 O26 2.202350 1_555
Fe10 O13 2.272917 1_555
Fe10 O52 2.313999 1_655
Fe11 O0 2.080697 1_555
Fe11 O43 2.120780 1_655
Fe11 O47 2.210425 1_555
Fe11 O38 2.213107 1_555
Fe11 O14 2.240750 1_555
Fe11 O3 2.297958 1_555
Fe12 O41 2.054875 1_545
Fe12 O33 2.057054 1_555
Fe12 O20 2.123260 1_555
Fe12 O26 2.146714 1_555
Fe12 O28 2.589154 1_545
Fe12 O42 2.718705 1_555
Fe13 O25 2.108857 1_555
Fe13 O0 2.144516 1_555
Fe13 O38 2.175600 1_555
Fe13 O9 2.193604 1_655
Fe13 O22 2.218362 1_655
Fe13 O53 2.325711 1_655
Fe14 O48 2.097874 1_565
Fe14 O12 2.135817 1_565
Fe14 O36 2.165505 1_565
Fe14 O22 2.202350 1_555
Fe14 O43 2.272917 1_555
Fe14 O38 2.313999 1_455
Fe15 O8 2.116918 1_555
Fe15 O53 2.161948 1_555
Fe15 O17 2.167837 1_554
Fe15 O45 2.170303 1_554
Fe15 O50 2.251903 1_455
Fe15 O9 2.292467 1_555
Fe16 O10 2.128470 1_565
Fe16 O2 2.131105 1_465
Fe16 O3 2.165230 1_455
Fe16 O43 2.236352 1_555
Fe16 O12 2.249560 1_565
Fe16 O15 2.315716 1_555
Fe17 O40 2.029582 1_555
Fe17 O25 2.058934 1_555
Fe17 O9 2.117504 1_655
Fe17 O50 2.156510 1_555
Fe17 O37 2.491044 1_555
O0 Si6 1.618681 1_555
O1 Si11 1.636406 1_555
O2 Si7 1.648759 1_555
O3 Si14 1.636406 1_555
O4 Si1 1.652032 1_555
O4 Si17 1.656738 1_555
O5 Si12 1.653174 1_555
O5 Si0 1.657416 1_555
O6 Si5 1.651576 1_555
O6 Si16 1.665147 1_555
O7 Si16 1.645874 1_555
O7 Si10 1.654720 1_565
O8 Si17 1.625907 1_555
O9 Si3 1.633856 1_555
O10 Si14 1.615708 1_545
O11 Si2 1.613768 1_555
O12 Si6 1.645425 1_455
O13 Si12 1.640556 1_555
O14 Si2 1.668705 1_555
O14 Si14 1.684001 1_555
O15 Si4 1.648759 1_555
O16 Si4 1.619095 1_555
O17 Si9 1.638279 1_555
O18 Si5 1.618681 1_555
O19 Si8 1.659403 1_555
O19 Si0 1.664526 1_555
O20 Si10 1.638354 1_655
O21 Si13 1.645874 1_555
O21 Si1 1.654720 1_545
O22 Si15 1.637837 1_555
O23 Si4 1.667865 1_555
O23 Si5 1.681988 1_555
O24 Si7 1.667865 1_555
O24 Si6 1.681988 1_555
O25 Si15 1.616293 1_555
O26 Si0 1.637837 1_555
O27 Si8 1.633856 1_555
O28 Si17 1.651673 1_556
O28 Si8 1.659294 1_555
O29 Si9 1.651673 1_554
O29 Si3 1.659294 1_555
O30 Si4 1.666293 1_555
O30 Si14 1.673392 1_555
O31 Si16 1.626737 1_555
O32 Si12 1.613768 1_555
O33 Si9 1.625907 1_555
O34 Si7 1.666293 1_555
O34 Si11 1.673392 1_555
O35 Si5 1.645425 1_655
O36 Si13 1.626737 1_555
O37 Si3 1.659403 1_555
O37 Si15 1.664526 1_555
O38 Si13 1.643402 1_565
O39 Si12 1.668705 1_555
O39 Si11 1.684001 1_555
O40 Si1 1.628703 1_545
O41 Si8 1.626434 1_555
O42 Si10 1.652032 1_555
O42 Si9 1.656738 1_555
O43 Si2 1.640556 1_555
O44 Si2 1.653174 1_555
O44 Si15 1.657416 1_555
O45 Si10 1.628703 1_565
O46 Si11 1.615708 1_565
O47 Si7 1.619095 1_555
O48 Si3 1.626434 1_555
O49 Si6 1.651576 1_555
O49 Si13 1.665147 1_555
O50 Si17 1.638279 1_555
O51 Si0 1.616293 1_555
O52 Si16 1.643402 1_545
O53 Si1 1.638354 1_455
