# generated using pymatgen
data_Cs2MnBr4
_symmetry_space_group_name_H-M   'P 1'
_cell_length_a   7.82690873
_cell_length_b   10.30517383
_cell_length_c   13.85173390
_cell_angle_alpha   90.00000000
_cell_angle_beta   90.00000000
_cell_angle_gamma   90.00000000
_symmetry_Int_Tables_number   1
_chemical_formula_structural   Cs2MnBr4
_chemical_formula_sum   'Cs8 Mn4 Br16'
_cell_volume   1117.24837425
_cell_formula_units_Z   4
loop_
 _symmetry_equiv_pos_site_id
 _symmetry_equiv_pos_as_xyz
  1  'x, y, z'
loop_
 _atom_site_type_symbol
 _atom_site_label
 _atom_site_symmetry_multiplicity
 _atom_site_fract_x
 _atom_site_fract_y
 _atom_site_fract_z
 _atom_site_occupancy
  Cs  Cs0  1  0.25000000  0.62933756  0.40758706  1
  Cs  Cs1  1  0.25000000  0.47972334  0.82785218  1
  Cs  Cs2  1  0.75000000  0.02027666  0.32785218  1
  Cs  Cs3  1  0.75000000  0.37066244  0.59241294  1
  Cs  Cs4  1  0.75000000  0.52027666  0.17214782  1
  Cs  Cs5  1  0.25000000  0.97972334  0.67214782  1
  Cs  Cs6  1  0.25000000  0.12933756  0.09241294  1
  Cs  Cs7  1  0.75000000  0.87066244  0.90758706  1
  Mn  Mn0  1  0.25000000  0.72936258  0.07635422  1
  Mn  Mn1  1  0.75000000  0.77063742  0.57635422  1
  Mn  Mn2  1  0.25000000  0.22936258  0.42364578  1
  Mn  Mn3  1  0.75000000  0.27063742  0.92364578  1
  Br  Br0  1  0.99389249  0.32520984  0.34555968  1
  Br  Br1  1  0.25000000  0.31657251  0.59183924  1
  Br  Br2  1  0.25000000  0.81657251  0.90816076  1
  Br  Br3  1  0.50610751  0.82520984  0.15444032  1
  Br  Br4  1  0.49389249  0.17479016  0.84555968  1
  Br  Br5  1  0.00610751  0.17479016  0.84555968  1
  Br  Br6  1  0.00610751  0.67479016  0.65444032  1
  Br  Br7  1  0.75000000  0.01067804  0.59604807  1
  Br  Br8  1  0.49389249  0.67479016  0.65444032  1
  Br  Br9  1  0.75000000  0.51067804  0.90395193  1
  Br  Br10  1  0.99389249  0.82520984  0.15444032  1
  Br  Br11  1  0.50610751  0.32520984  0.34555968  1
  Br  Br12  1  0.25000000  0.48932196  0.09604807  1
  Br  Br13  1  0.25000000  0.98932196  0.40395193  1
  Br  Br14  1  0.75000000  0.68342749  0.40816076  1
  Br  Br15  1  0.75000000  0.18342749  0.09183924  1
loop_
_geom_bond_atom_site_label_1
_geom_bond_atom_site_label_2
_geom_bond_distance
_geom_bond_site_symmetry_2
Br0 Mn2 2.482671 1_655
Br0 Cs4 3.668072 1_555
Br0 Cs2 3.684938 1_555
Br0 Cs0 3.818227 1_655
Br0 Cs3 3.944022 1_555
Br1 Mn2 2.497102 1_555
Br1 Cs5 3.645177 1_545
Br1 Cs1 3.676188 1_555
Br1 Cs3 3.952960 1_455
Br1 Cs3 3.952960 1_555
Br1 Cs0 4.111222 1_555
Br2 Mn0 2.497102 1_556
Br2 Cs1 3.645177 1_555
Br2 Cs5 3.676188 1_555
Br2 Cs7 3.952960 1_455
Br2 Cs7 3.952960 1_555
Br2 Cs6 4.111222 1_566
Br3 Mn0 2.482671 1_555
Br3 Cs2 3.668072 1_565
Br3 Cs4 3.684938 1_555
Br3 Cs6 3.818227 1_565
Br3 Cs7 3.944022 1_554
Br4 Mn3 2.482671 1_555
Br4 Cs5 3.668072 1_545
Br4 Cs1 3.684938 1_555
Br4 Cs7 3.818227 1_545
Br4 Cs6 3.944022 1_556
Br5 Mn3 2.482671 1_455
Br5 Cs5 3.668072 1_545
Br5 Cs1 3.684938 1_555
Br5 Cs7 3.818227 1_445
Br5 Cs6 3.944022 1_556
Br6 Mn1 2.482671 1_455
Br6 Cs1 3.668072 1_555
Br6 Cs5 3.684938 1_555
Br6 Cs3 3.818227 1_455
Br6 Cs0 3.944022 1_555
Br7 Mn1 2.488657 1_545
Br7 Cs3 3.710044 1_555
Br7 Cs2 3.716295 1_555
Br7 Cs5 4.065469 1_545
Br7 Cs5 4.065469 1_645
Br8 Mn1 2.482671 1_555
Br8 Cs1 3.668072 1_555
Br8 Cs5 3.684938 1_555
Br8 Cs3 3.818227 1_555
Br8 Cs0 3.944022 1_555
Br9 Mn3 2.488657 1_555
Br9 Cs7 3.710044 1_555
Br9 Cs4 3.716295 1_556
Br9 Cs1 4.065469 1_655
Br9 Cs1 4.065469 1_555
Br10 Mn0 2.482671 1_655
Br10 Cs2 3.668072 1_565
Br10 Cs4 3.684938 1_555
Br10 Cs6 3.818227 1_665
Br10 Cs7 3.944022 1_554
Br11 Mn2 2.482671 1_555
Br11 Cs4 3.668072 1_555
Br11 Cs2 3.684938 1_555
Br11 Cs0 3.818227 1_555
Br11 Cs3 3.944022 1_555
Br12 Mn0 2.488657 1_555
Br12 Cs6 3.710044 1_555
Br12 Cs1 3.716295 1_554
Br12 Cs4 4.065469 1_455
Br12 Cs4 4.065469 1_555
Br13 Mn2 2.488657 1_565
Br13 Cs0 3.710044 1_555
Br13 Cs5 3.716295 1_555
Br13 Cs2 4.065469 1_465
Br13 Cs2 4.065469 1_565
Br14 Mn1 2.497102 1_555
Br14 Cs2 3.645177 1_565
Br14 Cs4 3.676188 1_555
Br14 Cs0 3.952960 1_555
Br14 Cs0 3.952960 1_655
Br14 Cs3 4.111222 1_555
Br15 Mn3 2.497102 1_554
Br15 Cs4 3.645177 1_555
Br15 Cs2 3.676188 1_555
Br15 Cs6 3.952960 1_655
Br15 Cs6 3.952960 1_555
Br15 Cs7 4.111222 1_544
