# generated using pymatgen
data_TmH3(CO2)3
_symmetry_space_group_name_H-M   'P 1'
_cell_length_a   6.12864616
_cell_length_b   6.12864616
_cell_length_c   6.12864662
_cell_angle_alpha   115.54154151
_cell_angle_beta   115.54154151
_cell_angle_gamma   115.54154918
_symmetry_Int_Tables_number   1
_chemical_formula_structural   TmH3(CO2)3
_chemical_formula_sum   'Tm1 H3 C3 O6'
_cell_volume   122.23675463
_cell_formula_units_Z   1
loop_
 _symmetry_equiv_pos_site_id
 _symmetry_equiv_pos_as_xyz
  1  'x, y, z'
loop_
 _atom_site_type_symbol
 _atom_site_label
 _atom_site_symmetry_multiplicity
 _atom_site_fract_x
 _atom_site_fract_y
 _atom_site_fract_z
 _atom_site_occupancy
  Tm  Tm0  1  0.99975300  0.99975300  0.99975300  1
  H  H0  1  0.35842800  0.84194700  0.35842800  1
  H  H1  1  0.35842800  0.35842800  0.84194700  1
  H  H2  1  0.84194700  0.35842800  0.35842800  1
  C  C0  1  0.60712000  0.14578400  0.60712000  1
  C  C1  1  0.60712000  0.60712000  0.14578400  1
  C  C2  1  0.14578400  0.60712000  0.60712000  1
  O  O0  1  0.88860900  0.28122000  0.88860900  1
  O  O1  1  0.88860900  0.88860900  0.28122000  1
  O  O2  1  0.28122000  0.88860900  0.88860900  1
  O  O3  1  0.58869800  0.33858700  0.58869800  1
  O  O4  1  0.58869800  0.58869800  0.33858700  1
  O  O5  1  0.33858700  0.58869800  0.58869800  1
loop_
_geom_bond_atom_site_label_1
_geom_bond_atom_site_label_2
_geom_bond_distance
_geom_bond_site_symmetry_2
C0 H0 1.102485 1_545
C0 O0 1.266967 1_555
C0 O3 1.280942 1_555
C1 H1 1.102485 1_554
C1 O1 1.266967 1_555
C1 O4 1.280942 1_555
C2 H2 1.102485 1_455
C2 O2 1.266967 1_555
C2 O5 1.280942 1_555
O0 Tm0 2.351600 1_545
O1 Tm0 2.351600 1_554
O2 Tm0 2.351600 1_455
O3 Tm0 2.456411 1_555
O3 Tm0 2.491368 1_444
O4 Tm0 2.456412 1_555
O4 Tm0 2.491367 1_444
O5 Tm0 2.456411 1_555
O5 Tm0 2.491368 1_444
