# generated using pymatgen
data_Pr10US16
_symmetry_space_group_name_H-M   'P 1'
_cell_length_a   8.63694900
_cell_length_b   8.63694900
_cell_length_c   8.58354500
_cell_angle_alpha   90.00000000
_cell_angle_beta   90.00000000
_cell_angle_gamma   90.00000000
_symmetry_Int_Tables_number   1
_chemical_formula_structural   Pr10US16
_chemical_formula_sum   'Pr10 U1 S16'
_cell_volume   640.30574525
_cell_formula_units_Z   1
loop_
 _symmetry_equiv_pos_site_id
 _symmetry_equiv_pos_as_xyz
  1  'x, y, z'
loop_
 _atom_site_type_symbol
 _atom_site_label
 _atom_site_symmetry_multiplicity
 _atom_site_fract_x
 _atom_site_fract_y
 _atom_site_fract_z
 _atom_site_occupancy
  Pr  Pr0  1  0.24357500  0.87569800  0.13931600  1
  Pr  Pr1  1  0.50000000  0.00000000  0.75097900  1
  Pr  Pr2  1  0.12430200  0.24357500  0.86068400  1
  Pr  Pr3  1  0.75642500  0.12430200  0.13931600  1
  Pr  Pr4  1  0.36668500  0.24428000  0.37869900  1
  Pr  Pr5  1  0.75572000  0.36668500  0.62130100  1
  Pr  Pr6  1  0.00000000  0.50000000  0.24902100  1
  Pr  Pr7  1  0.63331500  0.75572000  0.37869900  1
  Pr  Pr8  1  0.24428000  0.63331500  0.62130100  1
  Pr  Pr9  1  0.87569800  0.75642500  0.86068400  1
  U  U0  1  0.50000000  0.50000000  0.00000000  1
  S  S0  1  0.33350100  0.92007500  0.45692600  1
  S  S1  1  0.56824300  0.81873600  0.05152400  1
  S  S2  1  0.92167700  0.81755600  0.18512600  1
  S  S3  1  0.43175700  0.18126400  0.05152400  1
  S  S4  1  0.07832300  0.18244400  0.18512600  1
  S  S5  1  0.18244400  0.92167700  0.81487400  1
  S  S6  1  0.66649900  0.07992500  0.45692600  1
  S  S7  1  0.81755600  0.07832300  0.81487400  1
  S  S8  1  0.81873600  0.43175700  0.94847600  1
  S  S9  1  0.07992500  0.33350100  0.54307400  1
  S  S10  1  0.42601700  0.32808100  0.70405300  1
  S  S11  1  0.92007500  0.66649900  0.54307400  1
  S  S12  1  0.57398300  0.67191900  0.70405300  1
  S  S13  1  0.67191900  0.42601700  0.29594700  1
  S  S14  1  0.18126400  0.56824300  0.94847600  1
  S  S15  1  0.32808100  0.57398300  0.29594700  1
loop_
_geom_bond_atom_site_label_1
_geom_bond_atom_site_label_2
_geom_bond_distance
_geom_bond_site_symmetry_2
Pr0 S2 2.852437 1_455
Pr0 S0 2.860493 1_555
Pr0 S5 2.862155 1_554
Pr0 S1 2.945015 1_555
Pr0 S15 3.021748 1_555
Pr0 S4 3.034926 1_565
Pr0 S14 3.166148 1_554
Pr0 S3 3.189777 1_565
Pr1 S7 2.877654 1_555
Pr1 S5 2.877654 1_545
Pr1 S12 2.932566 1_545
Pr1 S10 2.932566 1_555
Pr1 S6 2.985826 1_555
Pr1 S0 2.985826 1_545
Pr1 S3 3.074650 1_556
Pr1 S1 3.074650 1_546
Pr2 S5 2.852437 1_545
Pr2 S9 2.860493 1_555
Pr2 S4 2.862155 1_556
Pr2 S14 2.945015 1_555
Pr2 S10 3.021748 1_555
Pr2 S7 3.034926 1_455
Pr2 S3 3.166148 1_556
Pr2 S8 3.189777 1_455
Pr3 S4 2.852437 1_655
Pr3 S6 2.860493 1_555
Pr3 S7 2.862155 1_554
Pr3 S3 2.945015 1_555
Pr3 S13 3.021748 1_555
Pr3 S2 3.034926 1_545
Pr3 S8 3.166148 1_554
Pr3 S1 3.189777 1_545
Pr4 S0 2.893753 1_545
Pr4 S3 2.915264 1_555
Pr4 S10 2.930117 1_555
Pr4 S9 2.952747 1_555
Pr4 S15 2.953758 1_555
Pr4 S6 3.028418 1_555
Pr4 S4 3.041198 1_555
Pr4 S13 3.149345 1_555
Pr5 S9 2.893753 1_655
Pr5 S8 2.915264 1_555
Pr5 S13 2.930117 1_555
Pr5 S6 2.952747 1_555
Pr5 S10 2.953758 1_555
Pr5 S11 3.028418 1_555
Pr5 S7 3.041198 1_555
Pr5 S12 3.149345 1_555
Pr6 S2 2.877654 1_455
Pr6 S4 2.877654 1_555
Pr6 S13 2.932566 1_455
Pr6 S15 2.932566 1_555
Pr6 S11 2.985826 1_455
Pr6 S9 2.985826 1_555
Pr6 S8 3.074650 1_454
Pr6 S14 3.074650 1_554
Pr7 S6 2.893753 1_565
Pr7 S1 2.915264 1_555
Pr7 S12 2.930117 1_555
Pr7 S11 2.952747 1_555
Pr7 S13 2.953758 1_555
Pr7 S0 3.028418 1_555
Pr7 S2 3.041198 1_555
Pr7 S15 3.149345 1_555
Pr8 S11 2.893753 1_455
Pr8 S14 2.915264 1_555
Pr8 S15 2.930117 1_555
Pr8 S0 2.952747 1_555
Pr8 S12 2.953758 1_555
Pr8 S9 3.028418 1_555
Pr8 S5 3.041198 1_555
Pr8 S10 3.149345 1_555
Pr9 S7 2.852437 1_565
Pr9 S11 2.860493 1_555
Pr9 S2 2.862155 1_556
Pr9 S8 2.945015 1_555
Pr9 S12 3.021748 1_555
Pr9 S5 3.034926 1_655
Pr9 S1 3.166148 1_556
Pr9 S14 3.189777 1_655
S1 U0 2.849823 1_555
S3 U0 2.849823 1_555
S8 U0 2.849823 1_556
S10 U0 3.010996 1_556
S12 U0 3.010996 1_556
S13 U0 3.010996 1_555
S14 U0 2.849823 1_556
S15 U0 3.010996 1_555
