# generated using pymatgen
data_Sm2Th3O9
_symmetry_space_group_name_H-M   'P 1'
_cell_length_a   14.28631079
_cell_length_b   14.28631079
_cell_length_c   14.28631079
_cell_angle_alpha   164.06615873
_cell_angle_beta   164.06615873
_cell_angle_gamma   22.60768554
_symmetry_Int_Tables_number   1
_chemical_formula_structural   Sm2Th3O9
_chemical_formula_sum   'Sm2 Th3 O9'
_cell_volume   219.70896066
_cell_formula_units_Z   1
loop_
 _symmetry_equiv_pos_site_id
 _symmetry_equiv_pos_as_xyz
  1  'x, y, z'
loop_
 _atom_site_type_symbol
 _atom_site_label
 _atom_site_symmetry_multiplicity
 _atom_site_fract_x
 _atom_site_fract_y
 _atom_site_fract_z
 _atom_site_occupancy
  Sm  Sm0  1  0.80572300  0.80572300  0.00000000  1
  Sm  Sm1  1  0.19427700  0.19427700  0.00000000  1
  Th  Th0  1  0.39969600  0.39969600  0.00000000  1
  Th  Th1  1  0.00000000  0.00000000  0.00000000  1
  Th  Th2  1  0.60030400  0.60030400  0.00000000  1
  O  O0  1  0.05325000  0.55325000  0.50000000  1
  O  O1  1  0.64558800  0.14558800  0.50000000  1
  O  O2  1  0.85441200  0.35441200  0.50000000  1
  O  O3  1  0.34352100  0.84352100  0.50000000  1
  O  O4  1  0.44675000  0.94675000  0.50000000  1
  O  O5  1  0.95301300  0.45301300  0.50000000  1
  O  O6  1  0.54698700  0.04698700  0.50000000  1
  O  O7  1  0.15647900  0.65647900  0.50000000  1
  O  O8  1  0.75000000  0.25000000  0.50000000  1
loop_
_geom_bond_atom_site_label_1
_geom_bond_atom_site_label_2
_geom_bond_distance
_geom_bond_site_symmetry_2
O0 Th2 2.378848 1_455
O0 Th2 2.378848 1_556
O0 Th1 2.479274 1_566
O0 Th1 2.479274 1_555
O1 Th2 2.351726 1_556
O1 Th2 2.351726 1_545
O1 Sm1 2.404539 1_555
O1 Sm1 2.404539 1_656
O2 Th0 2.351726 1_555
O2 Th0 2.351726 1_656
O2 Sm0 2.404539 1_545
O2 Sm0 2.404539 1_556
O3 Sm0 2.245521 1_455
O3 Sm0 2.245521 1_556
O3 Th0 2.529439 1_566
O3 Th0 2.529439 1_555
O4 Th0 2.378848 1_566
O4 Th0 2.378848 1_555
O4 Th1 2.479274 1_565
O4 Th1 2.479274 1_666
O5 Th1 2.377808 1_666
O5 Th1 2.377808 1_655
O5 Th0 2.480404 1_656
O5 Th0 2.480404 1_555
O6 Th1 2.377808 1_555
O6 Th1 2.377808 1_656
O6 Th2 2.480404 1_545
O6 Th2 2.480404 1_556
O7 Sm1 2.245521 1_566
O7 Sm1 2.245521 1_555
O7 Th2 2.529439 1_455
O7 Th2 2.529439 1_556
O8 Sm0 2.521578 1_545
O8 Sm0 2.521578 1_556
O8 Sm1 2.521578 1_555
O8 Sm1 2.521578 1_656
