# generated using pymatgen
data_Li3(Nb2Cl5)8
_symmetry_space_group_name_H-M   'P 1'
_cell_length_a   18.20012205
_cell_length_b   18.14291195
_cell_length_c   18.20086386
_cell_angle_alpha   109.40078570
_cell_angle_beta   109.52885293
_cell_angle_gamma   109.41865679
_symmetry_Int_Tables_number   1
_chemical_formula_structural   Li3(Nb2Cl5)8
_chemical_formula_sum   'Li9 Nb48 Cl120'
_cell_volume   4630.21099497
_cell_formula_units_Z   3
loop_
 _symmetry_equiv_pos_site_id
 _symmetry_equiv_pos_as_xyz
  1  'x, y, z'
loop_
 _atom_site_type_symbol
 _atom_site_label
 _atom_site_symmetry_multiplicity
 _atom_site_fract_x
 _atom_site_fract_y
 _atom_site_fract_z
 _atom_site_occupancy
  Li  Li0  1  0.24969894  0.41412729  0.16392560  1
  Li  Li1  1  0.58562463  0.24984776  0.83551484  1
  Li  Li2  1  0.41336021  0.16357429  0.24949661  1
  Li  Li3  1  0.80766392  0.75089504  0.55811651  1
  Li  Li4  1  0.94356507  0.75062380  0.69384105  1
  Li  Li5  1  0.75029577  0.19272457  0.44306081  1
  Li  Li6  1  0.80732316  0.55691303  0.24950939  1
  Li  Li7  1  0.94334343  0.69308477  0.24984292  1
  Li  Li8  1  0.74994828  0.05691122  0.30678924  1
  Nb  Nb0  1  0.02551501  0.48281307  0.89199940  1
  Nb  Nb1  1  0.10987997  0.97688187  0.51894238  1
  Nb  Nb2  1  0.02018371  0.47554262  0.60983089  1
  Nb  Nb3  1  0.10985905  0.63312151  0.59092436  1
  Nb  Nb4  1  0.09150314  0.45722502  0.48394276  1
  Nb  Nb5  1  0.39203310  0.90894764  0.86625474  1
  Nb  Nb6  1  0.09152059  0.13447186  0.60773904  1
  Nb  Nb7  1  0.02044398  0.04463964  0.41035011  1
  Nb  Nb8  1  0.39099778  0.98065053  0.52381167  1
  Nb  Nb9  1  0.13229789  0.60873012  0.08950087  1
  Nb  Nb10  1  0.04190702  0.41170111  0.01630590  1
  Nb  Nb11  1  0.36651000  0.41021753  0.89088686  1
  Nb  Nb12  1  0.58945437  0.98067065  0.95642218  1
  Nb  Nb13  1  0.02408790  0.04237715  0.13290057  1
  Nb  Nb14  1  0.04121409  0.13032099  0.02554849  1
  Nb  Nb15  1  0.40887808  0.89095994  0.36710042  1
  Nb  Nb16  1  0.51613239  0.90867761  0.54208706  1
  Nb  Nb17  1  0.36679724  0.45768358  0.47640834  1
  Nb  Nb18  1  0.52214159  0.39352646  0.98121660  1
  Nb  Nb19  1  0.54093720  0.51782136  0.90856181  1
  Nb  Nb20  1  0.12953343  0.02388950  0.04227884  1
  Nb  Nb21  1  0.52260600  0.63263927  0.54281482  1
  Nb  Nb22  1  0.54206744  0.52564391  0.63360584  1
  Nb  Nb23  1  0.51657437  0.10444081  0.97406816  1
  Nb  Nb24  1  0.48100246  0.89004356  0.02216970  1
  Nb  Nb25  1  0.45844484  0.47672504  0.37108739  1
  Nb  Nb26  1  0.47440350  0.36992334  0.45915087  1
  Nb  Nb27  1  0.86692424  0.97488684  0.95845685  1
  Nb  Nb28  1  0.45725792  0.48287956  0.08734563  1
  Nb  Nb29  1  0.47399511  0.60761703  0.01642815  1
  Nb  Nb30  1  0.62854303  0.54200722  0.52582362  1
  Nb  Nb31  1  0.48084887  0.08752617  0.45851128  1
  Nb  Nb32  1  0.58774212  0.10465528  0.62968725  1
  Nb  Nb33  1  0.95782985  0.86809005  0.97746596  1
  Nb  Nb34  1  0.97463551  0.95845137  0.87181596  1
  Nb  Nb35  1  0.41061495  0.01547596  0.04022905  1
  Nb  Nb36  1  0.62807884  0.58750614  0.10277784  1
  Nb  Nb37  1  0.95852002  0.59066226  0.98080802  1
  Nb  Nb38  1  0.86980400  0.39504080  0.91069205  1
  Nb  Nb39  1  0.60294836  0.01522518  0.47451026  1
  Nb  Nb40  1  0.98529988  0.95867420  0.58816978  1
  Nb  Nb41  1  0.91396030  0.87166154  0.39572189  1
  Nb  Nb42  1  0.60374222  0.08626443  0.12741328  1
  Nb  Nb43  1  0.91408942  0.54271130  0.51842346  1
  Nb  Nb44  1  0.89759131  0.37046172  0.41392529  1
  Nb  Nb45  1  0.98528690  0.52652131  0.39735130  1
  Nb  Nb46  1  0.89751967  0.02695978  0.48372400  1
  Nb  Nb47  1  0.97593510  0.51734322  0.10387902  1
  Cl  Cl0  1  0.12500940  0.98429580  0.89586852  1
  Cl  Cl1  1  0.02368072  0.70935984  0.62763948  1
  Cl  Cl2  1  0.10612592  0.92139863  0.62629839  1
  Cl  Cl3  1  0.02351229  0.81476515  0.39617201  1
  Cl  Cl4  1  0.05141948  0.44866699  0.74988287  1
  Cl  Cl5  1  0.07830690  0.37431931  0.89487497  1
  Cl  Cl6  1  0.18367484  0.60581733  0.97937275  1
  Cl  Cl7  1  0.26962960  0.91068105  0.89585798  1
  Cl  Cl8  1  0.14192516  0.62716209  0.73045810  1
  Cl  Cl9  1  0.01477591  0.10336956  0.87393097  1
  Cl  Cl10  1  0.10601040  0.68465100  0.47966612  1
  Cl  Cl11  1  0.25022256  0.94876398  0.55104636  1
  Cl  Cl12  1  0.24974036  0.80089482  0.69843752  1
  Cl  Cl13  1  0.12744300  0.42087560  0.60619596  1
  Cl  Cl14  1  0.08837993  0.48527272  0.35945840  1
  Cl  Cl15  1  0.10350378  0.87303383  0.01491027  1
  Cl  Cl16  1  0.08852937  0.10324854  0.72928536  1
  Cl  Cl17  1  0.35732780  0.76823250  0.87223915  1
  Cl  Cl18  1  0.01490721  0.41166926  0.14111171  1
  Cl  Cl19  1  0.10372029  0.73145554  0.08893501  1
  Cl  Cl20  1  0.23062344  0.60361229  0.58853842  1
  Cl  Cl21  1  0.12563453  0.64130315  0.22998320  1
  Cl  Cl22  1  0.29570727  0.37349453  0.97861777  1
  Cl  Cl23  1  0.31620998  0.52107065  0.89435249  1
  Cl  Cl24  1  0.19902073  0.30185866  0.75032484  1
  Cl  Cl25  1  0.26880322  0.85782510  0.37269035  1
  Cl  Cl26  1  0.12739912  0.20640247  0.52134163  1
  Cl  Cl27  1  0.39424708  0.87356115  0.57811328  1
  Cl  Cl28  1  0.19963735  0.39751605  0.44890345  1
  Cl  Cl29  1  0.05133654  0.10269053  0.30165219  1
  Cl  Cl30  1  0.47902466  0.87340950  0.79541591  1
  Cl  Cl31  1  0.37352429  0.97915597  0.29589588  1
  Cl  Cl32  1  0.07797788  0.20407465  0.18352966  1
  Cl  Cl33  1  0.58910551  0.85777699  0.98545577  1
  Cl  Cl34  1  0.23096927  0.12724151  0.64228844  1
  Cl  Cl35  1  0.10348960  0.30211227  0.05103295  1
  Cl  Cl36  1  0.30085655  0.74989570  0.19862603  1
  Cl  Cl37  1  0.20629319  0.52158348  0.12723618  1
  Cl  Cl38  1  0.37277845  0.26935396  0.85782722  1
  Cl  Cl39  1  0.51490330  0.64230053  0.91100228  1
  Cl  Cl40  1  0.37196491  0.60362692  0.51455028  1
  Cl  Cl41  1  0.14232418  0.01464700  0.41139842  1
  Cl  Cl42  1  0.39604244  0.41079619  0.76881574  1
  Cl  Cl43  1  0.41082996  0.76885804  0.39614156  1
  Cl  Cl44  1  0.39600938  0.48507168  0.62715629  1
  Cl  Cl45  1  0.29383374  0.42118209  0.31524282  1
  Cl  Cl46  1  0.37419725  0.89423957  0.07795617  1
  Cl  Cl47  1  0.31635443  0.29593520  0.42178165  1
  Cl  Cl48  1  0.69830422  0.94865989  0.89747350  1
  Cl  Cl49  1  0.55102286  0.80061735  0.60248180  1
  Cl  Cl50  1  0.18302702  0.07765827  0.20436524  1
  Cl  Cl51  1  0.57799623  0.68388088  0.70442343  1
  Cl  Cl52  1  0.39463126  0.02052954  0.81648827  1
  Cl  Cl53  1  0.52033998  0.89464094  0.31661352  1
  Cl  Cl54  1  0.20373200  0.18284408  0.07779434  1
  Cl  Cl55  1  0.48514348  0.62713794  0.39661980  1
  Cl  Cl56  1  0.60217370  0.55123767  0.80126063  1
  Cl  Cl57  1  0.55228816  0.25113841  0.94893681  1
  Cl  Cl58  1  0.57883438  0.39382087  0.87259139  1
  Cl  Cl59  1  0.35773832  0.08853745  0.48506066  1
  Cl  Cl60  1  0.64121018  0.91110659  0.51478503  1
  Cl  Cl61  1  0.42199619  0.60538481  0.12567684  1
  Cl  Cl62  1  0.44866917  0.75019829  0.05101913  1
  Cl  Cl63  1  0.39674309  0.44782721  0.19901925  1
  Cl  Cl64  1  0.51479091  0.37359539  0.60388315  1
  Cl  Cl65  1  0.79575111  0.81603498  0.92213370  1
  Cl  Cl66  1  0.47842469  0.10565971  0.68465041  1
  Cl  Cl67  1  0.60342057  0.97667755  0.18394565  1
  Cl  Cl68  1  0.42092335  0.31538364  0.29413746  1
  Cl  Cl69  1  0.81664515  0.92187667  0.79633223  1
  Cl  Cl70  1  0.44765049  0.19835586  0.39665102  1
  Cl  Cl71  1  0.30194188  0.05089085  0.10332482  1
  Cl  Cl72  1  0.68397097  0.70757316  0.58073317  1
  Cl  Cl73  1  0.62642336  0.10525273  0.92222129  1
  Cl  Cl74  1  0.70354277  0.57808819  0.68326784  1
  Cl  Cl75  1  0.60443121  0.51571498  0.37494051  1
  Cl  Cl76  1  0.58830063  0.22967830  0.60316896  1
  Cl  Cl77  1  0.60418142  0.58856365  0.22903532  1
  Cl  Cl78  1  0.85982815  0.98470501  0.58821948  1
  Cl  Cl79  1  0.62593120  0.39684751  0.48515833  1
  Cl  Cl80  1  0.48494926  0.35871355  0.08860982  1
  Cl  Cl81  1  0.62660042  0.73008290  0.14108977  1
  Cl  Cl82  1  0.79627687  0.47995135  0.87411533  1
  Cl  Cl83  1  0.69795370  0.24905866  0.80136361  1
  Cl  Cl84  1  0.89790148  0.69866173  0.94898992  1
  Cl  Cl85  1  0.77161754  0.87498216  0.35975580  1
  Cl  Cl86  1  0.41163406  0.14094143  0.01488888  1
  Cl  Cl87  1  0.91915870  0.79254425  0.81604497  1
  Cl  Cl88  1  0.62552827  0.02025613  0.70362343  1
  Cl  Cl89  1  0.52138303  0.12703102  0.20604591  1
  Cl  Cl90  1  0.80663446  0.61348369  0.55673018  1
  Cl  Cl91  1  0.94312336  0.88635502  0.69303623  1
  Cl  Cl92  1  0.60317792  0.12652548  0.41942373  1
  Cl  Cl93  1  0.87311269  0.79157493  0.47669544  1
  Cl  Cl94  1  0.72940377  0.14047718  0.62483406  1
  Cl  Cl95  1  0.80677250  0.69331173  0.24997800  1
  Cl  Cl96  1  0.68375870  0.47670213  0.10308795  1
  Cl  Cl97  1  0.70358763  0.62563484  0.02000139  1
  Cl  Cl98  1  0.87366316  0.35891076  0.76991130  1
  Cl  Cl99  1  0.77204739  0.39685998  0.41207660  1
  Cl  Cl100  1  0.89628035  0.27048050  0.91139776  1
  Cl  Cl101  1  0.98542040  0.58919532  0.85743551  1
  Cl  Cl102  1  0.64114727  0.22948740  0.12621064  1
  Cl  Cl103  1  0.91171713  0.89637260  0.27080969  1
  Cl  Cl104  1  0.89633392  0.12654721  0.98517864  1
  Cl  Cl105  1  0.91179601  0.51517147  0.64066360  1
  Cl  Cl106  1  0.87316580  0.58181513  0.39627914  1
  Cl  Cl107  1  0.74987570  0.19314602  0.30657644  1
  Cl  Cl108  1  0.74982490  0.05668700  0.44317031  1
  Cl  Cl109  1  0.89640581  0.31399283  0.52343199  1
  Cl  Cl110  1  0.98506652  0.89604694  0.12785287  1
  Cl  Cl111  1  0.86007363  0.37528350  0.27206394  1
  Cl  Cl112  1  0.72981674  0.08850600  0.10416714  1
  Cl  Cl113  1  0.81721431  0.39510593  0.02096278  1
  Cl  Cl114  1  0.91943977  0.62681033  0.10333731  1
  Cl  Cl115  1  0.94316870  0.55675858  0.24991381  1
  Cl  Cl116  1  0.97972027  0.18448855  0.60548193  1
  Cl  Cl117  1  0.89647984  0.08191588  0.37322036  1
  Cl  Cl118  1  0.97994214  0.29514698  0.37433371  1
  Cl  Cl119  1  0.87295740  0.01472635  0.10411746  1
loop_
_geom_bond_atom_site_label_1
_geom_bond_atom_site_label_2
_geom_bond_distance
_geom_bond_site_symmetry_2
Cl0 Nb34 2.472048 1_455
Cl0 Nb20 2.483180 1_566
Cl1 Li4 2.332295 1_455
Cl1 Nb3 2.519729 1_555
Cl1 Nb43 2.533320 1_455
Cl2 Nb40 2.460727 1_455
Cl2 Nb1 2.487211 1_555
Cl3 Li7 2.334487 1_455
Cl3 Nb1 2.515188 1_555
Cl3 Nb41 2.530688 1_455
Cl4 Nb2 2.664565 1_555
Cl4 Nb0 2.691049 1_555
Cl5 Nb10 2.462812 1_556
Cl5 Nb0 2.468376 1_555
Cl6 Nb0 2.470937 1_555
Cl6 Nb9 2.471927 1_556
Cl7 Nb35 2.456192 1_566
Cl7 Nb5 2.468204 1_555
Cl8 Nb2 2.445251 1_555
Cl8 Nb3 2.456726 1_555
Cl9 Nb34 2.466745 1_445
Cl9 Nb14 2.478953 1_556
Cl10 Nb45 2.460732 1_455
Cl10 Nb3 2.487162 1_555
Cl11 Nb1 2.681885 1_555
Cl11 Nb8 2.683078 1_555
Cl12 Nb3 2.671198 1_555
Cl12 Nb5 2.690185 1_555
Cl13 Nb4 2.470336 1_555
Cl13 Nb2 2.475698 1_555
Cl14 Nb45 2.451977 1_455
Cl14 Nb4 2.468758 1_555
Cl15 Nb20 2.457201 1_565
Cl15 Nb33 2.468816 1_454
Cl16 Nb40 2.455212 1_445
Cl16 Nb6 2.471938 1_555
Cl17 Nb24 2.444690 1_556
Cl17 Nb5 2.467191 1_555
Cl18 Nb47 2.466608 1_455
Cl18 Nb10 2.479614 1_555
Cl19 Nb9 2.451544 1_555
Cl19 Nb37 2.465015 1_454
Cl20 Nb3 2.439308 1_555
Cl20 Nb4 2.456792 1_555
Cl21 Nb47 2.462645 1_455
Cl21 Nb9 2.480482 1_555
Cl22 Nb28 2.473976 1_556
Cl22 Nb11 2.483083 1_555
Cl23 Nb11 2.462839 1_555
Cl23 Nb29 2.463146 1_556
Cl24 Nb11 2.676233 1_555
Cl24 Nb6 2.684062 1_555
Cl25 Nb8 2.453619 1_555
Cl25 Nb15 2.462936 1_555
Cl26 Nb6 2.466881 1_555
Cl26 Nb7 2.473244 1_555
Cl27 Nb16 2.463146 1_555
Cl27 Nb8 2.463383 1_555
Cl28 Nb17 2.666164 1_555
Cl28 Nb4 2.692819 1_555
Cl29 Nb7 2.659631 1_555
Cl29 Nb13 2.695360 1_555
Cl30 Nb5 2.464966 1_555
Cl30 Nb12 2.467197 1_555
Cl31 Nb31 2.481200 1_565
Cl31 Nb15 2.481696 1_555
Cl32 Nb14 2.463406 1_555
Cl32 Nb13 2.470635 1_555
Cl33 Nb12 2.454832 1_555
Cl33 Nb24 2.458699 1_556
Cl34 Nb1 2.442269 1_545
Cl34 Nb6 2.462351 1_555
Cl35 Li0 2.325412 1_555
Cl35 Nb10 2.729826 1_555
Cl35 Nb14 2.748325 1_555
Cl36 Nb15 2.688514 1_555
Cl36 Nb9 2.690378 1_555
Cl37 Nb9 2.510802 1_555
Cl37 Nb10 2.514634 1_555
Cl37 Li0 2.531232 1_555
Cl38 Nb18 2.448211 1_555
Cl38 Nb11 2.474812 1_555
Cl39 Nb19 2.446605 1_555
Cl39 Nb29 2.465366 1_556
Cl40 Nb21 2.444607 1_555
Cl40 Nb17 2.464020 1_555
Cl41 Nb7 2.449133 1_555
Cl41 Nb1 2.458500 1_545
Cl42 Nb19 2.454332 1_555
Cl42 Nb11 2.456736 1_555
Cl43 Nb15 2.450678 1_555
Cl43 Nb16 2.459920 1_555
Cl44 Nb17 2.449698 1_555
Cl44 Nb22 2.460671 1_555
Cl45 Nb25 2.510072 1_555
Cl45 Nb17 2.515346 1_555
Cl45 Li0 2.542658 1_555
Cl46 Nb35 2.467239 1_565
Cl46 Nb24 2.486360 1_555
Cl47 Nb26 2.461048 1_555
Cl47 Nb17 2.470447 1_555
Cl48 Nb12 2.680532 1_555
Cl48 Nb27 2.697659 1_555
Cl49 Nb21 2.666916 1_555
Cl49 Nb16 2.692229 1_555
Cl50 Nb20 2.477697 1_555
Cl50 Nb13 2.483846 1_555
Cl51 Nb22 2.461866 1_555
Cl51 Nb21 2.471873 1_555
Cl52 Nb23 2.462957 1_555
Cl52 Nb5 2.470663 1_545
Cl53 Nb39 2.460276 1_565
Cl53 Nb15 2.482158 1_555
Cl54 Nb20 2.479254 1_555
Cl54 Nb14 2.490888 1_555
Cl55 Nb25 2.454367 1_555
Cl55 Nb21 2.473960 1_555
Cl56 Nb22 2.685684 1_555
Cl56 Nb19 2.686321 1_555
Cl57 Li1 2.333461 1_555
Cl57 Nb18 2.733040 1_555
Cl57 Nb23 2.751845 1_555
Cl58 Nb19 2.514125 1_555
Cl58 Nb18 2.518073 1_555
Cl58 Li1 2.528446 1_555
Cl59 Nb31 2.449400 1_555
Cl59 Nb8 2.472812 1_545
Cl60 Nb39 2.458454 1_565
Cl60 Nb16 2.476920 1_555
Cl61 Nb28 2.460936 1_555
Cl61 Nb29 2.477343 1_555
Cl62 Nb24 2.675493 1_555
Cl62 Nb29 2.684298 1_555
Cl63 Li0 2.335307 1_555
Cl63 Nb25 2.740518 1_555
Cl63 Nb28 2.763767 1_555
Cl64 Nb26 2.457707 1_555
Cl64 Nb22 2.463209 1_555
Cl65 Nb27 2.469900 1_555
Cl65 Nb33 2.477361 1_555
Cl66 Nb32 2.510423 1_555
Cl66 Nb8 2.514115 1_545
Cl66 Li1 2.538142 1_555
Cl67 Li8 2.345219 1_565
Cl67 Nb24 2.513011 1_555
Cl67 Nb42 2.523325 1_565
Cl68 Nb25 2.510808 1_555
Cl68 Nb26 2.525400 1_555
Cl68 Li2 2.539980 1_555
Cl69 Nb34 2.465862 1_555
Cl69 Nb27 2.488724 1_555
Cl70 Li2 2.336443 1_555
Cl70 Nb26 2.736738 1_555
Cl70 Nb31 2.744640 1_555
Cl71 Li2 2.322237 1_555
Cl71 Nb35 2.741710 1_555
Cl71 Nb20 2.757898 1_555
Cl72 Li3 2.348018 1_555
Cl72 Nb21 2.513250 1_555
Cl72 Nb30 2.521149 1_555
Cl73 Nb23 2.477649 1_555
Cl73 Nb12 2.480440 1_545
Cl74 Nb30 2.459270 1_555
Cl74 Nb22 2.480442 1_555
Cl75 Nb30 2.479226 1_555
Cl75 Nb25 2.481434 1_555
Cl76 Nb32 2.468489 1_555
Cl76 Nb31 2.469987 1_555
Cl77 Nb36 2.472811 1_555
Cl77 Nb28 2.484506 1_555
Cl78 Nb40 2.481149 1_555
Cl78 Nb46 2.483301 1_565
Cl79 Nb30 2.466632 1_555
Cl79 Nb26 2.479136 1_555
Cl80 Nb18 2.469467 1_554
Cl80 Nb28 2.472034 1_555
Cl81 Nb36 2.457392 1_555
Cl81 Nb29 2.476537 1_555
Cl82 Nb38 2.462461 1_555
Cl82 Nb37 2.481138 1_555
Cl83 Li1 2.330083 1_555
Cl83 Nb32 2.743655 1_555
Cl83 Nb38 2.754340 1_555
Cl84 Nb37 2.675080 1_555
Cl84 Nb33 2.691011 1_555
Cl85 Nb41 2.477867 1_555
Cl85 Nb46 2.480619 1_565
Cl86 Nb35 2.463689 1_555
Cl86 Nb23 2.470065 1_554
Cl87 Li4 2.341845 1_555
Cl87 Nb33 2.511304 1_555
Cl87 Nb34 2.524723 1_555
Cl88 Nb32 2.465568 1_555
Cl88 Nb16 2.481656 1_545
Cl89 Nb42 2.512044 1_555
Cl89 Nb35 2.535762 1_555
Cl89 Li2 2.547185 1_555
Cl90 Li3 2.478524 1_555
Cl90 Li4 2.494618 1_555
Cl90 Nb43 2.818894 1_555
Cl90 Nb30 2.829400 1_555
Cl91 Li3 2.462212 1_555
Cl91 Li4 2.470127 1_555
Cl91 Nb40 2.815552 1_555
Cl91 Nb34 2.837937 1_555
Cl92 Li5 2.354819 1_555
Cl92 Nb31 2.511878 1_555
Cl92 Nb39 2.534783 1_555
Cl93 Li3 2.341361 1_555
Cl93 Nb41 2.504568 1_555
Cl93 Nb40 2.550385 1_555
Cl94 Nb39 2.475604 1_555
Cl94 Nb32 2.480688 1_555
Cl95 Li6 2.475215 1_555
Cl95 Li7 2.487801 1_555
Cl95 Nb41 2.820131 1_555
Cl95 Nb36 2.836655 1_555
Cl96 Li6 2.349029 1_555
Cl96 Nb18 2.512408 1_554
Cl96 Nb36 2.535081 1_555
Cl97 Nb36 2.466072 1_555
Cl97 Nb19 2.490578 1_554
Cl98 Nb38 2.456674 1_555
Cl98 Nb0 2.464501 1_655
Cl99 Nb43 2.476905 1_555
Cl99 Nb44 2.477564 1_555
Cl100 Nb38 2.465502 1_555
Cl100 Nb10 2.467028 1_656
Cl101 Nb37 2.446748 1_555
Cl101 Nb0 2.467740 1_655
Cl102 Nb42 2.467292 1_555
Cl102 Nb23 2.482771 1_554
Cl103 Nb41 2.449243 1_555
Cl103 Nb7 2.482724 1_665
Cl104 Nb14 2.459410 1_656
Cl104 Nb27 2.460022 1_545
Cl105 Nb43 2.447084 1_555
Cl105 Nb2 2.477588 1_655
Cl106 Li6 2.339699 1_555
Cl106 Nb43 2.508497 1_555
Cl106 Nb45 2.553133 1_555
Cl107 Li8 2.473424 1_555
Cl107 Li5 2.484149 1_555
Cl107 Nb44 2.820629 1_555
Cl107 Nb42 2.835302 1_555
Cl108 Li5 2.465948 1_555
Cl108 Li8 2.484357 1_555
Cl108 Nb46 2.821944 1_555
Cl108 Nb39 2.829219 1_555
Cl109 Li5 2.328690 1_555
Cl109 Nb2 2.513482 1_655
Cl109 Nb44 2.528484 1_555
Cl110 Nb33 2.449171 1_554
Cl110 Nb13 2.470162 1_665
Cl111 Nb45 2.476543 1_555
Cl111 Nb44 2.480260 1_555
Cl112 Nb42 2.458490 1_555
Cl112 Nb12 2.484687 1_544
Cl113 Nb47 2.478443 1_555
Cl113 Nb38 2.495544 1_554
Cl114 Li7 2.343490 1_555
Cl114 Nb37 2.511677 1_554
Cl114 Nb47 2.523062 1_555
Cl115 Li6 2.470891 1_555
Cl115 Li7 2.472728 1_555
Cl115 Nb45 2.823482 1_555
Cl115 Nb47 2.830603 1_555
Cl116 Nb46 2.459710 1_555
Cl116 Nb6 2.482365 1_655
Cl117 Li8 2.335670 1_555
Cl117 Nb7 2.510619 1_655
Cl117 Nb46 2.521710 1_555
Cl118 Nb44 2.462212 1_555
Cl118 Nb4 2.484754 1_655
Cl119 Nb13 2.456902 1_655
Cl119 Nb27 2.458176 1_544
