# generated using pymatgen
data_LiTaGeO5
_symmetry_space_group_name_H-M   'P 1'
_cell_length_a   5.53969500
_cell_length_b   5.53969442
_cell_length_c   7.47894633
_cell_angle_alpha   109.69546188
_cell_angle_beta   109.69546752
_cell_angle_gamma   93.61489019
_symmetry_Int_Tables_number   1
_chemical_formula_structural   LiTaGeO5
_chemical_formula_sum   'Li2 Ta2 Ge2 O10'
_cell_volume   199.36644040
_cell_formula_units_Z   2
loop_
 _symmetry_equiv_pos_site_id
 _symmetry_equiv_pos_as_xyz
  1  'x, y, z'
loop_
 _atom_site_type_symbol
 _atom_site_label
 _atom_site_symmetry_multiplicity
 _atom_site_fract_x
 _atom_site_fract_y
 _atom_site_fract_z
 _atom_site_occupancy
  Li  Li0  1  0.69296786  0.30703214  0.25000000  1
  Li  Li1  1  0.30703214  0.69296786  0.75000000  1
  Ta  Ta0  1  0.00000000  -0.00000000  0.00000000  1
  Ta  Ta1  1  0.00000000  -0.00000000  0.50000000  1
  Ge  Ge0  1  0.63827525  0.36172475  0.75000000  1
  Ge  Ge1  1  0.36172475  0.63827525  0.25000000  1
  O  O0  1  0.75973989  0.23683631  0.55701527  1
  O  O1  1  0.24026011  0.76316369  0.44298473  1
  O  O2  1  0.23683631  0.75973989  0.05701527  1
  O  O3  1  0.30634844  0.29615119  0.15057546  1
  O  O4  1  0.93277999  0.06722001  0.25000000  1
  O  O5  1  0.06722001  0.93277999  0.75000000  1
  O  O6  1  0.70384881  0.69365156  0.34942454  1
  O  O7  1  0.29615119  0.30634844  0.65057546  1
  O  O8  1  0.69365156  0.70384881  0.84942454  1
  O  O9  1  0.76316369  0.24026011  0.94298473  1
loop_
_geom_bond_atom_site_label_1
_geom_bond_atom_site_label_2
_geom_bond_distance
_geom_bond_site_symmetry_2
Li0 O4 1.937086 1_555
Li0 O6 2.005918 1_555
Li0 O3 2.005918 1_555
Li0 O0 2.368088 1_555
Li0 O9 2.368088 1_554
Li1 O5 1.937086 1_555
Li1 O7 2.005918 1_555
Li1 O8 2.005918 1_555
Li1 O1 2.368088 1_555
Li1 O2 2.368088 1_556
Ge0 O9 1.747810 1_555
Ge0 O0 1.747811 1_555
Ge0 O8 1.749874 1_555
Ge0 O7 1.749874 1_555
Ge1 O2 1.747810 1_555
Ge1 O1 1.747811 1_555
Ge1 O3 1.749874 1_555
Ge1 O6 1.749874 1_555
O0 Ta1 1.974918 1_655
O1 Ta1 1.974918 1_565
O2 Ta0 1.974918 1_565
O3 Ta0 1.988767 1_555
O4 Ta1 1.946980 1_655
O4 Ta0 1.946980 1_655
O5 Ta1 1.946980 1_565
O5 Ta0 1.946980 1_566
O6 Ta1 1.988767 1_665
O7 Ta1 1.988767 1_555
O8 Ta0 1.988767 1_666
O9 Ta0 1.974918 1_656
