# generated using pymatgen
data_ZnP2
_symmetry_space_group_name_H-M   'P 1'
_cell_length_a   7.37102000
_cell_length_b   7.64726100
_cell_length_c   8.93119654
_cell_angle_alpha   76.82402685
_cell_angle_beta   90.00000000
_cell_angle_gamma   90.00000000
_symmetry_Int_Tables_number   1
_chemical_formula_structural   ZnP2
_chemical_formula_sum   'Zn8 P16'
_cell_volume   490.18157048
_cell_formula_units_Z   8
loop_
 _symmetry_equiv_pos_site_id
 _symmetry_equiv_pos_as_xyz
  1  'x, y, z'
loop_
 _atom_site_type_symbol
 _atom_site_label
 _atom_site_symmetry_multiplicity
 _atom_site_fract_x
 _atom_site_fract_y
 _atom_site_fract_z
 _atom_site_occupancy
  Zn  Zn0  1  0.91371900  0.52668100  0.38596600  1
  Zn  Zn1  1  0.58628100  0.02668100  0.38596600  1
  Zn  Zn2  1  0.08628100  0.47331900  0.61403400  1
  Zn  Zn3  1  0.25984600  0.85581800  0.07881500  1
  Zn  Zn4  1  0.41371900  0.97331900  0.61403400  1
  Zn  Zn5  1  0.24015400  0.35581800  0.07881500  1
  Zn  Zn6  1  0.75984600  0.64418200  0.92118500  1
  Zn  Zn7  1  0.74015400  0.14418200  0.92118500  1
  P  P0  1  0.08139300  0.97504600  0.61847200  1
  P  P1  1  0.48757600  0.67926300  0.76641300  1
  P  P2  1  0.51794000  0.80673100  0.24221600  1
  P  P3  1  0.51242400  0.32073700  0.23358700  1
  P  P4  1  0.24811500  0.64822900  0.91808500  1
  P  P5  1  0.58139300  0.52495400  0.38152800  1
  P  P6  1  0.41860700  0.47504600  0.61847200  1
  P  P7  1  0.25188500  0.14822900  0.91808500  1
  P  P8  1  0.91860700  0.02495400  0.38152800  1
  P  P9  1  0.01794000  0.69326900  0.75778400  1
  P  P10  1  0.74811500  0.85177100  0.08191500  1
  P  P11  1  0.75188500  0.35177100  0.08191500  1
  P  P12  1  0.98757600  0.82073700  0.23358700  1
  P  P13  1  0.98206000  0.30673100  0.24221600  1
  P  P14  1  0.01242400  0.17926300  0.76641300  1
  P  P15  1  0.48206000  0.19326900  0.75778400  1
loop_
_geom_bond_atom_site_label_1
_geom_bond_atom_site_label_2
_geom_bond_distance
_geom_bond_site_symmetry_2
Zn0 Zn2 2.356800 1_655
Zn1 Zn4 2.356800 1_545
P0 P9 2.277683 1_555
P0 P14 2.320315 1_565
P0 P8 2.386523 1_465
P0 Zn4 2.449987 1_555
P1 P4 2.204590 1_555
P1 P6 2.320315 1_555
P1 Zn4 2.410411 1_555
P1 Zn6 2.416887 1_555
P2 P5 2.277683 1_555
P2 Zn3 2.374891 1_555
P2 Zn1 2.390753 1_565
P3 P5 2.320315 1_555
P3 Zn1 2.410411 1_555
P3 Zn5 2.416887 1_555
P4 P9 2.195921 1_555
P4 Zn5 2.366659 1_556
P4 Zn3 2.372168 1_556
P5 P6 2.386523 1_555
P5 Zn0 2.449987 1_555
P6 Zn2 2.449987 1_555
P7 Zn3 2.366659 1_546
P7 Zn5 2.372168 1_556
P8 Zn1 2.449987 1_555
P9 Zn6 2.374891 1_455
P9 Zn2 2.390753 1_555
P10 P2 2.195921 1_555
P10 P12 2.204590 1_555
P10 Zn7 2.366659 1_564
P10 Zn6 2.372168 1_554
P11 P13 2.195921 1_555
P11 P3 2.204590 1_555
P11 Zn6 2.366659 1_554
P11 Zn7 2.372168 1_554
P12 P8 2.320315 1_565
P12 Zn0 2.410411 1_555
P12 Zn3 2.416887 1_655
P13 P8 2.277683 1_555
P13 Zn5 2.374891 1_655
P13 Zn0 2.390753 1_555
P14 P7 2.204590 1_555
P14 Zn2 2.410411 1_555
P14 Zn7 2.416887 1_455
P15 P7 2.195921 1_555
P15 P6 2.277683 1_555
P15 Zn7 2.374891 1_555
P15 Zn4 2.390753 1_545
