# generated using pymatgen
data_FeHO2
_symmetry_space_group_name_H-M   'P 1'
_cell_length_a   6.01530400
_cell_length_b   11.31420837
_cell_length_c   12.29183503
_cell_angle_alpha   96.59511540
_cell_angle_beta   90.06491777
_cell_angle_gamma   90.25076777
_symmetry_Int_Tables_number   1
_chemical_formula_structural   FeHO2
_chemical_formula_sum   'Fe16 H16 O32'
_cell_volume   831.01767115
_cell_formula_units_Z   16
loop_
 _symmetry_equiv_pos_site_id
 _symmetry_equiv_pos_as_xyz
  1  'x, y, z'
loop_
 _atom_site_type_symbol
 _atom_site_label
 _atom_site_symmetry_multiplicity
 _atom_site_fract_x
 _atom_site_fract_y
 _atom_site_fract_z
 _atom_site_occupancy
  Fe  Fe0  1  0.97592500  0.34030800  0.08239000  1
  Fe  Fe1  1  0.00918400  0.15746900  0.63831700  1
  Fe  Fe2  1  0.79248500  0.85622400  0.56868000  1
  Fe  Fe3  1  0.74148400  0.66620800  0.12878800  1
  Fe  Fe4  1  0.94472400  0.66367600  0.87132700  1
  Fe  Fe5  1  0.02191100  0.85777200  0.31958700  1
  Fe  Fe6  1  0.80225400  0.17068700  0.37965600  1
  Fe  Fe7  1  0.76640200  0.35256600  0.81538500  1
  Fe  Fe8  1  0.48470100  0.34314700  0.08570500  1
  Fe  Fe9  1  0.52872200  0.17322700  0.63689000  1
  Fe  Fe10  1  0.28154100  0.85785100  0.57261900  1
  Fe  Fe11  1  0.24820000  0.71765300  0.13001200  1
  Fe  Fe12  1  0.46827900  0.65059000  0.87079400  1
  Fe  Fe13  1  0.51107900  0.88497800  0.31871800  1
  Fe  Fe14  1  0.29713500  0.17416700  0.38690700  1
  Fe  Fe15  1  0.24695800  0.34200400  0.82811200  1
  H  H0  1  0.03517700  0.01510000  0.46570800  1
  H  H1  1  0.03199800  0.40639900  0.64707300  1
  H  H2  1  0.58519700  0.75691400  0.70324800  1
  H  H3  1  0.75703800  0.90563900  0.14044400  1
  H  H4  1  0.07972400  0.72246000  0.67645000  1
  H  H5  1  0.00727700  0.62440400  0.30554500  1
  H  H6  1  0.73932800  0.49542300  0.99256300  1
  H  H7  1  0.59535400  0.27591900  0.26426100  1
  H  H8  1  0.47654000  0.41407300  0.65791800  1
  H  H9  1  0.54936500  0.20920100  0.90826200  1
  H  H10  1  0.23416400  0.51052600  0.97635700  1
  H  H11  1  0.53540500  0.01218700  0.49811500  1
  H  H12  1  0.48023600  0.65996500  0.31359600  1
  H  H13  1  0.19139700  0.21507600  0.18299000  1
  H  H14  1  0.26940400  0.51072200  0.18826700  1
  H  H15  1  0.24009200  0.10440800  0.80933000  1
  O  O0  1  0.05692900  0.23872800  0.31545200  1
  O  O1  1  0.03573800  0.03208100  0.38684100  1
  O  O2  1  0.02199500  0.35851200  0.70793300  1
  O  O3  1  0.99820300  0.31733200  0.92380100  1
  O  O4  1  0.69724100  0.74368700  0.81615300  1
  O  O5  1  0.73999200  0.52249000  0.86786400  1
  O  O6  1  0.75602000  0.85562100  0.20018800  1
  O  O7  1  0.76237800  0.82879600  0.41129900  1
  O  O8  1  0.04006600  0.74650100  0.60199400  1
  O  O9  1  0.03099400  0.97927400  0.59626100  1
  O  O10  1  0.99897100  0.67298100  0.24503100  1
  O  O11  1  0.99139300  0.69607100  0.03238500  1
  O  O12  1  0.72387500  0.26477500  0.13794400  1
  O  O13  1  0.73552200  0.48115500  0.07422700  1
  O  O14  1  0.75999400  0.17715500  0.74905200  1
  O  O15  1  0.77812800  0.20121500  0.53735600  1
  O  O16  1  0.55345800  0.27710300  0.34316500  1
  O  O17  1  0.53854500  0.05087100  0.36582300  1
  O  O18  1  0.49371700  0.35794300  0.71186900  1
  O  O19  1  0.51202500  0.29403100  0.92260000  1
  O  O20  1  0.20446000  0.70056000  0.79850800  1
  O  O21  1  0.27090500  0.50579400  0.89783100  1
  O  O22  1  0.25997900  0.87270600  0.20971200  1
  O  O23  1  0.27965900  0.82439400  0.41525900  1
  O  O24  1  0.54070400  0.77315800  0.62513300  1
  O  O25  1  0.53153400  0.99123800  0.57585500  1
  O  O26  1  0.48231300  0.64626100  0.23348300  1
  O  O27  1  0.49479400  0.69880800  0.03107400  1
  O  O28  1  0.22968100  0.23111100  0.10650800  1
  O  O29  1  0.23546000  0.46108800  0.11915500  1
  O  O30  1  0.26053300  0.16326300  0.75795800  1
  O  O31  1  0.26944700  0.19997000  0.54510700  1
loop_
_geom_bond_atom_site_label_1
_geom_bond_atom_site_label_2
_geom_bond_distance
_geom_bond_site_symmetry_2
Fe0 O12 1.902740 1_555
Fe0 O3 1.941648 1_554
Fe0 O28 2.010935 1_655
Fe0 O29 2.084895 1_655
Fe0 O13 2.167328 1_555
Fe1 O15 1.964688 1_455
Fe1 O14 2.021650 1_455
Fe1 O9 2.027883 1_545
Fe1 O31 2.029512 1_555
Fe1 O30 2.103544 1_555
Fe1 O2 2.337388 1_555
Fe2 O7 1.931893 1_555
Fe2 O24 1.948933 1_555
Fe2 O9 1.996137 1_655
Fe2 O8 2.014532 1_655
Fe2 O25 2.189882 1_555
Fe3 O11 1.967160 1_555
Fe3 O27 1.970576 1_555
Fe3 O26 2.050772 1_555
Fe3 O10 2.101244 1_555
Fe3 O13 2.124030 1_555
Fe3 O6 2.221878 1_555
Fe4 O20 1.870734 1_655
Fe4 O4 1.909491 1_555
Fe4 O11 1.990859 1_556
Fe4 O5 2.009283 1_555
Fe5 O7 1.974831 1_455
Fe5 O22 1.989480 1_555
Fe5 O23 2.008085 1_555
Fe5 O1 2.050285 1_565
Fe5 O6 2.167672 1_455
Fe5 O10 2.187977 1_455
Fe6 O0 1.922052 1_655
Fe6 O15 1.935233 1_555
Fe6 O16 2.007213 1_555
Fe6 O17 2.076189 1_555
Fe6 O1 2.119074 1_655
Fe7 O5 1.963567 1_555
Fe7 O3 2.000433 1_555
Fe7 O2 2.033940 1_655
Fe7 O14 2.057335 1_555
Fe7 O18 2.080183 1_555
Fe7 O19 2.170933 1_555
Fe8 O12 1.846160 1_555
Fe8 O28 2.020827 1_555
Fe8 O29 2.022465 1_555
Fe8 O19 2.025072 1_554
Fe8 O13 2.182858 1_555
Fe9 O14 1.954257 1_555
Fe9 O31 1.968581 1_555
Fe9 O15 1.984155 1_555
Fe9 O25 2.109114 1_545
Fe9 O18 2.196209 1_555
Fe9 O30 2.207310 1_555
Fe10 O23 1.927808 1_555
Fe10 O8 1.979170 1_555
Fe10 O24 1.979408 1_555
Fe10 O9 2.042205 1_555
Fe10 O25 2.122910 1_555
Fe11 O22 1.909531 1_555
Fe11 O27 1.916251 1_555
Fe11 O11 1.952222 1_455
Fe11 O26 2.120172 1_555
Fe11 O10 2.159664 1_455
Fe12 O4 1.899834 1_555
Fe12 O20 1.935870 1_555
Fe12 O27 1.989003 1_556
Fe12 O21 2.076739 1_555
Fe12 O5 2.186818 1_555
Fe13 O17 1.906020 1_565
Fe13 O23 1.999526 1_555
Fe13 O22 2.011678 1_555
Fe13 O7 2.038335 1_555
Fe13 O6 2.074105 1_555
Fe14 O0 1.883217 1_555
Fe14 O31 1.940379 1_555
Fe14 O17 2.014317 1_555
Fe14 O16 2.037844 1_555
Fe14 O1 2.243726 1_555
Fe15 O3 1.943226 1_455
Fe15 O21 1.954974 1_555
Fe15 O2 2.027149 1_555
Fe15 O19 2.081829 1_555
Fe15 O18 2.083025 1_555
Fe15 O30 2.107378 1_555
H0 O1 1.009695 1_555
H0 O9 1.699862 1_545
H1 O2 0.974534 1_555
H2 O24 1.033311 1_555
H2 O4 1.564970 1_555
H3 O6 0.977255 1_555
H4 O8 1.012790 1_555
H4 O20 1.720408 1_555
H5 O10 0.975659 1_455
H6 O13 1.035105 1_556
H6 O5 1.597198 1_555
H7 O16 1.000974 1_555
H7 O12 1.727122 1_555
H8 O18 0.975152 1_555
H9 O19 0.982761 1_555
H10 O21 0.985948 1_555
H11 O25 1.010870 1_545
H11 O17 1.731947 1_555
H12 O26 0.979221 1_555
H13 O28 1.004513 1_555
H14 O29 0.983740 1_555
H15 O30 0.976382 1_555
