# generated using pymatgen
data_AsS2N2OF9
_symmetry_space_group_name_H-M   'P 1'
_cell_length_a   7.53973000
_cell_length_b   7.55785557
_cell_length_c   7.79512345
_cell_angle_alpha   91.25103111
_cell_angle_beta   109.63726497
_cell_angle_gamma   89.72575783
_symmetry_Int_Tables_number   1
_chemical_formula_structural   AsS2N2OF9
_chemical_formula_sum   'As2 S4 N4 O2 F18'
_cell_volume   418.26252847
_cell_formula_units_Z   2
loop_
 _symmetry_equiv_pos_site_id
 _symmetry_equiv_pos_as_xyz
  1  'x, y, z'
loop_
 _atom_site_type_symbol
 _atom_site_label
 _atom_site_symmetry_multiplicity
 _atom_site_fract_x
 _atom_site_fract_y
 _atom_site_fract_z
 _atom_site_occupancy
  As  As0  1  0.28501300  0.33362800  0.50412400  1
  As  As1  1  0.62114400  0.73077500  0.51401200  1
  S  S0  1  0.64006900  0.71497600  0.96299900  1
  S  S1  1  0.17627400  0.70912000  0.08587100  1
  S  S2  1  0.74776500  0.26969700  0.82083000  1
  S  S3  1  0.33300400  0.11665700  0.98665100  1
  N  N0  1  0.15523200  0.82673500  0.39017600  1
  N  N1  1  0.84090300  0.71593400  0.05576600  1
  N  N2  1  0.28984200  0.21691100  0.12519800  1
  N  N3  1  0.70107300  0.20919800  0.38986200  1
  O  O0  1  0.67994000  0.33298500  0.30169500  1
  O  O1  1  0.50163200  0.78092100  0.80094600  1
  F  F0  1  0.24628300  0.50994400  0.63695000  1
  F  F1  1  0.24346200  0.16758000  0.64307100  1
  F  F2  1  0.05221400  0.33798200  0.35725000  1
  F  F3  1  0.12141000  0.99086400  0.31109400  1
  F  F4  1  0.74187400  0.47594600  0.69068300  1
  F  F5  1  0.79058000  0.85440700  0.68536900  1
  F  F6  1  0.89472100  0.37528700  0.98465300  1
  F  F7  1  0.76528200  0.10274400  0.96226200  1
  F  F8  1  0.92083700  0.19650800  0.75698200  1
  F  F9  1  0.11526800  0.84445600  0.54402900  1
  F  F10  1  0.50500300  0.92088600  0.38503500  1
  F  F11  1  0.26097500  0.54708900  0.21749700  1
  F  F12  1  0.16644900  0.92789900  0.90632600  1
  F  F13  1  0.14728500  0.59891800  0.90819200  1
  F  F14  1  0.56462000  0.39346800  0.91554300  1
  F  F15  1  0.51278800  0.69877700  0.09439300  1
  F  F16  1  0.78541200  0.05562500  0.30333400  1
  F  F17  1  0.78054800  0.68918200  0.39720600  1
loop_
_geom_bond_atom_site_label_1
_geom_bond_atom_site_label_2
_geom_bond_distance
_geom_bond_site_symmetry_2
As0 F2 1.744463 1_555
As0 F0 1.752799 1_555
As0 F1 1.771270 1_555
As1 F17 1.758335 1_555
As1 F5 1.760488 1_555
As1 F10 1.816974 1_555
As1 F4 2.385577 1_555
N1 S0 1.442144 1_554
N2 S3 1.429873 1_554
N3 O0 1.151546 1_555
O1 S0 1.438716 1_555
F3 N0 1.381484 1_555
F4 S2 1.870607 1_555
F6 S2 1.583748 1_555
F7 S2 1.669234 1_555
F8 S2 1.635262 1_555
F9 N0 1.335120 1_555
F11 S1 1.602257 1_555
F12 S3 1.858465 1_565
F12 S1 2.174524 1_556
F13 S1 1.551673 1_556
F14 S2 1.992393 1_555
F15 S0 1.628572 1_554
F16 N3 1.566372 1_555
