# generated using pymatgen
data_SiO2
_symmetry_space_group_name_H-M   'P 1'
_cell_length_a   2.83077200
_cell_length_b   11.44196118
_cell_length_c   11.60863955
_cell_angle_alpha   89.16492514
_cell_angle_beta   83.22187995
_cell_angle_gamma   83.46494507
_symmetry_Int_Tables_number   1
_chemical_formula_structural   SiO2
_chemical_formula_sum   'Si8 O16'
_cell_volume   370.94474957
_cell_formula_units_Z   8
loop_
 _symmetry_equiv_pos_site_id
 _symmetry_equiv_pos_as_xyz
  1  'x, y, z'
loop_
 _atom_site_type_symbol
 _atom_site_label
 _atom_site_symmetry_multiplicity
 _atom_site_fract_x
 _atom_site_fract_y
 _atom_site_fract_z
 _atom_site_occupancy
  Si  Si0  1  0.35967700  0.42206500  0.85227500  1
  Si  Si1  1  0.73582400  0.30411200  0.19400400  1
  Si  Si2  1  0.30318100  0.84857900  0.57492800  1
  Si  Si3  1  0.64032300  0.57793500  0.14772500  1
  Si  Si4  1  0.44892800  0.80447900  0.30527800  1
  Si  Si5  1  0.55107200  0.19552100  0.69472200  1
  Si  Si6  1  0.26417600  0.69588800  0.80599600  1
  Si  Si7  1  0.69681900  0.15142100  0.42507200  1
  O  O0  1  0.83280000  0.40322200  0.92534400  1
  O  O1  1  0.22664200  0.07536100  0.40783300  1
  O  O2  1  0.77335800  0.92463900  0.59216700  1
  O  O3  1  0.45175900  0.32886800  0.74585700  1
  O  O4  1  0.28523600  0.26215000  0.13191100  1
  O  O5  1  0.59939500  0.21022000  0.55065000  1
  O  O6  1  0.71476400  0.73785000  0.86808900  1
  O  O7  1  0.31181900  0.74206200  0.66889700  1
  O  O8  1  0.16720000  0.59677800  0.07465600  1
  O  O9  1  0.93926900  0.86801100  0.26472500  1
  O  O10  1  0.54824100  0.67113200  0.25414300  1
  O  O11  1  0.32441000  0.55442800  0.79934700  1
  O  O12  1  0.68818100  0.25793800  0.33110300  1
  O  O13  1  0.40060500  0.78978000  0.44935000  1
  O  O14  1  0.67559000  0.44557200  0.20065300  1
  O  O15  1  0.06073100  0.13198900  0.73527500  1
loop_
_geom_bond_atom_site_label_1
_geom_bond_atom_site_label_2
_geom_bond_distance
_geom_bond_site_symmetry_2
O0 Si0 1.660367 1_555
O0 Si0 1.661233 1_655
O1 Si7 1.638285 1_455
O1 Si7 1.703085 1_555
O2 Si2 1.638285 1_655
O2 Si2 1.703085 1_555
O3 Si0 1.621824 1_555
O3 Si5 1.627481 1_555
O4 Si1 1.656363 1_555
O4 Si1 1.656630 1_455
O5 Si7 1.595396 1_555
O5 Si5 1.669497 1_555
O6 Si6 1.656363 1_555
O6 Si6 1.656630 1_655
O7 Si2 1.623792 1_555
O7 Si6 1.664732 1_555
O8 Si3 1.660367 1_555
O8 Si3 1.661233 1_455
O9 Si4 1.655949 1_555
O9 Si4 1.656242 1_655
O10 Si3 1.621824 1_555
O10 Si4 1.627481 1_555
O11 Si6 1.610139 1_555
O11 Si0 1.622993 1_555
O12 Si7 1.623792 1_555
O12 Si1 1.664732 1_555
O13 Si2 1.595396 1_555
O13 Si4 1.669497 1_555
O14 Si1 1.610139 1_555
O14 Si3 1.622993 1_555
O15 Si5 1.655949 1_555
O15 Si5 1.656242 1_455
