# generated using pymatgen
data_Zr2InNi2
_symmetry_space_group_name_H-M   'P 1'
_cell_length_a   7.17559220
_cell_length_b   7.17559220
_cell_length_c   6.64577087
_cell_angle_alpha   90.00000000
_cell_angle_beta   90.00000000
_cell_angle_gamma   90.00000000
_symmetry_Int_Tables_number   1
_chemical_formula_structural   Zr2InNi2
_chemical_formula_sum   'Zr8 In4 Ni8'
_cell_volume   342.18491655
_cell_formula_units_Z   4
loop_
 _symmetry_equiv_pos_site_id
 _symmetry_equiv_pos_as_xyz
  1  'x, y, z'
loop_
 _atom_site_type_symbol
 _atom_site_label
 _atom_site_symmetry_multiplicity
 _atom_site_fract_x
 _atom_site_fract_y
 _atom_site_fract_z
 _atom_site_occupancy
  Zr  Zr0  1  0.82579739  0.82579739  -0.00000000  1
  Zr  Zr1  1  0.67420261  0.32579739  0.50000000  1
  Zr  Zr2  1  0.33837314  0.66162686  -0.00000000  1
  Zr  Zr3  1  0.16162686  0.16162686  0.50000000  1
  Zr  Zr4  1  0.17420261  0.17420261  -0.00000000  1
  Zr  Zr5  1  0.83837314  0.83837314  0.50000000  1
  Zr  Zr6  1  0.66162686  0.33837314  -0.00000000  1
  Zr  Zr7  1  0.32579739  0.67420261  0.50000000  1
  In  In0  1  0.50000000  -0.00000000  0.75000000  1
  In  In1  1  0.50000000  -0.00000000  0.25000000  1
  In  In2  1  -0.00000000  0.50000000  0.25000000  1
  In  In3  1  -0.00000000  0.50000000  0.75000000  1
  Ni  Ni0  1  0.12465464  0.87534536  0.23294695  1
  Ni  Ni1  1  0.12465464  0.87534536  0.76705305  1
  Ni  Ni2  1  0.62465464  0.62465464  0.73294695  1
  Ni  Ni3  1  0.87534536  0.12465464  0.76705305  1
  Ni  Ni4  1  0.37534536  0.37534536  0.26705305  1
  Ni  Ni5  1  0.62465464  0.62465464  0.26705305  1
  Ni  Ni6  1  0.87534536  0.12465464  0.23294695  1
  Ni  Ni7  1  0.37534536  0.37534536  0.73294695  1
loop_
_geom_bond_atom_site_label_1
_geom_bond_atom_site_label_2
_geom_bond_distance
_geom_bond_site_symmetry_2
In0 Ni2 2.840233 1_545
In0 Ni1 2.840233 1_545
In0 Ni7 2.840233 1_555
In0 Ni3 2.840233 1_555
In0 Zr0 3.128605 1_546
In0 Zr7 3.128605 1_545
In0 Zr1 3.128605 1_555
In0 Zr4 3.128605 1_556
In0 Zr2 3.162400 1_546
In0 Zr6 3.162400 1_556
In0 Zr3 3.162400 1_555
In0 Zr5 3.162400 1_545
In1 Ni5 2.840233 1_545
In1 Ni0 2.840233 1_545
In1 Ni4 2.840233 1_555
In1 Ni6 2.840233 1_555
In1 Zr0 3.128605 1_545
In1 Zr7 3.128605 1_545
In1 Zr1 3.128605 1_555
In1 Zr4 3.128605 1_555
In1 Zr2 3.162400 1_545
In1 Zr3 3.162400 1_555
In1 Zr6 3.162400 1_555
In1 Zr5 3.162400 1_545
In2 Ni6 2.840233 1_455
In2 Ni5 2.840233 1_455
In2 Ni4 2.840233 1_555
In2 Ni0 2.840233 1_555
In2 Zr0 3.128605 1_455
In2 Zr1 3.128605 1_455
In2 Zr7 3.128605 1_555
In2 Zr4 3.128605 1_555
In2 Zr6 3.162400 1_455
In2 Zr3 3.162400 1_555
In2 Zr2 3.162400 1_555
In2 Zr5 3.162400 1_455
In3 Ni2 2.840233 1_455
In3 Ni3 2.840233 1_455
In3 Ni7 2.840233 1_555
In3 Ni1 2.840233 1_555
In3 Zr0 3.128605 1_456
In3 Zr1 3.128605 1_455
In3 Zr7 3.128605 1_555
In3 Zr4 3.128605 1_556
In3 Zr6 3.162400 1_456
In3 Zr3 3.162400 1_555
In3 Zr5 3.162400 1_455
In3 Zr2 3.162400 1_556
Ni0 Ni6 2.529946 1_465
Ni0 Zr2 2.664628 1_555
Ni0 Zr4 2.668678 1_565
Ni0 Zr0 2.668678 1_455
Ni0 Zr7 2.704839 1_555
Ni0 Zr3 2.727655 1_565
Ni0 Zr5 2.727655 1_455
Ni1 Ni3 2.529946 1_465
Ni1 Zr2 2.664628 1_556
Ni1 Zr4 2.668678 1_566
Ni1 Zr0 2.668678 1_456
Ni1 Zr7 2.704839 1_555
Ni1 Zr3 2.727655 1_565
Ni1 Zr5 2.727655 1_455
Ni2 Ni7 2.529946 1_555
Ni2 Zr5 2.664628 1_555
Ni2 Zr7 2.668678 1_555
Ni2 Zr1 2.668678 1_555
Ni2 Zr0 2.704839 1_556
Ni2 Zr2 2.727655 1_556
Ni2 Zr6 2.727655 1_556
Ni3 Zr6 2.664628 1_556
Ni3 Zr4 2.668678 1_656
Ni3 Zr0 2.668678 1_546
Ni3 Zr1 2.704839 1_555
Ni3 Zr3 2.727655 1_655
Ni3 Zr5 2.727655 1_545
Ni4 Ni5 2.529946 1_555
Ni4 Zr3 2.664628 1_555
Ni4 Zr7 2.668678 1_555
Ni4 Zr1 2.668678 1_555
Ni4 Zr4 2.704839 1_555
Ni4 Zr6 2.727655 1_555
Ni4 Zr2 2.727655 1_555
Ni5 Zr5 2.664628 1_555
Ni5 Zr7 2.668678 1_555
Ni5 Zr1 2.668678 1_555
Ni5 Zr0 2.704839 1_555
Ni5 Zr6 2.727655 1_555
Ni5 Zr2 2.727655 1_555
Ni6 Zr6 2.664628 1_555
Ni6 Zr4 2.668678 1_655
Ni6 Zr0 2.668678 1_545
Ni6 Zr1 2.704839 1_555
Ni6 Zr3 2.727655 1_655
Ni6 Zr5 2.727655 1_545
Ni7 Zr3 2.664628 1_555
Ni7 Zr7 2.668678 1_555
Ni7 Zr1 2.668678 1_555
Ni7 Zr4 2.704839 1_556
Ni7 Zr2 2.727655 1_556
Ni7 Zr6 2.727655 1_556
