# generated using pymatgen
data_CsC2I3N2
_symmetry_space_group_name_H-M   'P 1'
_cell_length_a   4.62675000
_cell_length_b   6.79609200
_cell_length_c   16.57050400
_cell_angle_alpha   90.00000000
_cell_angle_beta   90.00000000
_cell_angle_gamma   90.00000000
_symmetry_Int_Tables_number   1
_chemical_formula_structural   CsC2I3N2
_chemical_formula_sum   'Cs2 C4 I6 N4'
_cell_volume   521.03992290
_cell_formula_units_Z   2
loop_
 _symmetry_equiv_pos_site_id
 _symmetry_equiv_pos_as_xyz
  1  'x, y, z'
loop_
 _atom_site_type_symbol
 _atom_site_label
 _atom_site_symmetry_multiplicity
 _atom_site_fract_x
 _atom_site_fract_y
 _atom_site_fract_z
 _atom_site_occupancy
  Cs  Cs0  1  0.31796700  0.50000000  0.00000000  1
  Cs  Cs1  1  0.68203300  0.00000000  0.50000000  1
  C  C0  1  0.21908500  0.00000000  0.28825800  1
  C  C1  1  0.78091500  0.50000000  0.21174200  1
  C  C2  1  0.78091500  0.50000000  0.78825800  1
  C  C3  1  0.21908500  0.00000000  0.71174200  1
  I  I0  1  0.40669900  0.00000000  0.82479100  1
  I  I1  1  0.74718600  0.00000000  0.00000000  1
  I  I2  1  0.40669900  0.00000000  0.17520900  1
  I  I3  1  0.25281400  0.50000000  0.50000000  1
  I  I4  1  0.59330100  0.50000000  0.67520900  1
  I  I5  1  0.59330100  0.50000000  0.32479100  1
  N  N0  1  0.87277000  0.50000000  0.85411300  1
  N  N1  1  0.87277000  0.50000000  0.14588700  1
  N  N2  1  0.12723000  0.00000000  0.64588700  1
  N  N3  1  0.12723000  0.00000000  0.35411300  1
loop_
_geom_bond_atom_site_label_1
_geom_bond_atom_site_label_2
_geom_bond_distance
_geom_bond_site_symmetry_2
Cs0 N1 3.175967 1_455
Cs0 N0 3.175967 1_454
Cs0 N1 3.526057 1_555
Cs0 N0 3.526057 1_554
Cs0 I1 3.935794 1_565
Cs0 I1 3.935794 1_555
Cs0 I1 4.303587 1_465
Cs0 I1 4.303587 1_455
Cs1 N3 3.175967 1_655
Cs1 N2 3.175967 1_655
Cs1 N2 3.526057 1_555
Cs1 N3 3.526057 1_555
Cs1 I3 3.935794 1_555
Cs1 I3 3.935794 1_545
Cs1 I3 4.303587 1_645
Cs1 I3 4.303587 1_655
C0 N3 1.171087 1_555
C0 I2 2.064624 1_555
C1 N1 1.171087 1_555
C1 I5 2.064624 1_555
C2 N0 1.171087 1_555
C2 I4 2.064624 1_555
C3 N2 1.171087 1_555
C3 I0 2.064624 1_555
I0 I1 3.303162 1_556
I1 I2 3.303162 1_555
I3 I4 3.303162 1_555
I3 I5 3.303162 1_555
