# generated using pymatgen
data_K4Nb2Si8O23
_symmetry_space_group_name_H-M   'P 1'
_cell_length_a   7.84626200
_cell_length_b   11.09070329
_cell_length_c   32.77515111
_cell_angle_alpha   92.99628008
_cell_angle_beta   94.77158452
_cell_angle_gamma   103.64279921
_symmetry_Int_Tables_number   1
_chemical_formula_structural   K4Nb2Si8O23
_chemical_formula_sum   'K20 Nb10 Si40 O115'
_cell_volume   2754.41287421
_cell_formula_units_Z   5
loop_
 _symmetry_equiv_pos_site_id
 _symmetry_equiv_pos_as_xyz
  1  'x, y, z'
loop_
 _atom_site_type_symbol
 _atom_site_label
 _atom_site_symmetry_multiplicity
 _atom_site_fract_x
 _atom_site_fract_y
 _atom_site_fract_z
 _atom_site_occupancy
  K  K0  1  0.02435900  0.14434500  0.26313900  1
  K  K1  1  0.61873300  0.13425900  0.66515800  1
  K  K2  1  0.17335400  0.47597500  0.05727800  1
  K  K3  1  0.24408100  0.14142500  0.06618200  1
  K  K4  1  0.24441800  0.52743100  0.54436100  1
  K  K5  1  0.84299900  0.14686200  0.46629500  1
  K  K6  1  0.00188800  0.49331400  0.25511500  1
  K  K7  1  0.63948800  0.52699400  0.14507200  1
  K  K8  1  0.99811200  0.50668600  0.74488500  1
  K  K9  1  0.39826600  0.51337000  0.34573100  1
  K  K10  1  0.82664600  0.52402500  0.94272200  1
  K  K11  1  0.38126700  0.86574100  0.33484200  1
  K  K12  1  0.75591900  0.85857500  0.93381800  1
  K  K13  1  0.15700100  0.85313800  0.53370500  1
  K  K14  1  0.75558200  0.47256900  0.45563900  1
  K  K15  1  0.43387700  0.14460200  0.86552200  1
  K  K16  1  0.60173400  0.48663000  0.65426900  1
  K  K17  1  0.97564100  0.85565500  0.73686100  1
  K  K18  1  0.56612300  0.85539800  0.13447800  1
  K  K19  1  0.36051200  0.47300600  0.85492800  1
  Nb  Nb0  1  0.50015700  0.70586500  0.24593900  1
  Nb  Nb1  1  0.90023800  0.29474200  0.35479500  1
  Nb  Nb2  1  0.86704100  0.67642200  0.84189800  1
  Nb  Nb3  1  0.13295900  0.32357800  0.15810200  1
  Nb  Nb4  1  0.67818000  0.68860700  0.04167400  1
  Nb  Nb5  1  0.32182000  0.31139300  0.95832600  1
  Nb  Nb6  1  0.73369700  0.32682800  0.55790400  1
  Nb  Nb7  1  0.09976200  0.70525800  0.64520500  1
  Nb  Nb8  1  0.49984300  0.29413500  0.75406100  1
  Nb  Nb9  1  0.26630300  0.67317200  0.44209600  1
  Si  Si0  1  0.07959700  0.80193600  0.09683000  1
  Si  Si1  1  0.15135700  0.00561500  0.16836400  1
  Si  Si2  1  0.10121600  0.22120700  0.69810900  1
  Si  Si3  1  0.84232200  0.35932100  0.83513600  1
  Si  Si4  1  0.92040300  0.19806400  0.90317000  1
  Si  Si5  1  0.90550700  0.20197200  0.99442300  1
  Si  Si6  1  0.48172000  0.19326700  0.38936400  1
  Si  Si7  1  0.08006900  0.20424200  0.78884900  1
  Si  Si8  1  0.32798900  0.62283200  0.96651300  1
  Si  Si9  1  0.24616000  0.99259500  0.43378200  1
  Si  Si10  1  0.67166500  0.79390600  0.49615800  1
  Si  Si11  1  0.89878400  0.77879300  0.30189100  1
  Si  Si12  1  0.50113200  0.78283600  0.70142700  1
  Si  Si13  1  0.31319700  0.22004200  0.59509800  1
  Si  Si14  1  0.52668500  0.60097600  0.76317000  1
  Si  Si15  1  0.91993100  0.79575800  0.21115100  1
  Si  Si16  1  0.47331500  0.39902400  0.23683000  1
  Si  Si17  1  0.93141400  0.98732800  0.36779700  1
  Si  Si18  1  0.06858600  0.01267200  0.63220300  1
  Si  Si19  1  0.47456100  0.01428100  0.23028100  1
  Si  Si20  1  0.27275700  0.77830200  0.89652100  1
  Si  Si21  1  0.75022700  0.64133200  0.56623200  1
  Si  Si22  1  0.49886800  0.21716400  0.29857300  1
  Si  Si23  1  0.91917400  0.60147000  0.36550700  1
  Si  Si24  1  0.15767800  0.64067900  0.16486400  1
  Si  Si25  1  0.84864300  0.99438500  0.83163600  1
  Si  Si26  1  0.24977300  0.35866800  0.43376800  1
  Si  Si27  1  0.08082600  0.39853000  0.63449300  1
  Si  Si28  1  0.67201100  0.37716800  0.03348700  1
  Si  Si29  1  0.75384000  0.00740500  0.56621800  1
  Si  Si30  1  0.32833500  0.20609400  0.50384200  1
  Si  Si31  1  0.52543900  0.98571900  0.76971900  1
  Si  Si32  1  0.29077100  0.77114200  0.80539800  1
  Si  Si33  1  0.51828000  0.80673300  0.61063600  1
  Si  Si34  1  0.70922900  0.22885800  0.19460200  1
  Si  Si35  1  0.65887900  0.00425800  0.03573700  1
  Si  Si36  1  0.68680300  0.77995800  0.40490200  1
  Si  Si37  1  0.09449300  0.79802800  0.00557700  1
  Si  Si38  1  0.72724300  0.22169800  0.10347900  1
  Si  Si39  1  0.34112100  0.99574200  0.96426300  1
  O  O0  1  0.05546800  0.32191600  0.40861200  1
  O  O1  1  0.23841800  0.84992500  0.44009200  1
  O  O2  1  0.40265100  0.18043200  0.34037000  1
  O  O3  1  0.06807800  0.36000100  0.32225200  1
  O  O4  1  0.66358500  0.09479000  0.21672400  1
  O  O5  1  0.29065500  0.76062900  0.69382100  1
  O  O6  1  0.51071300  0.62651400  0.07470600  1
  O  O7  1  0.26115600  0.09078000  0.61961600  1
  O  O8  1  0.40100600  0.67802800  0.78557300  1
  O  O9  1  0.76449200  0.81684900  0.45342700  1
  O  O10  1  0.11654600  0.62779000  0.38861500  1
  O  O11  1  0.12726200  0.26503700  0.90994100  1
  O  O12  1  0.32878500  0.66011400  0.91808800  1
  O  O13  1  0.36957000  0.79831100  0.85413400  1
  O  O14  1  0.70934500  0.23937100  0.30617900  1
  O  O15  1  0.28991200  0.24157300  0.79702000  1
  O  O16  1  0.76158200  0.15007500  0.55990800  1
  O  O17  1  0.88147600  0.05900200  0.87881700  1
  O  O18  1  0.28077500  0.37973900  0.21175500  1
  O  O19  1  0.20720400  0.32208100  0.61158200  1
  O  O20  1  0.22809400  0.29982700  0.47918200  1
  O  O21  1  0.81847600  0.45562200  0.36394400  1
  O  O22  1  0.69023900  0.76642500  0.29424100  1
  O  O23  1  0.94012400  0.65016000  0.31874300  1
  O  O24  1  0.55680700  0.65732800  0.71748700  1
  O  O25  1  0.32826100  0.64988700  0.27854000  1
  O  O26  1  0.99559000  0.93620300  0.19558200  1
  O  O27  1  0.40186600  0.10176100  0.26392900  1
  O  O28  1  0.08323200  0.71269900  0.79952200  1
  O  O29  1  0.74962800  0.52478100  0.03025000  1
  O  O30  1  0.33836400  0.50675300  0.43896600  1
  O  O31  1  0.46156700  0.73685900  0.48996100  1
  O  O32  1  0.33992400  0.13074600  0.94957600  1
  O  O33  1  0.62814700  0.09290900  0.07506100  1
  O  O34  1  0.99649800  0.10372600  0.66496600  1
  O  O35  1  0.63043000  0.20168900  0.14586600  1
  O  O36  1  0.89945300  0.37444400  0.52320600  1
  O  O37  1  0.37185300  0.90709100  0.92493900  1
  O  O38  1  0.79279600  0.67791900  0.38841800  1
  O  O39  1  0.82651000  0.16923200  0.94570500  1
  O  O40  1  0.33641500  0.90521000  0.78327600  1
  O  O41  1  0.81267200  0.30879800  0.01272200  1
  O  O42  1  0.58041700  0.54370900  0.24095100  1
  O  O43  1  0.41958300  0.45629100  0.75904900  1
  O  O44  1  0.67173900  0.35011300  0.72146000  1
  O  O45  1  0.30816900  0.76879000  0.60328800  1
  O  O46  1  0.93737700  0.98559500  0.58915400  1
  O  O47  1  0.17349000  0.83076800  0.05429500  1
  O  O48  1  0.05987600  0.34984000  0.68125700  1
  O  O49  1  0.71008800  0.75842700  0.20298000  1
  O  O50  1  0.65980500  0.01698700  0.81221900  1
  O  O51  1  0.92333600  0.11436200  0.34754500  1
  O  O52  1  0.07353200  0.49346700  0.15411700  1
  O  O53  1  0.51185300  0.11248600  0.75022000  1
  O  O54  1  0.67121500  0.33988600  0.08191200  1
  O  O55  1  0.40773200  0.05440300  0.40669400  1
  O  O56  1  0.34801300  0.67190700  0.19166700  1
  O  O57  1  0.25037200  0.47521900  0.96975000  1
  O  O58  1  0.69183100  0.23121000  0.39671200  1
  O  O59  1  0.00441000  0.06379700  0.80441800  1
  O  O60  1  0.59899400  0.32197200  0.21442700  1
  O  O61  1  0.30196400  0.35668500  0.12339700  1
  O  O62  1  0.81044600  0.28492300  0.87777700  1
  O  O63  1  0.66163600  0.49324700  0.56103400  1
  O  O64  1  0.88345400  0.37221000  0.61138500  1
  O  O65  1  0.94453200  0.67808400  0.59138800  1
  O  O66  1  0.27352900  0.06656800  0.47951600  1
  O  O67  1  0.71922500  0.62026100  0.78824500  1
  O  O68  1  0.77190600  0.70017300  0.52081800  1
  O  O69  1  0.88502100  0.75170800  0.99964900  1
  O  O70  1  0.18732800  0.69120200  0.98727800  1
  O  O71  1  0.87273800  0.73496300  0.09005900  1
  O  O72  1  0.07666400  0.88563800  0.65245500  1
  O  O73  1  0.00737200  0.69320800  0.18784700  1
  O  O74  1  0.66007600  0.86925400  0.05042400  1
  O  O75  1  0.44319300  0.34267200  0.28251300  1
  O  O76  1  0.00284800  0.19610300  0.74011300  1
  O  O77  1  0.92646800  0.50653300  0.84588300  1
  O  O78  1  0.59734900  0.81956800  0.65963000  1
  O  O79  1  0.99715200  0.80389700  0.25988700  1
  O  O80  1  0.34019500  0.98301300  0.18778100  1
  O  O81  1  0.91676800  0.28730100  0.20047800  1
  O  O82  1  0.11852400  0.94099800  0.12118300  1
  O  O83  1  0.52182200  0.27384500  0.60071300  1
  O  O84  1  0.72647100  0.93343200  0.52048400  1
  O  O85  1  0.52805900  0.67214500  0.98792600  1
  O  O86  1  0.48928700  0.37348600  0.92529400  1
  O  O87  1  0.84741000  0.85101000  0.83221600  1
  O  O88  1  0.18955400  0.71507700  0.12222300  1
  O  O89  1  0.59813400  0.89823900  0.73607100  1
  O  O90  1  0.00350200  0.89627400  0.33503400  1
  O  O91  1  0.60546000  0.70339600  0.58795800  1
  O  O92  1  0.15259000  0.14899000  0.16778400  1
  O  O93  1  0.47194100  0.32785500  0.01207400  1
  O  O94  1  0.06114400  0.75250300  0.88904500  1
  O  O95  1  0.23550800  0.18315100  0.54657300  1
  O  O96  1  0.06262300  0.01440500  0.41084600  1
  O  O97  1  0.48814700  0.88751400  0.24978000  1
  O  O98  1  0.69803600  0.64331500  0.87660300  1
  O  O99  1  0.30976100  0.23357500  0.70575900  1
  O  O100  1  0.39454000  0.29660400  0.41204200  1
  O  O101  1  0.59226800  0.94559700  0.59330600  1
  O  O102  1  0.84467000  0.07229700  0.01790600  1
  O  O103  1  0.10054700  0.62555600  0.47679400  1
  O  O104  1  0.15533000  0.92770300  0.98209400  1
  O  O105  1  0.73884400  0.90922000  0.38038400  1
  O  O106  1  0.50000000  0.00000000  0.00000000  1
  O  O107  1  0.65198700  0.32809300  0.80833300  1
  O  O108  1  0.53843300  0.26314100  0.51003900  1
  O  O109  1  0.99262800  0.30679200  0.81215300  1
  O  O110  1  0.93192200  0.63999900  0.67774800  1
  O  O111  1  0.11497900  0.24829200  0.00035100  1
  O  O112  1  0.18152400  0.54437800  0.63605600  1
  O  O113  1  0.47817800  0.72615500  0.39928700  1
  O  O114  1  0.93885600  0.24749700  0.11095500  1
loop_
_geom_bond_atom_site_label_1
_geom_bond_atom_site_label_2
_geom_bond_distance
_geom_bond_site_symmetry_2
K0 O81 2.850886 1_455
K0 O3 2.934261 1_555
K0 O51 2.954419 1_455
K0 O4 3.015222 1_455
K0 O26 3.069068 1_445
K0 O27 3.105756 1_555
K1 O83 2.840096 1_555
K1 O44 2.872289 1_555
K1 O53 2.982932 1_555
K1 O7 2.986966 1_555
K1 O101 3.027477 1_545
K1 O34 3.062129 1_555
K2 O6 2.772074 1_555
K2 O61 2.833816 1_555
K2 O57 2.980475 1_554
K2 O111 2.981123 1_555
K2 O41 3.183291 1_455
K2 O88 3.284051 1_555
K3 O111 2.748873 1_555
K3 O61 2.881173 1_555
K3 O82 2.973656 1_545
K3 O93 3.127851 1_555
K3 O33 3.176582 1_555
K3 O102 3.290494 1_455
K3 O114 3.317531 1_455
K3 O47 3.354538 1_545
K4 O103 2.788964 1_555
K4 O36 2.843260 1_455
K4 O112 3.089049 1_555
K4 O45 3.132559 1_555
K4 O20 3.192213 1_555
K4 O91 3.209733 1_555
K4 O19 3.231723 1_555
K4 O31 3.247824 1_555
K4 O63 3.386494 1_555
K5 O58 2.789176 1_555
K5 O36 2.981471 1_555
K5 O84 3.046660 1_545
K5 O20 3.079108 1_655
K5 O0 3.082854 1_655
K5 O96 3.141092 1_655
K5 O16 3.185668 1_555
K5 O108 3.355569 1_555
K6 O81 2.743477 1_455
K6 O25 2.756525 1_555
K6 O23 2.792196 1_455
K6 O3 2.794617 1_555
K6 O18 3.166238 1_555
K6 O73 3.203019 1_555
K7 O6 2.821794 1_555
K7 O61 2.876265 1_555
K7 O54 2.921270 1_555
K7 O49 3.023631 1_555
K7 O73 3.200329 1_655
K7 O42 3.216537 1_555
K7 O60 3.279948 1_555
K7 O71 3.303471 1_555
K8 O28 2.743477 1_655
K8 O44 2.756525 1_555
K8 O48 2.792196 1_655
K8 O110 2.794617 1_555
K8 O67 3.166238 1_555
K8 O109 3.203019 1_555
K9 O3 2.765874 1_555
K9 O113 2.780170 1_555
K9 O25 2.825496 1_555
K9 O75 2.833315 1_555
K10 O86 2.772074 1_555
K10 O98 2.833816 1_555
K10 O29 2.980475 1_556
K10 O69 2.981123 1_555
K10 O70 3.183291 1_655
K10 O62 3.284051 1_555
K11 O113 2.840096 1_555
K11 O25 2.872289 1_555
K11 O97 2.982932 1_555
K11 O105 2.986966 1_555
K11 O55 3.027477 1_565
K11 O90 3.062129 1_555
K12 O69 2.748873 1_555
K12 O98 2.881173 1_555
K12 O17 2.973656 1_565
K12 O85 3.127851 1_555
K12 O37 3.176582 1_555
K12 O104 3.290494 1_655
K12 O94 3.317531 1_655
K12 O39 3.354538 1_565
K13 O45 2.789176 1_555
K13 O103 2.981471 1_555
K13 O66 3.046660 1_565
K13 O68 3.079108 1_455
K13 O65 3.082854 1_455
K13 O46 3.141092 1_455
K13 O1 3.185668 1_555
K13 O31 3.355569 1_555
K14 O36 2.788964 1_555
K14 O103 2.843260 1_655
K14 O21 3.089049 1_555
K14 O58 3.132559 1_555
K14 O68 3.192213 1_555
K14 O100 3.209733 1_555
K14 O38 3.231723 1_555
K14 O108 3.247824 1_555
K14 O30 3.386494 1_555
K15 O15 2.806593 1_555
K15 O32 2.912921 1_555
K15 O62 2.980159 1_555
K15 O86 3.047710 1_555
K15 O50 3.104509 1_555
K15 O107 3.142123 1_555
K15 O37 3.325243 1_545
K15 O11 3.403918 1_555
K16 O110 2.765874 1_555
K16 O83 2.780170 1_555
K16 O44 2.825496 1_555
K16 O24 2.833315 1_555
K17 O28 2.850886 1_655
K17 O110 2.934261 1_555
K17 O72 2.954419 1_655
K17 O40 3.015222 1_655
K17 O59 3.069068 1_665
K17 O89 3.105756 1_555
K18 O49 2.806593 1_555
K18 O74 2.912921 1_555
K18 O88 2.980159 1_555
K18 O6 3.047710 1_555
K18 O80 3.104509 1_555
K18 O56 3.142123 1_555
K18 O33 3.325243 1_565
K18 O71 3.403918 1_555
K19 O86 2.821794 1_555
K19 O98 2.876265 1_555
K19 O12 2.921270 1_555
K19 O15 3.023631 1_555
K19 O109 3.200329 1_455
K19 O43 3.216537 1_555
K19 O8 3.279948 1_555
K19 O11 3.303471 1_555
Nb0 O25 1.805640 1_555
Nb0 O56 2.023746 1_555
Nb0 O97 2.036767 1_555
Nb0 O42 2.044084 1_555
Nb0 O22 2.050657 1_555
Nb0 O49 2.248136 1_555
Nb1 O3 1.805687 1_655
Nb1 O0 2.024685 1_655
Nb1 O21 2.049670 1_555
Nb1 O51 2.054258 1_555
Nb1 O14 2.055768 1_555
Nb1 O58 2.233663 1_555
Nb2 O98 1.803325 1_555
Nb2 O67 2.007681 1_555
Nb2 O87 2.017546 1_555
Nb2 O77 2.052970 1_555
Nb2 O94 2.070073 1_655
Nb2 O28 2.257584 1_655
Nb3 O61 1.803325 1_555
Nb3 O18 2.007681 1_555
Nb3 O92 2.017546 1_555
Nb3 O52 2.052970 1_555
Nb3 O114 2.070073 1_455
Nb3 O81 2.257584 1_455
Nb4 O6 1.805725 1_555
Nb4 O85 2.010897 1_554
Nb4 O74 2.048758 1_555
Nb4 O29 2.049404 1_555
Nb4 O71 2.061870 1_555
Nb4 O69 2.226591 1_554
Nb5 O86 1.805725 1_555
Nb5 O93 2.010897 1_556
Nb5 O32 2.048758 1_555
Nb5 O57 2.049404 1_555
Nb5 O11 2.061870 1_555
Nb5 O111 2.226591 1_556
Nb6 O36 1.802360 1_555
Nb6 O64 1.998155 1_555
Nb6 O16 2.026923 1_555
Nb6 O63 2.054016 1_555
Nb6 O108 2.069079 1_555
Nb6 O83 2.256321 1_555
Nb7 O110 1.805687 1_455
Nb7 O65 2.024685 1_455
Nb7 O112 2.049670 1_555
Nb7 O72 2.054258 1_555
Nb7 O5 2.055768 1_555
Nb7 O45 2.233663 1_555
Nb8 O44 1.805640 1_555
Nb8 O107 2.023746 1_555
Nb8 O53 2.036767 1_555
Nb8 O43 2.044084 1_555
Nb8 O99 2.050657 1_555
Nb8 O15 2.248136 1_555
Nb9 O103 1.802360 1_555
Nb9 O10 1.998155 1_555
Nb9 O1 2.026923 1_555
Nb9 O30 2.054016 1_555
Nb9 O31 2.069079 1_555
Nb9 O113 2.256321 1_555
O0 Si26 1.622601 1_555
O1 Si9 1.594091 1_555
O2 Si22 1.642514 1_555
O2 Si6 1.659038 1_555
O4 Si19 1.649479 1_555
O4 Si34 1.664199 1_555
O5 Si12 1.607275 1_555
O7 Si18 1.651427 1_555
O7 Si13 1.663304 1_555
O8 Si32 1.637525 1_555
O8 Si14 1.641408 1_555
O9 Si10 1.635912 1_555
O9 Si36 1.649674 1_555
O10 Si23 1.620366 1_455
O11 Si4 1.609177 1_455
O12 Si20 1.651688 1_555
O12 Si8 1.661038 1_555
O13 Si20 1.638454 1_555
O13 Si32 1.649854 1_555
O14 Si22 1.607275 1_555
O15 Si7 1.596095 1_555
O16 Si29 1.594091 1_555
O17 Si25 1.643768 1_545
O17 Si4 1.648506 1_555
O18 Si16 1.620517 1_555
O19 Si13 1.648954 1_555
O19 Si27 1.649226 1_555
O20 Si30 1.649344 1_555
O20 Si26 1.661804 1_555
O21 Si23 1.620211 1_555
O22 Si11 1.606680 1_555
O23 Si11 1.648156 1_555
O23 Si23 1.659625 1_555
O24 Si12 1.652474 1_555
O24 Si14 1.665921 1_555
O26 Si1 1.640583 1_665
O26 Si15 1.654177 1_555
O27 Si19 1.654301 1_555
O27 Si22 1.658752 1_555
O28 Si32 1.595552 1_555
O29 Si28 1.618925 1_555
O30 Si26 1.619281 1_555
O31 Si10 1.611801 1_555
O32 Si39 1.598408 1_545
O33 Si35 1.648342 1_555
O33 Si38 1.651912 1_555
O34 Si18 1.658294 1_655
O34 Si2 1.658697 1_655
O35 Si38 1.638454 1_555
O35 Si34 1.649854 1_555
O37 Si39 1.648342 1_555
O37 Si20 1.651912 1_555
O38 Si36 1.648954 1_555
O38 Si23 1.649226 1_555
O39 Si4 1.641591 1_555
O39 Si5 1.653535 1_555
O40 Si31 1.649479 1_555
O40 Si32 1.664199 1_555
O41 Si5 1.643009 1_554
O41 Si28 1.649857 1_555
O42 Si16 1.619165 1_555
O43 Si14 1.619165 1_555
O45 Si33 1.596561 1_555
O46 Si29 1.643371 1_565
O46 Si18 1.645904 1_665
O47 Si0 1.641591 1_555
O47 Si37 1.653535 1_555
O48 Si2 1.648156 1_555
O48 Si27 1.659625 1_555
O49 Si15 1.596095 1_555
O50 Si25 1.642621 1_545
O50 Si31 1.644614 1_545
O51 Si17 1.600774 1_545
O52 Si24 1.618121 1_555
O53 Si31 1.596791 1_545
O54 Si38 1.651688 1_555
O54 Si28 1.661038 1_555
O55 Si9 1.645050 1_545
O55 Si6 1.660144 1_555
O56 Si24 1.621079 1_555
O57 Si8 1.618925 1_555
O58 Si6 1.596561 1_555
O59 Si25 1.640583 1_445
O59 Si7 1.654177 1_555
O60 Si34 1.637525 1_555
O60 Si16 1.641408 1_555
O62 Si4 1.649673 1_555
O62 Si3 1.666712 1_555
O63 Si21 1.619281 1_555
O64 Si27 1.620366 1_655
O65 Si21 1.622601 1_555
O66 Si9 1.643407 1_545
O66 Si30 1.647797 1_555
O67 Si14 1.620517 1_555
O68 Si10 1.649344 1_555
O68 Si21 1.661804 1_555
O69 Si37 1.594090 1_656
O70 Si37 1.643009 1_556
O70 Si8 1.649857 1_555
O71 Si0 1.609177 1_655
O72 Si18 1.600774 1_565
O73 Si15 1.646855 1_455
O73 Si24 1.650362 1_555
O74 Si35 1.598408 1_565
O75 Si22 1.652474 1_555
O75 Si16 1.665921 1_555
O76 Si2 1.638282 1_555
O76 Si7 1.650707 1_555
O77 Si3 1.618121 1_555
O78 Si12 1.642514 1_555
O78 Si33 1.659038 1_555
O79 Si11 1.638282 1_555
O79 Si15 1.650707 1_555
O80 Si1 1.642621 1_565
O80 Si19 1.644614 1_565
O81 Si34 1.595552 1_555
O82 Si1 1.643768 1_565
O82 Si0 1.648506 1_555
O83 Si13 1.595959 1_555
O84 Si29 1.643407 1_565
O84 Si10 1.647797 1_555
O85 Si8 1.620961 1_555
O87 Si25 1.588994 1_555
O88 Si0 1.649673 1_555
O88 Si24 1.666712 1_555
O89 Si31 1.654301 1_555
O89 Si12 1.658752 1_555
O90 Si17 1.658294 1_455
O90 Si11 1.658697 1_455
O91 Si33 1.642930 1_555
O91 Si21 1.650221 1_555
O92 Si1 1.588994 1_555
O93 Si28 1.620961 1_555
O94 Si20 1.612332 1_555
O95 Si30 1.635912 1_555
O95 Si13 1.649674 1_555
O96 Si9 1.643371 1_545
O96 Si17 1.645904 1_445
O97 Si19 1.596791 1_565
O99 Si2 1.606680 1_555
O100 Si6 1.642930 1_555
O100 Si26 1.650221 1_555
O101 Si29 1.645050 1_565
O101 Si33 1.660144 1_555
O102 Si35 1.644674 1_555
O102 Si5 1.655779 1_554
O104 Si39 1.644674 1_555
O104 Si37 1.655779 1_556
O105 Si17 1.651427 1_555
O105 Si36 1.663304 1_555
O106 Si35 1.628403 1_555
O106 Si39 1.628403 1_544
O107 Si3 1.621079 1_555
O108 Si30 1.611801 1_555
O109 Si7 1.646855 1_655
O109 Si3 1.650362 1_555
O111 Si5 1.594090 1_454
O112 Si27 1.620211 1_555
O113 Si36 1.595959 1_555
O114 Si38 1.612332 1_555
