# generated using pymatgen
data_Rb4N4O3
_symmetry_space_group_name_H-M   'P 1'
_cell_length_a   4.12071400
_cell_length_b   4.26512395
_cell_length_c   16.39536504
_cell_angle_alpha   95.96841417
_cell_angle_beta   89.80227678
_cell_angle_gamma   105.04723061
_symmetry_Int_Tables_number   1
_chemical_formula_structural   Rb4N4O3
_chemical_formula_sum   'Rb4 N4 O3'
_cell_volume   276.68259656
_cell_formula_units_Z   1
loop_
 _symmetry_equiv_pos_site_id
 _symmetry_equiv_pos_as_xyz
  1  'x, y, z'
loop_
 _atom_site_type_symbol
 _atom_site_label
 _atom_site_symmetry_multiplicity
 _atom_site_fract_x
 _atom_site_fract_y
 _atom_site_fract_z
 _atom_site_occupancy
  Rb  Rb0  1  0.51872800  0.50536200  0.88837700  1
  Rb  Rb1  1  0.51962900  0.55947900  0.63164500  1
  Rb  Rb2  1  0.50902000  0.51210100  0.10643200  1
  Rb  Rb3  1  0.54385200  0.61784600  0.37587300  1
  N  N0  1  0.89339000  0.13971700  0.72588100  1
  N  N1  1  0.88298200  0.14013900  0.26696400  1
  N  N2  1  0.09013800  0.93526100  0.99707100  1
  N  N3  1  0.04271800  0.14645300  0.47312000  1
  O  O0  1  0.00829800  0.43590700  0.75542800  1
  O  O1  1  0.97958000  0.40696300  0.50476400  1
  O  O2  1  0.01166700  0.40877400  0.23944500  1
loop_
_geom_bond_atom_site_label_1
_geom_bond_atom_site_label_2
_geom_bond_distance
_geom_bond_site_symmetry_2
N0 O0 1.272204 1_655
N0 Rb1 2.850610 1_545
N0 Rb1 3.160369 1_555
N0 Rb1 3.224986 1_655
N1 O2 1.260124 1_655
N1 Rb3 3.049141 1_545
N1 Rb3 3.161832 1_555
N1 Rb2 3.591066 1_545
N2 Rb2 3.024286 1_566
N2 Rb0 3.031459 1_455
N2 Rb2 3.256656 1_456
N2 Rb0 3.261449 1_555
N2 Rb0 3.294996 1_565
N2 Rb2 3.429811 1_556
N3 O1 1.265190 1_455
N3 Rb3 2.952905 1_445
N3 Rb3 3.055638 1_555
N3 Rb1 3.317540 1_555
O0 Rb1 2.907316 1_555
O0 Rb0 2.972695 1_555
O0 Rb0 3.009075 1_455
O0 Rb1 3.041887 1_455
O1 Rb1 2.945239 1_555
O1 Rb1 2.949894 1_655
O1 Rb3 3.123864 1_555
O1 Rb3 3.155423 1_655
O2 Rb2 2.974960 1_555
O2 Rb3 3.035003 1_555
O2 Rb2 3.153606 1_455
O2 Rb3 3.156347 1_455
