# generated using pymatgen
data_CaMg2H24(ClO2)6
_symmetry_space_group_name_H-M   'P 1'
_cell_length_a   8.37462772
_cell_length_b   8.37462772
_cell_length_c   8.37462819
_cell_angle_alpha   75.49030180
_cell_angle_beta   75.49030180
_cell_angle_gamma   75.49029543
_symmetry_Int_Tables_number   1
_chemical_formula_structural   CaMg2H24(ClO2)6
_chemical_formula_sum   'Ca1 Mg2 H24 Cl6 O12'
_cell_volume   539.31909651
_cell_formula_units_Z   1
loop_
 _symmetry_equiv_pos_site_id
 _symmetry_equiv_pos_as_xyz
  1  'x, y, z'
loop_
 _atom_site_type_symbol
 _atom_site_label
 _atom_site_symmetry_multiplicity
 _atom_site_fract_x
 _atom_site_fract_y
 _atom_site_fract_z
 _atom_site_occupancy
  Ca  Ca0  1  0.00000000  0.00000000  0.00000000  1
  Mg  Mg0  1  0.67733500  0.67733500  0.67733500  1
  Mg  Mg1  1  0.32266500  0.32266500  0.32266500  1
  H  H0  1  0.83623900  0.94113900  0.61074400  1
  H  H1  1  0.61074400  0.83623900  0.94113900  1
  H  H2  1  0.94113900  0.61074400  0.83623900  1
  H  H3  1  0.16376100  0.05886100  0.38925600  1
  H  H4  1  0.38925600  0.16376100  0.05886100  1
  H  H5  1  0.05886100  0.38925600  0.16376100  1
  H  H6  1  0.92117800  0.83829800  0.46543600  1
  H  H7  1  0.46543600  0.92117800  0.83829800  1
  H  H8  1  0.83829800  0.46543600  0.92117800  1
  H  H9  1  0.07882200  0.16170200  0.53456400  1
  H  H10  1  0.53456400  0.07882200  0.16170200  1
  H  H11  1  0.16170200  0.53456400  0.07882200  1
  H  H12  1  0.59390200  0.36279800  0.79080200  1
  H  H13  1  0.79080200  0.59390200  0.36279800  1
  H  H14  1  0.36279800  0.79080200  0.59390200  1
  H  H15  1  0.40609800  0.63720200  0.20919800  1
  H  H16  1  0.20919800  0.40609800  0.63720200  1
  H  H17  1  0.63720200  0.20919800  0.40609800  1
  H  H18  1  0.42509000  0.50156700  0.81868800  1
  H  H19  1  0.81868800  0.42509000  0.50156700  1
  H  H20  1  0.50156700  0.81868800  0.42509000  1
  H  H21  1  0.57491000  0.49843300  0.18131200  1
  H  H22  1  0.18131200  0.57491000  0.49843300  1
  H  H23  1  0.49843300  0.18131200  0.57491000  1
  Cl  Cl0  1  0.83689900  0.15504700  0.72435800  1
  Cl  Cl1  1  0.72435800  0.83689900  0.15504700  1
  Cl  Cl2  1  0.15504700  0.72435800  0.83689900  1
  Cl  Cl3  1  0.16310100  0.84495300  0.27564200  1
  Cl  Cl4  1  0.27564200  0.16310100  0.84495300  1
  Cl  Cl5  1  0.84495300  0.27564200  0.16310100  1
  O  O0  1  0.81957200  0.85830800  0.55389300  1
  O  O1  1  0.55389300  0.81957200  0.85830800  1
  O  O2  1  0.85830800  0.55389300  0.81957200  1
  O  O3  1  0.18042800  0.14169200  0.44610700  1
  O  O4  1  0.44610700  0.18042800  0.14169200  1
  O  O5  1  0.14169200  0.44610700  0.18042800  1
  O  O6  1  0.54802300  0.48164600  0.79586100  1
  O  O7  1  0.79586100  0.54802300  0.48164600  1
  O  O8  1  0.48164600  0.79586100  0.54802300  1
  O  O9  1  0.45197700  0.51835400  0.20413900  1
  O  O10  1  0.20413900  0.45197700  0.51835400  1
  O  O11  1  0.51835400  0.20413900  0.45197700  1
loop_
_geom_bond_atom_site_label_1
_geom_bond_atom_site_label_2
_geom_bond_distance
_geom_bond_site_symmetry_2
Ca0 Cl5 2.840725 1_455
Ca0 Cl2 2.840725 1_544
Ca0 Cl3 2.840725 1_545
Ca0 Cl0 2.840725 1_454
Ca0 Cl4 2.840725 1_554
Ca0 Cl1 2.840725 1_445
Mg0 O2 2.070529 1_555
Mg0 O1 2.070529 1_555
Mg0 O0 2.070529 1_555
Mg0 O8 2.092681 1_555
Mg0 O7 2.092681 1_555
Mg0 O6 2.092681 1_555
Mg1 O5 2.070529 1_555
Mg1 O4 2.070529 1_555
Mg1 O3 2.070529 1_555
Mg1 O11 2.092681 1_555
Mg1 O10 2.092681 1_555
Mg1 O9 2.092681 1_555
H0 O0 0.987248 1_555
H1 O1 0.987248 1_555
H2 O2 0.987248 1_555
H3 O3 0.987248 1_555
H4 O4 0.987248 1_555
H5 O5 0.987248 1_555
H6 O0 0.987827 1_555
H7 O1 0.987827 1_555
H8 O2 0.987827 1_555
H9 O3 0.987827 1_555
H10 O4 0.987827 1_555
H11 O5 0.987827 1_555
H12 O6 0.980513 1_555
H13 O7 0.980513 1_555
H14 O8 0.980513 1_555
H15 O9 0.980513 1_555
H16 O10 0.980513 1_555
H17 O11 0.980513 1_555
H18 O6 0.977539 1_555
H19 O7 0.977539 1_555
H20 O8 0.977539 1_555
H21 O9 0.977539 1_555
H22 O10 0.977539 1_555
H23 O11 0.977539 1_555
