# generated using pymatgen
data_SiO2
_symmetry_space_group_name_H-M   'P 1'
_cell_length_a   9.79074992
_cell_length_b   9.79074992
_cell_length_c   10.11435594
_cell_angle_alpha   90.00000000
_cell_angle_beta   90.00000000
_cell_angle_gamma   90.00000000
_symmetry_Int_Tables_number   1
_chemical_formula_structural   SiO2
_chemical_formula_sum   'Si16 O32'
_cell_volume   969.54986131
_cell_formula_units_Z   16
loop_
 _symmetry_equiv_pos_site_id
 _symmetry_equiv_pos_as_xyz
  1  'x, y, z'
loop_
 _atom_site_type_symbol
 _atom_site_label
 _atom_site_symmetry_multiplicity
 _atom_site_fract_x
 _atom_site_fract_y
 _atom_site_fract_z
 _atom_site_occupancy
  Si  Si0  1  0.15892512  0.59107488  0.12500000  1
  Si  Si1  1  0.65892512  0.90892512  0.37500000  1
  Si  Si2  1  0.84107488  0.09107488  0.87500000  1
  Si  Si3  1  0.15892512  0.40892512  0.87500000  1
  Si  Si4  1  0.84107488  0.90892512  0.12500000  1
  Si  Si5  1  0.65892512  0.09107488  0.62500000  1
  Si  Si6  1  0.84107488  0.40892512  0.87500000  1
  Si  Si7  1  0.34107488  0.09107488  0.62500000  1
  Si  Si8  1  0.15892512  0.90892512  0.12500000  1
  Si  Si9  1  0.84107488  0.59107488  0.12500000  1
  Si  Si10  1  0.15892512  0.09107488  0.87500000  1
  Si  Si11  1  0.34107488  0.90892512  0.37500000  1
  Si  Si12  1  0.34107488  0.59107488  0.37500000  1
  Si  Si13  1  0.34107488  0.40892512  0.62500000  1
  Si  Si14  1  0.65892512  0.40892512  0.62500000  1
  Si  Si15  1  0.65892512  0.59107488  0.37500000  1
  O  O0  1  -0.00000000  0.56593559  0.15994069  1
  O  O1  1  0.68406441  0.75000000  0.40994069  1
  O  O2  1  0.81593559  0.25000000  0.90994069  1
  O  O3  1  -0.00000000  0.43406441  0.84005931  1
  O  O4  1  -0.00000000  0.06593559  0.84005931  1
  O  O5  1  -0.00000000  0.93406441  0.15994069  1
  O  O6  1  0.81593559  0.75000000  0.09005931  1
  O  O7  1  0.68406441  0.25000000  0.59005931  1
  O  O8  1  0.31593559  0.25000000  0.59005931  1
  O  O9  1  0.18406441  0.75000000  0.09005931  1
  O  O10  1  0.18406441  0.25000000  0.90994069  1
  O  O11  1  0.31593559  0.75000000  0.40994069  1
  O  O12  1  0.50000000  0.06593559  0.65994069  1
  O  O13  1  0.50000000  0.93406441  0.34005931  1
  O  O14  1  0.50000000  0.56593559  0.34005931  1
  O  O15  1  0.50000000  0.43406441  0.65994069  1
  O  O16  1  0.25000000  0.54694616  0.25000000  1
  O  O17  1  0.70305384  -0.00000000  0.50000000  1
  O  O18  1  0.79694616  -0.00000000  0.00000000  1
  O  O19  1  0.25000000  0.45305384  0.75000000  1
  O  O20  1  0.75000000  0.04694616  0.75000000  1
  O  O21  1  0.75000000  0.95305384  0.25000000  1
  O  O22  1  0.75000000  0.45305384  0.75000000  1
  O  O23  1  0.29694616  -0.00000000  0.50000000  1
  O  O24  1  0.20305384  -0.00000000  0.00000000  1
  O  O25  1  0.75000000  0.54694616  0.25000000  1
  O  O26  1  0.25000000  0.95305384  0.25000000  1
  O  O27  1  0.25000000  0.04694616  0.75000000  1
  O  O28  1  0.20305384  0.50000000  0.00000000  1
  O  O29  1  0.29694616  0.50000000  0.50000000  1
  O  O30  1  0.79694616  0.50000000  0.00000000  1
  O  O31  1  0.70305384  0.50000000  0.50000000  1
loop_
_geom_bond_atom_site_label_1
_geom_bond_atom_site_label_2
_geom_bond_distance
_geom_bond_site_symmetry_2
O0 Si0 1.614496 1_555
O0 Si9 1.614496 1_455
O1 Si15 1.614496 1_555
O1 Si1 1.614496 1_555
O2 Si6 1.614496 1_555
O2 Si2 1.614496 1_555
O3 Si3 1.614496 1_555
O3 Si6 1.614496 1_455
O4 Si10 1.614496 1_555
O4 Si2 1.614496 1_455
O5 Si8 1.614496 1_555
O5 Si4 1.614496 1_455
O6 Si9 1.614496 1_555
O6 Si4 1.614496 1_555
O7 Si14 1.614496 1_555
O7 Si5 1.614496 1_555
O8 Si13 1.614496 1_555
O8 Si7 1.614496 1_555
O9 Si8 1.614496 1_555
O9 Si0 1.614496 1_555
O10 Si3 1.614496 1_555
O10 Si10 1.614496 1_555
O11 Si11 1.614496 1_555
O11 Si12 1.614496 1_555
O12 Si7 1.614496 1_555
O12 Si5 1.614496 1_555
O13 Si11 1.614496 1_555
O13 Si1 1.614496 1_555
O14 Si12 1.614496 1_555
O14 Si15 1.614496 1_555
O15 Si13 1.614496 1_555
O15 Si14 1.614496 1_555
O16 Si12 1.606308 1_555
O16 Si0 1.606308 1_555
O17 Si1 1.606308 1_545
O17 Si5 1.606308 1_555
O18 Si4 1.606308 1_545
O18 Si2 1.606308 1_554
O19 Si3 1.606308 1_555
O19 Si13 1.606308 1_555
O20 Si5 1.606308 1_555
O20 Si2 1.606308 1_555
O21 Si4 1.606308 1_555
O21 Si1 1.606308 1_555
O22 Si14 1.606308 1_555
O22 Si6 1.606308 1_555
O23 Si11 1.606308 1_545
O23 Si7 1.606308 1_555
O24 Si8 1.606308 1_545
O24 Si10 1.606308 1_554
O25 Si15 1.606308 1_555
O25 Si9 1.606308 1_555
O26 Si11 1.606308 1_555
O26 Si8 1.606308 1_555
O27 Si10 1.606308 1_555
O27 Si7 1.606308 1_555
O28 Si0 1.606308 1_555
O28 Si3 1.606308 1_554
O29 Si12 1.606308 1_555
O29 Si13 1.606308 1_555
O30 Si9 1.606308 1_555
O30 Si6 1.606308 1_554
O31 Si15 1.606308 1_555
O31 Si14 1.606308 1_555
