# generated using pymatgen
data_La5Ti6S3(ClO5)3
_symmetry_space_group_name_H-M   'P 1'
_cell_length_a   10.83126750
_cell_length_b   10.83126750
_cell_length_c   12.47372522
_cell_angle_alpha   54.91839360
_cell_angle_beta   54.91839360
_cell_angle_gamma   70.42618625
_symmetry_Int_Tables_number   1
_chemical_formula_structural   La5Ti6S3(ClO5)3
_chemical_formula_sum   'La10 Ti12 S6 Cl6 O30'
_cell_volume   979.95369119
_cell_formula_units_Z   2
loop_
 _symmetry_equiv_pos_site_id
 _symmetry_equiv_pos_as_xyz
  1  'x, y, z'
loop_
 _atom_site_type_symbol
 _atom_site_label
 _atom_site_symmetry_multiplicity
 _atom_site_fract_x
 _atom_site_fract_y
 _atom_site_fract_z
 _atom_site_occupancy
  La  La0  1  0.65890300  0.34109700  0.00000000  1
  La  La1  1  0.50000000  0.00000000  0.50000000  1
  La  La2  1  0.00000000  0.50000000  0.50000000  1
  La  La3  1  0.50000000  0.00000000  0.00000000  1
  La  La4  1  0.00591200  0.00591200  0.32550500  1
  La  La5  1  0.34821500  0.34821500  0.65679500  1
  La  La6  1  0.65178500  0.65178500  0.34320500  1
  La  La7  1  0.99408800  0.99408800  0.67449500  1
  La  La8  1  0.00000000  0.50000000  0.00000000  1
  La  La9  1  0.34109700  0.65890300  0.00000000  1
  Ti  Ti0  1  0.69554900  0.69554900  0.67292500  1
  Ti  Ti1  1  0.64526700  0.35394400  0.30019500  1
  Ti  Ti2  1  0.70085700  0.70085700  0.95109200  1
  Ti  Ti3  1  0.35394400  0.64526700  0.30019500  1
  Ti  Ti4  1  0.66793500  0.06155200  0.63363100  1
  Ti  Ti5  1  0.06155200  0.66793500  0.63363100  1
  Ti  Ti6  1  0.93844800  0.33206500  0.36636900  1
  Ti  Ti7  1  0.33206500  0.93844800  0.36636900  1
  Ti  Ti8  1  0.64605600  0.35473300  0.69980500  1
  Ti  Ti9  1  0.29914300  0.29914300  0.04890800  1
  Ti  Ti10  1  0.35473300  0.64605600  0.69980500  1
  Ti  Ti11  1  0.30445100  0.30445100  0.32707500  1
  S  S0  1  0.81372100  0.18384200  0.20600800  1
  S  S1  1  0.18384200  0.81372100  0.20600800  1
  S  S2  1  0.79390900  0.79390900  0.02187400  1
  S  S3  1  0.20609100  0.20609100  0.97812600  1
  S  S4  1  0.81615800  0.18627900  0.79399200  1
  S  S5  1  0.18627900  0.81615800  0.79399200  1
  Cl  Cl0  1  0.97634800  0.38503800  0.81843700  1
  Cl  Cl1  1  0.20457100  0.20457100  0.61748500  1
  Cl  Cl2  1  0.38503800  0.97634800  0.81843700  1
  Cl  Cl3  1  0.61496200  0.02365200  0.18156300  1
  Cl  Cl4  1  0.79542900  0.79542900  0.38251500  1
  Cl  Cl5  1  0.02365200  0.61496200  0.18156300  1
  O  O0  1  0.49821400  0.27625100  0.29868400  1
  O  O1  1  0.92494700  0.70326700  0.57248300  1
  O  O2  1  0.62728100  0.62728100  0.87336400  1
  O  O3  1  0.72125000  0.49582400  0.07483200  1
  O  O4  1  0.27625100  0.49821400  0.29868400  1
  O  O5  1  0.70326700  0.92494700  0.57248300  1
  O  O6  1  0.92576500  0.70083100  0.79553300  1
  O  O7  1  0.50029600  0.50029600  0.36938900  1
  O  O8  1  0.49582400  0.72125000  0.07483200  1
  O  O9  1  0.20104400  0.56710000  0.50726100  1
  O  O10  1  0.70083100  0.92576500  0.79553300  1
  O  O11  1  0.56710000  0.20104400  0.50726100  1
  O  O12  1  0.87110600  0.12889400  0.50000000  1
  O  O13  1  0.20293500  0.56956600  0.72144700  1
  O  O14  1  0.43043400  0.79706500  0.27855300  1
  O  O15  1  0.56956600  0.20293500  0.72144700  1
  O  O16  1  0.79706500  0.43043400  0.27855300  1
  O  O17  1  0.12889400  0.87110600  0.50000000  1
  O  O18  1  0.43290000  0.79895600  0.49273900  1
  O  O19  1  0.29916900  0.07423500  0.20446700  1
  O  O20  1  0.79895600  0.43290000  0.49273900  1
  O  O21  1  0.50417600  0.27875000  0.92516800  1
  O  O22  1  0.49970400  0.49970400  0.63061100  1
  O  O23  1  0.07423500  0.29916900  0.20446700  1
  O  O24  1  0.29673300  0.07505300  0.42751700  1
  O  O25  1  0.72374900  0.50178600  0.70131600  1
  O  O26  1  0.27875000  0.50417600  0.92516800  1
  O  O27  1  0.37271900  0.37271900  0.12663600  1
  O  O28  1  0.07505300  0.29673300  0.42751700  1
  O  O29  1  0.50178600  0.72374900  0.70131600  1
loop_
_geom_bond_atom_site_label_1
_geom_bond_atom_site_label_2
_geom_bond_distance
_geom_bond_site_symmetry_2
La0 O2 2.550110 1_554
La0 O27 2.550110 1_555
La0 O3 2.723414 1_555
La0 O21 2.723414 1_554
La0 O25 2.785807 1_554
La0 O0 2.785807 1_555
La0 S4 3.213193 1_554
La0 S0 3.213193 1_555
La1 O5 2.563119 1_545
La1 O24 2.563119 1_555
La1 O29 2.576693 1_545
La1 O0 2.576693 1_555
La1 O11 2.577007 1_555
La1 O18 2.577007 1_545
La2 O1 2.563119 1_455
La2 O28 2.563119 1_555
La2 O4 2.576693 1_555
La2 O25 2.576693 1_455
La2 O9 2.577007 1_555
La2 O20 2.577007 1_455
La3 O10 2.586741 1_544
La3 O19 2.586741 1_555
La3 O21 2.606234 1_554
La3 O8 2.606234 1_545
La3 O14 2.606389 1_545
La3 O15 2.606389 1_554
La3 S3 3.275410 1_554
La3 S2 3.275410 1_545
La4 O17 2.649582 1_545
La4 O12 2.649582 1_455
La4 O23 2.773889 1_555
La4 O19 2.773889 1_555
La4 S0 2.801048 1_455
La4 S1 2.801048 1_545
La4 O5 2.866659 1_445
La4 O1 2.866659 1_445
La4 S3 3.119135 1_554
La5 O22 2.462345 1_555
La5 O7 2.553616 1_555
La5 O15 2.666554 1_555
La5 O13 2.666554 1_555
La5 O11 2.728226 1_555
La5 O9 2.728226 1_555
La5 S3 2.864933 1_555
La6 O7 2.462345 1_555
La6 O22 2.553616 1_555
La6 O14 2.666554 1_555
La6 O16 2.666554 1_555
La6 O18 2.728226 1_555
La6 O20 2.728226 1_555
La6 S2 2.864933 1_555
La7 O17 2.649582 1_655
La7 O12 2.649582 1_565
La7 O10 2.773889 1_555
La7 O6 2.773889 1_555
La7 S4 2.801048 1_565
La7 S5 2.801048 1_655
La7 O28 2.866659 1_665
La7 O24 2.866659 1_665
La7 S2 3.119135 1_556
La8 O23 2.586741 1_555
La8 O6 2.586741 1_454
La8 O26 2.606234 1_554
La8 O3 2.606234 1_455
La8 O16 2.606389 1_455
La8 O13 2.606389 1_554
La8 S3 3.275410 1_554
La8 S2 3.275410 1_455
La9 O27 2.550110 1_555
La9 O2 2.550110 1_554
La9 O8 2.723414 1_555
La9 O26 2.723414 1_554
La9 O29 2.785807 1_554
La9 O4 2.785807 1_555
La9 S5 3.213193 1_554
La9 S1 3.213193 1_555
S0 Ti1 2.423953 1_555
S1 Ti3 2.423953 1_555
S2 Ti2 2.353200 1_554
S3 Ti9 2.353200 1_556
S4 Ti8 2.423953 1_555
S5 Ti10 2.423953 1_555
Cl0 Ti5 2.623843 1_655
Cl0 La0 2.843274 1_556
Cl0 La2 3.279080 1_655
Cl0 La8 3.296597 1_656
Cl0 La5 3.310651 1_655
Cl1 Ti11 2.690332 1_555
Cl1 La5 2.908191 1_555
Cl1 La7 3.264358 1_445
Cl1 La1 3.299686 1_555
Cl1 La2 3.299686 1_555
Cl2 Ti4 2.623843 1_565
Cl2 La9 2.843274 1_556
Cl2 La1 3.279080 1_565
Cl2 La3 3.296597 1_566
Cl2 La5 3.310651 1_565
Cl3 Ti7 2.623843 1_545
Cl3 La0 2.843274 1_555
Cl3 La1 3.279080 1_555
Cl3 La3 3.296597 1_555
Cl3 La6 3.310651 1_545
Cl4 Ti0 2.690332 1_555
Cl4 La6 2.908191 1_555
Cl4 La4 3.264358 1_665
Cl4 La2 3.299686 1_655
Cl4 La1 3.299686 1_565
Cl5 Ti6 2.623843 1_455
Cl5 La9 2.843274 1_555
Cl5 La2 3.279080 1_555
Cl5 La8 3.296597 1_555
Cl5 La6 3.310651 1_455
O0 Ti11 1.861110 1_555
O0 Ti1 2.048473 1_555
O1 Ti5 1.870774 1_655
O1 Ti0 2.047126 1_555
O2 Ti0 1.860316 1_555
O2 Ti2 2.100492 1_555
O3 Ti2 1.867098 1_554
O3 Ti1 2.040488 1_555
O4 Ti11 1.861110 1_555
O4 Ti3 2.048473 1_555
O5 Ti4 1.870774 1_565
O5 Ti0 2.047126 1_555
O6 Ti5 1.852111 1_655
O6 Ti2 2.065458 1_555
O7 Ti1 2.017520 1_555
O7 Ti3 2.017520 1_555
O8 Ti2 1.867098 1_554
O8 Ti3 2.040488 1_555
O9 Ti3 1.907783 1_555
O9 Ti5 2.023856 1_555
O10 Ti4 1.852111 1_565
O10 Ti2 2.065458 1_555
O11 Ti1 1.907783 1_555
O11 Ti4 2.023856 1_555
O12 Ti6 1.901213 1_555
O12 Ti4 1.901213 1_555
O13 Ti10 1.899462 1_555
O13 Ti5 2.042923 1_555
O14 Ti3 1.899462 1_555
O14 Ti7 2.042923 1_555
O15 Ti8 1.899462 1_555
O15 Ti4 2.042923 1_555
O16 Ti1 1.899462 1_555
O16 Ti6 2.042923 1_555
O17 Ti7 1.901213 1_555
O17 Ti5 1.901213 1_555
O18 Ti10 1.907783 1_555
O18 Ti7 2.023856 1_555
O19 Ti7 1.852111 1_545
O19 Ti9 2.065458 1_555
O20 Ti8 1.907783 1_555
O20 Ti6 2.023856 1_555
O21 Ti9 1.867098 1_556
O21 Ti8 2.040488 1_555
O22 Ti8 2.017520 1_555
O22 Ti10 2.017520 1_555
O23 Ti6 1.852111 1_455
O23 Ti9 2.065458 1_555
O24 Ti7 1.870774 1_545
O24 Ti11 2.047126 1_555
O25 Ti0 1.861110 1_555
O25 Ti8 2.048473 1_555
O26 Ti9 1.867098 1_556
O26 Ti10 2.040488 1_555
O27 Ti11 1.860316 1_555
O27 Ti9 2.100492 1_555
O28 Ti6 1.870774 1_455
O28 Ti11 2.047126 1_555
O29 Ti0 1.861110 1_555
O29 Ti10 2.048473 1_555
