# generated using pymatgen
data_Li11TiSb5
_symmetry_space_group_name_H-M   'P 1'
_cell_length_a   7.95250111
_cell_length_b   7.95250111
_cell_length_c   11.34702247
_cell_angle_alpha   63.37420219
_cell_angle_beta   63.37420219
_cell_angle_gamma   33.36254445
_symmetry_Int_Tables_number   1
_chemical_formula_structural   Li11TiSb5
_chemical_formula_sum   'Li11 Ti1 Sb5'
_cell_volume   348.78547399
_cell_formula_units_Z   1
loop_
 _symmetry_equiv_pos_site_id
 _symmetry_equiv_pos_as_xyz
  1  'x, y, z'
loop_
 _atom_site_type_symbol
 _atom_site_label
 _atom_site_symmetry_multiplicity
 _atom_site_fract_x
 _atom_site_fract_y
 _atom_site_fract_z
 _atom_site_occupancy
  Li  Li0  1  0.19777300  0.19777300  0.92997300  1
  Li  Li1  1  0.60794300  0.60794300  0.34842300  1
  Li  Li2  1  0.60298300  0.60298300  0.09837800  1
  Li  Li3  1  0.60379900  0.60379900  0.84772900  1
  Li  Li4  1  0.01489500  0.01489500  0.74244600  1
  Li  Li5  1  0.98990400  0.98990400  0.25632400  1
  Li  Li6  1  0.39652200  0.39652200  0.91382100  1
  Li  Li7  1  0.38550000  0.38550000  0.16376900  1
  Li  Li8  1  0.41250300  0.41250300  0.64375400  1
  Li  Li9  1  0.79743000  0.79743000  0.06851200  1
  Li  Li10  1  0.19604900  0.19604900  0.43621300  1
  Ti  Ti0  1  0.79700700  0.79700700  0.55860100  1
  Sb  Sb0  1  0.99596300  0.99596300  0.00295100  1
  Sb  Sb1  1  0.39025300  0.39025300  0.41599500  1
  Sb  Sb2  1  0.80796900  0.80796900  0.78953200  1
  Sb  Sb3  1  0.61199600  0.61199600  0.59810100  1
  Sb  Sb4  1  0.19151100  0.19151100  0.18547700  1
loop_
_geom_bond_atom_site_label_1
_geom_bond_atom_site_label_2
_geom_bond_distance
_geom_bond_site_symmetry_2
Li0 Sb0 2.785167 1_446
Li0 Sb2 2.840022 1_455
Li0 Sb2 2.840022 1_545
Li0 Sb4 2.855819 1_556
Li0 Li2 2.892383 1_546
Li0 Li2 2.892383 1_456
Li0 Li6 2.946782 1_555
Li1 Sb4 2.836878 1_565
Li1 Sb4 2.836878 1_655
Li1 Sb3 2.862512 1_555
Li1 Li2 2.873397 1_555
Li1 Sb1 3.034562 1_555
Li2 Li9 2.819930 1_555
Li2 Li3 2.838325 1_554
Li2 Li5 2.915813 1_545
Li2 Li5 2.915813 1_455
Li2 Li7 3.037978 1_555
Li2 Sb4 3.042074 1_565
Li2 Sb4 3.042074 1_655
Li2 Sb0 3.270173 1_545
Li2 Sb0 3.270173 1_455
Li3 Sb3 2.776301 1_555
Li3 Sb2 2.861858 1_555
Li3 Sb0 2.881795 1_456
Li3 Sb0 2.881795 1_546
Li3 Li6 2.884328 1_555
Li4 Sb3 2.795520 1_455
Li4 Sb3 2.795520 1_545
Li4 Sb0 2.832504 1_446
Li4 Sb2 2.940847 1_445
Li4 Li6 2.993893 1_545
Li4 Li6 2.993893 1_455
Li5 Sb4 2.787575 1_665
Li5 Sb0 2.833016 1_555
Li5 Sb1 2.867876 1_565
Li5 Sb1 2.867876 1_655
Li6 Li7 2.761592 1_556
Li6 Li9 2.844577 1_456
Li6 Li9 2.844577 1_546
Li6 Li8 2.958380 1_555
Li6 Sb0 3.156404 1_546
Li6 Sb0 3.156404 1_456
Li6 Sb4 3.201380 1_556
Li6 Sb2 3.286417 1_455
Li6 Sb2 3.286417 1_545
Li7 Sb4 2.848640 1_555
Li7 Sb1 2.896601 1_555
Li7 Sb0 2.915410 1_545
Li7 Sb0 2.915410 1_455
Li8 Sb1 2.759299 1_555
Li8 Sb2 2.831708 1_455
Li8 Sb2 2.831708 1_545
Li8 Sb3 2.834272 1_555
Li9 Sb4 2.751820 1_565
Li9 Sb4 2.751820 1_655
Li9 Sb0 2.756303 1_555
Li9 Sb2 3.093727 1_554
Li10 Sb3 2.832684 1_455
Li10 Sb3 2.832684 1_545
Li10 Sb1 2.858695 1_555
Li10 Sb4 2.878103 1_555
Sb1 Ti0 2.774274 1_455
Sb1 Ti0 2.774274 1_545
Sb2 Ti0 2.702551 1_555
Sb3 Ti0 2.638971 1_555
