# generated using pymatgen
data_S4N5Cl
_symmetry_space_group_name_H-M   'P 1'
_cell_length_a   5.06448900
_cell_length_b   8.07223000
_cell_length_c   18.21841800
_cell_angle_alpha   90.00000000
_cell_angle_beta   90.00000000
_cell_angle_gamma   90.00000000
_symmetry_Int_Tables_number   1
_chemical_formula_structural   S4N5Cl
_chemical_formula_sum   'S16 N20 Cl4'
_cell_volume   744.80026426
_cell_formula_units_Z   4
loop_
 _symmetry_equiv_pos_site_id
 _symmetry_equiv_pos_as_xyz
  1  'x, y, z'
loop_
 _atom_site_type_symbol
 _atom_site_label
 _atom_site_symmetry_multiplicity
 _atom_site_fract_x
 _atom_site_fract_y
 _atom_site_fract_z
 _atom_site_occupancy
  S  S0  1  0.46726900  0.25000000  0.94905800  1
  S  S1  1  0.59016900  0.75000000  0.20318200  1
  S  S2  1  0.03273100  0.25000000  0.44905800  1
  S  S3  1  0.17053200  0.50497700  0.88141700  1
  S  S4  1  0.32946800  0.99502300  0.38141700  1
  S  S5  1  0.67053200  0.00497700  0.61858300  1
  S  S6  1  0.67053200  0.49502300  0.61858300  1
  S  S7  1  0.40983100  0.25000000  0.79681800  1
  S  S8  1  0.82946800  0.00497700  0.11858300  1
  S  S9  1  0.82946800  0.49502300  0.11858300  1
  S  S10  1  0.53273100  0.75000000  0.05094200  1
  S  S11  1  0.17053200  0.99502300  0.88141700  1
  S  S12  1  0.96726900  0.75000000  0.55094200  1
  S  S13  1  0.32946800  0.50497700  0.38141700  1
  S  S14  1  0.90983100  0.75000000  0.70318200  1
  S  S15  1  0.09016900  0.25000000  0.29681800  1
  N  N0  1  0.75372100  0.58865700  0.54668500  1
  N  N1  1  0.20477400  0.08648300  0.80584600  1
  N  N2  1  0.25372100  0.41134300  0.95331500  1
  N  N3  1  0.79522600  0.91351700  0.19415400  1
  N  N4  1  0.24627900  0.08865700  0.45331500  1
  N  N5  1  0.60673800  0.25000000  0.86845700  1
  N  N6  1  0.79522600  0.58648300  0.19415400  1
  N  N7  1  0.25372100  0.08865700  0.95331500  1
  N  N8  1  0.89326200  0.25000000  0.36845700  1
  N  N9  1  0.74627900  0.58865700  0.04668500  1
  N  N10  1  0.24627900  0.41134300  0.45331500  1
  N  N11  1  0.39326200  0.75000000  0.13154300  1
  N  N12  1  0.29522600  0.41351700  0.30584600  1
  N  N13  1  0.70477400  0.91351700  0.69415400  1
  N  N14  1  0.70477400  0.58648300  0.69415400  1
  N  N15  1  0.74627900  0.91134300  0.04668500  1
  N  N16  1  0.29522600  0.08648300  0.30584600  1
  N  N17  1  0.20477400  0.41351700  0.80584600  1
  N  N18  1  0.75372100  0.91134300  0.54668500  1
  N  N19  1  0.10673800  0.75000000  0.63154300  1
  Cl  Cl0  1  0.93744200  0.75000000  0.36970600  1
  Cl  Cl1  1  0.43744200  0.25000000  0.13029400  1
  Cl  Cl2  1  0.56255800  0.75000000  0.86970600  1
  Cl  Cl3  1  0.06255800  0.25000000  0.63029400  1
loop_
_geom_bond_atom_site_label_1
_geom_bond_atom_site_label_2
_geom_bond_distance
_geom_bond_site_symmetry_2
N0 S6 1.569886 1_555
N0 S12 1.694675 1_555
N1 S11 1.571838 1_545
N1 S7 1.687546 1_555
N2 S3 1.569886 1_555
N2 S0 1.694675 1_555
N3 S8 1.571838 1_565
N3 S1 1.687546 1_555
N4 S4 1.569886 1_545
N4 S2 1.694675 1_555
N5 S0 1.629472 1_555
N5 S7 1.642525 1_555
N6 S9 1.571838 1_555
N6 S1 1.687546 1_555
N7 S11 1.569886 1_545
N7 S0 1.694675 1_555
N8 S2 1.629472 1_655
N8 S15 1.642525 1_655
N9 S9 1.569886 1_555
N9 S10 1.694675 1_555
N10 S13 1.569886 1_555
N10 S2 1.694675 1_555
N11 S10 1.629472 1_555
N11 S1 1.642525 1_555
N12 S13 1.571838 1_555
N12 S15 1.687546 1_555
N13 S5 1.571838 1_565
N13 S14 1.687546 1_555
N14 S6 1.571838 1_555
N14 S14 1.687546 1_555
N15 S8 1.569886 1_565
N15 S10 1.694675 1_555
N16 S4 1.571838 1_545
N16 S15 1.687546 1_555
N17 S3 1.571838 1_555
N17 S7 1.687546 1_555
N18 S5 1.569886 1_565
N18 S12 1.694675 1_555
N19 S12 1.629472 1_455
N19 S14 1.642525 1_455
Cl0 S4 2.810586 1_655
Cl0 S13 2.810586 1_655
Cl1 S9 2.810586 1_555
Cl1 S8 2.810586 1_555
Cl2 S3 2.810586 1_555
Cl2 S11 2.810586 1_555
Cl3 S5 2.810586 1_455
Cl3 S6 2.810586 1_455
