# generated using pymatgen
data_RbNiW(OF)3
_symmetry_space_group_name_H-M   'P 1'
_cell_length_a   7.34695503
_cell_length_b   7.34781445
_cell_length_c   7.39280251
_cell_angle_alpha   118.58085644
_cell_angle_beta   61.42346234
_cell_angle_gamma   88.41218304
_symmetry_Int_Tables_number   1
_chemical_formula_structural   RbNiW(OF)3
_chemical_formula_sum   'Rb2 Ni2 W2 O6 F6'
_cell_volume   290.23834925
_cell_formula_units_Z   2
loop_
 _symmetry_equiv_pos_site_id
 _symmetry_equiv_pos_as_xyz
  1  'x, y, z'
loop_
 _atom_site_type_symbol
 _atom_site_label
 _atom_site_symmetry_multiplicity
 _atom_site_fract_x
 _atom_site_fract_y
 _atom_site_fract_z
 _atom_site_occupancy
  Rb  Rb0  1  0.63751600  0.13728000  0.74991600  1
  Rb  Rb1  1  0.36264500  0.86261000  0.25005300  1
  Ni  Ni0  1  0.99974800  0.50023900  0.00062600  1
  Ni  Ni1  1  0.00004900  0.49967100  0.49922800  1
  W  W0  1  0.99998500  0.99991100  0.99992500  1
  W  W1  1  0.49986500  0.49991800  0.50004300  1
  O  O0  1  0.30396000  0.80391400  0.74997000  1
  O  O1  1  0.69597400  0.19604300  0.25008100  1
  O  O2  1  0.31067800  0.43338800  0.39782800  1
  O  O3  1  0.93347000  0.81085200  0.10226900  1
  O  O4  1  0.68926600  0.56662300  0.60194800  1
  O  O5  1  0.06649300  0.18938900  0.89817300  1
  F  F0  1  0.07965000  0.57940300  0.24984700  1
  F  F1  1  0.92072700  0.42092500  0.75006800  1
  F  F2  1  0.92118000  0.84531400  0.75398000  1
  F  F3  1  0.65455500  0.57882200  0.25418600  1
  F  F4  1  0.34540400  0.42114000  0.74597200  1
  F  F5  1  0.07883500  0.15455800  0.24588600  1
loop_
_geom_bond_atom_site_label_1
_geom_bond_atom_site_label_2
_geom_bond_distance
_geom_bond_site_symmetry_2
Ni0 O3 1.989529 1_555
Ni0 O5 1.989591 1_654
Ni1 O4 1.988395 1_455
Ni1 O2 1.989952 1_555
O0 W0 1.950326 1_455
O0 W1 1.950332 1_555
O1 W1 1.950127 1_555
O1 W0 1.950824 1_544
O2 W1 1.852286 1_555
O3 W0 1.852192 1_554
O4 W1 1.852434 1_555
O5 W0 1.852319 1_445
F0 Ni1 2.026116 1_555
F0 Ni0 2.026271 1_455
F0 Rb1 2.982114 1_555
F1 Ni0 2.030388 1_556
F1 Ni1 2.030935 1_655
F1 Rb0 2.985559 1_555
F2 W0 1.999722 1_555
F2 Ni1 2.151937 1_655
F2 Rb0 2.969915 1_565
F3 W1 1.999987 1_555
F3 Ni0 2.148109 1_555
F3 Rb1 2.970593 1_555
F4 W1 1.999478 1_555
F4 Ni0 2.151448 1_456
F4 Rb0 2.971040 1_555
F5 W0 2.000111 1_444
F5 Ni1 2.147230 1_555
F5 Rb1 2.971085 1_545
