# generated using pymatgen
data_SiO2
_symmetry_space_group_name_H-M   'P 1'
_cell_length_a   5.23705395
_cell_length_b   22.45374876
_cell_length_c   13.97235134
_cell_angle_alpha   90.00000000
_cell_angle_beta   90.00000000
_cell_angle_gamma   90.00000000
_symmetry_Int_Tables_number   1
_chemical_formula_structural   SiO2
_chemical_formula_sum   'Si28 O56'
_cell_volume   1643.02966368
_cell_formula_units_Z   28
loop_
 _symmetry_equiv_pos_site_id
 _symmetry_equiv_pos_as_xyz
  1  'x, y, z'
loop_
 _atom_site_type_symbol
 _atom_site_label
 _atom_site_symmetry_multiplicity
 _atom_site_fract_x
 _atom_site_fract_y
 _atom_site_fract_z
 _atom_site_occupancy
  Si  Si0  1  0.75000000  0.75000000  0.14454905  1
  Si  Si1  1  0.25000000  0.25000000  0.85545095  1
  Si  Si2  1  0.25000000  0.75000000  0.01189640  1
  Si  Si3  1  0.75000000  0.25000000  0.98810360  1
  Si  Si4  1  0.75000000  0.62176746  0.22564109  1
  Si  Si5  1  0.25000000  0.37823254  0.77435891  1
  Si  Si6  1  0.25000000  0.12176746  0.77435891  1
  Si  Si7  1  0.75000000  0.87823254  0.22564109  1
  Si  Si8  1  0.75000000  0.54952348  0.40468969  1
  Si  Si9  1  0.25000000  0.45047652  0.59531031  1
  Si  Si10  1  0.25000000  0.04952348  0.59531031  1
  Si  Si11  1  0.75000000  0.95047652  0.40468969  1
  Si  Si12  1  0.75000000  0.37831729  0.07974073  1
  Si  Si13  1  0.25000000  0.62168271  0.92025927  1
  Si  Si14  1  0.25000000  0.87831729  0.92025927  1
  Si  Si15  1  0.75000000  0.12168271  0.07974073  1
  Si  Si16  1  0.25000000  0.46926349  0.38474730  1
  Si  Si17  1  0.75000000  0.53073651  0.61525270  1
  Si  Si18  1  0.75000000  0.96926349  0.61525270  1
  Si  Si19  1  0.25000000  0.03073651  0.38474730  1
  Si  Si20  1  0.25000000  0.42671684  0.17926194  1
  Si  Si21  1  0.75000000  0.57328316  0.82073806  1
  Si  Si22  1  0.75000000  0.92671684  0.82073806  1
  Si  Si23  1  0.25000000  0.07328316  0.17926194  1
  Si  Si24  1  0.25000000  0.56563187  0.12789905  1
  Si  Si25  1  0.75000000  0.43436813  0.87210095  1
  Si  Si26  1  0.75000000  0.06563187  0.87210095  1
  Si  Si27  1  0.25000000  0.93436813  0.12789905  1
  O  O0  1  0.75000000  0.80742063  0.21272775  1
  O  O1  1  0.25000000  0.19257937  0.78727225  1
  O  O2  1  0.25000000  0.30742063  0.78727225  1
  O  O3  1  0.75000000  0.69257937  0.21272775  1
  O  O4  1  -0.00009745  0.75000000  0.07826024  1
  O  O5  1  0.49990255  0.25000000  0.92173976  1
  O  O6  1  0.00009745  0.25000000  0.92173976  1
  O  O7  1  0.50009745  0.75000000  0.07826024  1
  O  O8  1  0.25000000  0.69150003  0.94588396  1
  O  O9  1  0.75000000  0.30849997  0.05411604  1
  O  O10  1  0.75000000  0.19150003  0.05411604  1
  O  O11  1  0.25000000  0.80849997  0.94588396  1
  O  O12  1  0.75000000  0.60833273  0.33909056  1
  O  O13  1  0.25000000  0.39166727  0.66090944  1
  O  O14  1  0.25000000  0.10833273  0.66090944  1
  O  O15  1  0.75000000  0.89166727  0.33909056  1
  O  O16  1  0.99942374  0.59347573  0.17657728  1
  O  O17  1  0.49942374  0.40652427  0.82342272  1
  O  O18  1  0.00057626  0.09347573  0.82342272  1
  O  O19  1  0.50057626  0.90652427  0.17657728  1
  O  O20  1  0.00057626  0.40652427  0.82342272  1
  O  O21  1  0.50057626  0.59347573  0.17657728  1
  O  O22  1  0.99942374  0.90652427  0.17657728  1
  O  O23  1  0.49942374  0.09347573  0.82342272  1
  O  O24  1  0.75000000  0.56831597  0.51641191  1
  O  O25  1  0.25000000  0.43168403  0.48358809  1
  O  O26  1  0.25000000  0.06831597  0.48358809  1
  O  O27  1  0.75000000  0.93168403  0.51641191  1
  O  O28  1  -0.00011095  0.51076854  0.38015551  1
  O  O29  1  0.49988905  0.48923146  0.61984449  1
  O  O30  1  0.00011095  0.01076854  0.61984449  1
  O  O31  1  0.50011095  0.98923146  0.38015551  1
  O  O32  1  0.00011095  0.48923146  0.61984449  1
  O  O33  1  0.50011095  0.51076854  0.38015551  1
  O  O34  1  -0.00011095  0.98923146  0.38015551  1
  O  O35  1  0.49988905  0.01076854  0.61984449  1
  O  O36  1  0.75000000  0.41903903  0.98455964  1
  O  O37  1  0.25000000  0.58096097  0.01544036  1
  O  O38  1  0.25000000  0.91903903  0.01544036  1
  O  O39  1  0.75000000  0.08096097  0.98455964  1
  O  O40  1  0.49979466  0.39281212  0.14161762  1
  O  O41  1  0.99979466  0.60718788  0.85838238  1
  O  O42  1  0.50020534  0.89281212  0.85838238  1
  O  O43  1  0.00020534  0.10718788  0.14161762  1
  O  O44  1  0.50020534  0.60718788  0.85838238  1
  O  O45  1  0.00020534  0.39281212  0.14161762  1
  O  O46  1  0.49979466  0.10718788  0.14161762  1
  O  O47  1  0.99979466  0.89281212  0.85838238  1
  O  O48  1  0.25000000  0.42471205  0.29489121  1
  O  O49  1  0.75000000  0.57528795  0.70510879  1
  O  O50  1  0.75000000  0.92471205  0.70510879  1
  O  O51  1  0.25000000  0.07528795  0.29489121  1
  O  O52  1  0.25000000  0.49458089  0.14142191  1
  O  O53  1  0.75000000  0.50541911  0.85857809  1
  O  O54  1  0.75000000  0.99458089  0.85857809  1
  O  O55  1  0.25000000  0.00541911  0.14142191  1
loop_
_geom_bond_atom_site_label_1
_geom_bond_atom_site_label_2
_geom_bond_distance
_geom_bond_site_symmetry_2
O0 Si7 1.600198 1_555
O0 Si0 1.603058 1_555
O1 Si6 1.600198 1_555
O1 Si1 1.603058 1_555
O2 Si5 1.600198 1_555
O2 Si1 1.603058 1_555
O3 Si4 1.600198 1_555
O3 Si0 1.603058 1_555
O4 Si0 1.603340 1_455
O4 Si2 1.604779 1_555
O5 Si1 1.603340 1_555
O5 Si3 1.604779 1_555
O6 Si1 1.603340 1_555
O6 Si3 1.604779 1_455
O7 Si0 1.603340 1_555
O7 Si2 1.604779 1_555
O8 Si2 1.605031 1_556
O8 Si13 1.608027 1_555
O9 Si3 1.605031 1_554
O9 Si12 1.608027 1_555
O10 Si3 1.605031 1_554
O10 Si15 1.608027 1_555
O11 Si2 1.605031 1_556
O11 Si14 1.608027 1_555
O12 Si8 1.607419 1_555
O12 Si4 1.613604 1_555
O13 Si9 1.607419 1_555
O13 Si5 1.613604 1_555
O14 Si10 1.607419 1_555
O14 Si6 1.613604 1_555
O15 Si11 1.607419 1_555
O15 Si7 1.613604 1_555
O16 Si24 1.604855 1_655
O16 Si4 1.606172 1_555
O17 Si25 1.604855 1_555
O17 Si5 1.606172 1_555
O18 Si26 1.604855 1_455
O18 Si6 1.606172 1_555
O19 Si27 1.604855 1_555
O19 Si7 1.606172 1_555
O20 Si25 1.604855 1_455
O20 Si5 1.606172 1_555
O21 Si24 1.604855 1_555
O21 Si4 1.606172 1_555
O22 Si27 1.604855 1_655
O22 Si7 1.606172 1_555
O23 Si26 1.604855 1_555
O23 Si6 1.606172 1_555
O24 Si8 1.617047 1_555
O24 Si17 1.618414 1_555
O25 Si9 1.617047 1_555
O25 Si16 1.618414 1_555
O26 Si10 1.617047 1_555
O26 Si19 1.618414 1_555
O27 Si11 1.617047 1_555
O27 Si18 1.618414 1_555
O28 Si8 1.608539 1_455
O28 Si16 1.608828 1_555
O29 Si9 1.608539 1_555
O29 Si17 1.608828 1_555
O30 Si10 1.608539 1_555
O30 Si18 1.608828 1_445
O31 Si11 1.608539 1_555
O31 Si19 1.608828 1_565
O32 Si9 1.608539 1_555
O32 Si17 1.608828 1_455
O33 Si8 1.608539 1_555
O33 Si16 1.608828 1_555
O34 Si11 1.608539 1_455
O34 Si19 1.608828 1_565
O35 Si10 1.608539 1_555
O35 Si18 1.608828 1_545
O36 Si25 1.608569 1_555
O36 Si12 1.613905 1_556
O37 Si24 1.608569 1_555
O37 Si13 1.613905 1_554
O38 Si27 1.608569 1_555
O38 Si14 1.613905 1_554
O39 Si26 1.608569 1_555
O39 Si15 1.613905 1_556
O40 Si20 1.602364 1_555
O40 Si12 1.603243 1_555
O41 Si21 1.602364 1_555
O41 Si13 1.603243 1_655
O42 Si22 1.602364 1_555
O42 Si14 1.603243 1_555
O43 Si23 1.602364 1_555
O43 Si15 1.603243 1_455
O44 Si21 1.602364 1_555
O44 Si13 1.603243 1_555
O45 Si20 1.602364 1_555
O45 Si12 1.603243 1_455
O46 Si23 1.602364 1_555
O46 Si15 1.603243 1_555
O47 Si22 1.602364 1_555
O47 Si14 1.603243 1_655
O48 Si16 1.605296 1_555
O48 Si20 1.616240 1_555
O49 Si17 1.605296 1_555
O49 Si21 1.616240 1_555
O50 Si18 1.605296 1_555
O50 Si22 1.616240 1_555
O51 Si19 1.605296 1_555
O51 Si23 1.616240 1_555
O52 Si24 1.606511 1_555
O52 Si20 1.612920 1_555
O53 Si25 1.606511 1_555
O53 Si21 1.612920 1_555
O54 Si26 1.606511 1_565
O54 Si22 1.612920 1_555
O55 Si27 1.606511 1_545
O55 Si23 1.612920 1_555
