# generated using pymatgen
data_GaGeS4
_symmetry_space_group_name_H-M   'P 1'
_cell_length_a   11.34420625
_cell_length_b   11.34420625
_cell_length_c   12.43064607
_cell_angle_alpha   63.04993180
_cell_angle_beta   63.04993180
_cell_angle_gamma   90.04682052
_symmetry_Int_Tables_number   1
_chemical_formula_structural   GaGeS4
_chemical_formula_sum   'Ga4 Ge4 S16'
_cell_volume   1227.57276339
_cell_formula_units_Z   4
loop_
 _symmetry_equiv_pos_site_id
 _symmetry_equiv_pos_as_xyz
  1  'x, y, z'
loop_
 _atom_site_type_symbol
 _atom_site_label
 _atom_site_symmetry_multiplicity
 _atom_site_fract_x
 _atom_site_fract_y
 _atom_site_fract_z
 _atom_site_occupancy
  Ga  Ga0  1  0.69334500  0.22436000  0.86331500  1
  Ga  Ga1  1  0.30595700  0.52424700  0.63705500  1
  Ga  Ga2  1  0.52424700  0.30595700  0.13705500  1
  Ga  Ga3  1  0.22436000  0.69334500  0.36331500  1
  Ge  Ge0  1  0.43952300  0.40949400  0.86928400  1
  Ge  Ge1  1  0.40949400  0.43952300  0.36928400  1
  Ge  Ge2  1  0.34134100  0.05711700  0.13002500  1
  Ge  Ge3  1  0.05711700  0.34134100  0.63002500  1
  S  S0  1  0.87992500  0.16542600  0.74422700  1
  S  S1  1  0.73327200  0.28580400  0.99838500  1
  S  S2  1  0.63687300  0.39500000  0.71805300  1
  S  S3  1  0.27031900  0.21745500  0.99962800  1
  S  S4  1  0.37155800  0.58278200  0.75737400  1
  S  S5  1  0.48400300  0.47281500  0.49519000  1
  S  S6  1  0.58278200  0.37155800  0.25737400  1
  S  S7  1  0.53362900  0.01551300  0.00562300  1
  S  S8  1  0.28580400  0.73327200  0.49838500  1
  S  S9  1  0.39500000  0.63687300  0.21805300  1
  S  S10  1  0.35763600  0.10260300  0.28184100  1
  S  S11  1  0.47281500  0.48400300  0.99519000  1
  S  S12  1  0.10260300  0.35763600  0.78184100  1
  S  S13  1  0.21745500  0.27031900  0.49962800  1
  S  S14  1  0.16542600  0.87992500  0.24422700  1
  S  S15  1  0.01551300  0.53362900  0.50562300  1
loop_
_geom_bond_atom_site_label_1
_geom_bond_atom_site_label_2
_geom_bond_distance
_geom_bond_site_symmetry_2
Ga0 S0 2.275452 1_555
Ga0 S1 2.293404 1_555
Ga0 S2 2.302260 1_555
Ga0 S7 2.305229 1_556
Ga1 S4 2.267161 1_555
Ga1 S5 2.288190 1_555
Ga1 S12 2.297692 1_555
Ga1 S8 2.302055 1_555
Ga2 S6 2.267161 1_555
Ga2 S11 2.288190 1_554
Ga2 S10 2.297692 1_555
Ga2 S1 2.302055 1_554
Ga3 S14 2.275452 1_555
Ga3 S8 2.293404 1_555
Ga3 S9 2.302260 1_555
Ga3 S15 2.305229 1_555
Ge0 S4 2.211329 1_555
Ge0 S3 2.242829 1_555
Ge0 S2 2.244794 1_555
Ge0 S11 2.245207 1_555
Ge1 S6 2.211329 1_555
Ge1 S13 2.242829 1_555
Ge1 S9 2.244794 1_555
Ge1 S5 2.245207 1_555
Ge2 S14 2.208457 1_545
Ge2 S7 2.231152 1_555
Ge2 S10 2.249569 1_555
Ge2 S3 2.258022 1_554
Ge3 S0 2.208457 1_455
Ge3 S15 2.231152 1_555
Ge3 S12 2.249569 1_555
Ge3 S13 2.258022 1_555
