# generated using pymatgen
data_H9BrO4
_symmetry_space_group_name_H-M   'P 1'
_cell_length_a   12.05327800
_cell_length_b   6.88955500
_cell_length_c   7.48493153
_cell_angle_alpha   70.50071044
_cell_angle_beta   90.00000000
_cell_angle_gamma   90.00000000
_symmetry_Int_Tables_number   1
_chemical_formula_structural   H9BrO4
_chemical_formula_sum   'H36 Br4 O16'
_cell_volume   585.91232729
_cell_formula_units_Z   4
loop_
 _symmetry_equiv_pos_site_id
 _symmetry_equiv_pos_as_xyz
  1  'x, y, z'
loop_
 _atom_site_type_symbol
 _atom_site_label
 _atom_site_symmetry_multiplicity
 _atom_site_fract_x
 _atom_site_fract_y
 _atom_site_fract_z
 _atom_site_occupancy
  H  H0  1  0.67178600  0.67478500  0.99807500  1
  H  H1  1  0.74242400  0.88620700  0.02281100  1
  H  H2  1  0.24242400  0.11379300  0.97718900  1
  H  H3  1  0.17178600  0.32521500  0.00192500  1
  H  H4  1  0.82449700  0.02382500  0.14973700  1
  H  H5  1  0.74627400  0.17287500  0.98713200  1
  H  H6  1  0.32449700  0.97617500  0.85026300  1
  H  H7  1  0.24627400  0.82712500  0.01286800  1
  H  H8  1  0.81680100  0.46337900  0.80672500  1
  H  H9  1  0.74879000  0.35674800  0.68838800  1
  H  H10  1  0.31680100  0.53662100  0.19327500  1
  H  H11  1  0.24879000  0.64325200  0.31161200  1
  H  H12  1  0.69056900  0.29894600  0.37615500  1
  H  H13  1  0.81234800  0.38524200  0.35785800  1
  H  H14  1  0.19056900  0.70105400  0.62384500  1
  H  H15  1  0.31234800  0.61475800  0.64214200  1
  H  H16  1  0.81819800  0.96361300  0.54642300  1
  H  H17  1  0.71285900  0.82188600  0.55132800  1
  H  H18  1  0.75800700  0.79973700  0.82015300  1
  H  H19  1  0.31819800  0.03638700  0.45357700  1
  H  H20  1  0.21285900  0.17811400  0.44867200  1
  H  H21  1  0.25800700  0.20026300  0.17984700  1
  H  H22  1  0.55789500  0.80346500  0.35262400  1
  H  H23  1  0.64330100  0.60747400  0.42214200  1
  H  H24  1  0.14330100  0.39252600  0.57785800  1
  H  H25  1  0.05789500  0.19653500  0.64737600  1
  H  H26  1  0.49559400  0.49109600  0.84993500  1
  H  H27  1  0.47707400  0.34684800  0.71475200  1
  H  H28  1  0.53077500  0.59173700  0.60933500  1
  H  H29  1  0.99559400  0.50890400  0.15006500  1
  H  H30  1  0.97707400  0.65315200  0.28524800  1
  H  H31  1  0.03077500  0.40826300  0.39066500  1
  H  H32  1  0.49413800  0.95240700  0.07244500  1
  H  H33  1  0.50635100  0.10459400  0.18571500  1
  H  H34  1  0.99413800  0.04759300  0.92755500  1
  H  H35  1  0.00635100  0.89540600  0.81428500  1
  Br  Br0  1  0.49309100  0.04884600  0.72338400  1
  Br  Br1  1  0.99309100  0.95115400  0.27661600  1
  Br  Br2  1  0.52910200  0.46255500  0.13062900  1
  Br  Br3  1  0.02910200  0.53744500  0.86937100  1
  O  O0  1  0.74312200  0.75240800  0.96768500  1
  O  O1  1  0.24312200  0.24759200  0.03231500  1
  O  O2  1  0.74794500  0.03617000  0.09610300  1
  O  O3  1  0.24794500  0.96383000  0.90389700  1
  O  O4  1  0.74872200  0.38446500  0.80940700  1
  O  O5  1  0.24872200  0.61553500  0.19059300  1
  O  O6  1  0.74940700  0.34227800  0.44472900  1
  O  O7  1  0.24940700  0.65772200  0.55527100  1
  O  O8  1  0.78034900  0.83775300  0.62062600  1
  O  O9  1  0.28034900  0.16224700  0.37937400  1
  O  O10  1  0.60117600  0.70426600  0.46689800  1
  O  O11  1  0.10117600  0.29573400  0.53310200  1
  O  O12  1  0.47232500  0.49686100  0.71631500  1
  O  O13  1  0.97232500  0.50313900  0.28368500  1
  O  O14  1  0.48756400  0.95996100  0.20099900  1
  O  O15  1  0.98756400  0.04003900  0.79900100  1
loop_
_geom_bond_atom_site_label_1
_geom_bond_atom_site_label_2
_geom_bond_distance
_geom_bond_site_symmetry_2
H0 O0 0.997919 1_555
H1 O0 1.128710 1_554
H1 O2 1.323334 1_565
H2 O1 1.128710 1_556
H2 O3 1.323334 1_545
H3 O1 0.997919 1_555
H4 O2 0.998489 1_555
H5 O2 1.019749 1_556
H5 O4 1.612742 1_555
H6 O3 0.998489 1_555
H7 O3 1.019749 1_554
H7 O5 1.612742 1_555
H8 O4 0.980842 1_555
H9 O4 0.986128 1_555
H10 O5 0.980842 1_555
H11 O5 0.986128 1_555
H12 O6 0.978683 1_555
H13 O6 0.978500 1_555
H14 O7 0.978683 1_555
H15 O7 0.978500 1_555
H16 O8 0.973129 1_555
H17 O8 0.990246 1_555
H18 O0 1.057136 1_555
H18 O8 1.452711 1_555
H19 O9 0.973129 1_555
H20 O9 0.990246 1_555
H21 O1 1.057136 1_555
H21 O9 1.452711 1_555
H22 O10 1.039508 1_555
H22 O14 1.533699 1_555
H23 O10 0.981761 1_555
H24 O11 0.981761 1_555
H25 O11 1.039508 1_555
H25 O15 1.533699 1_455
H26 O12 1.026642 1_555
H27 O12 1.039064 1_555
H28 O12 1.102435 1_555
H28 O10 1.380562 1_555
H29 O13 1.026642 1_555
H30 O13 1.039064 1_555
H31 O13 1.102435 1_455
H31 O11 1.380562 1_555
H32 O14 0.984013 1_555
H33 O14 0.990550 1_545
H34 O15 0.984013 1_555
H35 O15 0.990550 1_465
Br0 H27 2.041596 1_555
Br0 H6 2.228141 1_545
Br1 H30 2.041596 1_555
Br1 H4 2.228141 1_565
Br2 H26 2.083287 1_554
Br3 H29 2.083287 1_456
