# generated using pymatgen
data_NdO3
_symmetry_space_group_name_H-M   'P 1'
_cell_length_a   4.18863300
_cell_length_b   4.19593552
_cell_length_c   7.77411451
_cell_angle_alpha   82.81346587
_cell_angle_beta   105.54724291
_cell_angle_gamma   119.30154684
_symmetry_Int_Tables_number   1
_chemical_formula_structural   NdO3
_chemical_formula_sum   'Nd2 O6'
_cell_volume   114.78790825
_cell_formula_units_Z   2
loop_
 _symmetry_equiv_pos_site_id
 _symmetry_equiv_pos_as_xyz
  1  'x, y, z'
loop_
 _atom_site_type_symbol
 _atom_site_label
 _atom_site_symmetry_multiplicity
 _atom_site_fract_x
 _atom_site_fract_y
 _atom_site_fract_z
 _atom_site_occupancy
  Nd  Nd0  1  0.53374100  0.81170000  0.25742600  1
  Nd  Nd1  1  0.39849100  0.16427000  0.64386000  1
  O  O0  1  0.23851000  0.15401100  0.33938200  1
  O  O1  1  0.10080800  0.39589200  0.82109100  1
  O  O2  1  0.69340400  0.81263400  0.58192300  1
  O  O3  1  0.31737700  0.72596100  0.90547900  1
  O  O4  1  0.80569500  0.48072100  0.13312000  1
  O  O5  1  0.91528400  0.45826600  0.31960300  1
loop_
_geom_bond_atom_site_label_1
_geom_bond_atom_site_label_2
_geom_bond_distance
_geom_bond_site_symmetry_2
Nd0 O5 2.412049 1_565
Nd0 O5 2.423873 1_455
Nd0 O2 2.430367 1_555
Nd0 O0 2.488539 1_555
Nd0 O0 2.500776 1_665
Nd0 O0 2.527453 1_565
Nd0 O4 2.575745 1_555
Nd0 O5 2.591005 1_555
Nd0 O4 2.602457 1_455
Nd0 O4 2.625469 1_565
Nd0 O3 2.652314 1_554
Nd1 O0 2.280520 1_555
Nd1 O2 2.420865 1_555
Nd1 O2 2.493044 1_545
Nd1 O2 2.506257 1_445
Nd1 O3 2.541121 1_545
Nd1 O1 2.615290 1_555
Nd1 O1 2.619279 1_655
O1 O3 1.360131 1_555
O4 O5 1.404547 1_555
