# generated using pymatgen
data_PaCl2O
_symmetry_space_group_name_H-M   'P 1'
_cell_length_a   4.00829400
_cell_length_b   15.55615900
_cell_length_c   18.08221100
_cell_angle_alpha   90.00000000
_cell_angle_beta   90.00000000
_cell_angle_gamma   90.00000000
_symmetry_Int_Tables_number   1
_chemical_formula_structural   PaCl2O
_chemical_formula_sum   'Pa12 Cl24 O12'
_cell_volume   1127.49201473
_cell_formula_units_Z   12
loop_
 _symmetry_equiv_pos_site_id
 _symmetry_equiv_pos_as_xyz
  1  'x, y, z'
loop_
 _atom_site_type_symbol
 _atom_site_label
 _atom_site_symmetry_multiplicity
 _atom_site_fract_x
 _atom_site_fract_y
 _atom_site_fract_z
 _atom_site_occupancy
  Pa  Pa0  1  0.50000000  0.27952900  0.02625600  1
  Pa  Pa1  1  0.50000000  0.72047100  0.97374400  1
  Pa  Pa2  1  0.50000000  0.33460300  0.24702300  1
  Pa  Pa3  1  0.50000000  0.22047100  0.52625600  1
  Pa  Pa4  1  0.50000000  0.66539700  0.75297700  1
  Pa  Pa5  1  0.50000000  0.77952900  0.47374400  1
  Pa  Pa6  1  0.00000000  0.34262200  0.66472900  1
  Pa  Pa7  1  0.00000000  0.65737800  0.33527100  1
  Pa  Pa8  1  0.50000000  0.16539700  0.74702300  1
  Pa  Pa9  1  0.00000000  0.15737800  0.16472900  1
  Pa  Pa10  1  0.00000000  0.84262200  0.83527100  1
  Pa  Pa11  1  0.50000000  0.83460300  0.25297700  1
  Cl  Cl0  1  0.00000000  0.37611200  0.95537700  1
  Cl  Cl1  1  0.50000000  0.32532200  0.40169500  1
  Cl  Cl2  1  0.50000000  0.42640600  0.11529900  1
  Cl  Cl3  1  0.50000000  0.17467800  0.90169500  1
  Cl  Cl4  1  0.00000000  0.12388800  0.45537700  1
  Cl  Cl5  1  0.50000000  0.14125800  0.28092000  1
  Cl  Cl6  1  0.00000000  0.46830700  0.28040100  1
  Cl  Cl7  1  0.00000000  0.62388800  0.04462300  1
  Cl  Cl8  1  0.50000000  0.06750800  0.08414100  1
  Cl  Cl9  1  0.00000000  0.87611200  0.54462300  1
  Cl  Cl10  1  0.50000000  0.67467800  0.59830500  1
  Cl  Cl11  1  0.50000000  0.43249200  0.58414100  1
  Cl  Cl12  1  0.00000000  0.03169300  0.78040100  1
  Cl  Cl13  1  0.50000000  0.64125800  0.21908000  1
  Cl  Cl14  1  0.50000000  0.82532200  0.09830500  1
  Cl  Cl15  1  0.50000000  0.85874200  0.71908000  1
  Cl  Cl16  1  0.50000000  0.93249200  0.91585900  1
  Cl  Cl17  1  0.50000000  0.07359400  0.61529900  1
  Cl  Cl18  1  0.50000000  0.35874200  0.78092000  1
  Cl  Cl19  1  0.00000000  0.96830700  0.21959900  1
  Cl  Cl20  1  0.50000000  0.92640600  0.38470100  1
  Cl  Cl21  1  0.00000000  0.53169300  0.71959900  1
  Cl  Cl22  1  0.50000000  0.57359400  0.88470100  1
  Cl  Cl23  1  0.50000000  0.56750800  0.41585900  1
  O  O0  1  0.50000000  0.74063200  0.35260400  1
  O  O1  1  0.00000000  0.77509800  0.94633500  1
  O  O2  1  0.00000000  0.21794100  0.73686900  1
  O  O3  1  0.00000000  0.72490200  0.44633500  1
  O  O4  1  0.00000000  0.28205900  0.23686900  1
  O  O5  1  0.00000000  0.27509800  0.55366500  1
  O  O6  1  0.50000000  0.25936800  0.64739600  1
  O  O7  1  0.00000000  0.78205900  0.26313100  1
  O  O8  1  0.00000000  0.71794100  0.76313100  1
  O  O9  1  0.50000000  0.75936800  0.85260400  1
  O  O10  1  0.00000000  0.22490200  0.05366500  1
  O  O11  1  0.50000000  0.24063200  0.14739600  1
loop_
_geom_bond_atom_site_label_1
_geom_bond_atom_site_label_2
_geom_bond_distance
_geom_bond_site_symmetry_2
Cl0 Pa0 2.813648 1_456
Cl0 Pa0 2.813648 1_556
Cl1 Pa3 2.780907 1_555
Cl1 Pa2 2.800536 1_555
Cl2 Pa2 2.777182 1_555
Cl2 Pa0 2.795158 1_555
Cl3 Pa0 2.780907 1_556
Cl3 Pa8 2.800536 1_555
Cl4 Pa3 2.813648 1_555
Cl4 Pa3 2.813648 1_455
Cl5 Pa9 2.914386 1_655
Cl5 Pa9 2.914386 1_555
Cl5 Pa2 3.069524 1_555
Cl6 Pa2 2.950753 1_555
Cl6 Pa2 2.950753 1_455
Cl6 Pa7 3.104057 1_555
Cl7 Pa1 2.813648 1_454
Cl7 Pa1 2.813648 1_554
Cl8 Pa9 2.845094 1_655
Cl8 Pa9 2.845094 1_555
Cl9 Pa5 2.813648 1_555
Cl9 Pa5 2.813648 1_455
Cl10 Pa5 2.780907 1_555
Cl10 Pa4 2.800536 1_555
Cl11 Pa6 2.845094 1_655
Cl11 Pa6 2.845094 1_555
Cl12 Pa8 2.950753 1_555
Cl12 Pa8 2.950753 1_455
Cl12 Pa10 3.104057 1_545
Cl13 Pa7 2.914386 1_555
Cl13 Pa7 2.914386 1_655
Cl13 Pa11 3.069524 1_555
Cl14 Pa1 2.780907 1_554
Cl14 Pa11 2.800536 1_555
Cl15 Pa10 2.914386 1_555
Cl15 Pa10 2.914386 1_655
Cl15 Pa4 3.069524 1_555
Cl16 Pa10 2.845094 1_555
Cl16 Pa10 2.845094 1_655
Cl17 Pa8 2.777182 1_555
Cl17 Pa3 2.795158 1_555
Cl18 Pa6 2.914386 1_555
Cl18 Pa6 2.914386 1_655
Cl18 Pa8 3.069524 1_555
Cl19 Pa11 2.950753 1_455
Cl19 Pa11 2.950753 1_555
Cl19 Pa9 3.104057 1_565
Cl20 Pa11 2.777182 1_555
Cl20 Pa5 2.795158 1_555
Cl21 Pa4 2.950753 1_555
Cl21 Pa4 2.950753 1_455
Cl21 Pa6 3.104057 1_555
Cl22 Pa4 2.777182 1_555
Cl22 Pa1 2.795158 1_555
Cl23 Pa7 2.845094 1_655
Cl23 Pa7 2.845094 1_555
O0 Pa5 2.272516 1_555
O0 Pa11 2.319969 1_555
O0 Pa7 2.406689 1_655
O0 Pa7 2.406689 1_555
O1 Pa1 2.232572 1_455
O1 Pa1 2.232572 1_555
O1 Pa10 2.266400 1_555
O2 Pa8 2.172195 1_555
O2 Pa8 2.172195 1_455
O2 Pa6 2.337408 1_555
O3 Pa5 2.232572 1_455
O3 Pa5 2.232572 1_555
O3 Pa7 2.266400 1_555
O4 Pa2 2.172195 1_455
O4 Pa2 2.172195 1_555
O4 Pa9 2.337408 1_555
O5 Pa3 2.232572 1_455
O5 Pa3 2.232572 1_555
O5 Pa6 2.266400 1_555
O6 Pa3 2.272516 1_555
O6 Pa8 2.319969 1_555
O6 Pa6 2.406689 1_555
O6 Pa6 2.406689 1_655
O7 Pa11 2.172195 1_555
O7 Pa11 2.172195 1_455
O7 Pa7 2.337408 1_555
O8 Pa4 2.172195 1_555
O8 Pa4 2.172195 1_455
O8 Pa10 2.337408 1_555
O9 Pa1 2.272516 1_555
O9 Pa4 2.319969 1_555
O9 Pa10 2.406689 1_555
O9 Pa10 2.406689 1_655
O10 Pa0 2.232572 1_455
O10 Pa0 2.232572 1_555
O10 Pa9 2.266400 1_555
O11 Pa0 2.272516 1_555
O11 Pa2 2.319969 1_555
O11 Pa9 2.406689 1_555
O11 Pa9 2.406689 1_655
