# generated using pymatgen
data_TiO
_symmetry_space_group_name_H-M   'P 1'
_cell_length_a   4.28032000
_cell_length_b   5.82926359
_cell_length_c   18.06209358
_cell_angle_alpha   89.53085781
_cell_angle_beta   89.86035204
_cell_angle_gamma   89.75203344
_symmetry_Int_Tables_number   1
_chemical_formula_structural   TiO
_chemical_formula_sum   'Ti21 O21'
_cell_volume   450.64871986
_cell_formula_units_Z   21
loop_
 _symmetry_equiv_pos_site_id
 _symmetry_equiv_pos_as_xyz
  1  'x, y, z'
loop_
 _atom_site_type_symbol
 _atom_site_label
 _atom_site_symmetry_multiplicity
 _atom_site_fract_x
 _atom_site_fract_y
 _atom_site_fract_z
 _atom_site_occupancy
  Ti  Ti0  1  0.96816300  0.26176400  0.75559600  1
  Ti  Ti1  1  0.50000000  0.00000000  0.50000000  1
  Ti  Ti2  1  0.50000000  0.50000000  0.50000000  1
  Ti  Ti3  1  0.53087800  0.49698600  0.66733800  1
  Ti  Ti4  1  0.52684200  0.98912300  0.66877800  1
  Ti  Ti5  1  0.03183700  0.73823600  0.24440400  1
  Ti  Ti6  1  0.05204800  0.24866500  0.40822900  1
  Ti  Ti7  1  0.05880700  0.75243700  0.41317900  1
  Ti  Ti8  1  0.94119300  0.24756300  0.58682100  1
  Ti  Ti9  1  0.94795200  0.75133500  0.59177100  1
  Ti  Ti10  1  0.50000000  0.50000000  0.00000000  1
  Ti  Ti11  1  0.47309300  0.98479300  0.16103200  1
  Ti  Ti12  1  0.47292500  0.49863300  0.17007000  1
  Ti  Ti13  1  0.47315800  0.01087700  0.33122200  1
  Ti  Ti14  1  0.46912200  0.50301400  0.33266200  1
  Ti  Ti15  1  0.00480700  0.75415700  0.91919200  1
  Ti  Ti16  1  0.00733800  0.25280800  0.92404900  1
  Ti  Ti17  1  0.99266200  0.74719200  0.07595100  1
  Ti  Ti18  1  0.99519300  0.24584300  0.08080800  1
  Ti  Ti19  1  0.52707500  0.50136700  0.82993000  1
  Ti  Ti20  1  0.52690700  0.01520700  0.83896800  1
  O  O0  1  0.44381100  0.74770700  0.58562200  1
  O  O1  1  0.43124300  0.24573200  0.58359500  1
  O  O2  1  0.47277600  0.24130700  0.74915800  1
  O  O3  1  0.97547400  0.50703400  0.33045800  1
  O  O4  1  0.98021500  0.99493600  0.32728300  1
  O  O5  1  0.00000000  0.00000000  0.50000000  1
  O  O6  1  0.00000000  0.50000000  0.50000000  1
  O  O7  1  0.01978500  0.00506400  0.67271700  1
  O  O8  1  0.02452600  0.49296600  0.66954200  1
  O  O9  1  0.49172900  0.25087600  0.08431800  1
  O  O10  1  0.49287900  0.74390100  0.07852000  1
  O  O11  1  0.52722400  0.75869300  0.25084200  1
  O  O12  1  0.56875700  0.75426800  0.41640500  1
  O  O13  1  0.55618900  0.25229300  0.41437800  1
  O  O14  1  0.02487300  0.00998100  0.83769100  1
  O  O15  1  0.02373000  0.50553500  0.83719600  1
  O  O16  1  0.00000000  0.00000000  0.00000000  1
  O  O17  1  0.97627000  0.49446500  0.16280400  1
  O  O18  1  0.97512700  0.99001900  0.16230900  1
  O  O19  1  0.50712100  0.25609900  0.92148000  1
  O  O20  1  0.50827100  0.74912400  0.91568200  1
loop_
_geom_bond_atom_site_label_1
_geom_bond_atom_site_label_2
_geom_bond_distance
_geom_bond_site_symmetry_2
O0 Ti4 2.098619 1_555
O0 Ti3 2.101435 1_555
O0 Ti9 2.125092 1_455
O0 Ti2 2.136887 1_555
O0 Ti1 2.139265 1_565
O0 Ti9 2.161215 1_555
O1 Ti8 2.098221 1_455
O1 Ti1 2.109003 1_555
O1 Ti2 2.127975 1_555
O1 Ti3 2.158637 1_555
O1 Ti4 2.175386 1_545
O1 Ti8 2.183743 1_555
O2 Ti4 2.086331 1_545
O2 Ti20 2.094366 1_555
O2 Ti3 2.105365 1_555
O2 Ti19 2.126380 1_555
O2 Ti0 2.127797 1_555
O2 Ti0 2.165573 1_455
O3 Ti5 2.063293 1_655
O3 Ti6 2.076607 1_655
O3 Ti7 2.109030 1_655
O3 Ti14 2.113468 1_655
O3 Ti14 2.167842 1_555
O4 Ti6 2.112174 1_665
O4 Ti13 2.113797 1_665
O4 Ti7 2.116825 1_655
O4 Ti5 2.135667 1_655
O4 Ti13 2.172969 1_565
O5 Ti1 2.140160 1_455
O5 Ti1 2.140160 1_555
O5 Ti7 2.153386 1_545
O5 Ti8 2.153386 1_455
O5 Ti6 2.204538 1_555
O5 Ti9 2.204538 1_445
O6 Ti2 2.140160 1_455
O6 Ti2 2.140160 1_555
O6 Ti7 2.156706 1_555
O6 Ti8 2.156706 1_455
O6 Ti6 2.231333 1_555
O6 Ti9 2.231333 1_455
O7 Ti9 2.112174 1_445
O7 Ti4 2.113797 1_445
O7 Ti8 2.116825 1_455
O7 Ti0 2.135667 1_455
O7 Ti4 2.172969 1_545
O8 Ti0 2.063293 1_455
O8 Ti9 2.076607 1_455
O8 Ti8 2.109030 1_455
O8 Ti3 2.113468 1_455
O8 Ti3 2.167842 1_555
O9 Ti11 2.073027 1_545
O9 Ti10 2.096076 1_555
O9 Ti18 2.126769 1_455
O9 Ti12 2.127510 1_555
O9 Ti18 2.155845 1_555
O10 Ti10 2.016474 1_555
O10 Ti11 2.057366 1_555
O10 Ti17 2.139787 1_555
O10 Ti17 2.141704 1_455
O10 Ti12 2.178858 1_555
O11 Ti13 2.086331 1_565
O11 Ti11 2.094366 1_555
O11 Ti14 2.105365 1_555
O11 Ti12 2.126380 1_555
O11 Ti5 2.127797 1_555
O11 Ti5 2.165573 1_655
O12 Ti7 2.098221 1_655
O12 Ti1 2.109003 1_565
O12 Ti2 2.127975 1_555
O12 Ti14 2.158637 1_555
O12 Ti13 2.175386 1_565
O12 Ti7 2.183743 1_555
O13 Ti13 2.098619 1_555
O13 Ti14 2.101435 1_555
O13 Ti6 2.125092 1_655
O13 Ti2 2.136887 1_555
O13 Ti1 2.139265 1_555
O13 Ti6 2.161215 1_555
O14 Ti15 2.088734 1_545
O14 Ti0 2.091612 1_455
O14 Ti16 2.115879 1_555
O14 Ti20 2.131611 1_455
O14 Ti20 2.149397 1_555
O15 Ti0 2.070517 1_455
O15 Ti15 2.081814 1_555
O15 Ti19 2.130464 1_455
O15 Ti16 2.144471 1_555
O15 Ti19 2.158196 1_555
O16 Ti16 2.005429 1_554
O16 Ti17 2.005429 1_445
O16 Ti15 2.053856 1_544
O16 Ti18 2.053856 1_455
O17 Ti5 2.070517 1_655
O17 Ti18 2.081814 1_555
O17 Ti12 2.130464 1_655
O17 Ti17 2.144471 1_555
O17 Ti12 2.158196 1_555
O18 Ti18 2.088734 1_565
O18 Ti5 2.091612 1_655
O18 Ti17 2.115879 1_555
O18 Ti11 2.131611 1_655
O18 Ti11 2.149397 1_555
O19 Ti10 2.016474 1_556
O19 Ti20 2.057366 1_555
O19 Ti16 2.139787 1_555
O19 Ti16 2.141704 1_655
O19 Ti19 2.178858 1_555
O20 Ti20 2.073027 1_565
O20 Ti10 2.096076 1_556
O20 Ti15 2.126769 1_655
O20 Ti19 2.127510 1_555
O20 Ti15 2.155845 1_555
