# generated using pymatgen
data_Ce14Si11Ni6
_symmetry_space_group_name_H-M   'P 1'
_cell_length_a   4.14532200
_cell_length_b   16.98707174
_cell_length_c   20.96836632
_cell_angle_alpha   113.30202092
_cell_angle_beta   89.99667836
_cell_angle_gamma   97.00789456
_symmetry_Int_Tables_number   1
_chemical_formula_structural   Ce14Si11Ni6
_chemical_formula_sum   'Ce28 Si22 Ni12'
_cell_volume   1344.07613799
_cell_formula_units_Z   2
loop_
 _symmetry_equiv_pos_site_id
 _symmetry_equiv_pos_as_xyz
  1  'x, y, z'
loop_
 _atom_site_type_symbol
 _atom_site_label
 _atom_site_symmetry_multiplicity
 _atom_site_fract_x
 _atom_site_fract_y
 _atom_site_fract_z
 _atom_site_occupancy
  Ce  Ce0  1  0.28596100  0.57751500  0.57547700  1
  Ce  Ce1  1  0.71436800  0.42746900  0.62489500  1
  Ce  Ce2  1  0.28831300  0.57555000  0.97651700  1
  Ce  Ce3  1  0.89610500  0.78967400  0.22135200  1
  Ce  Ce4  1  0.89169400  0.78379300  0.03810600  1
  Ce  Ce5  1  0.50499200  0.00752600  0.68097400  1
  Ce  Ce6  1  0.29189800  0.58195400  0.17612200  1
  Ce  Ce7  1  0.10708900  0.21658900  0.96202700  1
  Ce  Ce8  1  0.38508100  0.76883200  0.35258900  1
  Ce  Ce9  1  0.49591800  0.99194700  0.31858800  1
  Ce  Ce10  1  0.28633700  0.57731300  0.77186400  1
  Ce  Ce11  1  0.60689000  0.21613500  0.28376700  1
  Ce  Ce12  1  0.88720400  0.77191900  0.85102200  1
  Ce  Ce13  1  0.60679600  0.21938500  0.46182100  1
  Ce  Ce14  1  0.70739500  0.42290300  0.22787600  1
  Ce  Ce15  1  0.11508400  0.22897300  0.14976700  1
  Ce  Ce16  1  0.61582300  0.23141700  0.64686600  1
  Ce  Ce17  1  0.39325100  0.78342900  0.71626100  1
  Ce  Ce18  1  0.71011500  0.41736300  0.82298300  1
  Ce  Ce19  1  0.50121800  0.00022800  0.49970400  1
  Ce  Ce20  1  0.99784700  0.99205800  0.81734200  1
  Ce  Ce21  1  0.39003100  0.78033000  0.53734000  1
  Ce  Ce22  1  0.00604000  0.00818500  0.18261000  1
  Ce  Ce23  1  0.70982800  0.42554600  0.02403900  1
  Ce  Ce24  1  0.10617100  0.21034200  0.77812100  1
  Ce  Ce25  1  0.70920300  0.42154700  0.42404200  1
  Ce  Ce26  1  0.28399600  0.57248400  0.37358300  1
  Ce  Ce27  1  0.00219800  0.00051500  0.00033700  1
  Si  Si0  1  0.56778000  0.13405200  0.84079100  1
  Si  Si1  1  0.18450500  0.37301700  0.50759800  1
  Si  Si2  1  0.57638200  0.15200300  0.03721900  1
  Si  Si3  1  0.80932000  0.62603800  0.49144200  1
  Si  Si4  1  0.92652400  0.85033000  0.46480500  1
  Si  Si5  1  0.07340000  0.15011800  0.53479600  1
  Si  Si6  1  0.04461000  0.08891900  0.62196600  1
  Si  Si7  1  0.54661100  0.08834800  0.12399000  1
  Si  Si8  1  0.81634700  0.63769900  0.69386500  1
  Si  Si9  1  0.42503800  0.84860700  0.96324600  1
  Si  Si10  1  0.45847100  0.91248900  0.87657700  1
  Si  Si11  1  0.80869200  0.61815200  0.89007900  1
  Si  Si12  1  0.18744400  0.37335800  0.70923200  1
  Si  Si13  1  0.18617100  0.37111700  0.90981800  1
  Si  Si14  1  0.43398600  0.86648000  0.15870500  1
  Si  Si15  1  0.95578800  0.91095800  0.37735800  1
  Si  Si16  1  0.18566000  0.38192500  0.10981100  1
  Si  Si17  1  0.93500600  0.86565900  0.65753500  1
  Si  Si18  1  0.06363200  0.13326800  0.34193900  1
  Si  Si19  1  0.81672000  0.62945800  0.09036000  1
  Si  Si20  1  0.17907400  0.36211200  0.30616000  1
  Si  Si21  1  0.81372000  0.62748900  0.28946600  1
  Ni  Ni0  1  0.85649200  0.71001000  0.61420400  1
  Ni  Ni1  1  0.34796800  0.69591100  0.91468600  1
  Ni  Ni2  1  0.97014900  0.93737000  0.58080800  1
  Ni  Ni3  1  0.47023400  0.93592600  0.08003200  1
  Ni  Ni4  1  0.64697600  0.30473300  0.08585200  1
  Ni  Ni5  1  0.03414700  0.06240400  0.41901000  1
  Ni  Ni6  1  0.64647200  0.29022000  0.88584000  1
  Ni  Ni7  1  0.35790100  0.71081500  0.11482500  1
  Ni  Ni8  1  0.53319900  0.06524400  0.92002400  1
  Ni  Ni9  1  0.14336700  0.28820400  0.38516700  1
  Ni  Ni10  1  0.15413600  0.30158800  0.58376600  1
  Ni  Ni11  1  0.84806100  0.69855600  0.41563400  1
loop_
_geom_bond_atom_site_label_1
_geom_bond_atom_site_label_2
_geom_bond_distance
_geom_bond_site_symmetry_2
Ce0 Ni0 2.902773 1_455
Ce0 Ni0 2.928112 1_555
Ce0 Si3 3.033696 1_555
Ce0 Si3 3.038934 1_455
Ce0 Si8 3.078049 1_455
Ce0 Si8 3.079894 1_555
Ce0 Si1 3.162589 1_555
Ce1 Ni10 2.835320 1_555
Ce1 Ni10 2.851590 1_655
Ce1 Si1 3.056530 1_655
Ce1 Si1 3.071522 1_555
Ce1 Si12 3.088506 1_555
Ce1 Si12 3.089365 1_655
Ce1 Si8 3.251039 1_555
Ce2 Ni1 2.810007 1_555
Ce2 Ni7 2.887865 1_556
Ce2 Si19 3.010869 1_456
Ce2 Si19 3.019351 1_556
Ce2 Si11 3.019657 1_555
Ce2 Si11 3.025036 1_455
Ce2 Si13 3.161298 1_555
Ce3 Ni7 2.943700 1_555
Ce3 Ni7 2.950649 1_655
Ce3 Si19 2.987819 1_555
Ce3 Si14 3.007505 1_655
Ce3 Si14 3.010577 1_555
Ce3 Si15 3.090354 1_555
Ce3 Si21 3.553905 1_555
Ce4 Si9 3.050499 1_554
Ce4 Si9 3.055661 1_654
Ce4 Si14 3.131632 1_555
Ce4 Ni3 3.131748 1_555
Ce4 Si14 3.137041 1_655
Ce4 Ni3 3.145385 1_655
Ce4 Ni7 3.151011 1_555
Ce4 Ni7 3.165788 1_655
Ce4 Ni1 3.182636 1_554
Ce4 Ni1 3.183586 1_654
Ce4 Si19 3.200654 1_555
Ce4 Si11 3.244068 1_554
Ce5 Ni2 2.850020 1_445
Ce5 Ni2 2.851246 1_545
Ce5 Si6 3.007442 1_655
Ce5 Si6 3.013682 1_555
Ce5 Si17 3.050501 1_445
Ce5 Si17 3.055769 1_545
Ce5 Si0 3.175280 1_555
Ce6 Ni7 2.932262 1_555
Ce6 Si21 3.010600 1_555
Ce6 Si21 3.015794 1_455
Ce6 Si19 3.049810 1_455
Ce6 Si19 3.055700 1_555
Ce6 Si16 3.093555 1_555
Ce7 Si2 3.050981 1_456
Ce7 Si2 3.060013 1_556
Ce7 Ni8 3.124284 1_455
Ce7 Ni8 3.133978 1_555
Ce7 Si0 3.137208 1_455
Ce7 Si0 3.147714 1_555
Ce7 Ni6 3.150600 1_455
Ce7 Ni6 3.164464 1_555
Ce7 Ni4 3.177926 1_556
Ce7 Ni4 3.200265 1_456
Ce7 Si13 3.203111 1_555
Ce7 Si16 3.238518 1_556
Ce8 Ni11 2.943450 1_555
Ce8 Ni11 2.954323 1_455
Ce8 Si4 3.021732 1_455
Ce8 Si4 3.025878 1_555
Ce8 Si21 3.033212 1_555
Ce8 Si21 3.037247 1_455
Ce8 Si15 3.051202 1_555
Ce8 Si15 3.053140 1_455
Ce9 Ni5 2.845205 1_565
Ce9 Ni5 2.863460 1_665
Ce9 Si15 3.002306 1_455
Ce9 Si15 3.004475 1_555
Ce9 Si18 3.038534 1_665
Ce9 Si18 3.055087 1_565
Ce9 Si14 3.171938 1_555
Ce10 Ni1 2.862467 1_555
Ce10 Si8 3.054695 1_555
Ce10 Si8 3.055842 1_455
Ce10 Si11 3.085464 1_455
Ce10 Si11 3.096424 1_555
Ce10 Si12 3.154353 1_555
Ce11 Ni9 2.868031 1_555
Ce11 Ni9 2.870873 1_655
Ce11 Si18 3.010509 1_655
Ce11 Si18 3.020824 1_555
Ce11 Si20 3.104691 1_655
Ce11 Si20 3.109078 1_555
Ce11 Si7 3.180065 1_555
Ce12 Ni1 3.010476 1_655
Ce12 Si9 3.011921 1_655
Ce12 Si11 3.014030 1_555
Ce12 Si9 3.014627 1_555
Ce12 Ni1 3.017408 1_555
Ce12 Si10 3.028326 1_555
Ce12 Si10 3.033961 1_655
Ce12 Si8 3.168016 1_555
Ce13 Si5 3.066605 1_555
Ce13 Si5 3.073639 1_655
Ce13 Ni9 3.110547 1_555
Ce13 Ni9 3.122353 1_655
Ce13 Si18 3.132284 1_655
Ce13 Si18 3.133071 1_555
Ce13 Ni10 3.134165 1_555
Ce13 Si1 3.151071 1_555
Ce13 Si1 3.156037 1_655
Ce13 Ni10 3.168393 1_655
Ce13 Ni5 3.180187 1_555
Ce13 Ni5 3.211501 1_655
Ce14 Ni4 2.847578 1_555
Ce14 Si20 3.057131 1_555
Ce14 Si20 3.068887 1_655
Ce14 Si16 3.084907 1_655
Ce14 Si16 3.092039 1_555
Ce14 Si21 3.164707 1_555
Ce15 Ni4 2.997594 1_555
Ce15 Si16 3.012455 1_555
Ce15 Si2 3.017262 1_555
Ce15 Si2 3.018700 1_455
Ce15 Si7 3.026003 1_455
Ce15 Ni4 3.031818 1_455
Ce15 Si7 3.036362 1_555
Ce15 Si20 3.150436 1_555
Ce16 Ni10 2.939214 1_555
Ce16 Ni10 2.957928 1_655
Ce16 Si5 3.016354 1_655
Ce16 Si5 3.026642 1_555
Ce16 Si12 3.037611 1_555
Ce16 Si12 3.041418 1_655
Ce16 Si6 3.056213 1_555
Ce16 Si6 3.056348 1_655
Ce17 Ni0 2.880067 1_555
Ce17 Ni0 2.880555 1_455
Ce17 Si17 3.014042 1_455
Ce17 Si17 3.017606 1_555
Ce17 Si8 3.092640 1_555
Ce17 Si8 3.115063 1_455
Ce17 Si10 3.194446 1_555
Ce18 Ni6 2.929927 1_555
Ce18 Si12 3.018740 1_655
Ce18 Si12 3.022740 1_555
Ce18 Si13 3.055667 1_655
Ce18 Si13 3.060146 1_555
Ce18 Si11 3.105397 1_555
Ce19 Ni5 3.104903 1_555
Ce19 Si5 3.113619 1_655
Ce19 Ni5 3.114956 1_655
Ce19 Si4 3.120962 1_445
Ce19 Ni2 3.121098 1_445
Ce19 Si4 3.122283 1_545
Ce19 Ni2 3.123199 1_545
Ce19 Si5 3.128747 1_555
Ce19 Si6 3.167462 1_655
Ce19 Si15 3.170247 1_545
Ce19 Si6 3.172420 1_555
Ce19 Si15 3.174763 1_445
Ce20 Ni8 2.883715 1_665
Ce20 Ni8 2.890907 1_565
Ce20 Si10 2.993210 1_555
Ce20 Si10 2.995639 1_655
Ce20 Si0 3.051684 1_665
Ce20 Si0 3.057605 1_565
Ce20 Si17 3.174578 1_555
Ce21 Si4 3.067182 1_455
Ce21 Si4 3.075429 1_555
Ce21 Si17 3.128440 1_455
Ce21 Ni0 3.129566 1_455
Ce21 Ni0 3.138565 1_555
Ce21 Si17 3.141313 1_555
Ce21 Ni11 3.144134 1_555
Ce21 Ni11 3.150256 1_455
Ce21 Si3 3.151573 1_555
Ce21 Si3 3.171051 1_455
Ce21 Ni2 3.191514 1_455
Ce21 Ni2 3.200202 1_555
Ce22 Ni3 2.883189 1_445
Ce22 Ni3 2.884924 1_545
Ce22 Si7 2.991579 1_455
Ce22 Si7 2.994306 1_555
Ce22 Si14 3.046294 1_545
Ce22 Si14 3.053130 1_445
Ce22 Si18 3.161221 1_555
Ce23 Ni4 2.816648 1_555
Ce23 Ni6 2.886733 1_554
Ce23 Si13 3.010314 1_554
Ce23 Si16 3.014257 1_655
Ce23 Si16 3.027532 1_555
Ce23 Si13 3.030354 1_654
Ce23 Si19 3.153277 1_555
Ce24 Ni6 2.963084 1_455
Ce24 Ni6 2.965380 1_555
Ce24 Si13 3.001152 1_555
Ce24 Si0 3.003426 1_555
Ce24 Si0 3.004742 1_455
Ce24 Si6 3.093399 1_555
Ce24 Si12 3.578445 1_555
Ce25 Ni9 2.922309 1_555
Ce25 Ni9 2.927125 1_655
Ce25 Si1 3.028312 1_655
Ce25 Si1 3.030638 1_555
Ce25 Si20 3.070472 1_655
Ce25 Si20 3.072978 1_555
Ce25 Si3 3.162352 1_555
Ce26 Ni11 2.842475 1_455
Ce26 Ni11 2.848788 1_555
Ce26 Si3 3.068488 1_555
Ce26 Si3 3.076411 1_455
Ce26 Si21 3.087572 1_455
Ce26 Si21 3.099784 1_555
Ce26 Si20 3.253037 1_555
Ce27 Ni3 3.117496 1_445
Ce27 Ni3 3.119434 1_545
Ce27 Ni8 3.124756 1_554
Ce27 Ni8 3.132362 1_454
Ce27 Si2 3.133137 1_555
Ce27 Si9 3.138755 1_544
Ce27 Si2 3.141595 1_455
Ce27 Si9 3.145436 1_444
Ce27 Si7 3.184618 1_455
Ce27 Si10 3.187266 1_444
Ce27 Si7 3.187507 1_555
Ce27 Si10 3.188596 1_544
Si2 Si7 2.453319 1_555
Si5 Si6 2.430829 1_555
Si10 Si9 2.454160 1_555
Si15 Si4 2.429216 1_555
Ni0 Si3 2.392919 1_555
Ni0 Si17 2.410756 1_555
Ni0 Si8 2.428996 1_555
Ni1 Si9 2.361193 1_555
Ni1 Si11 2.394738 1_555
Ni1 Si11 2.397652 1_455
Ni2 Si4 2.285790 1_555
Ni2 Si6 2.348590 1_665
Ni2 Si17 2.366579 1_555
Ni3 Si9 2.300100 1_554
Ni3 Si7 2.359168 1_565
Ni3 Si14 2.373165 1_555
Ni4 Si2 2.361833 1_555
Ni4 Si16 2.391504 1_555
Ni4 Si16 2.392204 1_655
Ni5 Si5 2.284709 1_555
Ni5 Si15 2.346315 1_445
Ni5 Si18 2.361946 1_555
Ni6 Si0 2.417140 1_555
Ni6 Si13 2.418618 1_655
Ni6 Si13 2.423869 1_555
Ni7 Si14 2.410390 1_555
Ni7 Si19 2.423001 1_555
Ni7 Si19 2.426632 1_455
Ni8 Si2 2.305041 1_556
Ni8 Si10 2.364919 1_545
Ni8 Si0 2.375372 1_555
Ni9 Si1 2.389373 1_555
Ni9 Si18 2.399617 1_555
Ni9 Si20 2.437779 1_555
Ni10 Si5 2.342329 1_555
Ni10 Si1 2.352612 1_555
Ni10 Si12 2.418272 1_555
Ni11 Si4 2.346972 1_555
Ni11 Si3 2.360279 1_555
Ni11 Si21 2.430611 1_555
