# generated using pymatgen
data_CdI2
_symmetry_space_group_name_H-M   'P 1'
_cell_length_a   4.34203695
_cell_length_b   4.34203695
_cell_length_c   139.58235400
_cell_angle_alpha   90.00000000
_cell_angle_beta   90.00000000
_cell_angle_gamma   119.99998400
_symmetry_Int_Tables_number   1
_chemical_formula_structural   CdI2
_chemical_formula_sum   'Cd19 I38'
_cell_volume   2279.02059491
_cell_formula_units_Z   19
loop_
 _symmetry_equiv_pos_site_id
 _symmetry_equiv_pos_as_xyz
  1  'x, y, z'
loop_
 _atom_site_type_symbol
 _atom_site_label
 _atom_site_symmetry_multiplicity
 _atom_site_fract_x
 _atom_site_fract_y
 _atom_site_fract_z
 _atom_site_occupancy
  Cd  Cd0  1  0.00000000  0.00000000  0.53948700  1
  Cd  Cd1  1  0.66666700  0.33333300  0.96052400  1
  Cd  Cd2  1  0.00000000  0.00000000  0.32895600  1
  Cd  Cd3  1  0.66666700  0.33333300  0.59209500  1
  Cd  Cd4  1  0.00000000  0.00000000  0.43420200  1
  Cd  Cd5  1  0.66666700  0.33333300  0.06576900  1
  Cd  Cd6  1  0.66666700  0.33333300  0.48683600  1
  Cd  Cd7  1  0.00000000  0.00000000  0.64473900  1
  Cd  Cd8  1  0.00000000  0.00000000  0.01316800  1
  Cd  Cd9  1  0.66666700  0.33333300  0.69736300  1
  Cd  Cd10  1  0.00000000  0.00000000  0.11842100  1
  Cd  Cd11  1  0.66666700  0.33333300  0.27632800  1
  Cd  Cd12  1  0.00000000  0.00000000  0.74999800  1
  Cd  Cd13  1  0.66666700  0.33333300  0.17105600  1
  Cd  Cd14  1  0.66666700  0.33333300  0.90790400  1
  Cd  Cd15  1  0.66666700  0.33333300  0.38155900  1
  Cd  Cd16  1  0.00000000  0.00000000  0.22370500  1
  Cd  Cd17  1  0.66666700  0.33333300  0.80261800  1
  Cd  Cd18  1  0.00000000  0.00000000  0.85526900  1
  I  I0  1  0.33333300  0.66666700  0.84287600  1
  I  I1  1  0.33333300  0.66666700  0.73760000  1
  I  I2  1  0.33333300  0.66666700  0.47444400  1
  I  I3  1  0.00000000  0.00000000  0.28872200  1
  I  I4  1  0.66666700  0.33333300  0.02554800  1
  I  I5  1  0.66666700  0.33333300  0.44659100  1
  I  I6  1  0.33333300  0.66666700  0.26391900  1
  I  I7  1  0.66666700  0.33333300  0.65712900  1
  I  I8  1  0.33333300  0.66666700  0.05337200  1
  I  I9  1  0.66666700  0.33333300  0.86766100  1
  I  I10  1  0.00000000  0.00000000  0.92029300  1
  I  I11  1  0.66666700  0.33333300  0.13081200  1
  I  I12  1  0.33333300  0.66666700  0.42182000  1
  I  I13  1  0.00000000  0.00000000  0.97292300  1
  I  I14  1  0.33333300  0.66666700  0.21132300  1
  I  I15  1  0.00000000  0.00000000  0.81500700  1
  I  I16  1  0.33333300  0.66666700  0.68497300  1
  I  I17  1  0.00000000  0.00000000  0.07815600  1
  I  I18  1  0.66666700  0.33333300  0.23609900  1
  I  I19  1  0.33333300  0.66666700  0.89550400  1
  I  I20  1  0.66666700  0.33333300  0.55186900  1
  I  I21  1  0.00000000  0.00000000  0.39395300  1
  I  I22  1  0.66666700  0.33333300  0.76238600  1
  I  I23  1  0.66666700  0.33333300  0.34133900  1
  I  I24  1  0.33333300  0.66666700  0.00078100  1
  I  I25  1  0.00000000  0.00000000  0.60448800  1
  I  I26  1  0.33333300  0.66666700  0.36917900  1
  I  I27  1  0.00000000  0.00000000  0.70975800  1
  I  I28  1  0.33333300  0.66666700  0.52708800  1
  I  I29  1  0.33333300  0.66666700  0.94814200  1
  I  I30  1  0.00000000  0.00000000  0.18344700  1
  I  I31  1  0.33333300  0.66666700  0.79023800  1
  I  I32  1  0.33333300  0.66666700  0.57971600  1
  I  I33  1  0.33333300  0.66666700  0.63235200  1
  I  I34  1  0.00000000  0.00000000  0.49923700  1
  I  I35  1  0.33333300  0.66666700  0.15867500  1
  I  I36  1  0.33333300  0.66666700  0.10602300  1
  I  I37  1  0.33333300  0.66666700  0.31655800  1
loop_
_geom_bond_atom_site_label_1
_geom_bond_atom_site_label_2
_geom_bond_distance
_geom_bond_site_symmetry_2
Cd0 I20 3.044908 1_455
Cd0 I20 3.044912 1_555
Cd0 I20 3.044912 1_445
Cd0 I28 3.046256 1_545
Cd0 I28 3.046259 1_445
Cd0 I28 3.046259 1_555
Cd1 I29 3.044909 1_545
Cd1 I29 3.044909 1_655
Cd1 I29 3.044914 1_555
Cd1 I13 3.046256 1_655
Cd1 I13 3.046259 1_665
Cd1 I13 3.046259 1_555
Cd2 I23 3.044987 1_455
Cd2 I23 3.044991 1_555
Cd2 I23 3.044991 1_445
Cd2 I37 3.046176 1_545
Cd2 I37 3.046180 1_445
Cd2 I37 3.046180 1_555
Cd3 I32 3.044671 1_545
Cd3 I32 3.044671 1_655
Cd3 I32 3.044677 1_555
Cd3 I25 3.045780 1_655
Cd3 I25 3.045784 1_555
Cd3 I25 3.045784 1_665
Cd4 I12 3.044908 1_545
Cd4 I12 3.044912 1_445
Cd4 I12 3.044912 1_555
Cd4 I5 3.045463 1_455
Cd4 I5 3.045466 1_555
Cd4 I5 3.045466 1_445
Cd5 I17 3.045304 1_655
Cd5 I17 3.045308 1_555
Cd5 I17 3.045308 1_665
Cd5 I8 3.046098 1_545
Cd5 I8 3.046098 1_655
Cd5 I8 3.046103 1_555
Cd6 I2 3.045701 1_545
Cd6 I2 3.045701 1_655
Cd6 I2 3.045707 1_555
Cd6 I34 3.046414 1_655
Cd6 I34 3.046418 1_555
Cd6 I34 3.046418 1_665
Cd7 I33 3.045304 1_545
Cd7 I33 3.045308 1_555
Cd7 I33 3.045308 1_445
Cd7 I7 3.045542 1_455
Cd7 I7 3.045546 1_555
Cd7 I7 3.045546 1_445
Cd8 I4 3.044750 1_455
Cd8 I4 3.044753 1_445
Cd8 I4 3.044753 1_555
Cd8 I24 3.045304 1_545
Cd8 I24 3.045308 1_555
Cd8 I24 3.045308 1_445
Cd9 I16 3.045543 1_545
Cd9 I16 3.045543 1_655
Cd9 I16 3.045548 1_555
Cd9 I27 3.045938 1_655
Cd9 I27 3.045942 1_665
Cd9 I27 3.045942 1_555
Cd10 I11 3.045621 1_455
Cd10 I11 3.045625 1_445
Cd10 I11 3.045625 1_555
Cd10 I36 3.046176 1_545
Cd10 I36 3.046180 1_555
Cd10 I36 3.046180 1_445
Cd11 I3 3.045859 1_655
Cd11 I3 3.045863 1_665
Cd11 I3 3.045863 1_555
Cd11 I6 3.047049 1_545
Cd11 I6 3.047049 1_655
Cd11 I6 3.047055 1_555
Cd12 I22 3.045384 1_455
Cd12 I22 3.045387 1_445
Cd12 I22 3.045387 1_555
Cd12 I1 3.046176 1_545
Cd12 I1 3.046180 1_555
Cd12 I1 3.046180 1_445
Cd13 I35 3.044829 1_545
Cd13 I35 3.044829 1_655
Cd13 I35 3.044835 1_555
Cd13 I30 3.045621 1_655
Cd13 I30 3.045625 1_665
Cd13 I30 3.045625 1_555
Cd14 I10 3.045463 1_655
Cd14 I10 3.045466 1_555
Cd14 I10 3.045466 1_665
Cd14 I19 3.046335 1_655
Cd14 I19 3.046335 1_545
Cd14 I19 3.046341 1_555
Cd15 I26 3.044750 1_545
Cd15 I26 3.044750 1_655
Cd15 I26 3.044756 1_555
Cd15 I21 3.045859 1_655
Cd15 I21 3.045863 1_665
Cd15 I21 3.045863 1_555
Cd16 I14 3.044908 1_545
Cd16 I14 3.044912 1_445
Cd16 I14 3.044912 1_555
Cd16 I18 3.045859 1_455
Cd16 I18 3.045863 1_445
Cd16 I18 3.045863 1_555
Cd17 I31 3.044750 1_655
Cd17 I31 3.044750 1_545
Cd17 I31 3.044756 1_555
Cd17 I15 3.045463 1_655
Cd17 I15 3.045466 1_665
Cd17 I15 3.045466 1_555
Cd18 I9 3.045701 1_455
Cd18 I9 3.045704 1_555
Cd18 I9 3.045704 1_445
Cd18 I0 3.045780 1_545
Cd18 I0 3.045784 1_555
Cd18 I0 3.045784 1_445
