# generated using pymatgen
data_FeHO2
_symmetry_space_group_name_H-M   'P 1'
_cell_length_a   6.11941700
_cell_length_b   10.66591647
_cell_length_c   11.29527155
_cell_angle_alpha   90.07818418
_cell_angle_beta   93.09423486
_cell_angle_gamma   94.85061637
_symmetry_Int_Tables_number   1
_chemical_formula_structural   FeHO2
_chemical_formula_sum   'Fe16 H16 O32'
_cell_volume   733.50888441
_cell_formula_units_Z   16
loop_
 _symmetry_equiv_pos_site_id
 _symmetry_equiv_pos_as_xyz
  1  'x, y, z'
loop_
 _atom_site_type_symbol
 _atom_site_label
 _atom_site_symmetry_multiplicity
 _atom_site_fract_x
 _atom_site_fract_y
 _atom_site_fract_z
 _atom_site_occupancy
  Fe  Fe0  1  0.02837800  0.63597700  0.09827500  1
  Fe  Fe1  1  0.99379300  0.86030100  0.64695000  1
  Fe  Fe2  1  0.28389400  0.14120200  0.57436600  1
  Fe  Fe3  1  0.24676200  0.32938300  0.12386600  1
  Fe  Fe4  1  0.95281600  0.32202500  0.84015200  1
  Fe  Fe5  1  0.97827100  0.13521200  0.30417000  1
  Fe  Fe6  1  0.22323400  0.80820200  0.37560900  1
  Fe  Fe7  1  0.23318700  0.65597600  0.81990400  1
  Fe  Fe8  1  0.51375400  0.67104600  0.09574900  1
  Fe  Fe9  1  0.50269000  0.84051100  0.64443700  1
  Fe  Fe10  1  0.80854900  0.17442600  0.58617400  1
  Fe  Fe11  1  0.73688400  0.29059700  0.12047600  1
  Fe  Fe12  1  0.45308700  0.31091100  0.83040600  1
  Fe  Fe13  1  0.49487500  0.11966100  0.30282000  1
  Fe  Fe14  1  0.70578300  0.80512700  0.35889000  1
  Fe  Fe15  1  0.73678300  0.62105600  0.81824100  1
  H  H0  1  0.98848600  0.97472200  0.44554100  1
  H  H1  1  0.96043800  0.61347000  0.61564800  1
  H  H2  1  0.26331600  0.46845000  0.92429200  1
  H  H3  1  0.19941700  0.07869200  0.10382300  1
  H  H4  1  0.12691600  0.32734200  0.64903200  1
  H  H5  1  0.99944000  0.38407700  0.31483900  1
  H  H6  1  0.32123300  0.84091900  0.16694000  1
  H  H7  1  0.31198500  0.55148100  0.24162700  1
  H  H8  1  0.28116300  0.89898900  0.85039600  1
  H  H9  1  0.45180700  0.60109100  0.61900000  1
  H  H10  1  0.66005900  0.13747000  0.77075500  1
  H  H11  1  0.54480800  0.00278000  0.50745100  1
  H  H12  1  0.53620100  0.36996800  0.31828400  1
  H  H13  1  0.86349500  0.80551100  0.16506600  1
  H  H14  1  0.69876200  0.49418500  0.04148400  1
  H  H15  1  0.76368000  0.90135400  0.84223700  1
  O  O0  1  0.97645100  0.70677600  0.33844700  1
  O  O1  1  0.98205600  0.94836900  0.36097600  1
  O  O2  1  0.97296800  0.65724200  0.69145600  1
  O  O3  1  0.99386900  0.66376100  0.92189100  1
  O  O4  1  0.19535000  0.21632900  0.84580000  1
  O  O5  1  0.23006600  0.46430400  0.83868500  1
  O  O6  1  0.22192900  0.13429700  0.17282200  1
  O  O7  1  0.25562700  0.16588000  0.40854400  1
  O  O8  1  0.96655900  0.32680900  0.65757500  1
  O  O9  1  0.02950100  0.04193500  0.61585600  1
  O  O10  1  0.00299400  0.32449200  0.24980900  1
  O  O11  1  0.98148400  0.33108000  0.02006900  1
  O  O12  1  0.26475200  0.78296200  0.10385800  1
  O  O13  1  0.28397400  0.52897700  0.15654700  1
  O  O14  1  0.26450100  0.84870900  0.77755200  1
  O  O15  1  0.23215200  0.82180900  0.54664400  1
  O  O16  1  0.42946800  0.69288200  0.34663700  1
  O  O17  1  0.46023100  0.93547700  0.34421500  1
  O  O18  1  0.47572500  0.65076100  0.69137400  1
  O  O19  1  0.50516100  0.66571100  0.92681000  1
  O  O20  1  0.69356200  0.18667000  0.84278000  1
  O  O21  1  0.71178900  0.44073300  0.82671500  1
  O  O22  1  0.72731500  0.12080900  0.18080400  1
  O  O23  1  0.74820400  0.16420900  0.41212500  1
  O  O24  1  0.42075400  0.28067100  0.65999000  1
  O  O25  1  0.53312600  0.03072200  0.59114700  1
  O  O26  1  0.50758100  0.31638100  0.24838000  1
  O  O27  1  0.48286800  0.32669400  0.01433100  1
  O  O28  1  0.70572000  0.80498900  0.17363400  1
  O  O29  1  0.73553400  0.54161400  0.11594500  1
  O  O30  1  0.75564800  0.85155600  0.76956200  1
  O  O31  1  0.73517200  0.81988200  0.53616300  1
loop_
_geom_bond_atom_site_label_1
_geom_bond_atom_site_label_2
_geom_bond_distance
_geom_bond_site_symmetry_2
Fe0 O29 1.999585 1_455
Fe0 O3 2.017044 1_454
Fe0 O12 2.039709 1_555
Fe0 O13 2.091620 1_555
Fe1 O15 1.964226 1_655
Fe1 O9 1.965389 1_665
Fe1 O31 1.981357 1_555
Fe1 O30 2.060521 1_555
Fe1 O14 2.169566 1_655
Fe1 O2 2.218761 1_555
Fe2 O24 1.883500 1_555
Fe2 O9 1.888234 1_555
Fe2 O7 1.892463 1_555
Fe2 O25 2.005970 1_555
Fe3 O11 1.951845 1_455
Fe3 O27 1.954222 1_555
Fe3 O26 2.083335 1_555
Fe3 O10 2.113706 1_555
Fe3 O6 2.148771 1_555
Fe3 O13 2.151030 1_555
Fe4 O4 1.936662 1_655
Fe4 O21 2.023304 1_555
Fe4 O11 2.031772 1_556
Fe4 O20 2.054239 1_555
Fe4 O8 2.069025 1_555
Fe4 O5 2.179302 1_655
Fe5 O23 1.955147 1_555
Fe5 O22 2.013007 1_555
Fe5 O7 2.016582 1_655
Fe5 O1 2.096041 1_545
Fe5 O10 2.106515 1_655
Fe5 O6 2.160011 1_655
Fe6 O0 1.811391 1_455
Fe6 O16 1.875821 1_555
Fe6 O15 1.934617 1_555
Fe6 O17 1.948273 1_555
Fe6 O1 2.188160 1_455
Fe7 O3 1.918615 1_455
Fe7 O19 1.998088 1_555
Fe7 O5 2.054211 1_555
Fe7 O2 2.096459 1_455
Fe7 O14 2.106495 1_555
Fe7 O18 2.135402 1_555
Fe8 O19 1.906736 1_554
Fe8 O28 1.948346 1_555
Fe8 O12 2.019270 1_555
Fe8 O29 2.020899 1_555
Fe8 O13 2.119350 1_555
Fe9 O15 1.935679 1_555
Fe9 O31 1.951431 1_555
Fe9 O30 2.034710 1_555
Fe9 O18 2.088109 1_555
Fe9 O25 2.112928 1_565
Fe9 O14 2.156546 1_555
Fe10 O8 1.968110 1_555
Fe10 O23 1.981757 1_555
Fe10 O9 2.052563 1_655
Fe10 O25 2.183272 1_555
Fe11 O22 1.933139 1_555
Fe11 O11 1.946386 1_555
Fe11 O27 1.975654 1_555
Fe11 O26 2.101147 1_555
Fe11 O10 2.135128 1_655
Fe12 O4 1.815623 1_555
Fe12 O24 1.948024 1_555
Fe12 O21 2.015401 1_555
Fe12 O20 2.061343 1_555
Fe12 O27 2.080978 1_556
Fe12 O5 2.222393 1_555
Fe13 O23 1.954605 1_555
Fe13 O17 2.016325 1_545
Fe13 O7 2.030209 1_555
Fe13 O22 2.032620 1_555
Fe13 O6 2.179498 1_555
Fe13 O26 2.183506 1_555
Fe14 O16 1.985817 1_555
Fe14 O31 2.005488 1_555
Fe14 O0 2.057091 1_555
Fe14 O28 2.092495 1_555
Fe14 O17 2.131988 1_555
Fe14 O1 2.179853 1_555
Fe15 O21 1.919378 1_555
Fe15 O3 1.931752 1_555
Fe15 O19 2.009955 1_555
Fe15 O2 2.102223 1_555
Fe15 O18 2.132050 1_555
Fe15 O30 2.514436 1_555
H0 O1 0.993112 1_555
H1 O2 0.970986 1_555
H2 O5 0.977486 1_555
H3 O6 0.975426 1_555
H4 O8 0.990736 1_455
H5 O10 0.972982 1_655
H6 O12 0.972298 1_555
H7 O13 0.992546 1_555
H8 O14 0.977484 1_555
H9 O18 0.971161 1_555
H10 O20 0.970512 1_555
H11 O25 0.998891 1_555
H12 O26 0.973500 1_555
H13 O28 0.975064 1_555
H14 O29 0.986447 1_555
H15 O30 0.973867 1_555
