# generated using pymatgen
data_K3ZrH2S(OF)5
_symmetry_space_group_name_H-M   'P 1'
_cell_length_a   16.97985900
_cell_length_b   6.86724600
_cell_length_c   11.12204679
_cell_angle_alpha   53.21834947
_cell_angle_beta   90.00000000
_cell_angle_gamma   90.00000000
_symmetry_Int_Tables_number   1
_chemical_formula_structural   K3ZrH2S(OF)5
_chemical_formula_sum   'K12 Zr4 H8 S4 O20 F20'
_cell_volume   1038.70509379
_cell_formula_units_Z   4
loop_
 _symmetry_equiv_pos_site_id
 _symmetry_equiv_pos_as_xyz
  1  'x, y, z'
loop_
 _atom_site_type_symbol
 _atom_site_label
 _atom_site_symmetry_multiplicity
 _atom_site_fract_x
 _atom_site_fract_y
 _atom_site_fract_z
 _atom_site_occupancy
  K  K0  1  0.16734700  0.71693900  0.67714900  1
  K  K1  1  0.33265300  0.71693900  0.17714900  1
  K  K2  1  0.83265300  0.28306100  0.32285100  1
  K  K3  1  0.66734700  0.28306100  0.82285100  1
  K  K4  1  0.38496300  0.41715300  0.95720200  1
  K  K5  1  0.11503700  0.41715300  0.45720200  1
  K  K6  1  0.61503700  0.58284700  0.04279800  1
  K  K7  1  0.88496300  0.58284700  0.54279800  1
  K  K8  1  0.38220500  0.91893000  0.46868000  1
  K  K9  1  0.11779500  0.91893000  0.96868000  1
  K  K10  1  0.61779500  0.08107000  0.53132000  1
  K  K11  1  0.88220500  0.08107000  0.03132000  1
  Zr  Zr0  1  0.69256700  0.77716300  0.30164900  1
  Zr  Zr1  1  0.80743300  0.77716300  0.80164900  1
  Zr  Zr2  1  0.30743300  0.22283700  0.69835100  1
  Zr  Zr3  1  0.19256700  0.22283700  0.19835100  1
  H  H0  1  0.99683000  0.50380200  0.79940900  1
  H  H1  1  0.50317000  0.50380200  0.29940900  1
  H  H2  1  0.00317000  0.49619800  0.20059100  1
  H  H3  1  0.49683000  0.49619800  0.70059100  1
  H  H4  1  0.05965300  0.38338300  0.92391500  1
  H  H5  1  0.44034700  0.38338300  0.42391500  1
  H  H6  1  0.94034700  0.61661700  0.07608500  1
  H  H7  1  0.55965300  0.61661700  0.57608500  1
  S  S0  1  0.03899100  0.98074300  0.32689400  1
  S  S1  1  0.46100900  0.98074300  0.82689400  1
  S  S2  1  0.96100900  0.01925700  0.67310600  1
  S  S3  1  0.53899100  0.01925700  0.17310600  1
  O  O0  1  0.92043900  0.81479200  0.67776700  1
  O  O1  1  0.57956100  0.81479200  0.17776700  1
  O  O2  1  0.07956100  0.18520800  0.32223300  1
  O  O3  1  0.42043900  0.18520800  0.82223300  1
  O  O4  1  0.59195100  0.03333600  0.27830800  1
  O  O5  1  0.90804900  0.03333600  0.77830800  1
  O  O6  1  0.40804900  0.96666400  0.72169200  1
  O  O7  1  0.09195100  0.96666400  0.22169200  1
  O  O8  1  0.54235000  0.24843900  0.02066900  1
  O  O9  1  0.95765000  0.24843900  0.52066900  1
  O  O10  1  0.45765000  0.75156100  0.97933100  1
  O  O11  1  0.04235000  0.75156100  0.47933100  1
  O  O12  1  0.95819000  0.05032000  0.27082100  1
  O  O13  1  0.54181000  0.05032000  0.77082100  1
  O  O14  1  0.04181000  0.94968000  0.72917900  1
  O  O15  1  0.45819000  0.94968000  0.22917900  1
  O  O16  1  0.52828200  0.64515400  0.63836100  1
  O  O17  1  0.97171800  0.64515400  0.13836100  1
  O  O18  1  0.47171800  0.35484600  0.36163900  1
  O  O19  1  0.02828200  0.35484600  0.86163900  1
  F  F0  1  0.81028600  0.49368000  0.78209900  1
  F  F1  1  0.68971400  0.49368000  0.28209900  1
  F  F2  1  0.18971400  0.50632000  0.21790100  1
  F  F3  1  0.31028600  0.50632000  0.71790100  1
  F  F4  1  0.69019200  0.69756600  0.80459900  1
  F  F5  1  0.80980800  0.69756600  0.30459900  1
  F  F6  1  0.30980800  0.30243400  0.19540100  1
  F  F7  1  0.19019200  0.30243400  0.69540100  1
  F  F8  1  0.73887100  0.89697700  0.41768600  1
  F  F9  1  0.76112900  0.89697700  0.91768600  1
  F  F10  1  0.26112900  0.10302300  0.58231400  1
  F  F11  1  0.23887100  0.10302300  0.08231400  1
  F  F12  1  0.14099100  0.47756200  0.99094900  1
  F  F13  1  0.35900900  0.47756200  0.49094900  1
  F  F14  1  0.85900900  0.52243800  0.00905100  1
  F  F15  1  0.64099100  0.52243800  0.50905100  1
  F  F16  1  0.22276200  0.90696600  0.40027800  1
  F  F17  1  0.27723800  0.90696600  0.90027800  1
  F  F18  1  0.77723800  0.09303400  0.59972200  1
  F  F19  1  0.72276200  0.09303400  0.09972200  1
loop_
_geom_bond_atom_site_label_1
_geom_bond_atom_site_label_2
_geom_bond_distance
_geom_bond_site_symmetry_2
K0 O14 2.922451 1_555
K0 O11 2.962336 1_555
K1 O15 2.922451 1_555
K1 O10 2.962336 1_554
K2 O12 2.922451 1_555
K2 O9 2.962336 1_555
K3 O13 2.922451 1_555
K3 O8 2.962336 1_556
K4 O10 2.744896 1_555
K4 O8 2.828959 1_556
K4 O3 2.831376 1_555
K4 O15 3.061527 1_546
K4 O6 3.068868 1_555
K5 O11 2.744896 1_555
K5 O9 2.828959 1_455
K5 O2 2.831376 1_555
K5 O14 3.061527 1_545
K5 O7 3.068868 1_555
K6 O8 2.744896 1_555
K6 O10 2.828959 1_554
K6 O1 2.831376 1_555
K6 O13 3.061527 1_564
K6 O4 3.068868 1_555
K7 O9 2.744896 1_555
K7 O11 2.828959 1_655
K7 O0 2.831376 1_555
K7 O12 3.061527 1_565
K7 O5 3.068868 1_555
K8 O15 2.851518 1_555
K8 O18 2.901884 1_565
K8 O16 2.999917 1_555
K8 O6 3.053413 1_555
K9 O14 2.851518 1_555
K9 O19 2.901884 1_565
K9 O17 2.999917 1_456
K9 O7 3.053413 1_556
K10 O13 2.851518 1_555
K10 O16 2.901884 1_545
K10 O18 2.999917 1_555
K10 O4 3.053413 1_555
K11 O12 2.851518 1_555
K11 O17 2.901884 1_545
K11 O19 2.999917 1_654
K11 O5 3.053413 1_554
H0 O19 0.981208 1_655
H1 O18 0.981208 1_555
H2 O17 0.981208 1_455
H3 O16 0.981208 1_555
H4 O19 0.982060 1_555
H5 O18 0.982060 1_555
H6 O17 0.982060 1_555
H7 O16 0.982060 1_555
O0 S2 1.536748 1_565
O0 Zr1 2.284883 1_555
O1 S3 1.536748 1_565
O1 Zr0 2.284883 1_555
O2 S0 1.536748 1_545
O2 Zr3 2.284883 1_555
O3 S1 1.536748 1_545
O3 Zr2 2.284883 1_555
O4 S3 1.523982 1_555
O4 Zr0 2.352461 1_545
O5 S2 1.523982 1_555
O5 Zr1 2.352461 1_545
O6 S1 1.523982 1_555
O6 Zr2 2.352461 1_565
O7 S0 1.523982 1_555
O7 Zr3 2.352461 1_565
O8 S3 1.469445 1_555
O9 S2 1.469445 1_555
O10 S1 1.469445 1_555
O11 S0 1.469445 1_555
O12 S0 1.463812 1_645
O13 S1 1.463812 1_545
O14 S2 1.463812 1_465
O15 S3 1.463812 1_565
F0 Zr1 2.084792 1_555
F0 K7 2.667358 1_555
F0 K3 2.720865 1_555
F0 K11 2.792426 1_556
F1 Zr0 2.084792 1_555
F1 K6 2.667358 1_555
F1 K2 2.720865 1_555
F1 K10 2.792426 1_555
F2 Zr3 2.084792 1_555
F2 K5 2.667358 1_555
F2 K1 2.720865 1_555
F2 K9 2.792426 1_554
F3 Zr2 2.084792 1_555
F3 K4 2.667358 1_555
F3 K0 2.720865 1_555
F3 K8 2.792426 1_555
F4 Zr1 2.059469 1_555
F4 K6 2.601602 1_556
F4 K3 2.757227 1_555
F4 K10 2.845928 1_565
F5 Zr0 2.059469 1_555
F5 K7 2.601602 1_555
F5 K2 2.757227 1_555
F5 K11 2.845928 1_565
F6 Zr3 2.059469 1_555
F6 K4 2.601602 1_554
F6 K1 2.757227 1_555
F6 K8 2.845928 1_545
F7 Zr2 2.059469 1_555
F7 K5 2.601602 1_555
F7 K0 2.757227 1_555
F7 K9 2.845928 1_545
F8 Zr0 2.057267 1_555
F8 K2 2.707197 1_565
F8 K7 3.024665 1_555
F8 K10 3.055395 1_565
F9 Zr1 2.057267 1_555
F9 K3 2.707197 1_565
F9 K6 3.024665 1_556
F9 K11 3.055395 1_566
F10 Zr2 2.057267 1_555
F10 K0 2.707197 1_545
F10 K5 3.024665 1_555
F10 K8 3.055395 1_545
F11 Zr3 2.057267 1_555
F11 K1 2.707197 1_545
F11 K4 3.024665 1_554
F11 K9 3.055395 1_544
F12 Zr3 2.077434 1_556
F12 K0 2.865799 1_555
F12 K9 2.916219 1_555
F13 Zr2 2.077434 1_555
F13 K1 2.865799 1_555
F13 K8 2.916219 1_555
F14 Zr1 2.077434 1_554
F14 K2 2.865799 1_555
F14 K11 2.916219 1_555
F15 Zr0 2.077434 1_555
F15 K3 2.865799 1_555
F15 K10 2.916219 1_555
F16 Zr3 2.044025 1_565
F16 K0 2.694175 1_555
F16 K8 2.826650 1_555
F17 Zr2 2.044025 1_565
F17 K1 2.694175 1_556
F17 K9 2.826650 1_555
F18 Zr1 2.044025 1_545
F18 K2 2.694175 1_555
F18 K10 2.826650 1_555
F19 Zr0 2.044025 1_545
F19 K3 2.694175 1_554
F19 K11 2.826650 1_555
