# generated using pymatgen
data_Ca10P6ClO24F
_symmetry_space_group_name_H-M   'P 1'
_cell_length_a   9.59093084
_cell_length_b   9.59093084
_cell_length_c   13.83271800
_cell_angle_alpha   90.00000000
_cell_angle_beta   90.00000000
_cell_angle_gamma   120.00000582
_symmetry_Int_Tables_number   1
_chemical_formula_structural   Ca10P6ClO24F
_chemical_formula_sum   'Ca20 P12 Cl2 O48 F2'
_cell_volume   1101.94431449
_cell_formula_units_Z   2
loop_
 _symmetry_equiv_pos_site_id
 _symmetry_equiv_pos_as_xyz
  1  'x, y, z'
loop_
 _atom_site_type_symbol
 _atom_site_label
 _atom_site_symmetry_multiplicity
 _atom_site_fract_x
 _atom_site_fract_y
 _atom_site_fract_z
 _atom_site_occupancy
  Ca  Ca0  1  0.26089300  0.99440500  0.12518100  1
  Ca  Ca1  1  0.24234800  0.99804700  0.62381400  1
  Ca  Ca2  1  0.00559500  0.26648800  0.12518100  1
  Ca  Ca3  1  0.00195300  0.24430200  0.62381400  1
  Ca  Ca4  1  0.33333300  0.66666700  0.99940700  1
  Ca  Ca5  1  0.33333300  0.66666700  0.50145100  1
  Ca  Ca6  1  0.33333300  0.66666700  0.25008000  1
  Ca  Ca7  1  0.33333300  0.66666700  0.74847900  1
  Ca  Ca8  1  0.26464700  0.25936200  0.37314600  1
  Ca  Ca9  1  0.24653000  0.24419300  0.87354700  1
  Ca  Ca10  1  0.73351200  0.73910700  0.12518100  1
  Ca  Ca11  1  0.75569800  0.75765200  0.62381400  1
  Ca  Ca12  1  0.66666700  0.33333300  0.25026700  1
  Ca  Ca13  1  0.66666700  0.33333300  0.75031900  1
  Ca  Ca14  1  0.66666700  0.33333300  0.99693400  1
  Ca  Ca15  1  0.66666700  0.33333300  0.50116400  1
  Ca  Ca16  1  0.99471500  0.73535300  0.37314600  1
  Ca  Ca17  1  0.99766300  0.75347000  0.87354700  1
  Ca  Ca18  1  0.74063800  0.00528500  0.37314600  1
  Ca  Ca19  1  0.75580700  0.00233700  0.87354700  1
  P  P0  1  0.03274700  0.40280900  0.37631000  1
  P  P1  1  0.03041000  0.39956300  0.87484200  1
  P  P2  1  0.37006200  0.96725300  0.37631000  1
  P  P3  1  0.36915300  0.96959000  0.87484200  1
  P  P4  1  0.39970200  0.36738100  0.12479100  1
  P  P5  1  0.40220300  0.37143100  0.62573200  1
  P  P6  1  0.59719100  0.62993800  0.37631000  1
  P  P7  1  0.60043700  0.63084700  0.87484200  1
  P  P8  1  0.63261900  0.03232000  0.12479100  1
  P  P9  1  0.62856900  0.03077200  0.62573200  1
  P  P10  1  0.96768000  0.60029800  0.12479100  1
  P  P11  1  0.96922800  0.59779700  0.62573200  1
  Cl  Cl0  1  0.00000000  0.00000000  0.43969700  1
  Cl  Cl1  1  0.00000000  0.00000000  0.19381600  1
  O  O0  1  0.26487800  0.90792100  0.46824000  1
  O  O1  1  0.25752300  0.91294600  0.96547600  1
  O  O2  1  0.25801700  0.91254200  0.28610000  1
  O  O3  1  0.25721500  0.91431600  0.78495800  1
  O  O4  1  0.15296000  0.66927100  0.12568600  1
  O  O5  1  0.15445300  0.67012200  0.62591100  1
  O  O6  1  0.12450100  0.59077900  0.37235000  1
  O  O7  1  0.12142800  0.58766500  0.87540700  1
  O  O8  1  0.08745800  0.34547500  0.28610000  1
  O  O9  1  0.08568400  0.34290000  0.78495800  1
  O  O10  1  0.09207900  0.35695700  0.46824000  1
  O  O11  1  0.08705400  0.34457600  0.96547600  1
  O  O12  1  0.46627700  0.87549900  0.37235000  1
  O  O13  1  0.46623800  0.87857200  0.87540700  1
  O  O14  1  0.51631100  0.84704000  0.12568600  1
  O  O15  1  0.51566900  0.84554700  0.62591100  1
  O  O16  1  0.33072900  0.48368900  0.12568600  1
  O  O17  1  0.32987800  0.48433100  0.62591100  1
  O  O18  1  0.40922100  0.53372300  0.37235000  1
  O  O19  1  0.41233500  0.53376200  0.87540700  1
  O  O20  1  0.33475700  0.25112700  0.03681400  1
  O  O21  1  0.34932500  0.26157800  0.53470100  1
  O  O22  1  0.35865600  0.26443000  0.21764400  1
  O  O23  1  0.34514800  0.25863100  0.71570400  1
  O  O24  1  0.65452500  0.74198300  0.28610000  1
  O  O25  1  0.64304300  0.73512200  0.46824000  1
  O  O26  1  0.65710000  0.74278500  0.78495800  1
  O  O27  1  0.65542400  0.74247700  0.96547600  1
  O  O28  1  0.58774600  0.46358900  0.11914100  1
  O  O29  1  0.59007600  0.46839700  0.62686700  1
  O  O30  1  0.66777700  0.51508300  0.37591200  1
  O  O31  1  0.67158500  0.51677300  0.87556000  1
  O  O32  1  0.48491700  0.15269300  0.37591200  1
  O  O33  1  0.48322700  0.15481200  0.87556000  1
  O  O34  1  0.53641100  0.12415600  0.11914100  1
  O  O35  1  0.53160300  0.12167900  0.62686700  1
  O  O36  1  0.91637000  0.66524300  0.03681400  1
  O  O37  1  0.90577400  0.64134400  0.21764400  1
  O  O38  1  0.91225200  0.65067500  0.53470100  1
  O  O39  1  0.91348300  0.65485200  0.71570400  1
  O  O40  1  0.87584400  0.41225400  0.11914100  1
  O  O41  1  0.87832100  0.40992400  0.62686700  1
  O  O42  1  0.84730700  0.33222300  0.37591200  1
  O  O43  1  0.84518800  0.32841500  0.87556000  1
  O  O44  1  0.74887300  0.08363000  0.03681400  1
  O  O45  1  0.73557000  0.09422600  0.21764400  1
  O  O46  1  0.74136900  0.08651700  0.71570400  1
  O  O47  1  0.73842200  0.08774800  0.53470100  1
  F  F0  1  0.00000000  0.00000000  0.64828400  1
  F  F1  1  0.00000000  0.00000000  0.87890700  1
loop_
_geom_bond_atom_site_label_1
_geom_bond_atom_site_label_2
_geom_bond_distance
_geom_bond_site_symmetry_2
Ca0 O34 2.291262 1_565
Ca0 O1 2.338062 1_554
Ca0 O2 2.355927 1_555
Ca0 O20 2.512803 1_565
Ca0 O22 2.606487 1_565
Ca0 Cl1 2.701771 1_565
Ca0 O4 2.750934 1_555
Ca1 F0 2.358184 1_565
Ca1 O0 2.368924 1_555
Ca1 O3 2.397592 1_555
Ca1 O35 2.411343 1_565
Ca1 O21 2.523337 1_565
Ca1 O23 2.523856 1_565
Ca1 O5 2.819905 1_555
Ca2 O40 2.291254 1_455
Ca2 O11 2.338061 1_554
Ca2 O8 2.355927 1_555
Ca2 O44 2.512803 1_455
Ca2 O45 2.606487 1_455
Ca2 Cl1 2.701771 1_555
Ca2 O16 2.750934 1_555
Ca3 F0 2.358193 1_555
Ca3 O10 2.368921 1_555
Ca3 O9 2.397592 1_555
Ca3 O41 2.411334 1_455
Ca3 O47 2.523337 1_455
Ca3 O46 2.523857 1_455
Ca3 O17 2.819902 1_555
Ca4 O4 2.467344 1_556
Ca4 O14 2.467347 1_556
Ca4 O16 2.467350 1_556
Ca4 O7 2.471195 1_555
Ca4 O13 2.471197 1_555
Ca4 O19 2.471208 1_555
Ca4 O1 2.836481 1_555
Ca4 O11 2.836494 1_555
Ca4 O27 2.836500 1_555
Ca5 O5 2.442395 1_555
Ca5 O15 2.442399 1_555
Ca5 O17 2.442402 1_555
Ca5 O12 2.504535 1_555
Ca5 O6 2.504535 1_555
Ca5 O18 2.504535 1_555
Ca5 O0 2.741379 1_555
Ca5 O10 2.741385 1_555
Ca5 O25 2.741388 1_555
Ca6 O12 2.438059 1_555
Ca6 O6 2.438059 1_555
Ca6 O18 2.438059 1_555
Ca6 O4 2.448953 1_555
Ca6 O14 2.448956 1_555
Ca6 O16 2.448960 1_555
Ca6 O2 2.834509 1_555
Ca6 O8 2.834515 1_555
Ca6 O24 2.834518 1_555
Ca7 O5 2.424018 1_555
Ca7 O15 2.424022 1_555
Ca7 O17 2.424025 1_555
Ca7 O7 2.499477 1_555
Ca7 O13 2.499479 1_555
Ca7 O19 2.499490 1_555
Ca7 O9 2.857109 1_555
Ca7 O26 2.857109 1_555
Ca7 O3 2.857109 1_555
Ca8 O18 2.279969 1_555
Ca8 O22 2.323434 1_555
Ca8 O21 2.374205 1_555
Ca8 O8 2.534456 1_555
Ca8 O10 2.625827 1_555
Ca8 Cl0 2.676546 1_555
Ca8 O32 2.769921 1_555
Ca9 F1 2.354493 1_555
Ca9 O23 2.355852 1_555
Ca9 O20 2.400970 1_556
Ca9 O19 2.413729 1_555
Ca9 O9 2.497625 1_555
Ca9 O11 2.521105 1_555
Ca9 O33 2.799157 1_555
Ca10 O28 2.291261 1_555
Ca10 O27 2.338059 1_554
Ca10 O24 2.355927 1_555
Ca10 O36 2.512803 1_555
Ca10 O37 2.606487 1_555
Ca10 Cl1 2.701771 1_665
Ca10 O14 2.750934 1_555
Ca11 F0 2.358189 1_665
Ca11 O25 2.368920 1_555
Ca11 O26 2.397592 1_555
Ca11 O29 2.411342 1_555
Ca11 O38 2.523337 1_555
Ca11 O39 2.523864 1_555
Ca11 O15 2.819896 1_555
Ca12 O32 2.457808 1_555
Ca12 O30 2.457808 1_555
Ca12 O42 2.457808 1_555
Ca12 O34 2.523730 1_555
Ca12 O40 2.523730 1_555
Ca12 O28 2.523730 1_555
Ca12 O45 2.723027 1_555
Ca12 O37 2.723033 1_555
Ca12 O22 2.723036 1_555
Ca13 O43 2.452722 1_555
Ca13 O33 2.452725 1_555
Ca13 O31 2.452729 1_555
Ca13 O41 2.466847 1_555
Ca13 O35 2.466848 1_555
Ca13 O29 2.466853 1_555
Ca13 O46 2.835878 1_555
Ca13 O39 2.835884 1_555
Ca13 O23 2.835887 1_555
Ca14 O43 2.415237 1_555
Ca14 O33 2.415240 1_555
Ca14 O31 2.415244 1_555
Ca14 O34 2.436570 1_556
Ca14 O40 2.436570 1_556
Ca14 O28 2.436570 1_556
Ca15 O32 2.453966 1_555
Ca15 O30 2.453967 1_555
Ca15 O42 2.453967 1_555
Ca15 O41 2.488503 1_555
Ca15 O35 2.488504 1_555
Ca15 O29 2.488510 1_555
Ca15 O47 2.803151 1_555
Ca15 O38 2.803163 1_555
Ca15 O21 2.803169 1_555
Ca16 O6 2.279961 1_655
Ca16 O37 2.323434 1_555
Ca16 O38 2.374206 1_555
Ca16 O2 2.534455 1_655
Ca16 O0 2.625827 1_655
Ca16 Cl0 2.676546 1_665
Ca16 O30 2.769913 1_555
Ca17 F1 2.354493 1_665
Ca17 O39 2.355852 1_555
Ca17 O36 2.400970 1_556
Ca17 O7 2.413737 1_655
Ca17 O3 2.497618 1_655
Ca17 O1 2.521112 1_655
Ca17 O31 2.799157 1_555
Ca18 O12 2.279969 1_545
Ca18 O45 2.323434 1_555
Ca18 O47 2.374208 1_555
Ca18 O24 2.534456 1_545
Ca18 O25 2.625827 1_545
Ca18 Cl0 2.676546 1_655
Ca18 O42 2.769911 1_555
Ca19 F1 2.354493 1_655
Ca19 O46 2.355852 1_555
Ca19 O44 2.400970 1_556
Ca19 O13 2.413728 1_545
Ca19 O26 2.497617 1_545
Ca19 O27 2.521113 1_545
Ca19 O43 2.799157 1_555
O0 P2 1.544192 1_555
O1 P3 1.559346 1_555
O2 P2 1.556723 1_555
O3 P3 1.552541 1_555
O4 P10 1.555633 1_455
O5 P11 1.550734 1_455
O6 P0 1.562384 1_555
O7 P1 1.562664 1_555
O8 P0 1.556723 1_555
O9 P1 1.552536 1_555
O10 P0 1.544192 1_555
O11 P1 1.559351 1_555
O12 P2 1.562376 1_555
O13 P3 1.562672 1_555
O14 P8 1.555634 1_565
O15 P9 1.550734 1_565
O16 P4 1.555642 1_555
O17 P5 1.550734 1_555
O18 P6 1.562384 1_555
O19 P7 1.562664 1_555
O20 P4 1.554883 1_555
O21 P5 1.555162 1_555
O22 P4 1.546262 1_555
O23 P5 1.557810 1_555
O24 P6 1.556723 1_555
O25 P6 1.544192 1_555
O26 P7 1.552541 1_555
O27 P7 1.559346 1_555
O28 P4 1.563986 1_555
O29 P5 1.560821 1_555
O30 P6 1.554842 1_555
O31 P7 1.552194 1_555
O32 P2 1.554834 1_545
O33 P3 1.552194 1_545
O34 P8 1.563986 1_555
O35 P9 1.560821 1_555
O36 P10 1.554888 1_555
O37 P10 1.546267 1_555
O38 P11 1.555167 1_555
O39 P11 1.557810 1_555
O40 P10 1.563986 1_555
O41 P11 1.560821 1_555
O42 P0 1.554833 1_655
O43 P1 1.552194 1_655
O44 P8 1.554883 1_555
O45 P8 1.546263 1_555
O46 P9 1.557810 1_555
O47 P9 1.555162 1_555
