# generated using pymatgen
data_Ce3(AgGe)4
_symmetry_space_group_name_H-M   'P 1'
_cell_length_a   8.53442409
_cell_length_b   8.52390953
_cell_length_c   8.52677048
_cell_angle_alpha   149.50379176
_cell_angle_beta   130.44865332
_cell_angle_gamma   59.30801590
_symmetry_Int_Tables_number   1
_chemical_formula_structural   Ce3(AgGe)4
_chemical_formula_sum   'Ce3 Ag4 Ge4'
_cell_volume   237.64544988
_cell_formula_units_Z   1
loop_
 _symmetry_equiv_pos_site_id
 _symmetry_equiv_pos_as_xyz
  1  'x, y, z'
loop_
 _atom_site_type_symbol
 _atom_site_label
 _atom_site_symmetry_multiplicity
 _atom_site_fract_x
 _atom_site_fract_y
 _atom_site_fract_z
 _atom_site_occupancy
  Ce  Ce0  1  0.13097821  0.12990702  0.00061186  1
  Ce  Ce1  1  0.86901781  0.87009091  0.99938539  1
  Ce  Ce2  1  0.50002291  0.00002077  0.50000103  1
  Ag  Ag0  1  0.13811966  0.33244125  0.80562367  1
  Ag  Ag1  1  0.86189206  0.66755312  0.19440401  1
  Ag  Ag2  1  0.47333286  0.66738691  0.80676755  1
  Ag  Ag3  1  0.52663542  0.33259819  0.19320725  1
  Ge  Ge0  1  0.17832763  0.49973054  0.67857706  1
  Ge  Ge1  1  0.28378777  0.78379858  0.49989202  1
  Ge  Ge2  1  0.82166839  0.50026792  0.32142234  1
  Ge  Ge3  1  0.71621728  0.21620479  0.50010782  1
loop_
_geom_bond_atom_site_label_1
_geom_bond_atom_site_label_2
_geom_bond_distance
_geom_bond_site_symmetry_2
Ce0 Ge1 3.196161 1_555
Ce0 Ge1 3.197413 1_544
Ce0 Ge0 3.219026 1_544
Ce0 Ge2 3.220973 1_444
Ce0 Ge0 3.222359 1_555
Ce0 Ge2 3.224531 1_455
Ce1 Ge3 3.196100 1_555
Ce1 Ge3 3.197348 1_566
Ce1 Ge2 3.219021 1_566
Ce1 Ge0 3.220973 1_666
Ce1 Ge2 3.222345 1_555
Ce1 Ge0 3.224522 1_655
Ce2 Ge3 3.204038 1_555
Ce2 Ge1 3.204606 1_545
Ce2 Ge2 3.210619 1_556
Ce2 Ge0 3.210637 1_544
Ce2 Ge2 3.210645 1_545
Ce2 Ge0 3.210677 1_555
Ag0 Ge0 2.639809 1_555
Ag0 Ge1 2.733534 1_545
Ag0 Ge1 2.734196 1_556
Ag0 Ag3 2.773931 1_556
Ag0 Ge3 2.784957 1_455
Ag0 Ce1 3.182781 1_444
Ag0 Ce1 3.183909 1_455
Ag0 Ce0 3.306631 1_556
Ag0 Ce2 3.623266 1_566
Ag0 Ce2 3.625466 1_555
Ag1 Ge2 2.639634 1_555
Ag1 Ge3 2.733649 1_565
Ag1 Ge3 2.734356 1_554
Ag1 Ag2 2.774242 1_554
Ag1 Ge1 2.784973 1_655
Ag1 Ce0 3.182618 1_666
Ag1 Ce0 3.183781 1_655
Ag1 Ce1 3.306829 1_554
Ag1 Ce2 3.622793 1_554
Ag1 Ce2 3.624958 1_565
Ag2 Ge0 2.643134 1_555
Ag2 Ge3 2.733022 1_566
Ag2 Ge3 2.736653 1_555
Ag2 Ge1 2.791413 1_555
Ag2 Ce0 3.176341 1_566
Ag2 Ce0 3.179726 1_555
Ag2 Ce1 3.309996 1_555
Ag2 Ce2 3.614014 1_566
Ag2 Ce2 3.614057 1_555
Ag3 Ge2 2.643297 1_555
Ag3 Ge1 2.732872 1_544
Ag3 Ge1 2.736527 1_555
Ag3 Ge3 2.791397 1_555
Ag3 Ce1 3.176444 1_544
Ag3 Ce1 3.179853 1_555
Ag3 Ce0 3.309818 1_555
Ag3 Ce2 3.614481 1_554
Ag3 Ce2 3.614540 1_565
Ge0 Ge2 2.553730 1_455
