# generated using pymatgen
data_BHO2
_symmetry_space_group_name_H-M   'P 1'
_cell_length_a   7.93956507
_cell_length_b   9.55777417
_cell_length_c   5.97731867
_cell_angle_alpha   90.00000000
_cell_angle_beta   90.00000000
_cell_angle_gamma   90.00000000
_symmetry_Int_Tables_number   1
_chemical_formula_structural   BHO2
_chemical_formula_sum   'B12 H12 O24'
_cell_volume   453.58625671
_cell_formula_units_Z   12
loop_
 _symmetry_equiv_pos_site_id
 _symmetry_equiv_pos_as_xyz
  1  'x, y, z'
loop_
 _atom_site_type_symbol
 _atom_site_label
 _atom_site_symmetry_multiplicity
 _atom_site_fract_x
 _atom_site_fract_y
 _atom_site_fract_z
 _atom_site_occupancy
  B  B0  1  0.50343152  0.66745378  0.25000000  1
  B  B1  1  0.99656848  0.16745378  0.25000000  1
  B  B2  1  0.49656848  0.33254622  0.75000000  1
  B  B3  1  0.00343152  0.83254622  0.75000000  1
  B  B4  1  0.50122034  0.91619783  0.25000000  1
  B  B5  1  0.99877966  0.41619783  0.25000000  1
  B  B6  1  0.49877966  0.08380217  0.75000000  1
  B  B7  1  0.00122034  0.58380217  0.75000000  1
  B  B8  1  0.24289884  0.79051362  0.25000000  1
  B  B9  1  0.25710116  0.29051362  0.25000000  1
  B  B10  1  0.75710116  0.20948638  0.75000000  1
  B  B11  1  0.74289884  0.70948638  0.75000000  1
  H  H0  1  0.97213028  0.95808963  0.25000000  1
  H  H1  1  0.52786972  0.45808963  0.25000000  1
  H  H2  1  0.02786972  0.04191037  0.75000000  1
  H  H3  1  0.47213028  0.54191037  0.75000000  1
  H  H4  1  0.01664049  0.70133137  0.25000000  1
  H  H5  1  0.48335951  0.20133137  0.25000000  1
  H  H6  1  0.98335951  0.29866863  0.75000000  1
  H  H7  1  0.51664049  0.79866863  0.75000000  1
  H  H8  1  0.70422991  0.03962934  0.25000000  1
  H  H9  1  0.79577009  0.53962934  0.25000000  1
  H  H10  1  0.29577009  0.96037066  0.75000000  1
  H  H11  1  0.20422991  0.46037066  0.75000000  1
  O  O0  1  0.59230670  0.54623113  0.25000000  1
  O  O1  1  0.90769330  0.04623113  0.25000000  1
  O  O2  1  0.40769330  0.45376887  0.75000000  1
  O  O3  1  0.09230670  0.95376887  0.75000000  1
  O  O4  1  0.59108782  0.79233241  0.25000000  1
  O  O5  1  0.90891218  0.29233241  0.25000000  1
  O  O6  1  0.40891218  0.20766759  0.75000000  1
  O  O7  1  0.09108782  0.70766759  0.75000000  1
  O  O8  1  0.57892219  0.04244442  0.25000000  1
  O  O9  1  0.92107781  0.54244442  0.25000000  1
  O  O10  1  0.42107781  0.95755558  0.75000000  1
  O  O11  1  0.07892219  0.45755558  0.75000000  1
  O  O12  1  0.33102665  0.66721145  0.25000000  1
  O  O13  1  0.16897335  0.16721145  0.25000000  1
  O  O14  1  0.66897335  0.33278855  0.75000000  1
  O  O15  1  0.83102665  0.83278855  0.75000000  1
  O  O16  1  0.32897306  0.91399350  0.25000000  1
  O  O17  1  0.17102694  0.41399350  0.25000000  1
  O  O18  1  0.67102694  0.08600650  0.75000000  1
  O  O19  1  0.82897306  0.58600650  0.75000000  1
  O  O20  1  0.07163032  0.79431600  0.25000000  1
  O  O21  1  0.42836968  0.29431600  0.25000000  1
  O  O22  1  0.92836968  0.20568400  0.75000000  1
  O  O23  1  0.57163032  0.70568400  0.75000000  1
loop_
_geom_bond_atom_site_label_1
_geom_bond_atom_site_label_2
_geom_bond_distance
_geom_bond_site_symmetry_2
B0 O0 1.356581 1_555
B0 O12 1.368822 1_555
B0 O4 1.381644 1_555
B1 O1 1.356581 1_555
B1 O13 1.368822 1_655
B1 O5 1.381644 1_555
B2 O2 1.356581 1_555
B2 O14 1.368822 1_555
B2 O6 1.381644 1_555
B3 O3 1.356581 1_555
B3 O15 1.368822 1_455
B3 O7 1.381644 1_555
B4 O8 1.355198 1_565
B4 O16 1.367731 1_555
B4 O4 1.382267 1_555
B5 O9 1.355198 1_555
B5 O17 1.367731 1_655
B5 O5 1.382267 1_555
B6 O10 1.355198 1_545
B6 O18 1.367731 1_555
B6 O6 1.382267 1_555
B7 O11 1.355198 1_555
B7 O19 1.367731 1_455
B7 O7 1.382267 1_555
B8 O20 1.360283 1_555
B8 O16 1.363774 1_555
B8 O12 1.370556 1_555
B9 O21 1.360283 1_555
B9 O17 1.363774 1_555
B9 O13 1.370556 1_555
B10 O22 1.360283 1_555
B10 O18 1.363774 1_555
B10 O14 1.370556 1_555
B11 O23 1.360283 1_555
B11 O19 1.363774 1_555
B11 O15 1.370556 1_555
H0 O1 0.985614 1_565
H1 O0 0.985614 1_555
H2 O3 0.985614 1_545
H3 O2 0.985614 1_555
H4 O20 0.990177 1_555
H5 O21 0.990177 1_555
H6 O22 0.990177 1_555
H7 O23 0.990177 1_555
H8 O8 0.995253 1_555
H8 O1 1.616643 1_555
H9 O9 0.995253 1_555
H9 O0 1.616643 1_555
H10 O10 0.995253 1_555
H10 O3 1.616643 1_555
H11 O11 0.995253 1_555
H11 O2 1.616643 1_555
