# generated using pymatgen
data_RbCa2Ta3O10
_symmetry_space_group_name_H-M   'P 1'
_cell_length_a   3.94141900
_cell_length_b   3.94141900
_cell_length_c   15.31271800
_cell_angle_alpha   90.00000000
_cell_angle_beta   90.00000000
_cell_angle_gamma   90.00000000
_symmetry_Int_Tables_number   1
_chemical_formula_structural   RbCa2Ta3O10
_chemical_formula_sum   'Rb1 Ca2 Ta3 O10'
_cell_volume   237.87976250
_cell_formula_units_Z   1
loop_
 _symmetry_equiv_pos_site_id
 _symmetry_equiv_pos_as_xyz
  1  'x, y, z'
loop_
 _atom_site_type_symbol
 _atom_site_label
 _atom_site_symmetry_multiplicity
 _atom_site_fract_x
 _atom_site_fract_y
 _atom_site_fract_z
 _atom_site_occupancy
  Rb  Rb0  1  0.50000000  0.50000000  0.50000000  1
  Ca  Ca0  1  0.50000000  0.50000000  0.84980500  1
  Ca  Ca1  1  0.50000000  0.50000000  0.15019500  1
  Ta  Ta0  1  0.00000000  0.00000000  0.00000000  1
  Ta  Ta1  1  0.00000000  0.00000000  0.27995200  1
  Ta  Ta2  1  0.00000000  0.00000000  0.72004800  1
  O  O0  1  0.00000000  0.00000000  0.60260500  1
  O  O1  1  0.00000000  0.00000000  0.39739500  1
  O  O2  1  0.50000000  0.00000000  0.74736100  1
  O  O3  1  0.00000000  0.50000000  0.74736100  1
  O  O4  1  0.50000000  0.00000000  0.25263900  1
  O  O5  1  0.00000000  0.50000000  0.25263900  1
  O  O6  1  0.00000000  0.50000000  0.00000000  1
  O  O7  1  0.50000000  0.00000000  0.00000000  1
  O  O8  1  0.00000000  0.00000000  0.12876200  1
  O  O9  1  0.00000000  0.00000000  0.87123800  1
loop_
_geom_bond_atom_site_label_1
_geom_bond_atom_site_label_2
_geom_bond_distance
_geom_bond_site_symmetry_2
Ca0 O2 2.518830 1_555
Ca0 O3 2.518830 1_555
Ca0 O3 2.518830 1_655
Ca0 O2 2.518830 1_565
Ca0 O9 2.806262 1_655
Ca0 O9 2.806262 1_665
Ca0 O9 2.806262 1_565
Ca0 O9 2.806262 1_555
Ca0 O7 3.028730 1_566
Ca0 O7 3.028730 1_556
Ca0 O6 3.028730 1_656
Ca0 O6 3.028730 1_556
Ca1 O4 2.518830 1_555
Ca1 O5 2.518830 1_555
Ca1 O5 2.518830 1_655
Ca1 O4 2.518830 1_565
Ca1 O8 2.806262 1_565
Ca1 O8 2.806262 1_555
Ca1 O8 2.806262 1_665
Ca1 O8 2.806262 1_655
Ca1 O6 3.028730 1_555
Ca1 O6 3.028730 1_655
Ca1 O7 3.028730 1_555
Ca1 O7 3.028730 1_565
O0 Ta2 1.798372 1_555
O0 Rb0 3.199366 1_545
O0 Rb0 3.199366 1_445
O0 Rb0 3.199366 1_455
O0 Rb0 3.199366 1_555
O1 Ta1 1.798372 1_555
O1 Rb0 3.199366 1_455
O1 Rb0 3.199366 1_555
O1 Rb0 3.199366 1_545
O1 Rb0 3.199366 1_445
O2 Ta2 2.014601 1_655
O2 Ta2 2.014601 1_555
O3 Ta2 2.014601 1_555
O3 Ta2 2.014601 1_565
O4 Ta1 2.014601 1_555
O4 Ta1 2.014601 1_655
O5 Ta1 2.014601 1_565
O5 Ta1 2.014601 1_555
O6 Ta0 1.970709 1_565
O6 Ta0 1.970709 1_555
O7 Ta0 1.970709 1_655
O7 Ta0 1.970709 1_555
O8 Ta0 1.971696 1_555
O8 Ta1 2.315130 1_555
O9 Ta0 1.971696 1_556
O9 Ta2 2.315130 1_555
