# generated using pymatgen
data_BaY(CoO2)4
_symmetry_space_group_name_H-M   'P 1'
_cell_length_a   10.21114100
_cell_length_b   10.95295000
_cell_length_c   12.96876400
_cell_angle_alpha   90.00000000
_cell_angle_beta   90.00000000
_cell_angle_gamma   90.00000000
_symmetry_Int_Tables_number   1
_chemical_formula_structural   BaY(CoO2)4
_chemical_formula_sum   'Ba8 Y8 Co32 O64'
_cell_volume   1450.45401825
_cell_formula_units_Z   8
loop_
 _symmetry_equiv_pos_site_id
 _symmetry_equiv_pos_as_xyz
  1  'x, y, z'
loop_
 _atom_site_type_symbol
 _atom_site_label
 _atom_site_symmetry_multiplicity
 _atom_site_fract_x
 _atom_site_fract_y
 _atom_site_fract_z
 _atom_site_occupancy
  Ba  Ba0  1  0.52891300  0.07489300  0.62687300  1
  Ba  Ba1  1  0.99962600  0.42690500  0.10145300  1
  Ba  Ba2  1  0.99962600  0.92690500  0.89854700  1
  Ba  Ba3  1  0.52891300  0.57489300  0.37312700  1
  Ba  Ba4  1  0.49962600  0.07309500  0.10145300  1
  Ba  Ba5  1  0.02891300  0.92510700  0.37312700  1
  Ba  Ba6  1  0.49962600  0.57309500  0.89854700  1
  Ba  Ba7  1  0.02891300  0.42510700  0.62687300  1
  Y  Y0  1  0.42368300  0.43852700  0.62626300  1
  Y  Y1  1  0.42368300  0.93852700  0.37373700  1
  Y  Y2  1  0.38037100  0.90514900  0.85473000  1
  Y  Y3  1  0.92368300  0.56147300  0.37373700  1
  Y  Y4  1  0.92368300  0.06147300  0.62626300  1
  Y  Y5  1  0.88037100  0.09485100  0.14527000  1
  Y  Y6  1  0.88037100  0.59485100  0.85473000  1
  Y  Y7  1  0.38037100  0.40514900  0.14527000  1
  Co  Co0  1  0.21180000  0.66769100  0.25980700  1
  Co  Co1  1  0.71265300  0.84257000  0.77238200  1
  Co  Co2  1  0.73078600  0.32013000  0.51953300  1
  Co  Co3  1  0.70342400  0.58153300  0.11648200  1
  Co  Co4  1  0.19417400  0.15532200  0.98464100  1
  Co  Co5  1  0.23078600  0.67987000  0.48046700  1
  Co  Co6  1  0.19417400  0.65532200  0.01535900  1
  Co  Co7  1  0.21081300  0.40118700  0.37103100  1
  Co  Co8  1  0.46110200  0.74648400  0.62814000  1
  Co  Co9  1  0.71081200  0.09881300  0.37103100  1
  Co  Co10  1  0.73078600  0.82013000  0.48046700  1
  Co  Co11  1  0.20342400  0.91846700  0.11648200  1
  Co  Co12  1  0.71081200  0.59881300  0.62896900  1
  Co  Co13  1  0.21265300  0.65743000  0.77238200  1
  Co  Co14  1  0.96110200  0.75351600  0.62814000  1
  Co  Co15  1  0.46110200  0.24648400  0.37186000  1
  Co  Co16  1  0.96053700  0.75213800  0.12605400  1
  Co  Co17  1  0.71180000  0.33230900  0.74019300  1
  Co  Co18  1  0.70342400  0.08153300  0.88351800  1
  Co  Co19  1  0.96110200  0.25351600  0.37186000  1
  Co  Co20  1  0.46053700  0.24786200  0.87394600  1
  Co  Co21  1  0.21081300  0.90118700  0.62896900  1
  Co  Co22  1  0.69417400  0.34467800  0.98464100  1
  Co  Co23  1  0.21180000  0.16769100  0.74019300  1
  Co  Co24  1  0.71265300  0.34257000  0.22761800  1
  Co  Co25  1  0.96053700  0.25213800  0.87394600  1
  Co  Co26  1  0.46053700  0.74786200  0.12605400  1
  Co  Co27  1  0.21265300  0.15743000  0.22761800  1
  Co  Co28  1  0.23078600  0.17987000  0.51953300  1
  Co  Co29  1  0.20342400  0.41846700  0.88351800  1
  Co  Co30  1  0.69417400  0.84467800  0.01535900  1
  Co  Co31  1  0.71180000  0.83230900  0.25980700  1
  O  O0  1  0.78360800  0.50019600  0.23761000  1
  O  O1  1  0.01121700  0.41952600  0.87776700  1
  O  O2  1  0.04321900  0.89089500  0.70137200  1
  O  O3  1  0.27138500  0.25022200  0.87115900  1
  O  O4  1  0.63482400  0.46263100  0.55261200  1
  O  O5  1  0.78969200  0.48782100  0.72793400  1
  O  O6  1  0.13482400  0.03736900  0.55261200  1
  O  O7  1  0.53997500  0.85414300  0.73070700  1
  O  O8  1  0.61546500  0.71799500  0.54703300  1
  O  O9  1  0.78969200  0.98782100  0.27206600  1
  O  O10  1  0.27138500  0.75022200  0.12884100  1
  O  O11  1  0.54321900  0.60910500  0.70137200  1
  O  O12  1  0.13482400  0.53736900  0.44738800  1
  O  O13  1  0.28360800  0.99980400  0.23761000  1
  O  O14  1  0.00304600  0.67297300  0.00164000  1
  O  O15  1  0.54321900  0.10910500  0.29862800  1
  O  O16  1  0.51121700  0.08047400  0.87776700  1
  O  O17  1  0.51121700  0.58047400  0.12223300  1
  O  O18  1  0.27775900  0.77465900  0.36673600  1
  O  O19  1  0.02119300  0.17852900  0.75295800  1
  O  O20  1  0.30325600  0.27700100  0.29609600  1
  O  O21  1  0.03997500  0.14585700  0.26929300  1
  O  O22  1  0.74969800  0.01316100  0.01937800  1
  O  O23  1  0.77357600  0.27287300  0.10446800  1
  O  O24  1  0.87496300  0.37763300  0.44814500  1
  O  O25  1  0.88374200  0.12102400  0.44818100  1
  O  O26  1  0.53997500  0.35414300  0.26929300  1
  O  O27  1  0.88374200  0.62102400  0.55181900  1
  O  O28  1  0.87496300  0.87763300  0.55185500  1
  O  O29  1  0.37496300  0.62236700  0.55185500  1
  O  O30  1  0.77357600  0.77287300  0.89553200  1
  O  O31  1  0.50304600  0.82702700  0.00164000  1
  O  O32  1  0.63482400  0.96263100  0.44738800  1
  O  O33  1  0.30325600  0.77700100  0.70390400  1
  O  O34  1  0.02119300  0.67852900  0.24704200  1
  O  O35  1  0.78360800  0.00019600  0.76239000  1
  O  O36  1  0.80325600  0.22299900  0.29609600  1
  O  O37  1  0.11546500  0.78200500  0.54703300  1
  O  O38  1  0.28969200  0.01217900  0.72793400  1
  O  O39  1  0.52119300  0.82147100  0.24704200  1
  O  O40  1  0.01121700  0.91952600  0.12223300  1
  O  O41  1  0.04321900  0.39089400  0.29862800  1
  O  O42  1  0.77775900  0.72534100  0.36673600  1
  O  O43  1  0.24969800  0.98683900  0.98062200  1
  O  O44  1  0.74969800  0.51316100  0.98062200  1
  O  O45  1  0.37496300  0.12236700  0.44814500  1
  O  O46  1  0.77138500  0.24977800  0.87115900  1
  O  O47  1  0.28360800  0.49980400  0.76239000  1
  O  O48  1  0.77138500  0.74977800  0.12884100  1
  O  O49  1  0.50304600  0.32702700  0.99836000  1
  O  O50  1  0.38374200  0.37897600  0.44818100  1
  O  O51  1  0.27357600  0.22712700  0.10446800  1
  O  O52  1  0.77775900  0.22534100  0.63326400  1
  O  O53  1  0.00304600  0.17297300  0.99836000  1
  O  O54  1  0.27357600  0.72712700  0.89553200  1
  O  O55  1  0.38374200  0.87897600  0.55181900  1
  O  O56  1  0.52119300  0.32147100  0.75295800  1
  O  O57  1  0.11546500  0.28200500  0.45296700  1
  O  O58  1  0.80325600  0.72299900  0.70390400  1
  O  O59  1  0.28969200  0.51217900  0.27206600  1
  O  O60  1  0.61546500  0.21799500  0.45296700  1
  O  O61  1  0.03997500  0.64585700  0.73070700  1
  O  O62  1  0.27775900  0.27465900  0.63326400  1
  O  O63  1  0.24969800  0.48683900  0.01937800  1
loop_
_geom_bond_atom_site_label_1
_geom_bond_atom_site_label_2
_geom_bond_distance
_geom_bond_site_symmetry_2
Ba0 O7 2.769865 1_545
Ba0 O55 2.783806 1_545
Ba0 O32 2.845994 1_545
Ba0 O45 2.848535 1_555
Ba0 O38 2.855955 1_555
Ba0 O60 2.885201 1_555
Ba0 O52 3.029681 1_555
Ba0 O56 3.158175 1_555
Ba0 O35 3.243750 1_555
Ba0 O16 3.259372 1_555
Ba0 O62 3.372143 1_555
Ba1 O41 2.625368 1_655
Ba1 O63 2.843303 1_655
Ba1 O23 2.859330 1_555
Ba1 O1 2.904469 1_654
Ba1 O0 2.937334 1_555
Ba1 O14 2.990112 1_655
Ba1 O53 3.086165 1_654
Ba1 O44 3.140240 1_554
Ba1 O34 3.348004 1_655
Ba2 O2 2.625367 1_655
Ba2 O43 2.843303 1_655
Ba2 O30 2.859330 1_555
Ba2 O40 2.904469 1_656
Ba2 O35 2.937334 1_565
Ba2 O53 2.990112 1_665
Ba2 O14 3.086165 1_656
Ba2 O22 3.140240 1_566
Ba2 O19 3.348004 1_665
Ba3 O26 2.769865 1_555
Ba3 O50 2.783806 1_555
Ba3 O4 2.845994 1_555
Ba3 O29 2.848535 1_555
Ba3 O59 2.855955 1_555
Ba3 O8 2.885201 1_555
Ba3 O42 3.029681 1_555
Ba3 O39 3.158175 1_555
Ba3 O0 3.243750 1_555
Ba3 O17 3.259372 1_555
Ba3 O18 3.372143 1_555
Ba4 O15 2.625367 1_555
Ba4 O22 2.843303 1_555
Ba4 O51 2.859330 1_555
Ba4 O16 2.904469 1_554
Ba4 O13 2.937334 1_545
Ba4 O31 2.990112 1_545
Ba4 O49 3.086165 1_554
Ba4 O43 3.140240 1_544
Ba4 O39 3.348004 1_545
Ba5 O21 2.769865 1_565
Ba5 O25 2.783806 1_465
Ba5 O6 2.845994 1_565
Ba5 O28 2.848535 1_455
Ba5 O9 2.855955 1_455
Ba5 O37 2.885201 1_555
Ba5 O18 3.029681 1_555
Ba5 O34 3.158175 1_555
Ba5 O13 3.243750 1_555
Ba5 O40 3.259372 1_555
Ba5 O42 3.372143 1_455
Ba6 O11 2.625367 1_555
Ba6 O44 2.843303 1_555
Ba6 O54 2.859330 1_555
Ba6 O17 2.904469 1_556
Ba6 O47 2.937334 1_555
Ba6 O49 2.990112 1_555
Ba6 O31 3.086165 1_556
Ba6 O63 3.140240 1_556
Ba6 O56 3.348004 1_555
Ba7 O61 2.769865 1_555
Ba7 O27 2.783806 1_455
Ba7 O12 2.845994 1_555
Ba7 O24 2.848535 1_455
Ba7 O5 2.855955 1_455
Ba7 O57 2.885201 1_555
Ba7 O62 3.029681 1_555
Ba7 O19 3.158175 1_555
Ba7 O47 3.243750 1_555
Ba7 O1 3.259372 1_555
Ba7 O52 3.372143 1_455
Co0 O59 1.886575 1_555
Co0 O18 1.936323 1_555
Co0 O34 1.956946 1_555
Co0 O10 2.017949 1_555
Co1 O58 1.832974 1_555
Co1 O7 1.848565 1_555
Co1 O30 1.876300 1_555
Co1 O35 1.876815 1_565
Co2 O60 1.839386 1_555
Co2 O24 1.849654 1_555
Co2 O52 1.866398 1_555
Co2 O4 1.892173 1_555
Co3 O17 1.964104 1_555
Co3 O44 1.971928 1_554
Co3 O48 1.975628 1_555
Co3 O0 1.982856 1_555
Co4 O51 1.921161 1_556
Co4 O43 1.931221 1_545
Co4 O3 1.966719 1_555
Co4 O53 1.969241 1_555
Co5 O37 1.839386 1_555
Co5 O29 1.849654 1_555
Co5 O18 1.866398 1_555
Co5 O12 1.892173 1_555
Co6 O54 1.921161 1_554
Co6 O63 1.931221 1_555
Co6 O10 1.966719 1_555
Co6 O14 1.969241 1_555
Co7 O20 1.919795 1_555
Co7 O59 1.942652 1_555
Co7 O57 1.944508 1_555
Co7 O12 1.951291 1_555
Co7 O41 1.955256 1_555
Co7 O50 2.044094 1_555
Co8 O29 1.897501 1_555
Co8 O33 1.917034 1_555
Co8 O8 1.920482 1_555
Co8 O55 1.926031 1_555
Co8 O7 1.951528 1_555
Co8 O11 1.967033 1_555
Co9 O36 1.919800 1_555
Co9 O9 1.942656 1_545
Co9 O60 1.944503 1_555
Co9 O32 1.951287 1_545
Co9 O15 1.955246 1_555
Co9 O25 2.044103 1_555
Co10 O8 1.839386 1_555
Co10 O28 1.849654 1_555
Co10 O42 1.866398 1_555
Co10 O32 1.892173 1_555
Co11 O40 1.964104 1_555
Co11 O43 1.971928 1_554
Co11 O10 1.975628 1_555
Co11 O13 1.982856 1_555
Co12 O58 1.919800 1_555
Co12 O5 1.942656 1_555
Co12 O8 1.944503 1_555
Co12 O4 1.951287 1_555
Co12 O11 1.955246 1_555
Co12 O27 2.044103 1_555
Co13 O33 1.832974 1_555
Co13 O61 1.848565 1_555
Co13 O54 1.876300 1_555
Co13 O47 1.876815 1_555
Co14 O28 1.897501 1_555
Co14 O58 1.917034 1_555
Co14 O37 1.920482 1_655
Co14 O27 1.926031 1_555
Co14 O61 1.951528 1_655
Co14 O2 1.967033 1_655
Co15 O45 1.897501 1_555
Co15 O20 1.917034 1_555
Co15 O60 1.920482 1_555
Co15 O50 1.926031 1_555
Co15 O26 1.951528 1_555
Co15 O15 1.967033 1_555
Co16 O34 1.869651 1_655
Co16 O14 1.882452 1_655
Co16 O40 1.905673 1_655
Co16 O48 1.931969 1_555
Co17 O5 1.886575 1_555
Co17 O52 1.936323 1_555
Co17 O56 1.956946 1_555
Co17 O46 2.017949 1_555
Co18 O16 1.964104 1_555
Co18 O22 1.971928 1_556
Co18 O46 1.975628 1_555
Co18 O35 1.982856 1_555
Co19 O24 1.897501 1_555
Co19 O36 1.917034 1_555
Co19 O57 1.920482 1_655
Co19 O25 1.926031 1_555
Co19 O21 1.951528 1_655
Co19 O41 1.967025 1_655
Co20 O56 1.869651 1_555
Co20 O49 1.882452 1_555
Co20 O16 1.905673 1_555
Co20 O3 1.931969 1_555
Co21 O33 1.919795 1_555
Co21 O38 1.942652 1_565
Co21 O37 1.944508 1_555
Co21 O6 1.951291 1_565
Co21 O2 1.955255 1_555
Co21 O55 2.044094 1_555
Co22 O23 1.921161 1_556
Co22 O44 1.931221 1_555
Co22 O46 1.966719 1_555
Co22 O49 1.969241 1_555
Co23 O38 1.886575 1_555
Co23 O62 1.936323 1_555
Co23 O19 1.956946 1_555
Co23 O3 2.017949 1_555
Co24 O36 1.832974 1_555
Co24 O26 1.848565 1_555
Co24 O23 1.876300 1_555
Co24 O0 1.876815 1_555
Co25 O19 1.869651 1_655
Co25 O53 1.882452 1_655
Co25 O1 1.905673 1_655
Co25 O46 1.931969 1_555
Co26 O39 1.869651 1_555
Co26 O31 1.882452 1_555
Co26 O17 1.905673 1_555
Co26 O10 1.931969 1_555
Co27 O20 1.832974 1_555
Co27 O21 1.848565 1_555
Co27 O51 1.876300 1_555
Co27 O13 1.876815 1_545
Co28 O57 1.839386 1_555
Co28 O45 1.849654 1_555
Co28 O62 1.866398 1_555
Co28 O6 1.892173 1_555
Co29 O1 1.964104 1_555
Co29 O63 1.971928 1_556
Co29 O3 1.975628 1_555
Co29 O47 1.982856 1_555
Co30 O30 1.921161 1_554
Co30 O22 1.931221 1_565
Co30 O48 1.966719 1_555
Co30 O31 1.969241 1_555
Co31 O9 1.886575 1_555
Co31 O42 1.936323 1_555
Co31 O39 1.956946 1_555
Co31 O48 2.017949 1_555
O0 Y3 2.369161 1_555
O1 Y6 2.358397 1_455
O2 Y4 2.435024 1_465
O4 Y0 2.372832 1_555
O5 Y6 2.221630 1_555
O6 Y4 2.372832 1_455
O7 Y2 2.356945 1_555
O9 Y5 2.221630 1_565
O11 Y0 2.435024 1_555
O12 Y3 2.372832 1_455
O13 Y1 2.369161 1_555
O14 Y6 2.435415 1_454
O15 Y1 2.435024 1_545
O16 Y2 2.358397 1_545
O17 Y7 2.358397 1_555
O18 Y1 2.334510 1_555
O19 Y4 2.309741 1_455
O20 Y7 2.533018 1_555
O21 Y5 2.356945 1_455
O22 Y5 2.290540 1_555
O23 Y5 2.295902 1_555
O24 Y3 2.287624 1_555
O25 Y4 2.434252 1_555
O26 Y7 2.356945 1_555
O27 Y3 2.434252 1_555
O28 Y4 2.287624 1_565
O29 Y0 2.287624 1_555
O30 Y6 2.295902 1_555
O31 Y2 2.435415 1_554
O32 Y1 2.372832 1_555
O33 Y2 2.533018 1_555
O34 Y3 2.309741 1_455
O35 Y4 2.369161 1_555
O36 Y5 2.533018 1_555
O38 Y2 2.221630 1_545
O39 Y1 2.309741 1_555
O40 Y5 2.358397 1_465
O41 Y3 2.435032 1_455
O42 Y3 2.334510 1_555
O43 Y2 2.290540 1_555
O44 Y6 2.290540 1_555
O45 Y1 2.287624 1_545
O47 Y0 2.369161 1_555
O49 Y7 2.435415 1_556
O50 Y0 2.434252 1_555
O51 Y7 2.295902 1_555
O52 Y4 2.334510 1_555
O53 Y5 2.435415 1_456
O54 Y2 2.295902 1_555
O55 Y1 2.434252 1_555
O56 Y0 2.309741 1_555
O58 Y6 2.533018 1_555
O59 Y7 2.221630 1_555
O61 Y6 2.356945 1_455
O62 Y0 2.334510 1_555
O63 Y7 2.290540 1_555
