# generated using pymatgen
data_CsNiC3(SN)3
_symmetry_space_group_name_H-M   'P 1'
_cell_length_a   13.29920600
_cell_length_b   5.54089800
_cell_length_c   13.16886088
_cell_angle_alpha   71.74940718
_cell_angle_beta   90.00000000
_cell_angle_gamma   90.00000000
_symmetry_Int_Tables_number   1
_chemical_formula_structural   CsNiC3(SN)3
_chemical_formula_sum   'Cs4 Ni4 C12 S12 N12'
_cell_volume   921.59187013
_cell_formula_units_Z   4
loop_
 _symmetry_equiv_pos_site_id
 _symmetry_equiv_pos_as_xyz
  1  'x, y, z'
loop_
 _atom_site_type_symbol
 _atom_site_label
 _atom_site_symmetry_multiplicity
 _atom_site_fract_x
 _atom_site_fract_y
 _atom_site_fract_z
 _atom_site_occupancy
  Cs  Cs0  1  0.27087900  0.93585900  0.71749600  1
  Cs  Cs1  1  0.72912100  0.06414100  0.28250400  1
  Cs  Cs2  1  0.22912100  0.93585900  0.21749600  1
  Cs  Cs3  1  0.77087900  0.06414100  0.78250400  1
  Ni  Ni0  1  0.00000000  0.50000000  0.50000000  1
  Ni  Ni1  1  0.00000000  0.00000000  0.00000000  1
  Ni  Ni2  1  0.50000000  0.50000000  0.00000000  1
  Ni  Ni3  1  0.50000000  0.00000000  0.50000000  1
  C  C0  1  0.90585200  0.96208400  0.57414700  1
  C  C1  1  0.55018300  0.68080000  0.73758100  1
  C  C2  1  0.05018300  0.31920000  0.76241900  1
  C  C3  1  0.40585200  0.03791600  0.92585300  1
  C  C4  1  0.59414800  0.96208400  0.07414700  1
  C  C5  1  0.88201200  0.51897400  0.99046500  1
  C  C6  1  0.94981700  0.68080000  0.23758100  1
  C  C7  1  0.09414800  0.03791600  0.42585300  1
  C  C8  1  0.38201200  0.48102600  0.50953500  1
  C  C9  1  0.61798800  0.51897400  0.49046500  1
  C  C10  1  0.44981700  0.31920000  0.26241900  1
  C  C11  1  0.11798800  0.48102600  0.00953500  1
  S  S0  1  0.10877000  0.49011100  0.65401100  1
  S  S1  1  0.66040400  0.23080100  0.51550500  1
  S  S2  1  0.35675600  0.30970600  0.92273800  1
  S  S3  1  0.89123000  0.50988900  0.34598900  1
  S  S4  1  0.39123000  0.49011100  0.15401100  1
  S  S5  1  0.64324400  0.69029400  0.07726200  1
  S  S6  1  0.14324400  0.30970600  0.42273800  1
  S  S7  1  0.85675600  0.69029400  0.57726200  1
  S  S8  1  0.33959600  0.76919900  0.48449500  1
  S  S9  1  0.60877000  0.50988900  0.84598900  1
  S  S10  1  0.16040400  0.76919900  0.98449500  1
  S  S11  1  0.83959600  0.23080100  0.01550500  1
  N  N0  1  0.51056800  0.80708100  0.65853200  1
  N  N1  1  0.91406000  0.72719900  0.97176200  1
  N  N2  1  0.98943200  0.80708100  0.15853200  1
  N  N3  1  0.44129900  0.83847300  0.93016700  1
  N  N4  1  0.55870100  0.16152700  0.06983300  1
  N  N5  1  0.41406000  0.27280100  0.52823800  1
  N  N6  1  0.58594000  0.72719900  0.47176200  1
  N  N7  1  0.94129900  0.16152700  0.56983300  1
  N  N8  1  0.48943200  0.19291900  0.34146800  1
  N  N9  1  0.05870100  0.83847300  0.43016700  1
  N  N10  1  0.08594000  0.27280100  0.02823800  1
  N  N11  1  0.01056800  0.19291900  0.84146800  1
loop_
_geom_bond_atom_site_label_1
_geom_bond_atom_site_label_2
_geom_bond_distance
_geom_bond_site_symmetry_2
Cs0 N5 3.226251 1_565
Cs0 N0 3.408868 1_555
Cs0 N3 3.510693 1_555
Cs0 S0 3.569367 1_555
Cs0 S8 3.588521 1_555
Cs0 S0 3.629073 1_565
Cs0 S10 3.652460 1_555
Cs0 S2 3.843592 1_555
Cs0 S2 4.050576 1_565
Cs0 S6 4.147655 1_565
Cs1 N6 3.226251 1_545
Cs1 N8 3.408868 1_555
Cs1 N4 3.510693 1_555
Cs1 S3 3.569367 1_555
Cs1 S1 3.588521 1_555
Cs1 S3 3.629073 1_545
Cs1 S11 3.652460 1_555
Cs1 S5 3.843592 1_555
Cs1 S5 4.050576 1_545
Cs1 S7 4.147655 1_545
Cs2 N10 3.226251 1_565
Cs2 N2 3.408868 1_455
Cs2 N9 3.510693 1_555
Cs2 S4 3.569367 1_555
Cs2 S10 3.588521 1_554
Cs2 S4 3.629073 1_565
Cs2 S8 3.652460 1_555
Cs2 S6 3.843592 1_555
Cs2 S6 4.050576 1_565
Cs2 S2 4.147655 1_564
Cs3 N1 3.226251 1_545
Cs3 N11 3.408868 1_655
Cs3 N7 3.510693 1_555
Cs3 S9 3.569367 1_555
Cs3 S11 3.588521 1_556
Cs3 S9 3.629073 1_545
Cs3 S1 3.652460 1_555
Cs3 S7 3.843592 1_555
Cs3 S7 4.050576 1_545
Cs3 S5 4.147655 1_546
Ni0 S0 2.477762 1_555
Ni0 S3 2.477762 1_455
Ni0 S6 2.539303 1_555
Ni0 S7 2.539303 1_455
Ni1 S11 2.528126 1_455
Ni1 S10 2.528126 1_544
Ni2 S4 2.477762 1_555
Ni2 S9 2.477762 1_554
Ni2 S5 2.539303 1_555
Ni2 S2 2.539303 1_554
Ni3 S1 2.528126 1_555
Ni3 S8 2.528126 1_545
C0 N7 1.186326 1_565
C0 S7 1.630103 1_555
C0 Cs3 3.470207 1_565
C1 N0 1.180927 1_555
C1 S9 1.641701 1_555
C1 Cs3 3.776681 1_565
C2 N11 1.180927 1_555
C2 S0 1.641701 1_555
C2 Cs0 3.776681 1_545
C3 N3 1.186326 1_545
C3 S2 1.630103 1_555
C3 Cs0 3.470207 1_545
C4 N4 1.186326 1_565
C4 S5 1.630103 1_555
C4 Cs1 3.470207 1_565
C5 N1 1.181304 1_555
C5 S11 1.626876 1_556
C5 Cs3 3.691562 1_565
C6 N2 1.180927 1_555
C6 S3 1.641701 1_555
C6 Cs1 3.776681 1_565
C7 N9 1.186326 1_545
C7 S6 1.630103 1_555
C7 Cs2 3.470207 1_545
C8 N5 1.181304 1_555
C8 S8 1.626876 1_555
C8 Cs0 3.691562 1_545
C9 N6 1.181304 1_555
C9 S1 1.626876 1_555
C9 Cs1 3.691562 1_565
C10 N8 1.180927 1_555
C10 S4 1.641701 1_555
C10 Cs2 3.776681 1_545
C11 N10 1.181304 1_555
C11 S10 1.626876 1_554
C11 Cs2 3.691562 1_545
N0 Ni3 2.030532 1_565
N1 Ni1 2.020264 1_666
N2 Ni1 2.030532 1_665
N3 Ni2 1.972864 1_556
N4 Ni2 1.972864 1_555
N5 Ni3 2.020264 1_555
N6 Ni3 2.020264 1_565
N7 Ni0 1.972864 1_655
N8 Ni3 2.030532 1_555
N9 Ni0 1.972864 1_555
N10 Ni1 2.020264 1_555
N11 Ni1 2.030532 1_556
