# generated using pymatgen
data_Mg2Zr14O5
_symmetry_space_group_name_H-M   'P 1'
_cell_length_a   6.48048866
_cell_length_b   6.48048947
_cell_length_c   108.51837045
_cell_angle_alpha   61.46189605
_cell_angle_beta   61.46189188
_cell_angle_gamma   60.00000636
_symmetry_Int_Tables_number   1
_chemical_formula_structural   Mg2Zr14O5
_chemical_formula_sum   'Mg16 Zr112 O40'
_cell_volume   3291.96237821
_cell_formula_units_Z   8
loop_
 _symmetry_equiv_pos_site_id
 _symmetry_equiv_pos_as_xyz
  1  'x, y, z'
loop_
 _atom_site_type_symbol
 _atom_site_label
 _atom_site_symmetry_multiplicity
 _atom_site_fract_x
 _atom_site_fract_y
 _atom_site_fract_z
 _atom_site_occupancy
  Mg  Mg0_0  1  0.46181600  0.46181600  0.03840950  1
  Mg  Mg0_1  1  0.46181600  0.46181600  0.53840950  1
  Mg  Mg0_2  1  0.46181600  0.96181600  0.03840950  1
  Mg  Mg0_3  1  0.46181600  0.96181600  0.53840950  1
  Mg  Mg0_4  1  0.96181600  0.46181600  0.03840950  1
  Mg  Mg0_5  1  0.96181600  0.46181600  0.53840950  1
  Mg  Mg0_6  1  0.96181600  0.96181600  0.03840950  1
  Mg  Mg0_7  1  0.96181600  0.96181600  0.53840950  1
  Mg  Mg1_0  1  0.05417100  0.05417100  0.33359300  1
  Mg  Mg1_1  1  0.05417100  0.05417100  0.83359300  1
  Mg  Mg1_2  1  0.05417100  0.55417100  0.33359300  1
  Mg  Mg1_3  1  0.05417100  0.55417100  0.83359300  1
  Mg  Mg1_4  1  0.55417100  0.05417100  0.33359300  1
  Mg  Mg1_5  1  0.55417100  0.05417100  0.83359300  1
  Mg  Mg1_6  1  0.55417100  0.55417100  0.33359300  1
  Mg  Mg1_7  1  0.55417100  0.55417100  0.83359300  1
  Zr  Zr0_0  1  0.44380550  0.44380550  0.01053650  1
  Zr  Zr0_1  1  0.44380550  0.44380550  0.51053650  1
  Zr  Zr0_2  1  0.44380550  0.94380550  0.01053650  1
  Zr  Zr0_3  1  0.44380550  0.94380550  0.51053650  1
  Zr  Zr0_4  1  0.94380550  0.44380550  0.01053650  1
  Zr  Zr0_5  1  0.94380550  0.44380550  0.51053650  1
  Zr  Zr0_6  1  0.94380550  0.94380550  0.01053650  1
  Zr  Zr0_7  1  0.94380550  0.94380550  0.51053650  1
  Zr  Zr1_0  1  0.44640050  0.44640050  0.10380000  1
  Zr  Zr1_1  1  0.44640050  0.44640050  0.60380000  1
  Zr  Zr1_2  1  0.44640050  0.94640050  0.10380000  1
  Zr  Zr1_3  1  0.44640050  0.94640050  0.60380000  1
  Zr  Zr1_4  1  0.94640050  0.44640050  0.10380000  1
  Zr  Zr1_5  1  0.94640050  0.44640050  0.60380000  1
  Zr  Zr1_6  1  0.94640050  0.94640050  0.10380000  1
  Zr  Zr1_7  1  0.94640050  0.94640050  0.60380000  1
  Zr  Zr2_0  1  0.47306850  0.47306850  0.06754950  1
  Zr  Zr2_1  1  0.47306850  0.47306850  0.56754950  1
  Zr  Zr2_2  1  0.47306850  0.97306850  0.06754950  1
  Zr  Zr2_3  1  0.47306850  0.97306850  0.56754950  1
  Zr  Zr2_4  1  0.97306850  0.47306850  0.06754950  1
  Zr  Zr2_5  1  0.97306850  0.47306850  0.56754950  1
  Zr  Zr2_6  1  0.97306850  0.97306850  0.06754950  1
  Zr  Zr2_7  1  0.97306850  0.97306850  0.56754950  1
  Zr  Zr3_0  1  0.47574600  0.47574600  0.16079750  1
  Zr  Zr3_1  1  0.47574600  0.47574600  0.66079750  1
  Zr  Zr3_2  1  0.47574600  0.97574600  0.16079750  1
  Zr  Zr3_3  1  0.47574600  0.97574600  0.66079750  1
  Zr  Zr3_4  1  0.97574600  0.47574600  0.16079750  1
  Zr  Zr3_5  1  0.97574600  0.47574600  0.66079750  1
  Zr  Zr3_6  1  0.97574600  0.97574600  0.16079750  1
  Zr  Zr3_7  1  0.97574600  0.97574600  0.66079750  1
  Zr  Zr4_0  1  0.46339250  0.46339250  0.13186400  1
  Zr  Zr4_1  1  0.46339250  0.46339250  0.63186400  1
  Zr  Zr4_2  1  0.46339250  0.96339250  0.13186400  1
  Zr  Zr4_3  1  0.46339250  0.96339250  0.63186400  1
  Zr  Zr4_4  1  0.96339250  0.46339250  0.13186400  1
  Zr  Zr4_5  1  0.96339250  0.46339250  0.63186400  1
  Zr  Zr4_6  1  0.96339250  0.96339250  0.13186400  1
  Zr  Zr4_7  1  0.96339250  0.96339250  0.63186400  1
  Zr  Zr5_0  1  0.48949350  0.48949350  0.18947000  1
  Zr  Zr5_1  1  0.48949350  0.48949350  0.68947000  1
  Zr  Zr5_2  1  0.48949350  0.98949350  0.18947000  1
  Zr  Zr5_3  1  0.48949350  0.98949350  0.68947000  1
  Zr  Zr5_4  1  0.98949350  0.48949350  0.18947000  1
  Zr  Zr5_5  1  0.98949350  0.48949350  0.68947000  1
  Zr  Zr5_6  1  0.98949350  0.98949350  0.18947000  1
  Zr  Zr5_7  1  0.98949350  0.98949350  0.68947000  1
  Zr  Zr6_0  1  0.00107150  0.00107150  0.21854900  1
  Zr  Zr6_1  1  0.00107150  0.00107150  0.71854900  1
  Zr  Zr6_2  1  0.00107150  0.50107150  0.21854900  1
  Zr  Zr6_3  1  0.00107150  0.50107150  0.71854900  1
  Zr  Zr6_4  1  0.50107150  0.00107150  0.21854900  1
  Zr  Zr6_5  1  0.50107150  0.00107150  0.71854900  1
  Zr  Zr6_6  1  0.50107150  0.50107150  0.21854900  1
  Zr  Zr6_7  1  0.50107150  0.50107150  0.71854900  1
  Zr  Zr7_0  1  0.02652300  0.02652300  0.27627700  1
  Zr  Zr7_1  1  0.02652300  0.02652300  0.77627700  1
  Zr  Zr7_2  1  0.02652300  0.52652300  0.27627700  1
  Zr  Zr7_3  1  0.02652300  0.52652300  0.77627700  1
  Zr  Zr7_4  1  0.52652300  0.02652300  0.27627700  1
  Zr  Zr7_5  1  0.52652300  0.02652300  0.77627700  1
  Zr  Zr7_6  1  0.52652300  0.52652300  0.27627700  1
  Zr  Zr7_7  1  0.52652300  0.52652300  0.77627700  1
  Zr  Zr8_0  1  0.01219350  0.01219350  0.24771350  1
  Zr  Zr8_1  1  0.01219350  0.01219350  0.74771350  1
  Zr  Zr8_2  1  0.01219350  0.51219350  0.24771350  1
  Zr  Zr8_3  1  0.01219350  0.51219350  0.74771350  1
  Zr  Zr8_4  1  0.51219350  0.01219350  0.24771350  1
  Zr  Zr8_5  1  0.51219350  0.01219350  0.74771350  1
  Zr  Zr8_6  1  0.51219350  0.51219350  0.24771350  1
  Zr  Zr8_7  1  0.51219350  0.51219350  0.74771350  1
  Zr  Zr9_0  1  0.04483600  0.04483600  0.30409350  1
  Zr  Zr9_1  1  0.04483600  0.04483600  0.80409350  1
  Zr  Zr9_2  1  0.04483600  0.54483600  0.30409350  1
  Zr  Zr9_3  1  0.04483600  0.54483600  0.80409350  1
  Zr  Zr9_4  1  0.54483600  0.04483600  0.30409350  1
  Zr  Zr9_5  1  0.54483600  0.04483600  0.80409350  1
  Zr  Zr9_6  1  0.54483600  0.54483600  0.30409350  1
  Zr  Zr9_7  1  0.54483600  0.54483600  0.80409350  1
  Zr  Zr10_0  1  0.03007550  0.03007550  0.40061100  1
  Zr  Zr10_1  1  0.03007550  0.03007550  0.90061100  1
  Zr  Zr10_2  1  0.03007550  0.53007550  0.40061100  1
  Zr  Zr10_3  1  0.03007550  0.53007550  0.90061100  1
  Zr  Zr10_4  1  0.53007550  0.03007550  0.40061100  1
  Zr  Zr10_5  1  0.53007550  0.03007550  0.90061100  1
  Zr  Zr10_6  1  0.53007550  0.53007550  0.40061100  1
  Zr  Zr10_7  1  0.53007550  0.53007550  0.90061100  1
  Zr  Zr11_0  1  0.06290450  0.06290450  0.36320550  1
  Zr  Zr11_1  1  0.06290450  0.06290450  0.86320550  1
  Zr  Zr11_2  1  0.06290450  0.56290450  0.36320550  1
  Zr  Zr11_3  1  0.06290450  0.56290450  0.86320550  1
  Zr  Zr11_4  1  0.56290450  0.06290450  0.36320550  1
  Zr  Zr11_5  1  0.56290450  0.06290450  0.86320550  1
  Zr  Zr11_6  1  0.56290450  0.56290450  0.36320550  1
  Zr  Zr11_7  1  0.56290450  0.56290450  0.86320550  1
  Zr  Zr12_0  1  0.49755700  0.49755700  0.43795800  1
  Zr  Zr12_1  1  0.49755700  0.49755700  0.93795800  1
  Zr  Zr12_2  1  0.49755700  0.99755700  0.43795800  1
  Zr  Zr12_3  1  0.49755700  0.99755700  0.93795800  1
  Zr  Zr12_4  1  0.99755700  0.49755700  0.43795800  1
  Zr  Zr12_5  1  0.99755700  0.49755700  0.93795800  1
  Zr  Zr12_6  1  0.99755700  0.99755700  0.43795800  1
  Zr  Zr12_7  1  0.99755700  0.99755700  0.93795800  1
  Zr  Zr13_0  1  0.46595800  0.46595800  0.47513300  1
  Zr  Zr13_1  1  0.46595800  0.46595800  0.97513300  1
  Zr  Zr13_2  1  0.46595800  0.96595800  0.47513300  1
  Zr  Zr13_3  1  0.46595800  0.96595800  0.97513300  1
  Zr  Zr13_4  1  0.96595800  0.46595800  0.47513300  1
  Zr  Zr13_5  1  0.96595800  0.46595800  0.97513300  1
  Zr  Zr13_6  1  0.96595800  0.96595800  0.47513300  1
  Zr  Zr13_7  1  0.96595800  0.96595800  0.97513300  1
  O  O0_0  1  0.35254000  0.35254000  0.09014850  1
  O  O0_1  1  0.35254000  0.35254000  0.59014850  1
  O  O0_2  1  0.35254000  0.85254000  0.09014850  1
  O  O0_3  1  0.35254000  0.85254000  0.59014850  1
  O  O0_4  1  0.85254000  0.35254000  0.09014850  1
  O  O0_5  1  0.85254000  0.35254000  0.59014850  1
  O  O0_6  1  0.85254000  0.85254000  0.09014850  1
  O  O0_7  1  0.85254000  0.85254000  0.59014850  1
  O  O1_0  1  0.44258350  0.44258350  0.38576550  1
  O  O1_1  1  0.44258350  0.44258350  0.88576550  1
  O  O1_2  1  0.44258350  0.94258350  0.38576550  1
  O  O1_3  1  0.44258350  0.94258350  0.88576550  1
  O  O1_4  1  0.94258350  0.44258350  0.38576550  1
  O  O1_5  1  0.94258350  0.44258350  0.88576550  1
  O  O1_6  1  0.94258350  0.94258350  0.38576550  1
  O  O1_7  1  0.94258350  0.94258350  0.88576550  1
  O  O2_0  1  0.40903650  0.40903650  0.42330550  1
  O  O2_1  1  0.40903650  0.40903650  0.92330550  1
  O  O2_2  1  0.40903650  0.90903650  0.42330550  1
  O  O2_3  1  0.40903650  0.90903650  0.92330550  1
  O  O2_4  1  0.90903650  0.40903650  0.42330550  1
  O  O2_5  1  0.90903650  0.40903650  0.92330550  1
  O  O2_6  1  0.90903650  0.90903650  0.42330550  1
  O  O2_7  1  0.90903650  0.90903650  0.92330550  1
  O  O3_0  1  0.37676350  0.37676350  0.46060700  1
  O  O3_1  1  0.37676350  0.37676350  0.96060700  1
  O  O3_2  1  0.37676350  0.87676350  0.46060700  1
  O  O3_3  1  0.37676350  0.87676350  0.96060700  1
  O  O3_4  1  0.87676350  0.37676350  0.46060700  1
  O  O3_5  1  0.87676350  0.37676350  0.96060700  1
  O  O3_6  1  0.87676350  0.87676350  0.46060700  1
  O  O3_7  1  0.87676350  0.87676350  0.96060700  1
  O  O4_0  1  0.34506400  0.34506400  0.49780050  1
  O  O4_1  1  0.34506400  0.34506400  0.99780050  1
  O  O4_2  1  0.34506400  0.84506400  0.49780050  1
  O  O4_3  1  0.34506400  0.84506400  0.99780050  1
  O  O4_4  1  0.84506400  0.34506400  0.49780050  1
  O  O4_5  1  0.84506400  0.34506400  0.99780050  1
  O  O4_6  1  0.84506400  0.84506400  0.49780050  1
  O  O4_7  1  0.84506400  0.84506400  0.99780050  1
loop_
_geom_bond_atom_site_label_1
_geom_bond_atom_site_label_2
_geom_bond_distance
_geom_bond_site_symmetry_2
Mg0_0 Zr0_0 3.140783 1_555
Mg0_0 Zr0_4 3.140785 1_555
Mg0_0 Zr0_2 3.140785 1_555
Mg0_0 Zr2_0 3.233617 1_555
Mg0_0 Zr2_4 3.233626 1_455
Mg0_0 Zr2_2 3.233626 1_545
Mg0_0 Mg0_4 3.240244 1_555
Mg0_0 Mg0_4 3.240244 1_455
Mg0_0 Mg0_2 3.240245 1_545
Mg0_0 Mg0_2 3.240245 1_555
Mg0_0 Mg0_6 3.240245 1_455
Mg0_0 Mg0_6 3.240245 1_545
Mg0_1 Zr0_1 3.140783 1_555
Mg0_1 Zr0_5 3.140785 1_555
Mg0_1 Zr0_3 3.140785 1_555
Mg0_1 Zr2_1 3.233617 1_555
Mg0_1 Zr2_5 3.233626 1_455
Mg0_1 Zr2_3 3.233626 1_545
Mg0_1 Mg0_5 3.240244 1_455
Mg0_1 Mg0_5 3.240244 1_555
Mg0_1 Mg0_3 3.240245 1_545
Mg0_1 Mg0_3 3.240245 1_555
Mg0_1 Mg0_7 3.240245 1_545
Mg0_1 Mg0_7 3.240245 1_455
Mg0_2 Zr0_2 3.140783 1_555
Mg0_2 Zr0_6 3.140785 1_555
Mg0_2 Zr0_0 3.140785 1_565
Mg0_2 Zr2_2 3.233617 1_555
Mg0_2 Zr2_6 3.233626 1_455
Mg0_2 Zr2_0 3.233626 1_555
Mg0_2 Mg0_6 3.240244 1_455
Mg0_2 Mg0_6 3.240244 1_555
Mg0_2 Mg0_4 3.240245 1_555
Mg0_2 Mg0_4 3.240245 1_465
Mg0_3 Zr0_3 3.140783 1_555
Mg0_3 Zr0_7 3.140785 1_555
Mg0_3 Zr0_1 3.140785 1_565
Mg0_3 Zr2_3 3.233617 1_555
Mg0_3 Zr2_7 3.233626 1_455
Mg0_3 Zr2_1 3.233626 1_555
Mg0_3 Mg0_7 3.240244 1_555
Mg0_3 Mg0_7 3.240244 1_455
Mg0_3 Mg0_5 3.240245 1_465
Mg0_3 Mg0_5 3.240245 1_555
Mg0_4 Zr0_4 3.140783 1_555
Mg0_4 Zr0_0 3.140785 1_655
Mg0_4 Zr0_6 3.140785 1_555
Mg0_4 Zr2_4 3.233617 1_555
Mg0_4 Zr2_0 3.233626 1_555
Mg0_4 Zr2_6 3.233626 1_545
Mg0_4 Mg0_6 3.240245 1_545
Mg0_4 Mg0_6 3.240245 1_555
Mg0_5 Zr0_5 3.140783 1_555
Mg0_5 Zr0_1 3.140785 1_655
Mg0_5 Zr0_7 3.140785 1_555
Mg0_5 Zr2_5 3.233617 1_555
Mg0_5 Zr2_1 3.233626 1_555
Mg0_5 Zr2_7 3.233626 1_545
Mg0_5 Mg0_7 3.240245 1_555
Mg0_5 Mg0_7 3.240245 1_545
Mg0_6 Zr0_6 3.140783 1_555
Mg0_6 Zr0_2 3.140785 1_655
Mg0_6 Zr0_4 3.140785 1_565
Mg0_6 Zr2_6 3.233617 1_555
Mg0_6 Zr2_2 3.233626 1_555
Mg0_6 Zr2_4 3.233626 1_555
Mg0_7 Zr0_7 3.140783 1_555
Mg0_7 Zr0_3 3.140785 1_655
Mg0_7 Zr0_5 3.140785 1_565
Mg0_7 Zr2_7 3.233617 1_555
Mg0_7 Zr2_3 3.233626 1_555
Mg0_7 Zr2_5 3.233626 1_555
Mg1_0 Mg1_4 3.240244 1_455
Mg1_0 Mg1_4 3.240244 1_555
Mg1_0 Mg1_2 3.240245 1_545
Mg1_0 Mg1_2 3.240245 1_555
Mg1_0 Mg1_6 3.240245 1_545
Mg1_0 Mg1_6 3.240245 1_455
Mg1_0 Zr9_0 3.260212 1_555
Mg1_0 Zr9_4 3.260221 1_555
Mg1_0 Zr9_2 3.260222 1_555
Mg1_0 Zr11_4 3.268599 1_455
Mg1_0 Zr11_2 3.268600 1_545
Mg1_0 Zr11_0 3.268601 1_555
Mg1_1 Mg1_5 3.240244 1_455
Mg1_1 Mg1_5 3.240244 1_555
Mg1_1 Mg1_3 3.240245 1_545
Mg1_1 Mg1_3 3.240245 1_555
Mg1_1 Mg1_7 3.240245 1_545
Mg1_1 Mg1_7 3.240245 1_455
Mg1_1 Zr9_1 3.260212 1_555
Mg1_1 Zr9_5 3.260221 1_555
Mg1_1 Zr9_3 3.260222 1_555
Mg1_1 Zr11_5 3.268599 1_455
Mg1_1 Zr11_3 3.268600 1_545
Mg1_1 Zr11_1 3.268601 1_555
Mg1_2 Mg1_6 3.240244 1_555
Mg1_2 Mg1_6 3.240244 1_455
Mg1_2 Mg1_4 3.240245 1_465
Mg1_2 Mg1_4 3.240245 1_555
Mg1_2 Zr9_2 3.260212 1_555
Mg1_2 Zr9_6 3.260221 1_555
Mg1_2 Zr9_0 3.260222 1_565
Mg1_2 Zr11_6 3.268599 1_455
Mg1_2 Zr11_0 3.268600 1_555
Mg1_2 Zr11_2 3.268601 1_555
Mg1_3 Mg1_7 3.240244 1_555
Mg1_3 Mg1_7 3.240244 1_455
Mg1_3 Mg1_5 3.240245 1_465
Mg1_3 Mg1_5 3.240245 1_555
Mg1_3 Zr9_3 3.260212 1_555
Mg1_3 Zr9_7 3.260221 1_555
Mg1_3 Zr9_1 3.260222 1_565
Mg1_3 Zr11_7 3.268599 1_455
Mg1_3 Zr11_1 3.268600 1_555
Mg1_3 Zr11_3 3.268601 1_555
Mg1_4 Mg1_6 3.240245 1_555
Mg1_4 Mg1_6 3.240245 1_545
Mg1_4 Zr9_4 3.260212 1_555
Mg1_4 Zr9_0 3.260221 1_655
Mg1_4 Zr9_6 3.260222 1_555
Mg1_4 Zr11_0 3.268599 1_555
Mg1_4 Zr11_6 3.268600 1_545
Mg1_4 Zr11_4 3.268601 1_555
Mg1_5 Mg1_7 3.240245 1_555
Mg1_5 Mg1_7 3.240245 1_545
Mg1_5 Zr9_5 3.260212 1_555
Mg1_5 Zr9_1 3.260221 1_655
Mg1_5 Zr9_7 3.260222 1_555
Mg1_5 Zr11_1 3.268599 1_555
Mg1_5 Zr11_7 3.268600 1_545
Mg1_5 Zr11_5 3.268601 1_555
Mg1_6 Zr9_6 3.260212 1_555
Mg1_6 Zr9_2 3.260221 1_655
Mg1_6 Zr9_4 3.260222 1_565
Mg1_6 Zr11_2 3.268599 1_555
Mg1_6 Zr11_4 3.268600 1_555
Mg1_6 Zr11_6 3.268601 1_555
Mg1_7 Zr9_7 3.260212 1_555
Mg1_7 Zr9_3 3.260221 1_655
Mg1_7 Zr9_5 3.260222 1_565
Mg1_7 Zr11_3 3.268599 1_555
Mg1_7 Zr11_5 3.268600 1_555
Mg1_7 Zr11_7 3.268601 1_555
Zr1_0 Zr4_4 3.154688 1_455
Zr1_0 Zr4_0 3.154688 1_555
Zr1_0 Zr4_2 3.154688 1_545
Zr1_1 Zr4_5 3.154688 1_455
Zr1_1 Zr4_1 3.154688 1_555
Zr1_1 Zr4_3 3.154688 1_545
Zr1_2 Zr4_6 3.154688 1_455
Zr1_2 Zr4_2 3.154688 1_555
Zr1_2 Zr4_0 3.154688 1_555
Zr1_3 Zr4_7 3.154688 1_455
Zr1_3 Zr4_3 3.154688 1_555
Zr1_3 Zr4_1 3.154688 1_555
Zr1_4 Zr4_0 3.154688 1_555
Zr1_4 Zr4_4 3.154688 1_555
Zr1_4 Zr4_6 3.154688 1_545
Zr1_5 Zr4_1 3.154688 1_555
Zr1_5 Zr4_5 3.154688 1_555
Zr1_5 Zr4_7 3.154688 1_545
Zr1_6 Zr4_2 3.154688 1_555
Zr1_6 Zr4_6 3.154688 1_555
Zr1_6 Zr4_4 3.154688 1_555
Zr1_7 Zr4_3 3.154688 1_555
Zr1_7 Zr4_7 3.154688 1_555
Zr1_7 Zr4_5 3.154688 1_555
Zr3_0 Zr5_4 3.199200 1_455
Zr3_0 Zr5_2 3.199200 1_545
Zr3_0 Zr5_0 3.199208 1_555
Zr3_0 Zr4_0 3.218388 1_555
Zr3_0 Zr4_4 3.218400 1_555
Zr3_0 Zr4_2 3.218400 1_555
Zr3_0 Zr3_4 3.240244 1_555
Zr3_0 Zr3_4 3.240244 1_455
Zr3_0 Zr3_2 3.240245 1_555
Zr3_0 Zr3_2 3.240245 1_545
Zr3_0 Zr3_6 3.240245 1_545
Zr3_0 Zr3_6 3.240245 1_455
Zr3_1 Zr5_5 3.199200 1_455
Zr3_1 Zr5_3 3.199200 1_545
Zr3_1 Zr5_1 3.199208 1_555
Zr3_1 Zr4_1 3.218388 1_555
Zr3_1 Zr4_5 3.218400 1_555
Zr3_1 Zr4_3 3.218400 1_555
Zr3_1 Zr3_5 3.240244 1_455
Zr3_1 Zr3_5 3.240244 1_555
Zr3_1 Zr3_3 3.240245 1_545
Zr3_1 Zr3_3 3.240245 1_555
Zr3_1 Zr3_7 3.240245 1_545
Zr3_1 Zr3_7 3.240245 1_455
Zr3_2 Zr5_6 3.199200 1_455
Zr3_2 Zr5_0 3.199200 1_555
Zr3_2 Zr5_2 3.199208 1_555
Zr3_2 Zr4_2 3.218388 1_555
Zr3_2 Zr4_6 3.218400 1_555
Zr3_2 Zr4_0 3.218400 1_565
Zr3_2 Zr3_6 3.240244 1_455
Zr3_2 Zr3_6 3.240244 1_555
Zr3_2 Zr3_4 3.240245 1_555
Zr3_2 Zr3_4 3.240245 1_465
Zr3_3 Zr5_7 3.199200 1_455
Zr3_3 Zr5_1 3.199200 1_555
Zr3_3 Zr5_3 3.199208 1_555
Zr3_3 Zr4_3 3.218388 1_555
Zr3_3 Zr4_7 3.218400 1_555
Zr3_3 Zr4_1 3.218400 1_565
Zr3_3 Zr3_7 3.240244 1_455
Zr3_3 Zr3_7 3.240244 1_555
Zr3_3 Zr3_5 3.240245 1_465
Zr3_3 Zr3_5 3.240245 1_555
Zr3_4 Zr5_0 3.199200 1_555
Zr3_4 Zr5_6 3.199200 1_545
Zr3_4 Zr5_4 3.199208 1_555
Zr3_4 Zr4_4 3.218388 1_555
Zr3_4 Zr4_0 3.218400 1_655
Zr3_4 Zr4_6 3.218400 1_555
Zr3_4 Zr3_6 3.240245 1_545
Zr3_4 Zr3_6 3.240245 1_555
Zr3_5 Zr5_1 3.199200 1_555
Zr3_5 Zr5_7 3.199200 1_545
Zr3_5 Zr5_5 3.199208 1_555
Zr3_5 Zr4_5 3.218388 1_555
Zr3_5 Zr4_1 3.218400 1_655
Zr3_5 Zr4_7 3.218400 1_555
Zr3_5 Zr3_7 3.240245 1_545
Zr3_5 Zr3_7 3.240245 1_555
Zr3_6 Zr5_2 3.199200 1_555
Zr3_6 Zr5_4 3.199200 1_555
Zr3_6 Zr5_6 3.199208 1_555
Zr3_6 Zr4_6 3.218388 1_555
Zr3_6 Zr4_2 3.218400 1_655
Zr3_6 Zr4_4 3.218400 1_565
Zr3_7 Zr5_3 3.199200 1_555
Zr3_7 Zr5_5 3.199200 1_555
Zr3_7 Zr5_7 3.199208 1_555
Zr3_7 Zr4_7 3.218388 1_555
Zr3_7 Zr4_3 3.218400 1_655
Zr3_7 Zr4_5 3.218400 1_565
Zr4_0 Zr4_4 3.240244 1_555
Zr4_0 Zr4_4 3.240244 1_455
Zr4_0 Zr4_2 3.240245 1_545
Zr4_0 Zr4_2 3.240245 1_555
Zr4_0 Zr4_6 3.240245 1_455
Zr4_0 Zr4_6 3.240245 1_545
Zr4_1 Zr4_5 3.240244 1_555
Zr4_1 Zr4_5 3.240244 1_455
Zr4_1 Zr4_3 3.240245 1_555
Zr4_1 Zr4_3 3.240245 1_545
Zr4_1 Zr4_7 3.240245 1_455
Zr4_1 Zr4_7 3.240245 1_545
Zr4_2 Zr4_6 3.240244 1_455
Zr4_2 Zr4_6 3.240244 1_555
Zr4_2 Zr4_4 3.240245 1_555
Zr4_2 Zr4_4 3.240245 1_465
Zr4_3 Zr4_7 3.240244 1_455
Zr4_3 Zr4_7 3.240244 1_555
Zr4_3 Zr4_5 3.240245 1_465
Zr4_3 Zr4_5 3.240245 1_555
Zr4_4 Zr4_6 3.240245 1_545
Zr4_4 Zr4_6 3.240245 1_555
Zr4_5 Zr4_7 3.240245 1_545
Zr4_5 Zr4_7 3.240245 1_555
Zr5_0 Zr6_6 3.229117 1_555
Zr5_0 Zr6_2 3.229123 1_555
Zr5_0 Zr6_4 3.229124 1_555
Zr5_0 Zr5_4 3.240244 1_555
Zr5_0 Zr5_4 3.240244 1_455
Zr5_0 Zr5_2 3.240245 1_555
Zr5_0 Zr5_2 3.240245 1_545
Zr5_0 Zr5_6 3.240245 1_455
Zr5_0 Zr5_6 3.240245 1_545
Zr5_1 Zr6_7 3.229117 1_555
Zr5_1 Zr6_3 3.229123 1_555
Zr5_1 Zr6_5 3.229124 1_555
Zr5_1 Zr5_5 3.240244 1_455
Zr5_1 Zr5_5 3.240244 1_555
Zr5_1 Zr5_3 3.240245 1_545
Zr5_1 Zr5_3 3.240245 1_555
Zr5_1 Zr5_7 3.240245 1_545
Zr5_1 Zr5_7 3.240245 1_455
Zr5_2 Zr6_4 3.229117 1_565
Zr5_2 Zr6_0 3.229123 1_565
Zr5_2 Zr6_6 3.229124 1_555
Zr5_2 Zr5_6 3.240244 1_455
Zr5_2 Zr5_6 3.240244 1_555
Zr5_2 Zr5_4 3.240245 1_465
Zr5_2 Zr5_4 3.240245 1_555
Zr5_3 Zr6_5 3.229117 1_565
Zr5_3 Zr6_1 3.229123 1_565
Zr5_3 Zr6_7 3.229124 1_555
Zr5_3 Zr5_7 3.240244 1_555
Zr5_3 Zr5_7 3.240244 1_455
Zr5_3 Zr5_5 3.240245 1_555
Zr5_3 Zr5_5 3.240245 1_465
Zr5_4 Zr6_2 3.229117 1_655
Zr5_4 Zr6_6 3.229123 1_555
Zr5_4 Zr6_0 3.229124 1_655
Zr5_4 Zr5_6 3.240245 1_555
Zr5_4 Zr5_6 3.240245 1_545
Zr5_5 Zr6_3 3.229117 1_655
Zr5_5 Zr6_7 3.229123 1_555
Zr5_5 Zr6_1 3.229124 1_655
Zr5_5 Zr5_7 3.240245 1_555
Zr5_5 Zr5_7 3.240245 1_545
Zr5_6 Zr6_0 3.229117 1_665
Zr5_6 Zr6_4 3.229123 1_565
Zr5_6 Zr6_2 3.229124 1_655
Zr5_7 Zr6_1 3.229117 1_665
Zr5_7 Zr6_5 3.229123 1_565
Zr5_7 Zr6_3 3.229124 1_655
Zr6_0 Zr8_0 3.235428 1_555
Zr6_0 Zr8_4 3.235434 1_455
Zr6_0 Zr8_2 3.235434 1_545
Zr6_0 Zr6_4 3.240244 1_555
Zr6_0 Zr6_4 3.240244 1_455
Zr6_0 Zr6_2 3.240245 1_555
Zr6_0 Zr6_2 3.240245 1_545
Zr6_0 Zr6_6 3.240245 1_545
Zr6_0 Zr6_6 3.240245 1_455
Zr6_1 Zr8_1 3.235428 1_555
Zr6_1 Zr8_5 3.235434 1_455
Zr6_1 Zr8_3 3.235434 1_545
Zr6_1 Zr6_5 3.240244 1_555
Zr6_1 Zr6_5 3.240244 1_455
Zr6_1 Zr6_3 3.240245 1_555
Zr6_1 Zr6_3 3.240245 1_545
Zr6_1 Zr6_7 3.240245 1_545
Zr6_1 Zr6_7 3.240245 1_455
Zr6_2 Zr8_2 3.235428 1_555
Zr6_2 Zr8_6 3.235434 1_455
Zr6_2 Zr8_0 3.235434 1_555
Zr6_2 Zr6_6 3.240244 1_455
Zr6_2 Zr6_6 3.240244 1_555
Zr6_2 Zr6_4 3.240245 1_465
Zr6_2 Zr6_4 3.240245 1_555
Zr6_3 Zr8_3 3.235428 1_555
Zr6_3 Zr8_7 3.235434 1_455
Zr6_3 Zr8_1 3.235434 1_555
Zr6_3 Zr6_7 3.240244 1_455
Zr6_3 Zr6_7 3.240244 1_555
Zr6_3 Zr6_5 3.240245 1_465
Zr6_3 Zr6_5 3.240245 1_555
Zr6_4 Zr8_4 3.235428 1_555
Zr6_4 Zr8_0 3.235434 1_555
Zr6_4 Zr8_6 3.235434 1_545
Zr6_4 Zr6_6 3.240245 1_545
Zr6_4 Zr6_6 3.240245 1_555
Zr6_5 Zr8_5 3.235428 1_555
Zr6_5 Zr8_1 3.235434 1_555
Zr6_5 Zr8_7 3.235434 1_545
Zr6_5 Zr6_7 3.240245 1_545
Zr6_5 Zr6_7 3.240245 1_555
Zr6_6 Zr8_6 3.235428 1_555
Zr6_6 Zr8_2 3.235434 1_555
Zr6_6 Zr8_4 3.235434 1_555
Zr6_7 Zr8_7 3.235428 1_555
Zr6_7 Zr8_3 3.235434 1_555
Zr6_7 Zr8_5 3.235434 1_555
Zr7_0 Zr9_4 3.136675 1_455
Zr7_0 Zr9_2 3.136675 1_545
Zr7_0 Zr9_0 3.136685 1_555
Zr7_0 Zr8_4 3.191199 1_555
Zr7_0 Zr8_2 3.191200 1_555
Zr7_0 Zr8_0 3.191214 1_555
Zr7_0 Zr7_4 3.240244 1_555
Zr7_0 Zr7_4 3.240244 1_455
Zr7_0 Zr7_2 3.240245 1_545
Zr7_0 Zr7_2 3.240245 1_555
Zr7_0 Zr7_6 3.240245 1_545
Zr7_0 Zr7_6 3.240245 1_455
Zr7_1 Zr9_5 3.136675 1_455
Zr7_1 Zr9_3 3.136675 1_545
Zr7_1 Zr9_1 3.136685 1_555
Zr7_1 Zr8_5 3.191199 1_555
Zr7_1 Zr8_3 3.191200 1_555
Zr7_1 Zr8_1 3.191214 1_555
Zr7_1 Zr7_5 3.240244 1_455
Zr7_1 Zr7_5 3.240244 1_555
Zr7_1 Zr7_3 3.240245 1_545
Zr7_1 Zr7_3 3.240245 1_555
Zr7_1 Zr7_7 3.240245 1_545
Zr7_1 Zr7_7 3.240245 1_455
Zr7_2 Zr9_6 3.136675 1_455
Zr7_2 Zr9_0 3.136675 1_555
Zr7_2 Zr9_2 3.136685 1_555
Zr7_2 Zr8_6 3.191199 1_555
Zr7_2 Zr8_0 3.191200 1_565
Zr7_2 Zr8_2 3.191214 1_555
Zr7_2 Zr7_6 3.240244 1_455
Zr7_2 Zr7_6 3.240244 1_555
Zr7_2 Zr7_4 3.240245 1_465
Zr7_2 Zr7_4 3.240245 1_555
Zr7_3 Zr9_7 3.136675 1_455
Zr7_3 Zr9_1 3.136675 1_555
Zr7_3 Zr9_3 3.136685 1_555
Zr7_3 Zr8_7 3.191199 1_555
Zr7_3 Zr8_1 3.191200 1_565
Zr7_3 Zr8_3 3.191214 1_555
Zr7_3 Zr7_7 3.240244 1_555
Zr7_3 Zr7_7 3.240244 1_455
Zr7_3 Zr7_5 3.240245 1_465
Zr7_3 Zr7_5 3.240245 1_555
Zr7_4 Zr9_0 3.136675 1_555
Zr7_4 Zr9_6 3.136675 1_545
Zr7_4 Zr9_4 3.136685 1_555
Zr7_4 Zr8_0 3.191199 1_655
Zr7_4 Zr8_6 3.191200 1_555
Zr7_4 Zr8_4 3.191214 1_555
Zr7_4 Zr7_6 3.240245 1_545
Zr7_4 Zr7_6 3.240245 1_555
Zr7_5 Zr9_1 3.136675 1_555
Zr7_5 Zr9_7 3.136675 1_545
Zr7_5 Zr9_5 3.136685 1_555
Zr7_5 Zr8_1 3.191199 1_655
Zr7_5 Zr8_7 3.191200 1_555
Zr7_5 Zr8_5 3.191214 1_555
Zr7_5 Zr7_7 3.240245 1_555
Zr7_5 Zr7_7 3.240245 1_545
Zr7_6 Zr9_2 3.136675 1_555
Zr7_6 Zr9_4 3.136675 1_555
Zr7_6 Zr9_6 3.136685 1_555
Zr7_6 Zr8_2 3.191199 1_655
Zr7_6 Zr8_4 3.191200 1_565
Zr7_6 Zr8_6 3.191214 1_555
Zr7_7 Zr9_3 3.136675 1_555
Zr7_7 Zr9_5 3.136675 1_555
Zr7_7 Zr9_7 3.136685 1_555
Zr7_7 Zr8_3 3.191199 1_655
Zr7_7 Zr8_5 3.191200 1_565
Zr7_7 Zr8_7 3.191214 1_555
Zr8_0 Zr8_4 3.240244 1_455
Zr8_0 Zr8_4 3.240244 1_555
Zr8_0 Zr8_2 3.240245 1_555
Zr8_0 Zr8_2 3.240245 1_545
Zr8_0 Zr8_6 3.240245 1_455
Zr8_0 Zr8_6 3.240245 1_545
Zr8_1 Zr8_5 3.240244 1_555
Zr8_1 Zr8_5 3.240244 1_455
Zr8_1 Zr8_3 3.240245 1_545
Zr8_1 Zr8_3 3.240245 1_555
Zr8_1 Zr8_7 3.240245 1_545
Zr8_1 Zr8_7 3.240245 1_455
Zr8_2 Zr8_6 3.240244 1_455
Zr8_2 Zr8_6 3.240244 1_555
Zr8_2 Zr8_4 3.240245 1_465
Zr8_2 Zr8_4 3.240245 1_555
Zr8_3 Zr8_7 3.240244 1_555
Zr8_3 Zr8_7 3.240244 1_455
Zr8_3 Zr8_5 3.240245 1_555
Zr8_3 Zr8_5 3.240245 1_465
Zr8_4 Zr8_6 3.240245 1_555
Zr8_4 Zr8_6 3.240245 1_545
Zr8_5 Zr8_7 3.240245 1_555
Zr8_5 Zr8_7 3.240245 1_545
Zr9_0 Zr9_4 3.240244 1_455
Zr9_0 Zr9_4 3.240244 1_555
Zr9_0 Zr9_2 3.240245 1_545
Zr9_0 Zr9_2 3.240245 1_555
Zr9_0 Zr9_6 3.240245 1_455
Zr9_0 Zr9_6 3.240245 1_545
Zr9_1 Zr9_5 3.240244 1_455
Zr9_1 Zr9_5 3.240244 1_555
Zr9_1 Zr9_3 3.240245 1_545
Zr9_1 Zr9_3 3.240245 1_555
Zr9_1 Zr9_7 3.240245 1_545
Zr9_1 Zr9_7 3.240245 1_455
Zr9_2 Zr9_6 3.240244 1_555
Zr9_2 Zr9_6 3.240244 1_455
Zr9_2 Zr9_4 3.240245 1_465
Zr9_2 Zr9_4 3.240245 1_555
Zr9_3 Zr9_7 3.240244 1_555
Zr9_3 Zr9_7 3.240244 1_455
Zr9_3 Zr9_5 3.240245 1_465
Zr9_3 Zr9_5 3.240245 1_555
Zr9_4 Zr9_6 3.240245 1_555
Zr9_4 Zr9_6 3.240245 1_545
Zr9_5 Zr9_7 3.240245 1_555
Zr9_5 Zr9_7 3.240245 1_545
O0_0 Zr2_0 2.045492 1_555
O0_0 Zr1_4 2.241980 1_455
O0_0 Zr1_2 2.241981 1_545
O0_0 Zr1_0 2.242006 1_555
O0_1 Zr2_1 2.045492 1_555
O0_1 Zr1_5 2.241980 1_455
O0_1 Zr1_3 2.241981 1_545
O0_1 Zr1_1 2.242006 1_555
O0_2 Zr2_2 2.045492 1_555
O0_2 Zr1_6 2.241980 1_455
O0_2 Zr1_0 2.241981 1_555
O0_2 Zr1_2 2.242006 1_555
O0_3 Zr2_3 2.045492 1_555
O0_3 Zr1_7 2.241980 1_455
O0_3 Zr1_1 2.241981 1_555
O0_3 Zr1_3 2.242006 1_555
O0_4 Zr2_4 2.045492 1_555
O0_4 Zr1_0 2.241980 1_555
O0_4 Zr1_6 2.241981 1_545
O0_4 Zr1_4 2.242006 1_555
O0_5 Zr2_5 2.045492 1_555
O0_5 Zr1_1 2.241980 1_555
O0_5 Zr1_7 2.241981 1_545
O0_5 Zr1_5 2.242006 1_555
O0_6 Zr2_6 2.045492 1_555
O0_6 Zr1_2 2.241980 1_555
O0_6 Zr1_4 2.241981 1_555
O0_6 Zr1_6 2.242006 1_555
O0_7 Zr2_7 2.045492 1_555
O0_7 Zr1_3 2.241980 1_555
O0_7 Zr1_5 2.241981 1_555
O0_7 Zr1_7 2.242006 1_555
O1_0 Zr11_6 2.041962 1_555
O1_0 Zr10_2 2.303310 1_555
O1_0 Zr10_4 2.303311 1_555
O1_0 Zr10_6 2.303329 1_555
O1_1 Zr11_7 2.041962 1_555
O1_1 Zr10_3 2.303310 1_555
O1_1 Zr10_5 2.303311 1_555
O1_1 Zr10_7 2.303329 1_555
O1_2 Zr11_4 2.041962 1_565
O1_2 Zr10_0 2.303310 1_565
O1_2 Zr10_6 2.303311 1_555
O1_2 Zr10_4 2.303329 1_565
O1_3 Zr11_5 2.041962 1_565
O1_3 Zr10_1 2.303310 1_565
O1_3 Zr10_7 2.303311 1_555
O1_3 Zr10_5 2.303329 1_565
O1_4 Zr11_2 2.041962 1_655
O1_4 Zr10_6 2.303310 1_555
O1_4 Zr10_0 2.303311 1_655
O1_4 Zr10_2 2.303329 1_655
O1_5 Zr11_3 2.041962 1_655
O1_5 Zr10_7 2.303310 1_555
O1_5 Zr10_1 2.303311 1_655
O1_5 Zr10_3 2.303329 1_655
O1_6 Zr11_0 2.041962 1_665
O1_6 Zr10_4 2.303310 1_565
O1_6 Zr10_2 2.303311 1_655
O1_6 Zr10_0 2.303329 1_665
O1_7 Zr11_1 2.041962 1_665
O1_7 Zr10_5 2.303310 1_565
O1_7 Zr10_3 2.303311 1_655
O1_7 Zr10_1 2.303329 1_665
O2_0 Zr10_6 2.054136 1_555
O2_0 Zr12_4 2.293167 1_455
O2_0 Zr12_2 2.293168 1_545
O2_0 Zr12_0 2.293174 1_555
O2_1 Zr10_7 2.054136 1_555
O2_1 Zr12_5 2.293167 1_455
O2_1 Zr12_3 2.293168 1_545
O2_1 Zr12_1 2.293174 1_555
O2_2 Zr10_4 2.054136 1_565
O2_2 Zr12_6 2.293167 1_455
O2_2 Zr12_0 2.293168 1_555
O2_2 Zr12_2 2.293174 1_555
O2_3 Zr10_5 2.054136 1_565
O2_3 Zr12_7 2.293167 1_455
O2_3 Zr12_1 2.293168 1_555
O2_3 Zr12_3 2.293174 1_555
O2_4 Zr10_2 2.054136 1_655
O2_4 Zr12_0 2.293167 1_555
O2_4 Zr12_6 2.293168 1_545
O2_4 Zr12_4 2.293174 1_555
O2_5 Zr10_3 2.054136 1_655
O2_5 Zr12_1 2.293167 1_555
O2_5 Zr12_7 2.293168 1_545
O2_5 Zr12_5 2.293174 1_555
O2_6 Zr10_0 2.054136 1_665
O2_6 Zr12_2 2.293167 1_555
O2_6 Zr12_4 2.293168 1_555
O2_6 Zr12_6 2.293174 1_555
O2_7 Zr10_1 2.054136 1_665
O2_7 Zr12_3 2.293167 1_555
O2_7 Zr12_5 2.293168 1_555
O2_7 Zr12_7 2.293174 1_555
O3_0 Zr12_0 2.050018 1_555
O3_0 Zr13_0 2.286565 1_555
O3_0 Zr13_4 2.286567 1_455
O3_0 Zr13_2 2.286568 1_545
O3_1 Zr12_1 2.050018 1_555
O3_1 Zr13_1 2.286565 1_555
O3_1 Zr13_5 2.286567 1_455
O3_1 Zr13_3 2.286568 1_545
O3_2 Zr12_2 2.050018 1_555
O3_2 Zr13_2 2.286565 1_555
O3_2 Zr13_6 2.286567 1_455
O3_2 Zr13_0 2.286568 1_555
O3_3 Zr12_3 2.050018 1_555
O3_3 Zr13_3 2.286565 1_555
O3_3 Zr13_7 2.286567 1_455
O3_3 Zr13_1 2.286568 1_555
O3_4 Zr12_4 2.050018 1_555
O3_4 Zr13_4 2.286565 1_555
O3_4 Zr13_0 2.286567 1_555
O3_4 Zr13_6 2.286568 1_545
O3_5 Zr12_5 2.050018 1_555
O3_5 Zr13_5 2.286565 1_555
O3_5 Zr13_1 2.286567 1_555
O3_5 Zr13_7 2.286568 1_545
O3_6 Zr12_6 2.050018 1_555
O3_6 Zr13_6 2.286565 1_555
O3_6 Zr13_2 2.286567 1_555
O3_6 Zr13_4 2.286568 1_555
O3_7 Zr12_7 2.050018 1_555
O3_7 Zr13_7 2.286565 1_555
O3_7 Zr13_3 2.286567 1_555
O3_7 Zr13_5 2.286568 1_555
O4_0 Zr13_0 2.051692 1_555
O4_0 Zr0_5 2.197407 1_455
O4_0 Zr0_3 2.197407 1_545
O4_0 Zr0_1 2.197409 1_555
O4_1 Zr13_1 2.051692 1_555
O4_1 Zr0_4 2.197407 1_456
O4_1 Zr0_2 2.197407 1_546
O4_1 Zr0_0 2.197409 1_556
O4_2 Zr13_2 2.051692 1_555
O4_2 Zr0_7 2.197407 1_455
O4_2 Zr0_1 2.197407 1_555
O4_2 Zr0_3 2.197409 1_555
O4_3 Zr13_3 2.051692 1_555
O4_3 Zr0_6 2.197407 1_456
O4_3 Zr0_0 2.197407 1_556
O4_3 Zr0_2 2.197409 1_556
O4_4 Zr13_4 2.051692 1_555
O4_4 Zr0_1 2.197407 1_555
O4_4 Zr0_7 2.197407 1_545
O4_4 Zr0_5 2.197409 1_555
O4_5 Zr13_5 2.051692 1_555
O4_5 Zr0_0 2.197407 1_556
O4_5 Zr0_6 2.197407 1_546
O4_5 Zr0_4 2.197409 1_556
O4_6 Zr13_6 2.051692 1_555
O4_6 Zr0_3 2.197407 1_555
O4_6 Zr0_5 2.197407 1_555
O4_6 Zr0_7 2.197409 1_555
O4_7 Zr13_7 2.051692 1_555
O4_7 Zr0_2 2.197407 1_556
O4_7 Zr0_4 2.197407 1_556
O4_7 Zr0_6 2.197409 1_556
