# generated using pymatgen
data_Dy2Zr2O7
_symmetry_space_group_name_H-M   'P 1'
_cell_length_a   3.61278900
_cell_length_b   7.53004000
_cell_length_c   10.65212700
_cell_angle_alpha   90.00000000
_cell_angle_beta   90.00000000
_cell_angle_gamma   90.00000000
_symmetry_Int_Tables_number   1
_chemical_formula_structural   Dy2Zr2O7
_chemical_formula_sum   'Dy4 Zr4 O14'
_cell_volume   289.78521036
_cell_formula_units_Z   2
loop_
 _symmetry_equiv_pos_site_id
 _symmetry_equiv_pos_as_xyz
  1  'x, y, z'
loop_
 _atom_site_type_symbol
 _atom_site_label
 _atom_site_symmetry_multiplicity
 _atom_site_fract_x
 _atom_site_fract_y
 _atom_site_fract_z
 _atom_site_occupancy
  Dy  Dy0  1  0.50000000  0.00000000  0.50000000  1
  Dy  Dy1  1  0.00000000  0.75000000  0.22533700  1
  Dy  Dy2  1  0.50000000  0.50000000  0.50000000  1
  Dy  Dy3  1  0.00000000  0.25000000  0.77466300  1
  Zr  Zr0  1  0.00000000  0.75000000  0.75517000  1
  Zr  Zr1  1  0.00000000  0.25000000  0.24483000  1
  Zr  Zr2  1  0.50000000  0.50000000  0.00000000  1
  Zr  Zr3  1  0.50000000  0.00000000  0.00000000  1
  O  O0  1  0.50000000  0.75000000  0.62078300  1
  O  O1  1  0.00000000  0.95706300  0.37016000  1
  O  O2  1  0.50000000  0.25000000  0.13262400  1
  O  O3  1  0.50000000  0.75000000  0.11032800  1
  O  O4  1  0.00000000  0.51955300  0.88149500  1
  O  O5  1  0.00000000  0.98044700  0.88149500  1
  O  O6  1  0.00000000  0.01955300  0.11850500  1
  O  O7  1  0.50000000  0.25000000  0.88967200  1
  O  O8  1  0.00000000  0.54293700  0.37016000  1
  O  O9  1  0.00000000  0.04293700  0.62984000  1
  O  O10  1  0.00000000  0.45706300  0.62984000  1
  O  O11  1  0.50000000  0.25000000  0.37921700  1
  O  O12  1  0.00000000  0.48044700  0.11850500  1
  O  O13  1  0.50000000  0.75000000  0.86737600  1
loop_
_geom_bond_atom_site_label_1
_geom_bond_atom_site_label_2
_geom_bond_distance
_geom_bond_site_symmetry_2
Dy0 O0 2.280169 1_545
Dy0 O11 2.280169 1_555
Dy0 O9 2.297930 1_655
Dy0 O9 2.297930 1_555
Dy0 O1 2.297930 1_545
Dy0 O1 2.297930 1_645
Dy1 O3 2.182638 1_455
Dy1 O3 2.182638 1_555
Dy1 O1 2.193381 1_555
Dy1 O8 2.193381 1_555
Dy1 O6 2.326990 1_565
Dy1 O12 2.326990 1_555
Dy2 O0 2.280169 1_555
Dy2 O11 2.280169 1_555
Dy2 O8 2.297930 1_655
Dy2 O8 2.297930 1_555
Dy2 O10 2.297930 1_555
Dy2 O10 2.297930 1_655
Dy3 O7 2.182638 1_555
Dy3 O7 2.182638 1_455
Dy3 O10 2.193381 1_555
Dy3 O9 2.193381 1_555
Dy3 O4 2.326990 1_555
Dy3 O5 2.326990 1_545
O0 Zr0 2.304837 1_555
O0 Zr0 2.304837 1_655
O1 Zr1 2.578368 1_565
O2 Zr1 2.166020 1_655
O2 Zr1 2.166020 1_555
O2 Zr3 2.353645 1_555
O2 Zr2 2.353645 1_555
O3 Zr2 2.219235 1_555
O3 Zr3 2.219235 1_565
O4 Zr0 2.195882 1_555
O4 Zr2 2.208669 1_456
O4 Zr2 2.208669 1_556
O5 Zr0 2.195882 1_555
O5 Zr3 2.208669 1_566
O5 Zr3 2.208669 1_466
O6 Zr1 2.195882 1_555
O6 Zr3 2.208669 1_555
O6 Zr3 2.208669 1_455
O7 Zr2 2.219235 1_556
O7 Zr3 2.219235 1_556
O8 Zr1 2.578368 1_555
O9 Zr0 2.578368 1_545
O10 Zr0 2.578368 1_555
O11 Zr1 2.304837 1_655
O11 Zr1 2.304837 1_555
O12 Zr1 2.195882 1_555
O12 Zr2 2.208669 1_455
O12 Zr2 2.208669 1_555
O13 Zr0 2.166020 1_555
O13 Zr0 2.166020 1_655
O13 Zr3 2.353645 1_566
O13 Zr2 2.353645 1_556
