# generated using pymatgen
data_K2Pd3Se4
_symmetry_space_group_name_H-M   'P 1'
_cell_length_a   14.59587281
_cell_length_b   13.85333311
_cell_length_c   6.46558105
_cell_angle_alpha   83.37125759
_cell_angle_beta   70.52409851
_cell_angle_gamma   26.10464390
_symmetry_Int_Tables_number   1
_chemical_formula_structural   K2Pd3Se4
_chemical_formula_sum   'K4 Pd6 Se8'
_cell_volume   486.09066489
_cell_formula_units_Z   2
loop_
 _symmetry_equiv_pos_site_id
 _symmetry_equiv_pos_as_xyz
  1  'x, y, z'
loop_
 _atom_site_type_symbol
 _atom_site_label
 _atom_site_symmetry_multiplicity
 _atom_site_fract_x
 _atom_site_fract_y
 _atom_site_fract_z
 _atom_site_occupancy
  K  K0  1  0.54642000  0.55668400  0.70737200  1
  K  K1  1  0.70057400  0.69982100  0.54836800  1
  K  K2  1  0.45132200  0.44857700  0.30322600  1
  K  K3  1  0.29513600  0.30598100  0.45641100  1
  Pd  Pd0  1  0.11508200  0.13295800  0.62997500  1
  Pd  Pd1  1  0.36895900  0.37791800  0.88498200  1
  Pd  Pd2  1  0.86717000  0.88362300  0.37664400  1
  Pd  Pd3  1  0.88323000  0.86588900  0.87038400  1
  Pd  Pd4  1  0.11871200  0.13340900  0.12789400  1
  Pd  Pd5  1  0.62892100  0.62575600  0.12670300  1
  Se  Se0  1  0.76071000  0.10841900  0.65396600  1
  Se  Se1  1  0.10502000  0.77027200  0.97172200  1
  Se  Se2  1  0.65126300  0.97781900  0.77113700  1
  Se  Se3  1  0.01674400  0.35600000  0.89567600  1
  Se  Se4  1  0.24216700  0.88512100  0.34914000  1
  Se  Se5  1  0.98057000  0.64490400  0.10832200  1
  Se  Se6  1  0.35220800  0.02215900  0.23845800  1
  Se  Se7  1  0.88454700  0.24212300  0.02444900  1
loop_
_geom_bond_atom_site_label_1
_geom_bond_atom_site_label_2
_geom_bond_distance
_geom_bond_site_symmetry_2
K0 Se1 3.573731 1_555
K0 Se0 3.654697 1_555
K0 Se4 3.663750 1_556
K0 Se7 3.688935 1_556
K0 Se4 3.731566 1_555
K0 Pd0 3.742241 1_655
K0 Se7 3.758858 1_555
K0 Se7 3.772674 1_466
K0 Pd4 3.783700 1_566
K0 Pd4 3.798716 1_655
K0 Pd0 3.811932 1_565
K0 Pd5 3.815985 1_556
K0 Se4 3.828229 1_645
K0 Pd5 3.832268 1_555
K1 Se5 3.540870 1_555
K1 Se2 3.610469 1_555
K1 Se6 3.709300 1_565
K1 Se6 3.725773 1_655
K1 Se3 3.737594 1_654
K1 Se3 3.740266 1_655
K1 Pd5 3.748821 1_555
K1 Pd4 3.749969 1_655
K1 Se3 3.756837 1_565
K1 Pd0 3.793904 1_655
K1 Se6 3.794125 1_566
K1 Pd5 3.816077 1_556
K1 Pd4 3.821601 1_566
K1 Pd0 3.865627 1_565
K2 Se7 3.538716 1_555
K2 Se4 3.554381 1_555
K2 Se1 3.676126 1_555
K2 Se0 3.726150 1_555
K2 Se1 3.730896 1_644
K2 Se0 3.732065 1_554
K2 Pd2 3.750592 1_545
K2 Pd3 3.761510 1_455
K2 Se0 3.790245 1_465
K2 Se1 3.816576 1_554
K2 Pd1 3.822080 1_554
K2 Pd3 3.845939 1_544
K2 Pd1 3.847022 1_555
K2 Pd2 3.862310 1_455
K3 Se6 3.571196 1_555
K3 Se3 3.572043 1_555
K3 Se2 3.689759 1_455
K3 Pd3 3.712673 1_455
K3 Se5 3.720116 1_456
K3 Se5 3.731607 1_455
K3 Se2 3.764307 1_544
K3 Se5 3.770723 1_545
K3 Pd1 3.772040 1_554
K3 Pd2 3.781446 1_545
K3 Se2 3.782081 1_545
K3 Pd1 3.793342 1_555
K3 Pd2 3.839534 1_455
K3 Pd3 3.855408 1_544
Pd0 Se7 2.478509 1_456
Pd0 Se3 2.484918 1_555
Pd0 Se6 2.501311 1_555
Pd0 Se4 2.506229 1_545
Pd1 Se5 2.453392 1_456
Pd1 Se0 2.473228 1_555
Pd1 Se2 2.478599 1_545
Pd1 Se1 2.521003 1_555
Pd2 Se0 2.463344 1_565
Pd2 Se2 2.482443 1_555
Pd2 Se5 2.502994 1_555
Pd2 Se1 2.543610 1_654
Pd3 Se2 2.463670 1_555
Pd3 Se1 2.485192 1_655
Pd3 Se0 2.497348 1_565
Pd3 Se5 2.513134 1_556
Pd4 Se3 2.481289 1_554
Pd4 Se6 2.537347 1_555
Pd4 Se7 2.538546 1_455
Pd4 Se4 2.564301 1_545
Pd5 Se3 2.428510 1_654
Pd5 Se6 2.475337 1_565
Pd5 Se7 2.481211 1_555
Pd5 Se4 2.489233 1_555
