# generated using pymatgen
data_YbCu(MoO4)2
_symmetry_space_group_name_H-M   'P 1'
_cell_length_a   9.89753000
_cell_length_b   10.42189600
_cell_length_c   14.67865000
_cell_angle_alpha   90.00000000
_cell_angle_beta   90.00000000
_cell_angle_gamma   90.00000000
_symmetry_Int_Tables_number   1
_chemical_formula_structural   YbCu(MoO4)2
_chemical_formula_sum   'Yb8 Cu8 Mo16 O64'
_cell_volume   1514.11784180
_cell_formula_units_Z   8
loop_
 _symmetry_equiv_pos_site_id
 _symmetry_equiv_pos_as_xyz
  1  'x, y, z'
loop_
 _atom_site_type_symbol
 _atom_site_label
 _atom_site_symmetry_multiplicity
 _atom_site_fract_x
 _atom_site_fract_y
 _atom_site_fract_z
 _atom_site_occupancy
  Yb  Yb0  1  0.27596000  0.46849400  0.89640800  1
  Yb  Yb1  1  0.22404000  0.46849400  0.39640800  1
  Yb  Yb2  1  0.72404000  0.53150600  0.10359200  1
  Yb  Yb3  1  0.72404000  0.03150600  0.39640800  1
  Yb  Yb4  1  0.77596000  0.03150600  0.89640800  1
  Yb  Yb5  1  0.27596000  0.96849400  0.60359200  1
  Yb  Yb6  1  0.77596000  0.53150600  0.60359200  1
  Yb  Yb7  1  0.22404000  0.96849400  0.10359200  1
  Cu  Cu0  1  0.30923700  0.31663700  0.70227400  1
  Cu  Cu1  1  0.69076300  0.68336300  0.29772600  1
  Cu  Cu2  1  0.80923700  0.18336300  0.70227400  1
  Cu  Cu3  1  0.19076300  0.31663700  0.20227400  1
  Cu  Cu4  1  0.80923700  0.68336300  0.79772600  1
  Cu  Cu5  1  0.19076300  0.81663700  0.29772600  1
  Cu  Cu6  1  0.30923700  0.81663700  0.79772600  1
  Cu  Cu7  1  0.69076300  0.18336300  0.20227400  1
  Mo  Mo0  1  0.33256700  0.10512900  0.34445400  1
  Mo  Mo1  1  0.50388900  0.27861800  0.55434200  1
  Mo  Mo2  1  0.49611100  0.72138200  0.44565800  1
  Mo  Mo3  1  0.66743300  0.89487100  0.65554600  1
  Mo  Mo4  1  0.00388900  0.22138200  0.55434200  1
  Mo  Mo5  1  0.50388900  0.77861800  0.94565800  1
  Mo  Mo6  1  0.16743300  0.60512900  0.65554600  1
  Mo  Mo7  1  0.00388900  0.72138200  0.94565800  1
  Mo  Mo8  1  0.83256700  0.89487100  0.15554600  1
  Mo  Mo9  1  0.99611100  0.77861800  0.44565800  1
  Mo  Mo10  1  0.99611100  0.27861800  0.05434200  1
  Mo  Mo11  1  0.49611100  0.22138200  0.05434200  1
  Mo  Mo12  1  0.16743300  0.10512900  0.84445400  1
  Mo  Mo13  1  0.33256700  0.60512900  0.15554600  1
  Mo  Mo14  1  0.66743300  0.39487100  0.84445400  1
  Mo  Mo15  1  0.83256700  0.39487100  0.34445400  1
  O  O0  1  0.38717800  0.18722400  0.63292400  1
  O  O1  1  0.11279700  0.32812300  0.49681800  1
  O  O2  1  0.88720300  0.67187700  0.50318200  1
  O  O3  1  0.90821200  0.62867700  0.02359200  1
  O  O4  1  0.79602400  0.42220000  0.45979800  1
  O  O5  1  0.77150400  0.23295100  0.31428600  1
  O  O6  1  0.09998500  0.11790000  0.62653400  1
  O  O7  1  0.27150400  0.76704900  0.18571400  1
  O  O8  1  0.75604600  0.01500200  0.72517400  1
  O  O9  1  0.59998500  0.38210000  0.62653400  1
  O  O10  1  0.50844000  0.09044800  0.32975300  1
  O  O11  1  0.61282200  0.31277600  0.13292400  1
  O  O12  1  0.09178800  0.87132300  0.52359200  1
  O  O13  1  0.74395400  0.51500200  0.27482600  1
  O  O14  1  0.49156000  0.90955200  0.67024700  1
  O  O15  1  0.50844000  0.59044800  0.17024700  1
  O  O16  1  0.79602400  0.92220000  0.04020200  1
  O  O17  1  0.29602400  0.07780000  0.45979800  1
  O  O18  1  0.61279700  0.67187700  0.00318200  1
  O  O19  1  0.00844000  0.40955200  0.32975300  1
  O  O20  1  0.22849600  0.26704900  0.81428600  1
  O  O21  1  0.77150400  0.73295100  0.18571400  1
  O  O22  1  0.90821200  0.12867700  0.47640800  1
  O  O23  1  0.88717800  0.31277600  0.63292400  1
  O  O24  1  0.38720300  0.32812300  0.99681800  1
  O  O25  1  0.25604600  0.48499800  0.72517400  1
  O  O26  1  0.72849600  0.73295100  0.68571400  1
  O  O27  1  0.75604600  0.51500200  0.77482600  1
  O  O28  1  0.40821200  0.87132300  0.02359200  1
  O  O29  1  0.25604600  0.98499800  0.77482600  1
  O  O30  1  0.40821200  0.37132300  0.47640800  1
  O  O31  1  0.29602400  0.57780000  0.04020200  1
  O  O32  1  0.20397600  0.07780000  0.95979800  1
  O  O33  1  0.38717800  0.68722400  0.86707600  1
  O  O34  1  0.24395400  0.48499800  0.22517400  1
  O  O35  1  0.38720300  0.82812300  0.50318200  1
  O  O36  1  0.49156000  0.40955200  0.82975300  1
  O  O37  1  0.88720300  0.17187700  0.99681800  1
  O  O38  1  0.72849600  0.23295100  0.81428600  1
  O  O39  1  0.27150400  0.26704900  0.31428600  1
  O  O40  1  0.99156000  0.59044800  0.67024700  1
  O  O41  1  0.90001500  0.38210000  0.12653400  1
  O  O42  1  0.11282200  0.18722400  0.13292400  1
  O  O43  1  0.59178800  0.62867700  0.52359200  1
  O  O44  1  0.90001500  0.88210000  0.37346600  1
  O  O45  1  0.09998500  0.61790000  0.87346600  1
  O  O46  1  0.11279700  0.82812300  0.00318200  1
  O  O47  1  0.70397600  0.92220000  0.54020200  1
  O  O48  1  0.20397600  0.57780000  0.54020200  1
  O  O49  1  0.40001500  0.11790000  0.12653400  1
  O  O50  1  0.40001500  0.61790000  0.37346600  1
  O  O51  1  0.59178800  0.12867700  0.97640800  1
  O  O52  1  0.88717800  0.81277600  0.86707600  1
  O  O53  1  0.59998500  0.88210000  0.87346600  1
  O  O54  1  0.09178800  0.37132300  0.97640800  1
  O  O55  1  0.70397600  0.42220000  0.95979800  1
  O  O56  1  0.74395400  0.01500200  0.22517400  1
  O  O57  1  0.24395400  0.98499800  0.27482600  1
  O  O58  1  0.99156000  0.09044800  0.82975300  1
  O  O59  1  0.00844000  0.90955200  0.17024700  1
  O  O60  1  0.61282200  0.81277600  0.36707600  1
  O  O61  1  0.61279700  0.17187700  0.49681800  1
  O  O62  1  0.22849600  0.76704900  0.68571400  1
  O  O63  1  0.11282200  0.68722400  0.36707600  1
loop_
_geom_bond_atom_site_label_1
_geom_bond_atom_site_label_2
_geom_bond_distance
_geom_bond_site_symmetry_2
Cu0 O0 1.857529 1_555
Cu0 O25 1.862502 1_555
Cu0 O20 1.899749 1_555
Cu1 O60 1.857529 1_555
Cu1 O13 1.862502 1_555
Cu1 O21 1.899749 1_555
Cu2 O23 1.857529 1_555
Cu2 O8 1.862502 1_555
Cu2 O38 1.899749 1_555
Cu3 O42 1.857529 1_555
Cu3 O34 1.862502 1_555
Cu3 O39 1.899749 1_555
Cu4 O52 1.857529 1_555
Cu4 O27 1.862502 1_555
Cu4 O26 1.899749 1_555
Cu5 O63 1.857529 1_555
Cu5 O57 1.862502 1_555
Cu5 O7 1.899749 1_555
Cu6 O33 1.857529 1_555
Cu6 O29 1.862502 1_555
Cu6 O62 1.899749 1_555
Cu7 O11 1.857529 1_555
Cu7 O56 1.862502 1_555
Cu7 O5 1.899749 1_555
Mo0 O17 1.754567 1_555
Mo0 O10 1.760693 1_555
Mo0 O57 1.838825 1_545
Mo0 O39 1.846365 1_555
Mo1 O61 1.764203 1_555
Mo1 O30 1.771686 1_555
Mo1 O9 1.786241 1_555
Mo1 O0 1.890010 1_555
Mo2 O35 1.764203 1_555
Mo2 O43 1.771686 1_555
Mo2 O50 1.786241 1_555
Mo2 O60 1.890010 1_555
Mo3 O47 1.754567 1_555
Mo3 O14 1.760693 1_555
Mo3 O8 1.838825 1_565
Mo3 O26 1.846365 1_555
Mo4 O1 1.764203 1_555
Mo4 O22 1.771686 1_455
Mo4 O6 1.786241 1_555
Mo4 O23 1.890010 1_455
Mo5 O18 1.764203 1_556
Mo5 O28 1.771686 1_556
Mo5 O53 1.786241 1_555
Mo5 O33 1.890010 1_555
Mo6 O48 1.754567 1_555
Mo6 O40 1.760693 1_455
Mo6 O25 1.838825 1_555
Mo6 O62 1.846365 1_555
Mo7 O46 1.764203 1_556
Mo7 O3 1.771686 1_456
Mo7 O45 1.786241 1_555
Mo7 O52 1.890010 1_455
Mo8 O16 1.754567 1_555
Mo8 O59 1.760693 1_655
Mo8 O56 1.838825 1_565
Mo8 O21 1.846365 1_555
Mo9 O2 1.764203 1_555
Mo9 O12 1.771686 1_655
Mo9 O44 1.786241 1_555
Mo9 O63 1.890010 1_655
Mo10 O37 1.764203 1_554
Mo10 O54 1.771686 1_654
Mo10 O41 1.786241 1_555
Mo10 O42 1.890010 1_655
Mo11 O24 1.764203 1_554
Mo11 O51 1.771686 1_554
Mo11 O49 1.786241 1_555
Mo11 O11 1.890010 1_555
Mo12 O32 1.754567 1_555
Mo12 O58 1.760693 1_455
Mo12 O29 1.838825 1_545
Mo12 O20 1.846365 1_555
Mo13 O31 1.754567 1_555
Mo13 O15 1.760693 1_555
Mo13 O34 1.838825 1_555
Mo13 O7 1.846365 1_555
Mo14 O55 1.754567 1_555
Mo14 O36 1.760693 1_555
Mo14 O27 1.838825 1_555
Mo14 O38 1.846365 1_555
Mo15 O4 1.754567 1_555
Mo15 O19 1.760693 1_655
Mo15 O13 1.838825 1_555
Mo15 O5 1.846365 1_555
O0 Yb5 2.567799 1_545
O1 Yb1 2.350483 1_555
O2 Yb6 2.350483 1_555
O3 Yb2 2.393180 1_555
O4 Yb6 2.406703 1_555
O5 Yb3 2.466053 1_555
O6 Yb5 2.360408 1_545
O7 Yb7 2.466053 1_555
O8 Yb4 2.527061 1_555
O9 Yb6 2.360408 1_555
O10 Yb3 2.426559 1_555
O11 Yb2 2.567799 1_555
O12 Yb5 2.393180 1_555
O13 Yb2 2.527061 1_555
O14 Yb5 2.426559 1_555
O15 Yb2 2.426559 1_555
O16 Yb4 2.406703 1_564
O17 Yb5 2.406703 1_545
O18 Yb2 2.350483 1_555
O19 Yb1 2.426559 1_555
O20 Yb0 2.466053 1_555
O21 Yb2 2.466053 1_555
O22 Yb3 2.393180 1_555
O23 Yb6 2.567799 1_555
O24 Yb0 2.350483 1_555
O25 Yb0 2.527061 1_555
O26 Yb6 2.466053 1_555
O27 Yb6 2.527061 1_555
O28 Yb7 2.393180 1_555
O29 Yb5 2.527061 1_555
O30 Yb1 2.393180 1_555
O31 Yb0 2.406703 1_554
O32 Yb7 2.406703 1_546
O33 Yb0 2.567799 1_555
O34 Yb1 2.527061 1_555
O35 Yb5 2.350483 1_555
O36 Yb0 2.426559 1_555
O37 Yb4 2.350483 1_555
O38 Yb4 2.466053 1_555
O39 Yb1 2.466053 1_555
O40 Yb6 2.426559 1_555
O41 Yb2 2.360408 1_555
O42 Yb7 2.567799 1_545
O43 Yb6 2.393180 1_555
O44 Yb3 2.360408 1_565
O45 Yb0 2.360408 1_555
O46 Yb7 2.350483 1_555
O47 Yb3 2.406703 1_565
O48 Yb1 2.406703 1_555
O49 Yb7 2.360408 1_545
O50 Yb1 2.360408 1_555
O51 Yb4 2.393180 1_555
O52 Yb4 2.567799 1_565
O53 Yb4 2.360408 1_565
O54 Yb0 2.393180 1_555
O55 Yb2 2.406703 1_556
O56 Yb3 2.527061 1_555
O57 Yb7 2.527061 1_555
O58 Yb4 2.426559 1_555
O59 Yb7 2.426559 1_555
O60 Yb3 2.567799 1_565
O61 Yb3 2.350483 1_555
O62 Yb5 2.466053 1_555
O63 Yb1 2.567799 1_555
