# generated using pymatgen
data_Yb2S3
_symmetry_space_group_name_H-M   'P 1'
_cell_length_a   14.36893066
_cell_length_b   14.36893066
_cell_length_c   14.36893066
_cell_angle_alpha   146.02621591
_cell_angle_beta   146.02621591
_cell_angle_gamma   48.80782514
_symmetry_Int_Tables_number   1
_chemical_formula_structural   Yb2S3
_chemical_formula_sum   'Yb16 S24'
_cell_volume   922.37576025
_cell_formula_units_Z   8
loop_
 _symmetry_equiv_pos_site_id
 _symmetry_equiv_pos_as_xyz
  1  'x, y, z'
loop_
 _atom_site_type_symbol
 _atom_site_label
 _atom_site_symmetry_multiplicity
 _atom_site_fract_x
 _atom_site_fract_y
 _atom_site_fract_z
 _atom_site_occupancy
  Yb  Yb0  1  0.15862200  0.25788900  0.34000300  1
  Yb  Yb1  1  0.91788600  0.81861900  0.65999700  1
  Yb  Yb2  1  0.59038400  0.09038400  0.50000000  1
  Yb  Yb3  1  0.37500000  0.76060500  0.88560500  1
  Yb  Yb4  1  0.83211400  0.99211100  0.40073400  1
  Yb  Yb5  1  0.15961600  0.15961600  0.00000000  1
  Yb  Yb6  1  0.59137800  0.43138100  0.59926600  1
  Yb  Yb7  1  0.87500000  0.48939500  0.11439500  1
  Yb  Yb8  1  0.00788900  0.40862200  0.84000300  1
  Yb  Yb9  1  0.51060500  0.62500000  0.38560500  1
  Yb  Yb10  1  0.84038400  0.84038400  0.00000000  1
  Yb  Yb11  1  0.23939500  0.12500000  0.61439500  1
  Yb  Yb12  1  0.56861900  0.16788600  0.15999700  1
  Yb  Yb13  1  0.90961600  0.40961600  0.50000000  1
  Yb  Yb14  1  0.74211100  0.08211400  0.90073400  1
  Yb  Yb15  1  0.18138100  0.84137800  0.09926600  1
  S  S0  1  0.46694300  0.42725700  0.68298200  1
  S  S1  1  0.24724800  0.97281500  0.08629700  1
  S  S2  1  0.88651800  0.16095000  0.91370300  1
  S  S3  1  0.50275200  0.08905000  0.22556800  1
  S  S4  1  0.86348200  0.27718500  0.77443200  1
  S  S5  1  0.28305700  0.46603900  0.46031400  1
  S  S6  1  0.74427500  0.78396100  0.31701800  1
  S  S7  1  0.00572500  0.82274300  0.53968600  1
  S  S8  1  0.21930000  0.14856900  0.83706100  1
  S  S9  1  0.85143100  0.68849100  0.07073100  1
  S  S10  1  0.61776000  0.78070000  0.92926900  1
  S  S11  1  0.17725700  0.71694300  0.18298200  1
  S  S12  1  0.53396100  0.99427500  0.81701800  1
  S  S13  1  0.91095000  0.13651800  0.41370300  1
  S  S14  1  0.31150900  0.38224000  0.16293900  1
  S  S15  1  0.72281500  0.49724800  0.58629700  1
  S  S16  1  0.83905000  0.75275200  0.72556800  1
  S  S17  1  0.57274300  0.25572500  0.03968600  1
  S  S18  1  0.89856900  0.46930000  0.33706100  1
  S  S19  1  0.21603900  0.53305700  0.96031400  1
  S  S20  1  0.13224000  0.56150900  0.66293900  1
  S  S21  1  0.02718500  0.11348200  0.27443200  1
  S  S22  1  0.53070000  0.86776000  0.42926900  1
  S  S23  1  0.43849100  0.10143100  0.57073100  1
loop_
_geom_bond_atom_site_label_1
_geom_bond_atom_site_label_2
_geom_bond_distance
_geom_bond_site_symmetry_2
S0 S5 2.127223 1_555
S0 Yb0 2.816677 1_555
S0 Yb3 2.842433 1_555
S0 Yb6 2.910758 1_555
S0 Yb2 2.967643 1_555
S0 Yb7 3.321850 1_556
S1 Yb15 2.779920 1_555
S1 Yb0 2.784242 1_565
S1 Yb3 2.793969 1_554
S1 Yb1 2.836888 1_454
S1 Yb2 2.864221 1_565
S1 Yb5 2.967576 1_565
S2 Yb14 2.779934 1_555
S2 Yb1 2.784234 1_545
S2 Yb7 2.793980 1_556
S2 Yb0 2.836883 1_656
S2 Yb2 2.864227 1_555
S2 Yb5 2.967584 1_656
S3 Yb12 2.779934 1_555
S3 Yb6 2.784233 1_555
S3 Yb3 2.793976 1_544
S3 Yb4 2.836890 1_545
S3 Yb5 2.864219 1_555
S3 Yb2 2.967574 1_555
S4 Yb8 2.779921 1_655
S4 Yb4 2.784226 1_545
S4 Yb7 2.793980 1_556
S4 Yb6 2.836888 1_555
S4 Yb5 2.864227 1_656
S4 Yb2 2.967584 1_555
S5 Yb6 2.816684 1_555
S5 Yb3 2.842433 1_555
S5 Yb0 2.910744 1_555
S5 Yb5 2.967643 1_555
S5 Yb7 3.321850 1_455
S6 S7 2.127223 1_655
S6 Yb1 2.816677 1_555
S6 Yb7 2.842433 1_555
S6 Yb4 2.910733 1_555
S6 Yb2 2.967643 1_565
S6 Yb3 3.321850 1_554
S7 Yb4 2.816667 1_455
S7 Yb7 2.842433 1_455
S7 Yb1 2.910744 1_455
S7 Yb5 2.967643 1_566
S7 Yb3 3.321850 1_555
S8 Yb12 2.805614 1_556
S8 Yb8 2.862190 1_555
S8 Yb5 2.962543 1_556
S8 Yb11 3.168753 1_555
S8 Yb4 3.249346 1_445
S9 Yb4 2.805622 1_555
S9 Yb6 2.862190 1_554
S9 Yb10 2.962557 1_555
S9 Yb7 3.168738 1_555
S9 Yb8 3.249346 1_654
S10 S9 2.109091 1_556
S10 Yb6 2.805617 1_555
S10 Yb4 2.862196 1_556
S10 Yb10 2.962557 1_556
S10 Yb3 3.168738 1_555
S10 Yb12 3.249346 1_566
S11 S19 2.127223 1_554
S11 Yb8 2.816677 1_554
S11 Yb9 2.842433 1_555
S11 Yb15 2.910758 1_555
S11 Yb10 2.967643 1_455
S11 Yb11 3.321850 1_565
S12 S17 2.127223 1_566
S12 Yb12 2.816677 1_566
S12 Yb11 2.842433 1_565
S12 Yb14 2.910733 1_565
S12 Yb10 2.967643 1_556
S12 Yb9 3.321850 1_555
S13 Yb4 2.779934 1_545
S13 Yb12 2.784234 1_555
S13 Yb11 2.793980 1_655
S13 Yb8 2.836883 1_655
S13 Yb10 2.864227 1_545
S13 Yb13 2.967584 1_555
S14 S8 2.109080 1_554
S14 Yb8 2.805609 1_554
S14 Yb12 2.862184 1_555
S14 Yb5 2.962568 1_555
S14 Yb9 3.168729 1_555
S14 Yb6 3.249346 1_555
S15 Yb6 2.779920 1_555
S15 Yb8 2.784242 1_655
S15 Yb9 2.793969 1_555
S15 Yb12 2.836888 1_555
S15 Yb10 2.864221 1_556
S15 Yb13 2.967576 1_555
S16 Yb1 2.779934 1_555
S16 Yb15 2.784233 1_656
S16 Yb9 2.793976 1_555
S16 Yb14 2.836890 1_565
S16 Yb13 2.864219 1_555
S16 Yb10 2.967574 1_556
S17 Yb14 2.816667 1_554
S17 Yb11 2.842433 1_554
S17 Yb12 2.910744 1_555
S17 Yb13 2.967643 1_555
S17 Yb9 3.321850 1_555
S18 S20 2.109080 1_655
S18 Yb1 2.805614 1_555
S18 Yb0 2.862190 1_655
S18 Yb13 2.962543 1_555
S18 Yb7 3.168753 1_555
S18 Yb14 3.249346 1_554
S19 Yb15 2.816684 1_556
S19 Yb9 2.842433 1_556
S19 Yb8 2.910744 1_555
S19 Yb13 2.967643 1_455
S19 Yb11 3.321850 1_555
S20 Yb0 2.805609 1_555
S20 Yb1 2.862184 1_455
S20 Yb13 2.962568 1_455
S20 Yb3 3.168729 1_555
S20 Yb15 3.249346 1_556
S21 Yb0 2.779921 1_555
S21 Yb14 2.784226 1_454
S21 Yb11 2.793980 1_555
S21 Yb15 2.836888 1_545
S21 Yb13 2.864227 1_455
S21 Yb10 2.967584 1_445
S22 S23 2.109091 1_565
S22 Yb15 2.805617 1_555
S22 Yb14 2.862196 1_565
S22 Yb2 2.962557 1_565
S22 Yb9 3.168738 1_555
S22 Yb1 3.249346 1_555
S23 Yb14 2.805622 1_555
S23 Yb15 2.862190 1_545
S23 Yb2 2.962557 1_555
S23 Yb11 3.168738 1_555
S23 Yb0 3.249346 1_555
