# generated using pymatgen
data_CdI2
_symmetry_space_group_name_H-M   'P 1'
_cell_length_a   4.28321913
_cell_length_b   4.28321743
_cell_length_c   71.55874472
_cell_angle_alpha   90.00000000
_cell_angle_beta   90.00000000
_cell_angle_gamma   119.99999720
_symmetry_Int_Tables_number   1
_chemical_formula_structural   CdI2
_chemical_formula_sum   'Cd10 I20'
_cell_volume   1136.93011898
_cell_formula_units_Z   10
loop_
 _symmetry_equiv_pos_site_id
 _symmetry_equiv_pos_as_xyz
  1  'x, y, z'
loop_
 _atom_site_type_symbol
 _atom_site_label
 _atom_site_symmetry_multiplicity
 _atom_site_fract_x
 _atom_site_fract_y
 _atom_site_fract_z
 _atom_site_occupancy
  Cd  Cd0  1  0.33333300  0.66666700  0.62521969  1
  Cd  Cd1  1  0.66666700  0.33333300  0.22500092  1
  Cd  Cd2  1  0.00000000  -0.00000000  0.92497589  1
  Cd  Cd3  1  0.00000000  0.00000000  0.82500425  1
  Cd  Cd4  1  0.66666700  0.33333300  0.72522040  1
  Cd  Cd5  1  0.66666700  0.33333300  0.02440390  1
  Cd  Cd6  1  0.00000000  -0.00000000  0.32515173  1
  Cd  Cd7  1  0.00000000  0.00000000  0.12489225  1
  Cd  Cd8  1  0.66666700  0.33333300  0.42514396  1
  Cd  Cd9  1  0.33333300  0.66666700  0.52500779  1
  I  I0  1  0.66666700  0.33333300  0.64925741  1
  I  I1  1  0.33333300  0.66666700  0.44925546  1
  I  I2  1  0.33333300  0.66666700  0.94906611  1
  I  I3  1  0.66666700  0.33333300  0.10074537  1
  I  I4  1  0.66666700  0.33333300  0.90092446  1
  I  I5  1  0.33333300  0.66666700  0.34925492  1
  I  I6  1  0.00000000  0.00000000  0.60115371  1
  I  I7  1  0.00000000  -0.00000000  0.20092458  1
  I  I8  1  0.00000000  -0.00000000  0.40102361  1
  I  I9  1  0.66666700  0.33333300  0.80092427  1
  I  I10  1  0.33333300  0.66666700  0.04852301  1
  I  I11  1  0.66666700  0.33333300  0.30103195  1
  I  I12  1  0.33333300  0.66666700  0.14904224  1
  I  I13  1  0.33333300  0.66666700  0.24907584  1
  I  I14  1  0.00000000  -0.00000000  0.00027587  1
  I  I15  1  0.00000000  -0.00000000  0.70115324  1
  I  I16  1  0.33333300  0.66666700  0.84907660  1
  I  I17  1  0.66666700  0.33333300  0.54907599  1
  I  I18  1  0.33333300  0.66666700  0.74925599  1
  I  I19  1  -0.00000000  -0.00000000  0.50092960  1
loop_
_geom_bond_atom_site_label_1
_geom_bond_atom_site_label_2
_geom_bond_distance
_geom_bond_site_symmetry_2
Cd0 I0 3.012321 1_565
Cd0 I0 3.012322 1_455
Cd0 I0 3.012328 1_555
Cd0 I6 3.013477 1_565
Cd0 I6 3.013480 1_555
Cd0 I6 3.013481 1_665
Cd1 I13 3.013842 1_545
Cd1 I13 3.013843 1_655
Cd1 I13 3.013849 1_555
Cd1 I7 3.013901 1_655
Cd1 I7 3.013903 1_665
Cd1 I7 3.013904 1_555
Cd2 I4 3.012882 1_455
Cd2 I4 3.012885 1_445
Cd2 I4 3.012886 1_555
Cd2 I2 3.014469 1_545
Cd2 I2 3.014471 1_555
Cd2 I2 3.014472 1_445
Cd3 I16 3.013737 1_545
Cd3 I16 3.013740 1_555
Cd3 I16 3.013741 1_445
Cd3 I9 3.014050 1_455
Cd3 I9 3.014052 1_445
Cd3 I9 3.014053 1_555
Cd4 I18 3.012234 1_545
Cd4 I18 3.012235 1_655
Cd4 I18 3.012241 1_555
Cd4 I15 3.013525 1_655
Cd4 I15 3.013528 1_665
Cd4 I15 3.013529 1_555
Cd5 I10 3.015651 1_545
Cd5 I10 3.015652 1_655
Cd5 I10 3.015657 1_555
Cd5 I14 3.016017 1_655
Cd5 I14 3.016019 1_665
Cd5 I14 3.016020 1_555
Cd6 I5 3.014999 1_545
Cd6 I5 3.015002 1_555
Cd6 I5 3.015003 1_445
Cd6 I11 3.015679 1_455
Cd6 I11 3.015681 1_445
Cd6 I11 3.015682 1_555
Cd7 I3 3.016789 1_455
Cd7 I3 3.016792 1_445
Cd7 I3 3.016793 1_555
Cd7 I12 3.016917 1_545
Cd7 I12 3.016919 1_555
Cd7 I12 3.016920 1_445
Cd8 I1 3.015339 1_545
Cd8 I1 3.015340 1_655
Cd8 I1 3.015346 1_555
Cd8 I8 3.015702 1_655
Cd8 I8 3.015705 1_665
Cd8 I8 3.015706 1_555
Cd9 I17 3.013567 1_565
Cd9 I17 3.013568 1_455
Cd9 I17 3.013574 1_555
Cd9 I19 3.013976 1_565
Cd9 I19 3.013979 1_555
Cd9 I19 3.013980 1_665
