# generated using pymatgen
data_PrIn2Cl5
_symmetry_space_group_name_H-M   'P 1'
_cell_length_a   8.12424955
_cell_length_b   8.86708100
_cell_length_c   12.76152895
_cell_angle_alpha   90.00000000
_cell_angle_beta   90.00000000
_cell_angle_gamma   90.00000000
_symmetry_Int_Tables_number   1
_chemical_formula_structural   PrIn2Cl5
_chemical_formula_sum   'Pr4 In8 Cl20'
_cell_volume   919.31985687
_cell_formula_units_Z   4
loop_
 _symmetry_equiv_pos_site_id
 _symmetry_equiv_pos_as_xyz
  1  'x, y, z'
loop_
 _atom_site_type_symbol
 _atom_site_label
 _atom_site_symmetry_multiplicity
 _atom_site_fract_x
 _atom_site_fract_y
 _atom_site_fract_z
 _atom_site_occupancy
  Pr  Pr0  1  0.92321055  0.75000000  0.50662331  1
  Pr  Pr1  1  0.57678945  0.75000000  0.00662331  1
  Pr  Pr2  1  0.07678945  0.25000000  0.49337669  1
  Pr  Pr3  1  0.42321055  0.25000000  0.99337669  1
  In  In0  1  0.94336725  0.00779550  0.82945558  1
  In  In1  1  0.05663275  0.99220450  0.17054442  1
  In  In2  1  0.55663275  0.49220450  0.32945558  1
  In  In3  1  0.05663275  0.50779550  0.17054442  1
  In  In4  1  0.94336725  0.49220450  0.82945558  1
  In  In5  1  0.44336725  0.50779550  0.67054442  1
  In  In6  1  0.55663275  0.00779550  0.32945558  1
  In  In7  1  0.44336725  0.99220450  0.67054442  1
  Cl  Cl0  1  0.57616011  0.75000000  0.50519960  1
  Cl  Cl1  1  0.16962831  0.95475807  0.42731512  1
  Cl  Cl2  1  0.83037169  0.04524193  0.57268488  1
  Cl  Cl3  1  0.33037169  0.54524193  0.92731512  1
  Cl  Cl4  1  0.16962831  0.54524193  0.42731512  1
  Cl  Cl5  1  0.34342221  0.25000000  0.20792032  1
  Cl  Cl6  1  0.33037169  0.95475807  0.92731512  1
  Cl  Cl7  1  0.83037169  0.45475807  0.57268488  1
  Cl  Cl8  1  0.39041573  0.75000000  0.18946028  1
  Cl  Cl9  1  0.66962831  0.04524193  0.07268488  1
  Cl  Cl10  1  0.15657779  0.25000000  0.70792032  1
  Cl  Cl11  1  0.60958427  0.25000000  0.81053972  1
  Cl  Cl12  1  0.42383989  0.25000000  0.49480040  1
  Cl  Cl13  1  0.10958427  0.75000000  0.68946028  1
  Cl  Cl14  1  0.66962831  0.45475807  0.07268488  1
  Cl  Cl15  1  0.07616011  0.25000000  0.99480040  1
  Cl  Cl16  1  0.92383989  0.75000000  0.00519960  1
  Cl  Cl17  1  0.84342221  0.75000000  0.29207968  1
  Cl  Cl18  1  0.65657779  0.75000000  0.79207968  1
  Cl  Cl19  1  0.89041573  0.25000000  0.31053972  1
loop_
_geom_bond_atom_site_label_1
_geom_bond_atom_site_label_2
_geom_bond_distance
_geom_bond_site_symmetry_2
Cl0 Pr0 2.819583 1_555
Cl0 In5 3.198220 1_555
Cl0 In7 3.198220 1_555
Cl0 In6 3.206316 1_565
Cl0 In2 3.206316 1_555
Cl1 Pr2 2.851875 1_565
Cl1 Pr0 2.885932 1_455
Cl2 Pr0 2.851875 1_545
Cl2 Pr2 2.885932 1_655
Cl3 Pr3 2.851875 1_555
Cl3 Pr1 2.885932 1_556
Cl4 Pr2 2.851875 1_555
Cl4 Pr0 2.885932 1_455
Cl5 Pr3 2.813594 1_554
Cl5 In2 3.165177 1_555
Cl5 In6 3.165177 1_555
Cl6 Pr3 2.851875 1_565
Cl6 Pr1 2.885932 1_556
Cl7 Pr0 2.851875 1_555
Cl7 Pr2 2.885932 1_655
Cl8 Pr1 2.781516 1_555
Cl8 In2 3.200099 1_555
Cl8 In6 3.200099 1_565
Cl9 Pr1 2.851875 1_545
Cl9 Pr3 2.885932 1_554
Cl10 Pr2 2.813594 1_555
Cl10 In0 3.165177 1_455
Cl10 In4 3.165177 1_455
Cl11 Pr3 2.781516 1_555
Cl11 In7 3.200099 1_545
Cl11 In5 3.200099 1_555
Cl12 Pr2 2.819583 1_555
Cl12 In2 3.198220 1_555
Cl12 In6 3.198220 1_555
Cl12 In7 3.206316 1_545
Cl12 In5 3.206316 1_555
Cl13 Pr0 2.781516 1_455
Cl13 In4 3.200099 1_455
Cl13 In0 3.200099 1_465
Cl14 Pr1 2.851875 1_555
Cl14 Pr3 2.885932 1_554
Cl15 Pr3 2.819583 1_555
Cl15 In4 3.198220 1_455
Cl15 In0 3.198220 1_455
Cl15 In1 3.206316 1_546
Cl15 In3 3.206316 1_556
Cl16 Pr1 2.819583 1_555
Cl16 In3 3.198220 1_655
Cl16 In1 3.198220 1_655
Cl16 In4 3.206316 1_554
Cl16 In0 3.206316 1_564
Cl17 Pr0 2.813594 1_555
Cl17 In3 3.165177 1_655
Cl17 In1 3.165177 1_655
Cl18 Pr1 2.813594 1_556
Cl18 In5 3.165177 1_555
Cl18 In7 3.165177 1_555
Cl19 Pr2 2.781516 1_655
Cl19 In3 3.200099 1_655
Cl19 In1 3.200099 1_645
