# generated using pymatgen
data_Ag3AsSe3
_symmetry_space_group_name_H-M   'P 1'
_cell_length_a   8.23761900
_cell_length_b   11.50262900
_cell_length_c   21.10600400
_cell_angle_alpha   90.00000000
_cell_angle_beta   90.00000000
_cell_angle_gamma   90.00000000
_symmetry_Int_Tables_number   1
_chemical_formula_structural   Ag3AsSe3
_chemical_formula_sum   'Ag36 As12 Se36'
_cell_volume   1999.88411140
_cell_formula_units_Z   12
loop_
 _symmetry_equiv_pos_site_id
 _symmetry_equiv_pos_as_xyz
  1  'x, y, z'
loop_
 _atom_site_type_symbol
 _atom_site_label
 _atom_site_symmetry_multiplicity
 _atom_site_fract_x
 _atom_site_fract_y
 _atom_site_fract_z
 _atom_site_occupancy
  Ag  Ag0  1  0.21433800  0.42942600  0.05729500  1
  Ag  Ag1  1  0.28566200  0.92942600  0.55729500  1
  Ag  Ag2  1  0.14439200  0.51747600  0.82258300  1
  Ag  Ag3  1  0.14439200  0.98252400  0.82258300  1
  Ag  Ag4  1  0.33161200  0.38966700  0.71559800  1
  Ag  Ag5  1  0.77547700  0.75000000  0.63091500  1
  Ag  Ag6  1  0.78566200  0.92942600  0.94270500  1
  Ag  Ag7  1  0.87674900  0.53494600  0.55993100  1
  Ag  Ag8  1  0.66838800  0.61033300  0.28440200  1
  Ag  Ag9  1  0.62325100  0.03494600  0.05993100  1
  Ag  Ag10  1  0.64439200  0.51747600  0.67741700  1
  Ag  Ag11  1  0.87674900  0.96505400  0.55993100  1
  Ag  Ag12  1  0.35560800  0.01747600  0.32258300  1
  Ag  Ag13  1  0.85560800  0.48252400  0.17741700  1
  Ag  Ag14  1  0.37674900  0.96505400  0.94006900  1
  Ag  Ag15  1  0.22452300  0.25000000  0.36908500  1
  Ag  Ag16  1  0.21433800  0.07057400  0.05729500  1
  Ag  Ag17  1  0.37674900  0.53494600  0.94006900  1
  Ag  Ag18  1  0.33161200  0.11033300  0.71559800  1
  Ag  Ag19  1  0.64439200  0.98252400  0.67741700  1
  Ag  Ag20  1  0.12325100  0.46505400  0.44006900  1
  Ag  Ag21  1  0.16838800  0.88966700  0.21559800  1
  Ag  Ag22  1  0.72452300  0.25000000  0.13091500  1
  Ag  Ag23  1  0.28566200  0.57057400  0.55729500  1
  Ag  Ag24  1  0.71433800  0.07057400  0.44270500  1
  Ag  Ag25  1  0.78566200  0.57057400  0.94270500  1
  Ag  Ag26  1  0.27547700  0.75000000  0.86908500  1
  Ag  Ag27  1  0.85560800  0.01747600  0.17741700  1
  Ag  Ag28  1  0.83161200  0.38966700  0.78440200  1
  Ag  Ag29  1  0.35560800  0.48252400  0.32258300  1
  Ag  Ag30  1  0.66838800  0.88966700  0.28440200  1
  Ag  Ag31  1  0.62325100  0.46505400  0.05993100  1
  Ag  Ag32  1  0.16838800  0.61033300  0.21559800  1
  Ag  Ag33  1  0.83161200  0.11033300  0.78440200  1
  Ag  Ag34  1  0.12325100  0.03494600  0.44006900  1
  Ag  Ag35  1  0.71433800  0.42942600  0.44270500  1
  As  As0  1  0.78746200  0.75000000  0.79383200  1
  As  As1  1  0.75262600  0.75000000  0.10776500  1
  As  As2  1  0.21253800  0.25000000  0.20616800  1
  As  As3  1  0.28126300  0.75000000  0.05368300  1
  As  As4  1  0.24737400  0.25000000  0.89223500  1
  As  As5  1  0.71253800  0.25000000  0.29383200  1
  As  As6  1  0.28746200  0.75000000  0.70616800  1
  As  As7  1  0.25262600  0.75000000  0.39223500  1
  As  As8  1  0.78126300  0.75000000  0.44631700  1
  As  As9  1  0.74737400  0.25000000  0.60776500  1
  As  As10  1  0.21873700  0.25000000  0.55368300  1
  As  As11  1  0.71873700  0.25000000  0.94631700  1
  Se  Se0  1  0.60167200  0.41653200  0.56326000  1
  Se  Se1  1  0.39832800  0.91653200  0.43674000  1
  Se  Se2  1  0.45001200  0.75000000  0.60995100  1
  Se  Se3  1  0.51394900  0.25000000  0.03191800  1
  Se  Se4  1  0.89832800  0.91653200  0.06326000  1
  Se  Se5  1  0.89832800  0.58346800  0.06326000  1
  Se  Se6  1  0.10167200  0.08346800  0.93674000  1
  Se  Se7  1  0.91730300  0.59639000  0.73116800  1
  Se  Se8  1  0.08269700  0.40361000  0.26883200  1
  Se  Se9  1  0.11301800  0.25000000  0.78771800  1
  Se  Se10  1  0.54998800  0.25000000  0.39004900  1
  Se  Se11  1  0.12146400  0.08859000  0.61853000  1
  Se  Se12  1  0.98605100  0.75000000  0.53191800  1
  Se  Se13  1  0.60167200  0.08346800  0.56326000  1
  Se  Se14  1  0.10167200  0.41653200  0.93674000  1
  Se  Se15  1  0.58269700  0.09639000  0.23116800  1
  Se  Se16  1  0.04998800  0.25000000  0.10995100  1
  Se  Se17  1  0.12146400  0.41141000  0.61853000  1
  Se  Se18  1  0.61301800  0.25000000  0.71228200  1
  Se  Se19  1  0.87853600  0.91141000  0.38147000  1
  Se  Se20  1  0.37853600  0.58859000  0.11853000  1
  Se  Se21  1  0.41730300  0.90361000  0.76883200  1
  Se  Se22  1  0.08269700  0.09639000  0.26883200  1
  Se  Se23  1  0.58269700  0.40361000  0.23116800  1
  Se  Se24  1  0.39832800  0.58346800  0.43674000  1
  Se  Se25  1  0.95001200  0.75000000  0.89004900  1
  Se  Se26  1  0.37853600  0.91141000  0.11853000  1
  Se  Se27  1  0.87853600  0.58859000  0.38147000  1
  Se  Se28  1  0.91730300  0.90361000  0.73116800  1
  Se  Se29  1  0.62146400  0.41141000  0.88147000  1
  Se  Se30  1  0.41730300  0.59639000  0.76883200  1
  Se  Se31  1  0.01394900  0.25000000  0.46808200  1
  Se  Se32  1  0.88698200  0.75000000  0.21228200  1
  Se  Se33  1  0.38698200  0.75000000  0.28771800  1
  Se  Se34  1  0.62146400  0.08859000  0.88147000  1
  Se  Se35  1  0.48605100  0.75000000  0.96808200  1
loop_
_geom_bond_atom_site_label_1
_geom_bond_atom_site_label_2
_geom_bond_distance
_geom_bond_site_symmetry_2
Ag0 Se20 2.617583 1_555
Ag0 Se16 2.706953 1_555
Ag0 Se14 2.712473 1_554
Ag0 Se5 3.151497 1_455
Ag0 Se3 3.261574 1_555
Ag1 Se11 2.617583 1_565
Ag1 Se2 2.706953 1_555
Ag1 Se1 2.712473 1_555
Ag1 Se13 3.151497 1_565
Ag1 Se12 3.261574 1_455
Ag2 Se30 2.676769 1_555
Ag2 Se14 2.697637 1_555
Ag2 Se7 2.836543 1_455
Ag2 Se9 3.173993 1_555
Ag3 Se21 2.676769 1_555
Ag3 Se6 2.697637 1_565
Ag3 Se28 2.836543 1_455
Ag3 Se9 3.173993 1_565
Ag4 Se17 2.693802 1_555
Ag4 Se30 2.723026 1_555
Ag4 Se18 2.821262 1_555
Ag4 Se9 2.853147 1_555
Ag5 Se12 2.715632 1_555
Ag5 Se2 2.717322 1_555
Ag5 Se7 2.994019 1_555
Ag5 Se28 2.994019 1_555
Ag6 Se34 2.617583 1_565
Ag6 Se25 2.706953 1_555
Ag6 Se4 2.712473 1_556
Ag6 Se6 3.151497 1_665
Ag6 Se35 3.261574 1_555
Ag7 Se0 2.644776 1_555
Ag7 Se12 2.698035 1_555
Ag7 Se17 2.759092 1_655
Ag8 Se27 2.693802 1_555
Ag8 Se23 2.723026 1_555
Ag8 Se33 2.821262 1_555
Ag8 Se32 2.853147 1_555
Ag9 Se4 2.644776 1_545
Ag9 Se3 2.698035 1_555
Ag9 Se26 2.759092 1_545
Ag10 Se7 2.676769 1_555
Ag10 Se0 2.697637 1_555
Ag10 Se30 2.836543 1_555
Ag10 Se18 3.173993 1_555
Ag11 Se13 2.644776 1_565
Ag11 Se12 2.698035 1_555
Ag11 Se11 2.759092 1_665
Ag12 Se22 2.676769 1_555
Ag12 Se1 2.697637 1_545
Ag12 Se15 2.836543 1_555
Ag12 Se33 3.173993 1_545
Ag13 Se23 2.676769 1_555
Ag13 Se5 2.697637 1_555
Ag13 Se8 2.836543 1_655
Ag13 Se32 3.173993 1_555
Ag14 Se6 2.644776 1_565
Ag14 Se35 2.698035 1_555
Ag14 Se34 2.759092 1_565
Ag15 Se31 2.715632 1_555
Ag15 Se10 2.717322 1_555
Ag15 Se8 2.994019 1_555
Ag15 Se22 2.994019 1_555
Ag16 Se26 2.617583 1_545
Ag16 Se16 2.706953 1_555
Ag16 Se6 2.712473 1_554
Ag16 Se4 3.151497 1_445
Ag16 Se3 3.261574 1_555
Ag17 Se14 2.644776 1_555
Ag17 Se35 2.698035 1_555
Ag17 Se29 2.759092 1_555
Ag18 Se11 2.693802 1_555
Ag18 Se21 2.723026 1_545
Ag18 Se18 2.821262 1_555
Ag18 Se9 2.853147 1_555
Ag19 Se28 2.676769 1_555
Ag19 Se13 2.697637 1_565
Ag19 Se21 2.836543 1_555
Ag19 Se18 3.173993 1_565
Ag20 Se24 2.644776 1_555
Ag20 Se31 2.698035 1_555
Ag20 Se27 2.759092 1_455
Ag21 Se26 2.693802 1_555
Ag21 Se22 2.723026 1_565
Ag21 Se32 2.821262 1_455
Ag21 Se33 2.853147 1_555
Ag22 Se3 2.715632 1_555
Ag22 Se16 2.717322 1_655
Ag22 Se23 2.994019 1_555
Ag22 Se15 2.994019 1_555
Ag23 Se17 2.617583 1_555
Ag23 Se2 2.706953 1_555
Ag23 Se24 2.712473 1_555
Ag23 Se0 3.151497 1_555
Ag23 Se12 3.261574 1_455
Ag24 Se19 2.617583 1_545
Ag24 Se10 2.706953 1_555
Ag24 Se13 2.712473 1_555
Ag24 Se1 3.151497 1_545
Ag24 Se31 3.261574 1_655
Ag25 Se29 2.617583 1_555
Ag25 Se25 2.706953 1_555
Ag25 Se5 2.712473 1_556
Ag25 Se14 3.151497 1_655
Ag25 Se35 3.261574 1_555
Ag26 Se35 2.715632 1_555
Ag26 Se25 2.717322 1_455
Ag26 Se30 2.994019 1_555
Ag26 Se21 2.994019 1_555
Ag27 Se15 2.676769 1_555
Ag27 Se4 2.697637 1_545
Ag27 Se22 2.836543 1_655
Ag27 Se32 3.173993 1_545
Ag28 Se29 2.693802 1_555
Ag28 Se7 2.723026 1_555
Ag28 Se9 2.821262 1_655
Ag28 Se18 2.853147 1_555
Ag29 Se8 2.676769 1_555
Ag29 Se24 2.697637 1_555
Ag29 Se23 2.836543 1_555
Ag29 Se33 3.173993 1_555
Ag30 Se19 2.693802 1_555
Ag30 Se15 2.723026 1_565
Ag30 Se33 2.821262 1_555
Ag30 Se32 2.853147 1_555
Ag31 Se5 2.644776 1_555
Ag31 Se3 2.698035 1_555
Ag31 Se20 2.759092 1_555
Ag32 Se20 2.693802 1_555
Ag32 Se8 2.723026 1_555
Ag32 Se32 2.821262 1_455
Ag32 Se33 2.853147 1_555
Ag33 Se34 2.693802 1_555
Ag33 Se28 2.723026 1_545
Ag33 Se9 2.821262 1_655
Ag33 Se18 2.853147 1_555
Ag34 Se1 2.644776 1_545
Ag34 Se31 2.698035 1_555
Ag34 Se19 2.759092 1_445
Ag35 Se27 2.617583 1_555
Ag35 Se10 2.706953 1_555
Ag35 Se0 2.712473 1_555
Ag35 Se24 3.151497 1_555
Ag35 Se31 3.261574 1_655
As0 Se25 2.432480 1_555
As0 Se7 2.452599 1_555
As0 Se28 2.452599 1_555
As1 Se4 2.447908 1_555
As1 Se5 2.447908 1_555
As1 Se32 2.468016 1_555
As2 Se16 2.432480 1_555
As2 Se8 2.452599 1_555
As2 Se22 2.452599 1_555
As3 Se20 2.441807 1_555
As3 Se26 2.441807 1_555
As3 Se35 2.471841 1_554
As4 Se14 2.447908 1_555
As4 Se6 2.447908 1_555
As4 Se9 2.468016 1_555
As5 Se10 2.432480 1_555
As5 Se23 2.452599 1_555
As5 Se15 2.452599 1_555
As6 Se2 2.432480 1_555
As6 Se30 2.452599 1_555
As6 Se21 2.452599 1_555
As7 Se24 2.447908 1_555
As7 Se1 2.447908 1_555
As7 Se33 2.468016 1_555
As8 Se27 2.441807 1_555
As8 Se19 2.441807 1_555
As8 Se12 2.471841 1_555
As9 Se0 2.447908 1_555
As9 Se13 2.447908 1_555
As9 Se18 2.468016 1_555
As10 Se11 2.441807 1_555
As10 Se17 2.441807 1_555
As10 Se31 2.471841 1_555
As11 Se34 2.441807 1_555
As11 Se29 2.441807 1_555
As11 Se3 2.471841 1_556
