# generated using pymatgen
data_Al4C3
_symmetry_space_group_name_H-M   'P 1'
_cell_length_a   3.19240300
_cell_length_b   5.05639537
_cell_length_c   5.57203210
_cell_angle_alpha   114.24573856
_cell_angle_beta   86.63339504
_cell_angle_gamma   103.37814816
_symmetry_Int_Tables_number   1
_chemical_formula_structural   Al4C3
_chemical_formula_sum   'Al4 C3'
_cell_volume   79.71808650
_cell_formula_units_Z   1
loop_
 _symmetry_equiv_pos_site_id
 _symmetry_equiv_pos_as_xyz
  1  'x, y, z'
loop_
 _atom_site_type_symbol
 _atom_site_label
 _atom_site_symmetry_multiplicity
 _atom_site_fract_x
 _atom_site_fract_y
 _atom_site_fract_z
 _atom_site_occupancy
  Al  Al0  1  0.04025400  0.17435500  0.75988800  1
  Al  Al1  1  0.63479400  0.20539600  0.20761100  1
  Al  Al2  1  0.25829000  0.66104100  0.68501700  1
  Al  Al3  1  0.94655500  0.74812600  0.22672100  1
  C  C0  1  0.07651900  0.98199800  0.00258300  1
  C  C1  1  0.61810200  0.34380700  0.61512500  1
  C  C2  1  0.49706700  0.95321300  0.48226100  1
loop_
_geom_bond_atom_site_label_1
_geom_bond_atom_site_label_2
_geom_bond_distance
_geom_bond_site_symmetry_2
Al0 C0 1.984665 1_546
Al0 C1 2.104914 1_455
Al0 C1 2.109317 1_555
Al0 C2 2.155805 1_445
Al0 C2 2.199792 1_545
Al1 C0 2.001282 1_545
Al1 C0 2.014376 1_645
Al1 C1 2.084827 1_555
Al1 C2 2.329275 1_545
Al2 C0 2.014512 1_556
Al2 C1 2.081141 1_555
Al2 C2 2.188257 1_555
Al2 C1 2.228212 1_455
Al3 C0 2.013801 1_655
Al3 C2 2.097091 1_555
Al3 C2 2.104588 1_655
C1 C2 1.754308 1_545
