# generated using pymatgen
data_ReOF4
_symmetry_space_group_name_H-M   'P 1'
_cell_length_a   10.03259047
_cell_length_b   10.03259047
_cell_length_c   14.89979566
_cell_angle_alpha   67.32169110
_cell_angle_beta   67.32169110
_cell_angle_gamma   32.80907025
_symmetry_Int_Tables_number   1
_chemical_formula_structural   ReOF4
_chemical_formula_sum   'Re8 O8 F32'
_cell_volume   744.08096342
_cell_formula_units_Z   8
loop_
 _symmetry_equiv_pos_site_id
 _symmetry_equiv_pos_as_xyz
  1  'x, y, z'
loop_
 _atom_site_type_symbol
 _atom_site_label
 _atom_site_symmetry_multiplicity
 _atom_site_fract_x
 _atom_site_fract_y
 _atom_site_fract_z
 _atom_site_occupancy
  Re  Re0  1  0.77743600  0.95473800  0.38866000  1
  Re  Re1  1  0.22256400  0.04526200  0.61134000  1
  Re  Re2  1  0.30551600  0.47284200  0.18103000  1
  Re  Re3  1  0.52715800  0.69448400  0.31897000  1
  Re  Re4  1  0.04526200  0.22256400  0.11134000  1
  Re  Re5  1  0.95473800  0.77743600  0.88866000  1
  Re  Re6  1  0.47284200  0.30551600  0.68103000  1
  Re  Re7  1  0.69448400  0.52715800  0.81897000  1
  O  O0  1  0.06401100  0.28351500  0.52157000  1
  O  O1  1  0.24227200  0.49404200  0.61658300  1
  O  O2  1  0.28351500  0.06401100  0.02157000  1
  O  O3  1  0.49404200  0.24227200  0.11658300  1
  O  O4  1  0.71648500  0.93598900  0.97843000  1
  O  O5  1  0.50595800  0.75772800  0.88341700  1
  O  O6  1  0.75772800  0.50595800  0.38341700  1
  O  O7  1  0.93598900  0.71648500  0.47843000  1
  F  F0  1  0.53654500  0.30063500  0.26773900  1
  F  F1  1  0.16436500  0.42592000  0.28805800  1
  F  F2  1  0.21064300  0.95552100  0.22220800  1
  F  F3  1  0.65948500  0.92864800  0.33404200  1
  F  F4  1  0.78935700  0.04447900  0.77779200  1
  F  F5  1  0.83563500  0.57408000  0.71194200  1
  F  F6  1  0.64373800  0.36797700  0.88850200  1
  F  F7  1  0.18127600  0.89400100  0.61075200  1
  F  F8  1  0.26861700  0.98671800  0.37801900  1
  F  F9  1  0.01328200  0.73138300  0.12198100  1
  F  F10  1  0.92864800  0.65948500  0.83404200  1
  F  F11  1  0.95552100  0.21064300  0.72220800  1
  F  F12  1  0.53911300  0.79655400  0.53995500  1
  F  F13  1  0.57408000  0.83563500  0.21194200  1
  F  F14  1  0.30063500  0.53654500  0.76773900  1
  F  F15  1  0.35626200  0.63202300  0.11149800  1
  F  F16  1  0.04447900  0.78935700  0.27779200  1
  F  F17  1  0.10599900  0.81872400  0.88924800  1
  F  F18  1  0.63202300  0.35626200  0.61149800  1
  F  F19  1  0.20344600  0.46088700  0.96004500  1
  F  F20  1  0.46088700  0.20344600  0.46004500  1
  F  F21  1  0.89400100  0.18127600  0.11075200  1
  F  F22  1  0.81872400  0.10599900  0.38924800  1
  F  F23  1  0.07135200  0.34051500  0.16595800  1
  F  F24  1  0.42592000  0.16436500  0.78805800  1
  F  F25  1  0.69936500  0.46345500  0.23226100  1
  F  F26  1  0.79655400  0.53911300  0.03995500  1
  F  F27  1  0.98671800  0.26861700  0.87801900  1
  F  F28  1  0.34051500  0.07135200  0.66595800  1
  F  F29  1  0.73138300  0.01328200  0.62198100  1
  F  F30  1  0.46345500  0.69936500  0.73226100  1
  F  F31  1  0.36797700  0.64373800  0.38850200  1
loop_
_geom_bond_atom_site_label_1
_geom_bond_atom_site_label_2
_geom_bond_distance
_geom_bond_site_symmetry_2
O0 Re1 1.678320 1_555
O1 Re6 1.675767 1_555
O2 Re4 1.678320 1_555
O3 Re2 1.675767 1_555
O4 Re5 1.678320 1_555
O5 Re7 1.675767 1_555
O6 Re3 1.675767 1_555
O7 Re0 1.678320 1_555
F0 Re2 1.970502 1_555
F0 Re0 2.359665 1_545
F1 Re2 1.889539 1_555
F2 Re4 1.971818 1_565
F2 Re3 2.379147 1_555
F3 Re0 1.886430 1_555
F4 Re5 1.971818 1_545
F4 Re6 2.379147 1_555
F5 Re7 1.889539 1_555
F6 Re7 1.888676 1_555
F7 Re1 1.882630 1_565
F8 Re3 1.882522 1_555
F9 Re2 1.882522 1_555
F10 Re5 1.886430 1_555
F11 Re1 1.971818 1_655
F11 Re7 2.379147 1_555
F12 Re1 1.887973 1_565
F13 Re3 1.889539 1_555
F14 Re6 1.970502 1_555
F14 Re5 2.359665 1_455
F15 Re2 1.888676 1_555
F16 Re0 1.971818 1_455
F16 Re2 2.379147 1_555
F17 Re5 1.882630 1_455
F18 Re6 1.888676 1_555
F19 Re5 1.887973 1_455
F20 Re0 1.887973 1_545
F21 Re4 1.882630 1_655
F22 Re0 1.882630 1_545
F23 Re4 1.886430 1_555
F24 Re6 1.889539 1_555
F25 Re3 1.970502 1_555
F25 Re4 2.359665 1_655
F26 Re4 1.887973 1_655
F27 Re7 1.882522 1_555
F28 Re1 1.886430 1_555
F29 Re6 1.882522 1_555
F30 Re7 1.970502 1_555
F30 Re1 2.359665 1_565
F31 Re3 1.888676 1_555
