# generated using pymatgen
data_SiO2
_symmetry_space_group_name_H-M   'P 1'
_cell_length_a   8.36060542
_cell_length_b   12.49519625
_cell_length_c   15.64915140
_cell_angle_alpha   105.66944596
_cell_angle_beta   105.49334657
_cell_angle_gamma   89.99999805
_symmetry_Int_Tables_number   1
_chemical_formula_structural   SiO2
_chemical_formula_sum   'Si28 O56'
_cell_volume   1512.27740981
_cell_formula_units_Z   28
loop_
 _symmetry_equiv_pos_site_id
 _symmetry_equiv_pos_as_xyz
  1  'x, y, z'
loop_
 _atom_site_type_symbol
 _atom_site_label
 _atom_site_symmetry_multiplicity
 _atom_site_fract_x
 _atom_site_fract_y
 _atom_site_fract_z
 _atom_site_occupancy
  Si  Si0  1  0.97438495  0.23464184  0.57974166  1
  Si  Si1  1  0.51771236  0.52889811  0.40882767  1
  Si  Si2  1  0.62347710  0.87434568  0.61658598  1
  Si  Si3  1  0.86404170  0.92908049  0.10266260  1
  Si  Si4  1  0.10888468  0.47110189  0.59117233  1
  Si  Si5  1  0.02561505  0.76535816  0.42025834  1
  Si  Si6  1  0.17224048  0.11022256  0.71778875  1
  Si  Si7  1  0.64069286  0.83972289  0.90603951  1
  Si  Si8  1  0.26534665  0.83972289  0.90603951  1
  Si  Si9  1  0.00689011  0.12565432  0.38341302  1
  Si  Si10  1  0.23862090  0.92908049  0.10266260  1
  Si  Si11  1  0.39464330  0.76535816  0.42025834  1
  Si  Si12  1  0.60535670  0.23464184  0.57974166  1
  Si  Si13  1  0.04801041  0.69030863  0.71940508  1
  Si  Si14  1  0.37652290  0.12565432  0.38341302  1
  Si  Si15  1  0.99310989  0.87434568  0.61658598  1
  Si  Si16  1  0.76137910  0.07091951  0.89733740  1
  Si  Si17  1  0.73465335  0.16027711  0.09396049  1
  Si  Si18  1  0.89111532  0.52889811  0.40882767  1
  Si  Si19  1  0.54554827  0.11022256  0.71778875  1
  Si  Si20  1  0.35930714  0.16027711  0.09396049  1
  Si  Si21  1  0.32860434  0.30969137  0.28059492  1
  Si  Si22  1  0.95198959  0.30969137  0.28059492  1
  Si  Si23  1  0.67139566  0.69030863  0.71940508  1
  Si  Si24  1  0.45445173  0.88977744  0.28221125  1
  Si  Si25  1  0.48228764  0.47110189  0.59117233  1
  Si  Si26  1  0.82775952  0.88977744  0.28221125  1
  Si  Si27  1  0.13595830  0.07091951  0.89733740  1
  O  O0  1  0.34921666  0.04224166  0.11735611  1
  O  O1  1  0.77100437  0.15579526  0.99692232  1
  O  O2  1  0.12397785  0.98199843  0.65699252  1
  O  O3  1  0.77538036  0.20885483  0.55075872  1
  O  O4  1  0.63500270  0.85882797  0.27000441  1
  O  O5  1  0.77408205  0.84420474  0.00307768  1
  O  O6  1  0.46698633  0.01800157  0.34300748  1
  O  O7  1  0.31646677  0.25845363  0.17297535  1
  O  O8  1  0.40596736  0.22247699  0.33749646  1
  O  O9  1  0.76813945  0.04224166  0.11735611  1
  O  O10  1  0.55140090  0.57714287  0.67981792  1
  O  O11  1  0.54856267  0.83020751  0.50609867  1
  O  O12  1  0.39116315  0.80806598  0.33189795  1
  O  O13  1  0.41208019  0.63312384  0.39435995  1
  O  O14  1  0.28965716  0.43883994  0.57931532  1
  O  O15  1  0.14096229  0.12832783  0.81782350  1
  O  O16  1  0.85345407  0.66310293  0.70691013  1
  O  O17  1  0.14654593  0.33689707  0.29308987  1
  O  O18  1  0.87602215  0.01800157  0.34300748  1
  O  O19  1  0.14349142  0.74154637  0.82702465  1
  O  O20  1  0.05392370  0.96108279  0.10784540  1
  O  O21  1  0.68353323  0.74154637  0.82702465  1
  O  O22  1  0.60883685  0.19193402  0.66810205  1
  O  O23  1  0.45143733  0.16979249  0.49390133  1
  O  O24  1  0.01772024  0.36687616  0.60564005  1
  O  O25  1  0.22591795  0.15579526  0.99692232  1
  O  O26  1  0.82051999  0.90845544  0.64104097  1
  O  O27  1  0.23186055  0.95775834  0.88264389  1
  O  O28  1  0.94607630  0.03891721  0.89215460  1
  O  O29  1  0.71034284  0.56116006  0.42068468  1
  O  O30  1  0.98227976  0.63312384  0.39435995  1
  O  O31  1  0.65078334  0.95775834  0.88264389  1
  O  O32  1  0.22461964  0.79114517  0.44924128  1
  O  O33  1  0.95753700  0.83020751  0.50609867  1
  O  O34  1  -0.00000000  0.50000000  0.50000000  1
  O  O35  1  0.94073280  0.80806598  0.33189795  1
  O  O36  1  0.36499730  0.14117203  0.72999559  1
  O  O37  1  0.58791981  0.36687616  0.60564005  1
  O  O38  1  0.67686122  0.12832783  0.81782350  1
  O  O39  1  0.85903771  0.87167217  0.18217650  1
  O  O40  1  0.45591027  0.81502752  0.91182155  1
  O  O41  1  0.17948001  0.09154456  0.35895903  1
  O  O42  1  0.53301367  0.98199843  0.65699252  1
  O  O43  1  0.87158298  0.42285713  0.32018208  1
  O  O44  1  0.06847089  0.77752301  0.66250354  1
  O  O45  1  0.85650858  0.25845363  0.17297535  1
  O  O46  1  0.44859910  0.42285713  0.32018208  1
  O  O47  1  0.04246300  0.16979249  0.49390133  1
  O  O48  1  0.54408973  0.18497248  0.08817845  1
  O  O49  1  0.12841702  0.57714287  0.67981792  1
  O  O50  1  0.93152911  0.22247699  0.33749646  1
  O  O51  1  0.05926720  0.19193402  0.66810205  1
  O  O52  1  0.22899563  0.84420474  0.00307768  1
  O  O53  1  0.32313878  0.87167217  0.18217650  1
  O  O54  1  0.50000000  0.50000000  0.50000000  1
  O  O55  1  0.59403264  0.77752301  0.66250354  1
loop_
_geom_bond_atom_site_label_1
_geom_bond_atom_site_label_2
_geom_bond_distance
_geom_bond_site_symmetry_2
O0 Si10 1.618006 1_545
O0 Si20 1.620064 1_555
O1 Si16 1.612485 1_555
O1 Si17 1.613124 1_556
O2 Si15 1.605397 1_455
O2 Si6 1.614463 1_565
O3 Si0 1.611105 1_555
O3 Si12 1.611121 1_555
O4 Si26 1.605866 1_555
O4 Si24 1.605874 1_555
O5 Si3 1.612485 1_555
O5 Si7 1.613124 1_554
O6 Si14 1.605402 1_555
O6 Si24 1.614462 1_545
O7 Si20 1.606042 1_555
O7 Si21 1.607116 1_555
O8 Si14 1.613900 1_555
O8 Si21 1.617197 1_555
O9 Si3 1.618006 1_545
O9 Si17 1.620064 1_555
O10 Si23 1.607638 1_555
O10 Si25 1.610214 1_555
O11 Si2 1.610075 1_555
O11 Si11 1.614187 1_555
O12 Si11 1.604606 1_555
O12 Si24 1.604885 1_555
O13 Si1 1.606145 1_555
O13 Si11 1.607925 1_555
O14 Si4 1.609530 1_555
O14 Si25 1.609538 1_555
O15 Si27 1.604562 1_555
O15 Si6 1.611717 1_555
O16 Si23 1.610510 1_555
O16 Si13 1.610534 1_655
O17 Si21 1.610510 1_555
O17 Si22 1.610534 1_455
O18 Si9 1.605397 1_655
O18 Si26 1.614463 1_545
O19 Si8 1.606042 1_555
O19 Si13 1.607114 1_555
O20 Si10 1.612564 1_555
O20 Si3 1.612581 1_455
O21 Si7 1.606042 1_555
O21 Si23 1.607116 1_555
O22 Si12 1.604606 1_555
O22 Si19 1.604885 1_555
O23 Si14 1.610089 1_555
O23 Si12 1.614187 1_555
O24 Si4 1.606145 1_555
O24 Si0 1.607925 1_455
O25 Si27 1.612485 1_555
O25 Si20 1.613124 1_556
O26 Si2 1.617745 1_555
O26 Si15 1.617761 1_555
O27 Si27 1.618006 1_565
O27 Si8 1.620064 1_555
O28 Si16 1.612564 1_555
O28 Si27 1.612581 1_655
O29 Si18 1.609530 1_555
O29 Si1 1.609538 1_555
O30 Si18 1.606145 1_555
O30 Si5 1.607925 1_655
O31 Si16 1.618006 1_565
O31 Si7 1.620064 1_555
O32 Si5 1.611105 1_555
O32 Si11 1.611121 1_555
O33 Si15 1.610075 1_555
O33 Si5 1.614182 1_655
O34 Si18 1.605975 1_455
O34 Si4 1.605975 1_555
O35 Si5 1.604610 1_655
O35 Si26 1.604877 1_555
O36 Si6 1.605866 1_555
O36 Si19 1.605874 1_555
O37 Si25 1.606145 1_555
O37 Si12 1.607925 1_555
O38 Si16 1.604562 1_555
O38 Si19 1.611717 1_555
O39 Si3 1.604562 1_555
O39 Si26 1.611717 1_555
O40 Si8 1.606188 1_555
O40 Si7 1.606197 1_555
O41 Si14 1.617747 1_555
O41 Si9 1.617755 1_555
O42 Si2 1.605406 1_555
O42 Si19 1.614462 1_565
O43 Si22 1.607633 1_555
O43 Si18 1.610214 1_555
O44 Si15 1.613908 1_455
O44 Si13 1.617195 1_555
O45 Si17 1.606042 1_555
O45 Si22 1.607114 1_555
O46 Si21 1.607638 1_555
O46 Si1 1.610214 1_555
O47 Si9 1.610090 1_555
O47 Si0 1.614182 1_455
O48 Si17 1.606188 1_555
O48 Si20 1.606197 1_555
O49 Si13 1.607633 1_555
O49 Si4 1.610214 1_555
O50 Si9 1.613899 1_655
O50 Si22 1.617195 1_555
O51 Si0 1.604610 1_455
O51 Si6 1.604877 1_555
O52 Si10 1.612485 1_555
O52 Si8 1.613124 1_554
O53 Si10 1.604562 1_555
O53 Si24 1.611717 1_555
O54 Si25 1.605975 1_555
O54 Si1 1.605975 1_555
O55 Si2 1.613910 1_555
O55 Si23 1.617197 1_555
