# generated using pymatgen
data_YRhW2
_symmetry_space_group_name_H-M   'P 1'
_cell_length_a   4.62232309
_cell_length_b   4.62232309
_cell_length_c   4.62232309
_cell_angle_alpha   60.00000000
_cell_angle_beta   60.00000000
_cell_angle_gamma   60.00000000
_symmetry_Int_Tables_number   1
_chemical_formula_structural   YRhW2
_chemical_formula_sum   'Y1 Rh1 W2'
_cell_volume   69.83383568
_cell_formula_units_Z   1
loop_
 _symmetry_equiv_pos_site_id
 _symmetry_equiv_pos_as_xyz
  1  'x, y, z'
loop_
 _atom_site_type_symbol
 _atom_site_label
 _atom_site_symmetry_multiplicity
 _atom_site_fract_x
 _atom_site_fract_y
 _atom_site_fract_z
 _atom_site_occupancy
  Y  Y0  1  0.00000000  0.00000000  0.00000000  1
  Rh  Rh0  1  0.50000000  0.50000000  0.50000000  1
  W  W0  1  0.25000000  0.25000000  0.25000000  1
  W  W1  1  0.75000000  0.75000000  0.75000000  1
loop_
_geom_bond_atom_site_label_1
_geom_bond_atom_site_label_2
_geom_bond_distance
_geom_bond_site_symmetry_2
Rh0 W1 2.830583 1_545
Rh0 W0 2.830583 1_556
Rh0 W1 2.830583 1_554
Rh0 W1 2.830583 1_455
Rh0 W0 2.830583 1_555
Rh0 W0 2.830583 1_565
Rh0 W0 2.830583 1_655
Rh0 W1 2.830583 1_555
Rh0 Y0 3.268476 1_655
Rh0 Y0 3.268476 1_556
Rh0 Y0 3.268476 1_565
Rh0 Y0 3.268476 1_566
Rh0 Y0 3.268476 1_656
Rh0 Y0 3.268476 1_665
W0 Y0 2.830583 1_655
W0 Y0 2.830583 1_556
W0 Y0 2.830583 1_555
W0 Y0 2.830583 1_565
W1 Y0 2.830583 1_666
W1 Y0 2.830583 1_665
W1 Y0 2.830583 1_566
W1 Y0 2.830583 1_656
