# generated using pymatgen
data_RbTiPO5
_symmetry_space_group_name_H-M   'P 1'
_cell_length_a   6.59471900
_cell_length_b   10.67435200
_cell_length_c   13.13802400
_cell_angle_alpha   90.00000000
_cell_angle_beta   90.00000000
_cell_angle_gamma   90.00000000
_symmetry_Int_Tables_number   1
_chemical_formula_structural   RbTiPO5
_chemical_formula_sum   'Rb8 Ti8 P8 O40'
_cell_volume   924.84268535
_cell_formula_units_Z   8
loop_
 _symmetry_equiv_pos_site_id
 _symmetry_equiv_pos_as_xyz
  1  'x, y, z'
loop_
 _atom_site_type_symbol
 _atom_site_label
 _atom_site_symmetry_multiplicity
 _atom_site_fract_x
 _atom_site_fract_y
 _atom_site_fract_z
 _atom_site_occupancy
  Rb  Rb0  1  0.19275300  0.45255500  0.60637800  1
  Rb  Rb1  1  0.80724700  0.95255500  0.39362200  1
  Rb  Rb2  1  0.30724700  0.45255500  0.10637800  1
  Rb  Rb3  1  0.69275300  0.95255500  0.89362200  1
  Rb  Rb4  1  0.28276900  0.20270300  0.88310300  1
  Rb  Rb5  1  0.71723100  0.70270300  0.11689700  1
  Rb  Rb6  1  0.21723100  0.20270300  0.38310300  1
  Rb  Rb7  1  0.78276900  0.70270300  0.61689700  1
  Ti  Ti0  1  0.76278000  0.27234800  0.74689700  1
  Ti  Ti1  1  0.23722000  0.77234800  0.25310300  1
  Ti  Ti2  1  0.73722000  0.27234800  0.24689700  1
  Ti  Ti3  1  0.26278000  0.77234800  0.75310300  1
  Ti  Ti4  1  0.99842300  0.52341100  0.87130100  1
  Ti  Ti5  1  0.00157700  0.02341100  0.12869900  1
  Ti  Ti6  1  0.50157700  0.52341100  0.37130100  1
  Ti  Ti7  1  0.49842300  0.02341100  0.62869900  1
  P  P0  1  0.00280500  0.01519900  0.67963200  1
  P  P1  1  0.99719500  0.51519900  0.32036800  1
  P  P2  1  0.49719500  0.01519900  0.17963200  1
  P  P3  1  0.50280500  0.51519900  0.82036800  1
  P  P4  1  0.83586200  0.26733700  0.99986000  1
  P  P5  1  0.16413800  0.76733700  0.00014000  1
  P  P6  1  0.66413800  0.26733700  0.49986000  1
  P  P7  1  0.33586200  0.76733700  0.50014000  1
  O  O0  1  0.95930500  0.12879300  0.75059200  1
  O  O1  1  0.04069500  0.62879300  0.24940800  1
  O  O2  1  0.54069500  0.12879300  0.25059200  1
  O  O3  1  0.45930500  0.62879300  0.74940800  1
  O  O4  1  0.04382700  0.89964900  0.75009200  1
  O  O5  1  0.95617300  0.39964900  0.24990800  1
  O  O6  1  0.45617300  0.89964900  0.25009200  1
  O  O7  1  0.54382700  0.39964900  0.74990800  1
  O  O8  1  0.19230700  0.04406800  0.61379900  1
  O  O9  1  0.80769300  0.54406800  0.38620100  1
  O  O10  1  0.30769300  0.04406800  0.11379900  1
  O  O11  1  0.69230700  0.54406800  0.88620100  1
  O  O12  1  0.81415500  0.98514900  0.61384200  1
  O  O13  1  0.18584500  0.48514900  0.38615800  1
  O  O14  1  0.68584500  0.98514900  0.11384200  1
  O  O15  1  0.69881100  0.28945400  0.09541700  1
  O  O16  1  0.31415500  0.48514900  0.88615800  1
  O  O17  1  0.44894100  0.63780400  0.27706300  1
  O  O18  1  0.94894100  0.13780400  0.22293700  1
  O  O19  1  0.05105900  0.63780400  0.77706300  1
  O  O20  1  0.95729700  0.38539900  0.77945100  1
  O  O21  1  0.04270300  0.88539900  0.22054900  1
  O  O22  1  0.54270300  0.38539900  0.27945100  1
  O  O23  1  0.45729700  0.88539900  0.72054900  1
  O  O24  1  0.48079300  0.87890900  0.51426100  1
  O  O25  1  0.51920700  0.37890900  0.48573900  1
  O  O26  1  0.01920700  0.87890900  0.01426100  1
  O  O27  1  0.98079300  0.37890900  0.98573900  1
  O  O28  1  0.46249400  0.64493200  0.48506000  1
  O  O29  1  0.53750600  0.14493200  0.51494000  1
  O  O30  1  0.03750600  0.64493200  0.98506000  1
  O  O31  1  0.96249400  0.14493200  0.01494000  1
  O  O32  1  0.20362500  0.74571100  0.59677900  1
  O  O33  1  0.79637500  0.24571100  0.40322100  1
  O  O34  1  0.29637500  0.74571100  0.09677900  1
  O  O35  1  0.70362500  0.24571100  0.90322100  1
  O  O36  1  0.19881100  0.78945400  0.40458300  1
  O  O37  1  0.80118900  0.28945400  0.59541700  1
  O  O38  1  0.30118900  0.78945400  0.90458300  1
  O  O39  1  0.55105900  0.13780400  0.72293700  1
loop_
_geom_bond_atom_site_label_1
_geom_bond_atom_site_label_2
_geom_bond_distance
_geom_bond_site_symmetry_2
O0 P0 1.556178 1_655
O0 Ti0 2.007526 1_555
O0 Rb4 2.864197 1_655
O0 Rb3 3.187497 1_545
O1 P1 1.556178 1_455
O1 Ti1 2.007526 1_555
O1 Rb5 2.864197 1_455
O1 Rb2 3.187497 1_555
O2 P2 1.556178 1_555
O2 Ti2 2.007526 1_555
O2 Rb6 2.864197 1_555
O2 Rb1 3.187497 1_545
O3 P3 1.556178 1_555
O3 Ti3 2.007526 1_555
O3 Rb7 2.864197 1_555
O3 Rb0 3.187497 1_555
O4 P0 1.565709 1_565
O4 Ti3 1.983179 1_555
O4 Rb3 3.038932 1_455
O4 Rb7 3.231978 1_455
O5 P1 1.565709 1_555
O5 Ti2 1.983179 1_555
O5 Rb2 3.038932 1_655
O5 Rb6 3.231978 1_655
O6 P2 1.565709 1_565
O6 Ti1 1.983179 1_555
O6 Rb1 3.038932 1_555
O6 Rb5 3.231978 1_555
O7 P3 1.565709 1_555
O7 Ti0 1.983179 1_555
O7 Rb0 3.038932 1_555
O7 Rb4 3.231978 1_555
O8 P0 1.550749 1_555
O8 Ti7 2.040169 1_555
O8 Rb6 3.475724 1_555
O9 P1 1.550749 1_555
O9 Ti6 2.040169 1_555
O9 Rb7 3.475724 1_555
O10 P2 1.550749 1_555
O10 Ti5 2.040169 1_555
O10 Rb4 3.475724 1_554
O11 P3 1.550749 1_555
O11 Ti4 2.040169 1_555
O11 Rb5 3.475724 1_556
O12 P0 1.548471 1_665
O12 Ti7 2.130801 1_565
O12 Rb1 2.914456 1_555
O12 Rb7 3.022291 1_555
O13 P1 1.548471 1_455
O13 Ti6 2.130801 1_555
O13 Rb0 2.914456 1_555
O13 Rb6 3.022291 1_555
O14 P2 1.548471 1_565
O14 Ti5 2.130801 1_665
O14 Rb3 2.914456 1_554
O14 Rb5 3.022291 1_555
O15 P4 1.564838 1_554
O15 Ti2 2.014495 1_555
O15 Rb2 3.117667 1_555
O16 P3 1.548471 1_555
O16 Ti4 2.130801 1_455
O16 Rb2 2.914456 1_556
O16 Rb4 3.022291 1_555
O17 Ti6 1.773246 1_555
O17 Ti1 2.027600 1_555
O17 Rb5 2.835181 1_555
O17 Rb2 3.132406 1_555
O18 Ti5 1.773246 1_655
O18 Ti2 2.027600 1_555
O18 Rb6 2.835181 1_655
O18 Rb1 3.132406 1_545
O19 Ti4 1.773246 1_455
O19 Ti3 2.027600 1_555
O19 Rb7 2.835181 1_455
O19 Rb0 3.132406 1_555
O20 Ti0 1.812373 1_555
O20 Ti4 1.923547 1_555
O20 Rb0 2.845222 1_655
O20 Rb4 3.203841 1_655
O21 Ti1 1.812373 1_555
O21 Ti5 1.923547 1_565
O21 Rb1 2.845222 1_455
O21 Rb5 3.203841 1_455
O22 Ti2 1.812373 1_555
O22 Ti6 1.923547 1_555
O22 Rb2 2.845222 1_555
O22 Rb6 3.203841 1_555
O23 Ti3 1.812373 1_555
O23 Ti7 1.923547 1_565
O23 Rb3 2.845222 1_555
O23 Rb7 3.203841 1_555
O24 P7 1.538283 1_555
O24 Ti7 2.157127 1_565
O24 Rb1 2.786564 1_555
O24 Rb7 3.053173 1_555
O25 P6 1.538283 1_555
O25 Ti6 2.157127 1_555
O25 Rb0 2.786564 1_555
O25 Rb6 3.053173 1_555
O26 P5 1.538283 1_555
O26 Ti5 2.157127 1_565
O26 Rb3 2.786564 1_454
O26 Rb5 3.053173 1_455
O27 P4 1.538283 1_555
O27 Ti4 2.157127 1_555
O27 Rb2 2.786564 1_656
O27 Rb4 3.053173 1_655
O28 P7 1.563277 1_555
O28 Ti6 1.995691 1_555
O28 Rb7 2.800257 1_555
O28 Rb0 3.149869 1_555
O29 P6 1.563277 1_555
O29 Ti7 1.995691 1_555
O29 Rb6 2.800257 1_555
O29 Rb1 3.149869 1_545
O30 P5 1.563277 1_556
O30 Ti4 1.995691 1_455
O30 Rb5 2.800257 1_456
O30 Rb2 3.149869 1_556
O31 P4 1.563277 1_554
O31 Ti5 1.995691 1_655
O31 Rb4 2.800257 1_654
O31 Rb3 3.149869 1_544
O32 P7 1.557494 1_555
O32 Ti3 2.109758 1_555
O32 Rb7 2.825529 1_455
O32 Rb0 3.132611 1_555
O33 P6 1.557494 1_555
O33 Ti2 2.109758 1_555
O33 Rb6 2.825529 1_655
O33 Rb1 3.132611 1_545
O34 P5 1.557494 1_555
O34 Ti1 2.109758 1_555
O34 Rb5 2.825529 1_555
O34 Rb2 3.132611 1_555
O35 P4 1.557494 1_555
O35 Ti0 2.109758 1_555
O35 Rb4 2.825529 1_555
O35 Rb3 3.132611 1_545
O36 P7 1.564838 1_555
O36 Ti1 2.014495 1_555
O36 Rb1 3.117667 1_455
O37 P6 1.564838 1_555
O37 Ti0 2.014495 1_555
O37 Rb0 3.117667 1_655
O38 P5 1.564838 1_556
O38 Ti3 2.014495 1_555
O38 Rb3 3.117667 1_555
O39 Ti7 1.773246 1_555
O39 Ti0 2.027600 1_555
O39 Rb4 2.835181 1_555
O39 Rb3 3.132406 1_545
