# generated using pymatgen
data_K2IrCBr5O
_symmetry_space_group_name_H-M   'P 1'
_cell_length_a   7.44868700
_cell_length_b   10.64667600
_cell_length_c   15.31783300
_cell_angle_alpha   90.00000000
_cell_angle_beta   90.00000000
_cell_angle_gamma   90.00000000
_symmetry_Int_Tables_number   1
_chemical_formula_structural   K2IrCBr5O
_chemical_formula_sum   'K8 Ir4 C4 Br20 O4'
_cell_volume   1214.76170775
_cell_formula_units_Z   4
loop_
 _symmetry_equiv_pos_site_id
 _symmetry_equiv_pos_as_xyz
  1  'x, y, z'
loop_
 _atom_site_type_symbol
 _atom_site_label
 _atom_site_symmetry_multiplicity
 _atom_site_fract_x
 _atom_site_fract_y
 _atom_site_fract_z
 _atom_site_occupancy
  K  K0  1  0.85018300  0.49880400  0.34829400  1
  K  K1  1  0.35018300  0.99880400  0.15170600  1
  K  K2  1  0.14981700  0.99880400  0.65170600  1
  K  K3  1  0.64981700  0.49880400  0.84829400  1
  K  K4  1  0.35018300  0.50119600  0.15170600  1
  K  K5  1  0.64981700  0.00119600  0.84829400  1
  K  K6  1  0.14981700  0.50119600  0.65170600  1
  K  K7  1  0.85018300  0.00119600  0.34829400  1
  Ir  Ir0  1  0.19980000  0.25000000  0.87580600  1
  Ir  Ir1  1  0.80020000  0.75000000  0.12419400  1
  Ir  Ir2  1  0.69980000  0.75000000  0.62419400  1
  Ir  Ir3  1  0.30020000  0.25000000  0.37580600  1
  C  C0  1  0.95243000  0.25000000  0.04998300  1
  C  C1  1  0.45243000  0.75000000  0.45001700  1
  C  C2  1  0.04757000  0.75000000  0.95001700  1
  C  C3  1  0.54757000  0.25000000  0.54998300  1
  Br  Br0  1  0.69474600  0.98688500  0.62317600  1
  Br  Br1  1  0.80525400  0.51311500  0.12317600  1
  Br  Br2  1  0.57195600  0.25000000  0.27790100  1
  Br  Br3  1  0.19474600  0.01311500  0.87682400  1
  Br  Br4  1  0.30525400  0.01311500  0.37682400  1
  Br  Br5  1  0.19474600  0.48688500  0.87682400  1
  Br  Br6  1  0.96785600  0.75000000  0.52244500  1
  Br  Br7  1  0.60216700  0.75000000  0.25064000  1
  Br  Br8  1  0.46785600  0.25000000  0.97755500  1
  Br  Br9  1  0.39783300  0.25000000  0.74936000  1
  Br  Br10  1  0.69474600  0.51311500  0.62317600  1
  Br  Br11  1  0.30525400  0.48688500  0.37682400  1
  Br  Br12  1  0.10216700  0.25000000  0.24936000  1
  Br  Br13  1  0.42804400  0.75000000  0.72209900  1
  Br  Br14  1  0.80525400  0.98688500  0.12317600  1
  Br  Br15  1  0.92804400  0.25000000  0.77790100  1
  Br  Br16  1  0.53214400  0.75000000  0.02244500  1
  Br  Br17  1  0.89783300  0.75000000  0.75064000  1
  Br  Br18  1  0.07195600  0.75000000  0.22209900  1
  Br  Br19  1  0.03214400  0.25000000  0.47755500  1
  O  O0  1  0.96381800  0.75000000  0.01365500  1
  O  O1  1  0.46381800  0.25000000  0.48634500  1
  O  O2  1  0.53618200  0.75000000  0.51365500  1
  O  O3  1  0.03618200  0.25000000  0.98634500  1
loop_
_geom_bond_atom_site_label_1
_geom_bond_atom_site_label_2
_geom_bond_distance
_geom_bond_site_symmetry_2
Ir0 O3 2.086220 1_555
Ir1 O0 2.086220 1_555
Ir2 O2 2.086220 1_555
Ir3 O1 2.086220 1_555
C0 O3 1.157328 1_654
C1 O2 1.157328 1_555
C2 O0 1.157328 1_456
C3 O1 1.157328 1_555
Br0 Ir2 2.522367 1_555
Br0 K2 3.420092 1_655
Br0 K5 3.467870 1_565
Br1 Ir1 2.522367 1_555
Br1 K4 3.420092 1_555
Br1 K0 3.467870 1_555
Br2 Ir3 2.519239 1_555
Br2 K7 3.531922 1_555
Br2 K0 3.531922 1_555
Br2 K4 3.690241 1_555
Br2 K1 3.690241 1_545
Br3 Ir0 2.522367 1_555
Br3 K5 3.420092 1_555
Br3 K2 3.467870 1_545
Br4 Ir3 2.522367 1_555
Br4 K7 3.420092 1_455
Br4 K1 3.467870 1_545
Br5 Ir0 2.522367 1_555
Br5 K3 3.420092 1_555
Br5 K6 3.467870 1_555
Br6 Ir2 2.532948 1_555
Br6 K2 3.574113 1_655
Br6 K6 3.574113 1_655
Br6 K7 3.877741 1_565
Br6 K0 3.877741 1_555
Br7 Ir1 2.434621 1_555
Br7 K7 3.578107 1_565
Br7 K0 3.578107 1_555
Br7 K4 3.582793 1_555
Br7 K1 3.582793 1_555
Br8 Ir0 2.532948 1_555
Br8 K5 3.574113 1_555
Br8 K3 3.574113 1_555
Br8 K1 3.877741 1_546
Br8 K4 3.877741 1_556
Br9 Ir0 2.434621 1_555
Br9 K6 3.578107 1_555
Br9 K2 3.578107 1_545
Br9 K5 3.582793 1_555
Br9 K3 3.582793 1_555
Br10 Ir2 2.522367 1_555
Br10 K6 3.420092 1_655
Br10 K3 3.467870 1_555
Br11 Ir3 2.522367 1_555
Br11 K0 3.420092 1_455
Br11 K4 3.467870 1_555
Br12 Ir3 2.434621 1_555
Br12 K4 3.578107 1_555
Br12 K1 3.578107 1_545
Br12 K7 3.582793 1_455
Br12 K0 3.582793 1_455
Br13 Ir2 2.519239 1_555
Br13 K2 3.531922 1_555
Br13 K6 3.531922 1_555
Br13 K5 3.690241 1_565
Br13 K3 3.690241 1_555
Br14 Ir1 2.522367 1_555
Br14 K1 3.420092 1_555
Br14 K7 3.467870 1_565
Br15 Ir0 2.519239 1_655
Br15 K5 3.531922 1_555
Br15 K3 3.531922 1_555
Br15 K6 3.690241 1_655
Br15 K2 3.690241 1_645
Br16 Ir1 2.532948 1_555
Br16 K4 3.574113 1_555
Br16 K1 3.574113 1_555
Br16 K3 3.877741 1_554
Br16 K5 3.877741 1_564
Br17 Ir2 2.434621 1_555
Br17 K5 3.578107 1_565
Br17 K3 3.578107 1_555
Br17 K2 3.582793 1_655
Br17 K6 3.582793 1_655
Br18 Ir1 2.519239 1_455
Br18 K4 3.531922 1_555
Br18 K1 3.531922 1_555
Br18 K7 3.690241 1_465
Br18 K0 3.690241 1_455
Br19 Ir3 2.532948 1_555
Br19 K0 3.574113 1_455
Br19 K7 3.574113 1_455
Br19 K6 3.877741 1_555
Br19 K2 3.877741 1_545
