# generated using pymatgen
data_Nb4Te17I4
_symmetry_space_group_name_H-M   'P 1'
_cell_length_a   9.30568929
_cell_length_b   9.30571592
_cell_length_c   27.07673165
_cell_angle_alpha   77.08387362
_cell_angle_beta   77.09785589
_cell_angle_gamma   54.15040774
_symmetry_Int_Tables_number   1
_chemical_formula_structural   Nb4Te17I4
_chemical_formula_sum   'Nb8 Te34 I8'
_cell_volume   1839.75168010
_cell_formula_units_Z   2
loop_
 _symmetry_equiv_pos_site_id
 _symmetry_equiv_pos_as_xyz
  1  'x, y, z'
loop_
 _atom_site_type_symbol
 _atom_site_label
 _atom_site_symmetry_multiplicity
 _atom_site_fract_x
 _atom_site_fract_y
 _atom_site_fract_z
 _atom_site_occupancy
  Nb  Nb0  1  0.09350936  0.52569993  0.44289124  1
  Nb  Nb1  1  0.90652368  0.47433475  0.55711089  1
  Nb  Nb2  1  0.62114506  0.22490615  0.82843155  1
  Nb  Nb3  1  0.52577065  0.09347968  0.94289237  1
  Nb  Nb4  1  0.77512007  0.37892184  0.67155243  1
  Nb  Nb5  1  0.47425705  0.90655821  0.05710572  1
  Nb  Nb6  1  0.22477708  0.62109743  0.32844624  1
  Nb  Nb7  1  0.37874574  0.77517338  0.17156796  1
  Te  Te0  1  0.41814023  0.45964624  0.90702724  1
  Te  Te1  1  0.07500834  0.66281323  0.53027604  1
  Te  Te2  1  0.09953747  0.35090945  0.64564631  1
  Te  Te3  1  0.33709776  0.92513281  0.96972111  1
  Te  Te4  1  0.58184030  0.54039490  0.09296652  1
  Te  Te5  1  0.66526886  0.73209868  0.63280118  1
  Te  Te6  1  0.61004984  0.19587296  0.72492846  1
  Te  Te7  1  0.79789317  0.76099985  0.99062657  1
  Te  Te8  1  0.96497877  0.88013793  0.82303848  1
  Te  Te9  1  0.54726155  0.45232628  0.25005942  1
  Te  Te10  1  0.76114858  0.79795477  0.49059422  1
  Te  Te11  1  0.90561270  0.14829764  0.59983084  1
  Te  Te12  1  0.33468191  0.26793791  0.36721752  1
  Te  Te13  1  0.45970986  0.41806828  0.40702628  1
  Te  Te14  1  0.23901926  0.20210658  0.50946357  1
  Te  Te15  1  0.03497378  0.11989857  0.17698865  1
  Te  Te16  1  0.11987620  0.03510005  0.67699951  1
  Te  Te17  1  0.19567470  0.61011601  0.22493608  1
  Te  Te18  1  0.45265855  0.54754043  0.74998711  1
  Te  Te19  1  0.80435748  0.38982768  0.77504508  1
  Te  Te20  1  0.26798247  0.33472089  0.86718159  1
  Te  Te21  1  0.88012181  0.96491076  0.32300409  1
  Te  Te22  1  0.20203976  0.23913843  0.00935747  1
  Te  Te23  1  0.38990241  0.80405769  0.27505471  1
  Te  Te24  1  0.92508770  0.33719056  0.46973729  1
  Te  Te25  1  0.66273537  0.07503318  0.03028720  1
  Te  Te26  1  0.64918130  0.90041278  0.85437031  1
  Te  Te27  1  0.85169894  0.09442912  0.90017884  1
  Te  Te28  1  0.35078424  0.09959622  0.14563950  1
  Te  Te29  1  0.73198430  0.66533355  0.13281675  1
  Te  Te30  1  0.09447608  0.85162906  0.40017174  1
  Te  Te31  1  0.54025965  0.58198731  0.59295946  1
  Te  Te32  1  0.14826712  0.90566899  0.09979687  1
  Te  Te33  1  0.90040099  0.64906644  0.35438305  1
  I  I0  1  0.52780500  0.26161777  0.55559152  1
  I  I1  1  0.90223339  0.79857099  0.70612479  1
  I  I2  1  0.20193141  0.09738107  0.79368480  1
  I  I3  1  0.73816605  0.47206110  0.94448629  1
  I  I4  1  0.26206080  0.52796317  0.05549182  1
  I  I5  1  0.09780635  0.20137762  0.29384856  1
  I  I6  1  0.79836931  0.90249503  0.20614654  1
  I  I7  1  0.47206457  0.73800865  0.44450720  1
loop_
_geom_bond_atom_site_label_1
_geom_bond_atom_site_label_2
_geom_bond_distance
_geom_bond_site_symmetry_2
Nb0 Te14 2.835113 1_555
Nb0 Te10 2.855432 1_455
Nb0 Te1 2.857705 1_555
Nb0 Te24 2.864187 1_455
Nb0 Te13 2.918571 1_555
Nb0 Te33 2.926991 1_455
Nb0 Te12 2.970998 1_555
Nb0 Te30 2.999349 1_555
Nb1 Te10 2.834515 1_555
Nb1 Te14 2.855309 1_655
Nb1 Te24 2.857373 1_555
Nb1 Te1 2.864435 1_655
Nb1 Te31 2.918980 1_555
Nb1 Te2 2.927050 1_655
Nb1 Te5 2.971420 1_555
Nb1 Te11 3.000018 1_555
Nb2 Te27 2.758044 1_555
Nb2 Te26 2.809009 1_545
Nb2 Te20 2.819826 1_555
Nb2 Te0 2.884198 1_555
Nb2 Te19 2.885156 1_555
Nb2 Te6 2.904856 1_555
Nb2 Te8 2.920427 1_545
Nb2 Te18 3.017671 1_555
Nb3 Te22 2.835118 1_556
Nb3 Te7 2.855251 1_545
Nb3 Te25 2.857037 1_556
Nb3 Te3 2.864943 1_545
Nb3 Te0 2.917953 1_555
Nb3 Te26 2.927614 1_545
Nb3 Te20 2.971146 1_555
Nb3 Te27 2.999504 1_555
Nb4 Te11 2.758487 1_555
Nb4 Te2 2.808593 1_655
Nb4 Te5 2.819494 1_555
Nb4 Te31 2.884053 1_555
Nb4 Te6 2.884923 1_555
Nb4 Te19 2.904624 1_555
Nb4 Te16 2.920323 1_655
Nb4 Te18 3.017533 1_555
Nb5 Te7 2.834747 1_554
Nb5 Te22 2.856150 1_565
Nb5 Te3 2.857403 1_554
Nb5 Te25 2.864370 1_565
Nb5 Te4 2.918026 1_555
Nb5 Te28 2.927650 1_565
Nb5 Te29 2.970836 1_555
Nb5 Te32 2.999654 1_555
Nb6 Te30 2.758294 1_555
Nb6 Te33 2.808442 1_455
Nb6 Te12 2.819340 1_555
Nb6 Te13 2.884134 1_555
Nb6 Te23 2.884769 1_555
Nb6 Te17 2.904896 1_555
Nb6 Te21 2.919843 1_455
Nb6 Te9 3.017007 1_555
Nb7 Te32 2.758042 1_555
Nb7 Te28 2.808702 1_565
Nb7 Te29 2.820391 1_555
Nb7 Te4 2.884548 1_555
Nb7 Te17 2.884960 1_555
Nb7 Te23 2.904135 1_555
Nb7 Te15 2.920025 1_565
Nb7 Te9 3.019514 1_555
Te0 Te20 2.757645 1_555
Te1 Te10 2.785935 1_455
Te11 Te16 2.804894 1_655
Te12 Te13 2.757625 1_555
Te14 Te24 2.787274 1_455
Te15 Te28 2.774939 1_555
Te15 Te32 2.805560 1_545
Te16 Te2 2.774556 1_555
Te17 Te9 2.871143 1_555
Te18 Te19 2.871558 1_555
Te18 Te6 2.872206 1_555
Te21 Te33 2.775192 1_555
Te21 Te30 2.805264 1_655
Te22 Te3 2.787062 1_544
Te23 Te9 2.872154 1_555
Te25 Te7 2.787396 1_544
Te26 Te8 2.774908 1_555
Te27 Te8 2.804821 1_545
Te29 Te4 2.757711 1_555
Te31 Te5 2.757870 1_555
I0 Te31 3.425015 1_555
I0 Te11 3.446858 1_555
I0 Te14 3.555258 1_555
I1 Te6 3.125662 1_565
I2 Te19 3.126519 1_455
I3 Te0 3.422749 1_555
I3 Te27 3.445951 1_555
I3 Te7 3.558306 1_555
I4 Te4 3.420865 1_555
I4 Te32 3.445655 1_555
I4 Te22 3.559088 1_555
I5 Te23 3.125604 1_545
I6 Te17 3.125597 1_655
I7 Te13 3.422153 1_555
I7 Te30 3.445275 1_555
