# generated using pymatgen
data_H8Pd(NCl3)2
_symmetry_space_group_name_H-M   'P 1'
_cell_length_a   6.90430348
_cell_length_b   6.90430348
_cell_length_c   6.90430348
_cell_angle_alpha   60.00000000
_cell_angle_beta   60.00000000
_cell_angle_gamma   60.00000000
_symmetry_Int_Tables_number   1
_chemical_formula_structural   H8Pd(NCl3)2
_chemical_formula_sum   'H8 Pd1 N2 Cl6'
_cell_volume   232.72584724
_cell_formula_units_Z   1
loop_
 _symmetry_equiv_pos_site_id
 _symmetry_equiv_pos_as_xyz
  1  'x, y, z'
loop_
 _atom_site_type_symbol
 _atom_site_label
 _atom_site_symmetry_multiplicity
 _atom_site_fract_x
 _atom_site_fract_y
 _atom_site_fract_z
 _atom_site_occupancy
  H  H0  1  0.93168691  0.68943703  0.68943703  1
  H  H1  1  0.68943703  0.68943703  0.93168691  1
  H  H2  1  0.68943703  0.93168691  0.68943703  1
  H  H3  1  0.68943703  0.68943703  0.68943703  1
  H  H4  1  0.06831309  0.31056297  0.31056297  1
  H  H5  1  0.31056297  0.31056297  0.06831309  1
  H  H6  1  0.31056297  0.06831309  0.31056297  1
  H  H7  1  0.31056297  0.31056297  0.31056297  1
  Pd  Pd0  1  -0.00000000  0.00000000  -0.00000000  1
  N  N0  1  0.75000000  0.75000000  0.75000000  1
  N  N1  1  0.25000000  0.25000000  0.25000000  1
  Cl  Cl0  1  0.23826002  0.76173998  0.76173998  1
  Cl  Cl1  1  0.23826002  0.23826002  0.76173998  1
  Cl  Cl2  1  0.23826002  0.76173998  0.23826002  1
  Cl  Cl3  1  0.76173998  0.23826002  0.23826002  1
  Cl  Cl4  1  0.76173998  0.76173998  0.23826002  1
  Cl  Cl5  1  0.76173998  0.23826002  0.76173998  1
loop_
_geom_bond_atom_site_label_1
_geom_bond_atom_site_label_2
_geom_bond_distance
_geom_bond_site_symmetry_2
H0 N0 1.024231 1_555
H1 N0 1.024231 1_555
H2 N0 1.024231 1_555
H3 N0 1.024242 1_555
H4 N1 1.024231 1_555
H5 N1 1.024231 1_555
H6 N1 1.024231 1_555
H7 N1 1.024242 1_555
Cl0 Pd0 2.326409 1_566
Cl1 Pd0 2.326409 1_556
Cl2 Pd0 2.326409 1_565
Cl3 Pd0 2.326409 1_655
Cl4 Pd0 2.326409 1_665
Cl5 Pd0 2.326409 1_656
