# generated using pymatgen
data_BaH2CSNClO
_symmetry_space_group_name_H-M   'P 1'
_cell_length_a   4.82010800
_cell_length_b   5.91767800
_cell_length_c   20.41847500
_cell_angle_alpha   90.00000000
_cell_angle_beta   90.00000000
_cell_angle_gamma   90.00000000
_symmetry_Int_Tables_number   1
_chemical_formula_structural   BaH2CSNClO
_chemical_formula_sum   'Ba4 H8 C4 S4 N4 Cl4 O4'
_cell_volume   582.41345829
_cell_formula_units_Z   4
loop_
 _symmetry_equiv_pos_site_id
 _symmetry_equiv_pos_as_xyz
  1  'x, y, z'
loop_
 _atom_site_type_symbol
 _atom_site_label
 _atom_site_symmetry_multiplicity
 _atom_site_fract_x
 _atom_site_fract_y
 _atom_site_fract_z
 _atom_site_occupancy
  Ba  Ba0  1  0.25000000  0.76182600  0.08259200  1
  Ba  Ba1  1  0.25000000  0.26182600  0.41740800  1
  Ba  Ba2  1  0.75000000  0.23817400  0.91740800  1
  Ba  Ba3  1  0.75000000  0.73817400  0.58259200  1
  H  H0  1  0.08765400  0.88844900  0.24325500  1
  H  H1  1  0.41234600  0.38844900  0.25674500  1
  H  H2  1  0.58765400  0.11155100  0.75674500  1
  H  H3  1  0.91234600  0.61155100  0.74325500  1
  H  H4  1  0.91234600  0.11155100  0.75674500  1
  H  H5  1  0.58765400  0.61155100  0.74325500  1
  H  H6  1  0.41234600  0.88844900  0.24325500  1
  H  H7  1  0.08765400  0.38844900  0.25674500  1
  C  C0  1  0.75000000  0.19464300  0.14438800  1
  C  C1  1  0.75000000  0.69464300  0.35561200  1
  C  C2  1  0.25000000  0.80535700  0.85561200  1
  C  C3  1  0.25000000  0.30535700  0.64438800  1
  S  S0  1  0.75000000  0.45838700  0.16883800  1
  S  S1  1  0.75000000  0.95838700  0.33116200  1
  S  S2  1  0.25000000  0.54161300  0.83116200  1
  S  S3  1  0.25000000  0.04161300  0.66883800  1
  N  N0  1  0.75000000  0.00331800  0.12751300  1
  N  N1  1  0.75000000  0.50331800  0.37248700  1
  N  N2  1  0.25000000  0.99668200  0.87248700  1
  N  N3  1  0.25000000  0.49668200  0.62751300  1
  Cl  Cl0  1  0.25000000  0.26208700  0.02108400  1
  Cl  Cl1  1  0.25000000  0.76208700  0.47891600  1
  Cl  Cl2  1  0.75000000  0.73791300  0.97891600  1
  Cl  Cl3  1  0.75000000  0.23791300  0.52108400  1
  O  O0  1  0.25000000  0.85361000  0.21596000  1
  O  O1  1  0.25000000  0.35361000  0.28404000  1
  O  O2  1  0.75000000  0.14639000  0.78404000  1
  O  O3  1  0.75000000  0.64639000  0.71596000  1
loop_
_geom_bond_atom_site_label_1
_geom_bond_atom_site_label_2
_geom_bond_distance
_geom_bond_site_symmetry_2
Ba0 O0 2.776810 1_555
Ba0 N0 2.948202 1_565
Ba0 N0 2.948202 1_465
Ba0 Cl2 3.210868 1_554
Ba0 Cl2 3.210868 1_454
Ba0 Cl0 3.212923 1_555
Ba0 Cl0 3.215767 1_565
Ba0 S0 3.483374 1_555
Ba0 S0 3.483374 1_455
Ba1 O1 2.776810 1_555
Ba1 N1 2.948202 1_455
Ba1 N1 2.948202 1_555
Ba1 Cl3 3.210868 1_455
Ba1 Cl3 3.210868 1_555
Ba1 Cl1 3.212923 1_545
Ba1 Cl1 3.215767 1_555
Ba1 S1 3.483374 1_545
Ba1 S1 3.483374 1_445
Ba2 O2 2.776810 1_555
Ba2 N2 2.948202 1_545
Ba2 N2 2.948202 1_645
Ba2 Cl0 3.210868 1_556
Ba2 Cl0 3.210868 1_656
Ba2 Cl2 3.212923 1_555
Ba2 Cl2 3.215767 1_545
Ba2 S2 3.483374 1_555
Ba2 S2 3.483374 1_655
Ba3 O3 2.776810 1_555
Ba3 N3 2.948202 1_655
Ba3 N3 2.948202 1_555
Ba3 Cl1 3.210868 1_655
Ba3 Cl1 3.210868 1_555
Ba3 Cl3 3.212923 1_565
Ba3 Cl3 3.215767 1_555
Ba3 S3 3.483374 1_565
Ba3 S3 3.483374 1_665
H0 O0 0.982577 1_555
H1 O1 0.982577 1_555
H2 O2 0.982577 1_555
H3 O3 0.982577 1_555
H4 O2 0.982577 1_555
H5 O3 0.982577 1_555
H6 O0 0.982577 1_555
H7 O1 0.982577 1_555
C0 N0 1.183469 1_555
C0 S0 1.638652 1_555
C1 N1 1.183469 1_555
C1 S1 1.638652 1_555
C2 N2 1.183469 1_555
C2 S2 1.638652 1_555
C3 N3 1.183469 1_555
C3 S3 1.638652 1_555
