# generated using pymatgen
data_H8C2NCl
_symmetry_space_group_name_H-M   'P 1'
_cell_length_a   9.63485104
_cell_length_b   9.63485104
_cell_length_c   9.63485104
_cell_angle_alpha   135.20682191
_cell_angle_beta   116.60219587
_cell_angle_gamma   80.94120095
_symmetry_Int_Tables_number   1
_chemical_formula_structural   H8C2NCl
_chemical_formula_sum   'H32 C8 N4 Cl4'
_cell_volume   544.89022983
_cell_formula_units_Z   4
loop_
 _symmetry_equiv_pos_site_id
 _symmetry_equiv_pos_as_xyz
  1  'x, y, z'
loop_
 _atom_site_type_symbol
 _atom_site_label
 _atom_site_symmetry_multiplicity
 _atom_site_fract_x
 _atom_site_fract_y
 _atom_site_fract_z
 _atom_site_occupancy
  H  H0  1  0.35594800  0.78058600  0.42463900  1
  H  H1  1  0.64405200  0.21941400  0.57536100  1
  H  H2  1  0.14405200  0.06869100  0.92463900  1
  H  H3  1  0.85594800  0.93130900  0.07536100  1
  H  H4  1  0.28082000  0.53146300  0.25064300  1
  H  H5  1  0.71918000  0.46853700  0.74935700  1
  H  H6  1  0.21918000  0.96982300  0.75064300  1
  H  H7  1  0.78082000  0.03017700  0.24935700  1
  H  H8  1  0.57003500  0.63858200  0.48587800  1
  H  H9  1  0.84729500  0.36141800  0.93145200  1
  H  H10  1  0.92996500  0.91584300  0.56854800  1
  H  H11  1  0.65270500  0.08415700  0.01412200  1
  H  H12  1  0.42996500  0.36141800  0.51412200  1
  H  H13  1  0.15270500  0.63858200  0.06854800  1
  H  H14  1  0.07003500  0.08415700  0.43145200  1
  H  H15  1  0.34729500  0.91584300  0.98587800  1
  H  H16  1  0.51044500  0.44440700  0.19056900  1
  H  H17  1  0.74616200  0.55559300  0.06603800  1
  H  H18  1  0.98955500  0.68012400  0.43396200  1
  H  H19  1  0.75383800  0.31987600  0.30943100  1
  H  H20  1  0.48955500  0.55559300  0.80943100  1
  H  H21  1  0.25383800  0.44440700  0.93396200  1
  H  H22  1  0.01044500  0.31987600  0.56603800  1
  H  H23  1  0.24616200  0.68012400  0.69056900  1
  H  H24  1  0.58797600  0.70597600  0.36115800  1
  H  H25  1  0.65518200  0.29402400  0.88200000  1
  H  H26  1  0.91202400  0.77318200  0.61800000  1
  H  H27  1  0.84481800  0.22681800  0.13884200  1
  H  H28  1  0.41202400  0.29402400  0.63884200  1
  H  H29  1  0.34481800  0.70597600  0.11800000  1
  H  H30  1  0.08797600  0.22681800  0.38200000  1
  H  H31  1  0.15518200  0.77318200  0.86115800  1
  C  C0  1  0.51653400  0.60310800  0.33332400  1
  C  C1  1  0.73021600  0.39689200  0.91342700  1
  C  C2  1  0.98346600  0.81679000  0.58657300  1
  C  C3  1  0.76978400  0.18321000  0.16667600  1
  C  C4  1  0.48346600  0.39689200  0.66667600  1
  C  C5  1  0.26978400  0.60310800  0.08657300  1
  C  C6  1  0.01653400  0.18321000  0.41342700  1
  C  C7  1  0.23021600  0.81679000  0.83332400  1
  N  N0  1  0.35148000  0.63242900  0.28094800  1
  N  N1  1  0.64852000  0.36757100  0.71905200  1
  N  N2  1  0.14852000  0.92946800  0.78094800  1
  N  N3  1  0.85148000  0.07053200  0.21905200  1
  Cl  Cl0  1  0.35564400  0.05884000  0.70319600  1
  Cl  Cl1  1  0.64435600  0.94116000  0.29680400  1
  Cl  Cl2  1  0.14435600  0.34755100  0.20319600  1
  Cl  Cl3  1  0.85564400  0.65244900  0.79680400  1
loop_
_geom_bond_atom_site_label_1
_geom_bond_atom_site_label_2
_geom_bond_distance
_geom_bond_site_symmetry_2
H0 N0 1.057010 1_555
H1 N1 1.057010 1_555
H2 N2 1.057018 1_545
H3 N3 1.057018 1_565
H4 N0 1.059456 1_555
H5 N1 1.059456 1_555
H6 N2 1.059448 1_555
H7 N3 1.059448 1_555
C0 H24 1.095581 1_555
C0 H16 1.097398 1_555
C0 H8 1.098570 1_555
C0 N0 1.485120 1_555
C1 H25 1.095575 1_555
C1 H17 1.097395 1_556
C1 H9 1.098563 1_555
C1 N1 1.485120 1_555
C2 H26 1.095589 1_555
C2 H18 1.097393 1_555
C2 H10 1.098559 1_555
C2 N2 1.485120 1_655
C3 H27 1.095581 1_555
C3 H19 1.097398 1_555
C3 H11 1.098564 1_555
C3 N3 1.485117 1_555
C4 H28 1.095581 1_555
C4 H20 1.097398 1_555
C4 H12 1.098570 1_555
C4 N1 1.485120 1_555
C5 H29 1.095575 1_555
C5 H21 1.097395 1_554
C5 H13 1.098563 1_555
C5 N0 1.485120 1_555
C6 H30 1.095589 1_555
C6 H22 1.097393 1_555
C6 H14 1.098559 1_555
C6 N3 1.485120 1_455
C7 H31 1.095581 1_555
C7 H23 1.097398 1_555
C7 H15 1.098564 1_555
C7 N2 1.485117 1_555
Cl0 H6 2.030560 1_545
Cl0 H0 2.045188 1_545
Cl1 H7 2.030560 1_565
Cl1 H1 2.045188 1_565
Cl2 H4 2.030568 1_555
Cl2 H2 2.045181 1_554
Cl3 H5 2.030568 1_555
Cl3 H3 2.045181 1_556
