# generated using pymatgen
data_Cs2PO3F
_symmetry_space_group_name_H-M   'P 1'
_cell_length_a   6.47228600
_cell_length_b   8.50548000
_cell_length_c   11.20680900
_cell_angle_alpha   90.00000000
_cell_angle_beta   90.00000000
_cell_angle_gamma   90.00000000
_symmetry_Int_Tables_number   1
_chemical_formula_structural   Cs2PO3F
_chemical_formula_sum   'Cs8 P4 O12 F4'
_cell_volume   616.93370499
_cell_formula_units_Z   4
loop_
 _symmetry_equiv_pos_site_id
 _symmetry_equiv_pos_as_xyz
  1  'x, y, z'
loop_
 _atom_site_type_symbol
 _atom_site_label
 _atom_site_symmetry_multiplicity
 _atom_site_fract_x
 _atom_site_fract_y
 _atom_site_fract_z
 _atom_site_occupancy
  Cs  Cs0  1  0.25000000  0.00073100  0.28555700  1
  Cs  Cs1  1  0.75000000  0.99926900  0.71444300  1
  Cs  Cs2  1  0.25000000  0.50073100  0.21444300  1
  Cs  Cs3  1  0.75000000  0.49926900  0.78555700  1
  Cs  Cs4  1  0.25000000  0.17531800  0.91779100  1
  Cs  Cs5  1  0.75000000  0.82468200  0.08220900  1
  Cs  Cs6  1  0.25000000  0.67531800  0.58220900  1
  Cs  Cs7  1  0.75000000  0.32468200  0.41779100  1
  P  P0  1  0.25000000  0.24754400  0.58349500  1
  P  P1  1  0.75000000  0.75245600  0.41650500  1
  P  P2  1  0.25000000  0.74754400  0.91650500  1
  P  P3  1  0.75000000  0.25245600  0.08349500  1
  O  O0  1  0.75000000  0.70068300  0.54693000  1
  O  O1  1  0.25000000  0.29931700  0.45307000  1
  O  O2  1  0.25000000  0.79931700  0.04693000  1
  O  O3  1  0.75000000  0.20068300  0.95307000  1
  O  O4  1  0.55081600  0.71863600  0.34866200  1
  O  O5  1  0.05081600  0.28136400  0.65133800  1
  O  O6  1  0.94918400  0.21863600  0.15133800  1
  O  O7  1  0.44918400  0.78136400  0.84866200  1
  O  O8  1  0.44918400  0.28136400  0.65133800  1
  O  O9  1  0.94918400  0.71863600  0.34866200  1
  O  O10  1  0.05081600  0.78136400  0.84866200  1
  O  O11  1  0.55081600  0.21863600  0.15133800  1
  F  F0  1  0.75000000  0.44998800  0.07387800  1
  F  F1  1  0.25000000  0.55001200  0.92612200  1
  F  F2  1  0.25000000  0.05001200  0.57387800  1
  F  F3  1  0.75000000  0.94998800  0.42612200  1
loop_
_geom_bond_atom_site_label_1
_geom_bond_atom_site_label_2
_geom_bond_distance
_geom_bond_site_symmetry_2
Cs0 O11 3.080299 1_555
Cs0 O6 3.080299 1_455
Cs0 O1 3.158142 1_555
Cs0 O9 3.169814 1_445
Cs0 O4 3.169814 1_545
Cs0 O2 3.175907 1_545
Cs0 F2 3.258232 1_555
Cs0 F3 3.624971 1_545
Cs0 F3 3.624971 1_445
Cs1 O7 3.080299 1_555
Cs1 O10 3.080299 1_655
Cs1 O0 3.158142 1_555
Cs1 O8 3.169814 1_565
Cs1 O5 3.169814 1_665
Cs1 O3 3.175907 1_565
Cs1 F3 3.258232 1_555
Cs1 F2 3.624971 1_565
Cs1 F2 3.624971 1_665
Cs2 O9 3.080299 1_455
Cs2 O4 3.080299 1_555
Cs2 O2 3.158142 1_555
Cs2 O11 3.169814 1_555
Cs2 O6 3.169814 1_455
Cs2 O1 3.175907 1_555
Cs2 F1 3.258232 1_554
Cs2 F0 3.624971 1_555
Cs2 F0 3.624971 1_455
Cs3 O5 3.080299 1_655
Cs3 O8 3.080299 1_555
Cs3 O3 3.158142 1_555
Cs3 O10 3.169814 1_655
Cs3 O7 3.169814 1_555
Cs3 O0 3.175907 1_555
Cs3 F0 3.258232 1_556
Cs3 F1 3.624971 1_555
Cs3 F1 3.624971 1_655
Cs4 F1 3.188320 1_555
Cs4 O3 3.267335 1_455
Cs4 O3 3.267335 1_555
Cs4 O6 3.282800 1_456
Cs4 O11 3.282800 1_556
Cs4 O5 3.375241 1_555
Cs4 O8 3.375241 1_555
Cs4 O2 3.510290 1_546
Cs4 O7 3.672847 1_545
Cs4 O10 3.672847 1_545
Cs5 F0 3.188320 1_555
Cs5 O2 3.267335 1_555
Cs5 O2 3.267335 1_655
Cs5 O7 3.282800 1_554
Cs5 O10 3.282800 1_654
Cs5 O9 3.375241 1_555
Cs5 O4 3.375241 1_555
Cs5 O3 3.510290 1_564
Cs5 O6 3.672847 1_565
Cs5 O11 3.672847 1_565
Cs6 F2 3.188320 1_565
Cs6 O0 3.267335 1_555
Cs6 O0 3.267335 1_455
Cs6 O9 3.282800 1_455
Cs6 O4 3.282800 1_555
Cs6 O10 3.375241 1_555
Cs6 O7 3.375241 1_555
Cs6 O1 3.510290 1_555
Cs6 O8 3.672847 1_555
Cs6 O5 3.672847 1_555
Cs7 F3 3.188320 1_545
Cs7 O1 3.267335 1_655
Cs7 O1 3.267335 1_555
Cs7 O8 3.282800 1_555
Cs7 O5 3.282800 1_655
Cs7 O6 3.375241 1_555
Cs7 O11 3.375241 1_555
Cs7 O0 3.510290 1_555
Cs7 O9 3.672847 1_555
Cs7 O4 3.672847 1_555
O0 P1 1.526541 1_555
O1 P0 1.526541 1_555
O2 P2 1.526541 1_554
O3 P3 1.526541 1_556
O4 P1 1.524067 1_555
O5 P0 1.524067 1_555
O6 P3 1.524067 1_555
O7 P2 1.524067 1_555
O8 P0 1.524067 1_555
O9 P1 1.524067 1_555
O10 P2 1.524067 1_555
O11 P3 1.524067 1_555
F0 P3 1.683558 1_555
F1 P2 1.683558 1_555
F2 P0 1.683558 1_555
F3 P1 1.683558 1_555
