# generated using pymatgen
data_Na2BH4ClO4
_symmetry_space_group_name_H-M   'P 1'
_cell_length_a   7.38175000
_cell_length_b   7.38175000
_cell_length_c   4.84948400
_cell_angle_alpha   90.00000000
_cell_angle_beta   90.00000000
_cell_angle_gamma   90.00000000
_symmetry_Int_Tables_number   1
_chemical_formula_structural   Na2BH4ClO4
_chemical_formula_sum   'Na4 B2 H8 Cl2 O8'
_cell_volume   264.24951339
_cell_formula_units_Z   2
loop_
 _symmetry_equiv_pos_site_id
 _symmetry_equiv_pos_as_xyz
  1  'x, y, z'
loop_
 _atom_site_type_symbol
 _atom_site_label
 _atom_site_symmetry_multiplicity
 _atom_site_fract_x
 _atom_site_fract_y
 _atom_site_fract_z
 _atom_site_occupancy
  Na  Na0  1  0.25000000  0.75000000  0.50000000  1
  Na  Na1  1  0.25000000  0.25000000  0.50000000  1
  Na  Na2  1  0.75000000  0.75000000  0.50000000  1
  Na  Na3  1  0.75000000  0.25000000  0.50000000  1
  B  B0  1  0.00000000  0.00000000  0.00000000  1
  B  B1  1  0.50000000  0.50000000  0.00000000  1
  H  H0  1  0.50000000  0.76642900  0.93552300  1
  H  H1  1  0.50000000  0.23357100  0.93552300  1
  H  H2  1  0.26642900  0.00000000  0.93552300  1
  H  H3  1  0.73357100  0.00000000  0.93552300  1
  H  H4  1  0.00000000  0.73357100  0.06447700  1
  H  H5  1  0.00000000  0.26642900  0.06447700  1
  H  H6  1  0.23357100  0.50000000  0.06447700  1
  H  H7  1  0.76642900  0.50000000  0.06447700  1
  Cl  Cl0  1  0.50000000  0.00000000  0.26044000  1
  Cl  Cl1  1  0.00000000  0.50000000  0.73956000  1
  O  O0  1  0.50000000  0.66098300  0.81228300  1
  O  O1  1  0.50000000  0.33901700  0.81228300  1
  O  O2  1  0.16098300  0.00000000  0.81228300  1
  O  O3  1  0.83901700  0.00000000  0.81228300  1
  O  O4  1  0.00000000  0.83901700  0.18771700  1
  O  O5  1  0.00000000  0.16098300  0.18771700  1
  O  O6  1  0.33901700  0.50000000  0.18771700  1
  O  O7  1  0.66098300  0.50000000  0.18771700  1
loop_
_geom_bond_atom_site_label_1
_geom_bond_atom_site_label_2
_geom_bond_distance
_geom_bond_site_symmetry_2
Na0 O6 2.476058 1_555
Na0 O2 2.476058 1_565
Na0 O0 2.476058 1_555
Na0 O4 2.476058 1_555
Na1 O5 2.476058 1_555
Na1 O6 2.476058 1_555
Na1 O2 2.476058 1_555
Na1 O1 2.476058 1_555
Na2 O7 2.476058 1_555
Na2 O0 2.476058 1_555
Na2 O3 2.476058 1_565
Na2 O4 2.476058 1_655
Na3 O7 2.476058 1_555
Na3 O5 2.476058 1_655
Na3 O3 2.476058 1_555
Na3 O1 2.476058 1_555
B0 O4 1.496945 1_545
B0 O5 1.496945 1_555
B0 O2 1.496945 1_554
B0 O3 1.496945 1_454
B1 O6 1.496945 1_555
B1 O7 1.496945 1_555
B1 O0 1.496945 1_554
B1 O1 1.496945 1_554
H0 O0 0.981354 1_555
H1 O1 0.981354 1_555
H2 O2 0.981354 1_555
H3 O3 0.981354 1_555
H4 O4 0.981354 1_555
H5 O5 0.981354 1_555
H6 O6 0.981354 1_555
H7 O7 0.981354 1_555
Cl0 Na1 2.856733 1_555
Cl0 Na3 2.856733 1_555
Cl0 Na2 2.856733 1_545
Cl0 Na0 2.856733 1_545
Cl1 Na1 2.856733 1_555
Cl1 Na3 2.856733 1_455
Cl1 Na2 2.856733 1_455
Cl1 Na0 2.856733 1_555
