# generated using pymatgen
data_CuHIO4
_symmetry_space_group_name_H-M   'P 1'
_cell_length_a   4.89771100
_cell_length_b   6.80434100
_cell_length_c   10.80679000
_cell_angle_alpha   90.00000000
_cell_angle_beta   90.00000000
_cell_angle_gamma   90.00000000
_symmetry_Int_Tables_number   1
_chemical_formula_structural   CuHIO4
_chemical_formula_sum   'Cu4 H4 I4 O16'
_cell_volume   360.14379572
_cell_formula_units_Z   4
loop_
 _symmetry_equiv_pos_site_id
 _symmetry_equiv_pos_as_xyz
  1  'x, y, z'
loop_
 _atom_site_type_symbol
 _atom_site_label
 _atom_site_symmetry_multiplicity
 _atom_site_fract_x
 _atom_site_fract_y
 _atom_site_fract_z
 _atom_site_occupancy
  Cu  Cu0  1  0.50000000  0.00000000  0.50000000  1
  Cu  Cu1  1  0.00000000  0.50000000  0.00000000  1
  Cu  Cu2  1  0.50000000  0.50000000  0.50000000  1
  Cu  Cu3  1  0.00000000  0.00000000  0.00000000  1
  H  H0  1  0.89474000  0.25000000  0.51646300  1
  H  H1  1  0.60526000  0.25000000  0.01646300  1
  H  H2  1  0.10526000  0.75000000  0.48353700  1
  H  H3  1  0.39474000  0.75000000  0.98353700  1
  I  I0  1  0.50685700  0.25000000  0.74532700  1
  I  I1  1  0.99314300  0.25000000  0.24532700  1
  I  I2  1  0.49314300  0.75000000  0.25467300  1
  I  I3  1  0.00685700  0.75000000  0.75467300  1
  O  O0  1  0.30514600  0.25000000  0.88745100  1
  O  O1  1  0.19485400  0.25000000  0.38745100  1
  O  O2  1  0.69485400  0.75000000  0.11254900  1
  O  O3  1  0.80514600  0.75000000  0.61254900  1
  O  O4  1  0.31740300  0.04796500  0.66170700  1
  O  O5  1  0.18259700  0.45203500  0.16170700  1
  O  O6  1  0.68259700  0.54796500  0.33829300  1
  O  O7  1  0.81740300  0.95203500  0.83829300  1
  O  O8  1  0.68259700  0.95203500  0.33829300  1
  O  O9  1  0.81740300  0.54796500  0.83829300  1
  O  O10  1  0.31740300  0.45203500  0.66170700  1
  O  O11  1  0.18259700  0.04796500  0.16170700  1
  O  O12  1  0.69527100  0.25000000  0.53460500  1
  O  O13  1  0.80472900  0.25000000  0.03460500  1
  O  O14  1  0.30472900  0.75000000  0.46539500  1
  O  O15  1  0.19527100  0.75000000  0.96539500  1
loop_
_geom_bond_atom_site_label_1
_geom_bond_atom_site_label_2
_geom_bond_distance
_geom_bond_site_symmetry_2
Cu0 O12 1.987010 1_555
Cu0 O14 1.987010 1_545
Cu0 O4 1.990019 1_555
Cu0 O8 1.990019 1_545
Cu0 O3 2.570339 1_545
Cu0 O1 2.570339 1_555
Cu1 O15 1.987010 1_554
Cu1 O13 1.987010 1_455
Cu1 O5 1.990019 1_555
Cu1 O9 1.990019 1_454
Cu1 O2 2.570339 1_455
Cu1 O0 2.570339 1_554
Cu2 O12 1.987010 1_555
Cu2 O14 1.987010 1_555
Cu2 O10 1.990019 1_555
Cu2 O6 1.990019 1_555
Cu2 O3 2.570339 1_555
Cu2 O1 2.570339 1_555
Cu3 O15 1.987010 1_544
Cu3 O13 1.987010 1_455
Cu3 O11 1.990019 1_555
Cu3 O7 1.990019 1_444
Cu3 O0 2.570339 1_554
Cu3 O2 2.570339 1_445
H0 O12 0.996420 1_555
H1 O13 0.996420 1_555
H2 O14 0.996420 1_555
H3 O15 0.996420 1_555
I0 O0 1.826196 1_555
I0 O10 1.888764 1_555
I0 O4 1.888764 1_555
I1 O1 1.826196 1_655
I1 O5 1.888764 1_655
I1 O11 1.888764 1_655
I2 O2 1.826196 1_555
I2 O8 1.888764 1_555
I2 O6 1.888764 1_555
I3 O3 1.826196 1_455
I3 O7 1.888764 1_455
I3 O9 1.888764 1_455
