# generated using pymatgen
data_Ca2SiO4
_symmetry_space_group_name_H-M   'P 1'
_cell_length_a   7.09132000
_cell_length_b   6.25131300
_cell_length_c   9.79329054
_cell_angle_alpha   56.62744428
_cell_angle_beta   90.00000000
_cell_angle_gamma   90.00000000
_symmetry_Int_Tables_number   1
_chemical_formula_structural   Ca2SiO4
_chemical_formula_sum   'Ca8 Si4 O16'
_cell_volume   362.55291547
_cell_formula_units_Z   4
loop_
 _symmetry_equiv_pos_site_id
 _symmetry_equiv_pos_as_xyz
  1  'x, y, z'
loop_
 _atom_site_type_symbol
 _atom_site_label
 _atom_site_symmetry_multiplicity
 _atom_site_fract_x
 _atom_site_fract_y
 _atom_site_fract_z
 _atom_site_occupancy
  Ca  Ca0  1  0.89234100  0.18197400  0.64813200  1
  Ca  Ca1  1  0.39234100  0.81802600  0.85186800  1
  Ca  Ca2  1  0.06461100  0.46346300  0.19501100  1
  Ca  Ca3  1  0.60765900  0.18197400  0.14813200  1
  Ca  Ca4  1  0.56461100  0.53653700  0.30498900  1
  Ca  Ca5  1  0.10765900  0.81802600  0.35186800  1
  Ca  Ca6  1  0.43538900  0.46346300  0.69501100  1
  Ca  Ca7  1  0.93538900  0.53653700  0.80498900  1
  Si  Si0  1  0.71233600  0.84145600  0.49823700  1
  Si  Si1  1  0.21233600  0.15854400  0.00176300  1
  Si  Si2  1  0.78766400  0.84145600  0.99823700  1
  Si  Si3  1  0.28766400  0.15854400  0.50176300  1
  O  O0  1  0.12469100  0.37602500  0.45873100  1
  O  O1  1  0.79074300  0.13687100  0.37336600  1
  O  O2  1  0.53443800  0.78408900  0.41354700  1
  O  O3  1  0.65662300  0.76750600  0.68365500  1
  O  O4  1  0.15662300  0.23249400  0.81634500  1
  O  O5  1  0.03443800  0.21591100  0.08645300  1
  O  O6  1  0.37530900  0.37602500  0.95873100  1
  O  O7  1  0.29074300  0.86312900  0.12663400  1
  O  O8  1  0.70925700  0.13687100  0.87336600  1
  O  O9  1  0.62469100  0.62397500  0.04126900  1
  O  O10  1  0.96556200  0.78408900  0.91354700  1
  O  O11  1  0.84337700  0.76750600  0.18365500  1
  O  O12  1  0.34337700  0.23249400  0.31634500  1
  O  O13  1  0.46556200  0.21591100  0.58645300  1
  O  O14  1  0.20925700  0.86312900  0.62663400  1
  O  O15  1  0.87530900  0.62397500  0.54126900  1
loop_
_geom_bond_atom_site_label_1
_geom_bond_atom_site_label_2
_geom_bond_distance
_geom_bond_site_symmetry_2
Ca0 O0 2.269671 1_655
Ca0 O15 2.358636 1_555
Ca0 O8 2.438515 1_555
Ca0 O10 2.469776 1_545
Ca0 O4 2.626440 1_655
Ca0 O3 2.938807 1_545
Ca0 O1 2.945166 1_555
Ca0 O13 3.070529 1_555
Ca0 O14 3.086979 1_645
Ca1 O9 2.269671 1_556
Ca1 O6 2.358636 1_555
Ca1 O14 2.438515 1_555
Ca1 O13 2.469776 1_565
Ca1 O3 2.626440 1_555
Ca1 O4 2.938807 1_565
Ca1 O7 2.945166 1_556
Ca1 O10 3.070529 1_455
Ca1 O8 3.086979 1_565
Ca2 O5 2.319678 1_555
Ca2 O12 2.348825 1_555
Ca2 O0 2.365895 1_555
Ca2 O11 2.419425 1_455
Ca2 O10 2.455713 1_454
Ca2 O1 2.658493 1_455
Ca2 O7 2.724231 1_555
Ca3 O6 2.269671 1_554
Ca3 O9 2.358636 1_555
Ca3 O1 2.438515 1_555
Ca3 O2 2.469776 1_545
Ca3 O12 2.626440 1_555
Ca3 O11 2.938807 1_545
Ca3 O8 2.945166 1_554
Ca3 O5 3.070529 1_655
Ca3 O7 3.086979 1_545
Ca4 O2 2.319678 1_555
Ca4 O11 2.348825 1_555
Ca4 O9 2.365895 1_555
Ca4 O12 2.419425 1_555
Ca4 O13 2.455713 1_555
Ca4 O7 2.658493 1_555
Ca4 O1 2.724231 1_555
Ca5 O15 2.269671 1_455
Ca5 O0 2.358636 1_555
Ca5 O7 2.438515 1_555
Ca5 O5 2.469776 1_565
Ca5 O11 2.626440 1_455
Ca5 O12 2.938807 1_565
Ca5 O14 2.945166 1_555
Ca5 O2 3.070529 1_555
Ca5 O1 3.086979 1_465
Ca6 O13 2.319678 1_555
Ca6 O4 2.348825 1_555
Ca6 O6 2.365895 1_555
Ca6 O3 2.419425 1_555
Ca6 O2 2.455713 1_555
Ca6 O8 2.658493 1_555
Ca6 O14 2.724231 1_555
Ca7 O10 2.319678 1_555
Ca7 O3 2.348825 1_555
Ca7 O15 2.365895 1_555
Ca7 O4 2.419425 1_655
Ca7 O5 2.455713 1_656
Ca7 O14 2.658493 1_655
Ca7 O8 2.724231 1_555
O0 Si3 1.652649 1_555
O1 Si0 1.652416 1_545
O2 Si0 1.653842 1_555
O3 Si0 1.656380 1_555
O4 Si1 1.656380 1_556
O5 Si1 1.653842 1_555
O6 Si1 1.652649 1_556
O7 Si1 1.652416 1_565
O8 Si2 1.652416 1_545
O9 Si2 1.652649 1_554
O10 Si2 1.653842 1_555
O11 Si2 1.656380 1_554
O12 Si3 1.656380 1_555
O13 Si3 1.653842 1_555
O14 Si3 1.652416 1_565
O15 Si0 1.652649 1_555
