# generated using pymatgen
data_K2Ti(GeO3)3
_symmetry_space_group_name_H-M   'P 1'
_cell_length_a   12.04218259
_cell_length_b   12.04218259
_cell_length_c   10.61238200
_cell_angle_alpha   89.96272229
_cell_angle_beta   89.96272229
_cell_angle_gamma   60.00591935
_symmetry_Int_Tables_number   1
_chemical_formula_structural   K2Ti(GeO3)3
_chemical_formula_sum   'K12 Ti6 Ge18 O54'
_cell_volume   1332.84516388
_cell_formula_units_Z   6
loop_
 _symmetry_equiv_pos_site_id
 _symmetry_equiv_pos_as_xyz
  1  'x, y, z'
loop_
 _atom_site_type_symbol
 _atom_site_label
 _atom_site_symmetry_multiplicity
 _atom_site_fract_x
 _atom_site_fract_y
 _atom_site_fract_z
 _atom_site_occupancy
  K  K0  1  0.00448800  0.64708900  0.75906400  1
  K  K1  1  0.64771500  0.34692500  0.75859900  1
  K  K2  1  0.35291100  0.99551200  0.24093600  1
  K  K3  1  0.64724600  0.00468600  0.25887100  1
  K  K4  1  0.65184500  0.99497300  0.74075100  1
  K  K5  1  0.34777600  0.00504300  0.75911500  1
  K  K6  1  0.99531400  0.35275400  0.74112900  1
  K  K7  1  0.65307600  0.35228500  0.24140100  1
  K  K8  1  0.34776800  0.64684300  0.25903000  1
  K  K9  1  0.00502700  0.34815500  0.25924900  1
  K  K10  1  0.35315700  0.65223200  0.74097000  1
  K  K11  1  0.99495700  0.65222400  0.24088500  1
  Ti  Ti0  1  0.66672800  0.66654100  0.75917600  1
  Ti  Ti1  1  0.99996600  0.00000200  0.24999800  1
  Ti  Ti2  1  0.33309900  0.33347400  0.74080700  1
  Ti  Ti3  1  0.33345900  0.33327200  0.24082400  1
  Ti  Ti4  1  0.99999800  0.00003400  0.75000200  1
  Ti  Ti5  1  0.66652600  0.66690100  0.25919300  1
  Ge  Ge0  1  0.99999000  0.17705700  0.50026000  1
  Ge  Ge1  1  0.54653600  0.28341300  0.48569200  1
  Ge  Ge2  1  0.16977400  0.54665900  0.48625300  1
  Ge  Ge3  1  0.17005400  0.28342200  0.98573400  1
  Ge  Ge4  1  0.83017300  0.45341300  0.01405500  1
  Ge  Ge5  1  0.82976200  0.71666100  0.51400100  1
  Ge  Ge6  1  0.45334100  0.83022600  0.51374700  1
  Ge  Ge7  1  0.28333700  0.54666000  0.98556200  1
  Ge  Ge8  1  0.99983900  0.82302300  0.99962800  1
  Ge  Ge9  1  0.54658700  0.16982700  0.98594500  1
  Ge  Ge10  1  0.82299800  0.17700200  0.00000000  1
  Ge  Ge11  1  0.17697700  0.00016100  0.00037200  1
  Ge  Ge12  1  0.82294300  0.00001000  0.49974000  1
  Ge  Ge13  1  0.28333900  0.17023800  0.48599900  1
  Ge  Ge14  1  0.71658700  0.45346400  0.51430800  1
  Ge  Ge15  1  0.71657800  0.82994600  0.01426600  1
  Ge  Ge16  1  0.17687400  0.82312600  0.50000000  1
  Ge  Ge17  1  0.45334000  0.71666300  0.01443800  1
  O  O0  1  0.06715100  0.84796100  0.13648000  1
  O  O1  1  0.23512100  0.48865300  0.63382100  1
  O  O2  1  0.19295700  0.35671100  0.85423500  1
  O  O3  1  0.35673800  0.19316500  0.35417500  1
  O  O4  1  0.54948800  0.64322400  0.14631500  1
  O  O5  1  0.15200500  0.91512400  0.36355600  1
  O  O6  1  0.45043400  0.35689600  0.35348300  1
  O  O7  1  0.35677600  0.45051200  0.85368500  1
  O  O8  1  0.08487600  0.84799500  0.63644400  1
  O  O9  1  0.87542200  0.79356600  0.05766100  1
  O  O10  1  0.45037200  0.19292700  0.85370800  1
  O  O11  1  0.72432400  0.76430500  0.86553700  1
  O  O12  1  0.33093400  0.87542600  0.05791900  1
  O  O13  1  0.48839700  0.23530000  0.13385100  1
  O  O14  1  0.99996000  0.61900000  0.49970400  1
  O  O15  1  0.38100000  0.00004000  0.50029600  1
  O  O16  1  0.80707300  0.54962800  0.14629200  1
  O  O17  1  0.20632600  0.66900400  0.44234300  1
  O  O18  1  0.79357700  0.87540200  0.55777500  1
  O  O19  1  0.93273800  0.91515700  0.86373100  1
  O  O20  1  0.93262400  0.15223500  0.36348200  1
  O  O21  1  0.66892300  0.20638300  0.94231600  1
  O  O22  1  0.99988600  0.38098300  0.00037000  1
  O  O23  1  0.84776500  0.06737600  0.63651800  1
  O  O24  1  0.27582500  0.48828200  0.13376000  1
  O  O25  1  0.54949200  0.80698600  0.64631900  1
  O  O26  1  0.33099600  0.79367400  0.55765700  1
  O  O27  1  0.15203900  0.93284900  0.86352000  1
  O  O28  1  0.12459800  0.20642300  0.44222500  1
  O  O29  1  0.08484300  0.06726200  0.13626900  1
  O  O30  1  0.80683500  0.64326200  0.64582500  1
  O  O31  1  0.61901700  0.00011400  0.99963000  1
  O  O32  1  0.12457400  0.66906600  0.94208100  1
  O  O33  1  0.27546900  0.23571400  0.63417100  1
  O  O34  1  0.76470000  0.51160300  0.86614900  1
  O  O35  1  0.72399900  0.51183500  0.36641300  1
  O  O36  1  0.64310400  0.54956600  0.64651700  1
  O  O37  1  0.64328900  0.80704300  0.14576500  1
  O  O38  1  0.51134700  0.76487900  0.36617900  1
  O  O39  1  0.79361700  0.33107700  0.05768400  1
  O  O40  1  0.61937800  0.38062200  0.50000000  1
  O  O41  1  0.51171800  0.72417500  0.86624000  1
  O  O42  1  0.20643400  0.12457800  0.94233900  1
  O  O43  1  0.23569500  0.27567600  0.13446300  1
  O  O44  1  0.66898100  0.12456800  0.44203500  1
  O  O45  1  0.06703600  0.08499200  0.63620000  1
  O  O46  1  0.87543200  0.33101900  0.55796500  1
  O  O47  1  0.91485200  0.15222600  0.86359100  1
  O  O48  1  0.19301400  0.45050800  0.35368100  1
  O  O49  1  0.91500800  0.93296400  0.36380000  1
  O  O50  1  0.48816500  0.27600100  0.63358700  1
  O  O51  1  0.84777400  0.08514800  0.13640900  1
  O  O52  1  0.38055500  0.61944500  0.00000000  1
  O  O53  1  0.76428600  0.72453100  0.36582900  1
loop_
_geom_bond_atom_site_label_1
_geom_bond_atom_site_label_2
_geom_bond_distance
_geom_bond_site_symmetry_2
K0 O32 2.514066 1_555
K0 O30 2.687933 1_455
K0 O14 2.777245 1_455
K0 O1 2.796568 1_555
K0 O19 3.100945 1_455
K0 O11 3.144417 1_455
K0 O2 3.234525 1_555
K0 O8 3.289315 1_555
K1 O21 2.508981 1_555
K1 O36 2.689516 1_555
K1 O40 2.770180 1_555
K1 O50 2.797587 1_555
K1 O47 3.089886 1_555
K1 O34 3.165143 1_555
K1 O7 3.236750 1_555
K1 O23 3.272279 1_555
K2 O12 2.514066 1_555
K2 O3 2.687933 1_565
K2 O15 2.777245 1_565
K2 O38 2.796568 1_555
K2 O29 3.100945 1_565
K2 O43 3.144417 1_565
K2 O37 3.234525 1_555
K2 O5 3.289315 1_555
K3 O44 2.512586 1_555
K3 O37 2.687915 1_545
K3 O31 2.776261 1_554
K3 O13 2.796226 1_555
K3 O49 3.098702 1_545
K3 O53 3.146362 1_545
K3 O3 3.236128 1_555
K3 O51 3.285227 1_555
K4 O18 2.509816 1_555
K4 O10 2.687612 1_565
K4 O31 2.771684 1_565
K4 O11 2.793580 1_555
K4 O23 3.098731 1_565
K4 O50 3.155924 1_565
K4 O25 3.231477 1_555
K4 O19 3.289741 1_555
K5 O42 2.509911 1_555
K5 O25 2.688736 1_545
K5 O15 2.771763 1_555
K5 O33 2.794788 1_555
K5 O27 3.095731 1_545
K5 O41 3.154594 1_545
K5 O10 3.233045 1_555
K5 O45 3.287486 1_555
K6 O46 2.512586 1_555
K6 O2 2.687915 1_655
K6 O22 2.776261 1_556
K6 O34 2.796226 1_555
K6 O45 3.098702 1_655
K6 O33 3.146362 1_655
K6 O30 3.236128 1_555
K6 O47 3.285227 1_555
K7 O39 2.508973 1_555
K7 O6 2.689527 1_555
K7 O40 2.770181 1_555
K7 O35 2.797580 1_555
K7 O51 3.089883 1_555
K7 O13 3.165153 1_555
K7 O4 3.236749 1_555
K7 O20 3.272271 1_555
K8 O17 2.509737 1_555
K8 O4 2.687739 1_555
K8 O52 2.773240 1_555
K8 O24 2.796877 1_555
K8 O5 3.100287 1_555
K8 O38 3.161993 1_555
K8 O6 3.225766 1_555
K8 O0 3.285604 1_555
K9 O28 2.509816 1_555
K9 O16 2.687612 1_455
K9 O22 2.771684 1_455
K9 O43 2.793580 1_555
K9 O20 3.098731 1_455
K9 O35 3.155924 1_455
K9 O48 3.231477 1_555
K9 O29 3.289741 1_555
K10 O26 2.509737 1_555
K10 O7 2.687739 1_555
K10 O52 2.773240 1_556
K10 O41 2.796877 1_555
K10 O8 3.100287 1_555
K10 O1 3.161993 1_555
K10 O36 3.225766 1_555
K10 O27 3.285604 1_555
K11 O9 2.509911 1_555
K11 O48 2.688736 1_655
K11 O14 2.771763 1_555
K11 O53 2.794788 1_555
K11 O0 3.095731 1_655
K11 O24 3.154594 1_655
K11 O16 3.233045 1_555
K11 O49 3.287486 1_555
Ge0 O45 1.751203 1_655
Ge0 O20 1.760386 1_555
Ge0 O46 1.811668 1_555
Ge0 O28 1.812482 1_655
Ge1 O50 1.739699 1_555
Ge1 O6 1.751428 1_555
Ge1 O40 1.786021 1_555
Ge1 O44 1.796678 1_555
Ge2 O1 1.735015 1_555
Ge2 O48 1.753849 1_555
Ge2 O14 1.783167 1_455
Ge2 O17 1.796866 1_555
Ge3 O2 1.744624 1_555
Ge3 O43 1.747138 1_556
Ge3 O22 1.787834 1_456
Ge3 O42 1.796095 1_555
Ge4 O34 1.739025 1_554
Ge4 O16 1.751735 1_555
Ge4 O22 1.782179 1_555
Ge4 O39 1.796027 1_555
Ge5 O53 1.740691 1_555
Ge5 O30 1.748274 1_555
Ge5 O14 1.787924 1_555
Ge5 O18 1.796642 1_555
Ge6 O38 1.735015 1_555
Ge6 O25 1.753849 1_555
Ge6 O15 1.783167 1_565
Ge6 O26 1.796866 1_555
Ge7 O24 1.742940 1_556
Ge7 O7 1.748741 1_555
Ge7 O52 1.785675 1_556
Ge7 O32 1.795415 1_555
Ge8 O19 1.751257 1_555
Ge8 O0 1.761238 1_656
Ge8 O9 1.811015 1_556
Ge8 O32 1.811741 1_655
Ge9 O13 1.739025 1_556
Ge9 O10 1.751735 1_555
Ge9 O31 1.782179 1_555
Ge9 O21 1.796027 1_555
Ge10 O47 1.754041 1_554
Ge10 O51 1.754041 1_555
Ge10 O39 1.813088 1_555
Ge10 O21 1.813088 1_554
Ge11 O29 1.751257 1_555
Ge11 O27 1.761238 1_544
Ge11 O42 1.811015 1_554
Ge11 O12 1.811741 1_545
Ge12 O49 1.751203 1_545
Ge12 O23 1.760386 1_555
Ge12 O44 1.811668 1_555
Ge12 O18 1.812482 1_545
Ge13 O33 1.740691 1_555
Ge13 O3 1.748274 1_555
Ge13 O15 1.787924 1_555
Ge13 O28 1.796642 1_555
Ge14 O35 1.739699 1_555
Ge14 O36 1.751428 1_555
Ge14 O40 1.786021 1_555
Ge14 O46 1.796678 1_555
Ge15 O37 1.744624 1_555
Ge15 O11 1.747138 1_554
Ge15 O31 1.787834 1_564
Ge15 O9 1.796095 1_555
Ge16 O8 1.755131 1_555
Ge16 O5 1.755131 1_555
Ge16 O26 1.813244 1_555
Ge16 O17 1.813244 1_555
Ge17 O41 1.742940 1_554
Ge17 O4 1.748741 1_555
Ge17 O52 1.785675 1_555
Ge17 O12 1.795415 1_555
O0 Ti1 1.994653 1_465
O1 Ti2 1.991921 1_555
O2 Ti2 1.975091 1_555
O3 Ti3 1.974119 1_555
O4 Ti5 1.976633 1_555
O5 Ti1 1.994842 1_465
O6 Ti3 1.974308 1_555
O7 Ti2 1.976633 1_555
O8 Ti4 1.994842 1_465
O10 Ti2 1.975925 1_555
O11 Ti0 1.990046 1_555
O13 Ti3 1.989973 1_555
O16 Ti5 1.975925 1_555
O19 Ti4 1.995559 1_565
O20 Ti1 1.995989 1_555
O23 Ti4 1.995989 1_555
O24 Ti3 1.989982 1_555
O25 Ti0 1.974901 1_555
O27 Ti4 1.994653 1_465
O29 Ti1 1.995559 1_455
O30 Ti0 1.974119 1_555
O33 Ti2 1.991931 1_555
O34 Ti0 1.989973 1_555
O35 Ti5 1.991675 1_555
O36 Ti0 1.974308 1_555
O37 Ti5 1.975091 1_555
O38 Ti5 1.991921 1_555
O41 Ti0 1.989982 1_555
O43 Ti3 1.990046 1_555
O45 Ti4 1.994957 1_455
O47 Ti4 1.996433 1_555
O48 Ti3 1.974901 1_555
O49 Ti1 1.994957 1_565
O50 Ti2 1.991675 1_555
O51 Ti1 1.996433 1_555
O53 Ti5 1.991931 1_555
