# generated using pymatgen
data_H5NO2
_symmetry_space_group_name_H-M   'P 1'
_cell_length_a   8.49819800
_cell_length_b   5.94079300
_cell_length_c   6.44455494
_cell_angle_alpha   65.77957333
_cell_angle_beta   90.00000000
_cell_angle_gamma   90.00000000
_symmetry_Int_Tables_number   1
_chemical_formula_structural   H5NO2
_chemical_formula_sum   'H20 N4 O8'
_cell_volume   296.71985810
_cell_formula_units_Z   4
loop_
 _symmetry_equiv_pos_site_id
 _symmetry_equiv_pos_as_xyz
  1  'x, y, z'
loop_
 _atom_site_type_symbol
 _atom_site_label
 _atom_site_symmetry_multiplicity
 _atom_site_fract_x
 _atom_site_fract_y
 _atom_site_fract_z
 _atom_site_occupancy
  H  H0  1  0.24438600  0.40585500  0.46092300  1
  H  H1  1  0.07833100  0.32285500  0.57650500  1
  H  H2  1  0.74438600  0.09414500  0.53907700  1
  H  H3  1  0.57833100  0.17714500  0.42349500  1
  H  H4  1  0.75561400  0.59414500  0.53907700  1
  H  H5  1  0.92166900  0.67714500  0.42349500  1
  H  H6  1  0.25561400  0.90585500  0.46092300  1
  H  H7  1  0.42166900  0.82285500  0.57650500  1
  H  H8  1  0.19230900  0.49043200  0.81054400  1
  H  H9  1  0.26636100  0.52738600  0.02165300  1
  H  H10  1  0.01437900  0.79065000  0.84456700  1
  H  H11  1  0.76636100  0.97261400  0.97834700  1
  H  H12  1  0.69230900  0.00956800  0.18945600  1
  H  H13  1  0.51437900  0.70935000  0.15543300  1
  H  H14  1  0.98562100  0.20935000  0.15543300  1
  H  H15  1  0.80769100  0.50956800  0.18945600  1
  H  H16  1  0.73363900  0.47261400  0.97834700  1
  H  H17  1  0.48562100  0.29065000  0.84456700  1
  H  H18  1  0.30769100  0.99043200  0.81054400  1
  H  H19  1  0.23363900  0.02738600  0.02165300  1
  N  N0  1  0.56462500  0.44006800  0.77896500  1
  N  N1  1  0.06462500  0.05993200  0.22103500  1
  N  N2  1  0.43537500  0.55993200  0.22103500  1
  N  N3  1  0.93537500  0.94006800  0.77896500  1
  O  O0  1  0.16426400  0.44089100  0.55288200  1
  O  O1  1  0.66426400  0.05910900  0.44711800  1
  O  O2  1  0.83573600  0.55910900  0.44711800  1
  O  O3  1  0.33573600  0.94089100  0.55288200  1
  O  O4  1  0.16674100  0.51786000  0.94804300  1
  O  O5  1  0.66674100  0.98214000  0.05195700  1
  O  O6  1  0.83325900  0.48214000  0.05195700  1
  O  O7  1  0.33325900  0.01786000  0.94804300  1
loop_
_geom_bond_atom_site_label_1
_geom_bond_atom_site_label_2
_geom_bond_distance
_geom_bond_site_symmetry_2
H0 O0 0.979471 1_555
H1 O0 0.980106 1_555
H2 O1 0.979471 1_555
H3 O1 0.980106 1_555
H4 O2 0.979471 1_555
H5 O2 0.980106 1_555
H6 O3 0.979471 1_555
H7 O3 0.980106 1_555
H8 O4 0.988656 1_555
H9 O4 0.983354 1_554
H10 N3 1.053343 1_455
H11 O5 0.983354 1_556
H12 O5 0.988656 1_545
H13 N2 1.053343 1_555
H14 N1 1.053343 1_655
H15 O6 0.988656 1_555
H16 O6 0.983354 1_556
H17 N0 1.053343 1_555
H18 O7 0.988656 1_565
H19 O7 0.983354 1_554
