# generated using pymatgen
data_Al5HO8
_symmetry_space_group_name_H-M   'P 1'
_cell_length_a   5.75024590
_cell_length_b   5.75024590
_cell_length_c   8.72165200
_cell_angle_alpha   90.00000000
_cell_angle_beta   90.00000000
_cell_angle_gamma   119.99999886
_symmetry_Int_Tables_number   1
_chemical_formula_structural   Al5HO8
_chemical_formula_sum   'Al10 H2 O16'
_cell_volume   249.74811836
_cell_formula_units_Z   2
loop_
 _symmetry_equiv_pos_site_id
 _symmetry_equiv_pos_as_xyz
  1  'x, y, z'
loop_
 _atom_site_type_symbol
 _atom_site_label
 _atom_site_symmetry_multiplicity
 _atom_site_fract_x
 _atom_site_fract_y
 _atom_site_fract_z
 _atom_site_occupancy
  Al  Al0  1  0.82606900  0.17393100  0.87750900  1
  Al  Al1  1  0.82606900  0.65213700  0.87750900  1
  Al  Al2  1  0.34786300  0.17393100  0.87750900  1
  Al  Al3  1  0.17393100  0.82606900  0.37750900  1
  Al  Al4  1  0.17393100  0.34786300  0.37750900  1
  Al  Al5  1  0.65213700  0.82606900  0.37750900  1
  Al  Al6  1  0.33333300  0.66666700  0.67303700  1
  Al  Al7  1  0.66666700  0.33333300  0.17303700  1
  Al  Al8  1  0.66666700  0.33333300  0.54184200  1
  Al  Al9  1  0.33333300  0.66666700  0.04184200  1
  H  H0  1  0.00000000  0.00000000  0.86295900  1
  H  H1  1  0.00000000  0.00000000  0.36295900  1
  O  O0  1  0.00000000  0.00000000  0.48022600  1
  O  O1  1  0.00000000  0.00000000  0.98022600  1
  O  O2  1  0.48269500  0.51730500  0.51337800  1
  O  O3  1  0.48269500  0.96539100  0.51337800  1
  O  O4  1  0.03460900  0.51730500  0.51337800  1
  O  O5  1  0.51730500  0.48269500  0.01337800  1
  O  O6  1  0.51730500  0.03460900  0.01337800  1
  O  O7  1  0.96539100  0.48269500  0.01337800  1
  O  O8  1  0.17115600  0.82884400  0.78128600  1
  O  O9  1  0.17115600  0.34231100  0.78128600  1
  O  O10  1  0.65768900  0.82884400  0.78128600  1
  O  O11  1  0.82884400  0.17115600  0.28128600  1
  O  O12  1  0.82884400  0.65768900  0.28128600  1
  O  O13  1  0.34231100  0.17115600  0.28128600  1
  O  O14  1  0.66666700  0.33333300  0.75871700  1
  O  O15  1  0.33333300  0.66666700  0.25871700  1
loop_
_geom_bond_atom_site_label_1
_geom_bond_atom_site_label_2
_geom_bond_distance
_geom_bond_site_symmetry_2
Al0 H0 1.736946 1_655
Al0 O14 1.895757 1_555
Al0 O10 1.912605 1_545
Al0 O9 1.912605 1_655
Al0 O6 1.943180 1_556
Al0 O7 1.943180 1_556
Al0 O1 1.950242 1_655
Al1 H0 1.736951 1_665
Al1 O14 1.895757 1_555
Al1 O10 1.912605 1_555
Al1 O8 1.912605 1_655
Al1 O7 1.943180 1_556
Al1 O5 1.943180 1_556
Al1 O1 1.950247 1_665
Al2 H0 1.736951 1_555
Al2 O14 1.895757 1_555
Al2 O9 1.912605 1_555
Al2 O8 1.912605 1_545
Al2 O6 1.943180 1_556
Al2 O5 1.943180 1_556
Al2 O1 1.950247 1_555
Al3 H1 1.736946 1_565
Al3 O15 1.895757 1_555
Al3 O12 1.912605 1_455
Al3 O13 1.912605 1_565
Al3 O4 1.943180 1_555
Al3 O3 1.943180 1_555
Al3 O0 1.950242 1_565
Al4 H1 1.736951 1_555
Al4 O15 1.895757 1_555
Al4 O13 1.912605 1_555
Al4 O11 1.912605 1_455
Al4 O4 1.943180 1_555
Al4 O2 1.943180 1_555
Al4 O0 1.950247 1_555
Al5 H1 1.736951 1_665
Al5 O15 1.895757 1_555
Al5 O12 1.912605 1_555
Al5 O11 1.912605 1_565
Al5 O3 1.943180 1_555
Al5 O2 1.943180 1_555
Al5 O0 1.950247 1_665
Al6 O8 1.870918 1_555
Al6 O10 1.870927 1_555
Al6 O9 1.870927 1_555
Al6 O2 2.037644 1_555
Al6 O3 2.037644 1_555
Al6 O4 2.037644 1_555
Al7 O11 1.870918 1_555
Al7 O12 1.870927 1_555
Al7 O13 1.870927 1_555
Al7 O5 2.037644 1_555
Al7 O7 2.037644 1_555
Al7 O6 2.037644 1_555
Al8 O3 1.849040 1_545
Al8 O4 1.849040 1_655
Al8 O2 1.849050 1_555
Al8 O14 1.891508 1_555
Al9 O7 1.849040 1_455
Al9 O6 1.849040 1_565
Al9 O5 1.849050 1_555
Al9 O15 1.891508 1_555
H0 O1 1.022762 1_555
H1 O0 1.022762 1_555
