# generated using pymatgen
data_SrCrBi12(Mo2O17)2
_symmetry_space_group_name_H-M   'P 1'
_cell_length_a   5.87921900
_cell_length_b   11.87990000
_cell_length_c   25.24782400
_cell_angle_alpha   78.17054482
_cell_angle_beta   90.00000000
_cell_angle_gamma   90.00000000
_symmetry_Int_Tables_number   1
_chemical_formula_structural   SrCrBi12(Mo2O17)2
_chemical_formula_sum   'Sr2 Cr2 Bi24 Mo8 O68'
_cell_volume   1725.97115923
_cell_formula_units_Z   2
loop_
 _symmetry_equiv_pos_site_id
 _symmetry_equiv_pos_as_xyz
  1  'x, y, z'
loop_
 _atom_site_type_symbol
 _atom_site_label
 _atom_site_symmetry_multiplicity
 _atom_site_fract_x
 _atom_site_fract_y
 _atom_site_fract_z
 _atom_site_occupancy
  Sr  Sr0  1  0.50000000  0.00000000  0.50000000  1
  Sr  Sr1  1  0.50000000  0.00000000  0.00000000  1
  Cr  Cr0  1  0.01641300  0.00000000  0.75000000  1
  Cr  Cr1  1  0.98358700  0.00000000  0.25000000  1
  Bi  Bi0  1  0.50535600  0.76944100  0.84074000  1
  Bi  Bi1  1  0.98739800  0.41683300  0.09266500  1
  Bi  Bi2  1  0.91613000  0.65904300  0.75457200  1
  Bi  Bi3  1  0.49365100  0.13824600  0.32126200  1
  Bi  Bi4  1  0.41843200  0.45953100  0.82558900  1
  Bi  Bi5  1  0.01755700  0.74142700  0.60044100  1
  Bi  Bi6  1  0.98244300  0.74142700  0.10044100  1
  Bi  Bi7  1  0.98244300  0.25857300  0.39955900  1
  Bi  Bi8  1  0.08387000  0.34095700  0.24542800  1
  Bi  Bi9  1  0.41843200  0.54046900  0.67441100  1
  Bi  Bi10  1  0.49464400  0.76944100  0.34074000  1
  Bi  Bi11  1  0.98739800  0.58316700  0.40733500  1
  Bi  Bi12  1  0.58156800  0.45953100  0.32558900  1
  Bi  Bi13  1  0.49464400  0.23055900  0.15926000  1
  Bi  Bi14  1  0.08387000  0.65904300  0.25457200  1
  Bi  Bi15  1  0.01755700  0.25857300  0.89955900  1
  Bi  Bi16  1  0.58156800  0.54046900  0.17441100  1
  Bi  Bi17  1  0.91613000  0.34095700  0.74542800  1
  Bi  Bi18  1  0.50634900  0.86175400  0.67873800  1
  Bi  Bi19  1  0.49365100  0.86175400  0.17873800  1
  Bi  Bi20  1  0.01260200  0.41683300  0.59266500  1
  Bi  Bi21  1  0.50634900  0.13824600  0.82126200  1
  Bi  Bi22  1  0.50535600  0.23055900  0.65926000  1
  Bi  Bi23  1  0.01260200  0.58316700  0.90733500  1
  Mo  Mo0  1  0.99158400  0.92639400  0.42251000  1
  Mo  Mo1  1  0.00841600  0.92639400  0.92251000  1
  Mo  Mo2  1  0.50737700  0.66821200  0.51235300  1
  Mo  Mo3  1  0.50737700  0.33178800  0.98764700  1
  Mo  Mo4  1  0.49262300  0.66821200  0.01235300  1
  Mo  Mo5  1  0.99158400  0.07360600  0.07749000  1
  Mo  Mo6  1  0.49262300  0.33178800  0.48764700  1
  Mo  Mo7  1  0.00841600  0.07360600  0.57749000  1
  O  O0  1  0.40887000  0.24252100  0.24246600  1
  O  O1  1  0.81720700  0.11777500  0.24086100  1
  O  O2  1  0.85137000  0.00201000  0.69638300  1
  O  O3  1  0.78474500  0.96453700  0.10483400  1
  O  O4  1  0.41495900  0.79376800  0.53619300  1
  O  O5  1  0.26736300  0.00675600  0.07962700  1
  O  O6  1  0.72684400  0.27235300  0.33330800  1
  O  O7  1  0.76631100  0.50000000  0.25000000  1
  O  O8  1  0.92959600  0.56049700  0.13396100  1
  O  O9  1  0.89702400  0.87799100  0.49054700  1
  O  O10  1  0.10297600  0.12200900  0.50945300  1
  O  O11  1  0.24778200  0.63024500  0.34521900  1
  O  O12  1  0.25916300  0.36259200  0.65913900  1
  O  O13  1  0.44746200  0.69859700  0.93997400  1
  O  O14  1  0.24259800  0.61259200  0.05065000  1
  O  O15  1  0.07040400  0.43950300  0.86603900  1
  O  O16  1  0.81720700  0.88222500  0.25913900  1
  O  O17  1  0.89702400  0.12200900  0.00945300  1
  O  O18  1  0.58504100  0.20623200  0.46380700  1
  O  O19  1  0.78474500  0.03546300  0.39516600  1
  O  O20  1  0.75221800  0.63024500  0.84521900  1
  O  O21  1  0.26736300  0.99324400  0.42037300  1
  O  O22  1  0.10297600  0.87799100  0.99054700  1
  O  O23  1  0.85137000  0.99799000  0.80361700  1
  O  O24  1  0.59113000  0.24252100  0.74246600  1
  O  O25  1  0.72623800  0.50000000  0.75000000  1
  O  O26  1  0.28008200  0.56855800  0.52791200  1
  O  O27  1  0.27376200  0.50000000  0.25000000  1
  O  O28  1  0.40887000  0.75747900  0.25753400  1
  O  O29  1  0.23168100  0.73850700  0.16387400  1
  O  O30  1  0.18279300  0.11777500  0.74086100  1
  O  O31  1  0.14863000  0.00201000  0.19638300  1
  O  O32  1  0.74083700  0.63740800  0.34086100  1
  O  O33  1  0.21525500  0.96453700  0.60483400  1
  O  O34  1  0.75740200  0.61259200  0.55065000  1
  O  O35  1  0.23168100  0.26149300  0.33612600  1
  O  O36  1  0.21525500  0.03546300  0.89516600  1
  O  O37  1  0.41495900  0.20623200  0.96380700  1
  O  O38  1  0.23368900  0.50000000  0.75000000  1
  O  O39  1  0.99449100  0.80320700  0.89091000  1
  O  O40  1  0.73263700  0.00675600  0.57962700  1
  O  O41  1  0.25916300  0.63740800  0.84086100  1
  O  O42  1  0.59113000  0.75747900  0.75753400  1
  O  O43  1  0.99449100  0.19679300  0.60909000  1
  O  O44  1  0.75740200  0.38740800  0.94935000  1
  O  O45  1  0.75221800  0.36975500  0.65478100  1
  O  O46  1  0.24259800  0.38740800  0.44935000  1
  O  O47  1  0.55253800  0.30140300  0.06002600  1
  O  O48  1  0.24778200  0.36975500  0.15478100  1
  O  O49  1  0.76831900  0.73850700  0.66387400  1
  O  O50  1  0.76831900  0.26149300  0.83612600  1
  O  O51  1  0.00550900  0.80320700  0.39091000  1
  O  O52  1  0.07040400  0.56049700  0.63396100  1
  O  O53  1  0.73263700  0.99324400  0.92037300  1
  O  O54  1  0.14863000  0.99799000  0.30361700  1
  O  O55  1  0.28008200  0.43144200  0.97208800  1
  O  O56  1  0.27315600  0.72764700  0.66669200  1
  O  O57  1  0.72684400  0.72764700  0.16669200  1
  O  O58  1  0.00550900  0.19679300  0.10909000  1
  O  O59  1  0.74083700  0.36259200  0.15913900  1
  O  O60  1  0.58504100  0.79376800  0.03619300  1
  O  O61  1  0.18279300  0.88222500  0.75913900  1
  O  O62  1  0.27315600  0.27235300  0.83330800  1
  O  O63  1  0.92959600  0.43950300  0.36603900  1
  O  O64  1  0.55253800  0.69859700  0.43997400  1
  O  O65  1  0.71991800  0.56855800  0.02791200  1
  O  O66  1  0.44746200  0.30140300  0.56002600  1
  O  O67  1  0.71991800  0.43144200  0.47208800  1
loop_
_geom_bond_atom_site_label_1
_geom_bond_atom_site_label_2
_geom_bond_distance
_geom_bond_site_symmetry_2
Cr0 O23 1.661741 1_445
Cr0 O2 1.661741 1_455
Cr0 O61 1.683852 1_545
Cr0 O30 1.683852 1_555
Cr1 O31 1.661741 1_655
Cr1 O54 1.661741 1_645
Cr1 O16 1.683852 1_545
Cr1 O1 1.683852 1_555
Bi0 O41 2.133868 1_555
Bi0 O20 2.185648 1_555
Bi0 O42 2.193201 1_555
Bi0 O13 2.497375 1_555
Bi1 O48 2.180881 1_655
Bi1 O8 2.201142 1_555
Bi1 O59 2.211310 1_555
Bi1 O58 2.563617 1_655
Bi1 O65 2.680770 1_555
Bi1 O14 2.788073 1_655
Bi2 O25 2.217887 1_555
Bi2 O42 2.249426 1_555
Bi2 O20 2.441836 1_555
Bi2 O49 2.450269 1_555
Bi2 O38 2.675504 1_655
Bi3 O6 2.170022 1_555
Bi3 O0 2.174952 1_555
Bi3 O35 2.209535 1_555
Bi3 O19 2.639580 1_555
Bi3 O54 2.719145 1_545
Bi3 O1 2.828573 1_555
Bi4 O38 2.162608 1_555
Bi4 O15 2.277421 1_555
Bi4 O62 2.352541 1_555
Bi4 O41 2.413503 1_555
Bi4 O25 2.602312 1_555
Bi5 O52 2.164948 1_555
Bi5 O49 2.165768 1_455
Bi5 O56 2.229486 1_555
Bi6 O8 2.164948 1_555
Bi6 O29 2.165768 1_655
Bi6 O57 2.229486 1_555
Bi7 O63 2.164948 1_555
Bi7 O35 2.165768 1_655
Bi7 O6 2.229486 1_555
Bi8 O27 2.217887 1_555
Bi8 O0 2.249426 1_555
Bi8 O48 2.441836 1_555
Bi8 O35 2.450269 1_555
Bi8 O7 2.675504 1_455
Bi9 O38 2.162608 1_555
Bi9 O52 2.277421 1_555
Bi9 O56 2.352541 1_555
Bi9 O12 2.413503 1_555
Bi9 O25 2.602312 1_555
Bi10 O32 2.133868 1_555
Bi10 O11 2.185648 1_555
Bi10 O28 2.193201 1_555
Bi10 O64 2.497375 1_555
Bi11 O11 2.180881 1_655
Bi11 O63 2.201142 1_555
Bi11 O32 2.211310 1_555
Bi11 O51 2.563617 1_655
Bi11 O67 2.680770 1_555
Bi11 O46 2.788073 1_655
Bi12 O7 2.162608 1_555
Bi12 O63 2.277421 1_555
Bi12 O6 2.352541 1_555
Bi12 O32 2.413503 1_555
Bi12 O27 2.602312 1_555
Bi13 O59 2.133868 1_555
Bi13 O48 2.185648 1_555
Bi13 O0 2.193201 1_555
Bi13 O47 2.497375 1_555
Bi14 O27 2.217887 1_555
Bi14 O28 2.249426 1_555
Bi14 O11 2.441836 1_555
Bi14 O29 2.450269 1_555
Bi14 O7 2.675504 1_455
Bi15 O15 2.164948 1_555
Bi15 O50 2.165768 1_455
Bi15 O62 2.229486 1_555
Bi16 O7 2.162608 1_555
Bi16 O8 2.277421 1_555
Bi16 O57 2.352541 1_555
Bi16 O59 2.413503 1_555
Bi16 O27 2.602312 1_555
Bi17 O25 2.217887 1_555
Bi17 O24 2.249426 1_555
Bi17 O45 2.441836 1_555
Bi17 O50 2.450269 1_555
Bi17 O38 2.675504 1_655
Bi18 O56 2.170022 1_555
Bi18 O42 2.174952 1_555
Bi18 O49 2.209535 1_555
Bi18 O33 2.639580 1_555
Bi18 O2 2.719145 1_565
Bi18 O61 2.828573 1_555
Bi19 O57 2.170022 1_555
Bi19 O28 2.174952 1_555
Bi19 O29 2.209535 1_555
Bi19 O3 2.639580 1_555
Bi19 O31 2.719145 1_565
Bi19 O16 2.828573 1_555
Bi20 O45 2.180881 1_455
Bi20 O52 2.201142 1_555
Bi20 O12 2.211310 1_555
Bi20 O43 2.563617 1_455
Bi20 O26 2.680770 1_555
Bi20 O34 2.788073 1_455
Bi21 O62 2.170022 1_555
Bi21 O24 2.174952 1_555
Bi21 O50 2.209535 1_555
Bi21 O36 2.639580 1_555
Bi21 O23 2.719145 1_545
Bi21 O30 2.828573 1_555
Bi22 O12 2.133868 1_555
Bi22 O45 2.185648 1_555
Bi22 O24 2.193201 1_555
Bi22 O66 2.497375 1_555
Bi23 O20 2.180881 1_455
Bi23 O15 2.201142 1_555
Bi23 O41 2.211310 1_555
Bi23 O39 2.563617 1_455
Bi23 O55 2.680770 1_555
Bi23 O44 2.788073 1_455
Mo0 O9 1.784804 1_555
Mo0 O21 1.801354 1_655
Mo0 O51 1.806552 1_655
Mo0 O19 1.807638 1_565
Mo1 O22 1.784804 1_555
Mo1 O53 1.801354 1_455
Mo1 O39 1.806552 1_455
Mo1 O36 1.807638 1_565
Mo2 O26 1.775093 1_555
Mo2 O4 1.802904 1_555
Mo2 O64 1.808253 1_555
Mo2 O34 1.808408 1_555
Mo3 O55 1.775093 1_555
Mo3 O37 1.802904 1_555
Mo3 O47 1.808253 1_556
Mo3 O44 1.808408 1_555
Mo4 O65 1.775093 1_555
Mo4 O60 1.802904 1_555
Mo4 O13 1.808253 1_554
Mo4 O14 1.808408 1_555
Mo5 O17 1.784804 1_555
Mo5 O5 1.801354 1_655
Mo5 O58 1.806552 1_655
Mo5 O3 1.807638 1_545
Mo6 O67 1.775093 1_555
Mo6 O18 1.802904 1_555
Mo6 O66 1.808253 1_555
Mo6 O46 1.808408 1_555
Mo7 O10 1.784804 1_555
Mo7 O40 1.801354 1_455
Mo7 O43 1.806552 1_455
Mo7 O33 1.807638 1_545
O3 Sr1 3.086835 1_565
O4 Sr0 2.483880 1_565
O5 Sr1 2.446428 1_555
O9 Sr0 2.783552 1_565
O10 Sr0 2.783552 1_555
O17 Sr1 2.783552 1_555
O18 Sr0 2.483880 1_555
O19 Sr0 3.086835 1_555
O21 Sr0 2.446428 1_565
O22 Sr1 2.783552 1_566
O33 Sr0 3.086835 1_565
O36 Sr1 3.086835 1_556
O37 Sr1 2.483880 1_556
O40 Sr0 2.446428 1_555
O53 Sr1 2.446428 1_566
O60 Sr1 2.483880 1_565
