# generated using pymatgen
data_Ce2Zn2Cu5
_symmetry_space_group_name_H-M   'P 1'
_cell_length_a   12.98629154
_cell_length_b   12.98629154
_cell_length_c   12.98629147
_cell_angle_alpha   23.18664803
_cell_angle_beta   23.18664803
_cell_angle_gamma   23.18664571
_symmetry_Int_Tables_number   1
_chemical_formula_structural   Ce2Zn2Cu5
_chemical_formula_sum   'Ce4 Zn4 Cu10'
_cell_volume   298.03134869
_cell_formula_units_Z   2
loop_
 _symmetry_equiv_pos_site_id
 _symmetry_equiv_pos_as_xyz
  1  'x, y, z'
loop_
 _atom_site_type_symbol
 _atom_site_label
 _atom_site_symmetry_multiplicity
 _atom_site_fract_x
 _atom_site_fract_y
 _atom_site_fract_z
 _atom_site_occupancy
  Ce  Ce0  1  0.94425000  0.94425000  0.94425000  1
  Ce  Ce1  1  0.15205900  0.15205900  0.15205900  1
  Ce  Ce2  1  0.84794100  0.84794100  0.84794100  1
  Ce  Ce3  1  0.05575000  0.05575000  0.05575000  1
  Zn  Zn0  1  0.00000000  0.50000000  0.50000000  1
  Zn  Zn1  1  0.50000000  0.50000000  0.50000000  1
  Zn  Zn2  1  0.50000000  0.50000000  0.00000000  1
  Zn  Zn3  1  0.50000000  0.00000000  0.50000000  1
  Cu  Cu0  1  0.11087600  0.60863900  0.60863900  1
  Cu  Cu1  1  0.39136100  0.88912400  0.39136100  1
  Cu  Cu2  1  0.60863900  0.60863900  0.11087600  1
  Cu  Cu3  1  0.27701500  0.27701500  0.27701500  1
  Cu  Cu4  1  0.39136100  0.39136100  0.88912400  1
  Cu  Cu5  1  0.88912400  0.39136100  0.39136100  1
  Cu  Cu6  1  0.60863900  0.11087600  0.60863900  1
  Cu  Cu7  1  0.38881400  0.38881400  0.38881400  1
  Cu  Cu8  1  0.72298500  0.72298500  0.72298500  1
  Cu  Cu9  1  0.61118600  0.61118600  0.61118600  1
loop_
_geom_bond_atom_site_label_1
_geom_bond_atom_site_label_2
_geom_bond_distance
_geom_bond_site_symmetry_2
Ce0 Cu9 3.013525 1_655
Ce0 Cu9 3.013525 1_565
Ce0 Cu9 3.013525 1_556
Ce0 Cu3 3.013585 1_656
Ce0 Cu3 3.013585 1_566
Ce0 Cu3 3.013585 1_665
Ce0 Cu4 3.307878 1_565
Ce0 Cu4 3.307878 1_655
Ce0 Cu1 3.307878 1_655
Ce0 Cu5 3.307878 1_565
Ce0 Cu1 3.307878 1_556
Ce0 Cu5 3.307878 1_556
Ce0 Zn2 3.357721 1_656
Ce0 Zn2 3.357721 1_566
Ce0 Zn3 3.357722 1_566
Ce0 Zn0 3.357722 1_656
Ce0 Zn3 3.357722 1_665
Ce0 Zn0 3.357722 1_665
Ce1 Zn1 3.063929 1_545
Ce1 Zn1 3.063929 1_455
Ce1 Zn1 3.063929 1_554
Ce1 Cu2 3.070208 1_455
Ce1 Cu2 3.070208 1_545
Ce1 Cu0 3.070208 1_554
Ce1 Cu6 3.070208 1_554
Ce1 Cu6 3.070208 1_455
Ce1 Cu0 3.070208 1_545
Ce1 Cu1 3.116475 1_545
Ce1 Cu5 3.116475 1_455
Ce1 Cu4 3.116475 1_554
Ce2 Zn1 3.063929 1_565
Ce2 Zn1 3.063929 1_655
Ce2 Zn1 3.063929 1_556
Ce2 Cu4 3.070208 1_565
Ce2 Cu4 3.070208 1_655
Ce2 Cu1 3.070208 1_556
Ce2 Cu5 3.070208 1_556
Ce2 Cu1 3.070208 1_655
Ce2 Cu5 3.070208 1_565
Ce2 Cu0 3.116475 1_655
Ce2 Cu6 3.116475 1_565
Ce2 Cu2 3.116475 1_556
Ce3 Cu7 3.013525 1_455
Ce3 Cu7 3.013525 1_545
Ce3 Cu7 3.013525 1_554
Ce3 Cu8 3.013585 1_454
Ce3 Cu8 3.013585 1_544
Ce3 Cu8 3.013585 1_445
Ce3 Cu2 3.307878 1_545
Ce3 Cu2 3.307878 1_455
Ce3 Cu0 3.307878 1_545
Ce3 Cu6 3.307878 1_455
Ce3 Cu6 3.307878 1_554
Ce3 Cu0 3.307878 1_554
Ce3 Zn2 3.357721 1_545
Ce3 Zn2 3.357721 1_455
Ce3 Zn3 3.357722 1_554
Ce3 Zn0 3.357722 1_554
Ce3 Zn0 3.357722 1_545
Ce3 Zn3 3.357722 1_455
Zn0 Zn3 2.609774 1_555
Zn0 Zn3 2.609774 1_465
Zn0 Zn2 2.609774 1_555
Zn0 Zn2 2.609774 1_456
Zn2 Zn3 2.609774 1_555
Zn2 Zn3 2.609774 1_564
Cu0 Cu8 2.516877 1_455
Cu0 Cu7 2.534309 1_555
Cu0 Cu6 2.598098 1_555
Cu0 Cu2 2.598098 1_555
Cu0 Cu6 2.621450 1_465
Cu0 Cu2 2.621450 1_456
Cu0 Zn1 2.638577 1_555
Cu1 Cu3 2.516877 1_565
Cu1 Cu9 2.534309 1_555
Cu1 Cu5 2.598098 1_555
Cu1 Cu4 2.598098 1_555
Cu1 Cu5 2.621450 1_465
Cu1 Cu4 2.621450 1_564
Cu1 Zn1 2.638577 1_555
Cu2 Cu8 2.516877 1_554
Cu2 Cu7 2.534309 1_555
Cu2 Cu6 2.598098 1_555
Cu2 Cu6 2.621450 1_564
Cu2 Zn1 2.638577 1_555
Cu3 Cu5 2.516877 1_455
Cu3 Cu4 2.516877 1_554
Cu3 Zn3 2.612498 1_555
Cu3 Zn0 2.612498 1_555
Cu3 Zn2 2.612498 1_555
Cu4 Cu9 2.534309 1_555
Cu4 Cu5 2.598098 1_555
Cu4 Cu5 2.621450 1_456
Cu4 Zn1 2.638577 1_555
Cu5 Cu9 2.534309 1_555
Cu5 Zn1 2.638577 1_555
Cu6 Cu8 2.516877 1_545
Cu6 Cu7 2.534309 1_555
Cu6 Zn1 2.638577 1_555
Cu7 Zn3 2.586631 1_555
Cu7 Zn0 2.586631 1_555
Cu7 Zn2 2.586631 1_555
Cu8 Zn0 2.612498 1_655
Cu8 Zn3 2.612498 1_565
Cu8 Zn2 2.612498 1_556
Cu9 Zn3 2.586631 1_565
Cu9 Zn0 2.586631 1_655
Cu9 Zn2 2.586631 1_556
