# generated using pymatgen
data_U2Te3
_symmetry_space_group_name_H-M   'P 1'
_cell_length_a   4.39987780
_cell_length_b   12.03889492
_cell_length_c   12.22594531
_cell_angle_alpha   90.10884237
_cell_angle_beta   90.00367660
_cell_angle_gamma   90.01230055
_symmetry_Int_Tables_number   1
_chemical_formula_structural   U2Te3
_chemical_formula_sum   'U8 Te12'
_cell_volume   647.60306016
_cell_formula_units_Z   4
loop_
 _symmetry_equiv_pos_site_id
 _symmetry_equiv_pos_as_xyz
  1  'x, y, z'
loop_
 _atom_site_type_symbol
 _atom_site_label
 _atom_site_symmetry_multiplicity
 _atom_site_fract_x
 _atom_site_fract_y
 _atom_site_fract_z
 _atom_site_occupancy
  U  U0  1  0.25134931  0.31276861  0.01248229  1
  U  U1  1  0.25240108  0.50430848  0.69465064  1
  U  U2  1  0.25274506  0.18745062  0.51315096  1
  U  U3  1  0.74939321  0.00203928  0.80463549  1
  U  U4  1  0.24912768  0.99828465  0.19566139  1
  U  U5  1  0.74733776  0.81307026  0.48644166  1
  U  U6  1  0.74980740  0.49581647  0.30476212  1
  U  U7  1  0.75225005  0.68687238  0.98786641  1
  Te  Te0  1  0.25048258  0.55450007  0.12072872  1
  Te  Te1  1  0.24802992  0.94492413  0.62048216  1
  Te  Te2  1  0.75222592  0.70059538  0.72615896  1
  Te  Te3  1  0.24953178  0.62540797  0.45207295  1
  Te  Te4  1  0.24685766  0.19774292  0.77479586  1
  Te  Te5  1  0.25118971  0.87352287  0.95319990  1
  Te  Te6  1  0.74887038  0.80129519  0.22627131  1
  Te  Te7  1  0.75124868  0.05513205  0.37914497  1
  Te  Te8  1  0.75152739  0.37449441  0.54733419  1
  Te  Te9  1  0.74929270  0.12605141  0.04717629  1
  Te  Te10  1  0.74983190  0.44570844  0.87912277  1
  Te  Te11  1  0.24649984  0.30001541  0.27386094  1
loop_
_geom_bond_atom_site_label_1
_geom_bond_atom_site_label_2
_geom_bond_distance
_geom_bond_site_symmetry_2
Te0 U7 3.161429 1_454
Te0 U7 3.171904 1_554
Te0 U0 3.194677 1_555
Te0 U6 3.224017 1_555
Te0 U6 3.228058 1_455
Te1 U5 3.166030 1_555
Te1 U5 3.169641 1_455
Te1 U2 3.203412 1_565
Te1 U3 3.217234 1_465
Te1 U3 3.225028 1_565
Te2 U7 3.204197 1_555
Te2 U5 3.230863 1_555
Te2 U1 3.250088 1_555
Te2 U1 3.251851 1_655
Te2 U3 3.752000 1_565
Te3 U5 3.173682 1_555
Te3 U5 3.187744 1_455
Te3 U6 3.240282 1_455
Te3 U6 3.242539 1_555
Te3 U1 3.307219 1_555
Te4 U2 3.201127 1_555
Te4 U0 3.216706 1_556
Te4 U3 3.236667 1_455
Te4 U3 3.252450 1_555
Te4 U1 3.820439 1_555
Te5 U7 3.170139 1_455
Te5 U7 3.177238 1_555
Te5 U3 3.241551 1_565
Te5 U3 3.252554 1_465
Te5 U4 3.320596 1_556
Te6 U5 3.183724 1_555
Te6 U7 3.221518 1_554
Te6 U4 3.256453 1_555
Te6 U4 3.257327 1_655
Te6 U6 3.802531 1_555
Te7 U2 3.166164 1_555
Te7 U2 3.174680 1_655
Te7 U5 3.198115 1_545
Te7 U4 3.208550 1_645
Te7 U4 3.220924 1_545
Te8 U2 3.171062 1_555
Te8 U2 3.179194 1_655
Te8 U1 3.240435 1_555
Te8 U1 3.245039 1_655
Te8 U6 3.308328 1_555
Te9 U0 3.168351 1_555
Te9 U0 3.180262 1_655
Te9 U4 3.241855 1_645
Te9 U4 3.242551 1_545
Te9 U3 3.317391 1_554
Te10 U0 3.168447 1_556
Te10 U0 3.178036 1_656
Te10 U7 3.190989 1_555
Te10 U1 3.221876 1_555
Te10 U1 3.237267 1_655
Te11 U0 3.199651 1_555
Te11 U2 3.226623 1_555
Te11 U6 3.236372 1_455
Te11 U6 3.255380 1_555
Te11 U4 3.754478 1_545
