# generated using pymatgen
data_Cs(Bi2Te3)2
_symmetry_space_group_name_H-M   'P 1'
_cell_length_a   4.45979200
_cell_length_b   14.63098208
_cell_length_c   26.39758584
_cell_angle_alpha   101.11008998
_cell_angle_beta   94.80569790
_cell_angle_gamma   90.07050473
_symmetry_Int_Tables_number   1
_chemical_formula_structural   Cs(Bi2Te3)2
_chemical_formula_sum   'Cs4 Bi16 Te24'
_cell_volume   1683.98349031
_cell_formula_units_Z   4
loop_
 _symmetry_equiv_pos_site_id
 _symmetry_equiv_pos_as_xyz
  1  'x, y, z'
loop_
 _atom_site_type_symbol
 _atom_site_label
 _atom_site_symmetry_multiplicity
 _atom_site_fract_x
 _atom_site_fract_y
 _atom_site_fract_z
 _atom_site_occupancy
  Cs  Cs0  1  0.68873800  0.51593000  0.37495400  1
  Cs  Cs1  1  0.06295600  0.51024100  0.10961600  1
  Cs  Cs2  1  0.94635700  0.49180800  0.89281200  1
  Cs  Cs3  1  0.32020300  0.48294300  0.62566400  1
  Bi  Bi0  1  0.15887600  0.09182200  0.32687700  1
  Bi  Bi1  1  0.70643100  0.91173300  0.42582300  1
  Bi  Bi2  1  0.40993000  0.06159300  0.82244700  1
  Bi  Bi3  1  0.96160100  0.86197300  0.92002400  1
  Bi  Bi4  1  0.86689800  0.25009900  0.72745200  1
  Bi  Bi5  1  0.59569900  0.93656500  0.17808000  1
  Bi  Bi6  1  0.01764300  0.78887100  0.02985300  1
  Bi  Bi7  1  0.83671400  0.90762000  0.67458700  1
  Bi  Bi8  1  0.13170900  0.74956600  0.27258800  1
  Bi  Bi9  1  0.26462000  0.73998900  0.52932100  1
  Bi  Bi10  1  0.04594100  0.13676000  0.08016700  1
  Bi  Bi11  1  0.99187100  0.20962000  0.97048100  1
  Bi  Bi12  1  0.73646000  0.25967700  0.47107200  1
  Bi  Bi13  1  0.61921000  0.27664700  0.22974400  1
  Bi  Bi14  1  0.38447300  0.72122700  0.77009000  1
  Bi  Bi15  1  0.28659100  0.08861100  0.57549600  1
  Te  Te0  1  0.32362200  0.75851600  0.64882000  1
  Te  Te1  1  0.53552100  0.96106000  0.06592400  1
  Te  Te2  1  0.24120400  0.40078400  0.47904400  1
  Te  Te3  1  0.89306300  0.89923300  0.79093700  1
  Te  Te4  1  0.08470900  0.78627000  0.16169100  1
  Te  Te5  1  0.87545300  0.57928700  0.75270600  1
  Te  Te6  1  0.19854700  0.75949000  0.40584600  1
  Te  Te7  1  0.67319700  0.24104900  0.35168500  1
  Te  Te8  1  0.76010800  0.59885800  0.52148500  1
  Te  Te9  1  0.10808100  0.09869600  0.21039800  1
  Te  Te10  1  0.56273700  0.27869500  0.11538400  1
  Te  Te11  1  0.34854500  0.07106500  0.69278300  1
  Te  Te12  1  0.91843400  0.21217200  0.83822600  1
  Te  Te13  1  0.44136700  0.71996500  0.88456200  1
  Te  Te14  1  0.38008600  0.38977900  0.75406200  1
  Te  Te15  1  0.77399600  0.92450600  0.55089400  1
  Te  Te16  1  0.65005600  0.92840400  0.30841400  1
  Te  Te17  1  0.61933000  0.60951500  0.24675800  1
  Te  Te18  1  0.46686100  0.03655500  0.93470000  1
  Te  Te19  1  0.50880500  0.64341700  0.01534500  1
  Te  Te20  1  0.12770400  0.41867900  0.24788900  1
  Te  Te21  1  0.22598700  0.07615500  0.45075000  1
  Te  Te22  1  0.79869100  0.24116600  0.59492300  1
  Te  Te23  1  0.49770200  0.35481900  0.98628400  1
loop_
_geom_bond_atom_site_label_1
_geom_bond_atom_site_label_2
_geom_bond_distance
_geom_bond_site_symmetry_2
Cs0 Te8 3.810437 1_555
Cs0 Te17 3.877344 1_555
Cs0 Te7 3.949296 1_555
Cs0 Te20 4.035033 1_555
Cs0 Te20 4.046685 1_655
Cs0 Te2 4.131160 1_555
Cs0 Te6 4.133111 1_655
Cs0 Te2 4.137486 1_655
Cs0 Te6 4.164240 1_555
Cs1 Te4 4.005786 1_555
Cs1 Te10 4.077818 1_555
Cs1 Te19 4.078158 1_555
Cs1 Te10 4.088264 1_455
Cs1 Te20 4.112163 1_555
Cs1 Te19 4.116709 1_455
Cs1 Te23 4.212473 1_554
Cs1 Te17 4.222807 1_555
Cs1 Te23 4.228821 1_454
Cs1 Te17 4.279105 1_455
Cs2 Te13 4.050558 1_655
Cs2 Te13 4.059485 1_555
Cs2 Te12 4.065417 1_555
Cs2 Te23 4.102719 1_555
Cs2 Te5 4.128692 1_555
Cs2 Te23 4.129525 1_655
Cs2 Te19 4.182568 1_556
Cs2 Te19 4.187675 1_656
Cs2 Te14 4.284291 1_555
Cs2 Te14 4.297936 1_655
Cs3 Te2 3.811385 1_555
Cs3 Te14 3.879054 1_555
Cs3 Te0 3.959621 1_555
Cs3 Te5 4.017937 1_555
Cs3 Te5 4.058013 1_455
Cs3 Te22 4.114385 1_555
Cs3 Te8 4.120852 1_555
Cs3 Te22 4.139890 1_455
Cs3 Te8 4.163601 1_455
Bi0 Te9 3.085147 1_555
Bi0 Te7 3.096090 1_455
Bi0 Te7 3.105178 1_555
Bi0 Te16 3.233559 1_445
Bi0 Te16 3.239674 1_545
Bi0 Te21 3.310549 1_555
Bi1 Te6 3.115273 1_555
Bi1 Te6 3.132062 1_655
Bi1 Te16 3.144739 1_555
Bi1 Te21 3.232662 1_565
Bi1 Te15 3.259062 1_555
Bi1 Te21 3.272602 1_665
Bi2 Te18 3.044960 1_555
Bi2 Te12 3.105345 1_455
Bi2 Te12 3.105804 1_555
Bi2 Te3 3.244814 1_545
Bi2 Te3 3.248407 1_445
Bi2 Te11 3.440309 1_555
Bi3 Te13 3.060770 1_655
Bi3 Te13 3.074230 1_555
Bi3 Bi6 3.268973 1_656
Bi3 Te18 3.348189 1_665
Bi3 Te18 3.364322 1_565
Bi3 Te3 3.541760 1_555
Bi4 Te14 3.012312 1_655
Bi4 Te14 3.016081 1_555
Bi4 Te12 3.069943 1_555
Bi4 Te11 3.425272 1_655
Bi4 Te11 3.427818 1_555
Bi4 Te22 3.463252 1_555
Bi5 Te1 3.040053 1_555
Bi5 Te4 3.095499 1_655
Bi5 Te4 3.109963 1_555
Bi5 Te9 3.233682 1_665
Bi5 Te9 3.260013 1_565
Bi5 Te16 3.453799 1_555
Bi6 Te19 3.051518 1_555
Bi6 Te19 3.058398 1_455
Bi6 Te1 3.358660 1_555
Bi6 Te1 3.362825 1_455
Bi6 Te4 3.475542 1_555
Bi7 Te3 3.086658 1_555
Bi7 Te0 3.100494 1_555
Bi7 Te0 3.102336 1_655
Bi7 Te11 3.230261 1_565
Bi7 Te11 3.243461 1_665
Bi7 Te15 3.310411 1_555
Bi8 Te17 3.012361 1_455
Bi8 Te17 3.018923 1_555
Bi8 Te4 3.066821 1_555
Bi8 Te16 3.427833 1_555
Bi8 Te16 3.428647 1_455
Bi8 Te6 3.480149 1_555
Bi9 Te8 3.018749 1_555
Bi9 Te8 3.019122 1_455
Bi9 Te0 3.102370 1_555
Bi9 Te6 3.315099 1_555
Bi9 Te15 3.456706 1_555
Bi9 Te15 3.468575 1_455
Bi10 Te10 3.061703 1_555
Bi10 Te10 3.069749 1_455
Bi10 Bi11 3.263636 1_454
Bi10 Te1 3.360936 1_545
Bi10 Te1 3.376570 1_445
Bi10 Te9 3.575459 1_555
Bi11 Te23 3.043878 1_655
Bi11 Te23 3.060765 1_555
Bi11 Te18 3.349312 1_655
Bi11 Te18 3.388094 1_555
Bi11 Te12 3.486533 1_555
Bi12 Te2 3.017744 1_555
Bi12 Te2 3.019202 1_655
Bi12 Te7 3.099325 1_555
Bi12 Te22 3.320924 1_555
Bi12 Te21 3.450464 1_555
Bi12 Te21 3.452453 1_655
Bi13 Te10 3.014156 1_555
Bi13 Te20 3.018841 1_655
Bi13 Te20 3.025929 1_555
Bi13 Te7 3.347751 1_555
Bi13 Te9 3.388389 1_655
Bi13 Te9 3.393183 1_555
Bi14 Te13 3.014788 1_555
Bi14 Te5 3.020495 1_455
Bi14 Te5 3.021636 1_555
Bi14 Te0 3.338727 1_555
Bi14 Te3 3.384446 1_555
Bi14 Te3 3.398909 1_455
Bi15 Te22 3.120483 1_455
Bi15 Te22 3.132258 1_555
Bi15 Te11 3.145027 1_555
Bi15 Te15 3.248006 1_445
Bi15 Te15 3.249641 1_545
Bi15 Te21 3.251082 1_555
