# generated using pymatgen
data_Ca4Al11Si13(AgO16)3
_symmetry_space_group_name_H-M   'P 1'
_cell_length_a   12.20683800
_cell_length_b   12.22660348
_cell_length_c   12.85027258
_cell_angle_alpha   89.44972615
_cell_angle_beta   89.69447362
_cell_angle_gamma   89.66944136
_symmetry_Int_Tables_number   1
_chemical_formula_structural   Ca4Al11Si13(AgO16)3
_chemical_formula_sum   'Ca4 Al11 Si13 Ag3 O48'
_cell_volume   1917.73256739
_cell_formula_units_Z   1
loop_
 _symmetry_equiv_pos_site_id
 _symmetry_equiv_pos_as_xyz
  1  'x, y, z'
loop_
 _atom_site_type_symbol
 _atom_site_label
 _atom_site_symmetry_multiplicity
 _atom_site_fract_x
 _atom_site_fract_y
 _atom_site_fract_z
 _atom_site_occupancy
  Ca  Ca0  1  0.18362800  0.81731100  0.78039300  1
  Ca  Ca1  1  0.82099700  0.82328500  0.78379400  1
  Ca  Ca2  1  0.80869300  0.18664100  0.78849500  1
  Ca  Ca3  1  0.18512900  0.19210400  0.77453600  1
  Al  Al0  1  0.81419200  0.36667900  0.00367500  1
  Al  Al1  1  0.99918300  0.80530200  0.37399200  1
  Al  Al2  1  0.80798800  0.00473600  0.37203100  1
  Al  Al3  1  0.00316800  0.19645600  0.61026600  1
  Al  Al4  1  0.19561000  0.99791400  0.60790800  1
  Al  Al5  1  0.00279000  0.80573500  0.61159400  1
  Al  Al6  1  0.81021600  0.00771200  0.61500000  1
  Al  Al7  1  0.00144100  0.36524100  0.83019100  1
  Al  Al8  1  0.00056600  0.63962300  0.83831600  1
  Al  Al9  1  0.36080500  0.99917700  0.83348000  1
  Al  Al10  1  0.63353800  0.99898400  0.83491800  1
  Si  Si0  1  0.18677800  0.36831500  0.00458100  1
  Si  Si1  1  0.36303700  0.18309300  0.00254900  1
  Si  Si2  1  0.81476800  0.63286400  0.00831900  1
  Si  Si3  1  0.00323900  0.36661100  0.18115800  1
  Si  Si4  1  0.00199100  0.62249100  0.18030400  1
  Si  Si5  1  0.36511500  0.99942600  0.17986200  1
  Si  Si6  1  0.62099200  0.00073600  0.18248000  1
  Si  Si7  1  0.00325300  0.18866600  0.36665300  1
  Si  Si8  1  0.18801200  0.00171100  0.36926600  1
  Si  Si9  1  0.19008400  0.62610600  0.00355700  1
  Si  Si10  1  0.36737600  0.81231700  0.00904600  1
  Si  Si11  1  0.62298100  0.18654400  0.00323200  1
  Si  Si12  1  0.62930300  0.81430000  0.01043300  1
  Ag  Ag0  1  0.80692600  0.80645300  0.20964400  1
  Ag  Ag1  1  0.19098400  0.79573600  0.21130100  1
  Ag  Ag2  1  0.79726000  0.19612300  0.19964900  1
  O  O0  1  0.49242400  0.21123500  0.99097500  1
  O  O1  1  0.30190800  0.69684600  0.02345400  1
  O  O2  1  0.69097600  0.29611100  0.02139700  1
  O  O3  1  0.78766000  0.50640600  0.99732800  1
  O  O4  1  0.70082000  0.70302500  0.02878100  1
  O  O5  1  0.11189100  0.35099800  0.10781800  1
  O  O6  1  0.34207300  0.10224800  0.10246200  1
  O  O7  1  0.11178100  0.64487300  0.10616500  1
  O  O8  1  0.64154000  0.10635000  0.10542300  1
  O  O9  1  0.33986000  0.88421400  0.11495400  1
  O  O10  1  0.89374300  0.33553300  0.11593500  1
  O  O11  1  0.65027100  0.88903200  0.11436900  1
  O  O12  1  0.89134100  0.65620500  0.11252700  1
  O  O13  1  0.99747900  0.49527800  0.21550900  1
  O  O14  1  0.49217700  0.99564100  0.21591300  1
  O  O15  1  0.01440500  0.29137200  0.28317500  1
  O  O16  1  0.28584700  0.00295700  0.27871300  1
  O  O17  1  0.70072000  0.01048400  0.27785800  1
  O  O18  1  0.01311100  0.70488200  0.27438200  1
  O  O19  1  0.11129600  0.10978900  0.34809400  1
  O  O20  1  0.11908800  0.88910100  0.34784000  1
  O  O21  1  0.89130200  0.12183400  0.33695900  1
  O  O22  1  0.88464700  0.88642100  0.34116600  1
  O  O23  1  0.99973400  0.24007400  0.48141800  1
  O  O24  1  0.24731300  0.00308300  0.48099700  1
  O  O25  1  0.75263900  0.01217400  0.49460500  1
  O  O26  1  0.99688100  0.74261000  0.49388200  1
  O  O27  1  0.12089900  0.11681600  0.63263800  1
  O  O28  1  0.12753700  0.87457000  0.62907100  1
  O  O29  1  0.88270400  0.12800900  0.64572200  1
  O  O30  1  0.88988300  0.89029200  0.64076000  1
  O  O31  1  0.02094700  0.28201300  0.72134200  1
  O  O32  1  0.26910500  0.99518700  0.73039700  1
  O  O33  1  0.73393700  0.99991800  0.73787900  1
  O  O34  1  0.00306700  0.73837700  0.73939300  1
  O  O35  1  0.49733300  0.99671700  0.81385100  1
  O  O36  1  0.99784700  0.50359800  0.81998300  1
  O  O37  1  0.12888800  0.67709900  0.90136800  1
  O  O38  1  0.67165500  0.12208700  0.90128400  1
  O  O39  1  0.67532400  0.87649300  0.90631400  1
  O  O40  1  0.87880100  0.68770700  0.90760200  1
  O  O41  1  0.12651800  0.32435100  0.89980900  1
  O  O42  1  0.31573600  0.12306100  0.89818700  1
  O  O43  1  0.32059400  0.87586900  0.90592000  1
  O  O44  1  0.88097400  0.31356700  0.89247300  1
  O  O45  1  0.22212000  0.49755700  0.99364900  1
  O  O46  1  0.29955700  0.29842900  0.01895600  1
  O  O47  1  0.49860400  0.78611400  0.00368200  1
loop_
_geom_bond_atom_site_label_1
_geom_bond_atom_site_label_2
_geom_bond_distance
_geom_bond_site_symmetry_2
Ca0 O28 2.173162 1_555
Ca0 O37 2.398539 1_555
Ca0 O43 2.444307 1_555
Ca0 O34 2.472580 1_555
Ca0 O32 2.494691 1_555
Ca1 O30 2.172363 1_555
Ca1 O40 2.392635 1_555
Ca1 O39 2.457741 1_555
Ca1 O33 2.469253 1_555
Ca1 O34 2.512768 1_655
Ca2 O29 2.167081 1_555
Ca2 O44 2.245059 1_555
Ca2 O38 2.342924 1_555
Ca2 O33 2.554741 1_545
Ca2 O31 2.968013 1_655
Ca3 O27 2.200632 1_555
Ca3 O31 2.380550 1_555
Ca3 O41 2.396276 1_555
Ca3 O42 2.401016 1_555
Ca3 O32 2.675952 1_545
Al0 O3 1.738203 1_554
Al0 O2 1.751027 1_555
Al0 O44 1.768475 1_554
Al0 O10 1.780202 1_555
Al1 O26 1.714333 1_555
Al1 O22 1.760290 1_555
Al1 O18 1.788934 1_655
Al1 O20 1.819462 1_655
Al2 O25 1.713598 1_555
Al2 O22 1.765512 1_545
Al2 O17 1.788334 1_555
Al2 O21 1.812932 1_555
Al3 O23 1.735262 1_455
Al3 O29 1.752142 1_455
Al3 O27 1.754707 1_555
Al3 O31 1.792572 1_555
Al4 O27 1.742593 1_565
Al4 O28 1.744396 1_555
Al4 O24 1.746272 1_565
Al4 O32 1.815822 1_555
Al5 O26 1.706801 1_455
Al5 O30 1.759072 1_455
Al5 O28 1.760580 1_555
Al5 O34 1.830110 1_555
Al6 O25 1.702947 1_555
Al6 O30 1.759141 1_545
Al6 O29 1.769755 1_555
Al6 O33 1.830809 1_545
Al7 O36 1.695791 1_455
Al7 O31 1.752044 1_555
Al7 O44 1.786226 1_455
Al7 O41 1.838082 1_555
Al8 O36 1.682506 1_455
Al8 O34 1.745067 1_555
Al8 O40 1.825783 1_455
Al8 O37 1.830029 1_555
Al9 O35 1.684365 1_555
Al9 O32 1.740038 1_555
Al9 O42 1.816044 1_565
Al9 O43 1.832250 1_555
Al10 O35 1.686380 1_555
Al10 O33 1.743748 1_555
Al10 O38 1.801718 1_565
Al10 O39 1.820616 1_555
Ag0 O22 2.184494 1_555
Ag0 O12 2.449978 1_555
Ag0 O11 2.480734 1_555
Ag1 O20 2.272072 1_555
Ag1 O9 2.445133 1_555
Ag1 O7 2.498944 1_555
Ag1 O18 2.568503 1_555
Ag2 O21 2.288003 1_555
Ag2 O10 2.328975 1_555
Ag2 O8 2.521557 1_555
Ag2 O17 2.743153 1_555
O0 Si1 1.624136 1_556
O0 Si11 1.628496 1_556
O1 Si10 1.634803 1_555
O1 Si9 1.642653 1_555
O2 Si11 1.599660 1_555
O3 Si2 1.590794 1_556
O4 Si12 1.628203 1_555
O4 Si2 1.651183 1_555
O5 Si0 1.619970 1_555
O5 Si3 1.634289 1_555
O6 Si5 1.619787 1_545
O6 Si1 1.632789 1_555
O7 Si9 1.641540 1_555
O7 Si4 1.662603 1_555
O8 Si6 1.639330 1_555
O8 Si11 1.647128 1_555
O9 Si10 1.659045 1_555
O9 Si5 1.674920 1_555
O10 Si3 1.630115 1_655
O11 Si12 1.647429 1_555
O11 Si6 1.665258 1_565
O12 Si4 1.658932 1_655
O12 Si2 1.664960 1_555
O13 Si4 1.616823 1_655
O13 Si3 1.639012 1_655
O14 Si5 1.621376 1_555
O14 Si6 1.629228 1_565
O15 Si3 1.600219 1_555
O15 Si7 1.649451 1_555
O16 Si5 1.593476 1_545
O16 Si8 1.662999 1_555
O17 Si6 1.574934 1_555
O18 Si4 1.587901 1_555
O19 Si8 1.636667 1_555
O19 Si7 1.647036 1_555
O20 Si8 1.643918 1_565
O21 Si7 1.644762 1_655
O23 Si7 1.608929 1_655
O24 Si8 1.611649 1_555
O37 Si9 1.631098 1_556
O38 Si11 1.642099 1_556
O39 Si12 1.631352 1_556
O40 Si2 1.647495 1_556
O41 Si0 1.634534 1_556
O42 Si1 1.643981 1_556
O43 Si10 1.633768 1_556
O45 Si9 1.623470 1_556
O45 Si0 1.644935 1_556
O46 Si1 1.620135 1_555
O46 Si0 1.626524 1_555
O47 Si10 1.633013 1_555
O47 Si12 1.637087 1_555
