# generated using pymatgen
data_Ti2Sn3
_symmetry_space_group_name_H-M   'P 1'
_cell_length_a   5.96672611
_cell_length_b   7.02979359
_cell_length_c   10.44292380
_cell_angle_alpha   90.00057530
_cell_angle_beta   106.65232566
_cell_angle_gamma   89.99891443
_symmetry_Int_Tables_number   1
_chemical_formula_structural   Ti2Sn3
_chemical_formula_sum   'Ti8 Sn12'
_cell_volume   419.65661049
_cell_formula_units_Z   4
loop_
 _symmetry_equiv_pos_site_id
 _symmetry_equiv_pos_as_xyz
  1  'x, y, z'
loop_
 _atom_site_type_symbol
 _atom_site_label
 _atom_site_symmetry_multiplicity
 _atom_site_fract_x
 _atom_site_fract_y
 _atom_site_fract_z
 _atom_site_occupancy
  Ti  Ti0  1  0.08141453  0.45303873  0.16112003  1
  Ti  Ti1  1  0.58669627  0.25019768  0.67350806  1
  Ti  Ti2  1  0.91418730  0.75032819  0.32626380  1
  Ti  Ti3  1  0.41415887  0.75043092  0.32624015  1
  Ti  Ti4  1  0.58133885  0.04775986  0.16111945  1
  Ti  Ti5  1  0.08670856  0.25048054  0.67349067  1
  Ti  Ti6  1  0.91979861  0.54774479  0.83865343  1
  Ti  Ti7  1  0.41985549  0.95300490  0.83863573  1
  Sn  Sn0  1  0.22495802  0.42898986  0.44854374  1
  Sn  Sn1  1  0.87871470  0.92672236  0.75716763  1
  Sn  Sn2  1  0.72488017  0.07174497  0.44853260  1
  Sn  Sn3  1  0.27574827  0.92893922  0.55121663  1
  Sn  Sn4  1  0.77154925  0.75071936  0.04058090  1
  Sn  Sn5  1  0.12250262  0.07401924  0.24261030  1
  Sn  Sn6  1  0.37864512  0.57396459  0.75717731  1
  Sn  Sn7  1  0.72999842  0.25053616  0.95924764  1
  Sn  Sn8  1  0.77570567  0.57168541  0.55120201  1
  Sn  Sn9  1  0.27152230  0.75007329  0.04052586  1
  Sn  Sn10  1  0.22997334  0.25014674  0.95920824  1
  Sn  Sn11  1  0.62252064  0.42681518  0.24252082  1
loop_
_geom_bond_atom_site_label_1
_geom_bond_atom_site_label_2
_geom_bond_distance
_geom_bond_site_symmetry_2
Ti0 Ti2 3.053438 1_455
Ti0 Ti3 3.053482 1_555
Ti0 Ti6 3.294245 1_454
Ti1 Ti5 2.983238 1_555
Ti1 Ti5 2.983489 1_655
Ti1 Ti7 3.051786 1_545
Ti1 Ti6 3.055371 1_555
Ti2 Ti3 2.983264 1_655
Ti2 Ti3 2.983462 1_555
Ti2 Ti4 3.054043 1_565
Ti3 Ti4 3.053381 1_565
Ti4 Ti7 3.294477 1_544
Ti5 Ti6 3.052523 1_455
Ti5 Ti7 3.055128 1_545
Sn0 Ti0 2.880631 1_555
Sn0 Ti2 2.968946 1_455
Sn0 Ti3 2.972927 1_555
Sn0 Ti1 2.975121 1_555
Sn0 Ti5 2.980631 1_555
Sn0 Sn5 3.236034 1_555
Sn0 Sn6 3.251705 1_555
Sn0 Sn8 3.306873 1_555
Sn0 Sn8 3.314793 1_455
Sn1 Ti6 2.786088 1_555
Sn1 Ti1 2.845623 1_565
Sn1 Ti5 2.847001 1_665
Sn1 Ti7 3.096599 1_555
Sn1 Ti7 3.099837 1_655
Sn1 Sn8 3.236595 1_555
Sn1 Sn2 3.251832 1_565
Sn1 Sn10 3.388108 1_665
Sn1 Sn7 3.390513 1_565
Sn1 Sn4 3.432788 1_556
Sn1 Sn9 3.437535 1_656
Sn2 Ti4 2.880498 1_555
Sn2 Ti3 2.968735 1_545
Sn2 Ti2 2.972869 1_545
Sn2 Ti5 2.975198 1_655
Sn2 Ti1 2.980492 1_555
Sn2 Sn3 3.307735 1_645
Sn2 Sn3 3.314567 1_545
Sn3 Ti7 2.880588 1_555
Sn3 Ti1 2.969113 1_565
Sn3 Ti5 2.972762 1_565
Sn3 Ti2 2.974000 1_455
Sn3 Ti3 2.981346 1_555
Sn3 Sn6 3.236241 1_555
Sn3 Sn5 3.251694 1_565
Sn4 Ti0 2.836909 1_655
Sn4 Ti4 2.837522 1_565
Sn4 Ti2 2.858250 1_555
Sn4 Ti6 2.886870 1_554
Sn4 Ti7 2.887344 1_554
Sn4 Sn9 2.983363 1_555
Sn4 Sn9 2.983370 1_655
Sn4 Sn5 3.386667 1_665
Sn4 Sn6 3.438380 1_554
Sn5 Ti0 2.786383 1_555
Sn5 Ti3 2.845084 1_545
Sn5 Ti2 2.847523 1_445
Sn5 Ti4 3.096583 1_555
Sn5 Ti4 3.099953 1_455
Sn5 Sn9 3.391966 1_545
Sn5 Sn7 3.436443 1_454
Sn6 Ti7 2.786423 1_555
Sn6 Ti5 2.845492 1_555
Sn6 Ti1 2.847143 1_555
Sn6 Ti6 3.096551 1_455
Sn6 Ti6 3.099875 1_555
Sn6 Sn7 3.388489 1_555
Sn6 Sn9 3.432297 1_556
Sn7 Ti7 2.837233 1_545
Sn7 Ti6 2.837477 1_555
Sn7 Ti1 2.858814 1_555
Sn7 Ti0 2.886860 1_656
Sn7 Ti4 2.887007 1_556
Sn8 Ti6 2.880861 1_555
Sn8 Ti5 2.968950 1_655
Sn8 Ti1 2.972616 1_555
Sn8 Ti3 2.974397 1_555
Sn8 Ti2 2.981643 1_555
Sn9 Ti4 2.836967 1_565
Sn9 Ti0 2.837543 1_555
Sn9 Ti3 2.858564 1_555
Sn9 Ti7 2.886697 1_554
Sn9 Ti6 2.887207 1_454
Sn10 Ti7 2.837212 1_545
Sn10 Ti6 2.837492 1_455
Sn10 Ti5 2.858594 1_555
Sn10 Ti4 2.886496 1_556
Sn10 Ti0 2.887402 1_556
Sn10 Sn7 2.983333 1_455
Sn10 Sn7 2.983396 1_555
Sn10 Sn6 3.390108 1_555
Sn10 Sn5 3.433786 1_556
Sn10 Sn11 3.436602 1_556
Sn11 Ti4 2.786357 1_555
Sn11 Ti2 2.844888 1_555
Sn11 Ti3 2.847491 1_555
Sn11 Ti0 3.096410 1_655
Sn11 Ti0 3.099623 1_555
Sn11 Sn2 3.237089 1_555
Sn11 Sn8 3.251935 1_555
Sn11 Sn9 3.386403 1_555
Sn11 Sn4 3.390791 1_555
Sn11 Sn7 3.432927 1_554
