# generated using pymatgen
data_U2S3
_symmetry_space_group_name_H-M   'P 1'
_cell_length_a   3.91786700
_cell_length_b   10.41917300
_cell_length_c   11.61158500
_cell_angle_alpha   90.00000000
_cell_angle_beta   90.00000000
_cell_angle_gamma   90.00000000
_symmetry_Int_Tables_number   1
_chemical_formula_structural   U2S3
_chemical_formula_sum   'U8 S12'
_cell_volume   473.99574566
_cell_formula_units_Z   4
loop_
 _symmetry_equiv_pos_site_id
 _symmetry_equiv_pos_as_xyz
  1  'x, y, z'
loop_
 _atom_site_type_symbol
 _atom_site_label
 _atom_site_symmetry_multiplicity
 _atom_site_fract_x
 _atom_site_fract_y
 _atom_site_fract_z
 _atom_site_occupancy
  U  U0  1  0.75000000  0.98511900  0.35183800  1
  U  U1  1  0.75000000  0.32036100  0.50780800  1
  U  U2  1  0.25000000  0.17963900  0.00780800  1
  U  U3  1  0.25000000  0.67963900  0.49219200  1
  U  U4  1  0.25000000  0.01488100  0.64816200  1
  U  U5  1  0.25000000  0.51488100  0.85183800  1
  U  U6  1  0.75000000  0.82036100  0.99219200  1
  U  U7  1  0.75000000  0.48511900  0.14816200  1
  S  S0  1  0.75000000  0.85426100  0.55887700  1
  S  S1  1  0.75000000  0.35426100  0.94112300  1
  S  S2  1  0.25000000  0.82371800  0.29353000  1
  S  S3  1  0.25000000  0.64573900  0.05887700  1
  S  S4  1  0.25000000  0.95608500  0.88212600  1
  S  S5  1  0.25000000  0.14573900  0.44112300  1
  S  S6  1  0.75000000  0.67628200  0.79353000  1
  S  S7  1  0.75000000  0.54391500  0.38212600  1
  S  S8  1  0.25000000  0.45608500  0.61787400  1
  S  S9  1  0.75000000  0.04391500  0.11787400  1
  S  S10  1  0.75000000  0.17628200  0.70647000  1
  S  S11  1  0.25000000  0.32371800  0.20647000  1
loop_
_geom_bond_atom_site_label_1
_geom_bond_atom_site_label_2
_geom_bond_distance
_geom_bond_site_symmetry_2
S0 U0 2.763767 1_555
S0 U4 2.777219 1_665
S0 U4 2.777219 1_565
S0 U3 2.783391 1_555
S0 U3 2.783391 1_655
S1 U7 2.763767 1_556
S1 U5 2.777219 1_555
S1 U5 2.777219 1_655
S1 U2 2.783391 1_656
S1 U2 2.783391 1_556
S2 U0 2.669047 1_555
S2 U0 2.669047 1_455
S2 U3 2.752234 1_555
S3 U5 2.763767 1_554
S3 U7 2.777219 1_455
S3 U7 2.777219 1_555
S3 U6 2.783391 1_554
S3 U6 2.783391 1_454
S4 U6 2.733236 1_455
S4 U6 2.733236 1_555
S4 U2 2.748663 1_566
S4 U4 2.784907 1_565
S5 U4 2.763767 1_555
S5 U0 2.777219 1_445
S5 U0 2.777219 1_545
S5 U1 2.783391 1_455
S5 U1 2.783391 1_555
S6 U5 2.669047 1_555
S6 U5 2.669047 1_655
S6 U6 2.752234 1_555
S7 U3 2.733236 1_555
S7 U3 2.733236 1_655
S7 U1 2.748663 1_555
S7 U7 2.784907 1_555
S8 U1 2.733236 1_455
S8 U1 2.733236 1_555
S8 U3 2.748663 1_555
S8 U5 2.784907 1_555
S9 U2 2.733236 1_555
S9 U2 2.733236 1_655
S9 U6 2.748663 1_544
S9 U0 2.784907 1_545
S10 U4 2.669047 1_555
S10 U4 2.669047 1_655
S10 U1 2.752234 1_555
S11 U7 2.669047 1_555
S11 U7 2.669047 1_455
S11 U2 2.752234 1_555
