# generated using pymatgen
data_LiEu3SiCl3O4
_symmetry_space_group_name_H-M   'P 1'
_cell_length_a   7.02357800
_cell_length_b   9.51802300
_cell_length_c   13.66320800
_cell_angle_alpha   90.00000000
_cell_angle_beta   90.00000000
_cell_angle_gamma   90.00000000
_symmetry_Int_Tables_number   1
_chemical_formula_structural   LiEu3SiCl3O4
_chemical_formula_sum   'Li4 Eu12 Si4 Cl12 O16'
_cell_volume   913.39333774
_cell_formula_units_Z   4
loop_
 _symmetry_equiv_pos_site_id
 _symmetry_equiv_pos_as_xyz
  1  'x, y, z'
loop_
 _atom_site_type_symbol
 _atom_site_label
 _atom_site_symmetry_multiplicity
 _atom_site_fract_x
 _atom_site_fract_y
 _atom_site_fract_z
 _atom_site_occupancy
  Li  Li0  1  0.50000000  0.50000000  0.00000000  1
  Li  Li1  1  0.50000000  0.50000000  0.50000000  1
  Li  Li2  1  0.50000000  0.00000000  0.50000000  1
  Li  Li3  1  0.50000000  0.00000000  0.00000000  1
  Eu  Eu0  1  0.00000000  0.73991200  0.00000000  1
  Eu  Eu1  1  0.00000000  0.26008800  0.00000000  1
  Eu  Eu2  1  0.77667900  0.00000000  0.18942100  1
  Eu  Eu3  1  0.22332100  0.50000000  0.68942100  1
  Eu  Eu4  1  0.33076400  0.25000000  0.25000000  1
  Eu  Eu5  1  0.22332100  0.00000000  0.81057900  1
  Eu  Eu6  1  0.00000000  0.76008800  0.50000000  1
  Eu  Eu7  1  0.33076400  0.75000000  0.25000000  1
  Eu  Eu8  1  0.66923600  0.25000000  0.75000000  1
  Eu  Eu9  1  0.00000000  0.23991200  0.50000000  1
  Eu  Eu10  1  0.66923600  0.75000000  0.75000000  1
  Eu  Eu11  1  0.77667900  0.50000000  0.31057900  1
  Si  Si0  1  0.20772000  0.50000000  0.38876900  1
  Si  Si1  1  0.20772000  0.00000000  0.11123100  1
  Si  Si2  1  0.79228000  0.00000000  0.88876900  1
  Si  Si3  1  0.79228000  0.50000000  0.61123100  1
  Cl  Cl0  1  0.20188700  0.00000000  0.39519400  1
  Cl  Cl1  1  0.33450100  0.68266400  0.87338100  1
  Cl  Cl2  1  0.33450100  0.18266400  0.62661900  1
  Cl  Cl3  1  0.33450100  0.81733600  0.62661900  1
  Cl  Cl4  1  0.79811300  0.00000000  0.60480600  1
  Cl  Cl5  1  0.66549900  0.68266400  0.12661900  1
  Cl  Cl6  1  0.66549900  0.81733600  0.37338100  1
  Cl  Cl7  1  0.66549900  0.18266400  0.37338100  1
  Cl  Cl8  1  0.79811300  0.50000000  0.89519400  1
  Cl  Cl9  1  0.33450100  0.31733600  0.87338100  1
  Cl  Cl10  1  0.20188700  0.50000000  0.10480600  1
  Cl  Cl11  1  0.66549900  0.31733600  0.12661900  1
  O  O0  1  0.77403900  0.50000000  0.49115400  1
  O  O1  1  0.42261300  0.50000000  0.34039700  1
  O  O2  1  0.91227100  0.63914300  0.64898100  1
  O  O3  1  0.08772900  0.86085700  0.14898100  1
  O  O4  1  0.91227100  0.36085700  0.64898100  1
  O  O5  1  0.08772900  0.13914300  0.14898100  1
  O  O6  1  0.22596100  0.50000000  0.50884600  1
  O  O7  1  0.08772900  0.63914300  0.35101900  1
  O  O8  1  0.57738700  0.50000000  0.65960300  1
  O  O9  1  0.42261300  0.00000000  0.15960300  1
  O  O10  1  0.91227100  0.86085700  0.85101900  1
  O  O11  1  0.57738700  0.00000000  0.84039700  1
  O  O12  1  0.22596100  0.00000000  0.99115400  1
  O  O13  1  0.77403900  0.00000000  0.00884600  1
  O  O14  1  0.91227100  0.13914300  0.85101900  1
  O  O15  1  0.08772900  0.36085700  0.35101900  1
loop_
_geom_bond_atom_site_label_1
_geom_bond_atom_site_label_2
_geom_bond_distance
_geom_bond_site_symmetry_2
Li1 O0 1.928525 1_555
Li1 O6 1.928525 1_555
Li1 O8 2.247406 1_555
Li1 O1 2.247406 1_555
Li3 O13 1.928525 1_555
Li3 O12 1.928525 1_554
Li3 O11 2.247406 1_554
Li3 O9 2.247406 1_555
Eu0 O3 2.418332 1_555
Eu0 O10 2.418332 1_454
Eu0 O12 2.943054 1_564
Eu0 O13 2.943054 1_465
Eu1 O5 2.418332 1_555
Eu1 O14 2.418332 1_454
Eu1 O12 2.943054 1_554
Eu1 O13 2.943054 1_455
Eu2 O13 2.467303 1_555
Eu2 O9 2.519962 1_555
Eu2 O3 2.613827 1_645
Eu2 O5 2.613827 1_655
Eu3 O6 2.467303 1_555
Eu3 O8 2.519962 1_555
Eu3 O4 2.613827 1_455
Eu3 O2 2.613827 1_455
Eu4 O15 2.435602 1_555
Eu4 O5 2.435602 1_555
Eu4 O9 2.757484 1_555
Eu4 O1 2.757484 1_555
Eu5 O12 2.467303 1_555
Eu5 O11 2.519962 1_555
Eu5 O14 2.613827 1_455
Eu5 O10 2.613827 1_445
Eu6 O2 2.418332 1_455
Eu6 O7 2.418332 1_555
Eu6 O6 2.943054 1_555
Eu6 O0 2.943054 1_455
Eu7 O7 2.435602 1_555
Eu7 O3 2.435602 1_555
Eu7 O1 2.757484 1_555
Eu7 O9 2.757484 1_565
Eu8 O14 2.435602 1_555
Eu8 O4 2.435602 1_555
Eu8 O11 2.757484 1_555
Eu8 O8 2.757484 1_555
Eu9 O4 2.418332 1_455
Eu9 O15 2.418332 1_555
Eu9 O6 2.943054 1_555
Eu9 O0 2.943054 1_455
Eu10 O10 2.435602 1_555
Eu10 O2 2.435602 1_555
Eu10 O11 2.757484 1_565
Eu10 O8 2.757484 1_555
Eu11 O0 2.467303 1_555
Eu11 O1 2.519962 1_555
Eu11 O15 2.613827 1_655
Eu11 O7 2.613827 1_655
Cl0 Li2 2.536664 1_555
Cl0 Eu9 3.045577 1_555
Cl0 Eu6 3.045577 1_545
Cl0 Eu4 3.227525 1_555
Cl0 Eu7 3.227525 1_545
Cl1 Li0 2.714198 1_556
Cl1 Eu10 2.963105 1_555
Cl1 Eu0 2.968085 1_556
Cl1 Eu3 3.154379 1_555
Cl1 Eu5 3.235577 1_565
Cl2 Li2 2.714198 1_555
Cl2 Eu8 2.963105 1_555
Cl2 Eu9 2.968085 1_555
Cl2 Eu5 3.154379 1_555
Cl2 Eu3 3.235577 1_555
Cl3 Li2 2.714198 1_565
Cl3 Eu10 2.963105 1_555
Cl3 Eu6 2.968085 1_555
Cl3 Eu5 3.154379 1_565
Cl3 Eu3 3.235577 1_555
Cl4 Li2 2.536664 1_555
Cl4 Eu9 3.045577 1_655
Cl4 Eu6 3.045577 1_645
Cl4 Eu8 3.227525 1_555
Cl4 Eu10 3.227525 1_545
Cl5 Li0 2.714198 1_555
Cl5 Eu7 2.963105 1_555
Cl5 Eu0 2.968085 1_655
Cl5 Eu11 3.154379 1_555
Cl5 Eu2 3.235577 1_565
Cl6 Li2 2.714198 1_565
Cl6 Eu7 2.963105 1_555
Cl6 Eu6 2.968085 1_655
Cl6 Eu2 3.154379 1_565
Cl6 Eu11 3.235577 1_555
Cl7 Li2 2.714198 1_555
Cl7 Eu4 2.963105 1_555
Cl7 Eu9 2.968085 1_655
Cl7 Eu2 3.154379 1_555
Cl7 Eu11 3.235577 1_555
Cl8 Li0 2.536664 1_556
Cl8 Eu0 3.045577 1_656
Cl8 Eu1 3.045577 1_656
Cl8 Eu10 3.227525 1_555
Cl8 Eu8 3.227525 1_555
Cl9 Li0 2.714198 1_556
Cl9 Eu8 2.963105 1_555
Cl9 Eu1 2.968085 1_556
Cl9 Eu3 3.154379 1_555
Cl9 Eu5 3.235577 1_555
Cl10 Li0 2.536664 1_555
Cl10 Eu0 3.045577 1_555
Cl10 Eu1 3.045577 1_555
Cl10 Eu4 3.227525 1_555
Cl10 Eu7 3.227525 1_555
Cl11 Li0 2.714198 1_555
Cl11 Eu4 2.963105 1_555
Cl11 Eu1 2.968085 1_655
Cl11 Eu11 3.154379 1_555
Cl11 Eu2 3.235577 1_555
O0 Si3 1.645632 1_555
O1 Si0 1.647680 1_555
O2 Si3 1.652343 1_555
O3 Si1 1.652343 1_565
O4 Si3 1.652343 1_555
O5 Si1 1.652343 1_555
O6 Si0 1.645632 1_555
O7 Si0 1.652343 1_555
O8 Si3 1.647680 1_555
O9 Si1 1.647680 1_555
O10 Si2 1.652343 1_565
O11 Si2 1.647680 1_555
O12 Si1 1.645632 1_556
O13 Si2 1.645632 1_554
O14 Si2 1.652343 1_555
O15 Si0 1.652343 1_555
