# generated using pymatgen
data_V3(HO2)4
_symmetry_space_group_name_H-M   'P 1'
_cell_length_a   9.04041908
_cell_length_b   9.04041908
_cell_length_c   5.82338487
_cell_angle_alpha   83.31957059
_cell_angle_beta   83.31957059
_cell_angle_gamma   23.99958769
_symmetry_Int_Tables_number   1
_chemical_formula_structural   V3(HO2)4
_chemical_formula_sum   'V3 H4 O8'
_cell_volume   192.20538477
_cell_formula_units_Z   1
loop_
 _symmetry_equiv_pos_site_id
 _symmetry_equiv_pos_as_xyz
  1  'x, y, z'
loop_
 _atom_site_type_symbol
 _atom_site_label
 _atom_site_symmetry_multiplicity
 _atom_site_fract_x
 _atom_site_fract_y
 _atom_site_fract_z
 _atom_site_occupancy
  V  V0  1  0.98971200  0.98971200  0.51761100  1
  V  V1  1  0.18914800  0.18914800  0.64097800  1
  V  V2  1  0.80038200  0.80038200  0.34549700  1
  H  H0  1  0.08575100  0.08575200  0.10589700  1
  H  H1  1  0.99832100  0.99832100  0.04164100  1
  H  H2  1  0.20550000  0.20550000  0.07973100  1
  H  H3  1  0.78488500  0.78488500  0.90442900  1
  O  O0  1  0.03004900  0.03004900  0.17801300  1
  O  O1  1  0.96961400  0.96961400  0.80415400  1
  O  O2  1  0.10272800  0.10272800  0.53983800  1
  O  O3  1  0.89388500  0.89388500  0.42734700  1
  O  O4  1  0.16697400  0.16697400  0.97191300  1
  O  O5  1  0.81400600  0.81400600  0.03885500  1
  O  O6  1  0.26841700  0.26841700  0.37438100  1
  O  O7  1  0.73122200  0.73122200  0.63577800  1
loop_
_geom_bond_atom_site_label_1
_geom_bond_atom_site_label_2
_geom_bond_distance
_geom_bond_site_symmetry_2
H0 O0 1.023943 1_555
H0 O4 1.551018 1_554
H1 O0 1.025444 1_665
H1 O1 1.528857 1_554
H2 O4 0.979911 1_554
H3 O5 0.986888 1_556
O0 V0 2.020963 1_445
O1 V0 1.664229 1_555
O2 V1 1.702065 1_555
O2 V0 2.018262 1_445
O3 V2 1.774626 1_555
O3 V0 1.833152 1_555
O4 V1 1.920411 1_555
O5 V2 1.773251 1_555
O6 V1 1.964168 1_555
O6 V2 1.964199 1_545
O6 V2 1.964199 1_455
O7 V2 1.965144 1_555
O7 V1 2.020412 1_565
O7 V1 2.020412 1_655
