# generated using pymatgen
data_Li3Sc2(PO4)3
_symmetry_space_group_name_H-M   'P 1'
_cell_length_a   8.91245400
_cell_length_b   8.95835600
_cell_length_c   15.31493893
_cell_angle_alpha   54.17746886
_cell_angle_beta   90.00000000
_cell_angle_gamma   90.00000000
_symmetry_Int_Tables_number   1
_chemical_formula_structural   Li3Sc2(PO4)3
_chemical_formula_sum   'Li12 Sc8 P12 O48'
_cell_volume   991.45428117
_cell_formula_units_Z   4
loop_
 _symmetry_equiv_pos_site_id
 _symmetry_equiv_pos_as_xyz
  1  'x, y, z'
loop_
 _atom_site_type_symbol
 _atom_site_label
 _atom_site_symmetry_multiplicity
 _atom_site_fract_x
 _atom_site_fract_y
 _atom_site_fract_z
 _atom_site_occupancy
  Li  Li0  1  0.79371000  0.31903500  0.25554500  1
  Li  Li1  1  0.29371000  0.68096500  0.24445500  1
  Li  Li2  1  0.20629000  0.68096500  0.74445500  1
  Li  Li3  1  0.70629000  0.31903500  0.75554500  1
  Li  Li4  1  0.91517900  0.62131900  0.29998700  1
  Li  Li5  1  0.41517900  0.37868100  0.20001300  1
  Li  Li6  1  0.08482100  0.37868100  0.70001300  1
  Li  Li7  1  0.58482100  0.62131900  0.79998700  1
  Li  Li8  1  0.76764900  0.03118000  0.17960800  1
  Li  Li9  1  0.26764900  0.96882000  0.32039200  1
  Li  Li10  1  0.23235100  0.96882000  0.82039200  1
  Li  Li11  1  0.73235100  0.03118000  0.67960800  1
  Sc  Sc0  1  0.96590800  0.64044300  0.10567600  1
  Sc  Sc1  1  0.46590800  0.35955700  0.39432400  1
  Sc  Sc2  1  0.03409200  0.35955700  0.89432400  1
  Sc  Sc3  1  0.53409200  0.64044300  0.60567600  1
  Sc  Sc4  1  0.95238600  0.86202400  0.39341500  1
  Sc  Sc5  1  0.45238600  0.13797600  0.10658500  1
  Sc  Sc6  1  0.04761400  0.13797600  0.60658500  1
  Sc  Sc7  1  0.54761400  0.86202400  0.89341500  1
  P  P0  1  0.74554700  0.45246900  0.00961100  1
  P  P1  1  0.24554700  0.54753100  0.49038900  1
  P  P2  1  0.25445300  0.54753100  0.99038900  1
  P  P3  1  0.75445300  0.45246900  0.50961100  1
  P  P4  1  0.61316000  0.74530600  0.15287100  1
  P  P5  1  0.11316000  0.25469400  0.34712900  1
  P  P6  1  0.38684000  0.25469400  0.84712900  1
  P  P7  1  0.88684000  0.74530600  0.65287100  1
  P  P8  1  0.59499500  0.05012800  0.34753400  1
  P  P9  1  0.09499500  0.94987200  0.15246600  1
  P  P10  1  0.40500500  0.94987200  0.65246600  1
  P  P11  1  0.90500500  0.05012800  0.84753400  1
  O  O0  1  0.77371200  0.66511700  0.19002000  1
  O  O1  1  0.27371200  0.33488300  0.30998000  1
  O  O2  1  0.22628800  0.33488300  0.80998000  1
  O  O3  1  0.72628800  0.66511700  0.69002000  1
  O  O4  1  0.75447600  0.03409100  0.31127200  1
  O  O5  1  0.25447600  0.96590900  0.18872800  1
  O  O6  1  0.24552400  0.96590900  0.68872800  1
  O  O7  1  0.74552400  0.03409100  0.81127200  1
  O  O8  1  0.62907700  0.44640300  0.44307700  1
  O  O9  1  0.12907700  0.55359700  0.05692300  1
  O  O10  1  0.37092300  0.55359700  0.55692300  1
  O  O11  1  0.87092300  0.44640300  0.94307700  1
  O  O12  1  0.66142200  0.26559700  0.07196500  1
  O  O13  1  0.16142200  0.73440300  0.42803500  1
  O  O14  1  0.33857800  0.73440300  0.92803500  1
  O  O15  1  0.83857800  0.26559700  0.57196500  1
  O  O16  1  0.80754000  0.47835200  0.09447900  1
  O  O17  1  0.30754000  0.52164800  0.40552100  1
  O  O18  1  0.19246000  0.52164800  0.90552100  1
  O  O19  1  0.69246000  0.47835200  0.59447900  1
  O  O20  1  0.86076300  0.61335900  0.42902500  1
  O  O21  1  0.36076300  0.38664100  0.07097500  1
  O  O22  1  0.13923700  0.38664100  0.57097500  1
  O  O23  1  0.63923700  0.61335900  0.92902500  1
  O  O24  1  0.59027200  0.81248900  0.03535700  1
  O  O25  1  0.09027200  0.18751100  0.46464300  1
  O  O26  1  0.40972800  0.18751100  0.96464300  1
  O  O27  1  0.90972800  0.81248900  0.53535700  1
  O  O28  1  0.56153300  0.88494700  0.46209700  1
  O  O29  1  0.06153300  0.11505300  0.03790300  1
  O  O30  1  0.43846700  0.11505300  0.53790300  1
  O  O31  1  0.93846700  0.88494700  0.96209700  1
  O  O32  1  0.99020700  0.40312300  0.27666300  1
  O  O33  1  0.49020700  0.59687700  0.22333700  1
  O  O34  1  0.00979300  0.59687700  0.72333700  1
  O  O35  1  0.50979300  0.40312300  0.77666300  1
  O  O36  1  0.97152400  0.92849600  0.23076000  1
  O  O37  1  0.47152400  0.07150400  0.26924000  1
  O  O38  1  0.02847600  0.07150400  0.76924000  1
  O  O39  1  0.52847600  0.92849600  0.73076000  1
  O  O40  1  0.59742800  0.23660100  0.33463100  1
  O  O41  1  0.09742800  0.76339900  0.16536900  1
  O  O42  1  0.40257200  0.76339900  0.66536900  1
  O  O43  1  0.90257200  0.23660100  0.83463100  1
  O  O44  1  0.59390500  0.90663700  0.16315000  1
  O  O45  1  0.09390500  0.09336300  0.33685000  1
  O  O46  1  0.40609500  0.09336300  0.83685000  1
  O  O47  1  0.90609500  0.90663700  0.66315000  1
loop_
_geom_bond_atom_site_label_1
_geom_bond_atom_site_label_2
_geom_bond_distance
_geom_bond_site_symmetry_2
Li0 O16 2.003959 1_555
Li0 O32 2.006035 1_555
Li0 O40 2.006389 1_555
Li0 O4 2.194643 1_555
Li1 O17 2.003959 1_555
Li1 O33 2.006035 1_555
Li1 O41 2.006389 1_555
Li1 O5 2.194643 1_555
Li2 O18 2.003959 1_555
Li2 O34 2.006035 1_555
Li2 O42 2.006389 1_555
Li2 O6 2.194643 1_555
Li3 O19 2.003959 1_555
Li3 O35 2.006035 1_555
Li3 O43 2.006389 1_555
Li3 O7 2.194643 1_555
Li4 O0 1.951011 1_555
Li4 O20 1.995179 1_555
Li4 O32 2.283156 1_555
Li4 O41 2.331771 1_655
Li4 O36 2.352352 1_555
Li5 O1 1.951011 1_555
Li5 O21 1.995179 1_555
Li5 O33 2.283156 1_555
Li5 O40 2.331771 1_555
Li5 O37 2.352352 1_555
Li6 O2 1.951011 1_555
Li6 O22 1.995179 1_555
Li6 O34 2.283156 1_555
Li6 O43 2.331771 1_455
Li6 O38 2.352352 1_555
Li7 O3 1.951011 1_555
Li7 O23 1.995179 1_555
Li7 O35 2.283156 1_555
Li7 O42 2.331771 1_555
Li7 O39 2.352352 1_555
Li8 O36 1.979377 1_545
Li8 O12 1.992891 1_555
Li8 O44 2.008807 1_545
Li8 O4 2.035188 1_555
Li9 O37 1.979377 1_565
Li9 O13 1.992891 1_555
Li9 O45 2.008807 1_565
Li9 O5 2.035188 1_555
Li10 O38 1.979377 1_565
Li10 O14 1.992891 1_555
Li10 O46 2.008807 1_565
Li10 O6 2.035188 1_555
Li11 O39 1.979377 1_545
Li11 O15 1.992891 1_555
Li11 O47 2.008807 1_545
Li11 O7 2.035188 1_555
O0 P4 1.552042 1_555
O0 Sc0 2.232886 1_555
O1 P5 1.552042 1_555
O1 Sc1 2.232886 1_555
O2 P6 1.552042 1_555
O2 Sc2 2.232886 1_555
O3 P7 1.552042 1_555
O3 Sc3 2.232886 1_555
O4 P8 1.562924 1_555
O4 Sc4 2.190883 1_545
O5 P9 1.562924 1_555
O5 Sc5 2.190883 1_565
O6 P10 1.562924 1_555
O6 Sc6 2.190883 1_565
O7 P11 1.562924 1_555
O7 Sc7 2.190883 1_545
O8 P3 1.534489 1_555
O8 Sc1 1.989355 1_555
O9 P2 1.534489 1_554
O9 Sc0 1.989355 1_455
O10 P1 1.534489 1_555
O10 Sc3 1.989355 1_555
O11 P0 1.534489 1_556
O11 Sc2 1.989355 1_655
O12 P0 1.550891 1_555
O12 Sc5 2.085545 1_555
O13 P1 1.550891 1_555
O13 Sc4 2.085545 1_455
O14 P2 1.550891 1_555
O14 Sc7 2.085545 1_555
O15 P3 1.550891 1_555
O15 Sc6 2.085545 1_655
O16 P0 1.549564 1_555
O16 Sc0 2.102752 1_555
O17 P1 1.549564 1_555
O17 Sc1 2.102752 1_555
O18 P2 1.549564 1_555
O18 Sc2 2.102752 1_555
O19 P3 1.549564 1_555
O19 Sc3 2.102752 1_555
O20 P3 1.554371 1_555
O20 Sc4 2.122380 1_555
O21 P2 1.554371 1_554
O21 Sc5 2.122380 1_555
O22 P1 1.554371 1_555
O22 Sc6 2.122380 1_555
O23 P0 1.554371 1_556
O23 Sc7 2.122380 1_555
O24 P4 1.541080 1_555
O24 Sc7 1.984400 1_554
O25 P5 1.541080 1_555
O25 Sc6 1.984400 1_555
O26 P6 1.541080 1_555
O26 Sc5 1.984400 1_556
O27 P7 1.541080 1_555
O27 Sc4 1.984400 1_555
O28 P8 1.522465 1_565
O28 Sc3 2.013657 1_555
O29 P9 1.522465 1_545
O29 Sc2 2.013657 1_554
O30 P10 1.522465 1_545
O30 Sc1 2.013657 1_555
O31 P11 1.522465 1_565
O31 Sc0 2.013657 1_556
O32 P5 1.566456 1_655
O32 Sc0 2.215255 1_555
O33 P4 1.566456 1_555
O33 Sc1 2.215255 1_555
O34 P7 1.566456 1_455
O34 Sc2 2.215255 1_555
O35 P6 1.566456 1_555
O35 Sc3 2.215255 1_555
O36 P9 1.554543 1_655
O36 Sc4 2.202876 1_555
O37 P8 1.554543 1_555
O37 Sc5 2.202876 1_555
O38 P11 1.554543 1_455
O38 Sc6 2.202876 1_555
O39 P10 1.554543 1_555
O39 Sc7 2.202876 1_555
O40 P8 1.563220 1_555
O40 Sc1 2.145158 1_555
O41 P9 1.563220 1_555
O41 Sc0 2.145158 1_455
O42 P10 1.563220 1_555
O42 Sc3 2.145158 1_555
O43 P11 1.563220 1_555
O43 Sc2 2.145158 1_655
O44 P4 1.552201 1_555
O44 Sc5 2.129482 1_565
O45 P5 1.552201 1_555
O45 Sc4 2.129482 1_445
O46 P6 1.552201 1_555
O46 Sc7 2.129482 1_545
O47 P7 1.552201 1_555
O47 Sc6 2.129482 1_665
