# generated using pymatgen
data_Yb5Cu11Sn8
_symmetry_space_group_name_H-M   'P 1'
_cell_length_a   4.42950400
_cell_length_b   9.28474100
_cell_length_c   22.80765200
_cell_angle_alpha   90.00000000
_cell_angle_beta   90.00000000
_cell_angle_gamma   90.00000000
_symmetry_Int_Tables_number   1
_chemical_formula_structural   Yb5Cu11Sn8
_chemical_formula_sum   'Yb10 Cu22 Sn16'
_cell_volume   938.00568294
_cell_formula_units_Z   2
loop_
 _symmetry_equiv_pos_site_id
 _symmetry_equiv_pos_as_xyz
  1  'x, y, z'
loop_
 _atom_site_type_symbol
 _atom_site_label
 _atom_site_symmetry_multiplicity
 _atom_site_fract_x
 _atom_site_fract_y
 _atom_site_fract_z
 _atom_site_occupancy
  Yb  Yb0  1  0.50000000  0.76366400  0.50000000  1
  Yb  Yb1  1  0.00000000  0.25881700  0.78878900  1
  Yb  Yb2  1  0.50000000  0.74118300  0.71121100  1
  Yb  Yb3  1  0.50000000  0.70774900  0.90546900  1
  Yb  Yb4  1  0.00000000  0.29225100  0.59453100  1
  Yb  Yb5  1  0.00000000  0.25881700  0.21121100  1
  Yb  Yb6  1  0.00000000  0.29225100  0.40546900  1
  Yb  Yb7  1  0.50000000  0.70774900  0.09453100  1
  Yb  Yb8  1  0.00000000  0.23633600  0.00000000  1
  Yb  Yb9  1  0.50000000  0.74118300  0.28878900  1
  Cu  Cu0  1  0.50000000  0.53514200  0.39379100  1
  Cu  Cu1  1  0.50000000  0.48721700  0.80767700  1
  Cu  Cu2  1  0.00000000  0.46485800  0.89379100  1
  Cu  Cu3  1  0.50000000  0.45411600  0.00000000  1
  Cu  Cu4  1  0.00000000  0.97469800  0.44584500  1
  Cu  Cu5  1  0.50000000  0.02530200  0.05415500  1
  Cu  Cu6  1  0.50000000  0.08142400  0.71890800  1
  Cu  Cu7  1  0.50000000  0.02579200  0.61027100  1
  Cu  Cu8  1  0.00000000  0.97420800  0.88972900  1
  Cu  Cu9  1  0.00000000  0.51278300  0.30767700  1
  Cu  Cu10  1  0.00000000  0.51278300  0.69232300  1
  Cu  Cu11  1  0.00000000  0.91857600  0.21890800  1
  Cu  Cu12  1  0.00000000  0.91857600  0.78109200  1
  Cu  Cu13  1  0.50000000  0.02530200  0.94584500  1
  Cu  Cu14  1  0.00000000  0.54588400  0.50000000  1
  Cu  Cu15  1  0.50000000  0.53514200  0.60620900  1
  Cu  Cu16  1  0.50000000  0.02579200  0.38972900  1
  Cu  Cu17  1  0.50000000  0.48721700  0.19232300  1
  Cu  Cu18  1  0.50000000  0.08142400  0.28109200  1
  Cu  Cu19  1  0.00000000  0.46485800  0.10620900  1
  Cu  Cu20  1  0.00000000  0.97469800  0.55415500  1
  Cu  Cu21  1  0.00000000  0.97420800  0.11027100  1
  Sn  Sn0  1  0.50000000  0.36215100  0.69839300  1
  Sn  Sn1  1  0.00000000  0.63784900  0.80160700  1
  Sn  Sn2  1  0.50000000  0.30204700  0.10220800  1
  Sn  Sn3  1  0.50000000  0.01605100  0.16966600  1
  Sn  Sn4  1  0.50000000  0.09738800  0.50000000  1
  Sn  Sn5  1  0.00000000  0.63784900  0.19839300  1
  Sn  Sn6  1  0.00000000  0.98394900  0.33033400  1
  Sn  Sn7  1  0.00000000  0.69795300  0.60220800  1
  Sn  Sn8  1  0.00000000  0.98394900  0.66966600  1
  Sn  Sn9  1  0.00000000  0.59278300  0.00000000  1
  Sn  Sn10  1  0.00000000  0.69795300  0.39779200  1
  Sn  Sn11  1  0.00000000  0.90261200  0.00000000  1
  Sn  Sn12  1  0.50000000  0.30204700  0.89779200  1
  Sn  Sn13  1  0.50000000  0.01605100  0.83033400  1
  Sn  Sn14  1  0.50000000  0.40721700  0.50000000  1
  Sn  Sn15  1  0.50000000  0.36215100  0.30160700  1
loop_
_geom_bond_atom_site_label_1
_geom_bond_atom_site_label_2
_geom_bond_distance
_geom_bond_site_symmetry_2
Cu0 Sn15 2.645810 1_555
Cu0 Sn10 2.683014 1_555
Cu0 Sn10 2.683014 1_655
Cu0 Sn14 2.697900 1_555
Cu0 Yb9 3.065129 1_555
Cu0 Yb6 3.172051 1_555
Cu0 Yb6 3.172051 1_655
Cu0 Yb0 3.220219 1_555
Cu1 Sn1 2.623036 1_655
Cu1 Sn1 2.623036 1_555
Cu1 Sn12 2.679579 1_555
Cu1 Sn0 2.749729 1_555
Cu1 Yb3 3.027756 1_555
Cu1 Yb1 3.096417 1_555
Cu1 Yb1 3.096417 1_655
Cu1 Yb2 3.225046 1_555
Cu2 Sn1 2.645810 1_555
Cu2 Sn12 2.683014 1_555
Cu2 Sn12 2.683014 1_455
Cu2 Sn9 2.697900 1_556
Cu2 Yb1 3.065129 1_555
Cu2 Yb3 3.172051 1_455
Cu2 Yb3 3.172051 1_555
Cu2 Yb8 3.220219 1_556
Cu3 Sn9 2.561786 1_655
Cu3 Sn9 2.561786 1_555
Cu3 Sn12 2.725374 1_554
Cu3 Sn2 2.725374 1_555
Cu3 Yb8 2.998956 1_555
Cu3 Yb8 2.998956 1_655
Cu3 Yb7 3.192820 1_555
Cu3 Yb3 3.192820 1_554
Cu4 Sn6 2.635934 1_555
Cu4 Sn4 2.779994 1_565
Cu4 Sn4 2.779994 1_465
Cu4 Sn10 2.793479 1_555
Cu4 Yb6 3.088862 1_565
Cu4 Yb0 3.204676 1_455
Cu4 Yb0 3.204676 1_555
Cu5 Sn3 2.635934 1_555
Cu5 Sn11 2.779994 1_545
Cu5 Sn11 2.779994 1_645
Cu5 Sn2 2.793479 1_555
Cu5 Yb7 3.088862 1_545
Cu5 Yb8 3.204676 1_555
Cu5 Yb8 3.204676 1_655
Cu6 Cu7 2.531022 1_555
Cu6 Sn13 2.612844 1_555
Cu6 Sn8 2.643019 1_645
Cu6 Sn8 2.643019 1_545
Cu6 Sn0 2.648142 1_555
Cu6 Yb2 3.163924 1_545
Cu6 Yb1 3.187187 1_555
Cu6 Yb1 3.187187 1_655
Cu7 Sn4 2.601390 1_555
Cu7 Sn8 2.625103 1_645
Cu7 Sn8 2.625103 1_545
Cu7 Yb4 3.339864 1_555
Cu7 Yb4 3.339864 1_655
Cu7 Yb0 3.499811 1_545
Cu7 Yb2 3.504720 1_545
Cu8 Sn11 2.601390 1_556
Cu8 Sn13 2.625103 1_465
Cu8 Sn13 2.625103 1_565
Cu8 Yb3 3.339864 1_455
Cu8 Yb3 3.339864 1_555
Cu8 Yb8 3.499811 1_566
Cu8 Yb1 3.504720 1_565
Cu9 Sn15 2.623036 1_555
Cu9 Sn15 2.623036 1_455
Cu9 Sn10 2.679579 1_555
Cu9 Sn5 2.749729 1_555
Cu9 Yb6 3.027756 1_555
Cu9 Yb9 3.096417 1_455
Cu9 Yb9 3.096417 1_555
Cu9 Yb5 3.225046 1_555
Cu10 Sn0 2.623036 1_555
Cu10 Sn0 2.623036 1_455
Cu10 Sn7 2.679579 1_555
Cu10 Sn1 2.749729 1_555
Cu10 Yb4 3.027756 1_555
Cu10 Yb2 3.096417 1_455
Cu10 Yb2 3.096417 1_555
Cu10 Yb1 3.225046 1_555
Cu11 Cu21 2.531022 1_555
Cu11 Sn6 2.612844 1_555
Cu11 Sn3 2.643019 1_465
Cu11 Sn3 2.643019 1_565
Cu11 Sn5 2.648142 1_555
Cu11 Yb5 3.163924 1_565
Cu11 Yb9 3.187187 1_555
Cu11 Yb9 3.187187 1_455
Cu12 Cu8 2.531022 1_555
Cu12 Sn8 2.612844 1_555
Cu12 Sn13 2.643019 1_565
Cu12 Sn13 2.643019 1_465
Cu12 Sn1 2.648142 1_555
Cu12 Yb1 3.163924 1_565
Cu12 Yb2 3.187187 1_455
Cu12 Yb2 3.187187 1_555
Cu13 Cu5 2.470297 1_556
Cu13 Cu8 2.601587 1_645
Cu13 Cu8 2.601587 1_545
Cu13 Sn13 2.635934 1_555
Cu13 Sn11 2.779994 1_646
Cu13 Sn11 2.779994 1_546
Cu13 Sn12 2.793479 1_555
Cu13 Yb3 3.088862 1_545
Cu13 Yb8 3.204676 1_656
Cu13 Yb8 3.204676 1_556
Cu14 Sn14 2.561786 1_555
Cu14 Sn14 2.561786 1_455
Cu14 Sn7 2.725374 1_555
Cu14 Sn10 2.725374 1_555
Cu14 Yb0 2.998956 1_555
Cu14 Yb0 2.998956 1_455
Cu14 Yb6 3.192820 1_555
Cu14 Yb4 3.192820 1_555
Cu15 Sn0 2.645810 1_555
Cu15 Sn7 2.683014 1_655
Cu15 Sn7 2.683014 1_555
Cu15 Sn14 2.697900 1_555
Cu15 Yb2 3.065129 1_555
Cu15 Yb4 3.172051 1_555
Cu15 Yb4 3.172051 1_655
Cu15 Yb0 3.220219 1_555
Cu16 Cu18 2.531022 1_555
Cu16 Sn4 2.601390 1_555
Cu16 Cu4 2.601587 1_645
Cu16 Cu4 2.601587 1_545
Cu16 Sn6 2.625103 1_645
Cu16 Sn6 2.625103 1_545
Cu16 Yb6 3.339864 1_655
Cu16 Yb6 3.339864 1_555
Cu16 Yb0 3.499811 1_545
Cu16 Yb9 3.504720 1_545
Cu17 Sn5 2.623036 1_555
Cu17 Sn5 2.623036 1_655
Cu17 Sn2 2.679579 1_555
Cu17 Sn15 2.749729 1_555
Cu17 Yb7 3.027756 1_555
Cu17 Yb5 3.096417 1_555
Cu17 Yb5 3.096417 1_655
Cu17 Yb9 3.225046 1_555
Cu18 Sn3 2.612844 1_555
Cu18 Sn6 2.643019 1_645
Cu18 Sn6 2.643019 1_545
Cu18 Sn15 2.648142 1_555
Cu18 Yb9 3.163924 1_545
Cu18 Yb5 3.187187 1_655
Cu18 Yb5 3.187187 1_555
Cu19 Sn5 2.645810 1_555
Cu19 Sn2 2.683014 1_555
Cu19 Sn2 2.683014 1_455
Cu19 Sn9 2.697900 1_555
Cu19 Yb5 3.065129 1_555
Cu19 Yb7 3.172051 1_555
Cu19 Yb7 3.172051 1_455
Cu19 Yb8 3.220219 1_555
Cu20 Cu4 2.470297 1_555
Cu20 Cu7 2.601587 1_565
Cu20 Cu7 2.601587 1_465
Cu20 Sn8 2.635934 1_555
Cu20 Sn4 2.779994 1_465
Cu20 Sn4 2.779994 1_565
Cu20 Sn7 2.793479 1_555
Cu20 Yb4 3.088862 1_565
Cu20 Yb0 3.204676 1_455
Cu20 Yb0 3.204676 1_555
Cu21 Sn11 2.601390 1_555
Cu21 Cu5 2.601587 1_465
Cu21 Cu5 2.601587 1_565
Cu21 Sn3 2.625103 1_465
Cu21 Sn3 2.625103 1_565
Cu21 Yb7 3.339864 1_555
Cu21 Yb7 3.339864 1_455
Cu21 Yb8 3.499811 1_565
Cu21 Yb5 3.504720 1_565
Sn0 Yb1 3.174322 1_555
Sn0 Yb1 3.174322 1_655
Sn0 Yb4 3.307231 1_555
Sn0 Yb4 3.307231 1_655
Sn0 Yb2 3.531336 1_555
Sn1 Yb2 3.174322 1_455
Sn1 Yb2 3.174322 1_555
Sn1 Yb3 3.307231 1_555
Sn1 Yb3 3.307231 1_455
Sn1 Yb1 3.531336 1_555
Sn2 Sn3 3.068926 1_555
Sn2 Yb8 3.272843 1_555
Sn2 Yb8 3.272843 1_655
Sn2 Yb5 3.353645 1_555
Sn2 Yb5 3.353645 1_655
Sn3 Yb5 3.299026 1_655
Sn3 Yb5 3.299026 1_555
Sn3 Yb7 3.336246 1_545
Sn3 Yb9 3.727564 1_545
Sn4 Yb0 3.098541 1_545
Sn4 Yb6 3.581478 1_555
Sn4 Yb6 3.581478 1_655
Sn4 Yb4 3.581478 1_555
Sn4 Yb4 3.581478 1_655
Sn5 Yb9 3.174322 1_555
Sn5 Yb9 3.174322 1_455
Sn5 Yb7 3.307231 1_455
Sn5 Yb7 3.307231 1_555
Sn5 Yb5 3.531336 1_555
Sn6 Yb9 3.299026 1_455
Sn6 Yb9 3.299026 1_555
Sn6 Yb6 3.336246 1_565
Sn6 Yb5 3.727564 1_565
Sn7 Sn8 3.068926 1_555
Sn7 Yb0 3.272843 1_555
Sn7 Yb0 3.272843 1_455
Sn7 Yb2 3.353645 1_555
Sn7 Yb2 3.353645 1_455
Sn8 Yb2 3.299026 1_455
Sn8 Yb2 3.299026 1_555
Sn8 Yb4 3.336246 1_565
Sn8 Yb1 3.727564 1_565
Sn9 Yb7 3.270015 1_455
Sn9 Yb7 3.270015 1_555
Sn9 Yb3 3.270015 1_554
Sn9 Yb3 3.270015 1_454
Sn9 Yb8 3.309518 1_555
Sn10 Sn6 3.068926 1_555
Sn10 Yb0 3.272843 1_455
Sn10 Yb0 3.272843 1_555
Sn10 Yb9 3.353645 1_455
Sn10 Yb9 3.353645 1_555
Sn11 Sn9 2.876682 1_555
Sn11 Yb8 3.098541 1_565
Sn11 Yb7 3.581478 1_555
Sn11 Yb7 3.581478 1_455
Sn11 Yb3 3.581478 1_554
Sn11 Yb3 3.581478 1_454
Sn12 Sn13 3.068926 1_555
Sn12 Yb8 3.272843 1_556
Sn12 Yb8 3.272843 1_656
Sn12 Yb1 3.353645 1_555
Sn12 Yb1 3.353645 1_655
Sn13 Yb1 3.299026 1_655
Sn13 Yb1 3.299026 1_555
Sn13 Yb3 3.336246 1_545
Sn13 Yb2 3.727564 1_545
Sn14 Sn4 2.876682 1_555
Sn14 Yb6 3.270015 1_555
Sn14 Yb6 3.270015 1_655
Sn14 Yb4 3.270015 1_555
Sn14 Yb4 3.270015 1_655
Sn14 Yb0 3.309518 1_555
Sn15 Yb5 3.174322 1_555
Sn15 Yb5 3.174322 1_655
Sn15 Yb6 3.307231 1_555
Sn15 Yb6 3.307231 1_655
Sn15 Yb9 3.531336 1_555
