# generated using pymatgen
data_Hf6Co16Si7
_symmetry_space_group_name_H-M   'P 1'
_cell_length_a   7.98104518
_cell_length_b   7.98105148
_cell_length_c   7.98106493
_cell_angle_alpha   59.99976249
_cell_angle_beta   59.99973667
_cell_angle_gamma   59.99976170
_symmetry_Int_Tables_number   1
_chemical_formula_structural   Hf6Co16Si7
_chemical_formula_sum   'Hf6 Co16 Si7'
_cell_volume   359.47053745
_cell_formula_units_Z   1
loop_
 _symmetry_equiv_pos_site_id
 _symmetry_equiv_pos_as_xyz
  1  'x, y, z'
loop_
 _atom_site_type_symbol
 _atom_site_label
 _atom_site_symmetry_multiplicity
 _atom_site_fract_x
 _atom_site_fract_y
 _atom_site_fract_z
 _atom_site_occupancy
  Hf  Hf0  1  0.20703777  0.79296081  0.79296048  1
  Hf  Hf1  1  0.79296135  0.79295902  0.20703962  1
  Hf  Hf2  1  0.79296163  0.20703879  0.20704179  1
  Hf  Hf3  1  0.20703997  0.20703991  0.79296072  1
  Hf  Hf4  1  0.79296127  0.20703823  0.79295872  1
  Hf  Hf5  1  0.20703844  0.79296103  0.20704124  1
  Co  Co0  1  0.61970407  0.61970401  0.14088931  1
  Co  Co1  1  0.17265896  0.48202405  0.17265959  1
  Co  Co2  1  0.85910972  0.38029633  0.38029622  1
  Co  Co3  1  0.51797693  0.82734082  0.82734070  1
  Co  Co4  1  0.48202288  0.17265898  0.17266025  1
  Co  Co5  1  0.82734130  0.82734117  0.51797480  1
  Co  Co6  1  0.17265887  0.17265853  0.48202593  1
  Co  Co7  1  0.14089052  0.61970582  0.61970135  1
  Co  Co8  1  0.17265783  0.17265722  0.17265754  1
  Co  Co9  1  0.38029608  0.38029708  0.85911028  1
  Co  Co10  1  0.61970424  0.61970396  0.61970200  1
  Co  Co11  1  0.38029505  0.85911144  0.38029635  1
  Co  Co12  1  0.38029586  0.38029736  0.38029544  1
  Co  Co13  1  0.82734211  0.82734195  0.82734234  1
  Co  Co14  1  0.61970548  0.14089103  0.61970127  1
  Co  Co15  1  0.82734136  0.51797617  0.82734084  1
  Si  Si0  1  0.50000126  -0.00000102  0.50000275  1
  Si  Si1  1  0.50000212  0.50000147  -0.00000164  1
  Si  Si2  1  0.50000048  0.49999891  0.50000043  1
  Si  Si3  1  -0.00000353  -0.00000168  0.50000314  1
  Si  Si4  1  -0.00000224  0.50000201  -0.00000248  1
  Si  Si5  1  -0.00000203  0.50000110  0.50000305  1
  Si  Si6  1  0.50000224  -0.00000151  -0.00000302  1
loop_
_geom_bond_atom_site_label_1
_geom_bond_atom_site_label_2
_geom_bond_distance
_geom_bond_site_symmetry_2
Hf0 Si4 2.863076 1_556
Hf0 Si3 2.863078 1_565
Hf0 Si0 2.863087 1_565
Hf0 Si1 2.863094 1_556
Hf1 Si4 2.863080 1_655
Hf1 Si5 2.863083 1_655
Hf1 Si6 2.863093 1_565
Hf1 Si0 2.863098 1_565
Hf2 Si3 2.863065 1_655
Hf2 Si4 2.863076 1_655
Hf2 Si0 2.863080 1_555
Hf2 Si1 2.863096 1_555
Hf3 Si0 2.863075 1_555
Hf3 Si6 2.863076 1_556
Hf3 Si4 2.863078 1_556
Hf3 Si5 2.863079 1_555
Hf4 Si3 2.863061 1_655
Hf4 Si6 2.863074 1_556
Hf4 Si5 2.863075 1_655
Hf4 Si1 2.863096 1_556
Hf5 Si3 2.863081 1_565
Hf5 Si5 2.863082 1_555
Hf5 Si6 2.863087 1_565
Hf5 Si1 2.863094 1_555
Co0 Si2 2.340145 1_555
Co0 Si4 2.480097 1_655
Co0 Si6 2.480105 1_565
Co0 Si1 2.480124 1_555
Co0 Co13 2.491356 1_554
Co0 Co3 2.491366 1_554
Co0 Co15 2.491367 1_554
Co0 Co2 2.702154 1_555
Co0 Co12 2.702164 1_555
Co0 Co11 2.702165 1_555
Co0 Hf1 2.734034 1_555
Co0 Hf2 2.734037 1_555
Co0 Hf5 2.734038 1_555
Co1 Si1 2.306916 1_555
Co1 Si5 2.306922 1_555
Co1 Si4 2.306943 1_555
Co1 Co4 2.469044 1_555
Co1 Co6 2.469059 1_555
Co1 Co8 2.469085 1_555
Co1 Co12 2.491350 1_555
Co1 Co2 2.491367 1_455
Co1 Co9 2.491369 1_554
Co1 Hf1 2.783162 1_455
Co1 Hf0 2.783179 1_554
Co1 Hf5 2.783184 1_555
Co2 Si2 2.340126 1_555
Co2 Si3 2.480126 1_655
Co2 Si4 2.480134 1_655
Co2 Si5 2.480151 1_655
Co2 Co8 2.491366 1_655
Co2 Co6 2.491376 1_655
Co2 Hf2 2.734021 1_555
Co2 Hf1 2.734025 1_555
Co2 Hf4 2.734028 1_555
Co3 Si0 2.306881 1_565
Co3 Si1 2.306885 1_556
Co3 Si6 2.306894 1_566
Co3 Co5 2.469050 1_555
Co3 Hf3 2.783176 1_565
Co3 Hf5 2.783190 1_556
Co3 Hf0 2.783195 1_555
Co4 Si1 2.306918 1_555
Co4 Si0 2.306920 1_555
Co4 Si6 2.306942 1_555
Co4 Co6 2.469048 1_555
Co4 Co8 2.469074 1_555
Co4 Co9 2.491374 1_554
Co4 Hf1 2.783185 1_545
Co4 Hf4 2.783194 1_554
Co4 Hf2 2.783198 1_555
Co5 Si0 2.306881 1_565
Co5 Si5 2.306882 1_655
Co5 Si3 2.306892 1_665
Co5 Co7 2.491364 1_655
Co5 Hf5 2.783156 1_655
Co5 Hf2 2.783159 1_565
Co5 Hf1 2.783179 1_555
Co6 Si0 2.306910 1_555
Co6 Si5 2.306913 1_555
Co6 Si3 2.306940 1_555
Co6 Co8 2.469099 1_555
Co6 Hf4 2.783156 1_455
Co6 Hf0 2.783165 1_545
Co6 Hf3 2.783177 1_555
Co7 Si2 2.340131 1_555
Co7 Si3 2.480093 1_565
Co7 Si4 2.480119 1_556
Co7 Si5 2.480125 1_555
Co7 Co9 2.702165 1_555
Co7 Hf5 2.734013 1_555
Co7 Hf0 2.734031 1_555
Co7 Hf3 2.734046 1_555
Co8 Si6 2.306916 1_555
Co8 Si4 2.306922 1_555
Co8 Si3 2.306926 1_555
Co8 Co9 2.491365 1_554
Co8 Hf2 2.783148 1_455
Co8 Hf5 2.783155 1_545
Co8 Hf3 2.783163 1_554
Co9 Si2 2.340136 1_555
Co9 Si4 2.480126 1_556
Co9 Si6 2.480130 1_556
Co9 Si1 2.480143 1_556
Co9 Hf0 2.734031 1_555
Co9 Hf4 2.734036 1_555
Co9 Hf3 2.734036 1_555
Co10 Si2 2.340148 1_555
Co10 Si5 2.480098 1_655
Co10 Si0 2.480109 1_565
Co10 Si1 2.480121 1_556
Co10 Co5 2.491356 1_555
Co10 Co3 2.491368 1_555
Co10 Co15 2.491369 1_555
Co10 Co2 2.702159 1_555
Co10 Co9 2.702165 1_555
Co10 Co11 2.702167 1_555
Co10 Hf1 2.734022 1_555
Co10 Hf4 2.734040 1_555
Co10 Hf0 2.734043 1_555
Co11 Si2 2.340150 1_555
Co11 Si3 2.480127 1_565
Co11 Si6 2.480138 1_565
Co11 Si0 2.480153 1_565
Co11 Co8 2.491354 1_565
Co11 Co4 2.491358 1_565
Co11 Co6 2.491362 1_565
Co11 Co7 2.702137 1_555
Co11 Hf5 2.734032 1_555
Co11 Hf0 2.734036 1_555
Co11 Hf1 2.734042 1_555
Co12 Si2 2.340153 1_555
Co12 Si5 2.480123 1_555
Co12 Si1 2.480124 1_555
Co12 Si0 2.480129 1_555
Co12 Co4 2.491356 1_555
Co12 Co6 2.491357 1_555
Co12 Co7 2.702165 1_555
Co12 Co14 2.702171 1_555
Co12 Hf5 2.734026 1_555
Co12 Hf2 2.734036 1_555
Co12 Hf3 2.734039 1_555
Co13 Si3 2.306874 1_665
Co13 Si6 2.306875 1_566
Co13 Si4 2.306877 1_656
Co13 Co3 2.469069 1_555
Co13 Co15 2.469073 1_555
Co13 Co5 2.469089 1_555
Co13 Co7 2.491364 1_655
Co13 Co14 2.491370 1_565
Co13 Hf0 2.783152 1_655
Co13 Hf4 2.783155 1_565
Co13 Hf1 2.783171 1_556
Co14 Si2 2.340120 1_555
Co14 Si3 2.480080 1_655
Co14 Si6 2.480116 1_556
Co14 Si0 2.480120 1_555
Co14 Co5 2.491369 1_545
Co14 Co3 2.491378 1_545
Co14 Co2 2.702134 1_555
Co14 Co9 2.702168 1_555
Co14 Hf2 2.734008 1_555
Co14 Hf4 2.734024 1_555
Co14 Hf3 2.734041 1_555
Co15 Si5 2.306878 1_655
Co15 Si1 2.306882 1_556
Co15 Si4 2.306889 1_656
Co15 Co3 2.469044 1_555
Co15 Co5 2.469055 1_555
Co15 Co7 2.491374 1_655
Co15 Hf3 2.783171 1_655
Co15 Hf2 2.783190 1_556
Co15 Hf4 2.783197 1_555
