# generated using pymatgen
data_Mg3(TiAl9)2
_symmetry_space_group_name_H-M   'P 1'
_cell_length_a   10.35482037
_cell_length_b   10.35481991
_cell_length_c   10.35482064
_cell_angle_alpha   59.99663875
_cell_angle_beta   59.99663835
_cell_angle_gamma   59.99663390
_symmetry_Int_Tables_number   1
_chemical_formula_structural   Mg3(TiAl9)2
_chemical_formula_sum   'Mg6 Ti4 Al36'
_cell_volume   785.01794831
_cell_formula_units_Z   2
loop_
 _symmetry_equiv_pos_site_id
 _symmetry_equiv_pos_as_xyz
  1  'x, y, z'
loop_
 _atom_site_type_symbol
 _atom_site_label
 _atom_site_symmetry_multiplicity
 _atom_site_fract_x
 _atom_site_fract_y
 _atom_site_fract_z
 _atom_site_occupancy
  Mg  Mg0  1  0.25000064  0.25000025  0.24999912  1
  Mg  Mg1  1  0.62501346  0.12499601  0.12499531  1
  Mg  Mg2  1  0.12499514  0.62501335  0.12499561  1
  Mg  Mg3  1  -0.00000062  -0.00000024  0.00000092  1
  Mg  Mg4  1  0.12499586  0.12499481  0.12499580  1
  Mg  Mg5  1  0.12499557  0.12499569  0.62501352  1
  Ti  Ti0  1  0.62499658  0.12501005  0.62499654  1
  Ti  Ti1  1  0.62499666  0.62499669  0.12501004  1
  Ti  Ti2  1  0.62499654  0.62499656  0.62499662  1
  Ti  Ti3  1  0.12501021  0.62499660  0.62499648  1
  Al  Al0  1  0.45033872  0.18178563  0.45033834  1
  Al  Al1  1  0.88866978  0.88866994  0.61133014  1
  Al  Al2  1  0.88867045  0.61132946  0.61132944  1
  Al  Al3  1  0.18178557  0.45033882  0.45033840  1
  Al  Al4  1  0.36151185  0.63848808  0.36151215  1
  Al  Al5  1  0.33265205  0.79965137  0.06804629  1
  Al  Al6  1  0.91753725  0.18178681  0.45033723  1
  Al  Al7  1  0.45033815  0.91753753  0.45033771  1
  Al  Al8  1  0.79965172  0.06804635  0.33265145  1
  Al  Al9  1  0.63848804  0.36151182  0.36151225  1
  Al  Al10  1  0.63848866  0.36151124  0.63848862  1
  Al  Al11  1  0.33265150  0.79965078  0.79965133  1
  Al  Al12  1  0.79965137  0.33265215  0.06804615  1
  Al  Al13  1  0.79965086  0.33265156  0.79965128  1
  Al  Al14  1  0.45033765  0.91753686  0.18178677  1
  Al  Al15  1  0.63848869  0.63848872  0.36151128  1
  Al  Al16  1  0.91753757  0.45033821  0.45033771  1
  Al  Al17  1  0.06804608  0.33265192  0.79965176  1
  Al  Al18  1  0.36151128  0.63848869  0.63848862  1
  Al  Al19  1  0.45033741  0.18178660  0.91753751  1
  Al  Al20  1  0.33265174  0.06804614  0.79965185  1
  Al  Al21  1  0.18178688  0.91753707  0.45033731  1
  Al  Al22  1  0.18178656  0.45033754  0.91753738  1
  Al  Al23  1  0.61132946  0.88867053  0.61132948  1
  Al  Al24  1  0.06804640  0.79965154  0.33265161  1
  Al  Al25  1  0.79965028  0.79965020  0.06804754  1
  Al  Al26  1  0.91753696  0.45033773  0.18178666  1
  Al  Al27  1  0.61133005  0.88867004  0.88866972  1
  Al  Al28  1  0.88866992  0.61133006  0.88866985  1
  Al  Al29  1  0.45033874  0.45033880  0.18178545  1
  Al  Al30  1  0.61132942  0.61132941  0.88867039  1
  Al  Al31  1  0.45033793  0.45033804  0.91753777  1
  Al  Al32  1  0.06804740  0.79965024  0.79965065  1
  Al  Al33  1  0.36151209  0.36151202  0.63848800  1
  Al  Al34  1  0.79965111  0.79965102  0.33265125  1
  Al  Al35  1  0.79965034  0.06804731  0.79965072  1
loop_
_geom_bond_atom_site_label_1
_geom_bond_atom_site_label_2
_geom_bond_distance
_geom_bond_site_symmetry_2
Mg0 Mg1 3.170477 1_555
Mg0 Mg2 3.170480 1_555
Mg0 Mg5 3.170491 1_555
Mg0 Mg4 3.170698 1_555
Mg1 Mg3 3.170250 1_655
Mg2 Mg3 3.170254 1_565
Mg3 Mg5 3.170263 1_554
Mg3 Mg4 3.170469 1_555
Al0 Al23 2.725620 1_545
Al0 Al7 2.736248 1_545
Al0 Al29 2.780677 1_555
Al0 Al3 2.780678 1_555
Al0 Ti0 2.834049 1_555
Al0 Al9 2.868309 1_555
Al0 Al33 2.868312 1_555
Al0 Al8 2.953303 1_555
Al0 Al20 2.953307 1_555
Al0 Mg1 3.128916 1_555
Al0 Mg5 3.128918 1_555
Al0 Mg0 3.237090 1_555
Al1 Ti0 2.596367 1_565
Al1 Ti3 2.596369 1_655
Al1 Al6 2.725689 1_565
Al1 Al21 2.725689 1_655
Al1 Al8 2.866043 1_565
Al1 Al24 2.866043 1_655
Al1 Al35 2.866128 1_565
Al1 Al32 2.866129 1_655
Al1 Al27 2.871656 1_555
Al1 Al28 2.871658 1_555
Al1 Al23 2.871810 1_555
Al1 Al2 2.871811 1_555
Al2 Ti2 2.596485 1_555
Al2 Ti3 2.596515 1_655
Al2 Al3 2.725619 1_655
Al2 Al24 2.865994 1_655
Al2 Al34 2.866039 1_555
Al2 Al30 2.871670 1_555
Al2 Al23 2.871670 1_555
Al2 Al28 2.871811 1_555
Al3 Ti3 2.834048 1_555
Al3 Al4 2.868309 1_555
Al3 Al33 2.868312 1_555
Al3 Mg2 3.128917 1_555
Al3 Mg5 3.128918 1_555
Al3 Mg0 3.237093 1_555
Al4 Ti3 2.596029 1_555
Al4 Ti1 2.596034 1_555
Al4 Al5 2.728777 1_555
Al4 Al9 2.867893 1_555
Al5 Ti1 2.833036 1_555
Al5 Mg4 3.129643 1_565
Al5 Mg2 3.129793 1_555
Al5 Mg3 3.237895 1_565
Al6 Ti0 2.833950 1_555
Al6 Al9 2.868221 1_555
Al6 Al8 2.953492 1_555
Al6 Mg4 3.128890 1_655
Al6 Mg5 3.129035 1_655
Al6 Mg0 3.236972 1_655
Al7 Ti2 2.833898 1_555
Al7 Mg1 3.128849 1_565
Al7 Mg5 3.128850 1_565
Al7 Mg0 3.236906 1_565
Al8 Al9 2.728777 1_555
Al8 Ti0 2.833040 1_555
Al8 Mg4 3.129645 1_655
Al8 Mg1 3.129786 1_555
Al8 Mg3 3.237882 1_655
Al9 Ti0 2.596030 1_555
Al9 Ti1 2.596035 1_555
Al10 Ti2 2.596150 1_555
Al10 Ti0 2.596178 1_555
Al10 Al35 2.728709 1_555
Al10 Al13 2.728890 1_555
Al10 Al18 2.867905 1_555
Al10 Al15 2.867906 1_555
Al10 Al9 2.868041 1_555
Al10 Al33 2.868042 1_555
Al10 Al6 2.868175 1_555
Al10 Al19 2.868177 1_555
Al10 Al16 2.868223 1_555
Al10 Al31 2.868224 1_555
Al11 Al18 2.728889 1_555
Al11 Al32 2.739934 1_555
Al11 Al5 2.779188 1_556
Al11 Al20 2.779190 1_565
Al11 Ti2 2.832988 1_555
Al11 Al30 2.866035 1_555
Al11 Al23 2.866039 1_555
Al11 Al31 2.953299 1_555
Al11 Al7 2.953306 1_555
Al11 Mg2 3.129603 1_556
Al11 Mg5 3.129605 1_565
Al11 Mg3 3.237836 1_566
Al12 Al9 2.728779 1_555
Al12 Al8 2.739804 1_555
Al12 Al17 2.779036 1_654
Al12 Al13 2.779186 1_554
Al12 Ti1 2.833036 1_555
Al12 Al30 2.865990 1_554
Al12 Al28 2.866038 1_554
Al12 Al29 2.953300 1_555
Al12 Al26 2.953491 1_555
Al12 Mg4 3.129653 1_655
Al12 Mg1 3.129786 1_555
Al12 Mg3 3.237892 1_655
Al13 Al35 2.739935 1_555
Al13 Al17 2.779189 1_655
Al13 Ti2 2.832988 1_555
Al13 Al30 2.866034 1_555
Al13 Al2 2.866037 1_555
Al13 Al31 2.953300 1_555
Al13 Al16 2.953306 1_555
Al13 Mg1 3.129598 1_556
Al13 Mg5 3.129604 1_655
Al13 Mg3 3.237832 1_656
Al14 Al27 2.725688 1_554
Al14 Al19 2.736117 1_564
Al14 Al21 2.780653 1_555
Al14 Al7 2.780803 1_555
Al14 Ti1 2.833945 1_555
Al14 Al15 2.868172 1_555
Al14 Al4 2.868221 1_555
Al14 Al25 2.953300 1_555
Al14 Al5 2.953490 1_555
Al14 Mg4 3.128889 1_565
Al14 Mg1 3.129037 1_565
Al14 Mg0 3.236967 1_565
Al15 Ti2 2.596149 1_555
Al15 Ti1 2.596178 1_555
Al15 Al25 2.728706 1_555
Al15 Al34 2.728887 1_555
Al15 Al18 2.867905 1_555
Al15 Al4 2.868044 1_555
Al15 Al9 2.868044 1_555
Al15 Al26 2.868173 1_555
Al15 Al7 2.868219 1_555
Al15 Al16 2.868220 1_555
Al16 Al2 2.725798 1_555
Al16 Al3 2.736247 1_655
Al16 Al26 2.780804 1_555
Al16 Al6 2.780806 1_555
Al16 Ti2 2.833898 1_555
Al16 Al34 2.953299 1_555
Al16 Mg2 3.128842 1_655
Al16 Mg5 3.128849 1_655
Al16 Mg0 3.236910 1_655
Al17 Al33 2.728779 1_555
Al17 Al20 2.739805 1_555
Al17 Ti3 2.833038 1_555
Al17 Al2 2.865992 1_455
Al17 Al28 2.866038 1_455
Al17 Al3 2.953306 1_555
Al17 Al22 2.953491 1_555
Al17 Mg4 3.129650 1_556
Al17 Mg5 3.129788 1_555
Al17 Mg3 3.237897 1_556
Al18 Ti2 2.596149 1_555
Al18 Ti3 2.596177 1_555
Al18 Al32 2.728709 1_555
Al18 Al4 2.868042 1_555
Al18 Al33 2.868043 1_555
Al18 Al21 2.868174 1_555
Al18 Al22 2.868176 1_555
Al18 Al7 2.868222 1_555
Al18 Al31 2.868223 1_555
Al19 Al27 2.725687 1_545
Al19 Al22 2.780655 1_555
Al19 Al31 2.780806 1_555
Al19 Ti0 2.833951 1_555
Al19 Al33 2.868225 1_555
Al19 Al35 2.953302 1_555
Al19 Al20 2.953492 1_555
Al19 Mg4 3.128890 1_556
Al19 Mg1 3.129031 1_556
Al19 Mg0 3.236958 1_556
Al20 Al33 2.728779 1_555
Al20 Al5 2.779037 1_546
Al20 Ti0 2.833039 1_555
Al20 Al23 2.865993 1_545
Al20 Al27 2.866038 1_545
Al20 Mg4 3.129644 1_556
Al20 Mg5 3.129788 1_555
Al20 Mg3 3.237897 1_556
Al21 Al6 2.736119 1_465
Al21 Al7 2.780805 1_555
Al21 Ti3 2.833947 1_555
Al21 Al4 2.868220 1_555
Al21 Al32 2.953306 1_555
Al21 Al24 2.953491 1_555
Al21 Mg4 3.128886 1_565
Al21 Mg5 3.129036 1_565
Al21 Mg0 3.236972 1_565
Al22 Al28 2.725687 1_455
Al22 Al26 2.736116 1_456
Al22 Al31 2.780806 1_555
Al22 Ti3 2.833950 1_555
Al22 Al33 2.868225 1_555
Al22 Al32 2.953300 1_555
Al22 Mg4 3.128896 1_556
Al22 Mg2 3.129029 1_556
Al22 Mg0 3.236961 1_556
Al23 Ti2 2.596486 1_555
Al23 Ti0 2.596512 1_565
Al23 Al7 2.725800 1_555
Al23 Al8 2.865995 1_565
Al23 Al34 2.866040 1_555
Al23 Al30 2.871670 1_555
Al23 Al27 2.871809 1_555
Al24 Al4 2.728776 1_555
Al24 Al5 2.739803 1_555
Al24 Al8 2.779038 1_465
Al24 Al34 2.779190 1_455
Al24 Ti3 2.833039 1_555
Al24 Al3 2.953300 1_555
Al24 Mg4 3.129641 1_565
Al24 Mg2 3.129789 1_555
Al24 Mg3 3.237885 1_565
Al25 Al34 2.739933 1_555
Al25 Al35 2.779061 1_564
Al25 Al32 2.779062 1_654
Al25 Ti1 2.833136 1_555
Al25 Al28 2.866126 1_554
Al25 Al27 2.866128 1_554
Al25 Al26 2.953298 1_555
Al25 Mg2 3.129672 1_655
Al25 Mg1 3.129679 1_565
Al25 Mg3 3.238014 1_665
Al26 Al28 2.725687 1_554
Al26 Al6 2.780653 1_555
Al26 Ti1 2.833946 1_555
Al26 Al9 2.868223 1_555
Al26 Mg4 3.128898 1_655
Al26 Mg2 3.129029 1_655
Al26 Mg0 3.236971 1_655
Al27 Ti0 2.596366 1_565
Al27 Ti1 2.596369 1_556
Al27 Al5 2.866040 1_556
Al27 Al35 2.866126 1_565
Al27 Al28 2.871659 1_555
Al27 Al30 2.871812 1_555
Al28 Ti1 2.596368 1_556
Al28 Ti3 2.596369 1_655
Al28 Al32 2.866126 1_655
Al28 Al30 2.871812 1_555
Al29 Al30 2.725618 1_554
Al29 Al31 2.736245 1_554
Al29 Al3 2.780677 1_555
Al29 Ti1 2.834047 1_555
Al29 Al4 2.868310 1_555
Al29 Al9 2.868311 1_555
Al29 Al5 2.953299 1_555
Al29 Mg1 3.128916 1_555
Al29 Mg2 3.128922 1_555
Al29 Mg0 3.237088 1_555
Al30 Ti2 2.596484 1_555
Al30 Ti1 2.596516 1_556
Al30 Al31 2.725796 1_555
Al30 Al5 2.865991 1_556
Al31 Ti2 2.833898 1_555
Al31 Mg1 3.128843 1_556
Al31 Mg2 3.128847 1_556
Al31 Mg0 3.236896 1_556
Al32 Al35 2.779062 1_465
Al32 Ti3 2.833141 1_555
Al32 Mg2 3.129671 1_556
Al32 Mg5 3.129677 1_565
Al32 Mg3 3.238018 1_566
Al33 Ti0 2.596031 1_555
Al33 Ti3 2.596031 1_555
Al33 Al9 2.867889 1_555
Al33 Al4 2.867891 1_555
Al34 Al8 2.779190 1_565
Al34 Ti2 2.832990 1_555
Al34 Al7 2.953301 1_555
Al34 Mg2 3.129600 1_655
Al34 Mg1 3.129605 1_565
Al34 Mg3 3.237821 1_665
Al35 Ti0 2.833142 1_555
Al35 Al6 2.953307 1_555
Al35 Mg1 3.129672 1_556
Al35 Mg5 3.129676 1_655
Al35 Mg3 3.238015 1_656
