# generated using pymatgen
data_Sc3Re2Si3
_symmetry_space_group_name_H-M   'P 1'
_cell_length_a   10.10995498
_cell_length_b   10.10995498
_cell_length_c   13.79794172
_cell_angle_alpha   52.98792092
_cell_angle_beta   52.98792092
_cell_angle_gamma   30.39024210
_symmetry_Int_Tables_number   1
_chemical_formula_structural   Sc3Re2Si3
_chemical_formula_sum   'Sc12 Re8 Si12'
_cell_volume   557.62908503
_cell_formula_units_Z   4
loop_
 _symmetry_equiv_pos_site_id
 _symmetry_equiv_pos_as_xyz
  1  'x, y, z'
loop_
 _atom_site_type_symbol
 _atom_site_label
 _atom_site_symmetry_multiplicity
 _atom_site_fract_x
 _atom_site_fract_y
 _atom_site_fract_z
 _atom_site_occupancy
  Sc  Sc0  1  0.35628900  0.88756300  0.78983100  1
  Sc  Sc1  1  0.65086800  0.67893500  0.38732000  1
  Sc  Sc2  1  0.11243700  0.64371100  0.21016900  1
  Sc  Sc3  1  0.90446900  0.96151800  0.38679000  1
  Sc  Sc4  1  0.12524900  0.68995100  0.91956800  1
  Sc  Sc5  1  0.32106500  0.34913200  0.61268000  1
  Sc  Sc6  1  0.16202300  0.11862800  0.25929800  1
  Sc  Sc7  1  0.88354200  0.43694200  0.88932800  1
  Sc  Sc8  1  0.88137200  0.83797700  0.74070200  1
  Sc  Sc9  1  0.31004900  0.87475100  0.08043200  1
  Sc  Sc10  1  0.56305800  0.11645800  0.11067200  1
  Sc  Sc11  1  0.03848200  0.09553100  0.61321000  1
  Re  Re0  1  0.52336700  0.55530600  0.31828200  1
  Re  Re1  1  0.44469400  0.47663300  0.68171800  1
  Re  Re2  1  0.68566100  0.27495400  0.16390200  1
  Re  Re3  1  0.67020400  0.80853600  0.04523900  1
  Re  Re4  1  0.42218500  0.04974000  0.53384900  1
  Re  Re5  1  0.72504600  0.31433900  0.83609800  1
  Re  Re6  1  0.95026000  0.57781500  0.46615100  1
  Re  Re7  1  0.19146400  0.32979600  0.95476100  1
  Si  Si0  1  0.46677200  0.53322800  0.00000000  1
  Si  Si1  1  0.98485000  0.35993800  0.68088500  1
  Si  Si2  1  0.97070300  0.02929700  0.00000000  1
  Si  Si3  1  0.20889700  0.23154400  0.37053000  1
  Si  Si4  1  0.60904400  0.15181400  0.87864000  1
  Si  Si5  1  0.84818600  0.39095600  0.12136000  1
  Si  Si6  1  0.76845600  0.79110300  0.62947000  1
  Si  Si7  1  0.57678600  0.63307200  0.63284400  1
  Si  Si8  1  0.73425600  0.26574400  0.50000000  1
  Si  Si9  1  0.23707400  0.76292600  0.50000000  1
  Si  Si10  1  0.36692800  0.42321400  0.36715600  1
  Si  Si11  1  0.64006200  0.01515000  0.31911500  1
loop_
_geom_bond_atom_site_label_1
_geom_bond_atom_site_label_2
_geom_bond_distance
_geom_bond_site_symmetry_2
Sc0 Si1 2.526340 1_465
Sc0 Si0 2.641863 1_556
Sc0 Si7 2.698611 1_555
Sc0 Si2 2.723026 1_466
Sc0 Si6 2.774388 1_555
Sc1 Si3 2.802299 1_565
Sc1 Si7 2.811716 1_555
Sc1 Si3 2.829331 1_655
Sc1 Si11 2.843130 1_565
Sc1 Si8 2.874225 1_555
Sc1 Si9 2.875689 1_555
Sc2 Si11 2.526340 1_465
Sc2 Si0 2.641863 1_555
Sc2 Si10 2.698611 1_555
Sc2 Si2 2.723026 1_465
Sc2 Si3 2.774388 1_555
Sc3 Si6 2.769365 1_555
Sc3 Si10 2.807538 1_565
Sc3 Si10 2.811352 1_655
Sc3 Si11 2.864742 1_565
Sc3 Si8 2.877193 1_565
Sc3 Si9 2.946020 1_655
Sc4 Si4 2.773235 1_465
Sc4 Si4 2.882161 1_555
Sc4 Si2 2.948166 1_466
Sc4 Si0 2.953306 1_556
Sc5 Si6 2.802299 1_455
Sc5 Si10 2.811716 1_555
Sc5 Si6 2.829331 1_545
Sc5 Si1 2.843130 1_455
Sc5 Si8 2.874225 1_555
Sc5 Si9 2.875689 1_555
Sc6 Si5 2.675946 1_455
Sc6 Si3 2.793152 1_555
Sc6 Si9 2.912951 1_545
Sc6 Si8 3.082703 1_455
Sc7 Si1 2.774981 1_555
Sc7 Si5 2.776826 1_556
Sc7 Si2 2.805536 1_556
Sc7 Si0 2.828460 1_556
Sc7 Si6 3.067378 1_555
Sc8 Si4 2.675946 1_565
Sc8 Si6 2.793152 1_555
Sc8 Si9 2.912951 1_655
Sc8 Si8 3.082703 1_565
Sc9 Si5 2.773235 1_465
Sc9 Si5 2.882161 1_555
Sc9 Si2 2.948166 1_465
Sc9 Si0 2.953306 1_555
Sc10 Si11 2.774981 1_555
Sc10 Si4 2.776826 1_554
Sc10 Si2 2.805536 1_555
Sc10 Si0 2.828460 1_555
Sc10 Si3 3.067378 1_555
Sc11 Si3 2.769365 1_555
Sc11 Si7 2.807538 1_455
Sc11 Si7 2.811352 1_545
Sc11 Si1 2.864742 1_455
Sc11 Si8 2.877193 1_455
Sc11 Si9 2.946020 1_545
Re0 Si10 2.452566 1_555
Re0 Si9 2.487537 1_555
Re0 Si5 2.491377 1_555
Re0 Si8 2.496696 1_555
Re0 Sc6 2.923791 1_565
Re0 Sc3 3.070182 1_545
Re0 Sc9 3.097779 1_555
Re0 Sc1 3.134098 1_555
Re0 Sc3 3.182971 1_455
Re0 Sc6 3.265656 1_655
Re1 Si7 2.452566 1_555
Re1 Si9 2.487537 1_555
Re1 Si4 2.491377 1_555
Re1 Si8 2.496696 1_555
Re1 Sc8 2.923791 1_455
Re1 Sc11 3.070182 1_655
Re1 Sc4 3.097779 1_555
Re1 Sc5 3.134098 1_555
Re1 Sc11 3.182971 1_565
Re1 Sc8 3.265656 1_545
Re2 Si5 2.398799 1_555
Re2 Si0 2.403478 1_555
Re2 Si11 2.413692 1_555
Re2 Si2 2.481046 1_555
Re2 Si10 2.518626 1_555
Re2 Sc3 2.959278 1_545
Re2 Sc2 3.004834 1_555
Re2 Sc9 3.106216 1_555
Re2 Sc7 3.177197 1_554
Re2 Sc9 3.215476 1_645
Re2 Sc10 3.253157 1_555
Re2 Sc2 3.264758 1_645
Re3 Si5 2.448511 1_555
Re3 Si4 2.472885 1_564
Re3 Sc9 2.828316 1_555
Re3 Sc10 2.840503 1_565
Re3 Re7 2.847178 1_654
Re3 Re7 2.847178 1_564
Re3 Sc4 2.998637 1_654
Re3 Sc6 3.168425 1_565
Re3 Sc8 3.330609 1_554
Re4 Si11 2.411211 1_555
Re4 Si7 2.517479 1_545
Re4 Si1 2.537502 1_455
Re4 Si6 2.539398 1_545
Re4 Si3 2.670609 1_555
Re4 Si10 2.703898 1_555
Re4 Re6 2.748844 1_455
Re4 Re6 2.748844 1_545
Re4 Sc0 2.772448 1_545
Re4 Sc5 2.945605 1_555
Re4 Sc11 2.976509 1_555
Re5 Si4 2.398799 1_555
Re5 Si0 2.403478 1_556
Re5 Si1 2.413692 1_555
Re5 Si2 2.481046 1_556
Re5 Si7 2.518626 1_555
Re5 Sc11 2.959278 1_655
Re5 Sc0 3.004834 1_555
Re5 Sc4 3.106216 1_555
Re5 Sc10 3.177197 1_556
Re5 Sc4 3.215476 1_645
Re5 Sc7 3.253157 1_555
Re5 Sc0 3.264758 1_645
Re6 Si1 2.411211 1_555
Re6 Si10 2.517479 1_655
Re6 Si11 2.537502 1_565
Re6 Si3 2.539398 1_655
Re6 Si6 2.670609 1_555
Re6 Si7 2.703898 1_555
Re6 Sc2 2.772448 1_655
Re6 Sc1 2.945605 1_555
Re6 Sc3 2.976509 1_555
Re7 Si4 2.448511 1_555
Re7 Si5 2.472885 1_456
Re7 Sc4 2.828316 1_555
Re7 Sc7 2.840503 1_455
Re7 Sc9 2.998637 1_546
Re7 Sc8 3.168425 1_455
Re7 Sc6 3.330609 1_556
Si0 Si2 2.629057 1_465
Si0 Si2 2.670723 1_555
Si1 Si6 2.446218 1_555
Si1 Si7 2.553327 1_555
Si8 Si9 2.634955 1_555
Si8 Si9 2.664825 1_645
Si10 Si11 2.553327 1_555
Si11 Si3 2.446218 1_555
