# generated using pymatgen
data_Ba3Nb6(Si2O13)2
_symmetry_space_group_name_H-M   'P 1'
_cell_length_a   9.10115071
_cell_length_b   9.10115071
_cell_length_c   7.77703653
_cell_angle_alpha   90.00000000
_cell_angle_beta   90.00000000
_cell_angle_gamma   119.99999978
_symmetry_Int_Tables_number   1
_chemical_formula_structural   Ba3Nb6(Si2O13)2
_chemical_formula_sum   'Ba3 Nb6 Si4 O26'
_cell_volume   557.87562163
_cell_formula_units_Z   1
loop_
 _symmetry_equiv_pos_site_id
 _symmetry_equiv_pos_as_xyz
  1  'x, y, z'
loop_
 _atom_site_type_symbol
 _atom_site_label
 _atom_site_symmetry_multiplicity
 _atom_site_fract_x
 _atom_site_fract_y
 _atom_site_fract_z
 _atom_site_occupancy
  Ba  Ba0  1  -0.00000000  0.60184928  0.50000000  1
  Ba  Ba1  1  0.39815072  0.39815072  0.50000000  1
  Ba  Ba2  1  0.60184928  -0.00000000  0.50000000  1
  Nb  Nb0  1  0.23899214  0.00000000  0.75674782  1
  Nb  Nb1  1  0.76100786  0.76100786  0.24325218  1
  Nb  Nb2  1  0.00000000  0.23899214  0.24325218  1
  Nb  Nb3  1  0.00000000  0.23899214  0.75674782  1
  Nb  Nb4  1  0.76100786  0.76100786  0.75674782  1
  Nb  Nb5  1  0.23899214  0.00000000  0.24325218  1
  Si  Si0  1  0.66666700  0.33333300  0.20634109  1
  Si  Si1  1  0.66666700  0.33333300  0.79365891  1
  Si  Si2  1  0.33333300  0.66666700  0.79365891  1
  Si  Si3  1  0.33333300  0.66666700  0.20634109  1
  O  O0  1  1.00000000  0.22637445  0.50000000  1
  O  O1  1  0.77362555  0.77362555  0.50000000  1
  O  O2  1  0.22637445  1.00000000  0.50000000  1
  O  O3  1  0.51071756  0.69465890  0.28541546  1
  O  O4  1  0.30534110  0.81605866  0.28541546  1
  O  O5  1  0.18394134  0.48928244  0.28541546  1
  O  O6  1  0.48928244  0.18394134  0.71458454  1
  O  O7  1  0.18394134  0.48928244  0.71458454  1
  O  O8  1  0.51071756  0.69465890  0.71458454  1
  O  O9  1  0.30534110  0.81605866  0.71458454  1
  O  O10  1  0.69465890  0.51071756  0.28541546  1
  O  O11  1  0.81605866  0.30534110  0.28541546  1
  O  O12  1  0.81605866  0.30534110  0.71458454  1
  O  O13  1  0.33333300  0.66666700  -0.00000000  1
  O  O14  1  0.66666700  0.33333300  -0.00000000  1
  O  O15  1  0.28637877  0.00000000  -0.00000000  1
  O  O16  1  0.71362123  0.71362123  -0.00000000  1
  O  O17  1  0.00000000  0.28637877  -0.00000000  1
  O  O18  1  0.82165190  1.00000000  0.22945595  1
  O  O19  1  0.17834810  0.17834810  0.77054405  1
  O  O20  1  1.00000000  0.82165190  0.77054405  1
  O  O21  1  1.00000000  0.82165190  0.22945595  1
  O  O22  1  0.17834810  0.17834810  0.22945595  1
  O  O23  1  0.82165190  1.00000000  0.77054405  1
  O  O24  1  0.48928244  0.18394134  0.28541546  1
  O  O25  1  0.69465890  0.51071756  0.71458454  1
loop_
_geom_bond_atom_site_label_1
_geom_bond_atom_site_label_2
_geom_bond_distance
_geom_bond_site_symmetry_2
Ba0 O5 2.890014 1_555
Ba0 O7 2.890014 1_555
Ba0 O11 2.890014 1_455
Ba0 O12 2.890014 1_455
Ba0 O20 2.903235 1_455
Ba0 O21 2.903235 1_455
Ba0 O10 2.981716 1_455
Ba0 O25 2.981716 1_455
Ba0 O4 2.981716 1_555
Ba0 O9 2.981716 1_555
Ba0 O1 3.147975 1_455
Ba0 O2 3.147975 1_555
Ba1 O8 2.890014 1_555
Ba1 O10 2.890014 1_555
Ba1 O25 2.890014 1_555
Ba1 O3 2.890014 1_555
Ba1 O22 2.903235 1_555
Ba1 O19 2.903235 1_555
Ba1 O24 2.981716 1_555
Ba1 O5 2.981716 1_555
Ba1 O6 2.981716 1_555
Ba1 O7 2.981716 1_555
Ba1 O2 3.147975 1_545
Ba1 O0 3.147975 1_455
Ba2 O24 2.890014 1_555
Ba2 O6 2.890014 1_555
Ba2 O4 2.890014 1_545
Ba2 O9 2.890014 1_545
Ba2 O18 2.903235 1_545
Ba2 O23 2.903235 1_545
Ba2 O8 2.981716 1_545
Ba2 O3 2.981716 1_545
Ba2 O11 2.981716 1_555
Ba2 O12 2.981716 1_555
Ba2 O1 3.147975 1_545
Ba2 O0 3.147975 1_555
Nb0 O15 1.940317 1_556
Nb0 O19 1.961303 1_555
Nb0 O20 1.961303 1_445
Nb0 O2 2.000037 1_545
Nb0 O9 2.070167 1_545
Nb0 O6 2.070167 1_555
Nb1 O16 1.940317 1_555
Nb1 O21 1.961303 1_555
Nb1 O18 1.961303 1_555
Nb1 O1 2.000037 1_555
Nb1 O10 2.070167 1_555
Nb1 O3 2.070167 1_555
Nb2 O17 1.940317 1_555
Nb2 O22 1.961303 1_555
Nb2 O18 1.961303 1_445
Nb2 O0 2.000037 1_455
Nb2 O11 2.070167 1_455
Nb2 O5 2.070167 1_555
Nb3 O17 1.940317 1_556
Nb3 O19 1.961303 1_555
Nb3 O23 1.961303 1_445
Nb3 O0 2.000037 1_455
Nb3 O12 2.070167 1_455
Nb3 O7 2.070167 1_555
Nb4 O16 1.940317 1_556
Nb4 O20 1.961303 1_555
Nb4 O23 1.961303 1_555
Nb4 O1 2.000037 1_555
Nb4 O8 2.070167 1_555
Nb4 O25 2.070167 1_555
Nb5 O15 1.940317 1_555
Nb5 O22 1.961303 1_555
Nb5 O21 1.961303 1_445
Nb5 O2 2.000037 1_545
Nb5 O4 2.070167 1_545
Nb5 O24 2.070167 1_555
O3 Si3 1.624223 1_555
O4 Si3 1.624214 1_555
O5 Si3 1.624219 1_555
O6 Si1 1.624219 1_555
O7 Si2 1.624219 1_555
O8 Si2 1.624223 1_555
O9 Si2 1.624214 1_555
O10 Si0 1.624223 1_555
O11 Si0 1.624214 1_555
O12 Si1 1.624214 1_555
O13 Si3 1.604722 1_555
O13 Si2 1.604722 1_554
O14 Si0 1.604722 1_555
O14 Si1 1.604722 1_554
O24 Si0 1.624219 1_555
O25 Si1 1.624223 1_555
