# generated using pymatgen
data_SiO2
_symmetry_space_group_name_H-M   'P 1'
_cell_length_a   5.23596826
_cell_length_b   12.16019524
_cell_length_c   13.05454583
_cell_angle_alpha   108.58412167
_cell_angle_beta   101.56866381
_cell_angle_gamma   89.99999926
_symmetry_Int_Tables_number   1
_chemical_formula_structural   SiO2
_chemical_formula_sum   'Si14 O28'
_cell_volume   770.01191751
_cell_formula_units_Z   14
loop_
 _symmetry_equiv_pos_site_id
 _symmetry_equiv_pos_as_xyz
  1  'x, y, z'
loop_
 _atom_site_type_symbol
 _atom_site_label
 _atom_site_symmetry_multiplicity
 _atom_site_fract_x
 _atom_site_fract_y
 _atom_site_fract_z
 _atom_site_occupancy
  Si  Si0  1  0.63071093  0.28626478  0.26142186  1
  Si  Si1  1  0.28237479  0.48135558  0.56474857  1
  Si  Si2  1  0.71762521  0.51864442  0.43525143  1
  Si  Si3  1  0.28240317  0.21850021  0.56480534  1
  Si  Si4  1  0.06334319  0.91054380  0.12668638  1
  Si  Si5  1  0.36928907  0.71373522  0.73857814  1
  Si  Si6  1  0.62338252  0.88210559  0.24676505  1
  Si  Si7  1  0.37661748  0.11789441  0.75323495  1
  Si  Si8  1  0.93115772  0.83188249  0.86231544  1
  Si  Si9  1  0.93665681  0.08945620  0.87331362  1
  Si  Si10  1  0.71212289  0.13891880  0.42424678  1
  Si  Si11  1  0.28787711  0.86108120  0.57575322  1
  Si  Si12  1  0.71759683  0.78149979  0.43519466  1
  Si  Si13  1  0.06884228  0.16811751  0.13768456  1
  O  O0  1  0.08631611  0.05152003  0.17263022  1
  O  O1  1  0.33335005  0.98792282  0.66670009  1
  O  O2  1  0.91368389  0.94847997  0.82736978  1
  O  O3  1  0.00038369  0.15343911  0.50024592  1
  O  O4  1  0.65569869  0.42630734  0.31139638  1
  O  O5  1  0.00288952  0.13370685  0.00577703  1
  O  O6  1  0.84296345  0.24340267  0.18643699  1
  O  O7  1  0.34412008  0.21113065  0.68824217  1
  O  O8  1  0.68214057  0.23677808  0.36428213  1
  O  O9  1  0.99711048  0.86629315  0.99422297  1
  O  O10  1  0.66664995  0.01207718  0.33329991  1
  O  O11  1  0.65652747  0.75659733  0.81356301  1
  O  O12  1  0.83451491  0.86243158  0.16975044  1
  O  O13  1  0.34347253  0.24340267  0.18643699  1
  O  O14  1  0.15703655  0.75659733  0.81356301  1
  O  O15  1  0.33523553  0.86243158  0.16975044  1
  O  O16  1  0.66476447  0.13756842  0.83024956  1
  O  O17  1  0.00000000  0.50000000  0.50000000  1
  O  O18  1  0.71376501  0.64743039  0.42752901  1
  O  O19  1  -0.00038369  0.84656089  0.49975408  1
  O  O20  1  0.50013777  0.84656089  0.49975408  1
  O  O21  1  0.28623499  0.35256961  0.57247099  1
  O  O22  1  0.65587992  0.78886935  0.31175783  1
  O  O23  1  0.50000000  0.50000000  0.50000000  1
  O  O24  1  0.49986223  0.15343911  0.50024592  1
  O  O25  1  0.16548509  0.13756842  0.83024956  1
  O  O26  1  0.31785943  0.76322192  0.63571787  1
  O  O27  1  0.34430131  0.57369266  0.68860362  1
loop_
_geom_bond_atom_site_label_1
_geom_bond_atom_site_label_2
_geom_bond_distance
_geom_bond_site_symmetry_2
O0 Si13 1.619358 1_555
O0 Si4 1.621332 1_545
O1 Si11 1.601480 1_555
O1 Si7 1.607712 1_565
O2 Si8 1.619358 1_555
O2 Si9 1.621332 1_565
O3 Si10 1.606644 1_455
O3 Si3 1.610141 1_555
O4 Si0 1.612571 1_555
O4 Si2 1.616391 1_555
O5 Si13 1.600570 1_555
O5 Si9 1.602028 1_454
O6 Si13 1.603888 1_655
O6 Si0 1.605029 1_555
O7 Si7 1.609191 1_555
O7 Si3 1.610060 1_555
O8 Si10 1.611823 1_555
O8 Si0 1.614853 1_555
O9 Si8 1.600570 1_555
O9 Si4 1.602028 1_656
O10 Si10 1.601480 1_555
O10 Si6 1.607712 1_545
O11 Si8 1.603883 1_555
O11 Si5 1.605033 1_555
O12 Si4 1.604267 1_655
O12 Si6 1.607049 1_555
O13 Si13 1.603883 1_555
O13 Si0 1.605033 1_555
O14 Si8 1.603888 1_455
O14 Si5 1.605029 1_555
O15 Si4 1.604267 1_555
O15 Si6 1.607049 1_555
O16 Si9 1.604267 1_555
O16 Si7 1.607049 1_555
O17 Si2 1.603980 1_455
O17 Si1 1.603980 1_555
O18 Si2 1.600918 1_555
O18 Si12 1.601104 1_555
O19 Si11 1.606644 1_555
O19 Si12 1.610141 1_455
O20 Si11 1.606640 1_555
O20 Si12 1.610137 1_555
O21 Si1 1.600918 1_555
O21 Si3 1.601104 1_555
O22 Si6 1.609191 1_555
O22 Si12 1.610060 1_555
O23 Si1 1.603976 1_555
O23 Si2 1.603976 1_555
O24 Si10 1.606640 1_555
O24 Si3 1.610137 1_555
O25 Si9 1.604267 1_455
O25 Si7 1.607049 1_555
O26 Si11 1.611823 1_555
O26 Si5 1.614853 1_555
O27 Si5 1.612571 1_555
O27 Si1 1.616391 1_555
