# generated using pymatgen
data_Sr(SbO3)2
_symmetry_space_group_name_H-M   'P 1'
_cell_length_a   7.30746029
_cell_length_b   7.30746029
_cell_length_c   12.59826055
_cell_angle_alpha   73.46700419
_cell_angle_beta   73.46700419
_cell_angle_gamma   60.96488794
_symmetry_Int_Tables_number   1
_chemical_formula_structural   Sr(SbO3)2
_chemical_formula_sum   'Sr4 Sb8 O24'
_cell_volume   555.19433826
_cell_formula_units_Z   4
loop_
 _symmetry_equiv_pos_site_id
 _symmetry_equiv_pos_as_xyz
  1  'x, y, z'
loop_
 _atom_site_type_symbol
 _atom_site_label
 _atom_site_symmetry_multiplicity
 _atom_site_fract_x
 _atom_site_fract_y
 _atom_site_fract_z
 _atom_site_occupancy
  Sr  Sr0  1  0.81735400  0.60086500  0.71762600  1
  Sr  Sr1  1  0.60086500  0.81735400  0.21762600  1
  Sr  Sr2  1  0.39913500  0.18264600  0.78237400  1
  Sr  Sr3  1  0.18264600  0.39913500  0.28237400  1
  Sb  Sb0  1  0.50000000  0.00000000  0.50000000  1
  Sb  Sb1  1  0.00000000  0.00000000  0.50000000  1
  Sb  Sb2  1  0.00000000  0.50000000  0.00000000  1
  Sb  Sb3  1  0.50000000  0.50000000  0.50000000  1
  Sb  Sb4  1  0.24292400  0.75707600  0.75000000  1
  Sb  Sb5  1  0.50000000  0.50000000  0.00000000  1
  Sb  Sb6  1  0.00000000  0.00000000  0.00000000  1
  Sb  Sb7  1  0.75707600  0.24292400  0.25000000  1
  O  O0  1  0.79296600  0.87937500  0.52912000  1
  O  O1  1  0.11121100  0.55702100  0.83412700  1
  O  O2  1  0.47977500  0.58084500  0.83795100  1
  O  O3  1  0.39990800  0.27060600  0.55555300  1
  O  O4  1  0.41915500  0.52022500  0.66204900  1
  O  O5  1  0.27060600  0.39990800  0.05555300  1
  O  O6  1  0.71312100  0.21308100  0.96243000  1
  O  O7  1  0.55702100  0.11121100  0.33412700  1
  O  O8  1  0.78691900  0.28687900  0.53757000  1
  O  O9  1  0.11111500  0.99863700  0.83297200  1
  O  O10  1  0.99863700  0.11111500  0.33297200  1
  O  O11  1  0.12062500  0.20703400  0.97088000  1
  O  O12  1  0.00136300  0.88888500  0.66702800  1
  O  O13  1  0.87937500  0.79296600  0.02912000  1
  O  O14  1  0.88888500  0.00136300  0.16702800  1
  O  O15  1  0.21308100  0.71312100  0.46243000  1
  O  O16  1  0.28687900  0.78691900  0.03757000  1
  O  O17  1  0.44297900  0.88878900  0.66587300  1
  O  O18  1  0.72939400  0.60009200  0.94444700  1
  O  O19  1  0.58084500  0.47977500  0.33795100  1
  O  O20  1  0.60009200  0.72939400  0.44444700  1
  O  O21  1  0.52022500  0.41915500  0.16204900  1
  O  O22  1  0.20703400  0.12062500  0.47088000  1
  O  O23  1  0.88878900  0.44297900  0.16587300  1
loop_
_geom_bond_atom_site_label_1
_geom_bond_atom_site_label_2
_geom_bond_distance
_geom_bond_site_symmetry_2
O0 Sb0 1.981398 1_565
O0 Sb1 1.998738 1_665
O0 Sr0 2.636610 1_555
O1 Sb2 2.016816 1_556
O1 Sb4 2.022433 1_555
O1 Sr2 2.642589 1_555
O1 Sr0 2.779606 1_455
O2 Sb5 1.984759 1_556
O2 Sb4 1.999384 1_555
O2 Sr0 2.549603 1_555
O3 Sb0 2.006849 1_555
O3 Sb3 2.016389 1_555
O3 Sr2 2.743676 1_555
O4 Sb3 1.984759 1_555
O4 Sb4 1.999384 1_555
O4 Sr2 2.549603 1_555
O5 Sb2 2.006849 1_555
O5 Sb5 2.016389 1_555
O5 Sr3 2.743676 1_555
O6 Sb6 2.004990 1_656
O6 Sb5 2.005264 1_556
O7 Sb0 2.016816 1_555
O7 Sb7 2.022433 1_555
O7 Sr3 2.642589 1_555
O7 Sr1 2.779606 1_545
O8 Sb1 2.004990 1_655
O8 Sb3 2.005264 1_555
O9 Sb4 1.990742 1_555
O9 Sb6 2.029524 1_566
O9 Sr2 2.853041 1_565
O10 Sb7 1.990742 1_555
O10 Sb1 2.029524 1_655
O10 Sr3 2.853041 1_655
O11 Sb2 1.981398 1_556
O11 Sb6 1.998738 1_556
O11 Sr2 2.636610 1_555
O12 Sb4 1.990742 1_555
O12 Sb1 2.029524 1_565
O12 Sr0 2.853041 1_455
O13 Sb2 1.981398 1_655
O13 Sb6 1.998738 1_665
O13 Sr1 2.636610 1_555
O14 Sb7 1.990742 1_555
O14 Sb6 2.029524 1_655
O14 Sr1 2.853041 1_545
O15 Sb1 2.004990 1_565
O15 Sb3 2.005264 1_555
O16 Sb6 2.004990 1_565
O16 Sb5 2.005264 1_555
O17 Sb0 2.016816 1_565
O17 Sb4 2.022433 1_555
O17 Sr0 2.642589 1_555
O17 Sr2 2.779606 1_565
O18 Sb2 2.006849 1_656
O18 Sb5 2.016389 1_556
O18 Sr0 2.743676 1_555
O19 Sb3 1.984759 1_555
O19 Sb7 1.999384 1_555
O19 Sr1 2.549603 1_555
O20 Sb0 2.006849 1_565
O20 Sb3 2.016389 1_555
O20 Sr1 2.743676 1_555
O21 Sb5 1.984759 1_555
O21 Sb7 1.999384 1_555
O21 Sr3 2.549603 1_555
O22 Sb0 1.981398 1_555
O22 Sb1 1.998738 1_555
O22 Sr3 2.636610 1_555
O23 Sb2 2.016816 1_655
O23 Sb7 2.022433 1_555
O23 Sr1 2.642589 1_555
O23 Sr3 2.779606 1_655
