# generated using pymatgen
data_Ta4Te9I4O
_symmetry_space_group_name_H-M   'P 1'
_cell_length_a   11.72668815
_cell_length_b   11.72668815
_cell_length_c   20.67472910
_cell_angle_alpha   59.21951492
_cell_angle_beta   59.21951492
_cell_angle_gamma   31.06209501
_symmetry_Int_Tables_number   1
_chemical_formula_structural   Ta4Te9I4O
_chemical_formula_sum   'Ta8 Te18 I8 O2'
_cell_volume   1242.91033391
_cell_formula_units_Z   2
loop_
 _symmetry_equiv_pos_site_id
 _symmetry_equiv_pos_as_xyz
  1  'x, y, z'
loop_
 _atom_site_type_symbol
 _atom_site_label
 _atom_site_symmetry_multiplicity
 _atom_site_fract_x
 _atom_site_fract_y
 _atom_site_fract_z
 _atom_site_occupancy
  Ta  Ta0  1  0.77464500  0.37435700  0.76291000  1
  Ta  Ta1  1  0.62564300  0.22535500  0.73709000  1
  Ta  Ta2  1  0.87331800  0.99758800  0.86146900  1
  Ta  Ta3  1  0.00241200  0.12668200  0.63853100  1
  Ta  Ta4  1  0.37435700  0.77464500  0.26291000  1
  Ta  Ta5  1  0.22535500  0.62564300  0.23709000  1
  Ta  Ta6  1  0.12668200  0.00241200  0.13853100  1
  Ta  Ta7  1  0.99758800  0.87331800  0.36146900  1
  Te  Te0  1  0.38353900  0.65772500  0.07289500  1
  Te  Te1  1  0.17820700  0.17763300  0.66655600  1
  Te  Te2  1  0.06025300  0.05704100  0.87280000  1
  Te  Te3  1  0.53507600  0.80358800  0.09892700  1
  Te  Te4  1  0.05704100  0.06025300  0.37280000  1
  Te  Te5  1  0.46492400  0.19641200  0.90107300  1
  Te  Te6  1  0.34105200  0.65894800  0.75000000  1
  Te  Te7  1  0.80358800  0.53507600  0.59892700  1
  Te  Te8  1  0.17763300  0.17820700  0.16655600  1
  Te  Te9  1  0.82236700  0.82179300  0.83344400  1
  Te  Te10  1  0.61646100  0.34227500  0.92710500  1
  Te  Te11  1  0.65894800  0.34105200  0.25000000  1
  Te  Te12  1  0.34227500  0.61646100  0.42710500  1
  Te  Te13  1  0.82179300  0.82236700  0.33344400  1
  Te  Te14  1  0.93974700  0.94295900  0.12720000  1
  Te  Te15  1  0.65772500  0.38353900  0.57289500  1
  Te  Te16  1  0.19641200  0.46492400  0.40107300  1
  Te  Te17  1  0.94295900  0.93974700  0.62720000  1
  I  I0  1  0.61805500  0.72184100  0.77887700  1
  I  I1  1  0.94199500  0.33626300  0.00824600  1
  I  I2  1  0.38194500  0.27815900  0.22112300  1
  I  I3  1  0.66373700  0.05800500  0.49175400  1
  I  I4  1  0.05800500  0.66373700  0.99175400  1
  I  I5  1  0.72184100  0.61805500  0.27887700  1
  I  I6  1  0.27815900  0.38194500  0.72112300  1
  I  I7  1  0.33626300  0.94199500  0.50824600  1
  O  O0  1  0.88573100  0.11426900  0.75000000  1
  O  O1  1  0.11426900  0.88573100  0.25000000  1
loop_
_geom_bond_atom_site_label_1
_geom_bond_atom_site_label_2
_geom_bond_distance
_geom_bond_site_symmetry_2
Ta0 Te2 2.830099 1_655
Ta0 Te1 2.834978 1_655
Ta0 Te6 2.909987 1_555
Ta0 Te7 2.922287 1_555
Ta0 Te10 2.924001 1_555
Ta1 Te17 2.830099 1_545
Ta1 Te9 2.834978 1_545
Ta1 Te6 2.909987 1_555
Ta1 Te5 2.922287 1_555
Ta1 Te15 2.924001 1_555
Ta2 Te10 2.797202 1_565
Ta2 Te5 2.802272 1_565
Ta2 Te9 2.937600 1_555
Ta2 Te2 2.942363 1_665
Ta3 Te15 2.797202 1_455
Ta3 Te7 2.802272 1_455
Ta3 Te1 2.937600 1_555
Ta3 Te17 2.942363 1_445
Ta4 Te4 2.830099 1_565
Ta4 Te8 2.834978 1_565
Ta4 Te11 2.909987 1_555
Ta4 Te3 2.922287 1_555
Ta4 Te12 2.924001 1_555
Ta5 Te14 2.830099 1_455
Ta5 Te13 2.834978 1_455
Ta5 Te11 2.909987 1_555
Ta5 Te16 2.922287 1_555
Ta5 Te0 2.924001 1_555
Ta6 Te0 2.797202 1_545
Ta6 Te3 2.802272 1_545
Ta6 Te8 2.937600 1_555
Ta6 Te14 2.942363 1_445
Ta7 Te12 2.797202 1_655
Ta7 Te16 2.802272 1_655
Ta7 Te13 2.937600 1_555
Ta7 Te4 2.942363 1_665
I0 Ta0 2.832368 1_555
I1 Ta6 2.815038 1_655
I2 Ta5 2.832368 1_555
I3 Ta7 2.815038 1_545
I4 Ta2 2.815038 1_455
I5 Ta4 2.832368 1_555
I6 Ta1 2.832368 1_555
I7 Ta3 2.815038 1_565
O0 Ta2 1.993732 1_545
O0 Ta3 1.993732 1_655
O0 Ta1 2.177395 1_555
O0 Ta0 2.177395 1_555
O1 Ta7 1.993732 1_455
O1 Ta6 1.993732 1_565
O1 Ta5 2.177395 1_555
O1 Ta4 2.177395 1_555
