# generated using pymatgen
data_GdMn4(CuO4)3
_symmetry_space_group_name_H-M   'P 1'
_cell_length_a   6.37845994
_cell_length_b   6.45760940
_cell_length_c   6.45219108
_cell_angle_alpha   111.00517480
_cell_angle_beta   110.61174709
_cell_angle_gamma   107.00825315
_symmetry_Int_Tables_number   1
_chemical_formula_structural   GdMn4(CuO4)3
_chemical_formula_sum   'Gd1 Mn4 Cu3 O12'
_cell_volume   203.82505909
_cell_formula_units_Z   1
loop_
 _symmetry_equiv_pos_site_id
 _symmetry_equiv_pos_as_xyz
  1  'x, y, z'
loop_
 _atom_site_type_symbol
 _atom_site_label
 _atom_site_symmetry_multiplicity
 _atom_site_fract_x
 _atom_site_fract_y
 _atom_site_fract_z
 _atom_site_occupancy
  Gd  Gd0  1  0.00000079  0.99998719  0.99998409  1
  Mn  Mn0  1  0.00001859  0.00003322  0.50003244  1
  Mn  Mn1  1  0.50001276  0.00001623  0.00000066  1
  Mn  Mn2  1  0.50002656  0.50000062  0.50000572  1
  Mn  Mn3  1  -0.00002885  0.50000449  0.00001558  1
  Cu  Cu0  1  0.49999439  0.00000813  0.50000391  1
  Cu  Cu1  1  0.50001295  0.50000258  0.00001738  1
  Cu  Cu2  1  0.00000091  0.50000966  0.50001985  1
  O  O0  1  0.53082798  0.83439766  0.70277165  1
  O  O1  1  0.17980388  0.31314031  0.48000651  1
  O  O2  1  0.82020912  0.68687351  0.51998609  1
  O  O3  1  0.69464612  0.87311349  0.17103740  1
  O  O4  1  0.30263646  0.47445095  0.17755584  1
  O  O5  1  0.13053234  0.83273521  0.30154148  1
  O  O6  1  0.69738867  0.52556350  0.82248406  1
  O  O7  1  0.30535523  0.12687397  0.82894820  1
  O  O8  1  0.18873930  0.70918041  0.86479695  1
  O  O9  1  0.81117973  0.29073593  0.13512591  1
  O  O10  1  0.86947493  0.16729830  0.69847279  1
  O  O11  1  0.46916815  0.16557466  0.29719349  1
loop_
_geom_bond_atom_site_label_1
_geom_bond_atom_site_label_2
_geom_bond_distance
_geom_bond_site_symmetry_2
Gd0 O11 2.528583 1_566
Gd0 O0 2.528612 1_455
Gd0 O5 2.556858 1_556
Gd0 O10 2.556916 1_465
Gd0 O8 2.573767 1_555
Gd0 O9 2.573839 1_466
Gd0 O2 2.578499 1_455
Gd0 O1 2.578662 1_566
Gd0 O6 2.625251 1_455
Gd0 O4 2.625381 1_566
Gd0 O7 2.628813 1_565
Gd0 O3 2.628882 1_456
Mn0 O10 1.945432 1_455
Mn0 O5 1.945569 1_545
Mn0 O7 1.969347 1_555
Mn0 O3 1.969623 1_445
Mn0 O1 2.086883 1_555
Mn0 O2 2.086928 1_445
Mn1 O9 1.911097 1_555
Mn1 O8 1.911752 1_544
Mn1 O7 1.925921 1_554
Mn1 O3 1.926021 1_545
Mn1 O11 1.943618 1_555
Mn1 O0 1.943784 1_544
Mn2 O4 1.931074 1_555
Mn2 O6 1.931138 1_555
Mn2 O2 1.976122 1_555
Mn2 O1 1.976248 1_555
Mn2 O0 1.989658 1_555
Mn2 O11 1.989717 1_555
Mn3 O6 1.956948 1_454
Mn3 O4 1.957368 1_555
Mn3 O5 1.977590 1_555
Mn3 O10 1.977643 1_454
Mn3 O9 2.160538 1_455
Mn3 O8 2.160674 1_554
Cu0 O5 1.937685 1_545
Cu0 O10 1.937779 1_555
Cu0 O11 1.959328 1_555
Cu0 O0 1.959333 1_545
Cu1 O3 1.985865 1_555
Cu1 O7 1.985940 1_554
Cu1 O6 1.988378 1_554
Cu1 O4 1.988403 1_555
Cu2 O8 1.894182 1_555
Cu2 O2 1.894725 1_455
Cu2 O9 1.894806 1_455
Cu2 O1 1.894827 1_555
