# generated using pymatgen
data_KH(IF6)2
_symmetry_space_group_name_H-M   'P 1'
_cell_length_a   8.82688968
_cell_length_b   8.82688968
_cell_length_c   8.82688968
_cell_angle_alpha   111.54301233
_cell_angle_beta   111.54301233
_cell_angle_gamma   105.40265618
_symmetry_Int_Tables_number   1
_chemical_formula_structural   KH(IF6)2
_chemical_formula_sum   'K2 H2 I4 F24'
_cell_volume   527.43741893
_cell_formula_units_Z   2
loop_
 _symmetry_equiv_pos_site_id
 _symmetry_equiv_pos_as_xyz
  1  'x, y, z'
loop_
 _atom_site_type_symbol
 _atom_site_label
 _atom_site_symmetry_multiplicity
 _atom_site_fract_x
 _atom_site_fract_y
 _atom_site_fract_z
 _atom_site_occupancy
  K  K0  1  0.25000000  0.25000000  0.00000000  1
  K  K1  1  0.75000000  0.75000000  0.00000000  1
  H  H0  1  0.25000000  0.75000000  0.50000000  1
  H  H1  1  0.75000000  0.25000000  0.50000000  1
  I  I0  1  0.65964800  0.15964800  0.81929500  1
  I  I1  1  0.34035200  0.84035200  0.18070500  1
  I  I2  1  0.15964800  0.34035200  0.50000000  1
  I  I3  1  0.84035200  0.65964800  0.50000000  1
  F  F0  1  0.64097500  0.14097500  0.50000000  1
  F  F1  1  0.14097500  0.64097500  0.50000000  1
  F  F2  1  0.35902500  0.85902500  0.50000000  1
  F  F3  1  0.85902500  0.35902500  0.50000000  1
  F  F4  1  0.79330500  0.29330500  0.08661000  1
  F  F5  1  0.20669500  0.70669500  0.91339000  1
  F  F6  1  0.29330500  0.20669500  0.50000000  1
  F  F7  1  0.70669500  0.79330500  0.50000000  1
  F  F8  1  0.45897200  0.15495000  0.86448100  1
  F  F9  1  0.29046900  0.59449100  0.13551900  1
  F  F10  1  0.95897200  0.09449100  0.30402200  1
  F  F11  1  0.79046900  0.65495000  0.69597800  1
  F  F12  1  0.59449100  0.45897200  0.30402200  1
  F  F13  1  0.15495000  0.29046900  0.69597800  1
  F  F14  1  0.65495000  0.95897200  0.86448100  1
  F  F15  1  0.09449100  0.79046900  0.13551900  1
  F  F16  1  0.54102800  0.84505000  0.13551900  1
  F  F17  1  0.70953100  0.40550900  0.86448100  1
  F  F18  1  0.04102800  0.90550900  0.69597800  1
  F  F19  1  0.20953100  0.34505000  0.30402200  1
  F  F20  1  0.40550900  0.54102800  0.69597800  1
  F  F21  1  0.84505000  0.70953100  0.30402200  1
  F  F22  1  0.34505000  0.04102800  0.13551900  1
  F  F23  1  0.90550900  0.20953100  0.86448100  1
loop_
_geom_bond_atom_site_label_1
_geom_bond_atom_site_label_2
_geom_bond_distance
_geom_bond_site_symmetry_2
F0 H1 1.166312 1_555
F1 H0 1.166312 1_555
F2 H0 1.166312 1_555
F3 H1 1.166312 1_555
F4 I0 1.877001 1_554
F5 I1 1.877001 1_556
F6 I2 1.876994 1_555
F7 I3 1.876994 1_555
F8 I0 1.946907 1_555
F8 K0 2.691238 1_556
F9 I1 1.946900 1_555
F9 K0 2.691238 1_555
F10 I2 1.946903 1_655
F10 K1 2.691238 1_545
F11 I3 1.946903 1_555
F11 K1 2.691238 1_556
F12 I3 1.946903 1_555
F12 K0 2.691238 1_555
F13 I2 1.946903 1_555
F13 K0 2.691238 1_556
F14 I0 1.946907 1_565
F14 K1 2.691238 1_556
F15 I1 1.946900 1_555
F15 K1 2.691238 1_455
F16 I1 1.946907 1_555
F16 K1 2.691238 1_555
F17 I0 1.946900 1_555
F17 K1 2.691238 1_556
F18 I3 1.946903 1_455
F18 K0 2.691238 1_566
F19 I2 1.946903 1_555
F19 K0 2.691238 1_555
F20 I2 1.946903 1_555
F20 K1 2.691238 1_556
F21 I3 1.946903 1_555
F21 K1 2.691238 1_555
F22 I1 1.946907 1_545
F22 K0 2.691238 1_555
F23 I0 1.946900 1_555
F23 K0 2.691238 1_656
