# generated using pymatgen
data_Mg5(AlSe4)2
_symmetry_space_group_name_H-M   'P 1'
_cell_length_a   9.76059000
_cell_length_b   9.86034483
_cell_length_c   17.07383377
_cell_angle_alpha   85.84259093
_cell_angle_beta   88.04786223
_cell_angle_gamma   86.19574596
_symmetry_Int_Tables_number   1
_chemical_formula_structural   Mg5(AlSe4)2
_chemical_formula_sum   'Mg20 Al8 Se32'
_cell_volume   1634.59135375
_cell_formula_units_Z   4
loop_
 _symmetry_equiv_pos_site_id
 _symmetry_equiv_pos_as_xyz
  1  'x, y, z'
loop_
 _atom_site_type_symbol
 _atom_site_label
 _atom_site_symmetry_multiplicity
 _atom_site_fract_x
 _atom_site_fract_y
 _atom_site_fract_z
 _atom_site_occupancy
  Mg  Mg0  1  0.97162900  0.98717700  0.97270900  1
  Mg  Mg1  1  0.10307600  0.06647900  0.16597500  1
  Mg  Mg2  1  0.12521200  0.99816800  0.70140700  1
  Mg  Mg3  1  0.40904800  0.98550200  0.28025000  1
  Mg  Mg4  1  0.51647600  0.95862400  0.80262900  1
  Mg  Mg5  1  0.50014400  0.97339400  0.00952700  1
  Mg  Mg6  1  0.59860100  0.91161600  0.48328600  1
  Mg  Mg7  1  0.43310800  0.29246900  0.15387300  1
  Mg  Mg8  1  0.43161200  0.19862500  0.60584700  1
  Mg  Mg9  1  0.44780500  0.52522600  0.35269200  1
  Mg  Mg10  1  0.46788700  0.49914300  0.75820200  1
  Mg  Mg11  1  0.57314900  0.53072700  0.53514100  1
  Mg  Mg12  1  0.56274500  0.52422300  0.96770900  1
  Mg  Mg13  1  0.96070800  0.50058800  0.49196900  1
  Mg  Mg14  1  0.89882200  0.87066100  0.29355100  1
  Mg  Mg15  1  0.12123500  0.46306400  0.98160700  1
  Mg  Mg16  1  0.95925600  0.53008200  0.29977300  1
  Mg  Mg17  1  0.91838900  0.45638600  0.76295900  1
  Mg  Mg18  1  0.01073900  0.70298100  0.15570000  1
  Mg  Mg19  1  0.97465600  0.77360100  0.59016600  1
  Al  Al0  1  0.18028000  0.74070800  0.37302700  1
  Al  Al1  1  0.20166000  0.72315800  0.85189000  1
  Al  Al2  1  0.26268700  0.74016900  0.59609800  1
  Al  Al3  1  0.33753400  0.67795600  0.11751400  1
  Al  Al4  1  0.61387700  0.20240400  0.88815900  1
  Al  Al5  1  0.69262400  0.22868800  0.36155700  1
  Al  Al6  1  0.79610000  0.14388100  0.63990200  1
  Al  Al7  1  0.82521200  0.22495000  0.09671700  1
  Se  Se0  1  0.91738500  0.26321200  0.27674500  1
  Se  Se1  1  0.59406200  0.17663900  0.72367100  1
  Se  Se2  1  0.85309700  0.98196300  0.14113500  1
  Se  Se3  1  0.87954500  0.92649300  0.69239700  1
  Se  Se4  1  0.71914000  0.47444300  0.40393100  1
  Se  Se5  1  0.68921300  0.42867000  0.84189000  1
  Se  Se6  1  0.94788400  0.76455600  0.44215500  1
  Se  Se7  1  0.98722800  0.60904400  0.86745400  1
  Se  Se8  1  0.56092300  0.71393300  0.06053000  1
  Se  Se9  1  0.63585200  0.74272600  0.60396800  1
  Se  Se10  1  0.79225800  0.41463500  0.17938000  1
  Se  Se11  1  0.81696900  0.54904100  0.62277400  1
  Se  Se12  1  0.65990100  0.97709800  0.33897100  1
  Se  Se13  1  0.72832100  0.97799700  0.91283100  1
  Se  Se14  1  0.61053300  0.27813600  0.03330800  1
  Se  Se15  1  0.66620900  0.15983900  0.51481500  1
  Se  Se16  1  0.38796600  0.73761600  0.45709300  1
  Se  Se17  1  0.15512200  0.79606200  0.03926300  1
  Se  Se18  1  0.22503800  0.46575600  0.12744300  1
  Se  Se19  1  0.36871600  0.45600900  0.62309700  1
  Se  Se20  1  0.13388300  0.99033400  0.32188000  1
  Se  Se21  1  0.13242900  0.95996000  0.85176800  1
  Se  Se22  1  0.46872000  0.28245900  0.30548800  1
  Se  Se23  1  0.38579300  0.12893100  0.89512700  1
  Se  Se24  1  0.03646500  0.22153600  0.02315400  1
  Se  Se25  1  0.98651100  0.29096000  0.64808400  1
  Se  Se26  1  0.36405800  0.05279500  0.13540400  1
  Se  Se27  1  0.27847100  0.01248300  0.57639500  1
  Se  Se28  1  0.16735200  0.48210900  0.39165600  1
  Se  Se29  1  0.33690300  0.51082600  0.89906500  1
  Se  Se30  1  0.36669000  0.72256800  0.25563800  1
  Se  Se31  1  0.38109200  0.76151800  0.74515500  1
loop_
_geom_bond_atom_site_label_1
_geom_bond_atom_site_label_2
_geom_bond_distance
_geom_bond_site_symmetry_2
Mg0 Se21 2.569619 1_655
Mg0 Se13 2.626891 1_555
Mg0 Se24 2.646158 1_666
Mg0 Se17 2.725882 1_656
Mg0 Se2 3.061122 1_556
Mg1 Se26 2.579458 1_555
Mg1 Se2 2.686864 1_445
Mg1 Se20 2.733976 1_545
Mg1 Se24 2.853440 1_555
Mg1 Se0 3.233696 1_455
Mg2 Se3 2.557073 1_455
Mg2 Se27 2.565200 1_565
Mg2 Se21 2.570248 1_555
Mg2 Se25 3.190742 1_465
Mg3 Se26 2.558635 1_565
Mg3 Se12 2.671209 1_555
Mg3 Se30 2.716843 1_555
Mg3 Se20 2.752949 1_555
Mg3 Se22 3.086263 1_565
Mg4 Se1 2.595841 1_565
Mg4 Se23 2.627593 1_565
Mg4 Se31 2.681812 1_555
Mg4 Se13 2.867386 1_555
Mg5 Se23 2.626794 1_564
Mg5 Se26 2.628280 1_565
Mg5 Se8 2.676996 1_555
Mg5 Se13 2.727631 1_554
Mg6 Se12 2.562495 1_555
Mg6 Se9 2.573774 1_555
Mg6 Se15 2.673085 1_565
Mg6 Se16 2.830618 1_555
Mg7 Se26 2.544129 1_555
Mg7 Se18 2.595738 1_555
Mg7 Se22 2.617513 1_555
Mg7 Se14 2.650150 1_555
Mg8 Se27 2.530810 1_555
Mg8 Se1 2.591638 1_555
Mg8 Se19 2.606501 1_555
Mg8 Se15 2.744581 1_555
Mg9 Se30 2.564481 1_555
Mg9 Se22 2.573913 1_555
Mg9 Se4 2.819294 1_555
Mg9 Se28 2.847098 1_555
Mg9 Se16 2.865727 1_555
Mg10 Se19 2.605380 1_555
Mg10 Se5 2.656778 1_555
Mg10 Se31 2.664378 1_555
Mg10 Se29 2.691337 1_555
Mg11 Se19 2.571012 1_555
Mg11 Se9 2.588468 1_555
Mg11 Se4 2.686095 1_555
Mg11 Se11 2.876402 1_555
Mg11 Se16 2.912910 1_555
Mg12 Se8 2.536654 1_556
Mg12 Se29 2.547026 1_555
Mg12 Se14 2.617497 1_556
Mg12 Se5 2.642869 1_555
Mg13 Se28 2.606899 1_655
Mg13 Se11 2.652681 1_555
Mg13 Se6 2.675208 1_555
Mg13 Se4 2.874658 1_555
Mg13 Se25 3.258609 1_555
Mg14 Se12 2.609819 1_555
Mg14 Se6 2.718991 1_555
Mg14 Se20 2.721760 1_655
Mg14 Se2 2.788507 1_555
Mg15 Se29 2.544085 1_555
Mg15 Se24 2.614597 1_556
Mg15 Se7 2.664307 1_455
Mg15 Se18 2.722547 1_556
Mg16 Se28 2.606224 1_655
Mg16 Se0 2.747672 1_555
Mg16 Se4 2.949849 1_555
Mg16 Se10 2.998644 1_555
Mg17 Se7 2.550620 1_555
Mg17 Se5 2.591696 1_555
Mg17 Se25 2.679703 1_555
Mg17 Se11 2.695885 1_555
Mg18 Se17 2.548891 1_555
Mg18 Se2 3.059709 1_455
Mg18 Se18 3.086264 1_555
Mg19 Se3 2.503336 1_555
Mg19 Se6 2.557990 1_555
Mg19 Se11 2.792276 1_555
Al0 Se16 2.520728 1_555
Al0 Se6 2.526006 1_455
Al0 Se28 2.557601 1_555
Al0 Se20 2.567790 1_555
Al0 Se30 2.668324 1_555
Al1 Se21 2.387181 1_555
Al1 Se7 2.438961 1_455
Al1 Se29 2.497184 1_555
Al1 Se31 2.510360 1_555
Al2 Se16 2.633535 1_555
Al2 Se27 2.695758 1_565
Al2 Mg19 2.813221 1_455
Al2 Se31 2.857832 1_555
Al2 Se19 2.931673 1_555
Al3 Se8 2.394722 1_555
Al3 Se18 2.419328 1_555
Al3 Se17 2.443881 1_555
Al3 Se30 2.459440 1_555
Al4 Se23 2.382982 1_555
Al4 Se13 2.427000 1_545
Al4 Se5 2.462718 1_555
Al4 Se14 2.638181 1_556
Al4 Se1 2.852414 1_555
Al5 Se22 2.426700 1_555
Al5 Se12 2.580147 1_545
Al5 Se4 2.610102 1_555
Al5 Se0 2.614714 1_555
Al5 Se15 2.663488 1_555
Al6 Se3 2.366620 1_545
Al6 Se1 2.414352 1_555
Al6 Se25 2.445725 1_555
Al6 Se15 2.510510 1_555
Al7 Se24 2.377143 1_655
Al7 Se14 2.400878 1_555
Al7 Se10 2.421915 1_555
Al7 Se2 2.460448 1_545
Se0 Se10 2.453756 1_555
Se11 Se25 2.954914 1_555
