# generated using pymatgen
data_Li(FeGe)6
_symmetry_space_group_name_H-M   'P 1'
_cell_length_a   8.68812155
_cell_length_b   8.68811980
_cell_length_c   8.10018410
_cell_angle_alpha   89.99981513
_cell_angle_beta   90.00009371
_cell_angle_gamma   119.99911632
_symmetry_Int_Tables_number   1
_chemical_formula_structural   Li(FeGe)6
_chemical_formula_sum   'Li3 Fe18 Ge18'
_cell_volume   529.51842620
_cell_formula_units_Z   3
loop_
 _symmetry_equiv_pos_site_id
 _symmetry_equiv_pos_as_xyz
  1  'x, y, z'
loop_
 _atom_site_type_symbol
 _atom_site_label
 _atom_site_symmetry_multiplicity
 _atom_site_fract_x
 _atom_site_fract_y
 _atom_site_fract_z
 _atom_site_occupancy
  Li  Li0  1  0.00000128  0.00000022  0.49998455  1
  Li  Li1  1  0.66666599  0.33333434  0.00001213  1
  Li  Li2  1  0.33333318  0.66666591  0.00001227  1
  Fe  Fe0  1  0.16679128  0.33357634  0.24694963  1
  Fe  Fe1  1  0.83320616  0.66642354  0.75305038  1
  Fe  Fe2  1  0.66642269  0.83320585  0.75305013  1
  Fe  Fe3  1  0.83320201  0.66641990  0.24694883  1
  Fe  Fe4  1  0.33357902  0.16679576  0.75305050  1
  Fe  Fe5  1  0.50000912  0.00000219  0.25570911  1
  Fe  Fe6  1  0.33357748  0.16679965  0.24694884  1
  Fe  Fe7  1  0.16678521  0.83321027  0.24694883  1
  Fe  Fe8  1  0.83321032  0.16678448  0.75305058  1
  Fe  Fe9  1  0.50000295  0.50000203  0.74428657  1
  Fe  Fe10  1  0.16679565  0.33357964  0.75305111  1
  Fe  Fe11  1  0.66642351  0.83320946  0.24694977  1
  Fe  Fe12  1  -0.00000122  0.50000227  0.74428596  1
  Fe  Fe13  1  0.83321468  0.16678501  0.24695000  1
  Fe  Fe14  1  0.16678359  0.83321140  0.75305028  1
  Fe  Fe15  1  0.49999742  0.50000104  0.25570850  1
  Fe  Fe16  1  0.50000116  -0.00000150  0.74428573  1
  Fe  Fe17  1  -0.00000181  0.49999238  0.25570837  1
  Ge  Ge0  1  0.33334453  0.66666069  0.34197394  1
  Ge  Ge1  1  0.66666128  0.33334616  0.34197357  1
  Ge  Ge2  1  -0.00000740  0.67583389  0.49999342  1
  Ge  Ge3  1  0.65772134  0.65772584  0.00000241  1
  Ge  Ge4  1  0.66666407  0.33333845  0.65805064  1
  Ge  Ge5  1  0.32417431  0.32417959  0.49999904  1
  Ge  Ge6  1  0.33334432  0.66665202  0.65805072  1
  Ge  Ge7  1  0.00000016  0.32415755  0.50000306  1
  Ge  Ge8  1  0.67584393  -0.00000179  0.50000111  1
  Ge  Ge9  1  -0.00001297  0.65772168  0.00000337  1
  Ge  Ge10  1  -0.00000539  -0.00000720  0.15654783  1
  Ge  Ge11  1  0.34227744  0.00000894  0.00000176  1
  Ge  Ge12  1  0.34227707  0.34228299  -0.00000099  1
  Ge  Ge13  1  0.65773217  -0.00000788  -0.00000218  1
  Ge  Ge14  1  -0.00000906  0.00000962  0.84342393  1
  Ge  Ge15  1  0.67582440  0.67582748  0.49999521  1
  Ge  Ge16  1  0.00000525  0.34226863  -0.00000426  1
  Ge  Ge17  1  0.32416489  0.00000319  0.49999533  1
loop_
_geom_bond_atom_site_label_1
_geom_bond_atom_site_label_2
_geom_bond_distance
_geom_bond_site_symmetry_2
Fe0 Ge5 2.487856 1_555
Fe0 Ge7 2.487894 1_555
Fe0 Ge12 2.493255 1_555
Fe0 Ge16 2.493266 1_555
Fe0 Fe17 2.508103 1_555
Fe0 Fe15 2.508114 1_555
Fe0 Fe6 2.509760 1_555
Fe0 Fe13 2.509897 1_455
Fe0 Ge10 2.614589 1_555
Fe0 Ge0 2.621731 1_555
Fe0 Li2 3.206575 1_555
Fe0 Li0 3.240450 1_555
Fe1 Ge15 2.487907 1_555
Fe1 Ge2 2.487914 1_655
Fe1 Ge9 2.493260 1_656
Fe1 Ge3 2.493280 1_556
Fe1 Fe9 2.508093 1_555
Fe1 Fe12 2.508140 1_655
Fe1 Fe2 2.509782 1_555
Fe1 Fe14 2.509904 1_655
Fe1 Ge14 2.614543 1_665
Fe1 Ge4 2.621678 1_555
Fe1 Li1 3.206696 1_556
Fe1 Li0 3.240612 1_665
Fe2 Ge8 2.487860 1_565
Fe2 Ge15 2.487889 1_555
Fe2 Ge13 2.493228 1_566
Fe2 Ge3 2.493242 1_556
Fe2 Fe9 2.508097 1_555
Fe2 Fe8 2.509912 1_565
Fe2 Ge14 2.614414 1_665
Fe2 Ge6 2.621627 1_555
Fe2 Li2 3.206705 1_556
Fe2 Li0 3.240626 1_665
Fe3 Ge2 2.487840 1_655
Fe3 Ge15 2.487842 1_555
Fe3 Ge9 2.493227 1_655
Fe3 Ge3 2.493227 1_555
Fe3 Fe7 2.509947 1_655
Fe3 Ge10 2.614506 1_665
Fe3 Ge1 2.621652 1_555
Fe3 Li1 3.206557 1_555
Fe3 Li0 3.240487 1_665
Fe4 Ge5 2.487893 1_555
Fe4 Ge17 2.487925 1_555
Fe4 Ge11 2.493269 1_556
Fe4 Ge12 2.493271 1_556
Fe4 Fe9 2.508116 1_555
Fe4 Ge14 2.614556 1_555
Fe4 Ge4 2.621677 1_555
Fe4 Li1 3.206687 1_556
Fe4 Li0 3.240623 1_555
Fe5 Ge13 2.483590 1_555
Fe5 Ge11 2.483593 1_555
Fe5 Ge8 2.499904 1_555
Fe5 Ge17 2.499913 1_555
Fe5 Fe7 2.508248 1_545
Fe5 Fe6 2.508253 1_555
Fe5 Ge0 2.603644 1_545
Fe5 Ge1 2.603665 1_555
Fe5 Li1 3.252716 1_555
Fe5 Li2 3.252748 1_545
Fe6 Ge5 2.487869 1_555
Fe6 Ge17 2.487882 1_555
Fe6 Ge12 2.493248 1_555
Fe6 Ge11 2.493274 1_555
Fe6 Fe7 2.509993 1_545
Fe6 Ge10 2.614581 1_555
Fe6 Ge1 2.621727 1_555
Fe6 Li1 3.206571 1_555
Fe6 Li0 3.240459 1_555
Fe7 Ge2 2.487855 1_555
Fe7 Ge17 2.487879 1_565
Fe7 Ge9 2.493286 1_555
Fe7 Ge11 2.493304 1_565
Fe7 Ge10 2.614476 1_565
Fe7 Ge0 2.621874 1_555
Fe7 Li2 3.206570 1_555
Fe7 Li0 3.240424 1_565
Fe8 Ge8 2.487851 1_555
Fe8 Ge7 2.487859 1_655
Fe8 Ge13 2.493251 1_556
Fe8 Ge16 2.493264 1_656
Fe8 Ge14 2.614286 1_655
Fe8 Ge4 2.621752 1_555
Fe8 Li1 3.206707 1_556
Fe8 Li0 3.240587 1_655
Fe9 Ge12 2.483577 1_556
Fe9 Ge3 2.483597 1_556
Fe9 Ge5 2.499832 1_555
Fe9 Ge15 2.499842 1_555
Fe9 Ge6 2.603311 1_555
Fe9 Ge4 2.603431 1_555
Fe9 Li1 3.252830 1_556
Fe9 Li2 3.252856 1_556
Fe10 Ge5 2.487865 1_555
Fe10 Ge7 2.487869 1_555
Fe10 Ge12 2.493219 1_556
Fe10 Ge16 2.493224 1_556
Fe10 Fe9 2.508124 1_555
Fe10 Fe12 2.508182 1_555
Fe10 Fe4 2.509793 1_555
Fe10 Fe8 2.509963 1_455
Fe10 Ge14 2.614422 1_555
Fe10 Ge6 2.621584 1_555
Fe10 Li2 3.206685 1_556
Fe10 Li0 3.240640 1_555
Fe11 Ge15 2.487833 1_555
Fe11 Ge8 2.487867 1_565
Fe11 Ge13 2.493232 1_565
Fe11 Ge3 2.493235 1_555
Fe11 Fe5 2.508088 1_565
Fe11 Fe15 2.508131 1_555
Fe11 Fe3 2.509799 1_555
Fe11 Fe13 2.509889 1_565
Fe11 Ge10 2.614498 1_665
Fe11 Ge0 2.621691 1_555
Fe11 Li2 3.206585 1_555
Fe11 Li0 3.240464 1_665
Fe12 Ge16 2.483616 1_556
Fe12 Ge9 2.483619 1_556
Fe12 Ge2 2.499894 1_555
Fe12 Ge7 2.499897 1_555
Fe12 Fe14 2.508138 1_555
Fe12 Fe8 2.508202 1_455
Fe12 Ge4 2.603533 1_455
Fe12 Ge6 2.603612 1_555
Fe12 Li1 3.252875 1_456
Fe12 Li2 3.252885 1_556
Fe13 Ge8 2.487870 1_555
Fe13 Ge7 2.487887 1_655
Fe13 Ge13 2.493300 1_555
Fe13 Ge16 2.493307 1_655
Fe13 Fe5 2.508110 1_555
Fe13 Fe17 2.508123 1_655
Fe13 Ge10 2.614476 1_655
Fe13 Ge1 2.621915 1_555
Fe13 Li1 3.206602 1_555
Fe13 Li0 3.240395 1_655
Fe14 Ge17 2.487932 1_565
Fe14 Ge2 2.487938 1_555
Fe14 Ge9 2.493331 1_556
Fe14 Ge11 2.493338 1_566
Fe14 Fe16 2.508201 1_565
Fe14 Fe4 2.509955 1_565
Fe14 Ge14 2.614546 1_565
Fe14 Ge6 2.621898 1_555
Fe14 Li2 3.206706 1_556
Fe14 Li0 3.240553 1_565
Fe15 Ge3 2.483543 1_555
Fe15 Ge12 2.483545 1_555
Fe15 Ge5 2.499830 1_555
Fe15 Ge15 2.499833 1_555
Fe15 Fe6 2.508078 1_555
Fe15 Fe3 2.508103 1_555
Fe15 Ge0 2.603407 1_555
Fe15 Ge1 2.603448 1_555
Fe15 Li2 3.252669 1_555
Fe15 Li1 3.252714 1_555
Fe16 Ge13 2.483621 1_556
Fe16 Ge11 2.483626 1_556
Fe16 Ge8 2.499893 1_555
Fe16 Ge17 2.499904 1_555
Fe16 Fe8 2.508138 1_555
Fe16 Fe2 2.508142 1_545
Fe16 Fe4 2.508182 1_555
Fe16 Ge4 2.603568 1_555
Fe16 Ge6 2.603619 1_545
Fe16 Li2 3.252871 1_546
Fe16 Li1 3.252898 1_556
Fe17 Ge9 2.483574 1_555
Fe17 Ge16 2.483596 1_555
Fe17 Ge2 2.499905 1_555
Fe17 Ge7 2.499914 1_555
Fe17 Fe7 2.508202 1_555
Fe17 Fe3 2.508212 1_455
Fe17 Ge1 2.603614 1_455
Fe17 Ge0 2.603683 1_555
Fe17 Li1 3.252717 1_455
Fe17 Li2 3.252733 1_555
Ge0 Ge6 2.560280 1_555
Ge0 Li2 2.769952 1_555
Ge1 Ge4 2.560282 1_555
Ge1 Li1 2.769951 1_555
Ge2 Li0 2.816358 1_565
Ge3 Li2 2.857951 1_555
Ge3 Li1 2.858000 1_555
Ge4 Li1 2.769951 1_556
Ge5 Li0 2.816520 1_555
Ge6 Li2 2.769952 1_556
Ge7 Li0 2.816323 1_555
Ge8 Li0 2.816310 1_655
Ge9 Li1 2.857954 1_455
Ge9 Li2 2.858091 1_555
Ge10 Ge14 2.536361 1_554
Ge10 Li0 2.781901 1_555
Ge11 Li1 2.857978 1_555
Ge11 Li2 2.858063 1_545
Ge12 Li2 2.857922 1_555
Ge12 Li1 2.857996 1_555
Ge13 Li2 2.858026 1_545
Ge13 Li1 2.858100 1_555
Ge14 Li0 2.781922 1_555
Ge15 Li0 2.816507 1_665
Ge16 Li2 2.858026 1_555
Ge16 Li1 2.858073 1_455
Ge17 Li0 2.816360 1_555
