# generated using pymatgen
data_AlPt3
_symmetry_space_group_name_H-M   'P 1'
_cell_length_a   5.48242533
_cell_length_b   5.48238079
_cell_length_c   7.85650693
_cell_angle_alpha   89.99949760
_cell_angle_beta   89.99944853
_cell_angle_gamma   89.99952302
_symmetry_Int_Tables_number   1
_chemical_formula_structural   AlPt3
_chemical_formula_sum   'Al4 Pt12'
_cell_volume   236.14101211
_cell_formula_units_Z   4
loop_
 _symmetry_equiv_pos_site_id
 _symmetry_equiv_pos_as_xyz
  1  'x, y, z'
loop_
 _atom_site_type_symbol
 _atom_site_label
 _atom_site_symmetry_multiplicity
 _atom_site_fract_x
 _atom_site_fract_y
 _atom_site_fract_z
 _atom_site_occupancy
  Al  Al0  1  0.49999992  0.00000002  0.23624845  1
  Al  Al1  1  0.99998948  0.49998978  0.76376300  1
  Al  Al2  1  0.00000489  0.50000777  0.23624284  1
  Al  Al3  1  0.50000634  0.00000812  0.76375798  1
  Pt  Pt0  1  0.23710257  0.73720904  0.00002366  1
  Pt  Pt1  1  0.00001811  0.00001131  0.25401915  1
  Pt  Pt2  1  0.69017269  0.19005024  0.49994664  1
  Pt  Pt3  1  0.19004745  0.30982665  0.49996057  1
  Pt  Pt4  1  0.76289652  0.26276190  0.00003588  1
  Pt  Pt5  1  0.80995457  0.69017675  0.49995873  1
  Pt  Pt6  1  0.30983706  0.80995716  0.49995053  1
  Pt  Pt7  1  0.73722632  0.76290262  0.00003096  1
  Pt  Pt8  1  0.49997894  0.49999460  0.25396951  1
  Pt  Pt9  1  -0.00000693  0.00000035  0.74600369  1
  Pt  Pt10  1  0.26277586  0.23710854  0.00003058  1
  Pt  Pt11  1  0.49999721  0.49999815  0.74605984  1
loop_
_geom_bond_atom_site_label_1
_geom_bond_atom_site_label_2
_geom_bond_distance
_geom_bond_site_symmetry_2
Al0 Pt6 2.542567 1_545
Al0 Pt2 2.542612 1_555
Al0 Pt7 2.612519 1_545
Al0 Pt10 2.612547 1_555
Al0 Pt1 2.744665 1_555
Al0 Pt8 2.744695 1_555
Al0 Pt8 2.744752 1_545
Al0 Pt1 2.744867 1_655
Al0 Pt4 2.756183 1_555
Al0 Pt0 2.756369 1_545
Al1 Pt3 2.543252 1_655
Al1 Pt5 2.543267 1_555
Al1 Pt0 2.612812 1_656
Al1 Pt4 2.612815 1_556
Al1 Pt9 2.744682 1_655
Al1 Pt11 2.744698 1_555
Al1 Pt11 2.744780 1_655
Al1 Pt9 2.744796 1_665
Al1 Pt10 2.756506 1_656
Al1 Pt7 2.756530 1_556
Al2 Pt5 2.542694 1_455
Al2 Pt3 2.542717 1_555
Al2 Pt0 2.612455 1_555
Al2 Pt4 2.612572 1_455
Al2 Pt8 2.744607 1_555
Al2 Pt1 2.744725 1_555
Al2 Pt1 2.744766 1_565
Al2 Pt8 2.744889 1_455
Al2 Pt10 2.756219 1_555
Al2 Pt7 2.756228 1_455
Al3 Pt2 2.543273 1_555
Al3 Pt6 2.543305 1_545
Al3 Pt7 2.612835 1_546
Al3 Pt10 2.612846 1_556
Al3 Pt11 2.744659 1_555
Al3 Pt9 2.744685 1_655
Al3 Pt11 2.744770 1_545
Al3 Pt9 2.744833 1_555
Al3 Pt4 2.756522 1_556
Al3 Pt0 2.756591 1_546
