# generated using pymatgen
data_Na2Co(NO3)4
_symmetry_space_group_name_H-M   'P 1'
_cell_length_a   7.80932500
_cell_length_b   10.85155700
_cell_length_c   15.68142037
_cell_angle_alpha   49.20464869
_cell_angle_beta   90.00000000
_cell_angle_gamma   90.00000000
_symmetry_Int_Tables_number   1
_chemical_formula_structural   Na2Co(NO3)4
_chemical_formula_sum   'Na8 Co4 N16 O48'
_cell_volume   1006.03804799
_cell_formula_units_Z   4
loop_
 _symmetry_equiv_pos_site_id
 _symmetry_equiv_pos_as_xyz
  1  'x, y, z'
loop_
 _atom_site_type_symbol
 _atom_site_label
 _atom_site_symmetry_multiplicity
 _atom_site_fract_x
 _atom_site_fract_y
 _atom_site_fract_z
 _atom_site_occupancy
  Na  Na0  1  0.16791900  0.13322400  0.82980200  1
  Na  Na1  1  0.84251900  0.33066000  0.16009300  1
  Na  Na2  1  0.65748100  0.33066000  0.66009300  1
  Na  Na3  1  0.66791900  0.86677600  0.67019800  1
  Na  Na4  1  0.15748100  0.66934000  0.83990700  1
  Na  Na5  1  0.83208100  0.86677600  0.17019800  1
  Na  Na6  1  0.34251900  0.66934000  0.33990700  1
  Na  Na7  1  0.33208100  0.13322400  0.32980200  1
  Co  Co0  1  0.05138000  0.72566700  0.53040200  1
  Co  Co1  1  0.55138000  0.27433300  0.96959800  1
  Co  Co2  1  0.44862000  0.72566700  0.03040200  1
  Co  Co3  1  0.94862000  0.27433300  0.46959800  1
  N  N0  1  0.95797500  0.95044500  0.31043900  1
  N  N1  1  0.04202500  0.04955500  0.68956100  1
  N  N2  1  0.76296400  0.52726800  0.90152300  1
  N  N3  1  0.23016600  0.81763400  0.11096400  1
  N  N4  1  0.26983400  0.81763400  0.61096400  1
  N  N5  1  0.45797500  0.04955500  0.18956100  1
  N  N6  1  0.76931800  0.65883200  0.09242400  1
  N  N7  1  0.23068200  0.34116800  0.90757600  1
  N  N8  1  0.73068200  0.65883200  0.59242400  1
  N  N9  1  0.26931800  0.34116800  0.40757600  1
  N  N10  1  0.54202500  0.95044500  0.81043900  1
  N  N11  1  0.76983400  0.18236600  0.88903600  1
  N  N12  1  0.73016600  0.18236600  0.38903600  1
  N  N13  1  0.26296400  0.47273200  0.59847700  1
  N  N14  1  0.73703600  0.52726800  0.40152300  1
  N  N15  1  0.23703600  0.47273200  0.09847700  1
  O  O0  1  0.09903900  0.93856800  0.78657200  1
  O  O1  1  0.95391300  0.80263600  0.35418800  1
  O  O2  1  0.92007100  0.61628900  0.11904800  1
  O  O3  1  0.69538900  0.12435700  0.48747900  1
  O  O4  1  0.26792100  0.61597100  0.00234600  1
  O  O5  1  0.80461100  0.12435700  0.98747900  1
  O  O6  1  0.76792100  0.38402900  0.49765400  1
  O  O7  1  0.18113900  0.43215600  0.68258300  1
  O  O8  1  0.68113900  0.56784400  0.81741700  1
  O  O9  1  0.54608700  0.80263600  0.85418800  1
  O  O10  1  0.30461100  0.87564300  0.51252100  1
  O  O11  1  0.23207900  0.61597100  0.50234600  1
  O  O12  1  0.20790300  0.21094400  0.43414100  1
  O  O13  1  0.02196100  0.98088200  0.37058700  1
  O  O14  1  0.31886100  0.43215600  0.18258300  1
  O  O15  1  0.36850000  0.38188700  0.60368400  1
  O  O16  1  0.04608700  0.19736400  0.64581200  1
  O  O17  1  0.64314900  0.15735400  0.33485900  1
  O  O18  1  0.73207900  0.38402900  0.99765400  1
  O  O19  1  0.16025100  0.42927800  0.41003400  1
  O  O20  1  0.33974900  0.42927800  0.91003400  1
  O  O21  1  0.42007100  0.38371100  0.38095200  1
  O  O22  1  0.86453200  0.27433000  0.34257900  1
  O  O23  1  0.36453200  0.72567000  0.15742100  1
  O  O24  1  0.14314900  0.84264600  0.16514100  1
  O  O25  1  0.59903900  0.06143200  0.71342800  1
  O  O26  1  0.66025100  0.57072200  0.08996600  1
  O  O27  1  0.57992900  0.61628900  0.61904800  1
  O  O28  1  0.63546800  0.27433000  0.84257900  1
  O  O29  1  0.70790300  0.78905600  0.06585900  1
  O  O30  1  0.07992900  0.38371100  0.88095200  1
  O  O31  1  0.29209700  0.21094400  0.93414100  1
  O  O32  1  0.81886100  0.56784400  0.31741700  1
  O  O33  1  0.85685100  0.15735400  0.83485900  1
  O  O34  1  0.90096100  0.06143200  0.21342800  1
  O  O35  1  0.52196100  0.01911800  0.12941300  1
  O  O36  1  0.13546800  0.72567000  0.65742100  1
  O  O37  1  0.13150000  0.38188700  0.10368400  1
  O  O38  1  0.47803900  0.98088200  0.87058700  1
  O  O39  1  0.63150000  0.61811300  0.39631600  1
  O  O40  1  0.79209700  0.78905600  0.56585900  1
  O  O41  1  0.86850000  0.61811300  0.89631600  1
  O  O42  1  0.19538900  0.87564300  0.01252100  1
  O  O43  1  0.40096100  0.93856800  0.28657200  1
  O  O44  1  0.97803900  0.01911800  0.62941300  1
  O  O45  1  0.83974900  0.57072200  0.58996600  1
  O  O46  1  0.35685100  0.84264600  0.66514100  1
  O  O47  1  0.45391300  0.19736400  0.14581200  1
loop_
_geom_bond_atom_site_label_1
_geom_bond_atom_site_label_2
_geom_bond_distance
_geom_bond_site_symmetry_2
Na0 O42 2.367148 1_546
Na0 O33 2.450133 1_455
Na0 O7 2.465210 1_555
Na0 O31 2.476283 1_555
Na0 O0 2.661197 1_545
Na0 O16 2.662717 1_555
Na0 O38 2.761449 1_545
Na1 O37 2.354112 1_655
Na1 O18 2.374900 1_554
Na1 O34 2.500054 1_555
Na1 O26 2.505636 1_555
Na1 O22 2.511261 1_555
Na1 O17 2.595530 1_555
Na1 O2 2.789480 1_555
Na2 O15 2.354112 1_555
Na2 O6 2.374900 1_555
Na2 O25 2.500054 1_555
Na2 O45 2.505636 1_555
Na2 O28 2.511261 1_555
Na2 O33 2.595530 1_555
Na2 O27 2.789480 1_555
Na3 O3 2.367148 1_565
Na3 O46 2.450133 1_555
Na3 O8 2.465210 1_555
Na3 O40 2.476283 1_555
Na3 O25 2.661197 1_565
Na3 O9 2.662717 1_555
Na3 O44 2.761449 1_565
Na4 O41 2.354112 1_455
Na4 O4 2.374900 1_556
Na4 O0 2.500054 1_555
Na4 O20 2.505636 1_555
Na4 O36 2.511261 1_555
Na4 O46 2.595530 1_555
Na4 O30 2.789480 1_555
Na5 O5 2.367148 1_564
Na5 O24 2.450133 1_655
Na5 O32 2.465210 1_555
Na5 O29 2.476283 1_555
Na5 O34 2.661197 1_565
Na5 O1 2.662717 1_555
Na5 O35 2.761449 1_565
Na6 O39 2.354112 1_555
Na6 O11 2.374900 1_555
Na6 O43 2.500054 1_555
Na6 O19 2.505636 1_555
Na6 O23 2.511261 1_555
Na6 O24 2.595530 1_555
Na6 O21 2.789480 1_555
Na7 O10 2.367148 1_545
Na7 O17 2.450133 1_555
Na7 O14 2.465210 1_555
Na7 O12 2.476283 1_555
Na7 O43 2.661197 1_545
Na7 O47 2.662717 1_555
Na7 O13 2.761449 1_545
Co0 O11 2.070315 1_555
Co0 O45 2.092541 1_455
Co0 O36 2.097313 1_555
Co0 O13 2.221255 1_555
Co0 O40 2.319916 1_455
Co0 O1 2.428338 1_455
Co0 O10 2.457995 1_555
Co0 O7 2.633285 1_555
Co1 O18 2.070315 1_555
Co1 O20 2.092541 1_555
Co1 O28 2.097313 1_555
Co1 O35 2.221255 1_556
Co1 O31 2.319916 1_555
Co1 O47 2.428338 1_556
Co1 O5 2.457995 1_555
Co1 O8 2.633285 1_555
Co2 O4 2.070315 1_555
Co2 O26 2.092541 1_555
Co2 O23 2.097313 1_555
Co2 O38 2.221255 1_554
Co2 O29 2.319916 1_555
Co2 O9 2.428338 1_554
Co2 O42 2.457995 1_555
Co2 O14 2.633285 1_555
Co3 O6 2.070315 1_555
Co3 O19 2.092541 1_655
Co3 O22 2.097313 1_555
Co3 O44 2.221255 1_555
Co3 O12 2.319916 1_655
Co3 O16 2.428338 1_655
Co3 O3 2.457995 1_555
Co3 O32 2.633285 1_555
N0 O34 1.252550 1_565
N0 O1 1.267457 1_555
N0 O13 1.286662 1_655
N1 O0 1.252550 1_545
N1 O16 1.267457 1_555
N1 O44 1.286662 1_455
N2 O41 1.246015 1_555
N2 O8 1.258112 1_555
N2 O18 1.298015 1_555
N3 O24 1.248414 1_555
N3 O42 1.258289 1_555
N3 O23 1.295251 1_555
N4 O46 1.248414 1_555
N4 O10 1.258289 1_555
N4 O36 1.295251 1_555
N5 O43 1.252550 1_545
N5 O47 1.267457 1_555
N5 O35 1.286662 1_555
N6 O2 1.233516 1_555
N6 O29 1.277212 1_555
N6 O26 1.299727 1_555
N7 O30 1.233516 1_555
N7 O31 1.277212 1_555
N7 O20 1.299727 1_555
N8 O27 1.233516 1_555
N8 O40 1.277212 1_555
N8 O45 1.299727 1_555
N9 O21 1.233516 1_555
N9 O12 1.277212 1_555
N9 O19 1.299727 1_555
N10 O25 1.252550 1_565
N10 O9 1.267457 1_555
N10 O38 1.286662 1_555
N11 O33 1.248414 1_555
N11 O5 1.258289 1_555
N11 O28 1.295251 1_555
N12 O17 1.248414 1_555
N12 O3 1.258289 1_555
N12 O22 1.295251 1_555
N13 O15 1.246015 1_555
N13 O7 1.258112 1_555
N13 O11 1.298015 1_555
N14 O39 1.246015 1_555
N14 O32 1.258112 1_555
N14 O6 1.298015 1_555
N15 O37 1.246015 1_555
N15 O14 1.258112 1_555
N15 O4 1.298015 1_555
