# generated using pymatgen
data_CaMoO3
_symmetry_space_group_name_H-M   'P 1'
_cell_length_a   5.52632600
_cell_length_b   5.75052600
_cell_length_c   7.91566660
_cell_angle_alpha   89.38257035
_cell_angle_beta   90.00000000
_cell_angle_gamma   90.00000000
_symmetry_Int_Tables_number   1
_chemical_formula_structural   CaMoO3
_chemical_formula_sum   'Ca4 Mo4 O12'
_cell_volume   251.53959018
_cell_formula_units_Z   4
loop_
 _symmetry_equiv_pos_site_id
 _symmetry_equiv_pos_as_xyz
  1  'x, y, z'
loop_
 _atom_site_type_symbol
 _atom_site_label
 _atom_site_symmetry_multiplicity
 _atom_site_fract_x
 _atom_site_fract_y
 _atom_site_fract_z
 _atom_site_occupancy
  Ca  Ca0  1  0.01155000  0.05135100  0.24640000  1
  Ca  Ca1  1  0.51155000  0.44864900  0.75360000  1
  Ca  Ca2  1  0.48845000  0.55135100  0.24640000  1
  Ca  Ca3  1  0.98845000  0.94864900  0.75360000  1
  Mo  Mo0  1  0.50000000  0.00000000  0.50000000  1
  Mo  Mo1  1  0.00000000  0.50000000  0.50000000  1
  Mo  Mo2  1  0.00000000  0.50000000  0.00000000  1
  Mo  Mo3  1  0.50000000  0.00000000  0.00000000  1
  O  O0  1  0.30329100  0.31062800  0.04936500  1
  O  O1  1  0.80329100  0.18937200  0.95063500  1
  O  O2  1  0.19541500  0.79480900  0.44410400  1
  O  O3  1  0.69541500  0.70519100  0.55589600  1
  O  O4  1  0.69670900  0.68937200  0.95063500  1
  O  O5  1  0.19670900  0.81062800  0.04936500  1
  O  O6  1  0.80458500  0.20519100  0.55589600  1
  O  O7  1  0.30458500  0.29480900  0.44410400  1
  O  O8  1  0.90038700  0.45761700  0.25040200  1
  O  O9  1  0.40038700  0.04238300  0.74959800  1
  O  O10  1  0.59961300  0.95761700  0.25040200  1
  O  O11  1  0.09961300  0.54238300  0.74959800  1
loop_
_geom_bond_atom_site_label_1
_geom_bond_atom_site_label_2
_geom_bond_distance
_geom_bond_site_symmetry_2
Ca0 O5 2.332887 1_545
Ca0 O10 2.339577 1_445
Ca0 O2 2.368156 1_545
Ca0 O8 2.416200 1_455
Ca0 O7 2.660607 1_555
Ca0 O0 2.684180 1_555
Ca0 O1 2.719485 1_454
Ca0 O6 2.852957 1_455
Ca1 O4 2.332887 1_555
Ca1 O11 2.339577 1_555
Ca1 O3 2.368156 1_555
Ca1 O9 2.416200 1_555
Ca1 O6 2.660607 1_555
Ca1 O1 2.684180 1_555
Ca1 O0 2.719485 1_556
Ca1 O7 2.852957 1_555
Ca2 O0 2.332887 1_555
Ca2 O8 2.339577 1_555
Ca2 O7 2.368156 1_555
Ca2 O10 2.416200 1_555
Ca2 O2 2.660607 1_555
Ca2 O5 2.684180 1_555
Ca2 O4 2.719485 1_554
Ca2 O3 2.852957 1_555
Ca3 O1 2.332887 1_565
Ca3 O9 2.339577 1_665
Ca3 O6 2.368156 1_565
Ca3 O11 2.416200 1_655
Ca3 O3 2.660607 1_555
Ca3 O4 2.684180 1_555
Ca3 O5 2.719485 1_656
Ca3 O2 2.852957 1_655
Mo0 O7 2.054241 1_555
Mo0 O3 2.054241 1_545
Mo0 O10 2.067934 1_545
Mo0 O9 2.067934 1_555
Mo0 O6 2.105373 1_555
Mo0 O2 2.105373 1_545
Mo1 O2 2.054241 1_555
Mo1 O6 2.054241 1_455
Mo1 O8 2.067934 1_455
Mo1 O11 2.067934 1_555
Mo1 O3 2.105373 1_455
Mo1 O7 2.105373 1_555
Mo2 O0 2.034374 1_555
Mo2 O4 2.034374 1_454
Mo2 O8 2.068997 1_455
Mo2 O11 2.068997 1_554
Mo2 O5 2.130786 1_555
Mo2 O1 2.130786 1_454
Mo3 O5 2.034374 1_545
Mo3 O1 2.034374 1_554
Mo3 O10 2.068997 1_545
Mo3 O9 2.068997 1_554
Mo3 O0 2.130786 1_555
Mo3 O4 2.130786 1_544
