# generated using pymatgen
data_Ge(WO3)6
_symmetry_space_group_name_H-M   'P 1'
_cell_length_a   7.56709369
_cell_length_b   7.56709369
_cell_length_c   23.17167700
_cell_angle_alpha   90.00000000
_cell_angle_beta   90.00000000
_cell_angle_gamma   119.91366714
_symmetry_Int_Tables_number   1
_chemical_formula_structural   Ge(WO3)6
_chemical_formula_sum   'Ge3 W18 O54'
_cell_volume   1150.06788554
_cell_formula_units_Z   3
loop_
 _symmetry_equiv_pos_site_id
 _symmetry_equiv_pos_as_xyz
  1  'x, y, z'
loop_
 _atom_site_type_symbol
 _atom_site_label
 _atom_site_symmetry_multiplicity
 _atom_site_fract_x
 _atom_site_fract_y
 _atom_site_fract_z
 _atom_site_occupancy
  Ge  Ge0  1  0.10152100  0.10152100  0.50000000  1
  Ge  Ge1  1  0.89874700  0.89874700  0.33368000  1
  Ge  Ge2  1  0.89874700  0.89874700  0.66632000  1
  W  W0  1  0.99920600  0.49984400  0.00000000  1
  W  W1  1  0.99400000  0.50929900  0.50000000  1
  W  W2  1  0.49489700  0.49489700  0.33265400  1
  W  W3  1  0.49489700  0.49489700  0.66734600  1
  W  W4  1  0.50136600  0.00130500  0.83366800  1
  W  W5  1  0.49984400  0.99920600  0.00000000  1
  W  W6  1  0.50136600  0.00130500  0.16633200  1
  W  W7  1  0.49016100  0.00425600  0.33315200  1
  W  W8  1  0.50929900  0.99400000  0.50000000  1
  W  W9  1  0.49016100  0.00425600  0.66684800  1
  W  W10  1  0.50073800  0.50073800  0.83429200  1
  W  W11  1  0.50073800  0.50073800  0.16570800  1
  W  W12  1  0.49904600  0.49904600  0.00000000  1
  W  W13  1  0.50443300  0.50443300  0.50000000  1
  W  W14  1  0.00130500  0.50136600  0.83366800  1
  W  W15  1  0.00130500  0.50136600  0.16633200  1
  W  W16  1  0.00425600  0.49016100  0.33315200  1
  W  W17  1  0.00425600  0.49016100  0.66684800  1
  O  O0  1  0.21491500  0.42980300  0.83156000  1
  O  O1  1  0.21509800  0.43011100  0.00000000  1
  O  O2  1  0.21491500  0.42980300  0.16844000  1
  O  O3  1  0.20208400  0.41328400  0.33477000  1
  O  O4  1  0.18774000  0.38322000  0.50000000  1
  O  O5  1  0.20208400  0.41328400  0.66523000  1
  O  O6  1  0.21473400  0.78533600  0.83205700  1
  O  O7  1  0.21481700  0.78493100  0.00000000  1
  O  O8  1  0.21473400  0.78533600  0.16794300  1
  O  O9  1  0.21707500  0.78207200  0.33443900  1
  O  O10  1  0.21821100  0.78241800  0.50000000  1
  O  O11  1  0.21707500  0.78207200  0.66556100  1
  O  O12  1  0.57102000  0.78488900  0.83200600  1
  O  O13  1  0.57008800  0.78485800  0.00000000  1
  O  O14  1  0.57102000  0.78488900  0.16799400  1
  O  O15  1  0.61675600  0.81174700  0.33507100  1
  O  O16  1  0.58809400  0.79766500  0.50000000  1
  O  O17  1  0.61675600  0.81174700  0.66492900  1
  O  O18  1  0.50000400  0.99567400  0.74832500  1
  O  O19  1  0.49960200  0.00019500  0.91602400  1
  O  O20  1  0.49960200  0.00019500  0.08397600  1
  O  O21  1  0.50002800  0.99997900  0.41699200  1
  O  O22  1  0.50000400  0.99567400  0.25167500  1
  O  O23  1  0.50002800  0.99997900  0.58300800  1
  O  O24  1  0.42980300  0.21491500  0.83156000  1
  O  O25  1  0.43011100  0.21509800  0.00000000  1
  O  O26  1  0.42980300  0.21491500  0.16844000  1
  O  O27  1  0.41328400  0.20208400  0.33477000  1
  O  O28  1  0.38322000  0.18774000  0.50000000  1
  O  O29  1  0.41328400  0.20208400  0.66523000  1
  O  O30  1  0.50015800  0.50015800  0.74811900  1
  O  O31  1  0.49937100  0.49937100  0.91610100  1
  O  O32  1  0.49937100  0.49937100  0.08389900  1
  O  O33  1  0.50015800  0.50015800  0.25188100  1
  O  O34  1  0.49925600  0.49925600  0.41707600  1
  O  O35  1  0.49925600  0.49925600  0.58292400  1
  O  O36  1  0.78533600  0.21473400  0.83205700  1
  O  O37  1  0.78493100  0.21481700  0.00000000  1
  O  O38  1  0.78533600  0.21473400  0.16794300  1
  O  O39  1  0.78207200  0.21707500  0.33443900  1
  O  O40  1  0.78241800  0.21821100  0.50000000  1
  O  O41  1  0.78207200  0.21707500  0.66556100  1
  O  O42  1  0.78488900  0.57102000  0.83200600  1
  O  O43  1  0.78485800  0.57008800  0.00000000  1
  O  O44  1  0.78488900  0.57102000  0.16799400  1
  O  O45  1  0.81174700  0.61675600  0.33507100  1
  O  O46  1  0.79766500  0.58809400  0.50000000  1
  O  O47  1  0.81174700  0.61675600  0.66492900  1
  O  O48  1  0.99567400  0.50000400  0.74832500  1
  O  O49  1  0.00019500  0.49960200  0.91602400  1
  O  O50  1  0.00019500  0.49960200  0.08397600  1
  O  O51  1  0.99567400  0.50000400  0.25167500  1
  O  O52  1  0.99997900  0.50002800  0.41699200  1
  O  O53  1  0.99997900  0.50002800  0.58300800  1
loop_
_geom_bond_atom_site_label_1
_geom_bond_atom_site_label_2
_geom_bond_distance
_geom_bond_site_symmetry_2
Ge0 O4 1.892736 1_555
Ge0 O28 1.892736 1_555
Ge1 O45 1.893844 1_555
Ge1 O15 1.893844 1_555
Ge2 O47 1.893844 1_555
Ge2 O17 1.893844 1_555
O0 W14 1.944593 1_555
O0 W10 1.952466 1_555
O1 W12 1.941895 1_555
O1 W0 1.951189 1_455
O2 W15 1.944593 1_555
O2 W11 1.952466 1_555
O3 W16 1.857244 1_555
O3 W2 1.982047 1_555
O4 W13 2.095688 1_555
O4 W1 2.110580 1_455
O5 W17 1.857244 1_555
O5 W3 1.982047 1_555
O6 W14 1.940573 1_555
O6 W4 1.959904 1_565
O7 W5 1.947545 1_555
O7 W0 1.950715 1_455
O8 W15 1.940573 1_555
O8 W6 1.959904 1_565
O9 W7 1.905951 1_565
O9 W16 1.981329 1_555
O10 W1 1.911169 1_455
O10 W8 1.974286 1_555
O11 W9 1.905951 1_565
O11 W17 1.981329 1_555
O12 W10 1.941248 1_555
O12 W4 1.955012 1_565
O13 W5 1.942499 1_555
O13 W12 1.951134 1_555
O14 W11 1.941248 1_555
O14 W6 1.955012 1_565
O15 W2 2.096892 1_555
O15 W7 2.105605 1_565
O16 W8 1.856421 1_555
O16 W13 1.980731 1_555
O17 W3 2.096892 1_555
O17 W9 2.105605 1_565
O18 W9 1.891819 1_565
O18 W4 1.977916 1_565
O19 W4 1.908363 1_555
O19 W5 1.945884 1_546
O20 W6 1.908363 1_555
O20 W5 1.945884 1_545
O21 W8 1.926067 1_555
O21 W7 1.945037 1_565
O22 W7 1.891819 1_565
O22 W6 1.977916 1_565
O23 W8 1.926067 1_555
O23 W9 1.945037 1_565
O24 W4 1.944593 1_555
O24 W10 1.952466 1_555
O25 W12 1.941895 1_555
O25 W5 1.951189 1_545
O26 W6 1.944593 1_555
O26 W11 1.952466 1_555
O27 W7 1.857244 1_555
O27 W2 1.982047 1_555
O28 W13 2.095688 1_555
O28 W8 2.110580 1_545
O29 W9 1.857244 1_555
O29 W3 1.982047 1_555
O30 W3 1.872070 1_555
O30 W10 1.996778 1_555
O31 W10 1.895680 1_555
O31 W12 1.944082 1_556
O32 W11 1.895680 1_555
O32 W12 1.944082 1_555
O33 W2 1.872070 1_555
O33 W11 1.996778 1_555
O34 W13 1.921888 1_555
O34 W2 1.956478 1_555
O35 W13 1.921888 1_555
O35 W3 1.956478 1_555
O36 W4 1.940573 1_555
O36 W14 1.959904 1_655
O37 W0 1.947545 1_555
O37 W5 1.950715 1_545
O38 W6 1.940573 1_555
O38 W15 1.959904 1_655
O39 W16 1.905951 1_655
O39 W7 1.981329 1_555
O40 W8 1.911169 1_545
O40 W1 1.974286 1_555
O41 W17 1.905951 1_655
O41 W9 1.981329 1_555
O42 W10 1.941248 1_555
O42 W14 1.955012 1_655
O43 W0 1.942499 1_555
O43 W12 1.951134 1_555
O44 W11 1.941248 1_555
O44 W15 1.955012 1_655
O45 W2 2.096892 1_555
O45 W16 2.105605 1_655
O46 W1 1.856421 1_555
O46 W13 1.980731 1_555
O47 W3 2.096892 1_555
O47 W17 2.105605 1_655
O48 W17 1.891819 1_655
O48 W14 1.977916 1_655
O49 W14 1.908363 1_555
O49 W0 1.945884 1_456
O50 W15 1.908363 1_555
O50 W0 1.945884 1_455
O51 W16 1.891819 1_655
O51 W15 1.977916 1_655
O52 W1 1.926067 1_555
O52 W16 1.945037 1_655
O53 W1 1.926067 1_555
O53 W17 1.945037 1_655
