# generated using pymatgen
data_Ba39Li80N9
_symmetry_space_group_name_H-M   'P 1'
_cell_length_a   15.78792226
_cell_length_b   15.78792218
_cell_length_c   19.39555475
_cell_angle_alpha   114.01642054
_cell_angle_beta   114.01642039
_cell_angle_gamma   90.00000043
_symmetry_Int_Tables_number   1
_chemical_formula_structural   Ba39Li80N9
_chemical_formula_sum   'Ba39 Li80 N9'
_cell_volume   3953.38669771
_cell_formula_units_Z   1
loop_
 _symmetry_equiv_pos_site_id
 _symmetry_equiv_pos_as_xyz
  1  'x, y, z'
loop_
 _atom_site_type_symbol
 _atom_site_label
 _atom_site_symmetry_multiplicity
 _atom_site_fract_x
 _atom_site_fract_y
 _atom_site_fract_z
 _atom_site_occupancy
  Ba  Ba0  1  1.00000000  0.82113337  1.00000000  1
  Ba  Ba1  1  0.07384090  0.74658402  0.49922386  1
  Ba  Ba2  1  0.82431816  0.36529890  0.91015851  1
  Ba  Ba3  1  0.92615910  0.24736016  0.50077614  1
  Ba  Ba4  1  0.08674677  0.08674677  0.17349354  1
  Ba  Ba5  1  0.24736016  0.92615910  0.50077614  1
  Ba  Ba6  1  0.63470110  0.91415965  0.08984149  1
  Ba  Ba7  1  0.90633612  0.69656544  0.60290157  1
  Ba  Ba8  1  0.22382932  0.40480203  0.62863135  1
  Ba  Ba9  1  0.30343456  0.30343456  0.39709843  1
  Ba  Ba10  1  0.36529890  0.82431816  0.91015851  1
  Ba  Ba11  1  0.42538295  0.75263984  0.49922386  1
  Ba  Ba12  1  0.17568184  0.45514039  0.08984149  1
  Ba  Ba13  1  0.55863921  0.32255148  0.88119070  1
  Ba  Ba14  1  0.33972371  0.83972371  0.67944742  1
  Ba  Ba15  1  0.69656544  0.90633612  0.60290157  1
  Ba  Ba16  1  0.16027629  0.66027629  0.32055258  1
  Ba  Ba17  1  0.09366388  0.09366388  0.39709843  1
  Ba  Ba18  1  0.83972371  0.33972371  0.67944742  1
  Ba  Ba19  1  0.32255148  0.55863921  0.88119070  1
  Ba  Ba20  1  0.77617068  0.77617068  0.37136865  1
  Ba  Ba21  1  0.54485961  0.08584035  0.91015851  1
  Ba  Ba22  1  0.08584035  0.54485961  0.91015851  1
  Ba  Ba23  1  0.57461705  0.25341598  0.50077614  1
  Ba  Ba24  1  0.74658402  0.07384090  0.49922386  1
  Ba  Ba25  1  0.00000000  0.17886663  0.00000000  1
  Ba  Ba26  1  0.17886663  0.00000000  0.00000000  1
  Ba  Ba27  1  0.67744852  0.67744852  0.11880930  1
  Ba  Ba28  1  0.91415965  0.63470110  0.08984149  1
  Ba  Ba29  1  0.44136079  0.44136079  0.11880931  1
  Ba  Ba30  1  0.82113337  1.00000000  1.00000000  1
  Ba  Ba31  1  0.66027629  0.16027629  0.32055258  1
  Ba  Ba32  1  0.25341598  0.57461705  0.50077614  1
  Ba  Ba33  1  0.40480203  0.22382932  0.62863135  1
  Ba  Ba34  1  0.75263984  0.42538295  0.49922386  1
  Ba  Ba35  1  0.45514039  0.17568184  0.08984149  1
  Ba  Ba36  1  0.50000000  0.50000000  0.00000000  1
  Ba  Ba37  1  0.91325323  0.91325323  0.82650646  1
  Ba  Ba38  1  0.59519797  0.59519797  0.37136865  1
  Li  Li0  1  0.50872203  0.50872203  0.49998298  1
  Li  Li1  1  0.46398641  0.46398641  0.62299513  1
  Li  Li2  1  0.87715429  0.62412481  0.75055971  1
  Li  Li3  1  0.57507512  0.80617863  0.85139943  1
  Li  Li4  1  0.75456673  0.45989520  0.08131892  1
  Li  Li5  1  0.31575530  0.05582474  0.37158004  1
  Li  Li6  1  0.00603903  0.47495502  0.33543367  1
  Li  Li7  1  0.62412481  0.87715429  0.75055971  1
  Li  Li8  1  0.47495502  0.00603903  0.33543367  1
  Li  Li9  1  0.45989520  0.75456673  0.08131892  1
  Li  Li10  1  0.90354712  0.90354712  0.17437461  1
  Li  Li11  1  0.33202768  0.09782437  0.73152710  1
  Li  Li12  1  0.83207581  0.97474897  0.31682756  1
  Li  Li13  1  0.95477921  0.42492488  0.14860057  1
  Li  Li14  1  0.04522079  0.27632431  0.85139943  1
  Li  Li15  1  0.52833532  0.68815377  0.21648908  1
  Li  Li16  1  0.87340543  0.12643490  0.75055971  1
  Li  Li17  1  0.72367569  0.19382137  0.14860057  1
  Li  Li18  1  0.97474897  0.83207581  0.31682756  1
  Li  Li19  1  0.09782437  0.33202768  0.73152710  1
  Li  Li20  1  0.02525103  0.51524826  0.68317244  1
  Li  Li21  1  0.39949942  0.63370273  0.73152710  1
  Li  Li22  1  0.80617863  0.57507512  0.85139943  1
  Li  Li23  1  0.13952134  0.99396097  0.66456633  1
  Li  Li24  1  0.84099127  0.53601359  0.37700487  1
  Li  Li25  1  0.53601359  0.84099127  0.37700487  1
  Li  Li26  1  0.16792419  0.65792141  0.68317244  1
  Li  Li27  1  0.24825743  0.78559964  0.03385707  1
  Li  Li28  1  0.67060536  0.52504498  0.66456633  1
  Li  Li29  1  0.36629727  0.66797232  0.26847290  1
  Li  Li30  1  0.99126095  0.99126095  0.49998298  1
  Li  Li31  1  0.37587519  0.12659457  0.24944029  1
  Li  Li32  1  0.93293457  0.25928384  0.19221841  1
  Li  Li33  1  0.75174257  0.75174257  0.96614293  1
  Li  Li34  1  0.24543327  0.37857629  0.91868108  1
  Li  Li35  1  0.32939464  0.86047866  0.33543367  1
  Li  Li36  1  0.12284571  0.87356510  0.24944029  1
  Li  Li37  1  0.68815377  0.52833532  0.21648908  1
  Li  Li38  1  0.49127797  0.00873905  0.50001702  1
  Li  Li39  1  0.78559964  0.24825743  0.03385707  1
  Li  Li40  1  0.67324781  0.54010480  0.91868108  1
  Li  Li41  1  0.12643490  0.87340543  0.75055971  1
  Li  Li42  1  0.86047866  0.32939464  0.33543367  1
  Li  Li43  1  0.48475174  0.34207859  0.31682756  1
  Li  Li44  1  0.65792141  0.16792419  0.68317244  1
  Li  Li45  1  0.72917251  0.09645288  0.82562539  1
  Li  Li46  1  0.90217563  0.60050058  0.26847290  1
  Li  Li47  1  0.25928384  0.93293457  0.19221841  1
  Li  Li48  1  0.60435326  0.60435326  0.79111007  1
  Li  Li49  1  0.74071616  0.74071616  0.80778159  1
  Li  Li50  1  0.19382137  0.72367569  0.14860057  1
  Li  Li51  1  0.52504498  0.67060536  0.66456633  1
  Li  Li52  1  0.00873905  0.49127797  0.50001702  1
  Li  Li53  1  0.06706543  0.06706543  0.80778159  1
  Li  Li54  1  0.81324318  0.39564674  0.20888993  1
  Li  Li55  1  0.37857629  0.24543327  0.91868108  1
  Li  Li56  1  0.94417526  0.94417526  0.62841996  1
  Li  Li57  1  0.31184623  0.31184623  0.78351092  1
  Li  Li58  1  0.39564674  0.81324318  0.20888993  1
  Li  Li59  1  0.99396097  0.13952134  0.66456633  1
  Li  Li60  1  0.62142371  0.32675219  0.08131892  1
  Li  Li61  1  0.54010480  0.67324781  0.91868108  1
  Li  Li62  1  0.27632431  0.04522079  0.85139943  1
  Li  Li63  1  0.32675219  0.62142371  0.08131892  1
  Li  Li64  1  0.60050058  0.90217563  0.26847290  1
  Li  Li65  1  0.51524826  0.02525103  0.68317244  1
  Li  Li66  1  0.34207859  0.48475174  0.31682756  1
  Li  Li67  1  0.18675682  0.18675682  0.79111007  1
  Li  Li68  1  0.47166468  0.47166468  0.78351092  1
  Li  Li69  1  0.63370273  0.39949942  0.73152710  1
  Li  Li70  1  0.27082749  0.27082749  0.17437461  1
  Li  Li71  1  0.21440036  0.21440036  0.96614293  1
  Li  Li72  1  0.68424470  0.68424470  0.62841996  1
  Li  Li73  1  0.09645288  0.72917251  0.82562539  1
  Li  Li74  1  0.66797232  0.36629727  0.26847290  1
  Li  Li75  1  0.87356510  0.12284571  0.24944029  1
  Li  Li76  1  0.42492488  0.95477921  0.14860057  1
  Li  Li77  1  0.15900873  0.15900873  0.62299513  1
  Li  Li78  1  0.05582474  0.31575530  0.37158004  1
  Li  Li79  1  0.12659457  0.37587519  0.24944029  1
  N  N0  1  0.50000000  0.31285668  1.00000000  1
  N  N1  1  0.59152794  0.59152794  0.18305588  1
  N  N2  1  0.31285668  0.50000000  1.00000000  1
  N  N3  1  0.68714332  0.50000000  0.00000000  1
  N  N4  1  0.25000000  0.75000000  0.50000000  1
  N  N5  1  0.00000000  0.00000000  0.00000000  1
  N  N6  1  0.50000000  0.68714332  0.00000000  1
  N  N7  1  0.75000000  0.25000000  0.50000000  1
  N  N8  1  0.40847206  0.40847206  0.81694412  1
loop_
_geom_bond_atom_site_label_1
_geom_bond_atom_site_label_2
_geom_bond_distance
_geom_bond_site_symmetry_2
Ba0 N5 2.823932 1_666
Ba0 Li33 3.783250 1_555
Ba0 Li27 3.783250 1_656
Ba0 Li49 3.999085 1_555
Ba0 Li47 3.999085 1_656
Ba0 Li10 4.007569 1_556
Ba0 Li73 4.007569 1_655
Ba0 Li50 4.058201 1_656
Ba0 Li22 4.058201 1_555
Ba1 N4 2.775498 1_555
Ba1 Li23 3.702833 1_555
Ba1 Li46 3.797276 1_455
Ba1 Li6 3.971293 1_555
Ba1 Li18 4.020716 1_455
Ba1 Li30 4.073286 1_455
Ba1 Li26 4.079992 1_555
Ba1 Li24 4.083813 1_455
Ba1 Ba7 4.157197 1_455
Ba1 Li52 4.167369 1_555
Ba2 N3 3.507808 1_556
Ba2 Li39 3.787729 1_556
Ba2 Li69 3.793095 1_555
Ba2 Li22 3.893133 1_555
Ba2 Li13 3.901154 1_556
Ba2 Li45 3.910380 1_555
Ba2 Li44 3.925863 1_555
Ba2 Li14 4.167450 1_655
Ba3 N7 2.775498 1_555
Ba3 Li42 3.702833 1_555
Ba3 Li19 3.797276 1_655
Ba3 Li59 3.971293 1_555
Ba3 Li20 4.020717 1_655
Ba3 Li52 4.073286 1_655
Ba3 Li12 4.079992 1_545
Ba3 Li77 4.083812 1_655
Ba3 Li30 4.167369 1_545
Ba4 N5 2.751710 1_555
Ba4 Li32 3.655365 1_455
Ba4 Li47 3.655365 1_545
Ba4 Li10 4.100249 1_445
Ba4 Li70 4.100249 1_555
Ba4 Ba9 4.249924 1_555
Ba5 N4 2.775498 1_555
Ba5 Li35 3.702833 1_555
Ba5 Li11 3.797276 1_565
Ba5 Li23 3.971293 1_555
Ba5 Li65 4.020717 1_565
Ba5 Li38 4.073286 1_565
Ba5 Li18 4.079992 1_455
Ba5 Li77 4.083812 1_565
Ba5 Li30 4.167369 1_455
Ba6 N6 3.507808 1_555
Ba6 Li33 3.787729 1_554
Ba6 Li64 3.793095 1_555
Ba6 Li76 3.893133 1_555
Ba6 Li3 3.901154 1_554
Ba6 Li10 3.910380 1_555
Ba6 Li12 3.925863 1_555
Ba6 Li17 4.167450 1_565
Ba7 Li2 3.669127 1_555
Ba7 Li41 3.669127 1_655
Ba7 Li24 3.737183 1_555
Ba7 Li72 3.750787 1_555
Ba7 Li56 3.750787 1_555
Ba7 Li52 3.802877 1_655
Ba7 Li20 3.923238 1_655
Ba7 Li26 3.923238 1_655
Ba7 Li73 3.945978 1_655
Ba8 Li19 3.789295 1_555
Ba8 Li21 3.789295 1_555
Ba8 Li26 3.897029 1_555
Ba8 Li20 3.897029 1_555
Ba8 Li52 3.936400 1_555
Ba8 Li77 3.960010 1_555
Ba8 Li1 3.960010 1_555
Ba8 Ba9 4.801178 1_555
Ba9 Li31 3.669127 1_555
Ba9 Li79 3.669127 1_555
Ba9 Li1 3.737183 1_555
Ba9 Li5 3.750787 1_555
Ba9 Li78 3.750787 1_555
Ba9 Li0 3.802877 1_555
Ba9 Li66 3.923238 1_555
Ba9 Li43 3.923238 1_555
Ba9 Li70 3.945978 1_555
Ba10 N6 3.507808 1_556
Ba10 Li27 3.787729 1_556
Ba10 Li21 3.793095 1_555
Ba10 Li3 3.893133 1_555
Ba10 Li76 3.901154 1_556
Ba10 Li73 3.910380 1_555
Ba10 Li26 3.925863 1_555
Ba10 Li62 4.167450 1_565
Ba11 N4 2.775498 1_555
Ba11 Li51 3.702833 1_555
Ba11 Li29 3.797276 1_555
Ba11 Li35 3.971293 1_555
Ba11 Li66 4.020717 1_555
Ba11 Li0 4.073286 1_555
Ba11 Li65 4.079992 1_565
Ba11 Li25 4.083812 1_555
Ba11 Ba15 4.157197 1_555
Ba11 Li38 4.167369 1_565
Ba12 N2 3.507808 1_554
Ba12 Li71 3.787729 1_554
Ba12 Li29 3.793095 1_555
Ba12 Li50 3.893133 1_555
Ba12 Li14 3.901154 1_554
Ba12 Li70 3.910380 1_555
Ba12 Li66 3.925863 1_555
Ba12 Li13 4.167450 1_455
Ba13 N8 2.825748 1_555
Ba13 N0 2.866061 1_555
Ba13 N3 2.866062 1_556
Ba14 N4 2.846142 1_555
Ba14 Li21 3.793298 1_555
Ba14 Li11 3.793298 1_565
Ba14 Li51 3.979068 1_555
Ba14 Li23 3.979068 1_555
Ba14 Li26 3.991106 1_555
Ba14 Li65 3.991106 1_565
Ba14 Li62 4.069445 1_565
Ba14 Li3 4.069445 1_555
Ba15 Li7 3.669127 1_555
Ba15 Li16 3.669127 1_565
Ba15 Li25 3.737183 1_555
Ba15 Li72 3.750787 1_555
Ba15 Li56 3.750787 1_555
Ba15 Li38 3.802877 1_565
Ba15 Li65 3.923238 1_565
Ba15 Li44 3.923238 1_565
Ba15 Li45 3.945978 1_565
Ba15 Ba24 4.157197 1_565
Ba15 Ba37 4.249924 1_555
Ba15 Ba7 4.683654 1_555
Ba15 Ba20 4.801178 1_555
Ba15 Ba38 4.801178 1_555
Ba16 N4 2.846142 1_555
Ba16 Li29 3.793298 1_555
Ba16 Li46 3.793298 1_455
Ba16 Li6 3.979068 1_555
Ba16 Li35 3.979068 1_555
Ba16 Li18 3.991106 1_455
Ba16 Li66 3.991107 1_555
Ba16 Li50 4.069445 1_555
Ba16 Li13 4.069445 1_455
Ba17 Li36 3.669127 1_545
Ba17 Li75 3.669127 1_455
Ba17 Li77 3.737183 1_555
Ba17 Li78 3.750787 1_555
Ba17 Li5 3.750787 1_555
Ba17 Li30 3.802877 1_445
Ba17 Li18 3.923238 1_445
Ba17 Li12 3.923238 1_445
Ba17 Li10 3.945978 1_445
Ba17 Ba5 4.157197 1_545
Ba17 Ba3 4.157197 1_455
Ba17 Ba4 4.249924 1_555
Ba17 Ba9 4.683654 1_555
Ba17 Ba8 4.801178 1_555
Ba17 Ba33 4.801178 1_555
Ba18 N7 2.846142 1_555
Ba18 Li69 3.793298 1_555
Ba18 Li19 3.793298 1_655
Ba18 Li28 3.979068 1_555
Ba18 Li59 3.979068 1_555
Ba18 Li44 3.991106 1_555
Ba18 Li20 3.991106 1_655
Ba18 Li14 4.069445 1_655
Ba18 Li22 4.069445 1_555
Ba19 N8 2.825748 1_555
Ba19 N2 2.866061 1_555
Ba19 N6 2.866062 1_556
Ba20 Li46 3.789295 1_555
Ba20 Li64 3.789295 1_555
Ba20 Li12 3.897029 1_555
Ba20 Li18 3.897029 1_555
Ba20 Li30 3.936400 1_555
Ba20 Li24 3.960010 1_555
Ba20 Li25 3.960010 1_555
Ba20 Ba7 4.801178 1_555
Ba21 N0 3.507808 1_555
Ba21 Li39 3.787729 1_556
Ba21 Li11 3.793095 1_555
Ba21 Li62 3.893133 1_555
Ba21 Li17 3.901154 1_556
Ba21 Li45 3.910380 1_555
Ba21 Li65 3.925863 1_555
Ba21 Li3 4.167450 1_545
Ba22 N2 3.507808 1_555
Ba22 Li27 3.787729 1_556
Ba22 Li19 3.793095 1_555
Ba22 Li14 3.893133 1_555
Ba22 Li50 3.901154 1_556
Ba22 Li73 3.910380 1_555
Ba22 Li20 3.925863 1_555
Ba22 Li22 4.167450 1_455
Ba23 N7 2.775498 1_555
Ba23 Li8 3.702833 1_555
Ba23 Li69 3.797276 1_555
Ba23 Li28 3.971293 1_555
Ba23 Li44 4.020716 1_555
Ba23 Li38 4.073286 1_555
Ba23 Li43 4.079992 1_555
Ba23 Li1 4.083812 1_555
Ba23 Ba9 4.157197 1_555
Ba23 Li0 4.167369 1_555
Ba24 N7 2.775498 1_555
Ba24 Li59 3.702833 1_555
Ba24 Li64 3.797276 1_545
Ba24 Li8 3.971293 1_555
Ba24 Li12 4.020716 1_545
Ba24 Li30 4.073286 1_545
Ba24 Li44 4.079992 1_555
Ba24 Li25 4.083813 1_545
Ba24 Li38 4.167369 1_555
Ba25 N5 2.823932 1_555
Ba25 Li71 3.783249 1_554
Ba25 Li39 3.783250 1_455
Ba25 Li32 3.999085 1_455
Ba25 Li53 3.999085 1_554
Ba25 Li45 4.007569 1_454
Ba25 Li70 4.007569 1_555
Ba25 Li14 4.058201 1_554
Ba25 Li13 4.058201 1_455
Ba26 N5 2.823932 1_555
Ba26 Li71 3.783249 1_554
Ba26 Li27 3.783250 1_545
Ba26 Li47 3.999085 1_545
Ba26 Li53 3.999085 1_554
Ba26 Li73 4.007569 1_544
Ba26 Li70 4.007569 1_555
Ba26 Li62 4.058201 1_554
Ba26 Li76 4.058201 1_545
Ba27 N1 2.825748 1_555
Ba27 N3 2.866061 1_555
Ba27 N6 2.866062 1_555
Ba28 N3 3.507808 1_555
Ba28 Li33 3.787729 1_554
Ba28 Li46 3.793095 1_555
Ba28 Li13 3.893133 1_555
Ba28 Li22 3.901154 1_554
Ba28 Li10 3.910380 1_555
Ba28 Li18 3.925863 1_555
Ba28 Li50 4.167450 1_655
Ba29 N1 2.825748 1_555
Ba29 N0 2.866062 1_554
Ba29 N2 2.866062 1_554
Ba30 N5 2.823932 1_666
Ba30 Li33 3.783250 1_555
Ba30 Li39 3.783250 1_566
Ba30 Li49 3.999085 1_555
Ba30 Li32 3.999085 1_566
Ba30 Li10 4.007569 1_556
Ba30 Li45 4.007569 1_565
Ba30 Li17 4.058201 1_566
Ba30 Li3 4.058201 1_555
Ba31 N7 2.846142 1_555
Ba31 Li74 3.793298 1_555
Ba31 Li64 3.793298 1_545
Ba31 Li8 3.979068 1_555
Ba31 Li42 3.979068 1_555
Ba31 Li12 3.991106 1_545
Ba31 Li43 3.991107 1_555
Ba31 Li17 4.069445 1_555
Ba31 Li76 4.069445 1_545
Ba32 N4 2.775498 1_555
Ba32 Li6 3.702833 1_555
Ba32 Li21 3.797276 1_555
Ba32 Li51 3.971293 1_555
Ba32 Li26 4.020716 1_555
Ba32 Li52 4.073286 1_555
Ba32 Li66 4.079992 1_555
Ba32 Li1 4.083812 1_555
Ba32 Ba9 4.157197 1_555
Ba32 Li0 4.167369 1_555
Ba33 Li11 3.789295 1_555
Ba33 Li69 3.789295 1_555
Ba33 Li44 3.897029 1_555
Ba33 Li65 3.897029 1_555
Ba33 Li38 3.936400 1_555
Ba33 Li77 3.960010 1_555
Ba33 Li1 3.960010 1_555
Ba33 Ba9 4.801178 1_555
Ba34 N7 2.775498 1_555
Ba34 Li28 3.702833 1_555
Ba34 Li74 3.797276 1_555
Ba34 Li42 3.971293 1_555
Ba34 Li43 4.020717 1_555
Ba34 Li0 4.073286 1_555
Ba34 Li20 4.079992 1_655
Ba34 Li24 4.083812 1_555
Ba34 Ba7 4.157197 1_555
Ba34 Li52 4.167369 1_655
Ba35 N0 3.507808 1_554
Ba35 Li71 3.787729 1_554
Ba35 Li74 3.793095 1_555
Ba35 Li17 3.893133 1_555
Ba35 Li62 3.901154 1_554
Ba35 Li70 3.910380 1_555
Ba35 Li43 3.925863 1_555
Ba35 Li76 4.167450 1_545
Ba36 N8 2.903374 1_554
Ba36 N1 2.903374 1_555
Ba36 N6 2.954604 1_555
Ba36 N0 2.954604 1_554
Ba36 N3 2.954604 1_555
Ba36 N2 2.954604 1_554
Ba37 N5 2.751710 1_666
Ba37 Li53 3.655365 1_665
Ba37 Li49 3.655365 1_555
Ba37 Li73 4.100249 1_655
Ba37 Li45 4.100249 1_565
Ba37 Ba7 4.249924 1_555
Ba38 Li74 3.789295 1_555
Ba38 Li29 3.789295 1_555
Ba38 Li43 3.897029 1_555
Ba38 Li66 3.897029 1_555
Ba38 Li0 3.936400 1_555
Ba38 Li25 3.960010 1_555
Ba38 Li24 3.960010 1_555
Ba38 Ba7 4.801178 1_555
Li0 Li1 3.071398 1_555
Li0 Li51 3.078617 1_555
Li0 Li28 3.078617 1_555
Li0 Li72 3.213356 1_555
Li0 Li43 3.313999 1_555
Li0 Li66 3.313999 1_555
Li1 Li48 2.947944 1_555
Li1 Li68 3.017875 1_555
Li1 Li51 3.073583 1_555
Li1 Li28 3.073583 1_555
Li1 Li21 3.130587 1_555
Li1 Li69 3.130587 1_555
Li2 Li22 2.949154 1_555
Li2 Li28 3.051514 1_555
Li2 Li49 3.089205 1_555
Li2 Li20 3.284615 1_655
Li2 Li73 3.284643 1_655
Li3 Li7 2.949154 1_555
Li3 Li48 3.023446 1_555
Li3 Li61 3.037778 1_555
Li3 Li51 3.113395 1_555
Li3 Li49 3.116393 1_555
Li3 Li33 3.158374 1_555
Li4 N3 1.862236 1_555
Li4 Li54 2.861202 1_555
Li4 Li46 3.176509 1_555
Li5 Li8 2.900426 1_555
Li6 Li78 2.900426 1_555
Li6 Li79 3.051513 1_555
Li9 N6 1.862236 1_555
Li10 Li12 3.190674 1_555
Li10 Li18 3.190674 1_555
Li10 Li75 3.284643 1_565
Li10 Li36 3.284643 1_655
Li11 Li23 2.943850 1_545
Li11 Li67 3.066572 1_555
Li11 Li77 3.130587 1_555
Li11 Li57 3.166039 1_555
Li11 Li55 3.176509 1_555
Li11 Li62 3.178813 1_555
Li12 Li18 3.185534 1_555
Li12 Li75 3.284615 1_565
Li12 Li30 3.313999 1_555
Li13 Li79 2.949154 1_655
Li13 Li54 3.023446 1_555
Li13 Li4 3.037778 1_555
Li13 Li6 3.113395 1_655
Li13 Li32 3.116393 1_555
Li13 Li39 3.158374 1_555
Li13 Li46 3.178813 1_555
Li14 Li16 2.949154 1_455
Li14 Li67 3.023446 1_555
Li14 Li34 3.037778 1_555
Li14 Li59 3.113395 1_455
Li14 Li53 3.116393 1_555
Li14 Li71 3.158374 1_555
Li14 Li19 3.178813 1_555
Li15 N1 1.861306 1_555
Li15 Li58 2.880291 1_555
Li15 Li25 3.017875 1_555
Li15 Li64 3.166039 1_555
Li15 Li29 3.166039 1_555
Li16 Li59 3.051513 1_555
Li16 Li53 3.089205 1_655
Li16 Li44 3.284615 1_555
Li16 Li45 3.284643 1_555
Li17 Li75 2.949154 1_555
Li17 Li54 3.023446 1_555
Li17 Li60 3.037778 1_555
Li17 Li42 3.113395 1_555
Li17 Li32 3.116393 1_555
Li17 Li39 3.158374 1_555
Li17 Li74 3.178813 1_555
Li18 Li36 3.284615 1_655
Li18 Li30 3.313999 1_555
Li19 Li59 2.943850 1_455
Li19 Li67 3.066572 1_555
Li19 Li77 3.130587 1_555
Li19 Li57 3.166039 1_555
Li19 Li34 3.176509 1_555
Li20 Li26 3.185534 1_555
Li20 Li73 3.190674 1_555
Li20 Li52 3.313999 1_555
Li21 Li51 2.943850 1_555
Li21 Li48 3.066572 1_555
Li21 Li68 3.166039 1_555
Li21 Li61 3.176509 1_555
Li21 Li3 3.178813 1_555
Li22 Li48 3.023446 1_555
Li22 Li40 3.037778 1_555
Li22 Li28 3.113395 1_555
Li22 Li49 3.116393 1_555
Li22 Li33 3.158374 1_555
Li22 Li69 3.178813 1_555
Li23 Li67 2.876467 1_565
Li23 Li56 2.900426 1_455
Li23 Li41 3.051513 1_555
Li23 Li77 3.073583 1_565
Li23 Li30 3.078617 1_455
Li23 Li62 3.113395 1_565
Li23 Li53 3.214554 1_565
Li23 Li59 3.249998 1_465
Li24 Li54 2.947944 1_555
Li24 Li37 3.017875 1_555
Li24 Li52 3.071398 1_655
Li24 Li42 3.073583 1_555
Li24 Li6 3.073583 1_655
Li24 Li74 3.130587 1_555
Li24 Li46 3.130587 1_555
Li25 Li58 2.947944 1_555
Li25 Li38 3.071398 1_565
Li25 Li35 3.073583 1_555
Li25 Li8 3.073583 1_565
Li25 Li29 3.130587 1_555
Li25 Li64 3.130587 1_555
Li26 Li73 3.190674 1_555
Li26 Li41 3.284615 1_555
Li26 Li52 3.313999 1_555
Li27 Li47 2.936711 1_555
Li27 Li58 3.081222 1_555
Li27 Li50 3.158374 1_555
Li27 Li76 3.158374 1_555
Li27 Li9 3.180452 1_555
Li27 Li63 3.180452 1_555
Li28 Li48 2.876466 1_555
Li28 Li72 2.900426 1_555
Li28 Li69 2.943850 1_555
Li28 Li49 3.214554 1_555
Li28 Li51 3.249998 1_555
Li29 Li35 2.943850 1_555
Li29 Li58 3.066572 1_555
Li29 Li63 3.176509 1_555
Li29 Li50 3.178813 1_555
Li30 Li77 3.071398 1_665
Li30 Li59 3.078617 1_565
Li30 Li56 3.213356 1_555
Li31 Li76 2.949154 1_545
Li31 Li8 3.051513 1_555
Li31 Li47 3.089205 1_545
Li31 Li43 3.284615 1_555
Li31 Li70 3.284643 1_555
Li32 Li54 2.870729 1_555
Li32 Li39 2.936711 1_555
Li32 Li78 2.939826 1_655
Li32 Li79 3.089205 1_655
Li32 Li75 3.089205 1_555
Li32 Li42 3.214554 1_555
Li32 Li6 3.214554 1_655
Li33 Li49 2.936711 1_555
Li33 Li48 3.081222 1_555
Li33 Li40 3.180452 1_555
Li33 Li61 3.180452 1_555
Li34 N2 1.862236 1_555
Li34 Li67 2.861202 1_555
Li34 Li71 3.180452 1_555
Li35 Li58 2.876466 1_555
Li35 Li5 2.900426 1_565
Li35 Li36 3.051514 1_555
Li35 Li38 3.078617 1_565
Li35 Li50 3.113395 1_555
Li35 Li47 3.214554 1_555
Li35 Li8 3.249998 1_565
Li36 Li50 2.949154 1_555
Li36 Li47 3.089205 1_555
Li37 N1 1.861306 1_555
Li37 Li54 2.880291 1_555
Li37 Li46 3.166039 1_555
Li37 Li74 3.166039 1_555
Li38 Li8 3.078617 1_555
Li38 Li5 3.213356 1_555
Li38 Li65 3.313999 1_555
Li38 Li44 3.313999 1_555
Li39 Li54 3.081222 1_555
Li39 Li4 3.180452 1_555
Li39 Li60 3.180452 1_555
Li40 N3 1.862236 1_556
Li40 Li48 2.861202 1_555
Li40 Li69 3.176509 1_555
Li41 Li62 2.949154 1_565
Li41 Li53 3.089205 1_565
Li41 Li73 3.284643 1_555
Li42 Li54 2.876466 1_555
Li42 Li78 2.900426 1_655
Li42 Li74 2.943850 1_555
Li42 Li75 3.051514 1_555
Li42 Li52 3.078617 1_655
Li42 Li6 3.249998 1_655
Li43 Li66 3.185534 1_555
Li43 Li70 3.190674 1_555
Li44 Li65 3.185534 1_555
Li44 Li45 3.190674 1_555
Li45 Li65 3.190674 1_555
Li45 Li7 3.284643 1_545
Li46 Li6 2.943850 1_655
Li46 Li54 3.066572 1_555
Li47 Li58 2.870729 1_555
Li47 Li5 2.939826 1_565
Li47 Li76 3.116393 1_555
Li47 Li50 3.116393 1_555
Li47 Li8 3.214554 1_565
Li48 Li61 2.861202 1_555
Li48 Li49 2.870729 1_555
Li48 Li51 2.876466 1_555
Li48 Li68 2.880291 1_555
Li48 Li69 3.066572 1_555
Li49 Li72 2.939826 1_555
Li49 Li7 3.089205 1_555
Li49 Li51 3.214554 1_555
Li50 Li58 3.023446 1_555
Li50 Li63 3.037778 1_555
Li51 Li72 2.900426 1_555
Li51 Li7 3.051514 1_555
Li52 Li6 3.078617 1_555
Li52 Li78 3.213356 1_555
Li53 Li67 2.870729 1_555
Li53 Li71 2.936711 1_555
Li53 Li56 2.939826 1_445
Li53 Li62 3.116393 1_555
Li53 Li59 3.214554 1_455
Li54 Li60 2.861202 1_555
Li54 Li6 2.876467 1_655
Li54 Li74 3.066572 1_555
Li55 N0 1.862236 1_555
Li55 Li67 2.861202 1_555
Li55 Li62 3.037778 1_555
Li55 Li71 3.180452 1_555
Li56 Li59 2.900426 1_565
Li57 N8 1.861306 1_555
Li57 Li67 2.880291 1_555
Li57 Li77 3.017875 1_555
Li58 Li9 2.861202 1_555
Li58 Li63 2.861202 1_555
Li58 Li8 2.876467 1_565
Li58 Li76 3.023446 1_555
Li58 Li64 3.066573 1_555
Li59 Li67 2.876467 1_655
Li59 Li77 3.073583 1_655
Li60 N0 1.862236 1_554
Li60 Li74 3.176509 1_555
Li61 N6 1.862236 1_556
Li62 Li67 3.023446 1_555
Li62 Li71 3.158374 1_555
Li63 N2 1.862236 1_554
Li64 Li8 2.943850 1_565
Li64 Li9 3.176509 1_555
Li64 Li76 3.178813 1_555
Li65 Li7 3.284615 1_545
Li66 Li70 3.190674 1_555
Li66 Li79 3.284615 1_555
Li67 Li77 2.947944 1_555
Li67 Li71 3.081222 1_555
Li68 N8 1.861306 1_555
Li68 Li69 3.166039 1_555
Li70 Li79 3.284643 1_555
Li76 Li9 3.037778 1_555
Li76 Li8 3.113395 1_565
