# generated using pymatgen
data_As5Pb3S10
_symmetry_space_group_name_H-M   'P 1'
_cell_length_a   7.70532000
_cell_length_b   9.09606000
_cell_length_c   27.16584897
_cell_angle_alpha   87.50101057
_cell_angle_beta   90.00000000
_cell_angle_gamma   90.00000000
_symmetry_Int_Tables_number   1
_chemical_formula_structural   As5Pb3S10
_chemical_formula_sum   'As20 Pb12 S40'
_cell_volume   1902.19074072
_cell_formula_units_Z   4
loop_
 _symmetry_equiv_pos_site_id
 _symmetry_equiv_pos_as_xyz
  1  'x, y, z'
loop_
 _atom_site_type_symbol
 _atom_site_label
 _atom_site_symmetry_multiplicity
 _atom_site_fract_x
 _atom_site_fract_y
 _atom_site_fract_z
 _atom_site_occupancy
  As  As0  1  0.65074300  0.26472600  0.59221900  1
  As  As1  1  0.50032700  0.00659800  0.32072500  1
  As  As2  1  0.19089800  0.50008700  0.81182300  1
  As  As3  1  0.71322100  0.08211800  0.18318500  1
  As  As4  1  0.84262200  0.94703400  0.90575300  1
  As  As5  1  0.00550900  0.24154400  0.17727600  1
  As  As6  1  0.00032700  0.99340200  0.67927500  1
  As  As7  1  0.50550900  0.75845600  0.82272400  1
  As  As8  1  0.84296900  0.47586000  0.90505100  1
  As  As9  1  0.15074300  0.73527400  0.40778100  1
  As  As10  1  0.66206700  0.81505200  0.59806000  1
  As  As11  1  0.29913800  0.29719400  0.69042600  1
  As  As12  1  0.21322100  0.91788200  0.81681500  1
  As  As13  1  0.78232400  0.18274400  0.31764400  1
  As  As14  1  0.16206700  0.18494800  0.40194000  1
  As  As15  1  0.34262200  0.05296600  0.09424700  1
  As  As16  1  0.34296900  0.52414000  0.09494900  1
  As  As17  1  0.79913800  0.70280600  0.30957400  1
  As  As18  1  0.28232400  0.81725600  0.68235600  1
  As  As19  1  0.69089800  0.49991300  0.18817700  1
  Pb  Pb0  1  0.55156600  0.24732300  0.82664200  1
  Pb  Pb1  1  0.94215800  0.49469500  0.67059100  1
  Pb  Pb2  1  0.75300900  0.99531700  0.46267400  1
  Pb  Pb3  1  0.05156600  0.75267700  0.17335800  1
  Pb  Pb4  1  0.27963800  0.52582700  0.54003400  1
  Pb  Pb5  1  0.44215800  0.50530500  0.32940900  1
  Pb  Pb6  1  0.73770900  0.25662800  0.03778900  1
  Pb  Pb7  1  0.23090000  0.23355900  0.96239500  1
  Pb  Pb8  1  0.23770900  0.74337200  0.96221100  1
  Pb  Pb9  1  0.77963800  0.47417300  0.45996600  1
  Pb  Pb10  1  0.25300900  0.00468300  0.53732600  1
  Pb  Pb11  1  0.73090000  0.76644100  0.03760500  1
  S  S0  1  0.61789900  0.27528600  0.37843700  1
  S  S1  1  0.67240100  0.76441300  0.93756900  1
  S  S2  1  0.53412100  0.22370800  0.13255700  1
  S  S3  1  0.95832500  0.56457500  0.36143900  1
  S  S4  1  0.42152200  0.83998800  0.26151500  1
  S  S5  1  0.32161500  0.99493200  0.43517400  1
  S  S6  1  0.03419600  0.33528200  0.85520200  1
  S  S7  1  0.03412100  0.77629200  0.86744300  1
  S  S8  1  0.92152200  0.16001200  0.73848500  1
  S  S9  1  0.53419600  0.66471800  0.14479800  1
  S  S10  1  0.49368000  0.26177000  0.52135900  1
  S  S11  1  0.86813300  0.97514400  0.12393000  1
  S  S12  1  0.00667400  0.22976500  0.47292800  1
  S  S13  1  0.76582100  0.04013000  0.78712000  1
  S  S14  1  0.82161500  0.00506800  0.56482600  1
  S  S15  1  0.26582100  0.95987000  0.21288000  1
  S  S16  1  0.11998300  0.18586500  0.63443400  1
  S  S17  1  0.17893000  0.72586700  0.07487800  1
  S  S18  1  0.45832500  0.43542500  0.63856100  1
  S  S19  1  0.50165900  0.51496500  0.02401400  1
  S  S20  1  0.17240100  0.23558700  0.06243100  1
  S  S21  1  0.08875700  0.41243700  0.23504900  1
  S  S22  1  0.36813300  0.02485600  0.87607000  1
  S  S23  1  0.96352900  0.03000000  0.36301100  1
  S  S24  1  0.99721900  0.98550000  0.97700000  1
  S  S25  1  0.74903700  0.70556700  0.71763400  1
  S  S26  1  0.50667400  0.77023500  0.52707200  1
  S  S27  1  0.24903700  0.29443300  0.28236600  1
  S  S28  1  0.46352900  0.97000000  0.63698900  1
  S  S29  1  0.32957200  0.54546500  0.42991200  1
  S  S30  1  0.58875700  0.58756300  0.76495100  1
  S  S31  1  0.49721900  0.01450000  0.02300000  1
  S  S32  1  0.11789900  0.72471400  0.62156300  1
  S  S33  1  0.99368000  0.73823000  0.47864100  1
  S  S34  1  0.00165900  0.48503500  0.97598600  1
  S  S35  1  0.61998300  0.81413500  0.36556600  1
  S  S36  1  0.89212900  0.43326700  0.13023800  1
  S  S37  1  0.67893000  0.27413300  0.92512200  1
  S  S38  1  0.39212900  0.56673300  0.86976200  1
  S  S39  1  0.82957200  0.45453500  0.57008800  1
loop_
_geom_bond_atom_site_label_1
_geom_bond_atom_site_label_2
_geom_bond_distance
_geom_bond_site_symmetry_2
As0 S39 2.269469 1_555
As0 S10 2.274948 1_555
As0 S18 2.522777 1_555
As0 S14 2.831773 1_555
As1 S35 2.283148 1_545
As1 S4 2.337787 1_545
As2 S6 2.222562 1_555
As2 S38 2.309170 1_555
As3 S11 2.258177 1_545
As3 S2 2.302239 1_555
As4 S1 2.258650 1_555
As4 S24 2.312268 1_555
As4 S7 2.411098 1_655
As5 S36 2.289763 1_455
As5 S21 2.345999 1_555
As6 S16 2.283148 1_565
As6 S8 2.337787 1_465
As7 S38 2.289763 1_555
As7 S30 2.345999 1_555
As8 S37 2.274777 1_555
As8 S34 2.286808 1_655
As8 S6 2.406454 1_655
As9 S29 2.269469 1_555
As9 S33 2.274948 1_455
As9 S3 2.522777 1_455
As9 S5 2.831773 1_555
As10 S14 2.275462 1_565
As10 S26 2.321058 1_555
As10 S28 2.361166 1_555
As11 S18 2.217236 1_555
As11 S16 2.319284 1_555
As12 S22 2.258177 1_565
As12 S7 2.302239 1_555
As13 S0 2.272089 1_555
As13 S23 2.291159 1_555
As14 S5 2.275462 1_545
As14 S12 2.321058 1_555
As14 S23 2.361166 1_455
As15 S20 2.258650 1_555
As15 S31 2.312268 1_555
As15 S2 2.411098 1_555
As16 S17 2.274777 1_555
As16 S19 2.286808 1_555
As16 S9 2.406454 1_555
As17 S3 2.217236 1_555
As17 S35 2.319284 1_555
As18 S32 2.272089 1_555
As18 S28 2.291159 1_555
As19 S9 2.222562 1_555
As19 S36 2.309170 1_555
Pb0 S13 2.757992 1_555
Pb0 S22 2.767421 1_555
Pb0 S37 2.869959 1_555
Pb1 S25 2.782156 1_555
Pb1 S32 2.782480 1_655
Pb1 S39 2.902973 1_555
Pb2 S14 2.830134 1_565
Pb2 S12 2.915051 1_665
Pb2 S33 3.001191 1_555
Pb3 S15 2.757992 1_555
Pb3 S11 2.767421 1_455
Pb3 S17 2.869959 1_555
Pb4 S26 2.838744 1_555
Pb4 S10 2.975352 1_555
Pb4 S29 3.013762 1_555
Pb4 S18 3.089331 1_555
Pb4 S32 3.175013 1_555
Pb5 S27 2.782156 1_555
Pb5 S0 2.782480 1_555
Pb5 S29 2.902973 1_555
Pb6 S31 2.919415 1_555
Pb6 S19 2.982168 1_555
Pb6 S2 3.018460 1_555
Pb6 S37 3.091251 1_554
Pb7 S20 2.755547 1_556
Pb7 S24 2.900452 1_445
Pb7 S34 2.926163 1_555
Pb8 S24 2.919415 1_455
Pb8 S34 2.982168 1_555
Pb8 S7 3.018460 1_555
Pb8 S17 3.091251 1_556
Pb9 S12 2.838744 1_655
Pb9 S33 2.975352 1_555
Pb9 S39 3.013762 1_555
Pb9 S3 3.089331 1_555
Pb9 S0 3.175013 1_555
Pb10 S5 2.830134 1_545
Pb10 S26 2.915051 1_545
Pb10 S10 3.001191 1_555
Pb11 S1 2.755547 1_554
Pb11 S31 2.900452 1_565
Pb11 S19 2.926163 1_555
S13 S8 2.061164 1_555
S15 S4 2.061164 1_555
S21 S27 2.051664 1_555
S25 S30 2.051664 1_555
