# generated using pymatgen
data_Yb2TiO5
_symmetry_space_group_name_H-M   'P 1'
_cell_length_a   7.37866494
_cell_length_b   7.37866494
_cell_length_c   18.06191939
_cell_angle_alpha   87.15881427
_cell_angle_beta   87.15881427
_cell_angle_gamma   59.34788089
_symmetry_Int_Tables_number   1
_chemical_formula_structural   Yb2TiO5
_chemical_formula_sum   'Yb16 Ti8 O40'
_cell_volume   844.59931206
_cell_formula_units_Z   8
loop_
 _symmetry_equiv_pos_site_id
 _symmetry_equiv_pos_as_xyz
  1  'x, y, z'
loop_
 _atom_site_type_symbol
 _atom_site_label
 _atom_site_symmetry_multiplicity
 _atom_site_fract_x
 _atom_site_fract_y
 _atom_site_fract_z
 _atom_site_occupancy
  Yb  Yb0  1  0.98329600  0.98329600  0.99849400  1
  Yb  Yb1  1  0.16237600  0.16237600  0.16616300  1
  Yb  Yb2  1  0.98572700  0.48584800  0.99567800  1
  Yb  Yb3  1  0.35457200  0.35457200  0.34046500  1
  Yb  Yb4  1  0.67546400  0.15214700  0.16800700  1
  Yb  Yb5  1  0.15214700  0.67546400  0.16800700  1
  Yb  Yb6  1  0.50930700  0.50930700  0.51115400  1
  Yb  Yb7  1  0.32639600  0.86885500  0.33833300  1
  Yb  Yb8  1  0.02234900  0.50165100  0.50585200  1
  Yb  Yb9  1  0.48584800  0.98572700  0.99567800  1
  Yb  Yb10  1  0.50165100  0.02234900  0.50585200  1
  Yb  Yb11  1  0.13934700  0.67680400  0.67253000  1
  Yb  Yb12  1  0.67680300  0.13934700  0.67253000  1
  Yb  Yb13  1  0.31202600  0.83336300  0.83122400  1
  Yb  Yb14  1  0.86885500  0.32639600  0.33833300  1
  Yb  Yb15  1  0.83336300  0.31202600  0.83122400  1
  Ti  Ti0  1  0.46284100  0.46284100  0.96485700  1
  Ti  Ti1  1  0.68956100  0.68956100  0.65431100  1
  Ti  Ti2  1  0.67426000  0.67426000  0.18341500  1
  Ti  Ti3  1  0.85395200  0.85395200  0.82210600  1
  Ti  Ti4  1  0.78891400  0.78891400  0.32860000  1
  Ti  Ti5  1  0.03634200  0.03634200  0.53437600  1
  Ti  Ti6  1  0.18871600  0.18871600  0.67056200  1
  Ti  Ti7  1  0.35399700  0.35399700  0.81343900  1
  O  O0  1  0.31912600  0.31912600  0.22117400  1
  O  O1  1  0.61209700  0.20569300  0.02673800  1
  O  O2  1  0.80275200  0.38043700  0.20232900  1
  O  O3  1  0.20569300  0.61209700  0.02673800  1
  O  O4  1  0.99575500  0.50030800  0.11990900  1
  O  O5  1  0.64240000  0.64240000  0.30657600  1
  O  O6  1  0.97499100  0.54453700  0.37912100  1
  O  O7  1  0.67513500  0.67513500  0.55417600  1
  O  O8  1  0.38043700  0.80275200  0.20232900  1
  O  O9  1  0.67938900  0.67938900  0.07179900  1
  O  O10  1  0.50030800  0.99575500  0.11990900  1
  O  O11  1  0.16339000  0.71069800  0.29859600  1
  O  O12  1  0.13250300  0.73204000  0.54696300  1
  O  O13  1  0.80865400  0.80865400  0.22145300  1
  O  O14  1  0.54453700  0.97499100  0.37912100  1
  O  O15  1  0.97427600  0.97427600  0.87423200  1
  O  O16  1  0.03732900  0.03732900  0.65362500  1
  O  O17  1  0.27250100  0.85836900  0.46284100  1
  O  O18  1  0.46172900  0.66693500  0.70665200  1
  O  O19  1  0.71069800  0.16339000  0.29859600  1
  O  O20  1  0.00888700  0.00888700  0.11682700  1
  O  O21  1  0.73204000  0.13250300  0.54696300  1
  O  O22  1  0.95585900  0.95585900  0.32913300  1
  O  O23  1  0.63290800  0.83711800  0.88321400  1
  O  O24  1  0.47542900  0.99518800  0.64124900  1
  O  O25  1  0.85836900  0.27250100  0.46284100  1
  O  O26  1  0.16891700  0.16891700  0.77574000  1
  O  O27  1  0.17594700  0.17594700  0.55017700  1
  O  O28  1  0.66693500  0.46172900  0.70665200  1
  O  O29  1  0.30228500  0.30228500  0.92142100  1
  O  O30  1  0.64666200  0.14554000  0.79819000  1
  O  O31  1  0.99518800  0.47542900  0.64124900  1
  O  O32  1  0.83711800  0.63290800  0.88321400  1
  O  O33  1  0.36086100  0.36086100  0.45876300  1
  O  O34  1  0.34671600  0.34671600  0.70749800  1
  O  O35  1  0.77897700  0.35135800  0.96414900  1
  O  O36  1  0.14554000  0.64666200  0.79819000  1
  O  O37  1  0.48946600  0.48946600  0.86142300  1
  O  O38  1  0.35135800  0.77897700  0.96414900  1
  O  O39  1  0.80539600  0.80539600  0.72155600  1
loop_
_geom_bond_atom_site_label_1
_geom_bond_atom_site_label_2
_geom_bond_distance
_geom_bond_site_symmetry_2
O0 Yb3 2.227262 1_555
O0 Yb1 2.292291 1_555
O0 Yb4 2.432536 1_555
O0 Yb5 2.432536 1_555
O1 Ti0 1.960452 1_554
O1 Yb9 2.345326 1_544
O1 Yb0 2.411747 1_544
O1 Yb4 2.591388 1_555
O2 Ti2 1.891749 1_555
O2 Yb1 2.373984 1_655
O2 Yb4 2.424520 1_555
O2 Yb14 2.500925 1_555
O3 Ti0 1.960452 1_554
O3 Yb2 2.345326 1_454
O3 Yb0 2.411747 1_454
O3 Yb5 2.591388 1_555
O4 Yb2 2.258311 1_554
O4 Yb1 2.279569 1_655
O4 Ti2 2.315618 1_555
O4 Yb5 2.342666 1_655
O5 Ti4 1.942333 1_555
O5 Yb7 2.132505 1_555
O5 Yb14 2.132505 1_555
O5 Ti2 2.238683 1_555
O6 Ti4 1.845514 1_555
O6 Yb14 2.281860 1_555
O6 Yb8 2.314417 1_655
O6 Yb3 2.489352 1_655
O7 Ti1 1.828532 1_555
O7 Yb6 2.305053 1_555
O7 Yb8 2.347180 1_655
O7 Yb10 2.347180 1_565
O8 Ti2 1.891749 1_555
O8 Yb1 2.373984 1_565
O8 Yb5 2.424520 1_555
O8 Yb7 2.500925 1_555
O9 Ti2 2.013318 1_555
O9 Yb9 2.373634 1_554
O9 Yb2 2.373634 1_554
O10 Yb9 2.258311 1_554
O10 Yb1 2.279569 1_565
O10 Ti2 2.315618 1_555
O10 Yb4 2.342666 1_565
O11 O22 1.764123 1_455
O11 Yb7 2.218884 1_555
O11 Yb3 2.365571 1_555
O11 Yb5 2.395842 1_555
O11 Ti4 2.553078 1_455
O12 Ti5 1.984343 1_565
O12 Yb11 2.282790 1_555
O12 Yb8 2.386567 1_555
O12 Yb6 2.473341 1_555
O13 Ti2 1.891170 1_555
O13 Ti4 1.937391 1_555
O13 Yb4 2.373439 1_565
O13 Yb5 2.373439 1_655
O14 Ti4 1.845514 1_555
O14 Yb7 2.281860 1_555
O14 Yb10 2.314417 1_565
O14 Yb3 2.489352 1_565
O15 Ti3 1.852664 1_555
O15 Yb0 2.253968 1_555
O15 Yb13 2.267449 1_655
O15 Yb15 2.267449 1_565
O16 Ti6 1.982208 1_555
O16 Ti5 2.154625 1_555
O16 Yb11 2.377703 1_545
O16 Yb12 2.377710 1_455
O17 Ti5 2.010497 1_565
O17 Yb7 2.268687 1_555
O17 Yb6 2.405800 1_555
O17 Yb10 2.689942 1_565
O18 O28 1.499197 1_555
O18 Ti1 1.964859 1_555
O18 Yb11 2.451091 1_555
O18 Yb13 2.536755 1_555
O19 O22 1.764123 1_545
O19 Yb14 2.218884 1_555
O19 Yb3 2.365571 1_555
O19 Yb4 2.395842 1_555
O19 Ti4 2.553078 1_545
O20 Yb0 2.180786 1_444
O20 Yb1 2.206203 1_555
O20 Yb5 2.290041 1_545
O20 Yb4 2.290041 1_455
O21 Ti5 1.984343 1_655
O21 Yb12 2.282791 1_555
O21 Yb10 2.386567 1_555
O21 Yb6 2.473341 1_555
O22 Ti4 2.141141 1_555
O22 Yb14 2.481864 1_565
O22 Yb7 2.481864 1_655
O23 O32 1.491921 1_555
O23 Ti3 1.976956 1_555
O23 Yb9 2.301120 1_555
O23 Yb13 2.603528 1_555
O24 Ti6 1.917970 1_565
O24 Ti1 1.997184 1_555
O24 Yb12 2.326558 1_565
O24 Yb10 2.449951 1_565
O25 Ti5 2.010497 1_655
O25 Yb14 2.268687 1_555
O25 Yb6 2.405800 1_555
O25 Yb8 2.689942 1_655
O26 Ti6 1.902194 1_555
O26 Yb15 2.332959 1_455
O26 Yb13 2.332959 1_545
O26 Ti7 2.505914 1_555
O27 Ti5 1.828633 1_555
O27 Ti6 2.189834 1_555
O27 Yb10 2.196145 1_555
O27 Yb8 2.196145 1_555
O28 Ti1 1.964859 1_555
O28 Yb12 2.451095 1_555
O28 Yb15 2.536755 1_555
O29 Ti7 2.023857 1_555
O29 Ti0 2.244509 1_555
O29 Yb2 2.394354 1_455
O29 Yb9 2.394354 1_545
O30 Ti7 1.923867 1_555
O30 Ti3 1.942424 1_545
O30 Yb12 2.269975 1_555
O30 Yb15 2.375411 1_555
O31 Ti6 1.917970 1_655
O31 Ti1 1.997184 1_555
O31 Yb11 2.326565 1_655
O31 Yb8 2.449951 1_655
O32 Ti3 1.976956 1_555
O32 Yb2 2.301120 1_555
O32 Yb15 2.603528 1_555
O33 Yb3 2.142802 1_555
O33 Yb6 2.173429 1_555
O33 Yb10 2.296221 1_555
O33 Yb8 2.296221 1_555
O34 Ti7 1.921086 1_555
O34 Ti6 2.168745 1_555
O34 Yb12 2.194456 1_555
O34 Yb11 2.194461 1_555
O35 Ti0 2.039530 1_555
O35 Yb2 2.306971 1_555
O35 Yb0 2.405032 1_545
O35 Yb15 2.421632 1_555
O36 Ti7 1.923867 1_555
O36 Ti3 1.942424 1_455
O36 Yb11 2.269976 1_555
O36 Yb13 2.375411 1_555
O37 Ti0 1.879896 1_555
O37 Ti7 1.984948 1_555
O37 Yb13 2.235319 1_555
O37 Yb15 2.235319 1_555
O38 Ti0 2.039530 1_555
O38 Yb9 2.306971 1_555
O38 Yb0 2.405032 1_455
O38 Yb13 2.421632 1_555
O39 Ti3 1.953186 1_555
O39 Ti1 1.971534 1_555
O39 Yb12 2.288942 1_565
O39 Yb11 2.288943 1_655
