# generated using pymatgen
data_Na2UO4
_symmetry_space_group_name_H-M   'P 1'
_cell_length_a   5.92911100
_cell_length_b   5.97754500
_cell_length_c   12.20275900
_cell_angle_alpha   90.00000000
_cell_angle_beta   90.00000000
_cell_angle_gamma   90.00000000
_symmetry_Int_Tables_number   1
_chemical_formula_structural   Na2UO4
_chemical_formula_sum   'Na8 U4 O16'
_cell_volume   432.48442249
_cell_formula_units_Z   4
loop_
 _symmetry_equiv_pos_site_id
 _symmetry_equiv_pos_as_xyz
  1  'x, y, z'
loop_
 _atom_site_type_symbol
 _atom_site_label
 _atom_site_symmetry_multiplicity
 _atom_site_fract_x
 _atom_site_fract_y
 _atom_site_fract_z
 _atom_site_occupancy
  Na  Na0  1  0.52662000  0.47102500  0.65709900  1
  Na  Na1  1  0.52662000  0.02897500  0.84290100  1
  Na  Na2  1  0.02662000  0.47102500  0.84290100  1
  Na  Na3  1  0.47338000  0.97102500  0.15709900  1
  Na  Na4  1  0.02662000  0.02897500  0.65709900  1
  Na  Na5  1  0.47338000  0.52897500  0.34290100  1
  Na  Na6  1  0.97338000  0.97102500  0.34290100  1
  Na  Na7  1  0.97338000  0.52897500  0.15709900  1
  U  U0  1  0.50000000  0.50000000  0.00000000  1
  U  U1  1  0.00000000  0.00000000  0.00000000  1
  U  U2  1  0.00000000  0.50000000  0.50000000  1
  U  U3  1  0.50000000  0.00000000  0.50000000  1
  O  O0  1  0.80761300  0.81075700  0.52759900  1
  O  O1  1  0.47296900  0.43128200  0.84499400  1
  O  O2  1  0.30761300  0.68924300  0.52759900  1
  O  O3  1  0.19238700  0.31075700  0.02759900  1
  O  O4  1  0.52703100  0.93128200  0.34499400  1
  O  O5  1  0.47296900  0.06871800  0.65500600  1
  O  O6  1  0.69238700  0.18924300  0.02759900  1
  O  O7  1  0.19238700  0.18924300  0.47240100  1
  O  O8  1  0.02703100  0.56871800  0.34499400  1
  O  O9  1  0.69238700  0.31075700  0.47240100  1
  O  O10  1  0.30761300  0.81075700  0.97240100  1
  O  O11  1  0.02703100  0.93128200  0.15500600  1
  O  O12  1  0.97296900  0.43128200  0.65500600  1
  O  O13  1  0.80761300  0.68924300  0.97240100  1
  O  O14  1  0.52703100  0.56871800  0.15500600  1
  O  O15  1  0.97296900  0.06871800  0.84499400  1
loop_
_geom_bond_atom_site_label_1
_geom_bond_atom_site_label_2
_geom_bond_distance
_geom_bond_site_symmetry_2
Na0 O1 2.326957 1_555
Na0 O2 2.425869 1_555
Na0 O5 2.425890 1_555
Na0 O9 2.638845 1_555
Na0 O12 2.657217 1_555
Na1 O5 2.326957 1_555
Na1 O10 2.425869 1_545
Na1 O1 2.425890 1_555
Na1 O6 2.638845 1_556
Na1 O15 2.657217 1_555
Na2 O12 2.326957 1_455
Na2 O13 2.425869 1_455
Na2 O15 2.425890 1_455
Na2 O3 2.638845 1_556
Na2 O1 2.657217 1_555
Na3 O4 2.326957 1_555
Na3 O6 2.425869 1_565
Na3 O14 2.425890 1_555
Na3 O10 2.638845 1_554
Na3 O11 2.657217 1_555
Na4 O15 2.326957 1_455
Na4 O0 2.425869 1_445
Na4 O12 2.425890 1_455
Na4 O7 2.638845 1_555
Na4 O5 2.657217 1_555
Na5 O14 2.326957 1_555
Na5 O9 2.425869 1_555
Na5 O4 2.425890 1_555
Na5 O2 2.638845 1_555
Na5 O8 2.657217 1_555
Na6 O11 2.326957 1_655
Na6 O7 2.425869 1_665
Na6 O8 2.425890 1_655
Na6 O0 2.638845 1_555
Na6 O4 2.657217 1_555
Na7 O8 2.326957 1_655
Na7 O3 2.425869 1_655
Na7 O11 2.425890 1_655
Na7 O13 2.638845 1_554
Na7 O14 2.657217 1_555
O0 U3 2.172456 1_565
O0 U2 2.205703 1_655
O1 U0 1.942213 1_556
O2 U2 2.172456 1_555
O2 U3 2.205703 1_565
O3 U0 2.172456 1_555
O3 U1 2.205703 1_555
O4 U3 1.942213 1_565
O5 U3 1.942213 1_555
O6 U1 2.172456 1_655
O6 U0 2.205703 1_555
O7 U3 2.172456 1_555
O7 U2 2.205703 1_555
O8 U2 1.942213 1_555
O9 U2 2.172456 1_655
O9 U3 2.205703 1_555
O10 U1 2.172456 1_566
O10 U0 2.205703 1_556
O11 U1 1.942213 1_565
O12 U2 1.942213 1_655
O13 U0 2.172456 1_556
O13 U1 2.205703 1_666
O14 U0 1.942213 1_555
O15 U1 1.942213 1_656
