# generated using pymatgen
data_ScCuSe2
_symmetry_space_group_name_H-M   'P 1'
_cell_length_a   7.77918544
_cell_length_b   9.23270879
_cell_length_c   12.68423731
_cell_angle_alpha   46.98256795
_cell_angle_beta   90.00000000
_cell_angle_gamma   90.00000000
_symmetry_Int_Tables_number   1
_chemical_formula_structural   ScCuSe2
_chemical_formula_sum   'Sc8 Cu8 Se16'
_cell_volume   666.08833950
_cell_formula_units_Z   8
loop_
 _symmetry_equiv_pos_site_id
 _symmetry_equiv_pos_as_xyz
  1  'x, y, z'
loop_
 _atom_site_type_symbol
 _atom_site_label
 _atom_site_symmetry_multiplicity
 _atom_site_fract_x
 _atom_site_fract_y
 _atom_site_fract_z
 _atom_site_occupancy
  Sc  Sc0  1  0.49945134  0.99603892  0.75963141  1
  Sc  Sc1  1  0.74382610  0.49922727  0.00517788  1
  Sc  Sc2  1  0.75617390  0.49922727  0.50517788  1
  Sc  Sc3  1  -0.00054866  0.00396108  0.74036859  1
  Sc  Sc4  1  0.00054866  0.99603892  0.25963141  1
  Sc  Sc5  1  0.24382610  0.50077273  0.49482212  1
  Sc  Sc6  1  0.25617390  0.50077273  0.99482212  1
  Sc  Sc7  1  0.50054866  0.00396108  0.24036859  1
  Cu  Cu0  1  0.49937105  0.66744512  0.10531151  1
  Cu  Cu1  1  0.75020615  0.17125540  0.35437060  1
  Cu  Cu2  1  0.99937105  0.33255488  0.39468849  1
  Cu  Cu3  1  0.25020615  0.82874460  0.14562940  1
  Cu  Cu4  1  0.74979385  0.17125540  0.85437060  1
  Cu  Cu5  1  0.00062895  0.66744512  0.60531151  1
  Cu  Cu6  1  0.24979385  0.82874460  0.64562940  1
  Cu  Cu7  1  0.50062895  0.33255488  0.89468849  1
  Se  Se0  1  0.49473060  0.33041698  0.20782197  1
  Se  Se1  1  0.75373741  0.83427027  0.95757064  1
  Se  Se2  1  0.25373741  0.16572973  0.54242936  1
  Se  Se3  1  0.00375759  0.33854923  0.20080444  1
  Se  Se4  1  0.50375759  0.66145077  0.29919556  1
  Se  Se5  1  0.24252589  0.83280934  0.95234605  1
  Se  Se6  1  0.74252589  0.16719066  0.54765395  1
  Se  Se7  1  0.99473060  0.66958302  0.29217803  1
  Se  Se8  1  0.00526940  0.33041698  0.70782197  1
  Se  Se9  1  0.25747411  0.83280934  0.45234605  1
  Se  Se10  1  0.75747411  0.16719066  0.04765395  1
  Se  Se11  1  0.49624241  0.33854923  0.70080444  1
  Se  Se12  1  0.99624241  0.66145077  0.79919556  1
  Se  Se13  1  0.74626259  0.83427027  0.45757064  1
  Se  Se14  1  0.24626259  0.16572973  0.04242936  1
  Se  Se15  1  0.50526940  0.66958302  0.79217803  1
loop_
_geom_bond_atom_site_label_1
_geom_bond_atom_site_label_2
_geom_bond_distance
_geom_bond_site_symmetry_2
Sc0 Se5 2.686021 1_555
Sc0 Se1 2.707563 1_555
Sc0 Se11 2.708866 1_565
Sc0 Se6 2.739504 1_565
Sc0 Se15 2.749425 1_555
Sc0 Se2 2.794474 1_565
Sc1 Se0 2.706439 1_555
Sc1 Se1 2.718587 1_554
Sc1 Se15 2.723796 1_554
Sc1 Se3 2.724707 1_655
Sc1 Se10 2.728705 1_555
Sc1 Se12 2.754259 1_554
Sc2 Se8 2.706439 1_655
Sc2 Se13 2.718587 1_555
Sc2 Se7 2.723796 1_555
Sc2 Se11 2.724707 1_555
Sc2 Se6 2.728705 1_555
Sc2 Se4 2.754259 1_555
Sc3 Se6 2.686021 1_455
Sc3 Se2 2.707563 1_555
Sc3 Se12 2.708866 1_445
Sc3 Se5 2.739504 1_545
Sc3 Se8 2.749425 1_555
Sc3 Se1 2.794474 1_445
Sc4 Se9 2.686021 1_555
Sc4 Se13 2.707563 1_455
Sc4 Se3 2.708866 1_565
Sc4 Se10 2.739504 1_465
Sc4 Se7 2.749425 1_455
Sc4 Se14 2.794474 1_565
Sc5 Se7 2.706439 1_455
Sc5 Se2 2.718587 1_555
Sc5 Se8 2.723796 1_555
Sc5 Se4 2.724707 1_555
Sc5 Se9 2.728705 1_555
Sc5 Se11 2.754259 1_555
Sc6 Se15 2.706439 1_555
Sc6 Se14 2.718587 1_556
Sc6 Se0 2.723796 1_556
Sc6 Se12 2.724707 1_455
Sc6 Se5 2.728705 1_555
Sc6 Se3 2.754259 1_556
Sc7 Se10 2.686021 1_555
Sc7 Se14 2.707563 1_555
Sc7 Se4 2.708866 1_545
Sc7 Se9 2.739504 1_545
Sc7 Se0 2.749425 1_555
Sc7 Se13 2.794474 1_545
Cu0 Se0 2.419506 1_555
Cu0 Se1 2.421023 1_554
Cu0 Se4 2.422093 1_555
Cu0 Se5 2.458836 1_554
Cu1 Se0 2.416073 1_555
Cu1 Se13 2.416107 1_545
Cu1 Se6 2.426940 1_555
Cu1 Se3 2.442389 1_655
Cu2 Se7 2.419506 1_555
Cu2 Se2 2.421023 1_655
Cu2 Se3 2.422093 1_655
Cu2 Se6 2.458836 1_555
Cu3 Se7 2.416073 1_455
Cu3 Se14 2.416107 1_565
Cu3 Se5 2.426940 1_554
Cu3 Se4 2.442389 1_555
Cu4 Se8 2.416073 1_655
Cu4 Se1 2.416107 1_545
Cu4 Se10 2.426940 1_556
Cu4 Se11 2.442389 1_555
Cu5 Se8 2.419506 1_555
Cu5 Se13 2.421023 1_455
Cu5 Se12 2.422093 1_455
Cu5 Se9 2.458836 1_555
Cu6 Se15 2.416073 1_555
Cu6 Se2 2.416107 1_565
Cu6 Se9 2.426940 1_555
Cu6 Se12 2.442389 1_455
Cu7 Se15 2.419506 1_555
Cu7 Se14 2.421023 1_556
Cu7 Se11 2.422093 1_555
Cu7 Se10 2.458836 1_556
