# generated using pymatgen
data_Ga2(Hg4Te5)3
_symmetry_space_group_name_H-M   'P 1'
_cell_length_a   8.06581463
_cell_length_b   8.06581463
_cell_length_c   18.98692147
_cell_angle_alpha   85.95008795
_cell_angle_beta   85.95008795
_cell_angle_gamma   120.01613056
_symmetry_Int_Tables_number   1
_chemical_formula_structural   Ga2(Hg4Te5)3
_chemical_formula_sum   'Ga2 Hg12 Te15'
_cell_volume   1058.84551750
_cell_formula_units_Z   1
loop_
 _symmetry_equiv_pos_site_id
 _symmetry_equiv_pos_as_xyz
  1  'x, y, z'
loop_
 _atom_site_type_symbol
 _atom_site_label
 _atom_site_symmetry_multiplicity
 _atom_site_fract_x
 _atom_site_fract_y
 _atom_site_fract_z
 _atom_site_occupancy
  Ga  Ga0  1  0.26617200  0.93291600  0.20154900  1
  Ga  Ga1  1  0.93291600  0.26617200  0.20154900  1
  Hg  Hg0  1  0.00539800  0.00539800  0.00852000  1
  Hg  Hg1  1  0.39989900  0.39989900  0.80307000  1
  Hg  Hg2  1  0.66385000  0.32173500  0.00848800  1
  Hg  Hg3  1  0.79750500  0.79750500  0.59637000  1
  Hg  Hg4  1  0.06458000  0.73235300  0.80272400  1
  Hg  Hg5  1  0.22896400  0.22896400  0.39090600  1
  Hg  Hg6  1  0.32173500  0.66385000  0.00848800  1
  Hg  Hg7  1  0.46761600  0.13785800  0.59721900  1
  Hg  Hg8  1  0.73235300  0.06458000  0.80272400  1
  Hg  Hg9  1  0.84410700  0.53641100  0.39083900  1
  Hg  Hg10  1  0.13785800  0.46761600  0.59721900  1
  Hg  Hg11  1  0.53641100  0.84410700  0.39083900  1
  Te  Te0  1  0.35407800  0.35407800  0.95627000  1
  Te  Te1  1  0.74998300  0.74998300  0.74956600  1
  Te  Te2  1  0.00836700  0.68129700  0.95597900  1
  Te  Te3  1  0.15035600  0.15035600  0.54394800  1
  Te  Te4  1  0.41640400  0.08313800  0.75084100  1
  Te  Te5  1  0.55932000  0.55932000  0.32277800  1
  Te  Te6  1  0.68129700  0.00836700  0.95597900  1
  Te  Te7  1  0.82067100  0.48510700  0.54392000  1
  Te  Te8  1  0.96611800  0.96611800  0.16233900  1
  Te  Te9  1  0.08313800  0.41640400  0.75084100  1
  Te  Te10  1  0.21866200  0.88538800  0.34426200  1
  Te  Te11  1  0.48510700  0.82067100  0.54392000  1
  Te  Te12  1  0.61272500  0.25899900  0.16229600  1
  Te  Te13  1  0.88538800  0.21866200  0.34426200  1
  Te  Te14  1  0.25899900  0.61272500  0.16229600  1
loop_
_geom_bond_atom_site_label_1
_geom_bond_atom_site_label_2
_geom_bond_distance
_geom_bond_site_symmetry_2
Ga0 Te10 2.682500 1_555
Ga0 Te14 2.712401 1_555
Ga0 Te8 2.712567 1_455
Ga0 Te12 2.712896 1_565
Ga1 Te13 2.682500 1_555
Ga1 Te12 2.712401 1_555
Ga1 Te8 2.712567 1_545
Ga1 Te14 2.712896 1_655
Hg0 Te0 2.846342 1_554
Hg0 Te2 2.873517 1_544
Hg0 Te6 2.873517 1_454
Hg0 Te8 2.892842 1_445
Hg1 Te1 2.862010 1_555
Hg1 Te9 2.865022 1_555
Hg1 Te4 2.865022 1_555
Hg1 Te0 2.879917 1_555
Hg2 Te6 2.845061 1_554
Hg2 Te0 2.873911 1_554
Hg2 Te2 2.874722 1_654
Hg2 Te12 2.892557 1_555
Hg3 Te7 2.859192 1_555
Hg3 Te11 2.859192 1_555
Hg3 Te3 2.878606 1_665
Hg3 Te1 2.879676 1_555
Hg4 Te1 2.860109 1_455
Hg4 Te9 2.864002 1_555
Hg4 Te4 2.864794 1_565
Hg4 Te2 2.880956 1_555
Hg5 Te5 2.792152 1_555
Hg5 Te3 2.885305 1_555
Hg5 Te13 2.932163 1_455
Hg5 Te10 2.932163 1_545
Hg6 Te2 2.845061 1_554
Hg6 Te0 2.873911 1_554
Hg6 Te6 2.874722 1_564
Hg6 Te14 2.892557 1_555
Hg7 Te3 2.861949 1_555
Hg7 Te7 2.861974 1_555
Hg7 Te11 2.880265 1_545
Hg7 Te4 2.887693 1_555
Hg8 Te1 2.860109 1_545
Hg8 Te4 2.864002 1_555
Hg8 Te9 2.864794 1_655
Hg8 Te6 2.880956 1_555
Hg9 Te5 2.791183 1_555
Hg9 Te7 2.886030 1_555
Hg9 Te13 2.931511 1_555
Hg9 Te10 2.931761 1_655
Hg10 Te3 2.861949 1_555
Hg10 Te11 2.861974 1_555
Hg10 Te7 2.880265 1_455
Hg10 Te9 2.887693 1_555
Hg11 Te5 2.791183 1_555
Hg11 Te11 2.886030 1_555
Hg11 Te10 2.931511 1_555
Hg11 Te13 2.931761 1_565
