# generated using pymatgen
data_Sm3(Sb7Te12)2
_symmetry_space_group_name_H-M   'P 1'
_cell_length_a   8.13625700
_cell_length_b   8.37793836
_cell_length_c   21.61096568
_cell_angle_alpha   97.06521716
_cell_angle_beta   96.82231094
_cell_angle_gamma   108.12754450
_symmetry_Int_Tables_number   1
_chemical_formula_structural   Sm3(Sb7Te12)2
_chemical_formula_sum   'Sm3 Sb14 Te24'
_cell_volume   1369.96639495
_cell_formula_units_Z   1
loop_
 _symmetry_equiv_pos_site_id
 _symmetry_equiv_pos_as_xyz
  1  'x, y, z'
loop_
 _atom_site_type_symbol
 _atom_site_label
 _atom_site_symmetry_multiplicity
 _atom_site_fract_x
 _atom_site_fract_y
 _atom_site_fract_z
 _atom_site_occupancy
  Sm  Sm0  1  0.17545900  0.79113400  0.96761400  1
  Sm  Sm1  1  0.47595100  0.84782400  0.79955700  1
  Sm  Sm2  1  0.54176300  0.29204800  0.07632400  1
  Sb  Sb0  1  0.45196000  0.12962600  0.60126300  1
  Sb  Sb1  1  0.44702100  0.40057000  0.84921000  1
  Sb  Sb2  1  0.77664800  0.44419400  0.26166200  1
  Sb  Sb3  1  0.81843300  0.55287900  0.74150600  1
  Sb  Sb4  1  0.04420600  0.12670200  0.68415600  1
  Sb  Sb5  1  0.83276600  0.69216400  0.55446300  1
  Sb  Sb6  1  0.93857900  0.15558100  0.91547300  1
  Sb  Sb7  1  0.07363200  0.51226400  0.11480100  1
  Sb  Sb8  1  0.15433100  0.85311100  0.41264600  1
  Sb  Sb9  1  0.37659700  0.49834700  0.38524800  1
  Sb  Sb10  1  0.23932600  0.06502600  0.23947200  1
  Sb  Sb11  1  0.31755300  0.60754000  0.57302600  1
  Sb  Sb12  1  0.65520300  0.82408400  0.04137300  1
  Sb  Sb13  1  0.68150600  0.91368800  0.27752000  1
  Te  Te0  1  0.18790500  0.06858000  0.83104700  1
  Te  Te1  1  0.16846200  0.57264000  0.83788200  1
  Te  Te2  1  0.51003600  0.39754200  0.50918800  1
  Te  Te3  1  0.42909000  0.46460900  0.71643400  1
  Te  Te4  1  0.50906800  0.87219200  0.50697700  1
  Te  Te5  1  0.72809700  0.83524400  0.68034500  1
  Te  Te6  1  0.55212300  0.03273100  0.95391100  1
  Te  Te7  1  0.80337400  0.78022100  0.87887800  1
  Te  Te8  1  0.83148600  0.67411800  0.16621000  1
  Te  Te9  1  0.70643400  0.21937300  0.79930100  1
  Te  Te10  1  0.03210100  0.53938900  0.46630600  1
  Te  Te11  1  0.74082100  0.72070100  0.37398300  1
  Te  Te12  1  0.85283100  0.21331800  0.15738300  1
  Te  Te13  1  0.03812500  0.15472800  0.33034800  1
  Te  Te14  1  0.88779800  0.38590200  0.62794600  1
  Te  Te15  1  0.08498900  0.08953900  0.54943300  1
  Te  Te16  1  0.24283800  0.86446800  0.67285500  1
  Te  Te17  1  0.40150000  0.90437900  0.11218000  1
  Te  Te18  1  0.11598700  0.11167600  0.03787700  1
  Te  Te19  1  0.37537600  0.51351900  0.99561400  1
  Te  Te20  1  0.20413800  0.67168700  0.29959800  1
  Te  Te21  1  0.41118300  0.39425000  0.20439800  1
  Te  Te22  1  0.52998000  0.15699300  0.34026200  1
  Te  Te23  1  0.86365700  0.48875300  0.99799700  1
loop_
_geom_bond_atom_site_label_1
_geom_bond_atom_site_label_2
_geom_bond_distance
_geom_bond_site_symmetry_2
Sm0 Te18 3.119565 1_566
Sm0 Te1 3.138340 1_555
Sm0 Te6 3.174854 1_565
Sm0 Te23 3.176557 1_455
Sm0 Te17 3.295933 1_556
Sm0 Te19 3.299689 1_555
Sm0 Te7 3.355025 1_455
Sm0 Te0 3.966834 1_565
Sm1 Te9 3.095252 1_565
Sm1 Te1 3.103727 1_555
Sm1 Te16 3.184168 1_555
Sm1 Te7 3.232481 1_555
Sm1 Te3 3.367011 1_555
Sm1 Te6 3.398719 1_565
Sm1 Te0 3.484642 1_565
Sm1 Te5 3.490065 1_555
Sm2 Te19 3.180560 1_554
Sm2 Te12 3.190462 1_555
Sm2 Te21 3.194426 1_555
Sm2 Te6 3.237068 1_554
Sm2 Te18 3.274831 1_555
Sm2 Te17 3.312736 1_545
Sm2 Te23 3.390297 1_554
Sm2 Te8 3.501915 1_555
Sb0 Te15 2.961613 1_555
Sb0 Te4 2.964262 1_545
Sb0 Te16 3.056566 1_545
Sb0 Te2 3.143718 1_555
Sb0 Te14 3.462519 1_555
Sb1 Te0 2.867199 1_555
Sb1 Te3 2.978364 1_555
Sb1 Te1 3.043504 1_555
Sb1 Te9 3.170891 1_555
Sb1 Te19 3.360152 1_555
Sb1 Te7 3.500343 1_555
Sb2 Te21 2.961841 1_555
Sb2 Te8 2.970890 1_555
Sb2 Te12 3.034764 1_555
Sb2 Te11 3.247852 1_555
Sb2 Te20 3.348939 1_655
Sb2 Te22 3.393105 1_555
Sb3 Te14 2.876475 1_555
Sb3 Te3 2.985178 1_555
Sb3 Te5 3.082825 1_555
Sb3 Te9 3.121199 1_555
Sb3 Te1 3.269343 1_655
Sb3 Te7 3.361073 1_555
Sb4 Te5 2.928546 1_445
Sb4 Te15 2.958827 1_555
Sb4 Te16 3.109567 1_545
Sb4 Te14 3.132415 1_455
Sb4 Te0 3.396174 1_555
Sb4 Te3 3.433081 1_555
Sb5 Te2 2.950801 1_555
Sb5 Te10 3.053556 1_655
Sb5 Te5 3.153785 1_555
Sb5 Te14 3.294577 1_555
Sb5 Te15 3.346238 1_665
Sb6 Te7 2.958685 1_545
Sb6 Te18 2.979741 1_656
Sb6 Te0 3.073694 1_655
Sb6 Te9 3.160355 1_555
Sb6 Te6 3.233122 1_555
Sb6 Te23 3.381718 1_555
Sb7 Te23 2.823653 1_454
Sb7 Te12 2.916661 1_455
Sb7 Te8 2.960818 1_455
Sb8 Te20 2.854494 1_555
Sb8 Te10 2.939258 1_555
Sb8 Te11 3.166978 1_455
Sb8 Te4 3.278193 1_555
Sb9 Te20 2.969209 1_555
Sb9 Te11 3.026412 1_555
Sb9 Te2 3.082577 1_555
Sb9 Te13 3.275576 1_555
Sb10 Te22 2.856583 1_555
Sb10 Te13 2.875394 1_555
Sb10 Te21 2.916104 1_555
Sb11 Te4 2.922102 1_555
Sb11 Te10 2.935554 1_555
Sb11 Te2 3.013638 1_555
Sb11 Te16 3.104955 1_555
Sb12 Te19 2.842052 1_554
Sb12 Te17 2.901077 1_555
Sb12 Te6 2.946195 1_564
Sb12 Te8 3.456874 1_555
Sb13 Te11 2.875505 1_555
Sb13 Te22 2.965554 1_565
Sb13 Te13 2.966499 1_665
Sb13 Te8 3.512520 1_555
