# generated using pymatgen
data_Na2ZrSi4O11
_symmetry_space_group_name_H-M   'P 1'
_cell_length_a   7.58702904
_cell_length_b   7.58702904
_cell_length_c   8.69353770
_cell_angle_alpha   82.28980708
_cell_angle_beta   82.28980708
_cell_angle_gamma   84.95804168
_symmetry_Int_Tables_number   1
_chemical_formula_structural   Na2ZrSi4O11
_chemical_formula_sum   'Na4 Zr2 Si8 O22'
_cell_volume   490.17271576
_cell_formula_units_Z   2
loop_
 _symmetry_equiv_pos_site_id
 _symmetry_equiv_pos_as_xyz
  1  'x, y, z'
loop_
 _atom_site_type_symbol
 _atom_site_label
 _atom_site_symmetry_multiplicity
 _atom_site_fract_x
 _atom_site_fract_y
 _atom_site_fract_z
 _atom_site_occupancy
  Na  Na0  1  0.92437500  0.07562500  0.25000000  1
  Na  Na1  1  0.07562500  0.92437500  0.75000000  1
  Na  Na2  1  0.60581900  0.39418100  0.25000000  1
  Na  Na3  1  0.39418100  0.60581900  0.75000000  1
  Zr  Zr0  1  0.50000000  0.00000000  0.50000000  1
  Zr  Zr1  1  0.00000000  0.50000000  0.00000000  1
  Si  Si0  1  0.80795800  0.66350600  0.63927300  1
  Si  Si1  1  0.19204200  0.33649400  0.36072700  1
  Si  Si2  1  0.66350600  0.80795800  0.13927300  1
  Si  Si3  1  0.26739100  0.83304600  0.07308300  1
  Si  Si4  1  0.16695400  0.73260900  0.42691700  1
  Si  Si5  1  0.73260900  0.16695400  0.92691700  1
  Si  Si6  1  0.83304600  0.26739100  0.57308300  1
  Si  Si7  1  0.33649400  0.19204200  0.86072700  1
  O  O0  1  0.37226900  0.20581700  0.35466900  1
  O  O1  1  0.79418300  0.62773100  0.14533100  1
  O  O2  1  0.62773100  0.79418300  0.64533100  1
  O  O3  1  0.20581700  0.37226900  0.85466900  1
  O  O4  1  0.37279700  0.10407600  0.69891200  1
  O  O5  1  0.89592400  0.62720300  0.80108800  1
  O  O6  1  0.62720300  0.89592400  0.30108800  1
  O  O7  1  0.10407600  0.37279700  0.19891200  1
  O  O8  1  0.28665400  0.82364300  0.53091300  1
  O  O9  1  0.17635700  0.71334600  0.96908700  1
  O  O10  1  0.71334600  0.17635700  0.46908700  1
  O  O11  1  0.82364300  0.28665400  0.03091300  1
  O  O12  1  0.47386400  0.75606600  0.08615100  1
  O  O13  1  0.24393400  0.52613600  0.41384900  1
  O  O14  1  0.84070400  0.15929600  0.75000000  1
  O  O15  1  0.15929600  0.84070400  0.25000000  1
  O  O16  1  0.04128300  0.24639900  0.49629900  1
  O  O17  1  0.75360100  0.95871700  0.00370100  1
  O  O18  1  0.95871700  0.75360100  0.50370100  1
  O  O19  1  0.24639900  0.04128300  0.99629900  1
  O  O20  1  0.75606600  0.47386400  0.58615100  1
  O  O21  1  0.52613600  0.24393400  0.91384900  1
loop_
_geom_bond_atom_site_label_1
_geom_bond_atom_site_label_2
_geom_bond_distance
_geom_bond_site_symmetry_2
Na0 O15 2.407317 1_645
Na0 O11 2.476381 1_555
Na0 O10 2.476381 1_555
Na0 O7 2.692343 1_655
Na0 O6 2.692343 1_545
Na1 O14 2.407317 1_465
Na1 O9 2.476381 1_555
Na1 O8 2.476381 1_555
Na1 O4 2.692343 1_565
Na1 O5 2.692343 1_455
Na2 O1 2.381960 1_555
Na2 O0 2.381960 1_555
Na2 O10 2.521857 1_555
Na2 O11 2.521857 1_555
Na3 O2 2.381960 1_555
Na3 O3 2.381960 1_555
Na3 O9 2.521857 1_555
Na3 O8 2.521857 1_555
O0 Si1 1.616135 1_555
O0 Zr0 2.122971 1_555
O1 Si2 1.616135 1_555
O1 Zr1 2.122971 1_655
O2 Si0 1.616135 1_555
O2 Zr0 2.122971 1_565
O3 Si7 1.616135 1_555
O3 Zr1 2.122971 1_556
O4 Si7 1.617362 1_555
O4 Zr0 2.080830 1_555
O5 Si0 1.617362 1_555
O5 Zr1 2.080830 1_656
O6 Si2 1.617362 1_555
O6 Zr0 2.080830 1_565
O7 Si1 1.617362 1_555
O7 Zr1 2.080830 1_555
O8 Si4 1.617809 1_555
O8 Zr0 2.156405 1_565
O9 Si3 1.617809 1_556
O9 Zr1 2.156405 1_556
O10 Si6 1.617809 1_555
O10 Zr0 2.156405 1_555
O11 Si5 1.617809 1_554
O11 Zr1 2.156405 1_655
O12 Si3 1.636193 1_555
O12 Si2 1.662869 1_555
O13 Si4 1.636193 1_555
O13 Si1 1.662869 1_555
O14 Si6 1.648838 1_555
O14 Si5 1.648838 1_555
O15 Si3 1.648838 1_555
O15 Si4 1.648838 1_555
O16 Si6 1.633511 1_455
O16 Si1 1.650509 1_555
O17 Si5 1.633511 1_564
O17 Si2 1.650509 1_555
O18 Si4 1.633511 1_655
O18 Si0 1.650509 1_555
O19 Si3 1.633511 1_546
O19 Si7 1.650509 1_555
O20 Si6 1.636193 1_555
O20 Si0 1.662869 1_555
O21 Si5 1.636193 1_555
O21 Si7 1.662869 1_555
