# generated using pymatgen
data_MnC4IO4
_symmetry_space_group_name_H-M   'P 1'
_cell_length_a   12.42382700
_cell_length_b   9.90578400
_cell_length_c   13.19086153
_cell_angle_alpha   71.40899193
_cell_angle_beta   90.00000000
_cell_angle_gamma   90.00000000
_symmetry_Int_Tables_number   1
_chemical_formula_structural   MnC4IO4
_chemical_formula_sum   'Mn8 C32 I8 O32'
_cell_volume   1538.65967215
_cell_formula_units_Z   8
loop_
 _symmetry_equiv_pos_site_id
 _symmetry_equiv_pos_as_xyz
  1  'x, y, z'
loop_
 _atom_site_type_symbol
 _atom_site_label
 _atom_site_symmetry_multiplicity
 _atom_site_fract_x
 _atom_site_fract_y
 _atom_site_fract_z
 _atom_site_occupancy
  Mn  Mn0  1  0.86829500  0.89673300  0.31291300  1
  Mn  Mn1  1  0.36829500  0.10326700  0.18708700  1
  Mn  Mn2  1  0.63204300  0.32863000  0.70784600  1
  Mn  Mn3  1  0.86795700  0.32863000  0.20784600  1
  Mn  Mn4  1  0.13204300  0.67137000  0.79215400  1
  Mn  Mn5  1  0.63170500  0.89673300  0.81291300  1
  Mn  Mn6  1  0.36795700  0.67137000  0.29215400  1
  Mn  Mn7  1  0.13170500  0.10326700  0.68708700  1
  C  C0  1  0.21586600  0.53726300  0.88712900  1
  C  C1  1  0.21392200  0.24158400  0.71328900  1
  C  C2  1  0.95535800  0.76106700  0.40312100  1
  C  C3  1  0.04259900  0.09252400  0.80558700  1
  C  C4  1  0.22249800  0.10087100  0.57306000  1
  C  C5  1  0.54259900  0.90747600  0.69441300  1
  C  C6  1  0.45978900  0.68331500  0.40212200  1
  C  C7  1  0.95740100  0.90747600  0.19441300  1
  C  C8  1  0.04464200  0.23893300  0.59687900  1
  C  C9  1  0.54464200  0.76106700  0.90312100  1
  C  C10  1  0.95322200  0.46467300  0.23407000  1
  C  C11  1  0.78607800  0.75841600  0.28671100  1
  C  C12  1  0.78413400  0.46273700  0.11287100  1
  C  C13  1  0.45535800  0.23893300  0.09687900  1
  C  C14  1  0.28607800  0.24158400  0.21328900  1
  C  C15  1  0.71586600  0.46273700  0.61287100  1
  C  C16  1  0.54677800  0.46467300  0.73407000  1
  C  C17  1  0.72249800  0.89912900  0.92694000  1
  C  C18  1  0.04677800  0.53532700  0.76593000  1
  C  C19  1  0.77750200  0.89912900  0.42694000  1
  C  C20  1  0.04021100  0.68331500  0.90212200  1
  C  C21  1  0.28413400  0.53726300  0.38712900  1
  C  C22  1  0.45740100  0.09252400  0.30558700  1
  C  C23  1  0.71392200  0.75841600  0.78671100  1
  C  C24  1  0.95978900  0.31668500  0.09787800  1
  C  C25  1  0.22418500  0.67607300  0.67714000  1
  C  C26  1  0.72418500  0.32392700  0.82286000  1
  C  C27  1  0.27581500  0.67607300  0.17714000  1
  C  C28  1  0.77581500  0.32392700  0.32286000  1
  C  C29  1  0.54021100  0.31668500  0.59787800  1
  C  C30  1  0.27750200  0.10087100  0.07306000  1
  C  C31  1  0.45322200  0.53532700  0.26593000  1
  I  I0  1  0.98578400  0.11448900  0.34646900  1
  I  I1  1  0.74753300  0.11218300  0.17803400  1
  I  I2  1  0.25246700  0.88781700  0.82196600  1
  I  I3  1  0.24753300  0.88781700  0.32196600  1
  I  I4  1  0.75246700  0.11218300  0.67803400  1
  I  I5  1  0.48578400  0.88551100  0.15353100  1
  I  I6  1  0.51421600  0.11448900  0.84646900  1
  I  I7  1  0.01421600  0.88551100  0.65353100  1
  O  O0  1  0.51125000  0.08876700  0.37790000  1
  O  O1  1  0.71941200  0.32498000  0.39239500  1
  O  O2  1  0.78058800  0.32498000  0.89239500  1
  O  O3  1  0.73250300  0.54921600  0.05224300  1
  O  O4  1  0.98875000  0.08876700  0.87790000  1
  O  O5  1  0.98272600  0.68651100  0.97050400  1
  O  O6  1  0.21941200  0.67502000  0.10760500  1
  O  O7  1  0.50873300  0.32738300  0.04039400  1
  O  O8  1  0.26749700  0.45078400  0.94775700  1
  O  O9  1  0.72128400  0.89503400  0.49778500  1
  O  O10  1  0.77871600  0.89503400  0.99778500  1
  O  O11  1  0.76432400  0.66775000  0.77171100  1
  O  O12  1  0.99126700  0.32738300  0.54039400  1
  O  O13  1  0.49390400  0.55205000  0.75073700  1
  O  O14  1  0.99390400  0.44795000  0.74926300  1
  O  O15  1  0.76749700  0.54921600  0.55224300  1
  O  O16  1  0.73567600  0.66775000  0.27171100  1
  O  O17  1  0.23250300  0.45078400  0.44775700  1
  O  O18  1  0.22128400  0.10496600  0.00221500  1
  O  O19  1  0.28058800  0.67502000  0.60760500  1
  O  O20  1  0.01727400  0.31348900  0.02949600  1
  O  O21  1  0.00609600  0.55205000  0.25073700  1
  O  O22  1  0.23567600  0.33225000  0.22828900  1
  O  O23  1  0.48272600  0.31348900  0.52949600  1
  O  O24  1  0.51727400  0.68651100  0.47050400  1
  O  O25  1  0.00873300  0.67261700  0.45960600  1
  O  O26  1  0.50609600  0.44795000  0.24926300  1
  O  O27  1  0.48875000  0.91123300  0.62210000  1
  O  O28  1  0.49126700  0.67261700  0.95960600  1
  O  O29  1  0.27871600  0.10496600  0.50221500  1
  O  O30  1  0.01125000  0.91123300  0.12210000  1
  O  O31  1  0.26432400  0.33225000  0.72828900  1
loop_
_geom_bond_atom_site_label_1
_geom_bond_atom_site_label_2
_geom_bond_distance
_geom_bond_site_symmetry_2
C0 O8 1.161056 1_555
C0 Mn4 1.832376 1_555
C1 O31 1.162403 1_555
C1 Mn7 1.828126 1_555
C2 O25 1.160302 1_655
C2 Mn0 1.836375 1_555
C3 O4 1.155939 1_455
C3 Mn7 1.890536 1_555
C4 O29 1.156979 1_555
C4 Mn7 1.886283 1_555
C5 O27 1.155939 1_555
C5 Mn5 1.890536 1_555
C6 O24 1.158838 1_555
C6 Mn6 1.878634 1_555
C7 O30 1.155939 1_655
C7 Mn0 1.890536 1_555
C8 O12 1.160302 1_455
C8 Mn7 1.836375 1_555
C9 O28 1.160302 1_555
C9 Mn5 1.836375 1_555
C10 O21 1.162040 1_655
C10 Mn3 1.831695 1_555
C11 O16 1.162403 1_555
C11 Mn0 1.828126 1_555
C12 O3 1.161056 1_555
C12 Mn3 1.832376 1_555
C13 O7 1.160302 1_555
C13 Mn1 1.836375 1_555
C14 O22 1.162403 1_555
C14 Mn1 1.828126 1_555
C15 O15 1.161056 1_555
C15 Mn2 1.832376 1_555
C16 O13 1.162040 1_555
C16 Mn2 1.831695 1_555
C17 O10 1.156979 1_555
C17 Mn5 1.886283 1_555
C18 O14 1.162040 1_455
C18 Mn4 1.831695 1_555
C19 O9 1.156979 1_555
C19 Mn0 1.886283 1_555
C20 O5 1.158838 1_455
C20 Mn4 1.878634 1_555
C21 O17 1.161056 1_555
C21 Mn6 1.832376 1_555
C22 O0 1.155939 1_555
C22 Mn1 1.890536 1_555
C23 O11 1.162403 1_555
C23 Mn5 1.828126 1_555
C24 O20 1.158838 1_655
C24 Mn3 1.878634 1_555
C25 O19 1.156958 1_555
C25 Mn4 1.889250 1_555
C26 O2 1.156958 1_555
C26 Mn2 1.889250 1_555
C27 O6 1.156958 1_555
C27 Mn6 1.889250 1_555
C28 O1 1.156958 1_555
C28 Mn3 1.889250 1_555
C29 O23 1.158838 1_555
C29 Mn2 1.878634 1_555
C30 O18 1.156979 1_555
C30 Mn1 1.886283 1_555
C31 O26 1.162040 1_555
C31 Mn6 1.831695 1_555
I0 Mn3 2.740975 1_555
I0 Mn0 2.754662 1_545
I1 Mn3 2.743668 1_555
I1 Mn0 2.747749 1_545
I2 Mn4 2.743668 1_555
I2 Mn7 2.747749 1_565
I3 Mn6 2.743668 1_555
I3 Mn1 2.747749 1_565
I4 Mn2 2.743668 1_555
I4 Mn5 2.747749 1_545
I5 Mn6 2.740975 1_555
I5 Mn1 2.754662 1_565
I6 Mn2 2.740975 1_555
I6 Mn5 2.754662 1_545
I7 Mn4 2.740975 1_555
I7 Mn7 2.754662 1_565
