# generated using pymatgen
data_K3Ga2(PO4)3
_symmetry_space_group_name_H-M   'P 1'
_cell_length_a   8.55270400
_cell_length_b   8.87904200
_cell_length_c   17.24774800
_cell_angle_alpha   90.00000000
_cell_angle_beta   90.00000000
_cell_angle_gamma   90.00000000
_symmetry_Int_Tables_number   1
_chemical_formula_structural   K3Ga2(PO4)3
_chemical_formula_sum   'K12 Ga8 P12 O48'
_cell_volume   1309.79084454
_cell_formula_units_Z   4
loop_
 _symmetry_equiv_pos_site_id
 _symmetry_equiv_pos_as_xyz
  1  'x, y, z'
loop_
 _atom_site_type_symbol
 _atom_site_label
 _atom_site_symmetry_multiplicity
 _atom_site_fract_x
 _atom_site_fract_y
 _atom_site_fract_z
 _atom_site_occupancy
  K  K0  1  0.59573900  0.45476200  0.64479200  1
  K  K1  1  0.09573900  0.54523800  0.35520800  1
  K  K2  1  0.09573900  0.04523800  0.14479200  1
  K  K3  1  0.59573900  0.95476200  0.85520800  1
  K  K4  1  0.12330100  0.00908800  0.90078300  1
  K  K5  1  0.62330100  0.99091200  0.09921700  1
  K  K6  1  0.62330100  0.49091200  0.40078300  1
  K  K7  1  0.12330100  0.50908800  0.59921700  1
  K  K8  1  0.40303100  0.17310700  0.50947600  1
  K  K9  1  0.90303100  0.82689300  0.49052400  1
  K  K10  1  0.90303100  0.32689300  0.00947600  1
  K  K11  1  0.40303100  0.67310700  0.99052400  1
  Ga  Ga0  1  0.93901900  0.13341400  0.66855700  1
  Ga  Ga1  1  0.43901900  0.86658600  0.33144300  1
  Ga  Ga2  1  0.43901900  0.36658600  0.16855700  1
  Ga  Ga3  1  0.93901900  0.63341400  0.83144300  1
  Ga  Ga4  1  0.42708100  0.34674700  0.84022200  1
  Ga  Ga5  1  0.92708100  0.65325300  0.15977800  1
  Ga  Ga6  1  0.92708100  0.15325300  0.34022200  1
  Ga  Ga7  1  0.42708100  0.84674700  0.65977800  1
  P  P0  1  0.28765200  0.15230200  0.71337700  1
  P  P1  1  0.78765200  0.84769800  0.28662300  1
  P  P2  1  0.78765200  0.34769800  0.21337700  1
  P  P3  1  0.28765200  0.65230200  0.78662300  1
  P  P4  1  0.79610800  0.29886900  0.81353800  1
  P  P5  1  0.29610800  0.70113100  0.18646200  1
  P  P6  1  0.29610800  0.20113100  0.31353800  1
  P  P7  1  0.79610800  0.79886900  0.68646200  1
  P  P8  1  0.86582600  0.26286100  0.50273500  1
  P  P9  1  0.36582600  0.73713900  0.49726500  1
  P  P10  1  0.36582600  0.23713900  0.00273500  1
  P  P11  1  0.86582600  0.76286100  0.99726500  1
  O  O0  1  0.69527300  0.76830000  0.97252000  1
  O  O1  1  0.19527300  0.23170000  0.02748000  1
  O  O2  1  0.19527300  0.73170000  0.47252000  1
  O  O3  1  0.69527300  0.26830000  0.52748000  1
  O  O4  1  0.89160600  0.62366800  0.05608400  1
  O  O5  1  0.39160600  0.37633200  0.94391600  1
  O  O6  1  0.39160600  0.87633200  0.55608400  1
  O  O7  1  0.89160600  0.12366800  0.44391600  1
  O  O8  1  0.92922300  0.90649100  0.03378700  1
  O  O9  1  0.42922300  0.09350900  0.96621300  1
  O  O10  1  0.42922300  0.59350900  0.53378700  1
  O  O11  1  0.92922300  0.40649100  0.46621300  1
  O  O12  1  0.97663100  0.71900200  0.92651600  1
  O  O13  1  0.47663100  0.28099800  0.07348400  1
  O  O14  1  0.47663100  0.78099800  0.42651600  1
  O  O15  1  0.97663100  0.21900200  0.57348400  1
  O  O16  1  0.81045200  0.96712100  0.65967900  1
  O  O17  1  0.31045200  0.03287900  0.34032100  1
  O  O18  1  0.31045200  0.53287900  0.15967900  1
  O  O19  1  0.12926700  0.56462600  0.79556500  1
  O  O20  1  0.81045200  0.46712100  0.84032100  1
  O  O21  1  0.35615600  0.20961100  0.22726100  1
  O  O22  1  0.35615600  0.70961100  0.27273900  1
  O  O23  1  0.85615600  0.29038900  0.72726100  1
  O  O24  1  0.61630600  0.76558100  0.69128200  1
  O  O25  1  0.11630600  0.23441900  0.30871800  1
  O  O26  1  0.11630600  0.73441900  0.19128200  1
  O  O27  1  0.61630600  0.26558100  0.80871800  1
  O  O28  1  0.87507700  0.68953500  0.63241200  1
  O  O29  1  0.37507700  0.31046500  0.36758800  1
  O  O30  1  0.37507700  0.81046500  0.13241200  1
  O  O31  1  0.87507700  0.18953500  0.86758800  1
  O  O32  1  0.28591000  0.21010900  0.79953300  1
  O  O33  1  0.78591000  0.78989100  0.20046700  1
  O  O34  1  0.78591000  0.28989100  0.29953300  1
  O  O35  1  0.28591000  0.71010900  0.70046700  1
  O  O36  1  0.42019700  0.03014200  0.70969600  1
  O  O37  1  0.92019700  0.96985800  0.29030400  1
  O  O38  1  0.92019700  0.46985800  0.20969600  1
  O  O39  1  0.42019700  0.53014200  0.79030400  1
  O  O40  1  0.31348500  0.27550700  0.65441600  1
  O  O41  1  0.81348500  0.72449300  0.34558400  1
  O  O42  1  0.81348500  0.22449300  0.15441600  1
  O  O43  1  0.31348500  0.77550700  0.84558400  1
  O  O44  1  0.12926700  0.06462600  0.70443500  1
  O  O45  1  0.62926700  0.93537400  0.29556500  1
  O  O46  1  0.62926700  0.43537400  0.20443500  1
  O  O47  1  0.85615600  0.79038900  0.77273900  1
loop_
_geom_bond_atom_site_label_1
_geom_bond_atom_site_label_2
_geom_bond_distance
_geom_bond_site_symmetry_2
K0 O10 2.685434 1_555
K0 O3 2.749496 1_555
K0 O24 2.879281 1_555
K0 O40 2.896265 1_555
K0 O39 3.000152 1_555
K0 O23 3.018945 1_555
K0 O28 3.177854 1_555
K0 O27 3.293391 1_555
K1 O11 2.685434 1_455
K1 O2 2.749496 1_555
K1 O25 2.879281 1_555
K1 O41 2.896265 1_455
K1 O38 3.000152 1_455
K1 O22 3.018945 1_555
K1 O29 3.177854 1_555
K1 O26 3.293391 1_555
K2 O8 2.685434 1_445
K2 O1 2.749496 1_555
K2 O26 2.879281 1_545
K2 O42 2.896265 1_455
K2 O37 3.000152 1_445
K2 O21 3.018945 1_555
K2 O30 3.177854 1_545
K2 O25 3.293391 1_555
K3 O9 2.685434 1_565
K3 O0 2.749496 1_555
K3 O27 2.879281 1_565
K3 O43 2.896265 1_555
K3 O36 3.000152 1_565
K3 O47 3.018945 1_555
K3 O31 3.177854 1_565
K3 O24 3.293391 1_555
K4 O31 2.720644 1_455
K4 O43 2.802423 1_545
K4 O32 2.858257 1_555
K4 O12 2.899091 1_445
K4 O9 2.946403 1_555
K4 O8 2.974495 1_446
K4 O1 3.010157 1_556
K5 O30 2.720644 1_555
K5 O42 2.802423 1_565
K5 O33 2.858257 1_555
K5 O13 2.899091 1_565
K5 O8 2.946403 1_555
K5 O9 2.974495 1_564
K5 O0 3.010157 1_554
K6 O29 2.720644 1_555
K6 O41 2.802423 1_555
K6 O34 2.858257 1_555
K6 O14 2.899091 1_555
K6 O11 2.946403 1_555
K6 O10 2.974495 1_555
K6 O3 3.010157 1_555
K7 O28 2.720644 1_455
K7 O40 2.802423 1_555
K7 O35 2.858257 1_555
K7 O15 2.899091 1_455
K7 O10 2.946403 1_555
K7 O11 2.974495 1_455
K7 O2 3.010157 1_555
K8 O3 2.656713 1_555
K8 O29 2.744745 1_555
K8 O6 2.756703 1_545
K8 O40 2.768150 1_555
K8 O17 3.269443 1_555
K9 O2 2.656713 1_655
K9 O28 2.744745 1_555
K9 O7 2.756703 1_565
K9 O41 2.768150 1_555
K9 O16 3.269443 1_555
K10 O1 2.656713 1_655
K10 O31 2.744745 1_554
K10 O4 2.756703 1_555
K10 O42 2.768150 1_555
K10 O20 3.269443 1_554
K11 O0 2.656713 1_555
K11 O30 2.744745 1_556
K11 O5 2.756703 1_555
K11 O43 2.768150 1_555
K11 O18 3.269443 1_556
Ga0 O15 1.835733 1_555
Ga0 O44 1.844869 1_655
Ga0 O16 1.847343 1_545
Ga0 O23 1.862816 1_555
Ga1 O14 1.835733 1_555
Ga1 O45 1.844869 1_555
Ga1 O17 1.847343 1_565
Ga1 O22 1.862816 1_555
Ga2 O13 1.835733 1_555
Ga2 O46 1.844869 1_555
Ga2 O18 1.847343 1_555
Ga2 O21 1.862816 1_555
Ga3 O12 1.835733 1_555
Ga3 O19 1.844869 1_655
Ga3 O20 1.847343 1_555
Ga3 O47 1.862816 1_555
Ga4 O5 1.832962 1_555
Ga4 O39 1.842915 1_555
Ga4 O32 1.849920 1_555
Ga4 O27 1.853052 1_555
Ga5 O4 1.832962 1_555
Ga5 O38 1.842915 1_555
Ga5 O33 1.849920 1_555
Ga5 O26 1.853052 1_655
Ga6 O7 1.832962 1_555
Ga6 O37 1.842915 1_545
Ga6 O34 1.849920 1_555
Ga6 O25 1.853052 1_655
Ga7 O6 1.832962 1_555
Ga7 O36 1.842915 1_565
Ga7 O35 1.849920 1_555
Ga7 O24 1.853052 1_555
O0 P11 1.520612 1_555
O1 P10 1.520612 1_555
O2 P9 1.520612 1_555
O3 P8 1.520612 1_555
O4 P11 1.614084 1_554
O5 P10 1.614084 1_556
O6 P9 1.614084 1_555
O7 P8 1.614084 1_555
O8 P11 1.522229 1_554
O9 P10 1.522229 1_556
O10 P9 1.522229 1_555
O11 P8 1.522229 1_555
O12 P11 1.593358 1_555
O13 P10 1.593358 1_555
O14 P9 1.593358 1_555
O15 P8 1.593358 1_555
O16 P7 1.568513 1_555
O17 P6 1.568513 1_555
O18 P5 1.568513 1_555
O19 P3 1.569972 1_555
O20 P4 1.568513 1_555
O21 P6 1.576014 1_555
O22 P5 1.576014 1_555
O23 P4 1.576014 1_555
O24 P7 1.568145 1_555
O25 P6 1.568145 1_555
O26 P5 1.568145 1_555
O27 P4 1.568145 1_555
O28 P7 1.505873 1_555
O29 P6 1.505873 1_555
O30 P5 1.505873 1_555
O31 P4 1.505873 1_555
O32 P0 1.572214 1_555
O33 P1 1.572214 1_555
O34 P2 1.572214 1_555
O35 P3 1.572214 1_555
O36 P0 1.570228 1_555
O37 P1 1.570228 1_555
O38 P2 1.570228 1_555
O39 P3 1.570228 1_555
O40 P0 1.509868 1_555
O41 P1 1.509868 1_555
O42 P2 1.509868 1_555
O43 P3 1.509868 1_555
O44 P0 1.569972 1_555
O45 P1 1.569972 1_555
O46 P2 1.569972 1_555
O47 P7 1.576014 1_555
