# generated using pymatgen
data_Li2Ti(PO3)5
_symmetry_space_group_name_H-M   'P 1'
_cell_length_a   9.62162700
_cell_length_b   5.33308000
_cell_length_c   13.32584798
_cell_angle_alpha   70.98608789
_cell_angle_beta   90.00000000
_cell_angle_gamma   90.00000000
_symmetry_Int_Tables_number   1
_chemical_formula_structural   Li2Ti(PO3)5
_chemical_formula_sum   'Li4 Ti2 P10 O30'
_cell_volume   646.48017436
_cell_formula_units_Z   2
loop_
 _symmetry_equiv_pos_site_id
 _symmetry_equiv_pos_as_xyz
  1  'x, y, z'
loop_
 _atom_site_type_symbol
 _atom_site_label
 _atom_site_symmetry_multiplicity
 _atom_site_fract_x
 _atom_site_fract_y
 _atom_site_fract_z
 _atom_site_occupancy
  Li  Li0  1  0.60308100  0.93470800  0.93792700  1
  Li  Li1  1  0.41056900  0.05575200  0.07216700  1
  Li  Li2  1  0.39691900  0.93470800  0.43792700  1
  Li  Li3  1  0.58943100  0.05575200  0.57216700  1
  Ti  Ti0  1  0.99530200  0.00983400  0.99526800  1
  Ti  Ti1  1  0.00469800  0.00983400  0.49526800  1
  P  P0  1  0.47726400  0.51578600  0.86205400  1
  P  P1  1  0.98721600  0.01755900  0.24526600  1
  P  P2  1  0.01278400  0.01755900  0.74526600  1
  P  P3  1  0.82329700  0.60205900  0.40621900  1
  P  P4  1  0.18449600  0.41459400  0.58638500  1
  P  P5  1  0.52273600  0.51578600  0.36205400  1
  P  P6  1  0.52002800  0.47158900  0.14356300  1
  P  P7  1  0.17670300  0.60205900  0.90621900  1
  P  P8  1  0.47997200  0.47158900  0.64356300  1
  P  P9  1  0.81550400  0.41459400  0.08638500  1
  O  O0  1  0.13972400  0.27347800  0.50946900  1
  O  O1  1  0.88117000  0.76799400  0.28935100  1
  O  O2  1  0.42063800  0.48923600  0.75300600  1
  O  O3  1  0.93838500  0.98422900  0.65086000  1
  O  O4  1  0.34305200  0.34073900  0.60757800  1
  O  O5  1  0.66163500  0.65076500  0.39412700  1
  O  O6  1  0.14234900  0.31236000  0.93283000  1
  O  O7  1  0.06161500  0.98422900  0.15086000  1
  O  O8  1  0.83984000  0.70940600  0.05265700  1
  O  O9  1  0.50607500  0.23777700  0.43666800  1
  O  O10  1  0.40871400  0.71144200  0.34933000  1
  O  O11  1  0.59128600  0.71144200  0.84933000  1
  O  O12  1  0.88529800  0.27357500  0.20133400  1
  O  O13  1  0.50443600  0.74923600  0.06921300  1
  O  O14  1  0.49556400  0.74923600  0.56921300  1
  O  O15  1  0.12811600  0.73797300  0.98392200  1
  O  O16  1  0.16016000  0.70940600  0.55265700  1
  O  O17  1  0.85765100  0.31236000  0.43283000  1
  O  O18  1  0.40567500  0.27546900  0.15753600  1
  O  O19  1  0.93328300  0.04904100  0.83767000  1
  O  O20  1  0.33836500  0.65076500  0.89412700  1
  O  O21  1  0.06671700  0.04904100  0.33767000  1
  O  O22  1  0.86027600  0.27347800  0.00946900  1
  O  O23  1  0.49392500  0.23777700  0.93666800  1
  O  O24  1  0.65694800  0.34073900  0.10757800  1
  O  O25  1  0.59432500  0.27546900  0.65753600  1
  O  O26  1  0.11470200  0.27357500  0.70133400  1
  O  O27  1  0.57936200  0.48923600  0.25300600  1
  O  O28  1  0.11883000  0.76799400  0.78935100  1
  O  O29  1  0.87188400  0.73797300  0.48392200  1
loop_
_geom_bond_atom_site_label_1
_geom_bond_atom_site_label_2
_geom_bond_distance
_geom_bond_site_symmetry_2
Li0 O23 1.923032 1_565
Li0 O11 1.934041 1_555
Li0 O13 1.952534 1_556
Li1 O13 1.879182 1_545
Li1 O18 1.880961 1_555
Li1 O23 1.924525 1_554
Li2 O9 1.923032 1_565
Li2 O10 1.934041 1_555
Li2 O14 1.952534 1_555
Li3 O14 1.879182 1_545
Li3 O25 1.880961 1_555
Li3 O9 1.924525 1_555
O0 P4 1.518269 1_555
O0 Ti1 1.968238 1_555
O1 P3 1.618814 1_555
O1 P1 1.627315 1_565
O2 P8 1.597247 1_555
O2 P0 1.600821 1_555
O3 P2 1.507447 1_665
O3 Ti1 2.130780 1_665
O4 P4 1.577900 1_555
O4 P8 1.634164 1_555
O5 P3 1.576576 1_555
O5 P5 1.639326 1_555
O6 P7 1.504993 1_555
O6 Ti0 2.102944 1_455
O7 P1 1.507447 1_465
O7 Ti0 2.130780 1_464
O8 P9 1.506111 1_555
O8 Ti0 2.142646 1_564
O9 P5 1.500660 1_555
O10 P5 1.485204 1_555
O11 P0 1.485204 1_555
O12 P9 1.616262 1_555
O12 P1 1.627174 1_555
O13 P6 1.496907 1_555
O14 P8 1.496907 1_555
O15 P7 1.518275 1_555
O15 Ti0 1.975038 1_465
O16 P4 1.506111 1_555
O16 Ti1 2.142646 1_565
O17 P3 1.504993 1_555
O17 Ti1 2.102944 1_655
O18 P6 1.487381 1_555
O19 P2 1.504749 1_655
O19 Ti0 2.127017 1_555
O20 P7 1.576576 1_555
O20 P0 1.639326 1_555
O21 P1 1.504749 1_455
O21 Ti1 2.127017 1_555
O22 P9 1.518269 1_555
O22 Ti0 1.968238 1_554
O23 P0 1.500660 1_555
O24 P9 1.577900 1_555
O24 P6 1.634164 1_555
O25 P8 1.487381 1_555
O26 P4 1.616262 1_555
O26 P2 1.627174 1_555
O27 P6 1.597247 1_555
O27 P5 1.600821 1_555
O28 P7 1.618814 1_555
O28 P2 1.627315 1_565
O29 P3 1.518275 1_555
O29 Ti1 1.975038 1_665
