# generated using pymatgen
data_SnH8(NCl3)2
_symmetry_space_group_name_H-M   'P 1'
_cell_length_a   7.16782709
_cell_length_b   7.16782709
_cell_length_c   7.16782709
_cell_angle_alpha   60.00000000
_cell_angle_beta   60.00000000
_cell_angle_gamma   60.00000000
_symmetry_Int_Tables_number   1
_chemical_formula_structural   SnH8(NCl3)2
_chemical_formula_sum   'Sn1 H8 N2 Cl6'
_cell_volume   260.40394693
_cell_formula_units_Z   1
loop_
 _symmetry_equiv_pos_site_id
 _symmetry_equiv_pos_as_xyz
  1  'x, y, z'
loop_
 _atom_site_type_symbol
 _atom_site_label
 _atom_site_symmetry_multiplicity
 _atom_site_fract_x
 _atom_site_fract_y
 _atom_site_fract_z
 _atom_site_occupancy
  Sn  Sn0  1  -0.00000000  -0.00000000  0.00000000  1
  H  H0  1  0.57503035  0.80832255  0.80832255  1
  H  H1  1  0.80832255  0.80832255  0.57503035  1
  H  H2  1  0.80832255  0.57503035  0.80832255  1
  H  H3  1  0.80832255  0.80832255  0.80832255  1
  H  H4  1  0.42496965  0.19167745  0.19167745  1
  H  H5  1  0.19167745  0.19167745  0.42496965  1
  H  H6  1  0.19167745  0.42496965  0.19167745  1
  H  H7  1  0.19167745  0.19167745  0.19167745  1
  N  N0  1  0.75000000  0.75000000  0.75000000  1
  N  N1  1  0.25000000  0.25000000  0.25000000  1
  Cl  Cl0  1  0.24070752  0.75929248  0.75929248  1
  Cl  Cl1  1  0.24070752  0.24070752  0.75929248  1
  Cl  Cl2  1  0.24070752  0.75929248  0.24070752  1
  Cl  Cl3  1  0.75929248  0.24070752  0.24070752  1
  Cl  Cl4  1  0.75929248  0.75929248  0.24070752  1
  Cl  Cl5  1  0.75929248  0.24070752  0.75929248  1
loop_
_geom_bond_atom_site_label_1
_geom_bond_atom_site_label_2
_geom_bond_distance
_geom_bond_site_symmetry_2
H0 N0 1.024011 1_555
H1 N0 1.024011 1_555
H2 N0 1.024011 1_555
H3 N0 1.023999 1_555
H4 N1 1.024011 1_555
H5 N1 1.024011 1_555
H6 N1 1.024011 1_555
H7 N1 1.023999 1_555
Cl0 Sn0 2.440013 1_566
Cl1 Sn0 2.440013 1_556
Cl2 Sn0 2.440013 1_565
Cl3 Sn0 2.440013 1_655
Cl4 Sn0 2.440013 1_665
Cl5 Sn0 2.440013 1_656
