# generated using pymatgen
data_Li(YbGe)4
_symmetry_space_group_name_H-M   'P 1'
_cell_length_a   6.99302694
_cell_length_b   7.53923051
_cell_length_c   14.36325656
_cell_angle_alpha   90.00000000
_cell_angle_beta   90.00000000
_cell_angle_gamma   90.00000000
_symmetry_Int_Tables_number   1
_chemical_formula_structural   Li(YbGe)4
_chemical_formula_sum   'Li4 Yb16 Ge16'
_cell_volume   757.26021654
_cell_formula_units_Z   4
loop_
 _symmetry_equiv_pos_site_id
 _symmetry_equiv_pos_as_xyz
  1  'x, y, z'
loop_
 _atom_site_type_symbol
 _atom_site_label
 _atom_site_symmetry_multiplicity
 _atom_site_fract_x
 _atom_site_fract_y
 _atom_site_fract_z
 _atom_site_occupancy
  Li  Li0  1  0.66216624  0.02150867  0.75000000  1
  Li  Li1  1  0.33783376  0.97849133  0.25000000  1
  Li  Li2  1  0.83783376  0.52150867  0.25000000  1
  Li  Li3  1  0.16216624  0.47849133  0.75000000  1
  Yb  Yb0  1  0.32935138  0.82463852  0.62743794  1
  Yb  Yb1  1  0.48506771  0.31329567  0.59754662  1
  Yb  Yb2  1  0.51493229  0.68670433  0.40245338  1
  Yb  Yb3  1  0.17064862  0.32463852  0.12743794  1
  Yb  Yb4  1  0.98506771  0.18670433  0.59754662  1
  Yb  Yb5  1  0.01493229  0.81329567  0.09754662  1
  Yb  Yb6  1  0.82935138  0.67536148  0.87256206  1
  Yb  Yb7  1  0.67064862  0.17536148  0.37256206  1
  Yb  Yb8  1  0.01493229  0.81329567  0.40245338  1
  Yb  Yb9  1  0.98506771  0.18670433  0.90245338  1
  Yb  Yb10  1  0.32935138  0.82463852  0.87256206  1
  Yb  Yb11  1  0.82935138  0.67536148  0.62743794  1
  Yb  Yb12  1  0.67064862  0.17536148  0.12743794  1
  Yb  Yb13  1  0.17064862  0.32463852  0.37256206  1
  Yb  Yb14  1  0.51493229  0.68670433  0.09754662  1
  Yb  Yb15  1  0.48506771  0.31329567  0.90245338  1
  Ge  Ge0  1  0.21544481  0.63717767  0.25000000  1
  Ge  Ge1  1  0.83085431  0.46579504  0.46322813  1
  Ge  Ge2  1  0.33085431  0.03420496  0.46322813  1
  Ge  Ge3  1  0.66914569  0.96579504  0.96322813  1
  Ge  Ge4  1  0.28455519  0.13717767  0.75000000  1
  Ge  Ge5  1  0.51836421  0.58883742  0.75000000  1
  Ge  Ge6  1  0.16914569  0.53420496  0.96322813  1
  Ge  Ge7  1  0.78455519  0.36282233  0.75000000  1
  Ge  Ge8  1  0.16914569  0.53420496  0.53677187  1
  Ge  Ge9  1  0.48163579  0.41116258  0.25000000  1
  Ge  Ge10  1  0.98163579  0.08883742  0.25000000  1
  Ge  Ge11  1  0.71544481  0.86282233  0.25000000  1
  Ge  Ge12  1  0.01836421  0.91116258  0.75000000  1
  Ge  Ge13  1  0.33085431  0.03420496  0.03677187  1
  Ge  Ge14  1  0.83085431  0.46579504  0.03677187  1
  Ge  Ge15  1  0.66914569  0.96579504  0.53677187  1
loop_
_geom_bond_atom_site_label_1
_geom_bond_atom_site_label_2
_geom_bond_distance
_geom_bond_site_symmetry_2
Ge0 Ge9 2.523620 1_555
Ge0 Li1 2.711842 1_555
Ge0 Li2 2.780914 1_455
Ge0 Yb8 2.919602 1_555
Ge0 Yb5 2.919602 1_555
Ge0 Yb13 2.957918 1_555
Ge0 Yb3 2.957918 1_555
Ge0 Yb2 3.052953 1_555
Ge0 Yb14 3.052953 1_555
Ge1 Ge8 2.641643 1_655
Ge1 Yb7 2.783083 1_555
Ge1 Yb11 2.838899 1_555
Ge1 Yb2 2.901143 1_555
Ge1 Yb13 2.911136 1_655
Ge1 Yb8 3.046777 1_655
Ge1 Yb4 3.051615 1_555
Ge1 Li2 3.091705 1_555
Ge1 Yb1 3.300162 1_555
Ge2 Yb13 2.783083 1_555
Ge2 Yb0 2.838899 1_545
Ge2 Yb8 2.901143 1_545
Ge2 Yb7 2.911136 1_555
Ge2 Yb2 3.046777 1_545
Ge2 Yb1 3.051615 1_555
Ge2 Li1 3.091705 1_545
Ge2 Yb4 3.300162 1_455
Ge3 Yb6 2.783083 1_555
Ge3 Yb12 2.838899 1_566
Ge3 Yb9 2.901143 1_565
Ge3 Yb10 2.911136 1_555
Ge3 Yb15 3.046777 1_565
Ge3 Yb14 3.051615 1_556
Ge3 Li0 3.091705 1_565
Ge3 Yb5 3.300162 1_656
Ge4 Li3 2.711842 1_555
Ge4 Li0 2.780914 1_555
Ge4 Yb15 2.919602 1_555
Ge4 Yb1 2.919602 1_555
Ge4 Yb10 2.957918 1_545
Ge4 Yb0 2.957918 1_545
Ge4 Yb9 3.052953 1_455
Ge4 Yb4 3.052953 1_455
Ge5 Ge7 2.523620 1_555
Ge5 Li3 2.626155 1_555
Ge5 Yb10 2.829573 1_555
Ge5 Yb0 2.829573 1_555
Ge5 Yb6 2.872978 1_555
Ge5 Yb11 2.872978 1_555
Ge5 Yb15 3.027309 1_555
Ge5 Yb1 3.027309 1_555
Ge6 Yb10 2.783083 1_555
Ge6 Yb3 2.838899 1_556
Ge6 Yb15 2.901143 1_555
Ge6 Yb6 2.911136 1_455
Ge6 Yb9 3.046777 1_455
Ge6 Yb5 3.051615 1_556
Ge6 Li3 3.091705 1_555
Ge6 Yb14 3.300162 1_556
Ge7 Li0 2.711842 1_555
Ge7 Li3 2.780914 1_655
Ge7 Yb9 2.919602 1_555
Ge7 Yb4 2.919602 1_555
Ge7 Yb6 2.957918 1_555
Ge7 Yb11 2.957918 1_555
Ge7 Yb15 3.052953 1_555
Ge7 Yb1 3.052953 1_555
Ge8 Yb0 2.783083 1_555
Ge8 Yb13 2.838899 1_555
Ge8 Yb1 2.901143 1_555
Ge8 Yb11 2.911136 1_455
Ge8 Yb4 3.046777 1_455
Ge8 Yb8 3.051615 1_555
Ge8 Li3 3.091705 1_555
Ge8 Yb2 3.300162 1_555
Ge9 Li2 2.626155 1_555
Ge9 Yb7 2.829573 1_555
Ge9 Yb12 2.829573 1_555
Ge9 Yb13 2.872978 1_555
Ge9 Yb3 2.872978 1_555
Ge9 Yb2 3.027309 1_555
Ge9 Yb14 3.027309 1_555
Ge10 Ge11 2.523620 1_545
Ge10 Li1 2.626155 1_645
Ge10 Yb13 2.829573 1_655
Ge10 Yb3 2.829573 1_655
Ge10 Yb7 2.872978 1_555
Ge10 Yb12 2.872978 1_555
Ge10 Yb8 3.027309 1_645
Ge10 Yb5 3.027309 1_645
Ge11 Li2 2.711842 1_555
Ge11 Li1 2.780914 1_555
Ge11 Yb2 2.919602 1_555
Ge11 Yb14 2.919602 1_555
Ge11 Yb7 2.957918 1_565
Ge11 Yb12 2.957918 1_565
Ge11 Yb8 3.052953 1_655
Ge11 Yb5 3.052953 1_655
Ge12 Ge4 2.523620 1_565
Ge12 Li0 2.626155 1_465
Ge12 Yb6 2.829573 1_455
Ge12 Yb11 2.829573 1_455
Ge12 Yb10 2.872978 1_555
Ge12 Yb0 2.872978 1_555
Ge12 Yb9 3.027309 1_465
Ge12 Yb4 3.027309 1_465
Ge13 Ge3 2.641643 1_544
Ge13 Yb3 2.783083 1_555
Ge13 Yb10 2.838899 1_544
Ge13 Yb5 2.901143 1_545
Ge13 Yb12 2.911136 1_555
Ge13 Yb14 3.046777 1_545
Ge13 Yb15 3.051615 1_554
Ge13 Li1 3.091705 1_545
Ge13 Yb9 3.300162 1_454
Ge14 Ge6 2.641643 1_654
Ge14 Yb12 2.783083 1_555
Ge14 Yb6 2.838899 1_554
Ge14 Yb14 2.901143 1_555
Ge14 Yb3 2.911136 1_655
Ge14 Yb5 3.046777 1_655
Ge14 Yb9 3.051615 1_554
Ge14 Li2 3.091705 1_555
Ge14 Yb15 3.300162 1_554
Ge15 Ge2 2.641643 1_565
Ge15 Yb11 2.783083 1_555
Ge15 Yb7 2.838899 1_565
Ge15 Yb4 2.901143 1_565
Ge15 Yb0 2.911136 1_555
Ge15 Yb1 3.046777 1_565
Ge15 Yb2 3.051615 1_555
Ge15 Li0 3.091705 1_565
Ge15 Yb8 3.300162 1_655
