# generated using pymatgen
data_K3B17
_symmetry_space_group_name_H-M   'P 1'
_cell_length_a   13.30794988
_cell_length_b   13.30794988
_cell_length_c   13.30794988
_cell_angle_alpha   153.92748815
_cell_angle_beta   153.92748815
_cell_angle_gamma   37.20500754
_symmetry_Int_Tables_number   1
_chemical_formula_structural   K3B17
_chemical_formula_sum   'K6 B34'
_cell_volume   454.61383605
_cell_formula_units_Z   2
loop_
 _symmetry_equiv_pos_site_id
 _symmetry_equiv_pos_as_xyz
  1  'x, y, z'
loop_
 _atom_site_type_symbol
 _atom_site_label
 _atom_site_symmetry_multiplicity
 _atom_site_fract_x
 _atom_site_fract_y
 _atom_site_fract_z
 _atom_site_occupancy
  K  K0  1  0.50000000  0.00000000  0.50000000  1
  K  K1  1  0.33255000  0.83255000  0.50000000  1
  K  K2  1  0.66745000  0.16745000  0.50000000  1
  K  K3  1  0.83255000  0.33255000  0.50000000  1
  K  K4  1  0.00000000  0.50000000  0.50000000  1
  K  K5  1  0.16745000  0.66745000  0.50000000  1
  B  B0  1  0.59809000  0.90261300  0.00000000  1
  B  B1  1  0.40191000  0.09738700  0.00000000  1
  B  B2  1  0.56324300  0.26481300  0.00000000  1
  B  B3  1  0.73518700  0.43675700  0.00000000  1
  B  B4  1  0.29592900  0.29592900  0.00000000  1
  B  B5  1  0.36504900  0.36504900  0.00000000  1
  B  B6  1  0.46530300  0.46530300  0.00000000  1
  B  B7  1  0.53469700  0.53469700  0.00000000  1
  B  B8  1  0.40191000  0.40191000  0.30452300  1
  B  B9  1  0.56324300  0.56324300  0.29842900  1
  B  B10  1  0.59809000  0.59809000  0.69547700  1
  B  B11  1  0.63495100  0.63495100  0.00000000  1
  B  B12  1  0.70407100  0.70407100  0.00000000  1
  B  B13  1  0.73518700  0.73518700  0.29842900  1
  B  B14  1  0.09738700  0.40191000  0.00000000  1
  B  B15  1  0.26481300  0.56324300  0.00000000  1
  B  B16  1  0.43675700  0.73518700  0.00000000  1
  B  B17  1  0.90261300  0.59809000  0.00000000  1
  B  B18  1  0.07158100  0.76885400  0.00000000  1
  B  B19  1  0.23114600  0.92841900  0.00000000  1
  B  B20  1  0.79205000  0.79205000  0.00000000  1
  B  B21  1  0.96580500  0.96580500  0.00000000  1
  B  B22  1  0.03419500  0.03419500  0.00000000  1
  B  B23  1  0.90261300  0.90261300  0.30452300  1
  B  B24  1  0.07158100  0.07158100  0.30272700  1
  B  B25  1  0.23114600  0.23114600  0.30272700  1
  B  B26  1  0.09738700  0.09738700  0.69547700  1
  B  B27  1  0.26481300  0.26481300  0.70157100  1
  B  B28  1  0.43675700  0.43675700  0.70157100  1
  B  B29  1  0.20795000  0.20795000  0.00000000  1
  B  B30  1  0.76885400  0.07158100  0.00000000  1
  B  B31  1  0.92841900  0.23114600  0.00000000  1
  B  B32  1  0.76885400  0.76885400  0.69727300  1
  B  B33  1  0.92841900  0.92841900  0.69727300  1
loop_
_geom_bond_atom_site_label_1
_geom_bond_atom_site_label_2
_geom_bond_distance
_geom_bond_site_symmetry_2
B0 B1 1.659791 1_565
B0 B20 1.666636 1_555
B0 B12 1.741892 1_555
B0 B23 1.828260 1_555
B0 B10 1.828260 1_554
B0 K3 3.081155 1_565
B0 K1 3.081155 1_554
B0 K2 3.093116 1_565
B0 K5 3.093116 1_554
B1 B29 1.666636 1_555
B1 B4 1.741892 1_555
B1 B8 1.828260 1_555
B1 B26 1.828260 1_554
B1 K5 3.081155 1_544
B1 K2 3.081155 1_555
B1 K3 3.093116 1_555
B1 K1 3.093116 1_544
B2 B30 1.700370 1_555
B2 B5 1.769618 1_555
B2 B9 1.791676 1_555
B2 B27 1.791676 1_554
B2 B6 1.810529 1_555
B2 K3 3.076048 1_555
B2 K1 3.076048 1_544
B2 K0 3.152922 1_554
B2 K4 3.152922 1_655
B3 B31 1.700370 1_555
B3 B7 1.810529 1_555
B3 K2 3.076048 1_554
B3 K5 3.076048 1_655
B3 K4 3.152922 1_655
B3 K0 3.152922 1_554
B4 B8 1.741892 1_555
B4 B5 1.743575 1_555
B4 K3 3.140767 1_454
B4 K3 3.140767 1_555
B4 K1 3.140767 1_555
B4 K1 3.140767 1_544
B5 B9 1.769624 1_555
B5 K1 3.111772 1_555
B5 K3 3.111772 1_454
B5 K3 3.111772 1_555
B5 K1 3.111772 1_544
B6 B7 1.750487 1_555
B6 B9 1.810517 1_555
B6 K0 3.126837 1_565
B6 K4 3.126837 1_554
B6 K4 3.126837 1_655
B6 K0 3.126837 1_554
B7 K0 3.126837 1_565
B7 K4 3.126837 1_554
B7 K4 3.126837 1_655
B7 K0 3.126837 1_554
B8 K2 3.081155 1_555
B8 K5 3.081155 1_555
B8 K3 3.093116 1_555
B8 K1 3.093116 1_555
B9 K1 3.076058 1_555
B9 K3 3.076058 1_555
B9 K4 3.152914 1_655
B9 K0 3.152914 1_565
B10 B8 1.659791 1_555
B10 B20 1.666636 1_556
B10 B12 1.741892 1_556
B10 B17 1.828260 1_556
B10 K3 3.081155 1_555
B10 K1 3.081155 1_555
B10 K5 3.093116 1_555
B10 K2 3.093116 1_555
B11 B12 1.743575 1_555
B11 B13 1.769606 1_555
B11 B3 1.769618 1_555
B11 B16 1.769618 1_555
B11 B28 1.769624 1_554
B11 K2 3.111772 1_554
B11 K5 3.111772 1_554
B11 K5 3.111772 1_655
B11 K2 3.111772 1_565
B12 B23 1.741892 1_555
B12 B17 1.741892 1_555
B12 K2 3.140767 1_565
B12 K5 3.140767 1_655
B12 K5 3.140767 1_554
B12 K2 3.140767 1_554
B13 B33 1.700375 1_555
B13 B16 1.791676 1_555
B13 B3 1.791676 1_555
B13 B7 1.810535 1_555
B13 K2 3.076041 1_565
B13 K5 3.076041 1_655
B13 K0 3.152932 1_565
B13 K4 3.152932 1_655
B14 B17 1.659791 1_455
B14 B29 1.666636 1_555
B14 B4 1.741892 1_555
B14 B8 1.828260 1_555
B14 B26 1.828260 1_554
B14 K5 3.081155 1_555
B14 K2 3.081155 1_454
B14 K1 3.093116 1_555
B14 K3 3.093116 1_454
B15 B18 1.700370 1_555
B15 B5 1.769618 1_555
B15 B9 1.791676 1_555
B15 B27 1.791676 1_554
B15 B6 1.810529 1_555
B15 K1 3.076048 1_555
B15 K3 3.076048 1_454
B15 K0 3.152922 1_565
B15 K4 3.152922 1_554
B16 B19 1.700370 1_555
B16 B28 1.791676 1_554
B16 B7 1.810529 1_555
B16 K5 3.076048 1_554
B16 K2 3.076048 1_565
B16 K0 3.152922 1_565
B16 K4 3.152922 1_554
B17 B20 1.666636 1_555
B17 B23 1.828260 1_555
B17 K1 3.081155 1_655
B17 K3 3.081155 1_554
B17 K5 3.093116 1_655
B17 K2 3.093116 1_554
B18 B21 1.724535 1_455
B18 B32 1.817477 1_454
B18 B24 1.817477 1_565
B18 K0 3.042566 1_565
B18 K4 3.042566 1_554
B18 K1 3.177635 1_555
B18 K3 3.177635 1_454
B19 B22 1.724535 1_565
B19 B33 1.817477 1_454
B19 B25 1.817477 1_565
B19 K0 3.042566 1_565
B19 K4 3.042566 1_554
B19 K5 3.177635 1_554
B19 K2 3.177635 1_565
B20 B23 1.666636 1_555
B20 K3 3.170927 1_565
B20 K1 3.170927 1_655
B20 K1 3.170927 1_554
B20 K3 3.170927 1_554
B21 B24 1.724535 1_665
B21 B30 1.724535 1_565
B21 B32 1.724535 1_554
B21 B22 1.725161 1_665
B21 K0 3.123316 1_665
B21 K0 3.123316 1_564
B21 K4 3.123316 1_654
B21 K4 3.123316 1_665
B22 B33 1.724535 1_444
B22 B31 1.724535 1_455
B22 B25 1.724535 1_555
B22 K0 3.123316 1_454
B22 K4 3.123316 1_555
B22 K0 3.123316 1_555
B22 K4 3.123316 1_544
B23 B26 1.659791 1_665
B23 K3 3.081155 1_565
B23 K1 3.081155 1_655
B23 K5 3.093116 1_655
B23 K2 3.093116 1_565
B24 B27 1.700375 1_555
B24 B30 1.817477 1_455
B24 K4 3.042566 1_555
B24 K0 3.042566 1_555
B24 K1 3.177635 1_545
B24 K3 3.177635 1_455
B25 B28 1.700373 1_555
B25 B31 1.817477 1_455
B25 K4 3.042566 1_555
B25 K0 3.042566 1_555
B25 K2 3.177635 1_555
B25 K5 3.177635 1_555
B26 B29 1.666636 1_556
B26 B4 1.741892 1_556
B26 K5 3.081155 1_545
B26 K2 3.081155 1_455
B26 K1 3.093116 1_545
B26 K3 3.093116 1_455
B27 B5 1.769606 1_556
B27 B6 1.810535 1_556
B27 K1 3.076041 1_545
B27 K3 3.076041 1_455
B27 K0 3.152932 1_555
B27 K4 3.152932 1_555
B28 B3 1.791676 1_556
B28 B7 1.810517 1_556
B28 K2 3.076058 1_555
B28 K5 3.076058 1_555
B28 K0 3.152914 1_555
B28 K4 3.152914 1_555
B29 B8 1.666636 1_555
B29 K2 3.170927 1_555
B29 K5 3.170927 1_555
B29 K5 3.170927 1_544
B29 K2 3.170927 1_454
B30 B32 1.817477 1_544
B30 K4 3.042566 1_655
B30 K0 3.042566 1_554
B30 K1 3.177635 1_544
B30 K3 3.177635 1_555
B31 B33 1.817477 1_544
B31 K4 3.042566 1_655
B31 K0 3.042566 1_554
B31 K2 3.177635 1_554
B31 K5 3.177635 1_655
B32 B9 1.700373 1_555
B32 K0 3.042566 1_565
B32 K4 3.042566 1_655
B32 K1 3.177635 1_555
B32 K3 3.177635 1_555
B33 K0 3.042566 1_565
B33 K4 3.042566 1_655
B33 K5 3.177635 1_655
B33 K2 3.177635 1_565
