# generated using pymatgen
data_Na4H6Ru
_symmetry_space_group_name_H-M   'P 1'
_cell_length_a   6.44269394
_cell_length_b   6.44269394
_cell_length_c   6.44269380
_cell_angle_alpha   89.28601069
_cell_angle_beta   89.28601069
_cell_angle_gamma   89.28599667
_symmetry_Int_Tables_number   1
_chemical_formula_structural   Na4H6Ru
_chemical_formula_sum   'Na8 H12 Ru2'
_cell_volume   267.36352123
_cell_formula_units_Z   2
loop_
 _symmetry_equiv_pos_site_id
 _symmetry_equiv_pos_as_xyz
  1  'x, y, z'
loop_
 _atom_site_type_symbol
 _atom_site_label
 _atom_site_symmetry_multiplicity
 _atom_site_fract_x
 _atom_site_fract_y
 _atom_site_fract_z
 _atom_site_occupancy
  Na  Na0  1  0.25000000  0.25000000  0.25000000  1
  Na  Na1  1  0.75000000  0.75000000  0.75000000  1
  Na  Na2  1  0.86631606  0.63368394  0.25000000  1
  Na  Na3  1  0.25000000  0.86631606  0.63368394  1
  Na  Na4  1  0.63368394  0.25000000  0.86631606  1
  Na  Na5  1  0.75000000  0.13368394  0.36631606  1
  Na  Na6  1  0.36631606  0.75000000  0.13368394  1
  Na  Na7  1  0.13368394  0.36631606  0.75000000  1
  H  H0  1  0.24037742  0.54995607  0.44398181  1
  H  H1  1  0.44398181  0.24037742  0.54995607  1
  H  H2  1  0.54995607  0.44398181  0.24037742  1
  H  H3  1  0.94398181  0.04995607  0.74037742  1
  H  H4  1  0.74037742  0.94398181  0.04995607  1
  H  H5  1  0.04995607  0.74037742  0.94398181  1
  H  H6  1  0.75962258  0.45004393  0.55601819  1
  H  H7  1  0.55601819  0.75962258  0.45004393  1
  H  H8  1  0.45004393  0.55601819  0.75962258  1
  H  H9  1  0.05601819  0.95004393  0.25962258  1
  H  H10  1  0.25962258  0.05601819  0.95004393  1
  H  H11  1  0.95004393  0.25962258  0.05601819  1
  Ru  Ru0  1  0.50000000  0.50000000  0.50000000  1
  Ru  Ru1  1  0.00000000  0.00000000  -0.00000000  1
loop_
_geom_bond_atom_site_label_1
_geom_bond_atom_site_label_2
_geom_bond_distance
_geom_bond_site_symmetry_2
H0 Ru0 1.740804 1_555
H0 Na0 2.314235 1_555
H0 Na7 2.384914 1_555
H0 Na3 2.391448 1_555
H0 Na6 2.497488 1_555
H1 Ru0 1.740804 1_555
H1 Na0 2.314235 1_555
H1 Na5 2.384913 1_555
H1 Na4 2.391448 1_555
H1 Na7 2.497488 1_555
H2 Ru0 1.740804 1_555
H2 Na0 2.314236 1_555
H2 Na6 2.384913 1_555
H2 Na2 2.391448 1_555
H2 Na5 2.497488 1_555
H3 Ru1 1.740804 1_656
H3 Na1 2.314236 1_545
H3 Na3 2.384913 1_645
H3 Na7 2.391448 1_655
H3 Na4 2.497488 1_555
H4 Ru1 1.740804 1_665
H4 Na1 2.314235 1_554
H4 Na4 2.384913 1_564
H4 Na5 2.391448 1_565
H4 Na2 2.497488 1_555
H5 Ru1 1.740804 1_566
H5 Na1 2.314235 1_455
H5 Na2 2.384914 1_456
H5 Na6 2.391448 1_556
H5 Na3 2.497488 1_555
H6 Ru0 1.740804 1_555
H6 Na1 2.314235 1_555
H6 Na2 2.384914 1_555
H6 Na5 2.391448 1_555
H6 Na4 2.497488 1_555
H7 Ru0 1.740804 1_555
H7 Na1 2.314235 1_555
H7 Na3 2.384913 1_555
H7 Na6 2.391448 1_555
H7 Na2 2.497488 1_555
H8 Ru0 1.740804 1_555
H8 Na1 2.314236 1_555
H8 Na4 2.384913 1_555
H8 Na7 2.391448 1_555
H8 Na3 2.497488 1_555
H9 Ru1 1.740804 1_565
H9 Na0 2.314236 1_565
H9 Na5 2.384913 1_465
H9 Na2 2.391448 1_455
H9 Na6 2.497488 1_555
H10 Ru1 1.740804 1_556
H10 Na0 2.314235 1_556
H10 Na6 2.384913 1_546
H10 Na3 2.391448 1_545
H10 Na7 2.497488 1_555
H11 Ru1 1.740804 1_655
H11 Na0 2.314235 1_655
H11 Na7 2.384914 1_654
H11 Na4 2.391448 1_554
H11 Na5 2.497488 1_555
