# generated using pymatgen
data_Ce2PbS4
_symmetry_space_group_name_H-M   'P 1'
_cell_length_a   7.55002568
_cell_length_b   7.55002568
_cell_length_c   7.55002568
_cell_angle_alpha   109.53493696
_cell_angle_beta   109.53493696
_cell_angle_gamma   109.34386299
_symmetry_Int_Tables_number   1
_chemical_formula_structural   Ce2PbS4
_chemical_formula_sum   'Ce4 Pb2 S8'
_cell_volume   331.30026767
_cell_formula_units_Z   2
loop_
 _symmetry_equiv_pos_site_id
 _symmetry_equiv_pos_as_xyz
  1  'x, y, z'
loop_
 _atom_site_type_symbol
 _atom_site_label
 _atom_site_symmetry_multiplicity
 _atom_site_fract_x
 _atom_site_fract_y
 _atom_site_fract_z
 _atom_site_occupancy
  Ce  Ce0  1  0.87500000  0.49273600  0.11773600  1
  Ce  Ce1  1  0.37500000  0.75726400  0.88226400  1
  Ce  Ce2  1  0.24273600  0.12500000  0.61773600  1
  Ce  Ce3  1  0.50726400  0.62500000  0.38226400  1
  Pb  Pb0  1  0.75000000  0.25000000  0.50000000  1
  Pb  Pb1  1  0.00000000  0.00000000  0.00000000  1
  S  S0  1  0.61191100  0.01699100  0.74743600  1
  S  S1  1  0.76699100  0.86191100  0.24743600  1
  S  S2  1  0.98300900  0.73044500  0.59492000  1
  S  S3  1  0.26955500  0.86447500  0.25256400  1
  S  S4  1  0.13808900  0.38552500  0.90508000  1
  S  S5  1  0.13552500  0.38808900  0.40508000  1
  S  S6  1  0.48044500  0.23300900  0.09492000  1
  S  S7  1  0.61447500  0.51955500  0.75256400  1
loop_
_geom_bond_atom_site_label_1
_geom_bond_atom_site_label_2
_geom_bond_distance
_geom_bond_site_symmetry_2
Ce0 S3 2.882696 1_655
Ce0 S6 2.882696 1_555
Ce0 S5 2.919212 1_655
Ce0 S7 2.919212 1_554
Ce0 S0 3.083395 1_554
Ce0 S4 3.083395 1_654
Ce0 S2 3.099565 1_555
Ce0 S1 3.099565 1_555
Ce1 S0 2.882696 1_565
Ce1 S4 2.882696 1_555
Ce1 S1 2.919212 1_556
Ce1 S2 2.919212 1_455
Ce1 S3 3.083395 1_556
Ce1 S6 3.083395 1_566
Ce1 S7 3.099565 1_555
Ce1 S5 3.099565 1_555
Ce2 S2 2.882696 1_445
Ce2 S7 2.882696 1_555
Ce2 S4 2.919212 1_555
Ce2 S3 2.919212 1_545
Ce2 S5 3.083395 1_555
Ce2 S1 3.083395 1_445
Ce2 S6 3.099565 1_556
Ce2 S0 3.099565 1_555
Ce3 S5 2.882696 1_555
Ce3 S1 2.882696 1_555
Ce3 S0 2.919212 1_565
Ce3 S6 2.919212 1_555
Ce3 S2 3.083395 1_555
Ce3 S7 3.083395 1_555
Ce3 S3 3.099565 1_555
Ce3 S4 3.099565 1_554
Pb0 S1 2.985634 1_545
Pb0 S4 2.985634 1_655
Pb0 S7 2.985634 1_555
Pb0 S6 2.985634 1_555
Pb0 S5 3.155499 1_655
Pb0 S2 3.155499 1_555
Pb0 S0 3.155499 1_555
Pb0 S3 3.155499 1_545
Pb1 S5 2.985634 1_555
Pb1 S2 2.985634 1_444
Pb1 S3 2.985634 1_545
Pb1 S0 2.985634 1_454
Pb1 S6 3.155499 1_555
Pb1 S4 3.155499 1_554
Pb1 S1 3.155499 1_445
Pb1 S7 3.155499 1_444
