# generated using pymatgen
data_Tl2Zn(CN)4
_symmetry_space_group_name_H-M   'P 1'
_cell_length_a   17.81058439
_cell_length_b   17.81058439
_cell_length_c   17.81058439
_cell_angle_alpha   60.00000000
_cell_angle_beta   60.00000000
_cell_angle_gamma   60.00000000
_symmetry_Int_Tables_number   1
_chemical_formula_structural   Tl2Zn(CN)4
_chemical_formula_sum   'Tl32 Zn16 C64 N64'
_cell_volume   3995.02508639
_cell_formula_units_Z   16
loop_
 _symmetry_equiv_pos_site_id
 _symmetry_equiv_pos_as_xyz
  1  'x, y, z'
loop_
 _atom_site_type_symbol
 _atom_site_label
 _atom_site_symmetry_multiplicity
 _atom_site_fract_x
 _atom_site_fract_y
 _atom_site_fract_z
 _atom_site_occupancy
  Tl  Tl0  1  0.93843300  0.18470000  0.93843300  1
  Tl  Tl1  1  0.43361900  0.97702500  0.68777400  1
  Tl  Tl2  1  0.18777400  0.47702500  0.93361900  1
  Tl  Tl3  1  0.18470000  0.93843300  0.93843300  1
  Tl  Tl4  1  0.93843300  0.93843300  0.93843300  1
  Tl  Tl5  1  0.68777400  0.43361900  0.97702500  1
  Tl  Tl6  1  0.43843300  0.43843300  0.68470000  1
  Tl  Tl7  1  0.68470000  0.43843300  0.43843300  1
  Tl  Tl8  1  0.90158100  0.97702500  0.43361900  1
  Tl  Tl9  1  0.97702500  0.43361900  0.90158100  1
  Tl  Tl10  1  0.40158100  0.47702500  0.18777400  1
  Tl  Tl11  1  0.93361900  0.40158100  0.18777400  1
  Tl  Tl12  1  0.97702500  0.90158100  0.68777400  1
  Tl  Tl13  1  0.47702500  0.40158100  0.93361900  1
  Tl  Tl14  1  0.90158100  0.68777400  0.97702500  1
  Tl  Tl15  1  0.43843300  0.68470000  0.43843300  1
  Tl  Tl16  1  0.43843300  0.43843300  0.43843300  1
  Tl  Tl17  1  0.18777400  0.93361900  0.40158100  1
  Tl  Tl18  1  0.90158100  0.43361900  0.68777400  1
  Tl  Tl19  1  0.40158100  0.18777400  0.93361900  1
  Tl  Tl20  1  0.43361900  0.68777400  0.90158100  1
  Tl  Tl21  1  0.47702500  0.18777400  0.40158100  1
  Tl  Tl22  1  0.93361900  0.47702500  0.40158100  1
  Tl  Tl23  1  0.40158100  0.93361900  0.47702500  1
  Tl  Tl24  1  0.68777400  0.97702500  0.90158100  1
  Tl  Tl25  1  0.93843300  0.93843300  0.18470000  1
  Tl  Tl26  1  0.18777400  0.40158100  0.47702500  1
  Tl  Tl27  1  0.68777400  0.90158100  0.43361900  1
  Tl  Tl28  1  0.43361900  0.90158100  0.97702500  1
  Tl  Tl29  1  0.93361900  0.18777400  0.47702500  1
  Tl  Tl30  1  0.97702500  0.68777400  0.43361900  1
  Tl  Tl31  1  0.47702500  0.93361900  0.18777400  1
  Zn  Zn0  1  0.62876100  0.11371600  0.62876100  1
  Zn  Zn1  1  0.62876100  0.62876100  0.62876100  1
  Zn  Zn2  1  0.62876100  0.62876100  0.11371600  1
  Zn  Zn3  1  0.61371600  0.12876100  0.12876100  1
  Zn  Zn4  1  0.75000000  0.75000000  0.75000000  1
  Zn  Zn5  1  0.12876100  0.61371600  0.12876100  1
  Zn  Zn6  1  0.25000000  0.75000000  0.25000000  1
  Zn  Zn7  1  0.11371600  0.62876100  0.62876100  1
  Zn  Zn8  1  0.25000000  0.75000000  0.75000000  1
  Zn  Zn9  1  0.75000000  0.25000000  0.75000000  1
  Zn  Zn10  1  0.25000000  0.25000000  0.25000000  1
  Zn  Zn11  1  0.75000000  0.75000000  0.25000000  1
  Zn  Zn12  1  0.12876100  0.12876100  0.12876100  1
  Zn  Zn13  1  0.12876100  0.12876100  0.61371600  1
  Zn  Zn14  1  0.25000000  0.25000000  0.75000000  1
  Zn  Zn15  1  0.75000000  0.25000000  0.25000000  1
  C  C0  1  0.61424100  0.76458600  0.06462300  1
  C  C1  1  0.61424100  0.55655000  0.76458600  1
  C  C2  1  0.11424100  0.05655000  0.56462300  1
  C  C3  1  0.56462300  0.11424100  0.05655000  1
  C  C4  1  0.82972900  0.11738900  0.76433800  1
  C  C5  1  0.28854300  0.11738900  0.82972900  1
  C  C6  1  0.06462300  0.76458600  0.55655000  1
  C  C7  1  0.79586000  0.79586000  0.79586000  1
  C  C8  1  0.26458600  0.11424100  0.56462300  1
  C  C9  1  0.05655000  0.26458600  0.56462300  1
  C  C10  1  0.82972900  0.28854300  0.11738900  1
  C  C11  1  0.05655000  0.11424100  0.26458600  1
  C  C12  1  0.26458600  0.56462300  0.05655000  1
  C  C13  1  0.26433800  0.78854300  0.61738900  1
  C  C14  1  0.11738900  0.82972900  0.28854300  1
  C  C15  1  0.61424100  0.06462300  0.55655000  1
  C  C16  1  0.11424100  0.56462300  0.26458600  1
  C  C17  1  0.76433800  0.82972900  0.11738900  1
  C  C18  1  0.78854300  0.32972900  0.61738900  1
  C  C19  1  0.25439100  0.58187000  0.58187000  1
  C  C20  1  0.08187000  0.08187000  0.75439100  1
  C  C21  1  0.79586000  0.61241900  0.79586000  1
  C  C22  1  0.29586000  0.29586000  0.11241900  1
  C  C23  1  0.29586000  0.29586000  0.29586000  1
  C  C24  1  0.11738900  0.28854300  0.76433800  1
  C  C25  1  0.26433800  0.61738900  0.32972900  1
  C  C26  1  0.78854300  0.26433800  0.32972900  1
  C  C27  1  0.32972900  0.26433800  0.61738900  1
  C  C28  1  0.11424100  0.26458600  0.05655000  1
  C  C29  1  0.11241900  0.29586000  0.29586000  1
  C  C30  1  0.55655000  0.06462300  0.76458600  1
  C  C31  1  0.28854300  0.76433800  0.11738900  1
  C  C32  1  0.26433800  0.32972900  0.78854300  1
  C  C33  1  0.76458600  0.55655000  0.06462300  1
  C  C34  1  0.58187000  0.58187000  0.25439100  1
  C  C35  1  0.78854300  0.61738900  0.26433800  1
  C  C36  1  0.61738900  0.78854300  0.32972900  1
  C  C37  1  0.61738900  0.26433800  0.78854300  1
  C  C38  1  0.05655000  0.56462300  0.11424100  1
  C  C39  1  0.61738900  0.32972900  0.26433800  1
  C  C40  1  0.28854300  0.82972900  0.76433800  1
  C  C41  1  0.79586000  0.79586000  0.61241900  1
  C  C42  1  0.76433800  0.11738900  0.28854300  1
  C  C43  1  0.08187000  0.75439100  0.08187000  1
  C  C44  1  0.06462300  0.55655000  0.61424100  1
  C  C45  1  0.61241900  0.79586000  0.79586000  1
  C  C46  1  0.58187000  0.58187000  0.58187000  1
  C  C47  1  0.56462300  0.05655000  0.26458600  1
  C  C48  1  0.58187000  0.25439100  0.58187000  1
  C  C49  1  0.76458600  0.06462300  0.61424100  1
  C  C50  1  0.82972900  0.76433800  0.28854300  1
  C  C51  1  0.06462300  0.61424100  0.76458600  1
  C  C52  1  0.11738900  0.76433800  0.82972900  1
  C  C53  1  0.56462300  0.26458600  0.11424100  1
  C  C54  1  0.29586000  0.11241900  0.29586000  1
  C  C55  1  0.76458600  0.61424100  0.55655000  1
  C  C56  1  0.08187000  0.08187000  0.08187000  1
  C  C57  1  0.55655000  0.61424100  0.06462300  1
  C  C58  1  0.32972900  0.78854300  0.26433800  1
  C  C59  1  0.55655000  0.76458600  0.61424100  1
  C  C60  1  0.75439100  0.08187000  0.08187000  1
  C  C61  1  0.32972900  0.61738900  0.78854300  1
  C  C62  1  0.76433800  0.28854300  0.82972900  1
  C  C63  1  0.26458600  0.05655000  0.11424100  1
  N  N0  1  0.55489700  0.33531000  0.55489700  1
  N  N1  1  0.77464100  0.30914700  0.87627000  1
  N  N2  1  0.59766700  0.52004400  0.84450300  1
  N  N3  1  0.82283200  0.53150300  0.82283200  1
  N  N4  1  0.87627000  0.77464100  0.30914700  1
  N  N5  1  0.32283200  0.32283200  0.32283200  1
  N  N6  1  0.82283200  0.82283200  0.53150300  1
  N  N7  1  0.77464100  0.03994200  0.30914700  1
  N  N8  1  0.53994200  0.27464100  0.80914700  1
  N  N9  1  0.55489700  0.55489700  0.33531000  1
  N  N10  1  0.33531000  0.55489700  0.55489700  1
  N  N11  1  0.05489700  0.05489700  0.83531000  1
  N  N12  1  0.34450300  0.02004400  0.09766700  1
  N  N13  1  0.30914700  0.77464100  0.03994200  1
  N  N14  1  0.30914700  0.03994200  0.87627000  1
  N  N15  1  0.32283200  0.03150300  0.32283200  1
  N  N16  1  0.03778500  0.84450300  0.52004400  1
  N  N17  1  0.03778500  0.59766700  0.84450300  1
  N  N18  1  0.83531000  0.05489700  0.05489700  1
  N  N19  1  0.87627000  0.03994200  0.77464100  1
  N  N20  1  0.53778500  0.09766700  0.02004400  1
  N  N21  1  0.53150300  0.82283200  0.82283200  1
  N  N22  1  0.27464100  0.37627000  0.80914700  1
  N  N23  1  0.53778500  0.34450300  0.09766700  1
  N  N24  1  0.84450300  0.03778500  0.59766700  1
  N  N25  1  0.03150300  0.32283200  0.32283200  1
  N  N26  1  0.03994200  0.77464100  0.87627000  1
  N  N27  1  0.53994200  0.80914700  0.37627000  1
  N  N28  1  0.53994200  0.37627000  0.27464100  1
  N  N29  1  0.37627000  0.80914700  0.27464100  1
  N  N30  1  0.87627000  0.30914700  0.03994200  1
  N  N31  1  0.05489700  0.05489700  0.05489700  1
  N  N32  1  0.80914700  0.53994200  0.27464100  1
  N  N33  1  0.32283200  0.32283200  0.03150300  1
  N  N34  1  0.84450300  0.52004400  0.03778500  1
  N  N35  1  0.02004400  0.09766700  0.34450300  1
  N  N36  1  0.80914700  0.27464100  0.37627000  1
  N  N37  1  0.09766700  0.34450300  0.02004400  1
  N  N38  1  0.03778500  0.52004400  0.59766700  1
  N  N39  1  0.84450300  0.59766700  0.52004400  1
  N  N40  1  0.27464100  0.53994200  0.37627000  1
  N  N41  1  0.52004400  0.03778500  0.84450300  1
  N  N42  1  0.59766700  0.03778500  0.52004400  1
  N  N43  1  0.09766700  0.02004400  0.53778500  1
  N  N44  1  0.53778500  0.02004400  0.34450300  1
  N  N45  1  0.03994200  0.87627000  0.30914700  1
  N  N46  1  0.34450300  0.09766700  0.53778500  1
  N  N47  1  0.09766700  0.53778500  0.34450300  1
  N  N48  1  0.30914700  0.87627000  0.77464100  1
  N  N49  1  0.59766700  0.84450300  0.03778500  1
  N  N50  1  0.02004400  0.34450300  0.53778500  1
  N  N51  1  0.82283200  0.82283200  0.82283200  1
  N  N52  1  0.02004400  0.53778500  0.09766700  1
  N  N53  1  0.77464100  0.87627000  0.03994200  1
  N  N54  1  0.34450300  0.53778500  0.02004400  1
  N  N55  1  0.05489700  0.83531000  0.05489700  1
  N  N56  1  0.37627000  0.27464100  0.53994200  1
  N  N57  1  0.55489700  0.55489700  0.55489700  1
  N  N58  1  0.52004400  0.59766700  0.03778500  1
  N  N59  1  0.52004400  0.84450300  0.59766700  1
  N  N60  1  0.37627000  0.53994200  0.80914700  1
  N  N61  1  0.03994200  0.30914700  0.77464100  1
  N  N62  1  0.80914700  0.37627000  0.53994200  1
  N  N63  1  0.27464100  0.80914700  0.53994200  1
loop_
_geom_bond_atom_site_label_1
_geom_bond_atom_site_label_2
_geom_bond_distance
_geom_bond_site_symmetry_2
C0 N49 1.175655 1_555
C0 Zn2 2.041778 1_555
C1 N2 1.175656 1_555
C1 Zn1 2.041776 1_555
C2 N43 1.175671 1_555
C2 Zn13 2.041762 1_555
C3 N20 1.175671 1_555
C3 Zn3 2.041762 1_555
C4 N19 1.174333 1_555
C4 Zn9 2.016360 1_555
C5 N14 1.174335 1_555
C5 Zn14 2.016358 1_555
C6 N16 1.175658 1_555
C6 Zn7 2.041774 1_555
C7 N51 1.176703 1_555
C7 Zn4 2.000727 1_555
C8 N46 1.175655 1_555
C8 Zn13 2.041778 1_555
C9 N50 1.175658 1_555
C9 Zn13 2.041774 1_555
C10 N30 1.174335 1_555
C10 Zn15 2.016358 1_555
C11 N35 1.175656 1_555
C11 Zn12 2.041776 1_555
C12 N54 1.175658 1_555
C12 Zn5 2.041774 1_555
C13 N63 1.174330 1_555
C13 Zn8 2.016363 1_555
C14 N45 1.174335 1_555
C14 Zn6 2.016358 1_555
C15 N42 1.175671 1_555
C15 Zn0 2.041762 1_555
C16 N47 1.175655 1_555
C16 Zn5 2.041778 1_555
C17 N53 1.174333 1_555
C17 Zn11 2.016360 1_555
C18 N62 1.174335 1_555
C18 Zn9 2.016358 1_555
C19 N10 1.176747 1_555
C19 Zn7 2.045735 1_555
C20 N11 1.176747 1_555
C20 Zn13 2.045735 1_555
C21 N3 1.176703 1_555
C21 Zn4 2.000742 1_555
C22 N33 1.176703 1_555
C22 Zn10 2.000742 1_555
C23 N5 1.176703 1_555
C23 Zn10 2.000727 1_555
C24 N61 1.174330 1_555
C24 Zn14 2.016363 1_555
C25 N40 1.174333 1_555
C25 Zn6 2.016360 1_555
C26 N36 1.174347 1_555
C26 Zn15 2.016346 1_555
C27 N56 1.174333 1_555
C27 Zn14 2.016360 1_555
C28 N37 1.175656 1_555
C28 Zn12 2.041776 1_555
C29 N25 1.176703 1_555
C29 Zn10 2.000742 1_555
C30 N41 1.175658 1_555
C30 Zn0 2.041774 1_555
C31 N13 1.174330 1_555
C31 Zn6 2.016363 1_555
C32 N22 1.174347 1_555
C32 Zn14 2.016346 1_555
C33 N34 1.175658 1_555
C33 Zn2 2.041774 1_555
C34 N9 1.176747 1_555
C34 Zn2 2.045735 1_555
C35 N32 1.174330 1_555
C35 Zn11 2.016363 1_555
C36 N27 1.174335 1_555
C36 Zn11 2.016358 1_555
C37 N8 1.174330 1_555
C37 Zn9 2.016363 1_555
C38 N52 1.175671 1_555
C38 Zn5 2.041762 1_555
C39 N28 1.174333 1_555
C39 Zn15 2.016360 1_555
C40 N48 1.174347 1_555
C40 Zn8 2.016346 1_555
C41 N6 1.176703 1_555
C41 Zn4 2.000742 1_555
C42 N7 1.174330 1_555
C42 Zn15 2.016363 1_555
C43 N55 1.176747 1_555
C43 Zn5 2.045735 1_555
C44 N38 1.175671 1_555
C44 Zn7 2.041762 1_555
C45 N21 1.176703 1_555
C45 Zn4 2.000742 1_555
C46 N57 1.176747 1_555
C46 Zn1 2.045706 1_555
C47 N44 1.175658 1_555
C47 Zn3 2.041774 1_555
C48 N0 1.176747 1_555
C48 Zn0 2.045735 1_555
C49 N24 1.175655 1_555
C49 Zn0 2.041778 1_555
C50 N4 1.174347 1_555
C50 Zn11 2.016346 1_555
C51 N17 1.175655 1_555
C51 Zn7 2.041778 1_555
C52 N26 1.174333 1_555
C52 Zn8 2.016360 1_555
C53 N23 1.175655 1_555
C53 Zn3 2.041778 1_555
C54 N15 1.176703 1_555
C54 Zn10 2.000742 1_555
C55 N39 1.175656 1_555
C55 Zn1 2.041776 1_555
C56 N31 1.176747 1_555
C56 Zn12 2.045706 1_555
C57 N58 1.175671 1_555
C57 Zn2 2.041762 1_555
C58 N29 1.174347 1_555
C58 Zn6 2.016346 1_555
C59 N59 1.175656 1_555
C59 Zn1 2.041776 1_555
C60 N18 1.176747 1_555
C60 Zn3 2.045735 1_555
C61 N60 1.174335 1_555
C61 Zn8 2.016358 1_555
C62 N1 1.174347 1_555
C62 Zn9 2.016346 1_555
C63 N12 1.175656 1_555
C63 Zn12 2.041776 1_555
N1 Tl5 2.881085 1_555
N2 Tl5 2.863634 1_555
N4 Tl30 2.881085 1_555
N7 Tl27 2.881098 1_545
N8 Tl19 2.881098 1_555
N12 Tl31 2.863634 1_545
N13 Tl20 2.881098 1_554
N14 Tl28 2.881088 1_545
N16 Tl8 2.863634 1_455
N17 Tl14 2.863634 1_455
N19 Tl12 2.881099 1_545
N20 Tl19 2.863634 1_554
N22 Tl2 2.881085 1_555
N23 Tl10 2.863634 1_555
N24 Tl12 2.863634 1_545
N26 Tl14 2.881099 1_455
N27 Tl23 2.881088 1_555
N28 Tl10 2.881099 1_555
N29 Tl31 2.881085 1_555
N30 Tl9 2.881088 1_554
N32 Tl11 2.881098 1_555
N34 Tl9 2.863634 1_554
N35 Tl29 2.863634 1_455
N36 Tl29 2.881085 1_555
N37 Tl2 2.863634 1_554
N38 Tl18 2.863634 1_455
N39 Tl30 2.863634 1_555
N40 Tl26 2.881099 1_555
N41 Tl28 2.863634 1_545
N42 Tl27 2.863634 1_545
N43 Tl17 2.863634 1_545
N44 Tl23 2.863634 1_545
N45 Tl8 2.881088 1_455
N46 Tl21 2.863634 1_555
N47 Tl26 2.863634 1_555
N48 Tl1 2.881085 1_555
N49 Tl24 2.863634 1_554
N50 Tl22 2.863634 1_455
N52 Tl11 2.863634 1_455
N53 Tl24 2.881099 1_554
N54 Tl13 2.863634 1_554
N56 Tl21 2.881099 1_555
N58 Tl20 2.863634 1_554
N59 Tl1 2.863634 1_555
N60 Tl13 2.881088 1_555
N61 Tl18 2.881098 1_455
N62 Tl22 2.881088 1_555
N63 Tl17 2.881098 1_555
