# generated using pymatgen
data_Ce
_symmetry_space_group_name_H-M   'P 1'
_cell_length_a   6.92999163
_cell_length_b   6.92999163
_cell_length_c   10.44196420
_cell_angle_alpha   90.00000000
_cell_angle_beta   90.00000000
_cell_angle_gamma   125.92428753
_symmetry_Int_Tables_number   1
_chemical_formula_structural   Ce
_chemical_formula_sum   Ce16
_cell_volume   406.08938953
_cell_formula_units_Z   16
loop_
 _symmetry_equiv_pos_site_id
 _symmetry_equiv_pos_as_xyz
  1  'x, y, z'
loop_
 _atom_site_type_symbol
 _atom_site_label
 _atom_site_symmetry_multiplicity
 _atom_site_fract_x
 _atom_site_fract_y
 _atom_site_fract_z
 _atom_site_occupancy
  Ce  Ce0_0  1  0.45157336  0.04842664  0.37500000  1
  Ce  Ce0_1  1  0.45157336  0.04842664  0.87500000  1
  Ce  Ce0_2  1  0.45157336  0.54842664  0.37500000  1
  Ce  Ce0_3  1  0.45157336  0.54842664  0.87500000  1
  Ce  Ce0_4  1  0.95157336  0.04842664  0.37500000  1
  Ce  Ce0_5  1  0.95157336  0.04842664  0.87500000  1
  Ce  Ce0_6  1  0.95157336  0.54842664  0.37500000  1
  Ce  Ce0_7  1  0.95157336  0.54842664  0.87500000  1
  Ce  Ce1_0  1  0.04842664  0.45157336  0.12500000  1
  Ce  Ce1_1  1  0.04842664  0.45157336  0.62500000  1
  Ce  Ce1_2  1  0.04842664  0.95157336  0.12500000  1
  Ce  Ce1_3  1  0.04842664  0.95157336  0.62500000  1
  Ce  Ce1_4  1  0.54842664  0.45157336  0.12500000  1
  Ce  Ce1_5  1  0.54842664  0.45157336  0.62500000  1
  Ce  Ce1_6  1  0.54842664  0.95157336  0.12500000  1
  Ce  Ce1_7  1  0.54842664  0.95157336  0.62500000  1
loop_
_geom_bond_atom_site_label_1
_geom_bond_atom_site_label_2
_geom_bond_distance
_geom_bond_site_symmetry_2
Ce0_0 Ce1_6 2.871288 1_545
Ce0_0 Ce1_7 2.871288 1_545
Ce0_0 Ce0_6 3.150229 1_445
Ce0_0 Ce0_6 3.150229 1_555
Ce0_0 Ce0_2 3.464996 1_545
Ce0_0 Ce0_4 3.464996 1_555
Ce0_0 Ce0_4 3.464996 1_455
Ce0_0 Ce0_2 3.464996 1_555
Ce0_0 Ce1_4 3.587493 1_555
Ce0_0 Ce1_5 3.587493 1_555
Ce0_0 Ce1_2 3.587493 1_545
Ce0_0 Ce1_3 3.587493 1_545
Ce0_1 Ce1_7 2.871288 1_545
Ce0_1 Ce1_6 2.871288 1_546
Ce0_1 Ce0_7 3.150229 1_445
Ce0_1 Ce0_7 3.150229 1_555
Ce0_1 Ce0_3 3.464996 1_545
Ce0_1 Ce0_5 3.464996 1_555
Ce0_1 Ce0_5 3.464996 1_455
Ce0_1 Ce0_3 3.464996 1_555
Ce0_1 Ce1_5 3.587493 1_555
Ce0_1 Ce1_3 3.587493 1_545
Ce0_1 Ce1_4 3.587493 1_556
Ce0_1 Ce1_2 3.587493 1_546
Ce0_2 Ce1_4 2.871288 1_555
Ce0_2 Ce1_5 2.871288 1_555
Ce0_2 Ce0_4 3.150229 1_565
Ce0_2 Ce0_4 3.150229 1_455
Ce0_2 Ce0_6 3.464996 1_455
Ce0_2 Ce0_6 3.464996 1_555
Ce0_2 Ce1_0 3.587493 1_555
Ce0_2 Ce1_6 3.587493 1_555
Ce0_2 Ce1_1 3.587493 1_555
Ce0_2 Ce1_7 3.587493 1_555
Ce0_3 Ce1_5 2.871288 1_555
Ce0_3 Ce1_4 2.871288 1_556
Ce0_3 Ce0_5 3.150229 1_565
Ce0_3 Ce0_5 3.150229 1_455
Ce0_3 Ce0_7 3.464996 1_455
Ce0_3 Ce0_7 3.464996 1_555
Ce0_3 Ce1_1 3.587493 1_555
Ce0_3 Ce1_7 3.587493 1_555
Ce0_3 Ce1_0 3.587493 1_556
Ce0_3 Ce1_6 3.587493 1_556
Ce0_4 Ce1_2 2.871288 1_645
Ce0_4 Ce1_3 2.871288 1_645
Ce0_4 Ce0_6 3.464996 1_555
Ce0_4 Ce0_6 3.464996 1_545
Ce0_4 Ce1_0 3.587493 1_655
Ce0_4 Ce1_6 3.587493 1_545
Ce0_4 Ce1_1 3.587493 1_655
Ce0_4 Ce1_7 3.587493 1_545
Ce0_5 Ce1_3 2.871288 1_645
Ce0_5 Ce1_2 2.871288 1_646
Ce0_5 Ce0_7 3.464996 1_545
Ce0_5 Ce0_7 3.464996 1_555
Ce0_5 Ce1_1 3.587493 1_655
Ce0_5 Ce1_7 3.587493 1_545
Ce0_5 Ce1_0 3.587493 1_656
Ce0_5 Ce1_6 3.587493 1_546
Ce0_6 Ce1_0 2.871288 1_655
Ce0_6 Ce1_1 2.871288 1_655
Ce0_6 Ce1_4 3.587493 1_555
Ce0_6 Ce1_2 3.587493 1_655
Ce0_6 Ce1_3 3.587493 1_655
Ce0_6 Ce1_5 3.587493 1_555
Ce0_7 Ce1_1 2.871288 1_655
Ce0_7 Ce1_0 2.871288 1_656
Ce0_7 Ce1_5 3.587493 1_555
Ce0_7 Ce1_3 3.587493 1_655
Ce0_7 Ce1_2 3.587493 1_656
Ce0_7 Ce1_4 3.587493 1_556
Ce1_0 Ce1_6 3.150229 1_445
Ce1_0 Ce1_6 3.150229 1_555
Ce1_0 Ce1_4 3.464996 1_455
Ce1_0 Ce1_2 3.464996 1_545
Ce1_0 Ce1_2 3.464996 1_555
Ce1_0 Ce1_4 3.464996 1_555
Ce1_1 Ce1_7 3.150229 1_445
Ce1_1 Ce1_7 3.150229 1_555
Ce1_1 Ce1_5 3.464996 1_455
Ce1_1 Ce1_3 3.464996 1_545
Ce1_1 Ce1_5 3.464996 1_555
Ce1_1 Ce1_3 3.464996 1_555
Ce1_2 Ce1_4 3.150229 1_455
Ce1_2 Ce1_4 3.150229 1_565
Ce1_2 Ce1_6 3.464996 1_455
Ce1_2 Ce1_6 3.464996 1_555
Ce1_3 Ce1_5 3.150229 1_455
Ce1_3 Ce1_5 3.150229 1_565
Ce1_3 Ce1_7 3.464996 1_455
Ce1_3 Ce1_7 3.464996 1_555
Ce1_4 Ce1_6 3.464996 1_545
Ce1_4 Ce1_6 3.464996 1_555
Ce1_5 Ce1_7 3.464996 1_545
Ce1_5 Ce1_7 3.464996 1_555
