# generated using pymatgen
data_Mg3BH2O5F
_symmetry_space_group_name_H-M   'P 1'
_cell_length_a   3.18210000
_cell_length_b   9.00634300
_cell_length_c   9.01338736
_cell_angle_alpha   60.42677153
_cell_angle_beta   90.00000000
_cell_angle_gamma   90.00000000
_symmetry_Int_Tables_number   1
_chemical_formula_structural   Mg3BH2O5F
_chemical_formula_sum   'Mg6 B2 H4 O10 F2'
_cell_volume   224.66354663
_cell_formula_units_Z   2
loop_
 _symmetry_equiv_pos_site_id
 _symmetry_equiv_pos_as_xyz
  1  'x, y, z'
loop_
 _atom_site_type_symbol
 _atom_site_label
 _atom_site_symmetry_multiplicity
 _atom_site_fract_x
 _atom_site_fract_y
 _atom_site_fract_z
 _atom_site_occupancy
  Mg  Mg0  1  0.50000000  0.97801100  0.65732100  1
  Mg  Mg1  1  0.50000000  0.66067000  0.37403200  1
  Mg  Mg2  1  0.00000000  0.63222600  0.02983400  1
  Mg  Mg3  1  0.50000000  0.37135700  0.97384700  1
  Mg  Mg4  1  0.00000000  0.35128900  0.62750000  1
  Mg  Mg5  1  0.00000000  0.03215500  0.33882700  1
  B  B0  1  0.00000000  0.67326700  0.66708600  1
  B  B1  1  0.50000000  0.33614700  0.33252300  1
  H  H0  1  0.50000000  0.85751100  0.99481500  1
  H  H1  1  0.50000000  0.18147900  0.83371400  1
  H  H2  1  0.00000000  0.14119300  0.02687700  1
  H  H3  1  0.00000000  0.01424400  0.83343600  1
  O  O0  1  0.00000000  0.84951100  0.60347400  1
  O  O1  1  0.00000000  0.61033300  0.55166500  1
  O  O2  1  0.50000000  0.80617800  0.92211800  1
  O  O3  1  0.00000000  0.56073200  0.84254200  1
  O  O4  1  0.50000000  0.30358500  0.78936800  1
  O  O5  1  0.50000000  0.44992800  0.15622700  1
  O  O6  1  0.00000000  0.20423800  0.08830200  1
  O  O7  1  0.50000000  0.40190200  0.44451200  1
  O  O8  1  0.50000000  0.15992100  0.39587200  1
  O  O9  1  0.00000000  0.09349200  0.71113800  1
  F  F0  1  0.50000000  0.90806500  0.30184300  1
  F  F1  1  0.00000000  0.70256700  0.21312900  1
loop_
_geom_bond_atom_site_label_1
_geom_bond_atom_site_label_2
_geom_bond_distance
_geom_bond_site_symmetry_2
Mg0 O9 2.084814 1_665
Mg0 O9 2.084814 1_565
Mg0 O8 2.103936 1_565
Mg0 O2 2.108447 1_555
Mg0 O0 2.158891 1_555
Mg0 O0 2.158891 1_655
Mg1 O7 2.091331 1_555
Mg1 O1 2.141015 1_655
Mg1 O1 2.141015 1_555
Mg2 O3 2.082629 1_554
Mg2 O2 2.104073 1_554
Mg2 O2 2.104073 1_454
Mg2 O5 2.163023 1_455
Mg2 O5 2.163023 1_555
Mg3 O4 2.034503 1_555
Mg3 O6 2.080494 1_556
Mg3 O6 2.080494 1_656
Mg3 O5 2.085965 1_556
Mg3 O3 2.201966 1_555
Mg3 O3 2.201966 1_655
Mg4 O4 2.055704 1_455
Mg4 O4 2.055704 1_555
Mg4 O9 2.057039 1_555
Mg4 O1 2.082354 1_555
Mg4 O7 2.171968 1_555
Mg4 O7 2.171968 1_455
Mg5 O6 2.011594 1_555
Mg5 O0 2.126678 1_545
Mg5 O8 2.168856 1_455
Mg5 O8 2.168856 1_555
B0 O3 1.395030 1_555
B0 O0 1.396414 1_555
B0 O1 1.409115 1_555
B1 O8 1.396621 1_555
B1 O7 1.399877 1_555
B1 O5 1.402787 1_555
H0 O2 0.970623 1_555
H1 O4 0.967100 1_555
H2 O6 0.969137 1_555
H3 O9 0.973619 1_555
F0 Mg1 1.989191 1_555
F0 Mg5 2.063812 1_565
F0 Mg5 2.063812 1_665
F1 Mg2 2.040566 1_555
F1 Mg1 2.058390 1_555
F1 Mg1 2.058390 1_455
