# generated using pymatgen
data_Cu9Se4(Cl3O7)2
_symmetry_space_group_name_H-M   'P 1'
_cell_length_a   6.35966800
_cell_length_b   13.09122000
_cell_length_c   15.19452270
_cell_angle_alpha   60.14868086
_cell_angle_beta   90.00000000
_cell_angle_gamma   90.00000000
_symmetry_Int_Tables_number   1
_chemical_formula_structural   Cu9Se4(Cl3O7)2
_chemical_formula_sum   'Cu18 Se8 Cl12 O28'
_cell_volume   1097.18781283
_cell_formula_units_Z   2
loop_
 _symmetry_equiv_pos_site_id
 _symmetry_equiv_pos_as_xyz
  1  'x, y, z'
loop_
 _atom_site_type_symbol
 _atom_site_label
 _atom_site_symmetry_multiplicity
 _atom_site_fract_x
 _atom_site_fract_y
 _atom_site_fract_z
 _atom_site_occupancy
  Cu  Cu0  1  0.47326600  0.59177900  0.38036400  1
  Cu  Cu1  1  0.01690600  0.77001300  0.28461500  1
  Cu  Cu2  1  0.02673400  0.59177900  0.88036400  1
  Cu  Cu3  1  0.01121500  0.71424400  0.61622400  1
  Cu  Cu4  1  0.98309400  0.22998700  0.71538500  1
  Cu  Cu5  1  0.97326600  0.40822100  0.11963600  1
  Cu  Cu6  1  0.48878500  0.71424400  0.11622400  1
  Cu  Cu7  1  0.52673400  0.40822100  0.61963600  1
  Cu  Cu8  1  0.75701000  0.50027400  0.74957000  1
  Cu  Cu9  1  0.00000000  0.00000000  0.50000000  1
  Cu  Cu10  1  0.24299000  0.49972600  0.25043000  1
  Cu  Cu11  1  0.25701000  0.49972600  0.75043000  1
  Cu  Cu12  1  0.51690600  0.22998700  0.21538500  1
  Cu  Cu13  1  0.48309400  0.77001300  0.78461500  1
  Cu  Cu14  1  0.51121500  0.28575600  0.88377600  1
  Cu  Cu15  1  0.50000000  0.00000000  0.00000000  1
  Cu  Cu16  1  0.98878500  0.28575600  0.38377600  1
  Cu  Cu17  1  0.74299000  0.50027400  0.24957000  1
  Se  Se0  1  0.00403900  0.30070600  0.96057800  1
  Se  Se1  1  0.98280500  0.86699200  0.74558500  1
  Se  Se2  1  0.51719500  0.86699200  0.24558500  1
  Se  Se3  1  0.50403900  0.69929400  0.53942200  1
  Se  Se4  1  0.49596100  0.30070600  0.46057800  1
  Se  Se5  1  0.01719500  0.13300800  0.25441500  1
  Se  Se6  1  0.99596100  0.69929400  0.03942200  1
  Se  Se7  1  0.48280500  0.13300800  0.75441500  1
  Cl  Cl0  1  0.02736100  0.85927300  0.44860900  1
  Cl  Cl1  1  0.99460500  0.42836700  0.63345600  1
  Cl  Cl2  1  0.46279900  0.94863900  0.65052700  1
  Cl  Cl3  1  0.97263900  0.14072700  0.55139100  1
  Cl  Cl4  1  0.53720100  0.05136100  0.34947300  1
  Cl  Cl5  1  0.52736100  0.14072700  0.05139100  1
  Cl  Cl6  1  0.47263900  0.85927300  0.94860900  1
  Cl  Cl7  1  0.50539500  0.42836700  0.13345600  1
  Cl  Cl8  1  0.96279900  0.05136100  0.84947300  1
  Cl  Cl9  1  0.49460500  0.57163300  0.86654400  1
  Cl  Cl10  1  0.03720100  0.94863900  0.15052700  1
  Cl  Cl11  1  0.00539500  0.57163300  0.36654400  1
  O  O0  1  0.67473700  0.24681900  0.68989400  1
  O  O1  1  0.69420200  0.34006800  0.36995100  1
  O  O2  1  0.49390000  0.57963000  0.25848100  1
  O  O3  1  0.46354800  0.13456100  0.86836600  1
  O  O4  1  0.01378300  0.58098800  0.01693200  1
  O  O5  1  0.78440400  0.76766700  0.81441500  1
  O  O6  1  0.96354800  0.86543900  0.63163400  1
  O  O7  1  0.00610000  0.57963000  0.75848100  1
  O  O8  1  0.30579800  0.65993200  0.63004900  1
  O  O9  1  0.17473700  0.75318100  0.81010600  1
  O  O10  1  0.21491300  0.34393100  0.87719000  1
  O  O11  1  0.71559600  0.76766700  0.31441500  1
  O  O12  1  0.71491300  0.65606900  0.62281000  1
  O  O13  1  0.80579800  0.34006800  0.86995100  1
  O  O14  1  0.99390000  0.42037000  0.24151900  1
  O  O15  1  0.21559600  0.23233300  0.18558500  1
  O  O16  1  0.51378300  0.41901200  0.48306800  1
  O  O17  1  0.32526300  0.75318100  0.31010600  1
  O  O18  1  0.19420200  0.65993200  0.13004900  1
  O  O19  1  0.98621700  0.41901200  0.98306800  1
  O  O20  1  0.28440400  0.23233300  0.68558500  1
  O  O21  1  0.03645200  0.13456100  0.36836600  1
  O  O22  1  0.82526300  0.24681900  0.18989400  1
  O  O23  1  0.28508700  0.34393100  0.37719000  1
  O  O24  1  0.78508700  0.65606900  0.12281000  1
  O  O25  1  0.48621700  0.58098800  0.51693200  1
  O  O26  1  0.53645200  0.86543900  0.13163400  1
  O  O27  1  0.50610000  0.42037000  0.74151900  1
loop_
_geom_bond_atom_site_label_1
_geom_bond_atom_site_label_2
_geom_bond_distance
_geom_bond_site_symmetry_2
Cu0 O2 1.940482 1_555
Cu0 O25 2.010198 1_555
Cu0 O16 2.025700 1_555
Cu0 O17 2.060251 1_555
Cu0 O11 2.526696 1_555
Cu1 O11 1.965723 1_455
Cu1 O17 1.989804 1_555
Cu2 O7 1.940482 1_555
Cu2 O4 2.010198 1_556
Cu2 O19 2.025700 1_455
Cu2 O9 2.060251 1_555
Cu2 O5 2.526696 1_455
Cu3 O8 1.977572 1_555
Cu3 O7 1.996693 1_555
Cu3 O12 2.016196 1_455
Cu3 O6 2.127399 1_455
Cu4 O20 1.965723 1_655
Cu4 O0 1.989804 1_555
Cu5 O14 1.940482 1_555
Cu5 O19 2.010198 1_554
Cu5 O4 2.025700 1_655
Cu5 O22 2.060251 1_555
Cu5 O15 2.526696 1_655
Cu6 O18 1.977572 1_555
Cu6 O2 1.996693 1_555
Cu6 O24 2.016196 1_555
Cu6 O26 2.127399 1_555
Cu7 O27 1.940482 1_555
Cu7 O16 2.010198 1_555
Cu7 O25 2.025700 1_555
Cu7 O0 2.060251 1_555
Cu7 O20 2.526696 1_555
Cu8 O7 1.935736 1_655
Cu8 O27 1.944949 1_555
Cu8 O13 2.005408 1_555
Cu8 O12 2.007613 1_555
Cu9 O6 1.910454 1_445
Cu9 O21 1.910454 1_555
Cu10 O14 1.935736 1_455
Cu10 O2 1.944949 1_555
Cu10 O18 2.005408 1_555
Cu10 O23 2.007613 1_555
Cu11 O27 1.935736 1_555
Cu11 O7 1.944949 1_555
Cu11 O8 2.005408 1_555
Cu11 O10 2.007613 1_555
Cu12 O15 1.965723 1_555
Cu12 O22 1.989804 1_555
Cu13 O5 1.965723 1_555
Cu13 O9 1.989804 1_555
Cu14 O13 1.977572 1_555
Cu14 O27 1.996693 1_555
Cu14 O10 2.016196 1_555
Cu14 O3 2.127399 1_555
Cu15 O26 1.910454 1_545
Cu15 O3 1.910454 1_554
Cu16 O1 1.977572 1_555
Cu16 O14 1.996693 1_555
Cu16 O23 2.016196 1_655
Cu16 O21 2.127399 1_655
Cu17 O2 1.935736 1_555
Cu17 O14 1.944949 1_555
Cu17 O1 2.005408 1_555
Cu17 O24 2.007613 1_555
Cl0 Cu3 2.299547 1_555
Cl0 Cu9 2.337980 1_565
Cl1 Cu4 2.254158 1_555
Cl1 Cu8 2.816990 1_555
Cl1 Cu11 2.910246 1_655
Cl1 Cu7 3.003733 1_555
Cl2 Cu13 2.212021 1_555
Cl3 Cu16 2.299547 1_555
Cl3 Cu9 2.337980 1_655
Cl4 Cu12 2.212021 1_555
Cl5 Cu14 2.299547 1_554
Cl5 Cu15 2.337980 1_555
Cl6 Cu6 2.299547 1_556
Cl6 Cu15 2.337980 1_566
Cl7 Cu12 2.254158 1_555
Cl7 Cu17 2.816990 1_555
Cl7 Cu10 2.910246 1_555
Cl7 Cu5 3.003733 1_555
Cl8 Cu4 2.212021 1_555
Cl9 Cu13 2.254158 1_555
Cl9 Cu11 2.816990 1_555
Cl9 Cu8 2.910246 1_555
Cl9 Cu2 3.003733 1_555
Cl10 Cu1 2.212021 1_555
Cl11 Cu1 2.254158 1_555
Cl11 Cu10 2.816990 1_555
Cl11 Cu17 2.910246 1_455
Cl11 Cu0 3.003733 1_555
O0 Se7 1.793548 1_555
O1 Se4 1.744949 1_555
O3 Se7 1.745940 1_555
O4 Se6 1.747908 1_455
O5 Se1 1.738620 1_555
O6 Se1 1.745940 1_555
O8 Se3 1.744949 1_555
O9 Se1 1.793548 1_455
O10 Se0 1.735040 1_555
O11 Se2 1.738620 1_555
O12 Se3 1.735040 1_555
O13 Se0 1.744949 1_655
O15 Se5 1.738620 1_555
O16 Se4 1.747908 1_555
O17 Se2 1.793548 1_555
O18 Se6 1.744949 1_455
O19 Se0 1.747908 1_655
O20 Se7 1.738620 1_555
O21 Se5 1.745940 1_555
O22 Se5 1.793548 1_655
O23 Se4 1.735040 1_555
O24 Se6 1.735040 1_555
O25 Se3 1.747908 1_555
O26 Se2 1.745940 1_555
