# generated using pymatgen
data_NdPb8F19
_symmetry_space_group_name_H-M   'P 1'
_cell_length_a   4.15081180
_cell_length_b   4.15081180
_cell_length_c   32.17011667
_cell_angle_alpha   89.44246635
_cell_angle_beta   89.44246635
_cell_angle_gamma   60.76850955
_symmetry_Int_Tables_number   1
_chemical_formula_structural   NdPb8F19
_chemical_formula_sum   'Nd1 Pb8 F19'
_cell_volume   483.65210392
_cell_formula_units_Z   1
loop_
 _symmetry_equiv_pos_site_id
 _symmetry_equiv_pos_as_xyz
  1  'x, y, z'
loop_
 _atom_site_type_symbol
 _atom_site_label
 _atom_site_symmetry_multiplicity
 _atom_site_fract_x
 _atom_site_fract_y
 _atom_site_fract_z
 _atom_site_occupancy
  Nd  Nd0  1  0.65727400  0.65727400  0.86962800  1
  Pb  Pb0  1  0.98094300  0.98094300  0.98685900  1
  Pb  Pb1  1  0.36406500  0.36406500  0.10801500  1
  Pb  Pb2  1  0.68671600  0.68671600  0.21807000  1
  Pb  Pb3  1  0.01388100  0.01388100  0.33109000  1
  Pb  Pb4  1  0.33918100  0.33918100  0.44288000  1
  Pb  Pb5  1  0.66618600  0.66618600  0.55310700  1
  Pb  Pb6  1  0.98965000  0.98965000  0.66240000  1
  Pb  Pb7  1  0.31234300  0.31234300  0.76989900  1
  F  F0  1  0.68733600  0.68733600  0.13944600  1
  F  F1  1  0.02231100  0.02231100  0.08264500  1
  F  F2  1  0.34748500  0.34748500  0.18777500  1
  F  F3  1  0.35241700  0.35241700  0.36074600  1
  F  F4  1  0.01472600  0.01472600  0.24700600  1
  F  F5  1  0.68550700  0.68550700  0.30314500  1
  F  F6  1  0.67129700  0.67129700  0.47218000  1
  F  F7  1  0.00626500  0.00626500  0.41481400  1
  F  F8  1  0.99899200  0.99899200  0.58126400  1
  F  F9  1  0.32099800  0.32099800  0.69197500  1
  F  F10  1  0.33344500  0.33344500  0.52551400  1
  F  F11  1  0.65632900  0.65632900  0.63591200  1
  F  F12  1  0.63905400  0.63905400  0.79706000  1
  F  F13  1  0.97699900  0.97699900  0.74091300  1
  F  F14  1  0.97325100  0.97325100  0.90782800  1
  F  F15  1  0.96544300  0.96544300  0.83164100  1
  F  F16  1  0.31141300  0.31141300  0.86328600  1
  F  F17  1  0.30235500  0.30235500  0.95667000  1
  F  F18  1  0.63295700  0.63295700  0.01267600  1
loop_
_geom_bond_atom_site_label_1
_geom_bond_atom_site_label_2
_geom_bond_distance
_geom_bond_site_symmetry_2
F0 Pb2 2.529297 1_555
F0 Pb1 2.536691 1_555
F0 Pb1 2.646340 1_655
F0 Pb1 2.646340 1_565
F1 Pb1 2.517399 1_545
F1 Pb1 2.517399 1_455
F1 Pb1 2.588658 1_555
F2 Pb1 2.567296 1_555
F2 Pb2 2.580281 1_545
F2 Pb2 2.580281 1_455
F2 Pb2 2.627758 1_555
F3 Pb3 2.574901 1_565
F3 Pb3 2.574901 1_655
F3 Pb3 2.615353 1_555
F3 Pb4 2.642891 1_555
F4 Pb2 2.536481 1_445
F4 Pb2 2.601055 1_455
F4 Pb2 2.601055 1_545
F4 Pb3 2.704931 1_555
F5 Pb3 2.527057 1_665
F5 Pb3 2.588759 1_565
F5 Pb3 2.588759 1_655
F5 Pb2 2.736789 1_555
F6 Pb4 2.568254 1_555
F6 Pb4 2.591555 1_655
F6 Pb4 2.591555 1_565
F6 Pb5 2.603275 1_555
F7 Pb4 2.558894 1_555
F7 Pb4 2.574946 1_545
F7 Pb4 2.574946 1_455
F7 Pb3 2.693348 1_555
F8 Pb5 2.559223 1_555
F8 Pb5 2.576321 1_655
F8 Pb5 2.576321 1_565
F8 Pb6 2.610257 1_555
F9 Pb7 2.506891 1_555
F9 Pb6 2.566498 1_445
F9 Pb6 2.597270 1_545
F9 Pb6 2.597270 1_455
F10 Pb5 2.552230 1_555
F10 Pb5 2.570308 1_455
F10 Pb5 2.570308 1_545
F10 Pb4 2.658199 1_555
F11 Pb6 2.543622 1_555
F11 Pb6 2.556511 1_455
F11 Pb6 2.556511 1_545
F11 Pb5 2.663986 1_555
F12 Nd0 2.339634 1_555
F12 Pb7 2.506763 1_555
F12 Pb7 2.585894 1_565
F12 Pb7 2.585894 1_655
F13 Pb6 2.526375 1_555
F13 Pb7 2.577387 1_565
F13 Pb7 2.577387 1_655
F13 Pb7 2.586007 1_665
F14 Pb0 2.543654 1_555
F14 Nd0 2.587158 1_555
F14 Nd0 2.760106 1_565
F14 Nd0 2.760106 1_655
F15 Nd0 2.510594 1_555
F15 Nd0 2.797554 1_655
F15 Nd0 2.797554 1_565
F16 Nd0 2.379664 1_455
F16 Nd0 2.379664 1_545
F16 Nd0 2.487536 1_555
F17 Pb0 2.488150 1_445
F17 Pb0 2.648523 1_455
F17 Pb0 2.648523 1_545
F18 Pb0 2.510593 1_544
F18 Pb0 2.510593 1_454
F18 Pb0 2.617924 1_554
