# generated using pymatgen
data_K4W11O35
_symmetry_space_group_name_H-M   'P 1'
_cell_length_a   7.35737400
_cell_length_b   7.43945252
_cell_length_c   17.46185387
_cell_angle_alpha   86.40206732
_cell_angle_beta   84.92695362
_cell_angle_gamma   61.19132150
_symmetry_Int_Tables_number   1
_chemical_formula_structural   K4W11O35
_chemical_formula_sum   'K4 W11 O35'
_cell_volume   833.97656731
_cell_formula_units_Z   1
loop_
 _symmetry_equiv_pos_site_id
 _symmetry_equiv_pos_as_xyz
  1  'x, y, z'
loop_
 _atom_site_type_symbol
 _atom_site_label
 _atom_site_symmetry_multiplicity
 _atom_site_fract_x
 _atom_site_fract_y
 _atom_site_fract_z
 _atom_site_occupancy
  K  K0  1  0.05300000  0.88150400  0.01358200  1
  K  K1  1  0.98053200  0.02043300  0.24345100  1
  K  K2  1  0.97730100  0.92964300  0.74894700  1
  K  K3  1  0.88167900  0.17933900  0.49384900  1
  W  W0  1  0.53916400  0.47568900  0.86303500  1
  W  W1  1  0.49891000  0.46420500  0.15268300  1
  W  W2  1  0.49618600  0.48822000  0.63622100  1
  W  W3  1  0.03564300  0.51112600  0.34317100  1
  W  W4  1  0.03129500  0.46437300  0.90871300  1
  W  W5  1  0.01186600  0.44894100  0.13097500  1
  W  W6  1  0.00406200  0.49387300  0.63370400  1
  W  W7  1  0.52430000  0.96183800  0.14070000  1
  W  W8  1  0.49113300  0.96717000  0.66753300  1
  W  W9  1  0.51888400  0.96420800  0.38313600  1
  W  W10  1  0.41075000  0.04754800  0.83750400  1
  O  O0  1  0.55328700  0.45387400  0.76218400  1
  O  O1  1  0.65723200  0.10625300  0.37404900  1
  O  O2  1  0.57943300  0.15933400  0.85680000  1
  O  O3  1  0.56571000  0.18641600  0.18246700  1
  O  O4  1  0.48926500  0.49504300  0.53562000  1
  O  O5  1  0.21187000  0.53960900  0.13375800  1
  O  O6  1  0.19964800  0.56676100  0.67049900  1
  O  O7  1  0.16709900  0.65366300  0.31949300  1
  O  O8  1  0.28887400  0.51809700  0.91894500  1
  O  O9  1  0.19634900  0.27915100  0.39715000  1
  O  O10  1  0.18039700  0.34580800  0.81648500  1
  O  O11  1  0.21607300  0.17052000  0.13707100  1
  O  O12  1  0.21560100  0.20941300  0.64599100  1
  O  O13  1  0.00984000  0.56001200  0.53537100  1
  O  O14  1  0.01329800  0.46694400  0.01942100  1
  O  O15  1  0.76358000  0.68165900  0.38467200  1
  O  O16  1  0.87166200  0.72101800  0.87905100  1
  O  O17  1  0.81551300  0.73455900  0.14277100  1
  O  O18  1  0.78573400  0.73356300  0.68587000  1
  O  O19  1  0.32333000  0.00001500  0.30554100  1
  O  O20  1  0.17477500  0.12316400  0.93176000  1
  O  O21  1  0.52587700  0.87367200  0.26142000  1
  O  O22  1  0.13486200  0.04186200  0.86277500  1
  O  O23  1  0.80186700  0.37020500  0.14388000  1
  O  O24  1  0.80640400  0.39456900  0.63501900  1
  O  O25  1  0.00023600  0.42808600  0.25228800  1
  O  O26  1  0.79637600  0.39448100  0.90550700  1
  O  O27  1  0.53732800  0.92627500  0.02664400  1
  O  O28  1  0.60077600  0.07729500  0.04347000  1
  O  O29  1  0.65169200  0.07607200  0.59663700  1
  O  O30  1  0.61550500  0.17425900  0.67265100  1
  O  O31  1  0.44041200  0.94131100  0.47953200  1
  O  O32  1  0.49359100  0.74278100  0.85885400  1
  O  O33  1  0.43082800  0.74348500  0.14107400  1
  O  O34  1  0.38937100  0.78426100  0.66257600  1
loop_
_geom_bond_atom_site_label_1
_geom_bond_atom_site_label_2
_geom_bond_distance
_geom_bond_site_symmetry_2
K0 O20 2.660798 1_564
K0 O28 2.929457 1_465
K0 O8 2.929756 1_554
K0 O22 2.956058 1_564
K0 O5 3.022903 1_555
K0 O17 3.189256 1_455
K0 O14 3.229689 1_555
K0 O16 3.341487 1_454
K0 O33 3.434320 1_555
K1 O7 2.711147 1_645
K1 O19 2.766447 1_655
K1 O23 2.839323 1_555
K1 O11 2.955633 1_655
K1 O3 2.958223 1_555
K1 O1 3.004319 1_555
K1 O25 3.119071 1_655
K1 O33 3.354554 1_645
K2 O22 2.745911 1_665
K2 O6 2.766261 1_655
K2 O18 2.790205 1_555
K2 O30 2.797582 1_565
K2 O16 2.929516 1_555
K2 O34 2.978558 1_655
K2 O2 3.105441 1_565
K3 O29 2.686568 1_555
K3 O4 2.773288 1_555
K3 O24 2.889032 1_555
K3 O1 3.002958 1_555
K3 O9 3.093632 1_655
O0 W0 1.767957 1_555
O0 W2 2.251493 1_555
O1 W9 1.779045 1_545
O2 W10 1.857204 1_555
O2 W0 2.234517 1_555
O3 W1 1.927248 1_555
O3 W7 2.024579 1_545
O4 W2 1.758758 1_555
O5 W5 1.896319 1_555
O5 W1 1.960163 1_555
O6 W6 1.933089 1_555
O6 W2 2.010971 1_555
O7 W3 1.758834 1_555
O8 W0 1.898554 1_555
O8 W4 2.140543 1_555
O9 W3 1.814133 1_555
O9 W9 2.406541 1_545
O10 W4 1.873056 1_555
O10 W10 2.077012 1_555
O11 W5 1.886869 1_555
O11 W7 2.043733 1_545
O12 W6 1.942806 1_555
O12 W8 2.006883 1_545
O13 W6 1.758827 1_555
O14 W4 1.926646 1_554
O14 W5 1.943580 1_555
O15 W3 1.884878 1_655
O15 W9 2.003643 1_555
O16 W4 1.765040 1_655
O17 W5 1.920481 1_655
O17 W7 1.991319 1_555
O18 W6 1.942738 1_655
O18 W8 2.059934 1_555
O19 O21 1.495213 1_545
O19 W9 1.976609 1_545
O20 O22 1.492759 1_555
O20 W10 2.170069 1_555
O20 W4 2.254817 1_555
O21 W7 2.167360 1_555
O21 W9 2.258429 1_555
O22 W10 2.058798 1_555
O23 W5 1.890800 1_655
O23 W1 1.982823 1_555
O24 W6 1.920553 1_655
O24 W2 2.038616 1_555
O25 W3 1.821892 1_555
O25 W5 2.111466 1_555
O26 W0 1.893759 1_555
O26 W4 2.036593 1_655
O27 O28 1.462072 1_565
O27 W7 2.013381 1_555
O28 W7 2.012647 1_545
O29 O30 1.496014 1_555
O29 W8 2.030340 1_545
O30 W2 2.137037 1_555
O30 W8 2.146921 1_545
O31 W9 1.755738 1_555
O32 W0 1.846622 1_555
O32 W10 2.062371 1_565
O33 W1 1.889674 1_555
O33 W7 2.046041 1_555
O34 W8 1.851430 1_555
O34 W2 2.018671 1_555
