# generated using pymatgen
data_Mg3Al2(SiO4)3
_symmetry_space_group_name_H-M   'P 1'
_cell_length_a   10.02097913
_cell_length_b   10.02097913
_cell_length_c   10.02097913
_cell_angle_alpha   109.47122063
_cell_angle_beta   109.47122063
_cell_angle_gamma   109.47122063
_symmetry_Int_Tables_number   1
_chemical_formula_structural   Mg3Al2(SiO4)3
_chemical_formula_sum   'Mg12 Al8 Si12 O48'
_cell_volume   774.65545350
_cell_formula_units_Z   4
loop_
 _symmetry_equiv_pos_site_id
 _symmetry_equiv_pos_as_xyz
  1  'x, y, z'
loop_
 _atom_site_type_symbol
 _atom_site_label
 _atom_site_symmetry_multiplicity
 _atom_site_fract_x
 _atom_site_fract_y
 _atom_site_fract_z
 _atom_site_occupancy
  Mg  Mg0  1  0.37500000  0.12500000  0.25000000  1
  Mg  Mg1  1  0.75000000  0.12500000  0.37500000  1
  Mg  Mg2  1  0.25000000  0.37500000  0.12500000  1
  Mg  Mg3  1  0.12500000  0.25000000  0.37500000  1
  Mg  Mg4  1  0.37500000  0.75000000  0.12500000  1
  Mg  Mg5  1  0.12500000  0.37500000  0.75000000  1
  Mg  Mg6  1  0.62500000  0.87500000  0.75000000  1
  Mg  Mg7  1  0.25000000  0.87500000  0.62500000  1
  Mg  Mg8  1  0.75000000  0.62500000  0.87500000  1
  Mg  Mg9  1  0.87500000  0.75000000  0.62500000  1
  Mg  Mg10  1  0.62500000  0.25000000  0.87500000  1
  Mg  Mg11  1  0.87500000  0.62500000  0.25000000  1
  Al  Al0  1  0.00000000  0.00000000  0.00000000  1
  Al  Al1  1  0.50000000  0.00000000  0.00000000  1
  Al  Al2  1  0.00000000  0.50000000  0.00000000  1
  Al  Al3  1  0.00000000  0.00000000  0.50000000  1
  Al  Al4  1  0.50000000  0.50000000  0.00000000  1
  Al  Al5  1  0.00000000  0.50000000  0.50000000  1
  Al  Al6  1  0.50000000  0.00000000  0.50000000  1
  Al  Al7  1  0.50000000  0.50000000  0.50000000  1
  Si  Si0  1  0.62500000  0.37500000  0.25000000  1
  Si  Si1  1  0.75000000  0.37500000  0.62500000  1
  Si  Si2  1  0.25000000  0.12500000  0.87500000  1
  Si  Si3  1  0.87500000  0.25000000  0.12500000  1
  Si  Si4  1  0.62500000  0.75000000  0.37500000  1
  Si  Si5  1  0.37500000  0.62500000  0.75000000  1
  Si  Si6  1  0.12500000  0.75000000  0.87500000  1
  Si  Si7  1  0.75000000  0.87500000  0.12500000  1
  Si  Si8  1  0.37500000  0.25000000  0.62500000  1
  Si  Si9  1  0.25000000  0.62500000  0.37500000  1
  Si  Si10  1  0.87500000  0.12500000  0.75000000  1
  Si  Si11  1  0.12500000  0.87500000  0.25000000  1
  O  O0  1  0.68595300  0.08281300  0.70350100  1
  O  O1  1  0.10314100  0.98245200  0.68595300  1
  O  O2  1  0.70350100  0.51754800  0.62068900  1
  O  O3  1  0.62068900  0.70350100  0.51754800  1
  O  O4  1  0.87931100  0.39685900  0.08281300  1
  O  O5  1  0.08281300  0.87931100  0.39685900  1
  O  O6  1  0.98245200  0.68595300  0.10314100  1
  O  O7  1  0.41718700  0.10314100  0.62068900  1
  O  O8  1  0.39685900  0.81404700  0.51754800  1
  O  O9  1  0.98245200  0.79649900  0.87931100  1
  O  O10  1  0.10314100  0.62068900  0.41718700  1
  O  O11  1  0.51754800  0.39685900  0.81404700  1
  O  O12  1  0.79649900  0.87931100  0.98245200  1
  O  O13  1  0.70350100  0.68595300  0.08281300  1
  O  O14  1  0.08281300  0.70350100  0.68595300  1
  O  O15  1  0.62068900  0.41718700  0.10314100  1
  O  O16  1  0.79649900  0.41718700  0.81404700  1
  O  O17  1  0.81404700  0.51754800  0.39685900  1
  O  O18  1  0.81404700  0.79649900  0.41718700  1
  O  O19  1  0.87931100  0.98245200  0.79649900  1
  O  O20  1  0.41718700  0.81404700  0.79649900  1
  O  O21  1  0.39685900  0.08281300  0.87931100  1
  O  O22  1  0.68595300  0.10314100  0.98245200  1
  O  O23  1  0.51754800  0.62068900  0.70350100  1
  O  O24  1  0.31404700  0.91718700  0.29649900  1
  O  O25  1  0.89685900  0.01754800  0.31404700  1
  O  O26  1  0.29649900  0.48245200  0.37931100  1
  O  O27  1  0.37931100  0.29649900  0.48245200  1
  O  O28  1  0.12068900  0.60314100  0.91718700  1
  O  O29  1  0.91718700  0.12068900  0.60314100  1
  O  O30  1  0.01754800  0.31404700  0.89685900  1
  O  O31  1  0.58281300  0.89685900  0.37931100  1
  O  O32  1  0.60314100  0.18595300  0.48245200  1
  O  O33  1  0.01754800  0.20350100  0.12068900  1
  O  O34  1  0.89685900  0.37931100  0.58281300  1
  O  O35  1  0.48245200  0.60314100  0.18595300  1
  O  O36  1  0.20350100  0.12068900  0.01754800  1
  O  O37  1  0.29649900  0.31404700  0.91718700  1
  O  O38  1  0.91718700  0.29649900  0.31404700  1
  O  O39  1  0.37931100  0.58281300  0.89685900  1
  O  O40  1  0.20350100  0.58281300  0.18595300  1
  O  O41  1  0.18595300  0.48245200  0.60314100  1
  O  O42  1  0.18595300  0.20350100  0.58281300  1
  O  O43  1  0.12068900  0.01754800  0.20350100  1
  O  O44  1  0.58281300  0.18595300  0.20350100  1
  O  O45  1  0.60314100  0.91718700  0.12068900  1
  O  O46  1  0.31404700  0.89685900  0.01754800  1
  O  O47  1  0.48245200  0.37931100  0.29649900  1
loop_
_geom_bond_atom_site_label_1
_geom_bond_atom_site_label_2
_geom_bond_distance
_geom_bond_site_symmetry_2
Mg0 O43 2.217113 1_555
Mg0 O47 2.217113 1_555
Mg0 O24 2.217122 1_545
Mg0 O44 2.217122 1_555
Mg0 O32 2.365601 1_555
Mg0 O36 2.365601 1_555
Mg0 O46 2.365601 1_545
Mg0 O27 2.365601 1_555
Mg1 O32 2.217113 1_555
Mg1 O25 2.217113 1_555
Mg1 O34 2.217116 1_555
Mg1 O45 2.217116 1_545
Mg1 O38 2.365595 1_555
Mg1 O44 2.365595 1_555
Mg1 O29 2.365597 1_555
Mg1 O31 2.365597 1_545
Mg2 O26 2.217113 1_555
Mg2 O36 2.217113 1_555
Mg2 O37 2.217122 1_554
Mg2 O40 2.217122 1_555
Mg2 O47 2.365601 1_555
Mg2 O30 2.365601 1_554
Mg2 O35 2.365601 1_555
Mg2 O33 2.365601 1_555
Mg3 O27 2.217113 1_555
Mg3 O33 2.217113 1_555
Mg3 O42 2.217122 1_555
Mg3 O38 2.217122 1_455
Mg3 O41 2.365601 1_555
Mg3 O26 2.365601 1_555
Mg3 O43 2.365601 1_555
Mg3 O25 2.365601 1_455
Mg4 O35 2.217113 1_555
Mg4 O46 2.217113 1_555
Mg4 O28 2.217116 1_554
Mg4 O31 2.217116 1_555
Mg4 O24 2.365595 1_555
Mg4 O40 2.365595 1_555
Mg4 O45 2.365597 1_555
Mg4 O39 2.365597 1_554
Mg5 O41 2.217113 1_555
Mg5 O30 2.217113 1_555
Mg5 O39 2.217116 1_555
Mg5 O29 2.217116 1_455
Mg5 O37 2.365595 1_555
Mg5 O42 2.365595 1_555
Mg5 O34 2.365597 1_455
Mg5 O28 2.365597 1_555
Mg6 O19 2.217113 1_555
Mg6 O23 2.217113 1_555
Mg6 O0 2.217122 1_565
Mg6 O20 2.217122 1_555
Mg6 O22 2.365601 1_565
Mg6 O8 2.365601 1_555
Mg6 O3 2.365601 1_555
Mg6 O12 2.365601 1_555
Mg7 O1 2.217113 1_555
Mg7 O8 2.217113 1_555
Mg7 O10 2.217116 1_555
Mg7 O21 2.217116 1_565
Mg7 O14 2.365595 1_555
Mg7 O20 2.365595 1_555
Mg7 O7 2.365597 1_565
Mg7 O5 2.365597 1_555
Mg8 O12 2.217113 1_555
Mg8 O2 2.217113 1_555
Mg8 O16 2.217122 1_555
Mg8 O13 2.217122 1_556
Mg8 O6 2.365601 1_556
Mg8 O11 2.365601 1_555
Mg8 O9 2.365601 1_555
Mg8 O23 2.365601 1_555
Mg9 O9 2.217113 1_555
Mg9 O3 2.217113 1_555
Mg9 O14 2.217122 1_655
Mg9 O18 2.217122 1_555
Mg9 O1 2.365601 1_655
Mg9 O17 2.365601 1_555
Mg9 O2 2.365601 1_555
Mg9 O19 2.365601 1_555
Mg10 O22 2.217113 1_555
Mg10 O11 2.217113 1_555
Mg10 O7 2.217116 1_555
Mg10 O4 2.217116 1_556
Mg10 O0 2.365595 1_555
Mg10 O16 2.365595 1_555
Mg10 O15 2.365597 1_556
Mg10 O21 2.365597 1_555
Mg11 O6 2.217113 1_555
Mg11 O17 2.217113 1_555
Mg11 O15 2.217116 1_555
Mg11 O5 2.217116 1_655
Mg11 O18 2.365595 1_555
Mg11 O13 2.365595 1_555
Mg11 O10 2.365597 1_655
Mg11 O4 2.365597 1_555
Al0 O43 1.904521 1_555
Al0 O33 1.904521 1_555
Al0 O36 1.904521 1_555
Al0 O19 1.904521 1_444
Al0 O9 1.904521 1_444
Al0 O12 1.904521 1_444
Al1 O44 1.904518 1_555
Al1 O20 1.904518 1_544
Al1 O46 1.904521 1_545
Al1 O22 1.904521 1_554
Al1 O21 1.904529 1_554
Al1 O45 1.904529 1_545
Al2 O40 1.904518 1_555
Al2 O16 1.904518 1_454
Al2 O30 1.904521 1_554
Al2 O6 1.904521 1_455
Al2 O4 1.904529 1_455
Al2 O28 1.904529 1_554
Al3 O42 1.904518 1_555
Al3 O18 1.904518 1_445
Al3 O25 1.904521 1_455
Al3 O1 1.904521 1_545
Al3 O29 1.904529 1_455
Al3 O5 1.904529 1_545
Al4 O37 1.904518 1_554
Al4 O13 1.904518 1_555
Al4 O35 1.904521 1_555
Al4 O11 1.904521 1_554
Al4 O15 1.904529 1_555
Al4 O39 1.904529 1_554
Al5 O38 1.904518 1_455
Al5 O14 1.904518 1_555
Al5 O41 1.904521 1_555
Al5 O17 1.904521 1_455
Al5 O34 1.904529 1_455
Al5 O10 1.904529 1_555
Al6 O24 1.904518 1_545
Al6 O0 1.904518 1_555
Al6 O32 1.904521 1_555
Al6 O8 1.904521 1_545
Al6 O31 1.904529 1_545
Al6 O7 1.904529 1_555
Al7 O26 1.904521 1_555
Al7 O47 1.904521 1_555
Al7 O27 1.904521 1_555
Al7 O3 1.904521 1_555
Al7 O23 1.904521 1_555
Al7 O2 1.904521 1_555
O0 Si10 1.652571 1_555
O1 Si2 1.652569 1_565
O2 Si1 1.652569 1_555
O3 Si4 1.652569 1_555
O4 Si3 1.652563 1_555
O5 Si11 1.652563 1_555
O6 Si11 1.652569 1_655
O7 Si8 1.652563 1_555
O8 Si9 1.652569 1_555
O9 Si6 1.652569 1_655
O10 Si9 1.652563 1_555
O11 Si8 1.652569 1_555
O12 Si7 1.652569 1_556
O13 Si7 1.652571 1_555
O14 Si6 1.652571 1_555
O15 Si0 1.652563 1_555
O16 Si1 1.652571 1_555
O17 Si0 1.652569 1_555
O18 Si4 1.652571 1_555
O19 Si10 1.652569 1_565
O20 Si5 1.652571 1_555
O21 Si2 1.652563 1_555
O22 Si3 1.652569 1_556
O23 Si5 1.652569 1_555
O24 Si11 1.652571 1_555
O25 Si7 1.652569 1_545
O26 Si9 1.652569 1_555
O27 Si8 1.652569 1_555
O28 Si6 1.652563 1_555
O29 Si10 1.652563 1_555
O30 Si10 1.652569 1_455
O31 Si4 1.652563 1_555
O32 Si1 1.652569 1_555
O33 Si3 1.652569 1_455
O34 Si1 1.652563 1_555
O35 Si4 1.652569 1_555
O36 Si2 1.652569 1_554
O37 Si2 1.652571 1_555
O38 Si3 1.652571 1_555
O39 Si5 1.652563 1_555
O40 Si9 1.652571 1_555
O41 Si5 1.652569 1_555
O42 Si8 1.652571 1_555
O43 Si11 1.652569 1_545
O44 Si0 1.652571 1_555
O45 Si7 1.652563 1_555
O46 Si6 1.652569 1_554
O47 Si0 1.652569 1_555
