# generated using pymatgen
data_Nd4Ag2Se7
_symmetry_space_group_name_H-M   'P 1'
_cell_length_a   12.39180400
_cell_length_b   7.51813000
_cell_length_c   7.85592794
_cell_angle_alpha   71.11235616
_cell_angle_beta   90.00000000
_cell_angle_gamma   90.00000000
_symmetry_Int_Tables_number   1
_chemical_formula_structural   Nd4Ag2Se7
_chemical_formula_sum   'Nd8 Ag4 Se14'
_cell_volume   692.47521568
_cell_formula_units_Z   2
loop_
 _symmetry_equiv_pos_site_id
 _symmetry_equiv_pos_as_xyz
  1  'x, y, z'
loop_
 _atom_site_type_symbol
 _atom_site_label
 _atom_site_symmetry_multiplicity
 _atom_site_fract_x
 _atom_site_fract_y
 _atom_site_fract_z
 _atom_site_occupancy
  Nd  Nd0  1  0.20602100  0.17580900  0.20307600  1
  Nd  Nd1  1  0.93942900  0.55543200  0.05266600  1
  Nd  Nd2  1  0.06057100  0.55543200  0.55266600  1
  Nd  Nd3  1  0.79397900  0.17580900  0.70307600  1
  Nd  Nd4  1  0.85229800  0.98499700  0.26077700  1
  Nd  Nd5  1  0.14770200  0.98499700  0.76077700  1
  Nd  Nd6  1  0.37084200  0.48231400  0.75205800  1
  Nd  Nd7  1  0.62915800  0.48231400  0.25205800  1
  Ag  Ag0  1  0.68472600  0.69056200  0.68565200  1
  Ag  Ag1  1  0.44412100  0.09637400  0.55176200  1
  Ag  Ag2  1  0.55587900  0.09637400  0.05176200  1
  Ag  Ag3  1  0.31527400  0.69056200  0.18565200  1
  Se  Se0  1  0.00521700  0.23730300  0.38326600  1
  Se  Se1  1  0.16948700  0.56241200  0.91674100  1
  Se  Se2  1  0.83051300  0.56241200  0.41674100  1
  Se  Se3  1  0.70938100  0.85054500  0.00402000  1
  Se  Se4  1  0.06781700  0.82837500  0.18155400  1
  Se  Se5  1  0.65439000  0.04517000  0.45030400  1
  Se  Se6  1  0.34561000  0.04517000  0.95030400  1
  Se  Se7  1  0.93218300  0.82837500  0.68155400  1
  Se  Se8  1  0.42388900  0.39731600  0.13577600  1
  Se  Se9  1  0.25104500  0.34339100  0.50634800  1
  Se  Se10  1  0.57611100  0.39731600  0.63577600  1
  Se  Se11  1  0.99478300  0.23730300  0.88326600  1
  Se  Se12  1  0.74895500  0.34339100  0.00634800  1
  Se  Se13  1  0.29061900  0.85054500  0.50402000  1
loop_
_geom_bond_atom_site_label_1
_geom_bond_atom_site_label_2
_geom_bond_distance
_geom_bond_site_symmetry_2
Nd0 Se0 2.972038 1_555
Nd0 Se13 2.987518 1_545
Nd0 Se6 3.026986 1_554
Nd0 Se1 3.078946 1_554
Nd0 Se9 3.085165 1_555
Nd0 Se8 3.125952 1_555
Nd0 Se4 3.173378 1_545
Nd0 Se11 3.553286 1_454
Nd1 Se12 2.936046 1_555
Nd1 Se7 2.974111 1_554
Nd1 Se0 3.018053 1_655
Nd1 Se4 3.018667 1_655
Nd1 Se1 3.038743 1_654
Nd1 Se11 3.165852 1_554
Nd1 Se2 3.178359 1_555
Nd1 Se3 3.556158 1_555
Nd2 Se9 2.936046 1_555
Nd2 Se4 2.974111 1_555
Nd2 Se11 3.018053 1_455
Nd2 Se7 3.018667 1_455
Nd2 Se2 3.038743 1_455
Nd2 Se0 3.165852 1_555
Nd2 Se1 3.178359 1_555
Nd2 Se13 3.556158 1_555
Nd3 Se11 2.972038 1_555
Nd3 Se3 2.987518 1_546
Nd3 Se5 3.026986 1_555
Nd3 Se2 3.078946 1_555
Nd3 Se12 3.085165 1_556
Nd3 Se10 3.125952 1_555
Nd3 Se7 3.173378 1_545
Nd3 Se0 3.553286 1_655
Nd4 Se5 2.978597 1_565
Nd4 Se2 3.024488 1_555
Nd4 Se0 3.049035 1_665
Nd4 Se4 3.062809 1_655
Nd4 Se12 3.067303 1_565
Nd4 Se3 3.089790 1_555
Nd4 Se7 3.282285 1_555
Nd4 Se11 3.445122 1_564
Nd5 Se6 2.978597 1_565
Nd5 Se1 3.024488 1_555
Nd5 Se11 3.049035 1_465
Nd5 Se7 3.062809 1_455
Nd5 Se9 3.067303 1_565
Nd5 Se13 3.089790 1_555
Nd5 Se4 3.282285 1_556
Nd5 Se0 3.445122 1_565
Nd6 Se10 2.844460 1_555
Nd6 Se9 2.885452 1_555
Nd6 Se8 2.946232 1_556
Nd6 Se1 2.960838 1_555
Nd6 Se13 2.992784 1_555
Nd6 Se6 3.163952 1_555
Nd7 Se8 2.844460 1_555
Nd7 Se12 2.885452 1_555
Nd7 Se10 2.946232 1_555
Nd7 Se2 2.960838 1_555
Nd7 Se3 2.992784 1_555
Nd7 Se5 3.163952 1_555
Ag0 Se10 2.717512 1_555
Ag0 Se5 2.734216 1_565
Ag0 Se12 3.088020 1_556
Ag0 Se3 3.121377 1_556
Ag0 Se2 3.157923 1_555
Ag0 Se7 3.233571 1_555
Ag1 Se13 2.761057 1_545
Ag1 Se5 2.787713 1_555
Ag1 Se9 2.978508 1_555
Ag1 Se10 3.032585 1_555
Ag1 Se6 3.265071 1_555
Ag1 Se8 3.327828 1_555
Ag2 Se3 2.761057 1_545
Ag2 Se6 2.787713 1_554
Ag2 Se12 2.978508 1_555
Ag2 Se8 3.032585 1_555
Ag2 Se5 3.265071 1_555
Ag2 Se10 3.327828 1_554
Ag3 Se8 2.717512 1_555
Ag3 Se6 2.734216 1_564
Ag3 Se9 3.088020 1_555
Ag3 Se13 3.121377 1_555
Ag3 Se1 3.157923 1_554
Ag3 Se4 3.233571 1_555
