# generated using pymatgen
data_CdI2
_symmetry_space_group_name_H-M   'P 1'
_cell_length_a   4.34250419
_cell_length_b   4.34250419
_cell_length_c   146.80123300
_cell_angle_alpha   90.00000000
_cell_angle_beta   90.00000000
_cell_angle_gamma   120.00000290
_symmetry_Int_Tables_number   1
_chemical_formula_structural   CdI2
_chemical_formula_sum   'Cd20 I40'
_cell_volume   2397.40173174
_cell_formula_units_Z   20
loop_
 _symmetry_equiv_pos_site_id
 _symmetry_equiv_pos_as_xyz
  1  'x, y, z'
loop_
 _atom_site_type_symbol
 _atom_site_label
 _atom_site_symmetry_multiplicity
 _atom_site_fract_x
 _atom_site_fract_y
 _atom_site_fract_z
 _atom_site_occupancy
  Cd  Cd0  1  0.00000000  0.00000000  0.01250000  1
  Cd  Cd1  1  0.66666700  0.33333300  0.81249200  1
  Cd  Cd2  1  0.66666700  0.33333300  0.11249900  1
  Cd  Cd3  1  0.66666700  0.33333300  0.41250700  1
  Cd  Cd4  1  0.66666700  0.33333300  0.61249900  1
  Cd  Cd5  1  0.66666700  0.33333300  0.96249900  1
  Cd  Cd6  1  0.33333300  0.66666700  0.66249200  1
  Cd  Cd7  1  0.66666700  0.33333300  0.06249700  1
  Cd  Cd8  1  0.66666700  0.33333300  0.16250900  1
  Cd  Cd9  1  0.66666700  0.33333300  0.51249700  1
  Cd  Cd10  1  0.33333300  0.66666700  0.46249800  1
  Cd  Cd11  1  0.33333300  0.66666700  0.36250300  1
  Cd  Cd12  1  0.33333300  0.66666700  0.26248900  1
  Cd  Cd13  1  0.33333300  0.66666700  0.76248900  1
  Cd  Cd14  1  0.33333300  0.66666700  0.86250200  1
  Cd  Cd15  1  0.66666700  0.33333300  0.31249300  1
  Cd  Cd16  1  0.66666700  0.33333300  0.71249800  1
  Cd  Cd17  1  0.66666700  0.33333300  0.21249700  1
  Cd  Cd18  1  0.66666700  0.33333300  0.91250800  1
  Cd  Cd19  1  0.33333300  0.66666700  0.56249700  1
  I  I0  1  0.33333300  0.66666700  0.05071600  1
  I  I1  1  0.66666700  0.33333300  0.75070200  1
  I  I2  1  0.00000000  0.00000000  0.52428700  1
  I  I3  1  0.33333300  0.66666700  0.95072100  1
  I  I4  1  0.00000000  0.00000000  0.22428300  1
  I  I5  1  0.66666700  0.33333300  0.45070900  1
  I  I6  1  0.33333300  0.66666700  0.80071400  1
  I  I7  1  0.33333300  0.66666700  0.15072700  1
  I  I8  1  0.00000000  0.00000000  0.82427400  1
  I  I9  1  0.00000000  0.00000000  0.67428400  1
  I  I10  1  0.00000000  0.00000000  0.32427500  1
  I  I11  1  0.66666700  0.33333300  0.35071400  1
  I  I12  1  0.33333300  0.66666700  0.30071400  1
  I  I13  1  0.00000000  0.00000000  0.97428500  1
  I  I14  1  0.00000000  0.00000000  0.47428400  1
  I  I15  1  0.33333300  0.66666700  0.10072400  1
  I  I16  1  0.00000000  0.00000000  0.77427400  1
  I  I17  1  0.00000000  0.00000000  0.72428300  1
  I  I18  1  0.33333300  0.66666700  0.40072600  1
  I  I19  1  0.00000000  0.00000000  0.87429100  1
  I  I20  1  0.00000000  0.00000000  0.37429100  1
  I  I21  1  0.00000000  0.00000000  0.17429200  1
  I  I22  1  0.00000000  0.00000000  0.27427800  1
  I  I23  1  0.33333300  0.66666700  0.90072700  1
  I  I24  1  0.66666700  0.33333300  0.02429000  1
  I  I25  1  0.00000000  0.00000000  0.42429100  1
  I  I26  1  0.33333300  0.66666700  0.00072400  1
  I  I27  1  0.00000000  0.00000000  0.62428600  1
  I  I28  1  0.33333300  0.66666700  0.20072200  1
  I  I29  1  0.66666700  0.33333300  0.55071100  1
  I  I30  1  0.33333300  0.66666700  0.60072300  1
  I  I31  1  0.00000000  0.00000000  0.07427800  1
  I  I32  1  0.66666700  0.33333300  0.85071400  1
  I  I33  1  0.00000000  0.00000000  0.57428200  1
  I  I34  1  0.33333300  0.66666700  0.50072200  1
  I  I35  1  0.33333300  0.66666700  0.70072100  1
  I  I36  1  0.00000000  0.00000000  0.12428800  1
  I  I37  1  0.66666700  0.33333300  0.65070900  1
  I  I38  1  0.00000000  0.00000000  0.92429200  1
  I  I39  1  0.66666700  0.33333300  0.25070300  1
loop_
_geom_bond_atom_site_label_1
_geom_bond_atom_site_label_2
_geom_bond_distance
_geom_bond_site_symmetry_2
Cd0 I26 3.045370 1_545
Cd0 I26 3.045373 1_555
Cd0 I26 3.045373 1_445
Cd0 I24 3.046537 1_455
Cd0 I24 3.046540 1_555
Cd0 I24 3.046540 1_445
Cd1 I6 3.045537 1_655
Cd1 I6 3.045537 1_545
Cd1 I6 3.045543 1_555
Cd1 I8 3.045870 1_655
Cd1 I8 3.045873 1_555
Cd1 I8 3.045873 1_665
Cd2 I15 3.045287 1_545
Cd2 I15 3.045287 1_655
Cd2 I15 3.045293 1_555
Cd2 I36 3.046454 1_655
Cd2 I36 3.046457 1_665
Cd2 I36 3.046457 1_555
Cd3 I18 3.045787 1_545
Cd3 I18 3.045787 1_655
Cd3 I18 3.045793 1_555
Cd3 I25 3.046037 1_655
Cd3 I25 3.046040 1_555
Cd3 I25 3.046040 1_665
Cd4 I30 3.045370 1_655
Cd4 I30 3.045370 1_545
Cd4 I30 3.045377 1_555
Cd4 I27 3.046287 1_655
Cd4 I27 3.046290 1_555
Cd4 I27 3.046290 1_665
Cd5 I3 3.045537 1_655
Cd5 I3 3.045537 1_545
Cd5 I3 3.045543 1_555
Cd5 I13 3.046204 1_655
Cd5 I13 3.046207 1_665
Cd5 I13 3.046207 1_555
Cd6 I37 3.045954 1_455
Cd6 I37 3.045954 1_565
Cd6 I37 3.045960 1_555
Cd6 I9 3.046704 1_565
Cd6 I9 3.046707 1_555
Cd6 I9 3.046707 1_665
Cd7 I0 3.045787 1_545
Cd7 I0 3.045787 1_655
Cd7 I31 3.045787 1_655
Cd7 I31 3.045790 1_665
Cd7 I31 3.045790 1_555
Cd7 I0 3.045793 1_555
Cd8 I7 3.045870 1_545
Cd8 I7 3.045870 1_655
Cd8 I7 3.045877 1_555
Cd8 I21 3.045954 1_655
Cd8 I21 3.045957 1_665
Cd8 I21 3.045957 1_555
Cd9 I34 3.045287 1_545
Cd9 I34 3.045287 1_655
Cd9 I34 3.045293 1_555
Cd9 I2 3.046537 1_655
Cd9 I2 3.046540 1_665
Cd9 I2 3.046540 1_555
Cd10 I14 3.046204 1_565
Cd10 I14 3.046207 1_665
Cd10 I14 3.046207 1_555
Cd10 I5 3.046454 1_455
Cd10 I5 3.046454 1_565
Cd10 I5 3.046460 1_555
Cd11 I20 3.046371 1_565
Cd11 I20 3.046374 1_665
Cd11 I20 3.046374 1_555
Cd11 I11 3.046454 1_455
Cd11 I11 3.046454 1_565
Cd11 I11 3.046460 1_555
Cd12 I39 3.046204 1_455
Cd12 I39 3.046204 1_565
Cd12 I39 3.046210 1_555
Cd12 I22 3.046454 1_565
Cd12 I22 3.046457 1_555
Cd12 I22 3.046457 1_665
Cd13 I16 3.046121 1_565
Cd13 I16 3.046124 1_665
Cd13 I16 3.046124 1_555
Cd13 I1 3.046287 1_455
Cd13 I1 3.046287 1_565
Cd13 I1 3.046293 1_555
Cd14 I32 3.046371 1_565
Cd14 I32 3.046371 1_455
Cd14 I32 3.046377 1_555
Cd14 I19 3.046454 1_565
Cd14 I19 3.046457 1_555
Cd14 I19 3.046457 1_665
Cd15 I12 3.045620 1_545
Cd15 I12 3.045620 1_655
Cd15 I12 3.045627 1_555
Cd15 I10 3.045870 1_655
Cd15 I10 3.045873 1_665
Cd15 I10 3.045873 1_555
Cd16 I35 3.045454 1_545
Cd16 I35 3.045454 1_655
Cd16 I35 3.045460 1_555
Cd16 I17 3.046121 1_655
Cd16 I17 3.046124 1_665
Cd16 I17 3.046124 1_555
Cd17 I28 3.045287 1_655
Cd17 I28 3.045287 1_545
Cd17 I28 3.045293 1_555
Cd17 I4 3.046204 1_655
Cd17 I4 3.046207 1_555
Cd17 I4 3.046207 1_665
Cd18 I23 3.045787 1_545
Cd18 I23 3.045787 1_655
Cd18 I23 3.045793 1_555
Cd18 I38 3.046037 1_655
Cd18 I38 3.046040 1_555
Cd18 I38 3.046040 1_665
Cd19 I33 3.046121 1_565
Cd19 I33 3.046124 1_555
Cd19 I33 3.046124 1_665
Cd19 I29 3.046204 1_455
Cd19 I29 3.046204 1_565
Cd19 I29 3.046210 1_555
