# generated using pymatgen
data_YbIn4Rh
_symmetry_space_group_name_H-M   'P 1'
_cell_length_a   4.28427602
_cell_length_b   7.28307164
_cell_length_c   8.51849123
_cell_angle_alpha   90.00000000
_cell_angle_beta   90.00000000
_cell_angle_gamma   90.00000000
_symmetry_Int_Tables_number   1
_chemical_formula_structural   YbIn4Rh
_chemical_formula_sum   'Yb2 In8 Rh2'
_cell_volume   265.79983402
_cell_formula_units_Z   2
loop_
 _symmetry_equiv_pos_site_id
 _symmetry_equiv_pos_as_xyz
  1  'x, y, z'
loop_
 _atom_site_type_symbol
 _atom_site_label
 _atom_site_symmetry_multiplicity
 _atom_site_fract_x
 _atom_site_fract_y
 _atom_site_fract_z
 _atom_site_occupancy
  Yb  Yb0  1  0.00000000  0.39991203  0.25000000  1
  Yb  Yb1  1  0.00000000  0.60008797  0.75000000  1
  In  In0  1  0.50000000  0.31827037  0.56167752  1
  In  In1  1  0.50000000  0.31827037  0.93832248  1
  In  In2  1  0.50000000  0.68172963  0.43832248  1
  In  In3  1  0.50000000  0.68172963  0.06167752  1
  In  In4  1  0.00000000  0.00000000  0.00000000  1
  In  In5  1  0.50000000  0.93005958  0.75000000  1
  In  In6  1  0.50000000  0.06994042  0.25000000  1
  In  In7  1  0.00000000  0.00000000  0.50000000  1
  Rh  Rh0  1  0.00000000  0.78906171  0.25000000  1
  Rh  Rh1  1  0.00000000  0.21093829  0.75000000  1
loop_
_geom_bond_atom_site_label_1
_geom_bond_atom_site_label_2
_geom_bond_distance
_geom_bond_site_symmetry_2
In0 Rh1 2.788074 1_655
In0 Rh1 2.788074 1_555
In0 Yb1 3.372690 1_655
In0 Yb1 3.372690 1_555
In0 Yb0 3.462867 1_555
In0 Yb0 3.462867 1_655
In1 Rh1 2.788074 1_655
In1 Rh1 2.788074 1_555
In1 Yb1 3.372690 1_555
In1 Yb1 3.372690 1_655
In1 Yb0 3.462867 1_556
In1 Yb0 3.462867 1_656
In2 Rh0 2.788074 1_555
In2 Rh0 2.788074 1_655
In2 Yb0 3.372690 1_555
In2 Yb0 3.372690 1_655
In2 Yb1 3.462867 1_655
In2 Yb1 3.462867 1_555
In3 Rh0 2.788074 1_555
In3 Rh0 2.788074 1_655
In3 Yb0 3.372690 1_655
In3 Yb0 3.372690 1_555
In3 Yb1 3.462867 1_654
In3 Yb1 3.462867 1_554
In4 Rh1 2.625918 1_554
In4 Rh0 2.625918 1_545
In4 Yb0 3.608111 1_555
In4 Yb1 3.608111 1_544
In5 Rh1 2.962006 1_665
In5 Rh1 2.962006 1_565
In5 Yb1 3.219341 1_655
In5 Yb1 3.219341 1_555
In6 Rh0 2.962006 1_545
In6 Rh0 2.962006 1_645
In6 Yb0 3.219341 1_655
In6 Yb0 3.219341 1_555
In7 Rh1 2.625918 1_555
In7 Rh0 2.625918 1_545
In7 Yb0 3.608111 1_555
In7 Yb1 3.608111 1_545
Rh0 Yb0 2.834205 1_555
Rh1 Yb1 2.834205 1_555
