# generated using pymatgen
data_RuN2
_symmetry_space_group_name_H-M   'P 1'
_cell_length_a   2.71709200
_cell_length_b   4.11322200
_cell_length_c   4.93130100
_cell_angle_alpha   90.00000000
_cell_angle_beta   90.00000000
_cell_angle_gamma   90.00000000
_symmetry_Int_Tables_number   1
_chemical_formula_structural   RuN2
_chemical_formula_sum   'Ru2 N4'
_cell_volume   55.11223275
_cell_formula_units_Z   2
loop_
 _symmetry_equiv_pos_site_id
 _symmetry_equiv_pos_as_xyz
  1  'x, y, z'
loop_
 _atom_site_type_symbol
 _atom_site_label
 _atom_site_symmetry_multiplicity
 _atom_site_fract_x
 _atom_site_fract_y
 _atom_site_fract_z
 _atom_site_occupancy
  Ru  Ru0  1  0.00000000  0.00000000  0.00000000  1
  Ru  Ru1  1  0.50000000  0.50000000  0.50000000  1
  N  N0  1  0.50000000  0.37939300  0.90884300  1
  N  N1  1  0.00000000  0.12060700  0.40884300  1
  N  N2  1  0.50000000  0.62060700  0.09115700  1
  N  N3  1  0.00000000  0.87939300  0.59115700  1
loop_
_geom_bond_atom_site_label_1
_geom_bond_atom_site_label_2
_geom_bond_distance
_geom_bond_site_symmetry_2
N0 N2 1.338909 1_556
N0 Ru1 2.076264 1_555
N0 Ru0 2.117301 1_556
N0 Ru0 2.117301 1_656
N1 N3 1.338909 1_545
N1 Ru0 2.076264 1_555
N1 Ru1 2.117301 1_555
N1 Ru1 2.117301 1_455
N2 Ru1 2.076264 1_555
N2 Ru0 2.117301 1_665
N2 Ru0 2.117301 1_565
N3 Ru0 2.076264 1_566
N3 Ru1 2.117301 1_455
N3 Ru1 2.117301 1_555
