# generated using pymatgen
data_KBiO3
_symmetry_space_group_name_H-M   'P 1'
_cell_length_a   8.75448200
_cell_length_b   8.99007957
_cell_length_c   22.17956562
_cell_angle_alpha   97.23607675
_cell_angle_beta   96.20583412
_cell_angle_gamma   109.95299724
_symmetry_Int_Tables_number   1
_chemical_formula_structural   KBiO3
_chemical_formula_sum   'K18 Bi18 O54'
_cell_volume   1606.24971964
_cell_formula_units_Z   18
loop_
 _symmetry_equiv_pos_site_id
 _symmetry_equiv_pos_as_xyz
  1  'x, y, z'
loop_
 _atom_site_type_symbol
 _atom_site_label
 _atom_site_symmetry_multiplicity
 _atom_site_fract_x
 _atom_site_fract_y
 _atom_site_fract_z
 _atom_site_occupancy
  K  K0  1  0.42022400  0.42810400  0.21678100  1
  K  K1  1  0.20052900  0.17207500  0.09606000  1
  K  K2  1  0.64135400  0.32982500  0.34146500  1
  K  K3  1  0.16481100  0.19611500  0.57124500  1
  K  K4  1  0.84085900  0.84516100  0.15714900  1
  K  K5  1  0.50131900  0.00152000  0.00093700  1
  K  K6  1  0.92095100  0.91573800  0.46131900  1
  K  K7  1  0.34029800  0.01342200  0.67121300  1
  K  K8  1  0.66763200  0.98639300  0.33468600  1
  K  K9  1  0.77763700  0.79375700  0.89158500  1
  K  K10  1  0.25166000  0.66968900  0.33665200  1
  K  K11  1  0.55517700  0.52773500  0.76926800  1
  K  K12  1  0.00108900  0.68111800  0.00307800  1
  K  K13  1  0.88748200  0.69116700  0.31205200  1
  K  K14  1  0.34406300  0.64886100  0.65987100  1
  K  K15  1  0.16764900  0.16401700  0.83480200  1
  K  K16  1  0.85675100  0.33091600  0.66563900  1
  K  K17  1  0.99177600  0.31409200  0.99235600  1
  Bi  Bi0  1  0.17121600  0.67131500  0.16748700  1
  Bi  Bi1  1  0.44681500  0.60502400  0.05295300  1
  Bi  Bi2  1  0.83360700  0.34591900  0.50145300  1
  Bi  Bi3  1  0.93711200  0.28012000  0.22183700  1
  Bi  Bi4  1  0.11452500  0.27468000  0.38869200  1
  Bi  Bi5  1  0.72539500  0.38769700  0.11517800  1
  Bi  Bi6  1  0.51014700  0.00901500  0.83473000  1
  Bi  Bi7  1  0.21316200  0.05738300  0.28075400  1
  Bi  Bi8  1  0.60617700  0.94186100  0.55193800  1
  Bi  Bi9  1  0.78665500  0.94056700  0.71941400  1
  Bi  Bi10  1  0.39188700  0.05252800  0.44888000  1
  Bi  Bi11  1  0.49237000  0.98938400  0.16706100  1
  Bi  Bi12  1  0.88536500  0.72513200  0.61179700  1
  Bi  Bi13  1  0.27479500  0.61454900  0.88567200  1
  Bi  Bi14  1  0.06483500  0.72001500  0.77921800  1
  Bi  Bi15  1  0.16314200  0.65512700  0.49814900  1
  Bi  Bi16  1  0.55351800  0.39316600  0.94692800  1
  Bi  Bi17  1  0.83059200  0.32512800  0.83187800  1
  O  O0  1  0.23714300  0.87743600  0.12062100  1
  O  O1  1  0.56654400  0.85421500  0.09476000  1
  O  O2  1  0.93583100  0.60214300  0.11298700  1
  O  O3  1  0.23769500  0.52066000  0.09829300  1
  O  O4  1  0.15037300  0.49475300  0.22396400  1
  O  O5  1  0.58609100  0.54004900  0.12696200  1
  O  O6  1  0.24207800  0.51754600  0.42863500  1
  O  O7  1  0.96387600  0.34661400  0.31832400  1
  O  O8  1  0.59593100  0.26764700  0.44767900  1
  O  O9  1  0.09042500  0.45367400  0.54689500  1
  O  O10  1  0.88519800  0.24962900  0.12205400  1
  O  O11  1  0.77579300  0.42141000  0.21582900  1
  O  O12  1  0.30206300  0.30109900  0.33024900  1
  O  O13  1  0.89670200  0.19865900  0.42770100  1
  O  O14  1  0.70367600  0.32815500  0.01762500  1
  O  O15  1  0.82657700  0.15428200  0.55200500  1
  O  O16  1  0.08922100  0.13826700  0.20676800  1
  O  O17  1  0.22235400  0.17359300  0.45782100  1
  O  O18  1  0.90887700  0.18650800  0.76219100  1
  O  O19  1  0.50792300  0.17546900  0.11366300  1
  O  O20  1  0.42535900  0.13464100  0.23695100  1
  O  O21  1  0.27313200  0.94005900  0.78125500  1
  O  O22  1  0.63620500  0.00735700  0.65059800  1
  O  O23  1  0.01334000  0.02575100  0.33286300  1
  O  O24  1  0.76334200  0.12290900  0.88124200  1
  O  O25  1  0.55547600  0.91757800  0.45179500  1
  O  O26  1  0.44286800  0.07916800  0.54776500  1
  O  O27  1  0.98138400  0.97131700  0.66465600  1
  O  O28  1  0.72943200  0.06020400  0.22170600  1
  O  O29  1  0.37051100  0.00062200  0.34940100  1
  O  O30  1  0.57571300  0.86103400  0.76459600  1
  O  O31  1  0.74946100  0.79674600  0.54182200  1
  O  O32  1  0.48962900  0.83046300  0.89133000  1
  O  O33  1  0.09048600  0.80727200  0.23976700  1
  O  O34  1  0.91702900  0.86378900  0.79243700  1
  O  O35  1  0.18092900  0.82765000  0.43807000  1
  O  O36  1  0.09250100  0.80972400  0.56564900  1
  O  O37  1  0.29557000  0.67009700  0.98428900  1
  O  O38  1  0.42282800  0.78462900  0.21473300  1
  O  O39  1  0.23010900  0.58642900  0.78623600  1
  O  O40  1  0.69609100  0.69595800  0.67048500  1
  O  O41  1  0.10917400  0.74594400  0.87940300  1
  O  O42  1  0.64466900  0.63751500  0.99889100  1
  O  O43  1  0.90859100  0.54443700  0.45194500  1
  O  O44  1  0.39588300  0.73422100  0.55511000  1
  O  O45  1  0.04868900  0.66812500  0.68175700  1
  O  O46  1  0.76737300  0.47613800  0.57620900  1
  O  O47  1  0.42461700  0.47090100  0.87456200  1
  O  O48  1  0.84988600  0.50351000  0.77539100  1
  O  O49  1  0.76713500  0.47357500  0.90393400  1
  O  O50  1  0.35841600  0.36099400  0.00275500  1
  O  O51  1  0.57580600  0.21487500  0.78747300  1
  O  O52  1  0.06747300  0.39663800  0.88653300  1
  O  O53  1  0.43221000  0.14627400  0.90652000  1
loop_
_geom_bond_atom_site_label_1
_geom_bond_atom_site_label_2
_geom_bond_distance
_geom_bond_site_symmetry_2
K0 O4 2.643627 1_555
K0 O5 2.687585 1_555
K0 O20 2.745263 1_555
K0 O12 3.031170 1_555
K0 O16 3.130115 1_555
K0 O11 3.136156 1_555
K1 O19 2.666281 1_555
K1 O16 2.752155 1_555
K1 O0 2.884617 1_545
K1 O50 2.996568 1_555
K1 O3 3.031596 1_555
K1 O10 3.161588 1_455
K2 O8 2.530387 1_555
K2 O20 2.791270 1_555
K2 O12 2.872610 1_555
K2 O7 2.881044 1_555
K2 O43 3.112751 1_555
K2 O29 3.137541 1_555
K2 O11 3.233210 1_555
K3 O17 2.615106 1_555
K3 O9 2.710219 1_555
K3 O15 2.831570 1_455
K3 O26 3.030671 1_555
K3 O27 3.242602 1_445
K3 O36 3.294881 1_545
K4 O1 2.670558 1_555
K4 O2 2.701952 1_555
K4 O28 2.762421 1_565
K4 O16 2.779207 1_665
K4 O5 2.825919 1_555
K4 O33 2.837095 1_655
K5 O32 2.679982 1_544
K5 O1 2.713588 1_545
K5 O53 2.719352 1_554
K5 O19 2.760799 1_555
K5 O14 2.816424 1_555
K5 O37 2.859112 1_544
K6 O31 2.559490 1_555
K6 O35 2.730215 1_655
K6 O13 2.807559 1_565
K6 O17 2.873510 1_665
K6 O36 3.049515 1_655
K6 O15 3.131955 1_565
K6 O25 3.189492 1_555
K6 O23 3.226737 1_665
K6 O43 3.281942 1_555
K7 O21 2.681192 1_545
K7 O22 2.696107 1_555
K7 O36 2.941420 1_545
K7 O27 3.018751 1_445
K7 O26 3.037999 1_555
K7 O51 3.050518 1_555
K8 O29 2.699802 1_565
K8 O13 2.724189 1_565
K8 O28 2.734826 1_565
K8 O23 2.930136 1_665
K8 O25 2.938543 1_555
K8 O38 3.140045 1_555
K9 O32 2.651684 1_555
K9 O34 2.669456 1_555
K9 O49 2.896972 1_555
K9 O24 3.040085 1_565
K9 O42 3.052480 1_555
K9 O41 3.110251 1_655
K10 O6 2.588762 1_555
K10 O4 2.661830 1_555
K10 O35 2.748903 1_555
K10 O29 2.761452 1_565
K10 O33 3.056725 1_555
K10 O7 3.071729 1_455
K11 O48 2.652845 1_555
K11 O47 2.738718 1_555
K11 O51 2.953571 1_555
K11 O30 2.955667 1_555
K11 O40 2.958900 1_555
K11 O39 3.118499 1_555
K12 O37 2.688107 1_554
K12 O2 2.689478 1_455
K12 O49 2.810020 1_454
K12 O42 2.998630 1_454
K12 O41 3.057266 1_554
K12 O0 3.060888 1_555
K13 O33 2.567075 1_655
K13 O23 2.784437 1_665
K13 O11 2.831733 1_555
K14 O44 2.575477 1_555
K14 O45 2.740087 1_555
K14 O30 2.893376 1_555
K14 O40 2.942753 1_555
K14 O9 3.052636 1_555
K14 O39 3.127959 1_555
K15 O21 2.687142 1_545
K15 O52 2.706258 1_555
K15 O18 2.715235 1_455
K15 O53 2.727549 1_555
K15 O34 2.802759 1_445
K15 O47 2.858727 1_555
K16 O46 2.695381 1_555
K16 O18 2.715333 1_555
K16 O48 2.735056 1_555
K16 O15 2.739545 1_555
K16 O22 2.843166 1_555
K16 O45 2.874367 1_655
K17 O52 2.634046 1_655
K17 O14 2.682687 1_556
K17 O24 2.923776 1_555
K17 O3 2.946673 1_656
K17 O50 3.070048 1_656
K17 O10 3.180049 1_556
Bi0 O4 2.115316 1_555
Bi0 O2 2.119377 1_455
Bi0 O38 2.165279 1_555
Bi0 O0 2.175405 1_555
Bi0 O3 2.176200 1_555
Bi0 O33 2.214585 1_555
Bi1 O3 2.140239 1_555
Bi1 O1 2.154328 1_555
Bi1 O50 2.165900 1_555
Bi1 O42 2.171464 1_554
Bi1 O37 2.175289 1_554
Bi1 O5 2.194830 1_555
Bi2 O8 2.121285 1_555
Bi2 O46 2.153607 1_555
Bi2 O15 2.158297 1_555
Bi2 O43 2.161420 1_555
Bi2 O9 2.187874 1_655
Bi2 O13 2.209627 1_555
Bi3 O7 2.113231 1_555
Bi3 O16 2.158503 1_655
Bi3 O4 2.170356 1_655
Bi3 O10 2.173564 1_555
Bi3 O28 2.181402 1_555
Bi3 O11 2.202712 1_555
Bi4 O6 2.105657 1_555
Bi4 O13 2.113817 1_455
Bi4 O17 2.165974 1_555
Bi4 O12 2.168798 1_555
Bi4 O7 2.232668 1_455
Bi4 O23 2.244535 1_555
Bi5 O5 2.133137 1_555
Bi5 O14 2.134018 1_555
Bi5 O10 2.169754 1_555
Bi5 O2 2.175310 1_555
Bi5 O19 2.181038 1_555
Bi5 O11 2.189853 1_555
Bi6 O21 2.121608 1_545
Bi6 O32 2.131774 1_545
Bi6 O30 2.170698 1_545
Bi6 O24 2.171735 1_555
Bi6 O51 2.178753 1_555
Bi6 O53 2.199562 1_555
Bi7 O20 2.134672 1_555
Bi7 O12 2.158002 1_555
Bi7 O23 2.158058 1_555
Bi7 O33 2.159055 1_545
Bi7 O29 2.167518 1_555
Bi7 O16 2.202952 1_555
Bi8 O31 2.104700 1_555
Bi8 O44 2.143467 1_555
Bi8 O22 2.156291 1_565
Bi8 O25 2.185555 1_555
Bi8 O26 2.186541 1_565
Bi8 O15 2.203104 1_565
Bi9 O18 2.138017 1_565
Bi9 O30 2.145965 1_555
Bi9 O40 2.159861 1_555
Bi9 O27 2.160602 1_555
Bi9 O22 2.181957 1_565
Bi9 O34 2.195890 1_555
Bi10 O17 2.130355 1_555
Bi10 O8 2.144108 1_555
Bi10 O26 2.156360 1_555
Bi10 O25 2.170864 1_545
Bi10 O29 2.170884 1_555
Bi10 O35 2.188457 1_545
Bi11 O28 2.131054 1_565
Bi11 O19 2.144387 1_565
Bi11 O20 2.159137 1_565
Bi11 O38 2.177535 1_555
Bi11 O1 2.177763 1_555
Bi11 O0 2.184675 1_555
Bi12 O46 2.121632 1_555
Bi12 O36 2.137864 1_655
Bi12 O31 2.148041 1_555
Bi12 O40 2.182772 1_555
Bi12 O27 2.200679 1_555
Bi12 O45 2.221606 1_655
Bi13 O47 2.143485 1_555
Bi13 O37 2.154879 1_555
Bi13 O41 2.164185 1_555
Bi13 O39 2.164824 1_555
Bi13 O32 2.171823 1_555
Bi13 O52 2.173154 1_555
Bi14 O45 2.131948 1_555
Bi14 O34 2.135182 1_455
Bi14 O21 2.176766 1_555
Bi14 O39 2.178148 1_555
Bi14 O48 2.181925 1_455
Bi14 O41 2.182622 1_555
Bi15 O44 2.116975 1_555
Bi15 O35 2.146190 1_555
Bi15 O9 2.170111 1_555
Bi15 O6 2.172048 1_555
Bi15 O43 2.177694 1_455
Bi15 O36 2.195014 1_555
Bi16 O53 2.131177 1_555
Bi16 O49 2.136761 1_555
Bi16 O50 2.178179 1_556
Bi16 O42 2.181199 1_555
Bi16 O47 2.183390 1_555
Bi16 O14 2.199531 1_556
Bi17 O52 2.129222 1_655
Bi17 O48 2.130013 1_555
Bi17 O51 2.167460 1_555
Bi17 O18 2.176783 1_555
Bi17 O24 2.181893 1_555
Bi17 O49 2.191904 1_555
