# generated using pymatgen
data_Na2LiLa3Ti6O18
_symmetry_space_group_name_H-M   'P 1'
_cell_length_a   5.48778400
_cell_length_b   5.49112605
_cell_length_c   12.52630273
_cell_angle_alpha   102.14309311
_cell_angle_beta   102.37827647
_cell_angle_gamma   89.80120628
_symmetry_Int_Tables_number   1
_chemical_formula_structural   Na2LiLa3Ti6O18
_chemical_formula_sum   'Na2 Li1 La3 Ti6 O18'
_cell_volume   360.10223885
_cell_formula_units_Z   1
loop_
 _symmetry_equiv_pos_site_id
 _symmetry_equiv_pos_as_xyz
  1  'x, y, z'
loop_
 _atom_site_type_symbol
 _atom_site_label
 _atom_site_symmetry_multiplicity
 _atom_site_fract_x
 _atom_site_fract_y
 _atom_site_fract_z
 _atom_site_occupancy
  Na  Na0  1  0.56209300  0.07004600  0.14594600  1
  Na  Na1  1  0.72258500  0.24096700  0.47066100  1
  Li  Li0  1  0.86571800  0.35027700  0.75136600  1
  La  La0  1  0.23575600  0.74452400  0.48700700  1
  La  La1  1  0.40400100  0.90629300  0.82510600  1
  La  La2  1  0.06238000  0.57183600  0.14944700  1
  Ti  Ti0  1  0.98355400  0.99746000  0.98418900  1
  Ti  Ti1  1  0.82260000  0.81759700  0.65497900  1
  Ti  Ti2  1  0.65155500  0.66061400  0.31940200  1
  Ti  Ti3  1  0.48662900  0.48852200  0.98683800  1
  Ti  Ti4  1  0.32344400  0.32942100  0.65692500  1
  Ti  Ti5  1  0.15399600  0.15183500  0.32109300  1
  O  O0  1  0.94135400  0.44427600  0.31548400  1
  O  O1  1  0.58696100  0.07432900  0.64882500  1
  O  O2  1  0.41772000  0.41231900  0.31802500  1
  O  O3  1  0.91876000  0.99389100  0.83449800  1
  O  O4  1  0.75991000  0.68471400  0.50469800  1
  O  O5  1  0.25418200  0.28335600  0.02574600  1
  O  O6  1  0.26804800  0.77024700  0.97997800  1
  O  O7  1  0.10543300  0.04106700  0.65098900  1
  O  O8  1  0.58730600  0.65257200  0.16996000  1
  O  O9  1  0.42132900  0.34965500  0.83649900  1
  O  O10  1  0.93020300  0.94218800  0.36012500  1
  O  O11  1  0.75645900  0.25968200  0.02638300  1
  O  O12  1  0.75965800  0.73731400  0.98408600  1
  O  O13  1  0.25069600  0.31589100  0.50550400  1
  O  O14  1  0.08874600  0.02492100  0.17034400  1
  O  O15  1  0.58585400  0.60064200  0.69335200  1
  O  O16  1  0.41773300  0.92133500  0.35980400  1
  O  O17  1  0.09200800  0.57887900  0.69607700  1
loop_
_geom_bond_atom_site_label_1
_geom_bond_atom_site_label_2
_geom_bond_distance
_geom_bond_site_symmetry_2
Na0 O8 2.373773 1_545
Na0 O11 2.411187 1_555
Na0 O5 2.476226 1_555
Na0 O6 2.603146 1_544
Na0 O14 2.697989 1_555
Na0 O2 2.797108 1_555
Na0 O12 2.827487 1_544
Na0 O14 2.855874 1_655
Na1 O10 2.369525 1_545
Na1 O4 2.385383 1_555
Na1 O16 2.409694 1_545
Na1 O2 2.591233 1_555
Na1 O13 2.732682 1_555
Na1 O1 2.819195 1_555
Na1 O13 2.854734 1_655
Na1 O0 2.896337 1_555
Li0 O17 2.083944 1_655
Li0 O1 2.154268 1_555
Li0 O15 2.168887 1_555
Li0 O3 2.392120 1_545
Li0 O7 2.447422 1_655
La0 O16 2.412173 1_555
La0 O13 2.412499 1_555
La0 O10 2.467061 1_455
La0 O7 2.568438 1_565
La0 O0 2.642853 1_455
La0 O4 2.694575 1_455
La0 O1 2.812109 1_565
La0 O2 2.841548 1_555
La0 O4 2.860363 1_555
La0 O13 3.097063 1_565
La0 O15 3.117034 1_555
La0 O17 3.193898 1_555
La1 O9 2.409583 1_565
La1 O15 2.462889 1_555
La1 O6 2.472311 1_555
La1 O17 2.527554 1_555
La1 O7 2.669792 1_565
La1 O3 2.727243 1_455
La1 O12 2.781115 1_555
La1 O3 2.840481 1_555
La1 O1 2.923962 1_565
La1 O9 3.089937 1_555
La1 O11 3.120967 1_566
La1 O5 3.156635 1_566
La2 O5 2.381855 1_555
La2 O11 2.435497 1_455
La2 O14 2.447776 1_565
La2 O0 2.542790 1_455
La2 O12 2.679943 1_454
La2 O8 2.700151 1_455
La2 O2 2.833701 1_555
La2 O8 2.864346 1_555
La2 O6 2.996000 1_554
La2 O14 3.069204 1_555
La2 O16 3.181926 1_555
La2 O10 3.190434 1_455
O0 Ti2 1.984606 1_555
O0 Ti5 1.986120 1_655
O1 Ti1 1.912031 1_545
O1 Ti4 2.013134 1_555
O2 Ti2 1.870471 1_555
O2 Ti5 2.050190 1_555
O3 Ti0 1.827967 1_555
O3 Ti1 2.202557 1_555
O4 Ti1 1.827749 1_555
O4 Ti2 2.244566 1_555
O5 Ti3 1.908261 1_554
O5 Ti0 2.069328 1_444
O6 Ti3 1.959151 1_555
O6 Ti0 1.997750 1_455
O7 Ti4 1.967101 1_555
O7 Ti1 1.997411 1_445
O8 Ti2 1.820122 1_555
O8 Ti3 2.229175 1_554
O9 Ti3 1.834318 1_555
O9 Ti4 2.176676 1_555
O10 Ti5 1.891203 1_665
O10 Ti2 2.083101 1_555
O11 Ti0 1.963556 1_544
O11 Ti3 1.987851 1_554
O12 Ti0 1.887064 1_555
O12 Ti3 2.041736 1_555
O13 Ti4 1.838156 1_555
O13 Ti5 2.243095 1_555
O14 Ti5 1.826983 1_555
O14 Ti0 2.251442 1_444
O15 Ti1 1.964090 1_555
O15 Ti4 1.986771 1_555
O16 Ti5 1.968887 1_565
O16 Ti2 1.978158 1_555
O17 Ti4 1.924140 1_555
O17 Ti1 2.028119 1_455
