# generated using pymatgen
data_Gd2Mo2O7
_symmetry_space_group_name_H-M   'P 1'
_cell_length_a   7.31917700
_cell_length_b   7.31917700
_cell_length_c   7.31917700
_cell_angle_alpha   60.00000000
_cell_angle_beta   60.00000000
_cell_angle_gamma   60.00000000
_symmetry_Int_Tables_number   1
_chemical_formula_structural   Gd2Mo2O7
_chemical_formula_sum   'Gd4 Mo4 O14'
_cell_volume   277.25012579
_cell_formula_units_Z   2
loop_
 _symmetry_equiv_pos_site_id
 _symmetry_equiv_pos_as_xyz
  1  'x, y, z'
loop_
 _atom_site_type_symbol
 _atom_site_label
 _atom_site_symmetry_multiplicity
 _atom_site_fract_x
 _atom_site_fract_y
 _atom_site_fract_z
 _atom_site_occupancy
  Gd  Gd0  1  0.62500000  0.12500000  0.12500000  1
  Gd  Gd1  1  0.12500000  0.62500000  0.12500000  1
  Gd  Gd2  1  0.12500000  0.12500000  0.62500000  1
  Gd  Gd3  1  0.12500000  0.12500000  0.12500000  1
  Mo  Mo0  1  0.12500000  0.62500000  0.62500000  1
  Mo  Mo1  1  0.62500000  0.12500000  0.62500000  1
  Mo  Mo2  1  0.62500000  0.62500000  0.12500000  1
  Mo  Mo3  1  0.62500000  0.62500000  0.62500000  1
  O  O0  1  0.70963300  0.70963300  0.29036700  1
  O  O1  1  0.29036700  0.29036700  0.70963300  1
  O  O2  1  0.70963300  0.29036700  0.70963300  1
  O  O3  1  0.29036700  0.70963300  0.29036700  1
  O  O4  1  0.29036700  0.70963300  0.70963300  1
  O  O5  1  0.70963300  0.29036700  0.29036700  1
  O  O6  1  0.54036700  0.54036700  0.95963300  1
  O  O7  1  0.95963300  0.95963300  0.54036700  1
  O  O8  1  0.54036700  0.95963300  0.54036700  1
  O  O9  1  0.95963300  0.54036700  0.95963300  1
  O  O10  1  0.95963300  0.54036700  0.54036700  1
  O  O11  1  0.54036700  0.95963300  0.95963300  1
  O  O12  1  0.25000000  0.25000000  0.25000000  1
  O  O13  1  -0.00000000  0.00000000  0.00000000  1
loop_
_geom_bond_atom_site_label_1
_geom_bond_atom_site_label_2
_geom_bond_distance
_geom_bond_site_symmetry_2
Gd0 O12 2.241031 1_555
Gd0 O13 2.241031 1_655
Gd0 O5 2.505602 1_555
Gd0 O0 2.505602 1_545
Gd0 O11 2.505602 1_544
Gd0 O6 2.505602 1_554
Gd0 O8 2.505602 1_545
Gd0 O2 2.505602 1_554
Gd1 O13 2.241031 1_565
Gd1 O12 2.241031 1_555
Gd1 O3 2.505602 1_555
Gd1 O10 2.505602 1_455
Gd1 O0 2.505602 1_455
Gd1 O9 2.505602 1_454
Gd1 O6 2.505602 1_554
Gd1 O4 2.505602 1_554
Gd2 O13 2.241031 1_556
Gd2 O12 2.241031 1_555
Gd2 O1 2.505602 1_555
Gd2 O2 2.505602 1_455
Gd2 O10 2.505602 1_455
Gd2 O4 2.505602 1_545
Gd2 O8 2.505602 1_545
Gd2 O7 2.505602 1_445
Gd3 O12 2.241031 1_555
Gd3 O13 2.241031 1_555
Gd3 O3 2.505602 1_545
Gd3 O11 2.505602 1_544
Gd3 O9 2.505602 1_454
Gd3 O5 2.505602 1_455
Gd3 O1 2.505602 1_554
Gd3 O7 2.505602 1_445
Mo0 O4 2.028686 1_555
Mo0 O9 2.028686 1_455
Mo0 O10 2.028686 1_455
Mo0 O7 2.028686 1_455
Mo0 O3 2.028686 1_555
Mo0 O1 2.028686 1_555
Mo1 O2 2.028686 1_555
Mo1 O7 2.028686 1_545
Mo1 O11 2.028686 1_545
Mo1 O8 2.028686 1_545
Mo1 O1 2.028686 1_555
Mo1 O5 2.028686 1_555
Mo2 O0 2.028686 1_555
Mo2 O9 2.028686 1_554
Mo2 O11 2.028686 1_554
Mo2 O6 2.028686 1_554
Mo2 O3 2.028686 1_555
Mo2 O5 2.028686 1_555
Mo3 O8 2.028686 1_555
Mo3 O10 2.028686 1_555
Mo3 O6 2.028686 1_555
Mo3 O0 2.028686 1_555
Mo3 O4 2.028686 1_555
Mo3 O2 2.028686 1_555
