# generated using pymatgen
data_CsHO
_symmetry_space_group_name_H-M   'P 1'
_cell_length_a   4.41278300
_cell_length_b   4.46863600
_cell_length_c   13.18941100
_cell_angle_alpha   90.00000000
_cell_angle_beta   90.00000000
_cell_angle_gamma   90.00000000
_symmetry_Int_Tables_number   1
_chemical_formula_structural   CsHO
_chemical_formula_sum   'Cs4 H4 O4'
_cell_volume   260.08359108
_cell_formula_units_Z   4
loop_
 _symmetry_equiv_pos_site_id
 _symmetry_equiv_pos_as_xyz
  1  'x, y, z'
loop_
 _atom_site_type_symbol
 _atom_site_label
 _atom_site_symmetry_multiplicity
 _atom_site_fract_x
 _atom_site_fract_y
 _atom_site_fract_z
 _atom_site_occupancy
  Cs  Cs0  1  0.25137800  0.99243600  0.65033600  1
  Cs  Cs1  1  0.75137800  0.50756400  0.34966400  1
  Cs  Cs2  1  0.74862200  0.49243600  0.84966400  1
  Cs  Cs3  1  0.24862200  0.00756400  0.15033600  1
  H  H0  1  0.35585600  0.99669400  0.94533000  1
  H  H1  1  0.85585600  0.50330600  0.05467000  1
  H  H2  1  0.64414400  0.49669400  0.55467000  1
  H  H3  1  0.14414400  0.00330600  0.44533000  1
  O  O0  1  0.23431800  0.99884200  0.88399900  1
  O  O1  1  0.73431800  0.50115800  0.11600100  1
  O  O2  1  0.76568200  0.49884200  0.61600100  1
  O  O3  1  0.26568200  0.00115800  0.38399900  1
loop_
_geom_bond_atom_site_label_1
_geom_bond_atom_site_label_2
_geom_bond_distance
_geom_bond_site_symmetry_2
Cs0 H3 2.745432 1_565
Cs0 H2 3.082782 1_555
Cs0 O0 3.082930 1_555
Cs0 O2 3.108660 1_455
Cs0 H2 3.110241 1_565
Cs0 O2 3.149541 1_465
Cs0 O2 3.197005 1_555
Cs0 O2 3.236770 1_565
Cs1 H2 2.745432 1_555
Cs1 H3 3.082782 1_665
Cs1 O1 3.082930 1_555
Cs1 O3 3.108660 1_565
Cs1 H3 3.110241 1_655
Cs1 O3 3.149541 1_555
Cs1 O3 3.197005 1_665
Cs1 O3 3.236770 1_655
Cs2 H1 2.745432 1_556
Cs2 H0 3.082782 1_545
Cs2 O2 3.082930 1_555
Cs2 O0 3.108660 1_645
Cs2 H0 3.110241 1_555
Cs2 O0 3.149541 1_655
Cs2 O0 3.197005 1_545
Cs2 O0 3.236770 1_555
Cs3 H0 2.745432 1_544
Cs3 H1 3.082782 1_455
Cs3 O3 3.082930 1_555
Cs3 O1 3.108660 1_555
Cs3 H1 3.110241 1_445
Cs3 O1 3.149541 1_545
Cs3 O1 3.197005 1_455
Cs3 O1 3.236770 1_445
H0 O0 0.970610 1_555
H1 O1 0.970610 1_555
H2 O2 0.970610 1_555
H3 O3 0.970610 1_555
