# generated using pymatgen
data_Al12Si12Ag16S5O48
_symmetry_space_group_name_H-M   'P 1'
_cell_length_a   9.03001903
_cell_length_b   8.98361136
_cell_length_c   17.95618854
_cell_angle_alpha   90.17567125
_cell_angle_beta   89.93642008
_cell_angle_gamma   89.91240709
_symmetry_Int_Tables_number   1
_chemical_formula_structural   Al12Si12Ag16S5O48
_chemical_formula_sum   'Al12 Si12 Ag16 S5 O48'
_cell_volume   1456.63573324
_cell_formula_units_Z   1
loop_
 _symmetry_equiv_pos_site_id
 _symmetry_equiv_pos_as_xyz
  1  'x, y, z'
loop_
 _atom_site_type_symbol
 _atom_site_label
 _atom_site_symmetry_multiplicity
 _atom_site_fract_x
 _atom_site_fract_y
 _atom_site_fract_z
 _atom_site_occupancy
  Al  Al0  1  0.99775600  0.75001800  0.24693200  1
  Al  Al1  1  0.99663500  0.25016900  0.75117400  1
  Al  Al2  1  0.99861500  0.75009100  0.75083100  1
  Al  Al3  1  0.24684600  0.49995400  0.99896900  1
  Al  Al4  1  0.25033900  0.50179400  0.50037900  1
  Al  Al5  1  0.49877600  0.99967800  0.37263300  1
  Al  Al6  1  0.49996600  0.99804100  0.12329300  1
  Al  Al7  1  0.49906300  0.00097200  0.62599800  1
  Al  Al8  1  0.49972100  0.00280900  0.87453600  1
  Al  Al9  1  0.74572000  0.49906900  0.99894200  1
  Al  Al10  1  0.74880300  0.49862400  0.50047500  1
  Al  Al11  1  0.99819000  0.25084500  0.24672800  1
  Si  Si0  1  0.99578200  0.50049300  0.12306500  1
  Si  Si1  1  0.24861200  0.99941900  0.24731600  1
  Si  Si2  1  0.24787300  0.00097000  0.75027800  1
  Si  Si3  1  0.49813300  0.74933600  0.99943800  1
  Si  Si4  1  0.49902300  0.74911900  0.50023700  1
  Si  Si5  1  0.49921400  0.25084300  0.99859100  1
  Si  Si6  1  0.50025000  0.25132400  0.50021600  1
  Si  Si7  1  0.74879200  0.99977800  0.24702400  1
  Si  Si8  1  0.74848500  0.00080400  0.75068500  1
  Si  Si9  1  0.99946200  0.50027100  0.37354700  1
  Si  Si10  1  0.99937900  0.49956300  0.62597100  1
  Si  Si11  1  0.99536100  0.49927600  0.87486200  1
  Ag  Ag0  1  0.16631400  0.16066200  0.07658100  1
  Ag  Ag1  1  0.17886800  0.18163000  0.59051000  1
  Ag  Ag2  1  0.18073300  0.81718200  0.40762500  1
  Ag  Ag3  1  0.16577900  0.83569400  0.91887300  1
  Ag  Ag4  1  0.33916600  0.33902100  0.32729100  1
  Ag  Ag5  1  0.34987500  0.64519800  0.17165800  1
  Ag  Ag6  1  0.34534400  0.34649800  0.82859600  1
  Ag  Ag7  1  0.34356500  0.65957700  0.67676800  1
  Ag  Ag8  1  0.64294400  0.35082400  0.17125100  1
  Ag  Ag9  1  0.65897300  0.66105100  0.32670600  1
  Ag  Ag10  1  0.65731700  0.34335100  0.67758900  1
  Ag  Ag11  1  0.65245900  0.65321100  0.82772800  1
  Ag  Ag12  1  0.81757200  0.18243200  0.40744500  1
  Ag  Ag13  1  0.84629500  0.83812400  0.06953300  1
  Ag  Ag14  1  0.84675200  0.15044200  0.92261600  1
  Ag  Ag15  1  0.81912700  0.81834100  0.59090500  1
  S  S0  1  0.10705600  0.00240900  0.49765300  1
  S  S1  1  0.49726900  0.49967100  0.75056200  1
  S  S2  1  0.49755900  0.49978100  0.25698100  1
  S  S3  1  0.00528300  0.00479700  0.00143000  1
  S  S4  1  0.88891600  0.99739600  0.49740900  1
  O  O0  1  0.06242600  0.63678500  0.17415200  1
  O  O1  1  0.05833900  0.36010000  0.32322500  1
  O  O2  1  0.06017800  0.63939700  0.67567600  1
  O  O3  1  0.06140600  0.36321200  0.82356400  1
  O  O4  1  0.13257000  0.43580300  0.07197500  1
  O  O5  1  0.13672000  0.43774200  0.57385900  1
  O  O6  1  0.13678000  0.56119500  0.42593700  1
  O  O7  1  0.13201500  0.56424700  0.92602200  1
  O  O8  1  0.14654300  0.13736500  0.21688100  1
  O  O9  1  0.14478800  0.13866600  0.71870500  1
  O  O10  1  0.14609900  0.86163900  0.27935600  1
  O  O11  1  0.14462700  0.86423500  0.78161600  1
  O  O12  1  0.34957900  0.06079000  0.31760700  1
  O  O13  1  0.35182000  0.93476800  0.17966300  1
  O  O14  1  0.35025100  0.06326300  0.81816700  1
  O  O15  1  0.34853900  0.93941000  0.68016900  1
  O  O16  1  0.36332600  0.35464400  0.47071500  1
  O  O17  1  0.35862100  0.64899600  0.02978400  1
  O  O18  1  0.36045100  0.35236700  0.96831900  1
  O  O19  1  0.35805200  0.65175500  0.53110700  1
  O  O20  1  0.43727100  0.14397900  0.06601000  1
  O  O21  1  0.43909200  0.14851700  0.56899800  1
  O  O22  1  0.44132200  0.85146900  0.43033500  1
  O  O23  1  0.43734400  0.85648700  0.93201700  1
  O  O24  1  0.55691600  0.14855300  0.42991900  1
  O  O25  1  0.56415700  0.15315600  0.92853100  1
  O  O26  1  0.56414600  0.84820100  0.06891500  1
  O  O27  1  0.55931700  0.85254900  0.56919000  1
  O  O28  1  0.63370200  0.35325200  0.03212200  1
  O  O29  1  0.63650800  0.64633200  0.47080100  1
  O  O30  1  0.63308300  0.64552300  0.96654000  1
  O  O31  1  0.64115500  0.34831700  0.53093600  1
  O  O32  1  0.64526100  0.06519400  0.17993100  1
  O  O33  1  0.64791300  0.93803000  0.31735500  1
  O  O34  1  0.64855100  0.06252000  0.68058700  1
  O  O35  1  0.64561200  0.93546500  0.81770100  1
  O  O36  1  0.85094200  0.13797300  0.27923500  1
  O  O37  1  0.84991800  0.13769800  0.78277100  1
  O  O38  1  0.85093000  0.86286700  0.21583400  1
  O  O39  1  0.85214400  0.86333000  0.71844500  1
  O  O40  1  0.86287900  0.43857200  0.42610600  1
  O  O41  1  0.85716300  0.43469300  0.92480600  1
  O  O42  1  0.85851500  0.56550000  0.07230400  1
  O  O43  1  0.86303300  0.56198800  0.57374700  1
  O  O44  1  0.93718900  0.36026800  0.67542900  1
  O  O45  1  0.93136900  0.36408300  0.17463500  1
  O  O46  1  0.93995500  0.64066900  0.32387400  1
  O  O47  1  0.93351600  0.63788400  0.82359600  1
loop_
_geom_bond_atom_site_label_1
_geom_bond_atom_site_label_2
_geom_bond_distance
_geom_bond_site_symmetry_2
Al0 O0 1.752712 1_655
Al0 O38 1.760240 1_555
Al0 O10 1.772321 1_655
Al0 O46 1.776092 1_555
Al1 O3 1.748832 1_655
Al1 O37 1.761813 1_555
Al1 O9 1.767393 1_655
Al1 O44 1.767637 1_555
Al2 O47 1.754142 1_555
Al2 O11 1.760045 1_655
Al2 O2 1.762809 1_655
Al2 O39 1.767386 1_555
Al3 O18 1.761619 1_555
Al3 O17 1.765924 1_556
Al3 O4 1.766044 1_556
Al3 O7 1.769279 1_555
Al4 O16 1.750015 1_555
Al4 O19 1.751014 1_555
Al4 O5 1.768636 1_555
Al4 O6 1.768838 1_555
Al5 O12 1.759765 1_565
Al5 O33 1.759815 1_555
Al5 O24 1.765607 1_565
Al5 O22 1.767718 1_555
Al6 O26 1.757717 1_555
Al6 O20 1.761999 1_565
Al6 O32 1.766704 1_565
Al6 O13 1.772028 1_555
Al7 O34 1.758012 1_555
Al7 O15 1.761306 1_545
Al7 O27 1.761434 1_545
Al7 O21 1.762127 1_555
Al8 O25 1.760250 1_555
Al8 O23 1.766291 1_545
Al8 O35 1.770268 1_545
Al8 O14 1.773511 1_555
Al9 O28 1.761149 1_556
Al9 O30 1.762378 1_555
Al9 O41 1.763459 1_555
Al9 O42 1.768865 1_556
Al10 O29 1.753391 1_555
Al10 O31 1.753496 1_555
Al10 O43 1.766144 1_555
Al10 O40 1.768119 1_555
Al11 O45 1.755750 1_555
Al11 O8 1.764092 1_655
Al11 O1 1.772044 1_655
Al11 O36 1.772824 1_555
Ag0 S3 2.427969 1_555
Ag0 O20 2.458198 1_555
Ag0 O4 2.491644 1_555
Ag0 O8 2.534692 1_555
Ag1 O5 2.351547 1_555
Ag1 O9 2.355129 1_555
Ag1 O21 2.398861 1_555
Ag1 S0 2.404576 1_555
Ag2 O6 2.358251 1_555
Ag2 O10 2.359875 1_555
Ag2 O22 2.408720 1_555
Ag2 S0 2.408848 1_565
Ag3 O7 2.461745 1_555
Ag3 O23 2.471129 1_555
Ag3 O11 2.486224 1_555
Ag3 S3 2.565244 1_566
Ag4 S2 2.395591 1_555
Ag4 O12 2.506642 1_555
Ag4 O1 2.543790 1_555
Ag4 O16 2.588211 1_555
Ag5 S2 2.417395 1_555
Ag5 O17 2.548987 1_555
Ag5 O0 2.597226 1_555
Ag5 O13 2.604999 1_555
Ag6 S1 2.398384 1_555
Ag6 O18 2.513146 1_555
Ag6 O14 2.551096 1_555
Ag6 O3 2.569834 1_555
Ag7 S1 2.399057 1_555
Ag7 O15 2.514936 1_555
Ag7 O2 2.565772 1_555
Ag7 O19 2.619363 1_555
Ag8 S2 2.421041 1_555
Ag8 O28 2.499874 1_555
Ag8 O32 2.571250 1_555
Ag8 O45 2.608154 1_555
Ag9 S2 2.406320 1_555
Ag9 O33 2.496298 1_555
Ag9 O46 2.544033 1_555
Ag9 O29 2.598899 1_555
Ag10 S1 2.399178 1_555
Ag10 O34 2.524976 1_555
Ag10 O44 2.532308 1_555
Ag10 O31 2.638042 1_555
Ag11 S1 2.405167 1_555
Ag11 O30 2.499647 1_555
Ag11 O47 2.542460 1_555
Ag11 O35 2.543257 1_555
Ag12 O36 2.354301 1_555
Ag12 O40 2.360721 1_555
Ag12 O24 2.407562 1_555
Ag12 S4 2.409006 1_545
Ag13 S3 2.410899 1_665
Ag13 O42 2.452124 1_555
Ag13 O26 2.549318 1_555
Ag13 O38 2.636100 1_555
Ag14 S3 2.402950 1_656
Ag14 O37 2.513470 1_555
Ag14 O25 2.554006 1_555
Ag14 O41 2.555658 1_555
Ag15 O39 2.343747 1_555
Ag15 O43 2.355503 1_555
Ag15 O27 2.398160 1_555
Ag15 S4 2.412551 1_555
S0 S4 1.970401 1_445
O0 Si0 1.642980 1_455
O1 Si9 1.635463 1_455
O2 Si10 1.634745 1_455
O3 Si11 1.639485 1_455
O4 Si0 1.642273 1_455
O5 Si10 1.647497 1_455
O6 Si9 1.650329 1_455
O7 Si11 1.645822 1_455
O8 Si1 1.638807 1_545
O9 Si2 1.649257 1_555
O10 Si1 1.651255 1_555
O11 Si2 1.643573 1_565
O12 Si1 1.651695 1_545
O13 Si1 1.634967 1_555
O14 Si2 1.629034 1_555
O15 Si2 1.645786 1_565
O16 Si6 1.634579 1_555
O17 Si3 1.643627 1_554
O18 Si5 1.642698 1_555
O19 Si4 1.642434 1_555
O20 Si5 1.645389 1_554
O21 Si6 1.640246 1_555
O22 Si4 1.642997 1_555
O23 Si3 1.643332 1_555
O24 Si6 1.642414 1_555
O25 Si5 1.639106 1_555
O26 Si3 1.642256 1_554
O27 Si4 1.639744 1_555
O28 Si5 1.638718 1_554
O29 Si4 1.632601 1_555
O30 Si3 1.641726 1_555
O31 Si6 1.638433 1_555
O32 Si7 1.635823 1_545
O33 Si7 1.653986 1_555
O34 Si8 1.646606 1_555
O35 Si8 1.630662 1_565
O36 Si7 1.651352 1_545
O37 Si8 1.638162 1_555
O38 Si7 1.633482 1_555
O39 Si8 1.651498 1_565
O40 Si9 1.649778 1_555
O41 Si11 1.643511 1_555
O42 Si0 1.646759 1_555
O43 Si10 1.647243 1_555
O44 Si10 1.636410 1_555
O45 Si0 1.644833 1_555
O46 Si9 1.637381 1_555
O47 Si11 1.647982 1_555
