# generated using pymatgen
data_Co7Te4(BrO2)6
_symmetry_space_group_name_H-M   'P 1'
_cell_length_a   11.30387280
_cell_length_b   11.30387280
_cell_length_c   14.83883329
_cell_angle_alpha   58.30575192
_cell_angle_beta   58.30575192
_cell_angle_gamma   44.94700907
_symmetry_Int_Tables_number   1
_chemical_formula_structural   Co7Te4(BrO2)6
_chemical_formula_sum   'Co14 Te8 Br12 O24'
_cell_volume   1101.91006536
_cell_formula_units_Z   2
loop_
 _symmetry_equiv_pos_site_id
 _symmetry_equiv_pos_as_xyz
  1  'x, y, z'
loop_
 _atom_site_type_symbol
 _atom_site_label
 _atom_site_symmetry_multiplicity
 _atom_site_fract_x
 _atom_site_fract_y
 _atom_site_fract_z
 _atom_site_occupancy
  Co  Co0  1  0.52661800  0.89417000  0.61948900  1
  Co  Co1  1  0.47765300  0.10295100  0.87650800  1
  Co  Co2  1  0.47338200  0.10583000  0.38051100  1
  Co  Co3  1  0.89704900  0.52234700  0.62349200  1
  Co  Co4  1  0.52234700  0.89704900  0.12349200  1
  Co  Co5  1  0.26724100  0.06265500  0.83893900  1
  Co  Co6  1  0.00000000  0.00000000  0.50000000  1
  Co  Co7  1  0.10583000  0.47338200  0.88051100  1
  Co  Co8  1  0.73275900  0.93734500  0.16106100  1
  Co  Co9  1  0.93734500  0.73275900  0.66106100  1
  Co  Co10  1  0.00000000  0.00000000  0.00000000  1
  Co  Co11  1  0.89417000  0.52661800  0.11948900  1
  Co  Co12  1  0.10295100  0.47765300  0.37650800  1
  Co  Co13  1  0.06265500  0.26724100  0.33893900  1
  Te  Te0  1  0.32331800  0.32653800  0.63807100  1
  Te  Te1  1  0.12470500  0.11068900  0.59971500  1
  Te  Te2  1  0.32653800  0.32331800  0.13807100  1
  Te  Te3  1  0.67346200  0.67668200  0.86192900  1
  Te  Te4  1  0.88931100  0.87529500  0.90028500  1
  Te  Te5  1  0.87529500  0.88931100  0.40028500  1
  Te  Te6  1  0.11068900  0.12470500  0.09971500  1
  Te  Te7  1  0.67668200  0.67346200  0.36192900  1
  Br  Br0  1  0.90234100  0.27497200  0.82506500  1
  Br  Br1  1  0.72502800  0.09765900  0.67493500  1
  Br  Br2  1  0.27497200  0.90234100  0.32506500  1
  Br  Br3  1  0.60291900  0.62876300  0.11103800  1
  Br  Br4  1  0.29157400  0.81071000  0.85000500  1
  Br  Br5  1  0.81071000  0.29157400  0.35000500  1
  Br  Br6  1  0.39708000  0.37123700  0.88896200  1
  Br  Br7  1  0.18929000  0.70842600  0.64999500  1
  Br  Br8  1  0.09765900  0.72502800  0.17493500  1
  Br  Br9  1  0.62876300  0.60292000  0.61103800  1
  Br  Br10  1  0.70842600  0.18929000  0.14999500  1
  Br  Br11  1  0.37123700  0.39708100  0.38896200  1
  O  O0  1  0.05835200  0.33806300  0.54273200  1
  O  O1  1  0.87256800  0.93583500  0.00756000  1
  O  O2  1  0.49253900  0.08527800  0.14206800  1
  O  O3  1  0.00392500  0.36275600  0.03053600  1
  O  O4  1  0.99607500  0.63724400  0.96946400  1
  O  O5  1  0.93583500  0.87256800  0.50756000  1
  O  O6  1  0.06416500  0.12743200  0.49244000  1
  O  O7  1  0.27190700  0.28194600  0.79915300  1
  O  O8  1  0.50746100  0.91472200  0.85793200  1
  O  O9  1  0.08527800  0.49253900  0.64206800  1
  O  O10  1  0.12315100  0.34699600  0.17308600  1
  O  O11  1  0.12743200  0.06416500  0.99244000  1
  O  O12  1  0.91472200  0.50746100  0.35793200  1
  O  O13  1  0.87684900  0.65300400  0.82691400  1
  O  O14  1  0.34699600  0.12315100  0.67308600  1
  O  O15  1  0.66193700  0.94164800  0.95726800  1
  O  O16  1  0.63724400  0.99607500  0.46946400  1
  O  O17  1  0.33806300  0.05835200  0.04273200  1
  O  O18  1  0.65300400  0.87684900  0.32691400  1
  O  O19  1  0.94164800  0.66193700  0.45726800  1
  O  O20  1  0.28194600  0.27190700  0.29915300  1
  O  O21  1  0.72809300  0.71805400  0.20084700  1
  O  O22  1  0.71805400  0.72809300  0.70084700  1
  O  O23  1  0.36275600  0.00392500  0.53053600  1
loop_
_geom_bond_atom_site_label_1
_geom_bond_atom_site_label_2
_geom_bond_distance
_geom_bond_site_symmetry_2
Co0 O16 2.065393 1_555
Co0 O22 2.068259 1_555
Co0 O23 2.075530 1_565
Co0 O14 2.117035 1_565
Co1 O15 2.012641 1_545
Co1 O8 2.054398 1_545
Co1 O7 2.127003 1_555
Co1 O17 2.134874 1_556
Co2 O23 2.065393 1_555
Co2 O20 2.068259 1_555
Co2 O16 2.075530 1_545
Co2 O18 2.117035 1_545
Co3 O0 2.012641 1_655
Co3 O9 2.054398 1_655
Co3 O22 2.127003 1_555
Co3 O19 2.134874 1_555
Co4 O17 2.012641 1_565
Co4 O2 2.054398 1_565
Co4 O21 2.127003 1_555
Co4 O15 2.134874 1_554
Co5 O11 1.976438 1_555
Co5 O14 2.027341 1_555
Co5 O8 2.032391 1_545
Co5 O7 2.260655 1_555
Co6 O6 1.958894 1_555
Co6 O5 1.958894 1_445
Co7 O3 2.065393 1_556
Co7 O7 2.068259 1_555
Co7 O4 2.075530 1_455
Co7 O13 2.117035 1_455
Co8 O1 1.976438 1_555
Co8 O18 2.027341 1_555
Co8 O2 2.032391 1_565
Co8 O21 2.260655 1_555
Co9 O5 1.976438 1_555
Co9 O13 2.027341 1_555
Co9 O9 2.032391 1_655
Co9 O22 2.260655 1_555
Co10 O11 1.958894 1_554
Co10 O1 1.958894 1_445
Co11 O4 2.065393 1_554
Co11 O21 2.068259 1_555
Co11 O3 2.075530 1_655
Co11 O10 2.117035 1_655
Co12 O19 2.012641 1_455
Co12 O12 2.054398 1_455
Co12 O20 2.127003 1_555
Co12 O0 2.134874 1_555
Co13 O6 1.976438 1_555
Co13 O10 2.027341 1_555
Co13 O12 2.032391 1_455
Co13 O20 2.260655 1_555
Br0 Co10 2.700761 1_656
Br0 Co3 2.816402 1_555
Br0 Co5 3.029259 1_655
Br1 Co6 2.700761 1_655
Br1 Co1 2.816402 1_555
Br1 Co9 3.029259 1_545
Br2 Co6 2.700761 1_565
Br2 Co4 2.816402 1_555
Br2 Co13 3.029259 1_565
Br3 Co4 2.561838 1_555
Br3 Co11 2.662457 1_555
Br3 Te3 3.162829 1_554
Br4 Co5 2.580829 1_565
Br4 Co10 2.776440 1_566
Br4 Co0 3.202691 1_555
Br5 Co13 2.580829 1_655
Br5 Co6 2.776440 1_655
Br5 Co11 3.202691 1_555
Br6 Co1 2.561832 1_555
Br6 Co7 2.662447 1_555
Br6 Te2 3.162832 1_556
Br7 Co9 2.580829 1_455
Br7 Co6 2.776440 1_565
Br7 Co7 3.202691 1_555
Br8 Co10 2.700761 1_565
Br8 Co12 2.816402 1_555
Br8 Co8 3.029259 1_455
Br9 Co3 2.561832 1_555
Br9 Co0 2.662447 1_555
Br9 Te7 3.162832 1_555
Br10 Co8 2.580829 1_545
Br10 Co10 2.776440 1_655
Br10 Co2 3.202691 1_555
Br11 Co12 2.561838 1_555
Br11 Co2 2.662457 1_555
Br11 Te0 3.162829 1_555
O0 Te1 1.880825 1_555
O1 Te4 1.919071 1_554
O2 Te2 1.888647 1_555
O3 Te6 1.885073 1_555
O4 Te4 1.885073 1_555
O5 Te5 1.919071 1_555
O6 Te1 1.919071 1_555
O7 Te0 1.998552 1_555
O8 Te3 1.888647 1_555
O9 Te0 1.888647 1_555
O10 Te2 1.909757 1_555
O11 Te6 1.919071 1_556
O12 Te7 1.888647 1_555
O13 Te3 1.909757 1_555
O14 Te0 1.909757 1_555
O15 Te4 1.880825 1_555
O16 Te5 1.885073 1_555
O17 Te6 1.880825 1_555
O18 Te7 1.909757 1_555
O19 Te5 1.880825 1_555
O20 Te2 1.998552 1_555
O21 Te7 1.998552 1_555
O22 Te3 1.998552 1_555
O23 Te1 1.885073 1_555
