# generated using pymatgen
data_Rb
_symmetry_space_group_name_H-M   'P 1'
_cell_length_a   10.17755776
_cell_length_b   10.17756135
_cell_length_c   33.76745176
_cell_angle_alpha   90.00000000
_cell_angle_beta   90.00000000
_cell_angle_gamma   120.00000269
_symmetry_Int_Tables_number   1
_chemical_formula_structural   Rb
_chemical_formula_sum   Rb32
_cell_volume   3029.11814743
_cell_formula_units_Z   32
loop_
 _symmetry_equiv_pos_site_id
 _symmetry_equiv_pos_as_xyz
  1  'x, y, z'
loop_
 _atom_site_type_symbol
 _atom_site_label
 _atom_site_symmetry_multiplicity
 _atom_site_fract_x
 _atom_site_fract_y
 _atom_site_fract_z
 _atom_site_occupancy
  Rb  Rb0_0  1  0.00000000  0.00000000  0.00000000  1
  Rb  Rb0_1  1  0.00000000  0.00000000  0.50000000  1
  Rb  Rb0_2  1  0.00000000  0.50000000  0.00000000  1
  Rb  Rb0_3  1  0.00000000  0.50000000  0.50000000  1
  Rb  Rb0_4  1  0.50000000  0.00000000  0.00000000  1
  Rb  Rb0_5  1  0.50000000  0.00000000  0.50000000  1
  Rb  Rb0_6  1  0.50000000  0.50000000  0.00000000  1
  Rb  Rb0_7  1  0.50000000  0.50000000  0.50000000  1
  Rb  Rb1_0  1  0.16666650  0.33333350  0.37500000  1
  Rb  Rb1_1  1  0.16666650  0.33333350  0.87500000  1
  Rb  Rb1_2  1  0.16666650  0.83333350  0.37500000  1
  Rb  Rb1_3  1  0.16666650  0.83333350  0.87500000  1
  Rb  Rb1_4  1  0.66666650  0.33333350  0.37500000  1
  Rb  Rb1_5  1  0.66666650  0.33333350  0.87500000  1
  Rb  Rb1_6  1  0.66666650  0.83333350  0.37500000  1
  Rb  Rb1_7  1  0.66666650  0.83333350  0.87500000  1
  Rb  Rb2_0  1  0.00000000  0.00000000  0.25000000  1
  Rb  Rb2_1  1  0.00000000  0.00000000  0.75000000  1
  Rb  Rb2_2  1  0.00000000  0.50000000  0.25000000  1
  Rb  Rb2_3  1  0.00000000  0.50000000  0.75000000  1
  Rb  Rb2_4  1  0.50000000  0.00000000  0.25000000  1
  Rb  Rb2_5  1  0.50000000  0.00000000  0.75000000  1
  Rb  Rb2_6  1  0.50000000  0.50000000  0.25000000  1
  Rb  Rb2_7  1  0.50000000  0.50000000  0.75000000  1
  Rb  Rb3_0  1  0.33333350  0.16666650  0.12500000  1
  Rb  Rb3_1  1  0.33333350  0.16666650  0.62500000  1
  Rb  Rb3_2  1  0.33333350  0.66666650  0.12500000  1
  Rb  Rb3_3  1  0.33333350  0.66666650  0.62500000  1
  Rb  Rb3_4  1  0.83333350  0.16666650  0.12500000  1
  Rb  Rb3_5  1  0.83333350  0.16666650  0.62500000  1
  Rb  Rb3_6  1  0.83333350  0.66666650  0.12500000  1
  Rb  Rb3_7  1  0.83333350  0.66666650  0.62500000  1
loop_
_geom_bond_atom_site_label_1
_geom_bond_atom_site_label_2
_geom_bond_distance
_geom_bond_site_symmetry_2
Rb0_0 Rb0_4 5.088779 1_555
Rb0_0 Rb0_4 5.088779 1_455
Rb0_0 Rb0_6 5.088780 1_445
Rb0_0 Rb0_6 5.088780 1_555
Rb0_0 Rb0_2 5.088781 1_545
Rb0_0 Rb0_2 5.088781 1_555
Rb0_0 Rb1_3 5.142775 1_544
Rb0_0 Rb3_4 5.142775 1_455
Rb0_0 Rb3_0 5.142778 1_555
Rb0_0 Rb1_7 5.142778 1_444
Rb0_0 Rb3_6 5.142778 1_445
Rb0_0 Rb1_1 5.142778 1_554
Rb0_1 Rb0_5 5.088779 1_455
Rb0_1 Rb0_5 5.088779 1_555
Rb0_1 Rb0_7 5.088780 1_445
Rb0_1 Rb0_7 5.088780 1_555
Rb0_1 Rb0_3 5.088781 1_555
Rb0_1 Rb0_3 5.088781 1_545
Rb0_1 Rb1_2 5.142775 1_545
Rb0_1 Rb3_5 5.142775 1_455
Rb0_1 Rb1_6 5.142778 1_445
Rb0_1 Rb3_1 5.142778 1_555
Rb0_1 Rb3_7 5.142778 1_445
Rb0_1 Rb1_0 5.142778 1_555
Rb0_2 Rb0_6 5.088779 1_555
Rb0_2 Rb0_6 5.088779 1_455
Rb0_2 Rb0_4 5.088780 1_565
Rb0_2 Rb0_4 5.088780 1_455
Rb0_2 Rb1_1 5.142775 1_554
Rb0_2 Rb3_6 5.142775 1_455
Rb0_2 Rb3_2 5.142778 1_555
Rb0_2 Rb1_5 5.142778 1_454
Rb0_2 Rb3_4 5.142778 1_455
Rb0_2 Rb1_3 5.142778 1_554
Rb0_3 Rb0_7 5.088779 1_555
Rb0_3 Rb0_7 5.088779 1_455
Rb0_3 Rb0_5 5.088780 1_455
Rb0_3 Rb0_5 5.088780 1_565
Rb0_3 Rb1_0 5.142775 1_555
Rb0_3 Rb3_7 5.142775 1_455
Rb0_3 Rb3_3 5.142778 1_555
Rb0_3 Rb1_4 5.142778 1_455
Rb0_3 Rb3_5 5.142778 1_455
Rb0_3 Rb1_2 5.142778 1_555
Rb0_4 Rb0_6 5.088781 1_545
Rb0_4 Rb0_6 5.088781 1_555
Rb0_4 Rb1_7 5.142775 1_544
Rb0_4 Rb3_0 5.142775 1_555
Rb0_4 Rb1_3 5.142778 1_544
Rb0_4 Rb3_4 5.142778 1_555
Rb0_4 Rb3_2 5.142778 1_545
Rb0_4 Rb1_5 5.142778 1_554
Rb0_5 Rb0_7 5.088781 1_545
Rb0_5 Rb0_7 5.088781 1_555
Rb0_5 Rb1_6 5.142775 1_545
Rb0_5 Rb3_1 5.142775 1_555
Rb0_5 Rb3_5 5.142778 1_555
Rb0_5 Rb1_2 5.142778 1_545
Rb0_5 Rb3_3 5.142778 1_545
Rb0_5 Rb1_4 5.142778 1_555
Rb0_6 Rb3_2 5.142775 1_555
Rb0_6 Rb1_5 5.142775 1_554
Rb0_6 Rb1_1 5.142778 1_554
Rb0_6 Rb3_6 5.142778 1_555
Rb0_6 Rb1_7 5.142778 1_554
Rb0_6 Rb3_0 5.142778 1_555
Rb0_7 Rb3_3 5.142775 1_555
Rb0_7 Rb1_4 5.142775 1_555
Rb0_7 Rb1_0 5.142778 1_555
Rb0_7 Rb3_7 5.142778 1_555
Rb0_7 Rb3_1 5.142778 1_555
Rb0_7 Rb1_6 5.142778 1_555
Rb1_0 Rb1_4 5.088779 1_555
Rb1_0 Rb1_4 5.088779 1_455
Rb1_0 Rb1_6 5.088780 1_445
Rb1_0 Rb1_6 5.088780 1_555
Rb1_0 Rb1_2 5.088781 1_545
Rb1_0 Rb1_2 5.088781 1_555
Rb1_0 Rb2_2 5.142775 1_555
Rb1_0 Rb2_6 5.142778 1_555
Rb1_0 Rb2_0 5.142778 1_555
Rb1_1 Rb1_5 5.088779 1_555
Rb1_1 Rb1_5 5.088779 1_455
Rb1_1 Rb1_7 5.088780 1_445
Rb1_1 Rb1_7 5.088780 1_555
Rb1_1 Rb1_3 5.088781 1_545
Rb1_1 Rb1_3 5.088781 1_555
Rb1_1 Rb2_3 5.142775 1_555
Rb1_1 Rb2_7 5.142778 1_555
Rb1_1 Rb2_1 5.142778 1_555
Rb1_2 Rb1_6 5.088779 1_555
Rb1_2 Rb1_6 5.088779 1_455
Rb1_2 Rb1_4 5.088780 1_565
Rb1_2 Rb1_4 5.088780 1_455
Rb1_2 Rb2_0 5.142775 1_565
Rb1_2 Rb2_4 5.142778 1_565
Rb1_2 Rb2_2 5.142778 1_555
Rb1_3 Rb1_7 5.088779 1_555
Rb1_3 Rb1_7 5.088779 1_455
Rb1_3 Rb1_5 5.088780 1_565
Rb1_3 Rb1_5 5.088780 1_455
Rb1_3 Rb2_1 5.142775 1_565
Rb1_3 Rb2_5 5.142778 1_565
Rb1_3 Rb2_3 5.142778 1_555
Rb1_4 Rb1_6 5.088781 1_545
Rb1_4 Rb1_6 5.088781 1_555
Rb1_4 Rb2_6 5.142775 1_555
Rb1_4 Rb2_2 5.142778 1_655
Rb1_4 Rb2_4 5.142778 1_555
Rb1_5 Rb1_7 5.088781 1_545
Rb1_5 Rb1_7 5.088781 1_555
Rb1_5 Rb2_7 5.142775 1_555
Rb1_5 Rb2_3 5.142778 1_655
Rb1_5 Rb2_5 5.142778 1_555
Rb1_6 Rb2_4 5.142775 1_565
Rb1_6 Rb2_0 5.142778 1_665
Rb1_6 Rb2_6 5.142778 1_555
Rb1_7 Rb2_5 5.142775 1_565
Rb1_7 Rb2_1 5.142778 1_665
Rb1_7 Rb2_7 5.142778 1_555
Rb2_0 Rb2_4 5.088779 1_455
Rb2_0 Rb2_4 5.088779 1_555
Rb2_0 Rb2_6 5.088780 1_445
Rb2_0 Rb2_6 5.088780 1_555
Rb2_0 Rb2_2 5.088781 1_545
Rb2_0 Rb2_2 5.088781 1_555
Rb2_0 Rb3_4 5.142775 1_455
Rb2_0 Rb3_0 5.142778 1_555
Rb2_0 Rb3_6 5.142778 1_445
Rb2_1 Rb2_5 5.088779 1_455
Rb2_1 Rb2_5 5.088779 1_555
Rb2_1 Rb2_7 5.088780 1_445
Rb2_1 Rb2_7 5.088780 1_555
Rb2_1 Rb2_3 5.088781 1_555
Rb2_1 Rb2_3 5.088781 1_545
Rb2_1 Rb3_5 5.142775 1_455
Rb2_1 Rb3_1 5.142778 1_555
Rb2_1 Rb3_7 5.142778 1_445
Rb2_2 Rb2_6 5.088779 1_555
Rb2_2 Rb2_6 5.088779 1_455
Rb2_2 Rb2_4 5.088780 1_455
Rb2_2 Rb2_4 5.088780 1_565
Rb2_2 Rb3_6 5.142775 1_455
Rb2_2 Rb3_2 5.142778 1_555
Rb2_2 Rb3_4 5.142778 1_455
Rb2_3 Rb2_7 5.088779 1_555
Rb2_3 Rb2_7 5.088779 1_455
Rb2_3 Rb2_5 5.088780 1_455
Rb2_3 Rb2_5 5.088780 1_565
Rb2_3 Rb3_7 5.142775 1_455
Rb2_3 Rb3_3 5.142778 1_555
Rb2_3 Rb3_5 5.142778 1_455
Rb2_4 Rb2_6 5.088781 1_545
Rb2_4 Rb2_6 5.088781 1_555
Rb2_4 Rb3_0 5.142775 1_555
Rb2_4 Rb3_4 5.142778 1_555
Rb2_4 Rb3_2 5.142778 1_545
Rb2_5 Rb2_7 5.088781 1_545
Rb2_5 Rb2_7 5.088781 1_555
Rb2_5 Rb3_1 5.142775 1_555
Rb2_5 Rb3_5 5.142778 1_555
Rb2_5 Rb3_3 5.142778 1_545
Rb2_6 Rb3_2 5.142775 1_555
Rb2_6 Rb3_6 5.142778 1_555
Rb2_6 Rb3_0 5.142778 1_555
Rb2_7 Rb3_3 5.142775 1_555
Rb2_7 Rb3_7 5.142778 1_555
Rb2_7 Rb3_1 5.142778 1_555
Rb3_0 Rb3_4 5.088779 1_555
Rb3_0 Rb3_4 5.088779 1_455
Rb3_0 Rb3_6 5.088780 1_555
Rb3_0 Rb3_6 5.088780 1_445
Rb3_0 Rb3_2 5.088781 1_545
Rb3_0 Rb3_2 5.088781 1_555
Rb3_1 Rb3_5 5.088779 1_555
Rb3_1 Rb3_5 5.088779 1_455
Rb3_1 Rb3_7 5.088780 1_445
Rb3_1 Rb3_7 5.088780 1_555
Rb3_1 Rb3_3 5.088781 1_545
Rb3_1 Rb3_3 5.088781 1_555
Rb3_2 Rb3_6 5.088779 1_455
Rb3_2 Rb3_6 5.088779 1_555
Rb3_2 Rb3_4 5.088780 1_455
Rb3_2 Rb3_4 5.088780 1_565
Rb3_3 Rb3_7 5.088779 1_455
Rb3_3 Rb3_7 5.088779 1_555
Rb3_3 Rb3_5 5.088780 1_565
Rb3_3 Rb3_5 5.088780 1_455
Rb3_4 Rb3_6 5.088781 1_555
Rb3_4 Rb3_6 5.088781 1_545
Rb3_5 Rb3_7 5.088781 1_555
Rb3_5 Rb3_7 5.088781 1_545
