# generated using pymatgen
data_FeBiSbS4
_symmetry_space_group_name_H-M   'P 1'
_cell_length_a   3.65269500
_cell_length_b   11.58765600
_cell_length_c   13.84275800
_cell_angle_alpha   90.00000000
_cell_angle_beta   90.00000000
_cell_angle_gamma   90.00000000
_symmetry_Int_Tables_number   1
_chemical_formula_structural   FeBiSbS4
_chemical_formula_sum   'Fe4 Bi4 Sb4 S16'
_cell_volume   585.91097175
_cell_formula_units_Z   4
loop_
 _symmetry_equiv_pos_site_id
 _symmetry_equiv_pos_as_xyz
  1  'x, y, z'
loop_
 _atom_site_type_symbol
 _atom_site_label
 _atom_site_symmetry_multiplicity
 _atom_site_fract_x
 _atom_site_fract_y
 _atom_site_fract_z
 _atom_site_occupancy
  Fe  Fe0  1  0.25000000  0.83002200  0.83598000  1
  Fe  Fe1  1  0.75000000  0.16997800  0.16402000  1
  Fe  Fe2  1  0.25000000  0.33002200  0.66402000  1
  Fe  Fe3  1  0.75000000  0.66997800  0.33598000  1
  Bi  Bi0  1  0.75000000  0.03496000  0.61099000  1
  Bi  Bi1  1  0.25000000  0.46504000  0.11099000  1
  Bi  Bi2  1  0.25000000  0.96504000  0.38901000  1
  Bi  Bi3  1  0.75000000  0.53496000  0.88901000  1
  Sb  Sb0  1  0.25000000  0.14751200  0.93044300  1
  Sb  Sb1  1  0.75000000  0.85248800  0.06955700  1
  Sb  Sb2  1  0.25000000  0.64751200  0.56955700  1
  Sb  Sb3  1  0.75000000  0.35248800  0.43044300  1
  S  S0  1  0.75000000  0.43755400  0.60341900  1
  S  S1  1  0.25000000  0.56244600  0.39658100  1
  S  S2  1  0.25000000  0.73710600  0.98038900  1
  S  S3  1  0.25000000  0.06244600  0.10341900  1
  S  S4  1  0.75000000  0.22085800  0.71970600  1
  S  S5  1  0.75000000  0.10129600  0.31171000  1
  S  S6  1  0.75000000  0.26289400  0.01961100  1
  S  S7  1  0.75000000  0.60129600  0.18829000  1
  S  S8  1  0.25000000  0.23710600  0.51961100  1
  S  S9  1  0.75000000  0.76289400  0.48038900  1
  S  S10  1  0.25000000  0.77914200  0.28029400  1
  S  S11  1  0.25000000  0.89870400  0.68829000  1
  S  S12  1  0.75000000  0.72085800  0.78029400  1
  S  S13  1  0.75000000  0.93755400  0.89658100  1
  S  S14  1  0.25000000  0.39870400  0.81171000  1
  S  S15  1  0.25000000  0.27914200  0.21970600  1
loop_
_geom_bond_atom_site_label_1
_geom_bond_atom_site_label_2
_geom_bond_distance
_geom_bond_site_symmetry_2
Fe0 S11 2.193883 1_555
Fe0 S2 2.270531 1_555
Fe0 S12 2.351566 1_455
Fe0 S12 2.351566 1_555
Fe0 S13 2.364720 1_555
Fe0 S13 2.364720 1_455
Fe1 S5 2.193883 1_555
Fe1 S6 2.270531 1_555
Fe1 S15 2.351566 1_655
Fe1 S15 2.351566 1_555
Fe1 S3 2.364720 1_555
Fe1 S3 2.364720 1_655
Fe2 S14 2.193883 1_555
Fe2 S8 2.270531 1_555
Fe2 S4 2.351566 1_455
Fe2 S4 2.351566 1_555
Fe2 S0 2.364720 1_455
Fe2 S0 2.364720 1_555
Fe3 S7 2.193883 1_555
Fe3 S9 2.270531 1_555
Fe3 S10 2.351566 1_555
Fe3 S10 2.351566 1_655
Fe3 S1 2.364720 1_555
Fe3 S1 2.364720 1_655
Bi0 S4 2.627747 1_555
Bi0 S11 2.640725 1_545
Bi0 S11 2.640725 1_645
Bi1 S15 2.627747 1_555
Bi1 S7 2.640725 1_555
Bi1 S7 2.640725 1_455
Bi2 S10 2.627747 1_555
Bi2 S5 2.640725 1_465
Bi2 S5 2.640725 1_565
Bi3 S12 2.627747 1_555
Bi3 S14 2.640725 1_555
Bi3 S14 2.640725 1_655
S0 Sb3 2.589420 1_555
S0 Sb2 3.078047 1_555
S0 Sb2 3.078047 1_655
S1 Sb2 2.589420 1_555
S1 Sb3 3.078047 1_455
S1 Sb3 3.078047 1_555
S2 Sb1 2.578121 1_556
S2 Sb1 2.578121 1_456
S3 Sb0 2.589420 1_554
S3 Sb1 3.078047 1_545
S3 Sb1 3.078047 1_445
S6 Sb0 2.578121 1_654
S6 Sb0 2.578121 1_554
S8 Sb3 2.578121 1_555
S8 Sb3 2.578121 1_455
S9 Sb2 2.578121 1_555
S9 Sb2 2.578121 1_655
S13 Sb1 2.589420 1_556
S13 Sb0 3.078047 1_565
S13 Sb0 3.078047 1_665
