# generated using pymatgen
data_Tb14Ti10O41
_symmetry_space_group_name_H-M   'P 1'
_cell_length_a   7.29426357
_cell_length_b   7.29426357
_cell_length_c   17.69676519
_cell_angle_alpha   89.37181493
_cell_angle_beta   89.37181493
_cell_angle_gamma   60.20950617
_symmetry_Int_Tables_number   1
_chemical_formula_structural   Tb14Ti10O41
_chemical_formula_sum   'Tb14 Ti10 O41'
_cell_volume   817.08178514
_cell_formula_units_Z   1
loop_
 _symmetry_equiv_pos_site_id
 _symmetry_equiv_pos_as_xyz
  1  'x, y, z'
loop_
 _atom_site_type_symbol
 _atom_site_label
 _atom_site_symmetry_multiplicity
 _atom_site_fract_x
 _atom_site_fract_y
 _atom_site_fract_z
 _atom_site_occupancy
  Tb  Tb0  1  0.83390000  0.83390000  0.17041400  1
  Tb  Tb1  1  0.00099400  0.00099400  0.00169500  1
  Tb  Tb2  1  0.83397900  0.33503700  0.16724000  1
  Tb  Tb3  1  0.33503700  0.83397900  0.16724000  1
  Tb  Tb4  1  0.49836900  0.49836900  0.50042900  1
  Tb  Tb5  1  0.66178900  0.66178900  0.33166800  1
  Tb  Tb6  1  0.51666000  0.00227100  0.49121900  1
  Tb  Tb7  1  0.00227100  0.51666000  0.49121900  1
  Tb  Tb8  1  0.31138000  0.31138000  0.65797200  1
  Tb  Tb9  1  0.16841300  0.67733000  0.83403200  1
  Tb  Tb10  1  0.84988900  0.84988900  0.66531100  1
  Tb  Tb11  1  0.67733000  0.16841300  0.83403200  1
  Tb  Tb12  1  0.67756700  0.67756700  0.85420800  1
  Tb  Tb13  1  0.16201000  0.16201000  0.82606500  1
  Ti  Ti0  1  0.01427700  0.49385800  0.00393600  1
  Ti  Ti1  1  0.49385800  0.01427700  0.00393600  1
  Ti  Ti2  1  0.49719900  0.49719900  0.00159800  1
  Ti  Ti3  1  0.16920400  0.66878000  0.33215300  1
  Ti  Ti4  1  0.99804200  0.99804200  0.50214000  1
  Ti  Ti5  1  0.33565000  0.33565000  0.16920700  1
  Ti  Ti6  1  0.16739300  0.16739300  0.33347400  1
  Ti  Ti7  1  0.66878000  0.16920400  0.33215300  1
  Ti  Ti8  1  0.82204000  0.35293300  0.66945700  1
  Ti  Ti9  1  0.35293300  0.82204000  0.66945700  1
  O  O0  1  0.79219900  0.79219900  0.01007600  1
  O  O1  1  0.60262100  0.19882200  0.22270800  1
  O  O2  1  0.79321300  0.41787300  0.01482300  1
  O  O3  1  0.00083300  0.00083300  0.12662000  1
  O  O4  1  0.19882200  0.60262100  0.22270800  1
  O  O5  1  0.46970200  0.46970200  0.35132100  1
  O  O6  1  0.47477400  0.47477400  0.11254100  1
  O  O7  1  0.22200100  0.84979500  0.56805100  1
  O  O8  1  0.26954600  0.86501100  0.30367900  1
  O  O9  1  0.19989300  0.19989300  0.22435800  1
  O  O10  1  0.41787300  0.79321300  0.01482300  1
  O  O11  1  0.47864700  0.04922400  0.11374200  1
  O  O12  1  0.46754600  0.05861400  0.35776000  1
  O  O13  1  0.66566900  0.66566900  0.20759500  1
  O  O14  1  0.86501100  0.26954600  0.30367900  1
  O  O15  1  0.66105400  0.66105400  0.45607000  1
  O  O16  1  0.84979500  0.22200100  0.56805100  1
  O  O17  1  0.12807300  0.12807300  0.69478000  1
  O  O18  1  0.13004400  0.13004400  0.44220000  1
  O  O19  1  0.94868300  0.50846500  0.62998000  1
  O  O20  1  0.03296600  0.47922700  0.88492700  1
  O  O21  1  0.84816200  0.84816200  0.53639600  1
  O  O22  1  0.86361700  0.86361700  0.30476000  1
  O  O23  1  0.04922400  0.47864700  0.11374200  1
  O  O24  1  0.05861400  0.46754600  0.35776000  1
  O  O25  1  0.15413300  0.71181500  0.43968000  1
  O  O26  1  0.19586700  0.64205400  0.70711900  1
  O  O27  1  0.32998500  0.32998500  0.53757800  1
  O  O28  1  0.50846500  0.94868300  0.62998000  1
  O  O29  1  0.47922700  0.03296600  0.88492700  1
  O  O30  1  0.82954100  0.82954100  0.79079600  1
  O  O31  1  0.62397300  0.19050900  0.98902500  1
  O  O32  1  0.71181500  0.15413300  0.43968000  1
  O  O33  1  0.55411600  0.55411600  0.62845500  1
  O  O34  1  0.49937300  0.49937300  0.88724600  1
  O  O35  1  0.64205400  0.19586700  0.70711900  1
  O  O36  1  0.81753800  0.39324900  0.77563700  1
  O  O37  1  0.00843200  0.00843200  0.87646200  1
  O  O38  1  0.19050900  0.62397300  0.98902500  1
  O  O39  1  0.39324900  0.81753800  0.77563700  1
  O  O40  1  0.19084200  0.19084200  0.99656400  1
loop_
_geom_bond_atom_site_label_1
_geom_bond_atom_site_label_2
_geom_bond_distance
_geom_bond_site_symmetry_2
O0 Ti0 1.967260 1_655
O0 Ti1 1.967260 1_565
O0 Tb1 2.637428 1_665
O0 Tb0 2.892411 1_555
O1 Ti5 1.942471 1_555
O1 Ti7 1.984581 1_555
O1 Tb0 2.519031 1_545
O1 Tb2 2.531232 1_555
O2 Ti2 1.954074 1_555
O2 Ti0 1.955348 1_655
O2 Tb1 2.650651 1_655
O2 Tb2 2.744484 1_555
O3 Tb1 2.210744 1_555
O3 Tb0 2.235598 1_445
O3 Tb3 2.238714 1_545
O3 Tb2 2.238714 1_455
O4 Ti5 1.942471 1_555
O4 Ti3 1.984581 1_555
O4 Tb0 2.519031 1_455
O4 Tb3 2.531232 1_555
O5 Ti3 1.967476 1_555
O5 Ti7 1.967476 1_555
O5 Tb5 2.444722 1_555
O5 Tb4 2.667956 1_555
O6 Ti2 1.980073 1_555
O6 Ti5 2.010960 1_555
O6 Tb2 2.494257 1_555
O6 Tb3 2.494257 1_555
O7 Ti4 1.859395 1_455
O7 Ti9 2.002758 1_555
O7 Tb4 2.635620 1_555
O8 Ti3 1.963546 1_555
O8 Ti6 2.020385 1_565
O8 Tb3 2.447169 1_555
O8 Tb5 2.535627 1_555
O9 Ti5 1.961054 1_555
O9 Ti6 1.968992 1_555
O9 Tb2 2.557403 1_455
O9 Tb3 2.557403 1_545
O10 Ti2 1.954074 1_555
O10 Ti1 1.955348 1_565
O10 Tb1 2.650651 1_565
O10 Tb3 2.744484 1_555
O11 Ti1 1.957394 1_555
O11 Ti5 2.067258 1_555
O11 Tb3 2.457360 1_545
O11 Tb0 2.483114 1_545
O12 Ti6 1.973503 1_555
O12 Ti7 2.040745 1_555
O12 Tb6 2.392965 1_555
O12 Tb5 2.557126 1_545
O13 Tb5 2.195616 1_555
O13 Tb0 2.214829 1_555
O13 Tb2 2.215872 1_555
O13 Tb3 2.215872 1_555
O14 Ti7 1.963546 1_555
O14 Ti6 2.020385 1_655
O14 Tb2 2.447169 1_555
O14 Tb5 2.535627 1_555
O15 Tb4 2.188835 1_555
O15 Tb5 2.201415 1_555
O15 Tb7 2.259590 1_655
O15 Tb6 2.259590 1_565
O16 Ti4 1.859395 1_545
O16 Ti8 2.002758 1_555
O16 Tb4 2.635620 1_555
O17 Ti8 2.059564 1_455
O17 Ti9 2.059564 1_545
O17 Tb13 2.367802 1_555
O17 Tb8 2.395453 1_555
O18 Ti4 1.963617 1_445
O18 Ti6 1.975185 1_555
O18 Tb6 2.645419 1_555
O18 Tb7 2.645419 1_555
O19 Ti8 1.907436 1_555
O19 Tb10 2.313757 1_555
O19 Tb8 2.354831 1_655
O19 Tb7 2.487044 1_655
O20 Ti0 2.109431 1_556
O20 Tb13 2.278643 1_555
O20 Tb9 2.290406 1_555
O20 Tb12 2.322915 1_455
O21 Ti4 1.979025 1_555
O21 Tb7 2.252017 1_655
O21 Tb6 2.252017 1_565
O21 Tb10 2.281759 1_555
O22 Ti3 2.020930 1_655
O22 Ti7 2.020930 1_565
O22 Tb0 2.411580 1_555
O22 Tb5 2.585395 1_555
O23 Ti0 1.957394 1_555
O23 Ti5 2.067258 1_555
O23 Tb2 2.457360 1_455
O23 Tb0 2.483114 1_455
O24 Ti6 1.973503 1_555
O24 Ti3 2.040745 1_555
O24 Tb7 2.392965 1_555
O24 Tb5 2.557126 1_455
O25 Ti3 1.925045 1_555
O25 Ti4 2.130269 1_455
O25 Tb7 2.366759 1_555
O25 Tb4 2.454089 1_555
O26 Ti9 2.222403 1_555
O26 Tb9 2.258807 1_555
O26 Tb8 2.301031 1_555
O26 Tb10 2.330072 1_455
O27 Tb8 2.140524 1_555
O27 Tb4 2.216511 1_555
O27 Tb7 2.241770 1_555
O27 Tb6 2.241770 1_555
O28 Ti9 1.907436 1_555
O28 Tb10 2.313757 1_555
O28 Tb8 2.354831 1_565
O28 Tb6 2.487044 1_565
O29 Ti1 2.109431 1_556
O29 Tb13 2.278643 1_555
O29 Tb11 2.290406 1_555
O29 Tb12 2.322915 1_545
O30 Tb12 2.209871 1_555
O30 Tb10 2.232243 1_555
O30 Tb9 2.285583 1_655
O30 Tb11 2.285583 1_565
O31 Ti1 1.955058 1_556
O31 Ti2 1.964682 1_556
O31 Tb1 2.398625 1_656
O31 Tb11 2.761299 1_555
O32 Ti7 1.925045 1_555
O32 Ti4 2.130269 1_545
O32 Tb6 2.366759 1_555
O32 Tb4 2.454089 1_555
O33 Ti8 1.912417 1_555
O33 Ti9 1.912417 1_555
O33 Tb4 2.380873 1_555
O34 Ti2 2.023499 1_556
O34 Tb9 2.304120 1_555
O34 Tb11 2.304120 1_555
O34 Tb12 2.316504 1_555
O35 Ti8 2.222403 1_555
O35 Tb11 2.258807 1_555
O35 Tb8 2.301031 1_555
O35 Tb10 2.330072 1_545
O36 Ti8 1.902506 1_555
O36 Tb12 2.281426 1_555
O36 Tb13 2.399957 1_655
O36 Tb11 2.531759 1_555
O37 Tb13 2.123312 1_555
O37 Tb1 2.217017 1_556
O37 Tb9 2.231272 1_545
O37 Tb11 2.231272 1_455
O38 Ti0 1.955058 1_556
O38 Ti2 1.964682 1_556
O38 Tb1 2.398625 1_566
O38 Tb9 2.761299 1_555
O39 Ti9 1.902506 1_555
O39 Tb12 2.281426 1_555
O39 Tb13 2.399957 1_565
O39 Tb9 2.531759 1_555
O40 Ti1 1.932643 1_556
O40 Ti0 1.932643 1_556
O40 Tb1 2.396580 1_556
