# generated using pymatgen
data_KSn4(PO4)3
_symmetry_space_group_name_H-M   'P 1'
_cell_length_a   10.22494944
_cell_length_b   10.22494944
_cell_length_c   10.22495010
_cell_angle_alpha   58.98941533
_cell_angle_beta   58.98941533
_cell_angle_gamma   58.98941583
_symmetry_Int_Tables_number   1
_chemical_formula_structural   KSn4(PO4)3
_chemical_formula_sum   'K2 Sn8 P6 O24'
_cell_volume   738.48111568
_cell_formula_units_Z   2
loop_
 _symmetry_equiv_pos_site_id
 _symmetry_equiv_pos_as_xyz
  1  'x, y, z'
loop_
 _atom_site_type_symbol
 _atom_site_label
 _atom_site_symmetry_multiplicity
 _atom_site_fract_x
 _atom_site_fract_y
 _atom_site_fract_z
 _atom_site_occupancy
  K  K0  1  0.65738700  0.65738700  0.65738700  1
  K  K1  1  0.15738700  0.15738700  0.15738700  1
  Sn  Sn0  1  0.76624000  0.85938900  0.20550200  1
  Sn  Sn1  1  0.85938900  0.20550200  0.76624000  1
  Sn  Sn2  1  0.20550200  0.76624000  0.85938900  1
  Sn  Sn3  1  0.26624000  0.70550200  0.35938900  1
  Sn  Sn4  1  0.70550200  0.35938900  0.26624000  1
  Sn  Sn5  1  0.35938900  0.26624000  0.70550200  1
  Sn  Sn6  1  0.30530900  0.30530900  0.30530900  1
  Sn  Sn7  1  0.80530900  0.80530900  0.80530900  1
  P  P0  1  0.36919800  0.91099200  0.43773900  1
  P  P1  1  0.91099200  0.43773900  0.36919800  1
  P  P2  1  0.43773900  0.36919800  0.91099200  1
  P  P3  1  0.41099200  0.86919800  0.93773900  1
  P  P4  1  0.86919800  0.93773900  0.41099200  1
  P  P5  1  0.93773900  0.41099200  0.86919800  1
  O  O0  1  0.10877200  0.28827700  0.81348100  1
  O  O1  1  0.42869100  0.24784000  0.08678400  1
  O  O2  1  0.87589400  0.81119200  0.36383900  1
  O  O3  1  0.81119200  0.36383900  0.87589400  1
  O  O4  1  0.36383900  0.87589400  0.81119200  1
  O  O5  1  0.37589400  0.86383900  0.31119200  1
  O  O6  1  0.86383900  0.31119200  0.37589400  1
  O  O7  1  0.31119200  0.37589400  0.86383900  1
  O  O8  1  0.24784000  0.08678400  0.42869100  1
  O  O9  1  0.58678400  0.74784000  0.92869100  1
  O  O10  1  0.74784000  0.92869100  0.58678400  1
  O  O11  1  0.92869100  0.58678400  0.74784000  1
  O  O12  1  0.78827700  0.60877200  0.31348100  1
  O  O13  1  0.60877200  0.31348100  0.78827700  1
  O  O14  1  0.40439300  0.04052700  0.89908700  1
  O  O15  1  0.31348100  0.78827700  0.60877200  1
  O  O16  1  0.04052700  0.89908700  0.40439300  1
  O  O17  1  0.39908700  0.54052700  0.90439300  1
  O  O18  1  0.90439300  0.39908700  0.54052700  1
  O  O19  1  0.54052700  0.90439300  0.39908700  1
  O  O20  1  0.89908700  0.40439300  0.04052700  1
  O  O21  1  0.81348100  0.10877200  0.28827700  1
  O  O22  1  0.28827700  0.81348100  0.10877200  1
  O  O23  1  0.08678400  0.42869100  0.24784000  1
loop_
_geom_bond_atom_site_label_1
_geom_bond_atom_site_label_2
_geom_bond_distance
_geom_bond_site_symmetry_2
K0 O17 2.837424 1_555
K0 O18 2.837424 1_555
K0 O19 2.837424 1_555
K0 O4 2.884587 1_555
K0 O2 2.884587 1_555
K0 O3 2.884587 1_555
K0 O10 2.994027 1_555
K0 O11 2.994027 1_555
K0 O9 2.994027 1_555
K0 O13 3.266475 1_555
K0 O15 3.266475 1_555
K0 O12 3.266476 1_555
K1 O16 2.837424 1_545
K1 O20 2.837424 1_455
K1 O14 2.837424 1_554
K1 O5 2.884587 1_545
K1 O7 2.884587 1_554
K1 O6 2.884587 1_455
K1 O1 2.994027 1_555
K1 O23 2.994027 1_555
K1 O8 2.994027 1_555
K1 O21 3.266475 1_455
K1 O22 3.266475 1_545
K1 O0 3.266476 1_554
O0 P5 1.551212 1_455
O0 Sn5 2.140687 1_555
O1 P2 1.558183 1_554
O1 Sn6 2.148005 1_555
O2 P4 1.558504 1_555
O2 Sn0 2.144770 1_555
O3 P5 1.558504 1_555
O3 Sn1 2.144770 1_555
O4 P3 1.558504 1_555
O4 Sn2 2.144769 1_555
O5 P0 1.558504 1_555
O5 Sn3 2.144769 1_555
O6 P1 1.558504 1_555
O6 Sn4 2.144770 1_555
O7 P2 1.558504 1_555
O7 Sn5 2.144770 1_555
O8 P0 1.558183 1_545
O8 Sn6 2.148004 1_555
O9 P3 1.558183 1_555
O9 Sn7 2.148004 1_555
O10 P4 1.558183 1_555
O10 Sn7 2.148005 1_555
O11 P5 1.558183 1_555
O11 Sn7 2.148004 1_555
O12 P1 1.551212 1_555
O12 Sn0 2.140687 1_555
O13 P2 1.551212 1_555
O13 Sn1 2.140687 1_555
O14 P3 1.556260 1_545
O14 Sn5 2.143204 1_555
O15 P0 1.551212 1_555
O15 Sn2 2.140688 1_555
O16 P4 1.556260 1_455
O16 Sn3 2.143204 1_555
O17 P2 1.556260 1_555
O17 Sn2 2.143204 1_555
O18 P1 1.556261 1_555
O18 Sn1 2.143204 1_555
O19 P0 1.556260 1_555
O19 Sn0 2.143204 1_555
O20 P5 1.556261 1_554
O20 Sn4 2.143204 1_555
O21 P4 1.551212 1_545
O21 Sn4 2.140687 1_555
O22 P3 1.551212 1_554
O22 Sn3 2.140688 1_555
O23 P1 1.558183 1_455
O23 Sn6 2.148004 1_555
