# generated using pymatgen
data_CeRhC2
_symmetry_space_group_name_H-M   'P 1'
_cell_length_a   3.88068900
_cell_length_b   3.88068900
_cell_length_c   15.42870000
_cell_angle_alpha   90.00000000
_cell_angle_beta   90.00000000
_cell_angle_gamma   90.00000000
_symmetry_Int_Tables_number   1
_chemical_formula_structural   CeRhC2
_chemical_formula_sum   'Ce4 Rh4 C8'
_cell_volume   232.35232031
_cell_formula_units_Z   4
loop_
 _symmetry_equiv_pos_site_id
 _symmetry_equiv_pos_as_xyz
  1  'x, y, z'
loop_
 _atom_site_type_symbol
 _atom_site_label
 _atom_site_symmetry_multiplicity
 _atom_site_fract_x
 _atom_site_fract_y
 _atom_site_fract_z
 _atom_site_occupancy
  Ce  Ce0  1  0.64584900  0.35684800  0.74821200  1
  Ce  Ce1  1  0.35415100  0.64315200  0.24821200  1
  Ce  Ce2  1  0.35684800  0.35415100  0.99821200  1
  Ce  Ce3  1  0.64315200  0.64584900  0.49821200  1
  Rh  Rh0  1  0.14597200  0.15401500  0.59392800  1
  Rh  Rh1  1  0.85402800  0.84598500  0.09392800  1
  Rh  Rh2  1  0.84598500  0.14597200  0.34392800  1
  Rh  Rh3  1  0.15401500  0.85402800  0.84392800  1
  C  C0  1  0.16053400  0.85095100  0.71084500  1
  C  C1  1  0.35433300  0.15187300  0.38862600  1
  C  C2  1  0.83946600  0.14904900  0.21084500  1
  C  C3  1  0.14904900  0.16053400  0.46084500  1
  C  C4  1  0.85095100  0.83946600  0.96084500  1
  C  C5  1  0.15187300  0.64566700  0.63862600  1
  C  C6  1  0.64566700  0.84812700  0.88862600  1
  C  C7  1  0.84812700  0.35433300  0.13862600  1
loop_
_geom_bond_atom_site_label_1
_geom_bond_atom_site_label_2
_geom_bond_distance
_geom_bond_site_symmetry_2
Ce0 Rh3 3.089727 1_555
Ce0 Rh3 3.103441 1_545
Ce0 Rh3 3.129276 1_655
Ce0 Rh3 3.142818 1_645
Ce0 Rh0 3.170011 1_555
Ce0 Rh0 3.170596 1_655
Ce1 Rh2 3.089727 1_555
Ce1 Rh2 3.103441 1_565
Ce1 Rh2 3.129276 1_455
Ce1 Rh2 3.142818 1_465
Ce1 Rh1 3.170011 1_555
Ce1 Rh1 3.170596 1_455
Ce2 Rh1 3.089727 1_556
Ce2 Rh1 3.103441 1_456
Ce2 Rh1 3.129276 1_546
Ce2 Rh1 3.142818 1_446
Ce2 Rh3 3.170011 1_555
Ce2 Rh3 3.170596 1_545
Ce3 Rh0 3.089727 1_555
Ce3 Rh0 3.103441 1_655
Ce3 Rh0 3.129276 1_565
Ce3 Rh0 3.142818 1_665
Ce3 Rh2 3.170011 1_555
Ce3 Rh2 3.170596 1_565
C0 C5 1.370151 1_555
C0 Rh3 2.053488 1_555
C0 Rh0 2.154152 1_565
C0 Ce0 2.748830 1_555
C0 Ce0 2.780949 1_565
C0 Ce0 2.828139 1_455
C0 Ce0 2.859368 1_465
C1 C3 1.370151 1_555
C1 Rh2 2.028887 1_555
C1 Rh2 2.089933 1_455
C1 Ce3 2.791003 1_555
C1 Ce3 2.823320 1_545
C1 Ce1 2.885838 1_555
C1 Ce1 2.930995 1_545
C2 C7 1.370151 1_555
C2 Rh2 2.053488 1_555
C2 Rh1 2.154152 1_545
C2 Ce1 2.748830 1_555
C2 Ce1 2.780949 1_545
C2 Ce1 2.828139 1_655
C2 Ce1 2.859368 1_645
C3 Rh0 2.053488 1_555
C3 Rh2 2.154152 1_455
C3 Ce3 2.748830 1_555
C3 Ce3 2.780949 1_455
C3 Ce3 2.828139 1_545
C3 Ce3 2.859368 1_445
C4 C6 1.370151 1_555
C4 Rh1 2.053488 1_556
C4 Rh3 2.154152 1_655
C4 Ce2 2.748830 1_555
C4 Ce2 2.780949 1_655
C4 Ce2 2.828139 1_565
C4 Ce2 2.859368 1_665
C5 Rh0 2.028887 1_555
C5 Rh0 2.089933 1_565
C5 Ce0 2.791003 1_555
C5 Ce0 2.823320 1_455
C5 Ce3 2.885838 1_555
C5 Ce3 2.930995 1_455
C6 Rh3 2.028887 1_555
C6 Rh3 2.089933 1_655
C6 Ce2 2.791003 1_555
C6 Ce2 2.823320 1_565
C6 Ce0 2.885838 1_555
C6 Ce0 2.930995 1_565
C7 Rh1 2.028887 1_555
C7 Rh1 2.089933 1_545
C7 Ce1 2.791003 1_555
C7 Ce1 2.823320 1_655
C7 Ce2 2.885838 1_554
C7 Ce2 2.930995 1_654
