# generated using pymatgen
data_Ba3(H6Ir)2
_symmetry_space_group_name_H-M   'P 1'
_cell_length_a   5.50894140
_cell_length_b   5.50896143
_cell_length_c   8.90146958
_cell_angle_alpha   90.00003417
_cell_angle_beta   90.00132420
_cell_angle_gamma   120.00018343
_symmetry_Int_Tables_number   1
_chemical_formula_structural   Ba3(H6Ir)2
_chemical_formula_sum   'Ba3 H12 Ir2'
_cell_volume   233.95343468
_cell_formula_units_Z   1
loop_
 _symmetry_equiv_pos_site_id
 _symmetry_equiv_pos_as_xyz
  1  'x, y, z'
loop_
 _atom_site_type_symbol
 _atom_site_label
 _atom_site_symmetry_multiplicity
 _atom_site_fract_x
 _atom_site_fract_y
 _atom_site_fract_z
 _atom_site_occupancy
  Ba  Ba0  1  0.00000000  -0.00000000  0.00000000  1
  Ba  Ba1  1  0.66666042  0.33333031  0.35830236  1
  Ba  Ba2  1  0.33333958  0.66666969  0.64169764  1
  H  H0  1  0.18703762  0.81295345  0.34695384  1
  H  H1  1  0.62589326  0.81294666  0.34694684  1
  H  H2  1  0.18703702  0.37408338  0.34695369  1
  H  H3  1  0.81296238  0.18704655  0.65304616  1
  H  H4  1  0.37410674  0.18705334  0.65305316  1
  H  H5  1  0.81296298  0.62591662  0.65304631  1
  H  H6  1  0.52754018  0.05507626  0.87248282  1
  H  H7  1  0.52754044  0.47246504  0.87248295  1
  H  H8  1  0.94494214  0.47247147  0.87248827  1
  H  H9  1  0.47245982  0.94492374  0.12751718  1
  H  H10  1  0.47245956  0.52753496  0.12751705  1
  H  H11  1  0.05505786  0.52752853  0.12751173  1
  Ir  Ir0  1  0.66663114  0.33331543  0.75985233  1
  Ir  Ir1  1  0.33336886  0.66668457  0.24014767  1
loop_
_geom_bond_atom_site_label_1
_geom_bond_atom_site_label_2
_geom_bond_distance
_geom_bond_site_symmetry_2
Ba0 H7 2.990710 1_444
Ba0 H10 2.990710 1_555
Ba0 H6 2.990718 1_454
Ba0 H9 2.990718 1_545
Ba0 H8 2.990727 1_444
Ba0 H11 2.990727 1_555
Ba0 H8 2.990733 1_454
Ba0 H11 2.990733 1_545
Ba0 H9 2.990784 1_445
Ba0 H6 2.990784 1_554
Ba0 H7 2.990785 1_554
Ba0 H10 2.990785 1_445
Ba1 H0 2.763167 1_545
Ba1 H2 2.763170 1_555
Ba1 H0 2.763172 1_655
Ba1 H2 2.763173 1_655
Ba1 H1 2.763188 1_555
Ba1 H1 2.763188 1_545
Ba1 H9 2.766574 1_545
Ba1 H10 2.766574 1_555
Ba1 H11 2.766633 1_655
Ba1 H3 2.971866 1_555
Ba1 H5 2.971866 1_555
Ba1 H4 2.971895 1_555
Ba2 H3 2.763167 1_565
Ba2 H5 2.763170 1_555
Ba2 H3 2.763172 1_455
Ba2 H5 2.763173 1_455
Ba2 H4 2.763188 1_555
Ba2 H4 2.763188 1_565
Ba2 H6 2.766574 1_565
Ba2 H7 2.766574 1_555
Ba2 H8 2.766633 1_455
Ba2 H0 2.971866 1_555
Ba2 H2 2.971866 1_555
Ba2 H1 2.971895 1_555
H0 Ir1 1.688977 1_555
H1 Ir1 1.688607 1_555
H2 Ir1 1.688980 1_555
H3 Ir0 1.688977 1_555
H4 Ir0 1.688607 1_555
H5 Ir0 1.688980 1_555
H6 Ir0 1.663526 1_555
H7 Ir0 1.663531 1_555
H8 Ir0 1.663792 1_555
H9 Ir1 1.663526 1_555
H10 Ir1 1.663531 1_555
H11 Ir1 1.663792 1_555
