# generated using pymatgen
data_AgNO3
_symmetry_space_group_name_H-M   'P 1'
_cell_length_a   7.07777900
_cell_length_b   7.41914300
_cell_length_c   10.22652200
_cell_angle_alpha   90.00000000
_cell_angle_beta   90.00000000
_cell_angle_gamma   90.00000000
_symmetry_Int_Tables_number   1
_chemical_formula_structural   AgNO3
_chemical_formula_sum   'Ag8 N8 O24'
_cell_volume   537.00545433
_cell_formula_units_Z   8
loop_
 _symmetry_equiv_pos_site_id
 _symmetry_equiv_pos_as_xyz
  1  'x, y, z'
loop_
 _atom_site_type_symbol
 _atom_site_label
 _atom_site_symmetry_multiplicity
 _atom_site_fract_x
 _atom_site_fract_y
 _atom_site_fract_z
 _atom_site_occupancy
  Ag  Ag0  1  0.86877400  0.50993100  0.12941000  1
  Ag  Ag1  1  0.63426500  0.01048300  0.12848700  1
  Ag  Ag2  1  0.36573500  0.51048300  0.37151300  1
  Ag  Ag3  1  0.13122600  0.00993100  0.37059000  1
  Ag  Ag4  1  0.86573500  0.98951700  0.62848700  1
  Ag  Ag5  1  0.13426500  0.48951700  0.87151300  1
  Ag  Ag6  1  0.63122600  0.49006900  0.62941000  1
  Ag  Ag7  1  0.36877400  0.99006900  0.87059000  1
  N  N0  1  0.62875100  0.36407900  0.90584400  1
  N  N1  1  0.88067200  0.85679000  0.90951000  1
  N  N2  1  0.12875100  0.13592100  0.09415600  1
  N  N3  1  0.87124900  0.63592100  0.40584400  1
  N  N4  1  0.38067200  0.64321000  0.09049000  1
  N  N5  1  0.61932800  0.14321000  0.40951000  1
  N  N6  1  0.11932800  0.35679000  0.59049000  1
  N  N7  1  0.37124900  0.86407900  0.59415600  1
  O  O0  1  0.01634300  0.29182600  0.68099200  1
  O  O1  1  0.25549400  0.52757800  0.11956200  1
  O  O2  1  0.48775100  0.79329500  0.67293200  1
  O  O3  1  0.62785600  0.32265300  0.02649100  1
  O  O4  1  0.12785600  0.17734700  0.97350900  1
  O  O5  1  0.87214400  0.67734700  0.52649100  1
  O  O6  1  0.51224900  0.29329500  0.82706800  1
  O  O7  1  0.51634300  0.20817400  0.31900800  1
  O  O8  1  0.37214400  0.82265300  0.47350900  1
  O  O9  1  0.24573000  0.01934600  0.13610800  1
  O  O10  1  0.48365700  0.70817400  0.18099200  1
  O  O11  1  0.40470700  0.68886800  0.97198200  1
  O  O12  1  0.74573000  0.48065400  0.86389200  1
  O  O13  1  0.98775100  0.70670500  0.32706800  1
  O  O14  1  0.09529300  0.31113200  0.47198200  1
  O  O15  1  0.01224900  0.20670500  0.17293200  1
  O  O16  1  0.75427000  0.51934600  0.36389200  1
  O  O17  1  0.24450600  0.47242200  0.61956200  1
  O  O18  1  0.74450600  0.02757800  0.38043800  1
  O  O19  1  0.75549400  0.97242200  0.88043800  1
  O  O20  1  0.98365700  0.79182600  0.81900800  1
  O  O21  1  0.90470700  0.81113200  0.02801800  1
  O  O22  1  0.25427000  0.98065400  0.63610800  1
  O  O23  1  0.59529300  0.18886800  0.52801800  1
loop_
_geom_bond_atom_site_label_1
_geom_bond_atom_site_label_2
_geom_bond_distance
_geom_bond_site_symmetry_2
Ag0 O3 2.438421 1_555
Ag0 O21 2.476589 1_555
Ag0 O15 2.508057 1_655
Ag0 O16 2.532149 1_555
Ag0 O13 2.631783 1_555
Ag0 O1 2.742098 1_655
Ag1 O3 2.540483 1_555
Ag1 O10 2.540686 1_545
Ag1 O7 2.577584 1_555
Ag1 O21 2.628121 1_545
Ag1 O19 2.692712 1_544
Ag1 O18 2.695120 1_555
Ag1 O9 2.751855 1_555
Ag2 O8 2.540483 1_555
Ag2 O7 2.540686 1_555
Ag2 O10 2.577584 1_555
Ag2 O14 2.628121 1_555
Ag2 O17 2.692712 1_555
Ag2 O1 2.695120 1_555
Ag2 O16 2.751855 1_555
Ag3 O8 2.438421 1_545
Ag3 O14 2.476589 1_555
Ag3 O13 2.508057 1_445
Ag3 O9 2.532149 1_555
Ag3 O15 2.631783 1_555
Ag3 O18 2.742098 1_455
Ag4 O5 2.540483 1_555
Ag4 O0 2.540686 1_665
Ag4 O20 2.577584 1_555
Ag4 O23 2.628121 1_565
Ag4 O18 2.692712 1_565
Ag4 O19 2.695120 1_555
Ag4 O22 2.751855 1_655
Ag5 O4 2.540483 1_555
Ag5 O20 2.540686 1_455
Ag5 O0 2.577584 1_555
Ag5 O11 2.628121 1_555
Ag5 O1 2.692712 1_556
Ag5 O17 2.695120 1_555
Ag5 O12 2.751855 1_455
Ag6 O5 2.438421 1_555
Ag6 O23 2.476589 1_555
Ag6 O2 2.508057 1_555
Ag6 O12 2.532149 1_555
Ag6 O6 2.631783 1_555
Ag6 O17 2.742098 1_555
Ag7 O4 2.438421 1_565
Ag7 O11 2.476589 1_555
Ag7 O6 2.508057 1_565
Ag7 O22 2.532149 1_555
Ag7 O2 2.631783 1_555
Ag7 O19 2.742098 1_555
N0 O6 1.266773 1_555
N0 O3 1.271519 1_556
N0 O12 1.271846 1_555
N1 O19 1.268594 1_555
N1 O21 1.269822 1_556
N1 O20 1.272868 1_555
N2 O15 1.266773 1_555
N2 O4 1.271519 1_554
N2 O9 1.271846 1_555
N3 O13 1.266773 1_555
N3 O5 1.271519 1_555
N3 O16 1.271846 1_555
N4 O1 1.268594 1_555
N4 O11 1.269822 1_554
N4 O10 1.272868 1_555
N5 O18 1.268594 1_555
N5 O23 1.269822 1_555
N5 O7 1.272868 1_555
N6 O17 1.268594 1_555
N6 O14 1.269822 1_555
N6 O0 1.272868 1_555
N7 O2 1.266773 1_555
N7 O8 1.271519 1_555
N7 O22 1.271846 1_555
