# generated using pymatgen
data_Gd3P4Pd7
_symmetry_space_group_name_H-M   'P 1'
_cell_length_a   4.01032730
_cell_length_b   8.20463443
_cell_length_c   7.96221842
_cell_angle_alpha   71.28479307
_cell_angle_beta   75.41166477
_cell_angle_gamma   75.86758884
_symmetry_Int_Tables_number   1
_chemical_formula_structural   Gd3P4Pd7
_chemical_formula_sum   'Gd3 P4 Pd7'
_cell_volume   236.28712688
_cell_formula_units_Z   1
loop_
 _symmetry_equiv_pos_site_id
 _symmetry_equiv_pos_as_xyz
  1  'x, y, z'
loop_
 _atom_site_type_symbol
 _atom_site_label
 _atom_site_symmetry_multiplicity
 _atom_site_fract_x
 _atom_site_fract_y
 _atom_site_fract_z
 _atom_site_occupancy
  Gd  Gd0  1  0.31970691  0.67685660  0.68401299  1
  Gd  Gd1  1  0.68025870  0.32316632  0.31602307  1
  Gd  Gd2  1  0.00000315  0.99998481  0.00000621  1
  P  P0  1  0.65937313  0.74564659  0.93595332  1
  P  P1  1  0.34059024  0.25443886  0.06405430  1
  P  P2  1  0.89438903  0.81912542  0.39197868  1
  P  P3  1  0.10560652  0.18086202  0.60802084  1
  Pd  Pd0  1  0.30441098  0.02971104  0.36075170  1
  Pd  Pd1  1  0.49006876  0.28324798  0.73604376  1
  Pd  Pd2  1  0.83291975  0.41987250  0.91412995  1
  Pd  Pd3  1  0.69565074  0.97033429  0.63911745  1
  Pd  Pd4  1  0.16713718  0.58005735  0.08589126  1
  Pd  Pd5  1  0.99998488  0.49999176  0.50001612  1
  Pd  Pd6  1  0.50990003  0.71670447  0.26400034  1
loop_
_geom_bond_atom_site_label_1
_geom_bond_atom_site_label_2
_geom_bond_distance
_geom_bond_site_symmetry_2
Gd0 P0 2.945508 1_455
Gd0 P0 2.945605 1_555
Gd0 Pd4 2.977301 1_556
Gd0 P2 2.992176 1_555
Gd0 P2 2.993732 1_455
Gd0 Pd5 3.018683 1_555
Gd0 Pd5 3.019126 1_455
Gd0 Pd3 3.024003 1_455
Gd0 Pd3 3.024498 1_555
Gd0 Pd1 3.045343 1_555
Gd0 Pd2 3.056157 1_555
Gd0 Pd2 3.056591 1_455
Gd0 Pd6 3.163502 1_555
Gd0 Pd0 3.197007 1_565
Gd1 P1 2.945521 1_655
Gd1 P1 2.945537 1_555
Gd1 Pd2 2.977433 1_554
Gd1 P3 2.992059 1_555
Gd1 P3 2.993582 1_655
Gd1 Pd5 3.018525 1_455
Gd1 Pd5 3.018875 1_555
Gd1 Pd0 3.024062 1_655
Gd1 Pd0 3.024431 1_555
Gd1 Pd6 3.044797 1_555
Gd1 Pd4 3.055727 1_555
Gd1 Pd4 3.056358 1_655
Gd1 Pd1 3.163462 1_555
Gd1 Pd3 3.196199 1_545
Gd2 P2 2.964934 1_455
Gd2 P3 2.965051 1_564
Gd2 P0 2.984397 1_454
Gd2 P1 2.985085 1_565
Gd2 P0 2.985957 1_554
Gd2 P1 2.986577 1_465
Gd2 Pd2 3.221276 1_464
Gd2 Pd4 3.221581 1_555
Gd2 Pd1 3.270504 1_564
Gd2 Pd6 3.270755 1_455
Gd2 Pd1 3.272654 1_464
Gd2 Pd6 3.272755 1_555
Gd2 Pd0 3.487320 1_565
Gd2 Pd3 3.487997 1_454
Gd2 Pd0 3.488903 1_465
Gd2 Pd3 3.489680 1_554
P0 Pd6 2.474050 1_556
P0 Pd3 2.483409 1_555
P0 Pd4 2.499893 1_556
P0 Pd4 2.500071 1_656
P0 Pd2 2.643380 1_555
P1 Pd1 2.473971 1_554
P1 Pd0 2.482787 1_555
P1 Pd2 2.499439 1_554
P1 Pd2 2.499471 1_454
P1 Pd4 2.642180 1_555
P2 Pd5 2.443731 1_555
P2 Pd6 2.468959 1_555
P2 Pd6 2.471238 1_655
P2 Pd3 2.517976 1_555
P2 Pd0 2.580030 1_665
P2 Pd0 2.582524 1_565
P3 Pd5 2.443688 1_455
P3 Pd1 2.468933 1_555
P3 Pd1 2.471356 1_455
P3 Pd0 2.518553 1_555
P3 Pd3 2.579736 1_445
P3 Pd3 2.582417 1_545
Pd0 Pd6 2.789987 1_545
Pd0 Pd3 2.876108 1_445
Pd0 Pd3 2.880483 1_545
Pd1 Pd3 2.789966 1_545
Pd1 Pd2 2.812007 1_455
Pd1 Pd2 2.812895 1_555
Pd1 Pd5 2.926802 1_455
Pd1 Pd5 2.927651 1_555
Pd2 Pd4 2.885648 1_556
Pd2 Pd4 2.886361 1_656
Pd2 Pd5 3.076404 1_555
Pd4 Pd6 2.812393 1_455
Pd4 Pd6 2.812906 1_555
Pd4 Pd5 3.076521 1_455
Pd5 Pd6 2.926686 1_555
Pd5 Pd6 2.927477 1_655
