# generated using pymatgen
data_Hf6Co16Ge7
_symmetry_space_group_name_H-M   'P 1'
_cell_length_a   8.06458460
_cell_length_b   8.06457005
_cell_length_c   8.06454937
_cell_angle_alpha   60.00021840
_cell_angle_beta   60.00032308
_cell_angle_gamma   60.00036566
_symmetry_Int_Tables_number   1
_chemical_formula_structural   Hf6Co16Ge7
_chemical_formula_sum   'Hf6 Co16 Ge7'
_cell_volume   370.87819898
_cell_formula_units_Z   1
loop_
 _symmetry_equiv_pos_site_id
 _symmetry_equiv_pos_as_xyz
  1  'x, y, z'
loop_
 _atom_site_type_symbol
 _atom_site_label
 _atom_site_symmetry_multiplicity
 _atom_site_fract_x
 _atom_site_fract_y
 _atom_site_fract_z
 _atom_site_occupancy
  Hf  Hf0  1  0.20376006  0.79625647  0.79625536  1
  Hf  Hf1  1  0.79624195  0.79626901  0.20374615  1
  Hf  Hf2  1  0.79624057  0.20374556  0.20374708  1
  Hf  Hf3  1  0.20376205  0.20373019  0.79625406  1
  Hf  Hf4  1  0.79624194  0.20374624  0.79626751  1
  Hf  Hf5  1  0.20376029  0.79625533  0.20372986  1
  Co  Co0  1  0.62053749  0.62055194  0.13835613  1
  Co  Co1  1  0.16998424  0.49007501  0.16996700  1
  Co  Co2  1  0.86161956  0.37945951  0.37946108  1
  Co  Co3  1  0.50993017  0.83002051  0.83002314  1
  Co  Co4  1  0.49008188  0.16997288  0.16997175  1
  Co  Co5  1  0.83000769  0.83002662  0.50993344  1
  Co  Co6  1  0.16998457  0.16996770  0.49007762  1
  Co  Co7  1  0.13836347  0.62054515  0.62054464  1
  Co  Co8  1  0.16998484  0.16996862  0.16996670  1
  Co  Co9  1  0.37946802  0.37945171  0.86162783  1
  Co  Co10  1  0.62053862  0.62055333  0.62055217  1
  Co  Co11  1  0.37946698  0.86163056  0.37945159  1
  Co  Co12  1  0.37946776  0.37945068  0.37945293  1
  Co  Co13  1  0.83000648  0.83002879  0.83003232  1
  Co  Co14  1  0.62053920  0.13835337  0.62055176  1
  Co  Co15  1  0.83000597  0.50993273  0.83002961  1
  Ge  Ge0  1  0.50003950  -0.00004373  0.50004044  1
  Ge  Ge1  1  0.50004022  0.50004091  -0.00004450  1
  Ge  Ge2  1  0.50000766  0.49999986  0.49999997  1
  Ge  Ge3  1  -0.00003300  -0.00002493  0.50002736  1
  Ge  Ge4  1  -0.00003353  0.50002804  -0.00002562  1
  Ge  Ge5  1  -0.00004421  0.50003558  0.50003725  1
  Ge  Ge6  1  0.50002958  -0.00003167  -0.00003263  1
loop_
_geom_bond_atom_site_label_1
_geom_bond_atom_site_label_2
_geom_bond_distance
_geom_bond_site_symmetry_2
Co0 Ge2 2.381315 1_555
Co0 Ge1 2.499674 1_555
Co0 Ge6 2.499736 1_565
Co0 Ge4 2.499823 1_655
Co0 Co3 2.518540 1_554
Co0 Co13 2.518547 1_554
Co0 Co15 2.518549 1_554
Co0 Co12 2.749592 1_555
Co0 Co11 2.749610 1_555
Co0 Co2 2.749682 1_555
Co0 Hf5 2.792031 1_555
Co0 Hf2 2.792204 1_555
Co0 Hf1 2.792225 1_555
Co1 Ge4 2.329250 1_555
Co1 Ge1 2.329288 1_555
Co1 Ge5 2.329365 1_555
Co1 Co9 2.518651 1_554
Co1 Co12 2.518690 1_555
Co1 Co2 2.518795 1_455
Co1 Co4 2.581485 1_555
Co1 Co8 2.581519 1_555
Co1 Co6 2.581546 1_555
Co1 Hf0 2.768441 1_554
Co1 Hf5 2.768467 1_555
Co1 Hf1 2.768642 1_455
Co2 Ge2 2.381119 1_555
Co2 Ge3 2.500169 1_655
Co2 Ge4 2.500176 1_655
Co2 Ge5 2.500177 1_655
Co2 Co6 2.518802 1_655
Co2 Co8 2.518821 1_655
Co2 Hf2 2.792205 1_555
Co2 Hf4 2.792210 1_555
Co2 Hf1 2.792240 1_555
Co3 Ge1 2.328558 1_556
Co3 Ge0 2.328576 1_565
Co3 Ge6 2.328657 1_566
Co3 Co5 2.581348 1_555
Co3 Hf0 2.768355 1_555
Co3 Hf5 2.768386 1_556
Co3 Hf3 2.768401 1_565
Co4 Ge6 2.329263 1_555
Co4 Ge0 2.329344 1_555
Co4 Ge1 2.329347 1_555
Co4 Co9 2.518640 1_554
Co4 Co8 2.581487 1_555
Co4 Co6 2.581493 1_555
Co4 Hf2 2.768342 1_555
Co4 Hf4 2.768343 1_554
Co4 Hf1 2.768348 1_545
Co5 Ge0 2.328493 1_565
Co5 Ge5 2.328657 1_655
Co5 Ge3 2.328746 1_665
Co5 Co7 2.518718 1_655
Co5 Hf1 2.768443 1_555
Co5 Hf2 2.768494 1_565
Co5 Hf5 2.768718 1_655
Co6 Ge3 2.329266 1_555
Co6 Ge0 2.329274 1_555
Co6 Ge5 2.329353 1_555
Co6 Co8 2.581546 1_555
Co6 Hf0 2.768430 1_545
Co6 Hf3 2.768436 1_555
Co6 Hf4 2.768627 1_455
Co7 Ge2 2.381332 1_555
Co7 Ge5 2.499779 1_555
Co7 Ge4 2.499817 1_556
Co7 Ge3 2.499826 1_565
Co7 Co9 2.749686 1_555
Co7 Hf5 2.792243 1_555
Co7 Hf3 2.792250 1_555
Co7 Hf0 2.792263 1_555
Co8 Ge6 2.329186 1_555
Co8 Ge4 2.329274 1_555
Co8 Ge3 2.329277 1_555
Co8 Co9 2.518669 1_554
Co8 Hf3 2.768412 1_554
Co8 Hf5 2.768426 1_545
Co8 Hf2 2.768619 1_455
Co9 Ge2 2.381210 1_555
Co9 Ge6 2.500160 1_556
Co9 Ge1 2.500179 1_556
Co9 Ge4 2.500287 1_556
Co9 Hf4 2.792026 1_555
Co9 Hf3 2.792175 1_555
Co9 Hf0 2.792216 1_555
Co10 Ge2 2.381260 1_555
Co10 Ge1 2.499644 1_556
Co10 Ge0 2.499649 1_565
Co10 Ge5 2.499747 1_655
Co10 Co3 2.518521 1_555
Co10 Co5 2.518527 1_555
Co10 Co15 2.518535 1_555
Co10 Co11 2.749597 1_555
Co10 Co9 2.749599 1_555
Co10 Co2 2.749672 1_555
Co10 Hf0 2.792044 1_555
Co10 Hf1 2.792200 1_555
Co10 Hf4 2.792213 1_555
Co11 Ge2 2.381236 1_555
Co11 Ge6 2.500158 1_565
Co11 Ge0 2.500166 1_565
Co11 Ge3 2.500276 1_565
Co11 Co4 2.518638 1_565
Co11 Co6 2.518653 1_565
Co11 Co8 2.518672 1_565
Co11 Co7 2.749694 1_555
Co11 Hf1 2.792030 1_555
Co11 Hf5 2.792188 1_555
Co11 Hf0 2.792198 1_555
Co12 Ge2 2.381257 1_555
Co12 Ge0 2.500230 1_555
Co12 Ge1 2.500242 1_555
Co12 Ge5 2.500353 1_555
Co12 Co4 2.518646 1_555
Co12 Co6 2.518671 1_555
Co12 Co14 2.749586 1_555
Co12 Co7 2.749679 1_555
Co12 Hf2 2.792018 1_555
Co12 Hf3 2.792182 1_555
Co12 Hf5 2.792214 1_555
Co13 Ge6 2.328569 1_566
Co13 Ge4 2.328739 1_656
Co13 Ge3 2.328765 1_665
Co13 Co14 2.518558 1_565
Co13 Co7 2.518742 1_655
Co13 Co3 2.581353 1_555
Co13 Co15 2.581450 1_555
Co13 Co5 2.581457 1_555
Co13 Hf1 2.768468 1_556
Co13 Hf4 2.768488 1_565
Co13 Hf0 2.768719 1_655
Co14 Ge2 2.381340 1_555
Co14 Ge0 2.499669 1_555
Co14 Ge6 2.499722 1_556
Co14 Ge3 2.499815 1_655
Co14 Co3 2.518551 1_545
Co14 Co5 2.518552 1_545
Co14 Co9 2.749612 1_555
Co14 Co2 2.749681 1_555
Co14 Hf3 2.792026 1_555
Co14 Hf2 2.792181 1_555
Co14 Hf4 2.792218 1_555
Co15 Ge1 2.328472 1_556
Co15 Ge5 2.328662 1_655
Co15 Ge4 2.328732 1_656
Co15 Co7 2.518734 1_655
Co15 Co3 2.581339 1_555
Co15 Co5 2.581434 1_555
Co15 Hf4 2.768455 1_555
Co15 Hf2 2.768487 1_556
Co15 Hf3 2.768736 1_655
Ge0 Hf0 2.899546 1_545
Ge0 Hf1 2.899559 1_545
Ge0 Hf3 2.899580 1_555
Ge0 Hf2 2.899597 1_555
Ge1 Hf0 2.899553 1_554
Ge1 Hf4 2.899566 1_554
Ge1 Hf5 2.899592 1_555
Ge1 Hf2 2.899606 1_555
Ge3 Hf2 2.899686 1_455
Ge3 Hf4 2.899719 1_455
Ge3 Hf5 2.899741 1_545
Ge3 Hf0 2.899766 1_545
Ge4 Hf2 2.899699 1_455
Ge4 Hf1 2.899730 1_455
Ge4 Hf3 2.899746 1_554
Ge4 Hf0 2.899775 1_554
Ge5 Hf4 2.899679 1_455
Ge5 Hf1 2.899691 1_455
Ge5 Hf3 2.899771 1_555
Ge5 Hf5 2.899783 1_555
Ge6 Hf3 2.899541 1_554
Ge6 Hf5 2.899552 1_545
Ge6 Hf4 2.899602 1_554
Ge6 Hf1 2.899606 1_545
