# generated using pymatgen
data_Fe(BW)2
_symmetry_space_group_name_H-M   'P 1'
_cell_length_a   3.23393600
_cell_length_b   5.69061700
_cell_length_c   5.69061700
_cell_angle_alpha   90.00000000
_cell_angle_beta   90.00000000
_cell_angle_gamma   90.00000000
_symmetry_Int_Tables_number   1
_chemical_formula_structural   Fe(BW)2
_chemical_formula_sum   'Fe2 B4 W4'
_cell_volume   104.72494351
_cell_formula_units_Z   2
loop_
 _symmetry_equiv_pos_site_id
 _symmetry_equiv_pos_as_xyz
  1  'x, y, z'
loop_
 _atom_site_type_symbol
 _atom_site_label
 _atom_site_symmetry_multiplicity
 _atom_site_fract_x
 _atom_site_fract_y
 _atom_site_fract_z
 _atom_site_occupancy
  Fe  Fe0  1  0.00000000  0.00000000  0.00000000  1
  Fe  Fe1  1  0.00000000  0.50000000  0.50000000  1
  B  B0  1  0.00000000  0.88419000  0.38419000  1
  B  B1  1  0.00000000  0.38419000  0.11581000  1
  B  B2  1  0.00000000  0.11581000  0.61581000  1
  B  B3  1  0.00000000  0.61581000  0.88419000  1
  W  W0  1  0.50000000  0.17791000  0.32209000  1
  W  W1  1  0.50000000  0.67791000  0.17791000  1
  W  W2  1  0.50000000  0.32209000  0.82209000  1
  W  W3  1  0.50000000  0.82209000  0.67791000  1
loop_
_geom_bond_atom_site_label_1
_geom_bond_atom_site_label_2
_geom_bond_distance
_geom_bond_site_symmetry_2
Fe0 W0 2.645574 1_555
Fe0 W1 2.645574 1_545
Fe0 W1 2.645574 1_445
Fe0 W0 2.645574 1_455
Fe0 W2 2.645574 1_454
Fe0 W3 2.645574 1_544
Fe0 W3 2.645574 1_444
Fe0 W2 2.645574 1_554
Fe1 W3 2.645574 1_555
Fe1 W0 2.645574 1_555
Fe1 W3 2.645574 1_455
Fe1 W0 2.645574 1_455
Fe1 W2 2.645574 1_555
Fe1 W2 2.645574 1_455
Fe1 W1 2.645574 1_455
Fe1 W1 2.645574 1_555
B0 B2 1.864019 1_565
B0 Fe0 2.283448 1_565
B0 Fe1 2.283448 1_555
B0 W1 2.317430 1_555
B0 W1 2.317430 1_455
B0 W0 2.352277 1_465
B0 W0 2.352277 1_565
B0 W3 2.352277 1_555
B0 W3 2.352277 1_455
B1 B3 1.864019 1_554
B1 Fe0 2.283448 1_555
B1 Fe1 2.283448 1_555
B1 W0 2.317430 1_555
B1 W0 2.317430 1_455
B1 W2 2.352277 1_454
B1 W2 2.352277 1_554
B1 W1 2.352277 1_455
B1 W1 2.352277 1_555
B2 Fe0 2.283448 1_556
B2 Fe1 2.283448 1_555
B2 W2 2.317430 1_555
B2 W2 2.317430 1_455
B2 W3 2.352277 1_545
B2 W0 2.352277 1_455
B2 W3 2.352277 1_445
B2 W0 2.352277 1_555
B3 Fe0 2.283448 1_566
B3 Fe1 2.283448 1_555
B3 W3 2.317430 1_555
B3 W3 2.317430 1_455
B3 W2 2.352277 1_455
B3 W1 2.352277 1_456
B3 W1 2.352277 1_556
B3 W2 2.352277 1_555
