# generated using pymatgen
data_Sr2NdCu3(PbO4)2
_symmetry_space_group_name_H-M   'P 1'
_cell_length_a   3.86715600
_cell_length_b   3.86715600
_cell_length_c   16.05067700
_cell_angle_alpha   90.00000000
_cell_angle_beta   90.00000000
_cell_angle_gamma   90.00000000
_symmetry_Int_Tables_number   1
_chemical_formula_structural   Sr2NdCu3(PbO4)2
_chemical_formula_sum   'Sr2 Nd1 Cu3 Pb2 O8'
_cell_volume   240.03619769
_cell_formula_units_Z   1
loop_
 _symmetry_equiv_pos_site_id
 _symmetry_equiv_pos_as_xyz
  1  'x, y, z'
loop_
 _atom_site_type_symbol
 _atom_site_label
 _atom_site_symmetry_multiplicity
 _atom_site_fract_x
 _atom_site_fract_y
 _atom_site_fract_z
 _atom_site_occupancy
  Sr  Sr0  1  0.00000000  0.00000000  0.22261900  1
  Sr  Sr1  1  0.00000000  0.00000000  0.77738100  1
  Nd  Nd0  1  0.00000000  0.00000000  0.00000000  1
  Cu  Cu0  1  0.50000000  0.50000000  0.89116600  1
  Cu  Cu1  1  0.50000000  0.50000000  0.10883400  1
  Cu  Cu2  1  0.00000000  0.00000000  0.50000000  1
  Pb  Pb0  1  0.50000000  0.50000000  0.61291200  1
  Pb  Pb1  1  0.50000000  0.50000000  0.38708800  1
  O  O0  1  0.00000000  0.00000000  0.61592300  1
  O  O1  1  0.00000000  0.50000000  0.09783000  1
  O  O2  1  0.50000000  0.00000000  0.90217000  1
  O  O3  1  0.50000000  0.50000000  0.25159700  1
  O  O4  1  0.00000000  0.50000000  0.90217000  1
  O  O5  1  0.50000000  0.00000000  0.09783000  1
  O  O6  1  0.00000000  0.00000000  0.38407700  1
  O  O7  1  0.50000000  0.50000000  0.74840300  1
loop_
_geom_bond_atom_site_label_1
_geom_bond_atom_site_label_2
_geom_bond_distance
_geom_bond_site_symmetry_2
Nd0 O2 2.490857 1_554
Nd0 O2 2.490857 1_454
Nd0 O4 2.490857 1_544
Nd0 O4 2.490857 1_554
Nd0 O5 2.490857 1_455
Nd0 O1 2.490857 1_555
Nd0 O5 2.490857 1_555
Nd0 O1 2.490857 1_545
Cu0 O4 1.941628 1_655
Cu0 O2 1.941628 1_555
Cu0 O2 1.941628 1_565
Cu0 O4 1.941628 1_555
Cu0 O7 2.291443 1_555
Cu1 O1 1.941628 1_555
Cu1 O1 1.941628 1_655
Cu1 O5 1.941628 1_555
Cu1 O5 1.941628 1_565
Cu1 O3 2.291443 1_555
Cu2 O6 1.860643 1_555
Cu2 O0 1.860643 1_555
O0 Sr1 2.591510 1_555
O0 Pb0 2.734919 1_555
O0 Pb0 2.734919 1_545
O0 Pb0 2.734919 1_445
O0 Pb0 2.734919 1_455
O1 Sr0 2.783976 1_555
O1 Sr0 2.783976 1_565
O2 Sr1 2.783976 1_655
O2 Sr1 2.783976 1_555
O3 Pb1 2.174722 1_555
O3 Sr0 2.773767 1_565
O3 Sr0 2.773767 1_665
O3 Sr0 2.773767 1_655
O3 Sr0 2.773767 1_555
O4 Sr1 2.783976 1_555
O4 Sr1 2.783976 1_565
O5 Sr0 2.783976 1_555
O5 Sr0 2.783976 1_655
O6 Sr0 2.591510 1_555
O6 Pb1 2.734919 1_445
O6 Pb1 2.734919 1_555
O6 Pb1 2.734919 1_455
O6 Pb1 2.734919 1_545
O7 Pb0 2.174722 1_555
O7 Sr1 2.773767 1_655
O7 Sr1 2.773767 1_565
O7 Sr1 2.773767 1_665
O7 Sr1 2.773767 1_555
