# generated using pymatgen
data_NaCa2Mg2(AsO4)3
_symmetry_space_group_name_H-M   'P 1'
_cell_length_a   10.84603246
_cell_length_b   10.84603246
_cell_length_c   10.84603246
_cell_angle_alpha   109.48114205
_cell_angle_beta   109.48114205
_cell_angle_gamma   109.45137962
_symmetry_Int_Tables_number   1
_chemical_formula_structural   NaCa2Mg2(AsO4)3
_chemical_formula_sum   'Na4 Ca8 Mg8 As12 O48'
_cell_volume   982.17928395
_cell_formula_units_Z   4
loop_
 _symmetry_equiv_pos_site_id
 _symmetry_equiv_pos_as_xyz
  1  'x, y, z'
loop_
 _atom_site_type_symbol
 _atom_site_label
 _atom_site_symmetry_multiplicity
 _atom_site_fract_x
 _atom_site_fract_y
 _atom_site_fract_z
 _atom_site_occupancy
  Na  Na0  1  0.75000000  0.75000000  0.00000000  1
  Na  Na1  1  0.50000000  0.00000000  0.50000000  1
  Na  Na2  1  0.25000000  0.25000000  0.00000000  1
  Na  Na3  1  0.00000000  0.50000000  0.50000000  1
  Ca  Ca0  1  0.12500000  0.75230700  0.12730700  1
  Ca  Ca1  1  0.00230700  0.87500000  0.62730700  1
  Ca  Ca2  1  0.12500000  0.25230700  0.62730700  1
  Ca  Ca3  1  0.50230700  0.87500000  0.12730700  1
  Ca  Ca4  1  0.62500000  0.99769300  0.87269300  1
  Ca  Ca5  1  0.24769300  0.37500000  0.37269300  1
  Ca  Ca6  1  0.62500000  0.49769300  0.37269300  1
  Ca  Ca7  1  0.74769300  0.37500000  0.87269300  1
  Mg  Mg0  1  0.37500000  0.62500000  0.75000000  1
  Mg  Mg1  1  0.87500000  0.12500000  0.25000000  1
  Mg  Mg2  1  0.87500000  0.12500000  0.75000000  1
  Mg  Mg3  1  0.37500000  0.12500000  0.25000000  1
  Mg  Mg4  1  0.37500000  0.12500000  0.75000000  1
  Mg  Mg5  1  0.87500000  0.62500000  0.25000000  1
  Mg  Mg6  1  0.37500000  0.62500000  0.25000000  1
  Mg  Mg7  1  0.87500000  0.62500000  0.75000000  1
  As  As0  1  0.25000000  0.75000000  0.50000000  1
  As  As1  1  0.62500000  0.74985600  0.62485600  1
  As  As2  1  0.25014400  0.87500000  0.87514400  1
  As  As3  1  0.75014400  0.87500000  0.37514400  1
  As  As4  1  0.12500000  0.00014400  0.37514400  1
  As  As5  1  0.00000000  0.00000000  0.00000000  1
  As  As6  1  0.75000000  0.25000000  0.50000000  1
  As  As7  1  0.99985600  0.37500000  0.12485600  1
  As  As8  1  0.62500000  0.24985600  0.12485600  1
  As  As9  1  0.49985600  0.37500000  0.62485600  1
  As  As10  1  0.12500000  0.50014400  0.87514400  1
  As  As11  1  0.50000000  0.50000000  0.00000000  1
  O  O0  1  0.06867600  0.73132400  0.73856000  1
  O  O1  1  0.28109200  0.73990300  0.35094300  1
  O  O2  1  0.26938900  0.64088600  0.05762800  1
  O  O3  1  0.06985100  0.71890800  0.45881100  1
  O  O4  1  0.76938900  0.71176200  0.62850400  1
  O  O5  1  0.78823800  0.73061100  0.37149600  1
  O  O6  1  0.98132400  0.81867600  0.23856000  1
  O  O7  1  0.16674200  0.03823800  0.55762800  1
  O  O8  1  0.28823800  0.91674200  0.05762800  1
  O  O9  1  0.26867600  0.00723700  0.33735200  1
  O  O10  1  0.48990300  0.63896000  0.95881100  1
  O  O11  1  0.66988400  0.93132400  0.66264800  1
  O  O12  1  0.96890800  0.81985100  0.95881100  1
  O  O13  1  0.56867600  0.83011600  0.33735200  1
  O  O14  1  0.89088600  0.01938900  0.55762800  1
  O  O15  1  0.38896000  0.93014900  0.64905700  1
  O  O16  1  0.75723700  0.91988400  0.23856000  1
  O  O17  1  0.58011600  0.74276300  0.76144000  1
  O  O18  1  0.08325800  0.14088600  0.37149600  1
  O  O19  1  0.25723700  0.01867600  0.83735200  1
  O  O20  1  0.18014900  0.13896000  0.14905700  1
  O  O21  1  0.86104000  0.01009700  0.04118900  1
  O  O22  1  0.35911400  0.41674200  0.62850400  1
  O  O23  1  0.98990300  0.03109200  0.85094300  1
  O  O24  1  0.76009700  0.21890800  0.64905700  1
  O  O25  1  0.39088600  0.83325800  0.87149600  1
  O  O26  1  0.88896000  0.23990300  0.45881100  1
  O  O27  1  0.56985100  0.11104000  0.35094300  1
  O  O28  1  0.49276300  0.23132400  0.66264800  1
  O  O29  1  0.66674200  0.10911400  0.12850400  1
  O  O30  1  0.16988400  0.50723700  0.73856000  1
  O  O31  1  0.99276300  0.33011600  0.26144000  1
  O  O32  1  0.36104000  0.31985100  0.85094300  1
  O  O33  1  0.85911400  0.23061100  0.94237200  1
  O  O34  1  0.18132400  0.41988400  0.16264800  1
  O  O35  1  0.78109200  0.43014900  0.54118900  1
  O  O36  1  0.08011600  0.31867600  0.83735200  1
  O  O37  1  0.26009700  0.61104000  0.54118900  1
  O  O38  1  0.48132400  0.24276300  0.16264800  1
  O  O39  1  0.46176200  0.33325800  0.44237200  1
  O  O40  1  0.58325800  0.21176200  0.94237200  1
  O  O41  1  0.76867600  0.43132400  0.26144000  1
  O  O42  1  0.96176200  0.51938900  0.12850400  1
  O  O43  1  0.98061100  0.53823800  0.87149600  1
  O  O44  1  0.68014900  0.53109200  0.04118900  1
  O  O45  1  0.46890800  0.51009700  0.14905700  1
  O  O46  1  0.48061100  0.60911400  0.44237200  1
  O  O47  1  0.68132400  0.51867600  0.76144000  1
loop_
_geom_bond_atom_site_label_1
_geom_bond_atom_site_label_2
_geom_bond_distance
_geom_bond_site_symmetry_2
Na0 O12 2.479106 1_554
Na0 O44 2.479106 1_555
Na0 O10 2.479106 1_554
Na0 O21 2.479106 1_565
Na0 O16 2.585405 1_555
Na0 O17 2.585405 1_554
Na0 O6 2.585411 1_555
Na0 O47 2.585411 1_554
Na1 O15 2.479106 1_545
Na1 O27 2.479106 1_555
Na1 O1 2.479106 1_545
Na1 O24 2.479106 1_555
Na1 O13 2.585411 1_545
Na1 O11 2.585411 1_545
Na1 O9 2.585418 1_555
Na1 O28 2.585418 1_555
Na2 O32 2.479106 1_554
Na2 O45 2.479106 1_555
Na2 O20 2.479106 1_555
Na2 O23 2.479106 1_454
Na2 O34 2.585411 1_555
Na2 O36 2.585411 1_554
Na2 O38 2.585418 1_555
Na2 O19 2.585418 1_554
Na3 O3 2.479106 1_555
Na3 O35 2.479106 1_455
Na3 O37 2.479106 1_555
Na3 O26 2.479106 1_455
Na3 O30 2.585405 1_555
Na3 O31 2.585405 1_455
Na3 O0 2.585411 1_555
Na3 O41 2.585411 1_455
Ca0 O6 2.413390 1_455
Ca0 O9 2.413396 1_565
Ca0 O2 2.434082 1_555
Ca0 O43 2.434093 1_454
Ca0 O1 2.529431 1_555
Ca0 O12 2.529431 1_454
Ca0 O8 2.564169 1_555
Ca0 O42 2.564178 1_455
Ca1 O0 2.413390 1_555
Ca1 O19 2.413396 1_565
Ca1 O14 2.434082 1_465
Ca1 O5 2.434093 1_455
Ca1 O3 2.529431 1_555
Ca1 O23 2.529431 1_465
Ca1 O7 2.564169 1_565
Ca1 O4 2.564178 1_455
Ca2 O36 2.413390 1_555
Ca2 O30 2.413399 1_555
Ca2 O18 2.434092 1_555
Ca2 O7 2.434092 1_555
Ca2 O26 2.529431 1_455
Ca2 O32 2.529431 1_555
Ca2 O22 2.564169 1_555
Ca2 O14 2.564175 1_455
Ca3 O13 2.413390 1_555
Ca3 O16 2.413399 1_555
Ca3 O25 2.434092 1_554
Ca3 O8 2.434092 1_555
Ca3 O27 2.529431 1_565
Ca3 O10 2.529431 1_554
Ca3 O29 2.564169 1_565
Ca3 O2 2.564175 1_555
Ca4 O11 2.413390 1_555
Ca4 O17 2.413399 1_555
Ca4 O40 2.434092 1_565
Ca4 O29 2.434092 1_566
Ca4 O21 2.529431 1_566
Ca4 O15 2.529431 1_555
Ca4 O25 2.564169 1_555
Ca4 O33 2.564175 1_565
Ca5 O34 2.413390 1_555
Ca5 O31 2.413399 1_455
Ca5 O22 2.434092 1_555
Ca5 O39 2.434092 1_555
Ca5 O20 2.529431 1_555
Ca5 O37 2.529431 1_555
Ca5 O18 2.564169 1_555
Ca5 O46 2.564175 1_555
Ca6 O41 2.413390 1_555
Ca6 O38 2.413396 1_555
Ca6 O46 2.434082 1_555
Ca6 O4 2.434093 1_555
Ca6 O45 2.529431 1_555
Ca6 O35 2.529431 1_555
Ca6 O39 2.564169 1_555
Ca6 O5 2.564178 1_555
Ca7 O47 2.413390 1_555
Ca7 O28 2.413396 1_555
Ca7 O33 2.434082 1_555
Ca7 O42 2.434093 1_556
Ca7 O44 2.529431 1_556
Ca7 O24 2.529431 1_555
Ca7 O40 2.564169 1_555
Ca7 O43 2.564178 1_555
Mg0 O17 2.100893 1_555
Mg0 O30 2.100893 1_555
Mg0 O37 2.113831 1_555
Mg0 O10 2.113831 1_555
Mg0 O22 2.114772 1_555
Mg0 O25 2.114772 1_555
Mg1 O16 2.100893 1_545
Mg1 O31 2.100893 1_555
Mg1 O21 2.113831 1_555
Mg1 O26 2.113831 1_555
Mg1 O29 2.114772 1_555
Mg1 O18 2.114772 1_655
Mg2 O11 2.100895 1_545
Mg2 O36 2.100895 1_655
Mg2 O24 2.113831 1_555
Mg2 O23 2.113831 1_555
Mg2 O14 2.114774 1_555
Mg2 O33 2.114774 1_555
Mg3 O9 2.100889 1_555
Mg3 O38 2.100889 1_555
Mg3 O27 2.113831 1_555
Mg3 O20 2.113831 1_555
Mg3 O39 2.114772 1_555
Mg3 O8 2.114772 1_545
Mg4 O28 2.100889 1_555
Mg4 O19 2.100889 1_555
Mg4 O15 2.113831 1_545
Mg4 O32 2.113831 1_555
Mg4 O7 2.114772 1_555
Mg4 O40 2.114772 1_555
Mg5 O6 2.100895 1_555
Mg5 O41 2.100895 1_555
Mg5 O3 2.113831 1_655
Mg5 O44 2.113831 1_555
Mg5 O42 2.114777 1_555
Mg5 O5 2.114777 1_555
Mg6 O34 2.100895 1_555
Mg6 O13 2.100895 1_555
Mg6 O45 2.113831 1_555
Mg6 O1 2.113831 1_555
Mg6 O2 2.114774 1_555
Mg6 O46 2.114774 1_555
Mg7 O47 2.100895 1_555
Mg7 O0 2.100895 1_655
Mg7 O35 2.113831 1_555
Mg7 O12 2.113831 1_555
Mg7 O4 2.114777 1_555
Mg7 O43 2.114777 1_555
As0 O15 1.734791 1_555
As0 O37 1.734791 1_555
As0 O1 1.734791 1_555
As0 O3 1.734791 1_555
As1 O11 1.723226 1_555
As1 O17 1.723229 1_555
As1 O4 1.739337 1_555
As1 O46 1.739345 1_555
As2 O19 1.723224 1_565
As2 O0 1.723226 1_555
As2 O8 1.739348 1_556
As2 O25 1.739348 1_555
As3 O13 1.723226 1_555
As3 O16 1.723229 1_555
As3 O5 1.739337 1_555
As3 O14 1.739345 1_565
As4 O9 1.723224 1_555
As4 O6 1.723226 1_445
As4 O18 1.739348 1_555
As4 O7 1.739348 1_555
As5 O21 1.734791 1_455
As5 O12 1.734791 1_444
As5 O20 1.734791 1_555
As5 O23 1.734791 1_454
As6 O26 1.734791 1_555
As6 O27 1.734791 1_555
As6 O35 1.734791 1_555
As6 O24 1.734791 1_555
As7 O34 1.723226 1_655
As7 O31 1.723229 1_555
As7 O42 1.739337 1_555
As7 O33 1.739345 1_554
As8 O38 1.723224 1_555
As8 O41 1.723226 1_555
As8 O29 1.739348 1_555
As8 O40 1.739348 1_554
As9 O28 1.723224 1_555
As9 O47 1.723226 1_555
As9 O39 1.739348 1_555
As9 O22 1.739348 1_555
As10 O36 1.723226 1_555
As10 O30 1.723229 1_555
As10 O43 1.739337 1_455
As10 O2 1.739345 1_556
As11 O32 1.734791 1_554
As11 O10 1.734791 1_554
As11 O45 1.734791 1_555
As11 O44 1.734791 1_555
