# generated using pymatgen
data_Sr9LaTi10O30
_symmetry_space_group_name_H-M   'P 1'
_cell_length_a   9.66032000
_cell_length_b   11.16485090
_cell_length_c   12.47456093
_cell_angle_alpha   77.03080604
_cell_angle_beta   75.07976010
_cell_angle_gamma   73.35141360
_symmetry_Int_Tables_number   1
_chemical_formula_structural   Sr9LaTi10O30
_chemical_formula_sum   'Sr18 La2 Ti20 O60'
_cell_volume   1228.98991391
_cell_formula_units_Z   2
loop_
 _symmetry_equiv_pos_site_id
 _symmetry_equiv_pos_as_xyz
  1  'x, y, z'
loop_
 _atom_site_type_symbol
 _atom_site_label
 _atom_site_symmetry_multiplicity
 _atom_site_fract_x
 _atom_site_fract_y
 _atom_site_fract_z
 _atom_site_occupancy
  Sr  Sr0  1  0.54978300  0.45015900  0.65021600  1
  Sr  Sr1  1  0.14943600  0.85040600  0.45011300  1
  Sr  Sr2  1  0.85056400  0.14959400  0.54988700  1
  Sr  Sr3  1  0.75002400  0.25028100  0.25000500  1
  Sr  Sr4  1  0.55027300  0.94973000  0.65008600  1
  Sr  Sr5  1  0.35023000  0.64959400  0.05000200  1
  Sr  Sr6  1  0.45021700  0.54984100  0.34978400  1
  Sr  Sr7  1  0.15031100  0.34962700  0.44983200  1
  Sr  Sr8  1  0.95025500  0.04982400  0.84974200  1
  Sr  Sr9  1  0.04974500  0.95017600  0.15025800  1
  Sr  Sr10  1  0.84968900  0.65037300  0.55016800  1
  Sr  Sr11  1  0.64977000  0.35040600  0.94999800  1
  Sr  Sr12  1  0.34979000  0.15027200  0.05031400  1
  Sr  Sr13  1  0.44972700  0.05027000  0.34991400  1
  Sr  Sr14  1  0.24997600  0.74971900  0.74999500  1
  Sr  Sr15  1  0.05017200  0.44983800  0.15032400  1
  Sr  Sr16  1  0.94982800  0.55016200  0.84967600  1
  Sr  Sr17  1  0.65021000  0.84972800  0.94968600  1
  La  La0  1  0.75001600  0.74997600  0.25002100  1
  La  La1  1  0.24998400  0.25002400  0.74997900  1
  Ti  Ti0  1  0.80084000  0.95054400  0.40079200  1
  Ti  Ti1  1  0.49993500  0.25010900  0.49886500  1
  Ti  Ti2  1  0.19916000  0.04945600  0.59920800  1
  Ti  Ti3  1  0.10155600  0.64943600  0.29973900  1
  Ti  Ti4  1  0.80029000  0.44867100  0.40023000  1
  Ti  Ti5  1  0.69924000  0.05109700  0.09973500  1
  Ti  Ti6  1  0.39886900  0.85089600  0.19992100  1
  Ti  Ti7  1  0.50006500  0.74989100  0.50113500  1
  Ti  Ti8  1  0.19971000  0.55132900  0.59977000  1
  Ti  Ti9  1  0.30095900  0.45078400  0.90040200  1
  Ti  Ti10  1  0.10043700  0.15034100  0.29967100  1
  Ti  Ti11  1  0.99951700  0.24977500  0.00084600  1
  Ti  Ti12  1  0.89956300  0.84965900  0.70032900  1
  Ti  Ti13  1  0.60060800  0.65038600  0.79986100  1
  Ti  Ti14  1  0.69904100  0.54921600  0.09959800  1
  Ti  Ti15  1  0.39939200  0.34961400  0.20013900  1
  Ti  Ti16  1  0.30076000  0.94890300  0.90026500  1
  Ti  Ti17  1  0.00048300  0.75022500  0.99915400  1
  Ti  Ti18  1  0.89844400  0.35056400  0.70026100  1
  Ti  Ti19  1  0.60113100  0.14910400  0.80007900  1
  O  O0  1  0.34819100  0.39735900  0.55349800  1
  O  O1  1  0.94647600  0.79912000  0.34826900  1
  O  O2  1  0.34761400  0.65244000  0.54153600  1
  O  O3  1  0.54201300  0.69456500  0.65237000  1
  O  O4  1  0.85828200  0.90521700  0.54701700  1
  O  O5  1  0.55046900  0.19967900  0.15020200  1
  O  O6  1  0.05300300  0.94749200  0.65827900  1
  O  O7  1  0.94699700  0.05250800  0.34172100  1
  O  O8  1  0.35009400  0.90004800  0.54992400  1
  O  O9  1  0.14171800  0.09478300  0.45298300  1
  O  O10  1  0.45798700  0.30543500  0.34763000  1
  O  O11  1  0.14952400  0.59969700  0.95018000  1
  O  O12  1  0.65238600  0.34756000  0.45846400  1
  O  O13  1  0.54742400  0.45295100  0.14204600  1
  O  O14  1  0.94980100  0.30039400  0.34992800  1
  O  O15  1  0.05352400  0.20088000  0.65173100  1
  O  O16  1  0.34583900  0.15416500  0.54474200  1
  O  O17  1  0.74183200  0.49797600  0.25278000  1
  O  O18  1  0.53556200  0.19554400  0.65484100  1
  O  O19  1  0.05413700  0.70621300  0.14866100  1
  O  O20  1  0.85861700  0.40566900  0.54716800  1
  O  O21  1  0.84817400  0.89741300  0.05349500  1
  O  O22  1  0.74958700  0.00033100  0.74972900  1
  O  O23  1  0.25272300  0.74736300  0.25824400  1
  O  O24  1  0.14706100  0.85305600  0.94194000  1
  O  O25  1  0.65180900  0.60264100  0.44650200  1
  O  O26  1  0.55341700  0.70090200  0.15173600  1
  O  O27  1  0.05701000  0.44298900  0.66034500  1
  O  O28  1  0.94299000  0.55701100  0.33965500  1
  O  O29  1  0.34216100  0.89468800  0.05264500  1
  O  O30  1  0.14138300  0.59433100  0.45283200  1
  O  O31  1  0.65783900  0.10531200  0.94735500  1
  O  O32  1  0.46443800  0.80445600  0.34515900  1
  O  O33  1  0.85293900  0.14694400  0.05806000  1
  O  O34  1  0.74727700  0.25263700  0.74175600  1
  O  O35  1  0.15182600  0.10258700  0.94650500  1
  O  O36  1  0.25041300  0.99966900  0.25027100  1
  O  O37  1  0.65416100  0.84583500  0.45525800  1
  O  O38  1  0.55014600  0.94984200  0.14320300  1
  O  O39  1  0.05019900  0.69960600  0.65007200  1
  O  O40  1  0.94586300  0.29378700  0.85133900  1
  O  O41  1  0.74165000  0.98930700  0.25276100  1
  O  O42  1  0.25816800  0.50202400  0.74722000  1
  O  O43  1  0.05834400  0.20537500  0.14686900  1
  O  O44  1  0.45257600  0.54704900  0.85795400  1
  O  O45  1  0.85047600  0.40030300  0.04982000  1
  O  O46  1  0.75051900  0.49984300  0.74998600  1
  O  O47  1  0.25266200  0.24732600  0.25803900  1
  O  O48  1  0.14939100  0.35058700  0.93747100  1
  O  O49  1  0.64990600  0.09995200  0.45007600  1
  O  O50  1  0.34194900  0.39438900  0.05236500  1
  O  O51  1  0.65805100  0.60561100  0.94763500  1
  O  O52  1  0.44953100  0.80032100  0.84979800  1
  O  O53  1  0.85060900  0.64941300  0.06252900  1
  O  O54  1  0.74733800  0.75267400  0.74196100  1
  O  O55  1  0.24948100  0.50015700  0.25001400  1
  O  O56  1  0.94165600  0.79462500  0.85313100  1
  O  O57  1  0.25835000  0.01069300  0.74723900  1
  O  O58  1  0.44985400  0.05015800  0.85679700  1
  O  O59  1  0.44658300  0.29909800  0.84826400  1
loop_
_geom_bond_atom_site_label_1
_geom_bond_atom_site_label_2
_geom_bond_distance
_geom_bond_site_symmetry_2
La0 O28 2.656649 1_555
La0 O53 2.656770 1_555
La0 O41 2.657748 1_555
La0 O32 2.658160 1_555
La0 O25 2.738716 1_555
La0 O1 2.738861 1_555
La0 O21 2.739524 1_555
La0 O26 2.739943 1_555
La0 O37 2.828242 1_555
La0 O38 2.829220 1_555
La0 O17 2.829496 1_555
La0 O19 2.830310 1_655
La1 O27 2.656649 1_555
La1 O48 2.656770 1_555
La1 O57 2.657748 1_555
La1 O18 2.658160 1_555
La1 O0 2.738716 1_555
La1 O15 2.738861 1_555
La1 O35 2.739524 1_555
La1 O59 2.739943 1_555
La1 O16 2.828242 1_555
La1 O58 2.829220 1_555
La1 O42 2.829496 1_555
La1 O40 2.830310 1_455
O0 Ti1 1.980829 1_555
O0 Ti8 1.987939 1_555
O0 Sr7 2.788643 1_555
O0 Sr0 2.789754 1_555
O0 Sr6 2.838562 1_555
O1 Ti0 1.981531 1_555
O1 Ti3 1.989035 1_655
O1 Sr9 2.786796 1_655
O1 Sr10 2.788419 1_555
O1 Sr1 2.835250 1_655
O2 Ti8 1.966018 1_555
O2 Ti7 1.973965 1_555
O2 Sr6 2.715655 1_555
O2 Sr1 2.723844 1_555
O2 Sr0 2.866113 1_555
O2 Sr14 2.872144 1_555
O3 Ti7 1.957593 1_555
O3 Ti13 1.979356 1_555
O3 Sr0 2.714218 1_555
O3 Sr14 2.719055 1_555
O3 Sr10 2.862488 1_555
O3 Sr4 2.866347 1_555
O4 Ti0 1.958908 1_555
O4 Ti12 1.979892 1_555
O4 Sr1 2.709552 1_655
O4 Sr2 2.716080 1_565
O4 Sr10 2.861398 1_555
O4 Sr4 2.867573 1_555
O5 Ti5 1.962267 1_555
O5 Ti15 1.979981 1_555
O5 Sr13 2.784382 1_555
O5 Sr3 2.785888 1_555
O5 Sr12 2.789341 1_555
O5 Sr11 2.791833 1_554
O6 Ti2 1.959905 1_565
O6 Ti12 1.983829 1_455
O6 Sr8 2.710969 1_465
O6 Sr14 2.717543 1_555
O6 Sr2 2.864955 1_465
O6 Sr1 2.867953 1_555
O7 Ti0 1.959905 1_545
O7 Ti10 1.983829 1_655
O7 Sr9 2.710969 1_645
O7 Sr3 2.717543 1_555
O7 Sr1 2.864955 1_645
O7 Sr2 2.867953 1_555
O8 Ti2 1.972715 1_565
O8 Ti7 1.972850 1_555
O8 Sr13 2.788309 1_565
O8 Sr4 2.788977 1_555
O8 Sr1 2.789827 1_555
O8 Sr14 2.790765 1_555
O9 Ti2 1.958908 1_555
O9 Ti10 1.979892 1_555
O9 Sr2 2.709552 1_455
O9 Sr1 2.716080 1_545
O9 Sr7 2.861398 1_555
O9 Sr13 2.867573 1_555
O10 Ti1 1.957593 1_555
O10 Ti15 1.979356 1_555
O10 Sr6 2.714218 1_555
O10 Sr3 2.719055 1_555
O10 Sr7 2.862488 1_555
O10 Sr13 2.866347 1_555
O11 Ti9 1.972778 1_555
O11 Ti17 1.972840 1_555
O11 Sr15 2.786633 1_556
O11 Sr16 2.786989 1_455
O11 Sr14 2.790939 1_555
O11 Sr5 2.791739 1_556
O12 Ti4 1.966018 1_555
O12 Ti1 1.973965 1_555
O12 Sr0 2.715655 1_555
O12 Sr2 2.723844 1_555
O12 Sr6 2.866113 1_555
O12 Sr3 2.872144 1_555
O13 Ti14 1.956527 1_555
O13 Ti15 1.984375 1_555
O13 Sr5 2.713997 1_555
O13 Sr11 2.718560 1_554
O13 Sr6 2.861936 1_555
O13 Sr3 2.866407 1_555
O14 Ti4 1.962132 1_555
O14 Ti10 1.980415 1_655
O14 Sr15 2.782633 1_655
O14 Sr3 2.786016 1_555
O14 Sr7 2.787094 1_655
O14 Sr2 2.790015 1_555
O15 Ti2 1.981531 1_555
O15 Ti18 1.989035 1_455
O15 Sr8 2.786796 1_455
O15 Sr7 2.788419 1_555
O15 Sr2 2.835250 1_455
O16 Ti1 1.972516 1_555
O16 Ti2 1.983187 1_555
O16 Sr7 2.713287 1_555
O16 Sr13 2.757150 1_555
O16 Sr4 2.871249 1_545
O17 Ti4 1.976745 1_555
O17 Ti14 1.982471 1_555
O17 Sr6 2.712934 1_555
O17 Sr3 2.751633 1_555
O17 Sr15 2.867998 1_655
O18 Ti19 1.983362 1_555
O18 Ti1 1.992011 1_555
O18 Sr4 2.720498 1_545
O18 Sr0 2.872184 1_555
O18 Sr2 2.931324 1_555
O19 Ti3 1.976221 1_555
O19 Ti17 1.982160 1_554
O19 Sr9 2.716439 1_555
O19 Sr5 2.756133 1_555
O19 Sr15 2.868959 1_555
O20 Ti18 1.972081 1_555
O20 Ti4 1.972222 1_555
O20 Sr7 2.715694 1_655
O20 Sr10 2.717045 1_555
O20 Sr0 2.874478 1_555
O20 Sr2 2.874694 1_555
O21 Ti17 1.981382 1_654
O21 Ti5 1.987267 1_565
O21 Sr9 2.789738 1_655
O21 Sr17 2.790301 1_554
O21 Sr8 2.838647 1_564
O22 Ti19 1.962070 1_555
O22 Ti12 1.979326 1_545
O22 Sr4 2.782530 1_545
O22 Sr2 2.785318 1_555
O22 Sr17 2.789284 1_545
O22 Sr8 2.790771 1_555
O23 Ti3 1.966587 1_555
O23 Ti6 1.971656 1_555
O23 Sr6 2.718078 1_555
O23 Sr1 2.719616 1_555
O23 Sr9 2.869454 1_555
O23 Sr5 2.872380 1_555
O24 Ti17 1.968717 1_555
O24 Ti16 1.970593 1_555
O24 Sr8 2.713357 1_465
O24 Sr14 2.722079 1_555
O24 Sr9 2.869727 1_556
O24 Sr5 2.874504 1_556
O25 Ti7 1.980829 1_555
O25 Ti4 1.987939 1_555
O25 Sr10 2.788643 1_555
O25 Sr6 2.789754 1_555
O25 Sr0 2.838562 1_555
O26 Ti14 1.981982 1_555
O26 Ti6 1.987927 1_555
O26 Sr6 2.786926 1_555
O26 Sr17 2.790154 1_554
O26 Sr5 2.836349 1_555
O27 Ti18 1.985325 1_455
O27 Ti8 1.985763 1_555
O27 Sr16 2.716865 1_455
O27 Sr7 2.875165 1_555
O27 Sr10 2.931415 1_455
O28 Ti3 1.985325 1_655
O28 Ti4 1.985763 1_555
O28 Sr15 2.716865 1_655
O28 Sr10 2.875165 1_555
O28 Sr7 2.931415 1_655
O29 Ti16 1.968753 1_554
O29 Ti6 1.968776 1_555
O29 Sr9 2.722272 1_555
O29 Sr5 2.722537 1_555
O29 Sr17 2.867496 1_554
O29 Sr12 2.869011 1_565
O30 Ti3 1.972081 1_555
O30 Ti8 1.972222 1_555
O30 Sr10 2.715694 1_455
O30 Sr7 2.717045 1_555
O30 Sr6 2.874478 1_555
O30 Sr1 2.874694 1_555
O31 Ti5 1.968753 1_556
O31 Ti19 1.968776 1_555
O31 Sr8 2.722272 1_555
O31 Sr11 2.722537 1_555
O31 Sr12 2.867496 1_556
O31 Sr17 2.869011 1_545
O32 Ti6 1.983362 1_555
O32 Ti7 1.992011 1_555
O32 Sr13 2.720498 1_565
O32 Sr6 2.872184 1_555
O32 Sr1 2.931324 1_555
O33 Ti11 1.968717 1_555
O33 Ti5 1.970593 1_555
O33 Sr9 2.713357 1_645
O33 Sr3 2.722079 1_555
O33 Sr8 2.869727 1_554
O33 Sr11 2.874504 1_554
O34 Ti18 1.966587 1_555
O34 Ti19 1.971656 1_555
O34 Sr0 2.718078 1_555
O34 Sr2 2.719616 1_555
O34 Sr8 2.869454 1_555
O34 Sr11 2.872380 1_555
O35 Ti11 1.981382 1_456
O35 Ti16 1.987267 1_545
O35 Sr8 2.789738 1_455
O35 Sr12 2.790301 1_556
O35 Sr9 2.838647 1_546
O36 Ti6 1.962070 1_555
O36 Ti10 1.979326 1_565
O36 Sr13 2.782530 1_565
O36 Sr1 2.785318 1_555
O36 Sr12 2.789284 1_565
O36 Sr9 2.790771 1_555
O37 Ti7 1.972516 1_555
O37 Ti0 1.983187 1_555
O37 Sr10 2.713287 1_555
O37 Sr4 2.757150 1_555
O37 Sr13 2.871249 1_565
O38 Ti6 1.974444 1_555
O38 Ti5 1.975392 1_565
O38 Sr17 2.720619 1_554
O38 Sr12 2.757847 1_565
O38 Sr13 2.869495 1_565
O39 Ti8 1.962132 1_555
O39 Ti12 1.980415 1_455
O39 Sr16 2.782633 1_455
O39 Sr14 2.786016 1_555
O39 Sr10 2.787094 1_455
O39 Sr1 2.790015 1_555
O40 Ti18 1.976221 1_555
O40 Ti11 1.982160 1_556
O40 Sr8 2.716439 1_555
O40 Sr11 2.756133 1_555
O40 Sr16 2.868959 1_555
O41 Ti5 1.984306 1_565
O41 Ti0 1.991852 1_555
O41 Sr13 2.719431 1_565
O41 Sr9 2.868823 1_655
O41 Sr3 2.930230 1_565
O42 Ti8 1.976745 1_555
O42 Ti9 1.982471 1_555
O42 Sr0 2.712934 1_555
O42 Sr14 2.751633 1_555
O42 Sr16 2.867998 1_455
O43 Ti11 1.962944 1_455
O43 Ti10 1.976491 1_555
O43 Sr12 2.711073 1_555
O43 Sr15 2.717584 1_555
O43 Sr9 2.864735 1_545
O43 Sr3 2.870278 1_455
O44 Ti9 1.956527 1_555
O44 Ti13 1.984375 1_555
O44 Sr11 2.713997 1_555
O44 Sr5 2.718560 1_556
O44 Sr0 2.861936 1_555
O44 Sr14 2.866407 1_555
O45 Ti14 1.972778 1_555
O45 Ti11 1.972840 1_555
O45 Sr16 2.786633 1_554
O45 Sr15 2.786989 1_655
O45 Sr3 2.790939 1_555
O45 Sr11 2.791739 1_554
O46 Ti18 1.961507 1_555
O46 Ti13 1.979914 1_555
O46 Sr16 2.781304 1_555
O46 Sr11 2.787067 1_555
O46 Sr10 2.787140 1_555
O46 Sr0 2.790371 1_555
O47 Ti15 1.966018 1_555
O47 Ti10 1.967597 1_555
O47 Sr7 2.714353 1_555
O47 Sr13 2.714757 1_555
O47 Sr12 2.862692 1_555
O47 Sr15 2.863506 1_555
O48 Ti11 1.983187 1_456
O48 Ti9 1.991699 1_555
O48 Sr16 2.722406 1_455
O48 Sr12 2.870624 1_556
O48 Sr15 2.932321 1_556
O49 Ti0 1.972715 1_545
O49 Ti1 1.972850 1_555
O49 Sr4 2.788309 1_545
O49 Sr13 2.788977 1_555
O49 Sr2 2.789827 1_555
O49 Sr3 2.790765 1_555
O50 Ti9 1.963351 1_554
O50 Ti15 1.977421 1_555
O50 Sr12 2.710519 1_555
O50 Sr15 2.717974 1_555
O50 Sr11 2.864219 1_554
O50 Sr5 2.866639 1_555
O51 Ti14 1.963351 1_556
O51 Ti13 1.977421 1_555
O51 Sr17 2.710519 1_555
O51 Sr16 2.717974 1_555
O51 Sr5 2.864219 1_556
O51 Sr11 2.866639 1_555
O52 Ti16 1.962267 1_555
O52 Ti13 1.979981 1_555
O52 Sr4 2.784382 1_555
O52 Sr14 2.785888 1_555
O52 Sr17 2.789341 1_555
O52 Sr5 2.791833 1_556
O53 Ti17 1.983187 1_654
O53 Ti14 1.991699 1_555
O53 Sr15 2.722406 1_655
O53 Sr17 2.870624 1_554
O53 Sr16 2.932321 1_554
O54 Ti13 1.966018 1_555
O54 Ti12 1.967597 1_555
O54 Sr10 2.714353 1_555
O54 Sr4 2.714757 1_555
O54 Sr17 2.862692 1_555
O54 Sr16 2.863506 1_555
O55 Ti3 1.961507 1_555
O55 Ti15 1.979914 1_555
O55 Sr15 2.781304 1_555
O55 Sr5 2.787067 1_555
O55 Sr7 2.787140 1_555
O55 Sr6 2.790371 1_555
O56 Ti17 1.962944 1_655
O56 Ti12 1.976491 1_555
O56 Sr17 2.711073 1_555
O56 Sr16 2.717584 1_555
O56 Sr8 2.864735 1_565
O56 Sr14 2.870278 1_655
O57 Ti16 1.984306 1_545
O57 Ti2 1.991852 1_555
O57 Sr4 2.719431 1_545
O57 Sr8 2.868823 1_455
O57 Sr14 2.930230 1_545
O58 Ti19 1.974444 1_555
O58 Ti16 1.975392 1_545
O58 Sr12 2.720619 1_556
O58 Sr17 2.757847 1_545
O58 Sr4 2.869495 1_545
O59 Ti9 1.981982 1_555
O59 Ti19 1.987927 1_555
O59 Sr0 2.786926 1_555
O59 Sr12 2.790154 1_556
O59 Sr11 2.836349 1_555
