# generated using pymatgen
data_YbCd6
_symmetry_space_group_name_H-M   'P 1'
_cell_length_a   13.69776793
_cell_length_b   13.69776793
_cell_length_c   13.69776793
_cell_angle_alpha   109.47122063
_cell_angle_beta   109.47122063
_cell_angle_gamma   109.47122063
_symmetry_Int_Tables_number   1
_chemical_formula_structural   YbCd6
_chemical_formula_sum   'Yb12 Cd72'
_cell_volume   1978.46112460
_cell_formula_units_Z   12
loop_
 _symmetry_equiv_pos_site_id
 _symmetry_equiv_pos_as_xyz
  1  'x, y, z'
loop_
 _atom_site_type_symbol
 _atom_site_label
 _atom_site_symmetry_multiplicity
 _atom_site_fract_x
 _atom_site_fract_y
 _atom_site_fract_z
 _atom_site_occupancy
  Yb  Yb0  1  0.29838600  0.11324300  0.81051600  1
  Yb  Yb1  1  0.30272700  0.48787000  0.18948400  1
  Yb  Yb2  1  0.18514300  0.69727300  0.88675700  1
  Yb  Yb3  1  0.69727300  0.88675700  0.18514300  1
  Yb  Yb4  1  0.81485700  0.70161400  0.51213000  1
  Yb  Yb5  1  0.88675700  0.18514300  0.69727300  1
  Yb  Yb6  1  0.48787000  0.18948400  0.30272700  1
  Yb  Yb7  1  0.51213000  0.81485700  0.70161400  1
  Yb  Yb8  1  0.18948400  0.30272700  0.48787000  1
  Yb  Yb9  1  0.70161400  0.51213000  0.81485700  1
  Yb  Yb10  1  0.81051600  0.29838600  0.11324300  1
  Yb  Yb11  1  0.11324300  0.81051600  0.29838600  1
  Cd  Cd0  1  0.23794400  0.90608400  0.14541900  1
  Cd  Cd1  1  0.00000000  0.00000000  0.31371800  1
  Cd  Cd2  1  0.53957900  0.08684100  0.85308200  1
  Cd  Cd3  1  0.40517500  0.00000000  0.40517500  1
  Cd  Cd4  1  0.34880700  0.74983800  0.40787200  1
  Cd  Cd5  1  0.13336200  0.13336200  0.13336200  1
  Cd  Cd6  1  0.33186000  0.23933500  0.09391600  1
  Cd  Cd7  1  0.08684100  0.85308200  0.53957900  1
  Cd  Cd8  1  0.90608400  0.14541900  0.23794400  1
  Cd  Cd9  1  0.19125800  0.69125800  0.50000000  1
  Cd  Cd10  1  0.68064800  0.45963100  0.54436400  1
  Cd  Cd11  1  0.35052100  0.35052100  0.35052100  1
  Cd  Cd12  1  0.45273800  0.76624000  0.91315900  1
  Cd  Cd13  1  0.66814000  0.76205600  0.90747500  1
  Cd  Cd14  1  0.31371800  0.00000000  0.00000000  1
  Cd  Cd15  1  0.77898300  0.31935200  0.86371600  1
  Cd  Cd16  1  0.22101700  0.08473300  0.54036900  1
  Cd  Cd17  1  0.31350200  0.54726200  0.46042100  1
  Cd  Cd18  1  0.31935200  0.86371600  0.77898300  1
  Cd  Cd19  1  0.05906500  0.40103100  0.65119300  1
  Cd  Cd20  1  0.14541900  0.23794400  0.90608400  1
  Cd  Cd21  1  0.69125800  0.50000000  0.19125800  1
  Cd  Cd22  1  0.94093500  0.59212800  0.34196600  1
  Cd  Cd23  1  0.23933500  0.09391600  0.33186000  1
  Cd  Cd24  1  0.30874200  0.50000000  0.80874200  1
  Cd  Cd25  1  0.90747500  0.66814000  0.76205600  1
  Cd  Cd26  1  0.09391600  0.33186000  0.23933500  1
  Cd  Cd27  1  0.00000000  0.31371800  0.00000000  1
  Cd  Cd28  1  0.80874200  0.30874200  0.50000000  1
  Cd  Cd29  1  0.76066500  0.09252500  0.85458100  1
  Cd  Cd30  1  0.76205600  0.90747500  0.66814000  1
  Cd  Cd31  1  0.59482500  0.59482500  0.00000000  1
  Cd  Cd32  1  0.76624000  0.91315900  0.45273800  1
  Cd  Cd33  1  0.86371600  0.77898300  0.31935200  1
  Cd  Cd34  1  0.54726200  0.46042100  0.31350200  1
  Cd  Cd35  1  0.45563600  0.91526700  0.13628400  1
  Cd  Cd36  1  0.00000000  0.64947900  0.00000000  1
  Cd  Cd37  1  0.00000000  0.00000000  0.64947900  1
  Cd  Cd38  1  0.68649800  0.14691800  0.23376000  1
  Cd  Cd39  1  0.54036900  0.22101700  0.08473300  1
  Cd  Cd40  1  0.45963100  0.54436400  0.68064800  1
  Cd  Cd41  1  0.46042100  0.31350200  0.54726200  1
  Cd  Cd42  1  0.59212800  0.34196600  0.94093500  1
  Cd  Cd43  1  0.14691800  0.23376000  0.68649800  1
  Cd  Cd44  1  0.50000000  0.19125800  0.69125800  1
  Cd  Cd45  1  0.09252500  0.85458100  0.76066500  1
  Cd  Cd46  1  0.40787200  0.34880700  0.74983800  1
  Cd  Cd47  1  0.25016200  0.59896900  0.65803400  1
  Cd  Cd48  1  0.40517500  0.40517500  0.00000000  1
  Cd  Cd49  1  0.23376000  0.68649800  0.14691800  1
  Cd  Cd50  1  0.85458100  0.76066500  0.09252500  1
  Cd  Cd51  1  0.00000000  0.00000000  0.86663800  1
  Cd  Cd52  1  0.50000000  0.80874200  0.30874200  1
  Cd  Cd53  1  0.91526700  0.13628400  0.45563600  1
  Cd  Cd54  1  0.86663800  0.00000000  0.00000000  1
  Cd  Cd55  1  0.65803400  0.25016200  0.59896900  1
  Cd  Cd56  1  0.40103100  0.65119300  0.05906500  1
  Cd  Cd57  1  0.65119300  0.05906500  0.40103100  1
  Cd  Cd58  1  0.00000000  0.40517500  0.40517500  1
  Cd  Cd59  1  0.59482500  0.00000000  0.59482500  1
  Cd  Cd60  1  0.74983800  0.40787200  0.34880700  1
  Cd  Cd61  1  0.13628400  0.45563600  0.91526700  1
  Cd  Cd62  1  0.08473300  0.54036900  0.22101700  1
  Cd  Cd63  1  0.64947900  0.00000000  0.00000000  1
  Cd  Cd64  1  0.00000000  0.86663800  0.00000000  1
  Cd  Cd65  1  0.91315900  0.45273800  0.76624000  1
  Cd  Cd66  1  0.68628200  0.68628200  0.68628200  1
  Cd  Cd67  1  0.54436400  0.68064800  0.45963100  1
  Cd  Cd68  1  0.00000000  0.59482500  0.59482500  1
  Cd  Cd69  1  0.59896900  0.65803400  0.25016200  1
  Cd  Cd70  1  0.34196600  0.94093500  0.59212800  1
  Cd  Cd71  1  0.85308200  0.53957900  0.08684100  1
loop_
_geom_bond_atom_site_label_1
_geom_bond_atom_site_label_2
_geom_bond_distance
_geom_bond_site_symmetry_2
Cd0 Cd64 2.943295 1_555
Cd0 Cd23 2.948986 1_565
Cd0 Cd14 2.982690 1_565
Cd0 Cd35 2.988705 1_555
Cd0 Cd49 2.996303 1_555
Cd0 Cd3 3.018677 1_565
Cd0 Cd36 3.211258 1_555
Cd0 Yb2 3.378465 1_554
Cd0 Yb11 3.427184 1_555
Cd0 Yb6 3.475404 1_565
Cd1 Cd50 2.982690 1_445
Cd1 Cd8 2.982690 1_455
Cd1 Cd23 2.982690 1_555
Cd1 Cd53 3.023296 1_455
Cd1 Cd16 3.023296 1_555
Cd1 Cd33 3.023296 1_445
Cd1 Yb3 3.424144 1_445
Cd1 Yb8 3.424144 1_555
Cd1 Yb11 3.424144 1_545
Cd2 Cd63 2.915672 1_556
Cd2 Cd29 2.996312 1_555
Cd2 Cd44 3.013710 1_555
Cd2 Cd42 3.020056 1_555
Cd2 Cd70 3.046105 1_545
Cd2 Cd39 3.085861 1_556
Cd2 Yb0 3.322467 1_555
Cd2 Yb7 3.423286 1_545
Cd2 Yb10 3.463928 1_556
Cd3 Cd59 2.999660 1_555
Cd3 Cd57 3.217844 1_555
Cd3 Cd70 3.217844 1_545
Cd3 Cd55 3.267888 1_555
Cd3 Cd4 3.267888 1_545
Cd3 Cd44 3.376489 1_555
Cd3 Cd52 3.376489 1_545
Cd3 Yb6 3.393660 1_555
Cd3 Yb11 3.393660 1_545
Cd4 Cd9 2.868772 1_555
Cd4 Cd52 2.876633 1_555
Cd4 Cd70 3.024483 1_555
Cd4 Cd49 3.046109 1_555
Cd4 Cd67 3.074188 1_555
Cd4 Cd62 3.143362 1_555
Cd4 Cd59 3.217844 1_565
Cd4 Yb7 3.502749 1_555
Cd4 Yb1 3.506921 1_555
Cd4 Yb11 3.569928 1_555
Cd5 Cd6 2.943295 1_555
Cd5 Cd54 2.983089 1_455
Cd5 Cd64 2.983089 1_545
Cd5 Cd51 2.983089 1_554
Cd6 Yb6 3.378465 1_555
Cd6 Yb1 3.427184 1_555
Cd6 Yb0 3.475404 1_554
Cd7 Cd9 3.013710 1_555
Cd7 Cd70 3.020056 1_555
Cd7 Yb11 3.322467 1_555
Cd7 Yb4 3.423286 1_455
Cd7 Yb0 3.463928 1_565
Cd8 Yb3 3.378465 1_545
Cd8 Yb10 3.427184 1_555
Cd8 Yb8 3.475404 1_655
Cd9 Yb7 3.693399 1_555
Cd9 Yb11 3.693399 1_555
Cd10 Cd25 2.988705 1_555
Cd10 Cd66 3.023296 1_555
Cd10 Cd41 3.035700 1_555
Cd10 Cd60 3.074188 1_555
Cd10 Cd34 3.085873 1_555
Cd10 Cd55 3.143362 1_555
Cd10 Cd28 3.164002 1_555
Cd10 Yb6 3.333910 1_555
Cd10 Yb9 3.421168 1_555
Cd10 Yb4 3.466377 1_555
Cd11 Cd34 2.915681 1_555
Cd11 Cd41 2.915681 1_555
Cd11 Cd17 2.915681 1_555
Cd11 Cd5 2.974594 1_555
Cd11 Cd6 3.211258 1_555
Cd11 Cd26 3.211258 1_555
Cd11 Cd23 3.211258 1_555
Cd11 Yb1 3.385114 1_555
Cd11 Yb8 3.385114 1_555
Cd11 Yb6 3.385114 1_555
Cd12 Cd63 2.915681 1_566
Cd12 Cd13 2.996308 1_555
Cd12 Cd24 3.013699 1_555
Cd12 Cd47 3.020056 1_555
Cd12 Cd35 3.035700 1_556
Cd12 Cd56 3.046096 1_556
Cd12 Cd18 3.085873 1_555
Cd12 Yb2 3.322469 1_555
Cd12 Yb3 3.423284 1_556
Cd12 Yb7 3.463934 1_555
Cd13 Cd54 2.943295 1_566
Cd13 Cd50 2.948986 1_556
Cd13 Cd66 2.982690 1_555
Cd13 Cd40 2.988705 1_555
Cd13 Cd31 3.018677 1_556
Cd13 Cd63 3.211258 1_566
Cd13 Yb7 3.378465 1_555
Cd13 Yb3 3.427184 1_556
Cd13 Yb9 3.475404 1_555
Cd14 Cd45 2.982690 1_544
Cd14 Cd6 2.982690 1_555
Cd14 Cd35 3.023296 1_545
Cd14 Cd18 3.023296 1_544
Cd14 Cd39 3.023296 1_555
Cd14 Yb2 3.424144 1_544
Cd14 Yb0 3.424144 1_554
Cd14 Yb6 3.424144 1_555
Cd15 Cd29 2.988705 1_555
Cd15 Cd27 3.023296 1_656
Cd15 Cd71 3.035695 1_556
Cd15 Cd55 3.074188 1_555
Cd15 Cd65 3.085873 1_555
Cd15 Cd42 3.143362 1_555
Cd15 Cd44 3.164002 1_555
Cd15 Yb9 3.333910 1_555
Cd15 Yb10 3.421168 1_556
Cd15 Yb5 3.466377 1_555
Cd16 Cd23 2.988705 1_555
Cd16 Cd43 3.035711 1_555
Cd16 Cd70 3.074188 1_545
Cd16 Cd7 3.085861 1_545
Cd16 Cd46 3.143362 1_555
Cd16 Cd44 3.164002 1_555
Cd16 Yb0 3.333910 1_555
Cd16 Yb8 3.421168 1_555
Cd16 Yb11 3.466377 1_545
Cd17 Cd26 2.996308 1_555
Cd17 Cd9 3.013699 1_555
Cd17 Cd4 3.020056 1_555
Cd17 Cd40 3.035700 1_555
Cd17 Cd47 3.046096 1_555
Cd17 Cd67 3.085873 1_555
Cd17 Yb7 3.322469 1_555
Cd17 Yb8 3.423284 1_555
Cd17 Yb1 3.463934 1_555
Cd18 Cd45 2.988705 1_555
Cd18 Cd2 3.035695 1_565
Cd18 Cd47 3.074188 1_555
Cd18 Cd70 3.143362 1_555
Cd18 Cd9 3.164002 1_555
Cd18 Yb7 3.333910 1_555
Cd18 Yb0 3.421168 1_565
Cd18 Yb2 3.466377 1_555
Cd19 Cd24 2.868772 1_555
Cd19 Cd28 2.876633 1_455
Cd19 Cd43 3.020047 1_555
Cd19 Cd47 3.024483 1_555
Cd19 Cd65 3.046096 1_455
Cd19 Cd53 3.074188 1_455
Cd19 Cd61 3.143362 1_555
Cd19 Cd58 3.217844 1_555
Cd19 Cd68 3.267888 1_555
Cd19 Yb8 3.502749 1_555
Cd19 Yb5 3.506921 1_455
Cd19 Yb2 3.569928 1_555
Cd20 Cd51 2.943295 1_555
Cd20 Cd6 2.948986 1_556
Cd20 Cd27 2.982690 1_556
Cd20 Cd61 2.988705 1_555
Cd20 Cd43 2.996303 1_555
Cd20 Cd48 3.018677 1_556
Cd20 Cd37 3.211258 1_555
Cd20 Yb5 3.378465 1_455
Cd20 Yb0 3.427184 1_555
Cd20 Yb1 3.475404 1_556
Cd21 Cd22 2.868772 1_555
Cd21 Cd60 2.868772 1_555
Cd21 Cd69 2.876633 1_555
Cd21 Cd42 2.876633 1_554
Cd21 Cd34 3.013699 1_555
Cd21 Cd71 3.013710 1_555
Cd21 Cd39 3.164002 1_555
Cd21 Cd33 3.164002 1_555
Cd21 Cd31 3.376489 1_555
Cd21 Cd48 3.376489 1_555
Cd21 Yb4 3.693399 1_555
Cd21 Yb10 3.693399 1_555
Cd22 Cd9 2.876633 1_655
Cd22 Cd71 3.020056 1_555
Cd22 Cd60 3.024483 1_555
Cd22 Cd7 3.046105 1_655
Cd22 Cd62 3.074188 1_655
Cd22 Cd33 3.143362 1_555
Cd22 Cd58 3.217844 1_655
Cd22 Cd68 3.267888 1_655
Cd22 Yb10 3.502749 1_555
Cd22 Yb11 3.506921 1_655
Cd22 Yb4 3.569928 1_555
Cd23 Cd5 2.943295 1_555
Cd23 Cd41 2.996308 1_555
Cd23 Cd3 3.018677 1_555
Cd23 Yb8 3.378465 1_555
Cd23 Yb6 3.427184 1_555
Cd23 Yb11 3.475404 1_545
Cd24 Cd47 2.868772 1_555
Cd24 Cd56 2.876633 1_556
Cd24 Cd46 2.876633 1_555
Cd24 Cd43 3.013701 1_555
Cd24 Cd40 3.164002 1_555
Cd24 Cd61 3.164002 1_555
Cd24 Cd48 3.376489 1_556
Cd24 Cd31 3.376489 1_556
Cd24 Yb8 3.693399 1_555
Cd24 Yb2 3.693399 1_555
Cd25 Cd64 2.943295 1_656
Cd25 Cd45 2.948986 1_655
Cd25 Cd66 2.982690 1_555
Cd25 Cd65 2.996308 1_555
Cd25 Cd68 3.018677 1_655
Cd25 Cd36 3.211258 1_656
Cd25 Yb9 3.378465 1_555
Cd25 Yb2 3.427184 1_655
Cd25 Yb4 3.475404 1_555
Cd26 Cd5 2.943295 1_555
Cd26 Cd8 2.948986 1_455
Cd26 Cd27 2.982690 1_555
Cd26 Cd62 2.988705 1_555
Cd26 Cd58 3.018677 1_555
Cd26 Yb1 3.378465 1_555
Cd26 Yb8 3.427184 1_555
Cd26 Yb10 3.475404 1_455
Cd27 Cd29 2.982690 1_454
Cd27 Cd61 3.023296 1_554
Cd27 Cd62 3.023296 1_555
Cd27 Yb10 3.424144 1_455
Cd27 Yb5 3.424144 1_454
Cd27 Yb1 3.424144 1_555
Cd28 Cd55 2.868772 1_555
Cd28 Cd57 2.868772 1_555
Cd28 Cd60 2.876633 1_555
Cd28 Cd65 3.013699 1_555
Cd28 Cd38 3.013701 1_555
Cd28 Cd53 3.164002 1_555
Cd28 Cd68 3.376489 1_655
Cd28 Cd58 3.376489 1_655
Cd28 Yb6 3.693399 1_555
Cd28 Yb5 3.693399 1_555
Cd29 Cd54 2.943295 1_556
Cd29 Cd30 2.948986 1_545
Cd29 Cd59 3.018677 1_555
Cd29 Cd63 3.211258 1_556
Cd29 Yb10 3.378465 1_556
Cd29 Yb7 3.427184 1_545
Cd29 Yb5 3.475404 1_555
Cd30 Cd51 2.943295 1_665
Cd30 Cd66 2.982690 1_555
Cd30 Cd67 2.988705 1_555
Cd30 Cd32 2.996308 1_555
Cd30 Cd59 3.018677 1_565
Cd30 Cd37 3.211258 1_665
Cd30 Yb4 3.378465 1_555
Cd30 Yb5 3.427184 1_565
Cd30 Yb7 3.475404 1_555
Cd31 Cd48 2.999660 1_555
Cd31 Cd50 3.018677 1_555
Cd31 Cd46 3.217844 1_554
Cd31 Cd69 3.217844 1_555
Cd31 Cd42 3.267888 1_554
Cd31 Cd56 3.267888 1_555
Cd31 Yb9 3.393660 1_554
Cd31 Yb3 3.393660 1_555
Cd32 Cd37 2.915681 1_665
Cd32 Cd52 3.013699 1_555
Cd32 Cd69 3.020056 1_555
Cd32 Cd53 3.035700 1_565
Cd32 Cd57 3.046096 1_565
Cd32 Cd33 3.085873 1_555
Cd32 Yb3 3.322469 1_555
Cd32 Yb5 3.423284 1_565
Cd32 Yb4 3.463934 1_555
Cd33 Cd50 2.988705 1_555
Cd33 Cd7 3.035695 1_655
Cd33 Cd69 3.074188 1_555
Cd33 Yb4 3.333910 1_555
Cd33 Yb11 3.421168 1_655
Cd33 Yb3 3.466377 1_555
Cd34 Cd6 2.996308 1_555
Cd34 Cd60 3.020056 1_555
Cd34 Cd67 3.035700 1_555
Cd34 Cd69 3.046096 1_555
Cd34 Yb4 3.322469 1_555
Cd34 Yb1 3.423284 1_555
Cd34 Yb6 3.463934 1_555
Cd35 Cd57 3.074188 1_565
Cd35 Cd38 3.085865 1_565
Cd35 Cd56 3.143362 1_555
Cd35 Cd52 3.164002 1_555
Cd35 Yb3 3.333910 1_555
Cd35 Yb2 3.421168 1_554
Cd35 Yb6 3.466377 1_565
Cd36 Cd71 2.915672 1_455
Cd36 Cd49 2.915677 1_555
Cd36 Cd65 2.915681 1_454
Cd36 Cd64 2.974594 1_555
Cd36 Cd50 3.211258 1_455
Cd36 Yb2 3.385114 1_554
Cd36 Yb11 3.385114 1_555
Cd36 Yb9 3.385114 1_454
Cd37 Cd7 2.915672 1_545
Cd37 Cd43 2.915677 1_555
Cd37 Cd51 2.974594 1_555
Cd37 Cd45 3.211258 1_545
Cd37 Yb0 3.385114 1_555
Cd37 Yb5 3.385114 1_455
Cd37 Yb4 3.385114 1_445
Cd38 Cd63 2.915677 1_555
Cd38 Cd8 2.996303 1_555
Cd38 Cd57 3.020047 1_555
Cd38 Cd39 3.035711 1_555
Cd38 Cd60 3.046109 1_555
Cd38 Yb6 3.322474 1_555
Cd38 Yb10 3.423292 1_555
Cd38 Yb3 3.463920 1_545
Cd39 Cd6 2.988705 1_555
Cd39 Cd42 3.074188 1_554
Cd39 Cd60 3.143362 1_555
Cd39 Yb10 3.333910 1_555
Cd39 Yb6 3.421168 1_555
Cd39 Yb0 3.466377 1_554
Cd40 Cd66 3.023296 1_555
Cd40 Cd46 3.074188 1_555
Cd40 Cd41 3.085873 1_555
Cd40 Cd47 3.143362 1_555
Cd40 Yb8 3.333910 1_555
Cd40 Yb7 3.421168 1_555
Cd40 Yb9 3.466377 1_555
Cd41 Cd44 3.013699 1_555
Cd41 Cd46 3.020056 1_555
Cd41 Cd55 3.046096 1_555
Cd41 Yb9 3.322469 1_555
Cd41 Yb6 3.423284 1_555
Cd41 Yb8 3.463934 1_555
Cd42 Cd44 2.868772 1_555
Cd42 Cd46 3.024483 1_555
Cd42 Cd71 3.046105 1_556
Cd42 Cd48 3.217844 1_556
Cd42 Yb0 3.502749 1_555
Cd42 Yb10 3.506921 1_556
Cd42 Yb9 3.569928 1_555
Cd43 Cd46 3.046109 1_555
Cd43 Cd53 3.085865 1_455
Cd43 Yb8 3.322474 1_555
Cd43 Yb0 3.423292 1_555
Cd43 Yb5 3.463920 1_455
Cd44 Cd46 2.868772 1_555
Cd44 Cd70 2.876633 1_545
Cd44 Cd55 2.876633 1_555
Cd44 Cd59 3.376489 1_555
Cd44 Yb9 3.693399 1_555
Cd44 Yb0 3.693399 1_555
Cd45 Cd51 2.943295 1_565
Cd45 Cd7 2.996312 1_555
Cd45 Cd68 3.018677 1_555
Cd45 Yb0 3.378465 1_565
Cd45 Yb4 3.427184 1_455
Cd45 Yb2 3.475404 1_555
Cd46 Cd48 3.267888 1_556
Cd46 Yb9 3.502749 1_555
Cd46 Yb8 3.506921 1_555
Cd46 Yb0 3.569928 1_555
Cd47 Cd9 2.876633 1_555
Cd47 Cd68 3.217844 1_555
Cd47 Cd58 3.267888 1_555
Cd47 Yb2 3.502749 1_555
Cd47 Yb7 3.506921 1_555
Cd47 Yb8 3.569928 1_555
Cd48 Cd6 3.018677 1_555
Cd48 Cd56 3.217844 1_555
Cd48 Cd69 3.267888 1_555
Cd48 Yb0 3.393660 1_554
Cd48 Yb1 3.393660 1_555
Cd49 Cd52 3.013701 1_555
Cd49 Cd56 3.020047 1_555
Cd49 Cd62 3.035711 1_555
Cd49 Cd61 3.085865 1_554
Cd49 Yb1 3.322474 1_555
Cd49 Yb11 3.423292 1_555
Cd49 Yb2 3.463920 1_554
Cd50 Cd64 2.943295 1_655
Cd50 Cd71 2.996312 1_555
Cd50 Yb11 3.378465 1_655
Cd50 Yb9 3.427184 1_554
Cd50 Yb3 3.475404 1_555
Cd51 Cd64 2.983089 1_546
Cd51 Cd54 2.983089 1_456
Cd52 Cd69 2.868772 1_555
Cd52 Cd56 2.868772 1_555
Cd52 Cd57 2.876633 1_565
Cd52 Cd67 3.164002 1_555
Cd52 Cd59 3.376489 1_565
Cd52 Yb1 3.693399 1_555
Cd52 Yb3 3.693399 1_555
Cd53 Cd8 2.988705 1_555
Cd53 Cd57 3.143362 1_555
Cd53 Yb5 3.333910 1_555
Cd53 Yb3 3.421168 1_545
Cd53 Yb8 3.466377 1_655
Cd54 Cd8 2.943295 1_555
Cd54 Cd63 2.974594 1_555
Cd54 Cd64 2.983089 1_645
Cd55 Cd65 3.020056 1_555
Cd55 Cd57 3.024483 1_555
Cd55 Cd59 3.217844 1_555
Cd55 Yb5 3.502749 1_555
Cd55 Yb9 3.506921 1_555
Cd55 Yb6 3.569928 1_555
Cd56 Cd69 3.024483 1_555
Cd56 Cd61 3.074188 1_554
Cd56 Yb1 3.502749 1_555
Cd56 Yb2 3.506921 1_554
Cd56 Yb3 3.569928 1_555
Cd57 Cd59 3.267888 1_555
Cd57 Yb6 3.502749 1_555
Cd57 Yb3 3.506921 1_545
Cd57 Yb5 3.569928 1_555
Cd58 Cd68 2.999660 1_555
Cd58 Cd8 3.018677 1_455
Cd58 Cd60 3.267888 1_455
Cd58 Cd9 3.376489 1_555
Cd58 Yb8 3.393660 1_555
Cd58 Yb10 3.393660 1_455
Cd59 Cd70 3.267888 1_545
Cd59 Yb7 3.393660 1_545
Cd59 Yb5 3.393660 1_555
Cd60 Cd68 3.217844 1_655
Cd60 Yb4 3.502749 1_555
Cd60 Yb6 3.506921 1_555
Cd60 Yb10 3.569928 1_555
Cd61 Cd65 3.035700 1_455
Cd61 Yb2 3.333910 1_555
Cd61 Yb5 3.421168 1_455
Cd61 Yb1 3.466377 1_556
Cd62 Cd71 3.085861 1_455
Cd62 Cd9 3.164002 1_555
Cd62 Yb11 3.333910 1_555
Cd62 Yb1 3.421168 1_555
Cd62 Yb10 3.466377 1_455
Cd63 Cd8 3.211258 1_555
Cd63 Yb3 3.385114 1_545
Cd63 Yb10 3.385114 1_555
Cd63 Yb7 3.385114 1_544
Cd65 Yb5 3.322469 1_555
Cd65 Yb2 3.423284 1_655
Cd65 Yb9 3.463934 1_555
Cd66 Cd67 3.023296 1_555
Cd66 Yb9 3.424144 1_555
Cd66 Yb7 3.424144 1_555
Cd66 Yb4 3.424144 1_555
Cd67 Cd69 3.143362 1_555
Cd67 Yb1 3.333910 1_555
Cd67 Yb4 3.421168 1_555
Cd67 Yb7 3.466377 1_555
Cd68 Cd9 3.376489 1_555
Cd68 Yb4 3.393660 1_455
Cd68 Yb2 3.393660 1_555
Cd69 Yb3 3.502749 1_555
Cd69 Yb4 3.506921 1_555
Cd69 Yb1 3.569928 1_555
Cd70 Cd9 2.868772 1_555
Cd70 Yb11 3.502749 1_555
Cd70 Yb0 3.506921 1_565
Cd70 Yb7 3.569928 1_555
Cd71 Yb10 3.322467 1_555
Cd71 Yb9 3.423286 1_554
Cd71 Yb11 3.463928 1_655
