# generated using pymatgen
data_LiGa(SiO3)2
_symmetry_space_group_name_H-M   'P 1'
_cell_length_a   8.72647900
_cell_length_b   5.31479900
_cell_length_c   9.28348084
_cell_angle_alpha   78.17631207
_cell_angle_beta   90.00000000
_cell_angle_gamma   90.00000000
_symmetry_Int_Tables_number   1
_chemical_formula_structural   LiGa(SiO3)2
_chemical_formula_sum   'Li4 Ga4 Si8 O24'
_cell_volume   421.42767212
_cell_formula_units_Z   4
loop_
 _symmetry_equiv_pos_site_id
 _symmetry_equiv_pos_as_xyz
  1  'x, y, z'
loop_
 _atom_site_type_symbol
 _atom_site_label
 _atom_site_symmetry_multiplicity
 _atom_site_fract_x
 _atom_site_fract_y
 _atom_site_fract_z
 _atom_site_occupancy
  Li  Li0  1  0.00660600  0.98897600  0.24711800  1
  Li  Li1  1  0.50660600  0.51102400  0.75288200  1
  Li  Li2  1  0.99339400  0.01102400  0.75288200  1
  Li  Li3  1  0.49339400  0.48897600  0.24711800  1
  Ga  Ga0  1  0.64743200  0.98679200  0.25035600  1
  Ga  Ga1  1  0.85256800  0.48679200  0.25035600  1
  Ga  Ga2  1  0.35256800  0.01320800  0.74964400  1
  Ga  Ga3  1  0.14743200  0.51320800  0.74964400  1
  Si  Si0  1  0.66002900  0.77707400  0.95227500  1
  Si  Si1  1  0.66014400  0.20287900  0.54796900  1
  Si  Si2  1  0.16014400  0.29712100  0.45203100  1
  Si  Si3  1  0.33985600  0.79712100  0.45203100  1
  Si  Si4  1  0.83985600  0.70287900  0.54796900  1
  Si  Si5  1  0.16002900  0.72292600  0.04772500  1
  Si  Si6  1  0.83997100  0.27707400  0.95227500  1
  Si  Si7  1  0.33997100  0.22292600  0.04772500  1
  O  O0  1  0.98989100  0.69824800  0.11617600  1
  O  O1  1  0.16755800  0.79022700  0.86505100  1
  O  O2  1  0.66755800  0.70977300  0.13494900  1
  O  O3  1  0.83244200  0.20977300  0.13494900  1
  O  O4  1  0.33244200  0.29022700  0.86505100  1
  O  O5  1  0.66589800  0.26655800  0.36474900  1
  O  O6  1  0.16589800  0.23344200  0.63525100  1
  O  O7  1  0.33410200  0.73344200  0.63525100  1
  O  O8  1  0.83410200  0.76655800  0.36474900  1
  O  O9  1  0.26472100  0.46620200  0.10793500  1
  O  O10  1  0.48989100  0.80175200  0.88382400  1
  O  O11  1  0.01010900  0.30175200  0.88382400  1
  O  O12  1  0.72627800  0.91022500  0.60394200  1
  O  O13  1  0.22627800  0.58977500  0.39605800  1
  O  O14  1  0.27372200  0.08977500  0.39605800  1
  O  O15  1  0.77372200  0.41022500  0.60394200  1
  O  O16  1  0.73527900  0.53379800  0.89206500  1
  O  O17  1  0.76472100  0.03379800  0.89206500  1
  O  O18  1  0.49517900  0.22948800  0.62224300  1
  O  O19  1  0.23527900  0.96620200  0.10793500  1
  O  O20  1  0.00482100  0.72948800  0.62224300  1
  O  O21  1  0.50482100  0.77051200  0.37775700  1
  O  O22  1  0.99517900  0.27051200  0.37775700  1
  O  O23  1  0.51010900  0.19824800  0.11617600  1
loop_
_geom_bond_atom_site_label_1
_geom_bond_atom_site_label_2
_geom_bond_distance
_geom_bond_site_symmetry_2
Li0 O3 2.066535 1_465
Li0 O8 2.080138 1_455
Li0 O22 2.112674 1_465
Li0 O0 2.157824 1_455
Li0 O19 2.393811 1_555
Li1 O4 2.066535 1_555
Li1 O7 2.080138 1_555
Li1 O18 2.112674 1_555
Li1 O10 2.157824 1_555
Li1 O16 2.393811 1_555
Li2 O1 2.066535 1_645
Li2 O6 2.080138 1_655
Li2 O20 2.112674 1_645
Li2 O11 2.157824 1_655
Li2 O17 2.393811 1_555
Li3 O2 2.066535 1_555
Li3 O5 2.080138 1_555
Li3 O21 2.112674 1_555
Li3 O23 2.157824 1_555
Li3 O9 2.393811 1_555
Ga0 O23 1.917559 1_565
Ga0 O21 1.926598 1_555
Ga0 O2 1.998195 1_555
Ga0 O5 2.002923 1_565
Ga0 O3 2.153731 1_565
Ga0 O8 2.154528 1_555
Ga1 O0 1.917559 1_555
Ga1 O22 1.926598 1_555
Ga1 O3 1.998195 1_555
Ga1 O8 2.002923 1_555
Ga1 O2 2.153731 1_555
Ga1 O5 2.154528 1_555
Ga2 O10 1.917559 1_545
Ga2 O18 1.926598 1_555
Ga2 O4 1.998195 1_555
Ga2 O7 2.002923 1_545
Ga2 O1 2.153731 1_545
Ga2 O6 2.154528 1_555
Ga3 O11 1.917559 1_555
Ga3 O20 1.926598 1_555
Ga3 O1 1.998195 1_555
Ga3 O6 2.002923 1_555
Ga3 O4 2.153731 1_555
Ga3 O7 2.154528 1_555
O0 Si5 1.609724 1_655
O1 Si5 1.661200 1_556
O2 Si0 1.661200 1_554
O3 Si6 1.661200 1_554
O4 Si7 1.661200 1_556
O5 Si1 1.665618 1_555
O6 Si2 1.665618 1_555
O7 Si3 1.665618 1_555
O8 Si4 1.665618 1_555
O9 Si5 1.642021 1_555
O9 Si7 1.646684 1_555
O10 Si0 1.609724 1_555
O11 Si6 1.609724 1_455
O12 Si1 1.640464 1_565
O12 Si4 1.643604 1_555
O13 Si2 1.640464 1_555
O13 Si3 1.643604 1_555
O14 Si3 1.640464 1_545
O14 Si2 1.643604 1_555
O15 Si4 1.640464 1_555
O15 Si1 1.643604 1_555
O16 Si6 1.642021 1_555
O16 Si0 1.646684 1_555
O17 Si0 1.642021 1_545
O17 Si6 1.646684 1_555
O18 Si1 1.614851 1_555
O19 Si7 1.642021 1_565
O19 Si5 1.646684 1_555
O20 Si4 1.614851 1_455
O21 Si3 1.614851 1_555
O22 Si2 1.614851 1_655
O23 Si7 1.609724 1_555
