# generated using pymatgen
data_CaNb2Ga2(CuO4)3
_symmetry_space_group_name_H-M   'P 1'
_cell_length_a   7.56292600
_cell_length_b   7.56292600
_cell_length_c   7.56292600
_cell_angle_alpha   90.00000000
_cell_angle_beta   90.00000000
_cell_angle_gamma   90.00000000
_symmetry_Int_Tables_number   1
_chemical_formula_structural   CaNb2Ga2(CuO4)3
_chemical_formula_sum   'Ca2 Nb4 Ga4 Cu6 O24'
_cell_volume   432.58310450
_cell_formula_units_Z   2
loop_
 _symmetry_equiv_pos_site_id
 _symmetry_equiv_pos_as_xyz
  1  'x, y, z'
loop_
 _atom_site_type_symbol
 _atom_site_label
 _atom_site_symmetry_multiplicity
 _atom_site_fract_x
 _atom_site_fract_y
 _atom_site_fract_z
 _atom_site_occupancy
  Ca  Ca0  1  0.00000000  0.00000000  0.00000000  1
  Ca  Ca1  1  0.50000000  0.50000000  0.50000000  1
  Nb  Nb0  1  0.25000000  0.75000000  0.25000000  1
  Nb  Nb1  1  0.75000000  0.75000000  0.75000000  1
  Nb  Nb2  1  0.25000000  0.25000000  0.75000000  1
  Nb  Nb3  1  0.75000000  0.25000000  0.25000000  1
  Ga  Ga0  1  0.75000000  0.75000000  0.25000000  1
  Ga  Ga1  1  0.25000000  0.75000000  0.75000000  1
  Ga  Ga2  1  0.75000000  0.25000000  0.75000000  1
  Ga  Ga3  1  0.25000000  0.25000000  0.25000000  1
  Cu  Cu0  1  0.50000000  0.00000000  0.00000000  1
  Cu  Cu1  1  0.00000000  0.00000000  0.50000000  1
  Cu  Cu2  1  0.50000000  0.50000000  0.00000000  1
  Cu  Cu3  1  0.00000000  0.50000000  0.50000000  1
  Cu  Cu4  1  0.00000000  0.50000000  0.00000000  1
  Cu  Cu5  1  0.50000000  0.00000000  0.50000000  1
  O  O0  1  0.69609400  0.99912000  0.17501500  1
  O  O1  1  0.32498500  0.80390600  0.50088000  1
  O  O2  1  0.67501500  0.80390600  0.49912000  1
  O  O3  1  0.99912000  0.82498500  0.30390600  1
  O  O4  1  0.69609400  0.00088000  0.82498500  1
  O  O5  1  0.49912000  0.67501500  0.80390600  1
  O  O6  1  0.00088000  0.82498500  0.69609400  1
  O  O7  1  0.80390600  0.49912000  0.67501500  1
  O  O8  1  0.50088000  0.67501500  0.19609400  1
  O  O9  1  0.82498500  0.69609400  0.00088000  1
  O  O10  1  0.19609400  0.50088000  0.67501500  1
  O  O11  1  0.17501500  0.69609400  0.99912000  1
  O  O12  1  0.82498500  0.30390600  0.99912000  1
  O  O13  1  0.80390600  0.50088000  0.32498500  1
  O  O14  1  0.17501500  0.30390600  0.00088000  1
  O  O15  1  0.50088000  0.32498500  0.80390600  1
  O  O16  1  0.19609400  0.49912000  0.32498500  1
  O  O17  1  0.00088000  0.17501500  0.30390600  1
  O  O18  1  0.49912000  0.32498500  0.19609400  1
  O  O19  1  0.30390600  0.00088000  0.17501500  1
  O  O20  1  0.99912000  0.17501500  0.69609400  1
  O  O21  1  0.32498500  0.19609400  0.49912000  1
  O  O22  1  0.67501500  0.19609400  0.50088000  1
  O  O23  1  0.30390600  0.99912000  0.82498500  1
loop_
_geom_bond_atom_site_label_1
_geom_bond_atom_site_label_2
_geom_bond_distance
_geom_bond_site_symmetry_2
Ca0 O20 2.652312 1_454
Ca0 O17 2.652312 1_555
Ca0 O12 2.652312 1_454
Ca0 O23 2.652312 1_544
Ca0 O11 2.652312 1_544
Ca0 O14 2.652312 1_555
Ca0 O19 2.652312 1_555
Ca0 O4 2.652312 1_454
Ca0 O6 2.652312 1_544
Ca0 O0 2.652312 1_445
Ca0 O9 2.652312 1_445
Ca0 O3 2.652312 1_445
Ca1 O16 2.652312 1_555
Ca1 O13 2.652312 1_555
Ca1 O1 2.652312 1_555
Ca1 O21 2.652312 1_555
Ca1 O18 2.652312 1_555
Ca1 O15 2.652312 1_555
Ca1 O8 2.652312 1_555
Ca1 O5 2.652312 1_555
Ca1 O7 2.652312 1_555
Ca1 O10 2.652312 1_555
Ca1 O22 2.652312 1_555
Ca1 O2 2.652312 1_555
Nb0 O8 2.021854 1_555
Nb0 O3 2.021854 1_455
Nb0 O16 2.021854 1_555
Nb0 O11 2.021854 1_554
Nb0 O19 2.021854 1_565
Nb0 O1 2.021854 1_555
Nb1 O7 2.021854 1_555
Nb1 O5 2.021854 1_555
Nb1 O9 2.021854 1_556
Nb1 O6 2.021854 1_655
Nb1 O2 2.021854 1_555
Nb1 O4 2.021854 1_565
Nb2 O23 2.021854 1_545
Nb2 O15 2.021854 1_555
Nb2 O10 2.021854 1_555
Nb2 O20 2.021854 1_455
Nb2 O14 2.021854 1_556
Nb2 O21 2.021854 1_555
Nb3 O0 2.021854 1_545
Nb3 O18 2.021854 1_555
Nb3 O12 2.021854 1_554
Nb3 O17 2.021854 1_655
Nb3 O13 2.021854 1_555
Nb3 O22 2.021854 1_555
Ga0 O13 2.009368 1_555
Ga0 O2 2.009368 1_555
Ga0 O3 2.009368 1_555
Ga0 O8 2.009368 1_555
Ga0 O0 2.009368 1_555
Ga0 O9 2.009368 1_555
Ga1 O10 2.009368 1_555
Ga1 O11 2.009368 1_555
Ga1 O23 2.009368 1_555
Ga1 O1 2.009368 1_555
Ga1 O5 2.009368 1_555
Ga1 O6 2.009368 1_555
Ga2 O20 2.009368 1_555
Ga2 O4 2.009368 1_555
Ga2 O15 2.009368 1_555
Ga2 O7 2.009368 1_555
Ga2 O22 2.009368 1_555
Ga2 O12 2.009368 1_555
Ga3 O17 2.009368 1_555
Ga3 O21 2.009368 1_555
Ga3 O14 2.009368 1_555
Ga3 O18 2.009368 1_555
Ga3 O19 2.009368 1_555
Ga3 O16 2.009368 1_555
Cu0 O19 1.987825 1_555
Cu0 O0 1.987825 1_545
Cu0 O23 1.987825 1_544
Cu0 O4 1.987825 1_554
Cu1 O20 1.987825 1_455
Cu1 O17 1.987825 1_555
Cu1 O3 1.987825 1_445
Cu1 O6 1.987825 1_545
Cu2 O15 1.987825 1_554
Cu2 O18 1.987825 1_555
Cu2 O8 1.987825 1_555
Cu2 O5 1.987825 1_554
Cu3 O13 1.987825 1_455
Cu3 O16 1.987825 1_555
Cu3 O7 1.987825 1_455
Cu3 O10 1.987825 1_555
Cu4 O11 1.987825 1_554
Cu4 O14 1.987825 1_555
Cu4 O12 1.987825 1_454
Cu4 O9 1.987825 1_455
Cu5 O21 1.987825 1_555
Cu5 O1 1.987825 1_545
Cu5 O2 1.987825 1_545
Cu5 O22 1.987825 1_555
