# generated using pymatgen
data_Al(HO)3
_symmetry_space_group_name_H-M   'P 1'
_cell_length_a   5.06911200
_cell_length_b   8.84788306
_cell_length_c   9.71417256
_cell_angle_alpha   86.98076629
_cell_angle_beta   89.28153176
_cell_angle_gamma   89.96091298
_symmetry_Int_Tables_number   1
_chemical_formula_structural   Al(HO)3
_chemical_formula_sum   'Al8 H24 O24'
_cell_volume   435.05049833
_cell_formula_units_Z   8
loop_
 _symmetry_equiv_pos_site_id
 _symmetry_equiv_pos_as_xyz
  1  'x, y, z'
loop_
 _atom_site_type_symbol
 _atom_site_label
 _atom_site_symmetry_multiplicity
 _atom_site_fract_x
 _atom_site_fract_y
 _atom_site_fract_z
 _atom_site_occupancy
  Al  Al0  1  0.01770000  0.66799900  0.50483200  1
  Al  Al1  1  0.48085300  0.15679700  0.98964600  1
  Al  Al2  1  0.98401800  0.34425300  0.50184200  1
  Al  Al3  1  0.51375800  0.82185400  0.00233500  1
  Al  Al4  1  0.52204900  0.83750500  0.50305300  1
  Al  Al5  1  0.97908600  0.32414500  0.99790200  1
  Al  Al6  1  0.48042600  0.17016900  0.49722100  1
  Al  Al7  1  0.01951800  0.65989900  0.00888500  1
  H  H0  1  0.71263500  0.69601800  0.70861900  1
  H  H1  1  0.79779800  0.14070500  0.19297000  1
  H  H2  1  0.30099000  0.34157900  0.29741300  1
  H  H3  1  0.21414000  0.79783300  0.79905600  1
  H  H4  1  0.01459700  0.09910200  0.60450000  1
  H  H5  1  0.32179300  0.67910000  0.21346400  1
  H  H6  1  0.94544900  0.92198000  0.38344300  1
  H  H7  1  0.67486100  0.31806200  0.79110600  1
  H  H8  1  0.62536600  0.00489700  0.70447400  1
  H  H9  1  0.66495200  0.50278600  0.11747200  1
  H  H10  1  0.38549900  0.99446500  0.29679100  1
  H  H11  1  0.32869300  0.47300800  0.90048400  1
  H  H12  1  0.12167800  0.49211300  0.71026300  1
  H  H13  1  0.16462900  0.96507500  0.09644700  1
  H  H14  1  0.89277500  0.51893200  0.29656100  1
  H  H15  1  0.82871400  0.00899500  0.89111700  1
  H  H16  1  0.09485800  0.89678100  0.62175600  1
  H  H17  1  0.22854100  0.20385700  0.17848900  1
  H  H18  1  0.73545800  0.28044300  0.30998600  1
  H  H19  1  0.64082700  0.57951000  0.88620800  1
  H  H20  1  0.55902000  0.41441900  0.60246200  1
  H  H21  1  0.81839900  0.80792200  0.20747000  1
  H  H22  1  0.43565300  0.59122000  0.40191500  1
  H  H23  1  0.17616300  0.19017200  0.78705800  1
  O  O0  1  0.70298700  0.68912800  0.60777400  1
  O  O1  1  0.78954700  0.16843700  0.09485800  1
  O  O2  1  0.29997200  0.32690300  0.39774900  1
  O  O3  1  0.20536300  0.80629500  0.89983300  1
  O  O4  1  0.14840600  0.17960100  0.60510700  1
  O  O5  1  0.33123400  0.66490400  0.11287200  1
  O  O6  1  0.84258000  0.82851100  0.39168400  1
  O  O7  1  0.66074400  0.32697100  0.89308300  1
  O  O8  1  0.64600200  0.00889000  0.60206100  1
  O  O9  1  0.85644000  0.48755000  0.11225900  1
  O  O10  1  0.36756500  0.00113400  0.39761100  1
  O  O11  1  0.13904600  0.49335700  0.90078600  1
  O  O12  1  0.13149600  0.49365100  0.60886000  1
  O  O13  1  0.35494200  0.98301000  0.10516900  1
  O  O14  1  0.86994700  0.51734700  0.39759400  1
  O  O15  1  0.63638400  0.99869600  0.88590600  1
  O  O16  1  0.20550400  0.80765700  0.61544700  1
  O  O17  1  0.28476900  0.28527500  0.11305600  1
  O  O18  1  0.79273000  0.20814500  0.38284800  1
  O  O19  1  0.71106400  0.68143700  0.89336400  1
  O  O20  1  0.65634400  0.31837500  0.60911900  1
  O  O21  1  0.82722500  0.80723100  0.10551100  1
  O  O22  1  0.34097700  0.68791600  0.39740900  1
  O  O23  1  0.16898100  0.18359500  0.88918800  1
loop_
_geom_bond_atom_site_label_1
_geom_bond_atom_site_label_2
_geom_bond_distance
_geom_bond_site_symmetry_2
Al0 O0 1.886598 1_455
Al0 O12 1.892826 1_555
Al0 O14 1.894763 1_455
Al0 O22 1.934829 1_555
Al0 O16 1.937770 1_555
Al0 O6 1.967582 1_455
Al1 O23 1.876600 1_555
Al1 O1 1.885528 1_556
Al1 O15 1.928993 1_545
Al1 O7 1.951960 1_555
Al1 O17 1.956915 1_556
Al1 O13 1.957725 1_546
Al2 O12 1.884816 1_655
Al2 O14 1.885610 1_555
Al2 O2 1.893829 1_655
Al2 O4 1.920510 1_655
Al2 O20 1.956875 1_555
Al2 O18 1.975605 1_555
Al3 O3 1.872981 1_554
Al3 O21 1.890027 1_555
Al3 O5 1.938358 1_555
Al3 O19 1.942865 1_554
Al3 O13 1.951278 1_555
Al3 O15 1.977642 1_554
Al4 O0 1.865657 1_555
Al4 O10 1.902836 1_565
Al4 O16 1.939799 1_555
Al4 O6 1.944623 1_555
Al4 O8 1.946629 1_565
Al4 O22 1.953410 1_555
Al5 O1 1.884315 1_556
Al5 O11 1.903336 1_655
Al5 O7 1.918320 1_555
Al5 O23 1.923423 1_655
Al5 O17 1.942395 1_656
Al5 O9 1.965077 1_556
Al6 O2 1.890200 1_555
Al6 O8 1.909096 1_555
Al6 O10 1.915185 1_555
Al6 O18 1.941859 1_555
Al6 O20 1.967833 1_555
Al6 O4 1.975538 1_555
Al7 O3 1.876058 1_554
Al7 O5 1.887852 1_555
Al7 O21 1.906495 1_455
Al7 O19 1.939460 1_454
Al7 O11 1.946014 1_554
Al7 O9 1.958763 1_455
H0 O0 0.986545 1_555
H1 O1 0.972966 1_555
H2 O2 0.976439 1_555
H3 O3 0.986196 1_555
H4 O4 0.984181 1_555
H5 O5 0.992307 1_555
H6 O6 0.977151 1_555
H7 O7 0.999553 1_555
H8 O8 0.997810 1_555
H9 O9 0.980945 1_555
H10 O10 0.987312 1_565
H11 O11 0.977933 1_555
H12 O12 0.985057 1_555
H13 O13 0.983217 1_555
H14 O14 0.986174 1_555
H15 O15 0.981439 1_545
H16 O16 0.971488 1_555
H17 O17 0.975554 1_555
H18 O18 0.975529 1_555
H19 O19 0.975997 1_555
H20 O20 0.981910 1_555
H21 O21 0.991237 1_555
H22 O22 0.979917 1_555
H23 O23 0.990962 1_555
