# generated using pymatgen
data_Zn3As2
_symmetry_space_group_name_H-M   'P 1'
_cell_length_a   11.91786100
_cell_length_b   11.91786100
_cell_length_c   23.87169300
_cell_angle_alpha   90.00000000
_cell_angle_beta   90.00000000
_cell_angle_gamma   90.00000000
_symmetry_Int_Tables_number   1
_chemical_formula_structural   Zn3As2
_chemical_formula_sum   'Zn96 As64'
_cell_volume   3390.62572211
_cell_formula_units_Z   32
loop_
 _symmetry_equiv_pos_site_id
 _symmetry_equiv_pos_as_xyz
  1  'x, y, z'
loop_
 _atom_site_type_symbol
 _atom_site_label
 _atom_site_symmetry_multiplicity
 _atom_site_fract_x
 _atom_site_fract_y
 _atom_site_fract_z
 _atom_site_occupancy
  Zn  Zn0  1  0.13730900  0.89133200  0.07087800  1
  Zn  Zn1  1  0.63839400  0.86164100  0.55461700  1
  Zn  Zn2  1  0.39534000  0.62645800  0.93747500  1
  Zn  Zn3  1  0.36164100  0.36160600  0.94538300  1
  Zn  Zn4  1  0.85965400  0.14010800  0.19564000  1
  Zn  Zn5  1  0.88654600  0.63260200  0.32016200  1
  Zn  Zn6  1  0.14034600  0.64010800  0.19564000  1
  Zn  Zn7  1  0.36269100  0.89133200  0.92912200  1
  Zn  Zn8  1  0.87354200  0.39534000  0.43747500  1
  Zn  Zn9  1  0.12645800  0.60466000  0.56252500  1
  Zn  Zn10  1  0.37354200  0.60466000  0.43747500  1
  Zn  Zn11  1  0.63730900  0.10866800  0.07087800  1
  Zn  Zn12  1  0.13839400  0.13835900  0.55461700  1
  Zn  Zn13  1  0.63730900  0.39133200  0.92912200  1
  Zn  Zn14  1  0.10466000  0.87354200  0.93747500  1
  Zn  Zn15  1  0.87008800  0.89631800  0.31203600  1
  Zn  Zn16  1  0.10466000  0.62645800  0.06252500  1
  Zn  Zn17  1  0.89534000  0.37354200  0.93747500  1
  Zn  Zn18  1  0.62645800  0.39534000  0.56252500  1
  Zn  Zn19  1  0.60866800  0.36269100  0.42912200  1
  Zn  Zn20  1  0.35989200  0.64034600  0.30436000  1
  Zn  Zn21  1  0.86739800  0.88654600  0.82016200  1
  Zn  Zn22  1  0.12991200  0.39631800  0.31203600  1
  Zn  Zn23  1  0.35965400  0.64010800  0.80436000  1
  Zn  Zn24  1  0.63839400  0.63835900  0.44538300  1
  Zn  Zn25  1  0.13839400  0.36164100  0.44538300  1
  Zn  Zn26  1  0.39631800  0.37008800  0.81203600  1
  Zn  Zn27  1  0.88654600  0.86739800  0.67983800  1
  Zn  Zn28  1  0.89534000  0.12645800  0.06252500  1
  Zn  Zn29  1  0.11345400  0.36739800  0.67983800  1
  Zn  Zn30  1  0.86269100  0.39133200  0.07087800  1
  Zn  Zn31  1  0.63835900  0.86160600  0.94538300  1
  Zn  Zn32  1  0.35965400  0.85989200  0.19564000  1
  Zn  Zn33  1  0.64010800  0.35965400  0.69564000  1
  Zn  Zn34  1  0.36269100  0.60866800  0.07087800  1
  Zn  Zn35  1  0.35989200  0.85965400  0.69564000  1
  Zn  Zn36  1  0.10866800  0.86269100  0.57087800  1
  Zn  Zn37  1  0.14034600  0.85989200  0.80436000  1
  Zn  Zn38  1  0.87008800  0.60368200  0.68796400  1
  Zn  Zn39  1  0.13835900  0.13839400  0.94538300  1
  Zn  Zn40  1  0.89631800  0.62991200  0.81203600  1
  Zn  Zn41  1  0.13260200  0.11345400  0.17983800  1
  Zn  Zn42  1  0.60368200  0.87008800  0.81203600  1
  Zn  Zn43  1  0.14010800  0.85965400  0.30436000  1
  Zn  Zn44  1  0.39534000  0.87354200  0.06252500  1
  Zn  Zn45  1  0.89133200  0.13730900  0.42912200  1
  Zn  Zn46  1  0.85989200  0.35965400  0.30436000  1
  Zn  Zn47  1  0.86160600  0.86164100  0.44538300  1
  Zn  Zn48  1  0.85965400  0.35989200  0.80436000  1
  Zn  Zn49  1  0.62991200  0.60368200  0.31203600  1
  Zn  Zn50  1  0.86160600  0.63835900  0.55461700  1
  Zn  Zn51  1  0.13835900  0.36160600  0.05461700  1
  Zn  Zn52  1  0.62645800  0.10466000  0.43747500  1
  Zn  Zn53  1  0.89631800  0.87008800  0.18796400  1
  Zn  Zn54  1  0.10866800  0.63730900  0.42912200  1
  Zn  Zn55  1  0.36160600  0.36164100  0.55461700  1
  Zn  Zn56  1  0.61345400  0.63260200  0.67983800  1
  Zn  Zn57  1  0.86739800  0.61345400  0.17983800  1
  Zn  Zn58  1  0.60466000  0.12645800  0.93747500  1
  Zn  Zn59  1  0.36739800  0.11345400  0.82016200  1
  Zn  Zn60  1  0.86269100  0.10866800  0.92912200  1
  Zn  Zn61  1  0.60466000  0.37354200  0.06252500  1
  Zn  Zn62  1  0.13730900  0.60866800  0.92912200  1
  Zn  Zn63  1  0.89133200  0.36269100  0.57087800  1
  Zn  Zn64  1  0.11345400  0.13260200  0.32016200  1
  Zn  Zn65  1  0.13260200  0.38654600  0.82016200  1
  Zn  Zn66  1  0.86164100  0.86160600  0.05461700  1
  Zn  Zn67  1  0.64034600  0.35989200  0.19564000  1
  Zn  Zn68  1  0.63835900  0.63839400  0.05461700  1
  Zn  Zn69  1  0.14010800  0.64034600  0.69564000  1
  Zn  Zn70  1  0.37008800  0.39631800  0.68796400  1
  Zn  Zn71  1  0.37008800  0.10368200  0.31203600  1
  Zn  Zn72  1  0.37354200  0.89534000  0.56252500  1
  Zn  Zn73  1  0.38654600  0.13260200  0.67983800  1
  Zn  Zn74  1  0.60368200  0.62991200  0.18796400  1
  Zn  Zn75  1  0.36164100  0.13839400  0.05461700  1
  Zn  Zn76  1  0.12645800  0.89534000  0.43747500  1
  Zn  Zn77  1  0.87354200  0.10466000  0.56252500  1
  Zn  Zn78  1  0.62991200  0.89631800  0.68796400  1
  Zn  Zn79  1  0.60866800  0.13730900  0.57087800  1
  Zn  Zn80  1  0.64034600  0.14010800  0.80436000  1
  Zn  Zn81  1  0.85989200  0.14034600  0.69564000  1
  Zn  Zn82  1  0.39133200  0.63730900  0.57087800  1
  Zn  Zn83  1  0.39631800  0.12991200  0.18796400  1
  Zn  Zn84  1  0.38654600  0.36739800  0.32016200  1
  Zn  Zn85  1  0.64010800  0.14034600  0.30436000  1
  Zn  Zn86  1  0.61345400  0.86739800  0.32016200  1
  Zn  Zn87  1  0.86164100  0.63839400  0.94538300  1
  Zn  Zn88  1  0.36160600  0.13835900  0.44538300  1
  Zn  Zn89  1  0.36739800  0.38654600  0.17983800  1
  Zn  Zn90  1  0.10368200  0.12991200  0.81203600  1
  Zn  Zn91  1  0.10368200  0.37008800  0.18796400  1
  Zn  Zn92  1  0.63260200  0.61345400  0.82016200  1
  Zn  Zn93  1  0.12991200  0.10368200  0.68796400  1
  Zn  Zn94  1  0.39133200  0.86269100  0.42912200  1
  Zn  Zn95  1  0.63260200  0.88654600  0.17983800  1
  As  As0  1  0.75526700  0.99868100  0.75247100  1
  As  As1  1  0.25000000  0.75000000  0.62458600  1
  As  As2  1  0.50059000  0.75000000  0.00000000  1
  As  As3  1  0.00118500  0.00453600  0.62543700  1
  As  As4  1  0.49546400  0.00118500  0.12543700  1
  As  As5  1  0.99736800  0.25000000  0.50000000  1
  As  As6  1  0.99868100  0.74473300  0.25247100  1
  As  As7  1  0.49868100  0.25526700  0.25247100  1
  As  As8  1  0.25000000  0.25000000  0.62520900  1
  As  As9  1  0.75000000  0.99941000  0.50000000  1
  As  As10  1  0.24473300  0.00131900  0.24752900  1
  As  As11  1  0.49736800  0.75000000  0.50000000  1
  As  As12  1  0.00059000  0.25000000  0.00000000  1
  As  As13  1  0.99546400  0.50118500  0.87456300  1
  As  As14  1  0.25000000  0.99736800  0.00000000  1
  As  As15  1  0.75000000  0.25000000  0.62458600  1
  As  As16  1  0.25000000  0.49941000  0.50000000  1
  As  As17  1  0.49881500  0.00453600  0.37456300  1
  As  As18  1  0.74473300  0.50131900  0.75247100  1
  As  As19  1  0.99868100  0.75526700  0.74752900  1
  As  As20  1  0.99546400  0.99881500  0.12543700  1
  As  As21  1  0.25526700  0.00131900  0.75247100  1
  As  As22  1  0.00263200  0.75000000  0.50000000  1
  As  As23  1  0.49881500  0.49546400  0.62543700  1
  As  As24  1  0.75000000  0.75000000  0.62520900  1
  As  As25  1  0.25000000  0.50263200  0.00000000  1
  As  As26  1  0.99941000  0.75000000  0.00000000  1
  As  As27  1  0.25000000  0.25000000  0.87479100  1
  As  As28  1  0.25000000  0.00059000  0.50000000  1
  As  As29  1  0.75000000  0.75000000  0.37479100  1
  As  As30  1  0.24473300  0.49868100  0.75247100  1
  As  As31  1  0.75000000  0.49736800  0.00000000  1
  As  As32  1  0.75000000  0.50059000  0.50000000  1
  As  As33  1  0.00118500  0.49546400  0.37456300  1
  As  As34  1  0.00453600  0.00118500  0.87456300  1
  As  As35  1  0.75000000  0.75000000  0.87479100  1
  As  As36  1  0.00131900  0.24473300  0.25247100  1
  As  As37  1  0.99881500  0.99546400  0.37456300  1
  As  As38  1  0.50131900  0.75526700  0.25247100  1
  As  As39  1  0.75000000  0.25000000  0.37541400  1
  As  As40  1  0.25000000  0.75000000  0.37541400  1
  As  As41  1  0.49546400  0.49881500  0.87456300  1
  As  As42  1  0.50453600  0.50118500  0.12543700  1
  As  As43  1  0.99881500  0.50453600  0.62543700  1
  As  As44  1  0.50453600  0.99881500  0.87456300  1
  As  As45  1  0.25526700  0.49868100  0.24752900  1
  As  As46  1  0.25000000  0.75000000  0.87541400  1
  As  As47  1  0.74473300  0.99868100  0.24752900  1
  As  As48  1  0.50131900  0.74473300  0.74752900  1
  As  As49  1  0.75000000  0.25000000  0.12458600  1
  As  As50  1  0.75000000  0.25000000  0.87541400  1
  As  As51  1  0.50118500  0.99546400  0.62543700  1
  As  As52  1  0.49868100  0.24473300  0.74752900  1
  As  As53  1  0.00453600  0.49881500  0.12543700  1
  As  As54  1  0.75000000  0.00263200  0.00000000  1
  As  As55  1  0.75000000  0.75000000  0.12520900  1
  As  As56  1  0.25000000  0.25000000  0.12520900  1
  As  As57  1  0.00131900  0.25526700  0.74752900  1
  As  As58  1  0.50118500  0.50453600  0.37456300  1
  As  As59  1  0.49941000  0.25000000  0.00000000  1
  As  As60  1  0.75526700  0.50131900  0.24752900  1
  As  As61  1  0.25000000  0.75000000  0.12458600  1
  As  As62  1  0.25000000  0.25000000  0.37479100  1
  As  As63  1  0.50263200  0.25000000  0.50000000  1
loop_
_geom_bond_atom_site_label_1
_geom_bond_atom_site_label_2
_geom_bond_distance
_geom_bond_site_symmetry_2
As0 Zn78 2.468089 1_555
As0 Zn21 2.486560 1_555
As0 Zn81 2.499157 1_565
As0 Zn80 2.500219 1_565
As0 Zn42 2.763017 1_555
As0 Zn27 2.811083 1_555
As1 Zn82 2.506920 1_555
As1 Zn36 2.506920 1_555
As1 Zn35 2.510003 1_555
As1 Zn69 2.510003 1_555
As1 Zn9 2.713484 1_555
As1 Zn72 2.713484 1_555
As2 Zn44 2.443159 1_555
As2 Zn2 2.443159 1_554
As2 Zn68 2.482931 1_555
As2 Zn31 2.482931 1_554
As2 Zn7 2.898426 1_554
As2 Zn34 2.898426 1_555
As3 Zn93 2.444943 1_555
As3 Zn77 2.448158 1_455
As3 Zn36 2.488959 1_545
As3 Zn27 2.494866 1_445
As3 Zn12 2.841789 1_555
As3 Zn81 2.874687 1_455
As4 Zn83 2.444943 1_555
As4 Zn44 2.448158 1_545
As4 Zn11 2.488959 1_555
As4 Zn95 2.494866 1_545
As4 Zn75 2.841789 1_555
As4 Zn32 2.874687 1_545
As5 Zn45 2.502704 1_555
As5 Zn63 2.502704 1_555
As5 Zn25 2.508990 1_655
As5 Zn12 2.508990 1_655
As5 Zn77 2.721381 1_555
As5 Zn8 2.721381 1_555
As6 Zn53 2.468089 1_555
As6 Zn5 2.486560 1_555
As6 Zn6 2.499157 1_655
As6 Zn43 2.500219 1_655
As6 Zn15 2.763017 1_555
As6 Zn57 2.811083 1_555
As7 Zn83 2.468089 1_555
As7 Zn84 2.486560 1_555
As7 Zn67 2.499157 1_555
As7 Zn85 2.500219 1_555
As7 Zn71 2.763017 1_555
As7 Zn89 2.811083 1_555
As8 Zn73 2.511262 1_555
As8 Zn29 2.511262 1_555
As8 Zn55 2.525708 1_555
As8 Zn12 2.525708 1_555
As8 Zn70 2.708016 1_555
As8 Zn93 2.708016 1_555
As9 Zn77 2.443159 1_565
As9 Zn52 2.443159 1_565
As9 Zn47 2.482931 1_555
As9 Zn1 2.482931 1_555
As9 Zn45 2.898426 1_565
As9 Zn79 2.898426 1_565
As10 Zn71 2.468089 1_555
As10 Zn41 2.486560 1_555
As10 Zn43 2.499157 1_545
As10 Zn32 2.500219 1_545
As10 Zn83 2.763017 1_555
As10 Zn64 2.811083 1_555
As11 Zn94 2.502704 1_555
As11 Zn82 2.502704 1_555
As11 Zn1 2.508990 1_555
As11 Zn24 2.508990 1_555
As11 Zn72 2.721381 1_555
As11 Zn10 2.721381 1_555
As12 Zn28 2.443159 1_455
As12 Zn17 2.443159 1_454
As12 Zn51 2.482931 1_555
As12 Zn39 2.482931 1_554
As12 Zn30 2.898426 1_455
As12 Zn60 2.898426 1_454
As13 Zn40 2.444943 1_555
As13 Zn17 2.448158 1_555
As13 Zn62 2.488959 1_655
As13 Zn65 2.494866 1_655
As13 Zn87 2.841789 1_555
As13 Zn48 2.874687 1_555
As14 Zn7 2.502704 1_554
As14 Zn0 2.502704 1_555
As14 Zn75 2.508990 1_565
As14 Zn39 2.508990 1_564
As14 Zn44 2.721381 1_555
As14 Zn14 2.721381 1_554
As15 Zn79 2.506920 1_555
As15 Zn63 2.506920 1_555
As15 Zn81 2.510003 1_555
As15 Zn33 2.510003 1_555
As15 Zn77 2.713484 1_555
As15 Zn18 2.713484 1_555
As16 Zn9 2.443159 1_555
As16 Zn10 2.443159 1_555
As16 Zn55 2.482931 1_555
As16 Zn25 2.482931 1_555
As16 Zn82 2.898426 1_555
As16 Zn54 2.898426 1_555
As17 Zn71 2.444943 1_555
As17 Zn52 2.448158 1_555
As17 Zn94 2.488959 1_545
As17 Zn86 2.494866 1_545
As17 Zn88 2.841789 1_555
As17 Zn85 2.874687 1_555
As18 Zn38 2.468089 1_555
As18 Zn92 2.486560 1_555
As18 Zn33 2.499157 1_555
As18 Zn48 2.500219 1_555
As18 Zn40 2.763017 1_555
As18 Zn56 2.811083 1_555
As19 Zn40 2.468089 1_555
As19 Zn27 2.486560 1_555
As19 Zn37 2.499157 1_655
As19 Zn69 2.500219 1_655
As19 Zn38 2.763017 1_555
As19 Zn21 2.811083 1_555
As20 Zn53 2.444943 1_555
As20 Zn28 2.448158 1_565
As20 Zn0 2.488959 1_655
As20 Zn41 2.494866 1_665
As20 Zn66 2.841789 1_555
As20 Zn4 2.874687 1_565
As21 Zn93 2.468089 1_555
As21 Zn59 2.486560 1_555
As21 Zn35 2.499157 1_545
As21 Zn37 2.500219 1_545
As21 Zn90 2.763017 1_555
As21 Zn73 2.811083 1_555
As22 Zn54 2.502704 1_555
As22 Zn36 2.502704 1_555
As22 Zn50 2.508990 1_455
As22 Zn47 2.508990 1_455
As22 Zn9 2.721381 1_555
As22 Zn76 2.721381 1_555
As23 Zn70 2.444943 1_555
As23 Zn18 2.448158 1_555
As23 Zn82 2.488959 1_555
As23 Zn56 2.494866 1_555
As23 Zn55 2.841789 1_555
As23 Zn33 2.874687 1_555
As24 Zn27 2.511262 1_555
As24 Zn56 2.511262 1_555
As24 Zn50 2.525708 1_555
As24 Zn1 2.525708 1_555
As24 Zn78 2.708016 1_555
As24 Zn38 2.708016 1_555
As25 Zn62 2.502704 1_554
As25 Zn34 2.502704 1_555
As25 Zn3 2.508990 1_554
As25 Zn51 2.508990 1_555
As25 Zn16 2.721381 1_555
As25 Zn2 2.721381 1_554
As26 Zn14 2.443159 1_654
As26 Zn16 2.443159 1_655
As26 Zn66 2.482931 1_555
As26 Zn87 2.482931 1_554
As26 Zn0 2.898426 1_655
As26 Zn62 2.898426 1_654
As27 Zn65 2.511262 1_555
As27 Zn59 2.511262 1_555
As27 Zn3 2.525708 1_555
As27 Zn39 2.525708 1_555
As27 Zn26 2.708016 1_555
As27 Zn90 2.708016 1_555
As28 Zn72 2.443159 1_545
As28 Zn76 2.443159 1_545
As28 Zn12 2.482931 1_555
As28 Zn88 2.482931 1_555
As28 Zn94 2.898426 1_545
As28 Zn36 2.898426 1_545
As29 Zn5 2.511262 1_555
As29 Zn86 2.511262 1_555
As29 Zn47 2.525708 1_555
As29 Zn24 2.525708 1_555
As29 Zn15 2.708016 1_555
As29 Zn49 2.708016 1_555
As30 Zn70 2.468089 1_555
As30 Zn65 2.486560 1_555
As30 Zn69 2.499157 1_555
As30 Zn23 2.500219 1_555
As30 Zn26 2.763017 1_555
As30 Zn29 2.811083 1_555
As31 Zn30 2.502704 1_555
As31 Zn13 2.502704 1_554
As31 Zn68 2.508990 1_555
As31 Zn87 2.508990 1_554
As31 Zn61 2.721381 1_555
As31 Zn17 2.721381 1_554
As32 Zn18 2.443159 1_555
As32 Zn8 2.443159 1_555
As32 Zn24 2.482931 1_555
As32 Zn50 2.482931 1_555
As32 Zn19 2.898426 1_555
As32 Zn63 2.898426 1_555
As33 Zn22 2.444943 1_555
As33 Zn8 2.448158 1_455
As33 Zn54 2.488959 1_555
As33 Zn5 2.494866 1_455
As33 Zn25 2.841789 1_555
As33 Zn46 2.874687 1_455
As34 Zn90 2.444943 1_555
As34 Zn14 2.448158 1_545
As34 Zn60 2.488959 1_455
As34 Zn21 2.494866 1_445
As34 Zn39 2.841789 1_555
As34 Zn37 2.874687 1_545
As35 Zn21 2.511262 1_555
As35 Zn92 2.511262 1_555
As35 Zn87 2.525708 1_555
As35 Zn31 2.525708 1_555
As35 Zn40 2.708016 1_555
As35 Zn42 2.708016 1_555
As36 Zn91 2.468089 1_555
As36 Zn64 2.486560 1_555
As36 Zn4 2.499157 1_455
As36 Zn46 2.500219 1_455
As36 Zn22 2.763017 1_555
As36 Zn41 2.811083 1_555
As37 Zn15 2.444943 1_555
As37 Zn76 2.448158 1_655
As37 Zn45 2.488959 1_565
As37 Zn64 2.494866 1_665
As37 Zn47 2.841789 1_555
As37 Zn43 2.874687 1_655
As38 Zn74 2.468089 1_555
As38 Zn86 2.486560 1_555
As38 Zn32 2.499157 1_555
As38 Zn20 2.500219 1_555
As38 Zn49 2.763017 1_555
As38 Zn95 2.811083 1_555
As39 Zn19 2.506920 1_555
As39 Zn45 2.506920 1_555
As39 Zn46 2.510003 1_555
As39 Zn85 2.510003 1_555
As39 Zn8 2.713484 1_555
As39 Zn52 2.713484 1_555
As40 Zn94 2.506920 1_555
As40 Zn54 2.506920 1_555
As40 Zn20 2.510003 1_555
As40 Zn43 2.510003 1_555
As40 Zn10 2.713484 1_555
As40 Zn76 2.713484 1_555
As41 Zn26 2.444943 1_555
As41 Zn2 2.448158 1_555
As41 Zn13 2.488959 1_555
As41 Zn92 2.494866 1_555
As41 Zn3 2.841789 1_555
As41 Zn23 2.874687 1_555
As42 Zn74 2.444943 1_555
As42 Zn61 2.448158 1_555
As42 Zn34 2.488959 1_555
As42 Zn89 2.494866 1_555
As42 Zn68 2.841789 1_555
As42 Zn67 2.874687 1_555
As43 Zn38 2.444943 1_555
As43 Zn9 2.448158 1_655
As43 Zn63 2.488959 1_555
As43 Zn29 2.494866 1_655
As43 Zn50 2.841789 1_555
As43 Zn69 2.874687 1_655
As44 Zn42 2.444943 1_555
As44 Zn58 2.448158 1_565
As44 Zn7 2.488959 1_555
As44 Zn59 2.494866 1_565
As44 Zn31 2.841789 1_555
As44 Zn80 2.874687 1_565
As45 Zn22 2.468089 1_555
As45 Zn89 2.486560 1_555
As45 Zn20 2.499157 1_555
As45 Zn6 2.500219 1_555
As45 Zn91 2.763017 1_555
As45 Zn84 2.811083 1_555
As46 Zn7 2.506920 1_555
As46 Zn62 2.506920 1_555
As46 Zn23 2.510003 1_555
As46 Zn37 2.510003 1_555
As46 Zn14 2.713484 1_555
As46 Zn2 2.713484 1_555
As47 Zn15 2.468089 1_555
As47 Zn95 2.486560 1_555
As47 Zn85 2.499157 1_565
As47 Zn4 2.500219 1_565
As47 Zn53 2.763017 1_555
As47 Zn86 2.811083 1_555
As48 Zn42 2.468089 1_555
As48 Zn56 2.486560 1_555
As48 Zn23 2.499157 1_555
As48 Zn35 2.500219 1_555
As48 Zn78 2.763017 1_555
As48 Zn92 2.811083 1_555
As49 Zn30 2.506920 1_555
As49 Zn11 2.506920 1_555
As49 Zn4 2.510003 1_555
As49 Zn67 2.510003 1_555
As49 Zn61 2.713484 1_555
As49 Zn28 2.713484 1_555
As50 Zn13 2.506920 1_555
As50 Zn60 2.506920 1_555
As50 Zn48 2.510003 1_555
As50 Zn80 2.510003 1_555
As50 Zn58 2.713484 1_555
As50 Zn17 2.713484 1_555
As51 Zn78 2.444943 1_555
As51 Zn72 2.448158 1_555
As51 Zn79 2.488959 1_565
As51 Zn73 2.494866 1_565
As51 Zn1 2.841789 1_555
As51 Zn35 2.874687 1_555
As52 Zn26 2.468089 1_555
As52 Zn73 2.486560 1_555
As52 Zn80 2.499157 1_555
As52 Zn33 2.500219 1_555
As52 Zn70 2.763017 1_555
As52 Zn59 2.811083 1_555
As53 Zn91 2.444943 1_555
As53 Zn16 2.448158 1_555
As53 Zn30 2.488959 1_455
As53 Zn57 2.494866 1_455
As53 Zn51 2.841789 1_555
As53 Zn6 2.874687 1_555
As54 Zn60 2.502704 1_554
As54 Zn11 2.502704 1_555
As54 Zn66 2.508990 1_545
As54 Zn31 2.508990 1_544
As54 Zn28 2.721381 1_555
As54 Zn58 2.721381 1_554
As55 Zn95 2.511262 1_555
As55 Zn57 2.511262 1_555
As55 Zn66 2.525708 1_555
As55 Zn68 2.525708 1_555
As55 Zn53 2.708016 1_555
As55 Zn74 2.708016 1_555
As56 Zn89 2.511262 1_555
As56 Zn41 2.511262 1_555
As56 Zn75 2.525708 1_555
As56 Zn51 2.525708 1_555
As56 Zn91 2.708016 1_555
As56 Zn83 2.708016 1_555
As57 Zn90 2.468089 1_555
As57 Zn29 2.486560 1_555
As57 Zn48 2.499157 1_455
As57 Zn81 2.500219 1_455
As57 Zn93 2.763017 1_555
As57 Zn65 2.811083 1_555
As58 Zn49 2.444943 1_555
As58 Zn10 2.448158 1_555
As58 Zn19 2.488959 1_555
As58 Zn84 2.494866 1_555
As58 Zn24 2.841789 1_555
As58 Zn20 2.874687 1_555
As59 Zn61 2.443159 1_555
As59 Zn58 2.443159 1_554
As59 Zn3 2.482931 1_554
As59 Zn75 2.482931 1_555
As59 Zn13 2.898426 1_554
As59 Zn11 2.898426 1_555
As60 Zn49 2.468089 1_555
As60 Zn57 2.486560 1_555
As60 Zn46 2.499157 1_555
As60 Zn67 2.500219 1_555
As60 Zn74 2.763017 1_555
As60 Zn5 2.811083 1_555
As61 Zn34 2.506920 1_555
As61 Zn0 2.506920 1_555
As61 Zn32 2.510003 1_555
As61 Zn6 2.510003 1_555
As61 Zn44 2.713484 1_555
As61 Zn16 2.713484 1_555
As62 Zn84 2.511262 1_555
As62 Zn64 2.511262 1_555
As62 Zn25 2.525708 1_555
As62 Zn88 2.525708 1_555
As62 Zn71 2.708016 1_555
As62 Zn22 2.708016 1_555
As63 Zn79 2.502704 1_555
As63 Zn19 2.502704 1_555
As63 Zn55 2.508990 1_555
As63 Zn88 2.508990 1_555
As63 Zn18 2.721381 1_555
As63 Zn52 2.721381 1_555
