# generated using pymatgen
data_Ca2AlH10ClO8
_symmetry_space_group_name_H-M   'P 1'
_cell_length_a   8.71786936
_cell_length_b   8.71786936
_cell_length_c   10.94969003
_cell_angle_alpha   79.11197773
_cell_angle_beta   79.11197773
_cell_angle_gamma   45.33802104
_symmetry_Int_Tables_number   1
_chemical_formula_structural   Ca2AlH10ClO8
_chemical_formula_sum   'Ca4 Al2 H20 Cl2 O16'
_cell_volume   579.37425382
_cell_formula_units_Z   2
loop_
 _symmetry_equiv_pos_site_id
 _symmetry_equiv_pos_as_xyz
  1  'x, y, z'
loop_
 _atom_site_type_symbol
 _atom_site_label
 _atom_site_symmetry_multiplicity
 _atom_site_fract_x
 _atom_site_fract_y
 _atom_site_fract_z
 _atom_site_occupancy
  Ca  Ca0  1  0.43760200  0.03573800  0.80796400  1
  Ca  Ca1  1  0.96426200  0.56239800  0.69203600  1
  Ca  Ca2  1  0.56239800  0.96426200  0.19203600  1
  Ca  Ca3  1  0.03573800  0.43760200  0.30796400  1
  Al  Al0  1  0.50000000  0.00000000  0.50000000  1
  Al  Al1  1  0.00000000  0.50000000  0.00000000  1
  H  H0  1  0.72712100  0.17218100  0.54790000  1
  H  H1  1  0.82781900  0.27287900  0.95210000  1
  H  H2  1  0.27287900  0.82781900  0.45210000  1
  H  H3  1  0.17218100  0.72712100  0.04790000  1
  H  H4  1  0.45513100  0.68126600  0.78586100  1
  H  H5  1  0.31873400  0.54486900  0.71413900  1
  H  H6  1  0.54486900  0.31873400  0.21413900  1
  H  H7  1  0.68126600  0.45513100  0.28586100  1
  H  H8  1  0.93439800  0.83928300  0.32746700  1
  H  H9  1  0.16071700  0.06560200  0.17253300  1
  H  H10  1  0.06560200  0.16071700  0.67253300  1
  H  H11  1  0.83928300  0.93439800  0.82746700  1
  H  H12  1  0.29449400  0.80116700  0.89939100  1
  H  H13  1  0.19883300  0.70550600  0.60060900  1
  H  H14  1  0.70550600  0.19883300  0.10060900  1
  H  H15  1  0.80116700  0.29449400  0.39939100  1
  H  H16  1  0.09281700  0.78777300  0.99820500  1
  H  H17  1  0.21222700  0.90718300  0.50179500  1
  H  H18  1  0.90718300  0.21222700  0.00179500  1
  H  H19  1  0.78777300  0.09281700  0.49820500  1
  Cl  Cl0  1  0.63279400  0.36720600  0.75000000  1
  Cl  Cl1  1  0.36720600  0.63279400  0.25000000  1
  O  O0  1  0.64976800  0.87441500  0.62876900  1
  O  O1  1  0.12558500  0.35023200  0.87123100  1
  O  O2  1  0.35023200  0.12558500  0.37123100  1
  O  O3  1  0.87441500  0.64976800  0.12876900  1
  O  O4  1  0.94934900  0.73485100  0.39125200  1
  O  O5  1  0.26514900  0.05065100  0.10874800  1
  O  O6  1  0.05065100  0.26514900  0.60874800  1
  O  O7  1  0.73485100  0.94934900  0.89125200  1
  O  O8  1  0.74209700  0.79400000  0.38575800  1
  O  O9  1  0.20600000  0.25790300  0.11424200  1
  O  O10  1  0.25790300  0.20600000  0.61424200  1
  O  O11  1  0.79400000  0.74209700  0.88575800  1
  O  O12  1  0.35432900  0.82483800  0.82181400  1
  O  O13  1  0.17516200  0.64567100  0.67818600  1
  O  O14  1  0.64567100  0.17516200  0.17818600  1
  O  O15  1  0.82483800  0.35432900  0.32181400  1
loop_
_geom_bond_atom_site_label_1
_geom_bond_atom_site_label_2
_geom_bond_distance
_geom_bond_site_symmetry_2
Ca0 O1 2.217457 1_555
Ca0 O0 2.294220 1_545
Ca0 O12 2.379075 1_545
Ca0 O11 2.434491 1_545
Ca0 O10 2.440035 1_555
Ca0 O7 2.450259 1_545
Ca1 O0 2.217457 1_555
Ca1 O1 2.294220 1_655
Ca1 O13 2.379075 1_655
Ca1 O10 2.434491 1_655
Ca1 O11 2.440035 1_555
Ca1 O6 2.450259 1_655
Ca2 O3 2.217457 1_555
Ca2 O2 2.294220 1_565
Ca2 O14 2.379075 1_565
Ca2 O9 2.434491 1_565
Ca2 O8 2.440035 1_555
Ca2 O5 2.450259 1_565
Ca3 O2 2.217457 1_555
Ca3 O3 2.294220 1_455
Ca3 O15 2.379075 1_455
Ca3 O8 2.434491 1_455
Ca3 O9 2.440035 1_555
Ca3 O4 2.450259 1_455
Al0 O2 1.730353 1_555
Al0 O0 1.730353 1_545
Al0 O10 1.940914 1_555
Al0 O8 1.940914 1_545
Al1 O3 1.730353 1_455
Al1 O1 1.730353 1_554
Al1 O11 1.940914 1_454
Al1 O9 1.940914 1_555
H0 H19 0.757366 1_555
H1 H18 0.757366 1_556
H4 O12 1.001489 1_555
H5 O13 1.001489 1_555
H6 O14 1.001489 1_555
H7 O15 1.001489 1_555
H8 O4 0.980311 1_555
H9 O5 0.980311 1_555
H10 O6 0.980311 1_555
H11 O7 0.980311 1_555
H12 O12 0.976708 1_555
H13 O13 0.976708 1_555
H14 O14 0.976708 1_555
H15 O15 0.976708 1_555
H16 H3 0.757366 1_556
H17 H2 0.757366 1_555
Cl0 H5 2.064971 1_555
Cl0 H4 2.064971 1_555
Cl1 H6 2.064971 1_555
Cl1 H7 2.064971 1_555
O4 O8 1.501190 1_555
O5 O9 1.501190 1_555
O10 O6 1.501190 1_555
O11 O7 1.501190 1_555
