# generated using pymatgen
data_NiAs3H3OF18
_symmetry_space_group_name_H-M   'P 1'
_cell_length_a   9.57516400
_cell_length_b   10.42860600
_cell_length_c   14.04656000
_cell_angle_alpha   90.00000000
_cell_angle_beta   90.00000000
_cell_angle_gamma   90.00000000
_symmetry_Int_Tables_number   1
_chemical_formula_structural   NiAs3H3OF18
_chemical_formula_sum   'Ni4 As12 H12 O4 F72'
_cell_volume   1402.62785571
_cell_formula_units_Z   4
loop_
 _symmetry_equiv_pos_site_id
 _symmetry_equiv_pos_as_xyz
  1  'x, y, z'
loop_
 _atom_site_type_symbol
 _atom_site_label
 _atom_site_symmetry_multiplicity
 _atom_site_fract_x
 _atom_site_fract_y
 _atom_site_fract_z
 _atom_site_occupancy
  Ni  Ni0  1  0.50000000  0.50000000  0.50000000  1
  Ni  Ni1  1  0.50000000  0.50000000  0.00000000  1
  Ni  Ni2  1  0.00000000  0.00000000  0.50000000  1
  Ni  Ni3  1  0.00000000  0.00000000  0.00000000  1
  As  As0  1  0.19690000  0.70519000  0.55056300  1
  As  As1  1  0.80310000  0.29481000  0.44943700  1
  As  As2  1  0.80310000  0.29481000  0.05056300  1
  As  As3  1  0.19690000  0.70519000  0.94943700  1
  As  As4  1  0.39070400  0.47786900  0.25000000  1
  As  As5  1  0.30310000  0.20519000  0.55056300  1
  As  As6  1  0.69690000  0.79481000  0.05056300  1
  As  As7  1  0.89070400  0.02213100  0.75000000  1
  As  As8  1  0.69690000  0.79481000  0.44943700  1
  As  As9  1  0.60929600  0.52213100  0.75000000  1
  As  As10  1  0.10929600  0.97786900  0.25000000  1
  As  As11  1  0.30310000  0.20519000  0.94943700  1
  H  H0  1  0.97859400  0.62328500  0.19274300  1
  H  H1  1  0.47859400  0.87671500  0.69274300  1
  H  H2  1  0.47859400  0.87671500  0.80725700  1
  H  H3  1  0.40100700  0.99335800  0.75000000  1
  H  H4  1  0.97859400  0.62328500  0.30725700  1
  H  H5  1  0.59899300  0.00664200  0.25000000  1
  H  H6  1  0.52140600  0.12328500  0.30725700  1
  H  H7  1  0.09899300  0.49335800  0.75000000  1
  H  H8  1  0.02140600  0.37671500  0.69274300  1
  H  H9  1  0.90100700  0.50664200  0.25000000  1
  H  H10  1  0.02140600  0.37671500  0.80725700  1
  H  H11  1  0.52140600  0.12328500  0.19274300  1
  O  O0  1  0.52031200  0.06854400  0.25000000  1
  O  O1  1  0.02031200  0.43145600  0.75000000  1
  O  O2  1  0.97968800  0.56854400  0.25000000  1
  O  O3  1  0.47968800  0.93145600  0.75000000  1
  F  F0  1  0.40051100  0.12179300  0.63659400  1
  F  F1  1  0.11133100  0.97563700  0.11954400  1
  F  F2  1  0.79483500  0.71279900  0.96606400  1
  F  F3  1  0.67164000  0.42149000  0.44017600  1
  F  F4  1  0.56193200  0.67208100  0.05014800  1
  F  F5  1  0.88866900  0.02436300  0.88045600  1
  F  F6  1  0.28429100  0.78853200  0.85786400  1
  F  F7  1  0.71956300  0.07643000  0.75000000  1
  F  F8  1  0.61133100  0.52436300  0.61954400  1
  F  F9  1  0.05186000  0.81605500  0.25000000  1
  F  F10  1  0.78429100  0.71146800  0.35786400  1
  F  F11  1  0.78429100  0.71146800  0.14213600  1
  F  F12  1  0.09948900  0.62179300  0.86340600  1
  F  F13  1  0.90051100  0.37820700  0.36340600  1
  F  F14  1  0.21570900  0.28853200  0.64213600  1
  F  F15  1  0.43427800  0.47346000  0.75000000  1
  F  F16  1  0.94814000  0.18394500  0.75000000  1
  F  F17  1  0.89071400  0.37849600  0.53962900  1
  F  F18  1  0.71570900  0.21146800  0.35786400  1
  F  F19  1  0.43806800  0.32791900  0.55014800  1
  F  F20  1  0.93427800  0.02654000  0.25000000  1
  F  F21  1  0.82836000  0.92149000  0.44017600  1
  F  F22  1  0.21956300  0.42357000  0.25000000  1
  F  F23  1  0.78043700  0.57643000  0.75000000  1
  F  F24  1  0.43806800  0.32791900  0.94985200  1
  F  F25  1  0.33453300  0.63651800  0.25000000  1
  F  F26  1  0.89071400  0.37849600  0.96037100  1
  F  F27  1  0.06572200  0.97346000  0.75000000  1
  F  F28  1  0.21570900  0.28853200  0.85786400  1
  F  F29  1  0.67164000  0.42149000  0.05982400  1
  F  F30  1  0.09948900  0.62179300  0.63659400  1
  F  F31  1  0.11133100  0.97563700  0.38045600  1
  F  F32  1  0.93806800  0.17208100  0.05014800  1
  F  F33  1  0.61133100  0.52436300  0.88045600  1
  F  F34  1  0.28429100  0.78853200  0.64213600  1
  F  F35  1  0.88866900  0.02436300  0.61954400  1
  F  F36  1  0.79483500  0.71279900  0.53393600  1
  F  F37  1  0.66546700  0.36348200  0.75000000  1
  F  F38  1  0.40051100  0.12179300  0.86340600  1
  F  F39  1  0.20516500  0.28720100  0.03393600  1
  F  F40  1  0.70516500  0.21279900  0.96606400  1
  F  F41  1  0.29483500  0.78720100  0.03393600  1
  F  F42  1  0.38866900  0.47563700  0.38045600  1
  F  F43  1  0.20516500  0.28720100  0.46606400  1
  F  F44  1  0.06193200  0.82791900  0.55014800  1
  F  F45  1  0.32836000  0.57851000  0.55982400  1
  F  F46  1  0.38866900  0.47563700  0.11954400  1
  F  F47  1  0.10928600  0.62150400  0.03962900  1
  F  F48  1  0.59948900  0.87820700  0.13659400  1
  F  F49  1  0.90051100  0.37820700  0.13659400  1
  F  F50  1  0.60928600  0.87849600  0.53962900  1
  F  F51  1  0.17164000  0.07851000  0.55982400  1
  F  F52  1  0.56193200  0.67208100  0.44985200  1
  F  F53  1  0.39071400  0.12150400  0.46037100  1
  F  F54  1  0.71570900  0.21146800  0.14213600  1
  F  F55  1  0.59948900  0.87820700  0.36340600  1
  F  F56  1  0.17164000  0.07851000  0.94017600  1
  F  F57  1  0.60928600  0.87849600  0.96037100  1
  F  F58  1  0.10928600  0.62150400  0.46037100  1
  F  F59  1  0.44814000  0.31605500  0.25000000  1
  F  F60  1  0.93806800  0.17208100  0.44985200  1
  F  F61  1  0.83453300  0.86348200  0.75000000  1
  F  F62  1  0.28043700  0.92357000  0.25000000  1
  F  F63  1  0.29483500  0.78720100  0.46606400  1
  F  F64  1  0.32836000  0.57851000  0.94017600  1
  F  F65  1  0.39071400  0.12150400  0.03962900  1
  F  F66  1  0.06193200  0.82791900  0.94985200  1
  F  F67  1  0.16546700  0.13651800  0.25000000  1
  F  F68  1  0.82836000  0.92149000  0.05982400  1
  F  F69  1  0.56572200  0.52654000  0.25000000  1
  F  F70  1  0.55186000  0.68394500  0.75000000  1
  F  F71  1  0.70516500  0.21279900  0.53393600  1
loop_
_geom_bond_atom_site_label_1
_geom_bond_atom_site_label_2
_geom_bond_distance
_geom_bond_site_symmetry_2
As0 F63 1.737703 1_555
As0 F58 1.752268 1_555
As0 F30 1.756903 1_555
As0 F34 1.763560 1_555
As0 F44 1.818874 1_555
As0 F45 1.829391 1_555
As1 F71 1.737703 1_555
As1 F17 1.752268 1_555
As1 F13 1.756903 1_555
As1 F18 1.763560 1_555
As1 F60 1.818874 1_555
As1 F3 1.829391 1_555
As2 F40 1.737703 1_554
As2 F26 1.752268 1_554
As2 F49 1.756903 1_555
As2 F54 1.763560 1_555
As2 F32 1.818874 1_555
As2 F29 1.829391 1_555
As3 F41 1.737703 1_556
As3 F47 1.752268 1_556
As3 F12 1.756903 1_555
As3 F6 1.763560 1_555
As3 F66 1.818874 1_555
As3 F64 1.829391 1_555
As4 F22 1.733782 1_555
As4 F25 1.739715 1_555
As4 F69 1.751006 1_555
As4 F59 1.774850 1_555
As4 F42 1.832709 1_555
As4 F46 1.832709 1_555
As5 F43 1.737703 1_555
As5 F53 1.752268 1_555
As5 F0 1.756903 1_555
As5 F14 1.763560 1_555
As5 F19 1.818874 1_555
As5 F51 1.829391 1_555
As6 F2 1.737703 1_554
As6 F57 1.752268 1_554
As6 F48 1.756903 1_555
As6 F11 1.763560 1_555
As6 F4 1.818874 1_555
As6 F68 1.829391 1_555
As7 F7 1.733782 1_555
As7 F61 1.739715 1_545
As7 F27 1.751006 1_645
As7 F16 1.774850 1_555
As7 F35 1.832709 1_555
As7 F5 1.832709 1_555
As8 F36 1.737703 1_555
As8 F50 1.752268 1_555
As8 F55 1.756903 1_555
As8 F10 1.763560 1_555
As8 F52 1.818874 1_555
As8 F21 1.829391 1_555
As9 F23 1.733782 1_555
As9 F37 1.739715 1_555
As9 F15 1.751006 1_555
As9 F70 1.774850 1_555
As9 F33 1.832709 1_555
As9 F8 1.832709 1_555
As10 F62 1.733782 1_555
As10 F67 1.739715 1_565
As10 F20 1.751006 1_465
As10 F9 1.774850 1_555
As10 F1 1.832709 1_555
As10 F31 1.832709 1_555
As11 F39 1.737703 1_556
As11 F65 1.752268 1_556
As11 F38 1.756903 1_555
As11 F28 1.763560 1_555
As11 F24 1.818874 1_555
As11 F56 1.829391 1_555
H0 O2 0.986329 1_555
H1 O3 0.986329 1_555
H2 O3 0.986329 1_555
H3 O3 0.992131 1_555
H4 O2 0.986329 1_555
H5 O0 0.992131 1_555
H6 O0 0.986329 1_555
H7 O1 0.992131 1_555
H8 O1 0.986329 1_555
H9 O2 0.992131 1_555
H10 O1 0.986329 1_555
H11 O0 0.986329 1_555
F1 Ni3 2.005140 1_565
F3 Ni0 2.019287 1_555
F4 Ni1 2.017006 1_555
F5 Ni3 2.005140 1_656
F8 Ni0 2.005140 1_555
F19 Ni0 2.017006 1_555
F21 Ni2 2.019287 1_665
F24 Ni1 2.017006 1_556
F29 Ni1 2.019287 1_555
F31 Ni2 2.005140 1_565
F32 Ni3 2.017006 1_655
F33 Ni1 2.005140 1_556
F35 Ni2 2.005140 1_655
F42 Ni0 2.005140 1_555
F44 Ni2 2.017006 1_565
F45 Ni0 2.019287 1_555
F46 Ni1 2.005140 1_555
F51 Ni2 2.019287 1_555
F52 Ni0 2.017006 1_555
F56 Ni3 2.019287 1_556
F60 Ni2 2.017006 1_655
F64 Ni1 2.019287 1_556
F66 Ni3 2.017006 1_566
F68 Ni3 2.019287 1_665
