# generated using pymatgen
data_MnC5BrO5
_symmetry_space_group_name_H-M   'P 1'
_cell_length_a   6.16518400
_cell_length_b   11.46920200
_cell_length_c   11.84184800
_cell_angle_alpha   90.00000000
_cell_angle_beta   90.00000000
_cell_angle_gamma   90.00000000
_symmetry_Int_Tables_number   1
_chemical_formula_structural   MnC5BrO5
_chemical_formula_sum   'Mn4 C20 Br4 O20'
_cell_volume   837.33400105
_cell_formula_units_Z   4
loop_
 _symmetry_equiv_pos_site_id
 _symmetry_equiv_pos_as_xyz
  1  'x, y, z'
loop_
 _atom_site_type_symbol
 _atom_site_label
 _atom_site_symmetry_multiplicity
 _atom_site_fract_x
 _atom_site_fract_y
 _atom_site_fract_z
 _atom_site_occupancy
  Mn  Mn0  1  0.55059900  0.75000000  0.38040700  1
  Mn  Mn1  1  0.94940100  0.75000000  0.88040700  1
  Mn  Mn2  1  0.05059900  0.25000000  0.11959300  1
  Mn  Mn3  1  0.44940100  0.25000000  0.61959300  1
  C  C0  1  0.56475700  0.13392800  0.71607300  1
  C  C1  1  0.43524300  0.63392800  0.28392700  1
  C  C2  1  0.18663300  0.36834600  0.03430600  1
  C  C3  1  0.06475700  0.86607200  0.78392700  1
  C  C4  1  0.31336800  0.36834600  0.53430600  1
  C  C5  1  0.43524300  0.86607200  0.28392700  1
  C  C6  1  0.06475700  0.63392800  0.78392700  1
  C  C7  1  0.31336800  0.13165400  0.53430600  1
  C  C8  1  0.18663300  0.13165400  0.03430600  1
  C  C9  1  0.81336800  0.86834600  0.96569400  1
  C  C10  1  0.93524300  0.36607200  0.21607300  1
  C  C11  1  0.19036400  0.75000000  0.97225000  1
  C  C12  1  0.56475700  0.36607200  0.71607300  1
  C  C13  1  0.93524300  0.13392800  0.21607300  1
  C  C14  1  0.81336800  0.63165400  0.96569400  1
  C  C15  1  0.30963600  0.75000000  0.47225000  1
  C  C16  1  0.68663200  0.63165400  0.46569400  1
  C  C17  1  0.80963600  0.25000000  0.02775000  1
  C  C18  1  0.69036400  0.25000000  0.52775000  1
  C  C19  1  0.68663200  0.86834600  0.46569400  1
  Br  Br0  1  0.61499600  0.75000000  0.75254100  1
  Br  Br1  1  0.11499600  0.25000000  0.74745900  1
  Br  Br2  1  0.88500400  0.75000000  0.25254100  1
  Br  Br3  1  0.38500400  0.25000000  0.24745900  1
  O  O0  1  0.86669000  0.43674100  0.27495800  1
  O  O1  1  0.34015800  0.75000000  0.03098000  1
  O  O2  1  0.65984200  0.25000000  0.96902000  1
  O  O3  1  0.73475100  0.94339600  0.01563300  1
  O  O4  1  0.84015800  0.25000000  0.46902000  1
  O  O5  1  0.76524900  0.94339600  0.51563300  1
  O  O6  1  0.26524900  0.44339600  0.98436700  1
  O  O7  1  0.13331000  0.93674100  0.72504200  1
  O  O8  1  0.86669000  0.06325900  0.27495800  1
  O  O9  1  0.15984200  0.75000000  0.53098000  1
  O  O10  1  0.13331000  0.56325900  0.72504200  1
  O  O11  1  0.26524900  0.05660400  0.98436700  1
  O  O12  1  0.63331000  0.06325900  0.77495800  1
  O  O13  1  0.63331000  0.43674100  0.77495800  1
  O  O14  1  0.36669000  0.56325900  0.22504200  1
  O  O15  1  0.23475100  0.05660400  0.48436700  1
  O  O16  1  0.73475100  0.55660400  0.01563300  1
  O  O17  1  0.23475100  0.44339600  0.48436700  1
  O  O18  1  0.36669000  0.93674100  0.22504200  1
  O  O19  1  0.76524900  0.55660400  0.51563300  1
loop_
_geom_bond_atom_site_label_1
_geom_bond_atom_site_label_2
_geom_bond_distance
_geom_bond_site_symmetry_2
C0 O12 1.149696 1_555
C0 Mn3 1.892971 1_555
C1 O14 1.149696 1_555
C1 Mn0 1.892971 1_555
C2 O6 1.151325 1_554
C2 Mn2 1.888317 1_555
C3 O7 1.149696 1_555
C3 Mn1 1.892971 1_455
C4 O17 1.151328 1_555
C4 Mn3 1.888314 1_555
C5 O18 1.149696 1_555
C5 Mn0 1.892971 1_555
C6 O10 1.149696 1_555
C6 Mn1 1.892971 1_455
C7 O15 1.151328 1_555
C7 Mn3 1.888314 1_555
C8 O11 1.151325 1_554
C8 Mn2 1.888317 1_555
C9 O3 1.151328 1_556
C9 Mn1 1.888314 1_555
C10 O0 1.149696 1_555
C10 Mn2 1.892971 1_655
C11 O1 1.156091 1_556
C11 Mn1 1.841142 1_455
C12 O13 1.149696 1_555
C12 Mn3 1.892971 1_555
C13 O8 1.149696 1_555
C13 Mn2 1.892971 1_655
C14 O16 1.151328 1_556
C14 Mn1 1.888314 1_555
C15 O9 1.156091 1_555
C15 Mn0 1.841142 1_555
C16 O19 1.151328 1_555
C16 Mn0 1.888314 1_555
C17 O2 1.156091 1_554
C17 Mn2 1.841142 1_655
C18 O4 1.156091 1_555
C18 Mn3 1.841142 1_555
C19 O5 1.151328 1_555
C19 Mn0 1.888314 1_555
Br0 Mn1 2.557965 1_555
Br1 Mn3 2.557965 1_555
Br2 Mn0 2.557965 1_555
Br3 Mn2 2.557965 1_555
