# generated using pymatgen
data_Sn3Ru2
_symmetry_space_group_name_H-M   'P 1'
_cell_length_a   6.20446970
_cell_length_b   6.20446413
_cell_length_c   9.97783319
_cell_angle_alpha   89.99994005
_cell_angle_beta   89.99991477
_cell_angle_gamma   89.99746760
_symmetry_Int_Tables_number   1
_chemical_formula_structural   Sn3Ru2
_chemical_formula_sum   'Sn12 Ru8'
_cell_volume   384.10077637
_cell_formula_units_Z   4
loop_
 _symmetry_equiv_pos_site_id
 _symmetry_equiv_pos_as_xyz
  1  'x, y, z'
loop_
 _atom_site_type_symbol
 _atom_site_label
 _atom_site_symmetry_multiplicity
 _atom_site_fract_x
 _atom_site_fract_y
 _atom_site_fract_z
 _atom_site_occupancy
  Sn  Sn0  1  0.22162383  0.34191239  0.08413431  1
  Sn  Sn1  1  0.34190383  0.22166220  0.41588678  1
  Sn  Sn2  1  0.34191402  0.77832065  0.91590202  1
  Sn  Sn3  1  0.65809415  0.22169581  0.91591110  1
  Sn  Sn4  1  0.22166538  0.65810097  0.58409021  1
  Sn  Sn5  1  0.82057913  0.82058271  0.74999884  1
  Sn  Sn6  1  0.65809394  0.77834481  0.41588000  1
  Sn  Sn7  1  0.17943284  0.82060136  0.25001022  1
  Sn  Sn8  1  0.82057295  0.17939659  0.25001126  1
  Sn  Sn9  1  0.77833562  0.34189893  0.58409208  1
  Sn  Sn10  1  0.77838428  0.65808807  0.08413975  1
  Sn  Sn11  1  0.17942161  0.17941822  0.74999666  1
  Ru  Ru0  1  0.50000146  0.99999553  0.12387012  1
  Ru  Ru1  1  0.00000014  0.49999986  0.87614155  1
  Ru  Ru2  1  -0.00000639  0.00000120  0.49997202  1
  Ru  Ru3  1  0.99999482  0.50000130  0.37612646  1
  Ru  Ru4  1  0.49999717  0.99999819  0.62383923  1
  Ru  Ru5  1  -0.00000470  0.99999707  0.00001430  1
  Ru  Ru6  1  0.49999439  0.49998831  0.25000729  1
  Ru  Ru7  1  0.49999955  0.49999784  0.74997380  1
loop_
_geom_bond_atom_site_label_1
_geom_bond_atom_site_label_2
_geom_bond_distance
_geom_bond_site_symmetry_2
Ru0 Sn7 2.603670 1_555
Ru0 Sn8 2.603710 1_565
Ru0 Sn2 2.675774 1_554
Ru0 Sn3 2.675793 1_564
Ru0 Sn10 2.764099 1_555
Ru0 Sn0 2.764132 1_565
Ru1 Sn5 2.603746 1_455
Ru1 Sn11 2.603753 1_555
Ru1 Sn0 2.675756 1_556
Ru1 Sn10 2.675774 1_456
Ru1 Sn3 2.763960 1_455
Ru1 Sn2 2.764051 1_555
Ru2 Sn9 2.663734 1_455
Ru2 Sn6 2.663749 1_445
Ru2 Sn4 2.663784 1_545
Ru2 Sn1 2.663792 1_555
Ru2 Sn8 2.949302 1_455
Ru2 Sn7 2.949364 1_545
Ru2 Sn5 2.949934 1_445
Ru2 Sn11 2.949948 1_555
Ru3 Sn8 2.603797 1_555
Ru3 Sn7 2.603819 1_655
Ru3 Sn9 2.675735 1_555
Ru3 Sn4 2.675755 1_655
Ru3 Sn6 2.763949 1_555
Ru3 Sn1 2.763981 1_655
Ru4 Sn11 2.603781 1_565
Ru4 Sn5 2.603811 1_555
Ru4 Sn1 2.675585 1_565
Ru4 Sn6 2.675612 1_555
Ru4 Sn4 2.763997 1_555
Ru4 Sn9 2.764036 1_565
Ru5 Sn10 2.663751 1_455
Ru5 Sn0 2.663824 1_565
Ru5 Sn3 2.663829 1_464
Ru5 Sn2 2.663872 1_554
Ru5 Sn8 2.949621 1_465
Ru5 Sn7 2.949639 1_555
Ru5 Sn5 2.949837 1_454
Ru5 Sn11 2.949890 1_564
Ru6 Sn1 2.585289 1_555
Ru6 Sn6 2.585397 1_555
Ru6 Sn0 2.585402 1_555
Ru6 Sn10 2.585499 1_555
Ru6 Sn8 2.812893 1_555
Ru6 Sn7 2.812912 1_555
Ru7 Sn9 2.585308 1_555
Ru7 Sn4 2.585324 1_555
Ru7 Sn3 2.585512 1_555
Ru7 Sn2 2.585519 1_555
Ru7 Sn11 2.812962 1_555
Ru7 Sn5 2.812992 1_555
