# generated using pymatgen
data_YbZr7Si7PO32
_symmetry_space_group_name_H-M   'P 1'
_cell_length_a   5.64581852
_cell_length_b   5.64581852
_cell_length_c   38.19079000
_cell_angle_alpha   90.00000000
_cell_angle_beta   90.00000000
_cell_angle_gamma   115.41470439
_symmetry_Int_Tables_number   1
_chemical_formula_structural   YbZr7Si7PO32
_chemical_formula_sum   'Yb2 Zr14 Si14 P2 O64'
_cell_volume   1099.53360629
_cell_formula_units_Z   2
loop_
 _symmetry_equiv_pos_site_id
 _symmetry_equiv_pos_as_xyz
  1  'x, y, z'
loop_
 _atom_site_type_symbol
 _atom_site_label
 _atom_site_symmetry_multiplicity
 _atom_site_fract_x
 _atom_site_fract_y
 _atom_site_fract_z
 _atom_site_occupancy
  Yb  Yb0  1  0.00000000  0.50000000  0.56310600  1
  Yb  Yb1  1  0.50000000  0.00000000  0.43689400  1
  Zr  Zr0  1  0.50000000  0.50000000  0.50000000  1
  Zr  Zr1  1  0.00000000  0.00000000  0.37515200  1
  Zr  Zr2  1  0.50000000  0.50000000  0.25007000  1
  Zr  Zr3  1  0.00000000  0.00000000  0.12499100  1
  Zr  Zr4  1  0.50000000  0.50000000  0.00000000  1
  Zr  Zr5  1  0.00000000  0.00000000  0.87500900  1
  Zr  Zr6  1  0.00000000  0.50000000  0.31234200  1
  Zr  Zr7  1  0.50000000  0.50000000  0.74993000  1
  Zr  Zr8  1  0.50000000  0.00000000  0.18749600  1
  Zr  Zr9  1  0.00000000  0.00000000  0.62484800  1
  Zr  Zr10  1  0.00000000  0.50000000  0.06249300  1
  Zr  Zr11  1  0.50000000  0.00000000  0.93750700  1
  Zr  Zr12  1  0.00000000  0.50000000  0.81250400  1
  Zr  Zr13  1  0.50000000  0.00000000  0.68765800  1
  Si  Si0  1  0.00000000  0.00000000  0.50000000  1
  Si  Si1  1  0.50000000  0.00000000  0.31266900  1
  Si  Si2  1  0.50000000  0.50000000  0.37374300  1
  Si  Si3  1  0.00000000  0.50000000  0.18745300  1
  Si  Si4  1  0.00000000  0.00000000  0.24988900  1
  Si  Si5  1  0.50000000  0.00000000  0.06247900  1
  Si  Si6  1  0.50000000  0.50000000  0.12495900  1
  Si  Si7  1  0.00000000  0.50000000  0.93752100  1
  Si  Si8  1  0.00000000  0.00000000  0.00000000  1
  Si  Si9  1  0.50000000  0.00000000  0.81254700  1
  Si  Si10  1  0.50000000  0.50000000  0.87504100  1
  Si  Si11  1  0.00000000  0.50000000  0.68733100  1
  Si  Si12  1  0.00000000  0.00000000  0.75011100  1
  Si  Si13  1  0.50000000  0.50000000  0.62625700  1
  P  P0  1  0.50000000  0.00000000  0.56229200  1
  P  P1  1  0.00000000  0.50000000  0.43770800  1
  O  O0  1  0.74643600  0.06444500  0.58519200  1
  O  O1  1  0.43587600  0.75291000  0.53951700  1
  O  O2  1  0.56412400  0.24709000  0.53951700  1
  O  O3  1  0.24709000  0.56412400  0.46048300  1
  O  O4  1  0.25356400  0.93555500  0.58519200  1
  O  O5  1  0.93555500  0.25356400  0.41480800  1
  O  O6  1  0.27269000  0.09482100  0.47779900  1
  O  O7  1  0.06444500  0.74643600  0.41480800  1
  O  O8  1  0.77209500  0.08773700  0.33540200  1
  O  O9  1  0.90517900  0.72731000  0.52220100  1
  O  O10  1  0.75291000  0.43587600  0.46048300  1
  O  O11  1  0.09482100  0.27269000  0.52220100  1
  O  O12  1  0.41222500  0.72988500  0.28961100  1
  O  O13  1  0.77196100  0.58356800  0.35098400  1
  O  O14  1  0.58777500  0.27011500  0.28961100  1
  O  O15  1  0.27153200  0.58863400  0.21033600  1
  O  O16  1  0.72731000  0.90517900  0.47779900  1
  O  O17  1  0.39983100  0.22771000  0.39602500  1
  O  O18  1  0.22790500  0.91226300  0.33540200  1
  O  O19  1  0.60016900  0.77229000  0.39602500  1
  O  O20  1  0.91141600  0.22881600  0.16465800  1
  O  O21  1  0.27124500  0.08853100  0.22710600  1
  O  O22  1  0.08858400  0.77118400  0.16465800  1
  O  O23  1  0.77143300  0.08865700  0.08533900  1
  O  O24  1  0.22803900  0.41643200  0.35098400  1
  O  O25  1  0.91124000  0.72880400  0.27271300  1
  O  O26  1  0.72846800  0.41136600  0.21033600  1
  O  O27  1  0.08876000  0.27119600  0.27271300  1
  O  O28  1  0.41136000  0.72867300  0.03966200  1
  O  O29  1  0.77127300  0.58862500  0.10216100  1
  O  O30  1  0.58864000  0.27132700  0.03966200  1
  O  O31  1  0.27132700  0.58864000  0.96033800  1
  O  O32  1  0.72875500  0.91146900  0.22710600  1
  O  O33  1  0.41133300  0.22852900  0.14783400  1
  O  O34  1  0.22856700  0.91134300  0.08533900  1
  O  O35  1  0.58866700  0.77147100  0.14783400  1
  O  O36  1  0.91134300  0.22856700  0.91466100  1
  O  O37  1  0.27137900  0.08864700  0.97716100  1
  O  O38  1  0.08865700  0.77143300  0.91466100  1
  O  O39  1  0.77118400  0.08858400  0.83534200  1
  O  O40  1  0.22872700  0.41137500  0.10216100  1
  O  O41  1  0.91135300  0.72862100  0.02283900  1
  O  O42  1  0.72867300  0.41136000  0.96033800  1
  O  O43  1  0.08864700  0.27137900  0.02283900  1
  O  O44  1  0.41136600  0.72846800  0.78966400  1
  O  O45  1  0.77147100  0.58866700  0.85216600  1
  O  O46  1  0.58863400  0.27153200  0.78966400  1
  O  O47  1  0.27011500  0.58777500  0.71038900  1
  O  O48  1  0.72862100  0.91135300  0.97716100  1
  O  O49  1  0.41137500  0.22872700  0.89783900  1
  O  O50  1  0.22881600  0.91141600  0.83534200  1
  O  O51  1  0.58862500  0.77127300  0.89783900  1
  O  O52  1  0.91226300  0.22790500  0.66459800  1
  O  O53  1  0.27119600  0.08876000  0.72728700  1
  O  O54  1  0.08773700  0.77209500  0.66459800  1
  O  O55  1  0.22852900  0.41133300  0.85216600  1
  O  O56  1  0.91146900  0.72875500  0.77289400  1
  O  O57  1  0.72988500  0.41222500  0.71038900  1
  O  O58  1  0.08853100  0.27124500  0.77289400  1
  O  O59  1  0.77229000  0.60016900  0.60397500  1
  O  O60  1  0.72880400  0.91124000  0.72728700  1
  O  O61  1  0.41643200  0.22803900  0.64901600  1
  O  O62  1  0.58356800  0.77196100  0.64901600  1
  O  O63  1  0.22771000  0.39983100  0.60397500  1
loop_
_geom_bond_atom_site_label_1
_geom_bond_atom_site_label_2
_geom_bond_distance
_geom_bond_site_symmetry_2
O0 P0 1.548725 1_555
O0 Zr9 2.218686 1_655
O0 Yb0 2.405461 1_655
O1 P0 1.549261 1_565
O1 Zr0 2.211621 1_555
O1 Yb0 2.426995 1_555
O2 P0 1.549261 1_555
O2 Zr0 2.211621 1_555
O2 Yb0 2.426995 1_655
O3 P1 1.549261 1_555
O3 Zr0 2.211621 1_555
O3 Yb1 2.426995 1_565
O4 P0 1.548725 1_565
O4 Zr9 2.218686 1_565
O4 Yb0 2.405461 1_555
O5 P1 1.548725 1_655
O5 Zr1 2.218686 1_655
O5 Yb1 2.405461 1_555
O6 Si0 1.633490 1_555
O6 Yb1 2.227944 1_555
O6 Zr0 2.253661 1_555
O7 P1 1.548725 1_555
O7 Zr1 2.218686 1_565
O7 Yb1 2.405461 1_565
O8 Si1 1.644956 1_555
O8 Zr1 2.180056 1_655
O8 Zr6 2.297421 1_655
O9 Si0 1.633490 1_665
O9 Yb0 2.227944 1_655
O9 Zr0 2.253661 1_555
O10 P1 1.549261 1_655
O10 Zr0 2.211621 1_555
O10 Yb1 2.426995 1_555
O11 Si0 1.633490 1_555
O11 Yb0 2.227944 1_555
O11 Zr0 2.253661 1_555
O12 Si1 1.642575 1_565
O12 Zr2 2.182332 1_555
O12 Zr6 2.293898 1_555
O13 Si2 1.647380 1_555
O13 Zr6 2.139966 1_655
O13 Zr1 2.332170 1_665
O14 Si1 1.642575 1_555
O14 Zr2 2.182332 1_555
O14 Zr6 2.293898 1_655
O15 Si3 1.644943 1_555
O15 Zr2 2.184258 1_555
O15 Zr8 2.290701 1_565
O16 Si0 1.633490 1_665
O16 Yb1 2.227944 1_565
O16 Zr0 2.253661 1_555
O17 Si2 1.631267 1_555
O17 Zr1 2.212016 1_555
O17 Yb1 2.243399 1_555
O18 Si1 1.644956 1_565
O18 Zr1 2.180056 1_565
O18 Zr6 2.297421 1_555
O19 Si2 1.631267 1_555
O19 Zr1 2.212016 1_665
O19 Yb1 2.243399 1_565
O20 Si3 1.641611 1_655
O20 Zr3 2.183700 1_655
O20 Zr8 2.291142 1_555
O21 Si4 1.641673 1_555
O21 Zr8 2.181808 1_555
O21 Zr2 2.293165 1_555
O22 Si3 1.641611 1_555
O22 Zr3 2.183700 1_565
O22 Zr8 2.291142 1_565
O23 Si5 1.644016 1_555
O23 Zr3 2.182531 1_655
O23 Zr10 2.290760 1_655
O24 Si2 1.647380 1_555
O24 Zr6 2.139966 1_555
O24 Zr1 2.332170 1_555
O25 Si4 1.642158 1_665
O25 Zr6 2.183127 1_655
O25 Zr2 2.287541 1_555
O26 Si3 1.644943 1_655
O26 Zr2 2.184258 1_555
O26 Zr8 2.290701 1_555
O27 Si4 1.642158 1_555
O27 Zr6 2.183127 1_555
O27 Zr2 2.287541 1_555
O28 Si5 1.642673 1_565
O28 Zr4 2.183163 1_555
O28 Zr10 2.290693 1_555
O29 Si6 1.642052 1_555
O29 Zr10 2.183491 1_655
O29 Zr3 2.290783 1_665
O30 Si5 1.642673 1_555
O30 Zr4 2.183163 1_555
O30 Zr10 2.290693 1_655
O31 Si7 1.642673 1_555
O31 Zr4 2.183163 1_556
O31 Zr11 2.290693 1_565
O32 Si4 1.641673 1_665
O32 Zr8 2.181808 1_565
O32 Zr2 2.293165 1_555
O33 Si6 1.644486 1_555
O33 Zr8 2.182676 1_555
O33 Zr3 2.290645 1_555
O34 Si5 1.644016 1_565
O34 Zr3 2.182531 1_565
O34 Zr10 2.290760 1_555
O35 Si6 1.644486 1_555
O35 Zr8 2.182676 1_565
O35 Zr3 2.290645 1_665
O36 Si7 1.644016 1_655
O36 Zr5 2.182531 1_655
O36 Zr11 2.290760 1_555
O37 Si8 1.643351 1_556
O37 Zr11 2.182767 1_555
O37 Zr4 2.290741 1_556
O38 Si7 1.644016 1_555
O38 Zr5 2.182531 1_565
O38 Zr11 2.290760 1_565
O39 Si9 1.641611 1_555
O39 Zr5 2.183700 1_655
O39 Zr12 2.291142 1_655
O40 Si6 1.642052 1_555
O40 Zr10 2.183491 1_555
O40 Zr3 2.290783 1_555
O41 Si8 1.643351 1_665
O41 Zr10 2.182767 1_655
O41 Zr4 2.290741 1_555
O42 Si7 1.642673 1_655
O42 Zr4 2.183163 1_556
O42 Zr11 2.290693 1_555
O43 Si8 1.643351 1_555
O43 Zr10 2.182767 1_555
O43 Zr4 2.290741 1_555
O44 Si9 1.644943 1_565
O44 Zr7 2.184258 1_555
O44 Zr12 2.290701 1_555
O45 Si10 1.644486 1_555
O45 Zr12 2.182676 1_655
O45 Zr5 2.290645 1_665
O46 Si9 1.644943 1_555
O46 Zr7 2.184258 1_555
O46 Zr12 2.290701 1_655
O47 Si11 1.642575 1_555
O47 Zr7 2.182332 1_555
O47 Zr13 2.293898 1_565
O48 Si8 1.643351 1_666
O48 Zr11 2.182767 1_565
O48 Zr4 2.290741 1_556
O49 Si10 1.642052 1_555
O49 Zr11 2.183491 1_555
O49 Zr5 2.290783 1_555
O50 Si9 1.641611 1_565
O50 Zr5 2.183700 1_565
O50 Zr12 2.291142 1_555
O51 Si10 1.642052 1_555
O51 Zr11 2.183491 1_565
O51 Zr5 2.290783 1_665
O52 Si11 1.644956 1_655
O52 Zr9 2.180056 1_655
O52 Zr13 2.297421 1_555
O53 Si12 1.642158 1_555
O53 Zr13 2.183127 1_555
O53 Zr7 2.287541 1_555
O54 Si11 1.644956 1_555
O54 Zr9 2.180056 1_565
O54 Zr13 2.297421 1_565
O55 Si10 1.644486 1_555
O55 Zr12 2.182676 1_555
O55 Zr5 2.290645 1_555
O56 Si12 1.641673 1_665
O56 Zr12 2.181808 1_655
O56 Zr7 2.293165 1_555
O57 Si11 1.642575 1_655
O57 Zr7 2.182332 1_555
O57 Zr13 2.293898 1_555
O58 Si12 1.641673 1_555
O58 Zr12 2.181808 1_555
O58 Zr7 2.293165 1_555
O59 Si13 1.631267 1_555
O59 Zr9 2.212016 1_665
O59 Yb0 2.243399 1_655
O60 Si12 1.642158 1_665
O60 Zr13 2.183127 1_565
O60 Zr7 2.287541 1_555
O61 Si13 1.647380 1_555
O61 Zr13 2.139966 1_555
O61 Zr9 2.332170 1_555
O62 Si13 1.647380 1_555
O62 Zr13 2.139966 1_565
O62 Zr9 2.332170 1_665
O63 Si13 1.631267 1_555
O63 Zr9 2.212016 1_555
O63 Yb0 2.243399 1_555
