# generated using pymatgen
data_Bi12Rh12O41
_symmetry_space_group_name_H-M   'P 1'
_cell_length_a   7.33250324
_cell_length_b   7.33250348
_cell_length_c   65.86529396
_cell_angle_alpha   59.93522451
_cell_angle_beta   59.93522342
_cell_angle_gamma   59.99953665
_symmetry_Int_Tables_number   1
_chemical_formula_structural   Bi12Rh12O41
_chemical_formula_sum   'Bi36 Rh36 O123'
_cell_volume   2501.60509120
_cell_formula_units_Z   3
loop_
 _symmetry_equiv_pos_site_id
 _symmetry_equiv_pos_as_xyz
  1  'x, y, z'
loop_
 _atom_site_type_symbol
 _atom_site_label
 _atom_site_symmetry_multiplicity
 _atom_site_fract_x
 _atom_site_fract_y
 _atom_site_fract_z
 _atom_site_occupancy
  Bi  Bi0  1  0.98881878  0.50085781  0.05660711  1
  Bi  Bi1  1  0.50017071  0.50017071  0.99994211  1
  Bi  Bi2  1  0.50085697  0.50085697  0.05660657  1
  Bi  Bi3  1  0.00393100  0.50217314  0.16574664  1
  Bi  Bi4  1  0.50085781  0.98881878  0.05660711  1
  Bi  Bi5  1  0.50818927  0.50818927  0.10838033  1
  Bi  Bi6  1  0.50218033  0.50218033  0.16574673  1
  Bi  Bi7  1  0.00031952  0.50023934  0.27768662  1
  Bi  Bi8  1  0.50217314  0.00393100  0.16574664  1
  Bi  Bi9  1  0.50099804  0.50099804  0.22188933  1
  Bi  Bi10  1  0.50023233  0.50023233  0.27768539  1
  Bi  Bi11  1  0.50023934  0.00031952  0.27768662  1
  Bi  Bi12  1  0.50018777  0.50018777  0.33327055  1
  Bi  Bi13  1  0.50012400  0.50012400  0.38885063  1
  Bi  Bi14  1  0.50012426  0.00009518  0.38885065  1
  Bi  Bi15  1  0.50005554  0.50005554  0.44442470  1
  Bi  Bi16  1  0.00009518  0.50012426  0.38885065  1
  Bi  Bi17  1  0.49985869  0.49985869  0.50003495  1
  Bi  Bi18  1  0.49985665  -0.00000750  0.50003465  1
  Bi  Bi19  1  0.49987253  0.49987253  0.55559944  1
  Bi  Bi20  1  -0.00000750  0.49985665  0.50003465  1
  Bi  Bi21  1  0.49980600  0.49980600  0.61118920  1
  Bi  Bi22  1  0.99589886  0.49779760  0.72316787  1
  Bi  Bi23  1  0.49980201  0.99968812  0.61118973  1
  Bi  Bi24  1  0.49779760  0.99589886  0.72316787  1
  Bi  Bi25  1  0.49903650  0.49903650  0.66698825  1
  Bi  Bi26  1  0.99968812  0.49980201  0.61118973  1
  Bi  Bi27  1  0.49780262  0.49780262  0.72316753  1
  Bi  Bi28  1  0.00860064  0.49697445  0.83305001  1
  Bi  Bi29  1  0.49135473  0.49135473  0.78065965  1
  Bi  Bi30  1  0.49697500  0.49697500  0.83304942  1
  Bi  Bi31  1  0.01218365  0.49903461  0.94330527  1
  Bi  Bi32  1  0.49710141  0.49710141  0.88985782  1
  Bi  Bi33  1  0.49697445  0.00860064  0.83305001  1
  Bi  Bi34  1  0.49904271  0.49904271  0.94330311  1
  Bi  Bi35  1  0.49903461  0.01218365  0.94330527  1
  Rh  Rh0  1  -0.00006395  -0.00006395  0.00008461  1
  Rh  Rh1  1  -0.00006683  0.49937556  0.00008484  1
  Rh  Rh2  1  0.49937556  -0.00006683  0.00008484  1
  Rh  Rh3  1  0.00070228  0.00070228  0.05531989  1
  Rh  Rh4  1  0.00029767  0.49827040  0.11123637  1
  Rh  Rh5  1  0.49827040  0.00029767  0.11123637  1
  Rh  Rh6  1  0.00003682  0.50029238  0.33329232  1
  Rh  Rh7  1  0.50029238  0.00003682  0.33329232  1
  Rh  Rh8  1  0.00029206  0.00029206  0.11123666  1
  Rh  Rh9  1  0.49951710  0.00032421  0.22220343  1
  Rh  Rh10  1  0.00032421  0.49951710  0.22220343  1
  Rh  Rh11  1  0.99977089  0.99977089  0.16674490  1
  Rh  Rh12  1  0.00014685  0.50014386  0.44439719  1
  Rh  Rh13  1  0.00004227  0.00004227  0.33329034  1
  Rh  Rh14  1  0.00033237  0.00033237  0.22220241  1
  Rh  Rh15  1  0.00019994  0.00019994  0.27770962  1
  Rh  Rh16  1  0.50014386  0.00014685  0.44439719  1
  Rh  Rh17  1  0.00029220  0.00029220  0.38879379  1
  Rh  Rh18  1  0.00011377  0.00011377  0.72218457  1
  Rh  Rh19  1  0.50051103  0.99954226  0.66671179  1
  Rh  Rh20  1  0.00014138  0.00014138  0.44439680  1
  Rh  Rh21  1  0.49984200  0.99973259  0.55563122  1
  Rh  Rh22  1  0.99973259  0.49984200  0.55563122  1
  Rh  Rh23  1  0.00007167  0.00007167  0.49997623  1
  Rh  Rh24  1  0.99954528  0.99954528  0.66671227  1
  Rh  Rh25  1  0.99973530  0.99973530  0.55563120  1
  Rh  Rh26  1  0.99954226  0.50051103  0.66671179  1
  Rh  Rh27  1  0.99969857  0.99969857  0.61121003  1
  Rh  Rh28  1  0.50229417  0.99918465  0.77770389  1
  Rh  Rh29  1  0.99918465  0.50229417  0.77770389  1
  Rh  Rh30  1  0.99918161  0.99918161  0.77770528  1
  Rh  Rh31  1  0.50451403  0.99920351  0.88856413  1
  Rh  Rh32  1  0.99863294  0.99863294  0.94489933  1
  Rh  Rh33  1  0.99920351  0.50451403  0.88856413  1
  Rh  Rh34  1  0.99892982  0.99892982  0.83368943  1
  Rh  Rh35  1  0.99920663  0.99920663  0.88856453  1
  O  O0  1  0.08269271  0.66170063  0.01043410  1
  O  O1  1  0.08762185  0.08762185  0.07374754  1
  O  O2  1  0.66170063  0.08269271  0.01043410  1
  O  O3  1  0.36473804  0.36473804  0.04508729  1
  O  O4  1  0.08762480  0.66103040  0.07374739  1
  O  O5  1  0.33128801  0.33128801  0.10239442  1
  O  O6  1  0.08771977  0.66596669  0.12003842  1
  O  O7  1  0.33000722  0.91819363  0.03706696  1
  O  O8  1  0.08343131  0.08343131  0.18516095  1
  O  O9  1  0.66170165  0.66170165  0.01043416  1
  O  O10  1  0.66103040  0.08762480  0.07374739  1
  O  O11  1  0.66596669  0.08771977  0.12003842  1
  O  O12  1  0.38908262  0.38908262  0.14808393  1
  O  O13  1  0.91819363  0.33000722  0.03706696  1
  O  O14  1  0.33128731  0.91586632  0.10239447  1
  O  O15  1  0.08343543  0.66669291  0.18516059  1
  O  O16  1  0.33212297  0.33212297  0.21308300  1
  O  O17  1  0.08312669  0.66784889  0.23124240  1
  O  O18  1  0.33428930  0.91578930  0.14823674  1
  O  O19  1  0.08285647  0.08285647  0.29632915  1
  O  O20  1  0.66669291  0.08343543  0.18516059  1
  O  O21  1  0.91586632  0.33128731  0.10239447  1
  O  O22  1  0.66596731  0.66596731  0.12003854  1
  O  O23  1  0.91819588  0.91819588  0.03706657  1
  O  O24  1  0.66784889  0.08312669  0.23124240  1
  O  O25  1  0.33212362  0.91800319  0.21308322  1
  O  O26  1  0.91578930  0.33428930  0.14823674  1
  O  O27  1  0.62814166  0.62814166  0.17950815  1
  O  O28  1  0.37587485  0.37587485  0.26359802  1
  O  O29  1  0.08285675  0.66732370  0.29632906  1
  O  O30  1  0.33243232  0.33243232  0.32414417  1
  O  O31  1  0.08296844  0.08296844  0.40741610  1
  O  O32  1  0.33326910  0.91756972  0.25906596  1
  O  O33  1  0.08260848  0.66807058  0.34236048  1
  O  O34  1  0.66732370  0.08285675  0.29632906  1
  O  O35  1  0.91800319  0.33212362  0.21308322  1
  O  O36  1  0.91579387  0.91579387  0.14823631  1
  O  O37  1  0.66784354  0.66784354  0.23124276  1
  O  O38  1  0.66807058  0.08260848  0.34236048  1
  O  O39  1  0.91756972  0.33326910  0.25906596  1
  O  O40  1  0.33242945  0.91783533  0.32414445  1
  O  O41  1  0.08297323  0.66732324  0.40741516  1
  O  O42  1  0.62523430  0.62523430  0.29158917  1
  O  O43  1  0.37529232  0.37529232  0.37490199  1
  O  O44  1  0.33260816  0.33260816  0.43522156  1
  O  O45  1  0.08263452  0.08263452  0.51860440  1
  O  O46  1  0.08268556  0.66781822  0.45352212  1
  O  O47  1  0.33319203  0.91772040  0.37015120  1
  O  O48  1  0.66732324  0.08297323  0.40741516  1
  O  O49  1  0.91783533  0.33242945  0.32414445  1
  O  O50  1  0.91757082  0.91757082  0.25906559  1
  O  O51  1  0.66807235  0.66807235  0.34236067  1
  O  O52  1  0.66781822  0.08268556  0.45352212  1
  O  O53  1  0.62525596  0.62525596  0.40269245  1
  O  O54  1  0.08263365  0.66729827  0.51860314  1
  O  O55  1  0.91772040  0.33319203  0.37015120  1
  O  O56  1  0.37507750  0.37507750  0.48608446  1
  O  O57  1  0.33259812  0.91779433  0.43522190  1
  O  O58  1  0.08233082  0.08233082  0.62980456  1
  O  O59  1  0.08253027  0.66730137  0.56476421  1
  O  O60  1  0.33234519  0.33234519  0.54646036  1
  O  O61  1  0.33280280  0.91743618  0.48136999  1
  O  O62  1  0.66729827  0.08263365  0.51860314  1
  O  O63  1  0.91779433  0.33259812  0.43522190  1
  O  O64  1  0.66780681  0.66780681  0.45352197  1
  O  O65  1  0.91772483  0.91772483  0.37015111  1
  O  O66  1  0.66730137  0.08253027  0.56476421  1
  O  O67  1  0.91743618  0.33280280  0.48136999  1
  O  O68  1  0.62491708  0.62491708  0.51391736  1
  O  O69  1  0.37472166  0.37472166  0.59731479  1
  O  O70  1  0.08233582  0.66709683  0.62980421  1
  O  O71  1  0.33233586  0.91716822  0.54646016  1
  O  O72  1  0.33209509  0.33209509  0.65763044  1
  O  O73  1  0.33224851  0.91707075  0.59262262  1
  O  O74  1  0.08192176  0.66809305  0.67576728  1
  O  O75  1  0.08396022  0.08396022  0.74075817  1
  O  O76  1  0.66709683  0.08233582  0.62980421  1
  O  O77  1  0.91716822  0.33233586  0.54646016  1
  O  O78  1  0.91743544  0.91743544  0.48136867  1
  O  O79  1  0.66729356  0.66729356  0.56476432  1
  O  O80  1  0.66809305  0.08192176  0.67576728  1
  O  O81  1  0.91707075  0.33224851  0.59262262  1
  O  O82  1  0.37194898  0.37194898  0.70935043  1
  O  O83  1  0.33209470  0.91713323  0.65763081  1
  O  O84  1  0.62420682  0.62420682  0.62526476  1
  O  O85  1  0.08396291  0.66525776  0.74075725  1
  O  O86  1  0.08310414  0.66860650  0.78663191  1
  O  O87  1  0.33374391  0.33374391  0.76895208  1
  O  O88  1  0.08244407  0.08244407  0.85184811  1
  O  O89  1  0.33338608  0.91665074  0.70370118  1
  O  O90  1  0.91713323  0.33209470  0.65763081  1
  O  O91  1  0.66525776  0.08396291  0.74075725  1
  O  O92  1  0.91707462  0.91707462  0.59262159  1
  O  O93  1  0.66808621  0.66808621  0.67576737  1
  O  O94  1  0.66860650  0.08310414  0.78663191  1
  O  O95  1  0.91665074  0.33338608  0.70370118  1
  O  O96  1  0.61082494  0.61082494  0.74083625  1
  O  O97  1  0.08244547  0.66847813  0.85184793  1
  O  O98  1  0.33373668  0.91194636  0.76895225  1
  O  O99  1  0.33951577  0.33951577  0.87888347  1
  O  O100  1  0.08279314  0.66842507  0.89781831  1
  O  O101  1  0.08099194  0.08099194  0.96318596  1
  O  O102  1  0.34003719  0.91076688  0.81538076  1
  O  O103  1  0.66847813  0.08244547  0.85184793  1
  O  O104  1  0.66860360  0.66860360  0.78663196  1
  O  O105  1  0.91194636  0.33373668  0.76895225  1
  O  O106  1  0.91665308  0.91665308  0.70370065  1
  O  O107  1  0.66842507  0.08279314  0.89781831  1
  O  O108  1  0.62551359  0.62551359  0.84705022  1
  O  O109  1  0.91076688  0.34003719  0.81538076  1
  O  O110  1  0.33951543  0.91101741  0.87888349  1
  O  O111  1  0.08098897  0.66934412  0.96318661  1
  O  O112  1  0.33701557  0.33701557  0.98989346  1
  O  O113  1  0.33833228  0.91224909  0.92635178  1
  O  O114  1  0.66934412  0.08098897  0.96318661  1
  O  O115  1  0.91101741  0.33951543  0.87888349  1
  O  O116  1  0.91077038  0.91077038  0.81537999  1
  O  O117  1  0.66842345  0.66842345  0.89781858  1
  O  O118  1  0.91224909  0.33833228  0.92635178  1
  O  O119  1  0.63432154  0.63432154  0.95522682  1
  O  O120  1  0.33701607  0.91692571  0.98989343  1
  O  O121  1  0.91692571  0.33701607  0.98989343  1
  O  O122  1  0.91224910  0.91224910  0.92635227  1
loop_
_geom_bond_atom_site_label_1
_geom_bond_atom_site_label_2
_geom_bond_distance
_geom_bond_site_symmetry_2
Bi0 O3 2.254292 1_655
Bi0 O1 2.485440 1_655
Bi0 O4 2.485503 1_655
Bi0 O21 2.493751 1_555
Bi0 O0 2.496847 1_655
Bi0 O23 2.534940 1_555
Bi0 O13 2.534966 1_555
Bi1 O119 2.402380 1_555
Bi1 O3 2.425476 1_556
Bi1 O112 2.513650 1_555
Bi1 O121 2.513664 1_555
Bi1 O120 2.513664 1_555
Bi1 O0 2.515131 1_556
Bi1 O2 2.515131 1_556
Bi1 O9 2.515236 1_556
Bi2 O3 2.254273 1_555
Bi2 O4 2.485423 1_555
Bi2 O10 2.485423 1_555
Bi2 O5 2.493770 1_555
Bi2 O9 2.496816 1_555
Bi2 O13 2.534922 1_555
Bi2 O7 2.534922 1_555
Bi3 O27 2.249131 1_455
Bi3 O12 2.312900 1_555
Bi3 O6 2.478974 1_555
Bi3 O26 2.495619 1_455
Bi3 O36 2.495627 1_455
Bi3 O8 2.534865 1_555
Bi3 O15 2.534944 1_555
Bi3 O35 2.568027 1_455
Bi4 O3 2.254292 1_565
Bi4 O1 2.485440 1_565
Bi4 O10 2.485503 1_565
Bi4 O14 2.493751 1_555
Bi4 O2 2.496847 1_565
Bi4 O23 2.534940 1_555
Bi4 O7 2.534966 1_555
Bi5 O12 2.133121 1_555
Bi5 O21 2.495565 1_555
Bi5 O14 2.495565 1_555
Bi5 O5 2.495581 1_555
Bi5 O6 2.526790 1_555
Bi5 O11 2.526790 1_555
Bi5 O22 2.526884 1_555
Bi6 O27 2.249078 1_555
Bi6 O12 2.312985 1_555
Bi6 O22 2.478956 1_555
Bi6 O26 2.495560 1_555
Bi6 O18 2.495560 1_555
Bi6 O15 2.534875 1_555
Bi6 O20 2.534875 1_555
Bi6 O16 2.568017 1_555
Bi7 O42 2.244882 1_455
Bi7 O28 2.247701 1_555
Bi7 O17 2.520956 1_555
Bi7 O49 2.522009 1_455
Bi7 O39 2.522755 1_455
Bi7 O50 2.522880 1_455
Bi7 O19 2.523389 1_555
Bi7 O29 2.523552 1_555
Bi8 O27 2.249131 1_545
Bi8 O12 2.312900 1_555
Bi8 O11 2.478974 1_555
Bi8 O18 2.495619 1_545
Bi8 O36 2.495627 1_545
Bi8 O8 2.534864 1_555
Bi8 O20 2.534944 1_555
Bi8 O25 2.568027 1_545
Bi9 O28 2.240847 1_555
Bi9 O27 2.276977 1_555
Bi9 O35 2.524985 1_555
Bi9 O25 2.524985 1_555
Bi9 O16 2.525023 1_555
Bi9 O17 2.525834 1_555
Bi9 O24 2.525834 1_555
Bi9 O37 2.525863 1_555
Bi10 O42 2.245228 1_555
Bi10 O28 2.247408 1_555
Bi10 O37 2.520901 1_555
Bi10 O30 2.522014 1_555
Bi10 O39 2.522870 1_555
Bi10 O32 2.522870 1_555
Bi10 O29 2.523384 1_555
Bi10 O34 2.523384 1_555
Bi11 O42 2.244882 1_545
Bi11 O28 2.247701 1_555
Bi11 O24 2.520956 1_555
Bi11 O40 2.522009 1_545
Bi11 O32 2.522755 1_545
Bi11 O50 2.522880 1_545
Bi11 O19 2.523389 1_555
Bi11 O34 2.523552 1_555
Bi12 O43 2.236696 1_555
Bi12 O42 2.239379 1_555
Bi12 O33 2.526158 1_555
Bi12 O38 2.526159 1_555
Bi12 O51 2.526191 1_555
Bi12 O49 2.526284 1_555
Bi12 O40 2.526284 1_555
Bi12 O30 2.526314 1_555
Bi13 O53 2.243453 1_555
Bi13 O43 2.245603 1_555
Bi13 O44 2.517305 1_555
Bi13 O41 2.521649 1_555
Bi13 O48 2.521650 1_555
Bi13 O51 2.523772 1_555
Bi13 O55 2.524866 1_555
Bi13 O47 2.524866 1_555
Bi14 O53 2.243416 1_545
Bi14 O43 2.245550 1_555
Bi14 O57 2.517336 1_545
Bi14 O31 2.521680 1_555
Bi14 O48 2.521721 1_555
Bi14 O38 2.523791 1_555
Bi14 O65 2.524893 1_545
Bi14 O47 2.524932 1_545
Bi15 O56 2.238218 1_555
Bi15 O53 2.242113 1_555
Bi15 O46 2.524792 1_555
Bi15 O52 2.524792 1_555
Bi15 O64 2.524871 1_555
Bi15 O44 2.526149 1_555
Bi15 O63 2.526222 1_555
Bi15 O57 2.526222 1_555
Bi16 O53 2.243416 1_455
Bi16 O43 2.245549 1_555
Bi16 O63 2.517336 1_455
Bi16 O31 2.521680 1_555
Bi16 O41 2.521721 1_555
Bi16 O33 2.523791 1_555
Bi16 O65 2.524893 1_455
Bi16 O55 2.524932 1_455
Bi17 O68 2.244754 1_555
Bi17 O56 2.245098 1_555
Bi17 O60 2.519902 1_555
Bi17 O54 2.522291 1_555
Bi17 O62 2.522291 1_555
Bi17 O67 2.524598 1_555
Bi17 O61 2.524599 1_555
Bi17 O64 2.524870 1_555
Bi18 O68 2.244826 1_545
Bi18 O56 2.244878 1_555
Bi18 O71 2.519895 1_545
Bi18 O62 2.522193 1_555
Bi18 O45 2.522301 1_555
Bi18 O78 2.524590 1_545
Bi18 O61 2.524708 1_545
Bi18 O52 2.524877 1_555
Bi19 O68 2.239417 1_555
Bi19 O69 2.241205 1_555
Bi19 O77 2.523984 1_555
Bi19 O71 2.523984 1_555
Bi19 O79 2.523990 1_555
Bi19 O59 2.524064 1_555
Bi19 O66 2.524064 1_555
Bi19 O60 2.524080 1_555
Bi20 O68 2.244825 1_455
Bi20 O56 2.244878 1_555
Bi20 O77 2.519895 1_455
Bi20 O54 2.522193 1_555
Bi20 O45 2.522301 1_555
Bi20 O78 2.524590 1_455
Bi20 O67 2.524708 1_455
Bi20 O46 2.524877 1_555
Bi21 O69 2.244634 1_555
Bi21 O84 2.247289 1_555
Bi21 O79 2.519830 1_555
Bi21 O72 2.521015 1_555
Bi21 O81 2.522596 1_555
Bi21 O73 2.522596 1_555
Bi21 O70 2.523837 1_555
Bi21 O76 2.523837 1_555
Bi22 O82 2.250678 1_655
Bi22 O96 2.312477 1_555
Bi22 O105 2.483084 1_555
Bi22 O85 2.496941 1_655
Bi22 O75 2.496964 1_655
Bi22 O106 2.535843 1_555
Bi22 O95 2.535902 1_555
Bi22 O74 2.571518 1_655
Bi23 O69 2.244576 1_565
Bi23 O84 2.247257 1_555
Bi23 O66 2.519879 1_565
Bi23 O83 2.521009 1_555
Bi23 O92 2.522641 1_555
Bi23 O73 2.522686 1_555
Bi23 O58 2.523846 1_565
Bi23 O76 2.523886 1_565
Bi24 O82 2.250678 1_565
Bi24 O96 2.312477 1_555
Bi24 O98 2.483084 1_555
Bi24 O91 2.496941 1_565
Bi24 O75 2.496964 1_565
Bi24 O106 2.535843 1_555
Bi24 O89 2.535902 1_555
Bi24 O80 2.571518 1_565
Bi25 O84 2.241642 1_555
Bi25 O82 2.275956 1_555
Bi25 O74 2.525903 1_555
Bi25 O80 2.525903 1_555
Bi25 O93 2.525910 1_555
Bi25 O90 2.527202 1_555
Bi25 O83 2.527202 1_555
Bi25 O72 2.527267 1_555
Bi26 O69 2.244576 1_655
Bi26 O84 2.247257 1_555
Bi26 O59 2.519879 1_655
Bi26 O90 2.521009 1_555
Bi26 O92 2.522642 1_555
Bi26 O81 2.522686 1_555
Bi26 O58 2.523846 1_655
Bi26 O70 2.523886 1_655
Bi27 O82 2.250775 1_555
Bi27 O96 2.312449 1_555
Bi27 O87 2.483094 1_555
Bi27 O85 2.496964 1_555
Bi27 O91 2.496964 1_555
Bi27 O95 2.535806 1_555
Bi27 O89 2.535806 1_555
Bi27 O93 2.571477 1_555
Bi28 O108 2.292819 1_455
Bi28 O115 2.475469 1_455
Bi28 O116 2.489375 1_455
Bi28 O109 2.489396 1_455
Bi28 O88 2.513993 1_555
Bi28 O97 2.514021 1_555
Bi28 O86 2.527537 1_555
Bi29 O96 2.139557 1_555
Bi29 O86 2.499340 1_555
Bi29 O94 2.499340 1_555
Bi29 O104 2.499351 1_555
Bi29 O105 2.527290 1_555
Bi29 O98 2.527290 1_555
Bi29 O87 2.527308 1_555
Bi30 O108 2.292833 1_555
Bi30 O99 2.475492 1_555
Bi30 O109 2.489345 1_555
Bi30 O102 2.489345 1_555
Bi30 O97 2.513989 1_555
Bi30 O103 2.513989 1_555
Bi30 O104 2.527496 1_555
Bi31 O119 2.264805 1_455
Bi31 O100 2.479359 1_555
Bi31 O122 2.484709 1_455
Bi31 O118 2.484765 1_455
Bi31 O121 2.518909 1_455
Bi31 O101 2.541445 1_555
Bi31 O111 2.541510 1_555
Bi32 O108 2.299887 1_555
Bi32 O115 2.490150 1_555
Bi32 O110 2.490150 1_555
Bi32 O99 2.490330 1_555
Bi32 O117 2.515782 1_555
Bi32 O100 2.515867 1_555
Bi32 O107 2.515867 1_555
Bi33 O108 2.292819 1_545
Bi33 O110 2.475469 1_545
Bi33 O116 2.489375 1_545
Bi33 O102 2.489396 1_545
Bi33 O88 2.513992 1_555
Bi33 O103 2.514021 1_555
Bi33 O94 2.527537 1_555
Bi34 O119 2.264881 1_555
Bi34 O117 2.479225 1_555
Bi34 O118 2.484659 1_555
Bi34 O113 2.484659 1_555
Bi34 O112 2.519024 1_555
Bi34 O111 2.541523 1_555
Bi34 O114 2.541523 1_555
Bi35 O119 2.264805 1_545
Bi35 O107 2.479359 1_555
Bi35 O122 2.484709 1_545
Bi35 O113 2.484765 1_545
Bi35 O120 2.518909 1_545
Bi35 O101 2.541445 1_555
Bi35 O114 2.541510 1_555
O0 Rh1 2.049216 1_555
O0 Rh0 2.049243 1_565
O1 Rh8 2.039295 1_555
O1 Rh3 2.059595 1_555
O2 Rh2 2.049216 1_555
O2 Rh0 2.049242 1_655
O4 Rh4 2.039298 1_555
O4 Rh3 2.059474 1_565
O5 Rh4 2.013756 1_555
O5 Rh5 2.013756 1_555
O6 Rh8 2.033096 1_565
O6 Rh4 2.033197 1_555
O7 Rh3 2.000275 1_565
O7 Rh2 2.021241 1_565
O8 Rh14 2.021679 1_555
O8 Rh11 2.022707 1_445
O9 Rh1 2.049211 1_655
O9 Rh2 2.049211 1_565
O10 Rh5 2.039298 1_555
O10 Rh3 2.059474 1_655
O11 Rh8 2.033096 1_655
O11 Rh5 2.033197 1_555
O13 Rh3 2.000275 1_655
O13 Rh1 2.021241 1_655
O14 Rh5 2.013787 1_565
O14 Rh8 2.013794 1_565
O15 Rh10 2.021739 1_555
O15 Rh11 2.022743 1_455
O16 Rh10 2.018580 1_555
O16 Rh9 2.018581 1_555
O17 Rh14 2.023436 1_565
O17 Rh10 2.023469 1_555
O18 Rh5 2.016152 1_565
O18 Rh11 2.031615 1_455
O19 Rh13 2.017532 1_555
O19 Rh15 2.023732 1_555
O20 Rh9 2.021739 1_555
O20 Rh11 2.022743 1_545
O21 Rh4 2.013787 1_655
O21 Rh8 2.013794 1_655
O22 Rh4 2.033136 1_655
O22 Rh5 2.033137 1_565
O23 Rh3 2.000241 1_665
O23 Rh0 2.021229 1_665
O24 Rh14 2.023436 1_655
O24 Rh9 2.023469 1_555
O25 Rh14 2.018537 1_565
O25 Rh9 2.018591 1_565
O26 Rh4 2.016152 1_655
O26 Rh11 2.031615 1_545
O29 Rh6 2.017636 1_555
O29 Rh15 2.023631 1_565
O30 Rh6 2.022397 1_555
O30 Rh7 2.022397 1_555
O31 Rh20 2.018666 1_555
O31 Rh17 2.024115 1_555
O32 Rh9 2.011771 1_565
O32 Rh15 2.024938 1_565
O33 Rh6 2.019956 1_555
O33 Rh13 2.019975 1_565
O34 Rh7 2.017636 1_555
O34 Rh15 2.023631 1_655
O35 Rh14 2.018537 1_655
O35 Rh10 2.018591 1_655
O36 Rh8 2.016144 1_665
O36 Rh11 2.031721 1_555
O37 Rh10 2.023414 1_655
O37 Rh9 2.023414 1_565
O38 Rh7 2.019956 1_555
O38 Rh13 2.019975 1_655
O39 Rh10 2.011771 1_655
O39 Rh15 2.024938 1_655
O40 Rh13 2.022363 1_565
O40 Rh7 2.022424 1_565
O41 Rh12 2.018732 1_555
O41 Rh17 2.024162 1_565
O44 Rh12 2.022390 1_555
O44 Rh16 2.022390 1_555
O45 Rh25 2.021253 1_445
O45 Rh23 2.023213 1_555
O46 Rh20 2.021766 1_565
O46 Rh12 2.021893 1_555
O47 Rh7 2.012548 1_565
O47 Rh17 2.023993 1_565
O48 Rh16 2.018732 1_555
O48 Rh17 2.024162 1_655
O49 Rh13 2.022363 1_655
O49 Rh6 2.022424 1_655
O50 Rh14 2.011809 1_665
O50 Rh15 2.024891 1_665
O51 Rh6 2.019940 1_655
O51 Rh7 2.019940 1_565
O52 Rh20 2.021766 1_655
O52 Rh16 2.021893 1_555
O54 Rh22 2.021323 1_455
O54 Rh23 2.023138 1_565
O55 Rh6 2.012548 1_655
O55 Rh17 2.023993 1_655
O57 Rh20 2.022368 1_565
O57 Rh16 2.022507 1_565
O58 Rh24 2.014409 1_445
O58 Rh27 2.021972 1_445
O59 Rh25 2.022140 1_455
O59 Rh22 2.022292 1_455
O60 Rh22 2.023181 1_455
O60 Rh21 2.023181 1_545
O61 Rh16 2.018457 1_565
O61 Rh23 2.022698 1_565
O62 Rh21 2.021323 1_545
O62 Rh23 2.023138 1_655
O63 Rh20 2.022368 1_655
O63 Rh12 2.022507 1_655
O64 Rh12 2.021870 1_655
O64 Rh16 2.021870 1_565
O65 Rh13 2.012663 1_665
O65 Rh17 2.024129 1_665
O66 Rh25 2.022140 1_545
O66 Rh21 2.022292 1_545
O67 Rh12 2.018457 1_655
O67 Rh23 2.022698 1_655
O70 Rh26 2.014380 1_455
O70 Rh27 2.021863 1_455
O71 Rh25 2.023114 1_455
O71 Rh21 2.023202 1_555
O72 Rh26 2.023906 1_455
O72 Rh19 2.023906 1_545
O73 Rh21 2.019662 1_555
O73 Rh27 2.021510 1_455
O74 Rh24 2.016893 1_455
O74 Rh26 2.016964 1_455
O75 Rh30 2.012439 1_445
O75 Rh18 2.034146 1_555
O76 Rh19 2.014380 1_545
O76 Rh27 2.021863 1_545
O77 Rh25 2.023114 1_545
O77 Rh22 2.023202 1_555
O78 Rh20 2.018412 1_665
O78 Rh23 2.022793 1_665
O79 Rh22 2.022176 1_555
O79 Rh21 2.022176 1_555
O80 Rh24 2.016893 1_545
O80 Rh19 2.016964 1_545
O81 Rh22 2.019662 1_555
O81 Rh27 2.021510 1_545
O83 Rh24 2.023876 1_455
O83 Rh19 2.023938 1_555
O85 Rh29 2.012404 1_455
O85 Rh18 2.034111 1_565
O86 Rh30 2.010670 1_455
O86 Rh29 2.010739 1_455
O87 Rh29 2.035377 1_455
O87 Rh28 2.035377 1_545
O88 Rh35 2.002027 1_445
O88 Rh34 2.005781 1_445
O89 Rh19 2.019035 1_555
O89 Rh18 2.024476 1_565
O90 Rh24 2.023876 1_545
O90 Rh26 2.023938 1_555
O91 Rh28 2.012404 1_545
O91 Rh18 2.034111 1_655
O92 Rh25 2.019619 1_555
O92 Rh27 2.021517 1_555
O93 Rh26 2.016905 1_555
O93 Rh19 2.016905 1_555
O94 Rh30 2.010670 1_545
O94 Rh28 2.010739 1_545
O95 Rh26 2.019035 1_555
O95 Rh18 2.024476 1_655
O97 Rh33 2.001999 1_455
O97 Rh34 2.005722 1_455
O98 Rh30 2.035347 1_455
O98 Rh28 2.035417 1_555
O99 Rh33 2.063185 1_455
O99 Rh31 2.063185 1_545
O100 Rh35 2.009099 1_455
O100 Rh33 2.009158 1_455
O101 Rh32 2.000593 1_445
O101 Rh0 2.017851 1_556
O102 Rh28 2.048224 1_555
O102 Rh34 2.066413 1_455
O103 Rh31 2.001999 1_545
O103 Rh34 2.005722 1_545
O104 Rh29 2.010695 1_555
O104 Rh28 2.010695 1_555
O105 Rh30 2.035347 1_545
O105 Rh29 2.035417 1_555
O106 Rh24 2.018978 1_555
O106 Rh18 2.024536 1_665
O107 Rh35 2.009099 1_545
O107 Rh31 2.009158 1_545
O109 Rh29 2.048224 1_555
O109 Rh34 2.066413 1_545
O110 Rh35 2.063160 1_455
O110 Rh31 2.063201 1_555
O111 Rh32 2.000521 1_455
O111 Rh1 2.017813 1_556
O112 Rh1 2.042732 1_556
O112 Rh2 2.042732 1_556
O113 Rh31 2.057701 1_555
O113 Rh32 2.060733 1_455
O114 Rh32 2.000521 1_545
O114 Rh2 2.017813 1_556
O115 Rh35 2.063160 1_545
O115 Rh33 2.063201 1_555
O116 Rh30 2.048116 1_555
O116 Rh34 2.066430 1_555
O117 Rh33 2.009086 1_555
O117 Rh31 2.009086 1_555
O118 Rh33 2.057701 1_555
O118 Rh32 2.060733 1_545
O120 Rh0 2.042709 1_566
O120 Rh2 2.042797 1_566
O121 Rh0 2.042709 1_656
O121 Rh1 2.042797 1_656
O122 Rh35 2.057706 1_555
O122 Rh32 2.060714 1_555
