# generated using pymatgen
data_La10US16
_symmetry_space_group_name_H-M   'P 1'
_cell_length_a   8.68530400
_cell_length_b   8.68530400
_cell_length_c   8.64536400
_cell_angle_alpha   90.00000000
_cell_angle_beta   90.00000000
_cell_angle_gamma   90.00000000
_symmetry_Int_Tables_number   1
_chemical_formula_structural   La10US16
_chemical_formula_sum   'La10 U1 S16'
_cell_volume   652.15875883
_cell_formula_units_Z   1
loop_
 _symmetry_equiv_pos_site_id
 _symmetry_equiv_pos_as_xyz
  1  'x, y, z'
loop_
 _atom_site_type_symbol
 _atom_site_label
 _atom_site_symmetry_multiplicity
 _atom_site_fract_x
 _atom_site_fract_y
 _atom_site_fract_z
 _atom_site_occupancy
  La  La0  1  0.63221500  0.75535500  0.37949500  1
  La  La1  1  0.24544400  0.87782400  0.13668700  1
  La  La2  1  0.50000000  0.00000000  0.75011700  1
  La  La3  1  0.75455600  0.12217600  0.13668700  1
  La  La4  1  0.12217600  0.24544400  0.86331300  1
  La  La5  1  0.36778500  0.24464500  0.37949500  1
  La  La6  1  0.75535500  0.36778500  0.62050500  1
  La  La7  1  0.00000000  0.50000000  0.24988300  1
  La  La8  1  0.24464500  0.63221500  0.62050500  1
  La  La9  1  0.87782400  0.75455600  0.86331300  1
  U  U0  1  0.50000000  0.50000000  0.00000000  1
  S  S0  1  0.92083900  0.81885200  0.18758700  1
  S  S1  1  0.33217000  0.91914000  0.45738500  1
  S  S2  1  0.57060300  0.81892800  0.04973000  1
  S  S3  1  0.42939700  0.18107200  0.04973000  1
  S  S4  1  0.07916100  0.18114800  0.18758700  1
  S  S5  1  0.66783000  0.08086000  0.45738500  1
  S  S6  1  0.18114800  0.92083900  0.81241300  1
  S  S7  1  0.42434500  0.33029000  0.70687700  1
  S  S8  1  0.81885200  0.07916100  0.81241300  1
  S  S9  1  0.81892800  0.42939700  0.95027000  1
  S  S10  1  0.08086000  0.33217000  0.54261500  1
  S  S11  1  0.91914000  0.66783000  0.54261500  1
  S  S12  1  0.57565500  0.66971000  0.70687700  1
  S  S13  1  0.18107200  0.57060300  0.95027000  1
  S  S14  1  0.66971000  0.42434500  0.29312300  1
  S  S15  1  0.33029000  0.57565500  0.29312300  1
loop_
_geom_bond_atom_site_label_1
_geom_bond_atom_site_label_2
_geom_bond_distance
_geom_bond_site_symmetry_2
La0 S5 2.922616 1_565
La0 S2 2.952808 1_555
La0 S11 2.962574 1_555
La0 S12 2.967396 1_555
La0 S14 2.988113 1_555
La0 S1 3.044366 1_555
La0 S0 3.056270 1_555
La0 S15 3.141661 1_555
La1 S6 2.882854 1_554
La1 S1 2.895372 1_555
La1 S0 2.899033 1_455
La1 S2 2.966883 1_555
La1 S4 3.036412 1_565
La1 S15 3.042989 1_555
La1 S13 3.166992 1_554
La1 S3 3.170911 1_565
La2 S6 2.903780 1_545
La2 S8 2.903780 1_555
La2 S7 2.966609 1_555
La2 S12 2.966609 1_545
La2 S1 3.003797 1_545
La2 S5 3.003797 1_555
La2 S2 3.091725 1_546
La2 S3 3.091725 1_556
La3 S8 2.882854 1_554
La3 S5 2.895372 1_555
La3 S4 2.899033 1_655
La3 S3 2.966883 1_555
La3 S0 3.036412 1_545
La3 S14 3.042989 1_555
La3 S9 3.166992 1_554
La3 S2 3.170911 1_545
La4 S4 2.882854 1_556
La4 S10 2.895372 1_555
La4 S6 2.899033 1_545
La4 S13 2.966883 1_555
La4 S8 3.036412 1_455
La4 S7 3.042989 1_555
La4 S3 3.166992 1_556
La4 S9 3.170911 1_455
La5 S1 2.922616 1_545
La5 S3 2.952808 1_555
La5 S10 2.962574 1_555
La5 S7 2.967396 1_555
La5 S15 2.988113 1_555
La5 S5 3.044366 1_555
La5 S4 3.056270 1_555
La5 S14 3.141661 1_555
La6 S10 2.922616 1_655
La6 S9 2.952808 1_555
La6 S5 2.962574 1_555
La6 S14 2.967396 1_555
La6 S7 2.988113 1_555
La6 S11 3.044366 1_555
La6 S8 3.056270 1_555
La6 S12 3.141661 1_555
La7 S4 2.903780 1_555
La7 S0 2.903780 1_455
La7 S15 2.966609 1_555
La7 S14 2.966609 1_455
La7 S10 3.003797 1_555
La7 S11 3.003797 1_455
La7 S13 3.091725 1_554
La7 S9 3.091725 1_454
La8 S11 2.922616 1_455
La8 S13 2.952808 1_555
La8 S1 2.962574 1_555
La8 S15 2.967396 1_555
La8 S12 2.988113 1_555
La8 S10 3.044366 1_555
La8 S6 3.056270 1_555
La8 S7 3.141661 1_555
La9 S0 2.882854 1_556
La9 S11 2.895372 1_555
La9 S8 2.899033 1_565
La9 S9 2.966883 1_555
La9 S6 3.036412 1_655
La9 S12 3.042989 1_555
La9 S2 3.166992 1_556
La9 S13 3.170911 1_655
S2 U0 2.869441 1_555
S3 U0 2.869441 1_555
S7 U0 3.004385 1_556
S9 U0 2.869441 1_556
S12 U0 3.004385 1_556
S13 U0 2.869441 1_556
S14 U0 3.004385 1_555
S15 U0 3.004385 1_555
