# generated using pymatgen
data_Ba2TlCuHgO5
_symmetry_space_group_name_H-M   'P 1'
_cell_length_a   12.34118020
_cell_length_b   12.34118020
_cell_length_c   12.34118020
_cell_angle_alpha   161.76790656
_cell_angle_beta   161.76790656
_cell_angle_gamma   25.89526092
_symmetry_Int_Tables_number   1
_chemical_formula_structural   Ba2TlCuHgO5
_chemical_formula_sum   'Ba2 Tl1 Cu1 Hg1 O5'
_cell_volume   183.92702438
_cell_formula_units_Z   1
loop_
 _symmetry_equiv_pos_site_id
 _symmetry_equiv_pos_as_xyz
  1  'x, y, z'
loop_
 _atom_site_type_symbol
 _atom_site_label
 _atom_site_symmetry_multiplicity
 _atom_site_fract_x
 _atom_site_fract_y
 _atom_site_fract_z
 _atom_site_occupancy
  Ba  Ba0  1  0.41906500  0.41906500  0.00000000  1
  Ba  Ba1  1  0.58493100  0.58493100  0.00000000  1
  Tl  Tl0  1  0.20078200  0.20078200  0.00000000  1
  Cu  Cu0  1  0.00600400  0.00600400  0.00000000  1
  Hg  Hg0  1  0.79543100  0.79543100  0.00000000  1
  O  O0  1  0.99831900  0.49831900  0.50000000  1
  O  O1  1  0.10863100  0.10863100  0.00000000  1
  O  O2  1  0.71061300  0.71061300  0.00000000  1
  O  O3  1  0.49831900  0.99831900  0.50000000  1
  O  O4  1  0.87892100  0.87892100  0.00000000  1
loop_
_geom_bond_atom_site_label_1
_geom_bond_atom_site_label_2
_geom_bond_distance
_geom_bond_site_symmetry_2
Ba0 O3 2.730860 1_555
Ba0 O0 2.730860 1_555
Ba0 O0 2.730860 1_454
Ba0 O3 2.730860 1_544
Ba0 O4 2.928934 1_455
Ba0 O4 2.928934 1_556
Ba0 O4 2.928934 1_444
Ba0 O4 2.928934 1_545
Ba1 O1 2.823327 1_666
Ba1 O1 2.823327 1_655
Ba1 O1 2.823327 1_565
Ba1 O1 2.823327 1_554
Ba1 O3 2.857234 1_555
Ba1 O0 2.857234 1_555
Ba1 O0 2.857234 1_454
Ba1 O3 2.857234 1_544
Ba1 O2 3.023258 1_555
Cu0 O0 1.963989 1_455
Cu0 O3 1.963989 1_444
Cu0 O0 1.963989 1_444
Cu0 O3 1.963989 1_545
Cu0 O1 2.468674 1_555
Hg0 O4 2.008337 1_555
Hg0 O2 2.040282 1_555
O1 Tl0 2.216676 1_555
O2 Tl0 2.775263 1_565
O2 Tl0 2.775263 1_655
O2 Tl0 2.775263 1_666
O2 Tl0 2.775263 1_554
