# generated using pymatgen
data_MgSiO3
_symmetry_space_group_name_H-M   'P 1'
_cell_length_a   8.48329000
_cell_length_b   4.91301500
_cell_length_c   9.48355728
_cell_angle_alpha   81.78613552
_cell_angle_beta   90.00000000
_cell_angle_gamma   90.00000000
_symmetry_Int_Tables_number   1
_chemical_formula_structural   MgSiO3
_chemical_formula_sum   'Mg8 Si8 O24'
_cell_volume   391.20602871
_cell_formula_units_Z   8
loop_
 _symmetry_equiv_pos_site_id
 _symmetry_equiv_pos_as_xyz
  1  'x, y, z'
loop_
 _atom_site_type_symbol
 _atom_site_label
 _atom_site_symmetry_multiplicity
 _atom_site_fract_x
 _atom_site_fract_y
 _atom_site_fract_z
 _atom_site_occupancy
  Mg  Mg0  1  0.97017800  0.07642000  0.77659100  1
  Mg  Mg1  1  0.84083300  0.40917500  0.27031200  1
  Mg  Mg2  1  0.47017800  0.42358000  0.22340900  1
  Mg  Mg3  1  0.02982200  0.92358000  0.22340900  1
  Mg  Mg4  1  0.15916700  0.59082500  0.72968800  1
  Mg  Mg5  1  0.65916700  0.90917500  0.27031200  1
  Mg  Mg6  1  0.34083300  0.09082500  0.72968800  1
  Mg  Mg7  1  0.52982200  0.57642000  0.77659100  1
  Si  Si0  1  0.34334200  0.80868800  0.44934900  1
  Si  Si1  1  0.83382800  0.51212200  0.99021700  1
  Si  Si2  1  0.16617200  0.48787800  0.00978300  1
  Si  Si3  1  0.84334200  0.69131200  0.55065100  1
  Si  Si4  1  0.65665800  0.19131200  0.55065100  1
  Si  Si5  1  0.15665800  0.30868800  0.44934900  1
  Si  Si6  1  0.66617200  0.01212200  0.99021700  1
  Si  Si7  1  0.33382800  0.98787800  0.00978300  1
  O  O0  1  0.48611700  0.70062700  0.36401900  1
  O  O1  1  0.81603400  0.35370000  0.60280700  1
  O  O2  1  0.15122300  0.26802300  0.62396200  1
  O  O3  1  0.18396600  0.64630000  0.39719300  1
  O  O4  1  0.68396600  0.85370000  0.60280700  1
  O  O5  1  0.30655700  0.65392400  0.10331100  1
  O  O6  1  0.99621100  0.59468500  0.10630100  1
  O  O7  1  0.31603400  0.14630000  0.39719300  1
  O  O8  1  0.69344300  0.34607600  0.89668900  1
  O  O9  1  0.68686300  0.65129100  0.11493800  1
  O  O10  1  0.01388300  0.20062700  0.36401900  1
  O  O11  1  0.80655700  0.84607600  0.89668900  1
  O  O12  1  0.51388300  0.29937300  0.63598100  1
  O  O13  1  0.50378900  0.09468500  0.10630100  1
  O  O14  1  0.65122300  0.23197700  0.37603800  1
  O  O15  1  0.19344300  0.15392400  0.10331100  1
  O  O16  1  0.34877700  0.76802300  0.62396200  1
  O  O17  1  0.18686300  0.84870900  0.88506200  1
  O  O18  1  0.00378900  0.40531500  0.89369900  1
  O  O19  1  0.98611700  0.79937300  0.63598100  1
  O  O20  1  0.31313700  0.34870900  0.88506200  1
  O  O21  1  0.84877700  0.73197700  0.37603800  1
  O  O22  1  0.49621100  0.90531500  0.89369900  1
  O  O23  1  0.81313700  0.15129100  0.11493800  1
loop_
_geom_bond_atom_site_label_1
_geom_bond_atom_site_label_2
_geom_bond_distance
_geom_bond_site_symmetry_2
Mg0 O11 2.033789 1_545
Mg0 O19 2.041514 1_545
Mg0 O18 2.106783 1_655
Mg0 O2 2.225043 1_655
Mg0 O17 2.315156 1_645
Mg0 O1 2.374959 1_555
Mg1 O10 1.932485 1_655
Mg1 O21 1.994845 1_555
Mg1 O14 2.025126 1_555
Mg1 O23 2.089283 1_555
Mg1 O6 2.140638 1_555
Mg1 O9 2.188930 1_555
Mg2 O5 2.033789 1_555
Mg2 O0 2.041514 1_555
Mg2 O13 2.106783 1_555
Mg2 O14 2.225043 1_555
Mg2 O9 2.315156 1_555
Mg2 O7 2.374959 1_555
Mg3 O15 2.033789 1_565
Mg3 O10 2.041514 1_565
Mg3 O6 2.106783 1_455
Mg3 O21 2.225043 1_455
Mg3 O23 2.315156 1_465
Mg3 O3 2.374959 1_555
Mg4 O19 1.932485 1_455
Mg4 O2 1.994845 1_555
Mg4 O16 2.025126 1_555
Mg4 O17 2.089283 1_555
Mg4 O18 2.140638 1_555
Mg4 O20 2.188930 1_555
Mg5 O0 1.932485 1_555
Mg5 O14 1.994845 1_565
Mg5 O21 2.025126 1_555
Mg5 O9 2.089283 1_555
Mg5 O13 2.140638 1_565
Mg5 O23 2.188930 1_565
Mg6 O12 1.932485 1_555
Mg6 O16 1.994845 1_545
Mg6 O2 2.025126 1_555
Mg6 O20 2.089283 1_555
Mg6 O22 2.140638 1_545
Mg6 O17 2.188930 1_545
Mg7 O8 2.033789 1_555
Mg7 O12 2.041514 1_555
Mg7 O22 2.106783 1_555
Mg7 O16 2.225043 1_555
Mg7 O20 2.315156 1_555
Mg7 O4 2.374959 1_555
O0 Si0 1.589492 1_555
O1 Si3 1.677842 1_555
O1 Si4 1.679855 1_555
O2 Si5 1.640026 1_555
O3 Si5 1.677842 1_555
O3 Si0 1.679855 1_555
O4 Si4 1.677842 1_565
O4 Si3 1.679855 1_555
O5 Si2 1.754223 1_555
O5 Si7 1.765330 1_555
O6 Si2 1.824639 1_655
O6 Si1 1.844374 1_554
O7 Si0 1.677842 1_545
O7 Si5 1.679855 1_555
O8 Si1 1.754223 1_555
O8 Si6 1.765330 1_555
O9 Si1 1.911014 1_554
O9 Si6 1.993336 1_564
O10 Si5 1.589492 1_555
O11 Si6 1.754223 1_565
O11 Si1 1.765330 1_555
O12 Si4 1.589492 1_555
O13 Si7 1.824639 1_545
O13 Si6 1.844374 1_554
O14 Si4 1.640026 1_555
O15 Si7 1.754223 1_545
O15 Si2 1.765330 1_555
O16 Si0 1.640026 1_555
O17 Si7 1.911014 1_556
O17 Si2 1.993336 1_556
O18 Si1 1.824639 1_455
O18 Si2 1.844374 1_556
O19 Si3 1.589492 1_555
O20 Si2 1.911014 1_556
O20 Si7 1.993336 1_546
O21 Si3 1.640026 1_555
O22 Si6 1.824639 1_565
O22 Si7 1.844374 1_556
O23 Si6 1.911014 1_554
O23 Si1 1.993336 1_554
