# generated using pymatgen
data_Ce4Si4N7ClO3
_symmetry_space_group_name_H-M   'P 1'
_cell_length_a   10.58963236
_cell_length_b   10.39311091
_cell_length_c   10.45817749
_cell_angle_alpha   90.00000000
_cell_angle_beta   90.00000000
_cell_angle_gamma   90.00000000
_symmetry_Int_Tables_number   1
_chemical_formula_structural   Ce4Si4N7ClO3
_chemical_formula_sum   'Ce16 Si16 N28 Cl4 O12'
_cell_volume   1151.01889496
_cell_formula_units_Z   4
loop_
 _symmetry_equiv_pos_site_id
 _symmetry_equiv_pos_as_xyz
  1  'x, y, z'
loop_
 _atom_site_type_symbol
 _atom_site_label
 _atom_site_symmetry_multiplicity
 _atom_site_fract_x
 _atom_site_fract_y
 _atom_site_fract_z
 _atom_site_occupancy
  Ce  Ce0  1  0.04163211  0.81360763  0.69023856  1
  Ce  Ce1  1  0.10182140  0.10741804  0.10955603  1
  Ce  Ce2  1  0.18011754  0.19530502  0.44979432  1
  Ce  Ce3  1  0.18830072  0.45553256  0.18793291  1
  Ce  Ce4  1  0.31169928  0.54446744  0.68793291  1
  Ce  Ce5  1  0.31988246  0.80469498  0.94979432  1
  Ce  Ce6  1  0.39817860  0.89258196  0.60955603  1
  Ce  Ce7  1  0.45836789  0.18639237  0.19023856  1
  Ce  Ce8  1  0.54163211  0.68639237  0.30976144  1
  Ce  Ce9  1  0.60182140  0.39258196  0.89044397  1
  Ce  Ce10  1  0.68011754  0.30469498  0.55020568  1
  Ce  Ce11  1  0.68830072  0.04446744  0.81206709  1
  Ce  Ce12  1  0.81169928  0.95553256  0.31206709  1
  Ce  Ce13  1  0.81988246  0.69530502  0.05020568  1
  Ce  Ce14  1  0.89817860  0.60741804  0.39044397  1
  Ce  Ce15  1  0.95836789  0.31360763  0.80976144  1
  Si  Si0  1  0.07114994  0.57196871  0.92877845  1
  Si  Si1  1  0.07696859  0.74808990  0.19686324  1
  Si  Si2  1  0.19474064  0.08069706  0.74359969  1
  Si  Si3  1  0.24567283  0.30431139  0.91944108  1
  Si  Si4  1  0.25432717  0.69568861  0.41944108  1
  Si  Si5  1  0.30525936  0.91930294  0.24359969  1
  Si  Si6  1  0.42303141  0.25191010  0.69686324  1
  Si  Si7  1  0.42885006  0.42803129  0.42877845  1
  Si  Si8  1  0.57114994  0.92803129  0.07122155  1
  Si  Si9  1  0.57696859  0.75191010  0.80313676  1
  Si  Si10  1  0.69474064  0.41930294  0.25640031  1
  Si  Si11  1  0.74567283  0.19568861  0.08055892  1
  Si  Si12  1  0.75432717  0.80431139  0.58055892  1
  Si  Si13  1  0.80525936  0.58069706  0.75640031  1
  Si  Si14  1  0.92303141  0.24808990  0.30313676  1
  Si  Si15  1  0.92885006  0.07196871  0.57122155  1
  N  N0  1  0.05606693  0.63463239  0.07799984  1
  N  N1  1  0.07657754  0.28812512  0.26162300  1
  N  N2  1  0.07605651  0.05459664  0.63589429  1
  N  N3  1  0.12920102  0.65245691  0.32511622  1
  N  N4  1  0.13555684  0.42192922  0.94339973  1
  N  N5  1  0.15332182  0.17438549  0.87235738  1
  N  N6  1  0.17693349  0.87163291  0.15282563  1
  N  N7  1  0.32306651  0.12836709  0.65282563  1
  N  N8  1  0.34667818  0.82561451  0.37235738  1
  N  N9  1  0.36444316  0.57807078  0.44339973  1
  N  N10  1  0.37079898  0.34754309  0.82511622  1
  N  N11  1  0.42394349  0.94540336  0.13589429  1
  N  N12  1  0.42342246  0.71187488  0.76162300  1
  N  N13  1  0.44393307  0.36536761  0.57799984  1
  N  N14  1  0.55606693  0.86536761  0.92200016  1
  N  N15  1  0.57657754  0.21187488  0.73837700  1
  N  N16  1  0.57605651  0.44540336  0.36410571  1
  N  N17  1  0.62920102  0.84754309  0.67488378  1
  N  N18  1  0.63555684  0.07807078  0.05660027  1
  N  N19  1  0.65332182  0.32561451  0.12764262  1
  N  N20  1  0.67693349  0.62836709  0.84717437  1
  N  N21  1  0.82306651  0.37163291  0.34717437  1
  N  N22  1  0.84667818  0.67438549  0.62764262  1
  N  N23  1  0.86444316  0.92192922  0.55660027  1
  N  N24  1  0.87079898  0.15245691  0.17488378  1
  N  N25  1  0.92394349  0.55459664  0.86410571  1
  N  N26  1  0.92342246  0.78812512  0.23837700  1
  N  N27  1  0.94393307  0.13463239  0.42200016  1
  Cl  Cl0  1  0.07140848  0.42882784  0.57520786  1
  Cl  Cl1  1  0.42859152  0.57117216  0.07520786  1
  Cl  Cl2  1  0.57140848  0.07117216  0.42479214  1
  Cl  Cl3  1  0.92859152  0.92882784  0.92479214  1
  O  O0  1  0.16041173  0.66558587  0.83523843  1
  O  O1  1  0.20857525  0.73640439  0.56848644  1
  O  O2  1  0.23324508  0.92962669  0.78858944  1
  O  O3  1  0.26675492  0.07037331  0.28858944  1
  O  O4  1  0.29142475  0.26359561  0.06848644  1
  O  O5  1  0.33958827  0.33441413  0.33523843  1
  O  O6  1  0.66041173  0.83441413  0.16476157  1
  O  O7  1  0.70857525  0.76359561  0.43151356  1
  O  O8  1  0.73324508  0.57037331  0.21141056  1
  O  O9  1  0.76675492  0.42962669  0.71141056  1
  O  O10  1  0.79142475  0.23640439  0.93151356  1
  O  O11  1  0.83958827  0.16558587  0.66476157  1
loop_
_geom_bond_atom_site_label_1
_geom_bond_atom_site_label_2
_geom_bond_distance
_geom_bond_site_symmetry_2
Ce0 O1 2.321740 1_555
Ce0 O0 2.499682 1_555
Ce0 O2 2.574723 1_555
Ce0 N2 2.594042 1_565
Ce0 N23 2.596438 1_455
Ce0 N22 2.604677 1_455
Ce0 Cl3 2.980632 1_455
Ce1 N1 2.475469 1_555
Ce1 N24 2.582822 1_455
Ce1 O3 2.589312 1_555
Ce1 N6 2.615837 1_545
Ce1 O4 2.617355 1_555
Ce1 N5 2.633543 1_554
Ce1 Cl3 3.247163 1_444
Ce2 O3 2.317313 1_555
Ce2 N1 2.450627 1_555
Ce2 O5 2.525354 1_555
Ce2 N27 2.595699 1_455
Ce2 N2 2.672245 1_555
Ce2 N7 2.698902 1_555
Ce2 Cl0 2.989313 1_555
Ce3 N1 2.240728 1_555
Ce3 O5 2.554313 1_555
Ce3 N3 2.576589 1_555
Ce3 O4 2.594679 1_555
Ce3 N0 2.597594 1_555
Ce3 N4 2.640849 1_554
Ce3 Cl1 3.051099 1_555
Ce4 N12 2.240728 1_555
Ce4 O0 2.554313 1_555
Ce4 N10 2.576589 1_555
Ce4 O1 2.594679 1_555
Ce4 N13 2.597594 1_555
Ce4 N9 2.640849 1_555
Ce4 Cl0 3.051099 1_555
Ce5 O2 2.317313 1_555
Ce5 N12 2.450627 1_555
Ce5 O0 2.525354 1_555
Ce5 N14 2.595699 1_555
Ce5 N11 2.672245 1_556
Ce5 N6 2.698902 1_556
Ce5 Cl1 2.989313 1_556
Ce6 N12 2.475469 1_555
Ce6 N17 2.582822 1_555
Ce6 O2 2.589312 1_555
Ce6 N7 2.615837 1_565
Ce6 O1 2.617355 1_555
Ce6 N8 2.633543 1_555
Ce6 Cl2 3.247163 1_565
Ce7 O4 2.321740 1_555
Ce7 O5 2.499682 1_555
Ce7 O3 2.574723 1_555
Ce7 N11 2.594042 1_545
Ce7 N18 2.596438 1_555
Ce7 N19 2.604677 1_555
Ce7 Cl2 2.980632 1_555
Ce8 O7 2.321740 1_555
Ce8 O6 2.499682 1_555
Ce8 O8 2.574723 1_555
Ce8 N16 2.594042 1_555
Ce8 N9 2.596438 1_555
Ce8 N8 2.604677 1_555
Ce8 Cl1 2.980632 1_555
Ce9 N15 2.475469 1_555
Ce9 N10 2.582822 1_555
Ce9 O9 2.589312 1_555
Ce9 N20 2.615837 1_555
Ce9 O10 2.617355 1_555
Ce9 N19 2.633543 1_556
Ce9 Cl1 3.247163 1_556
Ce10 O9 2.317313 1_555
Ce10 N15 2.450627 1_555
Ce10 O11 2.525354 1_555
Ce10 N13 2.595699 1_555
Ce10 N16 2.672245 1_555
Ce10 N21 2.698902 1_555
Ce10 Cl2 2.989313 1_555
Ce11 N15 2.240728 1_555
Ce11 O11 2.554313 1_555
Ce11 N17 2.576589 1_545
Ce11 O10 2.594679 1_555
Ce11 N14 2.597594 1_545
Ce11 N18 2.640849 1_556
Ce11 Cl3 3.051099 1_545
Ce12 N26 2.240728 1_555
Ce12 O6 2.554313 1_555
Ce12 N24 2.576589 1_565
Ce12 O7 2.594679 1_555
Ce12 N27 2.597594 1_565
Ce12 N23 2.640849 1_555
Ce12 Cl2 3.051099 1_565
Ce13 O8 2.317313 1_555
Ce13 N26 2.450627 1_555
Ce13 O6 2.525354 1_555
Ce13 N0 2.595699 1_655
Ce13 N25 2.672245 1_554
Ce13 N20 2.698902 1_554
Ce13 Cl3 2.989313 1_554
Ce14 N26 2.475469 1_555
Ce14 N3 2.582822 1_655
Ce14 O8 2.589312 1_555
Ce14 N21 2.615837 1_555
Ce14 O7 2.617355 1_555
Ce14 N22 2.633543 1_555
Ce14 Cl0 3.247163 1_655
Ce15 O10 2.321740 1_555
Ce15 O11 2.499682 1_555
Ce15 O9 2.574723 1_555
Ce15 N25 2.594042 1_555
Ce15 N4 2.596438 1_655
Ce15 N5 2.604677 1_655
Ce15 Cl0 2.980632 1_655
N0 Si0 1.698554 1_554
N0 Si1 1.727638 1_555
N1 Si14 1.733635 1_455
N2 Si15 1.708833 1_455
N2 Si2 1.709376 1_555
N3 Si4 1.711937 1_555
N3 Si1 1.758663 1_555
N4 Si3 1.707876 1_555
N4 Si0 1.708867 1_555
N5 Si2 1.718648 1_555
N5 Si3 1.738471 1_555
N6 Si1 1.726665 1_555
N6 Si5 1.730134 1_555
N7 Si6 1.726665 1_555
N7 Si2 1.730134 1_555
N8 Si5 1.718648 1_555
N8 Si4 1.738471 1_555
N9 Si4 1.707876 1_555
N9 Si7 1.708867 1_555
N10 Si3 1.711937 1_555
N10 Si6 1.758663 1_555
N11 Si8 1.708833 1_555
N11 Si5 1.709376 1_555
N12 Si9 1.733635 1_555
N13 Si7 1.698554 1_555
N13 Si6 1.727638 1_555
N14 Si8 1.698554 1_556
N14 Si9 1.727638 1_555
N15 Si6 1.733635 1_555
N16 Si7 1.708833 1_555
N16 Si10 1.709376 1_555
N17 Si12 1.711937 1_555
N17 Si9 1.758663 1_555
N18 Si11 1.707876 1_555
N18 Si8 1.708867 1_545
N19 Si10 1.718648 1_555
N19 Si11 1.738471 1_555
N20 Si9 1.726665 1_555
N20 Si13 1.730134 1_555
N21 Si14 1.726665 1_555
N21 Si10 1.730134 1_555
N22 Si13 1.718648 1_555
N22 Si12 1.738471 1_555
N23 Si12 1.707876 1_555
N23 Si15 1.708867 1_565
N24 Si11 1.711937 1_555
N24 Si14 1.758663 1_555
N25 Si0 1.708833 1_655
N25 Si13 1.709376 1_555
N26 Si1 1.733635 1_655
N27 Si15 1.698554 1_555
N27 Si14 1.727638 1_555
O0 Si0 1.672472 1_555
O1 Si4 1.686263 1_555
O2 Si2 1.689031 1_565
O3 Si5 1.689031 1_545
O4 Si3 1.686263 1_554
O5 Si7 1.672472 1_555
O6 Si8 1.672472 1_555
O7 Si12 1.686263 1_555
O8 Si10 1.689031 1_555
O9 Si13 1.689031 1_555
O10 Si11 1.686263 1_556
O11 Si15 1.672472 1_555
