# generated using pymatgen
data_H6S(NO2)2
_symmetry_space_group_name_H-M   'P 1'
_cell_length_a   5.54446000
_cell_length_b   8.19895500
_cell_length_c   9.21762300
_cell_angle_alpha   90.00000000
_cell_angle_beta   90.00000000
_cell_angle_gamma   90.00000000
_symmetry_Int_Tables_number   1
_chemical_formula_structural   H6S(NO2)2
_chemical_formula_sum   'H24 S4 N8 O16'
_cell_volume   419.02187801
_cell_formula_units_Z   4
loop_
 _symmetry_equiv_pos_site_id
 _symmetry_equiv_pos_as_xyz
  1  'x, y, z'
loop_
 _atom_site_type_symbol
 _atom_site_label
 _atom_site_symmetry_multiplicity
 _atom_site_fract_x
 _atom_site_fract_y
 _atom_site_fract_z
 _atom_site_occupancy
  H  H0  1  0.26758100  0.96479800  0.43365800  1
  H  H1  1  0.23241900  0.03520200  0.93365800  1
  H  H2  1  0.76758100  0.53520200  0.56634200  1
  H  H3  1  0.73241900  0.46479800  0.06634200  1
  H  H4  1  0.04253600  0.98871200  0.31140700  1
  H  H5  1  0.45746400  0.01128800  0.81140700  1
  H  H6  1  0.54253600  0.51128800  0.68859300  1
  H  H7  1  0.95746400  0.48871200  0.18859300  1
  H  H8  1  0.31962500  0.92745300  0.25097300  1
  H  H9  1  0.18037500  0.07254700  0.75097300  1
  H  H10  1  0.81962500  0.57254700  0.74902700  1
  H  H11  1  0.68037500  0.42745300  0.24902700  1
  H  H12  1  0.26672900  0.19962400  0.19893300  1
  H  H13  1  0.23327100  0.80037600  0.69893300  1
  H  H14  1  0.76672900  0.30037600  0.80106700  1
  H  H15  1  0.73327100  0.69962400  0.30106700  1
  H  H16  1  0.20525600  0.24536000  0.37534300  1
  H  H17  1  0.29474400  0.75464000  0.87534300  1
  H  H18  1  0.70525600  0.25464000  0.62465700  1
  H  H19  1  0.79474400  0.74536000  0.12465700  1
  H  H20  1  0.48703900  0.17042300  0.32274800  1
  H  H21  1  0.01296100  0.82957700  0.82274800  1
  H  H22  1  0.98703900  0.32957700  0.67725200  1
  H  H23  1  0.51296100  0.67042300  0.17725200  1
  S  S0  1  0.24774000  0.54939000  0.42651100  1
  S  S1  1  0.25226000  0.45061000  0.92651100  1
  S  S2  1  0.74774000  0.95061000  0.57348900  1
  S  S3  1  0.75226000  0.04939000  0.07348900  1
  N  N0  1  0.22744500  0.99753800  0.32755700  1
  N  N1  1  0.27255500  0.00246200  0.82755700  1
  N  N2  1  0.72744500  0.50246200  0.67244300  1
  N  N3  1  0.77255500  0.49753800  0.17244300  1
  N  N4  1  0.30146300  0.16334200  0.30626600  1
  N  N5  1  0.19853700  0.83665800  0.80626600  1
  N  N6  1  0.80146300  0.33665800  0.69373400  1
  N  N7  1  0.69853700  0.66334200  0.19373400  1
  O  O0  1  0.49010600  0.47019200  0.41077100  1
  O  O1  1  0.00989400  0.52980800  0.91077100  1
  O  O2  1  0.99010600  0.02980800  0.58922900  1
  O  O3  1  0.50989400  0.97019200  0.08922900  1
  O  O4  1  0.23701300  0.64417800  0.56321100  1
  O  O5  1  0.26298700  0.35582200  0.06321100  1
  O  O6  1  0.73701300  0.85582200  0.43678900  1
  O  O7  1  0.76298700  0.14417800  0.93678900  1
  O  O8  1  0.19895400  0.65433000  0.29754300  1
  O  O9  1  0.30104600  0.34567000  0.79754300  1
  O  O10  1  0.69895400  0.84567000  0.70245700  1
  O  O11  1  0.80104600  0.15433000  0.20245700  1
  O  O12  1  0.06052300  0.41538500  0.43229000  1
  O  O13  1  0.43947700  0.58461500  0.93229000  1
  O  O14  1  0.56052300  0.08461500  0.56771000  1
  O  O15  1  0.93947700  0.91538500  0.06771000  1
loop_
_geom_bond_atom_site_label_1
_geom_bond_atom_site_label_2
_geom_bond_distance
_geom_bond_site_symmetry_2
H0 N0 1.038296 1_555
H1 N1 1.038296 1_555
H2 N2 1.038296 1_555
H3 N3 1.038296 1_555
H4 N0 1.038496 1_555
H5 N1 1.038496 1_555
H6 N2 1.038496 1_555
H7 N3 1.038496 1_555
H8 N0 1.043901 1_555
H9 N1 1.043901 1_555
H10 N2 1.043901 1_555
H11 N3 1.043901 1_555
H12 N4 1.050905 1_555
H13 N5 1.050905 1_555
H14 N6 1.050905 1_555
H15 N7 1.050905 1_555
H16 N4 1.068718 1_555
H16 O12 1.691981 1_555
H17 N5 1.068718 1_555
H17 O13 1.691981 1_555
H18 N6 1.068718 1_555
H18 O14 1.691981 1_555
H19 N7 1.068718 1_555
H19 O15 1.691981 1_555
H20 N4 1.041694 1_555
H21 N5 1.041694 1_555
H22 N6 1.041694 1_555
H23 N7 1.041694 1_555
O0 S0 1.499487 1_555
O1 S1 1.499487 1_555
O2 S2 1.499487 1_545
O3 S3 1.499487 1_565
O4 S0 1.481635 1_555
O5 S1 1.481635 1_554
O6 S2 1.481635 1_555
O7 S3 1.481635 1_556
O8 S0 1.492195 1_555
O9 S1 1.492195 1_555
O10 S2 1.492195 1_555
O11 S3 1.492195 1_555
O12 S0 1.512435 1_555
O13 S1 1.512435 1_555
O14 S2 1.512435 1_545
O15 S3 1.512435 1_565
