# generated using pymatgen
data_Ca(Bi2O3)2
_symmetry_space_group_name_H-M   'P 1'
_cell_length_a   10.32604225
_cell_length_b   10.32604225
_cell_length_c   10.10089293
_cell_angle_alpha   85.65959514
_cell_angle_beta   85.65959514
_cell_angle_gamma   142.09867426
_symmetry_Int_Tables_number   1
_chemical_formula_structural   Ca(Bi2O3)2
_chemical_formula_sum   'Ca3 Bi12 O18'
_cell_volume   643.40590216
_cell_formula_units_Z   3
loop_
 _symmetry_equiv_pos_site_id
 _symmetry_equiv_pos_as_xyz
  1  'x, y, z'
loop_
 _atom_site_type_symbol
 _atom_site_label
 _atom_site_symmetry_multiplicity
 _atom_site_fract_x
 _atom_site_fract_y
 _atom_site_fract_z
 _atom_site_occupancy
  Ca  Ca0  1  0.01897600  0.21169500  0.00504400  1
  Ca  Ca1  1  0.60022200  0.60022200  0.02712700  1
  Ca  Ca2  1  0.21169500  0.01897600  0.00504400  1
  Bi  Bi0  1  0.35605000  0.35605000  0.68061700  1
  Bi  Bi1  1  0.22500000  0.44499500  0.33447100  1
  Bi  Bi2  1  0.96935900  0.76694100  0.67062100  1
  Bi  Bi3  1  0.82839600  0.82839600  0.31433200  1
  Bi  Bi4  1  0.59461400  0.19145300  0.67763600  1
  Bi  Bi5  1  0.79029300  0.41424600  0.01424800  1
  Bi  Bi6  1  0.44499500  0.22500000  0.33447100  1
  Bi  Bi7  1  0.19145300  0.59461400  0.67763600  1
  Bi  Bi8  1  0.41424600  0.79029300  0.01424800  1
  Bi  Bi9  1  0.97664500  0.60521400  0.33538900  1
  Bi  Bi10  1  0.76694100  0.96935900  0.67062100  1
  Bi  Bi11  1  0.60521400  0.97664500  0.33538900  1
  O  O0  1  0.50917800  0.50917800  0.29825500  1
  O  O1  1  0.31850400  0.31850400  0.89057300  1
  O  O2  1  0.30050000  0.50551000  0.11237700  1
  O  O3  1  0.00269900  0.00269900  0.69354500  1
  O  O4  1  0.87293300  0.66527800  0.88843500  1
  O  O5  1  0.92241700  0.92241700  0.09778700  1
  O  O6  1  0.63516100  0.44212200  0.64458400  1
  O  O7  1  0.52156400  0.13839000  0.88971000  1
  O  O8  1  0.50551000  0.30050000  0.11237700  1
  O  O9  1  0.37224700  0.94903600  0.31176500  1
  O  O10  1  0.25657300  0.87071800  0.68642900  1
  O  O11  1  0.13839000  0.52156400  0.88971000  1
  O  O12  1  0.03537700  0.69269300  0.12067300  1
  O  O13  1  0.94903600  0.37224700  0.31176500  1
  O  O14  1  0.87071800  0.25657300  0.68642900  1
  O  O15  1  0.66527800  0.87293300  0.88843500  1
  O  O16  1  0.69269300  0.03537700  0.12067300  1
  O  O17  1  0.44212200  0.63516100  0.64458400  1
loop_
_geom_bond_atom_site_label_1
_geom_bond_atom_site_label_2
_geom_bond_distance
_geom_bond_site_symmetry_2
Ca0 O16 2.330750 1_455
Ca0 O5 2.351442 1_445
Ca0 O2 2.426345 1_555
Ca0 O1 2.449870 1_554
Ca0 O11 2.471367 1_554
Ca0 O15 2.841763 1_444
Ca1 O5 2.428538 1_555
Ca1 O2 2.443150 1_555
Ca1 O8 2.443150 1_555
Ca1 O15 2.572712 1_554
Ca1 O4 2.572712 1_554
Ca1 O1 2.585959 1_554
Ca1 O0 2.663373 1_555
Ca2 O12 2.330750 1_545
Ca2 O5 2.351442 1_445
Ca2 O8 2.426345 1_555
Ca2 O1 2.449870 1_554
Ca2 O7 2.471367 1_554
Ca2 O4 2.841763 1_444
Bi0 O1 2.076549 1_555
Bi0 O17 2.231303 1_555
Bi0 O6 2.231303 1_555
Bi0 O3 2.342882 1_555
Bi1 O2 2.187500 1_555
Bi1 O13 2.341795 1_455
Bi1 O0 2.432201 1_555
Bi2 O4 2.145509 1_555
Bi2 O3 2.207580 1_665
Bi2 O10 2.247604 1_655
Bi2 O6 2.287441 1_555
Bi3 O5 2.130503 1_555
Bi3 O0 2.184505 1_555
Bi4 O7 2.093672 1_555
Bi4 O10 2.196671 1_545
Bi4 O6 2.263716 1_555
Bi4 O14 2.368639 1_555
Bi5 O4 2.215601 1_554
Bi5 O8 2.222920 1_555
Bi5 O12 2.285520 1_655
Bi5 O7 2.448081 1_554
Bi6 O8 2.187500 1_555
Bi6 O9 2.341795 1_545
Bi6 O0 2.432201 1_555
Bi7 O11 2.093672 1_555
Bi7 O14 2.196671 1_455
Bi7 O17 2.263716 1_555
Bi7 O10 2.368639 1_555
Bi8 O15 2.215601 1_554
Bi8 O2 2.222920 1_555
Bi8 O16 2.285520 1_565
Bi8 O11 2.448081 1_554
Bi9 O12 2.127765 1_655
Bi9 O13 2.222638 1_555
Bi9 O9 2.487029 1_655
Bi10 O15 2.145509 1_555
Bi10 O3 2.207580 1_665
Bi10 O14 2.247604 1_565
Bi10 O17 2.287441 1_555
Bi11 O16 2.127765 1_565
Bi11 O9 2.222638 1_555
Bi11 O13 2.487029 1_565
