# generated using pymatgen
data_Ca6La4Ti5Cr5O30
_symmetry_space_group_name_H-M   'P 1'
_cell_length_a   5.52678486
_cell_length_b   5.55198969
_cell_length_c   38.44301906
_cell_angle_alpha   89.93434465
_cell_angle_beta   89.99316210
_cell_angle_gamma   89.79516861
_symmetry_Int_Tables_number   1
_chemical_formula_structural   Ca6La4Ti5Cr5O30
_chemical_formula_sum   'Ca12 La8 Ti10 Cr10 O60'
_cell_volume   1179.60236234
_cell_formula_units_Z   2
loop_
 _symmetry_equiv_pos_site_id
 _symmetry_equiv_pos_as_xyz
  1  'x, y, z'
loop_
 _atom_site_type_symbol
 _atom_site_label
 _atom_site_symmetry_multiplicity
 _atom_site_fract_x
 _atom_site_fract_y
 _atom_site_fract_z
 _atom_site_occupancy
  Ca  Ca0  1  0.48803626  0.46768571  0.34812163  1
  Ca  Ca1  1  0.48824353  0.46718005  0.15187508  1
  Ca  Ca2  1  0.48760190  0.46602880  0.55112695  1
  Ca  Ca3  1  0.48754598  0.46741473  0.94891717  1
  Ca  Ca4  1  0.51131773  0.53228034  0.25003147  1
  Ca  Ca5  1  0.50900862  0.53632001  0.64824914  1
  Ca  Ca6  1  0.50954374  0.53429100  0.85163169  1
  Ca  Ca7  1  0.98936267  0.02668499  0.05037042  1
  Ca  Ca8  1  0.98953466  0.02852348  0.25003128  1
  Ca  Ca9  1  0.98893470  0.02674116  0.44958674  1
  Ca  Ca10  1  0.99186683  0.02675425  0.64933821  1
  Ca  Ca11  1  0.99034230  0.02693967  0.85055702  1
  La  La0  1  0.00569302  0.98047773  0.15083475  1
  La  La1  1  0.00628179  0.98054940  0.34911631  1
  La  La2  1  0.00633742  0.98010580  0.55014994  1
  La  La3  1  0.00587741  0.98032083  0.75012366  1
  La  La4  1  0.00704244  0.97994954  0.94987342  1
  La  La5  1  0.49171205  0.47590652  0.75012580  1
  La  La6  1  0.50615951  0.52537053  0.05056526  1
  La  La7  1  0.50662114  0.52517679  0.44939398  1
  Ti  Ti0  1  0.00040132  0.49938815  0.00002747  1
  Ti  Ti1  1  0.99804278  0.50061142  0.20173538  1
  Ti  Ti2  1  0.99682221  0.49988548  0.60047787  1
  Ti  Ti3  1  0.99548319  0.50016778  0.80254046  1
  Ti  Ti4  1  0.00029216  0.49953254  0.10112258  1
  Ti  Ti5  1  0.99791986  0.50063902  0.29837892  1
  Ti  Ti6  1  0.00017691  0.49936332  0.39881832  1
  Ti  Ti7  1  0.00048111  0.49942241  0.49985263  1
  Ti  Ti8  1  0.99543701  0.50010930  0.69756175  1
  Ti  Ti9  1  0.99689683  0.49991919  0.89945465  1
  Cr  Cr0  1  0.50075015  0.99975779  0.10019863  1
  Cr  Cr1  1  0.50056142  0.99977342  0.00012493  1
  Cr  Cr2  1  0.49966426  0.99982974  0.29895840  1
  Cr  Cr3  1  0.49944459  0.99972178  0.20110919  1
  Cr  Cr4  1  0.50077937  0.99978738  0.39981091  1
  Cr  Cr5  1  0.50006708  0.00005558  0.60058932  1
  Cr  Cr6  1  0.49952658  -0.00004083  0.89916646  1
  Cr  Cr7  1  0.50025706  0.99964045  0.49971548  1
  Cr  Cr8  1  0.49906674  0.99996136  0.69849930  1
  Cr  Cr9  1  0.49903948  0.99976407  0.80163281  1
  O  O0  1  0.07210621  0.48640366  0.04981733  1
  O  O1  1  0.08562768  0.48328305  0.24988052  1
  O  O2  1  0.07215114  0.48639923  0.45025512  1
  O  O3  1  0.08539938  0.48201374  0.64997268  1
  O  O4  1  0.08555215  0.48202191  0.84999890  1
  O  O5  1  0.22585850  0.22927795  0.19162186  1
  O  O6  1  0.22602102  0.22899924  0.59164310  1
  O  O7  1  0.22807170  0.23331235  0.39181754  1
  O  O8  1  0.22833219  0.23312109  0.10821152  1
  O  O9  1  0.22505597  0.22975863  0.30827454  1
  O  O10  1  0.22716446  0.23168526  0.79134439  1
  O  O11  1  0.22847020  0.23297051  0.99162361  1
  O  O12  1  0.22832697  0.23295609  0.50846723  1
  O  O13  1  0.22724329  0.23147862  0.70866839  1
  O  O14  1  0.22570741  0.22932070  0.90835329  1
  O  O15  1  0.26980099  0.72488878  0.19126709  1
  O  O16  1  0.27299737  0.72091730  0.39151169  1
  O  O17  1  0.26927253  0.72435498  0.30862994  1
  O  O18  1  0.27156709  0.72403493  0.59132115  1
  O  O19  1  0.27313819  0.72108674  0.10850838  1
  O  O20  1  0.27276200  0.72139131  0.99134972  1
  O  O21  1  0.26722406  0.72658130  0.79148768  1
  O  O22  1  0.27266081  0.72129492  0.50873095  1
  O  O23  1  0.26733506  0.72679086  0.70852766  1
  O  O24  1  0.27098873  0.72355020  0.90868877  1
  O  O25  1  0.41362815  0.98436335  0.04990831  1
  O  O26  1  0.41204405  0.98120109  0.24981219  1
  O  O27  1  0.40989996  0.97871890  0.64948836  1
  O  O28  1  0.41388577  0.98459597  0.45016800  1
  O  O29  1  0.41078897  0.97980421  0.85075910  1
  O  O30  1  0.57801504  0.01626635  0.34929625  1
  O  O31  1  0.57798675  0.01638030  0.15084949  1
  O  O32  1  0.57881962  0.01746201  0.55055937  1
  O  O33  1  0.57548246  0.01045592  0.74998667  1
  O  O34  1  0.57831244  0.01699022  0.94926725  1
  O  O35  1  0.73500674  0.27228868  0.09183779  1
  O  O36  1  0.73242596  0.27561585  0.29130592  1
  O  O37  1  0.73475374  0.27228296  0.00821717  1
  O  O38  1  0.73215435  0.27505034  0.89134381  1
  O  O39  1  0.73181883  0.27500561  0.20856907  1
  O  O40  1  0.73493147  0.27228203  0.49188531  1
  O  O41  1  0.73039653  0.27615265  0.69167883  1
  O  O42  1  0.73166934  0.27468348  0.60865710  1
  O  O43  1  0.73512539  0.27251251  0.40823380  1
  O  O44  1  0.73054174  0.27628685  0.80830424  1
  O  O45  1  0.77923797  0.77124254  0.09135049  1
  O  O46  1  0.77882935  0.77164894  0.00862182  1
  O  O47  1  0.77964837  0.77412247  0.20868453  1
  O  O48  1  0.78031892  0.77365241  0.29118164  1
  O  O49  1  0.77915029  0.77162527  0.49146494  1
  O  O50  1  0.77696655  0.76996408  0.69156539  1
  O  O51  1  0.77940211  0.77111776  0.40870441  1
  O  O52  1  0.78030063  0.77439291  0.60879234  1
  O  O53  1  0.77717097  0.76965327  0.80840880  1
  O  O54  1  0.78073654  0.77428339  0.89122557  1
  O  O55  1  0.91876714  0.51071050  0.15001046  1
  O  O56  1  0.91869259  0.51066739  0.34999950  1
  O  O57  1  0.91819391  0.51078840  0.55042094  1
  O  O58  1  0.92968449  0.50712963  0.74996122  1
  O  O59  1  0.91820396  0.51071774  0.94971148  1
loop_
_geom_bond_atom_site_label_1
_geom_bond_atom_site_label_2
_geom_bond_distance
_geom_bond_site_symmetry_2
Ca0 O56 2.394032 1_555
Ca0 O17 2.404278 1_555
Ca0 O16 2.482834 1_555
Ca0 O9 2.494568 1_555
Ca0 O30 2.553741 1_555
Ca0 O7 2.566524 1_555
Ca0 O36 2.779645 1_555
Ca0 O43 2.892013 1_555
Ca1 O55 2.393570 1_555
Ca1 O15 2.406272 1_555
Ca1 O19 2.482548 1_555
Ca1 O5 2.488131 1_555
Ca1 O31 2.550116 1_555
Ca1 O8 2.566831 1_555
Ca1 O39 2.772341 1_555
Ca1 O35 2.890004 1_555
Ca2 O57 2.393760 1_555
Ca2 O18 2.420226 1_555
Ca2 O22 2.461548 1_555
Ca2 O6 2.501248 1_555
Ca2 O12 2.536932 1_555
Ca2 O32 2.539303 1_555
Ca2 O42 2.797237 1_555
Ca2 O40 2.864723 1_555
Ca3 O59 2.393322 1_555
Ca3 O24 2.414465 1_555
Ca3 O20 2.459920 1_555
Ca3 O14 2.508434 1_555
Ca3 O11 2.539235 1_555
Ca3 O34 2.548833 1_555
Ca3 O38 2.803803 1_555
Ca3 O37 2.867362 1_556
Ca4 O1 2.369347 1_555
Ca4 O36 2.454474 1_555
Ca4 O39 2.461377 1_555
Ca4 O26 2.550167 1_555
Ca4 O48 2.555065 1_555
Ca4 O47 2.556846 1_555
Ca4 O17 2.827717 1_555
Ca4 O15 2.830843 1_555
Ca5 O3 2.362513 1_555
Ca5 O42 2.435747 1_555
Ca5 O52 2.510985 1_555
Ca5 O27 2.515121 1_555
Ca5 O41 2.520578 1_555
Ca5 O50 2.582265 1_555
Ca5 O18 2.753798 1_555
Ca5 O23 2.875227 1_555
Ca6 O4 2.363090 1_555
Ca6 O38 2.428724 1_555
Ca6 O44 2.512078 1_555
Ca6 O54 2.521536 1_555
Ca6 O29 2.531266 1_555
Ca6 O53 2.581582 1_555
Ca6 O24 2.765554 1_555
Ca6 O21 2.874733 1_555
Ca7 O25 2.355798 1_645
Ca7 O45 2.418280 1_545
Ca7 O46 2.439695 1_545
Ca7 O35 2.523403 1_555
Ca7 O37 2.539131 1_555
Ca7 O0 2.594669 1_655
Ca7 O8 2.831899 1_655
Ca7 O11 2.857031 1_654
Ca7 O0 3.032777 1_645
Ca8 O26 2.348934 1_645
Ca8 O48 2.418270 1_545
Ca8 O47 2.425767 1_545
Ca8 O36 2.531675 1_555
Ca8 O39 2.534496 1_555
Ca8 O1 2.581929 1_655
Ca8 O9 2.823611 1_655
Ca8 O5 2.827398 1_655
Ca9 O28 2.359514 1_645
Ca9 O51 2.417145 1_545
Ca9 O49 2.438935 1_545
Ca9 O43 2.517686 1_555
Ca9 O40 2.542468 1_555
Ca9 O2 2.594903 1_655
Ca9 O7 2.828157 1_655
Ca9 O12 2.863989 1_655
Ca9 O2 3.033477 1_645
Ca10 O27 2.324780 1_645
Ca10 O52 2.403547 1_545
Ca10 O50 2.466746 1_545
Ca10 O42 2.527846 1_555
Ca10 O41 2.577842 1_555
Ca10 O3 2.581868 1_655
Ca10 O6 2.803386 1_655
Ca10 O13 2.864195 1_655
Ca11 O29 2.337491 1_645
Ca11 O54 2.400029 1_545
Ca11 O53 2.464081 1_545
Ca11 O38 2.526380 1_555
Ca11 O44 2.568620 1_555
Ca11 O4 2.582731 1_655
Ca11 O14 2.812146 1_655
Ca11 O10 2.861977 1_655
La0 O31 2.371520 1_465
La0 O5 2.421716 1_565
La0 O8 2.484564 1_565
La0 O15 2.557523 1_555
La0 O19 2.626026 1_555
La0 O55 2.653935 1_455
La0 O47 2.796943 1_455
La0 O45 2.856977 1_455
La0 O55 2.981228 1_465
La0 O39 3.143400 1_465
La0 O35 3.159414 1_465
La0 O31 3.169930 1_565
La1 O30 2.374534 1_465
La1 O9 2.418268 1_565
La1 O7 2.486905 1_565
La1 O17 2.558910 1_555
La1 O16 2.624314 1_555
La1 O56 2.655193 1_455
La1 O48 2.802899 1_455
La1 O51 2.859278 1_455
La1 O56 2.981277 1_465
La1 O36 3.144574 1_465
La1 O30 3.166779 1_565
La1 O43 3.166805 1_465
La2 O32 2.371197 1_465
La2 O6 2.438358 1_565
La2 O12 2.459751 1_565
La2 O18 2.579842 1_555
La2 O22 2.599258 1_555
La2 O57 2.652513 1_455
La2 O52 2.819748 1_455
La2 O49 2.832499 1_455
La2 O57 2.984657 1_465
La2 O40 3.142212 1_465
La2 O42 3.166699 1_465
La2 O32 3.171558 1_565
La3 O33 2.383986 1_465
La3 O10 2.443811 1_565
La3 O13 2.446966 1_565
La3 O21 2.565225 1_555
La3 O23 2.572259 1_555
La3 O58 2.662188 1_455
La3 O53 2.826690 1_455
La3 O50 2.837172 1_455
La3 O58 2.953505 1_465
La3 O33 3.153128 1_565
La3 O44 3.163545 1_465
La3 O41 3.168329 1_465
La4 O34 2.377788 1_465
La4 O14 2.435472 1_565
La4 O11 2.462720 1_565
La4 O24 2.578941 1_555
La4 O20 2.596150 1_555
La4 O59 2.652773 1_455
La4 O54 2.822801 1_455
La4 O46 2.834206 1_456
La4 O59 2.985711 1_465
La4 O37 3.149543 1_466
La4 O34 3.164792 1_565
La4 O38 3.166982 1_465
La5 O58 2.427404 1_555
La5 O21 2.448852 1_555
La5 O23 2.453227 1_555
La5 O10 2.548682 1_555
La5 O13 2.556912 1_555
La5 O33 2.623705 1_555
La5 O44 2.820875 1_555
La5 O41 2.830748 1_555
La5 O33 3.005342 1_565
La5 O58 3.110427 1_455
La5 O53 3.193211 1_555
La5 O50 3.198138 1_555
La6 O0 2.409603 1_555
La6 O35 2.464571 1_555
La6 O37 2.492585 1_555
La6 O45 2.572897 1_555
La6 O25 2.597433 1_555
La6 O46 2.598010 1_555
La6 O19 2.792125 1_555
La6 O20 2.831155 1_554
La6 O25 3.048826 1_545
La6 O0 3.134698 1_655
La6 O8 3.148063 1_555
La6 O11 3.186249 1_554
La7 O2 2.411841 1_555
La7 O43 2.461383 1_555
La7 O40 2.492886 1_555
La7 O51 2.567766 1_555
La7 O28 2.600080 1_555
La7 O49 2.603270 1_555
La7 O16 2.790105 1_555
La7 O22 2.838285 1_555
La7 O28 3.046663 1_545
La7 O2 3.132377 1_655
La7 O7 3.149898 1_555
La7 O12 3.188050 1_555
Cr0 O25 1.994428 1_555
Cr0 O31 1.995772 1_565
Cr0 O8 2.006794 1_565
Cr0 O45 2.020198 1_555
Cr0 O35 2.020334 1_565
Cr0 O19 2.022614 1_555
Cr1 O25 1.974989 1_555
Cr1 O34 2.003986 1_564
Cr1 O11 2.007408 1_564
Cr1 O46 2.015266 1_555
Cr1 O37 2.018991 1_565
Cr1 O20 2.025559 1_554
Cr2 O26 1.953405 1_555
Cr2 O30 1.985319 1_565
Cr2 O9 2.012053 1_565
Cr2 O48 2.014705 1_555
Cr2 O36 2.024561 1_565
Cr2 O17 2.027626 1_555
Cr3 O26 1.936253 1_555
Cr3 O31 1.982374 1_565
Cr3 O5 2.007223 1_565
Cr3 O47 2.009297 1_555
Cr3 O39 2.020563 1_565
Cr3 O15 2.024244 1_555
Cr4 O30 1.990320 1_565
Cr4 O28 1.996263 1_555
Cr4 O7 2.008054 1_565
Cr4 O51 2.021165 1_555
Cr4 O43 2.022446 1_565
Cr4 O16 2.024592 1_555
Cr5 O27 1.948283 1_545
Cr5 O32 1.974221 1_555
Cr5 O6 2.003324 1_555
Cr5 O52 2.013265 1_545
Cr5 O42 2.018557 1_555
Cr5 O18 2.021245 1_545
Cr6 O29 1.927998 1_545
Cr6 O34 1.977126 1_555
Cr6 O14 2.005899 1_555
Cr6 O54 2.016286 1_545
Cr6 O38 2.022120 1_555
Cr6 O24 2.024078 1_545
Cr7 O28 1.965656 1_555
Cr7 O32 2.004920 1_565
Cr7 O12 2.009187 1_565
Cr7 O49 2.016411 1_555
Cr7 O40 2.019159 1_565
Cr7 O22 2.025613 1_555
Cr8 O27 1.951372 1_555
Cr8 O50 2.011781 1_555
Cr8 O13 2.012255 1_565
Cr8 O41 2.016855 1_565
Cr8 O33 2.024882 1_565
Cr8 O23 2.025222 1_555
Cr9 O29 1.953594 1_555
Cr9 O53 2.012024 1_555
Cr9 O10 2.014285 1_565
Cr9 O44 2.018620 1_565
Cr9 O21 2.027150 1_555
Cr9 O33 2.030683 1_565
O0 Ti0 1.955910 1_555
O0 Ti4 2.013172 1_555
O1 Ti1 1.915377 1_455
O1 Ti5 1.928783 1_455
O2 Ti7 1.948712 1_555
O2 Ti6 2.018199 1_555
O3 Ti8 1.898447 1_455
O3 Ti2 1.967060 1_455
O4 Ti3 1.893670 1_455
O4 Ti9 1.965829 1_455
O5 Ti1 1.998372 1_455
O6 Ti2 1.992310 1_455
O7 Ti6 1.956585 1_555
O8 Ti4 1.958648 1_555
O9 Ti5 1.991902 1_455
O10 Ti3 2.008589 1_455
O11 Ti0 1.966914 1_556
O12 Ti7 1.967164 1_555
O13 Ti8 2.008238 1_455
O14 Ti9 1.989631 1_455
O15 Ti1 1.995086 1_455
O16 Ti6 1.969225 1_555
O17 Ti5 1.990412 1_455
O18 Ti2 1.997678 1_455
O19 Ti4 1.970227 1_555
O20 Ti0 1.977007 1_556
O21 Ti3 2.007085 1_455
O22 Ti7 1.977649 1_555
O23 Ti8 2.008653 1_455
O24 Ti9 1.994223 1_455
O35 Ti4 1.970592 1_655
O36 Ti5 1.949816 1_555
O37 Ti0 1.963852 1_655
O38 Ti9 1.952138 1_555
O39 Ti1 1.953244 1_555
O40 Ti7 1.962732 1_655
O41 Ti8 1.938208 1_555
O42 Ti2 1.954937 1_555
O43 Ti6 1.968550 1_655
O44 Ti3 1.936624 1_555
O45 Ti4 1.973581 1_655
O46 Ti0 1.970145 1_655
O47 Ti1 1.954979 1_555
O48 Ti5 1.951030 1_555
O49 Ti7 1.967231 1_655
O50 Ti8 1.934447 1_555
O51 Ti6 1.974264 1_655
O52 Ti2 1.960850 1_555
O53 Ti3 1.932110 1_555
O54 Ti9 1.957967 1_555
O55 Ti4 1.933615 1_655
O55 Ti1 2.036877 1_555
O56 Ti6 1.930970 1_655
O56 Ti5 2.032916 1_555
O57 Ti2 1.973660 1_555
O57 Ti7 1.997450 1_655
O58 Ti8 2.047258 1_555
O58 Ti3 2.054095 1_555
O59 Ti9 1.981248 1_555
O59 Ti0 1.987856 1_656
