# generated using pymatgen
data_CdI2
_symmetry_space_group_name_H-M   'P 1'
_cell_length_a   4.34194057
_cell_length_b   4.34194057
_cell_length_c   146.80109100
_cell_angle_alpha   90.00000000
_cell_angle_beta   90.00000000
_cell_angle_gamma   120.00000869
_symmetry_Int_Tables_number   1
_chemical_formula_structural   CdI2
_chemical_formula_sum   'Cd20 I40'
_cell_volume   2396.77698901
_cell_formula_units_Z   20
loop_
 _symmetry_equiv_pos_site_id
 _symmetry_equiv_pos_as_xyz
  1  'x, y, z'
loop_
 _atom_site_type_symbol
 _atom_site_label
 _atom_site_symmetry_multiplicity
 _atom_site_fract_x
 _atom_site_fract_y
 _atom_site_fract_z
 _atom_site_occupancy
  Cd  Cd0  1  0.00000000  0.00000000  0.96250200  1
  Cd  Cd1  1  0.00000000  0.00000000  0.01249800  1
  Cd  Cd2  1  0.33333300  0.66666700  0.76249100  1
  Cd  Cd3  1  0.00000000  0.00000000  0.31249400  1
  Cd  Cd4  1  0.33333300  0.66666700  0.66249500  1
  Cd  Cd5  1  0.00000000  0.00000000  0.86250000  1
  Cd  Cd6  1  0.33333300  0.66666700  0.46250200  1
  Cd  Cd7  1  0.00000000  0.00000000  0.41250700  1
  Cd  Cd8  1  0.33333300  0.66666700  0.36250500  1
  Cd  Cd9  1  0.00000000  0.00000000  0.61250000  1
  Cd  Cd10  1  0.33333300  0.66666700  0.16249500  1
  Cd  Cd11  1  0.00000000  0.00000000  0.51249700  1
  Cd  Cd12  1  0.33333300  0.66666700  0.91249400  1
  Cd  Cd13  1  0.33333300  0.66666700  0.81249800  1
  Cd  Cd14  1  0.33333300  0.66666700  0.26249300  1
  Cd  Cd15  1  0.00000000  0.00000000  0.21250100  1
  Cd  Cd16  1  0.00000000  0.00000000  0.71250000  1
  Cd  Cd17  1  0.00000000  0.00000000  0.11250000  1
  Cd  Cd18  1  0.33333300  0.66666700  0.56249500  1
  Cd  Cd19  1  0.33333300  0.66666700  0.06249800  1
  I  I0  1  0.33333300  0.66666700  0.10072700  1
  I  I1  1  0.66666700  0.33333300  0.62428400  1
  I  I2  1  0.00000000  0.00000000  0.90071300  1
  I  I3  1  0.66666700  0.33333300  0.82428000  1
  I  I4  1  0.00000000  0.00000000  0.65071400  1
  I  I5  1  0.66666700  0.33333300  0.87428400  1
  I  I6  1  0.66666700  0.33333300  0.52428400  1
  I  I7  1  0.66666700  0.33333300  0.17428300  1
  I  I8  1  0.66666700  0.33333300  0.67428200  1
  I  I9  1  0.33333300  0.66666700  0.60072700  1
  I  I10  1  0.00000000  0.00000000  0.55070900  1
  I  I11  1  0.00000000  0.00000000  0.45071400  1
  I  I12  1  0.66666700  0.33333300  0.92428200  1
  I  I13  1  0.66666700  0.33333300  0.47428400  1
  I  I14  1  0.33333300  0.66666700  0.30071800  1
  I  I15  1  0.66666700  0.33333300  0.57427700  1
  I  I16  1  0.00000000  0.00000000  0.35071900  1
  I  I17  1  0.33333300  0.66666700  0.40072900  1
  I  I18  1  0.33333300  0.66666700  0.95072600  1
  I  I19  1  0.33333300  0.66666700  0.20072500  1
  I  I20  1  0.00000000  0.00000000  0.75070600  1
  I  I21  1  0.00000000  0.00000000  0.05071400  1
  I  I22  1  0.66666700  0.33333300  0.97428400  1
  I  I23  1  0.66666700  0.33333300  0.32427500  1
  I  I24  1  0.66666700  0.33333300  0.02428400  1
  I  I25  1  0.00000000  0.00000000  0.15071400  1
  I  I26  1  0.33333300  0.66666700  0.00072600  1
  I  I27  1  0.66666700  0.33333300  0.27427800  1
  I  I28  1  0.33333300  0.66666700  0.85072700  1
  I  I29  1  0.66666700  0.33333300  0.07428400  1
  I  I30  1  0.66666700  0.33333300  0.12428500  1
  I  I31  1  0.66666700  0.33333300  0.77427700  1
  I  I32  1  0.33333300  0.66666700  0.50072500  1
  I  I33  1  0.33333300  0.66666700  0.70072500  1
  I  I34  1  0.00000000  0.00000000  0.25070700  1
  I  I35  1  0.66666700  0.33333300  0.42428800  1
  I  I36  1  0.66666700  0.33333300  0.22428300  1
  I  I37  1  0.00000000  0.00000000  0.80071700  1
  I  I38  1  0.66666700  0.33333300  0.72428200  1
  I  I39  1  0.66666700  0.33333300  0.37429000  1
loop_
_geom_bond_atom_site_label_1
_geom_bond_atom_site_label_2
_geom_bond_distance
_geom_bond_site_symmetry_2
Cd0 I18 3.045102 1_545
Cd0 I18 3.045104 1_445
Cd0 I18 3.045104 1_555
Cd0 I22 3.045602 1_455
Cd0 I22 3.045605 1_445
Cd0 I22 3.045605 1_555
Cd1 I26 3.044768 1_545
Cd1 I26 3.044771 1_555
Cd1 I26 3.044771 1_445
Cd1 I24 3.045935 1_455
Cd1 I24 3.045938 1_555
Cd1 I24 3.045938 1_445
Cd2 I20 3.045852 1_565
Cd2 I20 3.045855 1_665
Cd2 I20 3.045855 1_555
Cd2 I31 3.045935 1_455
Cd2 I31 3.045935 1_565
Cd2 I31 3.045941 1_555
Cd3 I14 3.045102 1_545
Cd3 I14 3.045104 1_445
Cd3 I14 3.045104 1_555
Cd3 I23 3.045518 1_455
Cd3 I23 3.045521 1_555
Cd3 I23 3.045521 1_445
Cd4 I4 3.045518 1_565
Cd4 I4 3.045521 1_665
Cd4 I4 3.045521 1_555
Cd4 I8 3.046018 1_455
Cd4 I8 3.046018 1_565
Cd4 I8 3.046025 1_555
Cd5 I28 3.044852 1_545
Cd5 I28 3.044854 1_555
Cd5 I28 3.044854 1_445
Cd5 I5 3.045768 1_455
Cd5 I5 3.045771 1_555
Cd5 I5 3.045771 1_445
Cd6 I13 3.045601 1_565
Cd6 I13 3.045601 1_455
Cd6 I13 3.045608 1_555
Cd6 I11 3.046102 1_565
Cd6 I11 3.046105 1_665
Cd6 I11 3.046105 1_555
Cd7 I17 3.045268 1_545
Cd7 I17 3.045271 1_445
Cd7 I17 3.045271 1_555
Cd7 I35 3.045518 1_455
Cd7 I35 3.045521 1_445
Cd7 I35 3.045521 1_555
Cd8 I39 3.045852 1_455
Cd8 I39 3.045852 1_565
Cd8 I39 3.045858 1_555
Cd8 I16 3.045935 1_565
Cd8 I16 3.045938 1_555
Cd8 I16 3.045938 1_665
Cd9 I9 3.044852 1_545
Cd9 I9 3.044854 1_445
Cd9 I9 3.044854 1_555
Cd9 I1 3.045768 1_455
Cd9 I1 3.045771 1_445
Cd9 I1 3.045771 1_555
Cd10 I25 3.045518 1_565
Cd10 I25 3.045521 1_665
Cd10 I25 3.045521 1_555
Cd10 I7 3.046102 1_455
Cd10 I7 3.046102 1_565
Cd10 I7 3.046108 1_555
Cd11 I32 3.044768 1_545
Cd11 I32 3.044771 1_555
Cd11 I32 3.044771 1_445
Cd11 I6 3.046019 1_455
Cd11 I6 3.046021 1_445
Cd11 I6 3.046021 1_555
Cd12 I2 3.045518 1_565
Cd12 I2 3.045521 1_665
Cd12 I2 3.045521 1_555
Cd12 I12 3.046102 1_455
Cd12 I12 3.046102 1_565
Cd12 I12 3.046108 1_555
Cd13 I37 3.045518 1_565
Cd13 I37 3.045521 1_555
Cd13 I37 3.045521 1_665
Cd13 I3 3.045601 1_455
Cd13 I3 3.045601 1_565
Cd13 I3 3.045608 1_555
Cd14 I27 3.045852 1_455
Cd14 I27 3.045852 1_565
Cd14 I27 3.045858 1_555
Cd14 I34 3.045935 1_565
Cd14 I34 3.045938 1_555
Cd14 I34 3.045938 1_665
Cd15 I19 3.045102 1_545
Cd15 I19 3.045104 1_555
Cd15 I19 3.045104 1_445
Cd15 I36 3.045602 1_455
Cd15 I36 3.045605 1_445
Cd15 I36 3.045605 1_555
Cd16 I33 3.045018 1_545
Cd16 I33 3.045021 1_555
Cd16 I33 3.045021 1_445
Cd16 I38 3.045602 1_455
Cd16 I38 3.045605 1_555
Cd16 I38 3.045605 1_445
Cd17 I0 3.044852 1_545
Cd17 I0 3.044854 1_555
Cd17 I0 3.044854 1_445
Cd17 I30 3.045852 1_455
Cd17 I30 3.045855 1_555
Cd17 I30 3.045855 1_445
Cd18 I15 3.045601 1_565
Cd18 I15 3.045601 1_455
Cd18 I15 3.045608 1_555
Cd18 I10 3.045935 1_565
Cd18 I10 3.045938 1_555
Cd18 I10 3.045938 1_665
Cd19 I21 3.045768 1_565
Cd19 I21 3.045771 1_665
Cd19 I21 3.045771 1_555
Cd19 I29 3.045935 1_565
Cd19 I29 3.045935 1_455
Cd19 I29 3.045941 1_555
