# generated using pymatgen
data_WO3
_symmetry_space_group_name_H-M   'P 1'
_cell_length_a   3.87208616
_cell_length_b   7.48008578
_cell_length_c   7.74851475
_cell_angle_alpha   90.00000000
_cell_angle_beta   89.65459563
_cell_angle_gamma   90.00000000
_symmetry_Int_Tables_number   1
_chemical_formula_structural   WO3
_chemical_formula_sum   'W4 O12'
_cell_volume   224.42031272
_cell_formula_units_Z   4
loop_
 _symmetry_equiv_pos_site_id
 _symmetry_equiv_pos_as_xyz
  1  'x, y, z'
loop_
 _atom_site_type_symbol
 _atom_site_label
 _atom_site_symmetry_multiplicity
 _atom_site_fract_x
 _atom_site_fract_y
 _atom_site_fract_z
 _atom_site_occupancy
  W  W0  1  0.05701416  0.25000000  0.02918815  1
  W  W1  1  0.94298584  0.75000000  0.97081185  1
  W  W2  1  0.94274429  0.75000000  0.47080783  1
  W  W3  1  0.05725571  0.25000000  0.52919217  1
  O  O0  1  0.48392123  0.75000000  0.99032954  1
  O  O1  1  0.51607877  0.25000000  0.00967046  1
  O  O2  1  0.51627721  0.25000000  0.50957945  1
  O  O3  1  0.48372279  0.75000000  0.49042055  1
  O  O4  1  0.00000000  0.50000000  0.50000000  1
  O  O5  1  0.00000000  0.00000000  0.50000000  1
  O  O6  1  0.00000000  -0.00000000  -0.00000000  1
  O  O7  1  0.00000000  0.50000000  -0.00000000  1
  O  O8  1  0.98182583  0.75000000  0.24155826  1
  O  O9  1  0.01817417  0.25000000  0.75844174  1
  O  O10  1  0.01790709  0.25000000  0.25845770  1
  O  O11  1  0.98209291  0.75000000  0.74154230  1
loop_
_geom_bond_atom_site_label_1
_geom_bond_atom_site_label_2
_geom_bond_distance
_geom_bond_site_symmetry_2
O0 W1 1.783051 1_555
O0 W1 2.100910 1_455
O1 W0 1.783051 1_555
O1 W0 2.100910 1_655
O2 W3 1.782943 1_555
O2 W3 2.101134 1_655
O3 W2 1.782943 1_555
O3 W2 2.101134 1_455
O4 W2 1.896813 1_455
O4 W3 1.896813 1_555
O5 W2 1.896813 1_445
O5 W3 1.896813 1_555
O6 W1 1.896700 1_444
O6 W0 1.896700 1_555
O7 W0 1.896700 1_555
O7 W1 1.896700 1_454
O8 W2 1.781869 1_555
O8 W1 2.104170 1_554
O9 W3 1.781869 1_555
O9 W0 2.104170 1_556
O10 W0 1.782031 1_555
O10 W3 2.104232 1_555
O11 W1 1.782031 1_555
O11 W2 2.104232 1_555
