# generated using pymatgen
data_Sr6Bi2O11
_symmetry_space_group_name_H-M   'P 1'
_cell_length_a   8.74451500
_cell_length_b   8.74451500
_cell_length_c   9.12996800
_cell_angle_alpha   90.00000000
_cell_angle_beta   90.00000000
_cell_angle_gamma   90.00000000
_symmetry_Int_Tables_number   1
_chemical_formula_structural   Sr6Bi2O11
_chemical_formula_sum   'Sr12 Bi4 O22'
_cell_volume   698.13708687
_cell_formula_units_Z   2
loop_
 _symmetry_equiv_pos_site_id
 _symmetry_equiv_pos_as_xyz
  1  'x, y, z'
loop_
 _atom_site_type_symbol
 _atom_site_label
 _atom_site_symmetry_multiplicity
 _atom_site_fract_x
 _atom_site_fract_y
 _atom_site_fract_z
 _atom_site_occupancy
  Sr  Sr0  1  0.27740100  0.77740100  0.79247900  1
  Sr  Sr1  1  0.27740100  0.22259900  0.79247900  1
  Sr  Sr2  1  0.22259900  0.27740100  0.20752100  1
  Sr  Sr3  1  0.22259900  0.72259900  0.20752100  1
  Sr  Sr4  1  0.50000000  0.50000000  0.50000000  1
  Sr  Sr5  1  0.72259900  0.22259900  0.79247900  1
  Sr  Sr6  1  0.50000000  0.00000000  0.06901900  1
  Sr  Sr7  1  0.72259900  0.77740100  0.79247900  1
  Sr  Sr8  1  0.77740100  0.72259900  0.20752100  1
  Sr  Sr9  1  0.77740100  0.27740100  0.20752100  1
  Sr  Sr10  1  0.00000000  0.00000000  0.50000000  1
  Sr  Sr11  1  0.00000000  0.50000000  0.93098100  1
  Bi  Bi0  1  0.00000000  0.00000000  0.00000000  1
  Bi  Bi1  1  0.50000000  0.00000000  0.54056400  1
  Bi  Bi2  1  0.50000000  0.50000000  0.00000000  1
  Bi  Bi3  1  0.00000000  0.50000000  0.45943600  1
  O  O0  1  0.25356400  0.50000000  0.01613900  1
  O  O1  1  0.50000000  0.74643600  0.98386100  1
  O  O2  1  0.27022300  0.00000000  0.61411200  1
  O  O3  1  0.22977700  0.50000000  0.38588800  1
  O  O4  1  0.50000000  0.22977700  0.61411200  1
  O  O5  1  0.00000000  0.75356400  0.01613900  1
  O  O6  1  0.75356400  0.00000000  0.98386100  1
  O  O7  1  0.50000000  0.50000000  0.22898100  1
  O  O8  1  0.50000000  0.50000000  0.77101900  1
  O  O9  1  0.24643600  0.00000000  0.98386100  1
  O  O10  1  0.00000000  0.24643600  0.01613900  1
  O  O11  1  0.50000000  0.77022300  0.61411200  1
  O  O12  1  0.77022300  0.50000000  0.38588800  1
  O  O13  1  0.50000000  0.00000000  0.31730100  1
  O  O14  1  0.00000000  0.50000000  0.68269900  1
  O  O15  1  0.72977700  0.00000000  0.61411200  1
  O  O16  1  0.00000000  0.72977700  0.38588800  1
  O  O17  1  0.50000000  0.25356400  0.98386100  1
  O  O18  1  0.00000000  0.00000000  0.22898100  1
  O  O19  1  0.00000000  0.00000000  0.77101900  1
  O  O20  1  0.74643600  0.50000000  0.01613900  1
  O  O21  1  0.00000000  0.27022300  0.38588800  1
loop_
_geom_bond_atom_site_label_1
_geom_bond_atom_site_label_2
_geom_bond_distance
_geom_bond_site_symmetry_2
Bi0 O18 2.090589 1_555
Bi0 O19 2.090589 1_554
Bi0 O9 2.159995 1_554
Bi0 O5 2.159995 1_545
Bi0 O6 2.159995 1_454
Bi0 O10 2.159995 1_555
Bi1 O13 2.038384 1_555
Bi1 O4 2.118523 1_555
Bi1 O15 2.118523 1_555
Bi1 O11 2.118523 1_545
Bi1 O2 2.118523 1_555
Bi2 O7 2.090589 1_555
Bi2 O8 2.090589 1_554
Bi2 O0 2.159995 1_555
Bi2 O1 2.159995 1_554
Bi2 O20 2.159995 1_555
Bi2 O17 2.159995 1_554
Bi3 O14 2.038384 1_555
Bi3 O3 2.118523 1_555
Bi3 O12 2.118523 1_455
Bi3 O21 2.118523 1_555
Bi3 O16 2.118523 1_555
O0 Sr11 2.349656 1_554
O0 Sr2 2.629707 1_555
O0 Sr3 2.629707 1_555
O0 Sr1 3.177648 1_554
O0 Sr0 3.177648 1_554
O1 Sr6 2.349656 1_566
O1 Sr7 2.629707 1_555
O1 Sr0 2.629707 1_555
O1 Sr8 3.177648 1_556
O1 Sr3 3.177648 1_556
O2 Sr1 2.538670 1_555
O2 Sr0 2.538670 1_545
O2 Sr10 2.582451 1_555
O3 Sr3 2.538670 1_555
O3 Sr2 2.538670 1_555
O3 Sr4 2.582451 1_555
O4 Sr5 2.538670 1_555
O4 Sr1 2.538670 1_555
O4 Sr4 2.582451 1_555
O5 Sr11 2.349656 1_554
O5 Sr3 2.629707 1_555
O5 Sr8 2.629707 1_455
O5 Sr7 3.177648 1_454
O5 Sr0 3.177648 1_554
O6 Sr6 2.349656 1_556
O6 Sr7 2.629707 1_545
O6 Sr5 2.629707 1_555
O6 Sr8 3.177648 1_546
O6 Sr9 3.177648 1_556
O7 Sr4 2.474395 1_555
O7 Sr8 3.116333 1_555
O7 Sr2 3.116333 1_555
O7 Sr3 3.116333 1_555
O7 Sr9 3.116333 1_555
O8 Sr4 2.474395 1_555
O8 Sr0 3.116333 1_555
O8 Sr1 3.116333 1_555
O8 Sr7 3.116333 1_555
O8 Sr5 3.116333 1_555
O9 Sr6 2.349656 1_556
O9 Sr1 2.629707 1_555
O9 Sr0 2.629707 1_545
O9 Sr3 3.177648 1_546
O9 Sr2 3.177648 1_556
O10 Sr11 2.349656 1_554
O10 Sr2 2.629707 1_555
O10 Sr9 2.629707 1_455
O10 Sr1 3.177648 1_554
O10 Sr5 3.177648 1_454
O11 Sr7 2.538670 1_555
O11 Sr0 2.538670 1_555
O11 Sr4 2.582451 1_555
O12 Sr9 2.538670 1_555
O12 Sr8 2.538670 1_555
O12 Sr4 2.582451 1_555
O13 Sr6 2.266807 1_555
O14 Sr11 2.266807 1_555
O15 Sr7 2.538670 1_545
O15 Sr5 2.538670 1_555
O15 Sr10 2.582451 1_655
O16 Sr3 2.538670 1_555
O16 Sr8 2.538670 1_455
O16 Sr10 2.582451 1_565
O17 Sr6 2.349656 1_556
O17 Sr1 2.629707 1_555
O17 Sr5 2.629707 1_555
O17 Sr2 3.177648 1_556
O17 Sr9 3.177648 1_556
O18 Sr10 2.474395 1_555
O18 Sr3 3.116333 1_545
O18 Sr2 3.116333 1_555
O18 Sr9 3.116333 1_455
O18 Sr8 3.116333 1_445
O19 Sr10 2.474395 1_555
O19 Sr1 3.116333 1_555
O19 Sr5 3.116333 1_455
O19 Sr0 3.116333 1_545
O19 Sr7 3.116333 1_445
O20 Sr11 2.349656 1_654
O20 Sr8 2.629707 1_555
O20 Sr9 2.629707 1_555
O20 Sr5 3.177648 1_554
O20 Sr7 3.177648 1_554
O21 Sr9 2.538670 1_455
O21 Sr2 2.538670 1_555
O21 Sr10 2.582451 1_555
