# generated using pymatgen
data_Sr2YCu3(PbO4)2
_symmetry_space_group_name_H-M   'P 1'
_cell_length_a   5.43727800
_cell_length_b   5.48290400
_cell_length_c   15.96440200
_cell_angle_alpha   90.00000000
_cell_angle_beta   90.00000000
_cell_angle_gamma   90.00000000
_symmetry_Int_Tables_number   1
_chemical_formula_structural   Sr2YCu3(PbO4)2
_chemical_formula_sum   'Sr4 Y2 Cu6 Pb4 O16'
_cell_volume   475.93192254
_cell_formula_units_Z   2
loop_
 _symmetry_equiv_pos_site_id
 _symmetry_equiv_pos_as_xyz
  1  'x, y, z'
loop_
 _atom_site_type_symbol
 _atom_site_label
 _atom_site_symmetry_multiplicity
 _atom_site_fract_x
 _atom_site_fract_y
 _atom_site_fract_z
 _atom_site_occupancy
  Sr  Sr0  1  0.24972900  0.49893100  0.22110200  1
  Sr  Sr1  1  0.75027100  0.00106900  0.22110200  1
  Sr  Sr2  1  0.75027100  0.99893100  0.77889800  1
  Sr  Sr3  1  0.24972900  0.50106900  0.77889800  1
  Y  Y0  1  0.74986300  0.00000000  0.00000000  1
  Y  Y1  1  0.25013700  0.50000000  0.00000000  1
  Cu  Cu0  1  0.23500900  0.50000000  0.50000000  1
  Cu  Cu1  1  0.76499100  0.00000000  0.50000000  1
  Cu  Cu2  1  0.74985700  0.50041700  0.10503700  1
  Cu  Cu3  1  0.25014300  0.99958300  0.10503700  1
  Cu  Cu4  1  0.25014300  0.00041700  0.89496300  1
  Cu  Cu5  1  0.74985700  0.49958300  0.89496300  1
  Pb  Pb0  1  0.24294900  0.00886500  0.38848700  1
  Pb  Pb1  1  0.75705100  0.49113500  0.38848700  1
  Pb  Pb2  1  0.75705100  0.50886500  0.61151300  1
  Pb  Pb3  1  0.24294900  0.99113500  0.61151300  1
  O  O0  1  0.74667100  0.50783100  0.25152500  1
  O  O1  1  0.25332900  0.99216900  0.25152500  1
  O  O2  1  0.25332900  0.00783100  0.74847500  1
  O  O3  1  0.74667100  0.49216900  0.74847500  1
  O  O4  1  0.22353000  0.44361500  0.38446600  1
  O  O5  1  0.77647000  0.05638500  0.38446600  1
  O  O6  1  0.77647000  0.94361500  0.61553400  1
  O  O7  1  0.22353000  0.55638500  0.61553400  1
  O  O8  1  0.50000000  0.75000000  0.09129300  1
  O  O9  1  0.50000000  0.25000000  0.90870700  1
  O  O10  1  0.00000000  0.25000000  0.09264500  1
  O  O11  1  0.00000000  0.75000000  0.90735500  1
  O  O12  1  0.50000000  0.25000000  0.09243100  1
  O  O13  1  0.50000000  0.75000000  0.90756900  1
  O  O14  1  0.00000000  0.75000000  0.09177300  1
  O  O15  1  0.00000000  0.25000000  0.90822700  1
loop_
_geom_bond_atom_site_label_1
_geom_bond_atom_site_label_2
_geom_bond_distance
_geom_bond_site_symmetry_2
Cu0 O7 1.871202 1_555
Cu0 O4 1.871202 1_555
Cu1 O5 1.871202 1_555
Cu1 O6 1.871202 1_545
Cu2 O8 1.940723 1_555
Cu2 O14 1.940961 1_655
Cu2 O12 1.941983 1_555
Cu2 O10 1.942721 1_655
Cu2 O0 2.339011 1_555
Cu3 O8 1.940723 1_555
Cu3 O14 1.940961 1_555
Cu3 O12 1.941983 1_565
Cu3 O10 1.942721 1_565
Cu3 O1 2.339011 1_555
Cu4 O9 1.940723 1_555
Cu4 O15 1.940961 1_555
Cu4 O13 1.941983 1_545
Cu4 O11 1.942721 1_545
Cu4 O2 2.339011 1_555
Cu5 O9 1.940723 1_555
Cu5 O15 1.940961 1_655
Cu5 O13 1.941983 1_555
Cu5 O11 1.942721 1_655
Cu5 O3 2.339011 1_555
O0 Pb1 2.189160 1_555
O0 Sr0 2.745749 1_555
O0 Sr1 2.747713 1_565
O0 Sr0 2.778480 1_655
O0 Sr1 2.820725 1_555
O1 Pb0 2.189160 1_565
O1 Sr1 2.745749 1_565
O1 Sr0 2.747713 1_555
O1 Sr1 2.778480 1_465
O1 Sr0 2.820725 1_565
O2 Pb3 2.189160 1_545
O2 Sr2 2.745749 1_545
O2 Sr3 2.747713 1_555
O2 Sr2 2.778480 1_445
O2 Sr3 2.820725 1_545
O3 Pb2 2.189160 1_555
O3 Sr3 2.745749 1_555
O3 Sr2 2.747713 1_545
O3 Sr3 2.778480 1_655
O3 Sr2 2.820725 1_555
O4 Pb0 2.386893 1_555
O4 Pb1 2.550531 1_455
O4 Sr0 2.629446 1_555
O5 Pb1 2.386893 1_555
O5 Pb0 2.550531 1_655
O5 Sr1 2.629446 1_555
O6 Pb2 2.386893 1_555
O6 Pb3 2.550531 1_655
O6 Sr2 2.629446 1_555
O7 Pb3 2.386893 1_555
O7 Pb2 2.550531 1_455
O7 Sr3 2.629446 1_555
O8 Y0 2.418417 1_565
O8 Y1 2.418417 1_555
O8 Sr1 2.835714 1_565
O8 Sr0 2.835714 1_555
O9 Y0 2.418417 1_556
O9 Y1 2.418417 1_556
O9 Sr2 2.835714 1_545
O9 Sr3 2.835714 1_555
O10 Y1 2.432318 1_555
O10 Y0 2.432318 1_455
O10 Sr0 2.812851 1_555
O10 Sr1 2.812851 1_455
O11 Y1 2.432318 1_556
O11 Y0 2.432318 1_466
O11 Sr3 2.812851 1_555
O11 Sr2 2.812851 1_455
O12 Y0 2.429409 1_555
O12 Y1 2.429409 1_555
O12 Sr0 2.816766 1_555
O12 Sr1 2.816766 1_555
O13 Y0 2.429409 1_566
O13 Y1 2.429409 1_556
O13 Sr2 2.816766 1_555
O13 Sr3 2.816766 1_555
O14 Y1 2.423878 1_555
O14 Y0 2.423878 1_465
O14 Sr1 2.828703 1_465
O14 Sr0 2.828703 1_555
O15 Y1 2.423878 1_556
O15 Y0 2.423878 1_456
O15 Sr3 2.828703 1_555
O15 Sr2 2.828703 1_445
