# generated using pymatgen
data_In3AsSe3
_symmetry_space_group_name_H-M   'P 1'
_cell_length_a   4.24630300
_cell_length_b   6.13005500
_cell_length_c   17.09165300
_cell_angle_alpha   90.00000000
_cell_angle_beta   90.00000000
_cell_angle_gamma   90.00000000
_symmetry_Int_Tables_number   1
_chemical_formula_structural   In3AsSe3
_chemical_formula_sum   'In6 As2 Se6'
_cell_volume   444.89694001
_cell_formula_units_Z   2
loop_
 _symmetry_equiv_pos_site_id
 _symmetry_equiv_pos_as_xyz
  1  'x, y, z'
loop_
 _atom_site_type_symbol
 _atom_site_label
 _atom_site_symmetry_multiplicity
 _atom_site_fract_x
 _atom_site_fract_y
 _atom_site_fract_z
 _atom_site_occupancy
  In  In0  1  0.50000000  0.49223000  0.93391900  1
  In  In1  1  0.00000000  0.99223000  0.06608100  1
  In  In2  1  0.00000000  0.99754700  0.30580400  1
  In  In3  1  0.50000000  0.49046400  0.43676700  1
  In  In4  1  0.00000000  0.99046400  0.56323300  1
  In  In5  1  0.50000000  0.49754700  0.69419600  1
  As  As0  1  0.00000000  0.74862900  0.43434800  1
  As  As1  1  0.50000000  0.24862900  0.56565200  1
  Se  Se0  1  0.50000000  0.24406400  0.81336500  1
  Se  Se1  1  0.00000000  0.76116600  0.93394900  1
  Se  Se2  1  0.50000000  0.26116600  0.06605100  1
  Se  Se3  1  0.00000000  0.74406400  0.18663500  1
  Se  Se4  1  0.50000000  0.26590000  0.30450000  1
  Se  Se5  1  0.00000000  0.76590000  0.69550000  1
loop_
_geom_bond_atom_site_label_1
_geom_bond_atom_site_label_2
_geom_bond_distance
_geom_bond_site_symmetry_2
In0 Se0 2.561209 1_555
In0 Se2 2.665793 1_556
In0 Se1 2.688053 1_555
In0 Se1 2.688053 1_655
In1 Se3 2.561209 1_555
In1 Se1 2.665793 1_554
In1 Se2 2.688053 1_465
In1 Se2 2.688053 1_565
In2 Se3 2.561841 1_555
In2 Se4 2.685955 1_465
In2 Se4 2.685955 1_565
In3 Se4 2.646808 1_555
In4 Se5 2.646808 1_555
In5 Se0 2.561841 1_555
In5 Se5 2.685955 1_655
In5 Se5 2.685955 1_555
As0 In3 2.648395 1_555
As0 In3 2.648395 1_455
As0 In4 2.655235 1_555
As0 In2 2.674930 1_555
As1 In4 2.648395 1_545
As1 In4 2.648395 1_645
As1 In3 2.655235 1_555
As1 In5 2.674930 1_555
