# generated using pymatgen
data_CsGaCl4
_symmetry_space_group_name_H-M   'P 1'
_cell_length_a   7.10849017
_cell_length_b   9.46836632
_cell_length_c   11.80759526
_cell_angle_alpha   90.00000000
_cell_angle_beta   90.00000000
_cell_angle_gamma   90.00000000
_symmetry_Int_Tables_number   1
_chemical_formula_structural   CsGaCl4
_chemical_formula_sum   'Cs4 Ga4 Cl16'
_cell_volume   794.71951412
_cell_formula_units_Z   4
loop_
 _symmetry_equiv_pos_site_id
 _symmetry_equiv_pos_as_xyz
  1  'x, y, z'
loop_
 _atom_site_type_symbol
 _atom_site_label
 _atom_site_symmetry_multiplicity
 _atom_site_fract_x
 _atom_site_fract_y
 _atom_site_fract_z
 _atom_site_occupancy
  Cs  Cs0  1  0.75000000  0.66516156  0.31931999  1
  Cs  Cs1  1  0.75000000  0.83483844  0.81931999  1
  Cs  Cs2  1  0.25000000  0.16516156  0.18068001  1
  Cs  Cs3  1  0.25000000  0.33483844  0.68068001  1
  Ga  Ga0  1  0.75000000  0.30621415  0.92759421  1
  Ga  Ga1  1  0.25000000  0.80621415  0.57240579  1
  Ga  Ga2  1  0.25000000  0.69378585  0.07240579  1
  Ga  Ga3  1  0.75000000  0.19378585  0.42759421  1
  Cl  Cl0  1  0.25000000  0.54945732  0.21638170  1
  Cl  Cl1  1  0.75000000  0.04945732  0.28361830  1
  Cl  Cl2  1  0.25000000  0.91459782  0.41006971  1
  Cl  Cl3  1  0.50205370  0.33038277  0.41479934  1
  Cl  Cl4  1  0.75000000  0.08540218  0.58993029  1
  Cl  Cl5  1  0.75000000  0.41459782  0.08993029  1
  Cl  Cl6  1  0.25000000  0.58540218  0.91006971  1
  Cl  Cl7  1  0.49794630  0.83038277  0.08520066  1
  Cl  Cl8  1  0.99794630  0.33038277  0.41479934  1
  Cl  Cl9  1  0.49794630  0.66961723  0.58520066  1
  Cl  Cl10  1  0.99794630  0.16961723  0.91479934  1
  Cl  Cl11  1  0.50205370  0.16961723  0.91479934  1
  Cl  Cl12  1  0.75000000  0.45054268  0.78361830  1
  Cl  Cl13  1  0.00205370  0.83038277  0.08520066  1
  Cl  Cl14  1  0.00205370  0.66961723  0.58520066  1
  Cl  Cl15  1  0.25000000  0.95054268  0.71638170  1
loop_
_geom_bond_atom_site_label_1
_geom_bond_atom_site_label_2
_geom_bond_distance
_geom_bond_site_symmetry_2
Cl0 Ga2 2.181171 1_555
Cl0 Cs2 3.662991 1_555
Cl0 Cs0 3.912821 1_455
Cl0 Cs0 3.912821 1_555
Cl1 Ga3 2.181171 1_555
Cl1 Cs0 3.662991 1_545
Cl1 Cs2 3.912821 1_555
Cl1 Cs2 3.912821 1_655
Cl2 Ga1 2.174221 1_555
Cl2 Cs2 3.600641 1_565
Cl3 Ga3 2.191362 1_555
Cl3 Cs3 3.614962 1_555
Cl3 Cs2 3.646830 1_555
Cl3 Cs0 3.798047 1_555
Cl4 Ga3 2.174221 1_555
Cl4 Cs1 3.600641 1_545
Cl5 Ga0 2.174221 1_554
Cl5 Cs0 3.600641 1_555
Cl6 Ga2 2.174221 1_556
Cl6 Cs3 3.600641 1_555
Cl7 Ga2 2.191362 1_555
Cl7 Cs1 3.614962 1_554
Cl7 Cs0 3.646830 1_555
Cl7 Cs2 3.798047 1_565
Cl8 Ga3 2.191362 1_555
Cl8 Cs3 3.614962 1_655
Cl8 Cs2 3.646830 1_655
Cl8 Cs0 3.798047 1_555
Cl9 Ga1 2.191362 1_555
Cl9 Cs0 3.614962 1_555
Cl9 Cs1 3.646830 1_555
Cl9 Cs3 3.798047 1_555
Cl10 Ga0 2.191362 1_555
Cl10 Cs2 3.614962 1_656
Cl10 Cs3 3.646830 1_655
Cl10 Cs1 3.798047 1_545
Cl11 Ga0 2.191362 1_555
Cl11 Cs2 3.614962 1_556
Cl11 Cs3 3.646830 1_555
Cl11 Cs1 3.798047 1_545
Cl12 Ga0 2.181171 1_555
Cl12 Cs1 3.662991 1_555
Cl12 Cs3 3.912821 1_655
Cl12 Cs3 3.912821 1_555
Cl13 Ga2 2.191362 1_555
Cl13 Cs1 3.614962 1_454
Cl13 Cs0 3.646830 1_455
Cl13 Cs2 3.798047 1_565
Cl14 Ga1 2.191362 1_555
Cl14 Cs0 3.614962 1_455
Cl14 Cs1 3.646830 1_455
Cl14 Cs3 3.798047 1_555
Cl15 Ga1 2.181171 1_555
Cl15 Cs3 3.662991 1_565
Cl15 Cs1 3.912821 1_455
Cl15 Cs1 3.912821 1_555
