# generated using pymatgen
data_Lu2TiO5
_symmetry_space_group_name_H-M   'P 1'
_cell_length_a   7.26648500
_cell_length_b   7.30712655
_cell_length_c   17.50859543
_cell_angle_alpha   91.15365932
_cell_angle_beta   89.89614588
_cell_angle_gamma   119.34168787
_symmetry_Int_Tables_number   1
_chemical_formula_structural   Lu2TiO5
_chemical_formula_sum   'Lu16 Ti8 O40'
_cell_volume   810.19440927
_cell_formula_units_Z   8
loop_
 _symmetry_equiv_pos_site_id
 _symmetry_equiv_pos_as_xyz
  1  'x, y, z'
loop_
 _atom_site_type_symbol
 _atom_site_label
 _atom_site_symmetry_multiplicity
 _atom_site_fract_x
 _atom_site_fract_y
 _atom_site_fract_z
 _atom_site_occupancy
  Lu  Lu0  1  0.47757500  0.46158100  0.00711900  1
  Lu  Lu1  1  0.65781800  0.33593200  0.83044100  1
  Lu  Lu2  1  0.81656900  0.14479000  0.67333200  1
  Lu  Lu3  1  0.34304000  0.15223200  0.67156100  1
  Lu  Lu4  1  0.14586400  0.29785500  0.84068300  1
  Lu  Lu5  1  0.97080600  0.95935600  0.50248000  1
  Lu  Lu6  1  0.16704900  0.85375700  0.84193900  1
  Lu  Lu7  1  0.17018000  0.84421400  0.33250300  1
  Lu  Lu8  1  0.52568600  0.01259700  0.48897100  1
  Lu  Lu9  1  0.64039300  0.79181800  0.33025700  1
  Lu  Lu10  1  0.81486200  0.66227900  0.66971000  1
  Lu  Lu11  1  0.32249300  0.63435700  0.17487500  1
  Lu  Lu12  1  0.51398900  0.49811600  0.49191700  1
  Lu  Lu13  1  0.00180900  0.52029700  0.00976700  1
  Lu  Lu14  1  0.80659400  0.63298700  0.17548900  1
  Lu  Lu15  1  0.84392100  0.17285700  0.17587900  1
  Ti  Ti0  1  0.97294700  0.96941500  0.00478500  1
  Ti  Ti1  1  0.32088300  0.65613000  0.67091100  1
  Ti  Ti2  1  0.66020100  0.31835000  0.33042000  1
  Ti  Ti3  1  0.49040900  0.96336700  0.00014400  1
  Ti  Ti4  1  0.67799700  0.81929800  0.83527300  1
  Ti  Ti5  1  0.33378300  0.16586300  0.16333200  1
  Ti  Ti6  1  0.16091700  0.32832600  0.33652000  1
  Ti  Ti7  1  0.97438100  0.46577900  0.50551700  1
  O  O0  1  0.17342500  0.85647800  0.96855100  1
  O  O1  1  0.61511300  0.79407500  0.72598000  1
  O  O2  1  0.15242700  0.35804000  0.95918700  1
  O  O3  1  0.84945200  0.66164000  0.80048000  1
  O  O4  1  0.46218600  0.47703500  0.61161500  1
  O  O5  1  0.50496000  0.55411300  0.87623900  1
  O  O6  1  0.68014300  0.34028300  0.69959000  1
  O  O7  1  0.68645500  0.34053700  0.44784300  1
  O  O8  1  0.69011400  0.34894700  0.95293900  1
  O  O9  1  0.82668700  0.16476500  0.80040900  1
  O  O10  1  0.32458700  0.15800800  0.79881200  1
  O  O11  1  0.48687800  0.97852500  0.61264200  1
  O  O12  1  0.49284200  0.90987300  0.88576900  1
  O  O13  1  0.17370200  0.40692100  0.72200100  1
  O  O14  1  0.17427000  0.42844700  0.44558700  1
  O  O15  1  0.90304700  0.30810100  0.30593400  1
  O  O16  1  0.85442100  0.19408700  0.54143800  1
  O  O17  1  0.01786600  0.04179300  0.36559100  1
  O  O18  1  0.13378600  0.12990600  0.08426400  1
  O  O19  1  0.19688300  0.87481700  0.45936900  1
  O  O20  1  0.01366100  0.00368600  0.62919200  1
  O  O21  1  0.19338100  0.79631700  0.71877400  1
  O  O22  1  0.94784400  0.96951800  0.89086800  1
  O  O23  1  0.64496800  0.80902900  0.45659800  1
  O  O24  1  0.83583200  0.63861000  0.30218400  1
  O  O25  1  0.67529300  0.85032800  0.20769200  1
  O  O26  1  0.83823800  0.64255400  0.54162100  1
  O  O27  1  0.51714800  0.02763100  0.35201400  1
  O  O28  1  0.47922200  0.12788300  0.07908700  1
  O  O29  1  0.19475300  0.89128600  0.20443800  1
  O  O30  1  0.37920700  0.70602200  0.04653300  1
  O  O31  1  0.29894100  0.63744600  0.29964000  1
  O  O32  1  0.48590800  0.47441800  0.13256400  1
  O  O33  1  0.45748600  0.41639300  0.35529500  1
  O  O34  1  0.14301800  0.57720300  0.58761500  1
  O  O35  1  0.99008300  0.48421700  0.13063800  1
  O  O36  1  0.16694900  0.27065000  0.22303100  1
  O  O37  1  0.81912400  0.70200000  0.04534200  1
  O  O38  1  0.60598500  0.27142600  0.21992600  1
  O  O39  1  0.77021600  0.04876900  0.03221700  1
loop_
_geom_bond_atom_site_label_1
_geom_bond_atom_site_label_2
_geom_bond_distance
_geom_bond_site_symmetry_2
Lu0 O32 2.196157 1_555
Lu0 O2 2.255820 1_554
Lu0 O8 2.274077 1_554
Lu0 O30 2.318907 1_555
Lu0 O37 2.319358 1_555
Lu0 O5 2.382589 1_554
Lu0 O28 2.772351 1_555
Lu0 O18 2.850418 1_555
Lu1 O8 2.153111 1_555
Lu1 O3 2.162926 1_555
Lu1 O10 2.179642 1_555
Lu1 O9 2.195874 1_555
Lu1 O6 2.296218 1_555
Lu1 O5 2.469656 1_555
Lu2 O6 2.143466 1_555
Lu2 O9 2.225773 1_555
Lu2 O20 2.263301 1_655
Lu2 O11 2.334368 1_545
Lu2 O16 2.339289 1_555
Lu2 O1 2.444135 1_545
Lu2 O13 2.490048 1_655
Lu3 O6 2.192665 1_555
Lu3 O20 2.210189 1_555
Lu3 O10 2.232568 1_555
Lu3 O11 2.238588 1_545
Lu3 O4 2.359515 1_555
Lu3 O21 2.437459 1_545
Lu3 O13 2.816324 1_555
Lu4 O2 2.108008 1_555
Lu4 O10 2.129614 1_555
Lu4 O9 2.142415 1_455
Lu4 O13 2.213849 1_555
Lu4 O22 2.301235 1_445
Lu4 O5 2.423443 1_555
Lu5 O19 2.149735 1_655
Lu5 O26 2.152316 1_555
Lu5 O23 2.209165 1_555
Lu5 O20 2.235748 1_665
Lu5 O16 2.344106 1_565
Lu5 O17 2.465242 1_665
Lu6 O10 2.096070 1_565
Lu6 O3 2.147930 1_455
Lu6 O21 2.214453 1_555
Lu6 O0 2.216852 1_555
Lu6 O22 2.296282 1_455
Lu6 O12 2.324661 1_555
Lu7 O24 2.199302 1_455
Lu7 O31 2.199478 1_555
Lu7 O27 2.223212 1_565
Lu7 O19 2.227246 1_555
Lu7 O29 2.268753 1_555
Lu7 O17 2.274855 1_565
Lu8 O23 2.124387 1_545
Lu8 O19 2.148668 1_545
Lu8 O11 2.186491 1_545
Lu8 O7 2.224510 1_555
Lu8 O16 2.272219 1_555
Lu8 O27 2.404950 1_555
Lu9 O25 2.186522 1_555
Lu9 O23 2.212480 1_555
Lu9 O31 2.225643 1_555
Lu9 O24 2.246147 1_555
Lu9 O27 2.323991 1_565
Lu9 O33 2.440754 1_555
Lu9 O17 2.508626 1_665
Lu10 O6 2.135036 1_555
Lu10 O26 2.255824 1_555
Lu10 O3 2.304155 1_555
Lu10 O1 2.308986 1_555
Lu10 O20 2.312861 1_665
Lu10 O4 2.447190 1_555
Lu10 O21 2.568472 1_655
Lu11 O32 2.155619 1_555
Lu11 O31 2.191371 1_555
Lu11 O35 2.239066 1_455
Lu11 O30 2.307811 1_555
Lu11 O25 2.323068 1_555
Lu11 O36 2.488858 1_555
Lu11 O29 2.514195 1_555
Lu12 O23 2.094043 1_555
Lu12 O4 2.123883 1_555
Lu12 O7 2.206084 1_555
Lu12 O26 2.226220 1_555
Lu12 O14 2.402081 1_555
Lu12 O33 2.439852 1_555
Lu13 O35 2.134294 1_455
Lu13 O2 2.147967 1_554
Lu13 O8 2.205977 1_454
Lu13 O0 2.275138 1_554
Lu13 O37 2.367289 1_455
Lu13 O30 2.469918 1_555
Lu14 O32 2.159318 1_555
Lu14 O24 2.226421 1_555
Lu14 O35 2.226761 1_555
Lu14 O25 2.279773 1_555
Lu14 O37 2.335712 1_555
Lu14 O38 2.452467 1_555
Lu14 O29 2.554243 1_655
Lu15 O25 2.141550 1_545
Lu15 O35 2.152468 1_555
Lu15 O36 2.245291 1_655
Lu15 O38 2.301314 1_555
Lu15 O15 2.417258 1_555
Lu15 O39 2.621631 1_555
Lu15 O18 2.779085 1_655
Lu15 O28 3.023780 1_555
O0 Ti0 2.087927 1_456
O0 Ti3 2.108454 1_556
O1 Ti4 1.952162 1_555
O1 Ti1 2.091190 1_555
O2 Ti0 2.619213 1_446
O3 Ti4 2.150833 1_555
O4 Ti1 2.258989 1_555
O5 Ti4 1.874877 1_555
O7 Ti2 2.060859 1_555
O7 Ti7 2.080507 1_555
O8 Ti3 2.609521 1_546
O9 Ti4 2.301976 1_545
O11 Ti1 2.313646 1_555
O12 Ti4 1.968419 1_555
O12 Ti3 2.034310 1_556
O13 Ti1 1.847560 1_555
O14 Ti7 1.912175 1_455
O14 Ti6 2.016459 1_555
O15 Ti2 1.851710 1_555
O15 Ti6 1.883835 1_655
O16 Ti7 1.857161 1_555
O17 Ti6 1.905614 1_555
O18 Ti0 1.809593 1_445
O18 Ti5 1.927681 1_555
O19 Ti7 2.748985 1_455
O21 Ti1 1.871553 1_555
O22 Ti4 1.962594 1_555
O22 Ti0 2.003229 1_556
O24 Ti2 2.113512 1_555
O26 Ti7 2.064948 1_555
O27 Ti2 1.898162 1_555
O28 Ti3 1.841366 1_545
O28 Ti5 1.906535 1_555
O29 Ti5 1.906082 1_565
O30 Ti3 1.848969 1_555
O31 Ti6 2.088328 1_555
O32 Ti5 2.049337 1_555
O33 Ti6 1.949669 1_555
O33 Ti2 1.972833 1_555
O34 Ti7 1.792249 1_455
O34 Ti1 1.836416 1_555
O36 Ti5 2.005337 1_555
O36 Ti6 2.027783 1_555
O37 Ti0 1.866638 1_555
O38 Ti2 1.964458 1_555
O38 Ti5 1.992539 1_555
O39 Ti0 1.886908 1_545
O39 Ti3 1.893483 1_545
