# generated using pymatgen
data_Fe6W6C
_symmetry_space_group_name_H-M   'P 1'
_cell_length_a   7.79563673
_cell_length_b   7.79567113
_cell_length_c   7.79565721
_cell_angle_alpha   60.00011324
_cell_angle_beta   59.99989207
_cell_angle_gamma   59.99993816
_symmetry_Int_Tables_number   1
_chemical_formula_structural   Fe6W6C
_chemical_formula_sum   'Fe12 W12 C2'
_cell_volume   334.99833898
_cell_formula_units_Z   2
loop_
 _symmetry_equiv_pos_site_id
 _symmetry_equiv_pos_as_xyz
  1  'x, y, z'
loop_
 _atom_site_type_symbol
 _atom_site_label
 _atom_site_symmetry_multiplicity
 _atom_site_fract_x
 _atom_site_fract_y
 _atom_site_fract_z
 _atom_site_occupancy
  Fe  Fe0  1  0.91855925  0.24429337  0.91857563  1
  Fe  Fe1  1  0.33144301  0.00569826  0.33142913  1
  Fe  Fe2  1  0.33144463  0.33142902  0.33142924  1
  Fe  Fe3  1  0.00570151  0.33143139  0.33143352  1
  Fe  Fe4  1  0.91855810  0.91857641  0.24429321  1
  Fe  Fe5  1  0.24428917  0.91857161  0.91857094  1
  Fe  Fe6  1  0.33144458  0.33142709  0.00569941  1
  Fe  Fe7  1  0.12500104  0.12500497  0.62499936  1
  Fe  Fe8  1  0.91855798  0.91857580  0.91857496  1
  Fe  Fe9  1  0.12500049  0.62499523  0.12500552  1
  Fe  Fe10  1  0.12499296  0.12500089  0.12499908  1
  Fe  Fe11  1  0.62500299  0.12500288  0.12500230  1
  W  W0  1  0.30486731  0.69511345  0.69511654  1
  W  W1  1  0.30486719  0.30489539  0.69511907  1
  W  W2  1  0.55494771  0.94505513  0.55494307  1
  W  W3  1  0.94505755  0.55494387  0.55494598  1
  W  W4  1  0.55494616  0.94505360  0.94505376  1
  W  W5  1  0.69512911  0.30488626  0.30488063  1
  W  W6  1  0.94505502  0.55494244  0.94505223  1
  W  W7  1  0.30487216  0.69511729  0.30488888  1
  W  W8  1  0.55494813  0.55494020  0.94505637  1
  W  W9  1  0.69513052  0.30488183  0.69510865  1
  W  W10  1  0.69512726  0.69511298  0.30487803  1
  W  W11  1  0.94505527  0.94505134  0.55494386  1
  C  C0  1  0.75000236  0.74999922  0.74999962  1
  C  C1  1  0.49999854  0.50000006  0.50000102  1
loop_
_geom_bond_atom_site_label_1
_geom_bond_atom_site_label_2
_geom_bond_distance
_geom_bond_site_symmetry_2
Fe0 Fe11 2.374965 1_556
Fe0 Fe10 2.375030 1_656
Fe0 Fe7 2.375085 1_655
Fe0 Fe4 2.539187 1_546
Fe0 Fe8 2.539195 1_545
Fe0 Fe5 2.539244 1_645
Fe0 W8 2.644303 1_555
Fe0 W6 2.644366 1_555
Fe0 W3 2.644410 1_555
Fe0 W5 2.771360 1_556
Fe0 W9 2.771363 1_555
Fe0 W1 2.771403 1_655
Fe1 Fe11 2.375047 1_555
Fe1 Fe7 2.375122 1_555
Fe1 Fe10 2.375154 1_555
Fe1 Fe6 2.539280 1_555
Fe1 Fe2 2.539297 1_555
Fe1 Fe3 2.539333 1_555
Fe1 W10 2.644430 1_545
Fe1 W0 2.644455 1_545
Fe1 W7 2.644461 1_545
Fe1 W2 2.771989 1_545
Fe1 W4 2.771992 1_544
Fe1 W11 2.772077 1_445
Fe2 Fe9 2.375081 1_555
Fe2 Fe7 2.375088 1_555
Fe2 Fe6 2.539286 1_555
Fe2 Fe3 2.539349 1_555
Fe2 W7 2.644427 1_555
Fe2 W1 2.644440 1_555
Fe2 W5 2.644454 1_555
Fe2 W8 2.771971 1_554
Fe2 W2 2.771984 1_545
Fe2 W3 2.772064 1_455
Fe3 Fe9 2.375058 1_555
Fe3 Fe7 2.375070 1_555
Fe3 Fe6 2.539339 1_555
Fe3 W5 2.644326 1_455
Fe3 W9 2.644342 1_455
Fe3 W10 2.644386 1_455
Fe3 W3 2.772032 1_455
Fe3 W11 2.772039 1_445
Fe3 W6 2.772044 1_454
Fe4 Fe9 2.375116 1_655
Fe4 Fe8 2.539191 1_554
Fe4 Fe5 2.539246 1_654
Fe4 W2 2.644306 1_555
Fe4 W11 2.644373 1_555
Fe4 W3 2.644432 1_555
Fe4 W10 2.771368 1_555
Fe4 W5 2.771381 1_565
Fe4 W7 2.771426 1_655
Fe5 Fe7 2.375060 1_565
Fe5 Fe9 2.375095 1_556
Fe5 Fe8 2.539250 1_455
Fe5 W4 2.644384 1_555
Fe5 W2 2.644416 1_555
Fe5 W8 2.644438 1_555
Fe5 W7 2.771423 1_556
Fe5 W1 2.771450 1_565
Fe5 W0 2.771515 1_555
Fe6 Fe9 2.375110 1_555
Fe6 W1 2.644443 1_554
Fe6 W0 2.644445 1_554
Fe6 W9 2.644452 1_554
Fe6 W8 2.771979 1_554
Fe6 W4 2.771988 1_544
Fe6 W6 2.772091 1_454
Fe7 Fe8 2.375119 1_445
Fe7 W9 2.780418 1_455
Fe7 W1 2.780454 1_555
Fe7 W0 2.780564 1_545
Fe7 W3 2.780956 1_455
Fe7 W2 2.780989 1_545
Fe7 W11 2.781055 1_445
Fe8 Fe9 2.375135 1_656
Fe8 W4 2.644331 1_555
Fe8 W11 2.644436 1_555
Fe8 W6 2.644454 1_555
Fe8 W10 2.771344 1_556
Fe8 W9 2.771359 1_565
Fe8 W0 2.771441 1_655
Fe9 W10 2.780425 1_455
Fe9 W7 2.780455 1_555
Fe9 W0 2.780539 1_554
Fe9 W3 2.780962 1_455
Fe9 W8 2.780996 1_554
Fe9 W6 2.781035 1_454
Fe10 Fe5 2.375024 1_544
Fe10 Fe4 2.375042 1_445
Fe10 Fe3 2.375083 1_555
Fe10 Fe6 2.375147 1_555
Fe10 W5 2.780387 1_455
Fe10 W1 2.780490 1_554
Fe10 W7 2.780515 1_545
Fe10 W6 2.780971 1_454
Fe10 W11 2.780986 1_445
Fe10 W4 2.781026 1_544
Fe11 Fe4 2.374960 1_545
Fe11 Fe8 2.374992 1_544
Fe11 Fe2 2.374994 1_555
Fe11 Fe6 2.375031 1_555
Fe11 W5 2.780524 1_555
Fe11 W10 2.780547 1_545
Fe11 W9 2.780563 1_554
Fe11 W8 2.780947 1_554
Fe11 W2 2.780964 1_545
Fe11 W4 2.781052 1_544
C0 W11 2.150400 1_555
C0 W6 2.150401 1_555
C0 W4 2.150417 1_555
C0 W3 2.150419 1_555
C0 W2 2.150434 1_555
C0 W8 2.150446 1_555
C1 W0 2.151080 1_555
C1 W5 2.151109 1_555
C1 W1 2.151122 1_555
C1 W7 2.151136 1_555
C1 W9 2.151142 1_555
C1 W10 2.151153 1_555
