# generated using pymatgen
data_ReSeCl
_symmetry_space_group_name_H-M   'P 1'
_cell_length_a   9.34491350
_cell_length_b   9.34516927
_cell_length_c   11.31675013
_cell_angle_alpha   89.99556122
_cell_angle_beta   90.00237912
_cell_angle_gamma   103.78862754
_symmetry_Int_Tables_number   1
_chemical_formula_structural   ReSeCl
_chemical_formula_sum   'Re12 Se12 Cl12'
_cell_volume   959.80858886
_cell_formula_units_Z   12
loop_
 _symmetry_equiv_pos_site_id
 _symmetry_equiv_pos_as_xyz
  1  'x, y, z'
loop_
 _atom_site_type_symbol
 _atom_site_label
 _atom_site_symmetry_multiplicity
 _atom_site_fract_x
 _atom_site_fract_y
 _atom_site_fract_z
 _atom_site_occupancy
  Re  Re0  1  0.37242942  0.62757668  0.25000422  1
  Re  Re1  1  0.31605006  0.82270495  0.10271830  1
  Re  Re2  1  0.39011047  0.89730953  0.32218958  1
  Re  Re3  1  0.62756242  0.37241963  0.74999558  1
  Re  Re4  1  0.60989179  0.10268262  0.82219331  1
  Re  Re5  1  0.68394050  0.17730848  0.60272001  1
  Re  Re6  1  0.82269901  0.31604403  0.89727985  1
  Re  Re7  1  0.89731074  0.39011600  0.67780674  1
  Re  Re8  1  0.87926259  0.12075656  0.75000739  1
  Re  Re9  1  0.10267883  0.60989828  0.17779815  1
  Re  Re10  1  0.17729991  0.68393741  0.39727469  1
  Re  Re11  1  0.12074100  0.87925850  0.24999946  1
  Se  Se0  1  0.29519932  0.55982409  0.03859715  1
  Se  Se1  1  0.44018188  0.70480321  0.46141125  1
  Se  Se2  1  0.33348624  0.08098572  0.17618183  1
  Se  Se3  1  0.55982991  0.29515898  0.96140823  1
  Se  Se4  1  0.70481116  0.44017305  0.53859426  1
  Se  Se5  1  0.66652795  0.91904854  0.67618565  1
  Se  Se6  1  0.91900870  0.66649589  0.32380717  1
  Se  Se7  1  0.80027943  0.05685674  0.96116022  1
  Se  Se8  1  0.94311984  0.19973701  0.53885092  1
  Se  Se9  1  0.08098119  0.33349847  0.82382906  1
  Se  Se10  1  0.05686670  0.80029446  0.03883549  1
  Se  Se11  1  0.19973779  0.94310230  0.46116933  1
  Cl  Cl0  1  0.46792079  0.53207655  0.74999933  1
  Cl  Cl1  1  0.42861362  0.16842081  0.67862791  1
  Cl  Cl2  1  0.40925074  0.90078662  0.90030066  1
  Cl  Cl3  1  0.53208188  0.46792078  0.25000035  1
  Cl  Cl4  1  0.59074237  0.09920399  0.40030872  1
  Cl  Cl5  1  0.57137264  0.83157471  0.17862985  1
  Cl  Cl6  1  0.83155757  0.57136638  0.82137064  1
  Cl  Cl7  1  0.90078983  0.40923943  0.09969143  1
  Cl  Cl8  1  0.95912569  0.04087214  0.24999863  1
  Cl  Cl9  1  0.09919838  0.59075460  0.59968780  1
  Cl  Cl10  1  0.04090811  0.95916908  0.74999836  1
  Cl  Cl11  1  0.16843053  0.42861979  0.32136947  1
loop_
_geom_bond_atom_site_label_1
_geom_bond_atom_site_label_2
_geom_bond_distance
_geom_bond_site_symmetry_2
Re0 Se0 2.535310 1_555
Re0 Se1 2.535313 1_555
Re1 Se10 2.488152 1_555
Re1 Se2 2.521188 1_565
Re1 Se0 2.524246 1_555
Re2 Se11 2.486960 1_555
Re2 Se1 2.517625 1_555
Re2 Se2 2.527641 1_565
Re3 Se4 2.535253 1_555
Re3 Se3 2.535355 1_555
Re4 Se7 2.486945 1_555
Re4 Se3 2.517531 1_555
Re4 Se5 2.527598 1_545
Re5 Se8 2.488095 1_555
Re5 Se5 2.520930 1_545
Re5 Se4 2.523982 1_555
Re6 Se7 2.488203 1_555
Re6 Se9 2.521032 1_655
Re6 Se3 2.524023 1_555
Re7 Se8 2.486949 1_555
Re7 Se4 2.517461 1_555
Re7 Se9 2.527686 1_655
Re8 Se8 2.530015 1_555
Re8 Se7 2.530062 1_555
Re8 Se5 2.533189 1_545
Re8 Se9 2.533293 1_655
Re9 Se10 2.486933 1_555
Re9 Se0 2.517724 1_555
Re9 Se6 2.527663 1_455
Re10 Se11 2.488129 1_555
Re10 Se6 2.521136 1_455
Re10 Se1 2.524142 1_555
Re11 Se10 2.530147 1_555
Re11 Se11 2.530216 1_555
Re11 Se2 2.533292 1_565
Re11 Se6 2.533380 1_455
Cl0 Re3 2.347920 1_555
Cl1 Re3 2.460438 1_555
Cl1 Re5 2.518642 1_555
Cl1 Re4 2.526355 1_555
Cl2 Re4 2.483997 1_565
Cl2 Re1 2.497062 1_556
Cl3 Re0 2.347992 1_555
Cl4 Re2 2.484036 1_545
Cl4 Re5 2.497071 1_555
Cl5 Re0 2.460382 1_555
Cl5 Re1 2.518587 1_555
Cl5 Re2 2.526344 1_555
Cl6 Re3 2.460430 1_555
Cl6 Re6 2.518628 1_555
Cl6 Re7 2.526415 1_555
Cl7 Re9 2.484100 1_655
Cl7 Re6 2.497058 1_554
Cl8 Re11 2.376821 1_645
Cl9 Re7 2.483985 1_455
Cl9 Re10 2.496994 1_555
Cl10 Re8 2.376851 1_465
Cl11 Re0 2.460426 1_555
Cl11 Re10 2.518675 1_555
Cl11 Re9 2.526453 1_555
