# generated using pymatgen
data_Bi6W4O21
_symmetry_space_group_name_H-M   'P 1'
_cell_length_a   5.05780500
_cell_length_b   5.10072774
_cell_length_c   18.61962872
_cell_angle_alpha   87.45557980
_cell_angle_beta   86.26522441
_cell_angle_gamma   85.12147077
_symmetry_Int_Tables_number   1
_chemical_formula_structural   Bi6W4O21
_chemical_formula_sum   'Bi6 W4 O21'
_cell_volume   477.23673264
_cell_formula_units_Z   1
loop_
 _symmetry_equiv_pos_site_id
 _symmetry_equiv_pos_as_xyz
  1  'x, y, z'
loop_
 _atom_site_type_symbol
 _atom_site_label
 _atom_site_symmetry_multiplicity
 _atom_site_fract_x
 _atom_site_fract_y
 _atom_site_fract_z
 _atom_site_occupancy
  Bi  Bi0  1  0.54163500  0.45433900  0.92126200  1
  Bi  Bi1  1  0.45171200  0.49918300  0.69177100  1
  Bi  Bi2  1  0.95599600  0.00591100  0.40604300  1
  Bi  Bi3  1  0.92379800  0.99187700  0.59857900  1
  Bi  Bi4  1  0.69668000  0.56266700  0.10062600  1
  Bi  Bi5  1  0.55481400  0.53698100  0.32316100  1
  W  W0  1  0.95204300  0.96483100  0.78682600  1
  W  W1  1  0.07756900  0.03504800  0.02456100  1
  W  W2  1  0.45026600  0.50745900  0.50620600  1
  W  W3  1  0.12396700  0.08345200  0.20156200  1
  O  O0  1  0.72274400  0.12174000  0.85922200  1
  O  O1  1  0.38114900  0.81332600  0.02911600  1
  O  O2  1  0.19571000  0.82456200  0.51723000  1
  O  O3  1  0.66051500  0.64843400  0.58380700  1
  O  O4  1  0.16710100  0.81294500  0.68712200  1
  O  O5  1  0.11756200  0.85535700  0.28153400  1
  O  O6  1  0.17671100  0.74383100  0.83693200  1
  O  O7  1  0.26754200  0.44418200  0.42403900  1
  O  O8  1  0.87906700  0.76504500  0.00084800  1
  O  O9  1  0.70226600  0.67231900  0.42601700  1
  O  O10  1  0.19219400  0.23292400  0.94289300  1
  O  O11  1  0.27150400  0.33060300  0.58291800  1
  O  O12  1  0.69658200  0.26642200  0.01831800  1
  O  O13  1  0.68183200  0.82092400  0.74177800  1
  O  O14  1  0.09917400  0.30510200  0.09633000  1
  O  O15  1  0.07279500  0.27051500  0.74590200  1
  O  O16  1  0.94668000  0.38216900  0.23623600  1
  O  O17  1  0.62774000  0.13409200  0.34288000  1
  O  O18  1  0.71357700  0.20322000  0.49765300  1
  O  O19  1  0.99198600  0.86137700  0.13288800  1
  O  O20  1  0.47520900  0.11728300  0.18761900  1
loop_
_geom_bond_atom_site_label_1
_geom_bond_atom_site_label_2
_geom_bond_distance
_geom_bond_site_symmetry_2
Bi0 O12 2.168327 1_556
Bi0 O10 2.183532 1_555
Bi0 O0 2.196227 1_555
Bi1 O4 2.062301 1_555
Bi1 O3 2.336723 1_555
Bi1 O13 2.348750 1_555
Bi1 O15 2.464426 1_555
Bi1 O11 2.491342 1_555
Bi2 O17 2.137414 1_555
Bi2 O9 2.221165 1_545
Bi2 O18 2.257401 1_555
Bi2 O5 2.537044 1_645
Bi2 O2 2.564726 1_645
Bi3 O2 2.134894 1_655
Bi3 O4 2.237185 1_655
Bi3 O3 2.324867 1_555
Bi3 O18 2.389456 1_565
Bi3 O11 2.562848 1_665
Bi4 O12 2.199511 1_555
Bi4 O8 2.266387 1_555
Bi4 O14 2.325904 1_655
Bi4 O19 2.344863 1_555
Bi4 O1 2.394377 1_555
Bi5 O17 2.077430 1_555
Bi5 O9 2.256440 1_555
Bi5 O7 2.354934 1_555
Bi5 O16 2.569193 1_555
Bi5 O5 2.762163 1_555
O0 W0 1.880664 1_545
O1 W1 1.832190 1_565
O2 W2 1.989168 1_555
O3 W2 2.039143 1_555
O4 W0 2.225097 1_455
O5 W3 1.848848 1_565
O6 W0 1.805332 1_455
O7 W2 1.891485 1_555
O8 W1 1.856492 1_665
O9 W2 2.093767 1_555
O10 W1 1.874976 1_556
O11 W2 1.878167 1_555
O12 W1 2.179379 1_655
O13 W0 1.866757 1_555
O14 W1 1.975642 1_555
O14 W3 2.223581 1_555
O15 W0 1.838647 1_445
O16 W3 1.822631 1_655
O18 W2 1.962139 1_555
O19 W3 1.931879 1_665
O19 W1 2.198467 1_665
O20 W3 1.800349 1_555
