# generated using pymatgen
data_Rb2Cu2(MoO4)3
_symmetry_space_group_name_H-M   'P 1'
_cell_length_a   14.25789498
_cell_length_b   14.25789498
_cell_length_c   19.56352895
_cell_angle_alpha   73.12033137
_cell_angle_beta   73.12033137
_cell_angle_gamma   20.85792075
_symmetry_Int_Tables_number   1
_chemical_formula_structural   Rb2Cu2(MoO4)3
_chemical_formula_sum   'Rb8 Cu8 Mo12 O48'
_cell_volume   1352.90393495
_cell_formula_units_Z   4
loop_
 _symmetry_equiv_pos_site_id
 _symmetry_equiv_pos_as_xyz
  1  'x, y, z'
loop_
 _atom_site_type_symbol
 _atom_site_label
 _atom_site_symmetry_multiplicity
 _atom_site_fract_x
 _atom_site_fract_y
 _atom_site_fract_z
 _atom_site_occupancy
  Rb  Rb0  1  0.87769100  0.48391100  0.72659000  1
  Rb  Rb1  1  0.79598400  0.20401600  0.75000000  1
  Rb  Rb2  1  0.51608900  0.12230900  0.77341000  1
  Rb  Rb3  1  0.20401600  0.79598400  0.25000000  1
  Rb  Rb4  1  0.12230900  0.51608900  0.27341000  1
  Rb  Rb5  1  0.00000000  0.50000000  0.00000000  1
  Rb  Rb6  1  0.48391100  0.87769100  0.22659000  1
  Rb  Rb7  1  0.50000000  0.00000000  0.50000000  1
  Cu  Cu0  1  0.16384900  0.63695100  0.04668000  1
  Cu  Cu1  1  0.36304900  0.83615100  0.45332000  1
  Cu  Cu2  1  0.31452800  0.83981000  0.04780300  1
  Cu  Cu3  1  0.83615100  0.36304900  0.95332000  1
  Cu  Cu4  1  0.16019000  0.68547200  0.45219700  1
  Cu  Cu5  1  0.83981000  0.31452800  0.54780300  1
  Cu  Cu6  1  0.63695100  0.16384900  0.54668000  1
  Cu  Cu7  1  0.68547200  0.16019000  0.95219700  1
  Mo  Mo0  1  0.14904100  0.62355100  0.86448200  1
  Mo  Mo1  1  0.06790400  0.56545400  0.61054700  1
  Mo  Mo2  1  0.37644900  0.85095900  0.63551800  1
  Mo  Mo3  1  0.93209600  0.43454600  0.38945300  1
  Mo  Mo4  1  0.21803400  0.74836500  0.57346100  1
  Mo  Mo5  1  0.43454600  0.93209600  0.88945300  1
  Mo  Mo6  1  0.56545400  0.06790400  0.11054700  1
  Mo  Mo7  1  0.85095900  0.37644900  0.13551800  1
  Mo  Mo8  1  0.25163500  0.78196600  0.92653900  1
  Mo  Mo9  1  0.62355100  0.14904100  0.36448200  1
  Mo  Mo10  1  0.78196600  0.25163500  0.42653900  1
  Mo  Mo11  1  0.74836500  0.21803400  0.07346100  1
  O  O0  1  0.10848300  0.17344100  0.45422400  1
  O  O1  1  0.46571700  0.06146700  0.08109400  1
  O  O2  1  0.71129500  0.59291100  0.88269500  1
  O  O3  1  0.90149500  0.01450600  0.48256000  1
  O  O4  1  0.53428300  0.93853300  0.91890600  1
  O  O5  1  0.82655900  0.89151700  0.04577600  1
  O  O6  1  0.59291100  0.71129500  0.38269500  1
  O  O7  1  0.38221000  0.96847300  0.63818200  1
  O  O8  1  0.09850500  0.98549400  0.51744000  1
  O  O9  1  0.67201400  0.91846200  0.19815900  1
  O  O10  1  0.95822600  0.93258000  0.63236600  1
  O  O11  1  0.38147900  0.50996400  0.52621400  1
  O  O12  1  0.89151700  0.82655900  0.54577600  1
  O  O13  1  0.50996400  0.38147900  0.02621400  1
  O  O14  1  0.34905500  0.41615400  0.94378300  1
  O  O15  1  0.28870500  0.40708900  0.11730500  1
  O  O16  1  0.58384600  0.65094500  0.55621700  1
  O  O17  1  0.54293200  0.44975200  0.37346800  1
  O  O18  1  0.49753900  0.33743600  0.28377200  1
  O  O19  1  0.49003600  0.61852100  0.97378600  1
  O  O20  1  0.66256400  0.50246100  0.21622800  1
  O  O21  1  0.03384800  0.13291500  0.62996200  1
  O  O22  1  0.17344100  0.10848300  0.95422400  1
  O  O23  1  0.06146700  0.46571700  0.58109400  1
  O  O24  1  0.44975200  0.54293200  0.87346800  1
  O  O25  1  0.06742000  0.04177400  0.86763400  1
  O  O26  1  0.13291500  0.03384800  0.12996200  1
  O  O27  1  0.91846200  0.67201400  0.69815900  1
  O  O28  1  0.61779000  0.03152700  0.36181800  1
  O  O29  1  0.93258000  0.95822600  0.13236600  1
  O  O30  1  0.50246100  0.66256400  0.71622800  1
  O  O31  1  0.61852100  0.49003600  0.47378600  1
  O  O32  1  0.86708500  0.96615200  0.87003800  1
  O  O33  1  0.55024800  0.45706800  0.12653200  1
  O  O34  1  0.08153800  0.32798600  0.30184100  1
  O  O35  1  0.41615400  0.34905500  0.44378300  1
  O  O36  1  0.98549400  0.09850500  0.01744000  1
  O  O37  1  0.93853300  0.53428300  0.41890600  1
  O  O38  1  0.03152700  0.61779000  0.86181800  1
  O  O39  1  0.04177400  0.06742000  0.36763400  1
  O  O40  1  0.96847300  0.38221000  0.13818200  1
  O  O41  1  0.96615200  0.86708500  0.37003800  1
  O  O42  1  0.45706800  0.55024800  0.62653200  1
  O  O43  1  0.32798600  0.08153800  0.80184100  1
  O  O44  1  0.33743600  0.49753900  0.78377200  1
  O  O45  1  0.01450600  0.90149500  0.98256000  1
  O  O46  1  0.40708900  0.28870500  0.61730500  1
  O  O47  1  0.65094500  0.58384600  0.05621700  1
loop_
_geom_bond_atom_site_label_1
_geom_bond_atom_site_label_2
_geom_bond_distance
_geom_bond_site_symmetry_2
Cu0 O5 1.921284 1_455
Cu0 O15 1.927155 1_555
Cu0 O13 1.971300 1_555
Cu0 O45 2.031642 1_554
Cu0 O14 2.447975 1_554
Cu1 O0 1.921284 1_565
Cu1 O6 1.927155 1_555
Cu1 O31 1.971300 1_555
Cu1 O8 2.031642 1_555
Cu1 O16 2.447975 1_555
Cu2 O26 1.928513 1_565
Cu2 O47 1.935699 1_555
Cu2 O36 1.993121 1_465
Cu2 O19 2.026471 1_554
Cu2 O22 2.395150 1_564
Cu3 O22 1.921284 1_655
Cu3 O2 1.927155 1_555
Cu3 O19 1.971300 1_555
Cu3 O36 2.031642 1_556
Cu3 O47 2.447975 1_556
Cu4 O41 1.928513 1_455
Cu4 O35 1.935699 1_555
Cu4 O3 1.993121 1_465
Cu4 O11 2.026471 1_555
Cu4 O12 2.395150 1_455
Cu5 O21 1.928513 1_655
Cu5 O16 1.935699 1_555
Cu5 O8 1.993121 1_645
Cu5 O31 2.026471 1_555
Cu5 O0 2.395150 1_655
Cu6 O12 1.921284 1_545
Cu6 O46 1.927155 1_555
Cu6 O11 1.971300 1_555
Cu6 O3 2.031642 1_555
Cu6 O35 2.447975 1_555
Cu7 O32 1.928513 1_545
Cu7 O14 1.935699 1_555
Cu7 O45 1.993121 1_645
Cu7 O13 2.026471 1_556
Cu7 O5 2.395150 1_546
Mo0 O44 1.761032 1_555
Mo0 O38 1.768383 1_555
Mo0 O32 1.840613 1_455
Mo0 O14 1.851588 1_555
Mo1 O23 1.764398 1_555
Mo1 O27 1.768429 1_455
Mo1 O46 1.838309 1_555
Mo1 O12 1.844711 1_455
Mo2 O30 1.761032 1_555
Mo2 O7 1.768383 1_555
Mo2 O21 1.840613 1_565
Mo2 O16 1.851588 1_555
Mo3 O37 1.764398 1_555
Mo3 O34 1.768429 1_655
Mo3 O6 1.838309 1_555
Mo3 O0 1.844711 1_655
Mo4 O42 1.741224 1_555
Mo4 O10 1.744585 1_455
Mo4 O11 1.899575 1_555
Mo4 O8 1.923695 1_555
Mo5 O4 1.764398 1_555
Mo5 O43 1.768429 1_565
Mo5 O2 1.838309 1_555
Mo5 O22 1.844711 1_565
Mo6 O1 1.764398 1_555
Mo6 O9 1.768429 1_545
Mo6 O15 1.838309 1_555
Mo6 O5 1.844711 1_545
Mo7 O20 1.761032 1_555
Mo7 O40 1.768383 1_555
Mo7 O26 1.840613 1_655
Mo7 O47 1.851588 1_555
Mo8 O24 1.741224 1_555
Mo8 O25 1.744585 1_565
Mo8 O19 1.899575 1_555
Mo8 O45 1.923695 1_555
Mo9 O18 1.761032 1_555
Mo9 O28 1.768383 1_555
Mo9 O41 1.840613 1_545
Mo9 O35 1.851588 1_555
Mo10 O17 1.741224 1_555
Mo10 O39 1.744585 1_655
Mo10 O31 1.899575 1_555
Mo10 O3 1.923695 1_555
Mo11 O33 1.741224 1_555
Mo11 O29 1.744585 1_545
Mo11 O13 1.899575 1_555
Mo11 O36 1.923695 1_555
O1 Rb5 2.909621 1_555
O1 Rb6 3.140435 1_545
O1 Rb5 3.319201 1_645
O2 Rb0 3.004712 1_555
O4 Rb5 2.909621 1_656
O4 Rb2 3.140435 1_565
O4 Rb5 3.319201 1_566
O6 Rb6 3.004712 1_555
O7 Rb7 2.898143 1_565
O7 Rb0 3.093399 1_555
O7 Rb0 3.178185 1_465
O9 Rb4 2.836531 1_655
O9 Rb6 3.114459 1_555
O9 Rb4 3.459983 1_565
O10 Rb1 3.312713 1_565
O15 Rb4 3.004712 1_555
O17 Rb3 2.970792 1_555
O18 Rb3 2.942128 1_555
O18 Rb4 3.164289 1_555
O20 Rb3 2.942128 1_555
O20 Rb6 3.164289 1_555
O21 Rb1 2.894178 1_455
O23 Rb7 2.909621 1_555
O23 Rb0 3.140435 1_455
O23 Rb7 3.319201 1_465
O24 Rb1 2.970792 1_555
O25 Rb1 3.312713 1_455
O26 Rb3 2.894178 1_545
O27 Rb2 2.836531 1_565
O27 Rb0 3.114459 1_555
O27 Rb2 3.459983 1_655
O28 Rb7 2.898143 1_555
O28 Rb4 3.093399 1_555
O28 Rb4 3.178185 1_645
O29 Rb3 3.312713 1_655
O30 Rb1 2.942128 1_555
O30 Rb0 3.164289 1_555
O32 Rb1 2.894178 1_565
O33 Rb3 2.970792 1_555
O34 Rb6 2.836531 1_545
O34 Rb4 3.114459 1_555
O34 Rb6 3.459983 1_455
O37 Rb7 2.909621 1_565
O37 Rb4 3.140435 1_655
O37 Rb7 3.319201 1_655
O38 Rb5 2.898143 1_556
O38 Rb2 3.093399 1_555
O38 Rb2 3.178185 1_465
O39 Rb3 3.312713 1_545
O40 Rb5 2.898143 1_655
O40 Rb6 3.093399 1_555
O40 Rb6 3.178185 1_645
O41 Rb3 2.894178 1_655
O42 Rb1 2.970792 1_555
O43 Rb0 2.836531 1_455
O43 Rb2 3.114459 1_555
O43 Rb0 3.459983 1_545
O44 Rb1 2.942128 1_555
O44 Rb2 3.164289 1_555
O46 Rb2 3.004712 1_555
