# generated using pymatgen
data_YbV4O8
_symmetry_space_group_name_H-M   'P 1'
_cell_length_a   7.48017500
_cell_length_b   7.50115911
_cell_length_c   7.67140213
_cell_angle_alpha   102.00965210
_cell_angle_beta   104.57849562
_cell_angle_gamma   117.52185046
_symmetry_Int_Tables_number   1
_chemical_formula_structural   YbV4O8
_chemical_formula_sum   'Yb2 V8 O16'
_cell_volume   342.03807150
_cell_formula_units_Z   2
loop_
 _symmetry_equiv_pos_site_id
 _symmetry_equiv_pos_as_xyz
  1  'x, y, z'
loop_
 _atom_site_type_symbol
 _atom_site_label
 _atom_site_symmetry_multiplicity
 _atom_site_fract_x
 _atom_site_fract_y
 _atom_site_fract_z
 _atom_site_occupancy
  Yb  Yb0  1  0.27417000  0.02017300  0.06773500  1
  Yb  Yb1  1  0.72583000  0.97982700  0.93226500  1
  V  V0  1  0.26420800  0.55501400  0.76063100  1
  V  V1  1  0.21983200  0.29697400  0.41137700  1
  V  V2  1  0.28615800  0.87201500  0.52845000  1
  V  V3  1  0.39658200  0.63978700  0.24487100  1
  V  V4  1  0.60341800  0.36021300  0.75512900  1
  V  V5  1  0.71384200  0.12798500  0.47155000  1
  V  V6  1  0.78016800  0.70302600  0.58862300  1
  V  V7  1  0.73579200  0.44498600  0.23936900  1
  O  O0  1  0.95351000  0.91184100  0.80953300  1
  O  O1  1  0.28159100  0.49018200  0.96668300  1
  O  O2  1  0.03808000  0.29453900  0.55434900  1
  O  O3  1  0.32228300  0.82613000  0.79903000  1
  O  O4  1  0.36899300  0.90531700  0.30502600  1
  O  O5  1  0.22154200  0.55230000  0.38679100  1
  O  O6  1  0.48236000  0.40680100  0.29323700  1
  O  O7  1  0.31038700  0.16003300  0.57873400  1
  O  O8  1  0.68961300  0.83996700  0.42126600  1
  O  O9  1  0.51764000  0.59319900  0.70676300  1
  O  O10  1  0.77845800  0.44770000  0.61320900  1
  O  O11  1  0.63100700  0.09468300  0.69497400  1
  O  O12  1  0.67771700  0.17387000  0.20097000  1
  O  O13  1  0.96192000  0.70546100  0.44565100  1
  O  O14  1  0.71840900  0.50981800  0.03331700  1
  O  O15  1  0.04649000  0.08815900  0.19046700  1
loop_
_geom_bond_atom_site_label_1
_geom_bond_atom_site_label_2
_geom_bond_distance
_geom_bond_site_symmetry_2
O0 V6 1.708463 1_555
O0 Yb1 2.336049 1_555
O0 Yb0 2.339684 1_666
O1 V0 1.739805 1_555
O1 V3 1.934104 1_556
O2 V0 1.869324 1_555
O2 V1 1.946196 1_555
O2 V5 1.985084 1_455
O3 V0 1.811399 1_555
O3 V2 2.145004 1_555
O3 Yb0 2.471082 1_566
O3 Yb1 2.495193 1_555
O4 V2 1.988418 1_555
O4 V3 2.065927 1_555
O4 V5 2.132384 1_565
O4 Yb0 2.264177 1_565
O5 V3 1.884459 1_555
O5 V1 1.957750 1_555
O5 V2 2.178494 1_555
O6 V7 1.946371 1_555
O6 V3 2.188615 1_555
O6 V1 2.251209 1_555
O6 V6 2.413206 1_555
O6 Yb0 2.492131 1_555
O7 V4 1.873464 1_555
O7 V1 1.978984 1_555
O7 V2 2.026177 1_545
O8 V3 1.873464 1_555
O8 V6 1.978984 1_555
O8 V5 2.026177 1_565
O9 V0 1.946371 1_555
O9 V4 2.188615 1_555
O9 V6 2.251209 1_555
O9 V1 2.413206 1_555
O9 Yb1 2.492131 1_555
O10 V4 1.884459 1_555
O10 V6 1.957750 1_555
O10 V5 2.178494 1_555
O11 V5 1.988418 1_555
O11 V4 2.065927 1_555
O11 V2 2.132384 1_545
O11 Yb1 2.264177 1_545
O12 V7 1.811399 1_555
O12 V5 2.145004 1_555
O12 Yb1 2.471082 1_544
O12 Yb0 2.495193 1_555
O13 V7 1.869324 1_555
O13 V6 1.946196 1_555
O13 V2 1.985084 1_655
O14 V7 1.739805 1_555
O14 V4 1.934104 1_554
O15 V1 1.708463 1_555
O15 Yb0 2.336049 1_555
O15 Yb1 2.339684 1_444
