# generated using pymatgen
data_NaCaB5H16O17
_symmetry_space_group_name_H-M   'P 1'
_cell_length_a   6.61481500
_cell_length_b   9.20549512
_cell_length_c   13.42165760
_cell_angle_alpha   103.10241765
_cell_angle_beta   88.89686390
_cell_angle_gamma   110.19313016
_symmetry_Int_Tables_number   1
_chemical_formula_structural   NaCaB5H16O17
_chemical_formula_sum   'Na2 Ca2 B10 H32 O34'
_cell_volume   745.51898730
_cell_formula_units_Z   2
loop_
 _symmetry_equiv_pos_site_id
 _symmetry_equiv_pos_as_xyz
  1  'x, y, z'
loop_
 _atom_site_type_symbol
 _atom_site_label
 _atom_site_symmetry_multiplicity
 _atom_site_fract_x
 _atom_site_fract_y
 _atom_site_fract_z
 _atom_site_occupancy
  Na  Na0  1  0.24329100  0.46757400  0.50286300  1
  Na  Na1  1  0.75670900  0.53242600  0.49713700  1
  Ca  Ca0  1  0.87502300  0.15656300  0.02685100  1
  Ca  Ca1  1  0.12497700  0.84343700  0.97314900  1
  B  B0  1  0.39539200  0.05909700  0.18197600  1
  B  B1  1  0.60460800  0.94090300  0.81802400  1
  B  B2  1  0.46951900  0.37772600  0.28618800  1
  B  B3  1  0.53048100  0.62227400  0.71381200  1
  B  B4  1  0.02054500  0.84393800  0.20105300  1
  B  B5  1  0.97945500  0.15606200  0.79894700  1
  B  B6  1  0.45521700  0.17429200  0.02002100  1
  B  B7  1  0.54478300  0.82570800  0.97997900  1
  B  B8  1  0.39460300  0.80221900  0.25098400  1
  B  B9  1  0.60539700  0.19778100  0.74901600  1
  H  H0  1  0.82040300  0.51912300  0.95335800  1
  H  H1  1  0.17959700  0.48087700  0.04664200  1
  H  H2  1  0.99507400  0.78589500  0.46271600  1
  H  H3  1  0.00492600  0.21410500  0.53728400  1
  H  H4  1  0.20432800  0.21741200  0.91703000  1
  H  H5  1  0.79567200  0.78258800  0.08297000  1
  H  H6  1  0.57116900  0.52339800  0.19292100  1
  H  H7  1  0.42883100  0.47660200  0.80707900  1
  H  H8  1  0.41651600  0.66317600  0.34078700  1
  H  H9  1  0.58348400  0.33682400  0.65921300  1
  H  H10  1  0.80919500  0.80422200  0.40278100  1
  H  H11  1  0.19080500  0.19577800  0.59721900  1
  H  H12  1  0.66248900  0.00483200  0.24489000  1
  H  H13  1  0.33751100  0.99516800  0.75511000  1
  H  H14  1  0.02583100  0.11172100  0.21258000  1
  H  H15  1  0.97416900  0.88827900  0.78742000  1
  H  H16  1  0.25729300  0.42531300  0.13579400  1
  H  H17  1  0.74270700  0.57468700  0.86420600  1
  H  H18  1  0.13107100  0.62528900  0.17989600  1
  H  H19  1  0.86892900  0.37471100  0.82010400  1
  H  H20  1  0.97307800  0.26667400  0.26683300  1
  H  H21  1  0.02692200  0.73332600  0.73316700  1
  H  H22  1  0.99617800  0.57733600  0.32099300  1
  H  H23  1  0.00382200  0.42266400  0.67900700  1
  H  H24  1  0.04576400  0.98780000  0.34631300  1
  H  H25  1  0.95423600  0.01220000  0.65368700  1
  H  H26  1  0.52998500  0.10640900  0.45079300  1
  H  H27  1  0.47001500  0.89359100  0.54920700  1
  H  H28  1  0.43940500  0.18768900  0.34753500  1
  H  H29  1  0.56059500  0.81231100  0.65246500  1
  H  H30  1  0.45215500  0.14553500  0.47615800  1
  H  H31  1  0.54784500  0.85446500  0.52384200  1
  O  O0  1  0.43310900  0.20539600  0.27839100  1
  O  O1  1  0.56689100  0.79460400  0.72160900  1
  O  O2  1  0.51572400  0.11103300  0.10354700  1
  O  O3  1  0.48427600  0.88896700  0.89645300  1
  O  O4  1  0.50173300  0.95857700  0.23615100  1
  O  O5  1  0.49826700  0.04142300  0.76384900  1
  O  O6  1  0.17326400  0.97243400  0.16159200  1
  O  O7  1  0.82673600  0.02756600  0.83840800  1
  O  O8  1  0.48829000  0.41033700  0.18859400  1
  O  O9  1  0.51171000  0.58966300  0.81140600  1
  O  O10  1  0.17115500  0.73774400  0.22499800  1
  O  O11  1  0.82884500  0.26225600  0.77500200  1
  O  O12  1  0.62555100  0.25204100  0.97323900  1
  O  O13  1  0.37444900  0.74795900  0.02676100  1
  O  O14  1  0.94220900  0.90236900  0.29669000  1
  O  O15  1  0.05779100  0.09763100  0.70331000  1
  O  O16  1  0.23721600  0.12890000  0.99572300  1
  O  O17  1  0.76278400  0.87110000  0.00427700  1
  O  O18  1  0.86419000  0.72947500  0.12660400  1
  O  O19  1  0.13581000  0.27052500  0.87339600  1
  O  O20  1  0.47445200  0.46550000  0.37602700  1
  O  O21  1  0.52554800  0.53450000  0.62397300  1
  O  O22  1  0.50083100  0.73040100  0.29386200  1
  O  O23  1  0.49916900  0.26959900  0.70613800  1
  O  O24  1  0.91766900  0.16479500  0.21556600  1
  O  O25  1  0.08233100  0.83520500  0.78443400  1
  O  O26  1  0.13051000  0.44508300  0.10904800  1
  O  O27  1  0.86949000  0.55491700  0.89095200  1
  O  O28  1  0.02198800  0.52716000  0.37359800  1
  O  O29  1  0.97801200  0.47284000  0.62640200  1
  O  O30  1  0.15071200  0.20456500  0.52894600  1
  O  O31  1  0.84928800  0.79543500  0.47105400  1
  O  O32  1  0.81300200  0.32802300  0.55764900  1
  O  O33  1  0.18699800  0.67197700  0.44235100  1
loop_
_geom_bond_atom_site_label_1
_geom_bond_atom_site_label_2
_geom_bond_distance
_geom_bond_site_symmetry_2
Na0 O20 2.267522 1_555
Na0 O21 2.318723 1_555
Na0 O33 2.350966 1_555
Na0 O30 2.389951 1_555
Na0 O29 2.396062 1_455
Na0 O28 2.556847 1_555
Na1 O21 2.267522 1_555
Na1 O20 2.318723 1_555
Na1 O32 2.350966 1_555
Na1 O31 2.389951 1_555
Na1 O28 2.396062 1_655
Na1 O29 2.556847 1_555
Ca0 O12 2.312412 1_554
Ca0 O17 2.418525 1_545
Ca0 O2 2.509521 1_555
Ca0 O16 2.512740 1_654
Ca0 O7 2.513291 1_554
Ca0 O24 2.535049 1_555
Ca0 O26 2.602286 1_655
Ca1 O13 2.312412 1_556
Ca1 O16 2.418525 1_565
Ca1 O3 2.509521 1_555
Ca1 O17 2.512740 1_456
Ca1 O6 2.513291 1_556
Ca1 O25 2.535049 1_555
Ca1 O27 2.602286 1_455
B0 O2 1.379640 1_555
B0 O6 1.406240 1_545
B0 O0 1.594013 1_555
B0 O4 1.629070 1_545
B1 O3 1.379640 1_555
B1 O7 1.406240 1_565
B1 O1 1.594013 1_555
B1 O5 1.629070 1_565
B2 O20 1.284308 1_555
B2 O8 1.402709 1_555
B2 O0 1.499166 1_555
B3 O21 1.284308 1_555
B3 O9 1.402709 1_555
B3 O1 1.499166 1_555
B4 O18 1.410137 1_455
B4 O14 1.435010 1_455
B4 O6 1.462427 1_555
B4 O10 1.696639 1_555
B5 O19 1.410137 1_655
B5 O15 1.435010 1_655
B5 O7 1.462427 1_555
B5 O11 1.696639 1_555
B6 O12 1.340073 1_554
B6 O16 1.378680 1_554
B6 O2 1.493398 1_555
B7 O13 1.340073 1_556
B7 O17 1.378680 1_556
B7 O3 1.493398 1_555
B8 O22 1.330720 1_555
B8 O10 1.406752 1_555
B8 O4 1.426135 1_555
B9 O23 1.330720 1_555
B9 O11 1.406752 1_555
B9 O5 1.426135 1_555
H0 O27 0.977935 1_555
H1 O26 0.977935 1_555
H2 O31 1.000029 1_555
H2 Na1 2.462653 1_555
H3 O30 1.000029 1_555
H3 Na0 2.462653 1_555
H4 O19 1.039460 1_555
H4 O16 1.532369 1_555
H5 O18 1.039460 1_555
H5 O17 1.532369 1_555
H6 O8 0.983392 1_555
H7 O9 0.983392 1_555
H8 O22 1.007765 1_555
H9 O23 1.007765 1_555
H10 O31 0.987079 1_555
H11 O30 0.987079 1_555
H12 O4 0.997693 1_545
H13 O5 0.997693 1_565
H14 O24 0.991743 1_455
H15 O25 0.991743 1_655
H16 O26 1.005929 1_555
H17 O27 1.005929 1_555
H18 O10 1.020275 1_555
H19 O11 1.020275 1_555
H20 O24 0.983454 1_555
H21 O25 0.983454 1_555
H22 O28 0.973621 1_655
H23 O29 0.973621 1_455
H24 O14 0.969263 1_455
H25 O15 0.969263 1_655
H26 H30 0.759177 1_555
H27 H31 0.759177 1_555
H28 O0 0.981986 1_555
H29 O1 0.981986 1_555
O28 O33 1.515449 1_555
O29 O32 1.515449 1_555
