# generated using pymatgen
data_CuH36C8(N5O4)2
_symmetry_space_group_name_H-M   'P 1'
_cell_length_a   12.48157102
_cell_length_b   12.48157102
_cell_length_c   13.45240854
_cell_angle_alpha   74.93898065
_cell_angle_beta   74.93898065
_cell_angle_gamma   32.76803724
_symmetry_Int_Tables_number   1
_chemical_formula_structural   CuH36C8(N5O4)2
_chemical_formula_sum   'Cu2 H72 C16 N20 O16'
_cell_volume   1091.90262406
_cell_formula_units_Z   2
loop_
 _symmetry_equiv_pos_site_id
 _symmetry_equiv_pos_as_xyz
  1  'x, y, z'
loop_
 _atom_site_type_symbol
 _atom_site_label
 _atom_site_symmetry_multiplicity
 _atom_site_fract_x
 _atom_site_fract_y
 _atom_site_fract_z
 _atom_site_occupancy
  Cu  Cu0  1  0.30203300  0.69796700  0.25000000  1
  Cu  Cu1  1  0.69796700  0.30203300  0.75000000  1
  H  H0  1  0.23405800  0.61485400  0.84851400  1
  H  H1  1  0.38514600  0.76594200  0.65148600  1
  H  H2  1  0.76594200  0.38514600  0.15148600  1
  H  H3  1  0.61485400  0.23405800  0.34851400  1
  H  H4  1  0.97961900  0.85898000  0.87638000  1
  H  H5  1  0.14102000  0.02038100  0.62362000  1
  H  H6  1  0.02038100  0.14102000  0.12362000  1
  H  H7  1  0.85898000  0.97961900  0.37638000  1
  H  H8  1  0.17740300  0.92377800  0.93333800  1
  H  H9  1  0.07622200  0.82259700  0.56666200  1
  H  H10  1  0.82259700  0.07622200  0.06666200  1
  H  H11  1  0.92377800  0.17740300  0.43333800  1
  H  H12  1  0.15019200  0.89245200  0.82679000  1
  H  H13  1  0.10754800  0.84980800  0.67321000  1
  H  H14  1  0.84980800  0.10754800  0.17321000  1
  H  H15  1  0.89245200  0.15019200  0.32679000  1
  H  H16  1  0.38944600  0.69315400  0.87314200  1
  H  H17  1  0.30684600  0.61055400  0.62685800  1
  H  H18  1  0.61055400  0.30684600  0.12685800  1
  H  H19  1  0.69315400  0.38944600  0.37314200  1
  H  H20  1  0.55941100  0.13957800  0.05144300  1
  H  H21  1  0.86042200  0.44058900  0.44855700  1
  H  H22  1  0.44058900  0.86042200  0.94855700  1
  H  H23  1  0.13957800  0.55941100  0.55144300  1
  H  H24  1  0.35271900  0.37600500  0.05303200  1
  H  H25  1  0.62399500  0.64728100  0.44696800  1
  H  H26  1  0.64728100  0.62399500  0.94696800  1
  H  H27  1  0.37600500  0.35271900  0.55303200  1
  H  H28  1  0.90190800  0.80279000  0.11151700  1
  H  H29  1  0.19721000  0.09809200  0.38848300  1
  H  H30  1  0.09809200  0.19721000  0.88848300  1
  H  H31  1  0.80279000  0.90190800  0.61151700  1
  H  H32  1  0.76265900  0.84303300  0.06604700  1
  H  H33  1  0.15696700  0.23734100  0.43395300  1
  H  H34  1  0.23734100  0.15696700  0.93395300  1
  H  H35  1  0.84303300  0.76265900  0.56604700  1
  H  H36  1  0.63585600  0.97554800  0.23997500  1
  H  H37  1  0.02445200  0.36414400  0.26002500  1
  H  H38  1  0.36414400  0.02445200  0.76002500  1
  H  H39  1  0.97554800  0.63585600  0.73997500  1
  H  H40  1  0.43117000  0.17098100  0.29614000  1
  H  H41  1  0.82901900  0.56883000  0.20386000  1
  H  H42  1  0.56883000  0.82901900  0.70386000  1
  H  H43  1  0.17098100  0.43117000  0.79614000  1
  H  H44  1  0.77607500  0.67868800  0.47822500  1
  H  H45  1  0.32131200  0.22392500  0.02177500  1
  H  H46  1  0.22392500  0.32131200  0.52177500  1
  H  H47  1  0.67868800  0.77607500  0.97822500  1
  H  H48  1  0.70976200  0.85185900  0.41526100  1
  H  H49  1  0.14814100  0.29023800  0.08473900  1
  H  H50  1  0.29023800  0.14814100  0.58473900  1
  H  H51  1  0.85185900  0.70976200  0.91526100  1
  H  H52  1  0.33254000  0.74136900  0.05193500  1
  H  H53  1  0.25863100  0.66746000  0.44806500  1
  H  H54  1  0.66746000  0.25863100  0.94806500  1
  H  H55  1  0.74136900  0.33254000  0.55193500  1
  H  H56  1  0.23667300  0.55164400  0.36057600  1
  H  H57  1  0.44835600  0.76332700  0.13942400  1
  H  H58  1  0.76332700  0.44835600  0.63942400  1
  H  H59  1  0.55164400  0.23667300  0.86057600  1
  H  H60  1  0.09644000  0.49606300  0.22187100  1
  H  H61  1  0.50393700  0.90356000  0.27812900  1
  H  H62  1  0.90356000  0.50393700  0.77812900  1
  H  H63  1  0.49606300  0.09644000  0.72187100  1
  H  H64  1  0.08969400  0.52394900  0.34061700  1
  H  H65  1  0.47605100  0.91030600  0.15938300  1
  H  H66  1  0.91030600  0.47605100  0.65938300  1
  H  H67  1  0.52394900  0.08969400  0.84061700  1
  H  H68  1  0.10161100  0.64972500  0.96425700  1
  H  H69  1  0.35027500  0.89838900  0.53574300  1
  H  H70  1  0.89838900  0.35027500  0.03574300  1
  H  H71  1  0.64972500  0.10161100  0.46425700  1
  C  C0  1  0.21963400  0.68720200  0.06547100  1
  C  C1  1  0.31279800  0.78036600  0.43452900  1
  C  C2  1  0.78036600  0.31279800  0.93452900  1
  C  C3  1  0.68720200  0.21963400  0.56547100  1
  C  C4  1  0.18862300  0.57379500  0.22427200  1
  C  C5  1  0.42620500  0.81137700  0.27572800  1
  C  C6  1  0.81137700  0.42620500  0.77572800  1
  C  C7  1  0.57379500  0.18862300  0.72427200  1
  C  C8  1  0.12110400  0.71513600  0.91032300  1
  C  C9  1  0.28486400  0.87889600  0.58967700  1
  C  C10  1  0.87889600  0.28486400  0.08967700  1
  C  C11  1  0.71513600  0.12110400  0.41032300  1
  C  C12  1  0.22948700  0.81516800  0.89657700  1
  C  C13  1  0.18483200  0.77051300  0.60342300  1
  C  C14  1  0.77051300  0.18483200  0.10342300  1
  C  C15  1  0.81516800  0.22948700  0.39657700  1
  N  N0  1  0.29519600  0.70029800  0.10525700  1
  N  N1  1  0.29970200  0.70480400  0.39474300  1
  N  N2  1  0.70480400  0.29970200  0.89474300  1
  N  N3  1  0.70029800  0.29519600  0.60525700  1
  N  N4  1  0.22758300  0.60429200  0.28574700  1
  N  N5  1  0.39570800  0.77241700  0.21425300  1
  N  N6  1  0.77241700  0.39570800  0.71425300  1
  N  N7  1  0.60429200  0.22758300  0.78574700  1
  N  N8  1  0.16123500  0.48272300  0.26807300  1
  N  N9  1  0.51727700  0.83876500  0.23192700  1
  N  N10  1  0.83876500  0.51727700  0.73192700  1
  N  N11  1  0.48272300  0.16123500  0.76807300  1
  N  N12  1  0.17276000  0.61963500  0.12079100  1
  N  N13  1  0.38036500  0.82724000  0.37920900  1
  N  N14  1  0.82724000  0.38036500  0.87920900  1
  N  N15  1  0.61963500  0.17276000  0.62079100  1
  N  N16  1  0.18334300  0.74366300  0.96302900  1
  N  N17  1  0.25633700  0.81665700  0.53697100  1
  N  N18  1  0.81665700  0.25633700  0.03697100  1
  N  N19  1  0.74366300  0.18334300  0.46302900  1
  O  O0  1  0.44152500  0.26271200  0.01210200  1
  O  O1  1  0.73728800  0.55847500  0.48789800  1
  O  O2  1  0.55847500  0.73728800  0.98789800  1
  O  O3  1  0.26271200  0.44152500  0.51210200  1
  O  O4  1  0.76227000  0.89412100  0.11287000  1
  O  O5  1  0.10587900  0.23773000  0.38713000  1
  O  O6  1  0.23773000  0.10587900  0.88713000  1
  O  O7  1  0.89412100  0.76227000  0.61287000  1
  O  O8  1  0.55541000  0.02524500  0.30734800  1
  O  O9  1  0.97475500  0.44459000  0.19265200  1
  O  O10  1  0.44459000  0.97475500  0.69265200  1
  O  O11  1  0.02524500  0.55541000  0.80734800  1
  O  O12  1  0.80724500  0.73305900  0.46380200  1
  O  O13  1  0.26694100  0.19275500  0.03619800  1
  O  O14  1  0.19275500  0.26694100  0.53619800  1
  O  O15  1  0.73305900  0.80724500  0.96380200  1
loop_
_geom_bond_atom_site_label_1
_geom_bond_atom_site_label_2
_geom_bond_distance
_geom_bond_site_symmetry_2
Cu0 N5 1.940252 1_555
Cu0 N4 1.940252 1_555
Cu0 N1 1.962709 1_555
Cu0 N0 1.962709 1_555
Cu1 N6 1.940252 1_555
Cu1 N7 1.940252 1_555
Cu1 N2 1.962709 1_555
Cu1 N3 1.962709 1_555
H20 O0 0.993017 1_555
H21 O1 0.993017 1_555
H22 O2 0.993017 1_555
H23 O3 0.993017 1_555
H24 O0 0.991407 1_555
H25 O1 0.991407 1_555
H26 O2 0.991407 1_555
H27 O3 0.991407 1_555
H28 O4 0.995242 1_555
H29 O5 0.995242 1_555
H30 O6 0.995242 1_555
H31 O7 0.995242 1_555
H32 O4 1.002658 1_555
H33 O5 1.002658 1_555
H34 O6 1.002658 1_555
H35 O7 1.002658 1_555
H36 O8 0.993068 1_565
H37 O9 0.993068 1_455
H38 O10 0.993068 1_545
H39 O11 0.993068 1_655
H40 O8 0.985617 1_555
H41 O9 0.985617 1_555
H42 O10 0.985617 1_555
H43 O11 0.985617 1_555
H44 O12 0.992931 1_555
H45 O13 0.992931 1_555
H46 O14 0.992931 1_555
H47 O15 0.992931 1_555
H48 O12 0.990509 1_555
H49 O13 0.990509 1_555
H50 O14 0.990509 1_555
H51 O15 0.990509 1_555
H52 N0 1.015660 1_555
H53 N1 1.015660 1_555
H54 N2 1.015660 1_555
H55 N3 1.015660 1_555
H56 N4 1.023814 1_555
H57 N5 1.023814 1_555
H58 N6 1.023814 1_555
H59 N7 1.023814 1_555
H60 N8 1.024242 1_555
H61 N9 1.024242 1_555
H62 N10 1.024242 1_555
H63 N11 1.024242 1_555
H64 N8 1.024631 1_555
H65 N9 1.024631 1_555
H66 N10 1.024631 1_555
H67 N11 1.024631 1_555
C0 N0 1.330314 1_555
C0 N16 1.372519 1_554
C0 N12 1.372837 1_555
C1 N1 1.330314 1_555
C1 N17 1.372519 1_555
C1 N13 1.372837 1_555
C2 N2 1.330314 1_555
C2 N18 1.372519 1_556
C2 N14 1.372837 1_555
C3 N3 1.330314 1_555
C3 N19 1.372519 1_555
C3 N15 1.372837 1_555
C4 N4 1.322558 1_555
C4 N12 1.357652 1_555
C4 N8 1.398897 1_555
C5 N5 1.322558 1_555
C5 N13 1.357652 1_555
C5 N9 1.398897 1_555
C6 N6 1.322558 1_555
C6 N14 1.357652 1_555
C6 N10 1.398897 1_555
C7 N7 1.322558 1_555
C7 N15 1.357652 1_555
C7 N11 1.398897 1_555
C8 H68 1.089333 1_555
C8 H0 1.099844 1_555
C8 H4 1.100663 1_455
C8 N16 1.454509 1_555
C9 H69 1.089333 1_555
C9 H1 1.099844 1_555
C9 H5 1.100663 1_565
C9 N17 1.454509 1_555
C10 H70 1.089333 1_555
C10 H2 1.099844 1_555
C10 H6 1.100663 1_655
C10 N18 1.454509 1_555
C11 H71 1.089333 1_555
C11 H3 1.099844 1_555
C11 H7 1.100663 1_545
C11 N19 1.454509 1_555
C12 H12 1.094568 1_555
C12 H8 1.097330 1_555
C12 H16 1.101728 1_555
C12 N16 1.452465 1_555
C13 H13 1.094568 1_555
C13 H9 1.097330 1_555
C13 H17 1.101728 1_555
C13 N17 1.452465 1_555
C14 H14 1.094568 1_555
C14 H10 1.097330 1_555
C14 H18 1.101728 1_555
C14 N18 1.452465 1_555
C15 H15 1.094568 1_555
C15 H11 1.097330 1_555
C15 H19 1.101728 1_555
C15 N19 1.452465 1_555
