# generated using pymatgen
data_LiAlSiH2O5
_symmetry_space_group_name_H-M   'P 1'
_cell_length_a   5.33288000
_cell_length_b   8.18193800
_cell_length_c   11.65892500
_cell_angle_alpha   90.00000000
_cell_angle_beta   90.00000000
_cell_angle_gamma   90.00000000
_symmetry_Int_Tables_number   1
_chemical_formula_structural   LiAlSiH2O5
_chemical_formula_sum   'Li4 Al4 Si4 H8 O20'
_cell_volume   508.71729667
_cell_formula_units_Z   4
loop_
 _symmetry_equiv_pos_site_id
 _symmetry_equiv_pos_as_xyz
  1  'x, y, z'
loop_
 _atom_site_type_symbol
 _atom_site_label
 _atom_site_symmetry_multiplicity
 _atom_site_fract_x
 _atom_site_fract_y
 _atom_site_fract_z
 _atom_site_occupancy
  Li  Li0  1  0.33620200  0.97711100  0.40873700  1
  Li  Li1  1  0.83620200  0.47711100  0.09126300  1
  Li  Li2  1  0.83620200  0.02288900  0.59126300  1
  Li  Li3  1  0.33620200  0.52288900  0.90873700  1
  Al  Al0  1  0.62013800  0.65690800  0.71269400  1
  Al  Al1  1  0.12013800  0.15690800  0.78730600  1
  Al  Al2  1  0.62013800  0.84309200  0.21269400  1
  Al  Al3  1  0.12013800  0.34309200  0.28730600  1
  Si  Si0  1  0.09890300  0.43524100  0.70702800  1
  Si  Si1  1  0.59890300  0.93524100  0.79297200  1
  Si  Si2  1  0.59890300  0.56475900  0.29297200  1
  Si  Si3  1  0.09890300  0.06475900  0.20702800  1
  H  H0  1  0.78402200  0.13655400  0.40617000  1
  H  H1  1  0.28402200  0.63655400  0.09383000  1
  H  H2  1  0.28402200  0.86344600  0.59383000  1
  H  H3  1  0.56426900  0.23679100  0.46630700  1
  H  H4  1  0.06426900  0.76320900  0.53369300  1
  H  H5  1  0.06426900  0.73679100  0.03369300  1
  H  H6  1  0.78402200  0.36344600  0.90617000  1
  H  H7  1  0.56426900  0.26320900  0.96630700  1
  O  O0  1  0.37550200  0.44976100  0.34167100  1
  O  O1  1  0.87550200  0.94976100  0.15832900  1
  O  O2  1  0.63267600  0.37418300  0.95875400  1
  O  O3  1  0.05402300  0.13822500  0.34248500  1
  O  O4  1  0.85326600  0.04043100  0.77912500  1
  O  O5  1  0.85326600  0.45956900  0.27912500  1
  O  O6  1  0.64029800  0.74557000  0.35251500  1
  O  O7  1  0.64029800  0.75443000  0.85251500  1
  O  O8  1  0.35326600  0.54043100  0.72087500  1
  O  O9  1  0.35326600  0.95956900  0.22087500  1
  O  O10  1  0.13267600  0.62581700  0.04124600  1
  O  O11  1  0.63267600  0.12581700  0.45875400  1
  O  O12  1  0.13267600  0.87418300  0.54124600  1
  O  O13  1  0.14029800  0.24557000  0.14748500  1
  O  O14  1  0.87550200  0.55023900  0.65832900  1
  O  O15  1  0.05402300  0.36177500  0.84248500  1
  O  O16  1  0.55402300  0.86177500  0.65751500  1
  O  O17  1  0.14029800  0.25443000  0.64748500  1
  O  O18  1  0.37550200  0.05023900  0.84167100  1
  O  O19  1  0.55402300  0.63822500  0.15751500  1
loop_
_geom_bond_atom_site_label_1
_geom_bond_atom_site_label_2
_geom_bond_distance
_geom_bond_site_symmetry_2
Li0 O12 2.067371 1_555
Li0 O11 2.078503 1_565
Li0 O3 2.144496 1_565
Li0 O9 2.196852 1_555
Li0 O6 2.578479 1_555
Li1 O2 2.067371 1_554
Li1 O10 2.078503 1_655
Li1 O19 2.144496 1_555
Li1 O5 2.196852 1_555
Li1 O13 2.578479 1_655
Li2 O11 2.067371 1_555
Li2 O12 2.078503 1_645
Li2 O16 2.144496 1_545
Li2 O4 2.196852 1_555
Li2 O17 2.578479 1_655
Li3 O10 2.067371 1_556
Li3 O2 2.078503 1_555
Li3 O15 2.144496 1_555
Li3 O8 2.196852 1_555
Li3 O7 2.578479 1_555
Al0 O8 1.715462 1_555
Al0 O14 1.737247 1_555
Al0 O7 1.818148 1_555
Al0 O16 1.829717 1_555
Al1 O4 1.715462 1_455
Al1 O18 1.737247 1_555
Al1 O17 1.818148 1_555
Al1 O15 1.829717 1_555
Al2 O9 1.715462 1_555
Al2 O1 1.737247 1_555
Al2 O6 1.818148 1_555
Al2 O19 1.829717 1_555
Al3 O5 1.715462 1_455
Al3 O0 1.737247 1_555
Al3 O13 1.818148 1_555
Al3 O3 1.829717 1_555
H0 O11 1.017351 1_555
H0 O3 1.620109 1_655
H1 O10 1.017351 1_555
H1 O19 1.620109 1_555
H2 O12 1.017351 1_555
H2 O16 1.620109 1_555
H3 O11 0.982482 1_555
H4 O12 0.982482 1_555
H5 O10 0.982482 1_555
H6 O2 1.017351 1_555
H6 O15 1.620109 1_655
H7 O2 0.982482 1_555
O0 Si2 1.620815 1_555
O1 Si3 1.620815 1_665
O3 Si3 1.706673 1_555
O4 Si1 1.614575 1_545
O5 Si2 1.614575 1_555
O6 Si2 1.649010 1_555
O7 Si1 1.649010 1_555
O8 Si0 1.614575 1_555
O9 Si3 1.614575 1_565
O13 Si3 1.649010 1_555
O14 Si0 1.620815 1_655
O15 Si0 1.706673 1_555
O16 Si1 1.706673 1_555
O17 Si0 1.649010 1_555
O18 Si1 1.620815 1_545
O19 Si2 1.706673 1_555
