# generated using pymatgen
data_Ba(H8O5)2
_symmetry_space_group_name_H-M   'P 1'
_cell_length_a   6.54310500
_cell_length_b   6.55055300
_cell_length_c   11.38550713
_cell_angle_alpha   89.97449105
_cell_angle_beta   90.00000000
_cell_angle_gamma   90.00000000
_symmetry_Int_Tables_number   1
_chemical_formula_structural   Ba(H8O5)2
_chemical_formula_sum   'Ba2 H32 O20'
_cell_volume   487.99367270
_cell_formula_units_Z   2
loop_
 _symmetry_equiv_pos_site_id
 _symmetry_equiv_pos_as_xyz
  1  'x, y, z'
loop_
 _atom_site_type_symbol
 _atom_site_label
 _atom_site_symmetry_multiplicity
 _atom_site_fract_x
 _atom_site_fract_y
 _atom_site_fract_z
 _atom_site_occupancy
  Ba  Ba0  1  0.99622600  0.00420200  0.25163300  1
  Ba  Ba1  1  0.00377400  0.00420200  0.75163300  1
  H  H0  1  0.95979200  0.54494000  0.37070600  1
  H  H1  1  0.72240200  0.59819500  0.35301900  1
  H  H2  1  0.28012700  0.40207100  0.35286500  1
  H  H3  1  0.14674700  0.33429700  0.46408100  1
  H  H4  1  0.40394800  0.72104500  0.35298200  1
  H  H5  1  0.33341100  0.85300900  0.46387100  1
  H  H6  1  0.54324200  0.03958600  0.36955900  1
  H  H7  1  0.59831800  0.27768400  0.35299300  1
  H  H8  1  0.27759800  0.59819500  0.85301900  1
  H  H9  1  0.04020800  0.54494000  0.87070600  1
  H  H10  1  0.71987300  0.40207100  0.85286500  1
  H  H11  1  0.85325300  0.33429700  0.96408100  1
  H  H12  1  0.59605200  0.72104500  0.85298200  1
  H  H13  1  0.66658900  0.85300900  0.96387100  1
  H  H14  1  0.40168200  0.27768400  0.85299300  1
  H  H15  1  0.45675800  0.03958600  0.86955900  1
  H  H16  1  0.04267300  0.45690600  0.63054700  1
  H  H17  1  0.27873100  0.40117300  0.64767300  1
  H  H18  1  0.73570800  0.60299200  0.65966600  1
  H  H19  1  0.84822600  0.66396700  0.54134600  1
  H  H20  1  0.59794300  0.27983300  0.64823400  1
  H  H21  1  0.66585900  0.14734900  0.53610000  1
  H  H22  1  0.45685600  0.96016100  0.63043900  1
  H  H23  1  0.40268400  0.72259900  0.64763600  1
  H  H24  1  0.95732700  0.45690600  0.13054700  1
  H  H25  1  0.72126900  0.40117300  0.14767300  1
  H  H26  1  0.26429200  0.60299200  0.15966600  1
  H  H27  1  0.15177400  0.66396700  0.04134600  1
  H  H28  1  0.40205700  0.27983300  0.14823400  1
  H  H29  1  0.33414100  0.14734900  0.03610000  1
  H  H30  1  0.54314400  0.96016100  0.13043900  1
  H  H31  1  0.59731600  0.72259900  0.14763600  1
  O  O0  1  0.50104500  0.49864100  0.31762100  1
  O  O1  1  0.49895500  0.49864100  0.81762100  1
  O  O2  1  0.50407300  0.50142500  0.68615100  1
  O  O3  1  0.49592700  0.50142500  0.18615100  1
  O  O4  1  0.85819800  0.65693300  0.38163900  1
  O  O5  1  0.14014300  0.34556900  0.37667100  1
  O  O6  1  0.34518300  0.85982200  0.37642100  1
  O  O7  1  0.65689400  0.14010600  0.37936200  1
  O  O8  1  0.14180200  0.65693300  0.88163900  1
  O  O9  1  0.85985700  0.34556900  0.87667100  1
  O  O10  1  0.65481700  0.85982200  0.87642100  1
  O  O11  1  0.34310600  0.14010600  0.87936200  1
  O  O12  1  0.14225900  0.34262400  0.62048000  1
  O  O13  1  0.86989300  0.65757300  0.62847400  1
  O  O14  1  0.65503700  0.14075000  0.62354600  1
  O  O15  1  0.34362500  0.85927700  0.62061800  1
  O  O16  1  0.85774100  0.34262400  0.12048000  1
  O  O17  1  0.13010700  0.65757300  0.12847400  1
  O  O18  1  0.34496300  0.14075000  0.12354600  1
  O  O19  1  0.65637500  0.85927700  0.12061800  1
loop_
_geom_bond_atom_site_label_1
_geom_bond_atom_site_label_2
_geom_bond_distance
_geom_bond_site_symmetry_2
Ba0 O7 2.799683 1_555
Ba0 O17 2.809293 1_645
Ba0 O5 2.813645 1_655
Ba0 O16 2.821757 1_555
Ba0 O19 2.841188 1_545
Ba0 O6 2.850468 1_645
Ba0 O18 2.851730 1_655
Ba0 O4 2.859777 1_545
Ba1 O11 2.799683 1_555
Ba1 O13 2.809293 1_445
Ba1 O9 2.813645 1_455
Ba1 O12 2.821757 1_555
Ba1 O15 2.841188 1_545
Ba1 O10 2.850468 1_445
Ba1 O14 2.851730 1_455
Ba1 O8 2.859777 1_545
H0 O4 0.997822 1_555
H1 O4 1.021674 1_555
H1 O0 1.638809 1_555
H2 O5 1.024349 1_555
H2 O0 1.628005 1_555
H3 O5 0.998845 1_555
H4 O6 1.022584 1_555
H4 O0 1.639727 1_555
H5 O6 0.999614 1_555
H6 O7 0.999545 1_555
H7 O7 1.024193 1_555
H7 O0 1.631472 1_555
H8 O8 1.021674 1_555
H8 O1 1.638809 1_555
H9 O8 0.997822 1_555
H10 O9 1.024349 1_555
H10 O1 1.628005 1_555
H11 O9 0.998845 1_555
H12 O10 1.022584 1_555
H12 O1 1.639727 1_555
H13 O10 0.999614 1_555
H14 O11 1.024193 1_555
H14 O1 1.631472 1_555
H15 O11 0.999545 1_555
H16 O12 0.999107 1_555
H17 O12 1.020008 1_555
H17 O2 1.672545 1_555
H18 O13 1.012275 1_555
H18 O2 1.682404 1_555
H19 O13 1.002932 1_555
H20 O14 1.024130 1_555
H20 O2 1.634371 1_555
H21 O14 0.999048 1_555
H22 O15 0.999096 1_555
H23 O15 1.022399 1_555
H23 O2 1.652538 1_555
H24 O16 0.999107 1_555
H25 O16 1.020008 1_555
H25 O3 1.672545 1_555
H26 O17 1.012275 1_555
H26 O3 1.682404 1_555
H27 O17 1.002932 1_555
H28 O18 1.024130 1_555
H28 O3 1.634371 1_555
H29 O18 0.999048 1_555
H30 O19 0.999096 1_555
H31 O19 1.022399 1_555
H31 O3 1.652538 1_555
O0 O3 1.497330 1_555
O1 O2 1.497330 1_555
