# generated using pymatgen
data_AlHO2
_symmetry_space_group_name_H-M   'P 1'
_cell_length_a   2.84436891
_cell_length_b   4.86984012
_cell_length_c   8.40033816
_cell_angle_alpha   90.00000000
_cell_angle_beta   90.00000000
_cell_angle_gamma   90.00000000
_symmetry_Int_Tables_number   1
_chemical_formula_structural   AlHO2
_chemical_formula_sum   'Al4 H4 O8'
_cell_volume   116.35830747
_cell_formula_units_Z   4
loop_
 _symmetry_equiv_pos_site_id
 _symmetry_equiv_pos_as_xyz
  1  'x, y, z'
loop_
 _atom_site_type_symbol
 _atom_site_label
 _atom_site_symmetry_multiplicity
 _atom_site_fract_x
 _atom_site_fract_y
 _atom_site_fract_z
 _atom_site_occupancy
  Al  Al0  1  0.25000000  0.38848771  0.64726489  1
  Al  Al1  1  0.25000000  0.11151229  0.14726489  1
  Al  Al2  1  0.75000000  0.61151229  0.35273511  1
  Al  Al3  1  0.75000000  0.88848771  0.85273511  1
  H  H0  1  0.75000000  0.36632638  0.92402018  1
  H  H1  1  0.75000000  0.13367362  0.42402018  1
  H  H2  1  0.25000000  0.63367362  0.07597982  1
  H  H3  1  0.25000000  0.86632638  0.57597982  1
  O  O0  1  0.75000000  0.20948772  0.00112154  1
  O  O1  1  0.75000000  0.29051228  0.50112154  1
  O  O2  1  0.25000000  0.79051228  -0.00112154  1
  O  O3  1  0.25000000  0.70948772  0.49887846  1
  O  O4  1  0.75000000  0.95718019  0.26025584  1
  O  O5  1  0.75000000  0.54281981  0.76025584  1
  O  O6  1  0.25000000  0.04281981  0.73974416  1
  O  O7  1  0.25000000  0.45718019  0.23974416  1
loop_
_geom_bond_atom_site_label_1
_geom_bond_atom_site_label_2
_geom_bond_distance
_geom_bond_site_symmetry_2
Al0 O6 1.853959 1_555
Al0 O5 1.867720 1_555
Al0 O5 1.867720 1_455
Al0 O1 1.938399 1_555
Al0 O1 1.938399 1_455
Al0 O3 1.999351 1_555
Al1 O7 1.853959 1_555
Al1 O4 1.867720 1_445
Al1 O4 1.867720 1_545
Al1 O0 1.938399 1_555
Al1 O0 1.938399 1_455
Al1 O2 1.999351 1_545
Al2 O4 1.853959 1_555
Al2 O7 1.867720 1_555
Al2 O7 1.867720 1_655
Al2 O3 1.938399 1_555
Al2 O3 1.938399 1_655
Al2 O1 1.999351 1_555
Al3 O5 1.853959 1_555
Al3 O6 1.867720 1_665
Al3 O6 1.867720 1_565
Al3 O2 1.938399 1_556
Al3 O2 1.938399 1_656
Al3 O0 1.999351 1_566
H0 O0 1.001421 1_556
H0 O5 1.622102 1_555
H1 O1 1.001421 1_555
H1 O4 1.622102 1_545
H2 O2 1.001421 1_555
H2 O7 1.622102 1_555
H3 O3 1.001421 1_555
H3 O6 1.622102 1_565
