# generated using pymatgen
data_Sc10Mn17S32
_symmetry_space_group_name_H-M   'P 1'
_cell_length_a   7.34757700
_cell_length_b   7.39468923
_cell_length_c   24.09356320
_cell_angle_alpha   82.46131093
_cell_angle_beta   82.34287462
_cell_angle_gamma   61.20909534
_symmetry_Int_Tables_number   1
_chemical_formula_structural   Sc10Mn17S32
_chemical_formula_sum   'Sc10 Mn17 S32'
_cell_volume   1133.63272598
_cell_formula_units_Z   1
loop_
 _symmetry_equiv_pos_site_id
 _symmetry_equiv_pos_as_xyz
  1  'x, y, z'
loop_
 _atom_site_type_symbol
 _atom_site_label
 _atom_site_symmetry_multiplicity
 _atom_site_fract_x
 _atom_site_fract_y
 _atom_site_fract_z
 _atom_site_occupancy
  Sc  Sc0  1  0.12027300  0.62893500  0.12261000  1
  Sc  Sc1  1  0.63216400  0.13227900  0.12460600  1
  Sc  Sc2  1  0.51431800  0.49197500  0.00377100  1
  Sc  Sc3  1  0.26435700  0.71621800  0.25611200  1
  Sc  Sc4  1  0.51403900  0.96430700  0.50348500  1
  Sc  Sc5  1  0.88275000  0.36762400  0.37572400  1
  Sc  Sc6  1  0.13210900  0.61722300  0.62432600  1
  Sc  Sc7  1  0.76029700  0.21422200  0.75109000  1
  Sc  Sc8  1  0.88491200  0.37644400  0.87517200  1
  Sc  Sc9  1  0.37830400  0.87799600  0.87345400  1
  Mn  Mn0  1  0.42503400  0.03398400  0.00784100  1
  Mn  Mn1  1  0.62127100  0.61448200  0.12079600  1
  Mn  Mn2  1  0.69505100  0.26508700  0.25849700  1
  Mn  Mn3  1  0.37596000  0.87970000  0.37430500  1
  Mn  Mn4  1  0.75266300  0.75001500  0.25583900  1
  Mn  Mn5  1  0.95195900  0.51033100  0.50632000  1
  Mn  Mn6  1  0.87022300  0.86703600  0.37213400  1
  Mn  Mn7  1  0.62701300  0.12963600  0.62340300  1
  Mn  Mn8  1  0.11815600  0.13955900  0.20746000  1
  Mn  Mn9  1  0.00294300  0.00041900  0.50458000  1
  Mn  Mn10  1  0.12127500  0.11732300  0.62092100  1
  Mn  Mn11  1  0.36420900  0.39371800  0.45722600  1
  Mn  Mn12  1  0.25269000  0.25234800  0.75371600  1
  Mn  Mn13  1  0.37434000  0.35870300  0.87365700  1
  Mn  Mn14  1  0.19680900  0.76520100  0.75422600  1
  Mn  Mn15  1  0.61561000  0.64360200  0.70695900  1
  Mn  Mn16  1  0.88351400  0.84096300  0.96374500  1
  S  S0  1  0.31844200  0.31498900  0.06552400  1
  S  S1  1  0.42668300  0.42905200  0.18999200  1
  S  S2  1  0.32413100  0.79697900  0.06530500  1
  S  S3  1  0.80004200  0.32292800  0.06820200  1
  S  S4  1  0.46949200  0.89827000  0.18901800  1
  S  S5  1  0.56260900  0.55373100  0.31797800  1
  S  S6  1  0.89486600  0.48570200  0.18682100  1
  S  S7  1  0.68499000  0.67556500  0.43801600  1
  S  S8  1  0.57919400  0.03333100  0.31502400  1
  S  S9  1  0.80068100  0.82459700  0.06379800  1
  S  S10  1  0.95083400  0.93623800  0.18988000  1
  S  S11  1  0.04472100  0.57051600  0.31477400  1
  S  S12  1  0.71773800  0.15254000  0.43856500  1
  S  S13  1  0.81332800  0.80338100  0.56556700  1
  S  S14  1  0.15414400  0.74155000  0.43443800  1
  S  S15  1  0.93409400  0.92568400  0.68578500  1
  S  S16  1  0.83047500  0.28321500  0.56406800  1
  S  S17  1  0.06475900  0.06406600  0.30882600  1
  S  S18  1  0.19583600  0.19334100  0.43921700  1
  S  S19  1  0.29416700  0.82260200  0.56371800  1
  S  S20  1  0.06134300  0.05722100  0.81357500  1
  S  S21  1  0.96816800  0.40202700  0.68675700  1
  S  S22  1  0.40330700  0.99032100  0.68348900  1
  S  S23  1  0.19163500  0.17907600  0.93433600  1
  S  S24  1  0.08107200  0.53869900  0.81211200  1
  S  S25  1  0.31573300  0.31274200  0.55798400  1
  S  S26  1  0.54783400  0.06961500  0.81061400  1
  S  S27  1  0.44619800  0.44505800  0.68749800  1
  S  S28  1  0.23142800  0.65935700  0.93180900  1
  S  S29  1  0.67540500  0.20009000  0.93548200  1
  S  S30  1  0.57542500  0.55344700  0.80785900  1
  S  S31  1  0.68398200  0.68974000  0.93699500  1
loop_
_geom_bond_atom_site_label_1
_geom_bond_atom_site_label_2
_geom_bond_distance
_geom_bond_site_symmetry_2
Mn0 S0 2.400597 1_555
Mn0 S23 2.401457 1_554
Mn0 S2 2.424750 1_545
Mn0 S9 2.856681 1_545
Mn0 S31 2.936503 1_544
Mn0 S29 2.948268 1_554
Mn1 S3 2.350475 1_555
Mn1 S2 2.416973 1_555
Mn1 S6 2.467656 1_555
Mn1 S4 2.551790 1_555
Mn1 S9 2.639754 1_555
Mn1 S1 2.712412 1_555
Mn2 S5 2.446806 1_555
Mn2 S8 2.449562 1_555
Mn2 S1 2.474238 1_555
Mn2 S17 2.752189 1_655
Mn2 S10 2.829019 1_545
Mn2 S6 2.948106 1_555
Mn3 S8 2.490067 1_565
Mn3 S14 2.526877 1_555
Mn3 S5 2.590555 1_555
Mn3 S7 2.609597 1_555
Mn3 S17 2.640117 1_565
Mn3 S18 2.649554 1_565
Mn4 S8 2.403033 1_565
Mn4 S11 2.440680 1_655
Mn4 S6 2.469766 1_555
Mn4 S4 2.520961 1_555
Mn4 S5 2.668939 1_555
Mn4 S10 2.698607 1_555
Mn5 S16 2.460298 1_555
Mn5 S13 2.463575 1_555
Mn5 S7 2.464348 1_555
Mn5 S25 2.734252 1_655
Mn5 S18 2.737854 1_655
Mn5 S14 3.018900 1_655
Mn6 S8 2.405274 1_565
Mn6 S11 2.444714 1_655
Mn6 S14 2.463899 1_655
Mn6 S12 2.530741 1_565
Mn6 S7 2.658457 1_555
Mn6 S17 2.708192 1_665
Mn7 S16 2.491619 1_555
Mn7 S22 2.542524 1_545
Mn7 S15 2.579859 1_545
Mn7 S13 2.613189 1_545
Mn7 S25 2.639411 1_555
Mn7 S27 2.646450 1_555
Mn8 S6 2.308477 1_455
Mn8 S4 2.347488 1_545
Mn8 S17 2.455223 1_555
Mn8 S10 2.457168 1_445
Mn9 S16 2.404804 1_455
Mn9 S19 2.438974 1_545
Mn9 S14 2.460622 1_545
Mn9 S12 2.516891 1_455
Mn9 S13 2.659154 1_445
Mn9 S18 2.699491 1_555
Mn10 S16 2.400184 1_455
Mn10 S19 2.432641 1_545
Mn10 S22 2.456656 1_545
Mn10 S21 2.516614 1_455
Mn10 S15 2.658104 1_445
Mn10 S25 2.695459 1_555
Mn11 S14 2.308849 1_555
Mn11 S12 2.359473 1_555
Mn11 S25 2.443837 1_555
Mn11 S18 2.447798 1_555
Mn12 S24 2.406315 1_555
Mn12 S26 2.427261 1_555
Mn12 S22 2.477451 1_545
Mn12 S21 2.529739 1_455
Mn12 S20 2.646936 1_555
Mn12 S27 2.710761 1_555
Mn13 S24 2.486888 1_555
Mn13 S28 2.486979 1_555
Mn13 S26 2.492613 1_555
Mn13 S23 2.527621 1_555
Mn13 S29 2.531491 1_555
Mn13 S30 2.756122 1_555
Mn14 S24 2.432400 1_555
Mn14 S15 2.445785 1_455
Mn14 S20 2.461506 1_565
Mn14 S27 2.753541 1_555
Mn14 S30 2.844625 1_555
Mn14 S22 2.996212 1_555
Mn15 S22 2.308431 1_555
Mn15 S21 2.360773 1_555
Mn15 S30 2.452478 1_555
Mn15 S27 2.453839 1_555
Mn16 S28 2.317442 1_655
Mn16 S29 2.397040 1_565
Mn16 S9 2.408243 1_556
Mn16 S31 2.415638 1_555
S0 Sc0 2.539588 1_555
S0 Sc1 2.556396 1_555
S0 Sc2 2.594343 1_555
S1 Sc3 2.532071 1_555
S1 Sc1 2.580534 1_555
S1 Sc0 2.651056 1_555
S2 Sc0 2.546677 1_555
S2 Sc2 2.554818 1_555
S3 Sc1 2.466057 1_555
S3 Sc2 2.492260 1_555
S4 Sc3 2.726063 1_555
S4 Sc1 2.761283 1_565
S5 Sc3 2.516375 1_555
S5 Sc5 2.571844 1_555
S6 Sc0 2.614412 1_655
S7 Sc4 2.529264 1_555
S7 Sc5 2.584116 1_555
S9 Sc1 2.556137 1_565
S9 Sc0 2.586809 1_655
S10 Sc0 2.654116 1_655
S10 Sc1 2.677843 1_565
S10 Sc3 2.681138 1_655
S11 Sc3 2.535782 1_555
S11 Sc5 2.549476 1_455
S12 Sc5 2.651115 1_555
S12 Sc4 2.726842 1_545
S13 Sc4 2.525496 1_555
S13 Sc6 2.579146 1_655
S15 Sc7 2.525831 1_565
S15 Sc6 2.574456 1_655
S17 Sc5 2.628407 1_455
S17 Sc3 2.665980 1_545
S18 Sc5 2.618755 1_455
S18 Sc4 2.682335 1_545
S19 Sc4 2.533932 1_555
S19 Sc6 2.559944 1_555
S20 Sc7 2.542111 1_455
S20 Sc9 2.585003 1_545
S20 Sc8 2.629490 1_455
S21 Sc6 2.642207 1_655
S21 Sc7 2.740692 1_555
S23 Sc9 2.523712 1_545
S23 Sc8 2.526471 1_455
S24 Sc8 2.535578 1_455
S25 Sc6 2.624547 1_555
S25 Sc4 2.692137 1_545
S26 Sc7 2.499226 1_555
S26 Sc9 2.546826 1_545
S27 Sc6 2.619331 1_555
S27 Sc7 2.654988 1_555
S28 Sc9 2.536766 1_555
S28 Sc2 2.603403 1_556
S29 Sc2 2.592066 1_556
S29 Sc8 2.649921 1_555
S30 Sc8 2.659569 1_555
S30 Sc7 2.670461 1_555
S30 Sc9 2.718867 1_555
S31 Sc9 2.582943 1_555
S31 Sc8 2.605851 1_555
S31 Sc2 2.623997 1_556
