# generated using pymatgen
data_Ba2ScCl7
_symmetry_space_group_name_H-M   'P 1'
_cell_length_a   13.67386100
_cell_length_b   7.01195300
_cell_length_c   12.26118687
_cell_angle_alpha   84.57012630
_cell_angle_beta   90.00000000
_cell_angle_gamma   90.00000000
_symmetry_Int_Tables_number   1
_chemical_formula_structural   Ba2ScCl7
_chemical_formula_sum   'Ba8 Sc4 Cl28'
_cell_volume   1170.33313280
_cell_formula_units_Z   4
loop_
 _symmetry_equiv_pos_site_id
 _symmetry_equiv_pos_as_xyz
  1  'x, y, z'
loop_
 _atom_site_type_symbol
 _atom_site_label
 _atom_site_symmetry_multiplicity
 _atom_site_fract_x
 _atom_site_fract_y
 _atom_site_fract_z
 _atom_site_occupancy
  Ba  Ba0  1  0.92731200  0.73991900  0.86858600  1
  Ba  Ba1  1  0.66308400  0.26574100  0.01462400  1
  Ba  Ba2  1  0.57268800  0.73991900  0.36858600  1
  Ba  Ba3  1  0.83691600  0.26574100  0.51462400  1
  Ba  Ba4  1  0.42731200  0.26008100  0.63141400  1
  Ba  Ba5  1  0.07268800  0.26008100  0.13141400  1
  Ba  Ba6  1  0.33691600  0.73425900  0.98537600  1
  Ba  Ba7  1  0.16308400  0.73425900  0.48537600  1
  Sc  Sc0  1  0.36657300  0.19879200  0.20469200  1
  Sc  Sc1  1  0.13342700  0.19879200  0.70469200  1
  Sc  Sc2  1  0.86657300  0.80120800  0.29530800  1
  Sc  Sc3  1  0.63342700  0.80120800  0.79530800  1
  Cl  Cl0  1  0.76879300  0.04609500  0.76119600  1
  Cl  Cl1  1  0.26879300  0.95390500  0.73880400  1
  Cl  Cl2  1  0.80583500  0.77336100  0.48836500  1
  Cl  Cl3  1  0.99641900  0.54769900  0.34359200  1
  Cl  Cl4  1  0.51526500  0.04835700  0.85750800  1
  Cl  Cl5  1  0.19416500  0.22663900  0.51163500  1
  Cl  Cl6  1  0.50358100  0.54769900  0.84359200  1
  Cl  Cl7  1  0.74527400  0.53790500  0.76176600  1
  Cl  Cl8  1  0.73120700  0.04609500  0.26119600  1
  Cl  Cl9  1  0.75472600  0.53790500  0.26176600  1
  Cl  Cl10  1  0.62301800  0.37410900  0.51763600  1
  Cl  Cl11  1  0.49641900  0.45230100  0.15640800  1
  Cl  Cl12  1  0.93308200  0.87947800  0.11123900  1
  Cl  Cl13  1  0.01526500  0.95164300  0.64249200  1
  Cl  Cl14  1  0.00358100  0.45230100  0.65640800  1
  Cl  Cl15  1  0.56691800  0.87947800  0.61123900  1
  Cl  Cl16  1  0.43308200  0.12052200  0.38876100  1
  Cl  Cl17  1  0.87698200  0.37410900  0.01763600  1
  Cl  Cl18  1  0.48473500  0.95164300  0.14249200  1
  Cl  Cl19  1  0.30583500  0.22663900  0.01163500  1
  Cl  Cl20  1  0.25472600  0.46209500  0.23823400  1
  Cl  Cl21  1  0.37698200  0.62589100  0.48236400  1
  Cl  Cl22  1  0.69416500  0.77336100  0.98836500  1
  Cl  Cl23  1  0.06691800  0.12052200  0.88876100  1
  Cl  Cl24  1  0.24527400  0.46209500  0.73823400  1
  Cl  Cl25  1  0.98473500  0.04835700  0.35750800  1
  Cl  Cl26  1  0.12301800  0.62589100  0.98236400  1
  Cl  Cl27  1  0.23120700  0.95390500  0.23880400  1
loop_
_geom_bond_atom_site_label_1
_geom_bond_atom_site_label_2
_geom_bond_distance
_geom_bond_site_symmetry_2
Ba0 Cl17 3.083142 1_556
Ba0 Cl26 3.087984 1_655
Ba0 Cl7 3.204524 1_555
Ba0 Cl12 3.219745 1_556
Ba0 Cl0 3.241337 1_565
Ba0 Cl13 3.249079 1_655
Ba0 Cl23 3.309467 1_665
Ba0 Cl22 3.527111 1_555
Ba0 Cl14 3.593885 1_655
Ba1 Cl17 3.023012 1_555
Ba1 Cl11 3.218300 1_555
Ba1 Cl4 3.267382 1_554
Ba1 Cl8 3.390968 1_555
Ba1 Cl6 3.504093 1_554
Ba1 Cl22 3.523454 1_544
Ba1 Cl18 3.550019 1_545
Ba1 Cl22 3.568863 1_554
Ba1 Cl7 3.660244 1_554
Ba2 Cl10 3.083142 1_555
Ba2 Cl21 3.087984 1_555
Ba2 Cl9 3.204524 1_555
Ba2 Cl15 3.219745 1_555
Ba2 Cl8 3.241337 1_565
Ba2 Cl18 3.249079 1_555
Ba2 Cl16 3.309467 1_565
Ba2 Cl2 3.527111 1_555
Ba2 Cl11 3.593885 1_555
Ba3 Cl10 3.023012 1_555
Ba3 Cl14 3.218300 1_655
Ba3 Cl25 3.267382 1_555
Ba3 Cl0 3.390968 1_555
Ba3 Cl3 3.504093 1_555
Ba3 Cl2 3.523454 1_545
Ba3 Cl13 3.550019 1_645
Ba3 Cl2 3.568863 1_555
Ba3 Cl9 3.660244 1_555
Ba4 Cl21 3.083142 1_555
Ba4 Cl10 3.087984 1_555
Ba4 Cl24 3.204524 1_555
Ba4 Cl16 3.219745 1_555
Ba4 Cl1 3.241337 1_545
Ba4 Cl4 3.249079 1_555
Ba4 Cl15 3.309467 1_545
Ba4 Cl5 3.527111 1_555
Ba4 Cl6 3.593885 1_555
Ba5 Cl26 3.083142 1_554
Ba5 Cl17 3.087984 1_455
Ba5 Cl20 3.204524 1_555
Ba5 Cl23 3.219745 1_554
Ba5 Cl27 3.241337 1_545
Ba5 Cl25 3.249079 1_455
Ba5 Cl12 3.309467 1_445
Ba5 Cl19 3.527111 1_555
Ba5 Cl3 3.593885 1_455
Ba6 Cl26 3.023012 1_555
Ba6 Cl6 3.218300 1_555
Ba6 Cl18 3.267382 1_556
Ba6 Cl1 3.390968 1_555
Ba6 Cl11 3.504093 1_556
Ba6 Cl19 3.523454 1_566
Ba6 Cl4 3.550019 1_565
Ba6 Cl19 3.568863 1_556
Ba6 Cl20 3.660244 1_556
Ba7 Cl21 3.023012 1_555
Ba7 Cl3 3.218300 1_455
Ba7 Cl13 3.267382 1_555
Ba7 Cl27 3.390968 1_555
Ba7 Cl14 3.504093 1_555
Ba7 Cl5 3.523454 1_565
Ba7 Cl25 3.550019 1_465
Ba7 Cl5 3.568863 1_555
Ba7 Cl24 3.660244 1_555
Cl0 Sc3 2.532525 1_545
Cl1 Sc1 2.532525 1_565
Cl2 Sc2 2.498724 1_555
Cl3 Sc2 2.542350 1_555
Cl4 Sc3 2.538824 1_545
Cl5 Sc1 2.498724 1_555
Cl6 Sc3 2.542350 1_555
Cl7 Sc3 2.461819 1_555
Cl8 Sc2 2.532525 1_545
Cl9 Sc2 2.461819 1_555
Cl11 Sc0 2.542350 1_555
Cl12 Sc2 2.446933 1_555
Cl13 Sc1 2.538824 1_565
Cl14 Sc1 2.542350 1_555
Cl15 Sc3 2.446933 1_555
Cl16 Sc0 2.446933 1_555
Cl18 Sc0 2.538824 1_565
Cl19 Sc0 2.498724 1_555
Cl20 Sc0 2.461819 1_555
Cl22 Sc3 2.498724 1_555
Cl23 Sc1 2.446933 1_555
Cl24 Sc1 2.461819 1_555
Cl25 Sc2 2.538824 1_545
Cl27 Sc0 2.532525 1_565
