# generated using pymatgen
data_TePb
_symmetry_space_group_name_H-M   'P 1'
_cell_length_a   4.64850416
_cell_length_b   7.06836857
_cell_length_c   8.49990272
_cell_angle_alpha   90.00000000
_cell_angle_beta   90.00000000
_cell_angle_gamma   90.00000000
_symmetry_Int_Tables_number   1
_chemical_formula_structural   TePb
_chemical_formula_sum   'Te4 Pb4'
_cell_volume   279.28419961
_cell_formula_units_Z   4
loop_
 _symmetry_equiv_pos_site_id
 _symmetry_equiv_pos_as_xyz
  1  'x, y, z'
loop_
 _atom_site_type_symbol
 _atom_site_label
 _atom_site_symmetry_multiplicity
 _atom_site_fract_x
 _atom_site_fract_y
 _atom_site_fract_z
 _atom_site_occupancy
  Te  Te0  1  0.75000000  0.12008937  0.18988861  1
  Te  Te1  1  0.75000000  0.37991063  0.68988861  1
  Te  Te2  1  0.25000000  0.62008937  0.31011139  1
  Te  Te3  1  0.25000000  0.87991063  0.81011139  1
  Pb  Pb0  1  0.75000000  0.72893453  0.04083178  1
  Pb  Pb1  1  0.75000000  0.77106547  0.54083178  1
  Pb  Pb2  1  0.25000000  0.22893453  0.45916822  1
  Pb  Pb3  1  0.25000000  0.27106547  0.95916822  1
loop_
_geom_bond_atom_site_label_1
_geom_bond_atom_site_label_2
_geom_bond_distance
_geom_bond_site_symmetry_2
Pb0 Te0 3.041295 1_565
Pb0 Te3 3.222869 1_654
Pb0 Te3 3.222869 1_554
Pb0 Te2 3.351551 1_655
Pb0 Te2 3.351551 1_555
Pb1 Te1 3.041295 1_555
Pb1 Te2 3.222869 1_655
Pb1 Te2 3.222869 1_555
Pb1 Te3 3.351551 1_555
Pb1 Te3 3.351551 1_655
Pb2 Te2 3.041295 1_555
Pb2 Te1 3.222869 1_455
Pb2 Te1 3.222869 1_555
Pb2 Te0 3.351551 1_555
Pb2 Te0 3.351551 1_455
Pb3 Te3 3.041295 1_545
Pb3 Te0 3.222869 1_456
Pb3 Te0 3.222869 1_556
Pb3 Te1 3.351551 1_455
Pb3 Te1 3.351551 1_555
