# generated using pymatgen
data_SnPSe3
_symmetry_space_group_name_H-M   'P 1'
_cell_length_a   7.72916400
_cell_length_b   7.76442700
_cell_length_c   11.06881933
_cell_angle_alpha   65.46915073
_cell_angle_beta   90.00000000
_cell_angle_gamma   90.00000000
_symmetry_Int_Tables_number   1
_chemical_formula_structural   SnPSe3
_chemical_formula_sum   'Sn4 P4 Se12'
_cell_volume   604.30961011
_cell_formula_units_Z   4
loop_
 _symmetry_equiv_pos_site_id
 _symmetry_equiv_pos_as_xyz
  1  'x, y, z'
loop_
 _atom_site_type_symbol
 _atom_site_label
 _atom_site_symmetry_multiplicity
 _atom_site_fract_x
 _atom_site_fract_y
 _atom_site_fract_z
 _atom_site_occupancy
  Sn  Sn0  1  0.87925300  0.77068700  0.24991700  1
  Sn  Sn1  1  0.37925300  0.22931300  0.25008300  1
  Sn  Sn2  1  0.62074700  0.77068700  0.74991700  1
  Sn  Sn3  1  0.12074700  0.22931300  0.75008300  1
  P  P0  1  0.63153100  0.97671300  0.05222700  1
  P  P1  1  0.13153100  0.02328700  0.44777300  1
  P  P2  1  0.86846900  0.97671300  0.55222700  1
  P  P3  1  0.36846900  0.02328700  0.94777300  1
  Se  Se0  1  0.32933800  0.54750200  0.66522700  1
  Se  Se1  1  0.18735300  0.09149600  0.07851800  1
  Se  Se2  1  0.21489200  0.73406500  0.45165600  1
  Se  Se3  1  0.71489200  0.26593500  0.04834400  1
  Se  Se4  1  0.68735300  0.90850400  0.42148200  1
  Se  Se5  1  0.82933800  0.45249800  0.83477300  1
  Se  Se6  1  0.17066200  0.54750200  0.16522700  1
  Se  Se7  1  0.31264700  0.09149600  0.57851800  1
  Se  Se8  1  0.28510800  0.73406500  0.95165600  1
  Se  Se9  1  0.78510800  0.26593500  0.54834400  1
  Se  Se10  1  0.81264700  0.90850400  0.92148200  1
  Se  Se11  1  0.67066200  0.45249800  0.33477300  1
loop_
_geom_bond_atom_site_label_1
_geom_bond_atom_site_label_2
_geom_bond_distance
_geom_bond_site_symmetry_2
P0 Se10 2.229557 1_554
P0 P3 2.292260 1_564
P0 Se3 2.319429 1_565
P0 Sn0 2.847201 1_555
P1 Se7 2.229557 1_555
P1 P2 2.292260 1_445
P1 Se2 2.319429 1_545
P1 Sn1 2.847201 1_555
P2 Se4 2.229557 1_555
P2 Se9 2.319429 1_565
P2 Sn2 2.847201 1_555
P3 Se1 2.229557 1_556
P3 Se8 2.319429 1_545
P3 Sn3 2.847201 1_555
Se0 Se2 2.371857 1_555
Se0 Sn3 2.767362 1_555
Se0 Sn2 3.209933 1_555
Se1 Sn1 2.939162 1_555
Se3 Se5 2.371857 1_554
Se4 Sn0 2.939162 1_555
Se5 Sn2 2.767362 1_555
Se5 Sn3 3.209933 1_655
Se6 Se8 2.371857 1_554
Se6 Sn1 2.767362 1_555
Se6 Sn0 3.209933 1_455
Se7 Sn3 2.939162 1_555
Se10 Sn2 2.939162 1_555
Se11 Se9 2.371857 1_555
Se11 Sn0 2.767362 1_555
Se11 Sn1 3.209933 1_555
