# generated using pymatgen
data_Yb(CeS2)2
_symmetry_space_group_name_H-M   'P 1'
_cell_length_a   7.38294864
_cell_length_b   7.38294864
_cell_length_c   7.38294864
_cell_angle_alpha   109.67949433
_cell_angle_beta   109.67949433
_cell_angle_gamma   109.05547147
_symmetry_Int_Tables_number   1
_chemical_formula_structural   Yb(CeS2)2
_chemical_formula_sum   'Yb2 Ce4 S8'
_cell_volume   309.77796061
_cell_formula_units_Z   2
loop_
 _symmetry_equiv_pos_site_id
 _symmetry_equiv_pos_as_xyz
  1  'x, y, z'
loop_
 _atom_site_type_symbol
 _atom_site_label
 _atom_site_symmetry_multiplicity
 _atom_site_fract_x
 _atom_site_fract_y
 _atom_site_fract_z
 _atom_site_occupancy
  Yb  Yb0  1  0.50000000  0.50000000  0.00000000  1
  Yb  Yb1  1  0.25000000  0.75000000  0.50000000  1
  Ce  Ce0  1  0.00316800  0.62500000  0.87816800  1
  Ce  Ce1  1  0.87500000  0.99683200  0.62183200  1
  Ce  Ce2  1  0.74683200  0.12500000  0.12183200  1
  Ce  Ce3  1  0.37500000  0.25316800  0.37816800  1
  S  S0  1  0.12421500  0.37599700  0.10350600  1
  S  S1  1  0.12599700  0.37421500  0.60350600  1
  S  S2  1  0.77070900  0.52249100  0.39649400  1
  S  S3  1  0.62400300  0.72750900  0.74821800  1
  S  S4  1  0.27249100  0.02070900  0.89649400  1
  S  S5  1  0.47750900  0.87400300  0.24821800  1
  S  S6  1  0.97929100  0.87578500  0.25178200  1
  S  S7  1  0.62578500  0.22929100  0.75178200  1
loop_
_geom_bond_atom_site_label_1
_geom_bond_atom_site_label_2
_geom_bond_distance
_geom_bond_site_symmetry_2
Ce0 S1 2.858093 1_555
Ce0 S6 2.858093 1_456
Ce0 S7 2.875172 1_455
Ce0 S4 2.875172 1_565
Ce0 S5 3.012867 1_556
Ce0 S0 3.012867 1_556
Ce0 S2 3.064828 1_455
Ce0 S3 3.064828 1_455
Ce1 S5 2.858093 1_555
Ce1 S4 2.858093 1_665
Ce1 S1 2.875172 1_665
Ce1 S3 2.875172 1_555
Ce1 S2 3.012867 1_555
Ce1 S6 3.012867 1_555
Ce1 S7 3.064828 1_565
Ce1 S0 3.064828 1_666
Ce2 S3 2.858093 1_544
Ce2 S2 2.858093 1_555
Ce2 S0 2.875172 1_655
Ce2 S5 2.875172 1_545
Ce2 S7 3.012867 1_554
Ce2 S4 3.012867 1_554
Ce2 S6 3.064828 1_545
Ce2 S1 3.064828 1_655
Ce3 S7 2.858093 1_555
Ce3 S0 2.858093 1_555
Ce3 S6 2.875172 1_445
Ce3 S2 2.875172 1_555
Ce3 S3 3.012867 1_555
Ce3 S1 3.012867 1_555
Ce3 S5 3.064828 1_545
Ce3 S4 3.064828 1_554
S0 Yb1 2.847210 1_555
S0 Yb0 3.059420 1_555
S1 Yb0 2.847210 1_556
S1 Yb1 3.059420 1_555
S2 Yb0 2.847210 1_555
S2 Yb1 3.059420 1_655
S3 Yb1 2.847210 1_555
S3 Yb0 3.059420 1_556
S4 Yb1 2.847210 1_545
S4 Yb0 3.059420 1_556
S5 Yb0 2.847210 1_555
S5 Yb1 3.059420 1_555
S6 Yb1 2.847210 1_655
S6 Yb0 3.059420 1_555
S7 Yb0 2.847210 1_556
S7 Yb1 3.059420 1_545
