# generated using pymatgen
data_NdTi2CdO6F
_symmetry_space_group_name_H-M   'P 1'
_cell_length_a   7.27845338
_cell_length_b   7.27845338
_cell_length_c   7.27845338
_cell_angle_alpha   120.78214300
_cell_angle_beta   118.38590667
_cell_angle_gamma   90.73438259
_symmetry_Int_Tables_number   1
_chemical_formula_structural   NdTi2CdO6F
_chemical_formula_sum   'Nd2 Ti4 Cd2 O12 F2'
_cell_volume   274.19023850
_cell_formula_units_Z   2
loop_
 _symmetry_equiv_pos_site_id
 _symmetry_equiv_pos_as_xyz
  1  'x, y, z'
loop_
 _atom_site_type_symbol
 _atom_site_label
 _atom_site_symmetry_multiplicity
 _atom_site_fract_x
 _atom_site_fract_y
 _atom_site_fract_z
 _atom_site_occupancy
  Nd  Nd0  1  0.50000000  0.00000000  0.50000000  1
  Nd  Nd1  1  0.00000000  0.00000000  0.00000000  1
  Ti  Ti0  1  0.50000000  0.00000000  0.00000000  1
  Ti  Ti1  1  0.50000000  0.50000000  0.50000000  1
  Ti  Ti2  1  0.50000000  0.50000000  0.00000000  1
  Ti  Ti3  1  0.00000000  0.50000000  0.50000000  1
  Cd  Cd0  1  0.00000000  0.00000000  0.50000000  1
  Cd  Cd1  1  0.00000000  0.50000000  0.00000000  1
  O  O0  1  0.41779100  0.16779100  0.25000000  1
  O  O1  1  0.42949300  0.17189600  0.84829500  1
  O  O2  1  0.82360100  0.17189600  0.24240300  1
  O  O3  1  0.42949300  0.58119800  0.25759700  1
  O  O4  1  0.82622600  0.57622600  0.25000000  1
  O  O5  1  0.82360100  0.58119800  0.65170500  1
  O  O6  1  0.17639900  0.41880200  0.34829500  1
  O  O7  1  0.17377400  0.42377400  0.75000000  1
  O  O8  1  0.17639900  0.82810400  0.75759700  1
  O  O9  1  0.57050700  0.41880200  0.74240300  1
  O  O10  1  0.58220900  0.83220900  0.75000000  1
  O  O11  1  0.57050700  0.82810400  0.15170500  1
  F  F0  1  0.87748500  0.12748500  0.75000000  1
  F  F1  1  0.12251500  0.87251500  0.25000000  1
loop_
_geom_bond_atom_site_label_1
_geom_bond_atom_site_label_2
_geom_bond_distance
_geom_bond_site_symmetry_2
Nd0 O3 2.502439 1_545
Nd0 O9 2.502439 1_555
Nd0 O11 2.502439 1_545
Nd0 O1 2.502439 1_555
Nd0 O0 2.533487 1_555
Nd0 O10 2.533487 1_545
Nd1 O2 2.502439 1_455
Nd1 O5 2.502439 1_444
Nd1 O6 2.502439 1_555
Nd1 O8 2.502439 1_544
Nd1 O10 2.533487 1_444
Nd1 O0 2.533487 1_555
Cd0 F1 2.191566 1_545
Cd0 F0 2.191566 1_455
Cd0 O7 2.528137 1_555
Cd0 O4 2.528137 1_445
Cd0 O2 2.623437 1_455
Cd0 O11 2.623437 1_445
Cd0 O8 2.623437 1_545
Cd0 O1 2.623437 1_555
Cd1 F0 2.191566 1_454
Cd1 F1 2.191566 1_555
Cd1 O7 2.528137 1_554
Cd1 O4 2.528137 1_455
Cd1 O9 2.623437 1_454
Cd1 O6 2.623437 1_555
Cd1 O5 2.623437 1_454
Cd1 O3 2.623437 1_555
O0 Ti0 1.984917 1_555
O0 Ti1 1.984917 1_555
O1 Ti2 1.978983 1_556
O1 Ti0 1.984844 1_556
O2 Ti3 1.978983 1_655
O2 Ti0 1.984844 1_555
O3 Ti2 1.978983 1_555
O3 Ti1 1.984844 1_555
O4 Ti2 2.020291 1_555
O4 Ti3 2.020291 1_655
O5 Ti3 1.978983 1_655
O5 Ti1 1.984844 1_555
O6 Ti3 1.978983 1_555
O6 Ti1 1.984844 1_555
O7 Ti2 2.020291 1_556
O7 Ti3 2.020291 1_555
O8 Ti3 1.978983 1_555
O8 Ti0 1.984844 1_566
O9 Ti2 1.978983 1_556
O9 Ti1 1.984844 1_555
O10 Ti1 1.984917 1_555
O10 Ti0 1.984917 1_566
O11 Ti2 1.978983 1_555
O11 Ti0 1.984844 1_565
F0 Nd0 2.274587 1_555
F0 Nd1 2.274587 1_656
F1 Nd1 2.274587 1_565
F1 Nd0 2.274587 1_565
