# generated using pymatgen
data_V4Ge13O36
_symmetry_space_group_name_H-M   'P 1'
_cell_length_a   2.90515400
_cell_length_b   4.59250200
_cell_length_c   39.52781565
_cell_angle_alpha   88.93450724
_cell_angle_beta   90.00000000
_cell_angle_gamma   90.00000000
_symmetry_Int_Tables_number   1
_chemical_formula_structural   V4Ge13O36
_chemical_formula_sum   'V4 Ge13 O36'
_cell_volume   527.28598637
_cell_formula_units_Z   1
loop_
 _symmetry_equiv_pos_site_id
 _symmetry_equiv_pos_as_xyz
  1  'x, y, z'
loop_
 _atom_site_type_symbol
 _atom_site_label
 _atom_site_symmetry_multiplicity
 _atom_site_fract_x
 _atom_site_fract_y
 _atom_site_fract_z
 _atom_site_occupancy
  V  V0  1  0.00000000  0.93195700  0.90297700  1
  V  V1  1  0.00000000  0.06804300  0.09702300  1
  V  V2  1  0.50000000  0.23736100  0.95637800  1
  V  V3  1  0.50000000  0.76263900  0.04362200  1
  Ge  Ge0  1  0.00000000  0.04999700  0.21263100  1
  Ge  Ge1  1  0.00000000  0.02503300  0.32692700  1
  Ge  Ge2  1  0.00000000  0.00663200  0.44217000  1
  Ge  Ge3  1  0.00000000  0.99336800  0.55783000  1
  Ge  Ge4  1  0.00000000  0.97496700  0.67307300  1
  Ge  Ge5  1  0.00000000  0.95000300  0.78736900  1
  Ge  Ge6  1  0.50000000  0.56793200  0.15567100  1
  Ge  Ge7  1  0.50000000  0.53769400  0.26961600  1
  Ge  Ge8  1  0.50000000  0.50000000  0.50000000  1
  Ge  Ge9  1  0.50000000  0.51534200  0.38450900  1
  Ge  Ge10  1  0.50000000  0.48465800  0.61549100  1
  Ge  Ge11  1  0.50000000  0.46230600  0.73038400  1
  Ge  Ge12  1  0.50000000  0.43206800  0.84432900  1
  O  O0  1  0.00000000  0.47150400  0.95170800  1
  O  O1  1  0.00000000  0.14393700  0.99219000  1
  O  O2  1  0.00000000  0.85606300  0.00781000  1
  O  O3  1  0.00000000  0.52849600  0.04829200  1
  O  O4  1  0.00000000  0.36103900  0.17613500  1
  O  O5  1  0.00000000  0.33816300  0.29128500  1
  O  O6  1  0.00000000  0.73545000  0.24802900  1
  O  O7  1  0.00000000  0.31993500  0.40658500  1
  O  O8  1  0.00000000  0.70878300  0.36248400  1
  O  O9  1  0.00000000  0.30612700  0.52203200  1
  O  O10  1  0.00000000  0.69387300  0.47796800  1
  O  O11  1  0.00000000  0.29121700  0.63751600  1
  O  O12  1  0.00000000  0.68006500  0.59341500  1
  O  O13  1  0.00000000  0.26455000  0.75197100  1
  O  O14  1  0.00000000  0.66183700  0.70871500  1
  O  O15  1  0.00000000  0.21004700  0.86234400  1
  O  O16  1  0.50000000  0.28043900  0.11798500  1
  O  O17  1  0.50000000  0.13704300  0.05465100  1
  O  O18  1  0.50000000  0.24231500  0.23385000  1
  O  O19  1  0.50000000  0.71956100  0.88201500  1
  O  O20  1  0.50000000  0.21148100  0.34899200  1
  O  O21  1  0.50000000  0.86295700  0.94534900  1
  O  O22  1  0.50000000  0.19438100  0.46428500  1
  O  O23  1  0.50000000  0.76381500  0.09012300  1
  O  O24  1  0.50000000  0.16251600  0.69456500  1
  O  O25  1  0.50000000  0.85910800  0.19182200  1
  O  O26  1  0.50000000  0.83748400  0.30543500  1
  O  O27  1  0.50000000  0.18028000  0.57961200  1
  O  O28  1  0.50000000  0.14089200  0.80817800  1
  O  O29  1  0.50000000  0.81972000  0.42038800  1
  O  O30  1  0.50000000  0.23618500  0.90987700  1
  O  O31  1  0.50000000  0.80561900  0.53571500  1
  O  O32  1  0.50000000  0.75768500  0.76615000  1
  O  O33  1  0.50000000  0.78851900  0.65100800  1
  O  O34  1  0.00000000  0.78995300  0.13765600  1
  O  O35  1  0.00000000  0.63896100  0.82386500  1
loop_
_geom_bond_atom_site_label_1
_geom_bond_atom_site_label_2
_geom_bond_distance
_geom_bond_site_symmetry_2
Ge0 O25 1.892588 1_445
Ge0 O25 1.892588 1_545
Ge0 O18 1.902918 1_555
Ge0 O18 1.902918 1_455
Ge0 O6 1.992323 1_545
Ge0 O4 2.011213 1_555
Ge1 O26 1.897569 1_445
Ge1 O26 1.897569 1_545
Ge1 O20 1.905686 1_555
Ge1 O20 1.905686 1_455
Ge1 O5 1.994367 1_555
Ge1 O8 2.002221 1_545
Ge2 O29 1.901478 1_445
Ge2 O29 1.901478 1_545
Ge2 O22 1.909350 1_455
Ge2 O22 1.909350 1_555
Ge2 O7 1.993369 1_555
Ge2 O10 1.997442 1_545
Ge3 O27 1.901478 1_565
Ge3 O27 1.901478 1_465
Ge3 O31 1.909350 1_455
Ge3 O31 1.909350 1_555
Ge3 O12 1.993369 1_555
Ge3 O9 1.997442 1_565
Ge4 O24 1.897569 1_565
Ge4 O24 1.897569 1_465
Ge4 O33 1.905686 1_455
Ge4 O33 1.905686 1_555
Ge4 O14 1.994367 1_555
Ge4 O11 2.002221 1_565
Ge5 O28 1.892588 1_465
Ge5 O28 1.892588 1_565
Ge5 O32 1.902918 1_455
Ge5 O32 1.902918 1_555
Ge5 O13 1.992323 1_565
Ge5 O35 2.011213 1_555
Ge6 O34 1.905178 1_655
Ge6 O34 1.905178 1_555
Ge6 O4 1.907487 1_555
Ge6 O4 1.907487 1_655
Ge6 O25 1.975144 1_555
Ge6 O16 2.008834 1_555
Ge7 O6 1.906325 1_555
Ge7 O6 1.906325 1_655
Ge7 O5 1.911576 1_655
Ge7 O5 1.911576 1_555
Ge7 O18 1.977420 1_555
Ge7 O26 1.993153 1_555
Ge8 O9 1.905863 1_555
Ge8 O9 1.905863 1_655
Ge8 O10 1.905863 1_555
Ge8 O10 1.905863 1_655
Ge8 O31 2.009144 1_555
Ge8 O22 2.009144 1_555
Ge9 O8 1.904830 1_555
Ge9 O8 1.904830 1_655
Ge9 O7 1.909883 1_555
Ge9 O7 1.909883 1_655
Ge9 O20 1.997797 1_555
Ge9 O29 2.009745 1_555
Ge10 O11 1.904830 1_655
Ge10 O11 1.904830 1_555
Ge10 O12 1.909883 1_655
Ge10 O12 1.909883 1_555
Ge10 O33 1.997797 1_555
Ge10 O27 2.009745 1_555
Ge11 O13 1.906325 1_655
Ge11 O13 1.906325 1_555
Ge11 O14 1.911576 1_655
Ge11 O14 1.911576 1_555
Ge11 O32 1.977420 1_555
Ge11 O24 1.993153 1_555
Ge12 O15 1.905178 1_555
Ge12 O15 1.905178 1_655
Ge12 O35 1.907487 1_555
Ge12 O35 1.907487 1_655
Ge12 O28 1.975144 1_555
Ge12 O19 2.008834 1_555
O0 V2 1.814648 1_455
O0 V2 1.814648 1_555
O1 O2 1.448690 1_546
O1 V2 2.067683 1_455
O1 V2 2.067683 1_555
O2 V3 2.067683 1_455
O2 V3 2.067683 1_555
O3 V3 1.814648 1_555
O3 V3 1.814648 1_455
O15 V0 2.033331 1_545
O16 V1 1.943720 1_555
O16 V1 1.943720 1_655
O17 V3 1.781697 1_545
O17 V1 2.235141 1_655
O17 V1 2.235141 1_555
O19 V0 1.943720 1_655
O19 V0 1.943720 1_555
O21 V2 1.781697 1_565
O21 V0 2.235141 1_655
O21 V0 2.235141 1_555
O23 V3 1.838191 1_555
O23 V1 2.037306 1_565
O23 V1 2.037306 1_665
O30 V2 1.838191 1_555
O30 V0 2.037306 1_545
O30 V0 2.037306 1_645
O34 V1 2.033331 1_565
