# generated using pymatgen
data_CsNiF3
_symmetry_space_group_name_H-M   'P 1'
_cell_length_a   7.42974619
_cell_length_b   7.42974619
_cell_length_c   5.42097000
_cell_angle_alpha   90.00000000
_cell_angle_beta   90.00000000
_cell_angle_gamma   120.00000170
_symmetry_Int_Tables_number   1
_chemical_formula_structural   CsNiF3
_chemical_formula_sum   'Cs2 Ni2 F6'
_cell_volume   259.15260821
_cell_formula_units_Z   2
loop_
 _symmetry_equiv_pos_site_id
 _symmetry_equiv_pos_as_xyz
  1  'x, y, z'
loop_
 _atom_site_type_symbol
 _atom_site_label
 _atom_site_symmetry_multiplicity
 _atom_site_fract_x
 _atom_site_fract_y
 _atom_site_fract_z
 _atom_site_occupancy
  Cs  Cs0  1  0.66666700  0.33333300  0.25000000  1
  Cs  Cs1  1  0.33333300  0.66666700  0.75000000  1
  Ni  Ni0  1  0.00000000  0.00000000  0.00000000  1
  Ni  Ni1  1  0.00000000  0.00000000  0.50000000  1
  F  F0  1  0.88140200  0.76280500  0.25000000  1
  F  F1  1  0.11859800  0.23719500  0.75000000  1
  F  F2  1  0.88140200  0.11859800  0.25000000  1
  F  F3  1  0.11859800  0.88140200  0.75000000  1
  F  F4  1  0.23719500  0.11859800  0.25000000  1
  F  F5  1  0.76280500  0.88140200  0.75000000  1
loop_
_geom_bond_atom_site_label_1
_geom_bond_atom_site_label_2
_geom_bond_distance
_geom_bond_site_symmetry_2
Cs0 F2 2.763360 1_555
Cs0 F4 2.763373 1_555
Cs0 F0 2.763373 1_555
Cs1 F3 2.763360 1_555
Cs1 F5 2.763373 1_555
Cs1 F1 2.763373 1_555
F0 Ni1 2.041067 1_665
F0 Ni0 2.041067 1_665
F1 Ni1 2.041067 1_555
F1 Ni0 2.041067 1_556
F2 Ni1 2.041072 1_655
F2 Ni0 2.041072 1_655
F3 Ni0 2.041072 1_566
F3 Ni1 2.041072 1_565
F4 Ni1 2.041067 1_555
F4 Ni0 2.041067 1_555
F5 Ni0 2.041067 1_666
F5 Ni1 2.041067 1_665
