# generated using pymatgen
data_Cs2CuCl4
_symmetry_space_group_name_H-M   'P 1'
_cell_length_a   7.62365775
_cell_length_b   9.83993209
_cell_length_c   12.33603403
_cell_angle_alpha   90.00000000
_cell_angle_beta   90.00000000
_cell_angle_gamma   90.00000000
_symmetry_Int_Tables_number   1
_chemical_formula_structural   Cs2CuCl4
_chemical_formula_sum   'Cs8 Cu4 Cl16'
_cell_volume   925.40331550
_cell_formula_units_Z   4
loop_
 _symmetry_equiv_pos_site_id
 _symmetry_equiv_pos_as_xyz
  1  'x, y, z'
loop_
 _atom_site_type_symbol
 _atom_site_label
 _atom_site_symmetry_multiplicity
 _atom_site_fract_x
 _atom_site_fract_y
 _atom_site_fract_z
 _atom_site_occupancy
  Cs  Cs0  1  0.25000000  0.13438140  0.89614040  1
  Cs  Cs1  1  0.75000000  0.36561860  0.39614040  1
  Cs  Cs2  1  0.25000000  0.63438140  0.60385960  1
  Cs  Cs3  1  0.25000000  0.01271196  0.32691226  1
  Cs  Cs4  1  0.75000000  0.98728804  0.67308774  1
  Cs  Cs5  1  0.75000000  0.86561860  0.10385960  1
  Cs  Cs6  1  0.25000000  0.51271196  0.17308774  1
  Cs  Cs7  1  0.75000000  0.48728804  0.82691226  1
  Cu  Cu0  1  0.25000000  0.72916883  0.91727554  1
  Cu  Cu1  1  0.25000000  0.22916883  0.58272446  1
  Cu  Cu2  1  0.75000000  0.77083117  0.41727554  1
  Cu  Cu3  1  0.75000000  0.27083117  0.08272446  1
  Cl  Cl0  1  0.51502507  0.28673147  0.64264096  1
  Cl  Cl1  1  0.98497493  0.28673147  0.64264096  1
  Cl  Cl2  1  0.51502507  0.78673147  0.85735904  1
  Cl  Cl3  1  0.25000000  0.34848557  0.42679562  1
  Cl  Cl4  1  0.01502507  0.71326853  0.35735904  1
  Cl  Cl5  1  0.25000000  0.84848557  0.07320438  1
  Cl  Cl6  1  0.48497493  0.21326853  0.14264096  1
  Cl  Cl7  1  0.75000000  0.49498697  0.12123550  1
  Cl  Cl8  1  0.98497493  0.78673147  0.85735904  1
  Cl  Cl9  1  0.25000000  0.50501303  0.87876450  1
  Cl  Cl10  1  0.01502507  0.21326853  0.14264096  1
  Cl  Cl11  1  0.75000000  0.99498697  0.37876450  1
  Cl  Cl12  1  0.48497493  0.71326853  0.35735904  1
  Cl  Cl13  1  0.75000000  0.65151443  0.57320438  1
  Cl  Cl14  1  0.75000000  0.15151443  0.92679562  1
  Cl  Cl15  1  0.25000000  0.00501303  0.62123550  1
loop_
_geom_bond_atom_site_label_1
_geom_bond_atom_site_label_2
_geom_bond_distance
_geom_bond_site_symmetry_2
Cl0 Cu1 2.224725 1_555
Cl0 Cs4 3.468710 1_545
Cl0 Cs7 3.502983 1_555
Cl0 Cs1 3.613621 1_555
Cl0 Cs2 4.001670 1_555
Cl0 Cs0 4.013583 1_555
Cl1 Cu1 2.224725 1_655
Cl1 Cs4 3.468710 1_545
Cl1 Cs7 3.502983 1_555
Cl1 Cs1 3.613621 1_555
Cl1 Cs2 4.001670 1_655
Cl1 Cs0 4.013583 1_655
Cl2 Cu0 2.224725 1_555
Cl2 Cs7 3.468710 1_555
Cl2 Cs4 3.502983 1_555
Cl2 Cs5 3.613621 1_556
Cl2 Cs0 4.001670 1_565
Cl2 Cs2 4.013583 1_555
Cl3 Cu1 2.253543 1_555
Cl3 Cs6 3.522316 1_555
Cl3 Cs3 3.526269 1_555
Cl3 Cs2 3.561614 1_555
Cl3 Cs1 3.834249 1_555
Cl3 Cs1 3.834249 1_455
Cl4 Cu2 2.224725 1_455
Cl4 Cs3 3.468710 1_565
Cl4 Cs6 3.502983 1_555
Cl4 Cs2 3.613621 1_555
Cl4 Cs1 4.001670 1_455
Cl4 Cs5 4.013583 1_455
Cl5 Cu0 2.253543 1_554
Cl5 Cs3 3.522316 1_565
Cl5 Cs6 3.526269 1_555
Cl5 Cs0 3.561614 1_564
Cl5 Cs5 3.834249 1_455
Cl5 Cs5 3.834249 1_555
Cl6 Cu3 2.224725 1_555
Cl6 Cs6 3.468710 1_555
Cl6 Cs3 3.502983 1_555
Cl6 Cs0 3.613621 1_554
Cl6 Cs5 4.001670 1_545
Cl6 Cs1 4.013583 1_555
Cl7 Cu3 2.256260 1_555
Cl7 Cs1 3.622285 1_555
Cl7 Cs7 3.631572 1_554
Cl7 Cs5 3.653284 1_555
Cl7 Cs6 3.869058 1_555
Cl7 Cs6 3.869058 1_655
Cl8 Cu0 2.224725 1_655
Cl8 Cs7 3.468710 1_555
Cl8 Cs4 3.502983 1_555
Cl8 Cs5 3.613621 1_556
Cl8 Cs0 4.001670 1_665
Cl8 Cs2 4.013583 1_655
Cl9 Cu0 2.256260 1_555
Cl9 Cs2 3.622285 1_555
Cl9 Cs6 3.631572 1_556
Cl9 Cs0 3.653284 1_555
Cl9 Cs7 3.869058 1_455
Cl9 Cs7 3.869058 1_555
Cl10 Cu3 2.224725 1_455
Cl10 Cs6 3.468710 1_555
Cl10 Cs3 3.502983 1_555
Cl10 Cs0 3.613621 1_554
Cl10 Cs5 4.001670 1_445
Cl10 Cs1 4.013583 1_455
Cl11 Cu2 2.256260 1_555
Cl11 Cs5 3.622285 1_555
Cl11 Cs4 3.631572 1_555
Cl11 Cs1 3.653284 1_565
Cl11 Cs3 3.869058 1_565
Cl11 Cs3 3.869058 1_665
Cl12 Cu2 2.224725 1_555
Cl12 Cs3 3.468710 1_565
Cl12 Cs6 3.502983 1_555
Cl12 Cs2 3.613621 1_555
Cl12 Cs1 4.001670 1_555
Cl12 Cs5 4.013583 1_555
Cl13 Cu2 2.253543 1_555
Cl13 Cs7 3.522316 1_555
Cl13 Cs4 3.526269 1_555
Cl13 Cs1 3.561614 1_555
Cl13 Cs2 3.834249 1_655
Cl13 Cs2 3.834249 1_555
Cl14 Cu3 2.253543 1_556
Cl14 Cs4 3.522316 1_545
Cl14 Cs7 3.526269 1_555
Cl14 Cs5 3.561614 1_546
Cl14 Cs0 3.834249 1_555
Cl14 Cs0 3.834249 1_655
Cl15 Cu1 2.256260 1_555
Cl15 Cs0 3.622285 1_555
Cl15 Cs3 3.631572 1_555
Cl15 Cs2 3.653284 1_545
Cl15 Cs4 3.869058 1_445
Cl15 Cs4 3.869058 1_545
