# generated using pymatgen
data_PrInAu
_symmetry_space_group_name_H-M   'P 1'
_cell_length_a   7.84412412
_cell_length_b   7.84412410
_cell_length_c   4.18792375
_cell_angle_alpha   90.00000000
_cell_angle_beta   90.00000000
_cell_angle_gamma   120.00000010
_symmetry_Int_Tables_number   1
_chemical_formula_structural   PrInAu
_chemical_formula_sum   'Pr3 In3 Au3'
_cell_volume   223.16100561
_cell_formula_units_Z   3
loop_
 _symmetry_equiv_pos_site_id
 _symmetry_equiv_pos_as_xyz
  1  'x, y, z'
loop_
 _atom_site_type_symbol
 _atom_site_label
 _atom_site_symmetry_multiplicity
 _atom_site_fract_x
 _atom_site_fract_y
 _atom_site_fract_z
 _atom_site_occupancy
  Pr  Pr0  1  -0.00000000  0.58830734  0.50000000  1
  Pr  Pr1  1  0.58830734  0.00000000  0.50000000  1
  Pr  Pr2  1  0.41169266  0.41169266  0.50000000  1
  In  In0  1  0.00000000  0.25048921  -0.00000000  1
  In  In1  1  0.25048921  0.00000000  0.00000000  1
  In  In2  1  0.74951079  0.74951079  -0.00000000  1
  Au  Au0  1  0.00000000  0.00000000  0.50000000  1
  Au  Au1  1  0.66666700  0.33333300  0.00000000  1
  Au  Au2  1  0.33333300  0.66666700  -0.00000000  1
loop_
_geom_bond_atom_site_label_1
_geom_bond_atom_site_label_2
_geom_bond_distance
_geom_bond_site_symmetry_2
In0 Pr0 3.377363 1_554
In0 Pr0 3.377363 1_555
In0 In2 3.403252 1_445
In0 In1 3.403252 1_555
In0 Pr1 3.511256 1_454
In0 Pr1 3.511256 1_455
In0 Pr2 3.511256 1_555
In0 Pr2 3.511256 1_554
In1 Pr1 3.377363 1_554
In1 Pr1 3.377363 1_555
In1 In2 3.403252 1_445
In1 Pr0 3.511256 1_544
In1 Pr0 3.511256 1_545
In1 Pr2 3.511256 1_555
In1 Pr2 3.511256 1_554
In2 Pr2 3.377363 1_555
In2 Pr2 3.377363 1_554
In2 Pr1 3.511256 1_565
In2 Pr1 3.511256 1_564
In2 Pr0 3.511256 1_654
In2 Pr0 3.511256 1_655
Au0 In0 2.871478 1_555
Au0 In0 2.871478 1_556
Au0 In2 2.871478 1_445
Au0 In2 2.871478 1_446
Au0 In1 2.871478 1_555
Au0 In1 2.871478 1_556
Au0 Pr0 3.229368 1_545
Au0 Pr2 3.229368 1_555
Au0 Pr1 3.229368 1_455
Au1 In0 2.993009 1_655
Au1 In1 2.993014 1_555
Au1 In2 2.993017 1_555
Au1 Pr1 3.161014 1_554
Au1 Pr1 3.161014 1_555
Au1 Pr0 3.161016 1_655
Au1 Pr0 3.161016 1_654
Au1 Pr2 3.161020 1_554
Au1 Pr2 3.161020 1_555
Au2 In1 2.993009 1_565
Au2 In0 2.993014 1_555
Au2 In2 2.993017 1_555
Au2 Pr0 3.161014 1_555
Au2 Pr0 3.161014 1_554
Au2 Pr1 3.161016 1_564
Au2 Pr1 3.161016 1_565
Au2 Pr2 3.161020 1_554
Au2 Pr2 3.161020 1_555
