# generated using pymatgen
data_Tl2Br3
_symmetry_space_group_name_H-M   'P 1'
_cell_length_a   15.83663483
_cell_length_b   15.83663483
_cell_length_c   27.78991178
_cell_angle_alpha   73.57833479
_cell_angle_beta   73.57833479
_cell_angle_gamma   59.56944060
_symmetry_Int_Tables_number   1
_chemical_formula_structural   Tl2Br3
_chemical_formula_sum   'Tl64 Br96'
_cell_volume   5681.81053977
_cell_formula_units_Z   32
loop_
 _symmetry_equiv_pos_site_id
 _symmetry_equiv_pos_as_xyz
  1  'x, y, z'
loop_
 _atom_site_type_symbol
 _atom_site_label
 _atom_site_symmetry_multiplicity
 _atom_site_fract_x
 _atom_site_fract_y
 _atom_site_fract_z
 _atom_site_occupancy
  Tl  Tl0  1  0.63853800  0.11172500  0.59087800  1
  Tl  Tl1  1  0.21399500  0.19278400  0.91489500  1
  Tl  Tl2  1  0.79327600  0.34854200  0.09197700  1
  Tl  Tl3  1  0.95166100  0.45253600  0.69756100  1
  Tl  Tl4  1  0.36146200  0.88827500  0.40912200  1
  Tl  Tl5  1  0.81045500  0.23995300  0.59208000  1
  Tl  Tl6  1  0.38612200  0.46415400  0.22000000  1
  Tl  Tl7  1  0.63978200  0.71082700  0.90983800  1
  Tl  Tl8  1  0.41894000  0.33978300  0.91636500  1
  Tl  Tl9  1  0.15115400  0.15506700  0.09228100  1
  Tl  Tl10  1  0.91311400  0.92321100  0.22537800  1
  Tl  Tl11  1  0.08688600  0.07678900  0.77462200  1
  Tl  Tl12  1  0.33978300  0.41894000  0.41636500  1
  Tl  Tl13  1  0.78600500  0.80721600  0.08510500  1
  Tl  Tl14  1  0.19278400  0.21399500  0.41489500  1
  Tl  Tl15  1  0.45253600  0.95166100  0.19756100  1
  Tl  Tl16  1  0.58106000  0.66021700  0.08363500  1
  Tl  Tl17  1  0.29948100  0.88730800  0.91185600  1
  Tl  Tl18  1  0.70051900  0.11269200  0.08814400  1
  Tl  Tl19  1  0.50000000  0.50000000  0.50000000  1
  Tl  Tl20  1  0.23995300  0.81045500  0.09208000  1
  Tl  Tl21  1  0.80721600  0.78600500  0.58510500  1
  Tl  Tl22  1  0.73936800  0.74096100  0.74852000  1
  Tl  Tl23  1  0.06591800  0.56581300  0.80992400  1
  Tl  Tl24  1  0.18954500  0.76004700  0.40792000  1
  Tl  Tl25  1  0.84884600  0.84493300  0.90771900  1
  Tl  Tl26  1  0.00000000  0.00000000  0.00000000  1
  Tl  Tl27  1  0.74096100  0.73936800  0.24852000  1
  Tl  Tl28  1  0.88827500  0.36146200  0.90912200  1
  Tl  Tl29  1  0.50000000  0.00000000  0.00000000  1
  Tl  Tl30  1  0.22401000  0.77599000  0.25000000  1
  Tl  Tl31  1  0.61387800  0.53584600  0.78000000  1
  Tl  Tl32  1  0.93408200  0.43418700  0.19007600  1
  Tl  Tl33  1  0.28917300  0.36021800  0.59016200  1
  Tl  Tl34  1  0.92321100  0.91311400  0.72537800  1
  Tl  Tl35  1  0.04833900  0.54746400  0.30243900  1
  Tl  Tl36  1  0.07678900  0.08688600  0.27462200  1
  Tl  Tl37  1  0.25903900  0.26063200  0.75148000  1
  Tl  Tl38  1  0.15506700  0.15115400  0.59228100  1
  Tl  Tl39  1  0.66021700  0.58106000  0.58363500  1
  Tl  Tl40  1  0.76004700  0.18954500  0.90792000  1
  Tl  Tl41  1  0.00000000  0.50000000  0.00000000  1
  Tl  Tl42  1  0.54746400  0.04833900  0.80243900  1
  Tl  Tl43  1  0.11172500  0.63853800  0.09087800  1
  Tl  Tl44  1  0.26453900  0.73546100  0.75000000  1
  Tl  Tl45  1  0.77599000  0.22401000  0.75000000  1
  Tl  Tl46  1  0.00000000  0.00000000  0.50000000  1
  Tl  Tl47  1  0.00000000  0.50000000  0.50000000  1
  Tl  Tl48  1  0.56581300  0.06591800  0.30992400  1
  Tl  Tl49  1  0.73546100  0.26453900  0.25000000  1
  Tl  Tl50  1  0.20672400  0.65145800  0.90802300  1
  Tl  Tl51  1  0.50000000  0.50000000  0.00000000  1
  Tl  Tl52  1  0.65145800  0.20672400  0.40802300  1
  Tl  Tl53  1  0.11269200  0.70051900  0.58814400  1
  Tl  Tl54  1  0.84493300  0.84884600  0.40771900  1
  Tl  Tl55  1  0.36021800  0.28917300  0.09016200  1
  Tl  Tl56  1  0.88730800  0.29948100  0.41185600  1
  Tl  Tl57  1  0.26063200  0.25903900  0.25148000  1
  Tl  Tl58  1  0.50000000  0.00000000  0.50000000  1
  Tl  Tl59  1  0.34854200  0.79327600  0.59197700  1
  Tl  Tl60  1  0.46415400  0.38612200  0.72000000  1
  Tl  Tl61  1  0.43418700  0.93408200  0.69007600  1
  Tl  Tl62  1  0.53584600  0.61387800  0.28000000  1
  Tl  Tl63  1  0.71082700  0.63978200  0.40983800  1
  Br  Br0  1  0.66931000  0.80842600  0.99919900  1
  Br  Br1  1  0.71342700  0.18198200  0.18512000  1
  Br  Br2  1  0.70826900  0.43188500  0.50037900  1
  Br  Br3  1  0.55883600  0.80352600  0.31322100  1
  Br  Br4  1  0.35364900  0.27582400  0.82077100  1
  Br  Br5  1  0.03176800  0.55608100  0.57924100  1
  Br  Br6  1  0.30802000  0.51260700  0.01513900  1
  Br  Br7  1  0.54312600  0.32648500  0.30501000  1
  Br  Br8  1  0.16662400  0.45182200  0.92223600  1
  Br  Br9  1  0.29173100  0.56811500  0.49962100  1
  Br  Br10  1  0.68260800  0.99348300  0.49830300  1
  Br  Br11  1  0.48739300  0.69198000  0.48486100  1
  Br  Br12  1  0.66613700  0.92300600  0.68365400  1
  Br  Br13  1  0.30727700  0.06641200  0.79946000  1
  Br  Br14  1  0.02238500  0.15901100  0.51410500  1
  Br  Br15  1  0.23550700  0.16796000  0.18457200  1
  Br  Br16  1  0.08045300  0.03779600  0.39975800  1
  Br  Br17  1  0.83204000  0.76449300  0.31542800  1
  Br  Br18  1  0.76449300  0.83204000  0.81542800  1
  Br  Br19  1  0.85581400  0.04783500  0.81873900  1
  Br  Br20  1  0.96823200  0.44391900  0.42075900  1
  Br  Br21  1  0.69272300  0.93358800  0.20054000  1
  Br  Br22  1  0.16796000  0.23550700  0.68457200  1
  Br  Br23  1  0.67351500  0.45687400  0.19499000  1
  Br  Br24  1  0.08191200  0.60341900  0.42281900  1
  Br  Br25  1  0.11115600  0.41137600  0.07845200  1
  Br  Br26  1  0.20981400  0.45335100  0.70244300  1
  Br  Br27  1  0.88884400  0.58862400  0.92154800  1
  Br  Br28  1  0.22170100  0.93763000  0.68167500  1
  Br  Br29  1  0.33386300  0.07699400  0.31634600  1
  Br  Br30  1  0.07699400  0.33386300  0.81634600  1
  Br  Br31  1  0.18198200  0.71342700  0.68512000  1
  Br  Br32  1  0.04783500  0.85581400  0.31873900  1
  Br  Br33  1  0.80352600  0.55883600  0.81322100  1
  Br  Br34  1  0.14389700  0.69434000  0.20924700  1
  Br  Br35  1  0.45182200  0.16662400  0.42223600  1
  Br  Br36  1  0.39658100  0.91808800  0.07718100  1
  Br  Br37  1  0.99348300  0.68260800  0.99830300  1
  Br  Br38  1  0.03779600  0.08045300  0.89975800  1
  Br  Br39  1  0.84098900  0.97761500  0.98589500  1
  Br  Br40  1  0.45383000  0.50520200  0.60040400  1
  Br  Br41  1  0.69314300  0.40171700  0.68211700  1
  Br  Br42  1  0.93358800  0.69272300  0.70054000  1
  Br  Br43  1  0.79018600  0.54664900  0.29755700  1
  Br  Br44  1  0.15901100  0.02238500  0.01410500  1
  Br  Br45  1  0.80686000  0.14759400  0.48578800  1
  Br  Br46  1  0.80842600  0.66931000  0.49919900  1
  Br  Br47  1  0.69198000  0.48739300  0.98486100  1
  Br  Br48  1  0.59828300  0.30685700  0.81788300  1
  Br  Br49  1  0.45687400  0.67351500  0.69499000  1
  Br  Br50  1  0.14759400  0.80686000  0.98578800  1
  Br  Br51  1  0.97761500  0.84098900  0.48589500  1
  Br  Br52  1  0.85610300  0.30566000  0.79075300  1
  Br  Br53  1  0.77829900  0.06237000  0.31832500  1
  Br  Br54  1  0.69434000  0.14389700  0.70924700  1
  Br  Br55  1  0.40171700  0.69314300  0.18211700  1
  Br  Br56  1  0.64635100  0.72417600  0.17922900  1
  Br  Br57  1  0.30566000  0.85610300  0.29075300  1
  Br  Br58  1  0.91954700  0.96220400  0.60024200  1
  Br  Br59  1  0.19647400  0.44116400  0.18677900  1
  Br  Br60  1  0.55608100  0.03176800  0.07924100  1
  Br  Br61  1  0.54817800  0.83337600  0.57776400  1
  Br  Br62  1  0.60341900  0.08191200  0.92281900  1
  Br  Br63  1  0.28657300  0.81801800  0.81488000  1
  Br  Br64  1  0.92300600  0.66613700  0.18365400  1
  Br  Br65  1  0.41137600  0.11115600  0.57845200  1
  Br  Br66  1  0.72417600  0.64635100  0.67922900  1
  Br  Br67  1  0.91808800  0.39658100  0.57718100  1
  Br  Br68  1  0.43188500  0.70826900  0.00037900  1
  Br  Br69  1  0.00651700  0.31739200  0.00169700  1
  Br  Br70  1  0.44391900  0.96823200  0.92075900  1
  Br  Br71  1  0.44116400  0.19647400  0.68677900  1
  Br  Br72  1  0.30685700  0.59828300  0.31788300  1
  Br  Br73  1  0.83337600  0.54817800  0.07776400  1
  Br  Br74  1  0.27582400  0.35364900  0.32077100  1
  Br  Br75  1  0.50520200  0.45383000  0.10040400  1
  Br  Br76  1  0.19157400  0.33069000  0.50080100  1
  Br  Br77  1  0.45335100  0.20981400  0.20244300  1
  Br  Br78  1  0.06641200  0.30727700  0.29946000  1
  Br  Br79  1  0.19314000  0.85240600  0.51421200  1
  Br  Br80  1  0.33069000  0.19157400  0.00080100  1
  Br  Br81  1  0.31739200  0.00651700  0.50169700  1
  Br  Br82  1  0.54664900  0.79018600  0.79755700  1
  Br  Br83  1  0.93763000  0.22170100  0.18167500  1
  Br  Br84  1  0.06237000  0.77829900  0.81832500  1
  Br  Br85  1  0.96220400  0.91954700  0.10024200  1
  Br  Br86  1  0.85240600  0.19314000  0.01421200  1
  Br  Br87  1  0.58862400  0.88884400  0.42154800  1
  Br  Br88  1  0.95216500  0.14418600  0.68126100  1
  Br  Br89  1  0.32648500  0.54312600  0.80501000  1
  Br  Br90  1  0.56811500  0.29173100  0.99962100  1
  Br  Br91  1  0.49479800  0.54617000  0.89959600  1
  Br  Br92  1  0.51260700  0.30802000  0.51513900  1
  Br  Br93  1  0.14418600  0.95216500  0.18126100  1
  Br  Br94  1  0.54617000  0.49479800  0.39959600  1
  Br  Br95  1  0.81801800  0.28657300  0.31488000  1
loop_
_geom_bond_atom_site_label_1
_geom_bond_atom_site_label_2
_geom_bond_distance
_geom_bond_site_symmetry_2
Br0 Tl29 2.856285 1_566
Br0 Tl16 3.364957 1_556
Br0 Tl13 3.398200 1_556
Br0 Tl25 3.410054 1_555
Br1 Tl49 2.689363 1_555
Br1 Tl18 3.274054 1_555
Br2 Tl19 2.907146 1_555
Br2 Tl5 3.364712 1_555
Br2 Tl56 3.382027 1_555
Br2 Tl39 3.433238 1_555
Br3 Tl27 2.777826 1_555
Br4 Tl37 2.875599 1_555
Br4 Tl1 3.345615 1_555
Br4 Tl60 3.393509 1_555
Br5 Tl47 2.841824 1_555
Br5 Tl53 3.225627 1_555
Br6 Tl51 2.858282 1_555
Br6 Tl43 3.234942 1_555
Br6 Tl55 3.375046 1_555
Br6 Tl50 3.419856 1_554
Br7 Tl49 2.786644 1_555
Br7 Tl52 3.338648 1_555
Br7 Tl6 3.381465 1_555
Br8 Tl41 2.807831 1_556
Br8 Tl8 3.428503 1_555
Br9 Tl19 2.907146 1_555
Br9 Tl24 3.364712 1_555
Br9 Tl53 3.382027 1_555
Br9 Tl12 3.433238 1_555
Br10 Tl58 2.828293 1_565
Br10 Tl0 3.316149 1_565
Br10 Tl54 3.439260 1_555
Br11 Tl19 2.858282 1_555
Br11 Tl4 3.234942 1_555
Br11 Tl63 3.375046 1_555
Br11 Tl59 3.419856 1_555
Br12 Tl22 2.786166 1_555
Br12 Tl0 3.275311 1_565
Br13 Tl37 2.774677 1_555
Br14 Tl46 2.856854 1_555
Br14 Tl5 3.271620 1_455
Br14 Tl38 3.363602 1_555
Br15 Tl57 2.865677 1_555
Br15 Tl9 3.303605 1_555
Br15 Tl36 3.482082 1_555
Br16 Tl46 2.750417 1_555
Br16 Tl36 3.352715 1_555
Br17 Tl27 2.865677 1_555
Br17 Tl54 3.303605 1_555
Br17 Tl10 3.482082 1_555
Br18 Tl22 2.865677 1_555
Br18 Tl25 3.303605 1_555
Br18 Tl34 3.482082 1_555
Br19 Tl45 2.794723 1_555
Br19 Tl40 3.324225 1_555
Br19 Tl34 3.417575 1_545
Br19 Tl25 3.487726 1_545
Br20 Tl47 2.841824 1_655
Br20 Tl56 3.225627 1_555
Br21 Tl27 2.774677 1_555
Br22 Tl37 2.865677 1_555
Br22 Tl38 3.303605 1_555
Br22 Tl11 3.482082 1_555
Br23 Tl49 2.786644 1_555
Br23 Tl2 3.338648 1_555
Br23 Tl62 3.381465 1_555
Br24 Tl47 2.749253 1_555
Br25 Tl41 2.785481 1_555
Br26 Tl37 2.760167 1_555
Br27 Tl41 2.785481 1_656
Br28 Tl44 3.067092 1_555
Br28 Tl59 3.348709 1_555
Br28 Tl11 3.379511 1_565
Br28 Tl61 3.409774 1_555
Br28 Tl38 3.440559 1_565
Br29 Tl57 2.786166 1_555
Br29 Tl4 3.275311 1_545
Br30 Tl37 2.786166 1_555
Br30 Tl28 3.275311 1_455
Br31 Tl44 2.689363 1_555
Br31 Tl53 3.274054 1_555
Br32 Tl30 2.794723 1_555
Br32 Tl24 3.324225 1_555
Br32 Tl10 3.417575 1_455
Br32 Tl54 3.487726 1_455
Br33 Tl22 2.777826 1_555
Br34 Tl30 2.804730 1_555
Br35 Tl58 2.807831 1_555
Br35 Tl12 3.428503 1_555
Br36 Tl29 2.749253 1_565
Br37 Tl41 2.828293 1_656
Br37 Tl43 3.316149 1_656
Br37 Tl25 3.439260 1_555
Br38 Tl26 2.750417 1_556
Br38 Tl11 3.352715 1_555
Br39 Tl26 2.856854 1_666
Br39 Tl40 3.271620 1_565
Br39 Tl25 3.363602 1_555
Br40 Tl19 2.691126 1_555
Br40 Tl60 3.328702 1_555
Br41 Tl45 2.803145 1_555
Br41 Tl39 3.277255 1_555
Br42 Tl22 2.774677 1_555
Br43 Tl27 2.760167 1_555
Br44 Tl26 2.856854 1_555
Br44 Tl20 3.271620 1_545
Br44 Tl9 3.363602 1_555
Br45 Tl46 2.809595 1_655
Br45 Tl56 3.234237 1_555
Br45 Tl52 3.336514 1_555
Br46 Tl47 2.856285 1_655
Br46 Tl39 3.364957 1_555
Br46 Tl21 3.398200 1_555
Br46 Tl54 3.410054 1_555
Br47 Tl51 2.858282 1_556
Br47 Tl28 3.234942 1_555
Br47 Tl7 3.375046 1_555
Br47 Tl2 3.419856 1_556
Br48 Tl45 2.803145 1_555
Br48 Tl8 3.277255 1_555
Br49 Tl44 2.786644 1_555
Br49 Tl59 3.338648 1_555
Br49 Tl31 3.381465 1_555
Br50 Tl26 2.809595 1_566
Br50 Tl17 3.234237 1_555
Br50 Tl50 3.336514 1_555
Br51 Tl46 2.856854 1_665
Br51 Tl24 3.271620 1_655
Br51 Tl54 3.363602 1_555
Br52 Tl45 2.804730 1_555
Br53 Tl49 3.067092 1_555
Br53 Tl52 3.348709 1_555
Br53 Tl10 3.379511 1_545
Br53 Tl48 3.409774 1_555
Br53 Tl54 3.440559 1_545
Br54 Tl45 2.804730 1_555
Br55 Tl30 2.803145 1_555
Br55 Tl16 3.277255 1_555
Br56 Tl27 2.875599 1_555
Br56 Tl13 3.345615 1_555
Br56 Tl62 3.393509 1_555
Br57 Tl30 2.804730 1_555
Br58 Tl46 2.750417 1_665
Br58 Tl34 3.352715 1_555
Br59 Tl57 2.777826 1_555
Br60 Tl29 2.841824 1_555
Br60 Tl18 3.225627 1_555
Br61 Tl58 2.807831 1_565
Br61 Tl39 3.428503 1_555
Br62 Tl29 2.749253 1_556
Br63 Tl44 2.689363 1_555
Br63 Tl17 3.274054 1_555
Br64 Tl27 2.786166 1_555
Br64 Tl43 3.275311 1_655
Br65 Tl58 2.785481 1_555
Br66 Tl22 2.875599 1_555
Br66 Tl21 3.345615 1_555
Br66 Tl31 3.393509 1_555
Br67 Tl47 2.749253 1_655
Br68 Tl51 2.907146 1_555
Br68 Tl20 3.364712 1_555
Br68 Tl17 3.382027 1_554
Br68 Tl16 3.433238 1_555
Br69 Tl41 2.828293 1_555
Br69 Tl28 3.316149 1_454
Br69 Tl9 3.439260 1_555
Br70 Tl29 2.841824 1_566
Br70 Tl17 3.225627 1_555
Br71 Tl37 2.777826 1_555
Br72 Tl30 2.803145 1_555
Br72 Tl12 3.277255 1_555
Br73 Tl41 2.807831 1_655
Br73 Tl16 3.428503 1_555
Br74 Tl57 2.875599 1_555
Br74 Tl14 3.345615 1_555
Br74 Tl6 3.393509 1_555
Br75 Tl51 2.691126 1_555
Br75 Tl6 3.328702 1_555
Br76 Tl47 2.856285 1_555
Br76 Tl12 3.364957 1_555
Br76 Tl14 3.398200 1_555
Br76 Tl38 3.410054 1_555
Br77 Tl57 2.760167 1_555
Br78 Tl57 2.774677 1_555
Br79 Tl46 2.809595 1_565
Br79 Tl53 3.234237 1_555
Br79 Tl59 3.336514 1_555
Br80 Tl29 2.856285 1_555
Br80 Tl8 3.364957 1_554
Br80 Tl1 3.398200 1_554
Br80 Tl9 3.410054 1_555
Br81 Tl58 2.828293 1_555
Br81 Tl4 3.316149 1_545
Br81 Tl38 3.439260 1_555
Br82 Tl22 2.760167 1_555
Br83 Tl49 3.067092 1_555
Br83 Tl2 3.348709 1_555
Br83 Tl36 3.379511 1_655
Br83 Tl32 3.409774 1_555
Br83 Tl9 3.440559 1_655
Br84 Tl44 3.067092 1_555
Br84 Tl50 3.348709 1_555
Br84 Tl34 3.379511 1_455
Br84 Tl23 3.409774 1_555
Br84 Tl25 3.440559 1_455
Br85 Tl26 2.750417 1_665
Br85 Tl10 3.352715 1_555
Br86 Tl26 2.809595 1_655
Br86 Tl18 3.234237 1_555
Br86 Tl2 3.336514 1_555
Br87 Tl58 2.785481 1_565
Br88 Tl45 2.794723 1_555
Br88 Tl5 3.324225 1_555
Br88 Tl11 3.417575 1_655
Br88 Tl38 3.487726 1_655
Br89 Tl44 2.786644 1_555
Br89 Tl50 3.338648 1_555
Br89 Tl60 3.381465 1_555
Br90 Tl51 2.907146 1_556
Br90 Tl40 3.364712 1_555
Br90 Tl18 3.382027 1_556
Br90 Tl8 3.433238 1_555
Br91 Tl51 2.691126 1_556
Br91 Tl31 3.328702 1_555
Br92 Tl19 2.858282 1_555
Br92 Tl0 3.234942 1_555
Br92 Tl33 3.375046 1_555
Br92 Tl52 3.419856 1_555
Br93 Tl30 2.794723 1_555
Br93 Tl20 3.324225 1_555
Br93 Tl36 3.417575 1_565
Br93 Tl9 3.487726 1_565
Br94 Tl19 2.691126 1_555
Br94 Tl62 3.328702 1_555
Br95 Tl49 2.689363 1_555
Br95 Tl56 3.274054 1_555
