# generated using pymatgen
data_Pu2InNi2
_symmetry_space_group_name_H-M   'P 1'
_cell_length_a   7.32458800
_cell_length_b   7.32458800
_cell_length_c   3.48154500
_cell_angle_alpha   90.00000000
_cell_angle_beta   90.00000000
_cell_angle_gamma   90.00000000
_symmetry_Int_Tables_number   1
_chemical_formula_structural   Pu2InNi2
_chemical_formula_sum   'Pu4 In2 Ni4'
_cell_volume   186.78345962
_cell_formula_units_Z   2
loop_
 _symmetry_equiv_pos_site_id
 _symmetry_equiv_pos_as_xyz
  1  'x, y, z'
loop_
 _atom_site_type_symbol
 _atom_site_label
 _atom_site_symmetry_multiplicity
 _atom_site_fract_x
 _atom_site_fract_y
 _atom_site_fract_z
 _atom_site_occupancy
  Pu  Pu0  1  0.66534800  0.16534800  0.50000000  1
  Pu  Pu1  1  0.16534800  0.33465200  0.50000000  1
  Pu  Pu2  1  0.83465200  0.66534800  0.50000000  1
  Pu  Pu3  1  0.33465200  0.83465200  0.50000000  1
  In  In0  1  0.00000000  0.00000000  0.00000000  1
  In  In1  1  0.50000000  0.50000000  0.00000000  1
  Ni  Ni0  1  0.36737300  0.13262700  0.00000000  1
  Ni  Ni1  1  0.86737300  0.36737300  0.00000000  1
  Ni  Ni2  1  0.63262700  0.86737300  0.00000000  1
  Ni  Ni3  1  0.13262700  0.63262700  0.00000000  1
loop_
_geom_bond_atom_site_label_1
_geom_bond_atom_site_label_2
_geom_bond_distance
_geom_bond_site_symmetry_2
In0 Ni3 2.860839 1_545
In0 Ni2 2.860839 1_445
In0 Ni0 2.860839 1_555
In0 Ni1 2.860839 1_455
In0 Pu1 3.241202 1_554
In0 Pu0 3.241202 1_455
In0 Pu1 3.241202 1_555
In0 Pu0 3.241202 1_454
In0 Pu3 3.241202 1_544
In0 Pu2 3.241202 1_445
In0 Pu3 3.241202 1_545
In0 Pu2 3.241202 1_444
In1 Ni1 2.860839 1_555
In1 Ni2 2.860839 1_555
In1 Ni3 2.860839 1_555
In1 Ni0 2.860839 1_555
In1 Pu1 3.241202 1_554
In1 Pu3 3.241202 1_554
In1 Pu3 3.241202 1_555
In1 Pu1 3.241202 1_555
In1 Pu2 3.241202 1_555
In1 Pu2 3.241202 1_554
In1 Pu0 3.241202 1_555
In1 Pu0 3.241202 1_554
Ni0 Pu1 2.722060 1_554
Ni0 Pu1 2.722060 1_555
Ni0 Ni2 2.747642 1_545
Ni0 Pu0 2.802004 1_555
Ni0 Pu0 2.802004 1_554
Ni0 Pu3 2.802004 1_545
Ni0 Pu3 2.802004 1_544
Ni1 Pu0 2.722060 1_554
Ni1 Pu0 2.722060 1_555
Ni1 Ni3 2.747642 1_655
Ni1 Pu2 2.802004 1_554
Ni1 Pu1 2.802004 1_655
Ni1 Pu1 2.802004 1_654
Ni1 Pu2 2.802004 1_555
Ni2 Pu2 2.722060 1_554
Ni2 Pu2 2.722060 1_555
Ni2 Pu0 2.802004 1_564
Ni2 Pu0 2.802004 1_565
Ni2 Pu3 2.802004 1_555
Ni2 Pu3 2.802004 1_554
Ni3 Pu3 2.722060 1_554
Ni3 Pu3 2.722060 1_555
Ni3 Pu2 2.802004 1_455
Ni3 Pu1 2.802004 1_555
Ni3 Pu2 2.802004 1_454
Ni3 Pu1 2.802004 1_554
