# generated using pymatgen
data_Li2VPO6
_symmetry_space_group_name_H-M   'P 1'
_cell_length_a   4.70241200
_cell_length_b   8.65141200
_cell_length_c   10.50593500
_cell_angle_alpha   90.00000000
_cell_angle_beta   90.00000000
_cell_angle_gamma   90.00000000
_symmetry_Int_Tables_number   1
_chemical_formula_structural   Li2VPO6
_chemical_formula_sum   'Li8 V4 P4 O24'
_cell_volume   427.40773852
_cell_formula_units_Z   4
loop_
 _symmetry_equiv_pos_site_id
 _symmetry_equiv_pos_as_xyz
  1  'x, y, z'
loop_
 _atom_site_type_symbol
 _atom_site_label
 _atom_site_symmetry_multiplicity
 _atom_site_fract_x
 _atom_site_fract_y
 _atom_site_fract_z
 _atom_site_occupancy
  Li  Li0  1  0.97838000  0.82557200  0.91267200  1
  Li  Li1  1  0.02162000  0.32557200  0.08732800  1
  Li  Li2  1  0.47838000  0.32557200  0.58732800  1
  Li  Li3  1  0.52162000  0.82557200  0.41267200  1
  Li  Li4  1  0.46604100  0.12269700  0.86614400  1
  Li  Li5  1  0.53395900  0.62269700  0.13385600  1
  Li  Li6  1  0.96604100  0.62269700  0.63385600  1
  Li  Li7  1  0.03395900  0.12269700  0.36614400  1
  V  V0  1  0.48263200  0.00494800  0.11086800  1
  V  V1  1  0.51736800  0.50494800  0.88913200  1
  V  V2  1  0.98263200  0.50494800  0.38913200  1
  V  V3  1  0.01736800  0.00494800  0.61086800  1
  P  P0  1  0.41518500  0.80775100  0.71848600  1
  P  P1  1  0.58481500  0.30775100  0.28151400  1
  P  P2  1  0.91518500  0.30775100  0.78151400  1
  P  P3  1  0.08481500  0.80775100  0.21848600  1
  O  O0  1  0.31176700  0.65198100  0.77976700  1
  O  O1  1  0.68823300  0.15198100  0.22023300  1
  O  O2  1  0.81176700  0.15198100  0.72023300  1
  O  O3  1  0.18823300  0.65198100  0.27976700  1
  O  O4  1  0.26541000  0.81427100  0.58371600  1
  O  O5  1  0.73459000  0.31427100  0.41628400  1
  O  O6  1  0.76541000  0.31427100  0.91628400  1
  O  O7  1  0.23459000  0.81427100  0.08371600  1
  O  O8  1  0.76123300  0.81706400  0.21523000  1
  O  O9  1  0.23876700  0.31706400  0.78477000  1
  O  O10  1  0.26123300  0.31706400  0.28477000  1
  O  O11  1  0.73876700  0.81706400  0.71523000  1
  O  O12  1  0.26136400  0.94395500  0.78663200  1
  O  O13  1  0.73863600  0.44395500  0.21336800  1
  O  O14  1  0.76136400  0.44395500  0.71336800  1
  O  O15  1  0.23863600  0.94395500  0.28663200  1
  O  O16  1  0.70265100  0.97459100  0.98855800  1
  O  O17  1  0.29734900  0.47459100  0.01144200  1
  O  O18  1  0.20265100  0.47459100  0.51144200  1
  O  O19  1  0.79734900  0.97459100  0.48855800  1
  O  O20  1  0.25509800  0.13181000  0.04916100  1
  O  O21  1  0.74490200  0.63181000  0.95083900  1
  O  O22  1  0.75509800  0.63181000  0.45083900  1
  O  O23  1  0.24490200  0.13181000  0.54916100  1
loop_
_geom_bond_atom_site_label_1
_geom_bond_atom_site_label_2
_geom_bond_distance
_geom_bond_site_symmetry_2
Li0 O16 1.994709 1_555
Li0 O21 2.043581 1_555
Li0 O12 2.138492 1_655
Li0 O7 2.165696 1_656
Li0 O11 2.361732 1_555
Li0 O0 2.581242 1_655
Li1 O17 1.994709 1_555
Li1 O20 2.043581 1_555
Li1 O13 2.138492 1_455
Li1 O6 2.165696 1_454
Li1 O10 2.361732 1_555
Li1 O1 2.581242 1_455
Li2 O18 1.994709 1_555
Li2 O23 2.043581 1_555
Li2 O14 2.138492 1_555
Li2 O5 2.165696 1_555
Li2 O9 2.361732 1_555
Li2 O2 2.581242 1_555
Li3 O19 1.994709 1_555
Li3 O22 2.043581 1_555
Li3 O15 2.138492 1_555
Li3 O4 2.165696 1_555
Li3 O8 2.361732 1_555
Li3 O3 2.581242 1_555
Li4 O12 2.003853 1_545
Li4 O16 2.129259 1_545
Li4 O20 2.164991 1_556
Li4 O9 2.168104 1_555
Li4 O6 2.237451 1_555
Li4 O2 2.248803 1_555
Li5 O13 2.003853 1_555
Li5 O17 2.129259 1_555
Li5 O21 2.164991 1_554
Li5 O8 2.168104 1_555
Li5 O7 2.237451 1_555
Li5 O3 2.248803 1_555
Li6 O14 2.003853 1_555
Li6 O18 2.129259 1_655
Li6 O22 2.164991 1_555
Li6 O11 2.168104 1_555
Li6 O4 2.237451 1_655
Li6 O0 2.248803 1_655
Li7 O15 2.003853 1_545
Li7 O19 2.129259 1_445
Li7 O23 2.164991 1_555
Li7 O10 2.168104 1_555
Li7 O5 2.237451 1_455
Li7 O1 2.248803 1_455
O0 P0 1.570702 1_555
O0 V1 1.967992 1_555
O1 P1 1.570702 1_555
O1 V0 1.967992 1_555
O2 P2 1.570702 1_555
O2 V3 1.967992 1_655
O3 P3 1.570702 1_555
O3 V2 1.967992 1_455
O4 P0 1.582389 1_555
O4 V3 2.040371 1_565
O5 P1 1.582389 1_555
O5 V2 2.040371 1_555
O6 P2 1.582389 1_555
O6 V1 2.040371 1_555
O7 P3 1.582389 1_555
O7 V0 2.040371 1_565
O8 P3 1.524131 1_655
O8 V0 2.358096 1_565
O9 P2 1.524131 1_455
O9 V1 2.358096 1_555
O10 P1 1.524131 1_555
O10 V2 2.358096 1_455
O11 P0 1.524131 1_555
O11 V3 2.358096 1_665
O12 P0 1.557016 1_555
O12 V3 2.237119 1_565
O13 P1 1.557016 1_555
O13 V2 2.237119 1_555
O14 P2 1.557016 1_555
O14 V1 2.237119 1_555
O15 P3 1.557016 1_555
O15 V0 2.237119 1_565
O16 V0 1.670506 1_566
O17 V1 1.670506 1_554
O18 V2 1.670506 1_455
O19 V3 1.670506 1_665
O20 V0 1.664234 1_555
O21 V1 1.664234 1_555
O22 V2 1.664234 1_555
O23 V3 1.664234 1_555
