# generated using pymatgen
data_NaZr2SN2Cl
_symmetry_space_group_name_H-M   'P 1'
_cell_length_a   7.36522600
_cell_length_b   6.40568000
_cell_length_c   10.23341514
_cell_angle_alpha   78.22303820
_cell_angle_beta   90.00000000
_cell_angle_gamma   90.00000000
_symmetry_Int_Tables_number   1
_chemical_formula_structural   NaZr2SN2Cl
_chemical_formula_sum   'Na4 Zr8 S4 N8 Cl4'
_cell_volume   472.64189435
_cell_formula_units_Z   4
loop_
 _symmetry_equiv_pos_site_id
 _symmetry_equiv_pos_as_xyz
  1  'x, y, z'
loop_
 _atom_site_type_symbol
 _atom_site_label
 _atom_site_symmetry_multiplicity
 _atom_site_fract_x
 _atom_site_fract_y
 _atom_site_fract_z
 _atom_site_occupancy
  Na  Na0  1  0.37495600  0.24079100  0.00513600  1
  Na  Na1  1  0.12504400  0.74079100  0.00513600  1
  Na  Na2  1  0.87495600  0.25920900  0.99486400  1
  Na  Na3  1  0.62504400  0.75920900  0.99486400  1
  Zr  Zr0  1  0.13339600  0.97258100  0.36836100  1
  Zr  Zr1  1  0.38097600  0.05416900  0.62605600  1
  Zr  Zr2  1  0.88097600  0.44583100  0.37394400  1
  Zr  Zr3  1  0.11902400  0.55416900  0.62605600  1
  Zr  Zr4  1  0.61902400  0.94583100  0.37394400  1
  Zr  Zr5  1  0.86660400  0.02741900  0.63163900  1
  Zr  Zr6  1  0.36660400  0.47258100  0.36836100  1
  Zr  Zr7  1  0.63339600  0.52741900  0.63163900  1
  S  S0  1  0.37728100  0.85300500  0.19146300  1
  S  S1  1  0.12271900  0.35300500  0.19146300  1
  S  S2  1  0.87728100  0.64699500  0.80853700  1
  S  S3  1  0.62271900  0.14699500  0.80853700  1
  N  N0  1  0.36667800  0.40196400  0.58801700  1
  N  N1  1  0.13332200  0.90196400  0.58801700  1
  N  N2  1  0.88513300  0.37356700  0.58697300  1
  N  N3  1  0.61486700  0.87356700  0.58697300  1
  N  N4  1  0.11486700  0.62643300  0.41302700  1
  N  N5  1  0.86667800  0.09803600  0.41198300  1
  N  N6  1  0.63332200  0.59803600  0.41198300  1
  N  N7  1  0.38513300  0.12643300  0.41302700  1
  Cl  Cl0  1  0.37168700  0.63979800  0.82730300  1
  Cl  Cl1  1  0.12831300  0.13979800  0.82730300  1
  Cl  Cl2  1  0.87168700  0.86020200  0.17269700  1
  Cl  Cl3  1  0.62831300  0.36020200  0.17269700  1
loop_
_geom_bond_atom_site_label_1
_geom_bond_atom_site_label_2
_geom_bond_distance
_geom_bond_site_symmetry_2
Na0 S0 2.805888 1_545
Na0 S1 2.857142 1_555
Na0 S3 2.869162 1_554
Na1 S1 2.805888 1_555
Na1 S0 2.857142 1_555
Na1 S2 2.869162 1_454
Na2 S2 2.805888 1_555
Na2 S3 2.857142 1_555
Na2 S1 2.869162 1_656
Na3 S3 2.805888 1_565
Na3 S2 2.857142 1_555
Na3 S0 2.869162 1_556
S0 Zr6 2.724126 1_555
S0 Zr4 2.732065 1_555
S0 Zr0 2.767017 1_555
S1 Zr0 2.724126 1_545
S1 Zr2 2.732065 1_455
S1 Zr6 2.767017 1_555
S2 Zr5 2.724126 1_565
S2 Zr3 2.732065 1_655
S2 Zr7 2.767017 1_555
S3 Zr7 2.724126 1_555
S3 Zr1 2.732065 1_555
S3 Zr5 2.767017 1_555
N0 Zr3 2.141054 1_555
N0 Zr1 2.184487 1_555
N0 Zr6 2.200523 1_555
N0 Zr7 2.202395 1_555
N1 Zr1 2.141054 1_565
N1 Zr3 2.184487 1_555
N1 Zr0 2.200523 1_555
N1 Zr5 2.202395 1_465
N2 Zr2 2.134419 1_555
N2 Zr3 2.157490 1_655
N2 Zr5 2.174928 1_555
N2 Zr7 2.191292 1_555
N3 Zr4 2.134419 1_555
N3 Zr1 2.157490 1_565
N3 Zr7 2.174928 1_555
N3 Zr5 2.191292 1_565
N4 Zr3 2.134419 1_555
N4 Zr2 2.157490 1_455
N4 Zr0 2.174928 1_555
N4 Zr6 2.191292 1_555
N5 Zr4 2.141054 1_545
N5 Zr2 2.184487 1_555
N5 Zr5 2.200523 1_555
N5 Zr0 2.202395 1_645
N6 Zr2 2.141054 1_555
N6 Zr4 2.184487 1_555
N6 Zr7 2.200523 1_555
N6 Zr6 2.202395 1_555
N7 Zr1 2.134419 1_555
N7 Zr4 2.157490 1_545
N7 Zr6 2.174928 1_555
N7 Zr0 2.191292 1_545
Cl0 Na1 2.740599 1_556
Cl0 Na3 2.746422 1_555
Cl0 Na0 2.818931 1_556
Cl0 Zr3 2.909694 1_555
Cl0 Zr7 2.971745 1_555
Cl0 Zr1 3.009987 1_565
Cl1 Na0 2.740599 1_556
Cl1 Na2 2.746422 1_455
Cl1 Na1 2.818931 1_546
Cl1 Zr1 2.909694 1_555
Cl1 Zr5 2.971745 1_455
Cl1 Zr3 3.009987 1_555
Cl2 Na3 2.740599 1_554
Cl2 Na1 2.746422 1_655
Cl2 Na2 2.818931 1_564
Cl2 Zr4 2.909694 1_555
Cl2 Zr0 2.971745 1_655
Cl2 Zr2 3.009987 1_555
Cl3 Na2 2.740599 1_554
Cl3 Na0 2.746422 1_555
Cl3 Na3 2.818931 1_554
Cl3 Zr2 2.909694 1_555
Cl3 Zr6 2.971745 1_555
Cl3 Zr4 3.009987 1_545
