# generated using pymatgen
data_Ce(Mo3Se4)2
_symmetry_space_group_name_H-M   'P 1'
_cell_length_a   6.79894586
_cell_length_b   6.79894586
_cell_length_c   6.79894590
_cell_angle_alpha   88.91821845
_cell_angle_beta   88.91821845
_cell_angle_gamma   88.91821726
_symmetry_Int_Tables_number   1
_chemical_formula_structural   Ce(Mo3Se4)2
_chemical_formula_sum   'Ce1 Mo6 Se8'
_cell_volume   314.11983119
_cell_formula_units_Z   1
loop_
 _symmetry_equiv_pos_site_id
 _symmetry_equiv_pos_as_xyz
  1  'x, y, z'
loop_
 _atom_site_type_symbol
 _atom_site_label
 _atom_site_symmetry_multiplicity
 _atom_site_fract_x
 _atom_site_fract_y
 _atom_site_fract_z
 _atom_site_occupancy
  Ce  Ce0  1  0.00000000  0.00000000  0.00000000  1
  Mo  Mo0  1  0.76443900  0.57695100  0.43975400  1
  Mo  Mo1  1  0.57695100  0.43975400  0.76443900  1
  Mo  Mo2  1  0.43975400  0.76443900  0.57695100  1
  Mo  Mo3  1  0.56024600  0.23556100  0.42304900  1
  Mo  Mo4  1  0.42304900  0.56024600  0.23556100  1
  Mo  Mo5  1  0.23556100  0.42304900  0.56024600  1
  Se  Se0  1  0.75564100  0.37401300  0.12120500  1
  Se  Se1  1  0.37401300  0.12120500  0.75564100  1
  Se  Se2  1  0.23954600  0.23954600  0.23954600  1
  Se  Se3  1  0.12120500  0.75564100  0.37401300  1
  Se  Se4  1  0.87879500  0.24435900  0.62598700  1
  Se  Se5  1  0.76045400  0.76045400  0.76045400  1
  Se  Se6  1  0.62598700  0.87879500  0.24435900  1
  Se  Se7  1  0.24435900  0.62598700  0.87879500  1
loop_
_geom_bond_atom_site_label_1
_geom_bond_atom_site_label_2
_geom_bond_distance
_geom_bond_site_symmetry_2
Ce0 Se2 2.873687 1_555
Ce0 Se5 2.873687 1_444
Ce0 Se7 3.126260 1_544
Ce0 Se0 3.126260 1_455
Ce0 Se3 3.126260 1_545
Ce0 Se4 3.126260 1_454
Ce0 Se1 3.126260 1_554
Ce0 Se6 3.126260 1_445
Mo0 Se5 2.531947 1_555
Mo0 Se0 2.592074 1_555
Mo0 Se6 2.594976 1_555
Mo0 Se4 2.680257 1_555
Mo0 Se3 2.758496 1_655
Mo1 Se5 2.531947 1_555
Mo1 Se1 2.592074 1_555
Mo1 Se4 2.594976 1_555
Mo1 Se7 2.680257 1_555
Mo1 Se0 2.758495 1_556
Mo2 Se5 2.531947 1_555
Mo2 Se3 2.592074 1_555
Mo2 Se7 2.594976 1_555
Mo2 Se6 2.680257 1_555
Mo2 Se1 2.758495 1_565
Mo3 Se2 2.531947 1_555
Mo3 Se4 2.592074 1_555
Mo3 Se0 2.594976 1_555
Mo3 Se1 2.680257 1_555
Mo3 Se6 2.758495 1_545
Mo4 Se2 2.531947 1_555
Mo4 Se6 2.592074 1_555
Mo4 Se3 2.594976 1_555
Mo4 Se0 2.680257 1_555
Mo4 Se7 2.758495 1_554
Mo5 Se2 2.531947 1_555
Mo5 Se7 2.592074 1_555
Mo5 Se1 2.594976 1_555
Mo5 Se3 2.680257 1_555
Mo5 Se4 2.758496 1_455
