# generated using pymatgen
data_Mo3N2Cl11
_symmetry_space_group_name_H-M   'P 1'
_cell_length_a   10.35873800
_cell_length_b   13.07743800
_cell_length_c   13.82504400
_cell_angle_alpha   90.00000000
_cell_angle_beta   90.00000000
_cell_angle_gamma   90.00000000
_symmetry_Int_Tables_number   1
_chemical_formula_structural   Mo3N2Cl11
_chemical_formula_sum   'Mo12 N8 Cl44'
_cell_volume   1872.82000890
_cell_formula_units_Z   4
loop_
 _symmetry_equiv_pos_site_id
 _symmetry_equiv_pos_as_xyz
  1  'x, y, z'
loop_
 _atom_site_type_symbol
 _atom_site_label
 _atom_site_symmetry_multiplicity
 _atom_site_fract_x
 _atom_site_fract_y
 _atom_site_fract_z
 _atom_site_occupancy
  Mo  Mo0  1  0.37956600  0.68113600  0.25212100  1
  Mo  Mo1  1  0.71109300  0.77050700  0.18215100  1
  Mo  Mo2  1  0.28890700  0.22949300  0.68215100  1
  Mo  Mo3  1  0.17408600  0.97429800  0.57946400  1
  Mo  Mo4  1  0.17408600  0.52570200  0.07946400  1
  Mo  Mo5  1  0.82591400  0.47429800  0.57946400  1
  Mo  Mo6  1  0.37956600  0.81886400  0.75212100  1
  Mo  Mo7  1  0.71109300  0.72949300  0.68215100  1
  Mo  Mo8  1  0.82591400  0.02570200  0.07946400  1
  Mo  Mo9  1  0.62043400  0.31886400  0.75212100  1
  Mo  Mo10  1  0.28890700  0.27050700  0.18215100  1
  Mo  Mo11  1  0.62043400  0.18113600  0.25212100  1
  N  N0  1  0.75914900  0.88466200  0.13447200  1
  N  N1  1  0.71497000  0.39410000  0.67972400  1
  N  N2  1  0.75914900  0.61533800  0.63447200  1
  N  N3  1  0.24085100  0.11533800  0.63447200  1
  N  N4  1  0.28503000  0.89410000  0.67972400  1
  N  N5  1  0.28503000  0.60590000  0.17972400  1
  N  N6  1  0.24085100  0.38466200  0.13447200  1
  N  N7  1  0.71497000  0.10590000  0.17972400  1
  Cl  Cl0  1  0.76788200  0.66100400  0.06073000  1
  Cl  Cl1  1  0.57233300  0.91676700  0.74551600  1
  Cl  Cl2  1  0.88943800  0.18280400  0.02119500  1
  Cl  Cl3  1  0.87806200  0.76255800  0.78366500  1
  Cl  Cl4  1  0.32862400  0.87804000  0.90145000  1
  Cl  Cl5  1  0.25577100  0.82568200  0.25843900  1
  Cl  Cl6  1  0.64000000  0.48285400  0.49022800  1
  Cl  Cl7  1  0.03140900  0.51204300  0.20600200  1
  Cl  Cl8  1  0.74422900  0.32568200  0.25843900  1
  Cl  Cl9  1  0.42766700  0.08323300  0.24551600  1
  Cl  Cl10  1  0.48886000  0.76845100  0.10713000  1
  Cl  Cl11  1  0.32862400  0.62196000  0.40145000  1
  Cl  Cl12  1  0.12193800  0.23744200  0.28366500  1
  Cl  Cl13  1  0.04132000  0.44328700  0.97121800  1
  Cl  Cl14  1  0.25577100  0.67431800  0.75843900  1
  Cl  Cl15  1  0.87806200  0.73744200  0.28366500  1
  Cl  Cl16  1  0.64000000  0.01714600  0.99022800  1
  Cl  Cl17  1  0.04132000  0.05671300  0.47121800  1
  Cl  Cl18  1  0.57233300  0.58323300  0.24551600  1
  Cl  Cl19  1  0.96859100  0.48795700  0.70600200  1
  Cl  Cl20  1  0.41756800  0.17534800  0.81726400  1
  Cl  Cl21  1  0.67137600  0.37804000  0.90145000  1
  Cl  Cl22  1  0.36000000  0.98285400  0.49022800  1
  Cl  Cl23  1  0.58243200  0.67534800  0.81726400  1
  Cl  Cl24  1  0.76788200  0.83899600  0.56073000  1
  Cl  Cl25  1  0.23211800  0.33899600  0.56073000  1
  Cl  Cl26  1  0.95868000  0.55671300  0.47121800  1
  Cl  Cl27  1  0.88943800  0.31719600  0.52119500  1
  Cl  Cl28  1  0.96859100  0.01204300  0.20600200  1
  Cl  Cl29  1  0.51114000  0.26845100  0.10713000  1
  Cl  Cl30  1  0.23211800  0.16100400  0.06073000  1
  Cl  Cl31  1  0.41756800  0.32465200  0.31726400  1
  Cl  Cl32  1  0.36000000  0.51714600  0.99022800  1
  Cl  Cl33  1  0.67137600  0.12196000  0.40145000  1
  Cl  Cl34  1  0.11056200  0.81719600  0.52119500  1
  Cl  Cl35  1  0.95868000  0.94328700  0.97121800  1
  Cl  Cl36  1  0.12193800  0.26255800  0.78366500  1
  Cl  Cl37  1  0.74422900  0.17431800  0.75843900  1
  Cl  Cl38  1  0.03140900  0.98795700  0.70600200  1
  Cl  Cl39  1  0.42766700  0.41676700  0.74551600  1
  Cl  Cl40  1  0.58243200  0.82465200  0.31726400  1
  Cl  Cl41  1  0.48886000  0.73154900  0.60713000  1
  Cl  Cl42  1  0.51114000  0.23154900  0.60713000  1
  Cl  Cl43  1  0.11056200  0.68280400  0.02119500  1
loop_
_geom_bond_atom_site_label_1
_geom_bond_atom_site_label_2
_geom_bond_distance
_geom_bond_site_symmetry_2
Mo0 N5 1.711376 1_555
Mo1 N0 1.706141 1_555
Mo2 N3 1.706141 1_555
Mo3 N4 2.083740 1_555
Mo3 N3 2.111544 1_565
Mo4 N5 2.083740 1_555
Mo4 N6 2.111544 1_555
Mo5 N1 2.083740 1_555
Mo5 N2 2.111544 1_555
Mo6 N4 1.711376 1_555
Mo7 N2 1.706141 1_555
Mo8 N7 2.083740 1_555
Mo8 N0 2.111544 1_545
Mo9 N1 1.711376 1_555
Mo10 N6 1.706141 1_555
Mo11 N7 1.711376 1_555
Cl0 Mo1 2.283549 1_555
Cl1 Mo6 2.373786 1_555
Cl1 Mo7 2.971765 1_555
Cl2 Mo8 2.302799 1_555
Cl3 Mo7 2.268938 1_555
Cl4 Mo6 2.267028 1_555
Cl5 Mo0 2.285887 1_555
Cl6 Mo5 2.289837 1_555
Cl7 Mo4 2.297092 1_555
Cl8 Mo11 2.285887 1_555
Cl9 Mo11 2.373786 1_555
Cl9 Mo10 2.971765 1_555
Cl10 Mo1 2.525053 1_555
Cl10 Mo0 2.569755 1_555
Cl11 Mo0 2.267028 1_555
Cl12 Mo10 2.268938 1_555
Cl13 Mo4 2.300554 1_556
Cl14 Mo6 2.285887 1_555
Cl15 Mo1 2.268938 1_555
Cl16 Mo8 2.289837 1_556
Cl17 Mo3 2.300554 1_545
Cl18 Mo0 2.373786 1_555
Cl18 Mo1 2.971765 1_555
Cl19 Mo5 2.297092 1_555
Cl20 Mo2 2.401427 1_555
Cl20 Mo9 2.957969 1_555
Cl21 Mo9 2.267028 1_555
Cl22 Mo3 2.289837 1_555
Cl23 Mo7 2.401427 1_555
Cl23 Mo6 2.957969 1_555
Cl24 Mo7 2.283549 1_555
Cl25 Mo2 2.283549 1_555
Cl26 Mo5 2.300554 1_555
Cl27 Mo5 2.302799 1_555
Cl28 Mo8 2.297092 1_555
Cl29 Mo10 2.525053 1_555
Cl29 Mo11 2.569755 1_555
Cl30 Mo10 2.283549 1_555
Cl31 Mo10 2.401427 1_555
Cl31 Mo11 2.957969 1_555
Cl32 Mo4 2.289837 1_556
Cl33 Mo11 2.267028 1_555
Cl34 Mo3 2.302799 1_555
Cl35 Mo8 2.300554 1_566
Cl36 Mo2 2.268938 1_555
Cl37 Mo9 2.285887 1_555
Cl38 Mo3 2.297092 1_555
Cl39 Mo9 2.373786 1_555
Cl39 Mo2 2.971765 1_555
Cl40 Mo1 2.401427 1_555
Cl40 Mo0 2.957969 1_555
Cl41 Mo7 2.525053 1_555
Cl41 Mo6 2.569755 1_555
Cl42 Mo2 2.525053 1_555
Cl42 Mo9 2.569755 1_555
Cl43 Mo4 2.302799 1_555
