# generated using pymatgen
data_PH3O4
_symmetry_space_group_name_H-M   'P 1'
_cell_length_a   4.91044600
_cell_length_b   5.81129400
_cell_length_c   11.31021708
_cell_angle_alpha   85.29090820
_cell_angle_beta   90.00000000
_cell_angle_gamma   90.00000000
_symmetry_Int_Tables_number   1
_chemical_formula_structural   PH3O4
_chemical_formula_sum   'P4 H12 O16'
_cell_volume   321.65938786
_cell_formula_units_Z   4
loop_
 _symmetry_equiv_pos_site_id
 _symmetry_equiv_pos_as_xyz
  1  'x, y, z'
loop_
 _atom_site_type_symbol
 _atom_site_label
 _atom_site_symmetry_multiplicity
 _atom_site_fract_x
 _atom_site_fract_y
 _atom_site_fract_z
 _atom_site_occupancy
  P  P0  1  0.04502900  0.78847300  0.63875000  1
  P  P1  1  0.54273200  0.20760400  0.85948700  1
  P  P2  1  0.45726800  0.20760400  0.35948700  1
  P  P3  1  0.95497100  0.78847300  0.13875000  1
  H  H0  1  0.70436100  0.69154100  0.52732700  1
  H  H1  1  0.23010300  0.19556400  0.00059200  1
  H  H2  1  0.76989700  0.19556400  0.50059200  1
  H  H3  1  0.29563900  0.69154100  0.02732700  1
  H  H4  1  0.19893000  0.13876400  0.67422400  1
  H  H5  1  0.70190300  0.86128800  0.82515000  1
  H  H6  1  0.29809700  0.86128800  0.32515000  1
  H  H7  1  0.80107000  0.13876400  0.17422400  1
  H  H8  1  0.36888300  0.52970000  0.68195800  1
  H  H9  1  0.87018000  0.46706900  0.82013100  1
  H  H10  1  0.12982000  0.46706900  0.32013100  1
  H  H11  1  0.63111700  0.52970000  0.18195800  1
  O  O0  1  0.90137300  0.72012000  0.52178200  1
  O  O1  1  0.39367500  0.28227300  0.97406200  1
  O  O2  1  0.60632500  0.28227300  0.47406200  1
  O  O3  1  0.09862700  0.72012000  0.02178200  1
  O  O4  1  0.06654600  0.05858300  0.61981300  1
  O  O5  1  0.56945700  0.93850600  0.87924800  1
  O  O6  1  0.43054300  0.93850600  0.37924800  1
  O  O7  1  0.93345400  0.05858300  0.11981300  1
  O  O8  1  0.89299500  0.70899400  0.75069000  1
  O  O9  1  0.39511500  0.28474200  0.74516700  1
  O  O10  1  0.60488500  0.28474200  0.24516700  1
  O  O11  1  0.10700500  0.70899400  0.25069000  1
  O  O12  1  0.34087200  0.68794200  0.63456400  1
  O  O13  1  0.83328500  0.31219400  0.86730600  1
  O  O14  1  0.16671500  0.31219400  0.36730600  1
  O  O15  1  0.65912800  0.68794200  0.13456400  1
loop_
_geom_bond_atom_site_label_1
_geom_bond_atom_site_label_2
_geom_bond_distance
_geom_bond_site_symmetry_2
H0 O0 0.982701 1_555
H1 O1 0.981970 1_554
H2 O2 0.981970 1_555
H3 O3 0.982701 1_555
H4 O4 1.032230 1_555
H4 O9 1.550252 1_555
H5 O5 1.021665 1_555
H5 O8 1.579675 1_555
H6 O6 1.021665 1_555
H6 O11 1.579675 1_555
H7 O7 1.032230 1_555
H7 O10 1.550252 1_555
H8 O12 1.034874 1_555
H8 O9 1.544994 1_555
H9 O13 1.024062 1_555
H9 O8 1.557126 1_555
H10 O14 1.024062 1_555
H10 O11 1.557126 1_555
H11 O15 1.034874 1_555
H11 O10 1.544994 1_555
O0 P0 1.578553 1_655
O1 P1 1.579754 1_555
O2 P2 1.579754 1_555
O3 P3 1.578553 1_455
O4 P0 1.570273 1_545
O5 P1 1.566934 1_565
O6 P2 1.566934 1_565
O7 P3 1.570273 1_545
O8 P0 1.509166 1_655
O9 P1 1.517569 1_555
O10 P2 1.517569 1_555
O11 P3 1.509166 1_455
O12 P0 1.567957 1_555
O13 P1 1.556172 1_555
O14 P2 1.556172 1_555
O15 P3 1.567957 1_555
