# generated using pymatgen
data_Tm23Se32
_symmetry_space_group_name_H-M   'P 1'
_cell_length_a   8.03891400
_cell_length_b   8.05798338
_cell_length_c   22.76091901
_cell_angle_alpha   89.90127846
_cell_angle_beta   89.97450239
_cell_angle_gamma   89.91259848
_symmetry_Int_Tables_number   1
_chemical_formula_structural   Tm23Se32
_chemical_formula_sum   'Tm23 Se32'
_cell_volume   1474.38991201
_cell_formula_units_Z   1
loop_
 _symmetry_equiv_pos_site_id
 _symmetry_equiv_pos_as_xyz
  1  'x, y, z'
loop_
 _atom_site_type_symbol
 _atom_site_label
 _atom_site_symmetry_multiplicity
 _atom_site_fract_x
 _atom_site_fract_y
 _atom_site_fract_z
 _atom_site_occupancy
  Tm  Tm0  1  0.99228500  0.00742700  0.99904500  1
  Tm  Tm1  1  0.99941600  0.00028600  0.50028500  1
  Tm  Tm2  1  0.24896400  0.24817600  0.12277800  1
  Tm  Tm3  1  0.24404400  0.24130000  0.62477200  1
  Tm  Tm4  1  0.24588700  0.24835000  0.87890200  1
  Tm  Tm5  1  0.75204500  0.24750500  0.12267300  1
  Tm  Tm6  1  0.75635100  0.24162800  0.62621500  1
  Tm  Tm7  1  0.99955800  0.48892500  0.25388100  1
  Tm  Tm8  1  0.99951600  0.49977900  0.50034800  1
  Tm  Tm9  1  0.99763800  0.50901900  0.74743900  1
  Tm  Tm10  1  0.50769100  0.49225900  0.99883200  1
  Tm  Tm11  1  0.50011800  0.49466000  0.25485800  1
  Tm  Tm12  1  0.50020100  0.49956300  0.50034200  1
  Tm  Tm13  1  0.50192800  0.50409300  0.74555700  1
  Tm  Tm14  1  0.24389800  0.75767400  0.37541100  1
  Tm  Tm15  1  0.24784600  0.75299500  0.87631600  1
  Tm  Tm16  1  0.75119700  0.75035700  0.12147600  1
  Tm  Tm17  1  0.75618200  0.75760400  0.37522600  1
  Tm  Tm18  1  0.24824200  0.75121000  0.12092500  1
  Tm  Tm19  1  0.75252700  0.75462100  0.87754400  1
  Tm  Tm20  1  0.50077800  0.00674500  0.25333400  1
  Tm  Tm21  1  0.50037700  0.00007200  0.50027500  1
  Tm  Tm22  1  0.50314600  0.99614200  0.74805000  1
  Se  Se0  1  0.99966700  0.99546000  0.37854200  1
  Se  Se1  1  0.49938900  0.99848000  0.37588700  1
  Se  Se2  1  0.00068600  0.00062700  0.87526400  1
  Se  Se3  1  0.49670600  0.99935600  0.87173300  1
  Se  Se4  1  0.74816500  0.24992400  0.24857300  1
  Se  Se5  1  0.25153600  0.24943900  0.24883800  1
  Se  Se6  1  0.74848500  0.25125600  0.49900000  1
  Se  Se7  1  0.74651500  0.25598900  0.74988600  1
  Se  Se8  1  0.74935000  0.25071600  0.00279900  1
  Se  Se9  1  0.25129400  0.25113400  0.49844600  1
  Se  Se10  1  0.25041200  0.25276900  0.75115900  1
  Se  Se11  1  0.24943500  0.25011000  0.00056900  1
  Se  Se12  1  0.00092000  0.50292100  0.37612400  1
  Se  Se13  1  0.00221600  0.50356400  0.87137800  1
  Se  Se14  1  0.50066200  0.50997000  0.37636500  1
  Se  Se15  1  0.49967300  0.49978100  0.87452500  1
  Se  Se16  1  0.49955700  0.50052800  0.12544800  1
  Se  Se17  1  0.00082500  0.50017900  0.12733100  1
  Se  Se18  1  0.49859400  0.48960200  0.62322600  1
  Se  Se19  1  0.00053700  0.49546500  0.62395600  1
  Se  Se20  1  0.74976400  0.75032300  0.99991600  1
  Se  Se21  1  0.74980700  0.74811200  0.24886000  1
  Se  Se22  1  0.25113100  0.74885200  0.00028300  1
  Se  Se23  1  0.25069100  0.74771500  0.24860400  1
  Se  Se24  1  0.74843900  0.74860600  0.50172700  1
  Se  Se25  1  0.74862700  0.75099300  0.75175200  1
  Se  Se26  1  0.25143700  0.74866300  0.50153300  1
  Se  Se27  1  0.25385500  0.74871100  0.75026400  1
  Se  Se28  1  0.49951400  0.99812600  0.12700100  1
  Se  Se29  1  0.50024500  0.00109500  0.62419600  1
  Se  Se30  1  0.00057900  0.99803800  0.12583200  1
  Se  Se31  1  0.00145100  0.00310300  0.62149800  1
loop_
_geom_bond_atom_site_label_1
_geom_bond_atom_site_label_2
_geom_bond_distance
_geom_bond_site_symmetry_2
Se0 Tm14 2.742270 1_655
Se0 Tm17 2.742721 1_555
Se0 Tm1 2.771322 1_565
Se1 Tm20 2.790117 1_565
Se1 Tm14 2.827710 1_555
Se1 Tm21 2.831251 1_565
Se1 Tm17 2.831421 1_555
Se2 Tm4 2.808846 1_555
Se2 Tm15 2.813858 1_545
Se2 Tm19 2.814892 1_445
Se2 Tm0 2.818774 1_455
Se3 Tm22 2.815755 1_555
Se3 Tm15 2.822280 1_555
Se3 Tm4 2.847145 1_565
Se3 Tm19 2.850055 1_555
Se4 Tm20 2.795978 1_555
Se4 Tm7 2.796533 1_555
Se4 Tm11 2.806141 1_555
Se4 Tm5 2.865855 1_555
Se5 Tm7 2.798037 1_455
Se5 Tm20 2.799470 1_555
Se5 Tm11 2.815998 1_555
Se5 Tm2 2.869361 1_555
Se6 Tm12 2.824194 1_555
Se6 Tm21 2.843894 1_555
Se6 Tm8 2.845402 1_555
Se6 Tm1 2.854322 1_555
Se6 Tm6 2.897152 1_555
Se7 Tm13 2.803583 1_555
Se7 Tm6 2.818512 1_555
Se7 Tm22 2.868168 1_545
Se7 Tm9 2.871882 1_555
Se8 Tm5 2.728616 1_555
Se8 Tm10 2.749261 1_554
Se8 Tm0 2.766449 1_554
Se9 Tm12 2.832945 1_555
Se9 Tm21 2.844527 1_555
Se9 Tm8 2.846174 1_455
Se9 Tm1 2.863488 1_455
Se9 Tm3 2.876818 1_555
Se10 Tm13 2.866542 1_555
Se10 Tm3 2.878808 1_555
Se10 Tm9 2.895980 1_455
Se10 Tm22 2.897688 1_545
Se10 Tm4 2.907917 1_555
Se11 Tm4 2.769473 1_554
Se11 Tm2 2.781607 1_555
Se11 Tm0 2.848034 1_454
Se11 Tm10 2.851504 1_554
Se12 Tm7 2.784869 1_455
Se12 Tm8 2.827540 1_455
Se12 Tm14 2.835775 1_555
Se12 Tm17 2.840848 1_455
Se13 Tm9 2.821488 1_455
Se13 Tm15 2.822144 1_555
Se13 Tm4 2.842965 1_555
Se13 Tm19 2.851242 1_455
Se14 Tm11 2.768579 1_555
Se14 Tm12 2.822933 1_555
Se14 Tm17 2.866014 1_555
Se14 Tm14 2.869201 1_555
Se15 Tm10 2.830647 1_555
Se15 Tm15 2.872410 1_555
Se15 Tm4 2.879012 1_555
Se15 Tm19 2.892519 1_555
Se15 Tm13 2.935624 1_555
Se16 Tm18 2.856500 1_555
Se16 Tm16 2.857381 1_555
Se16 Tm2 2.865280 1_555
Se16 Tm5 2.875487 1_555
Se16 Tm10 2.883492 1_554
Se16 Tm11 2.945794 1_555
Se17 Tm18 2.842529 1_555
Se17 Tm16 2.845295 1_455
Se17 Tm2 2.846314 1_555
Se17 Tm5 2.858278 1_455
Se17 Tm7 2.881679 1_455
Se18 Tm13 2.787157 1_555
Se18 Tm12 2.797991 1_555
Se18 Tm3 2.864270 1_555
Se18 Tm6 2.877131 1_555
Se19 Tm9 2.812981 1_455
Se19 Tm8 2.813602 1_455
Se19 Tm3 2.830986 1_555
Se19 Tm6 2.837515 1_455
Se20 Tm16 2.766847 1_556
Se20 Tm19 2.785534 1_555
Se20 Tm0 2.847035 1_565
Se20 Tm10 2.850320 1_555
Se21 Tm11 2.868788 1_555
Se21 Tm17 2.877836 1_555
Se21 Tm20 2.889497 1_565
Se21 Tm7 2.896990 1_555
Se21 Tm16 2.899419 1_555
Se22 Tm18 2.746109 1_555
Se22 Tm15 2.821878 1_554
Se22 Tm10 2.918403 1_554
Se22 Tm0 2.942563 1_464
Se23 Tm11 2.861038 1_555
Se23 Tm14 2.887987 1_555
Se23 Tm20 2.902384 1_565
Se23 Tm18 2.906254 1_555
Se23 Tm7 2.906970 1_455
Se24 Tm12 2.832480 1_555
Se24 Tm21 2.840977 1_565
Se24 Tm8 2.843041 1_555
Se24 Tm1 2.863011 1_565
Se24 Tm17 2.880714 1_555
Se25 Tm22 2.791294 1_555
Se25 Tm9 2.794125 1_555
Se25 Tm13 2.815024 1_555
Se25 Tm19 2.863527 1_555
Se26 Tm12 2.831400 1_555
Se26 Tm21 2.849883 1_565
Se26 Tm8 2.852493 1_455
Se26 Tm1 2.864220 1_465
Se26 Tm14 2.872110 1_555
Se27 Tm13 2.803988 1_555
Se27 Tm9 2.826596 1_455
Se27 Tm22 2.829425 1_555
Se27 Tm15 2.869711 1_555
Se28 Tm18 2.841036 1_555
Se28 Tm16 2.843200 1_555
Se28 Tm2 2.848329 1_565
Se28 Tm5 2.860166 1_565
Se28 Tm20 2.876436 1_565
Se29 Tm22 2.819351 1_545
Se29 Tm21 2.820582 1_555
Se29 Tm3 2.824244 1_555
Se29 Tm6 2.830204 1_555
Se30 Tm18 2.814369 1_555
Se30 Tm16 2.832881 1_455
Se30 Tm5 2.832884 1_465
Se30 Tm2 2.840101 1_565
Se30 Tm0 2.887447 1_464
Se31 Tm3 2.739500 1_555
Se31 Tm6 2.752622 1_455
Se31 Tm1 2.759108 1_455
