# generated using pymatgen
data_Sc(CuSi)2
_symmetry_space_group_name_H-M   'P 1'
_cell_length_a   3.80302118
_cell_length_b   3.80302083
_cell_length_c   5.68634578
_cell_angle_alpha   109.53601323
_cell_angle_beta   109.53602990
_cell_angle_gamma   89.99999337
_symmetry_Int_Tables_number   1
_chemical_formula_structural   Sc(CuSi)2
_chemical_formula_sum   'Sc1 Cu2 Si2'
_cell_volume   72.46372090
_cell_formula_units_Z   1
loop_
 _symmetry_equiv_pos_site_id
 _symmetry_equiv_pos_as_xyz
  1  'x, y, z'
loop_
 _atom_site_type_symbol
 _atom_site_label
 _atom_site_symmetry_multiplicity
 _atom_site_fract_x
 _atom_site_fract_y
 _atom_site_fract_z
 _atom_site_occupancy
  Sc  Sc0  1  0.00000000  0.00000000  0.00000000  1
  Cu  Cu0  1  0.75000000  0.25000000  0.50000000  1
  Cu  Cu1  1  0.25000000  0.75000000  0.50000000  1
  Si  Si0  1  0.61353381  0.61353381  0.22706862  1
  Si  Si1  1  0.38646619  0.38646619  0.77293138  1
loop_
_geom_bond_atom_site_label_1
_geom_bond_atom_site_label_2
_geom_bond_distance
_geom_bond_site_symmetry_2
Sc0 Si0 2.919895 1_555
Sc0 Si1 2.919895 1_444
Sc0 Si1 2.919897 1_454
Sc0 Si0 2.919897 1_545
Sc0 Si0 2.919898 1_455
Sc0 Si1 2.919898 1_544
Sc0 Si0 2.919900 1_445
Sc0 Si1 2.919900 1_554
Cu0 Si0 2.342157 1_555
Cu0 Si1 2.342157 1_555
Cu0 Si1 2.342160 1_655
Cu0 Si0 2.342160 1_545
Cu0 Cu1 2.689142 1_555
Cu0 Cu1 2.689142 1_645
Cu0 Cu1 2.689142 1_655
Cu0 Cu1 2.689142 1_545
Cu0 Sc0 3.145076 1_656
Cu0 Sc0 3.145076 1_555
Cu0 Sc0 3.145076 1_666
Cu0 Sc0 3.145076 1_655
Cu1 Si1 2.342157 1_555
Cu1 Si0 2.342157 1_555
Cu1 Si0 2.342160 1_455
Cu1 Si1 2.342160 1_565
Cu1 Sc0 3.145076 1_565
Cu1 Sc0 3.145076 1_666
Cu1 Sc0 3.145076 1_555
Cu1 Sc0 3.145076 1_566
Si0 Si1 2.275361 1_554
