# generated using pymatgen
data_Sn
_symmetry_space_group_name_H-M   'P 1'
_cell_length_a   6.81215014
_cell_length_b   6.81215014
_cell_length_c   6.81215014
_cell_angle_alpha   117.16258755
_cell_angle_beta   119.08489763
_cell_angle_gamma   93.28931711
_symmetry_Int_Tables_number   1
_chemical_formula_structural   Sn
_chemical_formula_sum   Sn8
_cell_volume   229.38582362
_cell_formula_units_Z   8
loop_
 _symmetry_equiv_pos_site_id
 _symmetry_equiv_pos_as_xyz
  1  'x, y, z'
loop_
 _atom_site_type_symbol
 _atom_site_label
 _atom_site_symmetry_multiplicity
 _atom_site_fract_x
 _atom_site_fract_y
 _atom_site_fract_z
 _atom_site_occupancy
  Sn  Sn0_0  1  0.00000000  0.00000000  0.00000000  1
  Sn  Sn0_1  1  0.00000000  1.00000000  0.50000000  1
  Sn  Sn0_2  1  0.00000000  0.50000000  0.00000000  1
  Sn  Sn0_3  1  0.00000000  0.50000000  0.50000000  1
  Sn  Sn0_4  1  0.50000000  0.00000000  0.00000000  1
  Sn  Sn0_5  1  0.50000000  0.00000000  0.50000000  1
  Sn  Sn0_6  1  0.50000000  0.50000000  0.00000000  1
  Sn  Sn0_7  1  0.50000000  0.50000000  0.50000000  1
loop_
_geom_bond_atom_site_label_1
_geom_bond_atom_site_label_2
_geom_bond_distance
_geom_bond_site_symmetry_2
Sn0_0 Sn0_2 3.406075 1_545
Sn0_0 Sn0_4 3.406075 1_455
Sn0_0 Sn0_7 3.406075 1_444
Sn0_0 Sn0_1 3.406075 1_544
Sn0_0 Sn0_1 3.406075 1_545
Sn0_0 Sn0_7 3.406075 1_555
Sn0_0 Sn0_4 3.406075 1_555
Sn0_0 Sn0_2 3.406075 1_555
Sn0_0 Sn0_5 3.453078 1_555
Sn0_0 Sn0_5 3.453078 1_454
Sn0_0 Sn0_3 3.551094 1_555
Sn0_0 Sn0_3 3.551094 1_544
Sn0_1 Sn0_5 3.406075 1_565
Sn0_1 Sn0_3 3.406075 1_555
Sn0_1 Sn0_6 3.406075 1_455
Sn0_1 Sn0_6 3.406075 1_566
Sn0_1 Sn0_5 3.406075 1_465
Sn0_1 Sn0_3 3.406075 1_565
Sn0_1 Sn0_4 3.453078 1_566
Sn0_1 Sn0_4 3.453078 1_465
Sn0_1 Sn0_2 3.551094 1_555
Sn0_1 Sn0_2 3.551094 1_566
Sn0_2 Sn0_6 3.406075 1_555
Sn0_2 Sn0_5 3.406075 1_565
Sn0_2 Sn0_6 3.406075 1_455
Sn0_2 Sn0_5 3.406075 1_454
Sn0_2 Sn0_3 3.406075 1_555
Sn0_2 Sn0_3 3.406075 1_554
Sn0_2 Sn0_7 3.453078 1_454
Sn0_2 Sn0_7 3.453078 1_555
Sn0_3 Sn0_7 3.406075 1_455
Sn0_3 Sn0_4 3.406075 1_455
Sn0_3 Sn0_7 3.406075 1_555
Sn0_3 Sn0_4 3.406075 1_566
Sn0_3 Sn0_6 3.453078 1_556
Sn0_3 Sn0_6 3.453078 1_455
Sn0_4 Sn0_5 3.406075 1_555
Sn0_4 Sn0_6 3.406075 1_555
Sn0_4 Sn0_5 3.406075 1_554
Sn0_4 Sn0_6 3.406075 1_545
Sn0_4 Sn0_7 3.551094 1_555
Sn0_4 Sn0_7 3.551094 1_544
Sn0_5 Sn0_7 3.406075 1_555
Sn0_5 Sn0_7 3.406075 1_545
Sn0_5 Sn0_6 3.551094 1_545
Sn0_5 Sn0_6 3.551094 1_556
Sn0_6 Sn0_7 3.406075 1_555
Sn0_6 Sn0_7 3.406075 1_554
