# generated using pymatgen
data_Sn4Sb6S13
_symmetry_space_group_name_H-M   'P 1'
_cell_length_a   16.98663393
_cell_length_b   16.98663393
_cell_length_c   24.94199032
_cell_angle_alpha   48.44171393
_cell_angle_beta   48.44171393
_cell_angle_gamma   12.95770454
_symmetry_Int_Tables_number   1
_chemical_formula_structural   Sn4Sb6S13
_chemical_formula_sum   'Sn8 Sb12 S26'
_cell_volume   1201.42168972
_cell_formula_units_Z   2
loop_
 _symmetry_equiv_pos_site_id
 _symmetry_equiv_pos_as_xyz
  1  'x, y, z'
loop_
 _atom_site_type_symbol
 _atom_site_label
 _atom_site_symmetry_multiplicity
 _atom_site_fract_x
 _atom_site_fract_y
 _atom_site_fract_z
 _atom_site_occupancy
  Sn  Sn0  1  0.19827600  0.19827600  0.10151400  1
  Sn  Sn1  1  0.64628200  0.64628200  0.83676800  1
  Sn  Sn2  1  0.42904400  0.42904400  0.69654700  1
  Sn  Sn3  1  0.54778200  0.54778200  0.51133700  1
  Sn  Sn4  1  0.45221800  0.45221800  0.48866300  1
  Sn  Sn5  1  0.57095600  0.57095600  0.30345300  1
  Sn  Sn6  1  0.80172400  0.80172400  0.89848600  1
  Sn  Sn7  1  0.35371800  0.35371800  0.16323200  1
  Sb  Sb0  1  0.32793900  0.32793900  0.33202100  1
  Sb  Sb1  1  0.67206100  0.67206100  0.66797900  1
  Sb  Sb2  1  0.82132400  0.82132400  0.69300600  1
  Sb  Sb3  1  0.48864200  0.48864200  0.09637400  1
  Sb  Sb4  1  0.51135800  0.51135800  0.90362600  1
  Sb  Sb5  1  0.17867600  0.17867600  0.30699400  1
  Sb  Sb6  1  0.86759700  0.86759700  0.99295900  1
  Sb  Sb7  1  0.02736200  0.02736200  0.75115100  1
  Sb  Sb8  1  0.97263800  0.97263800  0.24884900  1
  Sb  Sb9  1  0.85590600  0.85590600  0.47770100  1
  Sb  Sb10  1  0.14409400  0.14409400  0.52229900  1
  Sb  Sb11  1  0.13240300  0.13240300  0.00704100  1
  S  S0  1  0.92363500  0.92363500  0.20282000  1
  S  S1  1  0.21076900  0.21076900  0.75755500  1
  S  S2  1  0.68635300  0.68635300  0.04188200  1
  S  S3  1  0.78923100  0.78923100  0.24244500  1
  S  S4  1  0.31364700  0.31364700  0.95811800  1
  S  S5  1  0.67987300  0.67987300  0.91100900  1
  S  S6  1  0.05774000  0.05774000  0.00073000  1
  S  S7  1  0.08026400  0.08026400  0.40565100  1
  S  S8  1  0.08786600  0.08786600  0.21812300  1
  S  S9  1  0.46338100  0.46338100  0.85632100  1
  S  S10  1  0.04748800  0.04748800  0.59562800  1
  S  S11  1  0.65354500  0.65354500  0.44123100  1
  S  S12  1  0.91973600  0.91973600  0.59434900  1
  S  S13  1  0.39602500  0.39602500  0.34609500  1
  S  S14  1  0.60397500  0.60397500  0.65390500  1
  S  S15  1  0.94226000  0.94226000  0.99927000  1
  S  S16  1  0.32176600  0.32176600  0.76319100  1
  S  S17  1  0.91213400  0.91213400  0.78187700  1
  S  S18  1  0.32012700  0.32012700  0.08899100  1
  S  S19  1  0.22345000  0.22345000  0.57768600  1
  S  S20  1  0.67823400  0.67823400  0.23680900  1
  S  S21  1  0.95251200  0.95251200  0.40437200  1
  S  S22  1  0.77655000  0.77655000  0.42231400  1
  S  S23  1  0.53661900  0.53661900  0.14367900  1
  S  S24  1  0.07636500  0.07636500  0.79718000  1
  S  S25  1  0.34645500  0.34645500  0.55876900  1
loop_
_geom_bond_atom_site_label_1
_geom_bond_atom_site_label_2
_geom_bond_distance
_geom_bond_site_symmetry_2
S0 Sb8 2.567115 1_555
S0 Sb3 2.785419 1_655
S0 Sb3 2.785419 1_565
S1 Sn1 2.563795 1_455
S1 Sn1 2.563795 1_545
S2 Sn0 2.616732 1_565
S2 Sn0 2.616732 1_655
S2 Sn6 3.059378 1_554
S2 Sb11 3.139867 1_565
S2 Sb11 3.139867 1_655
S3 Sn7 2.563795 1_565
S3 Sn7 2.563795 1_655
S4 Sn6 2.616732 1_545
S4 Sn6 2.616732 1_455
S4 Sn0 3.059378 1_556
S4 Sb6 3.139867 1_455
S4 Sb6 3.139867 1_545
S5 Sb11 2.617937 1_566
S5 Sb11 2.617937 1_656
S5 Sn1 2.741950 1_555
S6 Sb11 2.628054 1_555
S6 Sb3 2.715737 1_455
S6 Sb3 2.715737 1_545
S7 Sb5 2.485065 1_555
S7 Sn3 2.822271 1_545
S7 Sn3 2.822271 1_455
S8 Sn5 2.628130 1_455
S8 Sn5 2.628130 1_545
S8 Sn0 2.806325 1_555
S9 Sb4 2.562522 1_555
S9 Sb7 2.766648 1_565
S9 Sb7 2.766648 1_655
S10 Sb10 2.452644 1_555
S10 Sn3 2.840079 1_545
S10 Sn3 2.840079 1_455
S11 Sb10 2.646256 1_655
S11 Sb10 2.646256 1_565
S11 Sn3 2.732722 1_555
S12 Sb2 2.485065 1_555
S12 Sn4 2.822271 1_565
S12 Sn4 2.822271 1_655
S13 Sb0 2.546145 1_555
S13 Sb8 2.805204 1_545
S13 Sb8 2.805204 1_455
S14 Sb1 2.546145 1_555
S14 Sb7 2.805204 1_655
S14 Sb7 2.805204 1_565
S15 Sb6 2.628054 1_555
S15 Sb4 2.715737 1_655
S15 Sb4 2.715737 1_565
S16 Sb2 2.602561 1_455
S16 Sb2 2.602561 1_545
S16 Sn2 2.799851 1_555
S17 Sn2 2.628130 1_565
S17 Sn2 2.628130 1_655
S17 Sn6 2.806325 1_555
S18 Sb6 2.617937 1_544
S18 Sb6 2.617937 1_454
S18 Sn7 2.741950 1_555
S19 Sb1 2.557008 1_455
S19 Sb1 2.557008 1_545
S20 Sb5 2.602561 1_565
S20 Sb5 2.602561 1_655
S20 Sn5 2.799851 1_555
S21 Sb9 2.452644 1_555
S21 Sn4 2.840079 1_565
S21 Sn4 2.840079 1_655
S22 Sb0 2.557008 1_565
S22 Sb0 2.557008 1_655
S23 Sb3 2.562522 1_555
S23 Sb8 2.766648 1_545
S23 Sb8 2.766648 1_455
S24 Sb7 2.567115 1_555
S24 Sb4 2.785419 1_545
S24 Sb4 2.785419 1_455
S25 Sb9 2.646256 1_455
S25 Sb9 2.646256 1_545
S25 Sn4 2.732722 1_555
