# generated using pymatgen
data_Cs5SiP3
_symmetry_space_group_name_H-M   'P 1'
_cell_length_a   6.06390400
_cell_length_b   14.33632200
_cell_length_c   15.72158900
_cell_angle_alpha   90.00000000
_cell_angle_beta   90.00000000
_cell_angle_gamma   90.00000000
_symmetry_Int_Tables_number   1
_chemical_formula_structural   Cs5SiP3
_chemical_formula_sum   'Cs20 Si4 P12'
_cell_volume   1366.74188090
_cell_formula_units_Z   4
loop_
 _symmetry_equiv_pos_site_id
 _symmetry_equiv_pos_as_xyz
  1  'x, y, z'
loop_
 _atom_site_type_symbol
 _atom_site_label
 _atom_site_symmetry_multiplicity
 _atom_site_fract_x
 _atom_site_fract_y
 _atom_site_fract_z
 _atom_site_occupancy
  Cs  Cs0  1  0.25000000  0.56227300  0.54875300  1
  Cs  Cs1  1  0.75000000  0.45273800  0.15158200  1
  Cs  Cs2  1  0.75000000  0.95273800  0.34841800  1
  Cs  Cs3  1  0.25000000  0.06227300  0.95124700  1
  Cs  Cs4  1  0.25000000  0.27587600  0.79483500  1
  Cs  Cs5  1  0.25000000  0.85390300  0.44973600  1
  Cs  Cs6  1  0.75000000  0.14609700  0.55026400  1
  Cs  Cs7  1  0.25000000  0.77587600  0.70516500  1
  Cs  Cs8  1  0.25000000  0.61717100  0.31203300  1
  Cs  Cs9  1  0.75000000  0.64609700  0.94973600  1
  Cs  Cs10  1  0.25000000  0.04726200  0.65158200  1
  Cs  Cs11  1  0.25000000  0.54726200  0.84841800  1
  Cs  Cs12  1  0.75000000  0.72412400  0.20516500  1
  Cs  Cs13  1  0.75000000  0.88282900  0.81203300  1
  Cs  Cs14  1  0.75000000  0.93772700  0.04875300  1
  Cs  Cs15  1  0.25000000  0.11717100  0.18796700  1
  Cs  Cs16  1  0.25000000  0.35390300  0.05026400  1
  Cs  Cs17  1  0.75000000  0.22412400  0.29483500  1
  Cs  Cs18  1  0.75000000  0.43772700  0.45124700  1
  Cs  Cs19  1  0.75000000  0.38282900  0.68796700  1
  Si  Si0  1  0.25000000  0.26054800  0.43575500  1
  Si  Si1  1  0.75000000  0.73945200  0.56424500  1
  Si  Si2  1  0.75000000  0.23945200  0.93575500  1
  Si  Si3  1  0.25000000  0.76054800  0.06424500  1
  P  P0  1  0.25000000  0.36223000  0.32903300  1
  P  P1  1  0.25000000  0.30659700  0.57029900  1
  P  P2  1  0.25000000  0.86223000  0.17096700  1
  P  P3  1  0.75000000  0.69340300  0.42970100  1
  P  P4  1  0.75000000  0.39215700  0.91409900  1
  P  P5  1  0.75000000  0.13777000  0.82903300  1
  P  P6  1  0.75000000  0.89215700  0.58590100  1
  P  P7  1  0.25000000  0.60784300  0.08590100  1
  P  P8  1  0.75000000  0.63777000  0.67096700  1
  P  P9  1  0.25000000  0.10784300  0.41409900  1
  P  P10  1  0.25000000  0.80659700  0.92970100  1
  P  P11  1  0.75000000  0.19340300  0.07029900  1
loop_
_geom_bond_atom_site_label_1
_geom_bond_atom_site_label_2
_geom_bond_distance
_geom_bond_site_symmetry_2
Cs0 P1 3.681072 1_555
Cs0 P8 3.749131 1_555
Cs0 P8 3.749131 1_455
Cs1 P4 3.833295 1_554
Cs1 P7 3.899175 1_655
Cs1 P7 3.899175 1_555
Cs1 P11 3.931396 1_555
Cs2 P6 3.833295 1_555
Cs2 P9 3.899175 1_665
Cs2 P9 3.899175 1_565
Cs2 P3 3.931396 1_555
Cs3 P10 3.681072 1_545
Cs3 P5 3.749131 1_455
Cs3 P5 3.749131 1_555
Cs4 P1 3.557431 1_555
Cs4 P5 3.660864 1_555
Cs4 P5 3.660864 1_455
Cs5 P9 3.683425 1_565
Cs5 P6 3.751830 1_455
Cs5 P6 3.751830 1_555
Cs5 P3 3.819222 1_455
Cs5 P3 3.819222 1_555
Cs6 P6 3.683425 1_545
Cs6 P9 3.751830 1_655
Cs6 P9 3.751830 1_555
Cs6 P1 3.819222 1_655
Cs6 P1 3.819222 1_555
Cs7 P10 3.557431 1_555
Cs7 P8 3.660864 1_555
Cs7 P8 3.660864 1_455
Cs8 P7 3.557669 1_555
Cs8 P0 3.664675 1_555
Cs8 P3 3.716096 1_555
Cs8 P3 3.716096 1_455
Cs9 P4 3.683425 1_555
Cs9 P7 3.751830 1_556
Cs9 P7 3.751830 1_656
Cs9 P10 3.819222 1_655
Cs9 P10 3.819222 1_555
Cs10 P9 3.833295 1_555
Cs10 P6 3.899175 1_445
Cs10 P6 3.899175 1_545
Cs10 P1 3.931396 1_555
Cs11 P7 3.833295 1_556
Cs11 P4 3.899175 1_455
Cs11 P4 3.899175 1_555
Cs11 P10 3.931396 1_555
Cs12 P3 3.557431 1_555
Cs12 P2 3.660864 1_555
Cs12 P2 3.660864 1_655
Cs13 P6 3.557669 1_555
Cs13 P5 3.664675 1_565
Cs13 P10 3.716096 1_655
Cs13 P10 3.716096 1_555
Cs14 P11 3.681072 1_565
Cs14 P2 3.749131 1_555
Cs14 P2 3.749131 1_655
Cs15 P9 3.557669 1_555
Cs15 P2 3.664675 1_545
Cs15 P11 3.716096 1_555
Cs15 P11 3.716096 1_455
Cs16 P7 3.683425 1_555
Cs16 P4 3.751830 1_554
Cs16 P4 3.751830 1_454
Cs16 P11 3.819222 1_455
Cs16 P11 3.819222 1_555
Cs17 P11 3.557431 1_555
Cs17 P0 3.660864 1_655
Cs17 P0 3.660864 1_555
Cs18 P3 3.681072 1_555
Cs18 P0 3.749131 1_655
Cs18 P0 3.749131 1_555
Cs19 P4 3.557669 1_555
Cs19 P8 3.664675 1_555
Cs19 P1 3.716096 1_655
Cs19 P1 3.716096 1_555
P0 Si0 2.222649 1_555
P1 Si0 2.215873 1_555
P2 Si3 2.222649 1_555
P3 Si1 2.215873 1_555
P4 Si2 2.215544 1_555
P5 Si2 2.222649 1_555
P6 Si1 2.215544 1_555
P7 Si3 2.215544 1_555
P8 Si1 2.222649 1_555
P9 Si0 2.215544 1_555
P10 Si3 2.215873 1_556
P11 Si2 2.215873 1_554
