# generated using pymatgen
data_YTh9O20
_symmetry_space_group_name_H-M   'P 1'
_cell_length_a   6.83799798
_cell_length_b   7.89356388
_cell_length_c   8.82671634
_cell_angle_alpha   102.90397395
_cell_angle_beta   97.41500036
_cell_angle_gamma   106.78008395
_symmetry_Int_Tables_number   1
_chemical_formula_structural   YTh9O20
_chemical_formula_sum   'Y1 Th9 O20'
_cell_volume   434.96111074
_cell_formula_units_Z   1
loop_
 _symmetry_equiv_pos_site_id
 _symmetry_equiv_pos_as_xyz
  1  'x, y, z'
loop_
 _atom_site_type_symbol
 _atom_site_label
 _atom_site_symmetry_multiplicity
 _atom_site_fract_x
 _atom_site_fract_y
 _atom_site_fract_z
 _atom_site_occupancy
  Y  Y0  1  -0.00000000  -0.00000000  -0.00000000  1
  Th  Th0  1  0.80083613  0.60196108  0.60254904  1
  Th  Th1  1  -0.00000000  0.50000000  -0.00000000  1
  Th  Th2  1  0.59920954  0.19793542  0.19795034  1
  Th  Th3  1  0.80065690  0.09979873  0.60288544  1
  Th  Th4  1  0.40079046  0.80206458  0.80204966  1
  Th  Th5  1  0.60317970  0.70193275  0.19884098  1
  Th  Th6  1  0.19916387  0.39803892  0.39745096  1
  Th  Th7  1  0.39682030  0.29806725  0.80115902  1
  Th  Th8  1  0.19934310  0.90020127  0.39711456  1
  O  O0  1  0.85007247  0.32470356  0.45052435  1
  O  O1  1  0.65112056  0.92532645  0.05003625  1
  O  O2  1  0.85070689  0.82563294  0.45040564  1
  O  O3  1  0.95038661  0.77529610  0.14946178  1
  O  O4  1  0.44931951  0.52455387  0.65017907  1
  O  O5  1  0.64970926  0.42483998  0.04965470  1
  O  O6  1  0.74946206  0.37489248  0.75051138  1
  O  O7  1  0.24935600  0.12455106  0.24904496  1
  O  O8  1  0.94977421  0.27462160  0.14939629  1
  O  O9  1  0.05022579  0.72537840  0.85060371  1
  O  O10  1  0.44955441  0.02507636  0.64985354  1
  O  O11  1  0.55044559  0.97492364  0.35014646  1
  O  O12  1  0.75064400  0.87544894  0.75095504  1
  O  O13  1  0.35029074  0.57516002  0.95034530  1
  O  O14  1  0.25053794  0.62510752  0.24948862  1
  O  O15  1  0.04961339  0.22470390  0.85053822  1
  O  O16  1  0.55068049  0.47544613  0.34982093  1
  O  O17  1  0.14929311  0.17436706  0.54959436  1
  O  O18  1  0.34887944  0.07467355  0.94996375  1
  O  O19  1  0.14992753  0.67529644  0.54947565  1
loop_
_geom_bond_atom_site_label_1
_geom_bond_atom_site_label_2
_geom_bond_distance
_geom_bond_site_symmetry_2
O0 Th6 2.421699 1_655
O0 Th3 2.431411 1_555
O0 Th0 2.436008 1_555
O0 Th2 2.437116 1_555
O1 Th5 2.398737 1_555
O1 Th2 2.401442 1_565
O1 Th4 2.405851 1_554
O1 Y0 2.410406 1_665
O2 Th8 2.419491 1_655
O2 Th5 2.419946 1_555
O2 Th3 2.420272 1_565
O2 Th0 2.422090 1_555
O3 Th5 2.397523 1_555
O3 Th8 2.399233 1_655
O3 Y0 2.411388 1_665
O3 Th1 2.416303 1_655
O4 Th0 2.419767 1_555
O4 Th7 2.432705 1_555
O4 Th4 2.434875 1_555
O4 Th6 2.435851 1_555
O5 Th5 2.417203 1_555
O5 Th7 2.417483 1_554
O5 Th2 2.418117 1_555
O5 Th1 2.418276 1_655
O6 Th3 2.414262 1_555
O6 Th1 2.416154 1_656
O6 Th0 2.417046 1_555
O6 Th7 2.436652 1_555
O7 Th8 2.400147 1_545
O7 Th6 2.403111 1_555
O7 Y0 2.409476 1_555
O7 Th2 2.420135 1_555
O8 Th6 2.403223 1_655
O8 Y0 2.413713 1_655
O8 Th1 2.415316 1_655
O8 Th2 2.416541 1_555
O9 Th0 2.403223 1_455
O9 Y0 2.413713 1_566
O9 Th1 2.415316 1_556
O9 Th4 2.416541 1_555
O10 Th3 2.415009 1_555
O10 Th7 2.417588 1_555
O10 Th4 2.418196 1_545
O10 Th8 2.436099 1_545
O11 Th8 2.415009 1_555
O11 Th5 2.417588 1_555
O11 Th2 2.418196 1_565
O11 Th3 2.436099 1_565
O12 Th3 2.400147 1_565
O12 Th0 2.403111 1_555
O12 Y0 2.409476 1_666
O12 Th4 2.420135 1_555
O13 Th7 2.417203 1_555
O13 Th5 2.417483 1_556
O13 Th4 2.418117 1_555
O13 Th1 2.418276 1_556
O14 Th8 2.414262 1_555
O14 Th1 2.416154 1_555
O14 Th6 2.417046 1_555
O14 Th5 2.436652 1_555
O15 Th7 2.397523 1_555
O15 Th3 2.399233 1_455
O15 Y0 2.411388 1_556
O15 Th1 2.416303 1_556
O16 Th6 2.419767 1_555
O16 Th5 2.432705 1_555
O16 Th2 2.434875 1_555
O16 Th0 2.435851 1_555
O17 Th3 2.419491 1_455
O17 Th7 2.419946 1_555
O17 Th8 2.420272 1_545
O17 Th6 2.422090 1_555
O18 Th7 2.398737 1_555
O18 Th4 2.401442 1_545
O18 Th2 2.405851 1_556
O18 Y0 2.410406 1_556
O19 Th0 2.421699 1_455
O19 Th8 2.431411 1_555
O19 Th6 2.436008 1_555
O19 Th4 2.437116 1_555
