# generated using pymatgen
data_Sr12Co10O27
_symmetry_space_group_name_H-M   'P 1'
_cell_length_a   9.56735700
_cell_length_b   9.61992546
_cell_length_c   10.18607907
_cell_angle_alpha   90.41145267
_cell_angle_beta   117.32573029
_cell_angle_gamma   119.52511092
_symmetry_Int_Tables_number   1
_chemical_formula_structural   Sr12Co10O27
_chemical_formula_sum   'Sr12 Co10 O27'
_cell_volume   690.90359250
_cell_formula_units_Z   1
loop_
 _symmetry_equiv_pos_site_id
 _symmetry_equiv_pos_as_xyz
  1  'x, y, z'
loop_
 _atom_site_type_symbol
 _atom_site_label
 _atom_site_symmetry_multiplicity
 _atom_site_fract_x
 _atom_site_fract_y
 _atom_site_fract_z
 _atom_site_occupancy
  Sr  Sr0  1  0.26944900  0.81376200  0.37046300  1
  Sr  Sr1  1  0.09084000  0.40299200  0.12902200  1
  Sr  Sr2  1  0.53472000  0.95427400  0.86159900  1
  Sr  Sr3  1  0.45701600  0.54638300  0.64292300  1
  Sr  Sr4  1  0.26734400  0.31092200  0.86519300  1
  Sr  Sr5  1  0.09131800  0.89974600  0.62763100  1
  Sr  Sr6  1  0.90850400  0.09914700  0.37601600  1
  Sr  Sr7  1  0.71211600  0.67253400  0.13166300  1
  Sr  Sr8  1  0.54857600  0.45550400  0.36032100  1
  Sr  Sr9  1  0.46515100  0.05061100  0.14286000  1
  Sr  Sr10  1  0.91273400  0.58557100  0.86907600  1
  Sr  Sr11  1  0.72896800  0.18535000  0.62417000  1
  Co  Co0  1  0.91349400  0.44993800  0.33778600  1
  Co  Co1  1  0.69121500  0.34471300  0.04236400  1
  Co  Co2  1  0.50290400  0.25284400  0.75133400  1
  Co  Co3  1  0.32569100  0.16763400  0.47478300  1
  Co  Co4  1  0.12687400  0.07200300  0.18420900  1
  Co  Co5  1  0.88637000  0.94964600  0.81857900  1
  Co  Co6  1  0.68524300  0.84097100  0.52833400  1
  Co  Co7  1  0.50021300  0.75086300  0.24975900  1
  Co  Co8  1  0.31175800  0.65378700  0.95742300  1
  Co  Co9  1  0.08518400  0.55062900  0.65955800  1
  O  O0  1  0.64053800  0.89991500  0.70512800  1
  O  O1  1  0.96041500  0.55528000  0.19473700  1
  O  O2  1  0.80454000  0.23993300  0.19073000  1
  O  O3  1  0.74499400  0.28009000  0.89010200  1
  O  O4  1  0.62693500  0.38498300  0.18573100  1
  O  O5  1  0.60986100  0.46422900  0.89128400  1
  O  O6  1  0.58982900  0.36779900  0.61759700  1
  O  O7  1  0.41651200  0.13811300  0.88270600  1
  O  O8  1  0.39386800  0.04047800  0.60797900  1
  O  O9  1  0.25815800  0.22313900  0.61499800  1
  O  O10  1  0.21367700  0.27323700  0.32331300  1
  O  O11  1  0.08074300  0.65202000  0.50247900  1
  O  O12  1  0.02761300  0.93263900  0.27772400  1
  O  O13  1  0.93946800  0.05228700  0.66961500  1
  O  O14  1  0.91842800  0.35043400  0.49525500  1
  O  O15  1  0.81336800  0.74717000  0.71251700  1
  O  O16  1  0.74454000  0.77585600  0.38532000  1
  O  O17  1  0.59677500  0.96004700  0.38301900  1
  O  O18  1  0.58149200  0.86245000  0.11619400  1
  O  O19  1  0.42973200  0.64560200  0.39803600  1
  O  O20  1  0.39378200  0.53550000  0.11425200  1
  O  O21  1  0.38371100  0.61689100  0.82328700  1
  O  O22  1  0.25388700  0.71652200  0.10791900  1
  O  O23  1  0.19341900  0.75649000  0.80665500  1
  O  O24  1  0.08670800  0.12019400  0.00094200  1
  O  O25  1  0.04419700  0.44131200  0.80314900  1
  O  O26  1  0.37612600  0.11506800  0.31376900  1
loop_
_geom_bond_atom_site_label_1
_geom_bond_atom_site_label_2
_geom_bond_distance
_geom_bond_site_symmetry_2
Co0 O14 1.867716 1_555
Co0 O1 1.877499 1_555
Co0 O11 1.891198 1_655
Co0 O2 1.964462 1_555
Co0 O4 2.169075 1_555
Co1 O4 1.926690 1_555
Co1 O2 2.017462 1_555
Co1 O3 2.022551 1_554
Co1 O5 2.025755 1_554
Co1 O1 2.070827 1_555
Co1 O7 2.093656 1_554
Co2 O5 1.944894 1_555
Co2 O3 1.954961 1_555
Co2 O7 1.956928 1_555
Co2 O9 1.960233 1_555
Co2 O8 1.962714 1_555
Co2 O6 1.981314 1_555
Co3 O8 1.939139 1_555
Co3 O9 1.979581 1_555
Co3 O6 1.999706 1_555
Co3 O26 2.033136 1_555
Co3 O10 2.034338 1_555
Co3 O12 2.365926 1_545
Co4 O12 1.789024 1_545
Co4 O24 1.837616 1_555
Co4 O26 1.931081 1_555
Co4 O10 1.934068 1_555
Co5 O15 1.839864 1_555
Co5 O24 1.845018 1_666
Co5 O0 1.866480 1_555
Co5 O13 1.941709 1_565
Co6 O19 1.930501 1_555
Co6 O16 1.982990 1_555
Co6 O13 1.997623 1_565
Co6 O17 2.012280 1_555
Co6 O0 2.163100 1_555
Co6 O15 2.199946 1_555
Co7 O17 1.929411 1_555
Co7 O18 1.943588 1_555
Co7 O20 1.955402 1_555
Co7 O22 1.962215 1_555
Co7 O16 1.976509 1_555
Co7 O19 2.011289 1_555
Co8 O21 1.887883 1_555
Co8 O22 2.028804 1_556
Co8 O23 2.035787 1_555
Co8 O20 2.053750 1_556
Co8 O25 2.074568 1_555
Co8 O18 2.078600 1_556
Co9 O11 1.874584 1_555
Co9 O14 1.878619 1_455
Co9 O25 1.881804 1_555
Co9 O23 1.936719 1_555
Co9 O21 2.272068 1_555
O0 Sr2 2.414527 1_555
O0 Sr11 2.705359 1_565
O0 Sr3 2.848327 1_555
O1 Sr0 2.441287 1_655
O1 Sr1 2.589570 1_655
O1 Sr7 2.928924 1_555
O1 Sr10 3.170564 1_554
O2 Sr6 2.454913 1_555
O2 Sr9 2.608279 1_555
O2 Sr1 2.778227 1_655
O3 Sr10 2.633187 1_555
O3 Sr1 2.641739 1_656
O3 Sr2 2.681676 1_545
O3 Sr11 2.763560 1_555
O4 Sr8 2.427534 1_555
O4 Sr7 2.613710 1_555
O4 Sr9 2.717593 1_555
O5 Sr7 2.601149 1_556
O5 Sr3 2.633316 1_555
O5 Sr10 2.661238 1_555
O5 Sr4 2.723183 1_555
O6 Sr10 2.602529 1_555
O6 Sr3 2.660581 1_555
O6 Sr11 2.660783 1_555
O6 Sr8 2.673146 1_555
O7 Sr2 2.577203 1_545
O7 Sr4 2.634587 1_555
O7 Sr5 2.673935 1_545
O7 Sr9 2.689481 1_556
O8 Sr0 2.597757 1_545
O8 Sr5 2.631561 1_545
O8 Sr2 2.667133 1_545
O8 Sr11 2.712105 1_555
O9 Sr4 2.627934 1_555
O9 Sr3 2.651331 1_555
O9 Sr6 2.662413 1_455
O9 Sr5 2.746420 1_545
O10 Sr1 2.490363 1_555
O10 Sr8 2.612878 1_555
O10 Sr6 2.872308 1_455
O10 Sr3 3.132495 1_555
O11 Sr5 2.629615 1_555
O11 Sr0 2.641794 1_555
O12 Sr7 2.442343 1_455
O12 Sr6 2.773137 1_465
O12 Sr0 2.858365 1_555
O13 Sr4 2.549165 1_655
O13 Sr5 2.666363 1_645
O13 Sr11 2.757206 1_555
O13 Sr6 2.927864 1_555
O14 Sr11 2.628696 1_555
O14 Sr6 2.636967 1_555
O15 Sr10 2.442118 1_555
O15 Sr3 2.669818 1_555
O15 Sr5 2.873293 1_655
O16 Sr7 2.585224 1_555
O16 Sr8 2.633037 1_555
O16 Sr5 2.657485 1_655
O16 Sr6 2.733924 1_565
O17 Sr9 2.571535 1_565
O17 Sr11 2.588542 1_565
O17 Sr6 2.637001 1_565
O17 Sr0 2.662708 1_555
O18 Sr9 2.616381 1_565
O18 Sr7 2.645412 1_555
O18 Sr2 2.657618 1_554
O18 Sr6 2.695832 1_565
O19 Sr3 2.623614 1_555
O19 Sr0 2.665234 1_555
O19 Sr8 2.687933 1_555
O19 Sr1 2.785899 1_555
O20 Sr7 2.566834 1_555
O20 Sr1 2.609535 1_555
O20 Sr8 2.609774 1_555
O20 Sr4 2.663595 1_554
O21 Sr3 2.441551 1_555
O21 Sr4 2.703673 1_555
O21 Sr2 2.759724 1_555
O21 Sr7 3.046710 1_556
O22 Sr10 2.602336 1_454
O22 Sr1 2.693802 1_555
O22 Sr9 2.731631 1_565
O22 Sr0 2.740494 1_555
O23 Sr5 2.430276 1_555
O23 Sr2 2.603706 1_555
O23 Sr10 2.747715 1_455
O24 Sr4 2.714827 1_554
O24 Sr1 2.983354 1_555
O25 Sr11 2.459822 1_455
O25 Sr10 2.537951 1_455
O25 Sr4 2.818286 1_555
O25 Sr1 3.189514 1_556
O26 Sr9 2.450921 1_555
O26 Sr0 2.725092 1_545
O26 Sr8 2.757943 1_555
O26 Sr11 3.125740 1_555
