# generated using pymatgen
data_FeCoAs
_symmetry_space_group_name_H-M   'P 1'
_cell_length_a   3.58986700
_cell_length_b   6.02202600
_cell_length_c   10.35843300
_cell_angle_alpha   90.00000000
_cell_angle_beta   90.00000000
_cell_angle_gamma   90.00000000
_symmetry_Int_Tables_number   1
_chemical_formula_structural   FeCoAs
_chemical_formula_sum   'Fe6 Co6 As6'
_cell_volume   223.93142634
_cell_formula_units_Z   6
loop_
 _symmetry_equiv_pos_site_id
 _symmetry_equiv_pos_as_xyz
  1  'x, y, z'
loop_
 _atom_site_type_symbol
 _atom_site_label
 _atom_site_symmetry_multiplicity
 _atom_site_fract_x
 _atom_site_fract_y
 _atom_site_fract_z
 _atom_site_occupancy
  Fe  Fe0  1  0.00000000  0.29524100  0.20167500  1
  Fe  Fe1  1  0.00000000  0.29524100  0.79832500  1
  Fe  Fe2  1  0.00000000  0.90546200  0.00000000  1
  Fe  Fe3  1  0.00000000  0.79646800  0.29951000  1
  Fe  Fe4  1  0.00000000  0.79646800  0.70049000  1
  Fe  Fe5  1  0.50000000  0.74519200  0.50000000  1
  Co  Co0  1  0.50000000  0.62604900  0.12936200  1
  Co  Co1  1  0.00000000  0.40166500  0.50000000  1
  Co  Co2  1  0.50000000  0.24541600  0.00000000  1
  Co  Co3  1  0.50000000  0.12362000  0.37148000  1
  Co  Co4  1  0.50000000  0.12362000  0.62852000  1
  Co  Co5  1  0.50000000  0.62604900  0.87063800  1
  As  As0  1  0.00000000  0.00085700  0.50000000  1
  As  As1  1  0.50000000  0.49533900  0.33540600  1
  As  As2  1  0.50000000  0.99931700  0.83429500  1
  As  As3  1  0.50000000  0.99931700  0.16570500  1
  As  As4  1  0.00000000  0.50165400  0.00000000  1
  As  As5  1  0.50000000  0.49533900  0.66459400  1
loop_
_geom_bond_atom_site_label_1
_geom_bond_atom_site_label_2
_geom_bond_distance
_geom_bond_site_symmetry_2
As0 Co3 2.353846 1_455
As0 Co3 2.353846 1_555
As0 Co4 2.353846 1_455
As0 Co4 2.353846 1_555
As0 Fe5 2.364788 1_445
As0 Fe5 2.364788 1_545
As0 Co1 2.413676 1_555
As0 Fe3 2.414104 1_545
As0 Fe4 2.414104 1_545
As1 Co3 2.269475 1_555
As1 Fe5 2.273915 1_555
As1 Co0 2.274817 1_555
As1 Co1 2.539057 1_655
As1 Co1 2.539057 1_555
As1 Fe0 2.567625 1_555
As1 Fe0 2.567625 1_655
As1 Fe3 2.578466 1_555
As1 Fe3 2.578466 1_655
As2 Co4 2.259127 1_565
As2 Co2 2.267719 1_566
As2 Co5 2.279135 1_555
As2 Fe2 2.547040 1_556
As2 Fe2 2.547040 1_656
As2 Fe1 2.556630 1_565
As2 Fe1 2.556630 1_665
As2 Fe4 2.575854 1_655
As2 Fe4 2.575854 1_555
As3 Co3 2.259127 1_565
As3 Co2 2.267719 1_565
As3 Co0 2.279135 1_555
As3 Fe2 2.547040 1_655
As3 Fe2 2.547040 1_555
As3 Fe0 2.556630 1_665
As3 Fe0 2.556630 1_565
As3 Fe3 2.575854 1_555
As3 Fe3 2.575854 1_655
As4 Co0 2.361889 1_555
As4 Co0 2.361889 1_455
As4 Co5 2.361889 1_454
As4 Co5 2.361889 1_554
As4 Co2 2.367036 1_555
As4 Co2 2.367036 1_455
As4 Fe0 2.430882 1_555
As4 Fe1 2.430882 1_554
As4 Fe2 2.431742 1_555
As5 Co4 2.269475 1_555
As5 Fe5 2.273915 1_555
As5 Co5 2.274817 1_555
As5 Co1 2.539057 1_655
As5 Co1 2.539057 1_555
As5 Fe1 2.567625 1_555
As5 Fe1 2.567625 1_655
As5 Fe4 2.578466 1_655
As5 Fe4 2.578466 1_555
