# generated using pymatgen
data_CuH8C2NCl3
_symmetry_space_group_name_H-M   'P 1'
_cell_length_a   8.59670400
_cell_length_b   9.71333277
_cell_length_c   10.67580437
_cell_angle_alpha   73.35579839
_cell_angle_beta   68.68533381
_cell_angle_gamma   64.77558311
_symmetry_Int_Tables_number   1
_chemical_formula_structural   CuH8C2NCl3
_chemical_formula_sum   'Cu4 H32 C8 N4 Cl12'
_cell_volume   742.08557804
_cell_formula_units_Z   4
loop_
 _symmetry_equiv_pos_site_id
 _symmetry_equiv_pos_as_xyz
  1  'x, y, z'
loop_
 _atom_site_type_symbol
 _atom_site_label
 _atom_site_symmetry_multiplicity
 _atom_site_fract_x
 _atom_site_fract_y
 _atom_site_fract_z
 _atom_site_occupancy
  Cu  Cu0  1  0.14584600  0.85614800  0.08709200  1
  Cu  Cu1  1  0.85415400  0.14385200  0.91290800  1
  Cu  Cu2  1  0.07925200  0.65136000  0.42858900  1
  Cu  Cu3  1  0.92074800  0.34864000  0.57141100  1
  H  H0  1  0.77846600  0.98257900  0.56935000  1
  H  H1  1  0.22153400  0.01742100  0.43065000  1
  H  H2  1  0.70486600  0.05906500  0.71106000  1
  H  H3  1  0.29513400  0.94093500  0.28894000  1
  H  H4  1  0.60618000  0.49065400  0.33537600  1
  H  H5  1  0.39382000  0.50934600  0.66462400  1
  H  H6  1  0.51889700  0.58749300  0.20502300  1
  H  H7  1  0.48110300  0.41250700  0.79497700  1
  H  H8  1  0.43809100  0.99421800  0.78585000  1
  H  H9  1  0.56190900  0.00578200  0.21415000  1
  H  H10  1  0.45863800  0.12243300  0.62776600  1
  H  H11  1  0.54136200  0.87756700  0.37223400  1
  H  H12  1  0.51522800  0.92267600  0.62789700  1
  H  H13  1  0.48477200  0.07732400  0.37210300  1
  H  H14  1  0.78676700  0.73120200  0.70440500  1
  H  H15  1  0.21323300  0.26879800  0.29559500  1
  H  H16  1  0.93051900  0.80519900  0.72868400  1
  H  H17  1  0.06948100  0.19480100  0.27131600  1
  H  H18  1  0.72032700  0.81644300  0.85343100  1
  H  H19  1  0.27967300  0.18355700  0.14656900  1
  H  H20  1  0.73615100  0.25181500  0.23954200  1
  H  H21  1  0.26384900  0.74818500  0.76045800  1
  H  H22  1  0.49640200  0.33459100  0.28603900  1
  H  H23  1  0.50359800  0.66540900  0.71396100  1
  H  H24  1  0.62194100  0.35817100  0.11092800  1
  H  H25  1  0.37805900  0.64182900  0.88907200  1
  H  H26  1  0.81626400  0.52057400  0.04459800  1
  H  H27  1  0.18373600  0.47942600  0.95540200  1
  H  H28  1  0.78301200  0.63250600  0.16619100  1
  H  H29  1  0.21698800  0.36749400  0.83380900  1
  H  H30  1  0.90469700  0.43011300  0.18828900  1
  H  H31  1  0.09530300  0.56988700  0.81171100  1
  C  C0  1  0.51546100  0.00531400  0.67887300  1
  C  C1  1  0.48453900  0.99468600  0.32112700  1
  C  C2  1  0.79148400  0.82025100  0.74497300  1
  C  C3  1  0.20851600  0.17974900  0.25502700  1
  C  C4  1  0.61997600  0.34875700  0.21603500  1
  C  C5  1  0.38002400  0.65124300  0.78396500  1
  C  C6  1  0.79427900  0.52127700  0.15204700  1
  C  C7  1  0.20572100  0.47872300  0.84795300  1
  N  N0  1  0.70394700  0.97392400  0.67107100  1
  N  N1  1  0.29605300  0.02607600  0.32892900  1
  N  N2  1  0.62499900  0.49378600  0.23279300  1
  N  N3  1  0.37500100  0.50621400  0.76720700  1
  Cl  Cl0  1  0.42106500  0.83164500  0.08321800  1
  Cl  Cl1  1  0.57893500  0.16835500  0.91678200  1
  Cl  Cl2  1  0.08348700  0.11710900  0.99159400  1
  Cl  Cl3  1  0.91651300  0.88289100  0.00840600  1
  Cl  Cl4  1  0.19718700  0.60013200  0.17334600  1
  Cl  Cl5  1  0.80281300  0.39986800  0.82665400  1
  Cl  Cl6  1  0.94753600  0.91227600  0.35517200  1
  Cl  Cl7  1  0.05246400  0.08772400  0.64482800  1
  Cl  Cl8  1  0.29706700  0.68639200  0.47540600  1
  Cl  Cl9  1  0.70293300  0.31360800  0.52459400  1
  Cl  Cl10  1  0.81127800  0.61163200  0.48010700  1
  Cl  Cl11  1  0.18872200  0.38836800  0.51989300  1
loop_
_geom_bond_atom_site_label_1
_geom_bond_atom_site_label_2
_geom_bond_distance
_geom_bond_site_symmetry_2
H0 N0 1.041447 1_555
H1 N1 1.041447 1_555
H2 N0 1.037557 1_545
H3 N1 1.037557 1_565
H4 N2 1.040563 1_555
H5 N3 1.040563 1_555
H6 N2 1.040541 1_555
H7 N3 1.040541 1_555
C0 H12 1.092193 1_545
C0 H10 1.093170 1_555
C0 H8 1.093931 1_545
C0 N0 1.490236 1_545
C1 H13 1.092193 1_565
C1 H11 1.093170 1_555
C1 H9 1.093931 1_565
C1 N1 1.490236 1_565
C2 H14 1.092995 1_555
C2 H16 1.093041 1_555
C2 H18 1.093654 1_555
C2 N0 1.488767 1_555
C3 H15 1.092995 1_555
C3 H17 1.093041 1_555
C3 H19 1.093654 1_555
C3 N1 1.488767 1_555
C4 H20 1.091959 1_555
C4 H22 1.092939 1_555
C4 H24 1.093854 1_555
C4 N2 1.490029 1_555
C5 H21 1.091959 1_555
C5 H23 1.092939 1_555
C5 H25 1.093854 1_555
C5 N3 1.490029 1_555
C6 H30 1.090489 1_555
C6 H28 1.092284 1_555
C6 H26 1.094255 1_555
C6 N2 1.489807 1_555
C7 H31 1.090489 1_555
C7 H29 1.092284 1_555
C7 H27 1.094255 1_555
C7 N3 1.489807 1_555
Cl0 Cu0 2.260695 1_555
Cl1 Cu1 2.260695 1_555
Cl2 Cu1 2.302706 1_455
Cl2 Cu0 2.347495 1_546
Cl3 Cu0 2.302706 1_655
Cl3 Cu1 2.347495 1_564
Cl4 Cu0 2.296724 1_555
Cl4 Cu2 2.653122 1_555
Cl5 Cu1 2.296724 1_555
Cl5 Cu3 2.653122 1_555
Cl6 Cu2 2.319656 1_655
Cl6 Cu0 2.819416 1_655
Cl7 Cu3 2.319656 1_455
Cl7 Cu1 2.819416 1_455
Cl8 Cu2 2.278749 1_555
Cl9 Cu3 2.278749 1_555
Cl10 Cu2 2.339536 1_655
Cl10 Cu3 2.356440 1_555
Cl11 Cu3 2.339536 1_455
Cl11 Cu2 2.356440 1_555
