# generated using pymatgen
data_Ca(H8O5)2
_symmetry_space_group_name_H-M   'P 1'
_cell_length_a   6.21322600
_cell_length_b   6.20947500
_cell_length_c   10.94680791
_cell_angle_alpha   89.94575987
_cell_angle_beta   90.00000000
_cell_angle_gamma   90.00000000
_symmetry_Int_Tables_number   1
_chemical_formula_structural   Ca(H8O5)2
_chemical_formula_sum   'Ca2 H32 O20'
_cell_volume   422.33720006
_cell_formula_units_Z   2
loop_
 _symmetry_equiv_pos_site_id
 _symmetry_equiv_pos_as_xyz
  1  'x, y, z'
loop_
 _atom_site_type_symbol
 _atom_site_label
 _atom_site_symmetry_multiplicity
 _atom_site_fract_x
 _atom_site_fract_y
 _atom_site_fract_z
 _atom_site_occupancy
  Ca  Ca0  1  0.00272300  0.00280500  0.75127300  1
  Ca  Ca1  1  0.99727700  0.00280500  0.25127300  1
  H  H0  1  0.37978100  0.72474000  0.64731300  1
  H  H1  1  0.44633900  0.96896700  0.63133400  1
  H  H2  1  0.61805200  0.27524600  0.64825700  1
  H  H3  1  0.69897300  0.13195400  0.53588600  1
  H  H4  1  0.03280100  0.44366600  0.63181000  1
  H  H5  1  0.27890900  0.37870700  0.64742600  1
  H  H6  1  0.73730400  0.62316000  0.65896600  1
  H  H7  1  0.86621400  0.69786100  0.54047700  1
  H  H8  1  0.38194800  0.27524600  0.14825700  1
  H  H9  1  0.30102700  0.13195400  0.03588600  1
  H  H10  1  0.62021900  0.72474000  0.14731300  1
  H  H11  1  0.55366100  0.96896700  0.13133400  1
  H  H12  1  0.26269600  0.62316000  0.15896600  1
  H  H13  1  0.13378600  0.69786100  0.04047700  1
  H  H14  1  0.72109100  0.37870700  0.14742600  1
  H  H15  1  0.96719900  0.44366600  0.13181000  1
  H  H16  1  0.55514200  0.03074200  0.36852500  1
  H  H17  1  0.62127900  0.27608000  0.35343400  1
  H  H18  1  0.38395800  0.72563000  0.35317800  1
  H  H19  1  0.30057200  0.86882200  0.46433400  1
  H  H20  1  0.96858300  0.55824900  0.37035700  1
  H  H21  1  0.72292700  0.62042300  0.35404500  1
  H  H22  1  0.27453500  0.38138100  0.35252100  1
  H  H23  1  0.13022400  0.30143700  0.46445100  1
  H  H24  1  0.61604200  0.72563000  0.85317800  1
  H  H25  1  0.69942800  0.86882200  0.96433400  1
  H  H26  1  0.44485800  0.03074200  0.86852500  1
  H  H27  1  0.37872100  0.27608000  0.85343400  1
  H  H28  1  0.72546500  0.38138100  0.85252100  1
  H  H29  1  0.86977600  0.30143700  0.96445100  1
  H  H30  1  0.27707300  0.62042300  0.85404500  1
  H  H31  1  0.03141700  0.55824900  0.87035700  1
  O  O0  1  0.50227700  0.50096600  0.68375700  1
  O  O1  1  0.49772300  0.50096600  0.18375700  1
  O  O2  1  0.50207100  0.49840200  0.32014200  1
  O  O3  1  0.49792900  0.49840200  0.82014200  1
  O  O4  1  0.31831200  0.87239200  0.62538500  1
  O  O5  1  0.68215400  0.12895200  0.62657100  1
  O  O6  1  0.13154200  0.31706100  0.62500500  1
  O  O7  1  0.88250000  0.68367600  0.63190200  1
  O  O8  1  0.31784600  0.12895200  0.12657100  1
  O  O9  1  0.68168800  0.87239200  0.12538500  1
  O  O10  1  0.11750000  0.68367600  0.13190200  1
  O  O11  1  0.86845800  0.31706100  0.12500500  1
  O  O12  1  0.68253400  0.12800800  0.37473800  1
  O  O13  1  0.31882800  0.87152600  0.37369500  1
  O  O14  1  0.86928500  0.68385000  0.37821800  1
  O  O15  1  0.12707000  0.31977400  0.37375500  1
  O  O16  1  0.68117200  0.87152600  0.87369500  1
  O  O17  1  0.31746600  0.12800800  0.87473800  1
  O  O18  1  0.87293000  0.31977400  0.87375500  1
  O  O19  1  0.13071500  0.68385000  0.87821800  1
loop_
_geom_bond_atom_site_label_1
_geom_bond_atom_site_label_2
_geom_bond_distance
_geom_bond_site_symmetry_2
Ca0 O7 2.489428 1_445
Ca0 O17 2.501468 1_555
Ca0 O18 2.515332 1_455
Ca0 O6 2.520693 1_555
Ca0 O4 2.530178 1_545
Ca0 O5 2.538139 1_455
Ca0 O16 2.539659 1_445
Ca0 O19 2.545753 1_545
Ca1 O10 2.489428 1_645
Ca1 O12 2.501468 1_555
Ca1 O15 2.515332 1_655
Ca1 O11 2.520693 1_555
Ca1 O9 2.530178 1_545
Ca1 O8 2.538139 1_655
Ca1 O13 2.539659 1_645
Ca1 O14 2.545753 1_545
H0 O4 1.021599 1_555
H0 O0 1.633443 1_555
H1 O4 0.998343 1_555
H2 O5 1.020097 1_555
H2 O0 1.622956 1_555
H3 O5 0.998353 1_555
H4 O6 1.000038 1_555
H5 O6 1.022406 1_555
H5 O0 1.631307 1_555
H6 O7 1.021085 1_555
H6 O0 1.667748 1_555
H7 O7 1.009681 1_555
H8 O8 1.020097 1_555
H8 O1 1.622956 1_555
H9 O8 0.998353 1_555
H10 O9 1.021599 1_555
H10 O1 1.633443 1_555
H11 O9 0.998343 1_555
H12 O10 1.021085 1_555
H12 O1 1.667748 1_555
H13 O10 1.009681 1_555
H14 O11 1.022406 1_555
H14 O1 1.631307 1_555
H15 O11 1.000038 1_555
H16 O12 0.997988 1_555
H17 O12 1.021870 1_555
H17 O2 1.608179 1_555
H18 O13 1.017500 1_555
H18 O2 1.631297 1_555
H19 O13 0.998796 1_555
H20 O14 0.998220 1_555
H21 O14 1.025799 1_555
H21 O2 1.611015 1_555
H22 O15 1.019651 1_555
H22 O2 1.628431 1_555
H23 O15 0.999425 1_555
H24 O16 1.017500 1_555
H24 O3 1.631297 1_555
H25 O16 0.998796 1_555
H26 O17 0.997988 1_555
H27 O17 1.021870 1_555
H27 O3 1.608179 1_555
H28 O18 1.019651 1_555
H28 O3 1.628431 1_555
H29 O18 0.999425 1_555
H30 O19 1.025799 1_555
H30 O3 1.611015 1_555
H31 O19 0.998220 1_555
O0 O3 1.493295 1_555
O1 O2 1.493295 1_555
