# generated using pymatgen
data_LiEuTiO4
_symmetry_space_group_name_H-M   'P 1'
_cell_length_a   5.30601000
_cell_length_b   5.35771606
_cell_length_c   11.99035913
_cell_angle_alpha   89.98282414
_cell_angle_beta   90.00003592
_cell_angle_gamma   89.99989254
_symmetry_Int_Tables_number   1
_chemical_formula_structural   LiEuTiO4
_chemical_formula_sum   'Li4 Eu4 Ti4 O16'
_cell_volume   340.86305316
_cell_formula_units_Z   4
loop_
 _symmetry_equiv_pos_site_id
 _symmetry_equiv_pos_as_xyz
  1  'x, y, z'
loop_
 _atom_site_type_symbol
 _atom_site_label
 _atom_site_symmetry_multiplicity
 _atom_site_fract_x
 _atom_site_fract_y
 _atom_site_fract_z
 _atom_site_occupancy
  Li  Li0  1  0.50001700  0.74998500  0.49059700  1
  Li  Li1  1  0.99998300  0.74998500  0.49059700  1
  Li  Li2  1  0.99999200  0.24997500  0.50939500  1
  Li  Li3  1  0.50000800  0.24997500  0.50939500  1
  Eu  Eu0  1  0.24999800  0.51875000  0.11540600  1
  Eu  Eu1  1  0.75000300  0.48140800  0.88463100  1
  Eu  Eu2  1  0.75000100  0.98176900  0.11541500  1
  Eu  Eu3  1  0.25000400  0.01839400  0.88462700  1
  Ti  Ti0  1  0.24999900  0.50583000  0.71026100  1
  Ti  Ti1  1  0.75000100  0.99417400  0.71030100  1
  Ti  Ti2  1  0.74999900  0.49419000  0.28972300  1
  Ti  Ti3  1  0.25000000  0.00582600  0.28973300  1
  O  O0  1  0.00003900  0.25002100  0.74162800  1
  O  O1  1  0.49998000  0.24999400  0.24209600  1
  O  O2  1  0.00001800  0.24999200  0.24209600  1
  O  O3  1  0.25000000  0.95435500  0.07280300  1
  O  O4  1  0.74999900  0.54541500  0.07284700  1
  O  O5  1  0.25000000  0.51110800  0.56083600  1
  O  O6  1  0.49995900  0.25002000  0.74162700  1
  O  O7  1  0.49997000  0.74995400  0.25839500  1
  O  O8  1  0.74999800  0.04564300  0.92699300  1
  O  O9  1  0.24999900  0.01110100  0.43911600  1
  O  O10  1  0.49997900  0.74999200  0.75792800  1
  O  O11  1  0.75000000  0.48885700  0.43911000  1
  O  O12  1  0.00002300  0.74999200  0.75792800  1
  O  O13  1  0.24999900  0.45447500  0.92723800  1
  O  O14  1  0.00003100  0.74995300  0.25839500  1
  O  O15  1  0.75000000  0.98886900  0.56088400  1
loop_
_geom_bond_atom_site_label_1
_geom_bond_atom_site_label_2
_geom_bond_distance
_geom_bond_site_symmetry_2
Li0 O9 2.024235 1_565
Li0 O11 2.024436 1_555
Li0 O5 2.026443 1_555
Li0 O15 2.026907 1_555
Li1 O9 2.024232 1_665
Li1 O11 2.024439 1_555
Li1 O5 2.026440 1_655
Li1 O15 2.026904 1_555
Li2 O15 2.024140 1_545
Li2 O5 2.024376 1_655
Li2 O11 2.026599 1_555
Li2 O9 2.026914 1_655
Li3 O15 2.024136 1_545
Li3 O5 2.024373 1_555
Li3 O11 2.026603 1_555
Li3 O9 2.026923 1_555
Eu0 O13 2.282433 1_554
Eu0 O3 2.388948 1_555
Eu0 O1 2.477688 1_555
Eu0 O2 2.477693 1_555
Eu0 O14 2.496861 1_555
Eu0 O7 2.496879 1_555
Eu0 O4 2.705397 1_455
Eu0 O4 2.705409 1_555
Eu0 O3 3.066863 1_545
Eu1 O4 2.282786 1_556
Eu1 O8 2.389170 1_555
Eu1 O12 2.477360 1_655
Eu1 O10 2.477368 1_555
Eu1 O0 2.497660 1_655
Eu1 O6 2.497695 1_555
Eu1 O13 2.705566 1_655
Eu1 O13 2.705609 1_555
Eu1 O8 3.065537 1_565
Eu2 O8 2.284918 1_564
Eu2 O4 2.393078 1_555
Eu2 O2 2.476595 1_665
Eu2 O1 2.476611 1_565
Eu2 O14 2.498084 1_655
Eu2 O7 2.498088 1_555
Eu2 O3 2.705749 1_655
Eu2 O3 2.705759 1_555
Eu2 O4 3.062534 1_565
Eu3 O3 2.282134 1_546
Eu3 O13 2.391759 1_555
Eu3 O10 2.477163 1_545
Eu3 O12 2.477182 1_545
Eu3 O6 2.497535 1_555
Eu3 O0 2.497554 1_555
Eu3 O8 2.705120 1_555
Eu3 O8 2.705182 1_455
Eu3 O13 3.064062 1_545
O0 Ti0 1.943865 1_555
O0 Ti1 1.944356 1_445
O1 Ti3 1.948456 1_555
O1 Ti2 1.948892 1_555
O2 Ti3 1.948452 1_555
O2 Ti2 1.948896 1_455
O3 Ti3 2.615728 1_565
O4 Ti2 2.614782 1_555
O5 Ti0 1.791874 1_555
O6 Ti0 1.943862 1_555
O6 Ti1 1.944362 1_545
O7 Ti2 1.943850 1_555
O7 Ti3 1.944227 1_565
O8 Ti1 2.612890 1_545
O9 Ti3 1.791387 1_555
O10 Ti1 1.948623 1_555
O10 Ti0 1.948769 1_555
O11 Ti2 1.791423 1_555
O12 Ti1 1.948619 1_455
O12 Ti0 1.948752 1_555
O13 Ti0 2.616059 1_555
O14 Ti2 1.943861 1_455
O14 Ti3 1.944230 1_565
O15 Ti1 1.791797 1_555
