# generated using pymatgen
data_Ce14Gd18O55
_symmetry_space_group_name_H-M   'P 1'
_cell_length_a   9.52402852
_cell_length_b   9.44395653
_cell_length_c   18.98913673
_cell_angle_alpha   109.00344762
_cell_angle_beta   109.56293214
_cell_angle_gamma   109.68900163
_symmetry_Int_Tables_number   1
_chemical_formula_structural   Ce14Gd18O55
_chemical_formula_sum   'Ce14 Gd18 O55'
_cell_volume   1317.31687206
_cell_formula_units_Z   1
loop_
 _symmetry_equiv_pos_site_id
 _symmetry_equiv_pos_as_xyz
  1  'x, y, z'
loop_
 _atom_site_type_symbol
 _atom_site_label
 _atom_site_symmetry_multiplicity
 _atom_site_fract_x
 _atom_site_fract_y
 _atom_site_fract_z
 _atom_site_occupancy
  Ce  Ce0  1  0.49638741  0.24758730  0.87358799  1
  Ce  Ce1  1  0.48973285  0.73776786  0.62083295  1
  Ce  Ce2  1  0.72445053  0.48197554  0.61637622  1
  Ce  Ce3  1  0.75888421  0.75445108  0.50267579  1
  Ce  Ce4  1  0.49540289  0.24819704  0.37153257  1
  Ce  Ce5  1  0.70221411  0.23278209  0.74015993  1
  Ce  Ce6  1  0.48532574  0.99600198  0.49612298  1
  Ce  Ce7  1  0.75908596  0.00824705  0.87444970  1
  Ce  Ce8  1  0.97855178  0.25018687  0.61563019  1
  Ce  Ce9  1  0.75504193  0.75633596  0.00550644  1
  Ce  Ce10  1  0.70694542  0.23908667  0.24195288  1
  Ce  Ce11  1  0.49039811  0.99403811  0.00128971  1
  Ce  Ce12  1  0.75831362  0.00934396  0.37586378  1
  Ce  Ce13  1  0.98245398  0.25415023  0.11781076  1
  Gd  Gd0  1  0.00638805  0.77254919  0.89056786  1
  Gd  Gd1  1  0.24015240  0.97364003  0.62546292  1
  Gd  Gd2  1  0.01009552  0.77768761  0.39035623  1
  Gd  Gd3  1  0.29411569  0.52340156  0.87133470  1
  Gd  Gd4  1  0.27523053  0.75205592  0.75316595  1
  Gd  Gd5  1  0.24589116  0.23305533  0.98913244  1
  Gd  Gd6  1  0.24226729  0.96187755  0.12484864  1
  Gd  Gd7  1  0.53331891  0.52693838  0.76044461  1
  Gd  Gd8  1  0.27026966  0.73911929  0.24809737  1
  Gd  Gd9  1  0.29387169  0.52561848  0.38327610  1
  Gd  Gd10  1  0.24303245  0.24788753  0.48277305  1
  Gd  Gd11  1  0.52818373  0.52521659  0.26037721  1
  Gd  Gd12  1  0.52932201  0.76640925  0.13718293  1
  Gd  Gd13  1  0.71530976  0.47818501  0.11716638  1
  Gd  Gd14  1  0.00117465  0.50442483  0.51267205  1
  Gd  Gd15  1  0.00816408  0.00181903  0.24716759  1
  Gd  Gd16  1  0.00367369  0.00763095  0.75083367  1
  Gd  Gd17  1  0.97560856  0.50138365  0.01498432  1
  O  O0  1  0.23166478  0.97970765  0.75550900  1
  O  O1  1  0.23195010  0.74370880  0.87207506  1
  O  O2  1  0.22715452  0.27846386  0.87349416  1
  O  O3  1  0.00990349  0.03415905  0.63004666  1
  O  O4  1  0.24271448  0.46526044  0.73666370  1
  O  O5  1  0.01605666  0.25095280  0.50841622  1
  O  O6  1  0.25715750  0.74051120  0.62946568  1
  O  O7  1  0.22394928  0.95700798  0.24426815  1
  O  O8  1  0.74193369  0.00828849  0.00006949  1
  O  O9  1  0.23596549  0.74532876  0.37359310  1
  O  O10  1  0.52452495  0.76295597  0.75162478  1
  O  O11  1  0.52073398  0.51386274  0.87784061  1
  O  O12  1  0.48576443  0.22654351  0.98994680  1
  O  O13  1  0.23536480  0.50864012  0.48892119  1
  O  O14  1  0.52037508  0.76002916  0.50628348  1
  O  O15  1  0.24870139  0.25826014  0.36283324  1
  O  O16  1  0.48038115  0.47687482  0.62023428  1
  O  O17  1  0.47445553  0.24265464  0.74071222  1
  O  O18  1  0.01062412  0.03550135  0.12865259  1
  O  O19  1  0.23581567  0.45868310  0.23748357  1
  O  O20  1  0.25450682  0.02496982  0.51294852  1
  O  O21  1  0.51705340  0.00858839  0.87154685  1
  O  O22  1  0.76160918  0.77654282  0.88564546  1
  O  O23  1  0.01742734  0.26012233  0.00532093  1
  O  O24  1  0.25359592  0.71328622  0.11454929  1
  O  O25  1  0.75943590  0.27843247  0.87349291  1
  O  O26  1  0.98719279  0.73356934  -0.00025385  1
  O  O27  1  0.48811476  0.98403737  0.62241932  1
  O  O28  1  0.74432503  0.01368101  0.49962272  1
  O  O29  1  0.78199079  0.51371645  0.76146527  1
  O  O30  1  0.52831545  0.76957064  0.25926921  1
  O  O31  1  0.99828840  0.97999787  0.86308261  1
  O  O32  1  0.52458669  0.51822861  0.38105712  1
  O  O33  1  0.49251421  0.23951410  0.49249170  1
  O  O34  1  0.76548507  0.74441466  0.63819155  1
  O  O35  1  0.73589633  0.49517524  0.50207736  1
  O  O36  1  0.49967488  0.74331683  0.00261464  1
  O  O37  1  0.46558774  0.47698395  0.11739292  1
  O  O38  1  0.47319795  0.24183351  0.24123396  1
  O  O39  1  0.74283698  0.23981231  0.62783126  1
  O  O40  1  0.24988853  0.01679894  0.01291097  1
  O  O41  1  0.77519979  0.04224174  0.75281586  1
  O  O42  1  0.76645915  0.77815134  0.38787755  1
  O  O43  1  0.51096075  0.01102149  0.37437695  1
  O  O44  1  0.98596782  0.51059595  0.63428233  1
  O  O45  1  0.76326120  0.27912628  0.37456387  1
  O  O46  1  0.99525579  0.73566779  0.49958129  1
  O  O47  1  0.49374506  0.99446618  0.12478756  1
  O  O48  1  0.77748195  0.51530767  0.26164109  1
  O  O49  1  0.00154033  0.98714640  0.36361301  1
  O  O50  1  0.77263543  0.74942257  0.13460708  1
  O  O51  1  0.72389861  0.48779859  0.99816946  1
  O  O52  1  0.74825331  0.23726074  0.12998469  1
  O  O53  1  0.77560675  0.03929615  0.25203115  1
  O  O54  1  0.98556043  0.51145772  0.13588751  1
loop_
_geom_bond_atom_site_label_1
_geom_bond_atom_site_label_2
_geom_bond_distance
_geom_bond_site_symmetry_2
Ce0 O51 2.279872 1_555
Ce0 O12 2.313870 1_555
Ce0 O21 2.319958 1_555
Ce0 O11 2.417907 1_555
Ce0 O25 2.423409 1_555
Ce0 O17 2.444639 1_555
Ce0 O0 2.450782 1_545
Ce0 O2 2.676035 1_555
Ce1 O6 2.283217 1_555
Ce1 O10 2.312093 1_555
Ce1 O27 2.321451 1_555
Ce1 O14 2.354238 1_555
Ce1 O13 2.387396 1_555
Ce1 O16 2.431438 1_555
Ce1 O34 2.511096 1_555
Ce1 O41 2.723411 1_565
Ce2 O34 2.244409 1_555
Ce2 O35 2.250269 1_555
Ce2 O33 2.293558 1_555
Ce2 O44 2.304695 1_555
Ce2 O16 2.334950 1_555
Ce2 O39 2.424165 1_555
Ce2 O29 2.514195 1_555
Ce3 O32 2.264700 1_555
Ce3 O42 2.284633 1_555
Ce3 O14 2.313004 1_555
Ce3 O46 2.335327 1_555
Ce3 O35 2.379629 1_555
Ce3 O3 2.500937 1_665
Ce3 O28 2.516317 1_565
Ce3 O34 2.586401 1_555
Ce4 O43 2.310624 1_555
Ce4 O33 2.333824 1_555
Ce4 O15 2.336164 1_555
Ce4 O35 2.379891 1_555
Ce4 O38 2.390496 1_555
Ce4 O32 2.408662 1_555
Ce4 O45 2.446486 1_555
Ce4 O7 2.604559 1_545
Ce5 O41 2.188971 1_555
Ce5 O17 2.205679 1_555
Ce5 O27 2.230207 1_545
Ce5 O25 2.258327 1_555
Ce5 O39 2.308997 1_555
Ce5 O29 2.348798 1_555
Ce6 O33 2.301844 1_565
Ce6 O9 2.362640 1_555
Ce6 O28 2.392167 1_565
Ce6 O20 2.414175 1_565
Ce6 O14 2.419317 1_555
Ce6 O27 2.429189 1_555
Ce6 O39 2.430740 1_565
Ce6 O43 2.447980 1_565
Ce7 O22 2.273542 1_545
Ce7 O21 2.288379 1_555
Ce7 O10 2.302530 1_545
Ce7 O8 2.444846 1_556
Ce7 O23 2.449409 1_656
Ce7 O31 2.451363 1_545
Ce7 O41 2.479624 1_555
Ce7 O25 2.556483 1_555
Ce8 O5 2.183436 1_655
Ce8 O28 2.228271 1_555
Ce8 O3 2.246288 1_655
Ce8 O39 2.306077 1_555
Ce8 O4 2.319843 1_655
Ce8 O44 2.340403 1_555
Ce9 O26 2.326744 1_555
Ce9 O11 2.327884 1_554
Ce9 O22 2.364513 1_554
Ce9 O36 2.374452 1_555
Ce9 O51 2.402981 1_554
Ce9 O50 2.424615 1_555
Ce9 O8 2.457528 1_565
Ce9 O18 2.488561 1_665
Ce10 O47 2.208266 1_545
Ce10 O38 2.230627 1_555
Ce10 O53 2.237649 1_555
Ce10 O45 2.260654 1_555
Ce10 O52 2.283984 1_555
Ce10 O48 2.326324 1_555
Ce11 O12 2.288382 1_564
Ce11 O47 2.333299 1_555
Ce11 O8 2.362131 1_565
Ce11 O36 2.406905 1_555
Ce11 O52 2.409038 1_565
Ce11 O1 2.434094 1_554
Ce11 O40 2.445658 1_565
Ce11 O21 2.601729 1_564
Ce12 O30 2.229929 1_545
Ce12 O42 2.291691 1_545
Ce12 O43 2.351961 1_555
Ce12 O28 2.385990 1_555
Ce12 O5 2.432164 1_655
Ce12 O49 2.473979 1_645
Ce12 O53 2.509527 1_555
Ce12 O45 2.540673 1_555
Ce13 O18 2.234142 1_655
Ce13 O19 2.246396 1_655
Ce13 O52 2.276787 1_555
Ce13 O23 2.284572 1_655
Ce13 O8 2.289712 1_555
Ce13 O54 2.329192 1_555
Gd0 O31 2.203941 1_455
Gd0 O26 2.274336 1_456
Gd0 O22 2.315306 1_455
Gd0 O40 2.322415 1_566
Gd0 O29 2.370895 1_455
Gd0 O1 2.376909 1_555
Gd1 O6 2.284801 1_555
Gd1 O46 2.332469 1_455
Gd1 O17 2.347765 1_565
Gd1 O27 2.351380 1_555
Gd1 O20 2.375708 1_565
Gd1 O3 2.466371 1_565
Gd1 O0 2.480466 1_555
Gd2 O49 2.216438 1_555
Gd2 O46 2.274608 1_455
Gd2 O42 2.306584 1_455
Gd2 O20 2.336464 1_565
Gd2 O9 2.379188 1_555
Gd2 O48 2.398448 1_455
Gd3 O11 2.154394 1_555
Gd3 O2 2.201011 1_555
Gd3 O36 2.231759 1_556
Gd3 O4 2.268676 1_555
Gd3 O1 2.344375 1_555
Gd4 O6 2.260295 1_555
Gd4 O0 2.312468 1_555
Gd4 O21 2.335241 1_565
Gd4 O10 2.352126 1_555
Gd4 O1 2.447844 1_555
Gd4 O44 2.476960 1_455
Gd4 O4 2.519338 1_555
Gd5 O40 2.240052 1_556
Gd5 O12 2.301057 1_555
Gd5 O37 2.302639 1_556
Gd5 O2 2.332382 1_555
Gd5 O23 2.380318 1_556
Gd5 O31 2.387209 1_445
Gd6 O47 2.310094 1_555
Gd6 O24 2.333947 1_555
Gd6 O26 2.337506 1_455
Gd6 O7 2.345708 1_555
Gd6 O40 2.363984 1_565
Gd6 O38 2.394371 1_565
Gd6 O18 2.542343 1_565
Gd7 O11 2.312446 1_555
Gd7 O10 2.315761 1_555
Gd7 O22 2.317596 1_555
Gd7 O16 2.384766 1_555
Gd7 O29 2.407321 1_555
Gd7 O17 2.419220 1_555
Gd7 O4 2.471617 1_555
Gd8 O7 2.263143 1_555
Gd8 O30 2.302727 1_555
Gd8 O54 2.394633 1_455
Gd8 O24 2.411872 1_555
Gd8 O43 2.437430 1_565
Gd8 O19 2.486956 1_555
Gd8 O9 2.496485 1_555
Gd9 O32 2.235700 1_555
Gd9 O14 2.247314 1_555
Gd9 O15 2.286678 1_555
Gd9 O13 2.293156 1_555
Gd9 O9 2.365365 1_555
Gd9 O19 2.443237 1_555
Gd10 O15 2.328915 1_555
Gd10 O33 2.351273 1_555
Gd10 O49 2.354429 1_545
Gd10 O5 2.376745 1_555
Gd10 O20 2.381375 1_555
Gd10 O16 2.382929 1_555
Gd10 O13 2.454119 1_555
Gd11 O30 2.314188 1_555
Gd11 O32 2.325196 1_555
Gd11 O42 2.370461 1_555
Gd11 O48 2.399951 1_555
Gd11 O37 2.421259 1_555
Gd11 O38 2.421425 1_555
Gd11 O19 2.483920 1_555
Gd12 O30 2.312046 1_555
Gd12 O24 2.355507 1_555
Gd12 O47 2.361646 1_555
Gd12 O50 2.391529 1_555
Gd12 O53 2.395917 1_565
Gd12 O36 2.401961 1_555
Gd12 O37 2.457851 1_555
Gd13 O50 2.313738 1_555
Gd13 O51 2.318045 1_554
Gd13 O12 2.342346 1_554
Gd13 O54 2.370539 1_555
Gd13 O37 2.376015 1_555
Gd13 O52 2.474904 1_555
Gd13 O48 2.479092 1_555
Gd14 O46 2.293747 1_455
Gd14 O6 2.308574 1_555
Gd14 O44 2.345024 1_455
Gd14 O45 2.382652 1_455
Gd14 O13 2.409430 1_555
Gd14 O5 2.422210 1_555
Gd14 O35 2.435333 1_455
Gd15 O7 2.247752 1_545
Gd15 O50 2.269432 1_445
Gd15 O49 2.280273 1_545
Gd15 O15 2.316293 1_555
Gd15 O18 2.379700 1_555
Gd15 O53 2.383994 1_455
Gd16 O31 2.245111 1_445
Gd16 O0 2.250414 1_545
Gd16 O41 2.317174 1_455
Gd16 O34 2.321329 1_445
Gd16 O2 2.372622 1_555
Gd16 O3 2.404666 1_555
Gd17 O54 2.234927 1_555
Gd17 O51 2.262496 1_554
Gd17 O26 2.275003 1_555
Gd17 O24 2.280912 1_655
Gd17 O25 2.362471 1_554
Gd17 O23 2.402463 1_655
