# generated using pymatgen
data_Mn2HO4
_symmetry_space_group_name_H-M   'P 1'
_cell_length_a   2.96128900
_cell_length_b   4.74871900
_cell_length_c   9.90909600
_cell_angle_alpha   90.00000000
_cell_angle_beta   90.00000000
_cell_angle_gamma   90.00000000
_symmetry_Int_Tables_number   1
_chemical_formula_structural   Mn2HO4
_chemical_formula_sum   'Mn4 H2 O8'
_cell_volume   139.34497140
_cell_formula_units_Z   2
loop_
 _symmetry_equiv_pos_site_id
 _symmetry_equiv_pos_as_xyz
  1  'x, y, z'
loop_
 _atom_site_type_symbol
 _atom_site_label
 _atom_site_symmetry_multiplicity
 _atom_site_fract_x
 _atom_site_fract_y
 _atom_site_fract_z
 _atom_site_occupancy
  Mn  Mn0  1  0.00000000  0.22216100  0.63815200  1
  Mn  Mn1  1  0.00000000  0.77783900  0.13815200  1
  Mn  Mn2  1  0.50000000  0.29381600  0.35998400  1
  Mn  Mn3  1  0.50000000  0.70618400  0.85998400  1
  H  H0  1  0.00000000  0.70220500  0.46003900  1
  H  H1  1  0.00000000  0.29779500  0.96003900  1
  O  O0  1  0.00000000  0.49331900  0.45795700  1
  O  O1  1  0.00000000  0.50668100  0.95795700  1
  O  O2  1  0.50000000  0.05982900  0.52659800  1
  O  O3  1  0.50000000  0.94017100  0.02659800  1
  O  O4  1  0.00000000  0.90661400  0.78316600  1
  O  O5  1  0.00000000  0.09338600  0.28316600  1
  O  O6  1  0.50000000  0.58475900  0.22392400  1
  O  O7  1  0.50000000  0.41524100  0.72392400  1
loop_
_geom_bond_atom_site_label_1
_geom_bond_atom_site_label_2
_geom_bond_distance
_geom_bond_site_symmetry_2
Mn0 O7 1.937873 1_555
Mn0 O7 1.937873 1_455
Mn0 O2 2.002113 1_455
Mn0 O2 2.002113 1_555
Mn0 O4 2.076098 1_545
Mn0 O0 2.201433 1_555
Mn1 O6 1.937873 1_455
Mn1 O6 1.937873 1_555
Mn1 O3 2.002113 1_455
Mn1 O3 2.002113 1_555
Mn1 O5 2.076098 1_565
Mn1 O1 2.201433 1_554
Mn2 O5 1.917713 1_555
Mn2 O5 1.917713 1_655
Mn2 O6 1.930431 1_555
Mn2 O2 1.990078 1_555
Mn2 O0 2.008069 1_655
Mn2 O0 2.008069 1_555
Mn3 O4 1.917713 1_655
Mn3 O4 1.917713 1_555
Mn3 O7 1.930431 1_555
Mn3 O3 1.990078 1_556
Mn3 O1 2.008069 1_555
Mn3 O1 2.008069 1_655
H0 O0 0.992155 1_555
H1 O1 0.992155 1_555
