# generated using pymatgen
data_La10Ga5Br4
_symmetry_space_group_name_H-M   'P 1'
_cell_length_a   17.29007255
_cell_length_b   17.29007255
_cell_length_c   17.29007255
_cell_angle_alpha   152.53917897
_cell_angle_beta   152.53917897
_cell_angle_gamma   39.22644054
_symmetry_Int_Tables_number   1
_chemical_formula_structural   La10Ga5Br4
_chemical_formula_sum   'La20 Ga10 Br8'
_cell_volume   1097.19651946
_cell_formula_units_Z   2
loop_
 _symmetry_equiv_pos_site_id
 _symmetry_equiv_pos_as_xyz
  1  'x, y, z'
loop_
 _atom_site_type_symbol
 _atom_site_label
 _atom_site_symmetry_multiplicity
 _atom_site_fract_x
 _atom_site_fract_y
 _atom_site_fract_z
 _atom_site_occupancy
  La  La0  1  0.12931400  0.62931400  0.16598100  1
  La  La1  1  0.40206400  0.90206400  0.15771800  1
  La  La2  1  0.74434600  0.24434600  0.84228200  1
  La  La3  1  0.03666700  0.87068600  0.50000000  1
  La  La4  1  0.37068600  0.53666700  0.50000000  1
  La  La5  1  0.59793600  0.09793600  0.84228200  1
  La  La6  1  0.24434600  0.40206400  0.50000000  1
  La  La7  1  0.96333300  0.12931400  0.50000000  1
  La  La8  1  0.15377600  0.15377600  0.00000000  1
  La  La9  1  0.62931400  0.46333300  0.50000000  1
  La  La10  1  0.34622400  0.34622400  0.00000000  1
  La  La11  1  0.53666700  0.03666700  0.16598100  1
  La  La12  1  0.09793600  0.25565400  0.50000000  1
  La  La13  1  0.84622400  0.84622400  0.00000000  1
  La  La14  1  0.25565400  0.75565400  0.15771800  1
  La  La15  1  0.46333300  0.96333300  0.83401900  1
  La  La16  1  0.87068600  0.37068600  0.83401900  1
  La  La17  1  0.90206400  0.74434600  0.50000000  1
  La  La18  1  0.65377600  0.65377600  0.00000000  1
  La  La19  1  0.75565400  0.59793600  0.50000000  1
  Ga  Ga0  1  0.24261800  0.98721300  0.50000000  1
  Ga  Ga1  1  0.48721300  0.74261800  0.50000000  1
  Ga  Ga2  1  0.25738200  0.75738200  0.74459500  1
  Ga  Ga3  1  0.74261800  0.24261800  0.25540500  1
  Ga  Ga4  1  0.51278700  0.25738200  0.50000000  1
  Ga  Ga5  1  0.75000000  0.75000000  0.00000000  1
  Ga  Ga6  1  0.98721300  0.48721300  0.74459500  1
  Ga  Ga7  1  0.75738200  0.01278700  0.50000000  1
  Ga  Ga8  1  0.25000000  0.25000000  0.00000000  1
  Ga  Ga9  1  0.01278700  0.51278700  0.25540500  1
  Br  Br0  1  0.55580500  0.55580500  0.00000000  1
  Br  Br1  1  0.85719100  0.35719100  0.21438200  1
  Br  Br2  1  0.35719100  0.14280900  0.50000000  1
  Br  Br3  1  0.14280900  0.64280900  0.78561800  1
  Br  Br4  1  0.94419500  0.94419500  0.00000000  1
  Br  Br5  1  0.05580500  0.05580500  0.00000000  1
  Br  Br6  1  0.64280900  0.85719100  0.50000000  1
  Br  Br7  1  0.44419500  0.44419500  0.00000000  1
loop_
_geom_bond_atom_site_label_1
_geom_bond_atom_site_label_2
_geom_bond_distance
_geom_bond_site_symmetry_2
Ga0 Ga1 2.839132 1_555
Ga0 La12 3.132350 1_565
Ga0 La14 3.166111 1_555
Ga0 La5 3.166111 1_565
Ga0 La15 3.281050 1_555
Ga0 La0 3.281050 1_555
Ga0 La7 3.312573 1_465
Ga0 La10 3.314933 1_566
Ga0 La13 3.314933 1_455
Ga1 La19 3.132350 1_555
Ga1 La14 3.166111 1_555
Ga1 La5 3.166111 1_565
Ga1 La15 3.281050 1_555
Ga1 La0 3.281050 1_555
Ga1 La9 3.312573 1_555
Ga1 La10 3.314933 1_555
Ga1 La13 3.314933 1_556
Ga2 Ga9 2.839132 1_555
Ga2 La1 3.132350 1_556
Ga2 La17 3.166111 1_455
Ga2 La6 3.166111 1_555
Ga2 La4 3.281050 1_555
Ga2 La3 3.281050 1_555
Ga2 La11 3.312573 1_566
Ga2 La8 3.314933 1_566
Ga2 La18 3.314933 1_556
Ga3 Ga6 2.839132 1_555
Ga3 La5 3.132350 1_554
Ga3 La19 3.166111 1_555
Ga3 La12 3.166111 1_655
Ga3 La9 3.281050 1_555
Ga3 La7 3.281050 1_555
Ga3 La15 3.312573 1_544
Ga3 La10 3.314933 1_555
Ga3 La13 3.314933 1_545
Ga4 Ga7 2.839132 1_555
Ga4 La6 3.132350 1_555
Ga4 La1 3.166111 1_545
Ga4 La2 3.166111 1_555
Ga4 La16 3.281050 1_555
Ga4 La11 3.281050 1_555
Ga4 La4 3.312573 1_555
Ga4 La18 3.314933 1_556
Ga4 La8 3.314933 1_555
Ga5 La13 3.134382 1_555
Ga5 La18 3.134382 1_555
Ga5 La0 3.409647 1_655
Ga5 La9 3.409647 1_554
Ga5 La7 3.409647 1_565
Ga5 La11 3.409647 1_565
Ga5 La15 3.409647 1_554
Ga5 La3 3.409647 1_655
Ga5 La4 3.409647 1_554
Ga5 La16 3.409647 1_554
Ga6 La14 3.132350 1_656
Ga6 La12 3.166111 1_655
Ga6 La19 3.166111 1_555
Ga6 La7 3.281050 1_555
Ga6 La9 3.281050 1_555
Ga6 La0 3.312573 1_656
Ga6 La10 3.314933 1_656
Ga6 La13 3.314933 1_556
Ga7 La17 3.132350 1_545
Ga7 La1 3.166111 1_545
Ga7 La2 3.166111 1_555
Ga7 La16 3.281050 1_555
Ga7 La11 3.281050 1_555
Ga7 La3 3.312573 1_645
Ga7 La8 3.314933 1_656
Ga7 La18 3.314933 1_545
Ga8 La10 3.134382 1_555
Ga8 La8 3.134382 1_555
Ga8 La0 3.409647 1_555
Ga8 La9 3.409647 1_555
Ga8 La7 3.409647 1_454
Ga8 La15 3.409647 1_544
Ga8 La11 3.409647 1_555
Ga8 La3 3.409647 1_544
Ga8 La16 3.409647 1_454
Ga8 La4 3.409647 1_555
Ga9 La2 3.132350 1_454
Ga9 La17 3.166111 1_455
Ga9 La6 3.166111 1_555
Ga9 La4 3.281050 1_555
Ga9 La3 3.281050 1_555
Ga9 La16 3.312573 1_454
Ga9 La8 3.314933 1_555
Ga9 La18 3.314933 1_455
Br0 La6 3.095152 1_554
Br0 La1 3.095152 1_555
Br0 La17 3.095152 1_555
Br0 La2 3.095152 1_554
Br0 La18 3.191288 1_555
Br1 La5 3.217126 1_554
Br1 La2 3.217126 1_554
Br1 La12 3.518552 1_655
Br1 La19 3.518552 1_555
Br1 La6 3.518552 1_655
Br1 La17 3.518552 1_555
Br2 La6 3.217126 1_555
Br2 La12 3.217126 1_555
Br2 La2 3.518552 1_555
Br2 La5 3.518552 1_555
Br2 La1 3.518552 1_545
Br2 La14 3.518552 1_545
Br3 La1 3.217126 1_556
Br3 La14 3.217126 1_556
Br3 La6 3.518552 1_555
Br3 La17 3.518552 1_455
Br3 La12 3.518552 1_555
Br3 La19 3.518552 1_455
Br4 La5 3.095152 1_564
Br4 La12 3.095152 1_665
Br4 La19 3.095152 1_554
Br4 La14 3.095152 1_655
Br4 La13 3.191288 1_555
Br5 La2 3.095152 1_454
Br5 La6 3.095152 1_555
Br5 La1 3.095152 1_545
Br5 La17 3.095152 1_444
Br5 La8 3.191288 1_555
Br6 La19 3.217126 1_555
Br6 La17 3.217126 1_555
Br6 La5 3.518552 1_565
Br6 La14 3.518552 1_555
Br6 La2 3.518552 1_565
Br6 La1 3.518552 1_555
Br7 La14 3.095152 1_555
Br7 La5 3.095152 1_554
Br7 La12 3.095152 1_554
Br7 La19 3.095152 1_555
Br7 La10 3.191288 1_555
