# generated using pymatgen
data_CeBeSiHO5
_symmetry_space_group_name_H-M   'P 1'
_cell_length_a   7.68774500
_cell_length_b   5.52019900
_cell_length_c   8.58752884
_cell_angle_alpha   78.00970371
_cell_angle_beta   90.00000000
_cell_angle_gamma   90.00000000
_symmetry_Int_Tables_number   1
_chemical_formula_structural   CeBeSiHO5
_chemical_formula_sum   'Ce4 Be4 Si4 H4 O20'
_cell_volume   356.48555275
_cell_formula_units_Z   4
loop_
 _symmetry_equiv_pos_site_id
 _symmetry_equiv_pos_as_xyz
  1  'x, y, z'
loop_
 _atom_site_type_symbol
 _atom_site_label
 _atom_site_symmetry_multiplicity
 _atom_site_fract_x
 _atom_site_fract_y
 _atom_site_fract_z
 _atom_site_occupancy
  Ce  Ce0  1  0.87637000  0.98769600  0.31896600  1
  Ce  Ce1  1  0.62363000  0.98769600  0.81896600  1
  Ce  Ce2  1  0.37637000  0.01230400  0.18103400  1
  Ce  Ce3  1  0.12363000  0.01230400  0.68103400  1
  Be  Be0  1  0.89956400  0.39913500  0.95023600  1
  Be  Be1  1  0.60043600  0.39913500  0.45023600  1
  Be  Be2  1  0.39956400  0.60086500  0.54976400  1
  Be  Be3  1  0.10043600  0.60086500  0.04976400  1
  Si  Si0  1  0.29916800  0.46538900  0.82935000  1
  Si  Si1  1  0.20083200  0.46538900  0.32935000  1
  Si  Si2  1  0.79916800  0.53461100  0.67065000  1
  Si  Si3  1  0.70083200  0.53461100  0.17065000  1
  H  H0  1  0.58587600  0.98644100  0.46647200  1
  H  H1  1  0.91412400  0.98644100  0.96647200  1
  H  H2  1  0.08587600  0.01355900  0.03352800  1
  H  H3  1  0.41412400  0.01355900  0.53352800  1
  O  O0  1  0.59710800  0.51991300  0.60753900  1
  O  O1  1  0.90289200  0.51991300  0.10753900  1
  O  O2  1  0.26294700  0.41308700  0.65156300  1
  O  O3  1  0.23705300  0.41308700  0.15156300  1
  O  O4  1  0.58232900  0.76633300  0.08320200  1
  O  O5  1  0.91767100  0.76633300  0.58320200  1
  O  O6  1  0.12221500  0.74417600  0.30089700  1
  O  O7  1  0.37778500  0.74417600  0.80089700  1
  O  O8  1  0.35192300  0.89240400  0.48597100  1
  O  O9  1  0.14807700  0.89240400  0.98597100  1
  O  O10  1  0.85192300  0.10759600  0.01402900  1
  O  O11  1  0.64807700  0.10759600  0.51402900  1
  O  O12  1  0.62221500  0.25582400  0.19910300  1
  O  O13  1  0.87778500  0.25582400  0.69910300  1
  O  O14  1  0.08232900  0.23366700  0.41679800  1
  O  O15  1  0.41767100  0.23366700  0.91679800  1
  O  O16  1  0.76294700  0.58691300  0.84843700  1
  O  O17  1  0.73705300  0.58691300  0.34843700  1
  O  O18  1  0.09710800  0.48008700  0.89246100  1
  O  O19  1  0.40289200  0.48008700  0.39246100  1
loop_
_geom_bond_atom_site_label_1
_geom_bond_atom_site_label_2
_geom_bond_distance
_geom_bond_site_symmetry_2
Ce0 O6 2.343055 1_655
Ce0 O14 2.351695 1_665
Ce0 O5 2.364510 1_555
Ce0 O17 2.423478 1_555
Ce0 O12 2.536710 1_565
Ce0 O10 2.571112 1_565
Ce1 O7 2.343055 1_555
Ce1 O15 2.351695 1_565
Ce1 O4 2.364510 1_556
Ce1 O16 2.423478 1_555
Ce1 O13 2.536710 1_565
Ce1 O11 2.571112 1_565
Ce2 O12 2.343055 1_555
Ce2 O4 2.351695 1_545
Ce2 O15 2.364510 1_554
Ce2 O3 2.423478 1_555
Ce2 O6 2.536710 1_545
Ce2 O8 2.571112 1_545
Ce3 O13 2.343055 1_455
Ce3 O5 2.351695 1_445
Ce3 O14 2.364510 1_555
Ce3 O2 2.423478 1_555
Ce3 O7 2.536710 1_545
Ce3 O9 2.571112 1_545
Be0 O16 1.601650 1_555
Be0 O1 1.626085 1_556
Be0 O10 1.630323 1_556
Be0 O18 1.630977 1_655
Be1 O17 1.601650 1_555
Be1 O0 1.626085 1_555
Be1 O11 1.630323 1_555
Be1 O19 1.630977 1_555
Be2 O2 1.601650 1_555
Be2 O19 1.626085 1_555
Be2 O8 1.630323 1_555
Be2 O0 1.630977 1_555
Be3 O3 1.601650 1_555
Be3 O18 1.626085 1_554
Be3 O9 1.630323 1_554
Be3 O1 1.630977 1_455
H0 O11 0.977869 1_565
H1 O10 0.977869 1_566
H2 O9 0.977869 1_544
H3 O8 0.977869 1_545
O0 Si2 1.652752 1_555
O1 Si3 1.652752 1_555
O2 Si0 1.635547 1_555
O3 Si1 1.635547 1_555
O4 Si3 1.622040 1_555
O5 Si2 1.622040 1_555
O6 Si1 1.623929 1_555
O7 Si0 1.623929 1_555
O12 Si3 1.623929 1_555
O13 Si2 1.623929 1_555
O14 Si1 1.622040 1_555
O15 Si0 1.622040 1_555
O16 Si2 1.635547 1_555
O17 Si3 1.635547 1_555
O18 Si0 1.652752 1_555
O19 Si1 1.652752 1_555
