# generated using pymatgen
data_Sr3La5Mn8O24
_symmetry_space_group_name_H-M   'P 1'
_cell_length_a   7.85727794
_cell_length_b   7.85727794
_cell_length_c   9.56831303
_cell_angle_alpha   66.34286535
_cell_angle_beta   66.34286535
_cell_angle_gamma   90.43760325
_symmetry_Int_Tables_number   1
_chemical_formula_structural   Sr3La5Mn8O24
_chemical_formula_sum   'Sr3 La5 Mn8 O24'
_cell_volume   485.48861040
_cell_formula_units_Z   1
loop_
 _symmetry_equiv_pos_site_id
 _symmetry_equiv_pos_as_xyz
  1  'x, y, z'
loop_
 _atom_site_type_symbol
 _atom_site_label
 _atom_site_symmetry_multiplicity
 _atom_site_fract_x
 _atom_site_fract_y
 _atom_site_fract_z
 _atom_site_occupancy
  Sr  Sr0  1  0.12448800  0.87551200  0.00000000  1
  Sr  Sr1  1  0.37633300  0.62366700  0.50000000  1
  Sr  Sr2  1  0.62431300  0.37568700  0.00000000  1
  La  La0  1  0.62411800  0.87436100  0.00204800  1
  La  La1  1  0.87508600  0.12491400  0.50000000  1
  La  La2  1  0.12563900  0.37588200  0.99795200  1
  La  La3  1  0.37495000  0.12492600  0.49980100  1
  La  La4  1  0.87507400  0.62505000  0.50019900  1
  Mn  Mn0  1  0.99975600  0.74900900  0.75101600  1
  Mn  Mn1  1  0.49943000  0.25050500  0.75013400  1
  Mn  Mn2  1  0.49939800  0.74918800  0.75060500  1
  Mn  Mn3  1  0.74972100  0.99969600  0.24938200  1
  Mn  Mn4  1  0.00030400  0.25027900  0.75061800  1
  Mn  Mn5  1  0.25081200  0.50060200  0.24939500  1
  Mn  Mn6  1  0.25099100  0.00024400  0.24898400  1
  Mn  Mn7  1  0.74949500  0.50057000  0.24986600  1
  O  O0  1  0.40188500  0.09661600  0.00001300  1
  O  O1  1  0.48900500  0.96979200  0.27181000  1
  O  O2  1  0.26421500  0.79247400  0.72148100  1
  O  O3  1  0.65700100  0.85341000  0.49966600  1
  O  O4  1  0.71229300  0.23391000  0.28168300  1
  O  O5  1  0.53917200  0.01307800  0.72378200  1
  O  O6  1  0.90338400  0.59811500  0.99998700  1
  O  O7  1  0.95685600  0.98907400  0.77228300  1
  O  O8  1  0.98692200  0.46082800  0.27621800  1
  O  O9  1  0.78085500  0.75950100  0.23099300  1
  O  O10  1  0.76609000  0.28770700  0.71831700  1
  O  O11  1  0.85495100  0.14504900  0.00000000  1
  O  O12  1  0.14659000  0.34299900  0.50033400  1
  O  O13  1  0.24049900  0.21914500  0.76900700  1
  O  O14  1  0.20752600  0.73578500  0.27851900  1
  O  O15  1  0.01092600  0.04314400  0.22771700  1
  O  O16  1  0.03020800  0.51099500  0.72819000  1
  O  O17  1  0.09864900  0.90135100  0.50000000  1
  O  O18  1  0.46069000  0.48689400  0.77621400  1
  O  O19  1  0.27725600  0.25905000  0.23180400  1
  O  O20  1  0.35390100  0.64609900  0.00000000  1
  O  O21  1  0.74095000  0.72274400  0.76819600  1
  O  O22  1  0.51310600  0.53931000  0.22378600  1
  O  O23  1  0.60716500  0.39283500  0.50000000  1
loop_
_geom_bond_atom_site_label_1
_geom_bond_atom_site_label_2
_geom_bond_distance
_geom_bond_site_symmetry_2
La0 O0 2.479035 1_565
La0 O22 2.487985 1_555
La0 O7 2.498380 1_554
La0 O11 2.773562 1_565
La0 O1 2.778129 1_555
La0 O9 2.779457 1_555
La0 O20 2.779995 1_555
La0 O21 2.788565 1_554
La0 O5 2.798373 1_564
La0 O14 3.095606 1_555
La0 O6 3.098199 1_554
La0 O10 3.098545 1_564
La1 O17 2.493671 1_645
La1 O8 2.498477 1_555
La1 O5 2.498477 1_555
La1 O12 2.727856 1_655
La1 O3 2.727856 1_545
La1 O10 2.731030 1_555
La1 O4 2.731030 1_555
La1 O15 2.731617 1_655
La1 O7 2.731617 1_545
La1 O23 2.988450 1_555
La1 O19 2.992048 1_655
La1 O21 2.992048 1_545
La2 O6 2.479035 1_455
La2 O18 2.487985 1_555
La2 O15 2.498380 1_556
La2 O11 2.773562 1_456
La2 O16 2.778129 1_555
La2 O13 2.779457 1_555
La2 O20 2.779995 1_556
La2 O19 2.788565 1_556
La2 O8 2.798373 1_456
La2 O2 3.095606 1_555
La2 O0 3.098199 1_556
La2 O4 3.098545 1_456
La3 O2 2.473298 1_545
La3 O12 2.490396 1_555
La3 O4 2.491234 1_555
La3 O1 2.762164 1_545
La3 O13 2.767226 1_555
La3 O19 2.774645 1_555
La3 O23 2.776256 1_555
La3 O17 2.781157 1_545
La3 O5 2.784844 1_555
La3 O22 3.082005 1_555
La3 O3 3.087842 1_545
La3 O7 3.093239 1_445
La4 O14 2.473298 1_655
La4 O3 2.490396 1_555
La4 O10 2.491234 1_555
La4 O16 2.762164 1_655
La4 O9 2.767226 1_555
La4 O21 2.774645 1_555
La4 O23 2.776256 1_555
La4 O17 2.781157 1_655
La4 O8 2.784844 1_555
La4 O18 3.082005 1_555
La4 O12 3.087842 1_655
La4 O15 3.093239 1_665
Mn0 O16 1.973594 1_655
Mn0 O21 1.975570 1_555
Mn0 O6 1.981431 1_555
Mn0 O2 1.988649 1_655
Mn0 O7 1.993915 1_555
Mn0 O17 1.996513 1_655
Mn1 O13 1.973392 1_555
Mn1 O23 1.976619 1_555
Mn1 O18 1.981011 1_555
Mn1 O0 1.990253 1_556
Mn1 O5 1.991103 1_555
Mn1 O10 1.993843 1_555
Mn2 O20 1.975539 1_556
Mn2 O21 1.976869 1_555
Mn2 O18 1.981228 1_555
Mn2 O2 1.988682 1_555
Mn2 O5 1.990333 1_565
Mn2 O3 1.997390 1_555
Mn3 O9 1.972721 1_555
Mn3 O11 1.974076 1_565
Mn3 O1 1.974100 1_555
Mn3 O4 1.990083 1_565
Mn3 O15 1.990670 1_665
Mn3 O3 1.991224 1_555
Mn4 O13 1.972721 1_555
Mn4 O11 1.974076 1_456
Mn4 O16 1.974100 1_555
Mn4 O10 1.990083 1_455
Mn4 O7 1.990670 1_445
Mn4 O12 1.991224 1_555
Mn5 O20 1.975539 1_555
Mn5 O19 1.976869 1_555
Mn5 O22 1.981228 1_555
Mn5 O14 1.988682 1_555
Mn5 O8 1.990333 1_455
Mn5 O12 1.997390 1_555
Mn6 O1 1.973594 1_545
Mn6 O19 1.975570 1_555
Mn6 O0 1.981431 1_555
Mn6 O14 1.988649 1_545
Mn6 O15 1.993915 1_555
Mn6 O17 1.996513 1_545
Mn7 O9 1.973392 1_555
Mn7 O23 1.976619 1_555
Mn7 O22 1.981011 1_555
Mn7 O6 1.990253 1_554
Mn7 O8 1.991103 1_555
Mn7 O4 1.993843 1_555
O0 Sr0 2.776917 1_545
O0 Sr2 2.793484 1_555
O1 Sr1 2.567840 1_555
O1 Sr2 3.022942 1_565
O2 Sr0 2.791297 1_556
O2 Sr1 2.793150 1_555
O3 Sr1 2.837391 1_555
O4 Sr2 2.842634 1_555
O5 Sr0 3.084248 1_546
O6 Sr0 2.776917 1_656
O6 Sr2 2.793484 1_556
O7 Sr0 2.835367 1_656
O8 Sr0 3.084248 1_655
O9 Sr0 2.561728 1_655
O9 Sr1 3.007449 1_555
O10 Sr2 2.842634 1_556
O11 Sr2 2.572587 1_555
O11 Sr0 3.006476 1_645
O12 Sr1 2.837391 1_555
O13 Sr0 2.561728 1_546
O13 Sr1 3.007449 1_555
O14 Sr0 2.791297 1_555
O14 Sr1 2.793150 1_555
O15 Sr0 2.835367 1_545
O16 Sr1 2.567840 1_555
O16 Sr2 3.022942 1_456
O17 Sr1 3.097349 1_555
O18 Sr1 2.777861 1_555
O18 Sr2 2.779604 1_556
O19 Sr2 2.583039 1_555
O20 Sr0 2.558924 1_555
O20 Sr2 3.016235 1_555
O21 Sr2 2.583039 1_556
O22 Sr1 2.777861 1_555
O22 Sr2 2.779604 1_555
O23 Sr1 2.574751 1_555
