# generated using pymatgen
data_Cs2Tb6Te7N2
_symmetry_space_group_name_H-M   'P 1'
_cell_length_a   12.31349514
_cell_length_b   12.31349514
_cell_length_c   11.51682079
_cell_angle_alpha   76.54915321
_cell_angle_beta   76.54915321
_cell_angle_gamma   19.71129876
_symmetry_Int_Tables_number   1
_chemical_formula_structural   Cs2Tb6Te7N2
_chemical_formula_sum   'Cs2 Tb6 Te7 N2'
_cell_volume   572.31169270
_cell_formula_units_Z   1
loop_
 _symmetry_equiv_pos_site_id
 _symmetry_equiv_pos_as_xyz
  1  'x, y, z'
loop_
 _atom_site_type_symbol
 _atom_site_label
 _atom_site_symmetry_multiplicity
 _atom_site_fract_x
 _atom_site_fract_y
 _atom_site_fract_z
 _atom_site_occupancy
  Cs  Cs0  1  0.06356500  0.06356500  0.30169900  1
  Cs  Cs1  1  0.93643500  0.93643500  0.69830100  1
  Tb  Tb0  1  0.16464600  0.16464600  0.60955500  1
  Tb  Tb1  1  0.83535400  0.83535400  0.39044500  1
  Tb  Tb2  1  0.59039300  0.59039300  0.86029200  1
  Tb  Tb3  1  0.40960700  0.40960700  0.13970800  1
  Tb  Tb4  1  0.78407500  0.78407500  0.12831500  1
  Tb  Tb5  1  0.21592500  0.21592500  0.87168500  1
  Te  Te0  1  0.66296000  0.66296000  0.05638700  1
  Te  Te1  1  0.33704000  0.33704000  0.94361300  1
  Te  Te2  1  0.00000000  0.00000000  0.00000000  1
  Te  Te3  1  0.75897200  0.75897200  0.66085500  1
  Te  Te4  1  0.57562500  0.57562500  0.59314000  1
  Te  Te5  1  0.42437500  0.42437500  0.40686000  1
  Te  Te6  1  0.24102800  0.24102800  0.33914500  1
  N  N0  1  0.13673500  0.13673500  0.80341600  1
  N  N1  1  0.86326500  0.86326500  0.19658400  1
loop_
_geom_bond_atom_site_label_1
_geom_bond_atom_site_label_2
_geom_bond_distance
_geom_bond_site_symmetry_2
Cs0 Te0 3.875947 1_455
Cs0 Te0 3.875947 1_545
Cs0 Te5 3.922172 1_545
Cs0 Te5 3.922172 1_455
Cs0 Te4 4.032063 1_545
Cs0 Te4 4.032063 1_455
Cs0 Te2 4.120935 1_555
Cs0 Te6 4.427577 1_555
Cs1 Te1 3.875947 1_565
Cs1 Te1 3.875947 1_655
Cs1 Te4 3.922172 1_565
Cs1 Te4 3.922172 1_655
Cs1 Te5 4.032063 1_565
Cs1 Te5 4.032063 1_655
Cs1 Te2 4.120935 1_666
Cs1 Te3 4.427577 1_555
Tb0 Te4 3.055524 1_545
Tb0 Te4 3.055524 1_455
Tb0 Te6 3.226148 1_555
Tb0 Te3 3.266166 1_455
Tb0 Te3 3.266166 1_545
Tb1 Te5 3.055524 1_565
Tb1 Te5 3.055524 1_655
Tb1 Te3 3.226148 1_555
Tb1 Te6 3.266166 1_655
Tb1 Te6 3.266166 1_565
Tb2 Te0 3.174609 1_556
Tb2 Te4 3.180458 1_555
Tb2 Te2 3.189846 1_566
Tb2 Te2 3.189846 1_656
Tb3 Te1 3.174609 1_554
Tb3 Te5 3.180458 1_555
Tb3 Te2 3.189846 1_565
Tb3 Te2 3.189846 1_655
Tb4 Te1 3.054149 1_654
Tb4 Te1 3.054149 1_564
Tb4 Te6 3.198634 1_655
Tb4 Te6 3.198634 1_565
Tb4 Te0 3.235975 1_555
Tb5 Te0 3.054149 1_456
Tb5 Te0 3.054149 1_546
Tb5 Te3 3.198634 1_455
Tb5 Te3 3.198634 1_545
Tb5 Te1 3.235975 1_555
N0 Tb0 2.174731 1_555
N0 Tb5 2.241297 1_555
N0 Tb2 2.405791 1_545
N0 Tb2 2.405791 1_455
N1 Tb1 2.174731 1_555
N1 Tb4 2.241297 1_555
N1 Tb3 2.405791 1_655
N1 Tb3 2.405791 1_565
