# generated using pymatgen
data_Cu4(PO4)3
_symmetry_space_group_name_H-M   'P 1'
_cell_length_a   7.39967600
_cell_length_b   7.87271789
_cell_length_c   9.55199906
_cell_angle_alpha   109.58101417
_cell_angle_beta   111.78136829
_cell_angle_gamma   92.27824191
_symmetry_Int_Tables_number   1
_chemical_formula_structural   Cu4(PO4)3
_chemical_formula_sum   'Cu8 P6 O24'
_cell_volume   478.20495526
_cell_formula_units_Z   2
loop_
 _symmetry_equiv_pos_site_id
 _symmetry_equiv_pos_as_xyz
  1  'x, y, z'
loop_
 _atom_site_type_symbol
 _atom_site_label
 _atom_site_symmetry_multiplicity
 _atom_site_fract_x
 _atom_site_fract_y
 _atom_site_fract_z
 _atom_site_occupancy
  Cu  Cu0  1  0.73569700  0.47571900  0.08178200  1
  Cu  Cu1  1  0.30271500  0.61478600  0.29448500  1
  Cu  Cu2  1  0.73740800  0.10228300  0.09827500  1
  Cu  Cu3  1  0.98531900  0.20588200  0.54210800  1
  Cu  Cu4  1  0.01468100  0.79411800  0.45789200  1
  Cu  Cu5  1  0.69728500  0.38521400  0.70551500  1
  Cu  Cu6  1  0.26259200  0.89771700  0.90172500  1
  Cu  Cu7  1  0.26430300  0.52428100  0.91821800  1
  P  P0  1  0.30238900  0.54476400  0.60767000  1
  P  P1  1  0.39227400  0.13859100  0.74473900  1
  P  P2  1  0.98047700  0.75043800  0.06132900  1
  P  P3  1  0.01952300  0.24956200  0.93867100  1
  P  P4  1  0.60772600  0.86140900  0.25526100  1
  P  P5  1  0.69761100  0.45523600  0.39233000  1
  O  O0  1  0.76203700  0.33336800  0.49690100  1
  O  O1  1  0.90466300  0.92740200  0.07591300  1
  O  O2  1  0.47647400  0.45544100  0.34816700  1
  O  O3  1  0.27072400  0.64223200  0.77012900  1
  O  O4  1  0.13705600  0.73869900  0.98440500  1
  O  O5  1  0.92739100  0.27071000  0.77048600  1
  O  O6  1  0.82893500  0.94308100  0.37982300  1
  O  O7  1  0.86294400  0.26130100  0.01559500  1
  O  O8  1  0.72927600  0.35776800  0.22987100  1
  O  O9  1  0.47004900  0.85186100  0.33935200  1
  O  O10  1  0.52995100  0.14813900  0.66064800  1
  O  O11  1  0.23796300  0.66663200  0.50309900  1
  O  O12  1  0.17106500  0.05691900  0.62017700  1
  O  O13  1  0.52352600  0.54455900  0.65183300  1
  O  O14  1  0.80942300  0.57592100  0.94870600  1
  O  O15  1  0.58498200  0.65979900  0.13670200  1
  O  O16  1  0.82792300  0.64665200  0.48529100  1
  O  O17  1  0.17207700  0.35334800  0.51470900  1
  O  O18  1  0.09533700  0.07259800  0.92408700  1
  O  O19  1  0.07260900  0.72929000  0.22951400  1
  O  O20  1  0.19057700  0.42407900  0.05129400  1
  O  O21  1  0.55175400  0.98740400  0.15455200  1
  O  O22  1  0.41501800  0.34020100  0.86329800  1
  O  O23  1  0.44824600  0.01259600  0.84544800  1
loop_
_geom_bond_atom_site_label_1
_geom_bond_atom_site_label_2
_geom_bond_distance
_geom_bond_site_symmetry_2
Cu0 O15 1.916319 1_555
Cu0 O14 1.920491 1_554
Cu0 O8 1.947382 1_555
Cu0 O7 1.997154 1_555
Cu0 O22 2.399071 1_554
Cu1 O2 1.886781 1_555
Cu1 O19 1.951870 1_555
Cu1 O9 2.021555 1_555
Cu1 O20 2.114613 1_555
Cu1 O11 2.132113 1_555
Cu2 O1 1.899329 1_545
Cu2 O21 1.941479 1_545
Cu2 O8 2.000088 1_555
Cu2 O7 2.041711 1_555
Cu2 O23 2.410638 1_554
Cu3 O17 1.915885 1_655
Cu3 O12 1.942741 1_655
Cu3 O0 1.953580 1_555
Cu3 O6 2.085983 1_545
Cu3 O5 2.273346 1_555
Cu4 O16 1.915885 1_455
Cu4 O6 1.942741 1_455
Cu4 O11 1.953580 1_555
Cu4 O12 2.085983 1_565
Cu4 O19 2.273346 1_555
Cu5 O13 1.886781 1_555
Cu5 O5 1.951870 1_555
Cu5 O10 2.021555 1_555
Cu5 O14 2.114613 1_555
Cu5 O0 2.132113 1_555
Cu6 O18 1.899329 1_565
Cu6 O23 1.941479 1_565
Cu6 O3 2.000088 1_555
Cu6 O4 2.041711 1_555
Cu6 O21 2.410638 1_556
Cu7 O22 1.916319 1_555
Cu7 O20 1.920491 1_556
Cu7 O3 1.947382 1_555
Cu7 O4 1.997154 1_555
Cu7 O15 2.399071 1_556
O0 P5 1.571889 1_555
O1 P2 1.505041 1_555
O2 P5 1.530999 1_555
O3 P0 1.593052 1_555
O4 P2 1.576602 1_456
O5 P3 1.564880 1_655
O6 P4 1.570549 1_555
O7 P3 1.576602 1_654
O8 P5 1.593052 1_555
O9 P4 1.526564 1_555
O10 P1 1.526564 1_555
O11 P0 1.571889 1_555
O12 P1 1.570549 1_555
O13 P0 1.530999 1_555
O14 P2 1.583535 1_556
O15 P4 1.569263 1_555
O16 P5 1.530145 1_555
O17 P0 1.530145 1_555
O18 P3 1.505041 1_555
O19 P2 1.564880 1_455
O20 P3 1.583535 1_554
O21 P4 1.567611 1_555
O22 P1 1.569263 1_555
O23 P1 1.567611 1_555
