# generated using pymatgen
data_Tb7(CuTe4)3
_symmetry_space_group_name_H-M   'P 1'
_cell_length_a   7.53720260
_cell_length_b   7.53976665
_cell_length_c   14.26789458
_cell_angle_alpha   94.98621447
_cell_angle_beta   95.00758154
_cell_angle_gamma   119.97986219
_symmetry_Int_Tables_number   1
_chemical_formula_structural   Tb7(CuTe4)3
_chemical_formula_sum   'Tb7 Cu3 Te12'
_cell_volume   691.60644211
_cell_formula_units_Z   1
loop_
 _symmetry_equiv_pos_site_id
 _symmetry_equiv_pos_as_xyz
  1  'x, y, z'
loop_
 _atom_site_type_symbol
 _atom_site_label
 _atom_site_symmetry_multiplicity
 _atom_site_fract_x
 _atom_site_fract_y
 _atom_site_fract_z
 _atom_site_occupancy
  Tb  Tb0  1  0.57695374  0.58152598  0.74344207  1
  Tb  Tb1  1  0.33151148  0.66391009  0.99697419  1
  Tb  Tb2  1  0.08887629  0.75669801  0.25369789  1
  Tb  Tb3  1  0.24682227  0.90924962  0.74415537  1
  Tb  Tb4  1  0.74995765  0.07947938  0.25372604  1
  Tb  Tb5  1  0.91821236  0.25312587  0.74429621  1
  Tb  Tb6  1  0.41749327  0.41805246  0.25414498  1
  Cu  Cu0  1  0.86318830  0.52761057  0.58126194  1
  Cu  Cu1  1  0.47254859  0.14000147  0.42737232  1
  Cu  Cu2  1  0.80849307  0.81101843  0.42746388  1
  Te  Te0  1  0.29134591  0.29128354  0.87293674  1
  Te  Te1  1  0.79890251  0.46145071  0.38423499  1
  Te  Te2  1  0.95616238  0.62429931  0.87357449  1
  Te  Te3  1  0.70706968  0.70659506  0.12684286  1
  Te  Te4  1  0.45816600  0.79163873  0.38491052  1
  Te  Te5  1  0.87306757  0.87583539  0.61707644  1
  Te  Te6  1  0.62393760  0.95684573  0.87310756  1
  Te  Te7  1  0.37907189  0.04285414  0.12662420  1
  Te  Te8  1  0.12749699  0.13080118  0.38374075  1
  Te  Te9  1  0.53610269  0.20383445  0.61716391  1
  Te  Te10  1  0.04409031  0.37892200  0.12788393  1
  Te  Te11  1  0.20759445  0.53870088  0.61656874  1
loop_
_geom_bond_atom_site_label_1
_geom_bond_atom_site_label_2
_geom_bond_distance
_geom_bond_site_symmetry_2
Tb0 Te11 3.041660 1_555
Tb0 Te0 3.086400 1_555
Tb0 Te6 3.087079 1_555
Tb0 Te9 3.096033 1_555
Tb0 Te5 3.099101 1_555
Tb0 Te2 3.125511 1_555
Tb1 Te0 3.051096 1_555
Tb1 Te6 3.058270 1_555
Tb1 Te2 3.063890 1_455
Tb1 Te10 3.090442 1_556
Tb1 Te3 3.101591 1_556
Tb1 Te7 3.107345 1_566
Tb2 Te7 3.063075 1_565
Tb2 Te10 3.081215 1_555
Tb2 Te3 3.096047 1_455
Tb2 Te4 3.097319 1_555
Tb2 Te8 3.107867 1_565
Tb2 Te1 3.125725 1_455
Tb3 Te11 3.066471 1_555
Tb3 Te2 3.084958 1_455
Tb3 Te9 3.085393 1_565
Tb3 Te6 3.089657 1_555
Tb3 Te5 3.099428 1_455
Tb3 Te0 3.129225 1_565
Tb4 Te3 3.064474 1_545
Tb4 Te7 3.071792 1_555
Tb4 Te8 3.088937 1_655
Tb4 Te10 3.103764 1_655
Tb4 Te4 3.115267 1_545
Tb4 Te1 3.127903 1_555
Tb5 Te11 3.065479 1_655
Tb5 Te2 3.086521 1_555
Tb5 Te5 3.087074 1_545
Tb5 Te0 3.091845 1_655
Tb5 Te9 3.102276 1_555
Tb5 Te6 3.124278 1_545
Tb6 Te3 3.070719 1_555
Tb6 Te10 3.073426 1_555
Tb6 Te8 3.091593 1_555
Tb6 Te7 3.097024 1_555
Tb6 Te4 3.103663 1_555
Tb6 Te1 3.136763 1_555
Cu0 Te11 2.558653 1_655
Cu0 Te9 2.592833 1_555
Cu0 Te5 2.593231 1_555
Cu0 Te1 2.768234 1_555
Cu0 Tb3 3.375125 1_655
Cu0 Tb5 3.375240 1_555
Cu0 Tb0 3.429078 1_555
Cu1 Te8 2.585667 1_555
Cu1 Te4 2.589410 1_545
Cu1 Te1 2.620886 1_555
Cu1 Te9 2.666562 1_555
Cu2 Te4 2.584814 1_555
Cu2 Te8 2.590999 1_665
Cu2 Te1 2.617551 1_555
Cu2 Te5 2.664085 1_555
