# generated using pymatgen
data_Ca2Al4Si4H18O25
_symmetry_space_group_name_H-M   'P 1'
_cell_length_a   10.34812800
_cell_length_b   10.50800224
_cell_length_c   11.20390655
_cell_angle_alpha   88.16426688
_cell_angle_beta   89.70156615
_cell_angle_gamma   88.93911163
_symmetry_Int_Tables_number   1
_chemical_formula_structural   Ca2Al4Si4H18O25
_chemical_formula_sum   'Ca4 Al8 Si8 H36 O50'
_cell_volume   1217.44512630
_cell_formula_units_Z   2
loop_
 _symmetry_equiv_pos_site_id
 _symmetry_equiv_pos_as_xyz
  1  'x, y, z'
loop_
 _atom_site_type_symbol
 _atom_site_label
 _atom_site_symmetry_multiplicity
 _atom_site_fract_x
 _atom_site_fract_y
 _atom_site_fract_z
 _atom_site_occupancy
  Ca  Ca0  1  0.29100900  0.60188100  0.14045500  1
  Ca  Ca1  1  0.68479200  0.03386200  0.35063000  1
  Ca  Ca2  1  0.30394300  0.91424200  0.69543300  1
  Ca  Ca3  1  0.10968100  0.59738800  0.60315900  1
  Al  Al0  1  0.59606300  0.88321100  0.11056400  1
  Al  Al1  1  0.13722100  0.08823600  0.14995400  1
  Al  Al2  1  0.90425600  0.60593200  0.29406400  1
  Al  Al3  1  0.39402100  0.37491600  0.34115300  1
  Al  Al4  1  0.58129200  0.66343000  0.65774800  1
  Al  Al5  1  0.15317300  0.35514900  0.73636300  1
  Al  Al6  1  0.84719500  0.01762000  0.73131200  1
  Al  Al7  1  0.30101900  0.18610500  0.91350900  1
  Si  Si0  1  0.90030600  0.89691500  0.21736100  1
  Si  Si1  1  0.46095500  0.14803200  0.14677400  1
  Si  Si2  1  0.56886900  0.63990800  0.28247200  1
  Si  Si3  1  0.08588100  0.35451400  0.28946300  1
  Si  Si4  1  0.82608300  0.63472900  0.66123500  1
  Si  Si5  1  0.42288700  0.42922400  0.61732500  1
  Si  Si6  1  0.57910200  0.89636100  0.81286200  1
  Si  Si7  1  0.07441900  0.09672100  0.85564300  1
  H  H0  1  0.05220000  0.66995400  0.01004500  1
  H  H1  1  0.60360400  0.27961300  0.02538800  1
  H  H2  1  0.02625300  0.23789400  0.00818700  1
  H  H3  1  0.71629200  0.51740200  0.20005200  1
  H  H4  1  0.95131300  0.38880800  0.08821200  1
  H  H5  1  0.54214400  0.50741800  0.05828500  1
  H  H6  1  0.75137500  0.22960200  0.20676900  1
  H  H7  1  0.32174000  0.94241300  0.34345400  1
  H  H8  1  0.14167500  0.86056600  0.46705900  1
  H  H9  1  0.27031300  0.61130600  0.37106700  1
  H  H10  1  0.25188300  0.09644800  0.32540800  1
  H  H11  1  0.96364600  0.73142100  0.44221400  1
  H  H12  1  0.50283800  0.79195200  0.40655400  1
  H  H13  1  0.85089200  0.24495600  0.45017700  1
  H  H14  1  0.03958200  0.88785800  0.57167700  1
  H  H15  1  0.54311100  0.17948500  0.52305300  1
  H  H16  1  0.04309600  0.33085800  0.54261300  1
  H  H17  1  0.73528800  0.82849800  0.63741900  1
  H  H18  1  0.72631200  0.39321500  0.57025200  1
  H  H19  1  0.91131500  0.01004800  0.52317800  1
  H  H20  1  0.02313100  0.18253300  0.39191000  1
  H  H21  1  0.52859300  0.05919900  0.68662300  1
  H  H22  1  0.69105400  0.19488400  0.73944500  1
  H  H23  1  0.76837300  0.18755600  0.56008200  1
  H  H24  1  0.98131200  0.48383300  0.79971500  1
  H  H25  1  0.45790900  0.05184100  0.51345100  1
  H  H26  1  0.92795700  0.72505500  0.82071000  1
  H  H27  1  0.29329700  0.76074600  0.37606600  1
  H  H28  1  0.60564100  0.45542700  0.90994700  1
  H  H29  1  0.88959700  0.74866700  0.04047800  1
  H  H30  1  0.10937100  0.55264900  0.94310600  1
  H  H31  1  0.25510200  0.86550500  0.97797000  1
  H  H32  1  0.46884500  0.33630000  0.79022600  1
  H  H33  1  0.93572200  0.85905500  0.95040100  1
  H  H34  1  0.46921100  0.69117800  0.96537400  1
  H  H35  1  0.95414600  0.39536500  0.94791800  1
  O  O0  1  0.92319300  0.76592000  0.95890600  1
  O  O1  1  0.93592500  0.33824500  0.01663300  1
  O  O2  1  0.41783300  0.51310600  0.00223800  1
  O  O3  1  0.32398700  0.13104100  0.06916200  1
  O  O4  1  0.64291100  0.48917300  0.07239900  1
  O  O5  1  0.75406800  0.91527000  0.15561700  1
  O  O6  1  0.93057600  0.74149700  0.20612500  1
  O  O7  1  0.01343300  0.97358700  0.14333900  1
  O  O8  1  0.53506100  0.73138900  0.16632700  1
  O  O9  1  0.22533200  0.02418700  0.27957400  1
  O  O10  1  0.51463100  0.00597700  0.19272500  1
  O  O11  1  0.46924200  0.52120100  0.28724000  1
  O  O12  1  0.72344100  0.57242900  0.27251800  1
  O  O13  1  0.44020900  0.24044700  0.25951200  1
  O  O14  1  0.97923400  0.46385900  0.24991400  1
  O  O15  1  0.10195000  0.24369300  0.19609900  1
  O  O16  1  0.22725000  0.42220800  0.31135500  1
  O  O17  1  0.37075600  0.89425100  0.41462200  1
  O  O18  1  0.47642300  0.57155200  0.58306000  1
  O  O19  1  0.88018500  0.94381700  0.35355000  1
  O  O20  1  0.95391500  0.63877100  0.44262100  1
  O  O21  1  0.11938600  0.82785700  0.54733700  1
  O  O22  1  0.77612400  0.19180800  0.46886500  1
  O  O23  1  0.07576900  0.39524500  0.59549900  1
  O  O24  1  0.34090400  0.98389800  0.51008900  1
  O  O25  1  0.41722300  0.34878000  0.49456300  1
  O  O26  1  0.55211000  0.08668800  0.52539600  1
  O  O27  1  0.76850100  0.16315700  0.70084600  1
  O  O28  1  0.70584600  0.57469900  0.73728100  1
  O  O29  1  0.57619300  0.19358500  0.05448500  1
  O  O30  1  0.94201800  0.70833000  0.73235100  1
  O  O31  1  0.07335000  0.48272600  0.81818200  1
  O  O32  1  0.50265800  0.78611000  0.73683800  1
  O  O33  1  0.28534800  0.45584200  0.68520300  1
  O  O34  1  0.72851300  0.74948100  0.58746900  1
  O  O35  1  0.49409700  0.02600200  0.76533100  1
  O  O36  1  0.72569100  0.90375700  0.76157600  1
  O  O37  1  0.51674100  0.34889200  0.71526100  1
  O  O38  1  0.95854400  0.99739400  0.84938100  1
  O  O39  1  0.05791500  0.21706400  0.76522400  1
  O  O40  1  0.02093900  0.27325900  0.40849900  1
  O  O41  1  0.22347600  0.03731600  0.84348600  1
  O  O42  1  0.57609800  0.73035800  0.39882500  1
  O  O43  1  0.93901700  0.97910700  0.60266400  1
  O  O44  1  0.24628600  0.69361400  0.33337600  1
  O  O45  1  0.38908300  0.64408100  0.95292700  1
  O  O46  1  0.56346900  0.87359100  0.95589700  1
  O  O47  1  0.66884400  0.41476800  0.96568000  1
  O  O48  1  0.11319100  0.59672600  0.02147500  1
  O  O49  1  0.09090600  0.15765900  0.99219600  1
loop_
_geom_bond_atom_site_label_1
_geom_bond_atom_site_label_2
_geom_bond_distance
_geom_bond_site_symmetry_2
Ca0 O2 2.239797 1_555
Ca0 O48 2.280287 1_555
Ca0 O45 2.361309 1_554
Ca0 O44 2.433483 1_555
Ca0 O11 2.590258 1_555
Ca0 H9 2.596403 1_555
Ca0 O16 2.732672 1_555
Ca0 O8 2.911050 1_555
Ca1 O19 2.216417 1_545
Ca1 O22 2.369523 1_555
Ca1 O26 2.457784 1_555
Ca1 O10 2.530042 1_555
Ca1 O5 2.639262 1_545
Ca1 H6 2.670531 1_555
Ca2 O24 2.213350 1_555
Ca2 O41 2.280480 1_565
Ca2 O35 2.454585 1_565
Ca2 O32 2.474653 1_555
Ca2 O21 2.723640 1_555
Ca3 O23 2.163791 1_555
Ca3 O20 2.444701 1_455
Ca3 O21 2.485461 1_555
Ca3 O33 2.488250 1_555
Ca3 O30 2.543902 1_455
Ca3 O31 2.686666 1_555
Al0 O5 1.755441 1_555
Al0 O46 1.773530 1_554
Al0 O10 1.802600 1_565
Al0 O8 1.817490 1_555
Al1 O15 1.760408 1_555
Al1 O7 1.778095 1_545
Al1 O9 1.822580 1_555
Al1 O49 1.949158 1_554
Al1 O3 2.178257 1_555
Al2 O6 1.730844 1_555
Al2 O14 1.753812 1_555
Al2 O20 1.790449 1_555
Al2 O12 1.928149 1_555
Al3 O25 1.748980 1_555
Al3 O13 1.764917 1_555
Al3 O16 1.816673 1_555
Al3 O11 1.820317 1_555
Al4 O18 1.705873 1_555
Al4 O32 1.770876 1_555
Al4 O28 1.799685 1_555
Al4 O34 1.936867 1_555
Al5 O39 1.789196 1_555
Al5 O23 1.807752 1_555
Al5 O33 1.823577 1_555
Al5 O31 1.830198 1_555
Al6 O27 1.744064 1_555
Al6 O38 1.763958 1_545
Al6 O36 1.775583 1_545
Al6 O43 1.775673 1_545
Al7 O3 1.834972 1_556
Al7 O41 1.958425 1_555
Al7 O49 2.362469 1_555
H0 O48 0.991658 1_555
H1 O29 0.996780 1_555
H2 O49 1.085396 1_554
H2 O1 1.401280 1_455
H3 O12 1.015524 1_555
H3 O4 1.660408 1_555
H4 O1 0.991243 1_555
H5 O4 1.068392 1_555
H5 O2 1.433820 1_555
H7 O17 1.057372 1_555
H7 O9 1.477221 1_565
H8 O21 0.980444 1_555
H9 O44 0.978731 1_555
H10 O9 0.974646 1_555
H11 O20 0.980476 1_555
H12 O42 0.992907 1_555
H13 O22 0.980401 1_555
H14 O21 1.069232 1_555
H14 O43 1.450345 1_455
H15 O26 0.977356 1_555
H16 O23 0.979493 1_555
H16 O40 1.656413 1_555
H17 O34 1.019734 1_555
H17 O36 1.623698 1_555
H19 O43 0.980626 1_545
H20 O40 0.976955 1_555
H21 O35 1.004177 1_555
H22 O27 0.967571 1_555
H23 O22 1.024324 1_555
H23 O27 1.589687 1_555
H24 O31 0.975468 1_655
H25 O26 1.058278 1_555
H25 O24 1.418217 1_545
H26 O30 1.020191 1_555
H26 O0 1.620241 1_555
H27 O44 0.999897 1_555
H28 O47 0.988444 1_555
H29 O0 0.988635 1_554
H30 O48 1.007039 1_556
H32 O37 0.979574 1_555
H33 O0 0.991093 1_555
H34 O45 0.986267 1_555
H35 O1 0.980610 1_556
O3 Si1 1.681987 1_555
O5 Si0 1.672527 1_555
O6 Si0 1.665805 1_555
O7 Si0 1.639918 1_455
O8 Si2 1.628474 1_555
O10 Si1 1.650699 1_555
O11 Si2 1.632310 1_555
O12 Si2 1.742104 1_555
O13 Si1 1.628679 1_555
O14 Si3 1.630945 1_655
O15 Si3 1.595930 1_555
O16 Si3 1.661231 1_555
O17 O24 1.475533 1_555
O18 Si5 1.637908 1_555
O19 Si0 1.629581 1_555
O25 Si5 1.639178 1_555
O28 Si4 1.629576 1_555
O29 Si1 1.642227 1_555
O30 Si4 1.660151 1_555
O32 Si6 1.672605 1_555
O33 Si5 1.633984 1_555
O34 Si4 1.748206 1_555
O35 Si6 1.681417 1_545
O36 Si6 1.621630 1_555
O37 Si5 1.667694 1_555
O38 Si7 1.607488 1_665
O39 Si7 1.601962 1_555
O40 Si3 1.702430 1_555
O41 Si7 1.659820 1_555
O42 Si2 1.640541 1_555
O46 Si6 1.620418 1_555
O49 Si7 1.688000 1_555
