# generated using pymatgen
data_SiO2
_symmetry_space_group_name_H-M   'P 1'
_cell_length_a   13.08392400
_cell_length_b   13.08392400
_cell_length_c   13.08392400
_cell_angle_alpha   90.00000000
_cell_angle_beta   90.00000000
_cell_angle_gamma   90.00000000
_symmetry_Int_Tables_number   1
_chemical_formula_structural   SiO2
_chemical_formula_sum   'Si48 O96'
_cell_volume   2239.82474537
_cell_formula_units_Z   48
loop_
 _symmetry_equiv_pos_site_id
 _symmetry_equiv_pos_as_xyz
  1  'x, y, z'
loop_
 _atom_site_type_symbol
 _atom_site_label
 _atom_site_symmetry_multiplicity
 _atom_site_fract_x
 _atom_site_fract_y
 _atom_site_fract_z
 _atom_site_occupancy
  Si  Si0  1  0.11499800  0.63820700  0.37503000  1
  Si  Si1  1  0.62497000  0.11499800  0.36179300  1
  Si  Si2  1  0.12497000  0.13820700  0.61499800  1
  Si  Si3  1  0.13820700  0.61499800  0.87503000  1
  Si  Si4  1  0.86179300  0.61499800  0.87503000  1
  Si  Si5  1  0.86179300  0.38500200  0.12497000  1
  Si  Si6  1  0.61499800  0.87503000  0.86179300  1
  Si  Si7  1  0.37503000  0.11499800  0.63820700  1
  Si  Si8  1  0.38500200  0.87503000  0.13820700  1
  Si  Si9  1  0.36179300  0.37503000  0.88500200  1
  Si  Si10  1  0.13820700  0.38500200  0.12497000  1
  Si  Si11  1  0.88500200  0.36179300  0.37503000  1
  Si  Si12  1  0.86179300  0.61499800  0.12497000  1
  Si  Si13  1  0.12497000  0.86179300  0.61499800  1
  Si  Si14  1  0.88500200  0.63820700  0.62497000  1
  Si  Si15  1  0.62497000  0.88500200  0.36179300  1
  Si  Si16  1  0.61499800  0.12497000  0.13820700  1
  Si  Si17  1  0.87503000  0.13820700  0.38500200  1
  Si  Si18  1  0.62497000  0.11499800  0.63820700  1
  Si  Si19  1  0.37503000  0.88500200  0.63820700  1
  Si  Si20  1  0.87503000  0.86179300  0.61499800  1
  Si  Si21  1  0.13820700  0.38500200  0.87503000  1
  Si  Si22  1  0.13820700  0.61499800  0.12497000  1
  Si  Si23  1  0.63820700  0.62497000  0.88500200  1
  Si  Si24  1  0.38500200  0.12497000  0.86179300  1
  Si  Si25  1  0.37503000  0.11499800  0.36179300  1
  Si  Si26  1  0.88500200  0.63820700  0.37503000  1
  Si  Si27  1  0.88500200  0.36179300  0.62497000  1
  Si  Si28  1  0.36179300  0.62497000  0.11499800  1
  Si  Si29  1  0.87503000  0.86179300  0.38500200  1
  Si  Si30  1  0.62497000  0.88500200  0.63820700  1
  Si  Si31  1  0.36179300  0.62497000  0.88500200  1
  Si  Si32  1  0.37503000  0.88500200  0.36179300  1
  Si  Si33  1  0.86179300  0.38500200  0.87503000  1
  Si  Si34  1  0.36179300  0.37503000  0.11499800  1
  Si  Si35  1  0.11499800  0.63820700  0.62497000  1
  Si  Si36  1  0.63820700  0.37503000  0.11499800  1
  Si  Si37  1  0.38500200  0.12497000  0.13820700  1
  Si  Si38  1  0.61499800  0.87503000  0.13820700  1
  Si  Si39  1  0.11499800  0.36179300  0.37503000  1
  Si  Si40  1  0.38500200  0.87503000  0.86179300  1
  Si  Si41  1  0.63820700  0.37503000  0.88500200  1
  Si  Si42  1  0.11499800  0.36179300  0.62497000  1
  Si  Si43  1  0.61499800  0.12497000  0.86179300  1
  Si  Si44  1  0.12497000  0.86179300  0.38500200  1
  Si  Si45  1  0.12497000  0.13820700  0.38500200  1
  Si  Si46  1  0.63820700  0.62497000  0.11499800  1
  Si  Si47  1  0.87503000  0.13820700  0.61499800  1
  O  O0  1  0.25000000  0.10215200  0.39784800  1
  O  O1  1  0.39784800  0.75000000  0.89784800  1
  O  O2  1  0.60215200  0.25000000  0.10215200  1
  O  O3  1  0.25000000  0.10215200  0.60215200  1
  O  O4  1  0.41013000  0.00000000  0.62373900  1
  O  O5  1  0.84502300  0.25000000  0.34502300  1
  O  O6  1  0.25000000  0.89784800  0.60215200  1
  O  O7  1  0.75000000  0.65497700  0.15497700  1
  O  O8  1  0.83112500  0.38337100  0.50000000  1
  O  O9  1  0.89784800  0.60215200  0.75000000  1
  O  O10  1  0.11662900  0.66887500  0.00000000  1
  O  O11  1  0.15497700  0.25000000  0.34502300  1
  O  O12  1  0.61662900  0.50000000  0.16887500  1
  O  O13  1  0.16887500  0.38337100  0.50000000  1
  O  O14  1  0.75000000  0.89784800  0.60215200  1
  O  O15  1  0.10215200  0.60215200  0.25000000  1
  O  O16  1  0.91013000  0.87626100  0.50000000  1
  O  O17  1  0.25000000  0.34502300  0.84502300  1
  O  O18  1  0.39784800  0.25000000  0.10215200  1
  O  O19  1  0.66887500  0.00000000  0.88337100  1
  O  O20  1  0.87626100  0.50000000  0.08987000  1
  O  O21  1  0.75000000  0.10215200  0.60215200  1
  O  O22  1  0.11662900  0.33112500  0.00000000  1
  O  O23  1  0.10215200  0.60215200  0.75000000  1
  O  O24  1  0.33112500  0.00000000  0.88337100  1
  O  O25  1  0.37626100  0.41013000  0.00000000  1
  O  O26  1  0.84502300  0.75000000  0.34502300  1
  O  O27  1  0.37626100  0.58987000  0.00000000  1
  O  O28  1  0.60215200  0.25000000  0.89784800  1
  O  O29  1  0.84502300  0.75000000  0.65497700  1
  O  O30  1  0.87626100  0.50000000  0.91013000  1
  O  O31  1  0.10215200  0.39784800  0.75000000  1
  O  O32  1  0.00000000  0.62373900  0.58987000  1
  O  O33  1  0.75000000  0.89784800  0.39784800  1
  O  O34  1  0.75000000  0.10215200  0.39784800  1
  O  O35  1  0.89784800  0.39784800  0.75000000  1
  O  O36  1  0.00000000  0.11662900  0.66887500  1
  O  O37  1  0.89784800  0.60215200  0.25000000  1
  O  O38  1  0.83112500  0.61662900  0.50000000  1
  O  O39  1  0.88337100  0.66887500  0.00000000  1
  O  O40  1  0.75000000  0.34502300  0.84502300  1
  O  O41  1  0.75000000  0.65497700  0.84502300  1
  O  O42  1  0.00000000  0.37626100  0.41013000  1
  O  O43  1  0.00000000  0.88337100  0.33112500  1
  O  O44  1  0.25000000  0.65497700  0.84502300  1
  O  O45  1  0.15497700  0.25000000  0.65497700  1
  O  O46  1  0.16887500  0.61662900  0.50000000  1
  O  O47  1  0.58987000  0.00000000  0.62373900  1
  O  O48  1  0.34502300  0.84502300  0.75000000  1
  O  O49  1  0.61662900  0.50000000  0.83112500  1
  O  O50  1  0.50000000  0.16887500  0.38337100  1
  O  O51  1  0.00000000  0.11662900  0.33112500  1
  O  O52  1  0.25000000  0.34502300  0.15497700  1
  O  O53  1  0.15497700  0.75000000  0.65497700  1
  O  O54  1  0.00000000  0.62373900  0.41013000  1
  O  O55  1  0.50000000  0.08987000  0.12373900  1
  O  O56  1  0.75000000  0.34502300  0.15497700  1
  O  O57  1  0.50000000  0.91013000  0.87626100  1
  O  O58  1  0.50000000  0.83112500  0.61662900  1
  O  O59  1  0.12373900  0.50000000  0.91013000  1
  O  O60  1  0.65497700  0.84502300  0.75000000  1
  O  O61  1  0.88337100  0.33112500  0.00000000  1
  O  O62  1  0.39784800  0.25000000  0.89784800  1
  O  O63  1  0.00000000  0.37626100  0.58987000  1
  O  O64  1  0.15497700  0.75000000  0.34502300  1
  O  O65  1  0.62373900  0.58987000  0.00000000  1
  O  O66  1  0.62373900  0.41013000  0.00000000  1
  O  O67  1  0.50000000  0.08987000  0.87626100  1
  O  O68  1  0.60215200  0.75000000  0.89784800  1
  O  O69  1  0.50000000  0.16887500  0.61662900  1
  O  O70  1  0.08987000  0.12373900  0.50000000  1
  O  O71  1  0.65497700  0.15497700  0.25000000  1
  O  O72  1  0.12373900  0.50000000  0.08987000  1
  O  O73  1  0.50000000  0.91013000  0.12373900  1
  O  O74  1  0.84502300  0.25000000  0.65497700  1
  O  O75  1  0.38337100  0.50000000  0.16887500  1
  O  O76  1  0.08987000  0.87626100  0.50000000  1
  O  O77  1  0.66887500  0.00000000  0.11662900  1
  O  O78  1  0.38337100  0.50000000  0.83112500  1
  O  O79  1  0.65497700  0.15497700  0.75000000  1
  O  O80  1  0.41013000  0.00000000  0.37626100  1
  O  O81  1  0.89784800  0.39784800  0.25000000  1
  O  O82  1  0.10215200  0.39784800  0.25000000  1
  O  O83  1  0.50000000  0.83112500  0.38337100  1
  O  O84  1  0.25000000  0.65497700  0.15497700  1
  O  O85  1  0.58987000  0.00000000  0.37626100  1
  O  O86  1  0.33112500  0.00000000  0.11662900  1
  O  O87  1  0.60215200  0.75000000  0.10215200  1
  O  O88  1  0.25000000  0.89784800  0.39784800  1
  O  O89  1  0.00000000  0.88337100  0.66887500  1
  O  O90  1  0.34502300  0.84502300  0.25000000  1
  O  O91  1  0.91013000  0.12373900  0.50000000  1
  O  O92  1  0.65497700  0.84502300  0.25000000  1
  O  O93  1  0.39784800  0.75000000  0.10215200  1
  O  O94  1  0.34502300  0.15497700  0.25000000  1
  O  O95  1  0.34502300  0.15497700  0.75000000  1
loop_
_geom_bond_atom_site_label_1
_geom_bond_atom_site_label_2
_geom_bond_distance
_geom_bond_site_symmetry_2
O0 Si25 1.710819 1_555
O0 Si45 1.710819 1_555
O1 Si31 1.710819 1_555
O1 Si40 1.710819 1_555
O2 Si36 1.710819 1_555
O2 Si16 1.710819 1_555
O3 Si7 1.710819 1_555
O3 Si2 1.710819 1_555
O4 Si7 1.584499 1_555
O4 Si19 1.584499 1_545
O5 Si17 1.602255 1_555
O5 Si11 1.602255 1_555
O6 Si19 1.710819 1_555
O6 Si13 1.710819 1_555
O7 Si12 1.602255 1_555
O7 Si46 1.602255 1_555
O8 Si11 1.802822 1_555
O8 Si27 1.802822 1_555
O9 Si14 1.710819 1_555
O9 Si4 1.710819 1_555
O10 Si3 1.802822 1_554
O10 Si22 1.802822 1_555
O11 Si45 1.602255 1_555
O11 Si39 1.602255 1_555
O12 Si36 1.802822 1_555
O12 Si46 1.802822 1_555
O13 Si39 1.802822 1_555
O13 Si42 1.802822 1_555
O14 Si30 1.710819 1_555
O14 Si20 1.710819 1_555
O15 Si0 1.710819 1_555
O15 Si22 1.710819 1_555
O16 Si20 1.584499 1_555
O16 Si29 1.584499 1_555
O17 Si21 1.602255 1_555
O17 Si9 1.602255 1_555
O18 Si34 1.710819 1_555
O18 Si37 1.710819 1_555
O19 Si6 1.802822 1_545
O19 Si43 1.802822 1_555
O20 Si12 1.584499 1_555
O20 Si5 1.584499 1_555
O21 Si18 1.710819 1_555
O21 Si47 1.710819 1_555
O22 Si21 1.802822 1_554
O22 Si10 1.802822 1_555
O23 Si35 1.710819 1_555
O23 Si3 1.710819 1_555
O24 Si40 1.802822 1_545
O24 Si24 1.802822 1_555
O25 Si34 1.584499 1_555
O25 Si9 1.584499 1_554
O26 Si29 1.602255 1_555
O26 Si26 1.602255 1_555
O27 Si28 1.584499 1_555
O27 Si31 1.584499 1_554
O28 Si41 1.710819 1_555
O28 Si43 1.710819 1_555
O29 Si20 1.602255 1_555
O29 Si14 1.602255 1_555
O30 Si4 1.584499 1_555
O30 Si33 1.584499 1_555
O31 Si42 1.710819 1_555
O31 Si21 1.710819 1_555
O32 Si35 1.584499 1_555
O32 Si14 1.584499 1_455
O33 Si15 1.710819 1_555
O33 Si29 1.710819 1_555
O34 Si1 1.710819 1_555
O34 Si17 1.710819 1_555
O35 Si27 1.710819 1_555
O35 Si33 1.710819 1_555
O36 Si47 1.802822 1_455
O36 Si2 1.802822 1_555
O37 Si26 1.710819 1_555
O37 Si12 1.710819 1_555
O38 Si26 1.802822 1_555
O38 Si14 1.802822 1_555
O39 Si4 1.802822 1_554
O39 Si12 1.802822 1_555
O40 Si33 1.602255 1_555
O40 Si41 1.602255 1_555
O41 Si4 1.602255 1_555
O41 Si23 1.602255 1_555
O42 Si39 1.584499 1_555
O42 Si11 1.584499 1_455
O43 Si29 1.802822 1_455
O43 Si44 1.802822 1_555
O44 Si31 1.602255 1_555
O44 Si3 1.602255 1_555
O45 Si2 1.602255 1_555
O45 Si42 1.602255 1_555
O46 Si0 1.802822 1_555
O46 Si35 1.802822 1_555
O47 Si18 1.584499 1_555
O47 Si30 1.584499 1_545
O48 Si40 1.602255 1_555
O48 Si19 1.602255 1_555
O49 Si41 1.802822 1_555
O49 Si23 1.802822 1_555
O50 Si25 1.802822 1_555
O50 Si1 1.802822 1_555
O51 Si17 1.802822 1_455
O51 Si45 1.802822 1_555
O52 Si10 1.602255 1_555
O52 Si34 1.602255 1_555
O53 Si13 1.602255 1_555
O53 Si35 1.602255 1_555
O54 Si0 1.584499 1_555
O54 Si26 1.584499 1_455
O55 Si16 1.584499 1_555
O55 Si37 1.584499 1_555
O56 Si5 1.602255 1_555
O56 Si36 1.602255 1_555
O57 Si6 1.584499 1_555
O57 Si40 1.584499 1_555
O58 Si19 1.802822 1_555
O58 Si30 1.802822 1_555
O59 Si3 1.584499 1_555
O59 Si21 1.584499 1_555
O60 Si6 1.602255 1_555
O60 Si30 1.602255 1_555
O61 Si33 1.802822 1_554
O61 Si5 1.802822 1_555
O62 Si9 1.710819 1_555
O62 Si24 1.710819 1_555
O63 Si42 1.584499 1_555
O63 Si27 1.584499 1_455
O64 Si44 1.602255 1_555
O64 Si0 1.602255 1_555
O65 Si46 1.584499 1_555
O65 Si23 1.584499 1_554
O66 Si36 1.584499 1_555
O66 Si41 1.584499 1_554
O67 Si43 1.584499 1_555
O67 Si24 1.584499 1_555
O68 Si23 1.710819 1_555
O68 Si6 1.710819 1_555
O69 Si7 1.802822 1_555
O69 Si18 1.802822 1_555
O70 Si2 1.584499 1_555
O70 Si45 1.584499 1_555
O71 Si16 1.602255 1_555
O71 Si1 1.602255 1_555
O72 Si22 1.584499 1_555
O72 Si10 1.584499 1_555
O73 Si38 1.584499 1_555
O73 Si8 1.584499 1_555
O74 Si27 1.602255 1_555
O74 Si47 1.602255 1_555
O75 Si34 1.802822 1_555
O75 Si28 1.802822 1_555
O76 Si13 1.584499 1_555
O76 Si44 1.584499 1_555
O77 Si38 1.802822 1_545
O77 Si16 1.802822 1_555
O78 Si9 1.802822 1_555
O78 Si31 1.802822 1_555
O79 Si43 1.602255 1_555
O79 Si18 1.602255 1_555
O80 Si25 1.584499 1_555
O80 Si32 1.584499 1_545
O81 Si11 1.710819 1_555
O81 Si5 1.710819 1_555
O82 Si39 1.710819 1_555
O82 Si10 1.710819 1_555
O83 Si32 1.802822 1_555
O83 Si15 1.802822 1_555
O84 Si22 1.602255 1_555
O84 Si28 1.602255 1_555
O85 Si1 1.584499 1_555
O85 Si15 1.584499 1_545
O86 Si8 1.802822 1_545
O86 Si37 1.802822 1_555
O87 Si46 1.710819 1_555
O87 Si38 1.710819 1_555
O88 Si32 1.710819 1_555
O88 Si44 1.710819 1_555
O89 Si20 1.802822 1_455
O89 Si13 1.802822 1_555
O90 Si8 1.602255 1_555
O90 Si32 1.602255 1_555
O91 Si47 1.584499 1_555
O91 Si17 1.584499 1_555
O92 Si15 1.602255 1_555
O92 Si38 1.602255 1_555
O93 Si28 1.710819 1_555
O93 Si8 1.710819 1_555
O94 Si37 1.602255 1_555
O94 Si25 1.602255 1_555
O95 Si24 1.602255 1_555
O95 Si7 1.602255 1_555
