# generated using pymatgen
data_Co2Mo4N
_symmetry_space_group_name_H-M   'P 1'
_cell_length_a   7.92504428
_cell_length_b   7.92472496
_cell_length_c   7.92502291
_cell_angle_alpha   60.00134416
_cell_angle_beta   60.00273567
_cell_angle_gamma   60.00146904
_symmetry_Int_Tables_number   1
_chemical_formula_structural   Co2Mo4N
_chemical_formula_sum   'Co8 Mo16 N4'
_cell_volume   351.95702318
_cell_formula_units_Z   4
loop_
 _symmetry_equiv_pos_site_id
 _symmetry_equiv_pos_as_xyz
  1  'x, y, z'
loop_
 _atom_site_type_symbol
 _atom_site_label
 _atom_site_symmetry_multiplicity
 _atom_site_fract_x
 _atom_site_fract_y
 _atom_site_fract_z
 _atom_site_occupancy
  Co  Co0  1  0.24277181  0.91904243  0.91910676  1
  Co  Co1  1  0.91906530  0.24277154  0.91909579  1
  Co  Co2  1  0.91908227  0.91904570  0.91911338  1
  Co  Co3  1  0.91909024  0.91905457  0.24276349  1
  Co  Co4  1  0.00731868  0.33092511  0.33086277  1
  Co  Co5  1  0.33088323  0.33091186  0.00732505  1
  Co  Co6  1  0.33090270  0.00732444  0.33087086  1
  Co  Co7  1  0.33089573  0.33091734  0.33086350  1
  Mo  Mo0  1  0.69016021  0.30985444  0.69019854  1
  Mo  Mo1  1  0.62504152  0.12498779  0.12498436  1
  Mo  Mo2  1  0.55979270  0.55981897  0.94017067  1
  Mo  Mo3  1  0.55983957  0.94014866  0.55980716  1
  Mo  Mo4  1  0.94015197  0.94020029  0.55980623  1
  Mo  Mo5  1  0.94012977  0.55984807  0.55978876  1
  Mo  Mo6  1  0.94016514  0.55981907  0.94022124  1
  Mo  Mo7  1  0.69018049  0.30982307  0.30980546  1
  Mo  Mo8  1  0.30983056  0.69017651  0.30977254  1
  Mo  Mo9  1  0.12498578  0.12498526  0.62504498  1
  Mo  Mo10  1  0.30984654  0.30980664  0.69018700  1
  Mo  Mo11  1  0.30986218  0.69015620  0.69022757  1
  Mo  Mo12  1  0.69022132  0.69018766  0.30982070  1
  Mo  Mo13  1  0.12498628  0.62504604  0.12498380  1
  Mo  Mo14  1  0.12498628  0.12498427  0.12498394  1
  Mo  Mo15  1  0.55981001  0.94018468  0.94019304  1
  N  N0  1  0.62500746  0.62499666  0.62500938  1
  N  N1  1  0.12499261  0.62499148  0.62500370  1
  N  N2  1  0.62499661  0.12499857  0.62499840  1
  N  N3  1  0.62500301  0.62499268  0.12499093  1
loop_
_geom_bond_atom_site_label_1
_geom_bond_atom_site_label_2
_geom_bond_distance
_geom_bond_site_symmetry_2
Co0 Mo13 2.410852 1_556
Co0 Mo14 2.411093 1_566
Co0 Mo9 2.411322 1_565
Co0 Co3 2.565195 1_456
Co0 Co2 2.565215 1_455
Co0 Co1 2.565483 1_465
Co0 Mo2 2.690041 1_555
Co0 Mo15 2.690287 1_555
Co0 Mo3 2.690655 1_555
Co0 Mo8 2.867703 1_556
Co0 Mo11 2.867783 1_555
Co0 Mo10 2.868340 1_565
Co1 Mo14 2.411053 1_656
Co1 Mo1 2.411100 1_556
Co1 Mo9 2.411284 1_655
Co1 Co3 2.565273 1_546
Co1 Co2 2.565301 1_545
Co1 Mo6 2.690252 1_555
Co1 Mo2 2.690378 1_555
Co1 Mo5 2.690622 1_555
Co1 Mo7 2.868022 1_556
Co1 Mo0 2.868101 1_555
Co1 Mo10 2.868459 1_655
Co2 Mo13 2.410859 1_656
Co2 Mo1 2.411165 1_566
Co2 Mo9 2.411350 1_665
Co2 Co3 2.565001 1_556
Co2 Mo6 2.690008 1_555
Co2 Mo15 2.690393 1_555
Co2 Mo4 2.690641 1_555
Co2 Mo12 2.867877 1_556
Co2 Mo11 2.868325 1_655
Co2 Mo0 2.868535 1_565
Co3 Mo13 2.410910 1_655
Co3 Mo14 2.411151 1_665
Co3 Mo1 2.411214 1_565
Co3 Mo5 2.689973 1_555
Co3 Mo4 2.690223 1_555
Co3 Mo3 2.690357 1_555
Co3 Mo12 2.867702 1_555
Co3 Mo8 2.868057 1_655
Co3 Mo7 2.868267 1_565
Co4 Mo13 2.411166 1_555
Co4 Mo14 2.411368 1_555
Co4 Mo9 2.411605 1_555
Co4 Co5 2.564260 1_555
Co4 Co7 2.564335 1_555
Co4 Co6 2.564489 1_555
Co4 Mo12 2.690479 1_455
Co4 Mo7 2.690769 1_455
Co4 Mo0 2.691129 1_455
Co4 Mo6 2.867845 1_454
Co4 Mo5 2.868001 1_455
Co4 Mo4 2.868371 1_445
Co5 Mo13 2.411218 1_555
Co5 Mo14 2.411420 1_555
Co5 Mo1 2.411422 1_555
Co5 Co7 2.564121 1_555
Co5 Co6 2.564277 1_555
Co5 Mo11 2.690391 1_554
Co5 Mo10 2.690685 1_554
Co5 Mo0 2.690760 1_554
Co5 Mo2 2.867905 1_554
Co5 Mo6 2.868213 1_454
Co5 Mo15 2.868279 1_544
Co6 Mo14 2.411308 1_555
Co6 Mo1 2.411342 1_555
Co6 Mo9 2.411558 1_555
Co6 Co7 2.564328 1_555
Co6 Mo8 2.690801 1_545
Co6 Mo12 2.690891 1_545
Co6 Mo11 2.691159 1_545
Co6 Mo15 2.868091 1_544
Co6 Mo3 2.868252 1_545
Co6 Mo4 2.868541 1_445
Co7 Mo13 2.411217 1_555
Co7 Mo1 2.411387 1_555
Co7 Mo9 2.411605 1_555
Co7 Mo8 2.690385 1_555
Co7 Mo7 2.690721 1_555
Co7 Mo10 2.690992 1_555
Co7 Mo2 2.868084 1_554
Co7 Mo5 2.868537 1_455
Co7 Mo3 2.868557 1_545
Mo0 N0 2.111325 1_555
Mo0 N2 2.111858 1_555
Mo2 N0 2.111483 1_555
Mo2 N3 2.111741 1_556
Mo3 N0 2.111347 1_555
Mo3 N2 2.111726 1_565
Mo4 N2 2.111512 1_565
Mo4 N1 2.111811 1_655
Mo5 N0 2.111243 1_555
Mo5 N1 2.111915 1_655
Mo6 N3 2.111533 1_556
Mo6 N1 2.111944 1_655
Mo7 N3 2.111540 1_555
Mo7 N2 2.111762 1_555
Mo8 N3 2.111613 1_555
Mo8 N1 2.112039 1_555
Mo10 N2 2.111500 1_555
Mo10 N1 2.111699 1_555
Mo11 N0 2.111398 1_555
Mo11 N1 2.112136 1_555
Mo12 N0 2.111665 1_555
Mo12 N3 2.111977 1_555
Mo15 N3 2.111637 1_556
Mo15 N2 2.111753 1_565
