# generated using pymatgen
data_Cs3CrF7
_symmetry_space_group_name_H-M   'P 1'
_cell_length_a   8.51845800
_cell_length_b   8.51845800
_cell_length_c   6.37514600
_cell_angle_alpha   90.00000000
_cell_angle_beta   90.00000000
_cell_angle_gamma   90.00000000
_symmetry_Int_Tables_number   1
_chemical_formula_structural   Cs3CrF7
_chemical_formula_sum   'Cs6 Cr2 F14'
_cell_volume   462.60690206
_cell_formula_units_Z   2
loop_
 _symmetry_equiv_pos_site_id
 _symmetry_equiv_pos_as_xyz
  1  'x, y, z'
loop_
 _atom_site_type_symbol
 _atom_site_label
 _atom_site_symmetry_multiplicity
 _atom_site_fract_x
 _atom_site_fract_y
 _atom_site_fract_z
 _atom_site_occupancy
  Cs  Cs0  1  0.19333600  0.69333600  0.50000000  1
  Cs  Cs1  1  0.69333600  0.80666400  0.50000000  1
  Cs  Cs2  1  0.30666400  0.19333600  0.50000000  1
  Cs  Cs3  1  0.50000000  0.50000000  0.00000000  1
  Cs  Cs4  1  0.00000000  0.00000000  0.00000000  1
  Cs  Cs5  1  0.80666400  0.30666400  0.50000000  1
  Cr  Cr0  1  0.50000000  0.00000000  0.00000000  1
  Cr  Cr1  1  0.00000000  0.50000000  0.00000000  1
  F  F0  1  0.34619500  0.15380500  0.00000000  1
  F  F1  1  0.15380500  0.65380500  0.00000000  1
  F  F2  1  0.89128300  0.60871700  0.21065600  1
  F  F3  1  0.39128300  0.89128300  0.21065600  1
  F  F4  1  0.84619500  0.34619500  0.00000000  1
  F  F5  1  0.65380500  0.84619500  0.00000000  1
  F  F6  1  0.60871700  0.10871700  0.78934400  1
  F  F7  1  0.60871700  0.10871700  0.21065600  1
  F  F8  1  0.00000000  0.00000000  0.50000000  1
  F  F9  1  0.10871700  0.39128300  0.78934400  1
  F  F10  1  0.39128300  0.89128300  0.78934400  1
  F  F11  1  0.10871700  0.39128300  0.21065600  1
  F  F12  1  0.50000000  0.50000000  0.50000000  1
  F  F13  1  0.89128300  0.60871700  0.78934400  1
loop_
_geom_bond_atom_site_label_1
_geom_bond_atom_site_label_2
_geom_bond_distance
_geom_bond_site_symmetry_2
Cs0 F10 3.014822 1_555
Cs0 F3 3.014822 1_555
Cs0 F12 3.088122 1_555
Cs0 F8 3.088122 1_565
Cs0 F1 3.222951 1_555
Cs0 F1 3.222951 1_556
Cs0 F2 3.246942 1_455
Cs0 F11 3.246942 1_555
Cs0 F13 3.246942 1_455
Cs0 F9 3.246942 1_555
Cs1 F2 3.014822 1_555
Cs1 F13 3.014822 1_555
Cs1 F12 3.088122 1_555
Cs1 F8 3.088122 1_665
Cs1 F5 3.222951 1_556
Cs1 F5 3.222951 1_555
Cs1 F6 3.246942 1_565
Cs1 F7 3.246942 1_565
Cs1 F3 3.246942 1_555
Cs1 F10 3.246942 1_555
Cs2 F11 3.014822 1_555
Cs2 F9 3.014822 1_555
Cs2 F12 3.088122 1_555
Cs2 F8 3.088122 1_555
Cs2 F0 3.222951 1_556
Cs2 F0 3.222951 1_555
Cs2 F7 3.246942 1_555
Cs2 F3 3.246942 1_545
Cs2 F10 3.246942 1_545
Cs2 F6 3.246942 1_555
Cs3 F12 3.187573 1_554
Cs3 F12 3.187573 1_555
Cs3 F5 3.226989 1_555
Cs3 F0 3.226989 1_555
Cs3 F4 3.226989 1_555
Cs3 F1 3.226989 1_555
Cs4 F8 3.187573 1_554
Cs4 F8 3.187573 1_555
Cs4 F4 3.226989 1_455
Cs4 F0 3.226989 1_555
Cs4 F1 3.226989 1_545
Cs4 F5 3.226989 1_445
Cs5 F7 3.014822 1_555
Cs5 F6 3.014822 1_555
Cs5 F8 3.088122 1_655
Cs5 F12 3.088122 1_555
Cs5 F4 3.222951 1_556
Cs5 F4 3.222951 1_555
Cs5 F11 3.246942 1_655
Cs5 F9 3.246942 1_655
Cs5 F2 3.246942 1_555
Cs5 F13 3.246942 1_555
Cr0 F5 1.852876 1_545
Cr0 F0 1.852876 1_555
Cr0 F10 1.875867 1_544
Cr0 F6 1.875867 1_554
Cr0 F3 1.875867 1_545
Cr0 F7 1.875867 1_555
Cr1 F1 1.852876 1_555
Cr1 F4 1.852876 1_455
Cr1 F13 1.875867 1_454
Cr1 F2 1.875867 1_455
Cr1 F9 1.875867 1_554
Cr1 F11 1.875867 1_555
