# generated using pymatgen
data_Li3V2(PO4)3
_symmetry_space_group_name_H-M   'P 1'
_cell_length_a   8.74008400
_cell_length_b   8.75307800
_cell_length_c   14.97326145
_cell_angle_alpha   54.85579899
_cell_angle_beta   90.00000000
_cell_angle_gamma   90.00000000
_symmetry_Int_Tables_number   1
_chemical_formula_structural   Li3V2(PO4)3
_chemical_formula_sum   'Li12 V8 P12 O48'
_cell_volume   936.67717244
_cell_formula_units_Z   4
loop_
 _symmetry_equiv_pos_site_id
 _symmetry_equiv_pos_as_xyz
  1  'x, y, z'
loop_
 _atom_site_type_symbol
 _atom_site_label
 _atom_site_symmetry_multiplicity
 _atom_site_fract_x
 _atom_site_fract_y
 _atom_site_fract_z
 _atom_site_occupancy
  Li  Li0  1  0.58830700  0.88644200  0.19373500  1
  Li  Li1  1  0.08830700  0.11355800  0.30626500  1
  Li  Li2  1  0.41169300  0.11355800  0.80626500  1
  Li  Li3  1  0.91169300  0.88644200  0.69373500  1
  Li  Li4  1  0.19219200  0.81052000  0.25996400  1
  Li  Li5  1  0.69219200  0.18948000  0.24003600  1
  Li  Li6  1  0.80780800  0.18948000  0.74003600  1
  Li  Li7  1  0.30780800  0.81052000  0.75996400  1
  Li  Li8  1  0.22181500  0.52697500  0.17682000  1
  Li  Li9  1  0.72181500  0.47302500  0.32318000  1
  Li  Li10  1  0.77818500  0.47302500  0.82318000  1
  Li  Li11  1  0.27818500  0.52697500  0.67682000  1
  V  V0  1  0.52900600  0.86201800  0.38989600  1
  V  V1  1  0.02900600  0.13798200  0.11010400  1
  V  V2  1  0.47099400  0.13798200  0.61010400  1
  V  V3  1  0.97099400  0.86201800  0.88989600  1
  V  V4  1  0.53923100  0.63783200  0.11042900  1
  V  V5  1  0.03923100  0.36216800  0.38957100  1
  V  V6  1  0.46076900  0.36216800  0.88957100  1
  V  V7  1  0.96076900  0.63783200  0.61042900  1
  P  P0  1  0.25112000  0.95555500  0.00793100  1
  P  P1  1  0.75112000  0.04444500  0.49206900  1
  P  P2  1  0.74888000  0.04444500  0.99206900  1
  P  P3  1  0.24888000  0.95555500  0.50793100  1
  P  P4  1  0.39732600  0.54272500  0.35158900  1
  P  P5  1  0.89732600  0.45727500  0.14841100  1
  P  P6  1  0.60267400  0.45727500  0.64841100  1
  P  P7  1  0.10267400  0.54272500  0.85158900  1
  P  P8  1  0.38450800  0.24800000  0.14751600  1
  P  P9  1  0.88450800  0.75200000  0.35248400  1
  P  P10  1  0.61549200  0.75200000  0.85248400  1
  P  P11  1  0.11549200  0.24800000  0.64751600  1
  O  O0  1  0.17913600  0.97313200  0.09615600  1
  O  O1  1  0.67913600  0.02686800  0.40384400  1
  O  O2  1  0.82086400  0.02686800  0.90384400  1
  O  O3  1  0.32086400  0.97313200  0.59615600  1
  O  O4  1  0.36425600  0.96371300  0.42778600  1
  O  O5  1  0.86425600  0.03628700  0.07221400  1
  O  O6  1  0.63574400  0.03628700  0.57221400  1
  O  O7  1  0.13574400  0.96371300  0.92778600  1
  O  O8  1  0.00167000  0.91413700  0.28099700  1
  O  O9  1  0.50167000  0.08586300  0.21900300  1
  O  O10  1  0.99833000  0.08586300  0.71900300  1
  O  O11  1  0.49833000  0.91413700  0.78099700  1
  O  O12  1  0.63346900  0.88570100  0.06535800  1
  O  O13  1  0.13346900  0.11429900  0.43464200  1
  O  O14  1  0.36653100  0.11429900  0.93464200  1
  O  O15  1  0.86653100  0.88570100  0.56535800  1
  O  O16  1  0.71588800  0.82120100  0.31960300  1
  O  O17  1  0.21588800  0.17879900  0.18039700  1
  O  O18  1  0.28411200  0.17879900  0.68039700  1
  O  O19  1  0.78411200  0.82120100  0.81960300  1
  O  O20  1  0.33095800  0.76199100  0.06998800  1
  O  O21  1  0.83095800  0.23800900  0.43001200  1
  O  O22  1  0.66904200  0.23800900  0.93001200  1
  O  O23  1  0.16904200  0.76199100  0.56998800  1
  O  O24  1  0.38600000  0.72028700  0.35160800  1
  O  O25  1  0.88600000  0.27971300  0.14839200  1
  O  O26  1  0.61400000  0.27971300  0.64839200  1
  O  O27  1  0.11400000  0.72028700  0.85160800  1
  O  O28  1  0.55132500  0.63169700  0.54090900  1
  O  O29  1  0.05132500  0.36830300  0.95909100  1
  O  O30  1  0.44867500  0.36830300  0.45909100  1
  O  O31  1  0.94867500  0.63169700  0.04090900  1
  O  O32  1  0.23648600  0.52446000  0.31390500  1
  O  O33  1  0.73648600  0.47554000  0.18609500  1
  O  O34  1  0.76351400  0.47554000  0.68609500  1
  O  O35  1  0.26351400  0.52446000  0.81390500  1
  O  O36  1  0.01955500  0.40927600  0.23778900  1
  O  O37  1  0.51955500  0.59072400  0.26221100  1
  O  O38  1  0.98044500  0.59072400  0.76221100  1
  O  O39  1  0.48044500  0.40927600  0.73778900  1
  O  O40  1  0.40915300  0.40011300  0.16855500  1
  O  O41  1  0.90915300  0.59988700  0.33144500  1
  O  O42  1  0.59084700  0.59988700  0.83144500  1
  O  O43  1  0.09084700  0.40011300  0.66855500  1
  O  O44  1  0.41270800  0.32456200  0.02786300  1
  O  O45  1  0.91270800  0.67543800  0.47213700  1
  O  O46  1  0.58729200  0.67543800  0.97213700  1
  O  O47  1  0.08729200  0.32456200  0.52786300  1
loop_
_geom_bond_atom_site_label_1
_geom_bond_atom_site_label_2
_geom_bond_distance
_geom_bond_site_symmetry_2
Li0 O12 1.965995 1_555
Li0 O16 1.970369 1_555
Li0 O9 2.126917 1_565
Li0 O37 2.248766 1_555
Li1 O13 1.965995 1_555
Li1 O17 1.970369 1_555
Li1 O8 2.126917 1_545
Li1 O36 2.248766 1_555
Li2 O14 1.965995 1_555
Li2 O18 1.970369 1_555
Li2 O11 2.126917 1_545
Li2 O39 2.248766 1_555
Li3 O15 1.965995 1_555
Li3 O19 1.970369 1_555
Li3 O10 2.126917 1_565
Li3 O38 2.248766 1_555
Li4 O8 2.005850 1_555
Li4 O0 2.008896 1_555
Li4 O24 2.031826 1_555
Li4 O32 2.177955 1_555
Li5 O9 2.005850 1_555
Li5 O1 2.008896 1_555
Li5 O25 2.031826 1_555
Li5 O33 2.177955 1_555
Li6 O10 2.005850 1_555
Li6 O2 2.008896 1_555
Li6 O26 2.031826 1_555
Li6 O34 2.177955 1_555
Li7 O11 2.005850 1_555
Li7 O3 2.008896 1_555
Li7 O27 2.031826 1_555
Li7 O35 2.177955 1_555
Li8 O20 1.977900 1_555
Li8 O36 1.984188 1_555
Li8 O40 2.021757 1_555
Li8 O32 2.044043 1_555
Li9 O21 1.977900 1_555
Li9 O37 1.984188 1_555
Li9 O41 2.021757 1_555
Li9 O33 2.044043 1_555
Li10 O22 1.977900 1_555
Li10 O38 1.984188 1_555
Li10 O42 2.021757 1_555
Li10 O34 2.044043 1_555
Li11 O23 1.977900 1_555
Li11 O39 1.984188 1_555
Li11 O43 2.021757 1_555
Li11 O35 2.044043 1_555
O0 P0 1.548730 1_555
O0 V1 2.048019 1_565
O1 P1 1.548730 1_555
O1 V0 2.048019 1_545
O2 P2 1.548730 1_555
O2 V3 2.048019 1_545
O3 P3 1.548730 1_555
O3 V2 2.048019 1_565
O4 P3 1.537330 1_555
O4 V0 1.941399 1_555
O5 P2 1.537330 1_554
O5 V1 1.941399 1_655
O6 P1 1.537330 1_555
O6 V2 1.941399 1_555
O7 P0 1.537330 1_556
O7 V3 1.941399 1_455
O8 P9 1.568297 1_455
O8 V1 2.161399 1_565
O9 P8 1.568297 1_555
O9 V0 2.161399 1_545
O10 P11 1.568297 1_655
O10 V3 2.161399 1_545
O11 P10 1.568297 1_555
O11 V2 2.161399 1_565
O12 P2 1.548211 1_564
O12 V4 2.038477 1_555
O13 P3 1.548211 1_545
O13 V5 2.038477 1_555
O14 P0 1.548211 1_546
O14 V6 2.038477 1_555
O15 P1 1.548211 1_565
O15 V7 2.038477 1_555
O16 P9 1.561381 1_555
O16 V0 2.082363 1_555
O17 P8 1.561381 1_555
O17 V1 2.082363 1_555
O18 P11 1.561381 1_555
O18 V2 2.082363 1_555
O19 P10 1.561381 1_555
O19 V3 2.082363 1_555
O20 P0 1.551913 1_555
O20 V4 2.025759 1_555
O21 P1 1.551913 1_555
O21 V5 2.025759 1_655
O22 P2 1.551913 1_555
O22 V6 2.025759 1_555
O23 P3 1.551913 1_555
O23 V7 2.025759 1_455
O24 P4 1.557527 1_555
O24 V0 2.061246 1_555
O25 P5 1.557527 1_555
O25 V1 2.061246 1_655
O26 P6 1.557527 1_555
O26 V2 2.061246 1_555
O27 P7 1.557527 1_555
O27 V3 2.061246 1_455
O28 P6 1.514612 1_555
O28 V0 1.991757 1_555
O29 P7 1.514612 1_555
O29 V1 1.991757 1_556
O30 P4 1.514612 1_555
O30 V2 1.991757 1_555
O31 P5 1.514612 1_555
O31 V3 1.991757 1_554
O32 P4 1.556902 1_555
O32 V5 2.102605 1_555
O33 P5 1.556902 1_555
O33 V4 2.102605 1_555
O34 P6 1.556902 1_555
O34 V7 2.102605 1_555
O35 P7 1.556902 1_555
O35 V6 2.102605 1_555
O36 P5 1.568897 1_455
O36 V5 2.070208 1_555
O37 P4 1.568897 1_555
O37 V4 2.070208 1_555
O38 P7 1.568897 1_655
O38 V7 2.070208 1_555
O39 P6 1.568897 1_555
O39 V6 2.070208 1_555
O40 P8 1.549614 1_555
O40 V4 2.072367 1_555
O41 P9 1.549614 1_555
O41 V5 2.072367 1_655
O42 P10 1.549614 1_555
O42 V6 2.072367 1_555
O43 P11 1.549614 1_555
O43 V7 2.072367 1_455
O44 P8 1.528856 1_555
O44 V6 1.946231 1_554
O45 P9 1.528856 1_555
O45 V7 1.946231 1_555
O46 P10 1.528856 1_555
O46 V4 1.946231 1_556
O47 P11 1.528856 1_555
O47 V5 1.946231 1_555
