# generated using pymatgen
data_Na3MgAlSi7O18
_symmetry_space_group_name_H-M   'P 1'
_cell_length_a   14.31043917
_cell_length_b   14.31043917
_cell_length_c   5.31539212
_cell_angle_alpha   86.45888115
_cell_angle_beta   86.45888115
_cell_angle_gamma   35.18871852
_symmetry_Int_Tables_number   1
_chemical_formula_structural   Na3MgAlSi7O18
_chemical_formula_sum   'Na6 Mg2 Al2 Si14 O36'
_cell_volume   625.97168706
_cell_formula_units_Z   2
loop_
 _symmetry_equiv_pos_site_id
 _symmetry_equiv_pos_as_xyz
  1  'x, y, z'
loop_
 _atom_site_type_symbol
 _atom_site_label
 _atom_site_symmetry_multiplicity
 _atom_site_fract_x
 _atom_site_fract_y
 _atom_site_fract_z
 _atom_site_occupancy
  Na  Na0  1  0.03464600  0.63282600  0.33223100  1
  Na  Na1  1  0.36717400  0.96535400  0.66776900  1
  Na  Na2  1  0.69710000  0.30290000  0.00000000  1
  Na  Na3  1  0.29583900  0.70416100  0.50000000  1
  Na  Na4  1  0.63287300  0.03170000  0.83567100  1
  Na  Na5  1  0.96830000  0.36712700  0.16432900  1
  Mg  Mg0  1  0.23754300  0.42998600  0.83315500  1
  Mg  Mg1  1  0.57001400  0.76245700  0.16684500  1
  Al  Al0  1  0.09270200  0.90729800  0.00000000  1
  Al  Al1  1  0.90230800  0.09769200  0.50000000  1
  Si  Si0  1  0.14357300  0.32868700  0.54134700  1
  Si  Si1  1  0.00130200  0.19469900  0.78663600  1
  Si  Si2  1  0.47877200  0.66179200  0.87427800  1
  Si  Si3  1  0.33820800  0.52122800  0.12572200  1
  Si  Si4  1  0.80530100  0.99869800  0.21336400  1
  Si  Si5  1  0.33027700  0.14438800  0.05072500  1
  Si  Si6  1  0.42707300  0.23914300  0.33280300  1
  Si  Si7  1  0.67131300  0.85642800  0.45865300  1
  Si  Si8  1  0.18465400  0.00682200  0.28843600  1
  Si  Si9  1  0.66453600  0.47534900  0.38796900  1
  Si  Si10  1  0.76085700  0.57292700  0.66719700  1
  Si  Si11  1  0.52465100  0.33546400  0.61203100  1
  Si  Si12  1  0.99317800  0.81534600  0.71156400  1
  Si  Si13  1  0.85561200  0.66972300  0.94927500  1
  O  O0  1  0.10309700  0.13249300  0.52141200  1
  O  O1  1  0.23006600  0.36270000  0.50044900  1
  O  O2  1  0.44327900  0.45097200  0.85845100  1
  O  O3  1  0.28465100  0.80768500  0.86497800  1
  O  O4  1  0.14309500  0.62484800  0.68539900  1
  O  O5  1  0.56512100  0.69534200  0.82880700  1
  O  O6  1  0.20668500  0.23022100  0.81159800  1
  O  O7  1  0.03288100  0.89705400  0.69707900  1
  O  O8  1  0.76977900  0.79331500  0.18840200  1
  O  O9  1  0.30465800  0.43487900  0.17119300  1
  O  O10  1  0.12174400  0.11408800  0.02423000  1
  O  O11  1  0.19231500  0.71534900  0.13502200  1
  O  O12  1  0.61007400  0.14015000  0.19183300  1
  O  O13  1  0.04474100  0.52298300  0.98421400  1
  O  O14  1  0.47701700  0.95525900  0.01578600  1
  O  O15  1  0.88039500  0.04462900  0.19318800  1
  O  O16  1  0.54902800  0.55672100  0.14154900  1
  O  O17  1  0.38202400  0.21438700  0.05800700  1
  O  O18  1  0.63730000  0.76993400  0.49955100  1
  O  O19  1  0.46349800  0.44398700  0.35432200  1
  O  O20  1  0.10294600  0.96711900  0.30292100  1
  O  O21  1  0.52695100  0.05319900  0.47392600  1
  O  O22  1  0.94680100  0.47304900  0.52607400  1
  O  O23  1  0.37515200  0.85690500  0.31460100  1
  O  O24  1  0.80806900  0.28307100  0.36154400  1
  O  O25  1  0.86750700  0.89690300  0.47858800  1
  O  O26  1  0.71922400  0.54267300  0.39179600  1
  O  O27  1  0.22201100  0.20496700  0.31080900  1
  O  O28  1  0.95537100  0.11960500  0.80681200  1
  O  O29  1  0.79503300  0.77798900  0.68919100  1
  O  O30  1  0.45732700  0.28077600  0.60820400  1
  O  O31  1  0.85985000  0.38992600  0.80816700  1
  O  O32  1  0.71692900  0.19193100  0.63845600  1
  O  O33  1  0.55601300  0.53650200  0.64567800  1
  O  O34  1  0.78561300  0.61797600  0.94199300  1
  O  O35  1  0.88591200  0.87825600  0.97577000  1
loop_
_geom_bond_atom_site_label_1
_geom_bond_atom_site_label_2
_geom_bond_distance
_geom_bond_site_symmetry_2
Na0 O9 2.384872 1_555
Na0 O1 2.403196 1_555
Na0 O13 2.422538 1_554
Na0 O25 2.442634 1_455
Na0 O4 2.447319 1_555
Na0 O8 2.477553 1_455
Na0 O29 2.777325 1_455
Na0 O35 2.813026 1_454
Na1 O5 2.384872 1_555
Na1 O18 2.403196 1_555
Na1 O14 2.422538 1_556
Na1 O0 2.442634 1_565
Na1 O23 2.447319 1_555
Na1 O6 2.477553 1_565
Na1 O27 2.777325 1_565
Na1 O10 2.813026 1_566
Na2 O28 2.369133 1_554
Na2 O15 2.369133 1_555
Na2 O16 2.410371 1_555
Na2 O2 2.410371 1_554
Na2 O24 2.422500 1_555
Na2 O32 2.422500 1_554
Na2 O19 2.731051 1_555
Na2 O33 2.731051 1_554
Na3 O33 2.396640 1_555
Na3 O19 2.396640 1_555
Na3 O20 2.401954 1_555
Na3 O7 2.401954 1_555
Na3 O3 2.431660 1_555
Na3 O11 2.431660 1_555
Na3 O16 2.891053 1_555
Na3 O2 2.891053 1_555
Na4 O29 2.351172 1_545
Na4 O12 2.357549 1_556
Na4 O21 2.369431 1_555
Na4 O35 2.371306 1_545
Na4 O17 2.373966 1_556
Na4 O30 2.384230 1_555
Na4 O25 2.770565 1_545
Na4 O8 2.780388 1_546
Na5 O27 2.351172 1_655
Na5 O31 2.357549 1_554
Na5 O22 2.369431 1_555
Na5 O10 2.371306 1_655
Na5 O34 2.373966 1_554
Na5 O26 2.384230 1_555
Na5 O0 2.770565 1_655
Na5 O6 2.780388 1_654
Mg0 O13 1.971030 1_555
Mg0 O4 1.979847 1_555
Mg0 O1 2.113812 1_555
Mg0 O9 2.120026 1_556
Mg0 O17 2.155328 1_556
Mg0 O30 2.180607 1_555
Mg1 O14 1.971030 1_555
Mg1 O23 1.979847 1_555
Mg1 O18 2.113812 1_555
Mg1 O5 2.120026 1_554
Mg1 O34 2.155328 1_554
Mg1 O26 2.180607 1_555
Al0 O3 1.890786 1_554
Al0 O11 1.890786 1_555
Al0 O20 1.936867 1_555
Al0 O7 1.936867 1_554
Al0 O28 2.061994 1_464
Al0 O15 2.061994 1_465
Al1 O32 1.852483 1_555
Al1 O24 1.852483 1_555
Al1 O20 1.983375 1_645
Al1 O7 1.983375 1_645
Al1 O15 1.984921 1_555
Al1 O28 1.984921 1_555
O0 Si1 1.638201 1_555
O0 Si8 1.672053 1_555
O1 Si0 1.659710 1_555
O1 Si6 1.898702 1_555
O2 Si3 1.652738 1_556
O2 Si11 1.654326 1_555
O3 Si2 1.613293 1_555
O4 Si12 1.582438 1_455
O5 Si2 1.653588 1_555
O5 Si10 1.876411 1_555
O6 Si0 1.641591 1_555
O6 Si5 1.669249 1_556
O7 Si12 1.662922 1_455
O8 Si7 1.641589 1_555
O8 Si13 1.669249 1_554
O9 Si3 1.653588 1_555
O9 Si6 1.876411 1_555
O10 Si1 1.653915 1_554
O10 Si8 1.664359 1_555
O11 Si3 1.613293 1_555
O12 Si4 1.638014 1_545
O12 Si6 1.803154 1_555
O13 Si13 1.579109 1_455
O14 Si5 1.579109 1_565
O15 Si4 1.652256 1_545
O16 Si2 1.652738 1_554
O16 Si9 1.654326 1_555
O17 Si5 1.665566 1_555
O17 Si6 1.796704 1_555
O18 Si7 1.659724 1_555
O18 Si10 1.898702 1_555
O19 Si11 1.648624 1_555
O19 Si3 1.666374 1_555
O20 Si8 1.662922 1_565
O21 Si7 1.643996 1_545
O21 Si6 1.831812 1_555
O22 Si0 1.644006 1_655
O22 Si10 1.831812 1_555
O23 Si8 1.582438 1_565
O24 Si9 1.607503 1_555
O25 Si4 1.638201 1_555
O25 Si12 1.672053 1_555
O26 Si9 1.666704 1_555
O26 Si10 1.814648 1_555
O27 Si0 1.657090 1_555
O27 Si5 1.658679 1_555
O28 Si1 1.652256 1_655
O29 Si7 1.657086 1_555
O29 Si13 1.658679 1_555
O30 Si11 1.666704 1_555
O30 Si6 1.814648 1_555
O31 Si1 1.638014 1_655
O31 Si10 1.803154 1_555
O32 Si11 1.607503 1_555
O33 Si9 1.648624 1_555
O33 Si2 1.666374 1_555
O34 Si13 1.665566 1_555
O34 Si10 1.796704 1_555
O35 Si4 1.653915 1_556
O35 Si12 1.664359 1_555
