# generated using pymatgen
data_KEu(CuTe2)2
_symmetry_space_group_name_H-M   'P 1'
_cell_length_a   4.43858400
_cell_length_b   4.43858400
_cell_length_c   11.37016900
_cell_angle_alpha   90.00000000
_cell_angle_beta   90.00000000
_cell_angle_gamma   90.00000000
_symmetry_Int_Tables_number   1
_chemical_formula_structural   KEu(CuTe2)2
_chemical_formula_sum   'K1 Eu1 Cu2 Te4'
_cell_volume   224.00401698
_cell_formula_units_Z   1
loop_
 _symmetry_equiv_pos_site_id
 _symmetry_equiv_pos_as_xyz
  1  'x, y, z'
loop_
 _atom_site_type_symbol
 _atom_site_label
 _atom_site_symmetry_multiplicity
 _atom_site_fract_x
 _atom_site_fract_y
 _atom_site_fract_z
 _atom_site_occupancy
  K  K0  1  0.50000000  0.50000000  0.50693800  1
  Eu  Eu0  1  0.00000000  0.00000000  0.99585700  1
  Cu  Cu0  1  0.00000000  0.50000000  0.23815500  1
  Cu  Cu1  1  0.50000000  0.00000000  0.23815500  1
  Te  Te0  1  0.00000000  0.00000000  0.36566200  1
  Te  Te1  1  0.00000000  0.50000000  0.76999900  1
  Te  Te2  1  0.50000000  0.50000000  0.09243500  1
  Te  Te3  1  0.50000000  0.00000000  0.76999900  1
loop_
_geom_bond_atom_site_label_1
_geom_bond_atom_site_label_2
_geom_bond_distance
_geom_bond_site_symmetry_2
K0 Te0 3.525736 1_655
K0 Te0 3.525736 1_565
K0 Te0 3.525736 1_665
K0 Te0 3.525736 1_555
K0 Te1 3.724463 1_555
K0 Te3 3.724463 1_565
K0 Te1 3.724463 1_655
K0 Te3 3.724463 1_555
Eu0 Te2 3.325110 1_446
Eu0 Te2 3.325110 1_556
Eu0 Te2 3.325110 1_456
Eu0 Te2 3.325110 1_546
Eu0 Te3 3.394128 1_455
Eu0 Te1 3.394128 1_555
Eu0 Te1 3.394128 1_545
Eu0 Te3 3.394128 1_555
Cu0 Te0 2.650869 1_555
Cu0 Te0 2.650869 1_565
Cu0 Te2 2.769557 1_455
Cu0 Te2 2.769557 1_555
Cu0 Eu0 3.537670 1_564
Cu0 Eu0 3.537670 1_554
Cu0 K0 3.776911 1_555
Cu0 K0 3.776911 1_455
Cu1 Te0 2.650869 1_555
Cu1 Te0 2.650869 1_655
Cu1 Te2 2.769557 1_555
Cu1 Te2 2.769557 1_545
Cu1 Eu0 3.537670 1_654
Cu1 Eu0 3.537670 1_554
Cu1 K0 3.776911 1_555
Cu1 K0 3.776911 1_545
Te1 Te3 3.138553 1_455
Te1 Te3 3.138553 1_555
Te1 Te3 3.138553 1_465
Te1 Te3 3.138553 1_565
