# generated using pymatgen
data_K6Ba3Ta12(Si2O13)4
_symmetry_space_group_name_H-M   'P 1'
_cell_length_a   7.87271200
_cell_length_b   9.17386900
_cell_length_c   15.88216800
_cell_angle_alpha   90.00000000
_cell_angle_beta   90.00000000
_cell_angle_gamma   90.00000000
_symmetry_Int_Tables_number   1
_chemical_formula_structural   K6Ba3Ta12(Si2O13)4
_chemical_formula_sum   'K6 Ba3 Ta12 Si8 O52'
_cell_volume   1147.06144954
_cell_formula_units_Z   1
loop_
 _symmetry_equiv_pos_site_id
 _symmetry_equiv_pos_as_xyz
  1  'x, y, z'
loop_
 _atom_site_type_symbol
 _atom_site_label
 _atom_site_symmetry_multiplicity
 _atom_site_fract_x
 _atom_site_fract_y
 _atom_site_fract_z
 _atom_site_occupancy
  K  K0  1  0.50000000  0.90537300  0.50000000  1
  K  K1  1  0.00000000  0.88694900  0.50000000  1
  K  K2  1  0.00000000  0.80333000  0.19554800  1
  K  K3  1  0.00000000  0.80333000  0.80445200  1
  K  K4  1  0.50000000  0.79723900  0.20286800  1
  K  K5  1  0.50000000  0.79723900  0.79713200  1
  Ba  Ba0  1  0.50000000  0.30168600  0.69877600  1
  Ba  Ba1  1  0.50000000  0.30168600  0.30122400  1
  Ba  Ba2  1  0.50000000  0.39790100  0.00000000  1
  Ta  Ta0  1  0.75003500  0.75927000  0.00000000  1
  Ta  Ta1  1  0.24625300  0.26471500  0.50000000  1
  Ta  Ta2  1  0.75374700  0.26471500  0.50000000  1
  Ta  Ta3  1  0.24786300  0.11708700  0.88179900  1
  Ta  Ta4  1  0.75213700  0.11708700  0.88179900  1
  Ta  Ta5  1  0.24786300  0.11708700  0.11820100  1
  Ta  Ta6  1  0.24996500  0.75927000  0.00000000  1
  Ta  Ta7  1  0.24862800  0.62050400  0.38032600  1
  Ta  Ta8  1  0.75137200  0.62050400  0.61967400  1
  Ta  Ta9  1  0.75137200  0.62050400  0.38032600  1
  Ta  Ta10  1  0.24862800  0.62050400  0.61967400  1
  Ta  Ta11  1  0.75213700  0.11708700  0.11820100  1
  Si  Si0  1  0.79407300  0.49586800  0.83378500  1
  Si  Si1  1  0.20592700  0.49586800  0.83378500  1
  Si  Si2  1  0.79182000  0.00440600  0.66704900  1
  Si  Si3  1  0.79182000  0.00440600  0.33295100  1
  Si  Si4  1  0.20818000  0.00440600  0.66704900  1
  Si  Si5  1  0.20818000  0.00440600  0.33295100  1
  Si  Si6  1  0.79407300  0.49586800  0.16621500  1
  Si  Si7  1  0.20592700  0.49586800  0.16621500  1
  O  O0  1  0.76151500  0.91070000  0.91204000  1
  O  O1  1  0.27451600  0.60211800  0.90923500  1
  O  O2  1  0.72548400  0.60211800  0.90923500  1
  O  O3  1  0.72626400  0.55848600  0.74361500  1
  O  O4  1  0.27373600  0.55848600  0.74361500  1
  O  O5  1  0.00000000  0.49833400  0.83423900  1
  O  O6  1  0.23926300  0.41368400  0.58782000  1
  O  O7  1  0.76073700  0.41368400  0.58782000  1
  O  O8  1  0.76073700  0.41368400  0.41218000  1
  O  O9  1  0.28313500  0.33335000  0.84839900  1
  O  O10  1  0.71686500  0.33335000  0.84839900  1
  O  O11  1  0.50000000  0.27039900  0.50000000  1
  O  O12  1  0.00000000  0.22717400  0.50000000  1
  O  O13  1  0.76121800  0.17660400  0.00000000  1
  O  O14  1  0.00000000  0.12787900  0.86543000  1
  O  O15  1  0.00000000  0.12787900  0.13457000  1
  O  O16  1  0.50000000  0.11864000  0.88573300  1
  O  O17  1  0.50000000  0.11864000  0.11426700  1
  O  O18  1  0.27862600  0.10706800  0.59146900  1
  O  O19  1  0.27862600  0.10706800  0.40853100  1
  O  O20  1  0.72137400  0.10706800  0.59146900  1
  O  O21  1  0.72137400  0.10706800  0.40853100  1
  O  O22  1  0.27893600  0.06431100  0.75691100  1
  O  O23  1  0.72106400  0.06431100  0.75691100  1
  O  O24  1  0.72106400  0.06431100  0.24308900  1
  O  O25  1  0.27893600  0.06431100  0.24308900  1
  O  O26  1  0.00000000  0.00298500  0.66734500  1
  O  O27  1  0.00000000  0.00298500  0.33265500  1
  O  O28  1  0.23848500  0.91070000  0.91204000  1
  O  O29  1  0.23848500  0.91070000  0.08796000  1
  O  O30  1  0.76151500  0.91070000  0.08796000  1
  O  O31  1  0.26896000  0.83589200  0.65295000  1
  O  O32  1  0.73104000  0.83589200  0.65295000  1
  O  O33  1  0.26896000  0.83589200  0.34705000  1
  O  O34  1  0.73104000  0.83589200  0.34705000  1
  O  O35  1  0.50000000  0.76266600  0.00000000  1
  O  O36  1  0.00000000  0.73552900  0.00000000  1
  O  O37  1  0.23868100  0.67516200  0.50000000  1
  O  O38  1  0.76131900  0.67516200  0.50000000  1
  O  O39  1  0.00000000  0.63959500  0.63379600  1
  O  O40  1  0.00000000  0.63959500  0.36620400  1
  O  O41  1  0.50000000  0.61461500  0.61909900  1
  O  O42  1  0.50000000  0.61461500  0.38090100  1
  O  O43  1  0.27451600  0.60211800  0.09076500  1
  O  O44  1  0.72548400  0.60211800  0.09076500  1
  O  O45  1  0.27373600  0.55848600  0.25638500  1
  O  O46  1  0.72626400  0.55848600  0.25638500  1
  O  O47  1  0.00000000  0.49833400  0.16576100  1
  O  O48  1  0.23926300  0.41368400  0.41218000  1
  O  O49  1  0.28313500  0.33335000  0.15160100  1
  O  O50  1  0.71686500  0.33335000  0.15160100  1
  O  O51  1  0.23878200  0.17660400  0.00000000  1
loop_
_geom_bond_atom_site_label_1
_geom_bond_atom_site_label_2
_geom_bond_distance
_geom_bond_site_symmetry_2
K0 O20 2.927714 1_565
K0 O21 2.927714 1_565
K0 O18 2.927714 1_565
K0 O19 2.927714 1_565
K0 O38 2.948333 1_555
K0 O37 2.948333 1_555
K0 O33 3.100908 1_555
K0 O34 3.100908 1_555
K0 O32 3.100908 1_555
K0 O31 3.100908 1_555
K1 O37 2.702920 1_555
K1 O38 2.702920 1_455
K1 O26 2.863052 1_565
K1 O27 2.863052 1_565
K1 O39 3.108816 1_555
K1 O40 3.108816 1_555
K1 O12 3.121180 1_565
K1 O33 3.256358 1_555
K1 O34 3.256358 1_455
K1 O32 3.256358 1_455
K1 O31 3.256358 1_555
K1 O19 3.316593 1_565
K1 O18 3.316593 1_565
K1 O20 3.316593 1_465
K1 O21 3.316593 1_465
K2 O30 2.723064 1_455
K2 O29 2.723064 1_555
K2 O47 2.837706 1_555
K2 O27 2.845442 1_565
K3 O0 2.723064 1_455
K3 O28 2.723064 1_555
K3 O5 2.837706 1_555
K3 O26 2.845442 1_565
K4 O29 2.941563 1_555
K4 O30 2.941563 1_555
K4 O33 2.945832 1_555
K4 O34 2.945832 1_555
K4 O45 2.948369 1_555
K4 O46 2.948369 1_555
K4 O24 3.072437 1_565
K4 O25 3.072437 1_565
K4 O44 3.086316 1_555
K4 O43 3.086316 1_555
K4 O35 3.237557 1_555
K4 O17 3.267069 1_565
K4 O42 3.286624 1_555
K5 O28 2.941563 1_555
K5 O0 2.941563 1_555
K5 O32 2.945832 1_555
K5 O31 2.945832 1_555
K5 O3 2.948369 1_555
K5 O4 2.948369 1_555
K5 O22 3.072437 1_565
K5 O23 3.072437 1_565
K5 O1 3.086316 1_555
K5 O2 3.086316 1_555
K5 O35 3.237557 1_556
K5 O16 3.267069 1_565
K5 O41 3.286624 1_555
Ba0 O6 2.893907 1_555
Ba0 O7 2.893907 1_555
Ba0 O23 2.936588 1_555
Ba0 O22 2.936588 1_555
Ba0 O10 2.940457 1_555
Ba0 O9 2.940457 1_555
Ba0 O20 3.021520 1_555
Ba0 O18 3.021520 1_555
Ba0 O3 3.038131 1_555
Ba0 O4 3.038131 1_555
Ba0 O41 3.137302 1_555
Ba0 O11 3.170015 1_555
Ba1 O8 2.893907 1_555
Ba1 O48 2.893907 1_555
Ba1 O25 2.936588 1_555
Ba1 O24 2.936588 1_555
Ba1 O49 2.940457 1_555
Ba1 O50 2.940457 1_555
Ba1 O21 3.021520 1_555
Ba1 O19 3.021520 1_555
Ba1 O46 3.038131 1_555
Ba1 O45 3.038131 1_555
Ba1 O42 3.137302 1_555
Ba1 O11 3.170015 1_555
Ba2 O13 2.889754 1_555
Ba2 O51 2.889754 1_555
Ba2 O2 2.956203 1_554
Ba2 O43 2.956203 1_555
Ba2 O44 2.956203 1_555
Ba2 O1 2.956203 1_554
Ba2 O10 3.010462 1_554
Ba2 O49 3.010462 1_555
Ba2 O50 3.010462 1_555
Ba2 O9 3.010462 1_554
Ba2 O17 3.139567 1_555
Ba2 O16 3.139567 1_554
Ba2 O35 3.346306 1_555
O0 Ta4 1.954731 1_565
O0 Ta0 1.972217 1_556
O1 Si1 1.636341 1_555
O1 Ta6 2.047898 1_556
O2 Si0 1.636341 1_555
O2 Ta0 2.047898 1_556
O3 Si0 1.632751 1_555
O3 Ta8 2.058537 1_555
O4 Si1 1.632751 1_555
O4 Ta10 2.058537 1_555
O5 Si0 1.621378 1_455
O5 Si1 1.621378 1_555
O6 Ta1 1.953477 1_555
O6 Ta10 1.965014 1_555
O7 Ta2 1.953477 1_555
O7 Ta8 1.965014 1_555
O8 Ta2 1.953477 1_555
O8 Ta9 1.965014 1_555
O9 Si1 1.626707 1_555
O9 Ta3 2.072350 1_555
O10 Si0 1.626707 1_555
O10 Ta4 2.072350 1_555
O11 Ta2 1.998357 1_555
O11 Ta1 1.998357 1_555
O12 Ta1 1.969031 1_555
O12 Ta2 1.969031 1_455
O13 Ta4 1.956384 1_554
O13 Ta11 1.956384 1_555
O14 Ta3 1.971084 1_555
O14 Ta4 1.971084 1_455
O15 Ta5 1.971084 1_555
O15 Ta11 1.971084 1_455
O16 Ta4 1.986036 1_555
O16 Ta3 1.986036 1_555
O17 Ta11 1.986036 1_555
O17 Ta5 1.986036 1_555
O18 Si4 1.623417 1_555
O18 Ta1 2.065662 1_555
O19 Si5 1.623417 1_555
O19 Ta1 2.065662 1_555
O20 Si2 1.623417 1_555
O20 Ta2 2.065662 1_555
O21 Si3 1.623417 1_555
O21 Ta2 2.065662 1_555
O22 Si4 1.627643 1_555
O22 Ta3 2.056331 1_555
O23 Si2 1.627643 1_555
O23 Ta4 2.056331 1_555
O24 Si3 1.627643 1_555
O24 Ta11 2.056331 1_555
O25 Si5 1.627643 1_555
O25 Ta5 2.056331 1_555
O26 Si4 1.639000 1_555
O26 Si2 1.639000 1_455
O27 Si5 1.639000 1_555
O27 Si3 1.639000 1_455
O28 Ta3 1.954731 1_565
O28 Ta6 1.972217 1_556
O29 Ta5 1.954731 1_565
O29 Ta6 1.972217 1_555
O30 Ta11 1.954731 1_565
O30 Ta0 1.972217 1_555
O31 Si4 1.633705 1_565
O31 Ta10 2.051651 1_555
O32 Si2 1.633705 1_565
O32 Ta8 2.051651 1_555
O33 Si5 1.633705 1_565
O33 Ta7 2.051651 1_555
O34 Si3 1.633705 1_565
O34 Ta9 2.051651 1_555
O35 Ta0 1.968700 1_555
O35 Ta6 1.968700 1_555
O36 Ta0 1.979918 1_455
O36 Ta6 1.979918 1_555
O37 Ta10 1.967271 1_555
O37 Ta7 1.967271 1_555
O38 Ta8 1.967271 1_555
O38 Ta9 1.967271 1_555
O39 Ta8 1.977954 1_455
O39 Ta10 1.977954 1_555
O40 Ta9 1.977954 1_455
O40 Ta7 1.977954 1_555
O41 Ta8 1.979738 1_555
O41 Ta10 1.979738 1_555
O42 Ta9 1.979738 1_555
O42 Ta7 1.979738 1_555
O43 Si7 1.636341 1_555
O43 Ta6 2.047898 1_555
O44 Si6 1.636341 1_555
O44 Ta0 2.047898 1_555
O45 Si7 1.632751 1_555
O45 Ta7 2.058537 1_555
O46 Si6 1.632751 1_555
O46 Ta9 2.058537 1_555
O47 Si6 1.621378 1_455
O47 Si7 1.621378 1_555
O48 Ta1 1.953477 1_555
O48 Ta7 1.965014 1_555
O49 Si7 1.626707 1_555
O49 Ta5 2.072350 1_555
O50 Si6 1.626707 1_555
O50 Ta11 2.072350 1_555
O51 Ta3 1.956384 1_554
O51 Ta5 1.956384 1_555
