# generated using pymatgen
data_Fe(SbO2)2
_symmetry_space_group_name_H-M   'P 1'
_cell_length_a   5.76789100
_cell_length_b   8.27848900
_cell_length_c   8.27848900
_cell_angle_alpha   90.00000000
_cell_angle_beta   90.00000000
_cell_angle_gamma   90.00000000
_symmetry_Int_Tables_number   1
_chemical_formula_structural   Fe(SbO2)2
_chemical_formula_sum   'Fe4 Sb8 O16'
_cell_volume   395.29306641
_cell_formula_units_Z   4
loop_
 _symmetry_equiv_pos_site_id
 _symmetry_equiv_pos_as_xyz
  1  'x, y, z'
loop_
 _atom_site_type_symbol
 _atom_site_label
 _atom_site_symmetry_multiplicity
 _atom_site_fract_x
 _atom_site_fract_y
 _atom_site_fract_z
 _atom_site_occupancy
  Fe  Fe0  1  0.73384200  0.00000000  0.50000000  1
  Fe  Fe1  1  0.76615800  0.50000000  0.00000000  1
  Fe  Fe2  1  0.26615800  0.00000000  0.50000000  1
  Fe  Fe3  1  0.23384200  0.50000000  0.00000000  1
  Sb  Sb0  1  0.00000000  0.59028000  0.31153000  1
  Sb  Sb1  1  0.00000000  0.94546400  0.17122200  1
  Sb  Sb2  1  0.50000000  0.17122200  0.05453600  1
  Sb  Sb3  1  0.00000000  0.05453600  0.82877800  1
  Sb  Sb4  1  0.50000000  0.31153000  0.40972000  1
  Sb  Sb5  1  0.50000000  0.68847000  0.59028000  1
  Sb  Sb6  1  0.00000000  0.40972000  0.68847000  1
  Sb  Sb7  1  0.50000000  0.82877800  0.94546400  1
  O  O0  1  0.50000000  0.40547100  0.12494100  1
  O  O1  1  0.00000000  0.58732800  0.86546500  1
  O  O2  1  0.00000000  0.87505900  0.40547100  1
  O  O3  1  0.73247300  0.85487400  0.69614400  1
  O  O4  1  0.26752700  0.85487400  0.69614400  1
  O  O5  1  0.00000000  0.41267200  0.13453500  1
  O  O6  1  0.50000000  0.86546500  0.41267200  1
  O  O7  1  0.26752700  0.14512600  0.30385600  1
  O  O8  1  0.73247300  0.14512600  0.30385600  1
  O  O9  1  0.23247300  0.30385600  0.85487400  1
  O  O10  1  0.50000000  0.59452900  0.87505900  1
  O  O11  1  0.23247300  0.69614400  0.14512600  1
  O  O12  1  0.76752700  0.30385600  0.85487400  1
  O  O13  1  0.50000000  0.13453500  0.58732800  1
  O  O14  1  0.00000000  0.12494100  0.59452900  1
  O  O15  1  0.76752700  0.69614400  0.14512600  1
loop_
_geom_bond_atom_site_label_1
_geom_bond_atom_site_label_2
_geom_bond_distance
_geom_bond_site_symmetry_2
Fe0 O13 1.892690 1_555
Fe0 O6 1.892690 1_545
Fe0 O14 2.009718 1_655
Fe0 O2 2.009718 1_645
Fe0 O3 2.019933 1_545
Fe0 O8 2.019933 1_555
Fe1 O5 1.892690 1_655
Fe1 O1 1.892690 1_654
Fe1 O0 2.009718 1_555
Fe1 O10 2.009718 1_554
Fe1 O15 2.019933 1_555
Fe1 O12 2.019933 1_554
Fe2 O13 1.892690 1_555
Fe2 O6 1.892690 1_545
Fe2 O14 2.009718 1_555
Fe2 O2 2.009718 1_545
Fe2 O4 2.019933 1_545
Fe2 O7 2.019933 1_555
Fe3 O5 1.892690 1_555
Fe3 O1 1.892690 1_554
Fe3 O0 2.009718 1_555
Fe3 O10 2.009718 1_554
Fe3 O11 2.019933 1_555
Fe3 O9 2.019933 1_554
O0 Sb2 2.024923 1_555
O0 Sb4 2.482498 1_555
O1 Sb6 2.075770 1_555
O2 Sb1 2.024923 1_555
O2 Sb0 2.482498 1_555
O3 Sb5 2.112755 1_555
O3 Sb7 2.470768 1_555
O3 Sb3 2.513714 1_665
O4 Sb5 2.112755 1_555
O4 Sb7 2.470768 1_555
O4 Sb3 2.513714 1_565
O5 Sb0 2.075770 1_555
O6 Sb5 2.075770 1_555
O7 Sb4 2.112755 1_555
O7 Sb2 2.470768 1_555
O7 Sb1 2.513714 1_545
O8 Sb4 2.112755 1_555
O8 Sb2 2.470768 1_555
O8 Sb1 2.513714 1_645
O9 Sb6 2.112755 1_555
O9 Sb3 2.470768 1_555
O9 Sb2 2.513714 1_556
O10 Sb7 2.024923 1_555
O10 Sb5 2.482498 1_555
O11 Sb0 2.112755 1_555
O11 Sb1 2.470768 1_555
O11 Sb7 2.513714 1_554
O12 Sb6 2.112755 1_655
O12 Sb3 2.470768 1_655
O12 Sb2 2.513714 1_556
O13 Sb4 2.075770 1_555
O14 Sb3 2.024923 1_555
O14 Sb6 2.482498 1_555
O15 Sb0 2.112755 1_655
O15 Sb1 2.470768 1_655
O15 Sb7 2.513714 1_554
