# generated using pymatgen
data_BaRe2Sn
_symmetry_space_group_name_H-M   'P 1'
_cell_length_a   4.97237913
_cell_length_b   4.97237913
_cell_length_c   4.97237913
_cell_angle_alpha   60.00000000
_cell_angle_beta   60.00000000
_cell_angle_gamma   60.00000000
_symmetry_Int_Tables_number   1
_chemical_formula_structural   BaRe2Sn
_chemical_formula_sum   'Ba1 Re2 Sn1'
_cell_volume   86.93160671
_cell_formula_units_Z   1
loop_
 _symmetry_equiv_pos_site_id
 _symmetry_equiv_pos_as_xyz
  1  'x, y, z'
loop_
 _atom_site_type_symbol
 _atom_site_label
 _atom_site_symmetry_multiplicity
 _atom_site_fract_x
 _atom_site_fract_y
 _atom_site_fract_z
 _atom_site_occupancy
  Ba  Ba0  1  0.25000000  0.25000000  0.25000000  1
  Re  Re0  1  0.75000000  0.75000000  0.75000000  1
  Re  Re1  1  0.00000000  0.00000000  0.00000000  1
  Sn  Sn0  1  0.50000000  0.50000000  0.50000000  1
loop_
_geom_bond_atom_site_label_1
_geom_bond_atom_site_label_2
_geom_bond_distance
_geom_bond_site_symmetry_2
Ba0 Re1 3.044948 1_556
Ba0 Re1 3.044948 1_565
Ba0 Re1 3.044948 1_655
Ba0 Sn0 3.044948 1_545
Ba0 Sn0 3.044948 1_555
Ba0 Re1 3.044948 1_555
Ba0 Sn0 3.044948 1_455
Ba0 Sn0 3.044948 1_554
Ba0 Re0 3.516003 1_455
Ba0 Re0 3.516003 1_554
Ba0 Re0 3.516003 1_454
Ba0 Re0 3.516003 1_544
Ba0 Re0 3.516003 1_445
Ba0 Re0 3.516003 1_545
Re0 Sn0 3.044948 1_565
Re0 Sn0 3.044948 1_555
Re0 Re1 3.044948 1_566
Re0 Re1 3.044948 1_665
Re0 Re1 3.044948 1_656
Re0 Re1 3.044948 1_666
Re0 Sn0 3.044948 1_655
Re0 Sn0 3.044948 1_556
