# generated using pymatgen
data_Ta2As
_symmetry_space_group_name_H-M   'P 1'
_cell_length_a   3.47777913
_cell_length_b   11.90048495
_cell_length_c   14.81407225
_cell_angle_alpha   90.00000000
_cell_angle_beta   90.00000000
_cell_angle_gamma   90.00000000
_symmetry_Int_Tables_number   1
_chemical_formula_structural   Ta2As
_chemical_formula_sum   'Ta24 As12'
_cell_volume   613.11383314
_cell_formula_units_Z   12
loop_
 _symmetry_equiv_pos_site_id
 _symmetry_equiv_pos_as_xyz
  1  'x, y, z'
loop_
 _atom_site_type_symbol
 _atom_site_label
 _atom_site_symmetry_multiplicity
 _atom_site_fract_x
 _atom_site_fract_y
 _atom_site_fract_z
 _atom_site_occupancy
  Ta  Ta0  1  0.00000000  0.19249737  0.29705349  1
  Ta  Ta1  1  0.00000000  0.52702793  0.10977542  1
  Ta  Ta2  1  0.50000000  0.91263383  0.07904210  1
  Ta  Ta3  1  0.00000000  0.88598407  0.92784972  1
  Ta  Ta4  1  -0.00000000  0.85918211  0.47704483  1
  Ta  Ta5  1  0.50000000  0.69249737  0.20294651  1
  Ta  Ta6  1  0.50000000  0.38598407  0.57215028  1
  Ta  Ta7  1  -0.00000000  0.58736617  0.57904210  1
  Ta  Ta8  1  0.50000000  0.61401593  0.42784972  1
  Ta  Ta9  1  -0.00000000  0.08247373  0.75662401  1
  Ta  Ta10  1  0.50000000  0.64081789  0.97704483  1
  Ta  Ta11  1  0.00000000  0.14081789  0.52295517  1
  Ta  Ta12  1  0.00000000  0.41263383  0.42095790  1
  Ta  Ta13  1  0.50000000  0.41752627  0.25662401  1
  Ta  Ta14  1  0.50000000  0.58247373  0.74337599  1
  Ta  Ta15  1  0.50000000  0.97297207  0.60977542  1
  Ta  Ta16  1  0.50000000  0.35918211  0.02295517  1
  Ta  Ta17  1  -0.00000000  0.11401593  0.07215028  1
  Ta  Ta18  1  0.50000000  0.08736617  0.92095790  1
  Ta  Ta19  1  0.00000000  0.47297207  0.89022458  1
  Ta  Ta20  1  -0.00000000  0.80750263  0.70294651  1
  Ta  Ta21  1  0.50000000  0.30750263  0.79705349  1
  Ta  Ta22  1  -0.00000000  0.91752627  0.24337599  1
  Ta  Ta23  1  0.50000000  0.02702793  0.39022458  1
  As  As0  1  -0.00000000  0.42320395  0.70392679  1
  As  As1  1  0.00000000  0.24793541  0.91872153  1
  As  As2  1  0.00000000  0.31055876  0.15092009  1
  As  As3  1  0.50000000  0.74793541  0.58127847  1
  As  As4  1  0.50000000  0.25206459  0.41872153  1
  As  As5  1  0.00000000  0.57679605  0.29607321  1
  As  As6  1  0.50000000  0.18944124  0.65092009  1
  As  As7  1  -0.00000000  0.75206459  0.08127847  1
  As  As8  1  0.50000000  0.81055876  0.34907991  1
  As  As9  1  -0.00000000  0.68944124  0.84907991  1
  As  As10  1  0.50000000  0.07679605  0.20392679  1
  As  As11  1  0.50000000  0.92320395  0.79607321  1
loop_
_geom_bond_atom_site_label_1
_geom_bond_atom_site_label_2
_geom_bond_distance
_geom_bond_site_symmetry_2
As0 Ta21 2.612059 1_455
As0 Ta21 2.612059 1_555
As0 Ta14 2.637756 1_455
As0 Ta14 2.637756 1_555
As0 Ta6 2.651566 1_455
As0 Ta6 2.651566 1_555
As0 Ta7 2.690591 1_555
As0 Ta19 2.822664 1_555
As1 Ta18 2.583832 1_455
As1 Ta18 2.583832 1_555
As1 Ta21 2.602862 1_555
As1 Ta21 2.602862 1_455
As1 Ta16 2.675956 1_456
As1 Ta16 2.675956 1_556
As1 Ta19 2.711115 1_555
As1 Ta17 2.775968 1_556
As1 Ta9 3.105417 1_555
As2 Ta0 2.580791 1_555
As2 Ta17 2.613880 1_555
As2 Ta16 2.636697 1_555
As2 Ta16 2.636697 1_455
As2 Ta1 2.647215 1_555
As2 Ta13 2.663876 1_455
As2 Ta13 2.663876 1_555
As3 Ta7 2.583832 1_555
As3 Ta7 2.583832 1_655
As3 Ta20 2.602862 1_555
As3 Ta20 2.602862 1_655
As3 Ta4 2.675956 1_555
As3 Ta4 2.675956 1_655
As3 Ta15 2.711115 1_555
As3 Ta8 2.775968 1_555
As3 Ta14 3.105417 1_555
As4 Ta12 2.583832 1_555
As4 Ta12 2.583832 1_655
As4 Ta0 2.602862 1_555
As4 Ta0 2.602862 1_655
As4 Ta11 2.675956 1_655
As4 Ta11 2.675956 1_555
As4 Ta23 2.711115 1_555
As4 Ta6 2.775968 1_555
As4 Ta13 3.105417 1_555
As5 Ta5 2.612059 1_555
As5 Ta5 2.612059 1_455
As5 Ta13 2.637756 1_555
As5 Ta13 2.637756 1_455
As5 Ta8 2.651566 1_455
As5 Ta8 2.651566 1_555
As5 Ta12 2.690591 1_555
As5 Ta1 2.822664 1_555
As6 Ta21 2.580791 1_555
As6 Ta6 2.613880 1_555
As6 Ta11 2.636697 1_655
As6 Ta11 2.636697 1_555
As6 Ta15 2.647215 1_545
As6 Ta9 2.663876 1_655
As6 Ta9 2.663876 1_555
As7 Ta2 2.583832 1_455
As7 Ta2 2.583832 1_555
As7 Ta5 2.602862 1_455
As7 Ta5 2.602862 1_555
As7 Ta10 2.675956 1_554
As7 Ta10 2.675956 1_454
As7 Ta1 2.711115 1_555
As7 Ta3 2.775968 1_554
As7 Ta22 3.105417 1_555
As8 Ta5 2.580791 1_555
As8 Ta8 2.613880 1_555
As8 Ta4 2.636697 1_655
As8 Ta4 2.636697 1_555
As8 Ta23 2.647215 1_565
As8 Ta22 2.663876 1_555
As8 Ta22 2.663876 1_655
As9 Ta20 2.580791 1_555
As9 Ta3 2.613880 1_555
As9 Ta10 2.636697 1_455
As9 Ta10 2.636697 1_555
As9 Ta19 2.647215 1_555
As9 Ta14 2.663876 1_555
As9 Ta14 2.663876 1_455
As10 Ta0 2.612059 1_555
As10 Ta0 2.612059 1_655
As10 Ta22 2.637756 1_545
As10 Ta22 2.637756 1_645
As10 Ta17 2.651566 1_555
As10 Ta17 2.651566 1_655
As10 Ta2 2.690591 1_545
As10 Ta23 2.822664 1_555
As11 Ta20 2.612059 1_555
As11 Ta20 2.612059 1_655
As11 Ta9 2.637756 1_665
As11 Ta9 2.637756 1_565
As11 Ta3 2.651566 1_655
As11 Ta3 2.651566 1_555
As11 Ta18 2.690591 1_565
As11 Ta15 2.822664 1_555
