# generated using pymatgen
data_K3(MoO3)10
_symmetry_space_group_name_H-M   'P 1'
_cell_length_a   9.74779009
_cell_length_b   9.68994460
_cell_length_c   9.55653511
_cell_angle_alpha   110.15704840
_cell_angle_beta   100.82853056
_cell_angle_gamma   111.93597159
_symmetry_Int_Tables_number   1
_chemical_formula_structural   K3(MoO3)10
_chemical_formula_sum   'K3 Mo10 O30'
_cell_volume   732.23846067
_cell_formula_units_Z   1
loop_
 _symmetry_equiv_pos_site_id
 _symmetry_equiv_pos_as_xyz
  1  'x, y, z'
loop_
 _atom_site_type_symbol
 _atom_site_label
 _atom_site_symmetry_multiplicity
 _atom_site_fract_x
 _atom_site_fract_y
 _atom_site_fract_z
 _atom_site_occupancy
  K  K0  1  0.27666100  0.74791400  0.34357700  1
  K  K1  1  0.50000000  0.50000000  0.00000000  1
  K  K2  1  0.72333900  0.25208600  0.65642300  1
  Mo  Mo0  1  0.70129000  0.78118000  0.48040200  1
  Mo  Mo1  1  0.60273700  0.91049500  0.76208300  1
  Mo  Mo2  1  0.68524000  0.92452300  0.17882700  1
  Mo  Mo3  1  0.19981100  0.57736500  0.65938400  1
  Mo  Mo4  1  0.96311900  0.78851400  0.01213500  1
  Mo  Mo5  1  0.03688100  0.21148600  0.98786500  1
  Mo  Mo6  1  0.80018900  0.42263500  0.34061600  1
  Mo  Mo7  1  0.31476000  0.07547700  0.82117300  1
  Mo  Mo8  1  0.39726300  0.08950500  0.23791700  1
  Mo  Mo9  1  0.29871000  0.21882000  0.51959800  1
  O  O0  1  0.35488900  0.27944600  0.34701200  1
  O  O1  1  0.59182700  0.91013100  0.54825900  1
  O  O2  1  0.17338000  0.17779300  0.88262200  1
  O  O3  1  0.79023600  0.33291800  0.14710800  1
  O  O4  1  0.61947800  0.88179300  0.96399400  1
  O  O5  1  0.95196700  0.84786200  0.86145100  1
  O  O6  1  0.82208100  0.10323600  0.85213600  1
  O  O7  1  0.10494700  0.06881700  0.43521300  1
  O  O8  1  0.17461400  0.87480100  0.67878100  1
  O  O9  1  0.36463800  0.71493100  0.63392700  1
  O  O10  1  0.50050100  0.95875200  0.19119100  1
  O  O11  1  0.38668900  0.23447700  0.74037200  1
  O  O12  1  0.76218000  0.59385000  0.35847200  1
  O  O13  1  0.88900600  0.57098700  0.91816100  1
  O  O14  1  0.11099400  0.42901300  0.08183900  1
  O  O15  1  0.23782000  0.40615000  0.64152800  1
  O  O16  1  0.61331100  0.76552300  0.25962800  1
  O  O17  1  0.49949900  0.04124800  0.80880900  1
  O  O18  1  0.63536200  0.28506900  0.36607300  1
  O  O19  1  0.82538600  0.12519900  0.32121900  1
  O  O20  1  0.00000000  0.50000000  0.50000000  1
  O  O21  1  0.89505300  0.93118300  0.56478700  1
  O  O22  1  0.17791900  0.89676400  0.14786400  1
  O  O23  1  0.04803300  0.15213800  0.13854900  1
  O  O24  1  0.38052200  0.11820700  0.03600600  1
  O  O25  1  0.20976400  0.66708200  0.85289200  1
  O  O26  1  0.82662000  0.82220700  0.11737800  1
  O  O27  1  0.40817300  0.08986900  0.45174100  1
  O  O28  1  0.50000000  0.50000000  0.50000000  1
  O  O29  1  0.64511100  0.72055400  0.65298800  1
loop_
_geom_bond_atom_site_label_1
_geom_bond_atom_site_label_2
_geom_bond_distance
_geom_bond_site_symmetry_2
K0 O27 2.767525 1_565
K0 O1 2.783918 1_555
K0 O14 2.800034 1_555
K0 O9 2.908374 1_555
K0 O22 2.953812 1_555
K1 O16 2.538367 1_555
K1 O11 2.538367 1_554
K2 O1 2.767525 1_545
K2 O27 2.783918 1_555
K2 O13 2.800034 1_555
K2 O18 2.908374 1_555
K2 O6 2.953812 1_555
Mo0 O21 1.702690 1_555
Mo0 O1 1.953988 1_555
Mo0 O29 2.032744 1_555
Mo0 O16 2.052369 1_555
Mo0 O12 2.147597 1_555
Mo0 O28 2.793581 1_555
Mo1 O17 1.883863 1_565
Mo1 O6 2.004410 1_565
Mo1 O29 2.013061 1_555
Mo1 O1 2.024839 1_555
Mo1 O4 2.027972 1_555
Mo1 O9 2.127000 1_555
Mo2 O19 1.729831 1_565
Mo2 O4 1.875831 1_554
Mo2 O16 1.917779 1_555
Mo2 O10 1.966223 1_555
Mo2 O26 2.037340 1_555
Mo3 O25 1.716554 1_555
Mo3 O9 1.785431 1_555
Mo3 O15 1.790750 1_555
Mo3 O20 1.919121 1_555
Mo4 O5 1.724762 1_554
Mo4 O13 1.756487 1_554
Mo4 O26 1.868054 1_555
Mo4 O22 1.888845 1_655
Mo5 O23 1.724762 1_556
Mo5 O14 1.756487 1_556
Mo5 O2 1.868054 1_555
Mo5 O6 1.888845 1_455
Mo6 O3 1.716554 1_555
Mo6 O18 1.785431 1_555
Mo6 O12 1.790750 1_555
Mo6 O20 1.919121 1_655
Mo7 O8 1.729831 1_545
Mo7 O24 1.875831 1_556
Mo7 O11 1.917779 1_555
Mo7 O17 1.966223 1_555
Mo7 O2 2.037340 1_555
Mo8 O10 1.883863 1_545
Mo8 O22 2.004410 1_545
Mo8 O0 2.013061 1_555
Mo8 O27 2.024839 1_555
Mo8 O24 2.027972 1_555
Mo8 O18 2.127000 1_555
Mo9 O7 1.702690 1_555
Mo9 O27 1.953988 1_555
Mo9 O0 2.032744 1_555
Mo9 O11 2.052369 1_555
Mo9 O15 2.147597 1_555
Mo9 O28 2.793581 1_555
O0 O28 1.875287 1_555
O28 O29 1.875287 1_555
