# generated using pymatgen
data_SrZr2Nb
_symmetry_space_group_name_H-M   'P 1'
_cell_length_a   5.19188204
_cell_length_b   5.19188204
_cell_length_c   5.19188204
_cell_angle_alpha   60.00000000
_cell_angle_beta   60.00000000
_cell_angle_gamma   60.00000000
_symmetry_Int_Tables_number   1
_chemical_formula_structural   SrZr2Nb
_chemical_formula_sum   'Sr1 Zr2 Nb1'
_cell_volume   98.95994679
_cell_formula_units_Z   1
loop_
 _symmetry_equiv_pos_site_id
 _symmetry_equiv_pos_as_xyz
  1  'x, y, z'
loop_
 _atom_site_type_symbol
 _atom_site_label
 _atom_site_symmetry_multiplicity
 _atom_site_fract_x
 _atom_site_fract_y
 _atom_site_fract_z
 _atom_site_occupancy
  Sr  Sr0  1  0.25000000  0.25000000  0.25000000  1
  Zr  Zr0  1  0.00000000  0.00000000  0.00000000  1
  Zr  Zr1  1  0.75000000  0.75000000  0.75000000  1
  Nb  Nb0  1  0.50000000  0.50000000  0.50000000  1
loop_
_geom_bond_atom_site_label_1
_geom_bond_atom_site_label_2
_geom_bond_distance
_geom_bond_site_symmetry_2
Sr0 Zr0 3.179365 1_555
Sr0 Zr0 3.179365 1_556
Sr0 Zr0 3.179365 1_565
Sr0 Zr0 3.179365 1_655
Sr0 Zr1 3.671215 1_554
Sr0 Zr1 3.671215 1_445
Sr0 Zr1 3.671215 1_545
Sr0 Zr1 3.671215 1_544
Sr0 Zr1 3.671215 1_455
Sr0 Zr1 3.671215 1_454
Zr0 Zr1 3.179365 1_454
Zr0 Zr1 3.179365 1_544
Zr0 Zr1 3.179365 1_445
Zr0 Zr1 3.179365 1_444
Nb0 Sr0 3.179365 1_565
Nb0 Sr0 3.179365 1_655
Nb0 Zr1 3.179365 1_455
Nb0 Zr1 3.179365 1_554
Nb0 Sr0 3.179365 1_555
Nb0 Sr0 3.179365 1_556
Nb0 Zr1 3.179365 1_555
Nb0 Zr1 3.179365 1_545
