# generated using pymatgen
data_BBr
_symmetry_space_group_name_H-M   'P 1'
_cell_length_a   9.80266785
_cell_length_b   9.87023245
_cell_length_c   9.91125451
_cell_angle_alpha   86.36878911
_cell_angle_beta   86.17737311
_cell_angle_gamma   85.65680904
_symmetry_Int_Tables_number   1
_chemical_formula_structural   BBr
_chemical_formula_sum   'B18 Br18'
_cell_volume   952.43978005
_cell_formula_units_Z   18
loop_
 _symmetry_equiv_pos_site_id
 _symmetry_equiv_pos_as_xyz
  1  'x, y, z'
loop_
 _atom_site_type_symbol
 _atom_site_label
 _atom_site_symmetry_multiplicity
 _atom_site_fract_x
 _atom_site_fract_y
 _atom_site_fract_z
 _atom_site_occupancy
  B  B0  1  0.87196835  0.73483328  0.74134748  1
  B  B1  1  0.79978740  0.79126524  0.58872981  1
  B  B2  1  0.79155752  0.58733767  0.79915102  1
  B  B3  1  0.73883449  0.87243513  0.73565169  1
  B  B4  1  0.73306944  0.74030949  0.87162311  1
  B  B5  1  0.75955685  0.62298093  0.62856639  1
  B  B6  1  0.62130666  0.62993312  0.76065385  1
  B  B7  1  0.62666065  0.76200847  0.62340441  1
  B  B8  1  0.58478182  0.80184948  0.79136105  1
  B  B9  1  0.40972722  0.20353951  0.20808446  1
  B  B10  1  0.37059831  0.23982675  0.37752715  1
  B  B11  1  0.37086763  0.37421297  0.24277225  1
  B  B12  1  0.23466737  0.37620509  0.37724576  1
  B  B13  1  0.25807197  0.12900371  0.26526958  1
  B  B14  1  0.25853030  0.26343207  0.13179819  1
  B  B15  1  0.19927797  0.41423617  0.20784840  1
  B  B16  1  0.19895863  0.20636558  0.41489200  1
  B  B17  1  0.12241987  0.26452019  0.26499471  1
  Br  Br0  1  0.88571291  0.86537175  0.42872975  1
  Br  Br1  1  0.93229162  0.24358801  0.24295232  1
  Br  Br2  1  0.86766895  0.42543289  0.88265882  1
  Br  Br3  1  0.79417379  0.48700025  0.49946098  1
  Br  Br4  1  0.76337327  0.06105620  0.75507700  1
  Br  Br5  1  0.75046934  0.76375763  0.06027209  1
  Br  Br6  1  0.57264617  0.12176972  0.12919120  1
  Br  Br7  1  0.49727610  0.79803642  0.48741736  1
  Br  Br8  1  0.48445786  0.50211828  0.79621692  1
  Br  Br9  1  0.50465272  0.50501715  0.20738942  1
  Br  Br10  1  0.50316746  0.20439085  0.51045309  1
  Br  Br11  1  0.42233488  0.88851898  0.86589530  1
  Br  Br12  1  0.23683197  0.24268888  0.94340328  1
  Br  Br13  1  0.23668826  0.94033660  0.24264290  1
  Br  Br14  1  0.19934633  0.50938522  0.50922217  1
  Br  Br15  1  0.06168204  0.75389299  0.76690682  1
  Br  Br16  1  0.11806624  0.12781808  0.57529039  1
  Br  Br17  1  0.11932064  0.57622725  0.12809787  1
loop_
_geom_bond_atom_site_label_1
_geom_bond_atom_site_label_2
_geom_bond_distance
_geom_bond_site_symmetry_2
B0 Br15 1.918304 1_655
B1 Br0 1.878175 1_555
B2 Br2 1.878731 1_555
B3 Br4 1.918434 1_565
B4 Br5 1.918835 1_556
B5 Br3 1.909078 1_555
B6 Br8 1.911102 1_555
B7 Br7 1.910642 1_555
B8 Br11 1.878873 1_555
B9 Br6 1.879242 1_555
B10 Br10 1.909946 1_555
B11 Br9 1.909847 1_555
B12 Br14 1.909796 1_555
B13 Br13 1.918402 1_545
B14 Br12 1.918772 1_554
B15 Br17 1.878369 1_555
B16 Br16 1.877781 1_555
B17 Br1 1.918948 1_455
