# generated using pymatgen
data_Na7Cu3O8
_symmetry_space_group_name_H-M   'P 1'
_cell_length_a   5.51049144
_cell_length_b   6.07362813
_cell_length_c   7.83392808
_cell_angle_alpha   110.11311861
_cell_angle_beta   109.08042375
_cell_angle_gamma   90.29363940
_symmetry_Int_Tables_number   1
_chemical_formula_structural   Na7Cu3O8
_chemical_formula_sum   'Na7 Cu3 O8'
_cell_volume   230.62564566
_cell_formula_units_Z   1
loop_
 _symmetry_equiv_pos_site_id
 _symmetry_equiv_pos_as_xyz
  1  'x, y, z'
loop_
 _atom_site_type_symbol
 _atom_site_label
 _atom_site_symmetry_multiplicity
 _atom_site_fract_x
 _atom_site_fract_y
 _atom_site_fract_z
 _atom_site_occupancy
  Na  Na0  1  0.28177731  0.39089729  0.38403648  1
  Na  Na1  1  0.62500511  0.16475997  0.71026484  1
  Na  Na2  1  0.74909873  0.62974505  0.05733977  1
  Na  Na3  1  -0.00000000  -0.00000000  0.50000000  1
  Na  Na4  1  0.25090127  0.37025495  0.94266023  1
  Na  Na5  1  0.37499489  0.83524003  0.28973516  1
  Na  Na6  1  0.71822269  0.60910271  0.61596352  1
  Cu  Cu0  1  0.74524078  0.24982659  0.23905384  1
  Cu  Cu1  1  -0.00000000  -0.00000000  0.00000000  1
  Cu  Cu2  1  0.25475922  0.75017341  0.76094616  1
  O  O0  1  0.57378426  0.50295047  0.25058523  1
  O  O1  1  0.64802598  0.19227214  0.42101374  1
  O  O2  1  0.87761249  0.28418736  0.05392407  1
  O  O3  1  0.96081896  1.00859782  0.22198221  1
  O  O4  1  0.03918104  -0.00859782  0.77801779  1
  O  O5  1  0.12238751  0.71581264  0.94607593  1
  O  O6  1  0.35197402  0.80772786  0.57898626  1
  O  O7  1  0.42621574  0.49704953  0.74941477  1
loop_
_geom_bond_atom_site_label_1
_geom_bond_atom_site_label_2
_geom_bond_distance
_geom_bond_site_symmetry_2
Na0 O1 2.344248 1_555
Na0 O0 2.392337 1_555
Na0 O6 2.415783 1_555
Na0 O7 2.545245 1_555
Na0 O3 2.567842 1_445
Na0 O2 2.671135 1_455
Na1 O7 2.276791 1_555
Na1 O6 2.333404 1_545
Na1 O1 2.372082 1_555
Na1 O2 2.430689 1_556
Na1 O4 2.493247 1_655
Na2 O2 2.212722 1_555
Na2 O3 2.294977 1_555
Na2 O7 2.340173 1_554
Na2 O0 2.359767 1_555
Na2 O5 2.595926 1_654
Na3 O3 2.136305 1_445
Na3 O4 2.136305 1_555
Na3 O6 2.289980 1_545
Na3 O1 2.289980 1_455
Na4 O5 2.212722 1_555
Na4 O4 2.294977 1_555
Na4 O0 2.340173 1_556
Na4 O7 2.359767 1_555
Na4 O2 2.595926 1_456
Na5 O0 2.276791 1_555
Na5 O1 2.333404 1_565
Na5 O6 2.372082 1_555
Na5 O5 2.430689 1_554
Na5 O3 2.493247 1_455
Na6 O6 2.344248 1_555
Na6 O7 2.392337 1_555
Na6 O1 2.415783 1_555
Na6 O0 2.545245 1_555
Na6 O4 2.567842 1_665
Na6 O5 2.671135 1_655
Cu0 O0 1.799872 1_555
Cu0 O1 1.811391 1_555
Cu0 O3 1.887500 1_545
Cu0 O2 1.891353 1_555
Cu1 O4 1.804597 1_554
Cu1 O3 1.804597 1_445
Cu1 O5 1.819136 1_544
Cu1 O2 1.819136 1_455
Cu2 O7 1.799872 1_555
Cu2 O6 1.811391 1_555
Cu2 O4 1.887500 1_565
Cu2 O5 1.891353 1_555
