# generated using pymatgen
data_NaLiLa2Ti4O12
_symmetry_space_group_name_H-M   'P 1'
_cell_length_a   5.48987500
_cell_length_b   5.49325272
_cell_length_c   8.00632453
_cell_angle_alpha   90.10365875
_cell_angle_beta   90.21876192
_cell_angle_gamma   90.07508710
_symmetry_Int_Tables_number   1
_chemical_formula_structural   NaLiLa2Ti4O12
_chemical_formula_sum   'Na1 Li1 La2 Ti4 O12'
_cell_volume   241.44653216
_cell_formula_units_Z   1
loop_
 _symmetry_equiv_pos_site_id
 _symmetry_equiv_pos_as_xyz
  1  'x, y, z'
loop_
 _atom_site_type_symbol
 _atom_site_label
 _atom_site_symmetry_multiplicity
 _atom_site_fract_x
 _atom_site_fract_y
 _atom_site_fract_z
 _atom_site_occupancy
  Na  Na0  1  0.51074300  0.98938300  0.81224200  1
  Li  Li0  1  0.48462700  0.99614800  0.38344800  1
  La  La0  1  0.00047900  0.49362100  0.77342300  1
  La  La1  1  0.99718200  0.49829800  0.26523100  1
  Ti  Ti0  1  0.00345600  0.99721800  0.02388100  1
  Ti  Ti1  1  0.49444900  0.49684900  0.02128000  1
  Ti  Ti2  1  0.50160800  0.49924800  0.51807400  1
  Ti  Ti3  1  0.99380100  0.99915800  0.51964500  1
  O  O0  1  0.25249700  0.75821100  0.51930400  1
  O  O1  1  0.06031500  0.00114800  0.24801500  1
  O  O2  1  0.25531800  0.25103300  0.96679900  1
  O  O3  1  0.78131500  0.27715400  0.01993300  1
  O  O4  1  0.22591200  0.27309800  0.51852800  1
  O  O5  1  0.55288800  0.50021600  0.74497800  1
  O  O6  1  0.44712800  0.49992000  0.24697400  1
  O  O7  1  0.76050100  0.73774100  0.46799800  1
  O  O8  1  0.23465500  0.73026200  0.97074400  1
  O  O9  1  0.75659100  0.75026500  0.01940400  1
  O  O10  1  0.94595900  0.00389100  0.74516300  1
  O  O11  1  0.74057700  0.24713900  0.46493500  1
loop_
_geom_bond_atom_site_label_1
_geom_bond_atom_site_label_2
_geom_bond_distance
_geom_bond_site_symmetry_2
Na0 O2 2.361251 1_565
Na0 O8 2.439140 1_555
Na0 O10 2.452122 1_565
Na0 O9 2.508667 1_556
Na0 O3 2.726880 1_566
Na0 O5 2.749819 1_555
Na0 O5 2.867519 1_565
Na0 O0 3.013703 1_555
Li0 O11 2.070188 1_565
Li0 O0 2.127640 1_555
Li0 O7 2.183630 1_555
Li0 O4 2.347953 1_565
Li0 O1 2.565870 1_565
La0 O8 2.410617 1_555
La0 O5 2.467203 1_455
La0 O2 2.475064 1_555
La0 O3 2.603796 1_456
La0 O4 2.679204 1_555
La0 O10 2.715360 1_455
La0 O9 2.770171 1_456
La0 O10 2.828745 1_465
La0 O0 2.862360 1_555
La0 O5 3.042236 1_555
La0 O7 3.083104 1_455
La0 O11 3.150434 1_455
La1 O7 2.463072 1_555
La1 O6 2.475031 1_655
La1 O11 2.542555 1_555
La1 O3 2.589792 1_555
La1 O4 2.685805 1_655
La1 O9 2.743871 1_555
La1 O1 2.756594 1_655
La1 O1 2.787214 1_665
La1 O0 2.846672 1_655
La1 O8 2.985351 1_654
La1 O6 3.022731 1_555
La1 O2 3.095374 1_654
O0 Ti3 1.942631 1_455
O0 Ti2 1.974637 1_555
O1 Ti0 1.820346 1_545
O1 Ti3 2.206619 1_445
O2 Ti1 1.930271 1_556
O2 Ti0 2.016622 1_546
O3 Ti0 1.964114 1_645
O3 Ti1 1.985402 1_555
O4 Ti2 1.956845 1_555
O4 Ti3 1.970639 1_445
O5 Ti2 1.837285 1_555
O5 Ti1 2.236624 1_556
O6 Ti1 1.826591 1_555
O6 Ti2 2.189903 1_555
O7 Ti3 1.965342 1_555
O7 Ti2 1.974474 1_555
O8 Ti1 1.960650 1_556
O8 Ti0 1.987269 1_556
O9 Ti0 1.916492 1_655
O9 Ti1 2.001045 1_555
O10 Ti3 1.825709 1_545
O10 Ti0 2.252898 1_646
O11 Ti2 1.956259 1_555
O11 Ti3 1.995634 1_545
