# generated using pymatgen
data_DyH9C5(NO4)2
_symmetry_space_group_name_H-M   'P 1'
_cell_length_a   6.70454719
_cell_length_b   6.70454719
_cell_length_c   6.65374718
_cell_angle_alpha   73.93473986
_cell_angle_beta   73.93473986
_cell_angle_gamma   65.01249239
_symmetry_Int_Tables_number   1
_chemical_formula_structural   DyH9C5(NO4)2
_chemical_formula_sum   'Dy1 H9 C5 N2 O8'
_cell_volume   256.08622641
_cell_formula_units_Z   1
loop_
 _symmetry_equiv_pos_site_id
 _symmetry_equiv_pos_as_xyz
  1  'x, y, z'
loop_
 _atom_site_type_symbol
 _atom_site_label
 _atom_site_symmetry_multiplicity
 _atom_site_fract_x
 _atom_site_fract_y
 _atom_site_fract_z
 _atom_site_occupancy
  Dy  Dy0  1  0.00156600  0.99843400  0.00000000  1
  H  H0  1  0.81627000  0.65417300  0.41726600  1
  H  H1  1  0.34582700  0.18373000  0.58273400  1
  H  H2  1  0.52414500  0.74048800  0.52309600  1
  H  H3  1  0.25951200  0.47585500  0.47690400  1
  H  H4  1  0.16402500  0.46198800  0.87373900  1
  H  H5  1  0.53801200  0.83597500  0.12626100  1
  H  H6  1  0.91635100  0.08364900  0.50000000  1
  H  H7  1  0.55438900  0.46543100  0.80341600  1
  H  H8  1  0.53456900  0.44561100  0.19658400  1
  C  C0  1  0.05961200  0.46730800  0.03576300  1
  C  C1  1  0.53269200  0.94038800  0.96423700  1
  C  C2  1  0.06912800  0.93087300  0.50000000  1
  C  C3  1  0.71310700  0.47012700  0.70049200  1
  C  C4  1  0.52987300  0.28689300  0.29950800  1
  N  N0  1  0.68524500  0.63644800  0.53581300  1
  N  N1  1  0.36355200  0.31475500  0.46418700  1
  O  O0  1  0.99040200  0.31097400  0.12603900  1
  O  O1  1  0.68902600  0.00959800  0.87396100  1
  O  O2  1  0.01922600  0.63526200  0.11719300  1
  O  O3  1  0.36473800  0.98077400  0.88280700  1
  O  O4  1  0.15789000  0.85419000  0.66591500  1
  O  O5  1  0.14581000  0.84211000  0.33408500  1
  O  O6  1  0.89948200  0.32774500  0.74153200  1
  O  O7  1  0.67225500  0.10051800  0.25846800  1
loop_
_geom_bond_atom_site_label_1
_geom_bond_atom_site_label_2
_geom_bond_distance
_geom_bond_site_symmetry_2
Dy0 O3 2.303803 1_554
Dy0 O2 2.303803 1_555
Dy0 O6 2.360948 1_464
Dy0 O7 2.360948 1_465
Dy0 O0 2.430046 1_465
Dy0 O1 2.430046 1_464
Dy0 O4 2.453392 1_554
Dy0 O5 2.453392 1_555
H0 N0 1.029956 1_555
H1 N1 1.029956 1_555
H2 N0 1.020659 1_555
H3 N1 1.020659 1_555
C0 H4 1.111778 1_554
C0 O0 1.258141 1_455
C0 O2 1.278188 1_555
C1 H5 1.111778 1_556
C1 O1 1.258141 1_565
C1 O3 1.278188 1_555
C2 H6 1.100897 1_465
C2 O4 1.276006 1_555
C2 O5 1.276010 1_555
C3 H7 1.102450 1_555
C3 O6 1.258594 1_555
C3 N0 1.319104 1_555
C4 H8 1.102450 1_555
C4 O7 1.258594 1_555
C4 N1 1.319104 1_555
