# generated using pymatgen
data_La5FeRe3O16
_symmetry_space_group_name_H-M   'P 1'
_cell_length_a   5.70602541
_cell_length_b   11.44275041
_cell_length_c   11.40130490
_cell_angle_alpha   63.76679291
_cell_angle_beta   90.27054952
_cell_angle_gamma   93.59917986
_symmetry_Int_Tables_number   1
_chemical_formula_structural   La5FeRe3O16
_chemical_formula_sum   'La10 Fe2 Re6 O32'
_cell_volume   666.20994524
_cell_formula_units_Z   2
loop_
 _symmetry_equiv_pos_site_id
 _symmetry_equiv_pos_as_xyz
  1  'x, y, z'
loop_
 _atom_site_type_symbol
 _atom_site_label
 _atom_site_symmetry_multiplicity
 _atom_site_fract_x
 _atom_site_fract_y
 _atom_site_fract_z
 _atom_site_occupancy
  La  La0  1  0.99988400  0.50008300  0.24992100  1
  La  La1  1  0.00000900  0.50000300  0.75002700  1
  La  La2  1  0.02381900  0.19678700  0.15813800  1
  La  La3  1  0.02426600  0.19743700  0.65762400  1
  La  La4  1  0.97562000  0.80254900  0.84217800  1
  La  La5  1  0.97610600  0.80315200  0.34221300  1
  La  La6  1  0.50313600  0.20748600  0.91214900  1
  La  La7  1  0.50317400  0.20726100  0.41316200  1
  La  La8  1  0.49663900  0.79280000  0.08681300  1
  La  La9  1  0.49698000  0.79237200  0.58785400  1
  Fe  Fe0  1  0.50001200  0.99997200  0.24995100  1
  Fe  Fe1  1  0.49981800  0.99992500  0.74993900  1
  Re  Re0  1  0.99958900  0.99994100  0.49983400  1
  Re  Re1  1  0.00034400  0.00006300  0.00014100  1
  Re  Re2  1  0.44481700  0.60478900  0.92014600  1
  Re  Re3  1  0.44423500  0.60570600  0.41944400  1
  Re  Re4  1  0.55566600  0.39426600  0.08051400  1
  Re  Re5  1  0.55527700  0.39526200  0.57989900  1
  O  O0  1  0.30615700  0.43426500  0.93778000  1
  O  O1  1  0.30613100  0.43581500  0.43695800  1
  O  O2  1  0.69391400  0.56425700  0.06301300  1
  O  O3  1  0.69387000  0.56573200  0.56226800  1
  O  O4  1  0.22117100  0.67446700  0.77536000  1
  O  O5  1  0.22041100  0.67478600  0.27501300  1
  O  O6  1  0.77942900  0.32521700  0.22503500  1
  O  O7  1  0.77900500  0.32557000  0.72462600  1
  O  O8  1  0.54992500  0.79873300  0.87471900  1
  O  O9  1  0.54678400  0.80275300  0.37182700  1
  O  O10  1  0.45313500  0.19731900  0.12810600  1
  O  O11  1  0.45005800  0.20126100  0.62528000  1
  O  O12  1  0.92144800  0.81630500  0.05255200  1
  O  O13  1  0.92004300  0.81599900  0.55268100  1
  O  O14  1  0.08003600  0.18386700  0.94744800  1
  O  O15  1  0.07854100  0.18377200  0.44748400  1
  O  O16  1  0.23101000  0.63502500  0.03413000  1
  O  O17  1  0.23222900  0.63602900  0.53375800  1
  O  O18  1  0.76807000  0.36392300  0.96630600  1
  O  O19  1  0.76874000  0.36505400  0.46587800  1
  O  O20  1  0.69723700  0.63432000  0.79504300  1
  O  O21  1  0.69699900  0.63558800  0.29503000  1
  O  O22  1  0.30304800  0.36445600  0.20510500  1
  O  O23  1  0.30285400  0.36565900  0.70489200  1
  O  O24  1  0.81047500  0.99605600  0.65481400  1
  O  O25  1  0.81843800  0.99681200  0.15370700  1
  O  O26  1  0.18178200  0.00320400  0.34634600  1
  O  O27  1  0.18939100  0.00385500  0.84516400  1
  O  O28  1  0.71354800  0.03905200  0.39413100  1
  O  O29  1  0.71725200  0.03952300  0.89204600  1
  O  O30  1  0.28276700  0.96044900  0.60782000  1
  O  O31  1  0.28670800  0.96102600  0.10573200  1
loop_
_geom_bond_atom_site_label_1
_geom_bond_atom_site_label_2
_geom_bond_distance
_geom_bond_site_symmetry_2
La0 O5 2.418251 1_655
La0 O6 2.418508 1_555
La0 O16 2.567701 1_655
La0 O19 2.569210 1_555
La0 O21 2.589490 1_555
La0 O22 2.590075 1_655
La0 O2 2.621234 1_555
La0 O1 2.623278 1_655
La1 O7 2.418609 1_455
La1 O4 2.418959 1_555
La1 O18 2.575708 1_455
La1 O17 2.576307 1_555
La1 O20 2.578653 1_455
La1 O23 2.579805 1_555
La1 O0 2.627906 1_555
La1 O3 2.627922 1_455
La2 O6 2.438095 1_455
La2 O10 2.474360 1_555
La2 O14 2.494438 1_554
La2 O26 2.520715 1_555
La2 O25 2.525278 1_445
La2 O22 2.650041 1_555
La2 O18 2.682007 1_454
La3 O7 2.439196 1_455
La3 O11 2.453897 1_555
La3 O15 2.490951 1_555
La3 O27 2.534207 1_555
La3 O24 2.551700 1_445
La3 O23 2.654713 1_555
La3 O19 2.682910 1_455
La4 O4 2.438539 1_655
La4 O8 2.453690 1_555
La4 O12 2.494031 1_556
La4 O24 2.532892 1_555
La4 O27 2.551721 1_665
La4 O20 2.653340 1_555
La4 O16 2.683210 1_656
La5 O5 2.439242 1_655
La5 O9 2.473905 1_555
La5 O13 2.491401 1_555
La5 O25 2.522059 1_555
La5 O26 2.525325 1_665
La5 O21 2.650002 1_555
La5 O17 2.681572 1_655
La6 O14 2.427873 1_555
La6 O10 2.430340 1_556
La6 O29 2.434344 1_555
La6 O7 2.466877 1_555
La6 O18 2.549406 1_555
La6 O23 2.572716 1_555
La7 O11 2.408912 1_555
La7 O28 2.419618 1_555
La7 O15 2.435230 1_555
La7 O6 2.472362 1_555
La7 O19 2.554380 1_555
La7 O22 2.574224 1_555
La8 O8 2.409090 1_554
La8 O31 2.417839 1_555
La8 O12 2.436138 1_555
La8 O5 2.472874 1_555
La8 O16 2.554213 1_555
La8 O21 2.576045 1_555
La9 O13 2.427488 1_555
La9 O9 2.430002 1_555
La9 O30 2.435080 1_555
La9 O4 2.466293 1_555
La9 O17 2.547622 1_555
La9 O20 2.571728 1_555
Fe0 O9 2.096370 1_555
Fe0 O10 2.097579 1_565
Fe0 O25 2.137485 1_555
Fe0 O26 2.137680 1_565
Fe0 O31 2.223615 1_555
Fe0 O28 2.224707 1_565
Fe1 O27 2.095134 1_565
Fe1 O24 2.095432 1_555
Fe1 O8 2.142220 1_555
Fe1 O11 2.142871 1_565
Fe1 O30 2.218402 1_555
Fe1 O29 2.220161 1_565
O0 Re2 1.983607 1_555
O0 Re4 2.070305 1_556
O1 Re3 1.976371 1_555
O1 Re5 2.069957 1_555
O2 Re4 1.977743 1_555
O2 Re2 2.069204 1_554
O3 Re5 1.982925 1_555
O3 Re3 2.071533 1_555
O4 Re2 1.983301 1_555
O5 Re3 1.980837 1_555
O6 Re4 1.981249 1_555
O7 Re5 1.983186 1_555
O8 Re2 2.091104 1_555
O9 Re3 2.115717 1_555
O10 Re4 2.114686 1_555
O11 Re5 2.091969 1_555
O12 Re1 1.937517 1_665
O13 Re0 1.939261 1_555
O14 Re1 1.938222 1_556
O15 Re0 1.938469 1_445
O16 Re2 1.939693 1_554
O17 Re3 1.936451 1_555
O18 Re4 1.937110 1_556
O19 Re5 1.938584 1_555
O20 Re2 1.937867 1_555
O21 Re3 1.933337 1_555
O22 Re4 1.934213 1_555
O23 Re5 1.936887 1_555
O24 Re0 2.056976 1_555
O25 Re1 2.024590 1_665
O26 Re0 2.024617 1_445
O27 Re1 2.057161 1_556
O28 Re0 1.978115 1_545
O29 Re1 1.978095 1_656
O30 Re0 1.977859 1_455
O31 Re1 1.979005 1_565
