# generated using pymatgen
data_RbTeHOF4
_symmetry_space_group_name_H-M   'P 1'
_cell_length_a   8.43051685
_cell_length_b   8.43051685
_cell_length_c   14.07560884
_cell_angle_alpha   85.88649037
_cell_angle_beta   85.88649037
_cell_angle_gamma   34.38217601
_symmetry_Int_Tables_number   1
_chemical_formula_structural   RbTeHOF4
_chemical_formula_sum   'Rb4 Te4 H4 O4 F16'
_cell_volume   563.34382220
_cell_formula_units_Z   4
loop_
 _symmetry_equiv_pos_site_id
 _symmetry_equiv_pos_as_xyz
  1  'x, y, z'
loop_
 _atom_site_type_symbol
 _atom_site_label
 _atom_site_symmetry_multiplicity
 _atom_site_fract_x
 _atom_site_fract_y
 _atom_site_fract_z
 _atom_site_occupancy
  Rb  Rb0  1  0.16810600  0.35955500  0.48697000  1
  Rb  Rb1  1  0.35955500  0.16810600  0.98697000  1
  Rb  Rb2  1  0.47550900  0.64019500  0.25046700  1
  Rb  Rb3  1  0.64019500  0.47550900  0.75046700  1
  Te  Te0  1  0.98066600  0.02267700  0.50342300  1
  Te  Te1  1  0.02267700  0.98066600  0.00342300  1
  Te  Te2  1  0.80227100  0.83623900  0.24557000  1
  Te  Te3  1  0.83623900  0.80227100  0.74557000  1
  H  H0  1  0.10513100  0.35003900  0.24568400  1
  H  H1  1  0.35003900  0.10513100  0.74568400  1
  H  H2  1  0.72149100  0.46540700  0.99350900  1
  H  H3  1  0.46540700  0.72149100  0.49350900  1
  O  O0  1  0.91171900  0.52740700  0.27251200  1
  O  O1  1  0.52740700  0.91171900  0.77251200  1
  O  O2  1  0.28415200  0.91843600  0.46962100  1
  O  O3  1  0.91843600  0.28415200  0.96962100  1
  F  F0  1  0.42479500  0.03461800  0.21586900  1
  F  F1  1  0.03461800  0.42479500  0.71586900  1
  F  F2  1  0.69114800  0.91349200  0.38625500  1
  F  F3  1  0.91349200  0.69114800  0.88625500  1
  F  F4  1  0.93903200  0.69200100  0.10918500  1
  F  F5  1  0.69200100  0.93903200  0.60918500  1
  F  F6  1  0.20033300  0.56045500  0.27740100  1
  F  F7  1  0.56045500  0.20033300  0.77740100  1
  F  F8  1  0.91949000  0.10339100  0.14208100  1
  F  F9  1  0.10339100  0.91949000  0.64208100  1
  F  F10  1  0.27216700  0.61171900  0.48895900  1
  F  F11  1  0.61171900  0.27216700  0.98895900  1
  F  F12  1  0.91181700  0.10833800  0.36073000  1
  F  F13  1  0.10833800  0.91181700  0.86073000  1
  F  F14  1  0.40561700  0.77458700  0.03276400  1
  F  F15  1  0.77458700  0.40561700  0.53276400  1
loop_
_geom_bond_atom_site_label_1
_geom_bond_atom_site_label_2
_geom_bond_distance
_geom_bond_site_symmetry_2
H0 O0 1.002756 1_455
H1 O1 1.002756 1_545
H2 O3 1.005336 1_555
H3 O2 1.005336 1_555
O0 Te2 1.928019 1_555
O0 Rb2 2.978916 1_555
O0 Rb0 3.325841 1_655
O1 Te3 1.928019 1_555
O1 Rb3 2.978916 1_555
O1 Rb1 3.325841 1_565
O2 Te0 1.928444 1_465
O2 Rb0 2.989558 1_565
O3 Te1 1.928444 1_646
O3 Rb1 2.989558 1_655
F0 H0 1.636854 1_555
F0 Te2 2.098755 1_545
F0 Rb2 2.987945 1_545
F0 Rb1 3.265267 1_554
F1 H1 1.636854 1_555
F1 Te3 2.098755 1_455
F1 Rb3 2.987945 1_455
F1 Rb0 3.265267 1_555
F2 Te2 2.033447 1_555
F2 Rb0 2.844820 1_565
F2 Rb0 2.976621 1_655
F3 Te3 2.033447 1_555
F3 Rb1 2.844820 1_655
F3 Rb1 2.976621 1_565
F4 Te2 2.048531 1_555
F4 Rb1 3.066779 1_654
F4 Rb1 3.284128 1_564
F5 Te3 2.048531 1_555
F5 Rb0 3.066779 1_565
F5 Rb0 3.284128 1_655
F6 Te2 2.013955 1_455
F6 Rb2 2.896354 1_555
F6 Rb0 3.401702 1_555
F7 Te3 2.013955 1_545
F7 Rb3 2.896354 1_555
F7 Rb1 3.401702 1_555
F8 Te1 2.048625 1_645
F8 Rb2 3.004991 1_555
F8 Rb2 3.083369 1_645
F9 Te0 2.048625 1_465
F9 Rb3 3.004991 1_555
F9 Rb3 3.083369 1_465
F10 Te0 2.014979 1_465
F10 Rb0 2.894849 1_555
F11 Te1 2.014979 1_646
F11 Rb1 2.894849 1_555
F12 Te0 2.039547 1_555
F12 Rb2 2.939599 1_555
F12 Rb2 3.071133 1_645
F13 Te1 2.039547 1_556
F13 Rb3 2.939599 1_555
F13 Rb3 3.071133 1_465
F14 H2 1.652093 1_554
F14 Te1 2.107587 1_555
F14 Rb1 3.029063 1_564
F14 Rb2 3.111246 1_555
F15 H3 1.652093 1_555
F15 Te0 2.107587 1_555
F15 Rb0 3.029063 1_655
F15 Rb3 3.111246 1_555
