# generated using pymatgen
data_SrIn
_symmetry_space_group_name_H-M   'P 1'
_cell_length_a   6.56479107
_cell_length_b   6.56468867
_cell_length_c   13.65078517
_cell_angle_alpha   101.35611096
_cell_angle_beta   101.36036908
_cell_angle_gamma   100.20686468
_symmetry_Int_Tables_number   1
_chemical_formula_structural   SrIn
_chemical_formula_sum   'Sr8 In8'
_cell_volume   551.01297240
_cell_formula_units_Z   8
loop_
 _symmetry_equiv_pos_site_id
 _symmetry_equiv_pos_as_xyz
  1  'x, y, z'
loop_
 _atom_site_type_symbol
 _atom_site_label
 _atom_site_symmetry_multiplicity
 _atom_site_fract_x
 _atom_site_fract_y
 _atom_site_fract_z
 _atom_site_occupancy
  Sr  Sr0  1  0.71775201  0.42015450  0.64048109  1
  Sr  Sr1  1  0.20589976  0.91569094  0.15416809  1
  Sr  Sr2  1  0.78024781  0.07905160  0.36030161  1
  Sr  Sr3  1  0.30366236  0.51297960  0.34737790  1
  Sr  Sr4  1  0.32914509  0.53094180  0.86027550  1
  Sr  Sr5  1  0.76257902  0.05465738  0.84748820  1
  Sr  Sr6  1  0.16455921  0.95589293  0.65413005  1
  Sr  Sr7  1  0.67021530  0.46847580  0.14057134  1
  In  In0  1  0.87004452  0.63229395  0.42652006  1
  In  In1  1  0.28722218  0.03796301  0.93068761  1
  In  In2  1  0.10789700  0.35765756  0.07102311  1
  In  In3  1  0.20496884  0.44388251  0.57445129  1
  In  In4  1  0.69381071  0.95573745  0.07458888  1
  In  In5  1  0.88256302  0.62104982  0.92661028  1
  In  In6  1  0.60640985  0.85768334  0.57098329  1
  In  In7  1  0.28713632  0.03751380  0.43059469  1
loop_
_geom_bond_atom_site_label_1
_geom_bond_atom_site_label_2
_geom_bond_distance
_geom_bond_site_symmetry_2
In0 In6 3.190074 1_555
In0 In3 3.261944 1_655
In0 Sr2 3.348566 1_565
In0 Sr6 3.388678 1_655
In0 Sr3 3.398877 1_655
In0 In7 3.446313 1_665
In0 Sr2 3.477566 1_555
In0 Sr3 3.557757 1_555
In0 Sr0 3.705189 1_555
In0 Sr7 3.734126 1_555
In1 In2 3.105001 1_556
In1 In4 3.183888 1_546
In1 Sr4 3.353665 1_545
In1 Sr1 3.419074 1_546
In1 Sr5 3.435984 1_455
In1 In5 3.443222 1_445
In1 Sr5 3.516283 1_555
In1 Sr4 3.533624 1_555
In1 Sr6 3.610907 1_545
In1 Sr7 3.737980 1_556
In2 In5 3.188137 1_454
In2 Sr7 3.351096 1_455
In2 Sr5 3.419535 1_454
In2 Sr1 3.433776 1_545
In2 In4 3.451718 1_445
In2 Sr1 3.515913 1_555
In2 Sr7 3.528925 1_555
In2 Sr3 3.610197 1_555
In2 Sr4 3.745585 1_554
In3 In7 3.182463 1_555
In3 Sr0 3.348812 1_555
In3 Sr3 3.387420 1_555
In3 Sr6 3.397198 1_555
In3 In6 3.448088 1_555
In3 Sr0 3.475839 1_455
In3 Sr6 3.563777 1_545
In3 Sr2 3.704180 1_455
In3 Sr4 3.730724 1_555
In4 In5 3.262879 1_554
In4 Sr7 3.348255 1_565
In4 Sr5 3.387683 1_564
In4 Sr1 3.396702 1_655
In4 Sr7 3.475785 1_555
In4 Sr1 3.562786 1_555
In4 Sr4 3.705191 1_554
In4 Sr2 3.729723 1_565
In5 Sr4 3.348787 1_655
In5 Sr1 3.387821 1_656
In5 Sr5 3.399964 1_565
In5 Sr4 3.478571 1_555
In5 Sr5 3.557709 1_555
In5 Sr7 3.706541 1_556
In5 Sr0 3.737206 1_555
In6 In7 3.105610 1_565
In6 Sr0 3.350825 1_555
In6 Sr3 3.418146 1_555
In6 Sr6 3.433564 1_555
In6 Sr6 3.516530 1_655
In6 Sr0 3.529763 1_565
In6 Sr5 3.612978 1_565
In6 Sr2 3.746538 1_565
In7 Sr2 3.351841 1_455
In7 Sr6 3.421155 1_545
In7 Sr3 3.435075 1_545
In7 Sr3 3.517031 1_555
In7 Sr2 3.533884 1_555
In7 Sr1 3.609773 1_545
In7 Sr0 3.737419 1_555
