# generated using pymatgen
data_Sr3In4Pb
_symmetry_space_group_name_H-M   'P 1'
_cell_length_a   6.60081547
_cell_length_b   6.60081547
_cell_length_c   16.94866800
_cell_angle_alpha   90.00000000
_cell_angle_beta   90.00000000
_cell_angle_gamma   134.91482278
_symmetry_Int_Tables_number   1
_chemical_formula_structural   Sr3In4Pb
_chemical_formula_sum   'Sr6 In8 Pb2'
_cell_volume   522.95031780
_cell_formula_units_Z   2
loop_
 _symmetry_equiv_pos_site_id
 _symmetry_equiv_pos_as_xyz
  1  'x, y, z'
loop_
 _atom_site_type_symbol
 _atom_site_label
 _atom_site_symmetry_multiplicity
 _atom_site_fract_x
 _atom_site_fract_y
 _atom_site_fract_z
 _atom_site_occupancy
  Sr  Sr0  1  0.08834300  0.91165700  0.38893200  1
  Sr  Sr1  1  0.63609700  0.36390300  0.75000000  1
  Sr  Sr2  1  0.36390300  0.63609700  0.25000000  1
  Sr  Sr3  1  0.91165700  0.08834300  0.61106800  1
  Sr  Sr4  1  0.91165700  0.08834300  0.88893200  1
  Sr  Sr5  1  0.08834300  0.91165700  0.11106800  1
  In  In0  1  0.20697400  0.79302600  0.90289800  1
  In  In1  1  0.79302600  0.20697400  0.40289800  1
  In  In2  1  0.38694800  0.61305200  0.46404200  1
  In  In3  1  0.61305200  0.38694800  0.96404200  1
  In  In4  1  0.20697400  0.79302600  0.59710200  1
  In  In5  1  0.61305200  0.38694800  0.53595800  1
  In  In6  1  0.38694800  0.61305200  0.03595800  1
  In  In7  1  0.79302600  0.20697400  0.09710200  1
  Pb  Pb0  1  0.34591100  0.65408900  0.75000000  1
  Pb  Pb1  1  0.65408900  0.34591100  0.25000000  1
loop_
_geom_bond_atom_site_label_1
_geom_bond_atom_site_label_2
_geom_bond_distance
_geom_bond_site_symmetry_2
Sr0 Sr2 4.102870 1_555
Sr0 Sr3 4.337702 1_465
Sr0 Sr2 4.408774 1_455
Sr0 Sr2 4.408774 1_565
Sr1 Sr4 4.102870 1_555
Sr1 Sr3 4.102870 1_555
Sr1 Sr4 4.408774 1_565
Sr1 Sr4 4.408774 1_455
Sr1 Sr3 4.408774 1_565
Sr1 Sr3 4.408774 1_455
Sr2 Sr5 4.102870 1_555
Sr2 Sr5 4.408774 1_655
Sr2 Sr5 4.408774 1_545
Sr4 Sr5 4.337702 1_646
In0 In3 2.964641 1_565
In0 In3 2.964641 1_455
In0 Pb0 3.096007 1_555
In0 In6 3.146639 1_556
In0 Sr4 3.562052 1_565
In0 Sr4 3.562052 1_455
In0 Sr4 3.608560 1_465
In0 Sr1 3.723707 1_455
In0 Sr1 3.723707 1_565
In0 Sr5 3.813198 1_556
In1 In2 2.964641 1_655
In1 In2 2.964641 1_545
In1 Pb1 3.096007 1_555
In1 In5 3.146639 1_555
In1 Sr0 3.562052 1_655
In1 Sr0 3.562052 1_545
In1 Sr0 3.608560 1_645
In1 Sr2 3.723707 1_545
In1 Sr2 3.723707 1_655
In1 Sr3 3.813198 1_555
In2 In5 3.014306 1_555
In2 In4 3.146639 1_555
In2 Sr3 3.564269 1_455
In2 Sr3 3.564269 1_565
In2 Sr2 3.638592 1_555
In2 Sr0 3.748900 1_655
In2 Sr0 3.748900 1_545
In2 Sr0 3.857014 1_555
In3 In6 3.014306 1_556
In3 In7 3.146639 1_556
In3 Sr5 3.564269 1_546
In3 Sr5 3.564269 1_656
In3 Sr1 3.638592 1_555
In3 Sr4 3.748900 1_565
In3 Sr4 3.748900 1_455
In3 Sr4 3.857014 1_555
In4 In5 2.964641 1_565
In4 In5 2.964641 1_455
In4 Pb0 3.096007 1_555
In4 Sr3 3.562052 1_565
In4 Sr3 3.562052 1_455
In4 Sr3 3.608560 1_465
In4 Sr1 3.723707 1_455
In4 Sr1 3.723707 1_565
In4 Sr0 3.813198 1_555
In5 Sr0 3.564269 1_655
In5 Sr0 3.564269 1_545
In5 Sr1 3.638592 1_555
In5 Sr3 3.748900 1_455
In5 Sr3 3.748900 1_565
In5 Sr3 3.857014 1_555
In6 In7 2.964641 1_455
In6 In7 2.964641 1_565
In6 Sr4 3.564269 1_454
In6 Sr4 3.564269 1_564
In6 Sr2 3.638592 1_555
In6 Sr5 3.748900 1_545
In6 Sr5 3.748900 1_655
In6 Sr5 3.857014 1_555
In7 Pb1 3.096007 1_555
In7 Sr5 3.562052 1_655
In7 Sr5 3.562052 1_545
In7 Sr5 3.608560 1_645
In7 Sr2 3.723707 1_545
In7 Sr2 3.723707 1_655
In7 Sr4 3.813198 1_554
Pb0 Sr1 3.538226 1_555
Pb0 Sr4 3.548380 1_565
Pb0 Sr4 3.548380 1_455
Pb0 Sr3 3.548380 1_455
Pb0 Sr3 3.548380 1_565
Pb0 Sr1 3.598384 1_455
Pb0 Sr1 3.598384 1_565
Pb1 Sr2 3.538226 1_555
Pb1 Sr5 3.548380 1_655
Pb1 Sr5 3.548380 1_545
Pb1 Sr0 3.548380 1_655
Pb1 Sr0 3.548380 1_545
Pb1 Sr2 3.598384 1_545
Pb1 Sr2 3.598384 1_655
