# generated using pymatgen
data_LiAlSiH2O5
_symmetry_space_group_name_H-M   'P 1'
_cell_length_a   4.98654900
_cell_length_b   8.42732400
_cell_length_c   11.90981800
_cell_angle_alpha   90.00000000
_cell_angle_beta   90.00000000
_cell_angle_gamma   90.00000000
_symmetry_Int_Tables_number   1
_chemical_formula_structural   LiAlSiH2O5
_chemical_formula_sum   'Li4 Al4 Si4 H8 O20'
_cell_volume   500.48942678
_cell_formula_units_Z   4
loop_
 _symmetry_equiv_pos_site_id
 _symmetry_equiv_pos_as_xyz
  1  'x, y, z'
loop_
 _atom_site_type_symbol
 _atom_site_label
 _atom_site_symmetry_multiplicity
 _atom_site_fract_x
 _atom_site_fract_y
 _atom_site_fract_z
 _atom_site_occupancy
  Li  Li0  1  0.93031400  0.96965000  0.38637600  1
  Li  Li1  1  0.93031400  0.53035000  0.88637600  1
  Li  Li2  1  0.43031400  0.03035000  0.61362400  1
  Li  Li3  1  0.43031400  0.46965000  0.11362400  1
  Al  Al0  1  0.44723000  0.69082900  0.73574100  1
  Al  Al1  1  0.94723000  0.19082900  0.76425900  1
  Al  Al2  1  0.44723000  0.80917100  0.23574100  1
  Al  Al3  1  0.94723000  0.30917100  0.26425900  1
  Si  Si0  1  0.85763200  0.66407500  0.28627700  1
  Si  Si1  1  0.35763200  0.33592500  0.71372300  1
  Si  Si2  1  0.35763200  0.16407500  0.21372300  1
  Si  Si3  1  0.85763200  0.83592500  0.78627700  1
  H  H0  1  0.23189500  0.79624900  0.49939400  1
  H  H1  1  0.46506300  0.15509100  0.43723700  1
  H  H2  1  0.96506300  0.84490900  0.56276300  1
  H  H3  1  0.73189500  0.29624900  0.00060600  1
  H  H4  1  0.73189500  0.20375100  0.50060600  1
  H  H5  1  0.46506300  0.34490900  0.93723700  1
  H  H6  1  0.96506300  0.65509100  0.06276300  1
  H  H7  1  0.23189500  0.70375100  0.99939400  1
  O  O0  1  0.65355200  0.71859400  0.85961800  1
  O  O1  1  0.15933000  0.34399400  0.82962500  1
  O  O2  1  0.65933000  0.65600600  0.17037500  1
  O  O3  1  0.65355200  0.78140600  0.35961800  1
  O  O4  1  0.12733100  0.61273000  0.02451800  1
  O  O5  1  0.61527800  0.27793100  0.23321000  1
  O  O6  1  0.11527800  0.77793100  0.26679000  1
  O  O7  1  0.15355200  0.21859400  0.64038200  1
  O  O8  1  0.45227400  0.50703000  0.66916700  1
  O  O9  1  0.15355200  0.28140600  0.14038200  1
  O  O10  1  0.45227400  0.99297000  0.16916700  1
  O  O11  1  0.11527800  0.72206900  0.76679000  1
  O  O12  1  0.95227400  0.00703000  0.83083300  1
  O  O13  1  0.62733100  0.11273000  0.47548200  1
  O  O14  1  0.65933000  0.84399400  0.67037500  1
  O  O15  1  0.61527800  0.22206900  0.73321000  1
  O  O16  1  0.15933000  0.15600600  0.32962500  1
  O  O17  1  0.12733100  0.88727000  0.52451800  1
  O  O18  1  0.62733100  0.38727000  0.97548200  1
  O  O19  1  0.95227400  0.49297000  0.33083300  1
loop_
_geom_bond_atom_site_label_1
_geom_bond_atom_site_label_2
_geom_bond_distance
_geom_bond_site_symmetry_2
Li0 O17 2.038133 1_655
Li0 O16 2.056067 1_665
Li0 O3 2.126698 1_555
Li0 O13 2.205168 1_565
Li0 O6 2.342988 1_655
Li1 O4 2.038133 1_656
Li1 O1 2.056067 1_655
Li1 O0 2.126698 1_555
Li1 O18 2.205168 1_555
Li1 O11 2.342988 1_655
Li2 O13 2.038133 1_555
Li2 O14 2.056067 1_545
Li2 O7 2.126698 1_555
Li2 O17 2.205168 1_545
Li2 O15 2.342988 1_555
Li3 O18 2.038133 1_554
Li3 O2 2.056067 1_555
Li3 O9 2.126698 1_555
Li3 O4 2.205168 1_555
Li3 O5 2.342988 1_555
Al0 O11 1.716408 1_555
Al0 O8 1.740257 1_555
Al0 O0 1.813812 1_555
Al0 O14 1.841403 1_555
Al1 O15 1.716408 1_555
Al1 O12 1.740257 1_555
Al1 O7 1.813812 1_655
Al1 O1 1.841403 1_655
Al2 O6 1.716408 1_555
Al2 O10 1.740257 1_555
Al2 O3 1.813812 1_555
Al2 O2 1.841403 1_555
Al3 O5 1.716408 1_555
Al3 O19 1.740257 1_555
Al3 O9 1.813812 1_655
Al3 O16 1.841403 1_655
H0 O17 0.974573 1_555
H1 O13 0.994811 1_555
H2 O17 0.994811 1_655
H3 O18 0.974573 1_554
H4 O13 0.974573 1_555
H5 O18 0.994811 1_555
H6 O4 0.994811 1_655
H7 O4 0.974573 1_556
O0 Si3 1.666218 1_555
O1 Si1 1.699370 1_555
O2 Si0 1.699370 1_555
O3 Si0 1.666218 1_555
O5 Si2 1.620224 1_555
O6 Si0 1.620224 1_455
O7 Si1 1.666218 1_555
O8 Si1 1.607345 1_555
O9 Si2 1.666218 1_555
O10 Si2 1.607345 1_565
O11 Si3 1.620224 1_455
O12 Si3 1.607345 1_545
O14 Si3 1.699370 1_555
O15 Si1 1.620224 1_555
O16 Si2 1.699370 1_555
O19 Si0 1.607345 1_555
