# generated using pymatgen
data_Ce6Th4O19
_symmetry_space_group_name_H-M   'P 1'
_cell_length_a   10.35975638
_cell_length_b   10.35975638
_cell_length_c   6.81465664
_cell_angle_alpha   83.74386917
_cell_angle_beta   83.74386917
_cell_angle_gamma   141.57615604
_symmetry_Int_Tables_number   1
_chemical_formula_structural   Ce6Th4O19
_chemical_formula_sum   'Ce6 Th4 O19'
_cell_volume   428.88597409
_cell_formula_units_Z   1
loop_
 _symmetry_equiv_pos_site_id
 _symmetry_equiv_pos_as_xyz
  1  'x, y, z'
loop_
 _atom_site_type_symbol
 _atom_site_label
 _atom_site_symmetry_multiplicity
 _atom_site_fract_x
 _atom_site_fract_y
 _atom_site_fract_z
 _atom_site_occupancy
  Ce  Ce0  1  0.02543400  0.02543400  0.99555400  1
  Ce  Ce1  1  0.49583000  0.49583000  0.52477500  1
  Ce  Ce2  1  0.09407100  0.90019300  0.49766000  1
  Ce  Ce3  1  0.60112900  0.38956600  0.99516400  1
  Ce  Ce4  1  0.90019300  0.09407100  0.49766000  1
  Ce  Ce5  1  0.38956600  0.60112900  0.99516400  1
  Th  Th0  1  0.79822400  0.19202300  0.00030100  1
  Th  Th1  1  0.69926700  0.30197000  0.49573300  1
  Th  Th2  1  0.30197000  0.69926700  0.49573300  1
  Th  Th3  1  0.19202300  0.79822400  0.00030100  1
  O  O0  1  0.23011800  0.02932100  0.12435500  1
  O  O1  1  0.82289100  0.41885100  0.12264400  1
  O  O2  1  0.41885100  0.82289100  0.12264400  1
  O  O3  1  0.72462700  0.52323100  0.62954700  1
  O  O4  1  0.49199400  0.30800800  0.35435600  1
  O  O5  1  0.31789900  0.92929300  0.62145400  1
  O  O6  1  0.02932100  0.23011800  0.12435500  1
  O  O7  1  0.07007100  0.67224500  0.37513900  1
  O  O8  1  0.92929300  0.31789900  0.62145400  1
  O  O9  1  0.67224500  0.07007100  0.37513900  1
  O  O10  1  0.94539500  0.76242000  0.89977200  1
  O  O11  1  0.52323100  0.72462700  0.62954700  1
  O  O12  1  0.30800800  0.49199400  0.35435600  1
  O  O13  1  0.57589500  0.17346800  0.87079500  1
  O  O14  1  0.12948200  0.12948200  0.62879700  1
  O  O15  1  0.17346800  0.57589500  0.87079500  1
  O  O16  1  0.85833300  0.85833300  0.35891300  1
  O  O17  1  0.76242000  0.94539500  0.89977200  1
  O  O18  1  0.39375300  0.39375300  0.89312500  1
loop_
_geom_bond_atom_site_label_1
_geom_bond_atom_site_label_2
_geom_bond_distance
_geom_bond_site_symmetry_2
Ce0 O17 2.345936 1_445
Ce0 O10 2.345936 1_445
Ce0 O6 2.355423 1_556
Ce0 O0 2.355423 1_556
Ce0 O16 2.358161 1_446
Ce0 O14 2.361260 1_555
Ce0 O18 2.373275 1_555
Ce1 O12 2.349001 1_555
Ce1 O4 2.349001 1_555
Ce1 O16 2.352848 1_555
Ce1 O11 2.359521 1_555
Ce1 O3 2.359521 1_555
Ce1 O14 2.359798 1_555
Ce1 O18 2.372401 1_555
Ce2 O5 2.359210 1_555
Ce2 O14 2.396735 1_565
Ce2 O0 2.402143 1_565
Ce2 O3 2.402713 1_455
Ce2 O7 2.427044 1_555
Ce2 O16 2.445308 1_455
Ce2 O10 2.588753 1_455
Ce2 O4 2.594452 1_565
Ce3 O13 2.311568 1_555
Ce3 O10 2.329090 1_555
Ce3 O4 2.330889 1_556
Ce3 O1 2.350555 1_556
Ce3 O3 2.353633 1_555
Ce3 O0 2.355195 1_556
Ce3 O18 2.359218 1_555
Ce4 O8 2.359210 1_555
Ce4 O14 2.396735 1_655
Ce4 O6 2.402143 1_655
Ce4 O11 2.402713 1_545
Ce4 O9 2.427044 1_555
Ce4 O16 2.445308 1_545
Ce4 O17 2.588753 1_545
Ce4 O12 2.594452 1_655
Ce5 O15 2.311568 1_555
Ce5 O17 2.329090 1_555
Ce5 O12 2.330889 1_556
Ce5 O2 2.350555 1_556
Ce5 O11 2.353633 1_555
Ce5 O6 2.355195 1_556
Ce5 O18 2.359218 1_555
O0 Th3 2.373933 1_545
O1 Th1 2.400020 1_555
O1 Th3 2.409793 1_655
O1 Th0 2.411405 1_555
O2 Th2 2.400020 1_555
O2 Th0 2.409793 1_565
O2 Th3 2.411405 1_555
O3 Th1 2.391441 1_555
O4 Th1 2.488216 1_555
O5 Th1 2.427000 1_565
O5 Th3 2.436656 1_556
O5 Th2 2.509903 1_555
O6 Th0 2.373933 1_455
O7 Th1 2.383848 1_455
O7 Th3 2.410580 1_555
O7 Th2 2.439673 1_555
O8 Th2 2.427000 1_655
O8 Th0 2.436656 1_556
O8 Th1 2.509903 1_555
O9 Th2 2.383848 1_545
O9 Th0 2.410580 1_555
O9 Th1 2.439673 1_555
O10 Th3 2.467164 1_656
O11 Th2 2.391441 1_555
O12 Th2 2.488216 1_555
O13 Th1 2.412251 1_555
O13 Th0 2.430467 1_556
O13 Th3 2.443407 1_546
O15 Th2 2.412251 1_555
O15 Th3 2.430467 1_556
O15 Th0 2.443407 1_456
O17 Th0 2.467164 1_566
