# generated using pymatgen
data_CrPC5Br3O5
_symmetry_space_group_name_H-M   'P 1'
_cell_length_a   6.79379900
_cell_length_b   6.91411695
_cell_length_c   13.82913796
_cell_angle_alpha   88.01887074
_cell_angle_beta   87.18002771
_cell_angle_gamma   87.78222657
_symmetry_Int_Tables_number   1
_chemical_formula_structural   CrPC5Br3O5
_chemical_formula_sum   'Cr2 P2 C10 Br6 O10'
_cell_volume   647.97778508
_cell_formula_units_Z   2
loop_
 _symmetry_equiv_pos_site_id
 _symmetry_equiv_pos_as_xyz
  1  'x, y, z'
loop_
 _atom_site_type_symbol
 _atom_site_label
 _atom_site_symmetry_multiplicity
 _atom_site_fract_x
 _atom_site_fract_y
 _atom_site_fract_z
 _atom_site_occupancy
  Cr  Cr0  1  0.77889000  0.21996800  0.32729900  1
  Cr  Cr1  1  0.22111000  0.78003200  0.67270100  1
  P  P0  1  0.32309900  0.81551400  0.82821900  1
  P  P1  1  0.67690100  0.18448600  0.17178100  1
  C  C0  1  0.02109100  0.08013200  0.29390300  1
  C  C1  1  0.33845400  0.01679200  0.62767500  1
  C  C2  1  0.89484400  0.45850300  0.28313100  1
  C  C3  1  0.87689600  0.25026200  0.45232700  1
  C  C4  1  0.66154600  0.98320800  0.37232500  1
  C  C5  1  0.53523500  0.35313200  0.36602800  1
  C  C6  1  0.46476500  0.64686800  0.63397200  1
  C  C7  1  0.97890900  0.91986800  0.70609700  1
  C  C8  1  0.10515600  0.54149700  0.71686900  1
  C  C9  1  0.12310400  0.74973800  0.54767300  1
  Br  Br0  1  0.58622600  0.63415700  0.87421700  1
  Br  Br1  1  0.10780700  0.73723700  0.95127000  1
  Br  Br2  1  0.41377400  0.36584300  0.12578300  1
  Br  Br3  1  0.89219300  0.26276300  0.04873000  1
  Br  Br4  1  0.40261700  0.10977200  0.87217700  1
  Br  Br5  1  0.59738300  0.89022800  0.12782300  1
  O  O0  1  0.03267700  0.39921600  0.74378900  1
  O  O1  1  0.61375700  0.57242400  0.60922900  1
  O  O2  1  0.96732300  0.60078400  0.25621100  1
  O  O3  1  0.16994300  0.99759000  0.27704100  1
  O  O4  1  0.05852200  0.73493900  0.47247200  1
  O  O5  1  0.59006700  0.84192500  0.40168500  1
  O  O6  1  0.40993300  0.15807500  0.59831500  1
  O  O7  1  0.94147800  0.26506100  0.52752800  1
  O  O8  1  0.38624300  0.42757600  0.39077100  1
  O  O9  1  0.83005700  0.00241000  0.72295900  1
loop_
_geom_bond_atom_site_label_1
_geom_bond_atom_site_label_2
_geom_bond_distance
_geom_bond_site_symmetry_2
Cr0 P1 2.315594 1_555
Cr1 P0 2.315594 1_555
C0 O3 1.159344 1_545
C0 Cr0 1.920574 1_455
C1 O6 1.159654 1_555
C1 Cr1 1.919550 1_545
C2 O2 1.158857 1_555
C2 Cr0 1.922830 1_555
C3 O7 1.157685 1_555
C3 Cr0 1.904169 1_555
C4 O5 1.159654 1_555
C4 Cr0 1.919550 1_565
C5 O8 1.159474 1_555
C5 Cr0 1.924481 1_555
C6 O1 1.159474 1_555
C6 Cr1 1.924481 1_555
C7 O9 1.159344 1_565
C7 Cr1 1.920574 1_655
C8 O0 1.158857 1_555
C8 Cr1 1.922830 1_555
C9 O4 1.157685 1_555
C9 Cr1 1.904169 1_555
Br0 P0 2.248521 1_555
Br1 P0 2.254039 1_555
Br2 P1 2.248521 1_555
Br3 P1 2.254039 1_555
Br4 P0 2.236876 1_545
Br5 P1 2.236876 1_565
