# generated using pymatgen
data_H8PtO6
_symmetry_space_group_name_H-M   'P 1'
_cell_length_a   5.57288100
_cell_length_b   5.57829422
_cell_length_c   7.33712762
_cell_angle_alpha   87.96834248
_cell_angle_beta   87.11439364
_cell_angle_gamma   82.96113059
_symmetry_Int_Tables_number   1
_chemical_formula_structural   H8PtO6
_chemical_formula_sum   'H16 Pt2 O12'
_cell_volume   225.98576001
_cell_formula_units_Z   2
loop_
 _symmetry_equiv_pos_site_id
 _symmetry_equiv_pos_as_xyz
  1  'x, y, z'
loop_
 _atom_site_type_symbol
 _atom_site_label
 _atom_site_symmetry_multiplicity
 _atom_site_fract_x
 _atom_site_fract_y
 _atom_site_fract_z
 _atom_site_occupancy
  H  H0  1  0.60081800  0.92622500  0.82591100  1
  H  H1  1  0.10803000  0.36854800  0.64805000  1
  H  H2  1  0.86515900  0.24644100  0.74405200  1
  H  H3  1  0.37290700  0.12883500  0.14536600  1
  H  H4  1  0.52216400  0.85172200  0.15254900  1
  H  H5  1  0.12716500  0.75009900  0.24443600  1
  H  H6  1  0.15923400  0.47839800  0.33851200  1
  H  H7  1  0.54862300  0.54407500  0.00630500  1
  H  H8  1  0.42416200  0.46111900  0.51060300  1
  H  H9  1  0.41046300  0.24265800  0.90151400  1
  H  H10  1  0.75465900  0.60766700  0.62039100  1
  H  H11  1  0.79041700  0.63753000  0.40668300  1
  H  H12  1  0.14562700  0.82939500  0.79739800  1
  H  H13  1  0.04400100  0.97736400  0.51890700  1
  H  H14  1  0.97195000  0.04260200  0.02034600  1
  H  H15  1  0.82721800  0.15540500  0.28641400  1
  Pt  Pt0  1  0.49175300  0.01549300  0.49655900  1
  Pt  Pt1  1  0.00205900  0.49187100  0.00006800  1
  O  O0  1  0.58320500  0.07964500  0.75022800  1
  O  O1  1  0.95459700  0.39432900  0.73934300  1
  O  O2  1  0.39983500  0.96424500  0.23077900  1
  O  O3  1  0.04368400  0.60038800  0.25942900  1
  O  O4  1  0.66094500  0.67052300  0.00069700  1
  O  O5  1  0.30323500  0.34864000  0.49199400  1
  O  O6  1  0.34584000  0.32494100  0.01702200  1
  O  O7  1  0.66406600  0.66400200  0.50862500  1
  O  O8  1  0.12998600  0.80853500  0.93424700  1
  O  O9  1  0.18314800  0.87238300  0.57701600  1
  O  O10  1  0.86340800  0.18331300  0.07755000  1
  O  O11  1  0.80922200  0.14412000  0.42610800  1
loop_
_geom_bond_atom_site_label_1
_geom_bond_atom_site_label_2
_geom_bond_distance
_geom_bond_site_symmetry_2
H0 O0 1.000811 1_565
H1 O1 1.058070 1_455
H1 O5 1.536485 1_555
H2 O1 1.013512 1_555
H3 O2 1.092303 1_545
H3 O6 1.416695 1_555
H4 O2 1.034152 1_555
H5 O3 1.004759 1_555
H6 O3 1.056716 1_555
H6 O5 1.525420 1_555
H7 O4 0.997304 1_555
H8 O5 0.992699 1_555
H9 O6 1.007456 1_556
H10 O7 1.005305 1_555
H11 O7 1.003187 1_555
H12 O8 1.007324 1_555
H12 O9 1.632965 1_555
H13 O9 1.015053 1_555
H14 O10 1.019605 1_555
H14 O8 1.612513 1_644
H15 O11 1.025267 1_555
H15 O10 1.540458 1_555
O0 Pt0 2.009803 1_555
O1 Pt1 2.045851 1_656
O2 Pt0 2.079148 1_565
O3 Pt1 2.049892 1_555
O4 Pt1 2.035207 1_655
O5 Pt0 2.019679 1_555
O6 Pt1 2.032636 1_555
O7 Pt0 2.075860 1_565
O8 Pt1 2.018739 1_556
O9 Pt0 2.035783 1_565
O10 Pt1 2.023661 1_655
O11 Pt0 2.026056 1_555
