# generated using pymatgen
data_H7O4
_symmetry_space_group_name_H-M   'P 1'
_cell_length_a   6.28750296
_cell_length_b   6.28750296
_cell_length_c   6.28750296
_cell_angle_alpha   126.59774645
_cell_angle_beta   114.96152833
_cell_angle_gamma   88.95699203
_symmetry_Int_Tables_number   1
_chemical_formula_structural   H7O4
_chemical_formula_sum   'H14 O8'
_cell_volume   171.36173128
_cell_formula_units_Z   2
loop_
 _symmetry_equiv_pos_site_id
 _symmetry_equiv_pos_as_xyz
  1  'x, y, z'
loop_
 _atom_site_type_symbol
 _atom_site_label
 _atom_site_symmetry_multiplicity
 _atom_site_fract_x
 _atom_site_fract_y
 _atom_site_fract_z
 _atom_site_occupancy
  H  H0  1  0.00000000  0.00000000  0.50000000  1
  H  H1  1  0.50000000  0.00000000  0.00000000  1
  H  H2  1  0.50000000  0.50000000  0.50000000  1
  H  H3  1  0.00000000  0.50000000  0.00000000  1
  H  H4  1  0.12373700  0.87373700  0.25000000  1
  H  H5  1  0.37626300  0.12626300  0.25000000  1
  H  H6  1  0.87626300  0.12626300  0.75000000  1
  H  H7  1  0.62373700  0.87373700  0.75000000  1
  H  H8  1  0.25000000  0.24350600  0.49350600  1
  H  H9  1  0.25000000  0.75649400  0.00649400  1
  H  H10  1  0.75000000  0.75649400  0.50649400  1
  H  H11  1  0.75000000  0.24350600  0.99350600  1
  H  H12  1  0.00000000  0.50000000  0.50000000  1
  H  H13  1  0.50000000  0.50000000  0.00000000  1
  O  O0  1  0.07002200  0.07868200  0.40056500  1
  O  O1  1  0.32188200  0.92131800  0.99133900  1
  O  O2  1  0.42997800  0.33054300  0.50866100  1
  O  O3  1  0.17811800  0.66945700  0.09943500  1
  O  O4  1  0.92997800  0.92131800  0.59943500  1
  O  O5  1  0.67811800  0.07868200  0.00866100  1
  O  O6  1  0.57002200  0.66945700  0.49133900  1
  O  O7  1  0.82188200  0.33054300  0.90056500  1
loop_
_geom_bond_atom_site_label_1
_geom_bond_atom_site_label_2
_geom_bond_distance
_geom_bond_site_symmetry_2
H0 O4 1.199371 1_445
H0 O0 1.199371 1_555
H1 O5 1.199373 1_555
H1 O1 1.199373 1_544
H2 O2 1.199375 1_555
H2 O6 1.199375 1_555
H3 O3 1.199375 1_555
H3 O7 1.199375 1_454
H4 O0 1.212506 1_565
H4 O3 1.212510 1_555
H5 O1 1.212509 1_544
H5 O2 1.212510 1_555
H6 O4 1.212506 1_545
H6 O7 1.212510 1_555
H7 O5 1.212509 1_566
H7 O6 1.212510 1_555
H8 O2 1.207668 1_555
H8 O0 1.207672 1_555
H9 O3 1.207668 1_555
H9 O1 1.207674 1_554
H10 O6 1.207668 1_555
H10 O4 1.207672 1_555
H11 O7 1.207668 1_555
H11 O5 1.207674 1_556
