# generated using pymatgen
data_Gd3Al7Ag2
_symmetry_space_group_name_H-M   'P 1'
_cell_length_a   9.36799143
_cell_length_b   9.36799143
_cell_length_c   9.36799158
_cell_angle_alpha   34.46692428
_cell_angle_beta   34.46692428
_cell_angle_gamma   34.46692665
_symmetry_Int_Tables_number   1
_chemical_formula_structural   Gd3Al7Ag2
_chemical_formula_sum   'Gd3 Al7 Ag2'
_cell_volume   234.89085256
_cell_formula_units_Z   1
loop_
 _symmetry_equiv_pos_site_id
 _symmetry_equiv_pos_as_xyz
  1  'x, y, z'
loop_
 _atom_site_type_symbol
 _atom_site_label
 _atom_site_symmetry_multiplicity
 _atom_site_fract_x
 _atom_site_fract_y
 _atom_site_fract_z
 _atom_site_occupancy
  Gd  Gd0  1  0.14274873  0.14274873  0.14274973  1
  Gd  Gd1  1  0.85725027  0.85725127  0.85725027  1
  Gd  Gd2  1  0.00000000  -0.00000000  0.00000000  1
  Al  Al0  1  0.58642536  0.58642536  0.07594974  1
  Al  Al1  1  0.41357464  0.92405026  0.41357464  1
  Al  Al2  1  0.58642536  0.07594974  0.58642536  1
  Al  Al3  1  0.07594974  0.58642536  0.58642536  1
  Al  Al4  1  0.41357364  0.41357464  0.92405026  1
  Al  Al5  1  0.50000000  0.50000000  0.50000000  1
  Al  Al6  1  0.92405026  0.41357464  0.41357464  1
  Ag  Ag0  1  0.33570930  0.33570930  0.33570930  1
  Ag  Ag1  1  0.66429070  0.66429070  0.66429070  1
loop_
_geom_bond_atom_site_label_1
_geom_bond_atom_site_label_2
_geom_bond_distance
_geom_bond_site_symmetry_2
Gd0 Gd1 3.444753 1_445
Gd0 Gd1 3.444757 1_544
Gd0 Gd1 3.444762 1_454
Gd0 Gd2 3.769760 1_555
Gd1 Gd2 3.769768 1_666
Al0 Al2 2.717268 1_564
Al0 Al3 2.717268 1_654
Al0 Al5 2.750635 1_555
Al0 Al2 2.833565 1_555
Al0 Al3 2.833565 1_555
Al0 Gd0 3.193632 1_565
Al0 Gd0 3.193632 1_655
Al0 Gd1 3.247009 1_554
Al0 Gd2 3.535639 1_655
Al0 Gd2 3.535639 1_565
Al1 Al4 2.717268 1_564
Al1 Al6 2.717268 1_465
Al1 Al5 2.750635 1_555
Al1 Al4 2.833565 1_555
Al1 Al6 2.833565 1_555
Al1 Gd1 3.193636 1_455
Al1 Gd1 3.193637 1_554
Al1 Gd0 3.247015 1_565
Al1 Gd2 3.535639 1_665
Al1 Gd2 3.535639 1_566
Al2 Al3 2.717268 1_645
Al2 Al5 2.750635 1_555
Al2 Al3 2.833565 1_555
Al2 Gd0 3.193630 1_655
Al2 Gd0 3.193635 1_556
Al2 Gd1 3.247007 1_545
Al2 Gd2 3.535639 1_556
Al2 Gd2 3.535639 1_655
Al3 Al5 2.750635 1_555
Al3 Gd0 3.193630 1_565
Al3 Gd0 3.193635 1_556
Al3 Gd1 3.247009 1_455
Al3 Gd2 3.535639 1_556
Al3 Gd2 3.535639 1_565
Al4 Al6 2.717265 1_456
Al4 Al5 2.750629 1_555
Al4 Al6 2.833568 1_555
Al4 Gd1 3.193632 1_545
Al4 Gd1 3.193632 1_455
Al4 Gd0 3.247009 1_556
Al4 Gd2 3.535642 1_566
Al4 Gd2 3.535647 1_656
Al5 Al6 2.750635 1_555
Al5 Gd1 3.266420 1_545
Al5 Gd0 3.266423 1_655
Al5 Gd0 3.266423 1_565
Al5 Gd1 3.266424 1_554
Al5 Gd1 3.266425 1_455
Al5 Gd0 3.266428 1_556
Al6 Gd1 3.193634 1_545
Al6 Gd1 3.193639 1_554
Al6 Gd0 3.247015 1_655
Al6 Gd2 3.535639 1_665
Al6 Gd2 3.535639 1_656
Ag0 Al0 2.683680 1_555
Ag0 Al3 2.683680 1_555
Ag0 Al2 2.683680 1_555
Ag0 Al1 2.745294 1_545
Ag0 Al6 2.745294 1_455
Ag0 Al4 2.745300 1_554
Ag0 Gd2 3.205389 1_556
Ag0 Gd2 3.205389 1_655
Ag0 Gd2 3.205389 1_565
Ag0 Ag1 3.207231 1_554
Ag0 Ag1 3.207231 1_545
Ag0 Ag1 3.207231 1_455
Ag1 Al6 2.683680 1_555
Ag1 Al1 2.683680 1_555
Ag1 Al4 2.683688 1_555
Ag1 Al2 2.745294 1_565
Ag1 Al3 2.745294 1_655
Ag1 Al0 2.745294 1_556
Ag1 Gd2 3.205389 1_665
Ag1 Gd2 3.205389 1_566
Ag1 Gd2 3.205389 1_656
