# generated using pymatgen
data_UO3
_symmetry_space_group_name_H-M   'P 1'
_cell_length_a   14.50997900
_cell_length_b   4.07455600
_cell_length_c   10.48608908
_cell_angle_alpha   82.52326339
_cell_angle_beta   90.00000000
_cell_angle_gamma   90.00000000
_symmetry_Int_Tables_number   1
_chemical_formula_structural   UO3
_chemical_formula_sum   'U10 O30'
_cell_volume   614.68464154
_cell_formula_units_Z   10
loop_
 _symmetry_equiv_pos_site_id
 _symmetry_equiv_pos_as_xyz
  1  'x, y, z'
loop_
 _atom_site_type_symbol
 _atom_site_label
 _atom_site_symmetry_multiplicity
 _atom_site_fract_x
 _atom_site_fract_y
 _atom_site_fract_z
 _atom_site_occupancy
  U  U0  1  0.49786000  0.34472000  0.33439700  1
  U  U1  1  0.23386900  0.20167600  0.19853400  1
  U  U2  1  0.48184300  0.99740000  0.00137200  1
  U  U3  1  0.21766900  0.16020400  0.65696100  1
  U  U4  1  0.95773000  0.38543900  0.30082600  1
  U  U5  1  0.99786000  0.65528000  0.66560300  1
  U  U6  1  0.71766900  0.83979600  0.34303900  1
  U  U7  1  0.45773000  0.61456100  0.69917400  1
  U  U8  1  0.98184300  0.00260000  0.99862800  1
  U  U9  1  0.73386900  0.79832400  0.80146600  1
  O  O0  1  0.14460700  0.66146400  0.65052000  1
  O  O1  1  0.47783200  0.29635500  0.52804600  1
  O  O2  1  0.72220200  0.90294500  0.17058100  1
  O  O3  1  0.72590900  0.19824000  0.70236800  1
  O  O4  1  0.01226200  0.57709500  0.86041900  1
  O  O5  1  0.71776900  0.77518200  0.51600400  1
  O  O6  1  0.08645000  0.35193400  0.28228200  1
  O  O7  1  0.36609300  0.00425900  0.07568300  1
  O  O8  1  0.86096600  0.69062000  0.70092800  1
  O  O9  1  0.93680600  0.90735000  0.22779700  1
  O  O10  1  0.45729500  0.53866900  0.91019300  1
  O  O11  1  0.73639400  0.45249600  0.92667200  1
  O  O12  1  0.64460700  0.33853600  0.34948000  1
  O  O13  1  0.21776900  0.22481800  0.48399600  1
  O  O14  1  0.82668600  0.35606400  0.34230300  1
  O  O15  1  0.51226200  0.42290500  0.13958100  1
  O  O16  1  0.97783200  0.70364500  0.47195400  1
  O  O17  1  0.58645000  0.64806600  0.71771800  1
  O  O18  1  0.23639400  0.54750400  0.07332800  1
  O  O19  1  0.32668600  0.64393600  0.65769700  1
  O  O20  1  0.43680600  0.09265000  0.77220300  1
  O  O21  1  0.53520000  0.84728500  0.32787600  1
  O  O22  1  0.03520000  0.15271500  0.67212400  1
  O  O23  1  0.22590900  0.80176000  0.29763200  1
  O  O24  1  0.60055700  0.98228600  0.93898100  1
  O  O25  1  0.36096600  0.30938000  0.29907200  1
  O  O26  1  0.86609300  0.99574100  0.92431700  1
  O  O27  1  0.10055700  0.01771400  0.06101900  1
  O  O28  1  0.22220200  0.09705500  0.82941900  1
  O  O29  1  0.95729500  0.46133100  0.08980700  1
loop_
_geom_bond_atom_site_label_1
_geom_bond_atom_site_label_2
_geom_bond_distance
_geom_bond_site_symmetry_2
O0 U5 2.135068 1_455
O0 U3 2.294336 1_555
O0 U3 2.300818 1_565
O1 U0 2.035329 1_555
O1 U7 2.364679 1_555
O2 U6 1.794375 1_555
O3 U9 1.818711 1_545
O4 U5 2.036924 1_455
O4 U8 2.440284 1_465
O4 U8 2.625209 1_455
O5 U6 1.798513 1_555
O6 U4 1.884610 1_455
O6 U1 2.421052 1_555
O7 U2 1.853233 1_545
O7 U1 2.501428 1_555
O8 U5 2.029121 1_555
O8 U9 2.196683 1_555
O9 U4 2.185643 1_555
O9 U4 2.204890 1_565
O9 U8 2.471796 1_564
O10 U7 2.194063 1_555
O10 U2 2.236009 1_556
O10 U2 2.314342 1_546
O11 U9 1.796994 1_555
O12 U0 2.135068 1_555
O12 U6 2.294336 1_555
O12 U6 2.300818 1_545
O13 U3 1.798513 1_555
O14 U4 1.950753 1_555
O14 U6 2.528049 1_555
O14 U6 2.631162 1_545
O15 U0 2.036924 1_555
O15 U2 2.440284 1_545
O15 U2 2.625209 1_555
O16 U5 2.035329 1_555
O16 U4 2.364679 1_555
O17 U7 1.884610 1_555
O17 U9 2.421052 1_555
O18 U1 1.796994 1_555
O19 U7 1.950753 1_555
O19 U3 2.528049 1_555
O19 U3 2.631162 1_565
O20 U7 2.185643 1_555
O20 U7 2.204890 1_545
O20 U2 2.471796 1_546
O21 U0 2.107681 1_565
O21 U0 2.110682 1_555
O21 U6 2.652329 1_555
O22 U5 2.107681 1_445
O22 U5 2.110682 1_455
O22 U3 2.652329 1_555
O23 U1 1.818711 1_565
O24 U2 1.846467 1_556
O24 U9 2.581514 1_555
O25 U0 2.029121 1_555
O25 U1 2.196683 1_555
O26 U8 1.853233 1_565
O26 U9 2.501428 1_555
O27 U8 1.846467 1_454
O27 U1 2.581514 1_555
O28 U3 1.794375 1_555
O29 U4 2.194063 1_555
O29 U8 2.236009 1_554
O29 U8 2.314342 1_564
