# generated using pymatgen
data_Ta6Co16Ge7
_symmetry_space_group_name_H-M   'P 1'
_cell_length_a   7.97581518
_cell_length_b   7.97580712
_cell_length_c   7.97581669
_cell_angle_alpha   60.00010001
_cell_angle_beta   60.00002757
_cell_angle_gamma   60.00008429
_symmetry_Int_Tables_number   1
_chemical_formula_structural   Ta6Co16Ge7
_chemical_formula_sum   'Ta6 Co16 Ge7'
_cell_volume   358.76542814
_cell_formula_units_Z   1
loop_
 _symmetry_equiv_pos_site_id
 _symmetry_equiv_pos_as_xyz
  1  'x, y, z'
loop_
 _atom_site_type_symbol
 _atom_site_label
 _atom_site_symmetry_multiplicity
 _atom_site_fract_x
 _atom_site_fract_y
 _atom_site_fract_z
 _atom_site_occupancy
  Ta  Ta0  1  0.70170101  0.29828695  0.29829461  1
  Ta  Ta1  1  0.70170080  0.29828594  0.70171989  1
  Ta  Ta2  1  0.29829577  0.70171477  0.70170882  1
  Ta  Ta3  1  0.29829656  0.70171543  0.29828127  1
  Ta  Ta4  1  0.29830099  0.29827920  0.70171052  1
  Ta  Ta5  1  0.70169967  0.70172478  0.29828770  1
  Co  Co0  1  0.88055194  0.88054912  0.88055481  1
  Co  Co1  1  0.99877271  0.33374267  0.33374270  1
  Co  Co2  1  0.11945517  0.11945329  0.64163609  1
  Co  Co3  1  0.66625102  0.66625588  0.00123874  1
  Co  Co4  1  0.33374483  0.33374185  0.99877217  1
  Co  Co5  1  0.66624991  0.66625458  0.66625225  1
  Co  Co6  1  0.33374431  0.33374136  0.33374096  1
  Co  Co7  1  0.88054953  0.88055109  0.35834731  1
  Co  Co8  1  0.33374461  0.99877385  0.33374110  1
  Co  Co9  1  0.11945615  0.11945411  0.11945412  1
  Co  Co10  1  0.88054888  0.35835057  0.88055260  1
  Co  Co11  1  0.64165090  0.11944967  0.11944874  1
  Co  Co12  1  0.11945621  0.64163536  0.11945299  1
  Co  Co13  1  0.66625232  0.00123704  0.66625504  1
  Co  Co14  1  0.35834278  0.88054920  0.88055233  1
  Co  Co15  1  0.00123757  0.66625503  0.66625340  1
  Ge  Ge0  1  0.50001182  0.50001287  -0.00001280  1
  Ge  Ge1  1  -0.00001317  0.50000928  -0.00000711  1
  Ge  Ge2  1  0.00000103  0.00000166  -0.00000086  1
  Ge  Ge3  1  0.50000681  -0.00001266  0.50001027  1
  Ge  Ge4  1  -0.00000556  -0.00000855  0.50000647  1
  Ge  Ge5  1  -0.00001355  0.50000969  0.50001122  1
  Ge  Ge6  1  0.50000700  -0.00001304  -0.00000433  1
loop_
_geom_bond_atom_site_label_1
_geom_bond_atom_site_label_2
_geom_bond_distance
_geom_bond_site_symmetry_2
Co0 Ge2 2.333628 1_666
Co0 Ge1 2.480275 1_656
Co0 Ge6 2.480309 1_566
Co0 Ge4 2.480331 1_665
Co0 Co3 2.529852 1_556
Co0 Co15 2.529857 1_655
Co0 Co13 2.529881 1_565
Co0 Co11 2.694642 1_566
Co0 Co12 2.694691 1_656
Co0 Co2 2.694715 1_665
Co0 Ta5 2.774817 1_556
Co0 Ta1 2.774851 1_565
Co0 Ta2 2.774881 1_655
Co1 Ge4 2.302507 1_655
Co1 Ge5 2.302509 1_655
Co1 Ge1 2.302517 1_655
Co1 Co12 2.529736 1_655
Co1 Co2 2.529740 1_655
Co1 Co9 2.529741 1_655
Co1 Ta0 2.682123 1_555
Co1 Ta1 2.682134 1_555
Co1 Ta5 2.682161 1_555
Co2 Ge2 2.333743 1_556
Co2 Ge3 2.480340 1_555
Co2 Ge4 2.480341 1_555
Co2 Ge5 2.480370 1_555
Co2 Co8 2.529735 1_545
Co2 Co6 2.529748 1_555
Co2 Ta2 2.774831 1_545
Co2 Ta4 2.774878 1_555
Co2 Ta1 2.774926 1_455
Co3 Ge0 2.302316 1_555
Co3 Ge6 2.302319 1_565
Co3 Ge1 2.302347 1_655
Co3 Ta3 2.681934 1_555
Co3 Ta5 2.682010 1_555
Co3 Ta0 2.682046 1_555
Co4 Ge6 2.302528 1_556
Co4 Ge0 2.302532 1_556
Co4 Ge1 2.302558 1_556
Co4 Co9 2.529740 1_556
Co4 Ta1 2.681971 1_555
Co4 Ta4 2.682057 1_555
Co4 Ta2 2.682088 1_555
Co5 Ge0 2.302320 1_556
Co5 Ge3 2.302323 1_565
Co5 Ge5 2.302341 1_655
Co5 Co7 2.529851 1_555
Co5 Ta2 2.681915 1_555
Co5 Ta5 2.681988 1_555
Co5 Ta1 2.682022 1_555
Co6 Ge3 2.302527 1_555
Co6 Ge0 2.302542 1_555
Co6 Ge5 2.302559 1_555
Co6 Ta0 2.681985 1_555
Co6 Ta4 2.682073 1_555
Co6 Ta3 2.682099 1_555
Co7 Ge2 2.333646 1_665
Co7 Ge5 2.480285 1_655
Co7 Ge3 2.480294 1_565
Co7 Ge4 2.480300 1_665
Co7 Co9 2.694728 1_665
Co7 Ta5 2.774827 1_555
Co7 Ta0 2.774840 1_565
Co7 Ta3 2.774900 1_655
Co8 Ge3 2.302482 1_565
Co8 Ge6 2.302488 1_565
Co8 Ge4 2.302510 1_565
Co8 Co9 2.529741 1_565
Co8 Ta5 2.681958 1_555
Co8 Ta3 2.682035 1_555
Co8 Ta2 2.682050 1_555
Co9 Ge2 2.333736 1_555
Co9 Ge6 2.480335 1_555
Co9 Ge4 2.480346 1_555
Co9 Ge1 2.480362 1_555
Co9 Ta3 2.774836 1_545
Co9 Ta4 2.774867 1_554
Co9 Ta0 2.774934 1_455
Co10 Ge2 2.333650 1_656
Co10 Ge1 2.480252 1_656
Co10 Ge0 2.480257 1_556
Co10 Ge5 2.480285 1_655
Co10 Co3 2.529830 1_556
Co10 Co15 2.529836 1_655
Co10 Co5 2.529865 1_555
Co10 Co11 2.694667 1_556
Co10 Co9 2.694727 1_656
Co10 Co2 2.694751 1_655
Co10 Ta0 2.774869 1_556
Co10 Ta1 2.774888 1_555
Co10 Ta4 2.774927 1_655
Co11 Ge2 2.333658 1_655
Co11 Ge6 2.480394 1_555
Co11 Ge3 2.480410 1_555
Co11 Ge0 2.480417 1_555
Co11 Co8 2.529794 1_545
Co11 Co4 2.529798 1_554
Co11 Co6 2.529802 1_555
Co11 Co7 2.694662 1_545
Co11 Ta5 2.774771 1_545
Co11 Ta1 2.774799 1_554
Co11 Ta0 2.774823 1_555
Co12 Ge2 2.333763 1_565
Co12 Ge1 2.480362 1_555
Co12 Ge0 2.480365 1_555
Co12 Ge5 2.480383 1_555
Co12 Co4 2.529730 1_554
Co12 Co6 2.529743 1_555
Co12 Co14 2.694676 1_554
Co12 Co7 2.694730 1_455
Co12 Ta2 2.774862 1_554
Co12 Ta3 2.774889 1_555
Co12 Ta5 2.774932 1_455
Co13 Ge3 2.302365 1_555
Co13 Ge6 2.302370 1_556
Co13 Ge4 2.302390 1_655
Co13 Co7 2.529846 1_545
Co13 Co14 2.529866 1_545
Co13 Ta4 2.681918 1_555
Co13 Ta1 2.681986 1_555
Co13 Ta0 2.681987 1_555
Co14 Ge2 2.333604 1_566
Co14 Ge0 2.480254 1_556
Co14 Ge3 2.480290 1_565
Co14 Ge6 2.480307 1_566
Co14 Co5 2.529849 1_555
Co14 Co3 2.529854 1_556
Co14 Co2 2.694699 1_565
Co14 Co9 2.694711 1_566
Co14 Ta2 2.774770 1_555
Co14 Ta3 2.774804 1_556
Co14 Ta4 2.774815 1_565
Co15 Ge5 2.302351 1_555
Co15 Ge4 2.302356 1_565
Co15 Ge1 2.302362 1_556
Co15 Co7 2.529847 1_455
Co15 Ta3 2.682070 1_555
Co15 Ta2 2.682071 1_555
Co15 Ta4 2.682101 1_555
Ge0 Ta1 2.871966 1_554
Ge0 Ta2 2.871969 1_554
Ge0 Ta3 2.871980 1_555
Ge0 Ta0 2.871987 1_555
Ge1 Ta0 2.872045 1_455
Ge1 Ta5 2.872049 1_455
Ge1 Ta4 2.872074 1_554
Ge1 Ta2 2.872079 1_554
Ge3 Ta2 2.871902 1_545
Ge3 Ta5 2.871906 1_545
Ge3 Ta4 2.871962 1_555
Ge3 Ta0 2.871969 1_555
Ge4 Ta3 2.872004 1_545
Ge4 Ta2 2.872019 1_545
Ge4 Ta0 2.872038 1_455
Ge4 Ta1 2.872044 1_455
Ge5 Ta1 2.872049 1_455
Ge5 Ta5 2.872052 1_455
Ge5 Ta4 2.872085 1_555
Ge5 Ta3 2.872088 1_555
Ge6 Ta3 2.871896 1_545
Ge6 Ta5 2.871909 1_545
Ge6 Ta4 2.871962 1_554
Ge6 Ta1 2.871963 1_554
