# generated using pymatgen
data_CdI2
_symmetry_space_group_name_H-M   'P 1'
_cell_length_a   4.28486061
_cell_length_b   4.28486027
_cell_length_c   78.63030674
_cell_angle_alpha   90.00000000
_cell_angle_beta   90.00000000
_cell_angle_gamma   119.99999457
_symmetry_Int_Tables_number   1
_chemical_formula_structural   CdI2
_chemical_formula_sum   'Cd11 I22'
_cell_volume   1250.24172146
_cell_formula_units_Z   11
loop_
 _symmetry_equiv_pos_site_id
 _symmetry_equiv_pos_as_xyz
  1  'x, y, z'
loop_
 _atom_site_type_symbol
 _atom_site_label
 _atom_site_symmetry_multiplicity
 _atom_site_fract_x
 _atom_site_fract_y
 _atom_site_fract_z
 _atom_site_occupancy
  Cd  Cd0  1  0.66666700  0.33333300  0.20438480  1
  Cd  Cd1  1  0.00000000  -0.00000000  0.84081045  1
  Cd  Cd2  1  0.66666700  0.33333300  0.02232436  1
  Cd  Cd3  1  0.00000000  -0.00000000  0.93154479  1
  Cd  Cd4  1  0.00000000  -0.00000000  0.29537825  1
  Cd  Cd5  1  0.66666700  0.33333300  0.38668393  1
  Cd  Cd6  1  0.00000000  0.00000000  0.56844827  1
  Cd  Cd7  1  0.00000000  -0.00000000  0.11346576  1
  Cd  Cd8  1  0.66666700  0.33333300  0.47767752  1
  Cd  Cd9  1  0.00000000  -0.00000000  0.65916697  1
  Cd  Cd10  1  0.00000000  -0.00000000  0.75005216  1
  I  I0  1  0.33333300  0.66666700  0.59036344  1
  I  I1  1  0.00000000  -0.00000000  0.45576570  1
  I  I2  1  0.33333300  0.66666700  0.40863938  1
  I  I3  1  0.00000000  -0.00000000  0.18261395  1
  I  I4  1  0.33333300  0.66666700  0.86268771  1
  I  I5  1  0.33333300  0.66666700  0.95344860  1
  I  I6  1  0.66666700  0.33333300  0.27344573  1
  I  I7  1  0.33333300  0.66666700  0.77192654  1
  I  I8  1  0.33333300  0.66666700  0.04423694  1
  I  I9  1  0.33333300  0.66666700  0.22621664  1
  I  I10  1  0.66666700  0.33333300  0.09160357  1
  I  I11  1  0.00000000  -0.00000000  0.00041857  1
  I  I12  1  0.33333300  0.66666700  0.31732770  1
  I  I13  1  0.66666700  0.33333300  0.54653885  1
  I  I14  1  0.66666700  0.33333300  0.72820233  1
  I  I15  1  0.00000000  -0.00000000  0.36472642  1
  I  I16  1  0.33333300  0.66666700  0.68102389  1
  I  I17  1  0.66666700  0.33333300  0.90963455  1
  I  I18  1  0.66666700  0.33333300  0.81896336  1
  I  I19  1  0.33333300  0.66666700  0.13539080  1
  I  I20  1  0.66666700  0.33333300  0.63730330  1
  I  I21  1  0.33333300  0.66666700  0.49958578  1
loop_
_geom_bond_atom_site_label_1
_geom_bond_atom_site_label_2
_geom_bond_distance
_geom_bond_site_symmetry_2
Cd0 I3 3.008392 1_655
Cd0 I3 3.008395 1_665
Cd0 I3 3.008395 1_555
Cd0 I9 3.011124 1_545
Cd0 I9 3.011124 1_655
Cd0 I9 3.011130 1_555
Cd1 I18 3.011807 1_455
Cd1 I18 3.011810 1_445
Cd1 I18 3.011811 1_555
Cd1 I4 3.013161 1_545
Cd1 I4 3.013164 1_555
Cd1 I4 3.013164 1_445
Cd2 I11 3.014442 1_655
Cd2 I11 3.014445 1_665
Cd2 I11 3.014446 1_555
Cd2 I8 3.014747 1_545
Cd2 I8 3.014748 1_655
Cd2 I8 3.014753 1_555
Cd3 I5 3.014353 1_545
Cd3 I5 3.014356 1_555
Cd3 I5 3.014357 1_445
Cd3 I17 3.014642 1_455
Cd3 I17 3.014645 1_445
Cd3 I17 3.014645 1_555
Cd4 I6 3.015644 1_455
Cd4 I6 3.015647 1_445
Cd4 I6 3.015647 1_555
Cd4 I12 3.016405 1_545
Cd4 I12 3.016408 1_555
Cd4 I12 3.016408 1_445
Cd5 I2 3.016675 1_545
Cd5 I2 3.016675 1_655
Cd5 I2 3.016681 1_555
Cd5 I15 3.016768 1_655
Cd5 I15 3.016771 1_665
Cd5 I15 3.016771 1_555
Cd6 I13 3.014605 1_455
Cd6 I13 3.014608 1_445
Cd6 I13 3.014609 1_555
Cd6 I0 3.014864 1_545
Cd6 I0 3.014867 1_555
Cd6 I0 3.014867 1_445
Cd7 I10 3.012485 1_455
Cd7 I10 3.012488 1_445
Cd7 I10 3.012488 1_555
Cd7 I19 3.015307 1_545
Cd7 I19 3.015311 1_555
Cd7 I19 3.015311 1_445
Cd8 I21 3.014553 1_545
Cd8 I21 3.014553 1_655
Cd8 I21 3.014559 1_555
Cd8 I1 3.014713 1_655
Cd8 I1 3.014716 1_665
Cd8 I1 3.014716 1_555
Cd9 I16 3.012248 1_545
Cd9 I16 3.012251 1_555
Cd9 I16 3.012251 1_445
Cd9 I20 3.012551 1_455
Cd9 I20 3.012554 1_445
Cd9 I20 3.012554 1_555
Cd10 I14 3.011930 1_455
Cd10 I14 3.011933 1_445
Cd10 I14 3.011933 1_555
Cd10 I7 3.013032 1_545
Cd10 I7 3.013035 1_555
Cd10 I7 3.013035 1_445
