# generated using pymatgen
data_H7ClO3
_symmetry_space_group_name_H-M   'P 1'
_cell_length_a   6.25597943
_cell_length_b   6.25597943
_cell_length_c   6.67488348
_cell_angle_alpha   70.89281181
_cell_angle_beta   70.89281181
_cell_angle_gamma   106.65964124
_symmetry_Int_Tables_number   1
_chemical_formula_structural   H7ClO3
_chemical_formula_sum   'H14 Cl2 O6'
_cell_volume   209.32821440
_cell_formula_units_Z   2
loop_
 _symmetry_equiv_pos_site_id
 _symmetry_equiv_pos_as_xyz
  1  'x, y, z'
loop_
 _atom_site_type_symbol
 _atom_site_label
 _atom_site_symmetry_multiplicity
 _atom_site_fract_x
 _atom_site_fract_y
 _atom_site_fract_z
 _atom_site_occupancy
  H  H0  1  0.80458054  0.82046926  0.55405828  1
  H  H1  1  0.68244344  0.92307070  0.39777622  1
  H  H2  1  0.82046926  0.80458054  0.05405828  1
  H  H3  1  0.92307070  0.68244344  0.89777622  1
  H  H4  1  0.17839809  0.31036072  0.76075338  1
  H  H5  1  0.46501579  0.53431948  0.62019530  1
  H  H6  1  0.53431948  0.46501579  0.12019530  1
  H  H7  1  0.31036072  0.17839809  0.26075338  1
  H  H8  1  0.51609167  0.94901925  0.72387241  1
  H  H9  1  0.40921844  0.21079099  0.72427199  1
  H  H10  1  0.56760361  0.06667557  0.89101937  1
  H  H11  1  0.94901925  0.51609167  0.22387241  1
  H  H12  1  0.21079099  0.40921844  0.22427199  1
  H  H13  1  0.06667557  0.56760361  0.39101937  1
  Cl  Cl0  1  0.14270096  0.82101040  0.52523123  1
  Cl  Cl1  1  0.82101040  0.14270096  0.02523123  1
  O  O0  1  0.64088239  0.80967318  0.56199958  1
  O  O1  1  0.80967318  0.64088239  0.06199958  1
  O  O2  1  0.35543541  0.36331445  0.64587239  1
  O  O3  1  0.36331445  0.35543541  0.14587239  1
  O  O4  1  0.44963983  0.02198185  0.82685184  1
  O  O5  1  0.02198185  0.44963983  0.32685184  1
loop_
_geom_bond_atom_site_label_1
_geom_bond_atom_site_label_2
_geom_bond_distance
_geom_bond_site_symmetry_2
H0 O0 0.989240 1_555
H1 O0 0.985401 1_555
H2 O1 0.989240 1_555
H3 O1 0.985401 1_556
H4 O2 0.995852 1_555
H5 O2 1.013089 1_555
H5 O0 1.588774 1_555
H6 O3 1.013089 1_555
H6 O1 1.588774 1_555
H7 O3 0.995852 1_555
H8 O4 0.990348 1_565
H9 O2 1.126934 1_555
H9 O4 1.297347 1_555
H10 O4 0.986542 1_555
H11 O5 0.990348 1_655
H12 O3 1.126934 1_555
H12 O5 1.297347 1_555
H13 O5 0.986542 1_555
Cl0 H7 2.018577 1_565
Cl0 H0 2.059230 1_455
Cl0 H13 2.078061 1_555
Cl0 H3 2.119430 1_455
Cl1 H4 2.018577 1_654
Cl1 H2 2.059230 1_545
Cl1 H10 2.078061 1_554
Cl1 H1 2.119430 1_545
