# generated using pymatgen
data_KAl(H2N)4
_symmetry_space_group_name_H-M   'P 1'
_cell_length_a   6.04351249
_cell_length_b   6.04351249
_cell_length_c   11.42165300
_cell_angle_alpha   90.00000000
_cell_angle_beta   90.00000000
_cell_angle_gamma   115.10333991
_symmetry_Int_Tables_number   1
_chemical_formula_structural   KAl(H2N)4
_chemical_formula_sum   'K2 Al2 H16 N8'
_cell_volume   377.76124414
_cell_formula_units_Z   2
loop_
 _symmetry_equiv_pos_site_id
 _symmetry_equiv_pos_as_xyz
  1  'x, y, z'
loop_
 _atom_site_type_symbol
 _atom_site_label
 _atom_site_symmetry_multiplicity
 _atom_site_fract_x
 _atom_site_fract_y
 _atom_site_fract_z
 _atom_site_occupancy
  K  K0  1  0.21498900  0.78501100  0.25000000  1
  K  K1  1  0.78501100  0.21498900  0.75000000  1
  Al  Al0  1  0.65149000  0.65149000  0.50000000  1
  Al  Al1  1  0.34851000  0.34851000  0.00000000  1
  H  H0  1  0.29894300  0.72521900  0.71766500  1
  H  H1  1  0.27478100  0.70105700  0.78233500  1
  H  H2  1  0.70105700  0.27478100  0.21766500  1
  H  H3  1  0.72521900  0.29894300  0.28233500  1
  H  H4  1  0.89000100  0.61944800  0.45970600  1
  H  H5  1  0.38055200  0.10999900  0.04029400  1
  H  H6  1  0.10999900  0.38055200  0.95970600  1
  H  H7  1  0.61944800  0.89000100  0.54029400  1
  H  H8  1  0.05112100  0.14995100  0.14482200  1
  H  H9  1  0.85004900  0.94887900  0.35517800  1
  H  H10  1  0.94887900  0.85004900  0.64482200  1
  H  H11  1  0.14995100  0.05112100  0.85517800  1
  H  H12  1  0.77700400  0.88161600  0.30197700  1
  H  H13  1  0.11838400  0.22299600  0.19802300  1
  H  H14  1  0.22299600  0.11838400  0.80197700  1
  H  H15  1  0.88161600  0.77700400  0.69802300  1
  N  N0  1  0.37423600  0.48245200  0.39264600  1
  N  N1  1  0.51754800  0.62576400  0.10735400  1
  N  N2  1  0.62576400  0.51754800  0.89264600  1
  N  N3  1  0.48245200  0.37423600  0.60735400  1
  N  N4  1  0.29685500  0.19845300  0.59244300  1
  N  N5  1  0.80154700  0.70314500  0.90755700  1
  N  N6  1  0.70314500  0.80154700  0.09244300  1
  N  N7  1  0.19845300  0.29685500  0.40755700  1
loop_
_geom_bond_atom_site_label_1
_geom_bond_atom_site_label_2
_geom_bond_distance
_geom_bond_site_symmetry_2
K0 N0 2.901270 1_555
K0 N1 2.901270 1_555
K1 N2 2.901270 1_555
K1 N3 2.901270 1_555
Al0 H7 1.601221 1_555
Al0 H4 1.601221 1_555
Al0 N3 1.975416 1_555
Al0 N0 1.975416 1_555
Al1 H5 1.601221 1_555
Al1 H6 1.601221 1_554
Al1 N1 1.975416 1_555
Al1 N2 1.975416 1_554
H0 H1 0.755076 1_555
H2 H3 0.755076 1_555
H10 H15 0.759663 1_555
H11 H14 0.759663 1_555
H12 H9 0.759663 1_555
H13 H8 0.759663 1_555
N0 N7 1.185172 1_555
N1 N6 1.185172 1_555
N2 N5 1.185172 1_555
N3 N4 1.185172 1_555
