# generated using pymatgen
data_K2U2O7
_symmetry_space_group_name_H-M   'P 1'
_cell_length_a   6.91294572
_cell_length_b   7.05369211
_cell_length_c   7.95248090
_cell_angle_alpha   106.31591501
_cell_angle_beta   89.82157303
_cell_angle_gamma   99.51862179
_symmetry_Int_Tables_number   1
_chemical_formula_structural   K2U2O7
_chemical_formula_sum   'K4 U4 O14'
_cell_volume   366.65140067
_cell_formula_units_Z   2
loop_
 _symmetry_equiv_pos_site_id
 _symmetry_equiv_pos_as_xyz
  1  'x, y, z'
loop_
 _atom_site_type_symbol
 _atom_site_label
 _atom_site_symmetry_multiplicity
 _atom_site_fract_x
 _atom_site_fract_y
 _atom_site_fract_z
 _atom_site_occupancy
  K  K0  1  0.24079519  0.48412956  0.62456492  1
  K  K1  1  0.26302065  0.48938237  0.11901741  1
  K  K2  1  0.75920481  0.51587044  0.37543508  1
  K  K3  1  0.73697935  0.51061763  0.88098259  1
  U  U0  1  0.03208212  0.99301446  0.24641742  1
  U  U1  1  0.96791788  0.00698554  0.75358258  1
  U  U2  1  0.50000000  -0.00000000  -0.00000000  1
  U  U3  1  0.50000000  -0.00000000  0.50000000  1
  O  O0  1  0.06859293  0.27087365  0.31518579  1
  O  O1  1  0.18938651  0.02033746  0.55498825  1
  O  O2  1  0.01175146  0.28495113  0.82349181  1
  O  O3  1  0.18994479  0.02108462  0.95884239  1
  O  O4  1  0.55892155  0.28191578  0.08443211  1
  O  O5  1  0.44107845  0.71808422  0.91556789  1
  O  O6  1  0.36715854  0.97942512  0.24466915  1
  O  O7  1  0.55601588  0.28133391  0.55620746  1
  O  O8  1  0.44398412  0.71866609  0.44379254  1
  O  O9  1  0.81061349  0.97966254  0.44501175  1
  O  O10  1  0.63284146  0.02057488  0.75533085  1
  O  O11  1  0.93140707  0.72912635  0.68481421  1
  O  O12  1  0.81005521  0.97891538  0.04115761  1
  O  O13  1  0.98824854  0.71504887  0.17650819  1
loop_
_geom_bond_atom_site_label_1
_geom_bond_atom_site_label_2
_geom_bond_distance
_geom_bond_site_symmetry_2
K0 O0 2.660761 1_555
K0 O5 2.667263 1_555
K0 O8 2.707706 1_555
K0 O2 2.735136 1_555
K0 O7 2.770716 1_555
K0 O11 2.922538 1_455
K0 O1 3.120011 1_555
K1 O13 2.633730 1_455
K1 O4 2.676165 1_555
K1 O0 2.696025 1_555
K1 O5 2.744550 1_554
K1 O8 2.802733 1_555
K1 O2 2.812953 1_554
K1 O3 3.142776 1_554
K2 O11 2.660761 1_555
K2 O4 2.667263 1_555
K2 O7 2.707706 1_555
K2 O13 2.735136 1_555
K2 O8 2.770716 1_555
K2 O0 2.922538 1_655
K2 O9 3.120011 1_555
K3 O2 2.633730 1_655
K3 O5 2.676165 1_555
K3 O11 2.696025 1_555
K3 O4 2.744550 1_556
K3 O7 2.802733 1_555
K3 O13 2.812953 1_556
K3 O12 3.142776 1_556
O0 U0 1.854490 1_545
O1 U1 2.206332 1_455
O1 U3 2.209816 1_555
O1 U0 2.631137 1_545
O2 U1 1.853989 1_455
O3 U2 2.204663 1_556
O3 U1 2.214515 1_455
O3 U0 2.574415 1_546
O4 U2 1.885386 1_555
O5 U2 1.885386 1_566
O6 U2 2.180296 1_565
O6 U3 2.188454 1_565
O6 U0 2.333970 1_555
O7 U3 1.880505 1_555
O8 U3 1.880505 1_565
O9 U0 2.206332 1_655
O9 U3 2.209816 1_565
O9 U1 2.631137 1_565
O10 U2 2.180296 1_556
O10 U3 2.188454 1_555
O10 U1 2.333970 1_555
O11 U1 1.854490 1_565
O12 U2 2.204663 1_565
O12 U0 2.214515 1_655
O12 U1 2.574415 1_564
O13 U0 1.853989 1_655
