# generated using pymatgen
data_K3TiO4F3
_symmetry_space_group_name_H-M   'P 1'
_cell_length_a   6.35240139
_cell_length_b   6.35240139
_cell_length_c   8.97673800
_cell_angle_alpha   90.00000000
_cell_angle_beta   90.00000000
_cell_angle_gamma   97.23223101
_symmetry_Int_Tables_number   1
_chemical_formula_structural   K3TiO4F3
_chemical_formula_sum   'K6 Ti2 O8 F6'
_cell_volume   359.35638546
_cell_formula_units_Z   2
loop_
 _symmetry_equiv_pos_site_id
 _symmetry_equiv_pos_as_xyz
  1  'x, y, z'
loop_
 _atom_site_type_symbol
 _atom_site_label
 _atom_site_symmetry_multiplicity
 _atom_site_fract_x
 _atom_site_fract_y
 _atom_site_fract_z
 _atom_site_occupancy
  K  K0  1  0.70246900  0.70246900  0.75000000  1
  K  K1  1  0.29753100  0.29753100  0.25000000  1
  K  K2  1  0.20196300  0.79803700  0.50000000  1
  K  K3  1  0.79803700  0.20196300  0.00000000  1
  K  K4  1  0.20196300  0.79803700  0.00000000  1
  K  K5  1  0.79803700  0.20196300  0.50000000  1
  Ti  Ti0  1  0.74066100  0.74066100  0.25000000  1
  Ti  Ti1  1  0.25933900  0.25933900  0.75000000  1
  O  O0  1  0.46989900  0.05186700  0.75000000  1
  O  O1  1  0.53010100  0.94813300  0.25000000  1
  O  O2  1  0.94813300  0.53010100  0.25000000  1
  O  O3  1  0.05186700  0.46989900  0.75000000  1
  O  O4  1  0.56473100  0.27769000  0.75000000  1
  O  O5  1  0.43526900  0.72231000  0.25000000  1
  O  O6  1  0.72231000  0.43526900  0.25000000  1
  O  O7  1  0.27769000  0.56473100  0.75000000  1
  F  F0  1  0.01973900  0.01973900  0.75000000  1
  F  F1  1  0.98026100  0.98026100  0.25000000  1
  F  F2  1  0.23786300  0.23786300  0.53193700  1
  F  F3  1  0.76213700  0.76213700  0.03193700  1
  F  F4  1  0.23786300  0.23786300  0.96806300  1
  F  F5  1  0.76213700  0.76213700  0.46806300  1
loop_
_geom_bond_atom_site_label_1
_geom_bond_atom_site_label_2
_geom_bond_distance
_geom_bond_site_symmetry_2
K0 O4 2.729889 1_555
K0 O7 2.729889 1_555
K0 O0 2.816826 1_565
K0 O3 2.816826 1_655
K1 O5 2.729889 1_555
K1 O6 2.729889 1_555
K1 O2 2.816826 1_455
K1 O1 2.816826 1_545
K2 O7 2.764735 1_555
K2 O5 2.764735 1_555
K2 O3 3.128905 1_555
K2 O1 3.128905 1_555
K2 O2 3.137233 1_455
K2 O0 3.137233 1_565
K3 O4 2.764735 1_554
K3 O6 2.764735 1_555
K3 O0 3.128905 1_554
K3 O2 3.128905 1_555
K3 O3 3.137233 1_654
K3 O1 3.137233 1_545
K4 O7 2.764735 1_554
K4 O5 2.764735 1_555
K4 O3 3.128905 1_554
K4 O1 3.128905 1_555
K4 O2 3.137233 1_455
K4 O0 3.137233 1_564
K5 O4 2.764735 1_555
K5 O6 2.764735 1_555
K5 O0 3.128905 1_555
K5 O2 3.128905 1_555
K5 O3 3.137233 1_655
K5 O1 3.137233 1_545
O0 O4 1.484304 1_555
O0 Ti1 1.992461 1_555
O1 O5 1.484304 1_555
O1 Ti0 1.992461 1_555
O2 O6 1.484304 1_555
O2 Ti0 1.992461 1_555
O3 O7 1.484304 1_555
O3 Ti1 1.992461 1_555
O4 Ti1 1.928767 1_555
O5 Ti0 1.928767 1_555
O6 Ti0 1.928767 1_555
O7 Ti1 1.928767 1_555
F0 Ti1 2.012438 1_555
F0 K0 2.664800 1_445
F0 K5 2.961452 1_455
F0 K3 2.961452 1_456
F0 K2 2.961452 1_545
F0 K4 2.961452 1_546
F1 Ti0 2.012438 1_555
F1 K1 2.664800 1_665
F1 K2 2.961452 1_655
F1 K5 2.961452 1_565
F1 K3 2.961452 1_565
F1 K4 2.961452 1_655
F2 Ti1 1.965788 1_555
F2 K1 2.580017 1_555
F2 K5 2.789254 1_455
F2 K2 2.789254 1_545
F3 Ti0 1.965788 1_555
F3 K0 2.580017 1_554
F3 K4 2.789254 1_655
F3 K3 2.789254 1_565
F4 Ti1 1.965788 1_555
F4 K1 2.580017 1_556
F4 K4 2.789254 1_546
F4 K3 2.789254 1_456
F5 Ti0 1.965788 1_555
F5 K0 2.580017 1_555
F5 K2 2.789254 1_655
F5 K5 2.789254 1_565
