# generated using pymatgen
data_Y2Si4CN6
_symmetry_space_group_name_H-M   'P 1'
_cell_length_a   9.92293749
_cell_length_b   5.92346145
_cell_length_c   11.88137318
_cell_angle_alpha   60.37528891
_cell_angle_beta   90.00000000
_cell_angle_gamma   90.00000000
_symmetry_Int_Tables_number   1
_chemical_formula_structural   Y2Si4CN6
_chemical_formula_sum   'Y8 Si16 C4 N24'
_cell_volume   607.07598605
_cell_formula_units_Z   4
loop_
 _symmetry_equiv_pos_site_id
 _symmetry_equiv_pos_as_xyz
  1  'x, y, z'
loop_
 _atom_site_type_symbol
 _atom_site_label
 _atom_site_symmetry_multiplicity
 _atom_site_fract_x
 _atom_site_fract_y
 _atom_site_fract_z
 _atom_site_occupancy
  Y  Y0  1  0.41296568  0.34399245  0.41819612  1
  Y  Y1  1  0.91296568  0.65600755  0.08180388  1
  Y  Y2  1  0.58703432  0.65600755  0.58180388  1
  Y  Y3  1  0.08703432  0.34399245  0.91819612  1
  Y  Y4  1  0.56660755  0.67078222  0.09449233  1
  Y  Y5  1  0.06660755  0.32921778  0.40550767  1
  Y  Y6  1  0.43339245  0.32921778  0.90550767  1
  Y  Y7  1  0.93339245  0.67078222  0.59449233  1
  Si  Si0  1  0.22738865  0.32266889  0.15875124  1
  Si  Si1  1  0.72738865  0.67733111  0.34124876  1
  Si  Si2  1  0.77261135  0.67733111  0.84124876  1
  Si  Si3  1  0.27261135  0.32266889  0.65875124  1
  Si  Si4  1  0.20602486  0.79903997  0.17608432  1
  Si  Si5  1  0.70602486  0.20096003  0.32391568  1
  Si  Si6  1  0.79397514  0.20096003  0.82391568  1
  Si  Si7  1  0.29397514  0.79903997  0.67608432  1
  Si  Si8  1  0.21243602  0.83604704  0.42058206  1
  Si  Si9  1  0.71243602  0.16395296  0.07941794  1
  Si  Si10  1  0.78756398  0.16395296  0.57941794  1
  Si  Si11  1  0.28756398  0.83604704  0.92058206  1
  Si  Si12  1  0.47959280  0.99587310  0.24997363  1
  Si  Si13  1  0.97959280  0.00412690  0.25002637  1
  Si  Si14  1  0.52040720  0.00412690  0.75002637  1
  Si  Si15  1  0.02040720  0.99587310  0.74997363  1
  C  C0  1  0.29170564  0.97649965  0.25287089  1
  C  C1  1  0.79170564  0.02350035  0.24712911  1
  C  C2  1  0.70829436  0.02350035  0.74712911  1
  C  C3  1  0.20829436  0.97649965  0.75287089  1
  N  N0  1  0.05375779  0.29755849  0.13728351  1
  N  N1  1  0.55375779  0.70244151  0.36271649  1
  N  N2  1  0.94624221  0.70244151  0.86271649  1
  N  N3  1  0.44624221  0.29755849  0.63728351  1
  N  N4  1  0.26240662  0.48157335  0.24501528  1
  N  N5  1  0.76240662  0.51842665  0.25498472  1
  N  N6  1  0.73759338  0.51842665  0.75498472  1
  N  N7  1  0.23759338  0.48157335  0.74501528  1
  N  N8  1  0.28930740  0.49634021  0.00127744  1
  N  N9  1  0.78930740  0.50365979  0.49872256  1
  N  N10  1  0.71069260  0.50365979  0.99872256  1
  N  N11  1  0.21069260  0.49634021  0.50127744  1
  N  N12  1  0.03635673  0.75936091  0.22175776  1
  N  N13  1  0.53635673  0.24063909  0.27824224  1
  N  N14  1  0.96364327  0.24063909  0.77824224  1
  N  N15  1  0.46364327  0.75936091  0.72175776  1
  N  N16  1  0.04449597  0.93959619  0.39875167  1
  N  N17  1  0.54449597  0.06040381  0.10124833  1
  N  N18  1  0.95550403  0.06040381  0.60124833  1
  N  N19  1  0.45550403  0.93959619  0.89875167  1
  N  N20  1  0.28542929  0.96099021  0.50972720  1
  N  N21  1  0.78542929  0.03900979  0.99027280  1
  N  N22  1  0.71457071  0.03900979  0.49027280  1
  N  N23  1  0.21457071  0.96099021  0.00972720  1
loop_
_geom_bond_atom_site_label_1
_geom_bond_atom_site_label_2
_geom_bond_distance
_geom_bond_site_symmetry_2
C0 Si12 1.867193 1_555
C0 Si0 1.896182 1_565
C0 Si4 1.899548 1_555
C0 Si8 1.908542 1_555
C1 Si13 1.867193 1_555
C1 Si1 1.896182 1_545
C1 Si5 1.899548 1_555
C1 Si9 1.908542 1_555
C2 Si14 1.867193 1_555
C2 Si2 1.896182 1_545
C2 Si6 1.899548 1_555
C2 Si10 1.908542 1_555
C3 Si15 1.867193 1_555
C3 Si3 1.896182 1_565
C3 Si7 1.899548 1_555
C3 Si11 1.908542 1_555
N0 Si13 1.747923 1_455
N0 Si0 1.758741 1_555
N0 Y1 2.347522 1_455
N0 Y3 2.500554 1_554
N1 Si12 1.747923 1_555
N1 Si1 1.758741 1_555
N1 Y0 2.347522 1_555
N1 Y2 2.500554 1_555
N2 Si15 1.747923 1_655
N2 Si2 1.758741 1_555
N2 Y3 2.347522 1_655
N2 Y1 2.500554 1_556
N3 Si14 1.747923 1_555
N3 Si3 1.758741 1_555
N3 Y2 2.347522 1_555
N3 Y0 2.500554 1_555
N4 Si4 1.731309 1_555
N4 Si0 1.735219 1_555
N4 Y0 2.339266 1_555
N4 Y5 2.554240 1_555
N5 Si5 1.731309 1_555
N5 Si1 1.735219 1_555
N5 Y1 2.339266 1_555
N5 Y4 2.554240 1_555
N6 Si6 1.731309 1_555
N6 Si2 1.735219 1_555
N6 Y2 2.339266 1_555
N6 Y7 2.554240 1_555
N7 Si7 1.731309 1_555
N7 Si3 1.735219 1_555
N7 Y3 2.339266 1_555
N7 Y6 2.554240 1_555
N8 Si0 1.741715 1_555
N8 Si11 1.749658 1_554
N8 Y6 2.330784 1_554
N8 Y3 2.588065 1_554
N9 Si1 1.741715 1_555
N9 Si10 1.749658 1_555
N9 Y7 2.330784 1_555
N9 Y2 2.588065 1_555
N10 Si2 1.741715 1_555
N10 Si9 1.749658 1_556
N10 Y4 2.330784 1_556
N10 Y1 2.588065 1_556
N11 Si3 1.741715 1_555
N11 Si8 1.749658 1_555
N11 Y5 2.330784 1_555
N11 Y0 2.588065 1_555
N12 Si13 1.735974 1_465
N12 Si4 1.748759 1_555
N12 Y1 2.376015 1_455
N12 Y5 2.418475 1_555
N13 Si12 1.735974 1_545
N13 Si5 1.748759 1_555
N13 Y0 2.376015 1_555
N13 Y4 2.418475 1_555
N14 Si15 1.735974 1_645
N14 Si6 1.748759 1_555
N14 Y3 2.376015 1_655
N14 Y7 2.418475 1_555
N15 Si14 1.735974 1_565
N15 Si7 1.748759 1_555
N15 Y2 2.376015 1_555
N15 Y6 2.418475 1_555
N16 Si13 1.736553 1_465
N16 Si8 1.750228 1_555
N16 Y7 2.344896 1_455
N16 Y5 2.358851 1_565
N17 Si12 1.736553 1_545
N17 Si9 1.750228 1_555
N17 Y6 2.344896 1_554
N17 Y4 2.358851 1_545
N18 Si15 1.736553 1_645
N18 Si10 1.750228 1_555
N18 Y5 2.344896 1_655
N18 Y7 2.358851 1_545
N19 Si14 1.736553 1_565
N19 Si11 1.750228 1_555
N19 Y4 2.344896 1_556
N19 Y6 2.358851 1_565
N20 Si7 1.720363 1_555
N20 Si8 1.723129 1_555
N20 Y0 2.343515 1_565
N20 Y5 2.887119 1_565
N21 Si6 1.720363 1_555
N21 Si9 1.723129 1_556
N21 Y1 2.343515 1_546
N21 Y4 2.887119 1_546
N22 Si5 1.720363 1_555
N22 Si10 1.723129 1_555
N22 Y2 2.343515 1_545
N22 Y7 2.887119 1_545
N23 Si4 1.720363 1_555
N23 Si11 1.723129 1_554
N23 Y3 2.343515 1_564
N23 Y6 2.887119 1_564
