# generated using pymatgen
data_Cs2UTa6(Cl5O)3
_symmetry_space_group_name_H-M   'P 1'
_cell_length_a   9.24160637
_cell_length_b   9.24160637
_cell_length_c   17.30114700
_cell_angle_alpha   90.00000000
_cell_angle_beta   90.00000000
_cell_angle_gamma   120.00000268
_symmetry_Int_Tables_number   1
_chemical_formula_structural   Cs2UTa6(Cl5O)3
_chemical_formula_sum   'Cs4 U2 Ta12 Cl30 O6'
_cell_volume   1279.67725145
_cell_formula_units_Z   2
loop_
 _symmetry_equiv_pos_site_id
 _symmetry_equiv_pos_as_xyz
  1  'x, y, z'
loop_
 _atom_site_type_symbol
 _atom_site_label
 _atom_site_symmetry_multiplicity
 _atom_site_fract_x
 _atom_site_fract_y
 _atom_site_fract_z
 _atom_site_occupancy
  Cs  Cs0  1  0.33333300  0.66666700  0.45388600  1
  Cs  Cs1  1  0.66666700  0.33333300  0.95388600  1
  Cs  Cs2  1  0.33333300  0.66666700  0.04611400  1
  Cs  Cs3  1  0.66666700  0.33333300  0.54611400  1
  U  U0  1  0.33333300  0.66666700  0.75000000  1
  U  U1  1  0.66666700  0.33333300  0.25000000  1
  Ta  Ta0  1  0.19102700  0.01339000  0.18282600  1
  Ta  Ta1  1  0.98661000  0.17763700  0.18282600  1
  Ta  Ta2  1  0.80897300  0.82236300  0.68282600  1
  Ta  Ta3  1  0.17763700  0.19102700  0.81717400  1
  Ta  Ta4  1  0.82236300  0.01339000  0.31717400  1
  Ta  Ta5  1  0.19102700  0.17763700  0.31717400  1
  Ta  Ta6  1  0.01339000  0.82236300  0.81717400  1
  Ta  Ta7  1  0.80897300  0.98661000  0.81717400  1
  Ta  Ta8  1  0.98661000  0.80897300  0.31717400  1
  Ta  Ta9  1  0.01339000  0.19102700  0.68282600  1
  Ta  Ta10  1  0.82236300  0.80897300  0.18282600  1
  Ta  Ta11  1  0.17763700  0.98661000  0.68282600  1
  Cl  Cl0  1  0.92723500  0.53102200  0.38395400  1
  Cl  Cl1  1  0.53102200  0.92723500  0.88395400  1
  Cl  Cl2  1  0.53102200  0.60378700  0.61604600  1
  Cl  Cl3  1  0.39621300  0.46897800  0.88395400  1
  Cl  Cl4  1  0.20506400  0.98480800  0.41392900  1
  Cl  Cl5  1  0.07276500  0.46897800  0.61604600  1
  Cl  Cl6  1  0.77974400  0.98480800  0.08607100  1
  Cl  Cl7  1  0.98480800  0.20506400  0.91392900  1
  Cl  Cl8  1  0.20506400  0.22025600  0.08607100  1
  Cl  Cl9  1  0.98480800  0.77974400  0.58607100  1
  Cl  Cl10  1  0.22025600  0.20506400  0.58607100  1
  Cl  Cl11  1  0.01519200  0.79493600  0.08607100  1
  Cl  Cl12  1  0.21252500  0.42505100  0.25000000  1
  Cl  Cl13  1  0.60378700  0.53102200  0.11604600  1
  Cl  Cl14  1  0.22025600  0.01519200  0.91392900  1
  Cl  Cl15  1  0.60378700  0.07276500  0.38395400  1
  Cl  Cl16  1  0.57494900  0.78747500  0.25000000  1
  Cl  Cl17  1  0.39621300  0.92723500  0.61604600  1
  Cl  Cl18  1  0.77974400  0.79493600  0.41392900  1
  Cl  Cl19  1  0.79493600  0.01519200  0.58607100  1
  Cl  Cl20  1  0.07276500  0.60378700  0.88395400  1
  Cl  Cl21  1  0.46897800  0.07276500  0.11604600  1
  Cl  Cl22  1  0.42505100  0.21252500  0.75000000  1
  Cl  Cl23  1  0.01519200  0.22025600  0.41392900  1
  Cl  Cl24  1  0.78747500  0.57494900  0.75000000  1
  Cl  Cl25  1  0.92723500  0.39621300  0.11604600  1
  Cl  Cl26  1  0.21252500  0.78747500  0.25000000  1
  Cl  Cl27  1  0.78747500  0.21252500  0.75000000  1
  Cl  Cl28  1  0.79493600  0.77974400  0.91392900  1
  Cl  Cl29  1  0.46897800  0.39621300  0.38395400  1
  O  O0  1  0.81192900  0.18807100  0.25000000  1
  O  O1  1  0.37614300  0.18807100  0.25000000  1
  O  O2  1  0.18807100  0.37614300  0.75000000  1
  O  O3  1  0.81192900  0.62385700  0.25000000  1
  O  O4  1  0.62385700  0.81192900  0.75000000  1
  O  O5  1  0.18807100  0.81192900  0.75000000  1
loop_
_geom_bond_atom_site_label_1
_geom_bond_atom_site_label_2
_geom_bond_distance
_geom_bond_site_symmetry_2
Cl0 Ta8 2.612424 1_555
Cl0 U1 3.179340 1_555
Cl0 Cs0 3.523584 1_655
Cl0 Cs3 3.550812 1_555
Cl1 Ta7 2.612424 1_555
Cl1 U0 3.179340 1_555
Cl1 Cs1 3.523584 1_565
Cl1 Cs2 3.550812 1_556
Cl2 Ta2 2.612424 1_555
Cl2 U0 3.179345 1_555
Cl2 Cs3 3.523592 1_555
Cl2 Cs0 3.550816 1_555
Cl3 Ta3 2.612424 1_555
Cl3 U0 3.179345 1_555
Cl3 Cs1 3.523592 1_555
Cl3 Cs2 3.550816 1_556
Cl4 Ta5 2.495173 1_565
Cl4 Ta8 2.497593 1_455
Cl4 Cs0 3.743362 1_555
Cl5 Ta9 2.612424 1_555
Cl5 U0 3.179340 1_555
Cl5 Cs3 3.523584 1_455
Cl5 Cs0 3.550812 1_555
Cl6 Ta1 2.495173 1_565
Cl6 Ta10 2.497593 1_555
Cl6 Cs2 3.743368 1_555
Cl7 Ta3 2.495173 1_655
Cl7 Ta7 2.497593 1_545
Cl7 Cs1 3.743362 1_555
Cl8 Ta0 2.495173 1_555
Cl8 Ta1 2.497593 1_455
Cl8 Cs2 3.743370 1_555
Cl9 Ta11 2.495173 1_655
Cl9 Ta2 2.497593 1_555
Cl9 Cs3 3.743368 1_555
Cl10 Ta9 2.495173 1_555
Cl10 Ta11 2.497593 1_545
Cl10 Cs3 3.743370 1_555
Cl11 Ta10 2.495173 1_455
Cl11 Ta0 2.497593 1_565
Cl11 Cs2 3.743362 1_555
Cl12 Ta1 2.482731 1_455
Cl12 Ta5 2.482735 1_555
Cl12 Cs0 4.022740 1_555
Cl12 Cs2 4.022740 1_555
Cl13 Ta10 2.612424 1_555
Cl13 U1 3.179345 1_555
Cl13 Cs2 3.523592 1_555
Cl13 Cs1 3.550816 1_554
Cl14 Ta6 2.495173 1_545
Cl14 Ta3 2.497593 1_555
Cl14 Cs1 3.743368 1_555
Cl15 Ta4 2.612424 1_555
Cl15 U1 3.179339 1_555
Cl15 Cs0 3.523585 1_545
Cl15 Cs3 3.550810 1_555
Cl16 Ta4 2.482731 1_565
Cl16 Ta10 2.482735 1_555
Cl16 Cs0 4.022740 1_555
Cl16 Cs2 4.022740 1_555
Cl17 Ta11 2.612424 1_555
Cl17 U0 3.179339 1_555
Cl17 Cs3 3.523585 1_565
Cl17 Cs0 3.550810 1_555
Cl18 Ta8 2.495173 1_555
Cl18 Ta4 2.497593 1_565
Cl18 Cs0 3.743370 1_555
Cl19 Ta2 2.495173 1_545
Cl19 Ta9 2.497593 1_655
Cl19 Cs3 3.743362 1_555
Cl20 Ta6 2.612424 1_555
Cl20 U0 3.179339 1_555
Cl20 Cs1 3.523585 1_455
Cl20 Cs2 3.550810 1_556
Cl21 Ta0 2.612424 1_555
Cl21 U1 3.179340 1_555
Cl21 Cs2 3.523584 1_545
Cl21 Cs1 3.550812 1_554
Cl22 Ta11 2.482731 1_545
Cl22 Ta3 2.482735 1_555
Cl22 Cs3 4.022740 1_555
Cl22 Cs1 4.022740 1_555
Cl23 Ta4 2.495173 1_455
Cl23 Ta5 2.497593 1_555
Cl23 Cs0 3.743368 1_555
Cl24 Ta6 2.482731 1_655
Cl24 Ta2 2.482735 1_555
Cl24 Cs3 4.022740 1_555
Cl24 Cs1 4.022740 1_555
Cl25 Ta1 2.612424 1_555
Cl25 U1 3.179339 1_555
Cl25 Cs2 3.523585 1_655
Cl25 Cs1 3.550810 1_554
Cl26 Ta0 2.482727 1_565
Cl26 Ta8 2.482727 1_455
Cl26 Cs0 4.022740 1_555
Cl26 Cs2 4.022740 1_555
Cl27 Ta9 2.482727 1_655
Cl27 Ta7 2.482727 1_545
Cl27 Cs3 4.022740 1_555
Cl27 Cs1 4.022740 1_555
Cl28 Ta7 2.495173 1_555
Cl28 Ta6 2.497593 1_655
Cl28 Cs1 3.743370 1_555
Cl29 Ta5 2.612424 1_555
Cl29 U1 3.179345 1_555
Cl29 Cs0 3.523592 1_555
Cl29 Cs3 3.550816 1_555
O0 Ta4 2.030200 1_555
O0 Ta1 2.030200 1_555
O0 U1 2.325199 1_555
O1 Ta0 2.030204 1_555
O1 Ta5 2.030208 1_555
O1 U1 2.325199 1_555
O2 Ta9 2.030204 1_555
O2 Ta3 2.030208 1_555
O2 U0 2.325199 1_555
O3 Ta8 2.030204 1_555
O3 Ta10 2.030208 1_555
O3 U1 2.325199 1_555
O4 Ta7 2.030204 1_555
O4 Ta2 2.030208 1_555
O4 U0 2.325199 1_555
O5 Ta11 2.030200 1_555
O5 Ta6 2.030200 1_555
O5 U0 2.325199 1_555
