# generated using pymatgen
data_SbP2SN3Cl10
_symmetry_space_group_name_H-M   'P 1'
_cell_length_a   8.99715400
_cell_length_b   13.01560100
_cell_length_c   16.34346000
_cell_angle_alpha   90.00000000
_cell_angle_beta   90.00000000
_cell_angle_gamma   90.00000000
_symmetry_Int_Tables_number   1
_chemical_formula_structural   SbP2SN3Cl10
_chemical_formula_sum   'Sb4 P8 S4 N12 Cl40'
_cell_volume   1913.87418789
_cell_formula_units_Z   4
loop_
 _symmetry_equiv_pos_site_id
 _symmetry_equiv_pos_as_xyz
  1  'x, y, z'
loop_
 _atom_site_type_symbol
 _atom_site_label
 _atom_site_symmetry_multiplicity
 _atom_site_fract_x
 _atom_site_fract_y
 _atom_site_fract_z
 _atom_site_occupancy
  Sb  Sb0  1  0.50000000  0.50000000  0.50000000  1
  Sb  Sb1  1  0.50000000  0.50000000  0.00000000  1
  Sb  Sb2  1  0.00000000  0.00000000  0.50000000  1
  Sb  Sb3  1  0.00000000  0.00000000  0.00000000  1
  P  P0  1  0.97477600  0.62069900  0.75000000  1
  P  P1  1  0.02522400  0.37930100  0.25000000  1
  P  P2  1  0.54684200  0.09075700  0.25000000  1
  P  P3  1  0.52522400  0.12069900  0.75000000  1
  P  P4  1  0.47477600  0.87930100  0.25000000  1
  P  P5  1  0.45315800  0.90924300  0.75000000  1
  P  P6  1  0.95315800  0.59075700  0.25000000  1
  P  P7  1  0.04684200  0.40924300  0.75000000  1
  S  S0  1  0.27575600  0.55749300  0.75000000  1
  S  S1  1  0.77575600  0.94250700  0.25000000  1
  S  S2  1  0.22424400  0.05749300  0.75000000  1
  S  S3  1  0.72424400  0.44250700  0.25000000  1
  N  N0  1  0.72420200  0.05683300  0.25000000  1
  N  N1  1  0.06613400  0.49774800  0.25000000  1
  N  N2  1  0.93386600  0.50225200  0.75000000  1
  N  N3  1  0.43386600  0.99774800  0.25000000  1
  N  N4  1  0.34388900  0.14368000  0.75000000  1
  N  N5  1  0.84388900  0.35632000  0.25000000  1
  N  N6  1  0.15611100  0.64368000  0.75000000  1
  N  N7  1  0.56613400  0.00225200  0.75000000  1
  N  N8  1  0.27579800  0.94316700  0.75000000  1
  N  N9  1  0.22420200  0.44316700  0.75000000  1
  N  N10  1  0.65611100  0.85632000  0.25000000  1
  N  N11  1  0.77579800  0.55683300  0.25000000  1
  Cl  Cl0  1  0.12423200  0.83597900  0.51300900  1
  Cl  Cl1  1  0.39184200  0.80803800  0.15373800  1
  Cl  Cl2  1  0.87576800  0.16402100  0.01300900  1
  Cl  Cl3  1  0.27420900  0.58698300  0.95441900  1
  Cl  Cl4  1  0.37576800  0.33597900  0.51300900  1
  Cl  Cl5  1  0.51765400  0.18120000  0.15382600  1
  Cl  Cl6  1  0.77420900  0.91301700  0.04558100  1
  Cl  Cl7  1  0.10815800  0.30803800  0.34626200  1
  Cl  Cl8  1  0.62423200  0.66402100  0.48699100  1
  Cl  Cl9  1  0.89184200  0.69196200  0.65373800  1
  Cl  Cl10  1  0.60815800  0.19196200  0.84626200  1
  Cl  Cl11  1  0.58544100  0.48710700  0.86030200  1
  Cl  Cl12  1  0.22579100  0.08698300  0.54558100  1
  Cl  Cl13  1  0.01765400  0.31880000  0.65382600  1
  Cl  Cl14  1  0.77420900  0.91301700  0.45441900  1
  Cl  Cl15  1  0.48234600  0.81880000  0.65382600  1
  Cl  Cl16  1  0.91455900  0.98710700  0.63969800  1
  Cl  Cl17  1  0.91455900  0.98710700  0.86030200  1
  Cl  Cl18  1  0.08544100  0.01289300  0.36030200  1
  Cl  Cl19  1  0.72579100  0.41301700  0.04558100  1
  Cl  Cl20  1  0.08544100  0.01289300  0.13969800  1
  Cl  Cl21  1  0.48234600  0.81880000  0.84617400  1
  Cl  Cl22  1  0.41455900  0.51289300  0.36030200  1
  Cl  Cl23  1  0.01765400  0.31880000  0.84617400  1
  Cl  Cl24  1  0.22579100  0.08698300  0.95441900  1
  Cl  Cl25  1  0.89184200  0.69196200  0.84626200  1
  Cl  Cl26  1  0.98234600  0.68120000  0.15382600  1
  Cl  Cl27  1  0.72579100  0.41301700  0.45441900  1
  Cl  Cl28  1  0.39184200  0.80803800  0.34626200  1
  Cl  Cl29  1  0.58544100  0.48710700  0.63969800  1
  Cl  Cl30  1  0.87576800  0.16402100  0.48699100  1
  Cl  Cl31  1  0.41455900  0.51289300  0.13969800  1
  Cl  Cl32  1  0.27420900  0.58698300  0.54558100  1
  Cl  Cl33  1  0.51765400  0.18120000  0.34617400  1
  Cl  Cl34  1  0.37576800  0.33597900  0.98699100  1
  Cl  Cl35  1  0.62423200  0.66402100  0.01300900  1
  Cl  Cl36  1  0.10815800  0.30803800  0.15373800  1
  Cl  Cl37  1  0.60815800  0.19196200  0.65373800  1
  Cl  Cl38  1  0.98234600  0.68120000  0.34617400  1
  Cl  Cl39  1  0.12423200  0.83597900  0.98699100  1
loop_
_geom_bond_atom_site_label_1
_geom_bond_atom_site_label_2
_geom_bond_distance
_geom_bond_site_symmetry_2
N0 S1 1.558639 1_545
N0 P2 1.655696 1_555
N1 P6 1.580718 1_455
N1 P1 1.584989 1_555
N2 P7 1.580718 1_655
N2 P0 1.584989 1_555
N3 P2 1.580718 1_565
N3 P4 1.584989 1_555
N4 S2 1.554721 1_555
N4 P3 1.658691 1_555
N5 S3 1.554721 1_555
N5 P1 1.658691 1_655
N6 S0 1.554721 1_555
N6 P0 1.658691 1_455
N7 P5 1.580718 1_545
N7 P3 1.584989 1_555
N8 S2 1.558639 1_565
N8 P5 1.655696 1_555
N9 S0 1.558639 1_555
N9 P7 1.655696 1_555
N10 S1 1.554721 1_555
N10 P4 1.658691 1_555
N11 S3 1.558639 1_555
N11 P6 1.655696 1_555
Cl0 Sb2 2.419099 1_565
Cl1 P4 1.972869 1_555
Cl2 Sb3 2.419099 1_655
Cl3 Sb1 2.442044 1_556
Cl4 Sb0 2.419099 1_555
Cl5 P2 1.981236 1_555
Cl6 Sb3 2.442044 1_665
Cl7 P1 1.972869 1_555
Cl8 Sb0 2.419099 1_555
Cl9 P0 1.972869 1_555
Cl10 P3 1.972869 1_555
Cl11 Sb1 2.414926 1_556
Cl12 Sb2 2.442044 1_555
Cl13 P7 1.981236 1_555
Cl14 Sb2 2.442044 1_665
Cl15 P5 1.981236 1_555
Cl16 Sb2 2.414926 1_665
Cl17 Sb3 2.414926 1_666
Cl18 Sb2 2.414926 1_555
Cl19 Sb1 2.442044 1_555
Cl20 Sb3 2.414926 1_555
Cl21 P5 1.981236 1_555
Cl22 Sb0 2.414926 1_555
Cl23 P7 1.981236 1_555
Cl24 Sb3 2.442044 1_556
Cl25 P0 1.972869 1_555
Cl26 P6 1.981236 1_555
Cl27 Sb0 2.442044 1_555
Cl28 P4 1.972869 1_555
Cl29 Sb0 2.414926 1_555
Cl30 Sb2 2.419099 1_655
Cl31 Sb1 2.414926 1_555
Cl32 Sb0 2.442044 1_555
Cl33 P2 1.981236 1_555
Cl34 Sb1 2.419099 1_556
Cl35 Sb1 2.419099 1_555
Cl36 P1 1.972869 1_555
Cl37 P3 1.972869 1_555
Cl38 P6 1.981236 1_555
Cl39 Sb3 2.419099 1_566
