# generated using pymatgen
data_NaCaAl3(SiO4)3
_symmetry_space_group_name_H-M   'P 1'
_cell_length_a   12.29239900
_cell_length_b   12.43055119
_cell_length_c   12.68345603
_cell_angle_alpha   89.41038605
_cell_angle_beta   89.63924098
_cell_angle_gamma   89.29530305
_symmetry_Int_Tables_number   1
_chemical_formula_structural   NaCaAl3(SiO4)3
_chemical_formula_sum   'Na4 Ca4 Al12 Si12 O48'
_cell_volume   1937.76241995
_cell_formula_units_Z   4
loop_
 _symmetry_equiv_pos_site_id
 _symmetry_equiv_pos_as_xyz
  1  'x, y, z'
loop_
 _atom_site_type_symbol
 _atom_site_label
 _atom_site_symmetry_multiplicity
 _atom_site_fract_x
 _atom_site_fract_y
 _atom_site_fract_z
 _atom_site_occupancy
  Na  Na0  1  0.20234400  0.78280400  0.19316600  1
  Na  Na1  1  0.21398700  0.21086300  0.19333600  1
  Na  Na2  1  0.80296500  0.79013300  0.20821600  1
  Na  Na3  1  0.78841000  0.21556000  0.19544100  1
  Ca  Ca0  1  0.19234300  0.18467100  0.78457400  1
  Ca  Ca1  1  0.81352600  0.20083200  0.78628200  1
  Ca  Ca2  1  0.81746800  0.81650100  0.77888300  1
  Ca  Ca3  1  0.18920900  0.80800300  0.79698900  1
  Al  Al0  1  0.99930900  0.62218100  0.18632200  1
  Al  Al1  1  0.98860200  0.19015800  0.61293500  1
  Al  Al2  1  0.01129100  0.81420700  0.61489100  1
  Al  Al3  1  0.80705300  0.99898800  0.61188300  1
  Al  Al4  1  0.18933400  0.00571000  0.61692800  1
  Al  Al5  1  0.64071100  0.99983000  0.83154300  1
  Al  Al6  1  0.99990000  0.36737100  0.82476900  1
  Al  Al7  1  0.99832700  0.63421800  0.83086800  1
  Al  Al8  1  0.36821500  0.00298600  0.82847100  1
  Al  Al9  1  0.63451300  0.18429600  0.00196300  1
  Al  Al10  1  0.18271600  0.36638900  0.00057500  1
  Al  Al11  1  0.36938500  0.81574200  0.00411600  1
  Si  Si0  1  0.81346500  0.37557300  0.00585700  1
  Si  Si1  1  0.63034900  0.99457500  0.18121900  1
  Si  Si2  1  0.99739700  0.37329100  0.18449500  1
  Si  Si3  1  0.37435200  0.99472400  0.18376000  1
  Si  Si4  1  0.99317000  0.17931300  0.35924400  1
  Si  Si5  1  0.00812200  0.82010500  0.36426700  1
  Si  Si6  1  0.81370400  0.99820300  0.36511000  1
  Si  Si7  1  0.18348600  0.00426600  0.36117700  1
  Si  Si8  1  0.37144900  0.18204200  0.00598900  1
  Si  Si9  1  0.81266200  0.63096600  0.00665600  1
  Si  Si10  1  0.18628700  0.62611200  0.00318900  1
  Si  Si11  1  0.63440600  0.81521800  0.00679800  1
  O  O0  1  0.78236100  0.50374300  0.99395700  1
  O  O1  1  0.29609200  0.28571200  0.03202100  1
  O  O2  1  0.69939100  0.70019200  0.02181900  1
  O  O3  1  0.50795200  0.79225400  0.99828200  1
  O  O4  1  0.29417000  0.69894300  0.01586000  1
  O  O5  1  0.66080900  0.10232100  0.11600400  1
  O  O6  1  0.88658600  0.35577800  0.11337800  1
  O  O7  1  0.10342000  0.34068800  0.11613100  1
  O  O8  1  0.66159500  0.88302200  0.11727400  1
  O  O9  1  0.35130700  0.10267600  0.11254700  1
  O  O10  1  0.88057400  0.65171300  0.11354600  1
  O  O11  1  0.11323200  0.64895800  0.10915100  1
  O  O12  1  0.33984500  0.88631000  0.12385100  1
  O  O13  1  0.99723500  0.49114900  0.23497100  1
  O  O14  1  0.50284900  0.99136500  0.22027500  1
  O  O15  1  0.98454700  0.28022600  0.27739300  1
  O  O16  1  0.29302300  0.01019800  0.28626200  1
  O  O17  1  0.00076100  0.72412300  0.28064000  1
  O  O18  1  0.71260300  0.98781600  0.28228800  1
  O  O19  1  0.88367200  0.10686500  0.32937200  1
  O  O20  1  0.10588700  0.11048700  0.32563700  1
  O  O21  1  0.89501400  0.89361300  0.34218200  1
  O  O22  1  0.11469200  0.89565000  0.32672400  1
  O  O23  1  0.99265300  0.22030700  0.47755900  1
  O  O24  1  0.21872800  0.00670000  0.48124400  1
  O  O25  1  0.02189600  0.77721500  0.48238800  1
  O  O26  1  0.76329200  0.00309700  0.48056300  1
  O  O27  1  0.86720200  0.12192300  0.63951600  1
  O  O28  1  0.10612300  0.11757700  0.64571700  1
  O  O29  1  0.89016700  0.88568200  0.63046500  1
  O  O30  1  0.13030600  0.88177900  0.64916500  1
  O  O31  1  0.28357300  0.02284000  0.71894600  1
  O  O32  1  0.97922200  0.28293300  0.71691800  1
  O  O33  1  0.99855400  0.73017400  0.72846900  1
  O  O34  1  0.72310700  0.97643800  0.72163300  1
  O  O35  1  0.99807300  0.50203600  0.80271800  1
  O  O36  1  0.50494000  0.00337200  0.81168200  1
  O  O37  1  0.69098800  0.11904800  0.89146800  1
  O  O38  1  0.87875500  0.33115600  0.90185600  1
  O  O39  1  0.11767300  0.31381600  0.88839000  1
  O  O40  1  0.68802500  0.88076300  0.90711500  1
  O  O41  1  0.32190500  0.11970100  0.90333800  1
  O  O42  1  0.87502200  0.67712800  0.90056200  1
  O  O43  1  0.11701600  0.67653300  0.90073800  1
  O  O44  1  0.31799800  0.88543200  0.89307900  1
  O  O45  1  0.49715800  0.21154900  0.99398500  1
  O  O46  1  0.70798800  0.30190100  0.02732400  1
  O  O47  1  0.21355700  0.50126700  0.98568500  1
loop_
_geom_bond_atom_site_label_1
_geom_bond_atom_site_label_2
_geom_bond_distance
_geom_bond_site_symmetry_2
Na0 O11 2.280260 1_555
Na0 O12 2.301452 1_555
Na0 O22 2.446810 1_555
Na0 O4 2.721297 1_555
Na0 O17 2.810049 1_555
Na1 O7 2.311006 1_555
Na1 O9 2.378779 1_555
Na1 O1 2.455291 1_555
Na1 O20 2.471431 1_555
Na1 O16 2.906762 1_555
Na2 O10 2.302219 1_555
Na2 O8 2.373194 1_555
Na2 O21 2.434546 1_555
Na2 O17 2.718873 1_655
Na2 O18 2.849919 1_555
Na2 O2 2.930442 1_555
Na3 O5 2.358006 1_555
Na3 O6 2.361430 1_555
Na3 O19 2.453837 1_555
Na3 O46 2.574735 1_555
Na3 O15 2.763312 1_555
Ca0 O28 2.235201 1_555
Ca0 O39 2.268365 1_555
Ca0 O41 2.330513 1_555
Ca0 O31 2.442220 1_555
Ca0 O32 3.003250 1_455
Ca1 O27 2.206547 1_555
Ca1 O37 2.250943 1_555
Ca1 O38 2.347709 1_555
Ca1 O32 2.444217 1_555
Ca2 O29 2.246366 1_555
Ca2 O34 2.397794 1_555
Ca2 O40 2.403757 1_555
Ca2 O42 2.410892 1_555
Ca2 O33 2.540241 1_555
Ca3 O30 2.201360 1_555
Ca3 O44 2.236950 1_555
Ca3 O43 2.273009 1_555
Ca3 O33 2.698607 1_455
Al0 O13 1.736235 1_555
Al0 O11 1.737071 1_655
Al0 O17 1.751916 1_655
Al0 O10 1.764610 1_555
Al1 O28 1.744013 1_655
Al1 O23 1.754218 1_555
Al1 O27 1.754699 1_555
Al1 O32 1.763175 1_555
Al2 O29 1.735687 1_455
Al2 O25 1.750575 1_555
Al2 O30 1.755154 1_555
Al2 O33 1.777944 1_455
Al3 O29 1.744681 1_555
Al3 O27 1.745518 1_565
Al3 O34 1.749878 1_555
Al3 O26 1.753575 1_565
Al4 O30 1.754337 1_545
Al4 O28 1.756137 1_555
Al4 O24 1.756186 1_555
Al4 O31 1.758460 1_555
Al5 O36 1.689394 1_565
Al5 O34 1.742718 1_555
Al5 O37 1.790929 1_565
Al5 O40 1.845064 1_555
Al6 O35 1.694222 1_555
Al6 O32 1.754422 1_555
Al6 O39 1.780490 1_655
Al6 O38 1.834479 1_555
Al7 O35 1.685070 1_555
Al7 O33 1.754341 1_555
Al7 O43 1.798712 1_655
Al7 O42 1.826535 1_555
Al8 O36 1.692843 1_555
Al8 O31 1.754432 1_555
Al8 O44 1.782976 1_545
Al8 O41 1.825346 1_555
Al9 O45 1.721380 1_554
Al9 O37 1.761006 1_554
Al9 O46 1.761295 1_555
Al9 O5 1.789541 1_555
Al10 O47 1.731653 1_554
Al10 O1 1.752566 1_555
Al10 O39 1.771235 1_554
Al10 O7 1.783351 1_555
Al11 O3 1.725876 1_554
Al11 O4 1.735454 1_555
Al11 O44 1.762240 1_554
Al11 O12 1.794514 1_555
O0 Si9 1.638950 1_556
O0 Si0 1.639549 1_556
O1 Si8 1.613477 1_555
O2 Si9 1.639128 1_555
O2 Si11 1.639226 1_555
O3 Si11 1.588410 1_556
O4 Si10 1.624595 1_555
O5 Si1 1.613644 1_545
O6 Si0 1.652670 1_555
O6 Si2 1.656269 1_555
O7 Si2 1.610787 1_455
O8 Si1 1.653565 1_555
O8 Si11 1.680067 1_555
O9 Si3 1.632696 1_545
O9 Si8 1.683918 1_555
O10 Si9 1.621161 1_555
O11 Si10 1.636984 1_555
O12 Si3 1.616368 1_555
O13 Si2 1.604815 1_555
O14 Si1 1.641555 1_555
O14 Si3 1.648747 1_555
O15 Si4 1.622911 1_555
O15 Si2 1.650958 1_555
O16 Si7 1.645041 1_555
O16 Si3 1.646424 1_545
O17 Si5 1.608306 1_555
O18 Si1 1.638498 1_555
O18 Si6 1.639458 1_555
O19 Si6 1.667551 1_545
O19 Si4 1.676166 1_555
O20 Si4 1.674617 1_455
O20 Si7 1.678892 1_555
O21 Si6 1.657107 1_555
O21 Si5 1.677768 1_655
O22 Si7 1.665494 1_565
O22 Si5 1.684604 1_555
O23 Si4 1.589710 1_555
O24 Si7 1.586594 1_555
O25 Si5 1.594365 1_555
O26 Si6 1.587920 1_545
O38 Si0 1.636987 1_556
O40 Si11 1.636547 1_556
O41 Si8 1.645875 1_556
O42 Si9 1.646073 1_556
O43 Si10 1.670468 1_556
O45 Si8 1.598558 1_556
O46 Si0 1.616634 1_555
O47 Si10 1.601057 1_556
