# generated using pymatgen
data_Na3Ca10Mn7V12O48
_symmetry_space_group_name_H-M   'P 1'
_cell_length_a   11.04160142
_cell_length_b   11.04037416
_cell_length_c   11.08457471
_cell_angle_alpha   109.41680301
_cell_angle_beta   109.55827294
_cell_angle_gamma   109.28444467
_symmetry_Int_Tables_number   1
_chemical_formula_structural   Na3Ca10Mn7V12O48
_chemical_formula_sum   'Na3 Ca10 Mn7 V12 O48'
_cell_volume   1042.16038668
_cell_formula_units_Z   1
loop_
 _symmetry_equiv_pos_site_id
 _symmetry_equiv_pos_as_xyz
  1  'x, y, z'
loop_
 _atom_site_type_symbol
 _atom_site_label
 _atom_site_symmetry_multiplicity
 _atom_site_fract_x
 _atom_site_fract_y
 _atom_site_fract_z
 _atom_site_occupancy
  Na  Na0  1  0.12448800  0.37506700  0.75021700  1
  Na  Na1  1  0.62275500  0.87241400  0.74456300  1
  Na  Na2  1  0.37493700  0.12685800  0.25299000  1
  Ca  Ca0  1  0.24957900  0.87055200  0.61834200  1
  Ca  Ca1  1  0.13121300  0.25462900  0.37797900  1
  Ca  Ca2  1  0.36690200  0.74380400  0.12490900  1
  Ca  Ca3  1  0.25016700  0.37634400  0.12656600  1
  Ca  Ca4  1  0.74695500  0.62526900  0.87229500  1
  Ca  Ca5  1  0.62911800  0.25017200  0.87169200  1
  Ca  Ca6  1  0.87319100  0.75245200  0.62575600  1
  Ca  Ca7  1  0.49989200  0.99884800  0.99969800  1
  Ca  Ca8  1  0.75275300  0.12686000  0.38270900  1
  Ca  Ca9  1  0.87999800  0.62521000  0.25320700  1
  Mn  Mn0  1  0.00456400  0.50266900  0.50157800  1
  Mn  Mn1  1  0.00343300  0.49927700  0.00084100  1
  Mn  Mn2  1  0.49861200  0.99652000  0.50036600  1
  Mn  Mn3  1  0.99994600  0.00049200  0.99958700  1
  Mn  Mn4  1  0.49622900  0.50044000  0.49833400  1
  Mn  Mn5  1  0.49708600  0.49926200  0.99708600  1
  Mn  Mn6  1  0.00102500  0.00287900  0.50286200  1
  V  V0  1  0.11918200  0.74688900  0.87433900  1
  V  V1  1  0.12583000  0.87616400  0.24978300  1
  V  V2  1  0.37313600  0.62029700  0.74584000  1
  V  V3  1  0.24710700  0.12596900  0.87091600  1
  V  V4  1  0.24913700  0.62437900  0.37339300  1
  V  V5  1  0.37652500  0.25083200  0.62674200  1
  V  V6  1  0.62509600  0.74937000  0.37299800  1
  V  V7  1  0.75407700  0.87362900  0.13055800  1
  V  V8  1  0.62646500  0.37853600  0.25399800  1
  V  V9  1  0.74988100  0.37545000  0.62592500  1
  V  V10  1  0.87440200  0.12409900  0.74944800  1
  V  V11  1  0.88087100  0.25540700  0.12727300  1
  O  O0  1  0.10120200  0.98185200  0.69179600  1
  O  O1  1  0.11451000  0.60280800  0.90690900  1
  O  O2  1  0.01200000  0.29946400  0.89774000  1
  O  O3  1  0.08786200  0.71198400  0.69634300  1
  O  O4  1  0.09026900  0.88037600  0.39502300  1
  O  O5  1  0.09888200  0.62510900  0.41280500  1
  O  O6  1  0.19577700  0.47868700  0.59836900  1
  O  O7  1  0.39602400  0.79342900  0.77526300  1
  O  O8  1  0.28956100  0.30597700  0.91061300  1
  O  O9  1  0.38546500  0.59872600  0.89884500  1
  O  O10  1  0.30253400  0.90430700  0.28842500  1
  O  O11  1  0.02049200  0.21326900  0.12294300  1
  O  O12  1  0.19599800  0.20635200  0.58817100  1
  O  O13  1  0.21204000  0.58389700  0.18498000  1
  O  O14  1  0.39209400  0.81099300  0.51638200  1
  O  O15  1  0.29498400  0.88876600  0.01578700  1
  O  O16  1  0.28729700  0.47416000  0.37254700  1
  O  O17  1  0.11508700  0.01481100  0.21106000  1
  O  O18  1  0.51646800  0.61294300  0.71252300  1
  O  O19  1  0.39396100  0.09589200  0.87191600  1
  O  O20  1  0.51811200  0.39511000  0.80777000  1
  O  O21  1  0.38184500  0.29181100  0.48900500  1
  O  O22  1  0.41099700  0.10543700  0.62027700  1
  O  O23  1  0.79162600  0.88102000  0.99176100  1
  O  O24  1  0.20808100  0.11802300  0.00911500  1
  O  O25  1  0.58946800  0.89469500  0.37861500  1
  O  O26  1  0.62128300  0.70825800  0.51110100  1
  O  O27  1  0.48520900  0.60531200  0.19373600  1
  O  O28  1  0.60878900  0.90538200  0.13063600  1
  O  O29  1  0.48584300  0.38720000  0.28831800  1
  O  O30  1  0.88409900  0.98393800  0.78812900  1
  O  O31  1  0.70980800  0.51633100  0.61979800  1
  O  O32  1  0.70620400  0.11286900  0.98550700  1
  O  O33  1  0.60851900  0.19578400  0.49095100  1
  O  O34  1  0.78919200  0.41267800  0.80706800  1
  O  O35  1  0.80553100  0.78918800  0.40788400  1
  O  O36  1  0.97588700  0.78564500  0.87654000  1
  O  O37  1  0.69776900  0.09807200  0.71181600  1
  O  O38  1  0.62147700  0.40884100  0.10587900  1
  O  O39  1  0.71518200  0.69313600  0.09303800  1
  O  O40  1  0.60364800  0.20563300  0.22575400  1
  O  O41  1  0.80547500  0.52216100  0.39893900  1
  O  O42  1  0.89179200  0.38097400  0.58718100  1
  O  O43  1  0.90225400  0.11474900  0.59951200  1
  O  O44  1  0.90971700  0.28735800  0.30371900  1
  O  O45  1  0.98430700  0.69669500  0.10468800  1
  O  O46  1  0.88179200  0.40091500  0.09385000  1
  O  O47  1  0.89903400  0.01794500  0.30818100  1
loop_
_geom_bond_atom_site_label_1
_geom_bond_atom_site_label_2
_geom_bond_distance
_geom_bond_site_symmetry_2
Na0 O6 2.516729 1_555
Na0 O43 2.544995 1_455
Na0 O2 2.548709 1_555
Na0 O9 2.555775 1_555
Na0 O8 2.591389 1_555
Na0 O1 2.599673 1_555
Na0 O42 2.636643 1_455
Na0 O12 2.648752 1_555
Na1 O30 2.530036 1_555
Na1 O37 2.542477 1_565
Na1 O7 2.543488 1_555
Na1 O18 2.556090 1_555
Na1 O14 2.598001 1_555
Na1 O26 2.610708 1_555
Na1 O32 2.655584 1_565
Na1 O23 2.698700 1_555
Na2 O17 2.521690 1_555
Na2 O10 2.526842 1_545
Na2 O40 2.541492 1_555
Na2 O29 2.553448 1_555
Na2 O21 2.602585 1_555
Na2 O15 2.630609 1_545
Na2 O33 2.646263 1_555
Na2 O24 2.661362 1_555
Ca0 O14 2.359229 1_555
Ca0 O5 2.383514 1_555
Ca0 O19 2.522321 1_565
Ca0 O7 2.525107 1_555
Ca0 O0 2.532703 1_555
Ca0 O4 2.573469 1_555
Ca0 O22 2.605081 1_565
Ca0 O3 2.641214 1_555
Ca1 O21 2.444373 1_555
Ca1 O11 2.480704 1_555
Ca1 O12 2.487125 1_555
Ca1 O44 2.494603 1_455
Ca1 O6 2.499310 1_555
Ca1 O16 2.501125 1_555
Ca1 O17 2.583832 1_555
Ca1 O47 2.627174 1_455
Ca2 O13 2.456404 1_555
Ca2 O27 2.460470 1_555
Ca2 O15 2.477595 1_555
Ca2 O1 2.480642 1_554
Ca2 O25 2.505387 1_555
Ca2 O10 2.547401 1_555
Ca2 O9 2.603617 1_554
Ca2 O28 2.642679 1_555
Ca3 O13 2.383375 1_555
Ca3 O16 2.402090 1_555
Ca3 O8 2.491317 1_554
Ca3 O24 2.509076 1_555
Ca3 O29 2.554993 1_555
Ca3 O11 2.557779 1_555
Ca3 O2 2.588028 1_554
Ca3 O27 2.607957 1_555
Ca4 O34 2.463641 1_555
Ca4 O31 2.472979 1_555
Ca4 O23 2.475131 1_555
Ca4 O39 2.490167 1_556
Ca4 O18 2.495012 1_555
Ca4 O36 2.536853 1_555
Ca4 O20 2.587236 1_555
Ca4 O45 2.624916 1_556
Ca5 O32 2.453315 1_555
Ca5 O20 2.456162 1_555
Ca5 O22 2.474606 1_555
Ca5 O46 2.495175 1_556
Ca5 O37 2.509294 1_555
Ca5 O34 2.542364 1_555
Ca5 O19 2.594036 1_555
Ca5 O38 2.652384 1_556
Ca6 O26 2.431944 1_555
Ca6 O36 2.466846 1_555
Ca6 O3 2.473943 1_655
Ca6 O35 2.489645 1_555
Ca6 O30 2.525611 1_555
Ca6 O41 2.565167 1_555
Ca6 O0 2.571068 1_655
Ca6 O31 2.598853 1_555
Ca7 O15 2.286012 1_556
Ca7 O19 2.291221 1_565
Ca7 O28 2.294341 1_556
Ca7 O7 2.295251 1_555
Ca7 O32 2.296999 1_565
Ca7 O40 2.313049 1_566
Ca8 O42 2.441820 1_555
Ca8 O33 2.455129 1_555
Ca8 O43 2.494278 1_555
Ca8 O28 2.495856 1_545
Ca8 O47 2.500583 1_555
Ca8 O40 2.554930 1_555
Ca8 O25 2.576436 1_545
Ca8 O44 2.632352 1_555
Ca9 O41 2.464632 1_555
Ca9 O4 2.467713 1_655
Ca9 O5 2.472079 1_655
Ca9 O45 2.488476 1_555
Ca9 O38 2.510506 1_555
Ca9 O46 2.529863 1_555
Ca9 O39 2.578702 1_555
Ca9 O35 2.599326 1_555
Mn0 O5 2.126219 1_555
Mn0 O6 2.172616 1_555
Mn0 O42 2.188528 1_455
Mn0 O3 2.190127 1_555
Mn0 O44 2.215639 1_455
Mn0 O41 2.230204 1_455
Mn1 O13 2.123073 1_555
Mn1 O1 2.148280 1_554
Mn1 O2 2.171517 1_554
Mn1 O46 2.180416 1_455
Mn1 O34 2.205066 1_454
Mn1 O45 2.217842 1_455
Mn2 O14 2.097768 1_555
Mn2 O22 2.171438 1_565
Mn2 O25 2.175812 1_555
Mn2 O37 2.181679 1_565
Mn2 O10 2.188929 1_555
Mn2 O33 2.190297 1_565
Mn3 O30 2.171853 1_545
Mn3 O11 2.178124 1_656
Mn3 O36 2.178851 1_545
Mn3 O24 2.180147 1_656
Mn3 O17 2.182114 1_656
Mn3 O23 2.196479 1_545
Mn4 O16 2.117915 1_555
Mn4 O18 2.174914 1_555
Mn4 O21 2.178050 1_555
Mn4 O26 2.179808 1_555
Mn4 O29 2.187915 1_555
Mn4 O31 2.201980 1_555
Mn5 O8 2.159348 1_555
Mn5 O20 2.162853 1_555
Mn5 O9 2.168206 1_555
Mn5 O27 2.176106 1_556
Mn5 O39 2.208785 1_556
Mn5 O38 2.221342 1_556
Mn6 O0 2.145966 1_545
Mn6 O12 2.146045 1_555
Mn6 O43 2.157492 1_455
Mn6 O47 2.165166 1_455
Mn6 O35 2.190229 1_445
Mn6 O4 2.196155 1_545
O0 V3 1.770313 1_565
O1 V0 1.733046 1_555
O2 V10 1.740044 1_455
O3 V0 1.763658 1_555
O4 V1 1.770229 1_555
O5 V4 1.853413 1_555
O6 V2 1.756886 1_555
O7 V2 1.742157 1_555
O8 V3 1.740139 1_555
O9 V2 1.756994 1_555
O10 V1 1.743083 1_555
O11 V11 1.761761 1_455
O12 V5 1.743697 1_555
O13 V4 1.847969 1_555
O14 V4 1.803947 1_555
O15 V0 1.732313 1_554
O16 V4 1.839029 1_555
O17 V1 1.750451 1_545
O18 V2 1.761790 1_555
O19 V3 1.756622 1_555
O20 V5 1.771304 1_555
O21 V5 1.743809 1_555
O22 V5 1.752733 1_555
O23 V7 1.741765 1_556
O24 V3 1.745384 1_554
O25 V6 1.760610 1_555
O26 V6 1.744614 1_555
O27 V6 1.756389 1_555
O28 V7 1.751737 1_555
O29 V8 1.741869 1_555
O30 V10 1.763426 1_565
O31 V9 1.767564 1_555
O32 V11 1.728402 1_556
O33 V9 1.739998 1_555
O34 V9 1.771697 1_555
O35 V6 1.762010 1_555
O36 V0 1.775704 1_655
O37 V10 1.750924 1_555
O38 V8 1.768463 1_555
O39 V7 1.758530 1_555
O40 V8 1.742878 1_555
O41 V8 1.764148 1_555
O42 V9 1.745924 1_555
O43 V10 1.765362 1_555
O44 V11 1.761006 1_555
O45 V1 1.762933 1_655
O46 V11 1.762249 1_555
O47 V7 1.759779 1_545
