# generated using pymatgen
data_Yb22Fe7S40
_symmetry_space_group_name_H-M   'P 1'
_cell_length_a   7.70573324
_cell_length_b   7.70573324
_cell_length_c   31.72378866
_cell_angle_alpha   82.81995238
_cell_angle_beta   82.81995238
_cell_angle_gamma   60.41578700
_symmetry_Int_Tables_number   1
_chemical_formula_structural   Yb22Fe7S40
_chemical_formula_sum   'Yb22 Fe7 S40'
_cell_volume   1620.90566166
_cell_formula_units_Z   1
loop_
 _symmetry_equiv_pos_site_id
 _symmetry_equiv_pos_as_xyz
  1  'x, y, z'
loop_
 _atom_site_type_symbol
 _atom_site_label
 _atom_site_symmetry_multiplicity
 _atom_site_fract_x
 _atom_site_fract_y
 _atom_site_fract_z
 _atom_site_occupancy
  Yb  Yb0  1  0.49933600  0.49933600  0.00171200  1
  Yb  Yb1  1  0.70077200  0.19877100  0.89969300  1
  Yb  Yb2  1  0.89989200  0.89989200  0.80024400  1
  Yb  Yb3  1  0.60087100  0.09960800  0.69986800  1
  Yb  Yb4  1  0.19877100  0.70077200  0.89969300  1
  Yb  Yb5  1  0.70067800  0.70067800  0.89966400  1
  Yb  Yb6  1  0.50100800  0.50100800  0.50069100  1
  Yb  Yb7  1  0.09960800  0.60087100  0.69986800  1
  Yb  Yb8  1  0.99730600  0.50096500  0.50070000  1
  Yb  Yb9  1  0.29996800  0.29996800  0.60002500  1
  Yb  Yb10  1  0.09963300  0.09963300  0.69986600  1
  Yb  Yb11  1  0.90307300  0.90307300  0.29888600  1
  Yb  Yb12  1  0.50096500  0.99730600  0.50070000  1
  Yb  Yb13  1  0.69997500  0.69997500  0.40047200  1
  Yb  Yb14  1  0.80166400  0.80166400  0.09878200  1
  Yb  Yb15  1  0.30081400  0.30081400  0.10044700  1
  Yb  Yb16  1  0.59825400  0.59825400  0.20151700  1
  Yb  Yb17  1  0.90544300  0.39345800  0.30111800  1
  Yb  Yb18  1  0.09972600  0.09972600  0.19915900  1
  Yb  Yb19  1  0.39345800  0.90544300  0.30111800  1
  Yb  Yb20  1  0.80146000  0.29803100  0.09876800  1
  Yb  Yb21  1  0.29803100  0.80146000  0.09876800  1
  Fe  Fe0  1  0.17491000  0.17491000  0.97391700  1
  Fe  Fe1  1  0.57468900  0.57468900  0.77482100  1
  Fe  Fe2  1  0.97474900  0.97474900  0.57467900  1
  Fe  Fe3  1  0.37461800  0.37461800  0.37567100  1
  Fe  Fe4  1  0.22544300  0.22544300  0.82477300  1
  Fe  Fe5  1  0.62526300  0.62526300  0.62520900  1
  Fe  Fe6  1  0.02511700  0.02511700  0.42581800  1
  S  S0  1  0.33591800  0.87616900  0.95206700  1
  S  S1  1  0.87616900  0.33591800  0.95206700  1
  S  S2  1  0.55127000  0.55127000  0.84598800  1
  S  S3  1  0.33613700  0.33613700  0.95219700  1
  S  S4  1  0.06103300  0.06103300  0.84840000  1
  S  S5  1  0.74087100  0.26697200  0.75139700  1
  S  S6  1  0.52890700  0.06132900  0.84833100  1
  S  S7  1  0.85120300  0.85120300  0.94605700  1
  S  S8  1  0.95119300  0.95119300  0.64631800  1
  S  S9  1  0.26697200  0.74087100  0.75139700  1
  S  S10  1  0.06132900  0.52890700  0.84833100  1
  S  S11  1  0.74117300  0.74117300  0.75132000  1
  S  S12  1  0.45869900  0.45869900  0.64883300  1
  S  S13  1  0.14187300  0.66532700  0.55100000  1
  S  S14  1  0.24857400  0.24857400  0.75438900  1
  S  S15  1  0.93301700  0.45905500  0.64875500  1
  S  S16  1  0.66532700  0.14187300  0.55100000  1
  S  S17  1  0.35218400  0.35218400  0.44359100  1
  S  S18  1  0.14223700  0.14223700  0.55091100  1
  S  S19  1  0.45905500  0.93301700  0.64875500  1
  S  S20  1  0.85745700  0.85745700  0.44836600  1
  S  S21  1  0.53156800  0.08563700  0.35245900  1
  S  S22  1  0.64889700  0.64889700  0.55348600  1
  S  S23  1  0.33644800  0.85754800  0.44838200  1
  S  S24  1  0.08563700  0.53156800  0.35245900  1
  S  S25  1  0.74625700  0.74625700  0.25576600  1
  S  S26  1  0.85754800  0.33644800  0.44838200  1
  S  S27  1  0.53160900  0.53160900  0.35205800  1
  S  S28  1  0.24616000  0.24616000  0.25059900  1
  S  S29  1  0.94828500  0.44784700  0.14894400  1
  S  S30  1  0.04713700  0.04713700  0.35643800  1
  S  S31  1  0.75651800  0.24883900  0.25145200  1
  S  S32  1  0.15300000  0.15300000  0.04112600  1
  S  S33  1  0.44784700  0.94828500  0.14894400  1
  S  S34  1  0.24883900  0.75651800  0.25145200  1
  S  S35  1  0.95237800  0.95237800  0.14882100  1
  S  S36  1  0.64781300  0.64781300  0.05059300  1
  S  S37  1  0.45206000  0.45206000  0.14813700  1
  S  S38  1  0.15273300  0.64817200  0.04969400  1
  S  S39  1  0.64817200  0.15273300  0.04969400  1
loop_
_geom_bond_atom_site_label_1
_geom_bond_atom_site_label_2
_geom_bond_distance
_geom_bond_site_symmetry_2
Fe0 S32 2.109772 1_556
Fe0 S3 2.158199 1_555
Fe0 S1 2.163992 1_455
Fe0 S0 2.163992 1_545
Fe1 S2 2.233998 1_555
Fe1 S11 2.234789 1_555
Fe1 S9 2.240299 1_555
Fe1 S5 2.240299 1_555
Fe2 S8 2.248816 1_555
Fe2 S18 2.249025 1_665
Fe2 S16 2.254275 1_565
Fe2 S13 2.254275 1_655
Fe3 S27 2.116601 1_555
Fe3 S21 2.119357 1_555
Fe3 S24 2.119357 1_555
Fe3 S17 2.132064 1_555
Fe4 S14 2.209421 1_555
Fe4 S4 2.209513 1_555
Fe4 S6 2.215088 1_555
Fe4 S10 2.215088 1_555
Fe5 S12 2.236539 1_555
Fe5 S15 2.242055 1_555
Fe5 S19 2.242055 1_555
Fe5 S22 2.251448 1_555
Fe6 S30 2.178000 1_555
Fe6 S20 2.244097 1_445
Fe6 S23 2.252680 1_545
Fe6 S26 2.252680 1_455
S0 Yb4 2.848653 1_555
S0 Yb5 2.851923 1_555
S0 Yb0 2.870549 1_556
S1 Yb1 2.848653 1_555
S1 Yb5 2.851923 1_555
S1 Yb0 2.870549 1_556
S2 Yb5 2.799900 1_555
S2 Yb4 2.802133 1_555
S2 Yb1 2.802133 1_555
S3 Yb1 2.850216 1_555
S3 Yb4 2.850216 1_555
S3 Yb0 2.859989 1_556
S4 Yb4 2.806082 1_545
S4 Yb1 2.806082 1_455
S4 Yb2 2.808617 1_445
S5 Yb3 2.800156 1_555
S5 Yb10 2.802697 1_655
S5 Yb2 2.803646 1_545
S6 Yb1 2.808244 1_555
S6 Yb5 2.811155 1_545
S6 Yb2 2.814201 1_545
S7 Yb5 2.653064 1_555
S7 Yb4 2.656344 1_655
S7 Yb1 2.656344 1_565
S8 Yb10 2.786720 1_665
S8 Yb7 2.787837 1_655
S8 Yb3 2.787837 1_565
S9 Yb7 2.800156 1_555
S9 Yb10 2.802697 1_565
S9 Yb2 2.803646 1_455
S10 Yb4 2.808244 1_555
S10 Yb5 2.811155 1_455
S10 Yb2 2.814201 1_455
S11 Yb2 2.797603 1_555
S11 Yb3 2.797758 1_565
S11 Yb7 2.797758 1_655
S12 Yb7 2.794339 1_555
S12 Yb3 2.794339 1_555
S12 Yb9 2.795294 1_555
S13 Yb8 2.781018 1_455
S13 Yb6 2.783898 1_555
S13 Yb9 2.796726 1_555
S14 Yb10 2.814127 1_555
S14 Yb7 2.815045 1_555
S14 Yb3 2.815045 1_555
S15 Yb7 2.796390 1_655
S15 Yb10 2.799087 1_655
S15 Yb9 2.801145 1_655
S16 Yb12 2.781018 1_545
S16 Yb6 2.783898 1_555
S16 Yb9 2.796726 1_555
S17 Yb6 2.872058 1_555
S17 Yb8 2.873992 1_455
S17 Yb12 2.873992 1_545
S18 Yb8 2.778746 1_455
S18 Yb12 2.778746 1_545
S18 Yb9 2.790632 1_555
S19 Yb3 2.796390 1_565
S19 Yb10 2.799087 1_565
S19 Yb9 2.801145 1_565
S20 Yb13 2.762177 1_555
S20 Yb12 2.801431 1_555
S20 Yb8 2.801431 1_555
S21 Yb19 2.858516 1_545
S21 Yb13 2.896603 1_545
S21 Yb11 2.909912 1_545
S22 Yb6 2.763882 1_555
S22 Yb12 2.764590 1_555
S22 Yb8 2.764590 1_555
S23 Yb13 2.769458 1_555
S23 Yb12 2.800437 1_555
S23 Yb6 2.802906 1_555
S24 Yb17 2.858516 1_455
S24 Yb13 2.896603 1_455
S24 Yb11 2.909912 1_455
S25 Yb11 2.657031 1_555
S25 Yb19 2.671325 1_555
S25 Yb17 2.671325 1_555
S25 Yb16 2.797981 1_555
S26 Yb13 2.769458 1_555
S26 Yb8 2.800437 1_555
S26 Yb6 2.802906 1_555
S27 Yb19 2.877734 1_555
S27 Yb17 2.877734 1_555
S27 Yb13 2.895434 1_555
S28 Yb19 2.685208 1_545
S28 Yb17 2.685208 1_455
S28 Yb18 2.717958 1_555
S29 Yb20 2.710305 1_555
S29 Yb15 2.716988 1_655
S29 Yb18 2.720467 1_655
S29 Yb14 2.750546 1_555
S29 Yb16 2.769833 1_555
S30 Yb17 2.797309 1_455
S30 Yb19 2.797309 1_545
S30 Yb11 2.833426 1_445
S31 Yb11 2.662743 1_545
S31 Yb17 2.682340 1_555
S31 Yb16 2.724106 1_555
S31 Yb18 2.728707 1_655
S32 Yb21 2.866041 1_545
S32 Yb20 2.866041 1_455
S32 Yb15 2.913566 1_555
S33 Yb21 2.710305 1_555
S33 Yb15 2.716988 1_565
S33 Yb18 2.720467 1_565
S33 Yb14 2.750546 1_555
S33 Yb16 2.769833 1_555
S34 Yb11 2.662743 1_455
S34 Yb19 2.682340 1_555
S34 Yb16 2.724106 1_555
S34 Yb18 2.728707 1_565
S35 Yb18 2.703323 1_665
S35 Yb21 2.704430 1_655
S35 Yb20 2.704430 1_565
S35 Yb14 2.733298 1_555
S36 Yb0 2.683695 1_555
S36 Yb21 2.697011 1_555
S36 Yb20 2.697011 1_555
S36 Yb14 2.727987 1_555
S37 Yb15 2.688533 1_555
S37 Yb20 2.714003 1_555
S37 Yb21 2.714003 1_555
S37 Yb16 2.759102 1_555
S38 Yb0 2.676053 1_555
S38 Yb21 2.696980 1_555
S38 Yb14 2.718510 1_455
S38 Yb15 2.724889 1_555
S39 Yb0 2.676053 1_555
S39 Yb20 2.696980 1_555
S39 Yb14 2.718510 1_545
S39 Yb15 2.724889 1_555
