# generated using pymatgen
data_Rb2Ti(GeO3)3
_symmetry_space_group_name_H-M   'P 1'
_cell_length_a   12.28850878
_cell_length_b   12.28850878
_cell_length_c   10.71009400
_cell_angle_alpha   90.00000000
_cell_angle_beta   90.00000000
_cell_angle_gamma   120.00000418
_symmetry_Int_Tables_number   1
_chemical_formula_structural   Rb2Ti(GeO3)3
_chemical_formula_sum   'Rb12 Ti6 Ge18 O54'
_cell_volume   1400.62625804
_cell_formula_units_Z   6
loop_
 _symmetry_equiv_pos_site_id
 _symmetry_equiv_pos_as_xyz
  1  'x, y, z'
loop_
 _atom_site_type_symbol
 _atom_site_label
 _atom_site_symmetry_multiplicity
 _atom_site_fract_x
 _atom_site_fract_y
 _atom_site_fract_z
 _atom_site_occupancy
  Rb  Rb0  1  0.64090700  0.64574600  0.47639200  1
  Rb  Rb1  1  0.64574600  0.64090700  0.02360800  1
  Rb  Rb2  1  0.99516100  0.64090700  0.52360800  1
  Rb  Rb3  1  0.35909300  0.00483900  0.02360800  1
  Rb  Rb4  1  0.35425400  0.99516100  0.47639200  1
  Rb  Rb5  1  0.00483900  0.35909300  0.47639200  1
  Rb  Rb6  1  0.64574600  0.00483900  0.52360800  1
  Rb  Rb7  1  0.00483900  0.64574600  0.97639200  1
  Rb  Rb8  1  0.64090700  0.99516100  0.97639200  1
  Rb  Rb9  1  0.35425400  0.35909300  0.97639200  1
  Rb  Rb10  1  0.99516100  0.35425400  0.02360800  1
  Rb  Rb11  1  0.35909300  0.35425400  0.52360800  1
  Ti  Ti0  1  0.33333300  0.66666700  0.99719500  1
  Ti  Ti1  1  0.00000000  0.00000000  0.50000000  1
  Ti  Ti2  1  0.66666700  0.33333300  0.50280500  1
  Ti  Ti3  1  0.33333300  0.66666700  0.49719500  1
  Ti  Ti4  1  0.66666700  0.33333300  0.00280500  1
  Ti  Ti5  1  0.00000000  0.00000000  0.00000000  1
  Ge  Ge0  1  0.83276100  0.28565100  0.75744500  1
  Ge  Ge1  1  0.54711000  0.83276100  0.24255500  1
  Ge  Ge2  1  0.83276100  0.54711000  0.25744500  1
  Ge  Ge3  1  0.28565100  0.83276100  0.74255500  1
  Ge  Ge4  1  0.71434900  0.16723900  0.25744500  1
  Ge  Ge5  1  0.16723900  0.45289000  0.74255500  1
  Ge  Ge6  1  0.17711600  0.17711600  0.75000000  1
  Ge  Ge7  1  0.45289000  0.28565100  0.25744500  1
  Ge  Ge8  1  0.45289000  0.16723900  0.75744500  1
  Ge  Ge9  1  0.71434900  0.54711000  0.75744500  1
  Ge  Ge10  1  0.28565100  0.45289000  0.24255500  1
  Ge  Ge11  1  0.17711600  0.00000000  0.25000000  1
  Ge  Ge12  1  0.00000000  0.17711600  0.25000000  1
  Ge  Ge13  1  0.82288400  0.82288400  0.25000000  1
  Ge  Ge14  1  0.16723900  0.71434900  0.24255500  1
  Ge  Ge15  1  0.00000000  0.82288400  0.75000000  1
  Ge  Ge16  1  0.82288400  0.00000000  0.75000000  1
  Ge  Ge17  1  0.54711000  0.71434900  0.74255500  1
  O  O0  1  0.61750800  0.61750800  0.75000000  1
  O  O1  1  0.20603600  0.87277300  0.20841300  1
  O  O2  1  0.05480100  0.90721500  0.88899100  1
  O  O3  1  0.20603600  0.33326300  0.70841300  1
  O  O4  1  0.65275500  0.19921400  0.39141000  1
  O  O5  1  0.87277300  0.66673700  0.79158700  1
  O  O6  1  0.77357900  0.29120600  0.61081900  1
  O  O7  1  0.00000000  0.61750800  0.25000000  1
  O  O8  1  0.29120600  0.77357900  0.88918100  1
  O  O9  1  0.48237300  0.70879400  0.88918100  1
  O  O10  1  0.00000000  0.38249200  0.75000000  1
  O  O11  1  0.12722700  0.33326300  0.20841300  1
  O  O12  1  0.94519900  0.85241400  0.61100900  1
  O  O13  1  0.51762700  0.29120600  0.11081900  1
  O  O14  1  0.70879400  0.22642100  0.11081900  1
  O  O15  1  0.22642100  0.51762700  0.88918100  1
  O  O16  1  0.66673700  0.79396400  0.20841300  1
  O  O17  1  0.05480100  0.14758600  0.38899100  1
  O  O18  1  0.14758600  0.09278500  0.61100900  1
  O  O19  1  0.54645900  0.19921400  0.89141000  1
  O  O20  1  0.29120600  0.51762700  0.38918100  1
  O  O21  1  0.61750800  0.00000000  0.25000000  1
  O  O22  1  0.65275500  0.45354100  0.89141000  1
  O  O23  1  0.85241400  0.94519900  0.88899100  1
  O  O24  1  0.70879400  0.48237300  0.61081900  1
  O  O25  1  0.48237300  0.77357900  0.38918100  1
  O  O26  1  0.09278500  0.14758600  0.88899100  1
  O  O27  1  0.45354100  0.80078600  0.10859000  1
  O  O28  1  0.90721500  0.85241400  0.11100900  1
  O  O29  1  0.22642100  0.70879400  0.38918100  1
  O  O30  1  0.80078600  0.34724500  0.89141000  1
  O  O31  1  0.79396400  0.12722700  0.79158700  1
  O  O32  1  0.77357900  0.48237300  0.11081900  1
  O  O33  1  0.33326300  0.12722700  0.29158700  1
  O  O34  1  0.34724500  0.54645900  0.10859000  1
  O  O35  1  0.54645900  0.34724500  0.39141000  1
  O  O36  1  0.85241400  0.90721500  0.38899100  1
  O  O37  1  0.19921400  0.54645900  0.60859000  1
  O  O38  1  0.38249200  0.00000000  0.75000000  1
  O  O39  1  0.90721500  0.05480100  0.61100900  1
  O  O40  1  0.87277300  0.20603600  0.29158700  1
  O  O41  1  0.79396400  0.66673700  0.29158700  1
  O  O42  1  0.38249200  0.38249200  0.25000000  1
  O  O43  1  0.19921400  0.65275500  0.10859000  1
  O  O44  1  0.51762700  0.22642100  0.61081900  1
  O  O45  1  0.12722700  0.79396400  0.70841300  1
  O  O46  1  0.09278500  0.94519900  0.38899100  1
  O  O47  1  0.94519900  0.09278500  0.11100900  1
  O  O48  1  0.45354100  0.65275500  0.60859000  1
  O  O49  1  0.33326300  0.20603600  0.79158700  1
  O  O50  1  0.34724500  0.80078600  0.60859000  1
  O  O51  1  0.14758600  0.05480100  0.11100900  1
  O  O52  1  0.66673700  0.87277300  0.70841300  1
  O  O53  1  0.80078600  0.45354100  0.39141000  1
loop_
_geom_bond_atom_site_label_1
_geom_bond_atom_site_label_2
_geom_bond_distance
_geom_bond_site_symmetry_2
Ge0 O6 1.746224 1_555
Ge0 O30 1.755926 1_555
Ge0 O10 1.788963 1_655
Ge0 O31 1.795235 1_555
Ge1 O25 1.746224 1_555
Ge1 O27 1.755926 1_555
Ge1 O21 1.788963 1_565
Ge1 O16 1.795235 1_555
Ge2 O32 1.746224 1_555
Ge2 O53 1.755926 1_555
Ge2 O7 1.788963 1_655
Ge2 O41 1.795235 1_555
Ge3 O8 1.746224 1_555
Ge3 O50 1.755926 1_555
Ge3 O38 1.788963 1_565
Ge3 O45 1.795235 1_555
Ge4 O14 1.746224 1_555
Ge4 O4 1.755926 1_555
Ge4 O21 1.788963 1_555
Ge4 O40 1.795235 1_555
Ge5 O15 1.746224 1_555
Ge5 O37 1.755926 1_555
Ge5 O10 1.788963 1_555
Ge5 O3 1.795235 1_555
Ge6 O18 1.745136 1_555
Ge6 O26 1.745136 1_555
Ge6 O49 1.823351 1_555
Ge6 O3 1.823351 1_555
Ge7 O13 1.746224 1_555
Ge7 O35 1.755926 1_555
Ge7 O42 1.788963 1_555
Ge7 O33 1.795235 1_555
Ge8 O44 1.746224 1_555
Ge8 O19 1.755926 1_555
Ge8 O38 1.788963 1_555
Ge8 O49 1.795235 1_555
Ge9 O24 1.746224 1_555
Ge9 O22 1.755926 1_555
Ge9 O0 1.788963 1_555
Ge9 O5 1.795235 1_555
Ge10 O20 1.746224 1_555
Ge10 O34 1.755926 1_555
Ge10 O42 1.788963 1_555
Ge10 O11 1.795235 1_555
Ge11 O46 1.745136 1_545
Ge11 O51 1.745136 1_555
Ge11 O33 1.823351 1_555
Ge11 O1 1.823351 1_545
Ge12 O47 1.745136 1_455
Ge12 O17 1.745136 1_555
Ge12 O11 1.823351 1_555
Ge12 O40 1.823351 1_455
Ge13 O28 1.745136 1_555
Ge13 O36 1.745136 1_555
Ge13 O41 1.823351 1_555
Ge13 O16 1.823351 1_555
Ge14 O29 1.746224 1_555
Ge14 O43 1.755926 1_555
Ge14 O7 1.788963 1_555
Ge14 O1 1.795235 1_555
Ge15 O2 1.745136 1_555
Ge15 O12 1.745136 1_455
Ge15 O5 1.823351 1_455
Ge15 O45 1.823351 1_555
Ge16 O39 1.745136 1_555
Ge16 O23 1.745136 1_545
Ge16 O52 1.823351 1_545
Ge16 O31 1.823351 1_555
Ge17 O9 1.746224 1_555
Ge17 O48 1.755926 1_555
Ge17 O0 1.788963 1_555
Ge17 O52 1.795235 1_555
O0 Rb0 2.947943 1_555
O0 Rb1 2.947943 1_556
O1 Rb3 2.652638 1_565
O1 Rb4 3.328273 1_555
O2 Ti5 1.983654 1_566
O2 Rb7 3.099076 1_555
O3 Rb11 2.652638 1_555
O3 Rb9 3.328273 1_555
O4 Ti2 1.971585 1_555
O4 Rb6 2.740737 1_555
O4 Rb4 3.372435 1_545
O5 Rb7 2.652638 1_655
O5 Rb2 3.328273 1_555
O6 Ti2 2.003105 1_555
O6 Rb5 2.911024 1_655
O6 Rb6 3.193063 1_555
O7 Rb7 2.947943 1_554
O7 Rb2 2.947943 1_455
O8 Ti0 2.003105 1_555
O8 Rb3 2.911024 1_566
O8 Rb7 3.193063 1_555
O9 Ti0 2.003115 1_555
O9 Rb1 2.911024 1_556
O9 Rb8 3.193063 1_555
O10 Rb10 2.947943 1_456
O10 Rb5 2.947943 1_555
O11 Rb10 2.652638 1_455
O11 Rb5 3.328273 1_555
O12 Ti1 1.983654 1_665
O12 Rb2 3.099076 1_555
O13 Ti4 2.003115 1_555
O13 Rb9 2.911024 1_554
O13 Rb3 3.193063 1_555
O14 Ti4 2.003105 1_555
O14 Rb8 2.911024 1_544
O14 Rb10 3.193063 1_555
O15 Ti0 2.003112 1_555
O15 Rb10 2.911024 1_456
O15 Rb9 3.193064 1_555
O16 Rb1 2.652638 1_555
O16 Rb0 3.328273 1_555
O17 Ti1 1.983654 1_555
O17 Rb5 3.099076 1_555
O18 Ti1 1.983654 1_555
O18 Rb11 3.099076 1_555
O19 Ti4 1.971589 1_556
O19 Rb3 2.740737 1_556
O19 Rb8 3.372435 1_545
O20 Ti3 2.003115 1_555
O20 Rb11 2.911024 1_555
O20 Rb5 3.193063 1_555
O21 Rb6 2.947943 1_555
O21 Rb8 2.947943 1_544
O22 Ti4 1.971594 1_556
O22 Rb1 2.740737 1_556
O22 Rb9 3.372435 1_555
O23 Ti5 1.983654 1_666
O23 Rb8 3.099076 1_555
O24 Ti2 2.003115 1_555
O24 Rb0 2.911024 1_555
O24 Rb2 3.193063 1_555
O25 Ti3 2.003112 1_555
O25 Rb6 2.911024 1_565
O25 Rb0 3.193064 1_555
O26 Ti5 1.983654 1_556
O26 Rb9 3.099076 1_555
O27 Ti0 1.971589 1_554
O27 Rb8 2.740737 1_554
O27 Rb3 3.372435 1_565
O28 Ti5 1.983654 1_665
O28 Rb1 3.099076 1_555
O29 Ti3 2.003105 1_555
O29 Rb2 2.911024 1_455
O29 Rb4 3.193063 1_555
O30 Ti4 1.971585 1_556
O30 Rb10 2.740737 1_556
O30 Rb7 3.372435 1_655
O31 Rb8 2.652638 1_545
O31 Rb6 3.328273 1_555
O32 Ti4 2.003112 1_555
O32 Rb7 2.911024 1_654
O32 Rb1 3.193064 1_555
O33 Rb4 2.652638 1_545
O33 Rb3 3.328273 1_555
O34 Ti0 1.971594 1_554
O34 Rb9 2.740737 1_554
O34 Rb1 3.372435 1_555
O35 Ti2 1.971594 1_555
O35 Rb11 2.740737 1_555
O35 Rb0 3.372435 1_555
O36 Ti1 1.983654 1_665
O36 Rb0 3.099076 1_555
O37 Ti3 1.971589 1_555
O37 Rb5 2.740737 1_555
O37 Rb2 3.372435 1_455
O38 Rb4 2.947943 1_545
O38 Rb3 2.947943 1_556
O39 Ti1 1.983654 1_655
O39 Rb6 3.099076 1_555
O40 Rb5 2.652638 1_655
O40 Rb10 3.328273 1_555
O41 Rb0 2.652638 1_555
O41 Rb1 3.328273 1_555
O42 Rb11 2.947943 1_555
O42 Rb9 2.947943 1_554
O43 Ti0 1.971585 1_554
O43 Rb7 2.740737 1_554
O43 Rb10 3.372435 1_455
O44 Ti2 2.003112 1_555
O44 Rb4 2.911024 1_545
O44 Rb11 3.193064 1_555
O45 Rb2 2.652638 1_455
O45 Rb7 3.328273 1_555
O46 Ti1 1.983654 1_565
O46 Rb4 3.099076 1_555
O47 Ti5 1.983654 1_655
O47 Rb10 3.099076 1_555
O48 Ti3 1.971594 1_555
O48 Rb0 2.740737 1_555
O48 Rb11 3.372435 1_555
O49 Rb9 2.652638 1_555
O49 Rb11 3.328273 1_555
O50 Ti3 1.971585 1_555
O50 Rb4 2.740737 1_555
O50 Rb6 3.372435 1_565
O51 Ti5 1.983654 1_555
O51 Rb3 3.099076 1_555
O52 Rb6 2.652638 1_565
O52 Rb8 3.328273 1_555
O53 Ti2 1.971589 1_555
O53 Rb2 2.740737 1_555
O53 Rb5 3.372435 1_655
