# generated using pymatgen
data_Fe2Cu6SnS8
_symmetry_space_group_name_H-M   'P 1'
_cell_length_a   7.60868700
_cell_length_b   7.60868700
_cell_length_c   5.31570200
_cell_angle_alpha   90.00000000
_cell_angle_beta   90.00000000
_cell_angle_gamma   90.00000000
_symmetry_Int_Tables_number   1
_chemical_formula_structural   Fe2Cu6SnS8
_chemical_formula_sum   'Fe2 Cu6 Sn1 S8'
_cell_volume   307.73724671
_cell_formula_units_Z   1
loop_
 _symmetry_equiv_pos_site_id
 _symmetry_equiv_pos_as_xyz
  1  'x, y, z'
loop_
 _atom_site_type_symbol
 _atom_site_label
 _atom_site_symmetry_multiplicity
 _atom_site_fract_x
 _atom_site_fract_y
 _atom_site_fract_z
 _atom_site_occupancy
  Fe  Fe0  1  0.50000000  0.50000000  0.50000000  1
  Fe  Fe1  1  0.50000000  0.50000000  0.00000000  1
  Cu  Cu0  1  0.75121000  0.24879000  0.50000000  1
  Cu  Cu1  1  0.00000000  0.50000000  0.00961900  1
  Cu  Cu2  1  0.75121000  0.75121000  0.50000000  1
  Cu  Cu3  1  0.24879000  0.75121000  0.50000000  1
  Cu  Cu4  1  0.24879000  0.24879000  0.50000000  1
  Cu  Cu5  1  0.50000000  0.00000000  0.99038100  1
  Sn  Sn0  1  0.00000000  0.00000000  0.00000000  1
  S  S0  1  0.00000000  0.26621000  0.73933100  1
  S  S1  1  0.00000000  0.73379000  0.73933100  1
  S  S2  1  0.26621000  0.00000000  0.26066900  1
  S  S3  1  0.50000000  0.74196400  0.75421200  1
  S  S4  1  0.74196400  0.50000000  0.24578800  1
  S  S5  1  0.25803600  0.50000000  0.24578800  1
  S  S6  1  0.73379000  0.00000000  0.26066900  1
  S  S7  1  0.50000000  0.25803600  0.75421200  1
loop_
_geom_bond_atom_site_label_1
_geom_bond_atom_site_label_2
_geom_bond_distance
_geom_bond_site_symmetry_2
Fe0 S3 2.283733 1_555
Fe0 S7 2.283733 1_555
Fe0 S4 2.283733 1_555
Fe0 S5 2.283733 1_555
Fe1 S4 2.257525 1_555
Fe1 S5 2.257525 1_555
Fe1 S3 2.257525 1_554
Fe1 S7 2.257525 1_554
Cu0 S0 2.284603 1_655
Cu0 S6 2.284603 1_555
Cu0 S7 2.341873 1_555
Cu0 S4 2.341873 1_555
Cu1 S0 2.286605 1_554
Cu1 S1 2.286605 1_554
Cu1 S5 2.330375 1_555
Cu1 S4 2.330375 1_455
Cu2 S1 2.284603 1_655
Cu2 S6 2.284603 1_565
Cu2 S3 2.341873 1_555
Cu2 S4 2.341873 1_555
Cu3 S2 2.284603 1_565
Cu3 S1 2.284603 1_555
Cu3 S3 2.341873 1_555
Cu3 S5 2.341873 1_555
Cu4 S0 2.284603 1_555
Cu4 S2 2.284603 1_555
Cu4 S7 2.341873 1_555
Cu4 S5 2.341873 1_555
Cu5 S2 2.286605 1_556
Cu5 S6 2.286605 1_556
Cu5 S7 2.330375 1_555
Cu5 S3 2.330375 1_545
S0 Sn0 2.454115 1_556
S1 Sn0 2.454115 1_566
S2 Sn0 2.454115 1_555
S6 Sn0 2.454115 1_655
