# generated using pymatgen
data_Ba4Tb(RuO4)3
_symmetry_space_group_name_H-M   'P 1'
_cell_length_a   10.43888838
_cell_length_b   10.43888838
_cell_length_c   10.43888764
_cell_angle_alpha   33.13082028
_cell_angle_beta   33.13082028
_cell_angle_gamma   33.13081960
_symmetry_Int_Tables_number   1
_chemical_formula_structural   Ba4Tb(RuO4)3
_chemical_formula_sum   'Ba4 Tb1 Ru3 O12'
_cell_volume   302.45906761
_cell_formula_units_Z   1
loop_
 _symmetry_equiv_pos_site_id
 _symmetry_equiv_pos_as_xyz
  1  'x, y, z'
loop_
 _atom_site_type_symbol
 _atom_site_label
 _atom_site_symmetry_multiplicity
 _atom_site_fract_x
 _atom_site_fract_y
 _atom_site_fract_z
 _atom_site_occupancy
  Ba  Ba0  1  0.71496700  0.71496700  0.71496700  1
  Ba  Ba1  1  0.87073600  0.87073600  0.87073600  1
  Ba  Ba2  1  0.28503300  0.28503300  0.28503300  1
  Ba  Ba3  1  0.12926400  0.12926400  0.12926400  1
  Tb  Tb0  1  0.00000000  0.00000000  0.00000000  1
  Ru  Ru0  1  0.58636600  0.58636600  0.58636600  1
  Ru  Ru1  1  0.41363400  0.41363400  0.41363400  1
  Ru  Ru2  1  0.50000000  0.50000000  0.50000000  1
  O  O0  1  0.21976800  0.21976800  0.69204900  1
  O  O1  1  0.69204900  0.21976800  0.21976800  1
  O  O2  1  0.21976800  0.69204900  0.21976800  1
  O  O3  1  0.78023200  0.30795100  0.78023200  1
  O  O4  1  0.78023200  0.78023200  0.30795100  1
  O  O5  1  0.30795100  0.78023200  0.78023200  1
  O  O6  1  0.38720600  0.38720600  0.85235500  1
  O  O7  1  0.85235500  0.38720600  0.38720600  1
  O  O8  1  0.14764500  0.61279400  0.61279400  1
  O  O9  1  0.61279400  0.61279400  0.14764500  1
  O  O10  1  0.61279400  0.14764500  0.61279400  1
  O  O11  1  0.38720600  0.85235500  0.38720600  1
loop_
_geom_bond_atom_site_label_1
_geom_bond_atom_site_label_2
_geom_bond_distance
_geom_bond_site_symmetry_2
Ba0 O9 2.905869 1_556
Ba0 O8 2.905870 1_655
Ba0 O10 2.905870 1_565
Ba0 O1 2.980644 1_565
Ba0 O2 2.980644 1_655
Ba0 O1 2.980644 1_556
Ba0 O2 2.980644 1_556
Ba0 O0 2.980644 1_655
Ba0 O0 2.980644 1_565
Ba0 O4 3.172014 1_555
Ba0 O5 3.172015 1_555
Ba0 O3 3.172015 1_555
Ba1 O7 2.982093 1_556
Ba1 O11 2.982093 1_556
Ba1 O7 2.982093 1_565
Ba1 O11 2.982093 1_655
Ba1 O6 2.982093 1_565
Ba1 O6 2.982093 1_655
Ba1 O8 2.987860 1_655
Ba1 O10 2.987860 1_565
Ba1 O9 2.987860 1_556
Ba1 O4 3.109158 1_556
Ba1 O5 3.109158 1_655
Ba1 O3 3.109158 1_565
Ba2 O6 2.905869 1_554
Ba2 O7 2.905870 1_455
Ba2 O11 2.905870 1_545
Ba2 O3 2.980644 1_455
Ba2 O5 2.980644 1_545
Ba2 O5 2.980644 1_554
Ba2 O3 2.980644 1_554
Ba2 O4 2.980644 1_455
Ba2 O4 2.980644 1_545
Ba2 O0 3.172014 1_555
Ba2 O2 3.172015 1_555
Ba2 O1 3.172015 1_555
Ba3 O10 2.982093 1_554
Ba3 O8 2.982093 1_554
Ba3 O10 2.982093 1_455
Ba3 O8 2.982093 1_545
Ba3 O9 2.982093 1_545
Ba3 O9 2.982093 1_455
Ba3 O7 2.987860 1_455
Ba3 O11 2.987860 1_545
Ba3 O6 2.987860 1_554
Ba3 O0 3.109158 1_554
Ba3 O2 3.109158 1_545
Ba3 O1 3.109158 1_455
O0 Ru1 1.948185 1_555
O0 Tb0 2.229660 1_556
O1 Ru1 1.948184 1_555
O1 Tb0 2.229660 1_655
O2 Ru1 1.948184 1_555
O2 Tb0 2.229660 1_565
O3 Ru0 1.948184 1_555
O3 Tb0 2.229660 1_656
O4 Ru0 1.948185 1_555
O4 Tb0 2.229660 1_665
O5 Ru0 1.948184 1_555
O5 Tb0 2.229660 1_566
O6 Ru2 2.028972 1_555
O6 Ru0 2.063200 1_555
O7 Ru2 2.028972 1_555
O7 Ru0 2.063200 1_555
O8 Ru2 2.028972 1_555
O8 Ru1 2.063200 1_555
O9 Ru2 2.028972 1_555
O9 Ru1 2.063200 1_555
O10 Ru2 2.028972 1_555
O10 Ru1 2.063200 1_555
O11 Ru2 2.028972 1_555
O11 Ru0 2.063200 1_555
