# generated using pymatgen
data_Yb3(Sb7Te12)2
_symmetry_space_group_name_H-M   'P 1'
_cell_length_a   8.29466800
_cell_length_b   8.69383577
_cell_length_c   21.47980092
_cell_angle_alpha   98.42507985
_cell_angle_beta   94.85054169
_cell_angle_gamma   109.77122220
_symmetry_Int_Tables_number   1
_chemical_formula_structural   Yb3(Sb7Te12)2
_chemical_formula_sum   'Yb3 Sb14 Te24'
_cell_volume   1426.87736289
_cell_formula_units_Z   1
loop_
 _symmetry_equiv_pos_site_id
 _symmetry_equiv_pos_as_xyz
  1  'x, y, z'
loop_
 _atom_site_type_symbol
 _atom_site_label
 _atom_site_symmetry_multiplicity
 _atom_site_fract_x
 _atom_site_fract_y
 _atom_site_fract_z
 _atom_site_occupancy
  Yb  Yb0  1  0.80962700  0.21414700  0.95757200  1
  Yb  Yb1  1  0.32018600  0.93931900  0.79863700  1
  Yb  Yb2  1  0.52247800  0.78008000  0.07201800  1
  Sb  Sb0  1  0.18678600  0.43426200  0.58614700  1
  Sb  Sb1  1  0.42052800  0.43941500  0.87573900  1
  Sb  Sb2  1  0.51121800  0.79724400  0.25934000  1
  Sb  Sb3  1  0.98465300  0.20317300  0.73301200  1
  Sb  Sb4  1  0.66360800  0.88974100  0.57882100  1
  Sb  Sb5  1  0.74228600  0.53508500  0.74349600  1
  Sb  Sb6  1  0.02151000  0.79884800  0.93014900  1
  Sb  Sb7  1  0.02922900  0.58414200  0.13770500  1
  Sb  Sb8  1  0.31872200  0.56747600  0.41584800  1
  Sb  Sb9  1  0.97638500  0.21031400  0.24502300  1
  Sb  Sb10  1  0.04788500  0.83744600  0.40188500  1
  Sb  Sb11  1  0.18101600  0.92483000  0.57658000  1
  Sb  Sb12  1  0.36761900  0.18506000  0.05717000  1
  Sb  Sb13  1  0.50535000  0.28108400  0.25529400  1
  Te  Te0  1  0.66737700  0.76621100  0.84507900  1
  Te  Te1  1  0.63692000  0.26744700  0.82253100  1
  Te  Te2  1  0.97571100  0.09214000  0.50193500  1
  Te  Te3  1  0.08733200  0.57453500  0.79703100  1
  Te  Te4  1  0.31488600  0.28119000  0.68425900  1
  Te  Te5  1  0.97729200  0.60477200  0.49103200  1
  Te  Te6  1  0.92432400  0.84224100  0.67205500  1
  Te  Te7  1  0.42789800  0.93678800  0.95369900  1
  Te  Te8  1  0.09503200  0.12045800  0.86719900  1
  Te  Te9  1  0.76865800  0.26176200  0.62844900  1
  Te  Te10  1  0.32090800  0.46712400  0.16047300  1
  Te  Te11  1  0.41507600  0.93867100  0.46226200  1
  Te  Te12  1  0.63331600  0.63110700  0.35367300  1
  Te  Te13  1  0.24008900  0.18614900  0.33979100  1
  Te  Te14  1  0.49891200  0.48962500  0.52752400  1
  Te  Te15  1  0.39837100  0.79566100  0.66336000  1
  Te  Te16  1  0.73143000  0.26063900  0.12670800  1
  Te  Te17  1  0.95294700  0.99631300  0.03587000  1
  Te  Te18  1  0.60105500  0.47106500  0.99814200  1
  Te  Te19  1  0.80169000  0.83296100  0.19175400  1
  Te  Te20  1  0.09186800  0.59600100  0.29315400  1
  Te  Te21  1  0.72816600  0.15969600  0.33383700  1
  Te  Te22  1  0.11672900  0.55349200  0.00716500  1
  Te  Te23  1  0.31826300  0.96062400  0.16025100  1
loop_
_geom_bond_atom_site_label_1
_geom_bond_atom_site_label_2
_geom_bond_distance
_geom_bond_site_symmetry_2
Sb0 Te14 2.899308 1_555
Sb0 Te4 2.956517 1_555
Sb0 Te2 3.090124 1_455
Sb0 Te15 3.154816 1_555
Sb0 Te5 3.379474 1_455
Sb1 Te18 2.841490 1_555
Sb1 Te1 2.902544 1_555
Sb1 Te0 3.088491 1_555
Sb1 Te8 3.116817 1_555
Sb2 Te19 2.868184 1_555
Sb2 Te12 2.952590 1_555
Sb2 Te10 3.133806 1_555
Sb2 Te21 3.150791 1_565
Sb2 Te23 3.310144 1_555
Sb3 Te4 2.914801 1_655
Sb3 Te9 2.964103 1_555
Sb3 Te6 3.071490 1_545
Sb3 Te3 3.111370 1_655
Sb3 Te8 3.204619 1_655
Sb4 Te15 2.949592 1_555
Sb4 Te6 2.995308 1_555
Sb4 Te9 3.046678 1_565
Sb4 Te14 3.253915 1_555
Sb4 Te11 3.275905 1_555
Sb4 Te2 3.319387 1_565
Sb5 Te3 2.880105 1_655
Sb5 Te0 2.995639 1_555
Sb5 Te1 3.015381 1_555
Sb5 Te9 3.243982 1_555
Sb5 Te6 3.260425 1_555
Sb5 Te4 3.489901 1_555
Sb6 Te17 2.857263 1_456
Sb6 Te7 3.139385 1_555
Sb6 Te22 3.140600 1_556
Sb6 Te8 3.179891 1_565
Sb6 Te0 3.228681 1_455
Sb6 Te3 3.409889 1_555
Sb7 Te22 2.952302 1_555
Sb7 Te10 2.956079 1_555
Sb7 Te16 3.012324 1_455
Sb7 Te23 3.275010 1_555
Sb7 Te20 3.316488 1_555
Sb7 Te19 3.462092 1_455
Sb8 Te12 2.954334 1_555
Sb8 Te14 2.999986 1_555
Sb8 Te11 3.037187 1_555
Sb8 Te20 3.196301 1_555
Sb8 Te13 3.294655 1_555
Sb8 Te5 3.460479 1_455
Sb9 Te21 2.892978 1_555
Sb9 Te13 2.942015 1_655
Sb9 Te19 3.094369 1_545
Sb9 Te20 3.142200 1_655
Sb9 Te16 3.291250 1_555
Sb10 Te5 2.936788 1_455
Sb10 Te11 2.986145 1_555
Sb10 Te20 3.036364 1_555
Sb10 Te2 3.098349 1_465
Sb10 Te12 3.285622 1_455
Sb10 Te13 3.433032 1_565
Sb11 Te5 2.961442 1_455
Sb11 Te6 3.064360 1_455
Sb11 Te15 3.066072 1_555
Sb11 Te2 3.079604 1_465
Sb11 Te11 3.247780 1_555
Sb11 Te4 3.364452 1_565
Sb12 Te7 3.059545 1_544
Sb12 Te16 3.062339 1_555
Sb12 Te18 3.101802 1_554
Sb12 Te23 3.123489 1_545
Sb12 Te10 3.206374 1_555
Sb12 Te17 3.229253 1_445
Sb13 Te21 2.947833 1_555
Sb13 Te13 2.949948 1_555
Sb13 Te23 3.034877 1_545
Sb13 Te12 3.225426 1_555
Sb13 Te10 3.349212 1_555
Sb13 Te16 3.483447 1_555
Te0 Yb1 3.799967 1_555
Te1 Yb1 3.094523 1_545
Te1 Yb0 3.289520 1_555
Te3 Yb1 3.098705 1_555
Te6 Yb1 3.850922 1_655
Te7 Yb2 3.214212 1_556
Te7 Yb0 3.252427 1_565
Te7 Yb1 3.379913 1_555
Te8 Yb1 3.148316 1_545
Te8 Yb0 3.413842 1_455
Te10 Yb2 3.575276 1_555
Te15 Yb1 3.197946 1_555
Te16 Yb0 3.732076 1_554
Te16 Yb2 3.893260 1_545
Te17 Yb0 3.153824 1_564
Te17 Yb2 3.638889 1_555
Te18 Yb2 3.204774 1_556
Te18 Yb0 3.322687 1_555
Te19 Yb2 3.180511 1_555
Te22 Yb0 3.140585 1_454
Te22 Yb2 3.326525 1_555
Te23 Yb2 3.224099 1_555
