# generated using pymatgen
data_La5MnOs3O16
_symmetry_space_group_name_H-M   'P 1'
_cell_length_a   5.70634000
_cell_length_b   5.71720205
_cell_length_c   10.25488096
_cell_angle_alpha   94.00623049
_cell_angle_beta   93.76293805
_cell_angle_gamma   90.86401896
_symmetry_Int_Tables_number   1
_chemical_formula_structural   La5MnOs3O16
_chemical_formula_sum   'La5 Mn1 Os3 O16'
_cell_volume   332.95630029
_cell_formula_units_Z   1
loop_
 _symmetry_equiv_pos_site_id
 _symmetry_equiv_pos_as_xyz
  1  'x, y, z'
loop_
 _atom_site_type_symbol
 _atom_site_label
 _atom_site_symmetry_multiplicity
 _atom_site_fract_x
 _atom_site_fract_y
 _atom_site_fract_z
 _atom_site_occupancy
  La  La0  1  0.51244300  0.02676500  0.20293300  1
  La  La1  1  0.48755700  0.97323500  0.79706700  1
  La  La2  1  0.03341000  0.50572600  0.20910700  1
  La  La3  1  0.96659000  0.49427400  0.79089300  1
  La  La4  1  0.00000000  0.00000000  0.50000000  1
  Mn  Mn0  1  0.50000000  0.50000000  0.00000000  1
  Os  Os0  1  0.44729800  0.44833600  0.60662100  1
  Os  Os1  1  0.55270200  0.55166400  0.39337900  1
  Os  Os2  1  0.00000000  0.00000000  0.00000000  1
  O  O0  1  0.32034600  0.30598200  0.43298400  1
  O  O1  1  0.67965400  0.69401800  0.56701600  1
  O  O2  1  0.22871300  0.22226000  0.67477700  1
  O  O3  1  0.77128700  0.77774000  0.32522300  1
  O  O4  1  0.53855800  0.54502200  0.79587000  1
  O  O5  1  0.46144200  0.45497800  0.20413000  1
  O  O6  1  0.91685500  0.92075900  0.81307900  1
  O  O7  1  0.08314500  0.07924100  0.18692100  1
  O  O8  1  0.70054200  0.22058300  0.63413200  1
  O  O9  1  0.29945800  0.77941700  0.36586800  1
  O  O10  1  0.20598500  0.68850800  0.63069400  1
  O  O11  1  0.79401500  0.31149200  0.36930600  1
  O  O12  1  0.29678300  0.81827700  0.99548900  1
  O  O13  1  0.70321700  0.18172300  0.00451100  1
  O  O14  1  0.82180700  0.71039600  0.03718200  1
  O  O15  1  0.17819300  0.28960400  0.96281800  1
loop_
_geom_bond_atom_site_label_1
_geom_bond_atom_site_label_2
_geom_bond_distance
_geom_bond_site_symmetry_2
La0 O3 2.418913 1_545
La0 O7 2.468674 1_555
La0 O5 2.469047 1_555
La0 O13 2.573694 1_555
La0 O12 2.592012 1_544
La0 O9 2.610289 1_545
La0 O11 2.704741 1_555
La1 O2 2.418913 1_565
La1 O6 2.468674 1_555
La1 O4 2.469047 1_555
La1 O12 2.573694 1_555
La1 O13 2.592012 1_566
La1 O8 2.610289 1_565
La1 O10 2.704741 1_555
La2 O14 2.446855 1_455
La2 O7 2.455494 1_555
La2 O5 2.467435 1_555
La2 O3 2.473642 1_455
La2 O11 2.510357 1_455
La2 O9 2.567888 1_555
La3 O15 2.446855 1_655
La3 O6 2.455494 1_555
La3 O4 2.467435 1_555
La3 O2 2.473642 1_655
La3 O10 2.510357 1_655
La3 O8 2.567888 1_555
La4 O2 2.419738 1_555
La4 O3 2.419738 1_445
La4 O8 2.556089 1_455
La4 O9 2.556089 1_545
La4 O10 2.557190 1_545
La4 O11 2.557190 1_455
La4 O0 2.666571 1_555
La4 O1 2.666571 1_445
Mn0 O4 2.151913 1_554
Mn0 O5 2.151913 1_555
Mn0 O12 2.174022 1_554
Mn0 O13 2.174022 1_555
Mn0 O14 2.177575 1_555
Mn0 O15 2.177575 1_554
O0 Os0 1.992039 1_555
O0 Os1 1.997533 1_555
O1 Os1 1.992039 1_555
O1 Os0 1.997533 1_555
O2 Os0 1.976604 1_555
O3 Os1 1.976604 1_555
O4 Os0 2.012941 1_555
O5 Os1 2.012941 1_555
O6 Os2 1.964046 1_666
O7 Os2 1.964046 1_555
O8 Os0 1.979382 1_555
O9 Os1 1.979382 1_555
O10 Os0 1.974038 1_555
O11 Os1 1.974038 1_555
O12 Os2 2.001569 1_566
O13 Os2 2.001569 1_655
O14 Os2 2.002270 1_665
O15 Os2 2.002270 1_556
