# generated using pymatgen
data_ThCr(IO5)2
_symmetry_space_group_name_H-M   'P 1'
_cell_length_a   7.48370800
_cell_length_b   9.46468800
_cell_length_c   12.07738000
_cell_angle_alpha   90.00000000
_cell_angle_beta   90.00000000
_cell_angle_gamma   90.00000000
_symmetry_Int_Tables_number   1
_chemical_formula_structural   ThCr(IO5)2
_chemical_formula_sum   'Th4 Cr4 I8 O40'
_cell_volume   855.45243542
_cell_formula_units_Z   4
loop_
 _symmetry_equiv_pos_site_id
 _symmetry_equiv_pos_as_xyz
  1  'x, y, z'
loop_
 _atom_site_type_symbol
 _atom_site_label
 _atom_site_symmetry_multiplicity
 _atom_site_fract_x
 _atom_site_fract_y
 _atom_site_fract_z
 _atom_site_occupancy
  Th  Th0  1  0.78373000  0.02227600  0.82505400  1
  Th  Th1  1  0.71627000  0.97772400  0.32505400  1
  Th  Th2  1  0.21627000  0.52227600  0.67494600  1
  Th  Th3  1  0.28373000  0.47772400  0.17494600  1
  Cr  Cr0  1  0.19465500  0.05412600  0.19671000  1
  Cr  Cr1  1  0.30534500  0.94587400  0.69671000  1
  Cr  Cr2  1  0.80534500  0.55412600  0.30329000  1
  Cr  Cr3  1  0.69465500  0.44587400  0.80329000  1
  I  I0  1  0.72430100  0.26522200  0.08229800  1
  I  I1  1  0.64799900  0.74067100  0.04333000  1
  I  I2  1  0.85200100  0.25932900  0.54333000  1
  I  I3  1  0.14799900  0.75932900  0.95667000  1
  I  I4  1  0.35200100  0.24067100  0.45667000  1
  I  I5  1  0.77569900  0.73477800  0.58229800  1
  I  I6  1  0.22430100  0.23477800  0.91770200  1
  I  I7  1  0.27569900  0.76522200  0.41770200  1
  O  O0  1  0.18265200  0.39742500  0.99401700  1
  O  O1  1  0.50802000  0.82359800  0.42456300  1
  O  O2  1  0.13567400  0.96790400  0.78650400  1
  O  O3  1  0.49004000  0.02618000  0.74622700  1
  O  O4  1  0.24703000  0.98918100  0.07431500  1
  O  O5  1  0.65654800  0.27412700  0.81955400  1
  O  O6  1  0.63567400  0.53209600  0.21349600  1
  O  O7  1  0.27603400  0.69010200  0.27874400  1
  O  O8  1  0.92829900  0.85174100  0.95068600  1
  O  O9  1  0.57626300  0.85060200  0.92697500  1
  O  O10  1  0.36432600  0.03209600  0.28650400  1
  O  O11  1  0.07626300  0.64939800  0.07302500  1
  O  O12  1  0.99004000  0.47382000  0.25377300  1
  O  O13  1  0.07170100  0.35174100  0.54931400  1
  O  O14  1  0.42373700  0.35060200  0.57302500  1
  O  O15  1  0.49198000  0.32359800  0.07543700  1
  O  O16  1  0.86432600  0.46790400  0.71349600  1
  O  O17  1  0.92373700  0.14939800  0.42697500  1
  O  O18  1  0.25297000  0.01081900  0.57431500  1
  O  O19  1  0.50996000  0.52618100  0.75377300  1
  O  O20  1  0.00996000  0.97381900  0.24622700  1
  O  O21  1  0.72396600  0.19010200  0.22125600  1
  O  O22  1  0.00802000  0.67640200  0.57543700  1
  O  O23  1  0.88030300  0.13442800  0.65991800  1
  O  O24  1  0.99198000  0.17640200  0.92456300  1
  O  O25  1  0.81734800  0.89742500  0.50598300  1
  O  O26  1  0.57170100  0.14825900  0.45068600  1
  O  O27  1  0.77603400  0.80989800  0.72125600  1
  O  O28  1  0.34345200  0.77412700  0.68044600  1
  O  O29  1  0.22396600  0.30989800  0.77874400  1
  O  O30  1  0.74703000  0.51081900  0.92568500  1
  O  O31  1  0.68265200  0.10257500  0.00598300  1
  O  O32  1  0.15654800  0.22587300  0.18044600  1
  O  O33  1  0.61969700  0.86557200  0.15991800  1
  O  O34  1  0.42829900  0.64825900  0.04931400  1
  O  O35  1  0.11969700  0.63442800  0.84008200  1
  O  O36  1  0.31734800  0.60257500  0.49401700  1
  O  O37  1  0.84345200  0.72587300  0.31955400  1
  O  O38  1  0.38030300  0.36557200  0.34008200  1
  O  O39  1  0.75297000  0.48918100  0.42568500  1
loop_
_geom_bond_atom_site_label_1
_geom_bond_atom_site_label_2
_geom_bond_distance
_geom_bond_site_symmetry_2
Cr0 O4 1.648204 1_545
Cr0 O32 1.662006 1_555
Cr0 O10 1.682818 1_555
Cr0 O20 1.686966 1_545
Cr1 O18 1.648204 1_565
Cr1 O28 1.662006 1_555
Cr1 O2 1.682818 1_555
Cr1 O3 1.686962 1_565
Cr2 O39 1.648204 1_555
Cr2 O37 1.662006 1_555
Cr2 O6 1.682818 1_555
Cr2 O12 1.686962 1_555
Cr3 O30 1.648204 1_555
Cr3 O5 1.662006 1_555
Cr3 O16 1.682818 1_555
Cr3 O19 1.686966 1_555
I0 O31 1.821103 1_555
I0 O21 1.822643 1_555
I0 O15 1.826183 1_555
I1 O9 1.829081 1_554
I1 O33 1.850681 1_555
I1 O34 1.863742 1_555
I1 O8 2.599484 1_554
I2 O17 1.829081 1_555
I2 O23 1.850681 1_555
I2 O13 1.863742 1_655
I2 O26 2.599484 1_555
I3 O11 1.829081 1_556
I3 O35 1.850681 1_555
I3 O8 1.863742 1_455
I3 O34 2.599484 1_556
I4 O14 1.829081 1_555
I4 O38 1.850681 1_555
I4 O26 1.863742 1_555
I4 O13 2.599484 1_555
I5 O25 1.821103 1_555
I5 O27 1.822643 1_555
I5 O22 1.826183 1_655
I6 O0 1.821103 1_555
I6 O29 1.822643 1_555
I6 O24 1.826183 1_455
I7 O36 1.821103 1_555
I7 O7 1.822643 1_555
I7 O1 1.826183 1_555
O0 Th3 2.434066 1_556
O1 Th1 2.449729 1_555
O2 Th0 2.723737 1_465
O3 Th0 2.395503 1_555
O5 Th0 2.567549 1_555
O6 Th3 2.723737 1_555
O7 Th3 2.369666 1_555
O8 Th0 2.465348 1_565
O9 Th0 2.562412 1_565
O10 Th1 2.723737 1_545
O11 Th3 2.562412 1_555
O12 Th3 2.395503 1_655
O13 Th2 2.465348 1_555
O14 Th2 2.562412 1_555
O15 Th3 2.449729 1_555
O16 Th2 2.723737 1_655
O17 Th1 2.562412 1_545
O19 Th2 2.395503 1_555
O20 Th1 2.395503 1_455
O21 Th1 2.369666 1_545
O22 Th2 2.449729 1_555
O23 Th0 2.372077 1_555
O24 Th0 2.449729 1_555
O25 Th1 2.434066 1_555
O26 Th1 2.465348 1_545
O27 Th0 2.369666 1_565
O28 Th2 2.567549 1_555
O29 Th2 2.369666 1_555
O31 Th0 2.434066 1_554
O32 Th3 2.567549 1_555
O33 Th1 2.372077 1_555
O34 Th3 2.465348 1_555
O35 Th2 2.372077 1_555
O36 Th2 2.434066 1_555
O37 Th1 2.567549 1_555
O38 Th3 2.372077 1_555
