# generated using pymatgen
data_KAuC2(SN)2
_symmetry_space_group_name_H-M   'P 1'
_cell_length_a   7.34684361
_cell_length_b   7.34684361
_cell_length_c   18.07212666
_cell_angle_alpha   71.44077419
_cell_angle_beta   71.44077419
_cell_angle_gamma   49.09365033
_symmetry_Int_Tables_number   1
_chemical_formula_structural   KAuC2(SN)2
_chemical_formula_sum   'K4 Au4 C8 S8 N8'
_cell_volume   690.63109182
_cell_formula_units_Z   4
loop_
 _symmetry_equiv_pos_site_id
 _symmetry_equiv_pos_as_xyz
  1  'x, y, z'
loop_
 _atom_site_type_symbol
 _atom_site_label
 _atom_site_symmetry_multiplicity
 _atom_site_fract_x
 _atom_site_fract_y
 _atom_site_fract_z
 _atom_site_occupancy
  K  K0  1  0.19009000  0.14718100  0.94804600  1
  K  K1  1  0.80991000  0.85281900  0.05195400  1
  K  K2  1  0.14718100  0.19009000  0.44804600  1
  K  K3  1  0.85281900  0.80991000  0.55195400  1
  Au  Au0  1  0.82354700  0.17645300  0.25000000  1
  Au  Au1  1  0.67429300  0.32570700  0.75000000  1
  Au  Au2  1  0.32570700  0.67429300  0.25000000  1
  Au  Au3  1  0.17645300  0.82354700  0.75000000  1
  C  C0  1  0.71661400  0.82797400  0.36517100  1
  C  C1  1  0.82797400  0.71661400  0.86517100  1
  C  C2  1  0.28338600  0.17202600  0.63482900  1
  C  C3  1  0.44924300  0.57274900  0.58844100  1
  C  C4  1  0.57274900  0.44924300  0.08844100  1
  C  C5  1  0.17202600  0.28338600  0.13482900  1
  C  C6  1  0.55075700  0.42725100  0.41155900  1
  C  C7  1  0.42725100  0.55075700  0.91155900  1
  S  S0  1  0.70274600  0.30958300  0.61784200  1
  S  S1  1  0.30958300  0.70274600  0.11784200  1
  S  S2  1  0.99432000  0.38093200  0.21937100  1
  S  S3  1  0.29725400  0.69041700  0.38215800  1
  S  S4  1  0.69041700  0.29725400  0.88215800  1
  S  S5  1  0.38093200  0.99432000  0.71937100  1
  S  S6  1  0.61906800  0.00568000  0.28062900  1
  S  S7  1  0.00568000  0.61906800  0.78062900  1
  N  N0  1  0.72749300  0.24369000  0.43595900  1
  N  N1  1  0.29357500  0.22617700  0.07280300  1
  N  N2  1  0.70642500  0.77382300  0.92719700  1
  N  N3  1  0.77382300  0.70642500  0.42719700  1
  N  N4  1  0.75631000  0.27250700  0.06404100  1
  N  N5  1  0.27250700  0.75631000  0.56404100  1
  N  N6  1  0.22617700  0.29357500  0.57280300  1
  N  N7  1  0.24369000  0.72749300  0.93595900  1
loop_
_geom_bond_atom_site_label_1
_geom_bond_atom_site_label_2
_geom_bond_distance
_geom_bond_site_symmetry_2
K0 N2 2.859510 1_545
K0 N7 2.914419 1_545
K0 N1 2.915515 1_556
K0 N4 2.920886 1_456
K0 S1 3.525760 1_546
K0 S4 3.571539 1_455
K0 S7 3.576270 1_555
K1 N1 2.859510 1_565
K1 N4 2.914419 1_565
K1 N2 2.915515 1_554
K1 N7 2.920886 1_654
K1 S4 3.525760 1_564
K1 S1 3.571539 1_655
K1 S2 3.576270 1_555
K2 N3 2.859510 1_455
K2 N0 2.914419 1_455
K2 N6 2.915515 1_555
K2 N5 2.920886 1_545
K2 S0 3.525760 1_455
K2 S3 3.571539 1_545
K2 S6 3.576270 1_555
K3 N6 2.859510 1_655
K3 N5 2.914419 1_655
K3 N3 2.915515 1_555
K3 N0 2.920886 1_565
K3 S3 3.525760 1_655
K3 S0 3.571539 1_565
K3 S5 3.576270 1_555
Au0 S6 2.373684 1_555
Au0 S2 2.373684 1_555
Au1 S0 2.364725 1_555
Au1 S4 2.364725 1_555
Au2 S3 2.364725 1_555
Au2 S1 2.364725 1_555
Au3 S7 2.373684 1_555
Au3 S5 2.373684 1_555
C0 N3 1.183963 1_555
C0 S6 1.659613 1_565
C1 N2 1.183963 1_555
C1 S7 1.659613 1_655
C2 N6 1.183963 1_555
C2 S5 1.659613 1_545
C3 N5 1.179723 1_555
C3 S0 1.658087 1_555
C4 N4 1.179723 1_555
C4 S1 1.658087 1_555
C5 N1 1.183963 1_555
C5 S2 1.659613 1_455
C6 N0 1.179723 1_555
C6 S3 1.658087 1_555
C7 N7 1.179723 1_555
C7 S4 1.658087 1_555
