# generated using pymatgen
data_Sm6Fe6As6O5F
_symmetry_space_group_name_H-M   'P 1'
_cell_length_a   12.01738900
_cell_length_b   8.03172900
_cell_length_c   9.93058630
_cell_angle_alpha   66.22297277
_cell_angle_beta   90.00000000
_cell_angle_gamma   90.00000000
_symmetry_Int_Tables_number   1
_chemical_formula_structural   Sm6Fe6As6O5F
_chemical_formula_sum   'Sm12 Fe12 As12 O10 F2'
_cell_volume   877.14777357
_cell_formula_units_Z   2
loop_
 _symmetry_equiv_pos_site_id
 _symmetry_equiv_pos_as_xyz
  1  'x, y, z'
loop_
 _atom_site_type_symbol
 _atom_site_label
 _atom_site_symmetry_multiplicity
 _atom_site_fract_x
 _atom_site_fract_y
 _atom_site_fract_z
 _atom_site_occupancy
  Sm  Sm0  1  0.08266000  0.31078100  0.12814200  1
  Sm  Sm1  1  0.41734000  0.31078100  0.12814200  1
  Sm  Sm2  1  0.75000000  0.32081300  0.13183000  1
  Sm  Sm3  1  0.07384100  0.80744300  0.13526500  1
  Sm  Sm4  1  0.42615900  0.80744300  0.13526500  1
  Sm  Sm5  1  0.75000000  0.79513300  0.13641400  1
  Sm  Sm6  1  0.25000000  0.67918700  0.86817000  1
  Sm  Sm7  1  0.58266000  0.68921900  0.87185800  1
  Sm  Sm8  1  0.91734000  0.68921900  0.87185800  1
  Sm  Sm9  1  0.25000000  0.20486700  0.86358600  1
  Sm  Sm10  1  0.57384100  0.19255700  0.86473500  1
  Sm  Sm11  1  0.92615900  0.19255700  0.86473500  1
  Fe  Fe0  1  0.08300300  0.37072100  0.49982900  1
  Fe  Fe1  1  0.41699700  0.37072100  0.49982900  1
  Fe  Fe2  1  0.75000000  0.37363000  0.50383900  1
  Fe  Fe3  1  0.25000000  0.62637000  0.49616100  1
  Fe  Fe4  1  0.58300300  0.62927900  0.50017100  1
  Fe  Fe5  1  0.91699700  0.62927900  0.50017100  1
  Fe  Fe6  1  0.08300100  0.87908200  0.49793000  1
  Fe  Fe7  1  0.41699900  0.87908200  0.49793000  1
  Fe  Fe8  1  0.75000000  0.87368200  0.50314400  1
  Fe  Fe9  1  0.25000000  0.12631800  0.49685600  1
  Fe  Fe10  1  0.58300100  0.12091800  0.50207000  1
  Fe  Fe11  1  0.91699900  0.12091800  0.50207000  1
  As  As0  1  0.25000000  0.46901600  0.31376900  1
  As  As1  1  0.58456100  0.46588700  0.31785600  1
  As  As2  1  0.91543900  0.46588700  0.31785600  1
  As  As3  1  0.08456100  0.53411300  0.68214400  1
  As  As4  1  0.41543900  0.53411300  0.68214400  1
  As  As5  1  0.75000000  0.53098400  0.68623100  1
  As  As6  1  0.25000000  0.96722600  0.31301400  1
  As  As7  1  0.58559700  0.96979800  0.31322300  1
  As  As8  1  0.91440300  0.96979800  0.31322300  1
  As  As9  1  0.08559700  0.03020200  0.68677700  1
  As  As10  1  0.41440300  0.03020200  0.68677700  1
  As  As11  1  0.75000000  0.03277400  0.68698600  1
  O  O0  1  0.25000000  0.37513100  0.99913800  1
  O  O1  1  0.58482700  0.37150800  0.99827600  1
  O  O2  1  0.91517300  0.37150800  0.99827600  1
  O  O3  1  0.08482700  0.62849200  0.00172400  1
  O  O4  1  0.41517300  0.62849200  0.00172400  1
  O  O5  1  0.75000000  0.62486900  0.00086200  1
  O  O6  1  0.58698600  0.87898200  0.00169700  1
  O  O7  1  0.91301400  0.87898200  0.00169700  1
  O  O8  1  0.08698600  0.12101800  0.99830300  1
  O  O9  1  0.41301400  0.12101800  0.99830300  1
  F  F0  1  0.25000000  0.87448000  0.00092100  1
  F  F1  1  0.75000000  0.12552000  0.99907900  1
loop_
_geom_bond_atom_site_label_1
_geom_bond_atom_site_label_2
_geom_bond_distance
_geom_bond_site_symmetry_2
As0 Fe3 2.593021 1_555
As0 Fe9 2.616561 1_555
As0 Fe0 2.624594 1_555
As0 Fe1 2.624594 1_555
As0 Sm0 3.308540 1_555
As0 Sm1 3.308540 1_555
As0 Sm3 3.335703 1_555
As0 Sm4 3.335703 1_555
As1 Fe1 2.605948 1_555
As1 Fe2 2.609475 1_555
As1 Fe4 2.629884 1_555
As1 Fe10 2.633735 1_555
As1 Sm5 3.217160 1_555
As1 Sm4 3.228939 1_555
As1 Sm2 3.234005 1_555
As1 Sm1 3.321466 1_555
As2 Fe0 2.605948 1_655
As2 Fe2 2.609475 1_555
As2 Fe5 2.629884 1_555
As2 Fe11 2.633735 1_555
As2 Sm5 3.217160 1_555
As2 Sm3 3.228939 1_655
As2 Sm2 3.234005 1_555
As2 Sm0 3.321466 1_655
As3 Fe5 2.605948 1_455
As3 Fe3 2.609475 1_555
As3 Fe0 2.629884 1_555
As3 Fe6 2.633735 1_555
As3 Sm9 3.217160 1_555
As3 Sm11 3.228939 1_455
As3 Sm6 3.234005 1_555
As3 Sm8 3.321466 1_455
As4 Fe4 2.605948 1_555
As4 Fe3 2.609475 1_555
As4 Fe1 2.629884 1_555
As4 Fe7 2.633735 1_555
As4 Sm9 3.217160 1_555
As4 Sm10 3.228939 1_555
As4 Sm6 3.234005 1_555
As4 Sm7 3.321466 1_555
As5 Fe2 2.593021 1_555
As5 Fe8 2.616561 1_555
As5 Fe4 2.624594 1_555
As5 Fe5 2.624594 1_555
As5 Sm7 3.308540 1_555
As5 Sm8 3.308540 1_555
As5 Sm10 3.335703 1_555
As5 Sm11 3.335703 1_555
As6 Fe3 2.605323 1_555
As6 Fe9 2.616645 1_565
As6 Fe7 2.617749 1_555
As6 Fe6 2.617749 1_555
As6 Sm0 3.308119 1_565
As6 Sm1 3.308119 1_565
As6 Sm4 3.327296 1_555
As6 Sm3 3.327296 1_555
As7 Fe10 2.612778 1_565
As7 Fe4 2.614062 1_555
As7 Fe8 2.623430 1_555
As7 Fe7 2.631121 1_555
As7 Sm4 3.217586 1_555
As7 Sm1 3.302747 1_565
As7 Sm5 3.307639 1_555
As7 Sm2 3.316831 1_565
As8 Fe11 2.612778 1_565
As8 Fe5 2.614062 1_555
As8 Fe8 2.623430 1_555
As8 Fe6 2.631121 1_655
As8 Sm3 3.217586 1_655
As8 Sm0 3.302747 1_665
As8 Sm5 3.307639 1_555
As8 Sm2 3.316831 1_565
As9 Fe6 2.612778 1_545
As9 Fe0 2.614062 1_555
As9 Fe9 2.623430 1_555
As9 Fe11 2.631121 1_455
As9 Sm11 3.217586 1_455
As9 Sm8 3.302747 1_445
As9 Sm9 3.307639 1_555
As9 Sm6 3.316831 1_545
As10 Fe7 2.612778 1_545
As10 Fe1 2.614062 1_555
As10 Fe9 2.623430 1_555
As10 Fe10 2.631121 1_555
As10 Sm10 3.217586 1_555
As10 Sm7 3.302747 1_545
As10 Sm9 3.307639 1_555
As10 Sm6 3.316831 1_545
As11 Fe2 2.605323 1_555
As11 Fe8 2.616645 1_545
As11 Fe11 2.617749 1_555
As11 Fe10 2.617749 1_555
As11 Sm8 3.308119 1_545
As11 Sm7 3.308119 1_545
As11 Sm10 3.327296 1_555
As11 Sm11 3.327296 1_555
O0 Sm6 2.257043 1_555
O0 Sm9 2.272988 1_555
O0 Sm0 2.327763 1_556
O0 Sm1 2.327763 1_556
O1 Sm10 2.319228 1_555
O1 Sm2 2.330097 1_556
O1 Sm1 2.333464 1_556
O1 Sm7 2.346290 1_555
O2 Sm11 2.319228 1_555
O2 Sm2 2.330097 1_556
O2 Sm0 2.333464 1_656
O2 Sm8 2.346290 1_555
O3 Sm3 2.319228 1_555
O3 Sm6 2.330097 1_554
O3 Sm8 2.333464 1_454
O3 Sm0 2.346290 1_555
O4 Sm4 2.319228 1_555
O4 Sm6 2.330097 1_554
O4 Sm7 2.333464 1_554
O4 Sm1 2.346290 1_555
O5 Sm2 2.257043 1_555
O5 Sm5 2.272988 1_555
O5 Sm7 2.327763 1_554
O5 Sm8 2.327763 1_554
O6 Sm4 2.282622 1_555
O6 Sm5 2.313978 1_555
O6 Sm10 2.335759 1_564
O6 Sm7 2.360674 1_554
O7 Sm3 2.282622 1_655
O7 Sm5 2.313978 1_555
O7 Sm11 2.335759 1_564
O7 Sm8 2.360674 1_554
O8 Sm11 2.282622 1_455
O8 Sm9 2.313978 1_555
O8 Sm3 2.335759 1_546
O8 Sm0 2.360674 1_556
O9 Sm10 2.282622 1_555
O9 Sm9 2.313978 1_555
O9 Sm4 2.335759 1_546
O9 Sm1 2.360674 1_556
F0 Sm6 2.421901 1_554
F0 Sm4 2.443790 1_555
F0 Sm3 2.443790 1_555
F0 Sm9 2.446073 1_564
F1 Sm2 2.421901 1_556
F1 Sm11 2.443790 1_555
F1 Sm10 2.443790 1_555
F1 Sm5 2.446073 1_546
