# generated using pymatgen
data_K9(Mo6S7)8
_symmetry_space_group_name_H-M   'P 1'
_cell_length_a   10.57223691
_cell_length_b   10.57223691
_cell_length_c   24.16006400
_cell_angle_alpha   90.00000000
_cell_angle_beta   90.00000000
_cell_angle_gamma   120.00000569
_symmetry_Int_Tables_number   1
_chemical_formula_structural   K9(Mo6S7)8
_chemical_formula_sum   'K9 Mo48 S56'
_cell_volume   2338.63508149
_cell_formula_units_Z   1
loop_
 _symmetry_equiv_pos_site_id
 _symmetry_equiv_pos_as_xyz
  1  'x, y, z'
loop_
 _atom_site_type_symbol
 _atom_site_label
 _atom_site_symmetry_multiplicity
 _atom_site_fract_x
 _atom_site_fract_y
 _atom_site_fract_z
 _atom_site_occupancy
  K  K0  1  0.00000000  0.00000000  0.59251500  1
  K  K1  1  0.33333300  0.66666700  0.90293200  1
  K  K2  1  0.33333300  0.66666700  0.36214400  1
  K  K3  1  0.00000000  0.00000000  0.79562300  1
  K  K4  1  0.00000000  0.00000000  0.00000000  1
  K  K5  1  0.00000000  0.00000000  0.20437700  1
  K  K6  1  0.00000000  0.00000000  0.40748500  1
  K  K7  1  0.66666700  0.33333300  0.09706800  1
  K  K8  1  0.66666700  0.33333300  0.63785600  1
  Mo  Mo0  1  0.20711800  0.72253400  0.07892600  1
  Mo  Mo1  1  0.19674000  0.69241500  0.57161200  1
  Mo  Mo2  1  0.00011100  0.48978600  0.28608300  1
  Mo  Mo3  1  0.13764700  0.70982600  0.79427300  1
  Mo  Mo4  1  0.99263400  0.54150800  0.94183900  1
  Mo  Mo5  1  0.07190700  0.45857400  0.47801400  1
  Mo  Mo6  1  0.37321800  0.85835800  0.17245800  1
  Mo  Mo7  1  0.25664000  0.76231500  0.68144100  1
  Mo  Mo8  1  0.14164200  0.51486000  0.17245800  1
  Mo  Mo9  1  0.23768500  0.49432400  0.68144100  1
  Mo  Mo10  1  0.54887500  0.00736600  0.94183900  1
  Mo  Mo11  1  0.38666700  0.92809300  0.47801400  1
  Mo  Mo12  1  0.48967400  0.99988900  0.28608300  1
  Mo  Mo13  1  0.57217900  0.86235300  0.79427300  1
  Mo  Mo14  1  0.27746600  0.48458300  0.07892600  1
  Mo  Mo15  1  0.30758500  0.50432500  0.57161200  1
  Mo  Mo16  1  0.51541700  0.79288200  0.07892600  1
  Mo  Mo17  1  0.49567500  0.80326000  0.57161200  1
  Mo  Mo18  1  0.51021400  0.51032600  0.28608300  1
  Mo  Mo19  1  0.29017400  0.42782100  0.79427300  1
  Mo  Mo20  1  0.45849200  0.45112500  0.94183900  1
  Mo  Mo21  1  0.54142600  0.61333300  0.47801400  1
  Mo  Mo22  1  0.48514000  0.62678200  0.17245800  1
  Mo  Mo23  1  0.50567600  0.74336000  0.68144100  1
  Mo  Mo24  1  0.51486000  0.37321800  0.82754200  1
  Mo  Mo25  1  0.49432400  0.25664000  0.31855900  1
  Mo  Mo26  1  0.54150800  0.54887500  0.05816100  1
  Mo  Mo27  1  0.45857400  0.38666700  0.52198600  1
  Mo  Mo28  1  0.48978600  0.48967400  0.71391700  1
  Mo  Mo29  1  0.70982600  0.57217900  0.20572700  1
  Mo  Mo30  1  0.48458300  0.20711800  0.92107400  1
  Mo  Mo31  1  0.50432500  0.19674000  0.42838800  1
  Mo  Mo32  1  0.72253400  0.51541700  0.92107400  1
  Mo  Mo33  1  0.69241500  0.49567500  0.42838800  1
  Mo  Mo34  1  0.51032600  0.00011100  0.71391700  1
  Mo  Mo35  1  0.42782100  0.13764700  0.20572700  1
  Mo  Mo36  1  0.45112500  0.99263400  0.05816100  1
  Mo  Mo37  1  0.61333300  0.07190700  0.52198600  1
  Mo  Mo38  1  0.85835800  0.48514000  0.82754200  1
  Mo  Mo39  1  0.76231500  0.50567600  0.31855900  1
  Mo  Mo40  1  0.62678200  0.14164200  0.82754200  1
  Mo  Mo41  1  0.74336000  0.23768500  0.31855900  1
  Mo  Mo42  1  0.00736600  0.45849200  0.05816100  1
  Mo  Mo43  1  0.92809300  0.54142600  0.52198600  1
  Mo  Mo44  1  0.99988900  0.51021400  0.71391700  1
  Mo  Mo45  1  0.86235300  0.29017400  0.20572700  1
  Mo  Mo46  1  0.79288200  0.27746600  0.92107400  1
  Mo  Mo47  1  0.80326000  0.30758500  0.42838800  1
  S  S0  1  0.92486200  0.51252500  0.15025800  1
  S  S1  1  0.01076700  0.68517600  0.63860900  1
  S  S2  1  0.98091700  0.66141100  0.02552200  1
  S  S3  1  0.10671500  0.79895500  0.50825400  1
  S  S4  1  0.25501400  0.91549100  0.24505400  1
  S  S5  1  0.26478800  0.94841900  0.74077200  1
  S  S6  1  0.03580700  0.28583600  0.11844100  1
  S  S7  1  0.05461900  0.44019100  0.60275900  1
  S  S8  1  0.25002900  0.96419300  0.11844100  1
  S  S9  1  0.38557200  0.94538100  0.60275900  1
  S  S10  1  0.08450900  0.33952300  0.24505400  1
  S  S11  1  0.05158100  0.31636900  0.74077200  1
  S  S12  1  0.33333300  0.66666700  0.76304200  1
  S  S13  1  0.33333300  0.66666700  0.23575200  1
  S  S14  1  0.33333300  0.66666700  0.01277900  1
  S  S15  1  0.33333300  0.66666700  0.48151500  1
  S  S16  1  0.20104500  0.30776000  0.50825400  1
  S  S17  1  0.33858900  0.31950500  0.02552200  1
  S  S18  1  0.58766200  0.07513800  0.15025800  1
  S  S19  1  0.67441000  0.98923300  0.63860900  1
  S  S20  1  0.48747500  0.41233800  0.15025800  1
  S  S21  1  0.31482400  0.32559000  0.63860900  1
  S  S22  1  0.68049500  0.01908300  0.02552200  1
  S  S23  1  0.69224000  0.89328500  0.50825400  1
  S  S24  1  0.28583600  0.25002900  0.88155900  1
  S  S25  1  0.44019100  0.38557200  0.39724100  1
  S  S26  1  0.33952300  0.25501400  0.75494600  1
  S  S27  1  0.31636900  0.26478800  0.25922800  1
  S  S28  1  0.66047700  0.74498600  0.24505400  1
  S  S29  1  0.68363100  0.73521200  0.74077200  1
  S  S30  1  0.71416400  0.74997100  0.11844100  1
  S  S31  1  0.55980900  0.61442800  0.60275900  1
  S  S32  1  0.31950500  0.98091700  0.97447800  1
  S  S33  1  0.30776000  0.10671500  0.49174600  1
  S  S34  1  0.68517600  0.67441000  0.36139100  1
  S  S35  1  0.51252500  0.58766200  0.84974200  1
  S  S36  1  0.41233800  0.92486200  0.84974200  1
  S  S37  1  0.32559000  0.01076700  0.36139100  1
  S  S38  1  0.79895500  0.69224000  0.49174600  1
  S  S39  1  0.66141100  0.68049500  0.97447800  1
  S  S40  1  0.66666700  0.33333300  0.98722100  1
  S  S41  1  0.66666700  0.33333300  0.51848500  1
  S  S42  1  0.66666700  0.33333300  0.23695800  1
  S  S43  1  0.66666700  0.33333300  0.76424800  1
  S  S44  1  0.91549100  0.66047700  0.75494600  1
  S  S45  1  0.94841900  0.68363100  0.25922800  1
  S  S46  1  0.74997100  0.03580700  0.88155900  1
  S  S47  1  0.61442800  0.05461900  0.39724100  1
  S  S48  1  0.96419300  0.71416400  0.88155900  1
  S  S49  1  0.94538100  0.55980900  0.39724100  1
  S  S50  1  0.74498600  0.08450900  0.75494600  1
  S  S51  1  0.73521200  0.05158100  0.25922800  1
  S  S52  1  0.01908300  0.33858900  0.97447800  1
  S  S53  1  0.89328500  0.20104500  0.49174600  1
  S  S54  1  0.07513800  0.48747500  0.84974200  1
  S  S55  1  0.98923300  0.31482400  0.36139100  1
loop_
_geom_bond_atom_site_label_1
_geom_bond_atom_site_label_2
_geom_bond_distance
_geom_bond_site_symmetry_2
K0 S16 3.511823 1_555
K0 S23 3.511823 1_445
K0 S3 3.511823 1_545
K0 S19 3.565129 1_445
K0 S21 3.565134 1_555
K0 S1 3.565139 1_545
K0 S38 3.757103 1_445
K0 S33 3.757104 1_555
K0 S53 3.757104 1_455
K1 S14 2.653911 1_556
K1 S36 2.742320 1_555
K1 S54 2.742324 1_555
K1 S35 2.742338 1_555
K2 S15 2.884011 1_555
K2 S13 3.053639 1_555
K2 S55 3.679565 1_455
K2 S34 3.679565 1_555
K2 S37 3.679565 1_565
K2 S49 3.766187 1_455
K2 S47 3.766189 1_565
K2 S25 3.766197 1_555
K3 S29 3.378873 1_445
K3 S11 3.378873 1_555
K3 S5 3.378873 1_545
K3 S26 3.382551 1_555
K3 S44 3.382551 1_445
K3 S50 3.382551 1_455
K3 S24 3.527329 1_555
K3 S48 3.527329 1_445
K3 S46 3.527329 1_455
K4 S22 3.537300 1_455
K4 S32 3.537300 1_544
K4 S17 3.537306 1_555
K4 S39 3.537306 1_444
K4 S2 3.537311 1_445
K4 S52 3.537311 1_554
K5 S27 3.378873 1_555
K5 S45 3.378873 1_445
K5 S51 3.378873 1_455
K5 S28 3.382551 1_445
K5 S10 3.382551 1_555
K5 S4 3.382551 1_545
K5 S30 3.527329 1_445
K5 S6 3.527329 1_555
K5 S8 3.527329 1_545
K6 S38 3.511823 1_445
K6 S33 3.511823 1_555
K6 S53 3.511823 1_455
K6 S37 3.565129 1_555
K6 S34 3.565134 1_445
K6 S55 3.565139 1_455
K6 S16 3.757103 1_555
K6 S23 3.757104 1_445
K6 S3 3.757104 1_545
K7 S40 2.653911 1_554
K7 S18 2.742320 1_555
K7 S0 2.742324 1_555
K7 S20 2.742338 1_555
K8 S41 2.884011 1_555
K8 S43 3.053639 1_555
K8 S1 3.679565 1_655
K8 S21 3.679565 1_555
K8 S19 3.679565 1_545
K8 S7 3.766187 1_655
K8 S9 3.766189 1_545
K8 S31 3.766197 1_555
Mo0 S14 2.339128 1_555
Mo0 S2 2.501195 1_455
Mo0 S8 2.546678 1_555
Mo1 S3 2.364263 1_555
Mo1 S7 2.434723 1_555
Mo1 S1 2.518167 1_555
Mo1 S9 2.522926 1_555
Mo1 S15 2.700157 1_555
Mo2 S10 2.391640 1_555
Mo2 S45 2.457550 1_455
Mo2 S55 2.555860 1_455
Mo2 S49 2.919513 1_455
Mo3 S44 2.337931 1_455
Mo3 S12 2.449819 1_555
Mo3 S54 2.491023 1_555
Mo3 S5 2.539640 1_555
Mo3 S48 2.810018 1_455
Mo3 S36 2.965794 1_555
Mo4 S2 2.422171 1_556
Mo4 S52 2.429454 1_655
Mo4 S48 2.468242 1_555
Mo4 S54 2.556630 1_655
Mo5 S53 2.438761 1_455
Mo5 S15 2.530927 1_555
Mo5 S16 2.667744 1_555
Mo5 S49 2.859160 1_455
Mo5 S7 3.019757 1_555
Mo5 S55 3.111955 1_455
Mo6 S18 2.341849 1_565
Mo6 S4 2.399507 1_555
Mo6 S13 2.401827 1_555
Mo6 S8 2.471556 1_555
Mo7 S5 2.400808 1_555
Mo7 S1 2.524492 1_555
Mo7 S12 2.527180 1_555
Mo7 S9 2.565028 1_555
Mo8 S0 2.341854 1_455
Mo8 S10 2.399507 1_555
Mo8 S13 2.401830 1_555
Mo8 S6 2.471556 1_555
Mo9 S11 2.400804 1_555
Mo9 S21 2.524492 1_555
Mo9 S12 2.527191 1_555
Mo9 S7 2.565030 1_555
Mo10 S22 2.422171 1_556
Mo10 S32 2.429473 1_545
Mo10 S46 2.468234 1_555
Mo10 S36 2.556630 1_545
Mo11 S33 2.438761 1_565
Mo11 S15 2.530923 1_555
Mo11 S3 2.667744 1_555
Mo11 S47 2.859160 1_565
Mo11 S9 3.019757 1_555
Mo11 S37 3.111959 1_565
Mo12 S4 2.391631 1_555
Mo12 S51 2.457560 1_565
Mo12 S37 2.555860 1_565
Mo12 S47 2.919517 1_565
Mo13 S50 2.337931 1_565
Mo13 S12 2.449825 1_555
Mo13 S36 2.491014 1_555
Mo13 S29 2.539640 1_555
Mo13 S46 2.810018 1_565
Mo13 S35 2.965797 1_555
Mo14 S14 2.339143 1_555
Mo14 S17 2.501195 1_555
Mo14 S6 2.546674 1_555
Mo15 S16 2.364263 1_555
Mo15 S31 2.434723 1_555
Mo15 S21 2.518175 1_555
Mo15 S7 2.522926 1_555
Mo15 S15 2.700163 1_555
Mo16 S14 2.339139 1_555
Mo16 S22 2.501195 1_565
Mo16 S30 2.546668 1_555
Mo17 S23 2.364263 1_555
Mo17 S9 2.434723 1_555
Mo17 S19 2.518171 1_555
Mo17 S31 2.522926 1_555
Mo17 S15 2.700161 1_555
Mo18 S28 2.391633 1_555
Mo18 S27 2.457556 1_555
Mo18 S34 2.555859 1_555
Mo18 S25 2.919517 1_555
Mo19 S26 2.337931 1_555
Mo19 S12 2.449829 1_555
Mo19 S35 2.491021 1_555
Mo19 S11 2.539640 1_555
Mo19 S24 2.810018 1_555
Mo19 S54 2.965788 1_555
Mo20 S17 2.422171 1_556
Mo20 S39 2.429465 1_555
Mo20 S24 2.468237 1_555
Mo20 S35 2.556630 1_555
Mo21 S38 2.438761 1_555
Mo21 S15 2.530934 1_555
Mo21 S23 2.667744 1_555
Mo21 S25 2.859160 1_555
Mo21 S31 3.019757 1_555
Mo21 S34 3.111954 1_555
Mo22 S20 2.341844 1_555
Mo22 S28 2.399507 1_555
Mo22 S13 2.401835 1_555
Mo22 S30 2.471556 1_555
Mo23 S29 2.400800 1_555
Mo23 S19 2.524492 1_555
Mo23 S12 2.527192 1_555
Mo23 S31 2.565023 1_555
Mo24 S35 2.341844 1_555
Mo24 S26 2.399507 1_555
Mo24 S43 2.401835 1_555
Mo24 S24 2.471556 1_555
Mo25 S27 2.400800 1_555
Mo25 S37 2.524492 1_555
Mo25 S42 2.527192 1_555
Mo25 S25 2.565023 1_555
Mo26 S39 2.422171 1_554
Mo26 S17 2.429465 1_555
Mo26 S30 2.468237 1_555
Mo26 S20 2.556630 1_555
Mo27 S16 2.438761 1_555
Mo27 S41 2.530934 1_555
Mo27 S33 2.667744 1_555
Mo27 S31 2.859160 1_555
Mo27 S25 3.019757 1_555
Mo27 S21 3.111954 1_555
Mo28 S26 2.391633 1_555
Mo28 S29 2.457556 1_555
Mo28 S21 2.555859 1_555
Mo28 S31 2.919517 1_555
Mo29 S28 2.337931 1_555
Mo29 S42 2.449829 1_555
Mo29 S20 2.491021 1_555
Mo29 S45 2.539640 1_555
Mo29 S30 2.810018 1_555
Mo29 S0 2.965788 1_555
Mo30 S40 2.339139 1_555
Mo30 S32 2.501195 1_545
Mo30 S24 2.546668 1_555
Mo31 S33 2.364263 1_555
Mo31 S47 2.434723 1_555
Mo31 S37 2.518171 1_555
Mo31 S25 2.522926 1_555
Mo31 S41 2.700161 1_555
Mo32 S40 2.339143 1_555
Mo32 S39 2.501195 1_555
Mo32 S48 2.546674 1_555
Mo33 S38 2.364263 1_555
Mo33 S25 2.434723 1_555
Mo33 S34 2.518175 1_555
Mo33 S49 2.522926 1_555
Mo33 S41 2.700163 1_555
Mo34 S50 2.391631 1_555
Mo34 S5 2.457560 1_545
Mo34 S19 2.555860 1_545
Mo34 S9 2.919517 1_545
Mo35 S4 2.337931 1_545
Mo35 S42 2.449825 1_555
Mo35 S18 2.491014 1_555
Mo35 S27 2.539640 1_555
Mo35 S8 2.810018 1_545
Mo35 S20 2.965797 1_555
Mo36 S32 2.422171 1_554
Mo36 S22 2.429473 1_565
Mo36 S8 2.468234 1_555
Mo36 S18 2.556630 1_565
Mo37 S23 2.438761 1_545
Mo37 S41 2.530923 1_555
Mo37 S53 2.667744 1_555
Mo37 S9 2.859160 1_545
Mo37 S47 3.019757 1_555
Mo37 S19 3.111959 1_545
Mo38 S54 2.341854 1_655
Mo38 S44 2.399507 1_555
Mo38 S43 2.401830 1_555
Mo38 S48 2.471556 1_555
Mo39 S45 2.400804 1_555
Mo39 S34 2.524492 1_555
Mo39 S42 2.527191 1_555
Mo39 S49 2.565030 1_555
Mo40 S36 2.341849 1_545
Mo40 S50 2.399507 1_555
Mo40 S43 2.401827 1_555
Mo40 S46 2.471556 1_555
Mo41 S51 2.400808 1_555
Mo41 S55 2.524492 1_555
Mo41 S42 2.527180 1_555
Mo41 S47 2.565028 1_555
Mo42 S52 2.422171 1_554
Mo42 S2 2.429454 1_455
Mo42 S6 2.468242 1_555
Mo42 S0 2.556630 1_455
Mo43 S3 2.438761 1_655
Mo43 S41 2.530927 1_555
Mo43 S38 2.667744 1_555
Mo43 S7 2.859160 1_655
Mo43 S49 3.019757 1_555
Mo43 S1 3.111955 1_655
Mo44 S44 2.391640 1_555
Mo44 S11 2.457550 1_655
Mo44 S1 2.555860 1_655
Mo44 S7 2.919513 1_655
Mo45 S10 2.337931 1_655
Mo45 S42 2.449819 1_555
Mo45 S0 2.491023 1_555
Mo45 S51 2.539640 1_555
Mo45 S6 2.810018 1_655
Mo45 S18 2.965794 1_555
Mo46 S40 2.339128 1_555
Mo46 S52 2.501195 1_655
Mo46 S46 2.546678 1_555
Mo47 S53 2.364263 1_555
Mo47 S49 2.434723 1_555
Mo47 S55 2.518167 1_555
Mo47 S47 2.522926 1_555
Mo47 S41 2.700157 1_555
