# generated using pymatgen
data_Ba3La7Mn2(Co4O15)2
_symmetry_space_group_name_H-M   'P 1'
_cell_length_a   3.91361700
_cell_length_b   8.74271300
_cell_length_c   17.44733045
_cell_angle_alpha   89.63272625
_cell_angle_beta   90.00000000
_cell_angle_gamma   90.00000000
_symmetry_Int_Tables_number   1
_chemical_formula_structural   Ba3La7Mn2(Co4O15)2
_chemical_formula_sum   'Ba3 La7 Mn2 Co8 O30'
_cell_volume   596.95914246
_cell_formula_units_Z   1
loop_
 _symmetry_equiv_pos_site_id
 _symmetry_equiv_pos_as_xyz
  1  'x, y, z'
loop_
 _atom_site_type_symbol
 _atom_site_label
 _atom_site_symmetry_multiplicity
 _atom_site_fract_x
 _atom_site_fract_y
 _atom_site_fract_z
 _atom_site_occupancy
  Ba  Ba0  1  0.00000000  0.00000000  0.00000000  1
  Ba  Ba1  1  0.00000000  0.39686600  0.89605400  1
  Ba  Ba2  1  0.00000000  0.60313400  0.10394600  1
  La  La0  1  0.00000000  0.19581900  0.69629100  1
  La  La1  1  0.00000000  0.20125500  0.20313800  1
  La  La2  1  0.00000000  0.40146100  0.39934200  1
  La  La3  1  0.00000000  0.80418100  0.30370900  1
  La  La4  1  0.00000000  0.59853900  0.60065800  1
  La  La5  1  0.00000000  0.00000000  0.50000000  1
  La  La6  1  0.00000000  0.79874500  0.79686200  1
  Mn  Mn0  1  0.50000000  0.30088300  0.05141300  1
  Mn  Mn1  1  0.50000000  0.69911700  0.94858700  1
  Co  Co0  1  0.50000000  0.90149200  0.15392700  1
  Co  Co1  1  0.50000000  0.50150100  0.25354800  1
  Co  Co2  1  0.50000000  0.69956300  0.45140800  1
  Co  Co3  1  0.50000000  0.10145100  0.35327200  1
  Co  Co4  1  0.50000000  0.89854900  0.64672800  1
  Co  Co5  1  0.50000000  0.30043700  0.54859200  1
  Co  Co6  1  0.50000000  0.49849900  0.74645200  1
  Co  Co7  1  0.50000000  0.09850800  0.84607300  1
  O  O0  1  0.50000000  0.38553800  0.15697400  1
  O  O1  1  0.50000000  0.79973100  0.04943500  1
  O  O2  1  0.50000000  0.59782300  0.35514300  1
  O  O3  1  0.50000000  0.00701500  0.25745400  1
  O  O4  1  0.50000000  0.80483400  0.54943400  1
  O  O5  1  0.50000000  0.19516600  0.45056600  1
  O  O6  1  0.50000000  0.99298500  0.74254600  1
  O  O7  1  0.50000000  0.40217700  0.64485700  1
  O  O8  1  0.50000000  0.20026900  0.95056500  1
  O  O9  1  0.50000000  0.61446200  0.84302600  1
  O  O10  1  0.50000000  0.50000000  0.00000000  1
  O  O11  1  0.50000000  0.30252800  0.30598200  1
  O  O12  1  0.50000000  0.10104300  0.10971300  1
  O  O13  1  0.50000000  0.71487300  0.21159700  1
  O  O14  1  0.50000000  0.89970500  0.40228100  1
  O  O15  1  0.50000000  0.69747200  0.69401800  1
  O  O16  1  0.50000000  0.50000000  0.50000000  1
  O  O17  1  0.50000000  0.10029500  0.59771900  1
  O  O18  1  0.50000000  0.89895700  0.89028700  1
  O  O19  1  0.50000000  0.28512700  0.78840300  1
  O  O20  1  0.00000000  0.29498600  0.06153700  1
  O  O21  1  0.00000000  0.50050800  0.26083000  1
  O  O22  1  0.00000000  0.91306400  0.16527600  1
  O  O23  1  0.00000000  0.70096500  0.45149100  1
  O  O24  1  0.00000000  0.09923900  0.35430700  1
  O  O25  1  0.00000000  0.90076100  0.64569300  1
  O  O26  1  0.00000000  0.29903500  0.54850900  1
  O  O27  1  0.00000000  0.08693600  0.83472400  1
  O  O28  1  0.00000000  0.49949200  0.73917000  1
  O  O29  1  0.00000000  0.70501400  0.93846300  1
loop_
_geom_bond_atom_site_label_1
_geom_bond_atom_site_label_2
_geom_bond_distance
_geom_bond_site_symmetry_2
Ba0 O8 2.760306 1_454
Ba0 O8 2.760306 1_554
Ba0 O1 2.760306 1_545
Ba0 O1 2.760306 1_445
Ba0 O20 2.799886 1_555
Ba0 O29 2.799886 1_544
Ba0 O12 2.880159 1_455
Ba0 O12 2.880159 1_555
Ba0 O18 2.880159 1_544
Ba0 O18 2.880159 1_444
Ba0 O22 2.977395 1_545
Ba0 O27 2.977395 1_554
Ba1 O8 2.768921 1_455
Ba1 O8 2.768921 1_555
Ba1 O29 2.798383 1_555
Ba1 O10 2.819955 1_456
Ba1 O10 2.819955 1_556
Ba1 O28 2.875037 1_555
Ba1 O9 2.877772 1_455
Ba1 O9 2.877772 1_555
Ba1 O19 2.886985 1_555
Ba1 O19 2.886985 1_455
Ba1 O27 2.919633 1_555
Ba1 O20 3.016045 1_556
Ba2 O1 2.768921 1_455
Ba2 O1 2.768921 1_555
Ba2 O20 2.798383 1_555
Ba2 O10 2.819955 1_555
Ba2 O10 2.819955 1_455
Ba2 O21 2.875037 1_555
Ba2 O0 2.877772 1_555
Ba2 O0 2.877772 1_455
Ba2 O13 2.886985 1_555
Ba2 O13 2.886985 1_455
Ba2 O22 2.919633 1_555
Ba2 O29 3.016045 1_554
La0 O27 2.590426 1_555
La0 O19 2.652852 1_455
La0 O19 2.652852 1_555
La0 O26 2.726285 1_555
La0 O25 2.731832 1_545
La0 O17 2.739114 1_555
La0 O17 2.739114 1_455
La0 O6 2.758026 1_545
La0 O6 2.758026 1_445
La0 O28 2.762930 1_555
La0 O7 2.805089 1_455
La0 O7 2.805089 1_555
La1 O20 2.597928 1_555
La1 O22 2.608823 1_545
La1 O0 2.656491 1_455
La1 O0 2.656491 1_555
La1 O12 2.696657 1_455
La1 O12 2.696657 1_555
La1 O3 2.755064 1_555
La1 O3 2.755064 1_455
La1 O24 2.778795 1_555
La1 O11 2.802339 1_555
La1 O11 2.802339 1_455
La1 O21 2.809250 1_555
La2 O21 2.561892 1_555
La2 O11 2.692313 1_455
La2 O11 2.692313 1_555
La2 O2 2.711824 1_455
La2 O2 2.711824 1_555
La2 O26 2.746881 1_555
La2 O24 2.761420 1_555
La2 O16 2.770372 1_455
La2 O16 2.770372 1_555
La2 O23 2.777556 1_555
La2 O5 2.803581 1_455
La2 O5 2.803581 1_555
La3 O22 2.590426 1_555
La3 O13 2.652852 1_455
La3 O13 2.652852 1_555
La3 O23 2.726285 1_555
La3 O24 2.731832 1_565
La3 O14 2.739114 1_455
La3 O14 2.739114 1_555
La3 O3 2.758026 1_465
La3 O3 2.758026 1_565
La3 O21 2.762930 1_555
La3 O2 2.805089 1_555
La3 O2 2.805089 1_455
La4 O28 2.561892 1_555
La4 O15 2.692313 1_555
La4 O15 2.692313 1_455
La4 O7 2.711824 1_455
La4 O7 2.711824 1_555
La4 O23 2.746881 1_555
La4 O25 2.761420 1_555
La4 O16 2.770372 1_555
La4 O16 2.770372 1_455
La4 O26 2.777556 1_555
La4 O4 2.803581 1_555
La4 O4 2.803581 1_455
La5 O24 2.680675 1_555
La5 O25 2.680675 1_545
La5 O5 2.732310 1_455
La5 O5 2.732310 1_555
La5 O4 2.732310 1_445
La5 O4 2.732310 1_545
La5 O17 2.742980 1_555
La5 O17 2.742980 1_455
La5 O14 2.742980 1_545
La5 O14 2.742980 1_445
La5 O26 2.753116 1_555
La5 O23 2.753116 1_545
La6 O29 2.597928 1_555
La6 O27 2.608823 1_565
La6 O9 2.656491 1_555
La6 O9 2.656491 1_455
La6 O18 2.696657 1_455
La6 O18 2.696657 1_555
La6 O6 2.755064 1_455
La6 O6 2.755064 1_555
La6 O25 2.778795 1_555
La6 O15 2.802339 1_455
La6 O15 2.802339 1_555
La6 O28 2.809250 1_555
Mn0 O10 1.953225 1_555
Mn0 O20 1.965411 1_655
Mn0 O20 1.965411 1_555
Mn0 O8 1.972194 1_554
Mn0 O0 1.989300 1_555
Mn0 O12 2.016031 1_555
Mn1 O10 1.953225 1_556
Mn1 O29 1.965411 1_555
Mn1 O29 1.965411 1_655
Mn1 O1 1.972194 1_556
Mn1 O9 1.989300 1_555
Mn1 O18 2.016031 1_555
Co0 O12 1.903029 1_565
Co0 O13 1.911372 1_555
Co0 O22 1.969467 1_655
Co0 O22 1.969467 1_555
Co0 O3 2.033491 1_565
Co0 O1 2.033720 1_555
Co1 O11 1.960255 1_555
Co1 O21 1.960944 1_555
Co1 O21 1.960944 1_655
Co1 O2 1.967300 1_555
Co1 O0 1.972014 1_555
Co1 O13 1.999531 1_555
Co2 O2 1.905592 1_555
Co2 O16 1.934905 1_555
Co2 O14 1.943501 1_555
Co2 O4 1.947391 1_555
Co2 O23 1.956847 1_555
Co2 O23 1.956847 1_655
Co3 O3 1.869268 1_555
Co3 O5 1.889629 1_555
Co3 O11 1.937159 1_555
Co3 O14 1.955208 1_545
Co3 O24 1.956986 1_655
Co3 O24 1.956986 1_555
Co4 O6 1.869268 1_555
Co4 O4 1.889629 1_555
Co4 O15 1.937159 1_555
Co4 O17 1.955208 1_565
Co4 O25 1.956986 1_555
Co4 O25 1.956986 1_655
Co5 O7 1.905592 1_555
Co5 O16 1.934905 1_555
Co5 O17 1.943501 1_555
Co5 O5 1.947391 1_555
Co5 O26 1.956847 1_555
Co5 O26 1.956847 1_655
Co6 O15 1.960255 1_555
Co6 O28 1.960944 1_655
Co6 O28 1.960944 1_555
Co6 O7 1.967300 1_555
Co6 O9 1.972014 1_555
Co6 O19 1.999531 1_555
Co7 O18 1.903029 1_545
Co7 O19 1.911372 1_555
Co7 O27 1.969467 1_555
Co7 O27 1.969467 1_655
Co7 O6 2.033491 1_545
Co7 O8 2.033720 1_555
