# generated using pymatgen
data_Sr4MoN4O
_symmetry_space_group_name_H-M   'P 1'
_cell_length_a   14.90337800
_cell_length_b   9.02475300
_cell_length_c   10.80328427
_cell_angle_alpha   77.83660109
_cell_angle_beta   90.00000000
_cell_angle_gamma   90.00000000
_symmetry_Int_Tables_number   1
_chemical_formula_structural   Sr4MoN4O
_chemical_formula_sum   'Sr32 Mo8 N32 O8'
_cell_volume   1420.41461461
_cell_formula_units_Z   8
loop_
 _symmetry_equiv_pos_site_id
 _symmetry_equiv_pos_as_xyz
  1  'x, y, z'
loop_
 _atom_site_type_symbol
 _atom_site_label
 _atom_site_symmetry_multiplicity
 _atom_site_fract_x
 _atom_site_fract_y
 _atom_site_fract_z
 _atom_site_occupancy
  Sr  Sr0  1  0.63967600  0.26311100  0.60882400  1
  Sr  Sr1  1  0.13967600  0.73688900  0.39117600  1
  Sr  Sr2  1  0.36032400  0.73688900  0.39117600  1
  Sr  Sr3  1  0.86032400  0.26311100  0.60882400  1
  Sr  Sr4  1  0.37257100  0.90460800  0.77635900  1
  Sr  Sr5  1  0.87257100  0.09539200  0.22364100  1
  Sr  Sr6  1  0.62742900  0.09539200  0.22364100  1
  Sr  Sr7  1  0.12742900  0.90460800  0.77635900  1
  Sr  Sr8  1  0.36930500  0.51537700  0.01677800  1
  Sr  Sr9  1  0.86930500  0.48462300  0.98322200  1
  Sr  Sr10  1  0.63069500  0.48462300  0.98322200  1
  Sr  Sr11  1  0.13069500  0.51537700  0.01677800  1
  Sr  Sr12  1  0.50000000  0.00000000  0.50000000  1
  Sr  Sr13  1  0.00000000  0.00000000  0.50000000  1
  Sr  Sr14  1  0.49978500  0.79806700  0.10649500  1
  Sr  Sr15  1  0.99978500  0.20193300  0.89350500  1
  Sr  Sr16  1  0.50021500  0.20193300  0.89350500  1
  Sr  Sr17  1  0.00021500  0.79806700  0.10649500  1
  Sr  Sr18  1  0.75000000  0.76017600  0.12613500  1
  Sr  Sr19  1  0.25000000  0.23982400  0.87386500  1
  Sr  Sr20  1  0.75000000  0.59799100  0.69463600  1
  Sr  Sr21  1  0.89628200  0.67260300  0.43473600  1
  Sr  Sr22  1  0.60371800  0.67260300  0.43473600  1
  Sr  Sr23  1  0.10371800  0.32739700  0.56526400  1
  Sr  Sr24  1  0.62625400  0.88730300  0.80224100  1
  Sr  Sr25  1  0.12625400  0.11269700  0.19775900  1
  Sr  Sr26  1  0.37374600  0.11269700  0.19775900  1
  Sr  Sr27  1  0.87374600  0.88730300  0.80224100  1
  Sr  Sr28  1  0.25000000  0.59207200  0.68419700  1
  Sr  Sr29  1  0.75000000  0.40792800  0.31580300  1
  Sr  Sr30  1  0.25000000  0.40200900  0.30536400  1
  Sr  Sr31  1  0.39628200  0.32739700  0.56526400  1
  Mo  Mo0  1  0.75000000  0.93456400  0.48258600  1
  Mo  Mo1  1  0.25000000  0.06543600  0.51741400  1
  Mo  Mo2  1  0.51681700  0.42986100  0.25253300  1
  Mo  Mo3  1  0.01681700  0.57013900  0.74746700  1
  Mo  Mo4  1  0.48318300  0.57013900  0.74746700  1
  Mo  Mo5  1  0.98318300  0.42986100  0.25253300  1
  Mo  Mo6  1  0.25000000  0.89639300  0.03724200  1
  Mo  Mo7  1  0.75000000  0.10360700  0.96275800  1
  N  N0  1  0.85484700  0.98572800  0.01912300  1
  N  N1  1  0.75000000  0.85495300  0.33441600  1
  N  N2  1  0.75000000  0.13111400  0.78668600  1
  N  N3  1  0.25000000  0.86888600  0.21331400  1
  N  N4  1  0.08757600  0.54784800  0.24863300  1
  N  N5  1  0.58757600  0.45215200  0.75136700  1
  N  N6  1  0.91242400  0.45215200  0.75136700  1
  N  N7  1  0.41242400  0.54784800  0.24863300  1
  N  N8  1  0.25000000  0.85342900  0.56822600  1
  N  N9  1  0.75000000  0.14657100  0.43177400  1
  N  N10  1  0.35101600  0.14561200  0.42322500  1
  N  N11  1  0.85101600  0.85438800  0.57677500  1
  N  N12  1  0.64898400  0.85438800  0.57677500  1
  N  N13  1  0.14898400  0.14561200  0.42322500  1
  N  N14  1  0.25000000  0.73493900  0.94764300  1
  N  N15  1  0.75000000  0.26506100  0.05235700  1
  N  N16  1  0.64515300  0.98572800  0.01912300  1
  N  N17  1  0.14515300  0.01427200  0.98087700  1
  N  N18  1  0.35484700  0.01427200  0.98087700  1
  N  N19  1  0.00684500  0.68693400  0.87588700  1
  N  N20  1  0.38773200  0.42699700  0.80042200  1
  N  N21  1  0.88773200  0.57300300  0.19957800  1
  N  N22  1  0.61226800  0.57300300  0.19957800  1
  N  N23  1  0.11226800  0.42699700  0.80042200  1
  N  N24  1  0.54367500  0.31325100  0.41167300  1
  N  N25  1  0.04367500  0.68674900  0.58832700  1
  N  N26  1  0.45632500  0.68674900  0.58832700  1
  N  N27  1  0.95632500  0.31325100  0.41167300  1
  N  N28  1  0.49315500  0.68693400  0.87588700  1
  N  N29  1  0.99315500  0.31306600  0.12411300  1
  N  N30  1  0.50684500  0.31306600  0.12411300  1
  N  N31  1  0.25000000  0.14504700  0.66558400  1
  O  O0  1  0.99745500  0.08799000  0.70766700  1
  O  O1  1  0.49745500  0.91201000  0.29233300  1
  O  O2  1  0.00254500  0.91201000  0.29233300  1
  O  O3  1  0.50254500  0.08799000  0.70766700  1
  O  O4  1  0.75000000  0.48333000  0.51304700  1
  O  O5  1  0.25000000  0.51667000  0.48695300  1
  O  O6  1  0.25000000  0.31843700  0.09730900  1
  O  O7  1  0.75000000  0.68156300  0.90269100  1
loop_
_geom_bond_atom_site_label_1
_geom_bond_atom_site_label_2
_geom_bond_distance
_geom_bond_site_symmetry_2
Mo0 N12 1.874878 1_555
Mo0 N11 1.874878 1_555
Mo0 N9 1.876033 1_565
Mo0 N1 1.887631 1_555
Mo1 N13 1.874878 1_555
Mo1 N10 1.874878 1_555
Mo1 N8 1.876033 1_545
Mo1 N31 1.887631 1_555
Mo2 N24 1.860390 1_555
Mo2 N7 1.880749 1_555
Mo2 N30 1.916792 1_555
Mo2 N22 1.925690 1_555
Mo3 N25 1.860390 1_555
Mo3 N6 1.880749 1_455
Mo3 N19 1.916792 1_555
Mo3 N23 1.925690 1_555
Mo4 N26 1.860390 1_555
Mo4 N5 1.880749 1_555
Mo4 N28 1.916792 1_555
Mo4 N20 1.925690 1_555
Mo5 N27 1.860390 1_555
Mo5 N4 1.880749 1_655
Mo5 N29 1.916792 1_555
Mo5 N21 1.925690 1_555
Mo6 N3 1.865700 1_555
Mo6 N14 1.911645 1_554
Mo6 N18 1.916033 1_564
Mo6 N17 1.916033 1_564
Mo7 N2 1.865700 1_555
Mo7 N15 1.911645 1_556
Mo7 N0 1.916033 1_546
Mo7 N16 1.916033 1_546
N0 Sr5 2.617723 1_565
N0 Sr18 2.632483 1_555
N0 Sr27 2.689832 1_554
N0 Sr17 2.789118 1_655
N0 Sr15 3.032968 1_564
N1 Sr18 2.570151 1_555
N1 Sr21 2.807852 1_555
N1 Sr22 2.807852 1_555
N1 Sr5 2.895388 1_565
N1 Sr6 2.895388 1_565
N2 Sr3 2.617254 1_555
N2 Sr0 2.617254 1_555
N2 Sr27 2.848700 1_545
N2 Sr24 2.848700 1_545
N3 Sr2 2.617254 1_555
N3 Sr1 2.617254 1_555
N3 Sr26 2.848700 1_565
N3 Sr25 2.848700 1_565
N4 Sr1 2.644238 1_555
N4 Sr11 2.661230 1_555
N4 Sr30 2.761812 1_555
N4 Sr17 2.773293 1_555
N5 Sr0 2.644238 1_555
N5 Sr10 2.661230 1_555
N5 Sr20 2.761812 1_555
N5 Sr16 2.773293 1_555
N6 Sr3 2.644238 1_555
N6 Sr9 2.661230 1_555
N6 Sr20 2.761812 1_555
N6 Sr15 2.773293 1_555
N7 Sr2 2.644238 1_555
N7 Sr8 2.661230 1_555
N7 Sr30 2.761812 1_555
N7 Sr14 2.773293 1_555
N8 Sr28 2.426473 1_555
N8 Sr1 2.883712 1_555
N8 Sr2 2.883712 1_555
N8 Sr4 3.007279 1_555
N8 Sr7 3.007279 1_555
N9 Sr29 2.426473 1_555
N9 Sr3 2.883712 1_555
N9 Sr0 2.883712 1_555
N9 Sr5 3.007279 1_555
N9 Sr6 3.007279 1_555
N10 Sr26 2.537890 1_555
N10 Sr31 2.561651 1_555
N10 Sr12 2.624032 1_555
N10 Sr30 2.828495 1_555
N11 Sr27 2.537890 1_555
N11 Sr21 2.561651 1_555
N11 Sr13 2.624032 1_665
N11 Sr20 2.828495 1_555
N12 Sr24 2.537890 1_555
N12 Sr22 2.561651 1_555
N12 Sr12 2.624032 1_565
N12 Sr20 2.828495 1_555
N13 Sr25 2.537890 1_555
N13 Sr23 2.561651 1_555
N13 Sr13 2.624032 1_555
N13 Sr30 2.828495 1_555
N14 Sr11 2.649897 1_556
N14 Sr8 2.649897 1_556
N14 Sr4 2.812763 1_555
N14 Sr7 2.812763 1_555
N15 Sr10 2.649897 1_554
N15 Sr9 2.649897 1_554
N15 Sr6 2.812763 1_555
N15 Sr5 2.812763 1_555
N16 Sr6 2.617723 1_565
N16 Sr18 2.632483 1_555
N16 Sr24 2.689832 1_554
N16 Sr14 2.789118 1_555
N16 Sr16 3.032968 1_564
N17 Sr7 2.617723 1_545
N17 Sr19 2.632483 1_555
N17 Sr25 2.689832 1_556
N17 Sr15 2.789118 1_455
N17 Sr17 3.032968 1_546
N18 Sr4 2.617723 1_545
N18 Sr19 2.632483 1_555
N18 Sr26 2.689832 1_556
N18 Sr16 2.789118 1_555
N18 Sr14 3.032968 1_546
N19 Sr11 2.669776 1_556
N19 Sr27 2.689124 1_455
N19 Sr7 2.711955 1_555
N19 Sr9 2.826257 1_455
N19 Sr17 2.876683 1_556
N20 Sr8 2.638265 1_556
N20 Sr16 2.662013 1_555
N20 Sr19 2.670500 1_555
N20 Sr28 2.687221 1_555
N20 Sr31 2.870630 1_555
N21 Sr9 2.638265 1_554
N21 Sr17 2.662013 1_655
N21 Sr18 2.670500 1_555
N21 Sr29 2.687221 1_555
N21 Sr21 2.870630 1_555
N22 Sr10 2.638265 1_554
N22 Sr14 2.662013 1_555
N22 Sr18 2.670500 1_555
N22 Sr29 2.687221 1_555
N22 Sr22 2.870630 1_555
N23 Sr11 2.638265 1_556
N23 Sr15 2.662013 1_455
N23 Sr19 2.670500 1_555
N23 Sr28 2.687221 1_555
N23 Sr23 2.870630 1_555
N24 Sr0 2.526266 1_555
N24 Sr31 2.772018 1_555
N24 Sr12 2.861721 1_555
N25 Sr1 2.526266 1_555
N25 Sr21 2.772018 1_455
N25 Sr13 2.861721 1_565
N26 Sr2 2.526266 1_555
N26 Sr22 2.772018 1_555
N26 Sr12 2.861721 1_565
N27 Sr3 2.526266 1_555
N27 Sr23 2.772018 1_655
N27 Sr13 2.861721 1_655
N28 Sr8 2.669776 1_556
N28 Sr24 2.689124 1_555
N28 Sr4 2.711955 1_555
N28 Sr10 2.826257 1_555
N28 Sr14 2.876683 1_556
N29 Sr9 2.669776 1_554
N29 Sr25 2.689124 1_655
N29 Sr5 2.711955 1_555
N29 Sr11 2.826257 1_655
N29 Sr15 2.876683 1_554
N30 Sr10 2.669776 1_554
N30 Sr26 2.689124 1_555
N30 Sr6 2.711955 1_555
N30 Sr8 2.826257 1_555
N30 Sr16 2.876683 1_554
N31 Sr19 2.570151 1_555
N31 Sr31 2.807852 1_555
N31 Sr23 2.807852 1_555
N31 Sr4 2.895388 1_545
N31 Sr7 2.895388 1_545
O0 Sr15 2.441168 1_555
O0 Sr13 2.532978 1_655
O0 Sr7 2.554268 1_645
O0 Sr27 2.635058 1_545
O0 Sr3 2.665259 1_555
O0 Sr23 2.853458 1_655
O1 Sr14 2.441168 1_555
O1 Sr12 2.532978 1_565
O1 Sr6 2.554268 1_565
O1 Sr26 2.635058 1_565
O1 Sr2 2.665259 1_555
O1 Sr22 2.853458 1_555
O2 Sr17 2.441168 1_555
O2 Sr13 2.532978 1_565
O2 Sr5 2.554268 1_465
O2 Sr25 2.635058 1_565
O2 Sr1 2.665259 1_555
O2 Sr21 2.853458 1_455
O3 Sr16 2.441168 1_555
O3 Sr12 2.532978 1_555
O3 Sr4 2.554268 1_545
O3 Sr24 2.635058 1_545
O3 Sr0 2.665259 1_555
O3 Sr31 2.853458 1_555
O4 Sr29 2.369550 1_555
O4 Sr20 2.403065 1_555
O4 Sr3 2.618643 1_555
O4 Sr0 2.618643 1_555
O4 Sr21 2.788788 1_555
O4 Sr22 2.788788 1_555
O5 Sr28 2.369550 1_555
O5 Sr30 2.403065 1_555
O5 Sr2 2.618643 1_555
O5 Sr1 2.618643 1_555
O5 Sr31 2.788788 1_555
O5 Sr23 2.788788 1_555
O6 Sr30 2.516996 1_555
O6 Sr8 2.534890 1_555
O6 Sr11 2.534890 1_555
O6 Sr19 2.655575 1_554
O6 Sr26 2.679043 1_555
O6 Sr25 2.679043 1_555
O7 Sr20 2.516996 1_555
O7 Sr9 2.534890 1_555
O7 Sr10 2.534890 1_555
O7 Sr18 2.655575 1_556
O7 Sr27 2.679043 1_555
O7 Sr24 2.679043 1_555
