# generated using pymatgen
data_LiSb2P5O16
_symmetry_space_group_name_H-M   'P 1'
_cell_length_a   10.59382100
_cell_length_b   7.39223300
_cell_length_c   10.09509937
_cell_angle_alpha   72.82016459
_cell_angle_beta   90.00000000
_cell_angle_gamma   90.00000000
_symmetry_Int_Tables_number   1
_chemical_formula_structural   LiSb2P5O16
_chemical_formula_sum   'Li2 Sb4 P10 O32'
_cell_volume   755.29411450
_cell_formula_units_Z   2
loop_
 _symmetry_equiv_pos_site_id
 _symmetry_equiv_pos_as_xyz
  1  'x, y, z'
loop_
 _atom_site_type_symbol
 _atom_site_label
 _atom_site_symmetry_multiplicity
 _atom_site_fract_x
 _atom_site_fract_y
 _atom_site_fract_z
 _atom_site_occupancy
  Li  Li0  1  0.65323600  0.10123000  0.24315600  1
  Li  Li1  1  0.34676400  0.10123000  0.74315600  1
  Sb  Sb0  1  0.63295400  0.06918000  0.64368700  1
  Sb  Sb1  1  0.86249300  0.62703700  0.00336600  1
  Sb  Sb2  1  0.36704600  0.06918000  0.14368700  1
  Sb  Sb3  1  0.13750700  0.62703700  0.50336600  1
  P  P0  1  0.46933800  0.49509900  0.49485000  1
  P  P1  1  0.10673000  0.74512300  0.16984700  1
  P  P2  1  0.40073800  0.88818900  0.48205300  1
  P  P3  1  0.89327000  0.74512300  0.66984700  1
  P  P4  1  0.13676200  0.37271900  0.12188300  1
  P  P5  1  0.71297200  0.45902800  0.35780000  1
  P  P6  1  0.28702800  0.45902800  0.85780000  1
  P  P7  1  0.53066200  0.49509900  0.99485000  1
  P  P8  1  0.86323800  0.37271900  0.62188300  1
  P  P9  1  0.59926200  0.88818900  0.98205300  1
  O  O0  1  0.51902200  0.33786900  0.61894600  1
  O  O1  1  0.58716600  0.98310100  0.09568700  1
  O  O2  1  0.22201900  0.49311800  0.99305200  1
  O  O3  1  0.23302800  0.83853300  0.12134400  1
  O  O4  1  0.70748700  0.24841000  0.37396500  1
  O  O5  1  0.13023100  0.51554300  0.21265900  1
  O  O6  1  0.42874100  0.53521900  0.87068200  1
  O  O7  1  0.00834700  0.33448600  0.07485900  1
  O  O8  1  0.47646100  0.68858000  0.53965800  1
  O  O9  1  0.57125900  0.53521900  0.37068200  1
  O  O10  1  0.48097800  0.33786900  0.11894600  1
  O  O11  1  0.99165300  0.33448600  0.57485900  1
  O  O12  1  0.52353900  0.68858000  0.03965800  1
  O  O13  1  0.77069400  0.59245100  0.23120400  1
  O  O14  1  0.34056400  0.47250900  0.44229100  1
  O  O15  1  0.78576900  0.20460100  0.70815300  1
  O  O16  1  0.86976900  0.51554300  0.71265900  1
  O  O17  1  0.00398500  0.79525100  0.05721400  1
  O  O18  1  0.76697200  0.83853300  0.62134400  1
  O  O19  1  0.21423100  0.20460100  0.20815300  1
  O  O20  1  0.29251300  0.24841000  0.87396500  1
  O  O21  1  0.53113600  0.99636200  0.84388900  1
  O  O22  1  0.41283400  0.98310100  0.59568700  1
  O  O23  1  0.65943600  0.47250900  0.94229100  1
  O  O24  1  0.22930600  0.59245100  0.73120400  1
  O  O25  1  0.05892400  0.76938400  0.30697300  1
  O  O26  1  0.46886400  0.99636200  0.34388900  1
  O  O27  1  0.26401800  0.85674800  0.44470600  1
  O  O28  1  0.73598200  0.85674800  0.94470600  1
  O  O29  1  0.94107600  0.76938400  0.80697300  1
  O  O30  1  0.77798100  0.49311800  0.49305200  1
  O  O31  1  0.99601500  0.79525100  0.55721400  1
loop_
_geom_bond_atom_site_label_1
_geom_bond_atom_site_label_2
_geom_bond_distance
_geom_bond_site_symmetry_2
Li0 O4 2.026465 1_555
Li0 O1 2.058321 1_545
Li0 O26 2.232569 1_545
Li0 O10 2.581994 1_555
Li1 O20 2.026465 1_555
Li1 O22 2.058321 1_545
Li1 O21 2.232569 1_545
Li1 O0 2.581994 1_555
O0 P0 1.528786 1_555
O0 Sb0 2.274016 1_555
O1 P9 1.516603 1_554
O1 Sb2 2.501932 1_565
O2 P6 1.614105 1_555
O2 P4 1.617269 1_556
O3 P1 1.518883 1_555
O3 Sb2 2.280525 1_565
O4 P5 1.517883 1_555
O4 Sb0 2.767981 1_555
O5 P4 1.590851 1_555
O5 P1 1.641845 1_555
O6 P7 1.614126 1_555
O6 P6 1.622112 1_555
O7 P4 1.495055 1_555
O7 Sb1 2.581318 1_455
O8 P0 1.624232 1_555
O8 P2 1.628513 1_555
O9 P0 1.614126 1_555
O9 P5 1.622112 1_555
O10 P7 1.528786 1_554
O10 Sb2 2.274016 1_555
O11 P8 1.495055 1_555
O11 Sb3 2.581318 1_655
O12 P7 1.624232 1_554
O12 P9 1.628513 1_554
O13 P5 1.495113 1_555
O13 Sb1 2.440073 1_555
O14 P0 1.490911 1_555
O14 Sb3 2.593938 1_555
O15 P8 1.528758 1_555
O15 Sb0 2.105074 1_555
O16 P8 1.590851 1_555
O16 P3 1.641845 1_555
O17 P1 1.538188 1_555
O17 Sb1 2.118461 1_455
O18 P3 1.518883 1_555
O18 Sb0 2.280525 1_565
O19 P4 1.528758 1_555
O19 Sb2 2.105074 1_555
O20 P6 1.517883 1_555
O20 Sb2 2.767981 1_556
O21 P9 1.564237 1_555
O21 Sb0 2.212515 1_565
O22 P2 1.516603 1_555
O22 Sb0 2.501932 1_565
O23 P7 1.490911 1_555
O23 Sb1 2.593938 1_556
O24 P6 1.495113 1_555
O24 Sb3 2.440073 1_555
O25 P1 1.533494 1_555
O25 Sb3 2.120993 1_555
O26 P2 1.564237 1_555
O26 Sb2 2.212515 1_565
O27 P2 1.531586 1_555
O27 Sb3 2.106262 1_555
O28 P9 1.531586 1_555
O28 Sb1 2.106262 1_556
O29 P3 1.533494 1_555
O29 Sb1 2.120993 1_556
O30 P5 1.614105 1_555
O30 P8 1.617269 1_555
O31 P3 1.538188 1_555
O31 Sb3 2.118461 1_655
