# generated using pymatgen
data_Al17(NO7)3
_symmetry_space_group_name_H-M   'P 1'
_cell_length_a   5.70718200
_cell_length_b   7.99814133
_cell_length_c   9.73044594
_cell_angle_alpha   113.77231299
_cell_angle_beta   106.98298761
_cell_angle_gamma   89.59044423
_symmetry_Int_Tables_number   1
_chemical_formula_structural   Al17(NO7)3
_chemical_formula_sum   'Al17 N3 O21'
_cell_volume   385.63704298
_cell_formula_units_Z   1
loop_
 _symmetry_equiv_pos_site_id
 _symmetry_equiv_pos_as_xyz
  1  'x, y, z'
loop_
 _atom_site_type_symbol
 _atom_site_label
 _atom_site_symmetry_multiplicity
 _atom_site_fract_x
 _atom_site_fract_y
 _atom_site_fract_z
 _atom_site_occupancy
  Al  Al0  1  0.99815800  0.99503200  0.00552300  1
  Al  Al1  1  0.50206600  0.25517200  0.99405000  1
  Al  Al2  1  0.32482500  0.32371200  0.66934400  1
  Al  Al3  1  0.74062000  0.63206300  0.99111600  1
  Al  Al4  1  0.83773800  0.58833500  0.66007900  1
  Al  Al5  1  0.65669500  0.66273300  0.33588400  1
  Al  Al6  1  0.92048200  0.28872100  0.82711200  1
  Al  Al7  1  0.25212300  0.63017900  0.98997200  1
  Al  Al8  1  0.09526100  0.95933100  0.67300700  1
  Al  Al9  1  0.17784200  0.92034000  0.33131800  1
  Al  Al10  1  0.26762100  0.62644800  0.50956800  1
  Al  Al11  1  0.58390600  0.95206700  0.67560900  1
  Al  Al12  1  0.41889400  0.29252800  0.33450600  1
  Al  Al13  1  0.75007800  0.11835800  0.49803700  1
  Al  Al14  1  0.57001600  0.95824400  0.15835600  1
  Al  Al15  1  0.91811000  0.29172700  0.33341900  1
  Al  Al16  1  0.09217000  0.46507900  0.17158600  1
  N  N0  1  0.43988000  0.05402300  0.33384800  1
  N  N1  1  0.05776400  0.19403700  0.66312300  1
  N  N2  1  0.39600800  0.52925400  0.33273500  1
  O  O0  1  0.92080100  0.54444900  0.84075800  1
  O  O1  1  0.25362300  0.86884900  0.00956200  1
  O  O2  1  0.07950600  0.71281900  0.64779600  1
  O  O3  1  0.42674100  0.53179100  0.84760700  1
  O  O4  1  0.25742700  0.87130200  0.50962000  1
  O  O5  1  0.41568200  0.04727400  0.82228900  1
  O  O6  1  0.75402600  0.87265700  0.01739000  1
  O  O7  1  0.58167900  0.71332600  0.65824800  1
  O  O8  1  0.59959700  0.20047600  0.67079600  1
  O  O9  1  0.75123700  0.88450500  0.51000400  1
  O  O10  1  0.75182200  0.36479600  0.48869800  1
  O  O11  1  0.91022200  0.04018200  0.82887400  1
  O  O12  1  0.59395700  0.20705000  0.16932300  1
  O  O13  1  0.90766400  0.05005600  0.33039000  1
  O  O14  1  0.77585300  0.38407700  0.99891300  1
  O  O15  1  0.92160400  0.52919800  0.32699900  1
  O  O16  1  0.24014000  0.37787200  0.49422200  1
  O  O17  1  0.07941600  0.22107700  0.17391300  1
  O  O18  1  0.07450400  0.69290900  0.15298600  1
  O  O19  1  0.23121500  0.38303900  0.99892400  1
  O  O20  1  0.57875600  0.70559700  0.15330800  1
loop_
_geom_bond_atom_site_label_1
_geom_bond_atom_site_label_2
_geom_bond_distance
_geom_bond_site_symmetry_2
Al0 O6 1.765568 1_555
Al0 O1 1.767280 1_655
Al0 O11 1.825020 1_564
Al0 O17 1.829829 1_665
Al1 O5 1.758158 1_555
Al1 O12 1.826383 1_556
Al1 O19 1.848991 1_555
Al1 O14 1.856684 1_555
Al2 O3 1.792741 1_555
Al2 N1 1.822232 1_555
Al2 O8 1.845828 1_555
Al2 O16 1.853617 1_555
Al3 O6 1.835271 1_556
Al3 O3 1.859702 1_555
Al3 O0 1.931595 1_555
Al3 O20 1.945662 1_556
Al3 O18 1.997677 1_656
Al3 O14 2.021602 1_555
Al4 O7 1.764537 1_555
Al4 O2 1.766745 1_655
Al4 O10 1.830048 1_555
Al4 O0 1.856628 1_555
Al5 N2 1.823154 1_555
Al5 O9 1.834317 1_555
Al5 O15 1.847374 1_555
Al5 O20 1.870487 1_555
Al6 N1 1.865799 1_655
Al6 O8 1.921264 1_555
Al6 O19 1.944068 1_655
Al6 O14 1.956215 1_555
Al6 O0 1.995506 1_555
Al6 O11 1.996246 1_555
Al7 O1 1.840188 1_556
Al7 O3 1.856828 1_555
Al7 O0 1.940586 1_455
Al7 O20 1.969087 1_556
Al7 O19 2.019225 1_555
Al7 O18 2.021334 1_556
Al8 O2 1.885558 1_555
Al8 O5 1.895202 1_565
Al8 N1 1.925294 1_565
Al8 O4 1.956439 1_555
Al8 O11 1.992198 1_465
Al8 O9 2.039887 1_455
Al9 N0 1.833160 1_565
Al9 O13 1.852197 1_465
Al9 O4 1.859011 1_555
Al9 O18 1.881623 1_555
Al10 O7 1.865749 1_555
Al10 O2 1.876912 1_555
Al10 O16 1.936764 1_555
Al10 N2 1.936976 1_555
Al10 O4 1.958626 1_555
Al10 O15 2.125846 1_455
Al11 O7 1.847664 1_555
Al11 O5 1.858096 1_565
Al11 O11 1.933399 1_565
Al11 O4 1.978833 1_555
Al11 O9 1.997557 1_555
Al11 O8 2.009387 1_565
Al12 N2 1.903590 1_555
Al12 N0 1.908048 1_555
Al12 O10 1.961287 1_555
Al12 O16 1.995733 1_555
Al12 O17 2.012324 1_555
Al12 O12 2.022747 1_555
Al13 N1 1.901011 1_655
Al13 N0 1.910328 1_555
Al13 O9 1.920136 1_545
Al13 O13 1.974832 1_555
Al13 O8 1.984938 1_555
Al13 O10 2.009625 1_555
Al14 O1 1.877408 1_555
Al14 O6 1.878072 1_555
Al14 N0 1.931979 1_565
Al14 O12 1.953014 1_565
Al14 O20 2.002030 1_555
Al14 O13 2.049292 1_565
Al15 O10 1.908659 1_555
Al15 O13 1.922314 1_555
Al15 O17 1.922474 1_655
Al15 O15 1.925790 1_555
Al15 O16 1.941601 1_655
Al15 O12 1.962442 1_555
Al16 N2 1.872064 1_555
Al16 O18 1.901576 1_555
Al16 O15 1.930041 1_455
Al16 O19 1.940509 1_554
Al16 O17 1.962913 1_555
Al16 O14 1.966977 1_454
