# generated using pymatgen
data_Tm15S22
_symmetry_space_group_name_H-M   'P 1'
_cell_length_a   19.37211957
_cell_length_b   19.37211957
_cell_length_c   11.19781461
_cell_angle_alpha   89.08136278
_cell_angle_beta   89.08136278
_cell_angle_gamma   11.40836379
_symmetry_Int_Tables_number   1
_chemical_formula_structural   Tm15S22
_chemical_formula_sum   'Tm15 S22'
_cell_volume   831.10982211
_cell_formula_units_Z   1
loop_
 _symmetry_equiv_pos_site_id
 _symmetry_equiv_pos_as_xyz
  1  'x, y, z'
loop_
 _atom_site_type_symbol
 _atom_site_label
 _atom_site_symmetry_multiplicity
 _atom_site_fract_x
 _atom_site_fract_y
 _atom_site_fract_z
 _atom_site_occupancy
  Tm  Tm0  1  0.23445400  0.23445400  0.35297700  1
  Tm  Tm1  1  0.43102100  0.43102100  0.35716700  1
  Tm  Tm2  1  0.56897900  0.56897900  0.64283300  1
  Tm  Tm3  1  0.76554600  0.76554600  0.64702300  1
  Tm  Tm4  1  0.39507200  0.39507200  0.01055400  1
  Tm  Tm5  1  0.60492800  0.60492800  0.98944600  1
  Tm  Tm6  1  0.03950300  0.03950300  0.27245300  1
  Tm  Tm7  1  0.86670900  0.86670900  0.65750300  1
  Tm  Tm8  1  0.13329100  0.13329100  0.34249700  1
  Tm  Tm9  1  0.70121900  0.70121900  0.05678600  1
  Tm  Tm10  1  0.15709100  0.15709000  0.69444500  1
  Tm  Tm11  1  0.96049700  0.96049700  0.72754700  1
  Tm  Tm12  1  0.50000000  0.50000000  0.00000000  1
  Tm  Tm13  1  0.84290900  0.84290900  0.30555500  1
  Tm  Tm14  1  0.29878100  0.29878100  0.94321400  1
  S  S0  1  0.40993600  0.40993600  0.75183400  1
  S  S1  1  0.05271300  0.05271300  0.49790500  1
  S  S2  1  0.94728700  0.94728700  0.50209500  1
  S  S3  1  0.95110600  0.95110600  0.96849100  1
  S  S4  1  0.22015300  0.22015300  0.59197700  1
  S  S5  1  0.77984700  0.77984700  0.40802300  1
  S  S6  1  0.68620700  0.68620700  0.30749800  1
  S  S7  1  0.66669000  0.66669000  0.85058700  1
  S  S8  1  0.33331000  0.33331000  0.14941300  1
  S  S9  1  0.31379300  0.31379300  0.69250200  1
  S  S10  1  0.49275500  0.49275500  0.23849500  1
  S  S11  1  0.75510500  0.75510500  0.87963400  1
  S  S12  1  0.50724500  0.50724500  0.76150500  1
  S  S13  1  0.04889400  0.04889400  0.03150900  1
  S  S14  1  0.63383500  0.63383500  0.53851600  1
  S  S15  1  0.85295600  0.85295600  0.90739100  1
  S  S16  1  0.09295400  0.09295400  0.79371100  1
  S  S17  1  0.24489500  0.24489500  0.12036600  1
  S  S18  1  0.90704600  0.90704600  0.20628900  1
  S  S19  1  0.14704400  0.14704400  0.09260900  1
  S  S20  1  0.59006400  0.59006400  0.24816600  1
  S  S21  1  0.36616500  0.36616500  0.46148400  1
loop_
_geom_bond_atom_site_label_1
_geom_bond_atom_site_label_2
_geom_bond_distance
_geom_bond_site_symmetry_2
S0 Tm11 2.750231 1_545
S0 Tm11 2.750231 1_455
S0 Tm7 2.767139 1_455
S0 Tm7 2.767139 1_545
S0 Tm4 2.944157 1_556
S1 Tm6 2.583456 1_555
S1 Tm2 2.601364 1_545
S1 Tm2 2.601364 1_455
S2 Tm11 2.583456 1_555
S2 Tm1 2.601364 1_655
S2 Tm1 2.601364 1_565
S3 Tm11 2.716441 1_555
S3 Tm12 2.721470 1_656
S3 Tm12 2.721470 1_566
S3 Tm4 2.926268 1_656
S3 Tm4 2.926268 1_566
S4 Tm10 2.671602 1_555
S4 Tm3 2.680402 1_545
S4 Tm3 2.680402 1_455
S4 Tm0 2.723763 1_555
S5 Tm13 2.671584 1_555
S5 Tm0 2.680402 1_565
S5 Tm0 2.680402 1_655
S5 Tm3 2.723763 1_555
S6 Tm0 2.730739 1_565
S6 Tm0 2.730739 1_655
S6 Tm8 2.827881 1_565
S6 Tm8 2.827881 1_655
S6 Tm9 2.857313 1_555
S7 Tm10 2.631008 1_565
S7 Tm10 2.631011 1_655
S7 Tm9 2.683739 1_556
S7 Tm5 2.822759 1_555
S8 Tm13 2.631007 1_455
S8 Tm13 2.631007 1_545
S8 Tm14 2.683739 1_554
S8 Tm4 2.822759 1_555
S9 Tm3 2.730739 1_545
S9 Tm3 2.730739 1_455
S9 Tm7 2.827881 1_545
S9 Tm7 2.827881 1_455
S9 Tm14 2.857313 1_555
S10 Tm6 2.668726 1_565
S10 Tm6 2.668726 1_655
S10 Tm12 2.680710 1_555
S10 Tm1 2.707090 1_555
S11 Tm3 2.629236 1_555
S11 Tm14 2.662342 1_565
S11 Tm14 2.662342 1_655
S11 Tm9 2.849221 1_556
S12 Tm11 2.668726 1_455
S12 Tm11 2.668726 1_545
S12 Tm12 2.680710 1_556
S12 Tm2 2.707090 1_555
S13 Tm6 2.716441 1_555
S13 Tm12 2.721470 1_545
S13 Tm12 2.721470 1_455
S13 Tm5 2.926268 1_454
S13 Tm5 2.926268 1_544
S14 Tm2 2.742656 1_555
S14 Tm10 2.758679 1_565
S14 Tm10 2.758682 1_655
S14 Tm8 2.920137 1_565
S14 Tm8 2.920137 1_655
S15 Tm4 2.781828 1_566
S15 Tm4 2.781828 1_656
S15 Tm7 2.839583 1_555
S15 Tm14 2.864155 1_565
S15 Tm14 2.864155 1_655
S16 Tm10 2.694593 1_555
S16 Tm2 2.732469 1_545
S16 Tm2 2.732469 1_455
S16 Tm5 2.959228 1_545
S16 Tm5 2.959228 1_455
S17 Tm0 2.629236 1_555
S17 Tm9 2.662342 1_545
S17 Tm9 2.662342 1_455
S17 Tm14 2.849221 1_554
S18 Tm13 2.694610 1_555
S18 Tm1 2.732469 1_565
S18 Tm1 2.732469 1_655
S18 Tm4 2.959228 1_565
S18 Tm4 2.959228 1_655
S19 Tm5 2.781828 1_544
S19 Tm5 2.781828 1_454
S19 Tm8 2.839583 1_555
S19 Tm9 2.864155 1_455
S19 Tm9 2.864155 1_545
S20 Tm6 2.750231 1_565
S20 Tm6 2.750231 1_655
S20 Tm8 2.767139 1_655
S20 Tm8 2.767139 1_565
S20 Tm5 2.944157 1_554
S21 Tm1 2.742656 1_555
S21 Tm13 2.758687 1_545
S21 Tm13 2.758687 1_455
S21 Tm7 2.920137 1_455
S21 Tm7 2.920137 1_545
