# generated using pymatgen
data_CoHCO3
_symmetry_space_group_name_H-M   'P 1'
_cell_length_a   6.87310100
_cell_length_b   8.10968073
_cell_length_c   9.36169332
_cell_angle_alpha   72.45431312
_cell_angle_beta   81.35658837
_cell_angle_gamma   82.74231060
_symmetry_Int_Tables_number   1
_chemical_formula_structural   CoHCO3
_chemical_formula_sum   'Co6 H6 C6 O18'
_cell_volume   490.06097570
_cell_formula_units_Z   6
loop_
 _symmetry_equiv_pos_site_id
 _symmetry_equiv_pos_as_xyz
  1  'x, y, z'
loop_
 _atom_site_type_symbol
 _atom_site_label
 _atom_site_symmetry_multiplicity
 _atom_site_fract_x
 _atom_site_fract_y
 _atom_site_fract_z
 _atom_site_occupancy
  Co  Co0  1  0.99705500  0.03372500  0.76330200  1
  Co  Co1  1  0.26307000  0.25775100  0.61414900  1
  Co  Co2  1  0.72877500  0.14148100  0.98726200  1
  Co  Co3  1  0.00294500  0.96627500  0.23669800  1
  Co  Co4  1  0.73693000  0.74224900  0.38585100  1
  Co  Co5  1  0.27122500  0.85851900  0.01273800  1
  H  H0  1  0.50823900  0.88651000  0.74301500  1
  H  H1  1  0.84228500  0.44048200  0.71301400  1
  H  H2  1  0.01337700  0.71568200  0.91739900  1
  H  H3  1  0.49176100  0.11349000  0.25698500  1
  H  H4  1  0.15771500  0.55951800  0.28698600  1
  H  H5  1  0.98662300  0.28431800  0.08260100  1
  C  C0  1  0.16140400  0.46315500  0.22329600  1
  C  C1  1  0.42894500  0.23570700  0.18281500  1
  C  C2  1  0.42017700  0.56623100  0.52133700  1
  C  C3  1  0.83859600  0.53684500  0.77670400  1
  C  C4  1  0.57105500  0.76429300  0.81718500  1
  C  C5  1  0.57982300  0.43376900  0.47866300  1
  O  O0  1  0.48010800  0.29094800  0.04558300  1
  O  O1  1  0.68762900  0.66992600  0.73531100  1
  O  O2  1  0.73810800  0.97023100  0.30993100  1
  O  O3  1  0.51989200  0.70905200  0.95441700  1
  O  O4  1  0.31237100  0.33007400  0.26468900  1
  O  O5  1  0.26189200  0.02976900  0.69006900  1
  O  O6  1  0.04277500  0.46113500  0.14228600  1
  O  O7  1  0.73755400  0.04845800  0.83185800  1
  O  O8  1  0.00218400  0.25471200  0.63846700  1
  O  O9  1  0.95722500  0.53886500  0.85771400  1
  O  O10  1  0.26244600  0.95154200  0.16814200  1
  O  O11  1  0.99781600  0.74528800  0.36153300  1
  O  O12  1  0.94350600  0.17383800  0.07986900  1
  O  O13  1  0.54065400  0.27605700  0.51999100  1
  O  O14  1  0.26051400  0.50665200  0.59501100  1
  O  O15  1  0.05649400  0.82616200  0.92013100  1
  O  O16  1  0.45934600  0.72394300  0.48000900  1
  O  O17  1  0.73948600  0.49334800  0.40498900  1
loop_
_geom_bond_atom_site_label_1
_geom_bond_atom_site_label_2
_geom_bond_distance
_geom_bond_site_symmetry_2
Co0 O7 1.804344 1_555
Co0 O8 1.821967 1_655
Co0 O5 1.846019 1_655
Co0 O15 1.916334 1_645
Co1 O5 1.770104 1_555
Co1 O8 1.775589 1_555
Co1 O14 1.969955 1_555
Co1 O13 1.981456 1_555
Co2 O7 1.820207 1_555
Co2 O12 1.902171 1_556
Co2 O0 2.069670 1_556
Co3 O10 1.804344 1_555
Co3 O11 1.821967 1_455
Co3 O2 1.846019 1_455
Co3 O12 1.916334 1_465
Co4 O2 1.770104 1_555
Co4 O11 1.775589 1_555
Co4 O17 1.969955 1_555
Co4 O16 1.981456 1_555
Co5 O10 1.820207 1_555
Co5 O15 1.902171 1_554
Co5 O3 2.069670 1_554
H2 O15 0.987115 1_555
H5 O12 0.987115 1_555
C0 H4 1.112762 1_555
C0 O6 1.198725 1_555
C0 O4 1.406173 1_555
C1 H3 1.103602 1_555
C1 O0 1.237686 1_555
C1 O4 1.352505 1_555
C2 O16 1.270955 1_555
C2 O14 1.272378 1_555
C3 H1 1.112762 1_555
C3 O9 1.198725 1_555
C3 O1 1.406173 1_555
C4 H0 1.103602 1_555
C4 O3 1.237686 1_555
C4 O1 1.352505 1_555
C5 O13 1.270955 1_555
C5 O17 1.272378 1_555
