# generated using pymatgen
data_YbBrO
_symmetry_space_group_name_H-M   'P 1'
_cell_length_a   3.68354700
_cell_length_b   3.68354700
_cell_length_c   9.13478200
_cell_angle_alpha   90.00000000
_cell_angle_beta   90.00000000
_cell_angle_gamma   90.00000000
_symmetry_Int_Tables_number   1
_chemical_formula_structural   YbBrO
_chemical_formula_sum   'Yb2 Br2 O2'
_cell_volume   123.94545857
_cell_formula_units_Z   2
loop_
 _symmetry_equiv_pos_site_id
 _symmetry_equiv_pos_as_xyz
  1  'x, y, z'
loop_
 _atom_site_type_symbol
 _atom_site_label
 _atom_site_symmetry_multiplicity
 _atom_site_fract_x
 _atom_site_fract_y
 _atom_site_fract_z
 _atom_site_occupancy
  Yb  Yb0  1  0.00000000  0.50000000  0.85408600  1
  Yb  Yb1  1  0.50000000  0.00000000  0.14591400  1
  Br  Br0  1  0.00000000  0.50000000  0.33206100  1
  Br  Br1  1  0.50000000  0.00000000  0.66793900  1
  O  O0  1  0.50000000  0.50000000  0.00000000  1
  O  O1  1  0.00000000  0.00000000  0.00000000  1
loop_
_geom_bond_atom_site_label_1
_geom_bond_atom_site_label_2
_geom_bond_distance
_geom_bond_site_symmetry_2
Br0 Yb1 3.110572 1_555
Br0 Yb1 3.110572 1_465
Br0 Yb1 3.110572 1_565
Br0 Yb1 3.110572 1_455
Br1 Yb0 3.110572 1_555
Br1 Yb0 3.110572 1_655
Br1 Yb0 3.110572 1_645
Br1 Yb0 3.110572 1_545
O0 Yb1 2.273485 1_555
O0 Yb1 2.273485 1_565
O0 Yb0 2.273485 1_654
O0 Yb0 2.273485 1_554
O1 Yb1 2.273485 1_455
O1 Yb1 2.273485 1_555
O1 Yb0 2.273485 1_544
O1 Yb0 2.273485 1_554
