# generated using pymatgen
data_Cs4Zr3Te16
_symmetry_space_group_name_H-M   'P 1'
_cell_length_a   19.78484900
_cell_length_b   12.21720800
_cell_length_c   17.97604476
_cell_angle_alpha   60.07015495
_cell_angle_beta   90.00000000
_cell_angle_gamma   90.00000000
_symmetry_Int_Tables_number   1
_chemical_formula_structural   Cs4Zr3Te16
_chemical_formula_sum   'Cs16 Zr12 Te64'
_cell_volume   3765.61626748
_cell_formula_units_Z   4
loop_
 _symmetry_equiv_pos_site_id
 _symmetry_equiv_pos_as_xyz
  1  'x, y, z'
loop_
 _atom_site_type_symbol
 _atom_site_label
 _atom_site_symmetry_multiplicity
 _atom_site_fract_x
 _atom_site_fract_y
 _atom_site_fract_z
 _atom_site_occupancy
  Cs  Cs0  1  0.84582200  0.83322600  0.08595400  1
  Cs  Cs1  1  0.34582200  0.16677400  0.41404600  1
  Cs  Cs2  1  0.14078000  0.30761000  0.55685300  1
  Cs  Cs3  1  0.14006000  0.74575700  0.60453300  1
  Cs  Cs4  1  0.62683700  0.26642600  0.65411000  1
  Cs  Cs5  1  0.64078000  0.69239000  0.94314700  1
  Cs  Cs6  1  0.12683700  0.73357400  0.84589000  1
  Cs  Cs7  1  0.85994000  0.25424300  0.39546700  1
  Cs  Cs8  1  0.37316300  0.73357400  0.34589000  1
  Cs  Cs9  1  0.65417800  0.83322600  0.58595400  1
  Cs  Cs10  1  0.35922000  0.30761000  0.05685300  1
  Cs  Cs11  1  0.85922000  0.69239000  0.44314700  1
  Cs  Cs12  1  0.64006000  0.25424300  0.89546700  1
  Cs  Cs13  1  0.87316300  0.26642600  0.15411000  1
  Cs  Cs14  1  0.15417800  0.16677400  0.91404600  1
  Cs  Cs15  1  0.35994000  0.74575700  0.10453300  1
  Zr  Zr0  1  0.11607800  0.89906900  0.25146700  1
  Zr  Zr1  1  0.38392200  0.89906900  0.75146700  1
  Zr  Zr2  1  0.11459500  0.23991200  0.23070800  1
  Zr  Zr3  1  0.38289100  0.58479200  0.70802200  1
  Zr  Zr4  1  0.38540500  0.23991200  0.73070800  1
  Zr  Zr5  1  0.88540500  0.76008800  0.76929200  1
  Zr  Zr6  1  0.11710900  0.58479200  0.20802200  1
  Zr  Zr7  1  0.88392200  0.10093100  0.74853300  1
  Zr  Zr8  1  0.61710900  0.41520800  0.29197800  1
  Zr  Zr9  1  0.61607800  0.10093100  0.24853300  1
  Zr  Zr10  1  0.61459500  0.76008800  0.26929200  1
  Zr  Zr11  1  0.88289100  0.41520800  0.79197800  1
  Te  Te0  1  0.05251900  0.32433600  0.34251400  1
  Te  Te1  1  0.22910700  0.42524600  0.19820600  1
  Te  Te2  1  0.32371100  0.78195200  0.54278000  1
  Te  Te3  1  0.95827900  0.00030000  0.64987200  1
  Te  Te4  1  0.54736900  0.51694300  0.39195500  1
  Te  Te5  1  0.82371100  0.21804800  0.95722000  1
  Te  Te6  1  0.46706700  0.45559100  0.27013900  1
  Te  Te7  1  0.23859700  0.97275400  0.14641700  1
  Te  Te8  1  0.23641600  0.51156200  0.31727900  1
  Te  Te9  1  0.77089300  0.57475400  0.80179400  1
  Te  Te10  1  0.77275800  0.94746000  0.73177400  1
  Te  Te11  1  0.43225300  0.85168400  0.61050900  1
  Te  Te12  1  0.65253200  0.62445400  0.45454000  1
  Te  Te13  1  0.96706700  0.54440900  0.22986100  1
  Te  Te14  1  0.72910700  0.57475400  0.30179400  1
  Te  Te15  1  0.73641600  0.48843800  0.18272100  1
  Te  Te16  1  0.03408600  0.05944800  0.77550300  1
  Te  Te17  1  0.94748100  0.67566400  0.65748600  1
  Te  Te18  1  0.15253200  0.37554600  0.04546000  1
  Te  Te19  1  0.96591400  0.94055200  0.22449700  1
  Te  Te20  1  0.31967600  0.69797400  0.91230100  1
  Te  Te21  1  0.93225300  0.14831600  0.88949100  1
  Te  Te22  1  0.84746800  0.62445400  0.95454000  1
  Te  Te23  1  0.27275800  0.05254000  0.76822600  1
  Te  Te24  1  0.18032400  0.69797400  0.41230100  1
  Te  Te25  1  0.06774700  0.85168400  0.11050900  1
  Te  Te26  1  0.53293300  0.54440900  0.72986100  1
  Te  Te27  1  0.17628900  0.78195200  0.04278000  1
  Te  Te28  1  0.93331800  0.36733000  0.65102100  1
  Te  Te29  1  0.05425400  0.16104900  0.11485600  1
  Te  Te30  1  0.76358400  0.48843800  0.68272100  1
  Te  Te31  1  0.46591400  0.05944800  0.27550300  1
  Te  Te32  1  0.26140300  0.97275400  0.64641700  1
  Te  Te33  1  0.54172100  0.00030000  0.14987200  1
  Te  Te34  1  0.04736900  0.48305700  0.10804500  1
  Te  Te35  1  0.76140300  0.02724600  0.85358300  1
  Te  Te36  1  0.03293300  0.45559100  0.77013900  1
  Te  Te37  1  0.64621800  0.89907800  0.08139000  1
  Te  Te38  1  0.56774700  0.14831600  0.38949100  1
  Te  Te39  1  0.73859700  0.02724600  0.35358300  1
  Te  Te40  1  0.34746800  0.37554600  0.54546000  1
  Te  Te41  1  0.45827900  0.99970000  0.85012800  1
  Te  Te42  1  0.14621800  0.10092200  0.41861000  1
  Te  Te43  1  0.44748100  0.32433600  0.84251400  1
  Te  Te44  1  0.35378200  0.10092200  0.91861000  1
  Te  Te45  1  0.44574600  0.16104900  0.61485600  1
  Te  Te46  1  0.45263100  0.48305700  0.60804500  1
  Te  Te47  1  0.43331800  0.63267000  0.84897900  1
  Te  Te48  1  0.94574600  0.83895100  0.88514400  1
  Te  Te49  1  0.04172100  0.99970000  0.35012800  1
  Te  Te50  1  0.22724200  0.05254000  0.26822600  1
  Te  Te51  1  0.72724200  0.94746000  0.23177400  1
  Te  Te52  1  0.06668200  0.63267000  0.34897900  1
  Te  Te53  1  0.27089300  0.42524600  0.69820600  1
  Te  Te54  1  0.56668200  0.36733000  0.15102100  1
  Te  Te55  1  0.67628900  0.21804800  0.45722000  1
  Te  Te56  1  0.26358400  0.51156200  0.81727900  1
  Te  Te57  1  0.95263100  0.51694300  0.89195500  1
  Te  Te58  1  0.55251900  0.67566400  0.15748600  1
  Te  Te59  1  0.85378200  0.89907800  0.58139000  1
  Te  Te60  1  0.81967600  0.30202600  0.58769900  1
  Te  Te61  1  0.68032400  0.30202600  0.08769900  1
  Te  Te62  1  0.53408600  0.94055200  0.72449700  1
  Te  Te63  1  0.55425400  0.83895100  0.38514400  1
loop_
_geom_bond_atom_site_label_1
_geom_bond_atom_site_label_2
_geom_bond_distance
_geom_bond_site_symmetry_2
Cs0 Te13 3.973448 1_555
Cs0 Te35 3.997031 1_564
Cs0 Te37 4.022909 1_555
Cs0 Te21 4.080337 1_564
Cs0 Te48 4.085565 1_554
Cs0 Te5 4.097990 1_564
Cs0 Te19 4.101912 1_555
Cs0 Te51 4.239511 1_555
Cs0 Te22 4.254373 1_554
Cs0 Te14 4.258165 1_555
Cs0 Te15 4.259497 1_555
Cs0 Te25 4.429867 1_655
Cs1 Te6 3.973448 1_555
Cs1 Te32 3.997031 1_545
Cs1 Te42 4.022909 1_555
Cs1 Te11 4.080337 1_545
Cs1 Te45 4.085565 1_555
Cs1 Te2 4.097990 1_545
Cs1 Te31 4.101912 1_555
Cs1 Te50 4.239511 1_555
Cs1 Te40 4.254373 1_555
Cs1 Te1 4.258165 1_555
Cs1 Te8 4.259497 1_555
Cs1 Te38 4.429867 1_555
Cs2 Te52 4.132260 1_555
Cs2 Te0 4.141349 1_555
Cs2 Te16 4.147934 1_555
Cs2 Te40 4.157343 1_555
Cs2 Te8 4.198519 1_555
Cs2 Te24 4.212220 1_555
Cs2 Te32 4.295497 1_545
Cs2 Te53 4.335084 1_555
Cs2 Te42 4.338818 1_555
Cs2 Te23 4.376184 1_555
Cs3 Te2 3.760365 1_555
Cs3 Te24 3.863853 1_555
Cs3 Te17 3.917041 1_455
Cs3 Te36 3.923093 1_555
Cs3 Te42 3.942283 1_565
Cs3 Te32 4.013116 1_555
Cs3 Te56 4.226783 1_555
Cs3 Cs6 4.274345 1_555
Cs3 Te53 4.276597 1_555
Cs3 Te49 4.490745 1_555
Cs4 Te60 3.956344 1_555
Cs4 Te62 3.973937 1_545
Cs4 Te45 3.987321 1_555
Cs4 Te55 3.990077 1_555
Cs4 Te30 4.041451 1_555
Cs4 Te12 4.074618 1_555
Cs4 Te46 4.169258 1_555
Cs4 Te35 4.246027 1_555
Cs5 Te54 4.132260 1_556
Cs5 Te58 4.141349 1_556
Cs5 Te62 4.147934 1_555
Cs5 Te22 4.157343 1_555
Cs5 Te15 4.198519 1_556
Cs5 Te61 4.212220 1_556
Cs5 Te35 4.295497 1_565
Cs5 Te9 4.335084 1_555
Cs5 Te37 4.338818 1_556
Cs5 Te10 4.376184 1_555
Cs6 Te20 3.956344 1_555
Cs6 Te16 3.973937 1_565
Cs6 Te48 3.987321 1_455
Cs6 Te27 3.990077 1_556
Cs6 Te56 4.041451 1_555
Cs6 Te18 4.074618 1_556
Cs6 Te57 4.169258 1_455
Cs6 Te32 4.246027 1_555
Cs7 Te55 3.760365 1_555
Cs7 Te60 3.863853 1_555
Cs7 Te0 3.917041 1_655
Cs7 Te13 3.923093 1_555
Cs7 Te59 3.942283 1_545
Cs7 Te39 4.013116 1_555
Cs7 Te15 4.226783 1_555
Cs7 Te14 4.276597 1_555
Cs7 Te3 4.490745 1_555
Cs8 Te24 3.956344 1_555
Cs8 Te31 3.973937 1_565
Cs8 Te63 3.987321 1_555
Cs8 Te2 3.990077 1_555
Cs8 Te8 4.041451 1_555
Cs8 Te40 4.074618 1_555
Cs8 Te4 4.169258 1_555
Cs8 Te7 4.246027 1_555
Cs9 Te26 3.973448 1_555
Cs9 Te39 3.997031 1_565
Cs9 Te59 4.022909 1_555
Cs9 Te38 4.080337 1_565
Cs9 Te63 4.085565 1_555
Cs9 Te55 4.097990 1_565
Cs9 Te62 4.101912 1_555
Cs9 Te10 4.239511 1_555
Cs9 Te12 4.254373 1_555
Cs9 Te9 4.258165 1_555
Cs9 Te30 4.259497 1_555
Cs9 Te11 4.429867 1_555
Cs10 Te47 4.132260 1_554
Cs10 Te43 4.141349 1_554
Cs10 Te31 4.147934 1_555
Cs10 Te18 4.157343 1_555
Cs10 Te56 4.198519 1_554
Cs10 Te20 4.212220 1_554
Cs10 Te7 4.295497 1_545
Cs10 Te1 4.335084 1_555
Cs10 Te44 4.338818 1_554
Cs10 Te50 4.376184 1_555
Cs11 Te28 4.132260 1_555
Cs11 Te17 4.141349 1_555
Cs11 Te19 4.147934 1_555
Cs11 Te12 4.157343 1_555
Cs11 Te30 4.198519 1_555
Cs11 Te60 4.212220 1_555
Cs11 Te39 4.295497 1_565
Cs11 Te14 4.335084 1_555
Cs11 Te59 4.338818 1_555
Cs11 Te51 4.376184 1_555
Cs12 Te5 3.760365 1_555
Cs12 Te61 3.863853 1_556
Cs12 Te43 3.917041 1_555
Cs12 Te26 3.923093 1_555
Cs12 Te37 3.942283 1_546
Cs12 Te35 4.013116 1_555
Cs12 Te30 4.226783 1_555
Cs12 Cs4 4.274345 1_555
Cs12 Te9 4.276597 1_555
Cs12 Te33 4.490745 1_556
Cs13 Te61 3.956344 1_555
Cs13 Te19 3.973937 1_545
Cs13 Te29 3.987321 1_655
Cs13 Te5 3.990077 1_554
Cs13 Te15 4.041451 1_555
Cs13 Te22 4.074618 1_554
Cs13 Te34 4.169258 1_655
Cs13 Te39 4.246027 1_555
Cs13 Cs7 4.274345 1_555
Cs14 Te36 3.973448 1_555
Cs14 Te7 3.997031 1_546
Cs14 Te44 4.022909 1_555
Cs14 Te25 4.080337 1_546
Cs14 Te29 4.085565 1_556
Cs14 Te27 4.097990 1_546
Cs14 Te16 4.101912 1_555
Cs14 Te23 4.239511 1_555
Cs14 Te18 4.254373 1_556
Cs14 Te53 4.258165 1_555
Cs14 Te56 4.259497 1_555
Cs14 Te21 4.429867 1_455
Cs15 Te27 3.760365 1_555
Cs15 Te20 3.863853 1_554
Cs15 Te58 3.917041 1_555
Cs15 Te6 3.923093 1_555
Cs15 Te44 3.942283 1_564
Cs15 Te7 4.013116 1_555
Cs15 Te8 4.226783 1_555
Cs15 Cs8 4.274345 1_555
Cs15 Te1 4.276597 1_555
Cs15 Te41 4.490745 1_554
Te0 Zr2 2.946224 1_555
Te0 Te13 2.958882 1_455
Te0 Te42 3.005360 1_555
Te0 Zr6 3.150667 1_555
Te1 Te8 2.822580 1_555
Te1 Zr6 3.013935 1_555
Te1 Zr2 3.046489 1_555
Te2 Zr3 2.975986 1_555
Te3 Te59 2.972922 1_545
Te3 Zr7 2.999499 1_555
Te3 Zr5 3.002182 1_545
Te4 Zr8 2.984560 1_555
Te4 Zr10 2.986483 1_555
Te4 Te6 3.085279 1_555
Te5 Zr11 2.975986 1_555
Te6 Zr8 3.002764 1_555
Te7 Zr0 2.925048 1_555
Te8 Zr6 2.911387 1_555
Te9 Zr11 3.013935 1_555
Te9 Zr5 3.046489 1_555
Te10 Te35 2.815142 1_565
Te10 Zr7 3.001199 1_565
Te10 Zr5 3.020206 1_555
Te11 Te2 2.802644 1_555
Te11 Zr3 2.992480 1_555
Te11 Zr1 3.022211 1_555
Te11 Te62 3.414176 1_555
Te12 Te4 2.965560 1_555
Te12 Zr10 2.981936 1_555
Te12 Te63 2.990336 1_555
Te13 Zr6 3.002764 1_655
Te13 Te34 3.085279 1_655
Te14 Te15 2.822580 1_555
Te14 Zr8 3.013935 1_555
Te14 Zr10 3.046489 1_555
Te15 Zr8 2.911387 1_555
Te16 Te48 2.982960 1_445
Te16 Zr7 3.012206 1_455
Te16 Te3 3.082253 1_455
Te16 Te21 3.414176 1_455
Te17 Zr5 2.946224 1_555
Te17 Te36 2.958882 1_655
Te17 Te59 3.005360 1_555
Te17 Zr11 3.150667 1_555
Te18 Te34 2.965560 1_555
Te18 Zr2 2.981936 1_555
Te18 Te29 2.990336 1_555
Te19 Te29 2.982960 1_665
Te19 Zr0 3.012206 1_655
Te19 Te49 3.082253 1_655
Te19 Te25 3.414176 1_655
Te20 Te47 2.809573 1_555
Te20 Zr1 2.987050 1_555
Te21 Te5 2.802644 1_555
Te21 Zr11 2.992480 1_555
Te21 Zr7 3.022211 1_555
Te22 Te57 2.965560 1_555
Te22 Zr5 2.981936 1_555
Te22 Te48 2.990336 1_555
Te23 Te32 2.815142 1_545
Te23 Zr1 3.001199 1_545
Te23 Zr4 3.020206 1_555
Te24 Te52 2.809573 1_555
Te24 Zr0 2.987050 1_555
Te25 Te27 2.802644 1_555
Te25 Zr6 2.992480 1_555
Te25 Zr0 3.022211 1_555
Te26 Te43 2.958882 1_555
Te26 Zr3 3.002764 1_555
Te26 Te46 3.085279 1_555
Te27 Zr6 2.975986 1_555
Te28 Te60 2.809573 1_555
Te28 Zr7 2.987898 1_555
Te28 Zr11 3.039231 1_555
Te29 Zr2 2.948368 1_555
Te29 Zr0 3.150830 1_545
Te30 Te9 2.822580 1_555
Te30 Zr11 2.911387 1_555
Te31 Te63 2.982960 1_545
Te31 Zr9 3.012206 1_555
Te31 Te33 3.082253 1_555
Te31 Te38 3.414176 1_555
Te32 Zr1 2.925048 1_555
Te33 Te37 2.972922 1_545
Te33 Zr9 2.999499 1_555
Te33 Zr10 3.002182 1_545
Te34 Zr6 2.984560 1_555
Te34 Zr2 2.986483 1_555
Te35 Zr7 2.925048 1_555
Te36 Zr11 3.002764 1_455
Te36 Te57 3.085279 1_455
Te37 Zr10 2.993412 1_555
Te37 Te58 3.005360 1_555
Te38 Te55 2.802644 1_555
Te38 Zr8 2.992480 1_555
Te38 Zr9 3.022211 1_555
Te39 Te51 2.815142 1_545
Te39 Zr9 2.925048 1_555
Te40 Te46 2.965560 1_555
Te40 Zr4 2.981936 1_555
Te40 Te45 2.990336 1_555
Te41 Te44 2.972922 1_565
Te41 Zr1 2.999499 1_555
Te41 Zr4 3.002182 1_565
Te41 Te62 3.082253 1_555
Te42 Te49 2.972922 1_545
Te42 Zr2 2.993412 1_555
Te43 Zr4 2.946224 1_555
Te43 Te44 3.005360 1_555
Te43 Zr3 3.150667 1_555
Te44 Zr4 2.993412 1_555
Te45 Zr4 2.948368 1_555
Te45 Te62 2.982960 1_545
Te45 Zr1 3.150830 1_545
Te46 Zr3 2.984560 1_555
Te46 Zr4 2.986483 1_555
Te47 Zr1 2.987898 1_555
Te47 Zr3 3.039231 1_555
Te48 Zr5 2.948368 1_555
Te48 Zr7 3.150830 1_565
Te49 Zr0 2.999499 1_555
Te49 Zr2 3.002182 1_565
Te50 Te7 2.815142 1_545
Te50 Zr0 3.001199 1_545
Te50 Zr2 3.020206 1_555
Te51 Zr9 3.001199 1_565
Te51 Zr10 3.020206 1_555
Te52 Zr0 2.987898 1_555
Te52 Zr6 3.039231 1_555
Te53 Te56 2.822580 1_555
Te53 Zr3 3.013935 1_555
Te53 Zr4 3.046489 1_555
Te54 Te61 2.809573 1_555
Te54 Zr9 2.987898 1_555
Te54 Zr8 3.039231 1_555
Te55 Zr8 2.975986 1_555
Te56 Zr3 2.911387 1_555
Te57 Zr11 2.984560 1_555
Te57 Zr5 2.986483 1_555
Te58 Zr10 2.946224 1_555
Te58 Te6 2.958882 1_555
Te58 Zr8 3.150667 1_555
Te59 Zr5 2.993412 1_555
Te60 Zr7 2.987050 1_555
Te61 Zr9 2.987050 1_555
Te62 Zr1 3.012206 1_555
Te63 Zr10 2.948368 1_555
Te63 Zr9 3.150830 1_565
