# generated using pymatgen
data_RbHSeO4
_symmetry_space_group_name_H-M   'P 1'
_cell_length_a   12.85284441
_cell_length_b   4.56875109
_cell_length_c   7.47747952
_cell_angle_alpha   90.00000000
_cell_angle_beta   90.00000000
_cell_angle_gamma   90.00000000
_symmetry_Int_Tables_number   1
_chemical_formula_structural   RbHSeO4
_chemical_formula_sum   'Rb4 H4 Se4 O16'
_cell_volume   439.08841664
_cell_formula_units_Z   4
loop_
 _symmetry_equiv_pos_site_id
 _symmetry_equiv_pos_as_xyz
  1  'x, y, z'
loop_
 _atom_site_type_symbol
 _atom_site_label
 _atom_site_symmetry_multiplicity
 _atom_site_fract_x
 _atom_site_fract_y
 _atom_site_fract_z
 _atom_site_occupancy
  Rb  Rb0  1  0.87830332  0.82013878  0.44973424  1
  Rb  Rb1  1  0.62169668  0.17986022  0.94973424  1
  Rb  Rb2  1  0.37830332  0.67986122  0.55026576  1
  Rb  Rb3  1  0.12169668  0.32013978  0.05026576  1
  H  H0  1  0.88644813  0.27765195  0.82506142  1
  H  H1  1  0.61355187  0.72234805  0.32506142  1
  H  H2  1  0.38644813  0.22234805  0.17493858  1
  H  H3  1  0.11355187  0.77765195  0.67493858  1
  Se  Se0  1  0.87434098  0.73115512  0.96006298  1
  Se  Se1  1  0.62565902  0.26884488  0.46006298  1
  Se  Se2  1  0.37434098  0.76884488  0.03993702  1
  Se  Se3  1  0.12565902  0.23115512  0.53993702  1
  O  O0  1  0.78066336  0.57965527  0.07399722  1
  O  O1  1  0.71933664  0.42034473  0.57399722  1
  O  O2  1  0.28066336  0.92034473  0.92600278  1
  O  O3  1  0.21933664  0.07965527  0.42600278  1
  O  O4  1  0.97148486  0.84368776  0.08269533  1
  O  O5  1  0.52851514  0.15631224  0.58269533  1
  O  O6  1  0.47148486  0.65631224  0.91730467  1
  O  O7  1  0.02851514  0.34368776  0.41730467  1
  O  O8  1  0.82981235  0.98814113  0.82423568  1
  O  O9  1  0.67018765  0.01185887  0.32423568  1
  O  O10  1  0.32981235  0.51185887  0.17576432  1
  O  O11  1  0.17018765  0.48814113  0.67576432  1
  O  O12  1  0.92816686  0.46957124  0.81795729  1
  O  O13  1  0.57183314  0.53042876  0.31795729  1
  O  O14  1  0.42816686  0.03042876  0.18204271  1
  O  O15  1  0.07183314  0.96957124  0.68204271  1
loop_
_geom_bond_atom_site_label_1
_geom_bond_atom_site_label_2
_geom_bond_distance
_geom_bond_site_symmetry_2
H0 O12 1.029160 1_555
H0 O8 1.509790 1_545
H1 O13 1.029160 1_555
H1 O9 1.509790 1_565
H2 O14 1.029160 1_555
H2 O10 1.509790 1_555
H3 O15 1.029160 1_555
H3 O11 1.509790 1_555
O0 Se0 1.629285 1_554
O0 Rb1 2.893831 1_554
O0 Rb0 3.267373 1_555
O1 Se1 1.629285 1_555
O1 Rb0 2.893829 1_555
O1 Rb1 3.267374 1_555
O2 Se2 1.629285 1_556
O2 Rb3 2.893831 1_566
O2 Rb2 3.267373 1_555
O3 Se3 1.629285 1_555
O3 Rb2 2.893829 1_545
O3 Rb3 3.267374 1_555
O4 Se0 1.632215 1_554
O4 Rb3 2.919696 1_665
O4 Rb0 2.996391 1_555
O4 Rb3 3.083453 1_655
O5 Se1 1.632215 1_555
O5 Rb2 2.919693 1_545
O5 Rb1 2.996391 1_555
O5 Rb2 3.083457 1_555
O6 Se2 1.632215 1_556
O6 Rb1 2.919696 1_555
O6 Rb2 2.996391 1_555
O6 Rb1 3.083453 1_565
O7 Se3 1.632215 1_555
O7 Rb0 2.919693 1_455
O7 Rb3 2.996391 1_555
O7 Rb0 3.083457 1_445
O8 Se0 1.654572 1_555
O8 Rb1 2.966955 1_565
O8 Rb0 2.969750 1_555
O9 Se1 1.654572 1_555
O9 Rb0 2.966957 1_545
O9 Rb1 2.969749 1_554
O10 Se2 1.654572 1_555
O10 Rb3 2.966955 1_555
O10 Rb2 2.969750 1_555
O11 Se3 1.654572 1_555
O11 Rb2 2.966957 1_555
O11 Rb3 2.969749 1_556
O12 Se0 1.742413 1_555
O12 Rb3 3.109784 1_656
O12 Rb0 3.249176 1_555
O13 Se1 1.742413 1_555
O13 Rb2 3.109785 1_555
O13 Rb1 3.249178 1_554
O14 Se2 1.742413 1_545
O14 Rb1 3.109784 1_554
O14 Rb2 3.249176 1_545
O15 Se3 1.742413 1_565
O15 Rb0 3.109785 1_455
O15 Rb3 3.249178 1_566
