# generated using pymatgen
data_GdFeO3
_symmetry_space_group_name_H-M   'P 1'
_cell_length_a   5.35764278
_cell_length_b   5.64185001
_cell_length_c   7.68223768
_cell_angle_alpha   90.00000000
_cell_angle_beta   90.00000000
_cell_angle_gamma   90.00000000
_symmetry_Int_Tables_number   1
_chemical_formula_structural   GdFeO3
_chemical_formula_sum   'Gd4 Fe4 O12'
_cell_volume   232.21112874
_cell_formula_units_Z   4
loop_
 _symmetry_equiv_pos_site_id
 _symmetry_equiv_pos_as_xyz
  1  'x, y, z'
loop_
 _atom_site_type_symbol
 _atom_site_label
 _atom_site_symmetry_multiplicity
 _atom_site_fract_x
 _atom_site_fract_y
 _atom_site_fract_z
 _atom_site_occupancy
  Gd  Gd0  1  0.98335955  0.06581878  0.25000000  1
  Gd  Gd1  1  0.48335955  0.43418122  0.75000000  1
  Gd  Gd2  1  0.51664045  0.56581878  0.25000000  1
  Gd  Gd3  1  0.01664045  0.93418122  0.75000000  1
  Fe  Fe0  1  0.00000000  0.50000000  0.00000000  1
  Fe  Fe1  1  0.50000000  0.00000000  0.50000000  1
  Fe  Fe2  1  0.50000000  0.00000000  0.00000000  1
  Fe  Fe3  1  0.00000000  0.50000000  0.50000000  1
  O  O0  1  0.30563835  0.69634460  0.55454939  1
  O  O1  1  0.39433416  0.96448063  0.25000000  1
  O  O2  1  0.19436165  0.19634460  0.94545061  1
  O  O3  1  0.69436165  0.30365540  0.05454939  1
  O  O4  1  0.69436165  0.30365540  0.44545061  1
  O  O5  1  0.80563835  0.80365540  0.44545061  1
  O  O6  1  0.30563835  0.69634460  0.94545061  1
  O  O7  1  0.19436165  0.19634460  0.55454939  1
  O  O8  1  0.89433416  0.53551937  0.75000000  1
  O  O9  1  0.60566584  0.03551937  0.75000000  1
  O  O10  1  0.80563835  0.80365540  0.05454939  1
  O  O11  1  0.10566584  0.46448063  0.25000000  1
loop_
_geom_bond_atom_site_label_1
_geom_bond_atom_site_label_2
_geom_bond_distance
_geom_bond_site_symmetry_2
Gd0 O1 2.274873 1_645
Gd0 O5 2.312750 1_545
Gd0 O10 2.312750 1_545
Gd0 O11 2.342699 1_655
Gd0 O4 2.540159 1_555
Gd0 O3 2.540159 1_555
Gd0 O2 2.700758 1_654
Gd0 O7 2.700758 1_655
Gd1 O8 2.274873 1_555
Gd1 O0 2.312750 1_555
Gd1 O6 2.312750 1_555
Gd1 O9 2.342699 1_555
Gd1 O7 2.540159 1_555
Gd1 O2 2.540159 1_555
Gd1 O4 2.700758 1_555
Gd1 O3 2.700758 1_556
Gd2 O11 2.274873 1_555
Gd2 O4 2.312750 1_555
Gd2 O3 2.312750 1_555
Gd2 O1 2.342699 1_555
Gd2 O5 2.540159 1_555
Gd2 O10 2.540159 1_555
Gd2 O6 2.700758 1_554
Gd2 O0 2.700758 1_555
Gd3 O9 2.274873 1_465
Gd3 O2 2.312750 1_565
Gd3 O7 2.312750 1_565
Gd3 O8 2.342699 1_455
Gd3 O6 2.540159 1_555
Gd3 O0 2.540159 1_555
Gd3 O5 2.700758 1_455
Gd3 O10 2.700758 1_456
Fe0 O11 2.012262 1_555
Fe0 O8 2.012262 1_454
Fe0 O6 2.020922 1_554
Fe0 O3 2.020922 1_455
Fe0 O10 2.048155 1_455
Fe0 O2 2.048155 1_554
Fe1 O1 2.012262 1_545
Fe1 O9 2.012262 1_555
Fe1 O7 2.020922 1_555
Fe1 O5 2.020922 1_545
Fe1 O4 2.048155 1_555
Fe1 O0 2.048155 1_545
Fe2 O9 2.012262 1_554
Fe2 O1 2.012262 1_545
Fe2 O2 2.020922 1_554
Fe2 O10 2.020922 1_545
Fe2 O3 2.048155 1_555
Fe2 O6 2.048155 1_544
Fe3 O8 2.012262 1_455
Fe3 O11 2.012262 1_555
Fe3 O0 2.020922 1_555
Fe3 O4 2.020922 1_455
Fe3 O5 2.048155 1_455
Fe3 O7 2.048155 1_555
