# generated using pymatgen
data_NiH12(BrO6)2
_symmetry_space_group_name_H-M   'P 1'
_cell_length_a   11.13151100
_cell_length_b   11.13151100
_cell_length_c   11.13151100
_cell_angle_alpha   90.00000000
_cell_angle_beta   90.00000000
_cell_angle_gamma   90.00000000
_symmetry_Int_Tables_number   1
_chemical_formula_structural   NiH12(BrO6)2
_chemical_formula_sum   'Ni4 H48 Br8 O48'
_cell_volume   1379.31150722
_cell_formula_units_Z   4
loop_
 _symmetry_equiv_pos_site_id
 _symmetry_equiv_pos_as_xyz
  1  'x, y, z'
loop_
 _atom_site_type_symbol
 _atom_site_label
 _atom_site_symmetry_multiplicity
 _atom_site_fract_x
 _atom_site_fract_y
 _atom_site_fract_z
 _atom_site_occupancy
  Ni  Ni0  1  0.50000000  0.50000000  0.00000000  1
  Ni  Ni1  1  0.50000000  0.00000000  0.50000000  1
  Ni  Ni2  1  0.00000000  0.50000000  0.50000000  1
  Ni  Ni3  1  0.00000000  0.00000000  0.00000000  1
  H  H0  1  0.04695500  0.63383900  0.20360400  1
  H  H1  1  0.95304500  0.13383900  0.29639600  1
  H  H2  1  0.45304500  0.36616100  0.70360400  1
  H  H3  1  0.54695500  0.86616100  0.79639600  1
  H  H4  1  0.20360400  0.04695500  0.63383900  1
  H  H5  1  0.29639600  0.95304500  0.13383900  1
  H  H6  1  0.70360400  0.45304500  0.36616100  1
  H  H7  1  0.79639600  0.54695500  0.86616100  1
  H  H8  1  0.63383900  0.20360400  0.04695500  1
  H  H9  1  0.13383900  0.29639600  0.95304500  1
  H  H10  1  0.36616100  0.70360400  0.45304500  1
  H  H11  1  0.86616100  0.79639600  0.54695500  1
  H  H12  1  0.95304500  0.36616100  0.79639600  1
  H  H13  1  0.04695500  0.86616100  0.70360400  1
  H  H14  1  0.54695500  0.63383900  0.29639600  1
  H  H15  1  0.45304500  0.13383900  0.20360400  1
  H  H16  1  0.79639600  0.95304500  0.36616100  1
  H  H17  1  0.70360400  0.04695500  0.86616100  1
  H  H18  1  0.29639600  0.54695500  0.63383900  1
  H  H19  1  0.20360400  0.45304500  0.13383900  1
  H  H20  1  0.36616100  0.79639600  0.95304500  1
  H  H21  1  0.86616100  0.70360400  0.04695500  1
  H  H22  1  0.63383900  0.29639600  0.54695500  1
  H  H23  1  0.13383900  0.20360400  0.45304500  1
  H  H24  1  0.19732200  0.40177300  0.88569700  1
  H  H25  1  0.80267800  0.90177300  0.61430300  1
  H  H26  1  0.30267800  0.59822700  0.38569700  1
  H  H27  1  0.69732200  0.09822700  0.11430300  1
  H  H28  1  0.88569700  0.19732200  0.40177300  1
  H  H29  1  0.61430300  0.80267800  0.90177300  1
  H  H30  1  0.38569700  0.30267800  0.59822700  1
  H  H31  1  0.11430300  0.69732200  0.09822700  1
  H  H32  1  0.40177300  0.88569700  0.19732200  1
  H  H33  1  0.90177300  0.61430300  0.80267800  1
  H  H34  1  0.59822700  0.38569700  0.30267800  1
  H  H35  1  0.09822700  0.11430300  0.69732200  1
  H  H36  1  0.80267800  0.59822700  0.11430300  1
  H  H37  1  0.19732200  0.09822700  0.38569700  1
  H  H38  1  0.69732200  0.40177300  0.61430300  1
  H  H39  1  0.30267800  0.90177300  0.88569700  1
  H  H40  1  0.11430300  0.80267800  0.59822700  1
  H  H41  1  0.38569700  0.19732200  0.09822700  1
  H  H42  1  0.61430300  0.69732200  0.40177300  1
  H  H43  1  0.88569700  0.30267800  0.90177300  1
  H  H44  1  0.59822700  0.11430300  0.80267800  1
  H  H45  1  0.09822700  0.38569700  0.19732200  1
  H  H46  1  0.40177300  0.61430300  0.69732200  1
  H  H47  1  0.90177300  0.88569700  0.30267800  1
  Br  Br0  1  0.16768700  0.83231300  0.33231300  1
  Br  Br1  1  0.83231300  0.33231300  0.16768700  1
  Br  Br2  1  0.33231300  0.16768700  0.83231300  1
  Br  Br3  1  0.66768700  0.66768700  0.66768700  1
  Br  Br4  1  0.83231300  0.16768700  0.66768700  1
  Br  Br5  1  0.16768700  0.66768700  0.83231300  1
  Br  Br6  1  0.66768700  0.83231300  0.16768700  1
  Br  Br7  1  0.33231300  0.33231300  0.33231300  1
  O  O0  1  0.12652500  0.64366000  0.16624500  1
  O  O1  1  0.87347500  0.14366000  0.33375500  1
  O  O2  1  0.37347500  0.35634000  0.66624500  1
  O  O3  1  0.62652500  0.85634000  0.83375500  1
  O  O4  1  0.16624500  0.12652500  0.64366000  1
  O  O5  1  0.33375500  0.87347500  0.14366000  1
  O  O6  1  0.66624500  0.37347500  0.35634000  1
  O  O7  1  0.83375500  0.62652500  0.85634000  1
  O  O8  1  0.64366000  0.16624500  0.12652500  1
  O  O9  1  0.14366000  0.33375500  0.87347500  1
  O  O10  1  0.35634000  0.66624500  0.37347500  1
  O  O11  1  0.85634000  0.83375500  0.62652500  1
  O  O12  1  0.87347500  0.35634000  0.83375500  1
  O  O13  1  0.12652500  0.85634000  0.66624500  1
  O  O14  1  0.62652500  0.64366000  0.33375500  1
  O  O15  1  0.37347500  0.14366000  0.16624500  1
  O  O16  1  0.83375500  0.87347500  0.35634000  1
  O  O17  1  0.66624500  0.12652500  0.85634000  1
  O  O18  1  0.33375500  0.62652500  0.64366000  1
  O  O19  1  0.16624500  0.37347500  0.14366000  1
  O  O20  1  0.35634000  0.83375500  0.87347500  1
  O  O21  1  0.85634000  0.66624500  0.12652500  1
  O  O22  1  0.64366000  0.33375500  0.62652500  1
  O  O23  1  0.14366000  0.16624500  0.37347500  1
  O  O24  1  0.51240500  0.47020900  0.83925400  1
  O  O25  1  0.48759500  0.97020900  0.66074600  1
  O  O26  1  0.98759500  0.52979100  0.33925400  1
  O  O27  1  0.01240500  0.02979100  0.16074600  1
  O  O28  1  0.83925400  0.51240500  0.47020900  1
  O  O29  1  0.66074600  0.48759500  0.97020900  1
  O  O30  1  0.33925400  0.98759500  0.52979100  1
  O  O31  1  0.16074600  0.01240500  0.02979100  1
  O  O32  1  0.47020900  0.83925400  0.51240500  1
  O  O33  1  0.97020900  0.66074600  0.48759500  1
  O  O34  1  0.52979100  0.33925400  0.98759500  1
  O  O35  1  0.02979100  0.16074600  0.01240500  1
  O  O36  1  0.48759500  0.52979100  0.16074600  1
  O  O37  1  0.51240500  0.02979100  0.33925400  1
  O  O38  1  0.01240500  0.47020900  0.66074600  1
  O  O39  1  0.98759500  0.97020900  0.83925400  1
  O  O40  1  0.16074600  0.48759500  0.52979100  1
  O  O41  1  0.33925400  0.51240500  0.02979100  1
  O  O42  1  0.66074600  0.01240500  0.47020900  1
  O  O43  1  0.83925400  0.98759500  0.97020900  1
  O  O44  1  0.52979100  0.16074600  0.48759500  1
  O  O45  1  0.02979100  0.33925400  0.51240500  1
  O  O46  1  0.47020900  0.66074600  0.01240500  1
  O  O47  1  0.97020900  0.83925400  0.98759500  1
loop_
_geom_bond_atom_site_label_1
_geom_bond_atom_site_label_2
_geom_bond_distance
_geom_bond_site_symmetry_2
Ni0 O29 1.825047 1_554
Ni0 O46 1.825047 1_555
Ni0 O41 1.825047 1_555
Ni0 O36 1.825047 1_555
Ni0 O34 1.825047 1_554
Ni0 O24 1.825047 1_554
Ni1 O42 1.825047 1_555
Ni1 O25 1.825047 1_545
Ni1 O37 1.825047 1_555
Ni1 O30 1.825047 1_545
Ni1 O44 1.825047 1_555
Ni1 O32 1.825047 1_545
Ni2 O38 1.825047 1_555
Ni2 O33 1.825047 1_455
Ni2 O45 1.825047 1_555
Ni2 O40 1.825047 1_555
Ni2 O26 1.825047 1_455
Ni2 O28 1.825047 1_455
Ni3 O27 1.825047 1_555
Ni3 O35 1.825047 1_555
Ni3 O31 1.825047 1_555
Ni3 O47 1.825047 1_444
Ni3 O43 1.825047 1_444
Ni3 O39 1.825047 1_444
H0 O0 0.984590 1_555
H1 O1 0.984590 1_555
H2 O2 0.984590 1_555
H3 O3 0.984590 1_555
H4 O4 0.984590 1_555
H5 O5 0.984590 1_555
H6 O6 0.984590 1_555
H7 O7 0.984590 1_555
H8 O8 0.984590 1_555
H9 O9 0.984590 1_555
H10 O10 0.984590 1_555
H11 O11 0.984590 1_555
H12 O12 0.984590 1_555
H13 O13 0.984590 1_555
H14 O14 0.984590 1_555
H15 O15 0.984590 1_555
H16 O16 0.984590 1_555
H17 O17 0.984590 1_555
H18 O18 0.984590 1_555
H19 O19 0.984590 1_555
H20 O20 0.984590 1_555
H21 O21 0.984590 1_555
H22 O22 0.984590 1_555
H23 O23 0.984590 1_555
H24 O9 0.973955 1_555
H25 O11 0.973955 1_555
H26 O10 0.973955 1_555
H27 O8 0.973955 1_555
H28 O1 0.973955 1_555
H29 O3 0.973955 1_555
H30 O2 0.973955 1_555
H31 O0 0.973955 1_555
H32 O5 0.973955 1_555
H33 O7 0.973955 1_555
H34 O6 0.973955 1_555
H35 O4 0.973955 1_555
H36 O21 0.973955 1_555
H37 O23 0.973955 1_555
H38 O22 0.973955 1_555
H39 O20 0.973955 1_555
H40 O13 0.973955 1_555
H41 O15 0.973955 1_555
H42 O14 0.973955 1_555
H43 O12 0.973955 1_555
H44 O17 0.973955 1_555
H45 O19 0.973955 1_555
H46 O18 0.973955 1_555
H47 O16 0.973955 1_555
