# generated using pymatgen
data_Co4Si(CO)14
_symmetry_space_group_name_H-M   'P 1'
_cell_length_a   9.29814922
_cell_length_b   9.29814922
_cell_length_c   12.41393820
_cell_angle_alpha   82.08116354
_cell_angle_beta   82.08116354
_cell_angle_gamma   85.22329484
_symmetry_Int_Tables_number   1
_chemical_formula_structural   Co4Si(CO)14
_chemical_formula_sum   'Co8 Si2 C28 O28'
_cell_volume   1050.61970181
_cell_formula_units_Z   2
loop_
 _symmetry_equiv_pos_site_id
 _symmetry_equiv_pos_as_xyz
  1  'x, y, z'
loop_
 _atom_site_type_symbol
 _atom_site_label
 _atom_site_symmetry_multiplicity
 _atom_site_fract_x
 _atom_site_fract_y
 _atom_site_fract_z
 _atom_site_occupancy
  Co  Co0  1  0.95847500  0.27116600  0.83756200  1
  Co  Co1  1  0.72883400  0.04152500  0.66243800  1
  Co  Co2  1  0.69332600  0.31459300  0.91845300  1
  Co  Co3  1  0.27116600  0.95847500  0.33756200  1
  Co  Co4  1  0.31459300  0.69332600  0.41845300  1
  Co  Co5  1  0.04152500  0.72883400  0.16243800  1
  Co  Co6  1  0.30667400  0.68540700  0.08154700  1
  Co  Co7  1  0.68540700  0.30667400  0.58154700  1
  Si  Si0  1  0.76083800  0.23916200  0.75000000  1
  Si  Si1  1  0.23916200  0.76083800  0.25000000  1
  C  C0  1  0.50602400  0.34028300  0.65000400  1
  C  C1  1  0.92430600  0.86065400  0.22458200  1
  C  C2  1  0.22683300  0.53029300  0.44489500  1
  C  C3  1  0.07569400  0.13934600  0.77541800  1
  C  C4  1  0.83467800  0.14970900  0.94165400  1
  C  C5  1  0.13934600  0.07569400  0.27541800  1
  C  C6  1  0.05278500  0.31051700  0.94479000  1
  C  C7  1  0.65971700  0.49397600  0.84999600  1
  C  C8  1  0.94721500  0.68948300  0.05521000  1
  C  C9  1  0.36287000  0.71304700  0.54957000  1
  C  C10  1  0.46970700  0.77316700  0.05510500  1
  C  C11  1  0.99707300  0.43698100  0.75042200  1
  C  C12  1  0.53029300  0.22683300  0.94489500  1
  C  C13  1  0.16532200  0.85029100  0.05834600  1
  C  C14  1  0.86065400  0.92430600  0.72458200  1
  C  C15  1  0.43698100  0.99707300  0.25042200  1
  C  C16  1  0.34028300  0.50602400  0.15000400  1
  C  C17  1  0.63713000  0.28695300  0.45043000  1
  C  C18  1  0.00292700  0.56301900  0.24957800  1
  C  C19  1  0.56301900  0.00292700  0.74957800  1
  C  C20  1  0.49397600  0.65971700  0.34999600  1
  C  C21  1  0.77316700  0.46970700  0.55510500  1
  C  C22  1  0.31051700  0.05278500  0.44479000  1
  C  C23  1  0.28695300  0.63713000  0.95043000  1
  C  C24  1  0.85029100  0.16532200  0.55834600  1
  C  C25  1  0.71304700  0.36287000  0.04957000  1
  C  C26  1  0.14970900  0.83467800  0.44165400  1
  C  C27  1  0.68948300  0.94721500  0.55521000  1
  O  O0  1  0.15987800  0.05875600  0.73413100  1
  O  O1  1  0.45748600  0.96793900  0.80386100  1
  O  O2  1  0.33720500  0.11250700  0.51441900  1
  O  O3  1  0.96589500  0.16325600  0.50530600  1
  O  O4  1  0.11250700  0.33720500  0.01441900  1
  O  O5  1  0.84012200  0.94124400  0.26586900  1
  O  O6  1  0.82244000  0.58191400  0.53268600  1
  O  O7  1  0.58191400  0.82244000  0.03268600  1
  O  O8  1  0.83674400  0.03410500  0.99469400  1
  O  O9  1  0.38917800  0.36051700  0.69382700  1
  O  O10  1  0.05875600  0.15987800  0.23413100  1
  O  O11  1  0.61082200  0.63948300  0.30617300  1
  O  O12  1  0.41808600  0.17756000  0.96731400  1
  O  O13  1  0.60684000  0.27261600  0.36562500  1
  O  O14  1  0.27261600  0.60684000  0.86562500  1
  O  O15  1  0.03206100  0.54251400  0.69613900  1
  O  O16  1  0.39316000  0.72738400  0.63437500  1
  O  O17  1  0.88749300  0.66279500  0.98558100  1
  O  O18  1  0.36051700  0.38917800  0.19382700  1
  O  O19  1  0.03410500  0.83674400  0.49469400  1
  O  O20  1  0.66279500  0.88749300  0.48558100  1
  O  O21  1  0.94124400  0.84012200  0.76586900  1
  O  O22  1  0.72738400  0.39316000  0.13437500  1
  O  O23  1  0.96793900  0.45748600  0.30386100  1
  O  O24  1  0.54251400  0.03206100  0.19613900  1
  O  O25  1  0.16325600  0.96589500  0.00530600  1
  O  O26  1  0.17756000  0.41808600  0.46731400  1
  O  O27  1  0.63948300  0.61082200  0.80617300  1
loop_
_geom_bond_atom_site_label_1
_geom_bond_atom_site_label_2
_geom_bond_distance
_geom_bond_site_symmetry_2
Co0 Si0 2.318984 1_555
Co1 Si0 2.318984 1_555
Co2 Si0 2.286492 1_555
Co3 Si1 2.318984 1_555
Co4 Si1 2.286492 1_555
Co5 Si1 2.318984 1_555
Co6 Si1 2.286492 1_555
Co7 Si0 2.286492 1_555
C0 O9 1.158891 1_555
C0 Co7 1.788197 1_555
C1 O5 1.155205 1_555
C1 Co5 1.758332 1_655
C2 O26 1.157728 1_555
C2 Co4 1.751195 1_555
C3 O0 1.155205 1_555
C3 Co0 1.758332 1_455
C4 O8 1.180828 1_555
C4 Co0 1.916947 1_555
C4 Co2 1.951374 1_555
C4 Si0 2.575542 1_555
C5 O10 1.155205 1_555
C5 Co3 1.758332 1_545
C6 O4 1.153856 1_556
C6 Co0 1.784376 1_455
C7 O27 1.158891 1_555
C7 Co2 1.788197 1_555
C8 O17 1.153856 1_554
C8 Co5 1.784376 1_655
C9 O16 1.154134 1_555
C9 Co4 1.783740 1_555
C10 O7 1.157728 1_555
C10 Co6 1.751195 1_555
C11 O15 1.154715 1_655
C11 Co0 1.789324 1_555
C12 O12 1.157728 1_555
C12 Co2 1.751195 1_555
C13 O25 1.180828 1_555
C13 Co5 1.916947 1_555
C13 Co6 1.951374 1_555
C13 Si1 2.575542 1_555
C14 O21 1.155205 1_555
C14 Co1 1.758332 1_565
C15 O24 1.154715 1_565
C15 Co3 1.789324 1_555
C16 O18 1.158891 1_555
C16 Co6 1.788197 1_555
C17 O13 1.154134 1_555
C17 Co7 1.783740 1_555
C18 O23 1.154715 1_455
C18 Co5 1.789324 1_555
C19 O1 1.154715 1_545
C19 Co1 1.789324 1_555
C20 O11 1.158891 1_555
C20 Co4 1.788197 1_555
C21 O6 1.157728 1_555
C21 Co7 1.751195 1_555
C22 O2 1.153856 1_555
C22 Co3 1.784376 1_545
C23 O14 1.154134 1_555
C23 Co6 1.783740 1_556
C24 O3 1.180828 1_555
C24 Co1 1.916947 1_555
C24 Co7 1.951374 1_555
C24 Si0 2.575542 1_555
C25 O22 1.154134 1_555
C25 Co2 1.783740 1_554
C26 O19 1.180828 1_555
C26 Co3 1.916947 1_555
C26 Co4 1.951374 1_555
C26 Si1 2.575542 1_555
C27 O20 1.153856 1_555
C27 Co1 1.784376 1_565
