# generated using pymatgen
data_La4Ni3Pb4
_symmetry_space_group_name_H-M   'P 1'
_cell_length_a   6.71722847
_cell_length_b   6.71722847
_cell_length_c   6.71722874
_cell_angle_alpha   96.08076155
_cell_angle_beta   96.08076155
_cell_angle_gamma   96.08075887
_symmetry_Int_Tables_number   1
_chemical_formula_structural   La4Ni3Pb4
_chemical_formula_sum   'La4 Ni3 Pb4'
_cell_volume   297.57721404
_cell_formula_units_Z   1
loop_
 _symmetry_equiv_pos_site_id
 _symmetry_equiv_pos_as_xyz
  1  'x, y, z'
loop_
 _atom_site_type_symbol
 _atom_site_label
 _atom_site_symmetry_multiplicity
 _atom_site_fract_x
 _atom_site_fract_y
 _atom_site_fract_z
 _atom_site_occupancy
  La  La0  1  0.43232400  0.17277000  0.67107400  1
  La  La1  1  0.67107400  0.43232400  0.17277000  1
  La  La2  1  0.86840300  0.86840300  0.86840300  1
  La  La3  1  0.17277000  0.67107400  0.43232400  1
  Ni  Ni0  1  0.45995700  0.62506000  0.74711900  1
  Ni  Ni1  1  0.62506000  0.74711900  0.45995700  1
  Ni  Ni2  1  0.74711900  0.45995700  0.62506000  1
  Pb  Pb0  1  0.86903500  0.09068900  0.45468100  1
  Pb  Pb1  1  0.20692100  0.20692100  0.20692100  1
  Pb  Pb2  1  0.09068900  0.45468100  0.86903500  1
  Pb  Pb3  1  0.45468100  0.86903500  0.09068900  1
loop_
_geom_bond_atom_site_label_1
_geom_bond_atom_site_label_2
_geom_bond_distance
_geom_bond_site_symmetry_2
La0 Ni2 2.772879 1_555
La0 Ni0 3.009534 1_555
La0 Pb1 3.360191 1_555
La0 Ni1 3.489465 1_545
La0 Ni0 3.788648 1_545
La1 Ni1 2.772879 1_555
La1 Ni2 3.009534 1_555
La1 Pb1 3.360191 1_555
La1 Ni0 3.489465 1_554
La1 Ni2 3.788648 1_554
La2 Ni2 3.026099 1_555
La2 Ni0 3.026099 1_555
La2 Ni1 3.026099 1_555
La2 Pb2 3.291350 1_655
La2 Pb3 3.291350 1_556
La2 Pb0 3.291351 1_565
La2 Pb1 3.496505 1_666
La3 Ni0 2.772879 1_555
La3 Ni1 3.009534 1_555
La3 Pb1 3.360191 1_555
La3 Ni2 3.489465 1_455
La3 Ni1 3.788648 1_455
Ni0 Ni2 2.493715 1_555
Ni0 Ni1 2.493715 1_555
Ni0 Pb3 2.691003 1_556
Ni0 Pb2 2.856684 1_555
Ni1 Ni2 2.493715 1_555
Ni1 Pb0 2.691003 1_565
Ni1 Pb3 2.856684 1_555
Ni2 Pb2 2.691003 1_655
Ni2 Pb0 2.856684 1_555
Pb0 Pb1 3.038225 1_655
Pb1 Pb3 3.038225 1_545
Pb1 Pb2 3.038225 1_554
