# generated using pymatgen
data_Li7Mn17O32
_symmetry_space_group_name_H-M   'P 1'
_cell_length_a   10.26888049
_cell_length_b   10.26888049
_cell_length_c   8.27561213
_cell_angle_alpha   66.34767876
_cell_angle_beta   66.34767876
_cell_angle_gamma   107.93052808
_symmetry_Int_Tables_number   1
_chemical_formula_structural   Li7Mn17O32
_chemical_formula_sum   'Li7 Mn17 O32'
_cell_volume   607.24952182
_cell_formula_units_Z   1
loop_
 _symmetry_equiv_pos_site_id
 _symmetry_equiv_pos_as_xyz
  1  'x, y, z'
loop_
 _atom_site_type_symbol
 _atom_site_label
 _atom_site_symmetry_multiplicity
 _atom_site_fract_x
 _atom_site_fract_y
 _atom_site_fract_z
 _atom_site_occupancy
  Li  Li0  1  0.93773500  0.56265300  0.50172300  1
  Li  Li1  1  0.81083400  0.18916600  0.00000000  1
  Li  Li2  1  0.68483000  0.80783900  0.00358100  1
  Li  Li3  1  0.56422200  0.43577800  0.50000000  1
  Li  Li4  1  0.43734700  0.06226500  0.49827700  1
  Li  Li5  1  0.19216100  0.31517000  0.99641900  1
  Li  Li6  1  0.06151100  0.93848900  0.50000000  1
  Mn  Mn0  1  0.86969900  0.86866200  0.25515900  1
  Mn  Mn1  1  0.00052900  0.75483800  0.99535300  1
  Mn  Mn2  1  0.00195700  0.25359200  0.49572300  1
  Mn  Mn3  1  0.62651600  0.12647400  0.74845300  1
  Mn  Mn4  1  0.74640800  0.99804300  0.50427700  1
  Mn  Mn5  1  0.87352600  0.37348400  0.25154700  1
  Mn  Mn6  1  0.75191900  0.50103900  0.99886900  1
  Mn  Mn7  1  0.38158700  0.37780100  0.24704100  1
  Mn  Mn8  1  0.49896100  0.24808100  0.00113100  1
  Mn  Mn9  1  0.62219900  0.61841300  0.75295900  1
  Mn  Mn10  1  0.49707800  0.74425300  0.50223100  1
  Mn  Mn11  1  0.25574700  0.50292200  0.49776900  1
  Mn  Mn12  1  0.12377900  0.62619800  0.74677800  1
  Mn  Mn13  1  0.37380200  0.87622100  0.25322200  1
  Mn  Mn14  1  0.31076200  0.68923800  0.00000000  1
  Mn  Mn15  1  0.24516200  0.99947100  0.00464700  1
  Mn  Mn16  1  0.13133800  0.13030100  0.74484100  1
  O  O0  1  0.88618400  0.87052300  0.01043400  1
  O  O1  1  0.74610200  0.00996100  0.73392600  1
  O  O2  1  0.87143900  0.35927400  0.49541900  1
  O  O3  1  0.99003900  0.25389800  0.26607400  1
  O  O4  1  0.64072600  0.12856100  0.50458100  1
  O  O5  1  0.78398300  0.52313500  0.21280700  1
  O  O6  1  0.87329400  0.38863400  0.01055700  1
  O  O7  1  0.00655100  0.74531800  0.76701700  1
  O  O8  1  0.49377300  0.26145600  0.23533300  1
  O  O9  1  0.61047600  0.59801200  0.00626800  1
  O  O10  1  0.73854400  0.50622700  0.76466700  1
  O  O11  1  0.40198800  0.38952400  0.99373200  1
  O  O12  1  0.83777000  0.85098900  0.51946300  1
  O  O13  1  0.50349000  0.73690000  0.73647300  1
  O  O14  1  0.61268800  0.62649500  0.52280500  1
  O  O15  1  0.72561000  0.96185000  0.29103900  1
  O  O16  1  0.26564600  0.52659300  0.71578400  1
  O  O17  1  0.38154900  0.86103300  0.49093000  1
  O  O18  1  0.47340700  0.73435400  0.28421600  1
  O  O19  1  0.13896700  0.61845100  0.50907000  1
  O  O20  1  0.61136600  0.12670600  0.98944300  1
  O  O21  1  0.25468200  0.99344900  0.23298300  1
  O  O22  1  0.37421600  0.89130600  0.00606000  1
  O  O23  1  0.47686500  0.21601700  0.78719300  1
  O  O24  1  0.01667000  0.77757100  0.21456200  1
  O  O25  1  0.12947700  0.11381600  0.98956600  1
  O  O26  1  0.22242900  0.98333000  0.78543800  1
  O  O27  1  0.37350500  0.38731200  0.47719500  1
  O  O28  1  0.03815000  0.27439000  0.70896100  1
  O  O29  1  0.14901100  0.16223000  0.48053700  1
  O  O30  1  0.26310000  0.49651000  0.26352700  1
  O  O31  1  0.10869400  0.62578400  0.99394000  1
loop_
_geom_bond_atom_site_label_1
_geom_bond_atom_site_label_2
_geom_bond_distance
_geom_bond_site_symmetry_2
Li0 O10 1.985440 1_555
Li0 O19 2.000463 1_655
Li0 O2 2.017026 1_555
Li0 O24 2.078436 1_655
Li1 O20 1.998556 1_554
Li1 O6 1.998556 1_555
Li1 O15 2.134380 1_545
Li1 O28 2.134380 1_654
Li2 O0 1.999184 1_555
Li2 O1 2.009139 1_564
Li2 O9 2.039881 1_555
Li2 O18 2.053304 1_555
Li3 O14 1.972465 1_555
Li3 O27 1.972465 1_555
Li3 O23 2.070128 1_555
Li3 O5 2.070128 1_555
Li4 O8 1.985440 1_555
Li4 O17 2.000463 1_545
Li4 O4 2.017026 1_555
Li4 O26 2.078436 1_545
Li5 O25 1.999184 1_555
Li5 O3 2.009139 1_456
Li5 O11 2.039881 1_555
Li5 O16 2.053304 1_555
Li6 O7 1.982235 1_555
Li6 O21 1.982235 1_555
Li6 O12 2.104268 1_455
Li6 O29 2.104268 1_565
Mn0 O0 1.955128 1_555
Mn0 O15 1.985068 1_555
Mn0 O24 1.995038 1_655
Mn0 O12 1.998514 1_555
Mn0 O14 2.214598 1_555
Mn0 O25 2.237307 1_664
Mn1 O7 1.908463 1_555
Mn1 O0 1.914628 1_456
Mn1 O31 1.974458 1_555
Mn1 O24 1.982452 1_556
Mn1 O5 1.985019 1_456
Mn1 O26 1.994199 1_555
Mn2 O3 1.951641 1_455
Mn2 O2 1.967276 1_455
Mn2 O29 1.997744 1_555
Mn2 O28 2.019306 1_555
Mn2 O1 2.210866 1_455
Mn2 O30 2.237568 1_555
Mn3 O20 1.938219 1_555
Mn3 O4 1.954973 1_555
Mn3 O1 1.963570 1_555
Mn3 O23 2.005279 1_555
Mn3 O2 2.116835 1_555
Mn3 O22 2.161973 1_546
Mn4 O1 1.951641 1_565
Mn4 O4 1.967276 1_565
Mn4 O12 1.997744 1_555
Mn4 O15 2.019306 1_555
Mn4 O3 2.210866 1_565
Mn4 O13 2.237568 1_555
Mn5 O6 1.938219 1_555
Mn5 O2 1.954973 1_555
Mn5 O3 1.963570 1_555
Mn5 O5 2.005279 1_555
Mn5 O4 2.116835 1_555
Mn5 O31 2.161973 1_654
Mn6 O6 1.946319 1_556
Mn6 O10 1.978240 1_555
Mn6 O9 1.993276 1_556
Mn6 O5 2.009608 1_556
Mn6 O8 2.206461 1_556
Mn6 O7 2.210205 1_655
Mn7 O8 1.901241 1_555
Mn7 O27 1.916140 1_555
Mn7 O11 1.970385 1_554
Mn7 O30 1.974468 1_555
Mn7 O29 1.986908 1_555
Mn7 O9 1.990631 1_555
Mn8 O20 1.946319 1_554
Mn8 O8 1.978240 1_555
Mn8 O11 1.993276 1_554
Mn8 O23 2.009608 1_554
Mn8 O10 2.206461 1_554
Mn8 O21 2.210205 1_545
Mn9 O10 1.901241 1_555
Mn9 O14 1.916140 1_555
Mn9 O9 1.970385 1_556
Mn9 O13 1.974468 1_555
Mn9 O12 1.986908 1_555
Mn9 O11 1.990631 1_555
Mn10 O17 1.931134 1_555
Mn10 O13 1.937998 1_555
Mn10 O14 1.944631 1_555
Mn10 O18 1.951515 1_555
Mn10 O15 1.975248 1_555
Mn10 O16 1.989208 1_555
Mn11 O19 1.931134 1_555
Mn11 O30 1.937998 1_555
Mn11 O27 1.944631 1_555
Mn11 O16 1.951515 1_555
Mn11 O28 1.975248 1_555
Mn11 O18 1.989208 1_555
Mn12 O19 1.946145 1_555
Mn12 O7 1.970472 1_555
Mn12 O31 1.986487 1_555
Mn12 O16 2.015552 1_555
Mn12 O6 2.165842 1_456
Mn12 O17 2.186524 1_555
Mn13 O17 1.946145 1_555
Mn13 O21 1.970472 1_555
Mn13 O22 1.986487 1_555
Mn13 O18 2.015552 1_555
Mn13 O20 2.165842 1_564
Mn13 O19 2.186524 1_555
Mn14 O30 1.999124 1_555
Mn14 O13 1.999124 1_554
Mn14 O22 2.002493 1_555
Mn14 O31 2.002493 1_554
Mn15 O21 1.908463 1_555
Mn15 O25 1.914628 1_564
Mn15 O22 1.974458 1_555
Mn15 O26 1.982452 1_554
Mn15 O23 1.985019 1_564
Mn15 O24 1.994199 1_555
Mn16 O25 1.955128 1_555
Mn16 O28 1.985068 1_555
Mn16 O26 1.995038 1_545
Mn16 O29 1.998514 1_555
Mn16 O27 2.214598 1_555
Mn16 O0 2.237307 1_446
