# generated using pymatgen
data_CaCO3
_symmetry_space_group_name_H-M   'P 1'
_cell_length_a   4.91782335
_cell_length_b   4.91782335
_cell_length_c   5.47371268
_cell_angle_alpha   71.71716616
_cell_angle_beta   71.71716616
_cell_angle_gamma   79.70982189
_symmetry_Int_Tables_number   1
_chemical_formula_structural   CaCO3
_chemical_formula_sum   'Ca2 C2 O6'
_cell_volume   118.88023145
_cell_formula_units_Z   2
loop_
 _symmetry_equiv_pos_site_id
 _symmetry_equiv_pos_as_xyz
  1  'x, y, z'
loop_
 _atom_site_type_symbol
 _atom_site_label
 _atom_site_symmetry_multiplicity
 _atom_site_fract_x
 _atom_site_fract_y
 _atom_site_fract_z
 _atom_site_occupancy
  Ca  Ca0  1  0.00000000  0.00000000  0.50000000  1
  Ca  Ca1  1  0.00000000  0.00000000  0.00000000  1
  C  C0  1  0.67025900  0.32974100  0.75000000  1
  C  C1  1  0.32974100  0.67025900  0.25000000  1
  O  O0  1  0.94867500  0.57677300  0.88204500  1
  O  O1  1  0.48977600  0.51022400  0.75000000  1
  O  O2  1  0.42322700  0.05132500  0.61795500  1
  O  O3  1  0.05132500  0.42322700  0.11795500  1
  O  O4  1  0.51022400  0.48977600  0.25000000  1
  O  O5  1  0.57677300  0.94867500  0.38204500  1
loop_
_geom_bond_atom_site_label_1
_geom_bond_atom_site_label_2
_geom_bond_distance
_geom_bond_site_symmetry_2
Ca0 O3 2.427870 1_555
Ca0 O0 2.427870 1_445
Ca0 O2 2.438380 1_555
Ca0 O5 2.438380 1_445
Ca0 O5 2.687668 1_545
Ca0 O2 2.687668 1_455
Ca1 O5 2.427870 1_445
Ca1 O2 2.427870 1_554
Ca1 O3 2.438380 1_555
Ca1 O0 2.438380 1_444
Ca1 O0 2.687668 1_454
Ca1 O3 2.687668 1_545
C0 O1 1.137608 1_555
C0 Ca0 2.488443 1_655
C0 Ca1 2.488443 1_656
C1 O4 1.137608 1_555
C1 Ca1 2.488443 1_565
C1 Ca0 2.488443 1_565
O0 O3 1.467489 1_656
O2 O5 1.467489 1_545
