# generated using pymatgen
data_Na3In(PO4)2
_symmetry_space_group_name_H-M   'P 1'
_cell_length_a   5.11566393
_cell_length_b   7.02954556
_cell_length_c   18.19575683
_cell_angle_alpha   90.00002115
_cell_angle_beta   90.00002849
_cell_angle_gamma   92.02880072
_symmetry_Int_Tables_number   1
_chemical_formula_structural   Na3In(PO4)2
_chemical_formula_sum   'Na12 In4 P8 O32'
_cell_volume   653.92367536
_cell_formula_units_Z   4
loop_
 _symmetry_equiv_pos_site_id
 _symmetry_equiv_pos_as_xyz
  1  'x, y, z'
loop_
 _atom_site_type_symbol
 _atom_site_label
 _atom_site_symmetry_multiplicity
 _atom_site_fract_x
 _atom_site_fract_y
 _atom_site_fract_z
 _atom_site_occupancy
  Na  Na0  1  0.80062129  0.19765901  0.30643300  1
  Na  Na1  1  0.78693370  0.48594229  0.12438632  1
  Na  Na2  1  0.71306652  0.01405746  0.62438653  1
  Na  Na3  1  0.21306524  0.51405763  0.87561410  1
  Na  Na4  1  0.28693240  0.98594246  0.37561303  1
  Na  Na5  1  0.30062073  0.69765999  0.19356656  1
  Na  Na6  1  0.19937928  0.80234031  0.69356663  1
  Na  Na7  1  0.69937991  0.30233937  0.80643382  1
  Na  Na8  1  0.74140338  0.79159677  0.44990272  1
  Na  Na9  1  0.24140336  0.29159678  0.05009733  1
  Na  Na10  1  0.25859691  0.20840353  0.55009718  1
  Na  Na11  1  0.75859686  0.70840348  0.94990275  1
  In  In0  1  0.28440913  0.48694192  0.37224290  1
  In  In1  1  0.21559121  0.01305741  0.87224241  1
  In  In2  1  0.71559117  0.51305738  0.62775756  1
  In  In3  1  0.78440914  0.98694190  0.12775714  1
  P  P0  1  0.77187907  0.28241078  0.46368294  1
  P  P1  1  0.80326152  0.71763536  0.28608266  1
  P  P2  1  0.69673827  0.78236425  0.78608287  1
  P  P3  1  0.19673866  0.28236448  0.71391722  1
  P  P4  1  0.30326203  0.21763564  0.21391727  1
  P  P5  1  0.72812021  0.21758929  0.96368286  1
  P  P6  1  0.27187918  0.78241086  0.03631697  1
  P  P7  1  0.22812029  0.71758940  0.53631721  1
  O  O0  1  0.37072427  0.89604108  0.56215563  1
  O  O1  1  0.12927419  0.60395910  0.06215541  1
  O  O2  1  0.62927375  0.10395908  0.43784448  1
  O  O3  1  0.87072387  0.39604103  0.93784446  1
  O  O4  1  0.35786565  0.54055588  0.56692841  1
  O  O5  1  0.14213709  0.95944543  0.06692857  1
  O  O6  1  0.64213709  0.45944560  0.43307144  1
  O  O7  1  0.85786565  0.04055601  0.93307157  1
  O  O8  1  0.22105459  0.71404351  0.45094290  1
  O  O9  1  0.27894501  0.78595660  0.95094273  1
  O  O10  1  0.77894526  0.28595654  0.54905723  1
  O  O11  1  0.72105486  0.21404342  0.04905713  1
  O  O12  1  0.93936398  0.71858445  0.56332470  1
  O  O13  1  0.56063588  0.78141368  0.06332472  1
  O  O14  1  0.06063577  0.28141358  0.43667515  1
  O  O15  1  0.43936383  0.21858439  0.93667542  1
  O  O16  1  0.45477851  0.03657589  0.19710424  1
  O  O17  1  0.04522264  0.46342432  0.69710446  1
  O  O18  1  0.54522248  0.96342425  0.80289555  1
  O  O19  1  0.95477808  0.53657574  0.30289579  1
  O  O20  1  0.00964054  0.18526857  0.19457477  1
  O  O21  1  0.49035986  0.31473232  0.69457553  1
  O  O22  1  0.99035950  0.81473221  0.80542467  1
  O  O23  1  0.50964000  0.68526851  0.30542506  1
  O  O24  1  0.83125141  0.74659863  0.20158902  1
  O  O25  1  0.66874903  0.75340110  0.70158916  1
  O  O26  1  0.16874906  0.25340119  0.79841093  1
  O  O27  1  0.33125151  0.24659878  0.29841091  1
  O  O28  1  0.90985741  0.88755662  0.32811458  1
  O  O29  1  0.59014099  0.61244396  0.82811502  1
  O  O30  1  0.09014165  0.11244403  0.67188506  1
  O  O31  1  0.40985808  0.38755674  0.17188534  1
loop_
_geom_bond_atom_site_label_1
_geom_bond_atom_site_label_2
_geom_bond_distance
_geom_bond_site_symmetry_2
Na0 O20 2.302207 1_655
Na0 O28 2.303484 1_545
Na0 O27 2.442050 1_555
Na0 O19 2.483748 1_555
Na0 O2 2.622752 1_555
Na0 O27 2.728038 1_655
Na0 O14 2.770683 1_655
Na0 O16 2.868425 1_555
Na1 O31 2.202692 1_555
Na1 O1 2.221399 1_655
Na1 O24 2.313579 1_555
Na1 O11 2.366405 1_555
Na1 O13 2.656867 1_555
Na1 O20 2.750792 1_655
Na2 O30 2.202688 1_655
Na2 O0 2.221404 1_545
Na2 O25 2.313579 1_545
Na2 O10 2.366409 1_555
Na2 O12 2.656877 1_545
Na2 O21 2.750802 1_555
Na3 O29 2.202695 1_555
Na3 O3 2.221397 1_455
Na3 O26 2.313584 1_555
Na3 O9 2.366401 1_555
Na3 O15 2.656877 1_555
Na3 O22 2.750802 1_455
Na4 O28 2.202685 1_455
Na4 O2 2.221406 1_565
Na4 O27 2.313574 1_565
Na4 O8 2.366413 1_555
Na4 O14 2.656867 1_565
Na4 O23 2.750790 1_555
Na5 O23 2.302211 1_555
Na5 O31 2.303490 1_555
Na5 O24 2.442047 1_455
Na5 O16 2.483744 1_565
Na5 O1 2.622745 1_555
Na5 O24 2.728039 1_555
Na5 O13 2.770680 1_555
Na5 O19 2.868435 1_455
Na6 O22 2.302205 1_455
Na6 O30 2.303495 1_565
Na6 O25 2.442050 1_555
Na6 O17 2.483743 1_555
Na6 O0 2.622741 1_555
Na6 O25 2.728038 1_455
Na6 O12 2.770683 1_455
Na6 O18 2.868430 1_555
Na7 O21 2.302210 1_555
Na7 O29 2.303501 1_555
Na7 O26 2.442046 1_655
Na7 O18 2.483738 1_545
Na7 O3 2.622734 1_555
Na7 O26 2.728040 1_555
Na7 O15 2.770680 1_555
Na7 O17 2.868439 1_655
Na8 O2 2.299509 1_565
Na8 O12 2.363270 1_555
Na8 O6 2.391515 1_555
Na8 O28 2.463182 1_555
Na8 O8 2.532408 1_655
Na8 O8 2.698274 1_555
Na9 O1 2.299508 1_555
Na9 O15 2.363269 1_554
Na9 O5 2.391516 1_545
Na9 O31 2.463180 1_555
Na9 O11 2.532409 1_555
Na9 O11 2.698272 1_455
Na10 O0 2.299507 1_545
Na10 O14 2.363268 1_555
Na10 O4 2.391525 1_555
Na10 O30 2.463179 1_555
Na10 O10 2.532409 1_455
Na10 O10 2.698271 1_555
Na11 O3 2.299506 1_555
Na11 O13 2.363268 1_556
Na11 O7 2.391526 1_565
Na11 O29 2.463177 1_555
Na11 O9 2.532410 1_555
Na11 O9 2.698270 1_655
In0 O19 2.144559 1_455
In0 O23 2.153058 1_555
In0 O6 2.153233 1_555
In0 O14 2.157596 1_555
In0 O8 2.177355 1_555
In0 O27 2.178373 1_555
In1 O18 2.144557 1_545
In1 O22 2.153052 1_445
In1 O7 2.153232 1_455
In1 O15 2.157594 1_555
In1 O9 2.177355 1_545
In1 O26 2.178371 1_555
In2 O17 2.144557 1_655
In2 O21 2.153054 1_555
In2 O4 2.153230 1_555
In2 O12 2.157595 1_555
In2 O10 2.177355 1_555
In2 O25 2.178371 1_555
In3 O16 2.144558 1_565
In3 O20 2.153057 1_665
In3 O5 2.153235 1_655
In3 O13 2.157596 1_555
In3 O11 2.177355 1_565
In3 O24 2.178373 1_555
O0 P7 1.504008 1_555
O1 P6 1.504012 1_555
O2 P0 1.504012 1_555
O3 P5 1.504008 1_555
O4 P7 1.535566 1_555
O5 P6 1.535567 1_555
O6 P0 1.535567 1_555
O7 P5 1.535565 1_555
O8 P7 1.554050 1_555
O9 P6 1.554049 1_556
O10 P0 1.554050 1_555
O11 P5 1.554049 1_554
O12 P7 1.557029 1_655
O13 P6 1.557032 1_555
O14 P0 1.557033 1_455
O15 P5 1.557028 1_555
O16 P4 1.544076 1_555
O17 P3 1.544074 1_555
O18 P2 1.544074 1_555
O19 P1 1.544076 1_555
O20 P4 1.551660 1_555
O21 P3 1.551657 1_555
O22 P2 1.551657 1_555
O23 P1 1.551660 1_555
O24 P1 1.556782 1_555
O25 P2 1.556782 1_555
O26 P3 1.556783 1_555
O27 P4 1.556781 1_555
O28 P1 1.504301 1_555
O29 P2 1.504301 1_555
O30 P3 1.504301 1_555
O31 P4 1.504301 1_555
