# generated using pymatgen
data_NaLa2Ti2MnO9
_symmetry_space_group_name_H-M   'P 1'
_cell_length_a   5.53945000
_cell_length_b   5.54346873
_cell_length_c   13.57307655
_cell_angle_alpha   89.55801201
_cell_angle_beta   89.58295901
_cell_angle_gamma   60.14824177
_symmetry_Int_Tables_number   1
_chemical_formula_structural   NaLa2Ti2MnO9
_chemical_formula_sum   'Na2 La4 Ti4 Mn2 O18'
_cell_volume   361.48280883
_cell_formula_units_Z   2
loop_
 _symmetry_equiv_pos_site_id
 _symmetry_equiv_pos_as_xyz
  1  'x, y, z'
loop_
 _atom_site_type_symbol
 _atom_site_label
 _atom_site_symmetry_multiplicity
 _atom_site_fract_x
 _atom_site_fract_y
 _atom_site_fract_z
 _atom_site_occupancy
  Na  Na0  1  0.17240700  0.16548700  0.91932800  1
  Na  Na1  1  0.83638600  0.83280200  0.58383000  1
  La  La0  1  0.49852100  0.49449500  0.74729300  1
  La  La1  1  0.16600100  0.16283900  0.41718100  1
  La  La2  1  0.82916800  0.83340600  0.07774700  1
  La  La3  1  0.50233800  0.50497300  0.25068500  1
  Ti  Ti0  1  0.50082400  0.50402600  0.99762400  1
  Ti  Ti1  1  0.50287800  0.50489900  0.50259300  1
  Ti  Ti2  1  0.16857000  0.16587500  0.66794800  1
  Ti  Ti3  1  0.83710500  0.83360200  0.83221700  1
  Mn  Mn0  1  0.83044000  0.83330600  0.33619300  1
  Mn  Mn1  1  0.16294100  0.16682000  0.16479800  1
  O  O0  1  0.63798000  0.64724100  0.89115200  1
  O  O1  1  0.52165500  0.02884900  0.73834800  1
  O  O2  1  0.64900600  0.14062300  0.92873300  1
  O  O3  1  0.30890000  0.31019200  0.56002400  1
  O  O4  1  0.20304100  0.69597600  0.40299000  1
  O  O5  1  0.30546700  0.81232100  0.59677100  1
  O  O6  1  0.02848300  0.52251400  0.73940000  1
  O  O7  1  0.13751300  0.64410500  0.92875200  1
  O  O8  1  0.97188600  0.97636300  0.22603800  1
  O  O9  1  0.02024800  0.02248200  0.77156600  1
  O  O10  1  0.83907100  0.37679300  0.07357300  1
  O  O11  1  0.97708700  0.47310000  0.26485800  1
  O  O12  1  0.68531000  0.20904700  0.40245200  1
  O  O13  1  0.80572200  0.31748100  0.59747100  1
  O  O14  1  0.68278800  0.68952300  0.44142500  1
  O  O15  1  0.36097900  0.84676400  0.07132900  1
  O  O16  1  0.47220500  0.97540900  0.26318300  1
  O  O17  1  0.36258400  0.35964200  0.10635400  1
loop_
_geom_bond_atom_site_label_1
_geom_bond_atom_site_label_2
_geom_bond_distance
_geom_bond_site_symmetry_2
Na0 O9 2.464870 1_555
Na0 O7 2.566621 1_555
Na0 O15 2.570433 1_546
Na0 O2 2.578328 1_555
Na0 O10 2.644440 1_456
Na0 O0 2.770856 1_545
Na0 O0 2.858766 1_455
Na0 O2 2.972157 1_455
Na0 O1 2.975138 1_555
Na0 O6 2.983269 1_555
Na0 O7 2.992901 1_545
Na1 O14 2.410641 1_555
Na1 O5 2.551143 1_655
Na1 O6 2.589250 1_655
Na1 O1 2.591325 1_565
Na1 O13 2.614368 1_565
Na1 O3 2.793155 1_655
Na1 O3 2.819275 1_565
La0 O0 2.413528 1_555
La0 O13 2.512392 1_555
La0 O1 2.523795 1_555
La0 O6 2.533046 1_555
La0 O5 2.553898 1_555
La0 O9 2.789260 1_655
La0 O9 2.824338 1_565
La0 O2 2.989212 1_555
La0 O7 3.010290 1_555
La0 O6 3.017122 1_655
La0 O1 3.029483 1_565
La0 O3 3.123344 1_555
La1 O3 2.396526 1_555
La1 O4 2.501126 1_545
La1 O11 2.551983 1_455
La1 O12 2.554180 1_455
La1 O16 2.559906 1_545
La2 O8 2.444533 1_555
La2 O2 2.504281 1_564
La2 O10 2.505440 1_555
La2 O7 2.511283 1_654
La2 O15 2.559564 1_555
La2 O17 2.799610 1_565
La2 O17 2.838086 1_655
La2 O15 2.984119 1_655
La2 O10 3.040014 1_565
La2 O16 3.045192 1_555
La2 O11 3.071398 1_555
La2 O0 3.125462 1_554
La3 O17 2.398633 1_555
La3 O12 2.506949 1_555
La3 O4 2.525800 1_555
La3 O16 2.535857 1_555
La3 O11 2.555111 1_555
Mn0 O14 1.989675 1_555
Mn0 O11 1.997030 1_555
Mn0 O16 2.000220 1_555
Mn0 O8 2.015318 1_555
Mn0 O4 2.028303 1_655
Mn0 O12 2.035924 1_565
Mn1 O8 2.002930 1_445
Mn1 O15 2.009392 1_545
Mn1 O10 2.009445 1_455
Mn1 O16 2.011428 1_545
Mn1 O11 2.015491 1_455
Mn1 O17 2.036129 1_555
O0 Ti0 1.965401 1_555
O0 Ti3 2.008156 1_555
O1 Ti2 1.962795 1_555
O1 Ti3 1.994131 1_545
O2 Ti3 1.986859 1_545
O2 Ti0 1.994516 1_555
O3 Ti2 1.993631 1_555
O3 Ti1 2.014121 1_555
O4 Ti1 1.991865 1_555
O5 Ti2 1.971957 1_565
O5 Ti1 1.972844 1_555
O6 Ti3 1.969517 1_455
O6 Ti2 1.985615 1_555
O7 Ti3 1.964635 1_455
O7 Ti0 1.996895 1_555
O9 Ti3 1.958383 1_445
O9 Ti2 1.975102 1_555
O10 Ti0 1.942211 1_554
O12 Ti1 1.980640 1_555
O13 Ti1 1.956478 1_555
O13 Ti2 1.998829 1_655
O14 Ti1 1.928789 1_555
O15 Ti0 1.939991 1_554
O17 Ti0 1.995121 1_554
