# generated using pymatgen
data_Co3TeO6
_symmetry_space_group_name_H-M   'P 1'
_cell_length_a   8.43693390
_cell_length_b   8.43693390
_cell_length_c   10.39408175
_cell_angle_alpha   84.39880427
_cell_angle_beta   84.39880427
_cell_angle_gamma   62.20321634
_symmetry_Int_Tables_number   1
_chemical_formula_structural   Co3TeO6
_chemical_formula_sum   'Co18 Te6 O36'
_cell_volume   650.22828868
_cell_formula_units_Z   6
loop_
 _symmetry_equiv_pos_site_id
 _symmetry_equiv_pos_as_xyz
  1  'x, y, z'
loop_
 _atom_site_type_symbol
 _atom_site_label
 _atom_site_symmetry_multiplicity
 _atom_site_fract_x
 _atom_site_fract_y
 _atom_site_fract_z
 _atom_site_occupancy
  Co  Co0  1  0.85158701  0.17784420  0.97811354  1
  Co  Co1  1  0.18745872  0.50949612  0.26139064  1
  Co  Co2  1  0.43624660  0.15295163  0.42401364  1
  Co  Co3  1  0.82215580  0.14841299  0.52188646  1
  Co  Co4  1  0.49050388  0.81254128  0.23860936  1
  Co  Co5  1  0.36146813  0.97166079  0.94798478  1
  Co  Co6  1  0.14841299  0.82215580  0.02188646  1
  Co  Co7  1  0.63853187  0.02833921  0.05201522  1
  Co  Co8  1  0.50949612  0.18745872  0.76139064  1
  Co  Co9  1  0.56375340  0.84704837  0.57598636  1
  Co  Co10  1  0.67352224  0.32647776  0.25000000  1
  Co  Co11  1  0.81254128  0.49050388  0.73860936  1
  Co  Co12  1  0.97166079  0.36146813  0.44798478  1
  Co  Co13  1  0.02833921  0.63853187  0.55201522  1
  Co  Co14  1  0.17784420  0.85158701  0.47811354  1
  Co  Co15  1  0.15295163  0.43624660  0.92401364  1
  Co  Co16  1  0.84704837  0.56375340  0.07598636  1
  Co  Co17  1  0.32647776  0.67352224  0.75000000  1
  Te  Te0  1  0.84333760  0.84596659  0.29570187  1
  Te  Te1  1  0.84596659  0.84333760  0.79570187  1
  Te  Te2  1  0.15666240  0.15403341  0.70429813  1
  Te  Te3  1  0.50000000  0.50000000  0.50000000  1
  Te  Te4  1  0.15403341  0.15666240  0.20429813  1
  Te  Te5  1  0.50000000  0.50000000  0.00000000  1
  O  O0  1  0.42927602  0.42214933  0.16660461  1
  O  O1  1  0.40145830  0.04133550  0.12543725  1
  O  O2  1  0.72901236  0.77553748  0.16659770  1
  O  O3  1  0.61315268  0.90386938  0.39193825  1
  O  O4  1  0.09613062  0.38684732  0.10806175  1
  O  O5  1  0.07422559  0.74431501  0.69893809  1
  O  O6  1  0.04133550  0.40145830  0.62543725  1
  O  O7  1  0.26038932  0.59261716  0.93497339  1
  O  O8  1  0.24839350  0.93385062  0.30810964  1
  O  O9  1  0.74431501  0.07422559  0.19893809  1
  O  O10  1  0.90386938  0.61315268  0.89193825  1
  O  O11  1  0.25693484  0.60062685  0.44009039  1
  O  O12  1  0.77553748  0.72901236  0.66659770  1
  O  O13  1  0.07522245  0.08923917  0.55516240  1
  O  O14  1  0.92477755  0.91076083  0.44483760  1
  O  O15  1  0.60062685  0.25693484  0.94009039  1
  O  O16  1  0.59854170  0.95866450  0.87456275  1
  O  O17  1  0.08923917  0.07522245  0.05516240  1
  O  O18  1  0.73961068  0.40738284  0.06502661  1
  O  O19  1  0.39937315  0.74306516  0.05990961  1
  O  O20  1  0.74306516  0.39937315  0.55990961  1
  O  O21  1  0.22446252  0.27098764  0.33340230  1
  O  O22  1  0.42214933  0.42927602  0.66660461  1
  O  O23  1  0.93385062  0.24839350  0.80810964  1
  O  O24  1  0.25568499  0.92577441  0.80106191  1
  O  O25  1  0.57072398  0.57785067  0.83339539  1
  O  O26  1  0.92577441  0.25568499  0.30106191  1
  O  O27  1  0.75160650  0.06614938  0.69189036  1
  O  O28  1  0.57785067  0.57072398  0.33339539  1
  O  O29  1  0.40738284  0.73961068  0.56502661  1
  O  O30  1  0.59261716  0.26038932  0.43497339  1
  O  O31  1  0.91076083  0.92477755  0.94483760  1
  O  O32  1  0.27098764  0.22446252  0.83340230  1
  O  O33  1  0.06614938  0.75160650  0.19189036  1
  O  O34  1  0.38684732  0.09613062  0.60806175  1
  O  O35  1  0.95866450  0.59854170  0.37456275  1
loop_
_geom_bond_atom_site_label_1
_geom_bond_atom_site_label_2
_geom_bond_distance
_geom_bond_site_symmetry_2
Co0 O15 1.969441 1_555
Co0 O23 1.974585 1_555
Co0 O18 1.981809 1_556
Co0 O17 1.992541 1_656
Co0 O31 2.010927 1_545
Co1 O33 1.910042 1_555
Co1 O21 1.967904 1_555
Co1 O0 2.005794 1_555
Co1 O35 2.012704 1_455
Co1 O11 2.301390 1_555
Co1 O4 2.347273 1_555
Co2 O21 1.886069 1_555
Co2 O30 1.933904 1_555
Co2 O3 1.967064 1_545
Co2 O34 1.978591 1_555
Co3 O20 1.969441 1_555
Co3 O27 1.974585 1_555
Co3 O30 1.981809 1_555
Co3 O14 1.992541 1_545
Co3 O13 2.010927 1_655
Co4 O8 1.910042 1_555
Co4 O2 1.967904 1_555
Co4 O28 2.005794 1_555
Co4 O1 2.012704 1_565
Co4 O19 2.301390 1_555
Co4 O3 2.347273 1_555
Co5 O24 1.995557 1_555
Co5 O16 2.027051 1_555
Co5 O19 2.057845 1_556
Co5 O1 2.092731 1_566
Co5 O32 2.171028 1_565
Co5 O17 2.257985 1_566
Co6 O19 1.969441 1_555
Co6 O33 1.974585 1_555
Co6 O7 1.981809 1_554
Co6 O31 1.992541 1_454
Co6 O17 2.010927 1_565
Co7 O9 1.995557 1_555
Co7 O1 2.027051 1_555
Co7 O15 2.057845 1_554
Co7 O16 2.092731 1_544
Co7 O2 2.171028 1_545
Co7 O31 2.257985 1_544
Co8 O27 1.910042 1_555
Co8 O32 1.967904 1_555
Co8 O22 2.005794 1_555
Co8 O16 2.012704 1_545
Co8 O15 2.301390 1_555
Co8 O34 2.347273 1_555
Co9 O12 1.886069 1_555
Co9 O29 1.933904 1_555
Co9 O34 1.967064 1_565
Co9 O3 1.978591 1_555
Co10 O26 2.034911 1_555
Co10 O9 2.034911 1_555
Co10 O28 2.076078 1_555
Co10 O0 2.076078 1_555
Co10 O18 2.088745 1_555
Co10 O30 2.088745 1_555
Co11 O23 1.910042 1_555
Co11 O12 1.967904 1_555
Co11 O25 2.005794 1_555
Co11 O6 2.012704 1_655
Co11 O20 2.301390 1_555
Co11 O10 2.347273 1_555
Co12 O26 1.995557 1_555
Co12 O35 2.027051 1_555
Co12 O20 2.057845 1_555
Co12 O6 2.092731 1_655
Co12 O21 2.171028 1_655
Co12 O13 2.257985 1_655
Co13 O5 1.995557 1_555
Co13 O6 2.027051 1_555
Co13 O11 2.057845 1_555
Co13 O35 2.092731 1_455
Co13 O12 2.171028 1_455
Co13 O14 2.257985 1_455
Co14 O11 1.969441 1_555
Co14 O8 1.974585 1_555
Co14 O29 1.981809 1_555
Co14 O13 1.992541 1_565
Co14 O14 2.010927 1_455
Co15 O32 1.886069 1_555
Co15 O7 1.933904 1_555
Co15 O10 1.967064 1_455
Co15 O4 1.978591 1_556
Co16 O2 1.886069 1_555
Co16 O18 1.933904 1_555
Co16 O4 1.967064 1_655
Co16 O10 1.978591 1_554
Co17 O24 2.034911 1_555
Co17 O5 2.034911 1_555
Co17 O25 2.076078 1_555
Co17 O22 2.076078 1_555
Co17 O29 2.088745 1_555
Co17 O7 2.088745 1_555
O0 Te5 1.930814 1_555
O1 Te4 1.975747 1_555
O2 Te0 2.006756 1_555
O3 Te0 1.960134 1_555
O4 Te4 1.960134 1_555
O5 Te1 1.924477 1_455
O6 Te2 1.975747 1_555
O7 Te5 1.960744 1_556
O8 Te4 1.925574 1_565
O9 Te0 1.924477 1_545
O10 Te1 1.960134 1_555
O11 Te3 1.958640 1_555
O12 Te1 2.006756 1_555
O13 Te2 1.974212 1_555
O14 Te0 1.974212 1_555
O15 Te5 1.958640 1_556
O16 Te1 1.975747 1_555
O17 Te4 1.974212 1_555
O18 Te5 1.960744 1_555
O19 Te5 1.958640 1_555
O20 Te3 1.958640 1_555
O21 Te4 2.006756 1_555
O22 Te3 1.930814 1_555
O23 Te2 1.925574 1_655
O24 Te2 1.924477 1_565
O25 Te5 1.930814 1_556
O26 Te4 1.924477 1_655
O27 Te1 1.925574 1_545
O28 Te3 1.930814 1_555
O29 Te3 1.960744 1_555
O30 Te3 1.960744 1_555
O31 Te1 1.974212 1_555
O32 Te2 2.006756 1_555
O33 Te0 1.925574 1_455
O34 Te2 1.960134 1_555
O35 Te0 1.975747 1_555
