# generated using pymatgen
data_NbCo2
_symmetry_space_group_name_H-M   'P 1'
_cell_length_a   4.80243619
_cell_length_b   4.80244564
_cell_length_c   4.80245517
_cell_angle_alpha   59.99995459
_cell_angle_beta   59.99993659
_cell_angle_gamma   59.99984329
_symmetry_Int_Tables_number   1
_chemical_formula_structural   NbCo2
_chemical_formula_sum   'Nb2 Co4'
_cell_volume   78.31978939
_cell_formula_units_Z   2
loop_
 _symmetry_equiv_pos_site_id
 _symmetry_equiv_pos_as_xyz
  1  'x, y, z'
loop_
 _atom_site_type_symbol
 _atom_site_label
 _atom_site_symmetry_multiplicity
 _atom_site_fract_x
 _atom_site_fract_y
 _atom_site_fract_z
 _atom_site_occupancy
  Nb  Nb0  1  0.87499617  0.87499982  0.87500318  1
  Nb  Nb1  1  0.12500383  0.12500018  0.12499682  1
  Co  Co0  1  0.50000000  0.50000000  0.50000000  1
  Co  Co1  1  0.50000000  0.50000000  -0.00000000  1
  Co  Co2  1  0.00000000  0.50000000  0.50000000  1
  Co  Co3  1  0.50000000  0.00000000  0.50000000  1
loop_
_geom_bond_atom_site_label_1
_geom_bond_atom_site_label_2
_geom_bond_distance
_geom_bond_site_symmetry_2
Nb0 Nb1 2.940845 1_566
Nb0 Nb1 2.940880 1_656
Nb0 Nb1 2.940894 1_666
Nb0 Nb1 2.940915 1_665
Co0 Co2 2.401218 1_555
Co0 Co2 2.401218 1_655
Co0 Co3 2.401223 1_555
Co0 Co3 2.401223 1_565
Co0 Co1 2.401228 1_556
Co0 Co1 2.401228 1_555
Co0 Nb1 2.815669 1_556
Co0 Nb0 2.815669 1_554
Co0 Nb1 2.815678 1_565
Co0 Nb0 2.815678 1_545
Co0 Nb0 2.815691 1_455
Co0 Nb1 2.815691 1_655
Co1 Co2 2.401221 1_654
Co1 Co2 2.401221 1_555
Co1 Co3 2.401224 1_555
Co1 Co3 2.401224 1_564
Co1 Nb1 2.815672 1_555
Co1 Nb0 2.815672 1_554
Co1 Nb1 2.815674 1_565
Co1 Nb0 2.815674 1_544
Co1 Nb0 2.815684 1_454
Co1 Nb1 2.815684 1_655
Co2 Co3 2.401215 1_465
Co2 Co3 2.401215 1_555
Co2 Nb0 2.815681 1_454
Co2 Nb1 2.815681 1_556
Co2 Nb1 2.815691 1_555
Co2 Nb0 2.815691 1_455
Co2 Nb1 2.815691 1_565
Co2 Nb0 2.815691 1_445
Co3 Nb0 2.815673 1_544
Co3 Nb1 2.815673 1_556
Co3 Nb0 2.815680 1_545
Co3 Nb1 2.815680 1_555
Co3 Nb0 2.815694 1_445
Co3 Nb1 2.815694 1_655
