# generated using pymatgen
data_LiSc(SiO3)2
_symmetry_space_group_name_H-M   'P 1'
_cell_length_a   9.06202500
_cell_length_b   5.39863100
_cell_length_c   9.50047412
_cell_angle_alpha   78.45871275
_cell_angle_beta   90.00000000
_cell_angle_gamma   90.00000000
_symmetry_Int_Tables_number   1
_chemical_formula_structural   LiSc(SiO3)2
_chemical_formula_sum   'Li4 Sc4 Si8 O24'
_cell_volume   455.38958916
_cell_formula_units_Z   4
loop_
 _symmetry_equiv_pos_site_id
 _symmetry_equiv_pos_as_xyz
  1  'x, y, z'
loop_
 _atom_site_type_symbol
 _atom_site_label
 _atom_site_symmetry_multiplicity
 _atom_site_fract_x
 _atom_site_fract_y
 _atom_site_fract_z
 _atom_site_occupancy
  Li  Li0  1  0.99988600  0.99190500  0.24724700  1
  Li  Li1  1  0.50011400  0.49190500  0.24724700  1
  Li  Li2  1  0.00011400  0.00809500  0.75275300  1
  Li  Li3  1  0.49988600  0.50809500  0.75275300  1
  Sc  Sc0  1  0.85797700  0.48963000  0.25054300  1
  Sc  Sc1  1  0.35797700  0.01037000  0.74945700  1
  Sc  Sc2  1  0.14202300  0.51037000  0.74945700  1
  Sc  Sc3  1  0.64202300  0.98963000  0.25054300  1
  Si  Si0  1  0.66361900  0.22095800  0.54797400  1
  Si  Si1  1  0.16361900  0.27904200  0.45202600  1
  Si  Si2  1  0.33638100  0.77904200  0.45202600  1
  Si  Si3  1  0.83638100  0.72095800  0.54797400  1
  Si  Si4  1  0.16408300  0.73902200  0.04894100  1
  Si  Si5  1  0.66408300  0.76097800  0.95105900  1
  Si  Si6  1  0.83591700  0.26097800  0.95105900  1
  Si  Si7  1  0.33591700  0.23902200  0.04894100  1
  O  O0  1  0.76996300  0.43271600  0.60042500  1
  O  O1  1  0.73003700  0.93271600  0.60042500  1
  O  O2  1  0.23003700  0.56728400  0.39957500  1
  O  O3  1  0.26996300  0.06728400  0.39957500  1
  O  O4  1  0.50515700  0.23483200  0.62485600  1
  O  O5  1  0.00515700  0.26516800  0.37514400  1
  O  O6  1  0.49484300  0.76516800  0.37514400  1
  O  O7  1  0.99484300  0.73483200  0.62485600  1
  O  O8  1  0.33302700  0.29593900  0.87151100  1
  O  O9  1  0.83302700  0.20406100  0.12848900  1
  O  O10  1  0.66697300  0.70406100  0.12848900  1
  O  O11  1  0.16697300  0.79593900  0.87151100  1
  O  O12  1  0.49830500  0.20926800  0.12094400  1
  O  O13  1  0.99830500  0.29073200  0.87905600  1
  O  O14  1  0.50169500  0.79073200  0.87905600  1
  O  O15  1  0.00169500  0.70926800  0.12094400  1
  O  O16  1  0.26221100  0.48074600  0.10555800  1
  O  O17  1  0.76221100  0.01925400  0.89444200  1
  O  O18  1  0.73778900  0.51925400  0.89444200  1
  O  O19  1  0.23778900  0.98074600  0.10555800  1
  O  O20  1  0.66422900  0.27901300  0.37013800  1
  O  O21  1  0.16422900  0.22098700  0.62986200  1
  O  O22  1  0.33577100  0.72098700  0.62986200  1
  O  O23  1  0.83577100  0.77901300  0.37013800  1
loop_
_geom_bond_atom_site_label_1
_geom_bond_atom_site_label_2
_geom_bond_distance
_geom_bond_site_symmetry_2
Li0 O9 2.086646 1_565
Li0 O23 2.087803 1_555
Li0 O5 2.091014 1_665
Li0 O15 2.121554 1_655
Li0 O19 2.548711 1_655
Li1 O10 2.086646 1_555
Li1 O20 2.087803 1_555
Li1 O6 2.091014 1_555
Li1 O12 2.121554 1_555
Li1 O16 2.548711 1_555
Li2 O11 2.086646 1_545
Li2 O21 2.087803 1_555
Li2 O7 2.091014 1_445
Li2 O13 2.121554 1_455
Li2 O17 2.548711 1_455
Li3 O8 2.086646 1_555
Li3 O22 2.087803 1_555
Li3 O4 2.091014 1_555
Li3 O14 2.121554 1_555
Li3 O18 2.548711 1_555
O0 Si0 1.646779 1_555
O0 Si3 1.649780 1_555
O1 Si3 1.646779 1_555
O1 Si0 1.649780 1_565
O2 Si2 1.646779 1_555
O2 Si1 1.649780 1_555
O3 Si1 1.646779 1_555
O3 Si2 1.649780 1_545
O4 Si0 1.619588 1_555
O4 Sc1 2.018569 1_555
O5 Si1 1.619588 1_555
O5 Sc0 2.018569 1_455
O6 Si2 1.619588 1_555
O6 Sc3 2.018569 1_555
O7 Si3 1.619588 1_555
O7 Sc2 2.018569 1_655
O8 Si7 1.652066 1_556
O8 Sc1 2.118454 1_555
O8 Sc2 2.267936 1_555
O9 Si6 1.652066 1_554
O9 Sc0 2.118454 1_555
O9 Sc3 2.267936 1_545
O10 Si5 1.652066 1_554
O10 Sc3 2.118454 1_555
O10 Sc0 2.267936 1_555
O11 Si4 1.652066 1_556
O11 Sc2 2.118454 1_555
O11 Sc1 2.267936 1_565
O12 Si7 1.617182 1_555
O12 Sc3 2.008472 1_545
O13 Si6 1.617182 1_555
O13 Sc2 2.008472 1_655
O14 Si5 1.617182 1_555
O14 Sc1 2.008472 1_565
O15 Si4 1.617182 1_555
O15 Sc0 2.008472 1_455
O16 Si7 1.649028 1_555
O16 Si4 1.650495 1_555
O17 Si6 1.649028 1_555
O17 Si5 1.650495 1_545
O18 Si5 1.649028 1_555
O18 Si6 1.650495 1_555
O19 Si4 1.649028 1_555
O19 Si7 1.650495 1_565
O20 Si0 1.655558 1_555
O20 Sc3 2.117180 1_545
O20 Sc0 2.269259 1_555
O21 Si1 1.655558 1_555
O21 Sc2 2.117180 1_555
O21 Sc1 2.269259 1_555
O22 Si2 1.655558 1_555
O22 Sc1 2.117180 1_565
O22 Sc2 2.269259 1_555
O23 Si3 1.655558 1_555
O23 Sc0 2.117180 1_555
O23 Sc3 2.269259 1_555
