# generated using pymatgen
data_K2Ni3S4
_symmetry_space_group_name_H-M   'P 1'
_cell_length_a   14.07305980
_cell_length_b   13.44704173
_cell_length_c   5.81409734
_cell_angle_alpha   83.91485647
_cell_angle_beta   71.82948752
_cell_angle_gamma   24.25565600
_symmetry_Int_Tables_number   1
_chemical_formula_structural   K2Ni3S4
_chemical_formula_sum   'K4 Ni6 S8'
_cell_volume   382.02735614
_cell_formula_units_Z   2
loop_
 _symmetry_equiv_pos_site_id
 _symmetry_equiv_pos_as_xyz
  1  'x, y, z'
loop_
 _atom_site_type_symbol
 _atom_site_label
 _atom_site_symmetry_multiplicity
 _atom_site_fract_x
 _atom_site_fract_y
 _atom_site_fract_z
 _atom_site_occupancy
  K  K0  1  0.91282300  0.93082700  0.07902600  1
  K  K1  1  0.06845500  0.08723500  0.92949700  1
  K  K2  1  0.33076300  0.32299900  0.16576400  1
  K  K3  1  0.17813800  0.16656600  0.31809500  1
  Ni  Ni0  1  0.49752000  0.50028500  0.00390400  1
  Ni  Ni1  1  0.00710500  0.99426200  0.49440100  1
  Ni  Ni2  1  0.75209500  0.74609000  0.25754000  1
  Ni  Ni3  1  0.24720000  0.25090400  0.75563500  1
  Ni  Ni4  1  0.49971800  0.50393100  0.49760400  1
  Ni  Ni5  1  0.74111200  0.76003700  0.75328200  1
  S  S0  1  0.60130100  0.28675400  0.72240900  1
  S  S1  1  0.37608700  0.73119600  0.28822100  1
  S  S2  1  0.71963300  0.39162500  0.60348700  1
  S  S3  1  0.27371500  0.61679500  0.39030600  1
  S  S4  1  0.65141200  0.96123700  0.52154300  1
  S  S5  1  0.87031100  0.52323900  0.96140000  1
  S  S6  1  0.95670200  0.65323500  0.87129000  1
  S  S7  1  0.52856800  0.86436400  0.64564100  1
loop_
_geom_bond_atom_site_label_1
_geom_bond_atom_site_label_2
_geom_bond_distance
_geom_bond_site_symmetry_2
K0 S3 3.370958 1_565
K0 S0 3.380341 1_565
K0 S0 3.383723 1_654
K0 S3 3.384463 1_654
K0 S0 3.425019 1_564
K0 S4 3.449244 1_555
K0 S3 3.450710 1_655
K0 S6 3.472952 1_554
K1 S2 3.312379 1_456
K1 S1 3.389403 1_545
K1 S1 3.402509 1_456
K1 S2 3.418857 1_545
K1 S1 3.425520 1_546
K1 S2 3.458958 1_455
K1 S5 3.504462 1_455
K1 S7 3.554110 1_545
K2 S6 3.292481 1_544
K2 S4 3.339471 1_455
K2 S4 3.369037 1_544
K2 S6 3.427248 1_454
K2 S4 3.459314 1_545
K2 S6 3.467850 1_455
K2 S0 3.484163 1_554
K2 S3 3.551490 1_555
K3 S7 3.304595 1_544
K3 S5 3.401590 1_455
K3 S5 3.401697 1_544
K3 S5 3.417486 1_454
K3 S7 3.429363 1_455
K3 S7 3.483540 1_545
K3 S1 3.498615 1_545
K3 S2 3.510953 1_455
Ni0 S3 2.181056 1_555
Ni0 S0 2.216976 1_554
Ni0 S1 2.223727 1_555
Ni0 S2 2.275934 1_554
Ni1 S1 2.106355 1_555
Ni1 S3 2.171681 1_555
Ni1 S2 2.240813 1_465
Ni1 S0 2.295042 1_465
Ni2 S7 2.174303 1_555
Ni2 S4 2.200889 1_555
Ni2 S6 2.213365 1_554
Ni2 S5 2.220156 1_554
Ni3 S5 2.127838 1_455
Ni3 S7 2.168212 1_545
Ni3 S6 2.271906 1_455
Ni3 S4 2.296901 1_545
Ni4 S1 2.164567 1_555
Ni4 S2 2.169473 1_555
Ni4 S0 2.241446 1_555
Ni4 S3 2.245736 1_555
Ni5 S7 2.153250 1_555
Ni5 S4 2.188403 1_555
Ni5 S6 2.209654 1_555
Ni5 S5 2.215315 1_555
