# generated using pymatgen
data_YbMoClO4
_symmetry_space_group_name_H-M   'P 1'
_cell_length_a   6.45102528
_cell_length_b   6.45102528
_cell_length_c   6.78995893
_cell_angle_alpha   77.50018078
_cell_angle_beta   77.50018078
_cell_angle_gamma   69.33788125
_symmetry_Int_Tables_number   1
_chemical_formula_structural   YbMoClO4
_chemical_formula_sum   'Yb2 Mo2 Cl2 O8'
_cell_volume   255.07425327
_cell_formula_units_Z   2
loop_
 _symmetry_equiv_pos_site_id
 _symmetry_equiv_pos_as_xyz
  1  'x, y, z'
loop_
 _atom_site_type_symbol
 _atom_site_label
 _atom_site_symmetry_multiplicity
 _atom_site_fract_x
 _atom_site_fract_y
 _atom_site_fract_z
 _atom_site_occupancy
  Yb  Yb0  1  0.23257500  0.23257500  0.88915700  1
  Yb  Yb1  1  0.76742500  0.76742500  0.11084300  1
  Mo  Mo0  1  0.36376000  0.36376000  0.26803200  1
  Mo  Mo1  1  0.63624000  0.63624000  0.73196800  1
  Cl  Cl0  1  0.99220300  0.99220300  0.75955000  1
  Cl  Cl1  1  0.00779700  0.00779700  0.24045000  1
  O  O0  1  0.11352600  0.49190100  0.15482100  1
  O  O1  1  0.46000200  0.46000200  0.79339000  1
  O  O2  1  0.49190100  0.11352600  0.15482100  1
  O  O3  1  0.53999800  0.53999800  0.20661000  1
  O  O4  1  0.88647400  0.50809900  0.84517900  1
  O  O5  1  0.50809900  0.88647400  0.84517900  1
  O  O6  1  0.30024000  0.30024000  0.53998200  1
  O  O7  1  0.69976000  0.69976000  0.46001800  1
loop_
_geom_bond_atom_site_label_1
_geom_bond_atom_site_label_2
_geom_bond_distance
_geom_bond_site_symmetry_2
Mo0 O2 1.788981 1_555
Mo0 O0 1.788981 1_555
Mo0 O6 1.791346 1_555
Mo0 O3 1.805763 1_555
Mo1 O4 1.788981 1_555
Mo1 O5 1.788981 1_555
Mo1 O7 1.791346 1_555
Mo1 O1 1.805763 1_555
Cl0 Yb1 2.895554 1_556
Cl0 Yb0 2.908908 1_665
Cl1 Yb0 2.895554 1_554
Cl1 Yb1 2.908908 1_445
O0 Yb1 2.343419 1_455
O0 Yb0 2.538158 1_554
O1 Yb0 2.328287 1_555
O2 Yb1 2.343419 1_545
O2 Yb0 2.538158 1_554
O3 Yb1 2.328287 1_555
O4 Yb0 2.343419 1_655
O4 Yb1 2.538158 1_556
O5 Yb0 2.343419 1_565
O5 Yb1 2.538158 1_556
O6 Yb0 2.289250 1_555
O7 Yb1 2.289250 1_555
