# generated using pymatgen
data_Tb6PbSe10
_symmetry_space_group_name_H-M   'P 1'
_cell_length_a   7.63384120
_cell_length_b   7.62691111
_cell_length_c   38.18241708
_cell_angle_alpha   109.30375137
_cell_angle_beta   109.48043418
_cell_angle_gamma   109.56858828
_symmetry_Int_Tables_number   1
_chemical_formula_structural   Tb6PbSe10
_chemical_formula_sum   'Tb24 Pb4 Se40'
_cell_volume   1712.60594058
_cell_formula_units_Z   4
loop_
 _symmetry_equiv_pos_site_id
 _symmetry_equiv_pos_as_xyz
  1  'x, y, z'
loop_
 _atom_site_type_symbol
 _atom_site_label
 _atom_site_symmetry_multiplicity
 _atom_site_fract_x
 _atom_site_fract_y
 _atom_site_fract_z
 _atom_site_occupancy
  Tb  Tb0  1  0.13236031  0.75772107  0.97787058  1
  Tb  Tb1  1  0.11809548  0.75283268  0.77502912  1
  Tb  Tb2  1  0.25327506  0.62508007  0.87413119  1
  Tb  Tb3  1  0.37374036  0.24613656  0.92577301  1
  Tb  Tb4  1  0.09643596  0.73669585  0.56936412  1
  Tb  Tb5  1  0.25175075  0.62287362  0.67294323  1
  Tb  Tb6  1  0.37147627  0.24353806  0.72462201  1
  Tb  Tb7  1  0.62701862  0.37516756  0.85006578  1
  Tb  Tb8  1  0.13160401  0.75231646  0.37430209  1
  Tb  Tb9  1  0.24891948  0.60808625  0.47209133  1
  Tb  Tb10  1  0.37318592  0.24995279  0.52378465  1
  Tb  Tb11  1  0.75090963  0.87635317  0.62376162  1
  Tb  Tb12  1  0.62352408  0.37238945  0.64884313  1
  Tb  Tb13  1  0.11941659  0.74737533  0.17409699  1
  Tb  Tb14  1  0.25796946  0.63099404  0.27529942  1
  Tb  Tb15  1  0.38706507  0.25381265  0.32914802  1
  Tb  Tb16  1  0.74044314  0.88446458  0.42731945  1
  Tb  Tb17  1  0.25705450  0.63786372  0.07835837  1
  Tb  Tb18  1  0.61682222  0.37209787  0.24715775  1
  Tb  Tb19  1  0.73855776  0.85256030  0.22099556  1
  Tb  Tb20  1  0.87516530  0.13123683  0.35093184  1
  Tb  Tb21  1  0.76837087  0.89148911  0.03044064  1
  Tb  Tb22  1  0.62194985  0.37953401  0.05340564  1
  Tb  Tb23  1  0.87590524  0.12264515  0.14880032  1
  Pb  Pb0  1  0.75611004  0.88190523  0.82706673  1
  Pb  Pb1  1  0.88467620  0.12693805  0.95186580  1
  Pb  Pb2  1  0.87439149  0.12166424  0.75051129  1
  Pb  Pb3  1  0.86851366  0.11228645  0.54616275  1
  Se  Se0  1  0.01303709  0.37900048  0.90172424  1
  Se  Se1  1  0.99826587  0.84614460  0.69713381  1
  Se  Se2  1  0.50311725  0.00261793  0.97431247  1
  Se  Se3  1  0.16771167  0.16014334  0.83202854  1
  Se  Se4  1  0.35635892  0.49860116  0.79973590  1
  Se  Se5  1  0.00988500  0.85309352  0.49732239  1
  Se  Se6  1  0.63605865  0.62897412  0.92774118  1
  Se  Se7  1  0.01324274  0.35748317  0.50002858  1
  Se  Se8  1  0.15162099  0.14636110  0.63104329  1
  Se  Se9  1  0.48303806  0.99825002  0.86969944  1
  Se  Se10  1  0.37325447  0.50901901  0.60190977  1
  Se  Se11  1  0.01294995  0.84382123  0.90111936  1
  Se  Se12  1  0.63387856  0.62378187  0.72566619  1
  Se  Se13  1  0.47985327  0.99872075  0.76983442  1
  Se  Se14  1  0.48602307  0.99740443  0.57297762  1
  Se  Se15  1  0.85680916  0.50166663  0.80085821  1
  Se  Se16  1  0.48941802  0.99795805  0.66930139  1
  Se  Se17  1  0.11870325  0.12565027  0.42576986  1
  Se  Se18  1  0.34701634  0.49864759  0.39838754  1
  Se  Se19  1  0.64225327  0.64537644  0.53088404  1
  Se  Se20  1  0.85728641  0.50691364  0.60102833  1
  Se  Se21  1  0.00455863  0.36918291  0.69943314  1
  Se  Se22  1  0.47878652  0.98640911  0.46884430  1
  Se  Se23  1  0.13895750  0.13685292  0.22780580  1
  Se  Se24  1  0.35004354  0.50311478  0.20141009  1
  Se  Se25  1  0.63842205  0.62935173  0.32606070  1
  Se  Se26  1  0.49781039  0.99180950  0.36772818  1
  Se  Se27  1  0.50204203  0.99361897  0.17337333  1
  Se  Se28  1  0.86402344  0.50343966  0.39764323  1
  Se  Se29  1  0.50308060  0.01015243  0.27277971  1
  Se  Se30  1  0.15101419  0.14632236  0.03012916  1
  Se  Se31  1  0.37346250  0.50913004  0.00121804  1
  Se  Se32  1  0.99588210  0.86435531  0.29972490  1
  Se  Se33  1  0.64761521  0.65594242  0.13068158  1
  Se  Se34  1  0.87050130  0.50433640  0.20205136  1
  Se  Se35  1  0.99433219  0.36000775  0.29776796  1
  Se  Se36  1  0.50624000  0.99668577  0.07115837  1
  Se  Se37  1  0.00371128  0.85191902  0.10129064  1
  Se  Se38  1  0.86257428  0.51394815  0.00314120  1
  Se  Se39  1  0.99245294  0.36278030  0.10010931  1
loop_
_geom_bond_atom_site_label_1
_geom_bond_atom_site_label_2
_geom_bond_distance
_geom_bond_site_symmetry_2
Pb0 Se4 2.971671 1_555
Pb0 Se11 3.024954 1_655
Pb0 Se3 3.046729 1_665
Pb0 Se13 3.080381 1_555
Pb0 Se15 3.176526 1_555
Pb0 Se9 3.214039 1_555
Pb0 Se0 3.239005 1_665
Pb0 Se12 3.325218 1_555
Pb1 Se30 2.922285 1_656
Pb1 Se11 3.048201 1_645
Pb1 Se38 3.050772 1_556
Pb1 Se9 3.120785 1_545
Pb1 Se31 3.219221 1_656
Pb1 Se2 3.235747 1_555
Pb1 Se6 3.250737 1_545
Pb1 Se0 3.277837 1_655
Pb2 Se15 2.976979 1_555
Pb2 Se3 3.015832 1_655
Pb2 Se1 3.041175 1_545
Pb2 Se16 3.045036 1_545
Pb2 Se4 3.172418 1_655
Pb2 Se12 3.236787 1_545
Pb2 Se13 3.246920 1_545
Pb2 Se21 3.290134 1_655
Pb3 Se22 2.973754 1_545
Pb3 Se5 2.980657 1_645
Pb3 Se20 3.094935 1_555
Pb3 Se8 3.104392 1_655
Pb3 Se19 3.136741 1_545
Pb3 Se7 3.148462 1_655
Pb3 Se10 3.315799 1_655
Pb3 Se14 3.348868 1_545
Se0 Tb2 2.878573 1_555
Se0 Tb0 2.923176 1_555
Se0 Tb7 2.933005 1_455
Se0 Tb3 3.201565 1_555
Se1 Tb6 2.919389 1_665
Se1 Tb11 2.942296 1_555
Se1 Tb12 3.129255 1_555
Se1 Tb5 3.139568 1_655
Se1 Tb1 3.195350 1_655
Se2 Tb0 2.898405 1_545
Se2 Tb21 2.977877 1_546
Se2 Tb22 2.982142 1_556
Se2 Tb3 3.184910 1_555
Se2 Tb2 3.276249 1_545
Se3 Tb1 2.953394 1_545
Se3 Tb7 3.041147 1_555
Se3 Tb2 3.092650 1_555
Se3 Tb3 3.117364 1_555
Se4 Tb7 2.949434 1_555
Se4 Tb6 2.950533 1_555
Se4 Tb2 3.131532 1_555
Se4 Tb1 3.222634 1_555
Se5 Tb10 2.891354 1_565
Se5 Tb16 2.918547 1_455
Se5 Tb4 3.096191 1_555
Se5 Tb9 3.164818 1_555
Se6 Tb3 2.894663 1_555
Se6 Tb7 2.919989 1_555
Se6 Tb2 2.939707 1_555
Se6 Tb0 3.226538 1_655
Se6 Tb21 3.349394 1_556
Se7 Tb9 2.890048 1_555
Se7 Tb4 2.891856 1_555
Se7 Tb10 3.063419 1_555
Se7 Tb16 3.090112 1_445
Se8 Tb11 2.917159 1_445
Se8 Tb4 3.012927 1_545
Se8 Tb6 3.090160 1_555
Se8 Tb5 3.135500 1_555
Se8 Tb12 3.137452 1_555
Se9 Tb2 2.894458 1_555
Se9 Tb3 2.902837 1_565
Se9 Tb1 3.106145 1_555
Se9 Tb7 3.145136 1_565
Se10 Tb12 2.869164 1_555
Se10 Tb11 2.880342 1_555
Se10 Tb10 2.983925 1_555
Se10 Tb5 3.103363 1_555
Se10 Tb4 3.340423 1_555
Se11 Tb3 2.930359 1_565
Se11 Tb2 3.063576 1_555
Se11 Tb0 3.121198 1_555
Se11 Tb7 3.124832 1_455
Se12 Tb12 2.883068 1_555
Se12 Tb6 2.898875 1_555
Se12 Tb5 2.936427 1_555
Se12 Tb1 3.142353 1_655
Se13 Tb1 2.885270 1_555
Se13 Tb7 2.935779 1_565
Se13 Tb6 3.060140 1_565
Se13 Tb5 3.206879 1_555
Se14 Tb12 2.855870 1_565
Se14 Tb4 2.898503 1_555
Se14 Tb11 2.918946 1_555
Se14 Tb10 3.225589 1_565
Se14 Tb9 3.334463 1_555
Se15 Tb2 2.928548 1_655
Se15 Tb1 2.936371 1_655
Se15 Tb7 3.130679 1_555
Se15 Tb6 3.194965 1_555
Se16 Tb5 2.906776 1_555
Se16 Tb6 2.926238 1_565
Se16 Tb12 3.140607 1_565
Se16 Tb11 3.218301 1_555
Se16 Tb4 3.296133 1_555
Se17 Tb20 2.865969 1_455
Se17 Tb16 2.890178 1_445
Se17 Tb8 2.931989 1_545
Se17 Tb9 3.119233 1_555
Se17 Tb10 3.201570 1_555
Se18 Tb15 2.868327 1_555
Se18 Tb16 2.935511 1_555
Se18 Tb9 3.073827 1_555
Se18 Tb8 3.097072 1_555
Se18 Tb20 3.104618 1_455
Se19 Tb10 2.885555 1_555
Se19 Tb9 2.940451 1_555
Se19 Tb4 2.995525 1_655
Se19 Tb11 3.049003 1_555
Se20 Tb5 2.912958 1_655
Se20 Tb4 2.931858 1_655
Se20 Tb11 3.120590 1_555
Se20 Tb12 3.123330 1_555
Se20 Tb10 3.202158 1_555
Se21 Tb5 2.906670 1_555
Se21 Tb12 2.919609 1_455
Se21 Tb1 2.948409 1_555
Se21 Tb6 3.209280 1_555
Se21 Tb11 3.230890 1_445
Se22 Tb9 2.900035 1_555
Se22 Tb10 2.918251 1_565
Se22 Tb8 3.070982 1_555
Se22 Tb16 3.073398 1_555
Se23 Tb13 2.919464 1_545
Se23 Tb23 2.956693 1_455
Se23 Tb19 2.961300 1_445
Se23 Tb18 3.164475 1_555
Se23 Tb14 3.225909 1_555
Se23 Tb15 3.324748 1_555
Se24 Tb18 2.888210 1_555
Se24 Tb19 2.892528 1_555
Se24 Tb14 3.060628 1_555
Se24 Tb23 3.133279 1_455
Se24 Tb13 3.148776 1_555
Se25 Tb14 2.911657 1_555
Se25 Tb18 2.914971 1_555
Se25 Tb15 2.931209 1_555
Se25 Tb8 3.211548 1_655
Se25 Tb20 3.261627 1_565
Se25 Tb16 3.368024 1_555
Se26 Tb8 2.926630 1_555
Se26 Tb16 2.952069 1_555
Se26 Tb15 3.020765 1_565
Se26 Tb14 3.045373 1_555
Se26 Tb20 3.077569 1_565
Se27 Tb19 2.851063 1_555
Se27 Tb18 2.884417 1_565
Se27 Tb13 2.910851 1_555
Se27 Tb17 3.096563 1_555
Se27 Tb23 3.241790 1_565
Se28 Tb20 2.856974 1_555
Se28 Tb8 2.881865 1_655
Se28 Tb9 2.951110 1_655
Se28 Tb15 3.071626 1_555
Se28 Tb16 3.315324 1_555
Se29 Tb14 2.924437 1_545
Se29 Tb20 2.931390 1_555
Se29 Tb15 2.932515 1_555
Se29 Tb18 3.174583 1_555
Se29 Tb13 3.241431 1_545
Se29 Tb19 3.291228 1_545
Se30 Tb0 2.898929 1_544
Se30 Tb21 2.923277 1_445
Se30 Tb22 3.068928 1_555
Se30 Tb17 3.241831 1_555
Se31 Tb3 2.916904 1_554
Se31 Tb21 2.924654 1_555
Se31 Tb22 2.929673 1_555
Se31 Tb0 3.183984 1_554
Se31 Tb17 3.293523 1_555
Se32 Tb15 2.935468 1_665
Se32 Tb20 2.939770 1_565
Se32 Tb19 2.944094 1_555
Se32 Tb8 3.185308 1_655
Se32 Tb18 3.219330 1_555
Se32 Tb14 3.251607 1_655
Se33 Tb22 2.900655 1_555
Se33 Tb17 2.910195 1_555
Se33 Tb19 2.984823 1_555
Se33 Tb23 3.098089 1_565
Se33 Tb13 3.126872 1_655
Se34 Tb14 2.878607 1_655
Se34 Tb13 2.913299 1_655
Se34 Tb23 2.972114 1_555
Se34 Tb19 3.098252 1_555
Se34 Tb18 3.130216 1_555
Se35 Tb14 2.931816 1_655
Se35 Tb18 2.937570 1_555
Se35 Tb8 2.943924 1_655
Se35 Tb20 3.240774 1_555
Se35 Tb15 3.309430 1_655
Se35 Tb19 3.317190 1_545
Se36 Tb23 2.897624 1_565
Se36 Tb17 2.922774 1_555
Se36 Tb21 3.064448 1_555
Se36 Tb0 3.098071 1_554
Se36 Tb22 3.121860 1_565
Se37 Tb21 2.880691 1_455
Se37 Tb23 2.925666 1_465
Se37 Tb13 3.073021 1_555
Se37 Tb17 3.077608 1_555
Se37 Tb22 3.142285 1_455
Se38 Tb0 2.928449 1_654
Se38 Tb17 2.956438 1_655
Se38 Tb21 3.130125 1_555
Se38 Tb3 3.221253 1_554
Se38 Tb22 3.240252 1_555
Se39 Tb22 2.867877 1_555
Se39 Tb13 2.883561 1_655
Se39 Tb17 2.933199 1_655
Se39 Tb21 3.073620 1_545
Se39 Tb23 3.140898 1_555
