# generated using pymatgen
data_K2H4PtC6S6(N3O)2
_symmetry_space_group_name_H-M   'P 1'
_cell_length_a   11.32209100
_cell_length_b   7.41415200
_cell_length_c   11.46663285
_cell_angle_alpha   80.16007995
_cell_angle_beta   90.00000000
_cell_angle_gamma   90.00000000
_symmetry_Int_Tables_number   1
_chemical_formula_structural   K2H4PtC6S6(N3O)2
_chemical_formula_sum   'K4 H8 Pt2 C12 S12 N12 O4'
_cell_volume   948.39159856
_cell_formula_units_Z   2
loop_
 _symmetry_equiv_pos_site_id
 _symmetry_equiv_pos_as_xyz
  1  'x, y, z'
loop_
 _atom_site_type_symbol
 _atom_site_label
 _atom_site_symmetry_multiplicity
 _atom_site_fract_x
 _atom_site_fract_y
 _atom_site_fract_z
 _atom_site_occupancy
  K  K0  1  0.34685700  0.89365400  0.49999300  1
  K  K1  1  0.84685700  0.60634600  0.50000700  1
  K  K2  1  0.65314300  0.10634600  0.50000700  1
  K  K3  1  0.15314300  0.39365400  0.49999300  1
  H  H0  1  0.40877100  0.37796500  0.45042800  1
  H  H1  1  0.90877100  0.12203500  0.54957200  1
  H  H2  1  0.59122900  0.62203500  0.54957200  1
  H  H3  1  0.09122900  0.87796500  0.45042800  1
  H  H4  1  0.42334600  0.30088100  0.58426300  1
  H  H5  1  0.92334600  0.19911900  0.41573700  1
  H  H6  1  0.57665400  0.69911900  0.41573700  1
  H  H7  1  0.07665400  0.80088100  0.58426300  1
  Pt  Pt0  1  0.50000000  0.50000000  0.00000000  1
  Pt  Pt1  1  0.00000000  0.00000000  0.00000000  1
  C  C0  1  0.32456300  0.56376900  0.76622400  1
  C  C1  1  0.82456300  0.93623100  0.23377600  1
  C  C2  1  0.67543700  0.43623100  0.23377600  1
  C  C3  1  0.17543700  0.06376900  0.76622400  1
  C  C4  1  0.40650800  0.65463700  0.23857200  1
  C  C5  1  0.90650800  0.84536300  0.76142800  1
  C  C6  1  0.59349200  0.34536300  0.76142800  1
  C  C7  1  0.09349200  0.15463700  0.23857200  1
  C  C8  1  0.44053700  0.16905500  0.22052400  1
  C  C9  1  0.94053700  0.33094500  0.77947600  1
  C  C10  1  0.55946300  0.83094500  0.77947600  1
  C  C11  1  0.05946300  0.66905500  0.22052400  1
  S  S0  1  0.32096200  0.62448600  0.89869600  1
  S  S1  1  0.82096200  0.87551400  0.10130400  1
  S  S2  1  0.67903800  0.37551400  0.10130400  1
  S  S3  1  0.17903800  0.12448600  0.89869600  1
  S  S4  1  0.47924000  0.74374600  0.11700300  1
  S  S5  1  0.97924000  0.75625400  0.88299700  1
  S  S6  1  0.52076000  0.25625400  0.88299700  1
  S  S7  1  0.02076000  0.24374600  0.11700300  1
  S  S8  1  0.36117700  0.29239800  0.11408700  1
  S  S9  1  0.86117700  0.20760200  0.88591300  1
  S  S10  1  0.63882300  0.70760200  0.88591300  1
  S  S11  1  0.13882300  0.79239800  0.11408700  1
  N  N0  1  0.32046200  0.53004200  0.66959500  1
  N  N1  1  0.82046200  0.96995800  0.33040500  1
  N  N2  1  0.67953800  0.46995800  0.33040500  1
  N  N3  1  0.17953800  0.03004200  0.66959500  1
  N  N4  1  0.35682700  0.60139600  0.32848500  1
  N  N5  1  0.85682700  0.89860400  0.67151500  1
  N  N6  1  0.64317300  0.39860400  0.67151500  1
  N  N7  1  0.14317300  0.10139600  0.32848500  1
  N  N8  1  0.49000000  0.07517400  0.29900100  1
  N  N9  1  0.99000000  0.42482600  0.70099900  1
  N  N10  1  0.51000000  0.92482600  0.70099900  1
  N  N11  1  0.01000000  0.57517400  0.29900100  1
  O  O0  1  0.41343900  0.26297800  0.50742500  1
  O  O1  1  0.91343900  0.23702200  0.49257500  1
  O  O2  1  0.58656100  0.73702200  0.49257500  1
  O  O3  1  0.08656100  0.76297800  0.50742500  1
loop_
_geom_bond_atom_site_label_1
_geom_bond_atom_site_label_2
_geom_bond_distance
_geom_bond_site_symmetry_2
K0 O0 2.855377 1_565
K0 N8 2.947767 1_565
K0 O2 2.958906 1_555
K0 N10 2.993279 1_555
K0 N3 3.010904 1_565
K0 N0 3.057318 1_555
K0 O3 3.098884 1_555
K0 N4 3.167341 1_555
K0 N7 3.243891 1_565
K1 O1 2.855377 1_555
K1 N9 2.947767 1_555
K1 O3 2.958906 1_655
K1 N11 2.993279 1_655
K1 N2 3.010904 1_555
K1 N1 3.057318 1_555
K1 O2 3.098884 1_555
K1 N5 3.167341 1_555
K1 N6 3.243891 1_555
K2 O2 2.855377 1_545
K2 N10 2.947767 1_545
K2 O0 2.958906 1_555
K2 N8 2.993279 1_555
K2 N1 3.010904 1_545
K2 N2 3.057318 1_555
K2 O1 3.098884 1_555
K2 N6 3.167341 1_555
K2 N5 3.243891 1_545
K3 O3 2.855377 1_555
K3 N11 2.947767 1_555
K3 O1 2.958906 1_455
K3 N9 2.993279 1_455
K3 N0 3.010904 1_555
K3 N3 3.057318 1_555
K3 O0 3.098884 1_555
K3 N7 3.167341 1_555
K3 N4 3.243891 1_555
H0 O0 0.983009 1_555
H0 K3 2.955636 1_555
H1 O1 0.983009 1_555
H1 K2 2.955636 1_555
H2 O2 0.983009 1_555
H2 K1 2.955636 1_555
H3 O3 0.983009 1_555
H3 K0 2.955636 1_555
H4 O0 0.975946 1_555
H5 O1 0.975946 1_555
H6 O2 0.975946 1_555
H7 O3 0.975946 1_555
Pt0 S10 2.421305 1_554
Pt0 S8 2.421305 1_555
Pt0 S2 2.437997 1_555
Pt0 S0 2.437997 1_554
Pt0 S4 2.439216 1_555
Pt0 S6 2.439216 1_554
Pt1 S9 2.421305 1_454
Pt1 S11 2.421305 1_545
Pt1 S1 2.437997 1_445
Pt1 S3 2.437997 1_554
Pt1 S7 2.439216 1_555
Pt1 S5 2.439216 1_444
C0 N0 1.177738 1_555
C0 S0 1.656929 1_555
C1 N1 1.177738 1_555
C1 S1 1.656929 1_555
C2 N2 1.177738 1_555
C2 S2 1.656929 1_555
C3 N3 1.177738 1_555
C3 S3 1.656929 1_555
C4 N4 1.181556 1_555
C4 S4 1.656207 1_555
C5 N5 1.181556 1_555
C5 S5 1.656207 1_555
C6 N6 1.181556 1_555
C6 S6 1.656207 1_555
C7 N7 1.181556 1_555
C7 S7 1.656207 1_555
C8 N8 1.180589 1_555
C8 S8 1.658826 1_555
C9 N9 1.180589 1_555
C9 S9 1.658826 1_555
C10 N10 1.180589 1_555
C10 S10 1.658826 1_555
C11 N11 1.180589 1_555
C11 S11 1.658826 1_555
