# generated using pymatgen
data_Cd4Bi2O7
_symmetry_space_group_name_H-M   'P 1'
_cell_length_a   9.26682400
_cell_length_b   10.42377354
_cell_length_c   10.60707258
_cell_angle_alpha   79.85635230
_cell_angle_beta   65.80277372
_cell_angle_gamma   67.85058843
_symmetry_Int_Tables_number   1
_chemical_formula_structural   Cd4Bi2O7
_chemical_formula_sum   'Cd16 Bi8 O28'
_cell_volume   865.32193170
_cell_formula_units_Z   4
loop_
 _symmetry_equiv_pos_site_id
 _symmetry_equiv_pos_as_xyz
  1  'x, y, z'
loop_
 _atom_site_type_symbol
 _atom_site_label
 _atom_site_symmetry_multiplicity
 _atom_site_fract_x
 _atom_site_fract_y
 _atom_site_fract_z
 _atom_site_occupancy
  Cd  Cd0  1  0.00867500  0.10318800  0.40668400  1
  Cd  Cd1  1  0.04690600  0.46792400  0.21294800  1
  Cd  Cd2  1  0.36414600  0.10164500  0.12879200  1
  Cd  Cd3  1  0.18428500  0.85681200  0.14280200  1
  Cd  Cd4  1  0.21761400  0.63012500  0.34444000  1
  Cd  Cd5  1  0.50542100  0.38048600  0.11055500  1
  Cd  Cd6  1  0.37694000  0.32420900  0.85200600  1
  Cd  Cd7  1  0.32226100  0.60866200  0.63293500  1
  Cd  Cd8  1  0.57748700  0.13458500  0.58900000  1
  Cd  Cd9  1  0.38684300  0.86980100  0.44518400  1
  Cd  Cd10  1  0.59119000  0.41022300  0.37876300  1
  Cd  Cd11  1  0.27692800  0.95056900  0.74554100  1
  Cd  Cd12  1  0.95563700  0.26544500  0.09036200  1
  Cd  Cd13  1  0.48309000  0.61416900  0.88215800  1
  Cd  Cd14  1  0.63341300  0.87760600  0.86412200  1
  Cd  Cd15  1  0.01307400  0.83574600  0.56598400  1
  Bi  Bi0  1  0.22791300  0.26891100  0.47913400  1
  Bi  Bi1  1  0.04620400  0.75317400  0.94354900  1
  Bi  Bi2  1  0.73210700  0.04198700  0.22715500  1
  Bi  Bi3  1  0.62078800  0.68631400  0.16353600  1
  Bi  Bi4  1  0.76123000  0.38806700  0.60866500  1
  Bi  Bi5  1  0.80261400  0.14693100  0.85609400  1
  Bi  Bi6  1  0.73318500  0.73658200  0.52976000  1
  Bi  Bi7  1  0.95190900  0.51303600  0.79047000  1
  O  O0  1  0.96214700  0.05677600  0.23096200  1
  O  O1  1  0.99072800  0.32843700  0.41127500  1
  O  O2  1  0.19143000  0.28471700  0.05827800  1
  O  O3  1  0.26831900  0.42089200  0.28396400  1
  O  O4  1  0.28231800  0.08175200  0.36611800  1
  O  O5  1  0.31476100  0.13905700  0.66786500  1
  O  O6  1  0.48531700  0.60012800  0.10188500  1
  O  O7  1  0.19697700  0.55277000  0.85746000  1
  O  O8  1  0.55480200  0.21466800  0.37636100  1
  O  O9  1  0.75620900  0.22975000  0.05843500  1
  O  O10  1  0.43412400  0.88298900  0.08765100  1
  O  O11  1  0.42966200  0.64844500  0.38950000  1
  O  O12  1  0.49791500  0.38354500  0.61363500  1
  O  O13  1  0.57122500  0.10189500  0.91603800  1
  O  O14  1  0.26409800  0.80632900  0.92446100  1
  O  O15  1  0.47567200  0.75007600  0.62668500  1
  O  O16  1  0.79514900  0.46719200  0.20561600  1
  O  O17  1  0.58725300  0.37677400  0.86710200  1
  O  O18  1  0.65188400  0.86934700  0.37134600  1
  O  O19  1  0.79863300  0.16889500  0.61297900  1
  O  O20  1  0.04030000  0.69028700  0.14982700  1
  O  O21  1  0.72118300  0.90755700  0.62847100  1
  O  O22  1  0.72591200  0.64745000  0.75760900  1
  O  O23  1  0.95853400  0.32880800  0.69629300  1
  O  O24  1  0.90006000  0.96093900  0.99914500  1
  O  O25  1  0.83050700  0.71389500  0.94319100  1
  O  O26  1  0.09464700  0.58993200  0.59649300  1
  O  O27  1  0.10637300  0.84149700  0.72771800  1
loop_
_geom_bond_atom_site_label_1
_geom_bond_atom_site_label_2
_geom_bond_distance
_geom_bond_site_symmetry_2
Cd0 O0 2.242269 1_455
Cd0 O19 2.253225 1_455
Cd0 O1 2.298274 1_455
Cd0 O4 2.318949 1_555
Cd1 O20 2.281333 1_555
Cd1 O3 2.322939 1_555
Cd1 O1 2.325108 1_455
Cd1 O2 2.346491 1_555
Cd1 O16 2.368820 1_455
Cd2 O10 2.193095 1_545
Cd2 O2 2.222217 1_555
Cd2 O13 2.286227 1_554
Cd2 O4 2.307567 1_555
Cd3 O14 2.217933 1_554
Cd3 O10 2.255384 1_555
Cd3 O0 2.308618 1_465
Cd3 O20 2.533436 1_555
Cd4 O3 2.204991 1_555
Cd4 O11 2.282802 1_555
Cd4 O26 2.467769 1_555
Cd4 O6 2.708796 1_555
Cd5 O3 2.156467 1_555
Cd5 O9 2.162110 1_555
Cd5 O6 2.214322 1_555
Cd5 O17 2.377549 1_554
Cd6 O2 2.246076 1_556
Cd6 O17 2.283890 1_555
Cd6 O7 2.331127 1_555
Cd6 O12 2.383404 1_555
Cd6 O13 2.524855 1_555
Cd7 O7 2.261378 1_555
Cd7 O12 2.283360 1_555
Cd7 O26 2.375284 1_555
Cd7 O11 2.378503 1_555
Cd7 O15 2.380503 1_555
Cd7 O27 2.540270 1_555
Cd8 O5 2.210884 1_555
Cd8 O21 2.297953 1_545
Cd8 O19 2.324715 1_555
Cd8 O8 2.328386 1_555
Cd8 O12 2.446333 1_555
Cd9 O4 2.218631 1_565
Cd9 O18 2.249765 1_555
Cd9 O11 2.329760 1_555
Cd9 O15 2.370578 1_555
Cd10 O8 2.193889 1_555
Cd10 O16 2.216882 1_555
Cd10 O12 2.281012 1_555
Cd10 O11 2.361525 1_555
Cd11 O5 2.091516 1_565
Cd11 O14 2.195721 1_555
Cd11 O15 2.339089 1_555
Cd11 O27 2.345632 1_555
Cd12 O2 2.151267 1_655
Cd12 O9 2.178163 1_555
Cd12 O16 2.277190 1_555
Cd12 O0 2.406476 1_555
Cd13 O14 2.199271 1_555
Cd13 O22 2.217946 1_555
Cd13 O17 2.300514 1_555
Cd13 O6 2.317504 1_556
Cd14 O21 2.292785 1_555
Cd14 O13 2.297541 1_565
Cd14 O25 2.313603 1_555
Cd14 O10 2.326925 1_556
Cd14 O22 2.525276 1_555
Cd15 O27 2.232781 1_555
Cd15 O21 2.344026 1_455
Cd15 O26 2.385271 1_555
Bi0 O4 2.254753 1_555
Bi0 O3 2.364796 1_555
Bi0 O1 2.417707 1_455
Bi0 O5 2.456066 1_555
Bi0 O23 2.558270 1_455
Bi0 O8 2.627323 1_555
Bi1 O24 2.110842 1_455
Bi1 O7 2.138915 1_555
Bi1 O20 2.154943 1_556
Bi1 O25 2.187883 1_455
Bi1 O14 2.212254 1_555
Bi1 O27 2.235584 1_555
Bi2 O0 2.211395 1_555
Bi2 O8 2.255217 1_555
Bi2 O18 2.288563 1_545
Bi2 O24 2.372305 1_544
Bi2 O9 2.418983 1_555
Bi3 O6 2.130975 1_555
Bi3 O16 2.340132 1_555
Bi3 O10 2.393544 1_555
Bi3 O11 2.398217 1_555
Bi3 O25 2.404841 1_554
Bi4 O19 2.172718 1_555
Bi4 O23 2.219852 1_555
Bi4 O1 2.259294 1_555
Bi4 O12 2.437101 1_555
Bi4 O17 2.556193 1_555
Bi5 O13 2.181440 1_555
Bi5 O9 2.269948 1_556
Bi5 O24 2.375590 1_545
Bi5 O17 2.457363 1_555
Bi5 O19 2.562680 1_555
Bi5 O23 2.735137 1_555
Bi6 O15 2.134945 1_555
Bi6 O21 2.167315 1_555
Bi6 O18 2.176868 1_555
Bi6 O22 2.414850 1_555
Bi7 O26 2.147802 1_655
Bi7 O22 2.164338 1_555
Bi7 O23 2.286028 1_555
Bi7 O25 2.489578 1_555
