# generated using pymatgen
data_Ba2InIrO6
_symmetry_space_group_name_H-M   'P 1'
_cell_length_a   5.93630754
_cell_length_b   5.93630754
_cell_length_c   14.83307700
_cell_angle_alpha   90.00000000
_cell_angle_beta   90.00000000
_cell_angle_gamma   119.99999486
_symmetry_Int_Tables_number   1
_chemical_formula_structural   Ba2InIrO6
_chemical_formula_sum   'Ba6 In3 Ir3 O18'
_cell_volume   452.68352555
_cell_formula_units_Z   3
loop_
 _symmetry_equiv_pos_site_id
 _symmetry_equiv_pos_as_xyz
  1  'x, y, z'
loop_
 _atom_site_type_symbol
 _atom_site_label
 _atom_site_symmetry_multiplicity
 _atom_site_fract_x
 _atom_site_fract_y
 _atom_site_fract_z
 _atom_site_occupancy
  Ba  Ba0  1  0.33333300  0.66666700  0.41018600  1
  Ba  Ba1  1  0.66666700  0.33333300  0.90363700  1
  Ba  Ba2  1  0.00000000  0.00000000  0.24848100  1
  Ba  Ba3  1  0.00000000  0.00000000  0.75151900  1
  Ba  Ba4  1  0.66666700  0.33333300  0.58981400  1
  Ba  Ba5  1  0.33333300  0.66666700  0.09636300  1
  In  In0  1  0.66666700  0.33333300  0.34652900  1
  In  In1  1  0.33333300  0.66666700  0.65347100  1
  In  In2  1  0.00000000  0.00000000  0.00000000  1
  Ir  Ir0  1  0.00000000  0.00000000  0.50000000  1
  Ir  Ir1  1  0.66666700  0.33333300  0.15677500  1
  Ir  Ir2  1  0.33333300  0.66666700  0.84322500  1
  O  O0  1  0.82951500  0.65903000  0.08541100  1
  O  O1  1  0.84235700  0.68471400  0.42243700  1
  O  O2  1  0.51279000  0.02557900  0.24220000  1
  O  O3  1  0.97442100  0.48721000  0.24220000  1
  O  O4  1  0.68471400  0.84235700  0.57756300  1
  O  O5  1  0.31528600  0.15764300  0.42243700  1
  O  O6  1  0.15764300  0.84235700  0.57756300  1
  O  O7  1  0.15764300  0.31528600  0.57756300  1
  O  O8  1  0.34097000  0.17048500  0.08541100  1
  O  O9  1  0.84235700  0.15764300  0.42243700  1
  O  O10  1  0.82951500  0.17048500  0.08541100  1
  O  O11  1  0.17048500  0.34097000  0.91458900  1
  O  O12  1  0.17048500  0.82951500  0.91458900  1
  O  O13  1  0.51279000  0.48721000  0.24220000  1
  O  O14  1  0.65903000  0.82951500  0.91458900  1
  O  O15  1  0.02557900  0.51279000  0.75780000  1
  O  O16  1  0.48721000  0.97442100  0.75780000  1
  O  O17  1  0.48721000  0.51279000  0.75780000  1
loop_
_geom_bond_atom_site_label_1
_geom_bond_atom_site_label_2
_geom_bond_distance
_geom_bond_site_symmetry_2
Ba0 O5 2.975155 1_565
Ba0 O1 2.975155 1_455
Ba0 O9 2.975159 1_565
Ba0 O9 2.975159 1_455
Ba0 O1 2.975161 1_555
Ba0 O5 2.975161 1_555
Ba0 O6 3.070360 1_555
Ba0 O4 3.070363 1_555
Ba0 O7 3.070363 1_555
Ba0 O2 3.100556 1_565
Ba0 O3 3.100556 1_455
Ba0 O13 3.100562 1_555
Ba1 O15 2.843258 1_655
Ba1 O16 2.843258 1_545
Ba1 O17 2.843264 1_555
Ba1 O11 2.972852 1_655
Ba1 O14 2.972852 1_545
Ba1 O12 2.972856 1_545
Ba1 O12 2.972856 1_655
Ba1 O14 2.972858 1_555
Ba1 O11 2.972858 1_555
Ba1 O10 3.173874 1_556
Ba1 O0 3.173877 1_556
Ba1 O8 3.173877 1_556
Ba2 O2 2.972523 1_455
Ba2 O3 2.972523 1_455
Ba2 O13 2.972526 1_445
Ba2 O13 2.972526 1_555
Ba2 O3 2.972529 1_445
Ba2 O2 2.972529 1_555
Ba2 O10 2.987220 1_455
Ba2 O0 2.987220 1_445
Ba2 O8 2.987220 1_555
Ba2 O9 3.047167 1_455
Ba2 O5 3.047167 1_555
Ba2 O1 3.047167 1_445
Ba3 O15 2.972523 1_545
Ba3 O16 2.972523 1_545
Ba3 O17 2.972526 1_445
Ba3 O17 2.972526 1_555
Ba3 O16 2.972529 1_445
Ba3 O15 2.972529 1_555
Ba3 O12 2.987220 1_545
Ba3 O14 2.987220 1_445
Ba3 O11 2.987220 1_555
Ba3 O6 3.047167 1_545
Ba3 O7 3.047167 1_555
Ba3 O4 3.047167 1_445
Ba4 O7 2.975155 1_655
Ba4 O4 2.975155 1_545
Ba4 O6 2.975159 1_655
Ba4 O6 2.975159 1_545
Ba4 O4 2.975161 1_555
Ba4 O7 2.975161 1_555
Ba4 O9 3.070360 1_555
Ba4 O1 3.070363 1_555
Ba4 O5 3.070363 1_555
Ba4 O15 3.100556 1_655
Ba4 O16 3.100556 1_545
Ba4 O17 3.100562 1_555
Ba5 O2 2.843258 1_565
Ba5 O3 2.843258 1_455
Ba5 O13 2.843264 1_555
Ba5 O8 2.972852 1_565
Ba5 O0 2.972852 1_455
Ba5 O10 2.972856 1_455
Ba5 O10 2.972856 1_565
Ba5 O0 2.972858 1_555
Ba5 O8 2.972858 1_555
Ba5 O12 3.173874 1_554
Ba5 O14 3.173877 1_554
Ba5 O11 3.173877 1_554
In0 O9 2.128613 1_555
In0 O1 2.128618 1_555
In0 O5 2.128618 1_555
In0 O13 2.213154 1_555
In0 O3 2.213154 1_555
In0 O2 2.213154 1_555
In1 O6 2.128613 1_555
In1 O4 2.128618 1_555
In1 O7 2.128618 1_555
In1 O17 2.213154 1_555
In1 O16 2.213154 1_555
In1 O15 2.213154 1_555
In2 O10 2.162822 1_455
In2 O12 2.162822 1_544
In2 O0 2.162822 1_445
In2 O14 2.162822 1_444
In2 O11 2.162822 1_554
In2 O8 2.162822 1_555
Ir0 O6 1.987689 1_545
Ir0 O9 1.987689 1_455
Ir0 O7 1.987689 1_555
Ir0 O4 1.987689 1_445
Ir0 O5 1.987689 1_555
Ir0 O1 1.987689 1_445
Ir1 O10 1.980945 1_555
Ir1 O8 1.980949 1_555
Ir1 O0 1.980949 1_555
Ir1 O13 2.027021 1_555
Ir1 O3 2.027022 1_555
Ir1 O2 2.027022 1_555
Ir2 O12 1.980945 1_555
Ir2 O11 1.980949 1_555
Ir2 O14 1.980949 1_555
Ir2 O17 2.027021 1_555
Ir2 O16 2.027022 1_555
Ir2 O15 2.027022 1_555
