# generated using pymatgen
data_Li15Mn21O43
_symmetry_space_group_name_H-M   'P 1'
_cell_length_a   5.89282100
_cell_length_b   5.89430245
_cell_length_c   29.28848630
_cell_angle_alpha   88.96023543
_cell_angle_beta   89.22092831
_cell_angle_gamma   61.80300148
_symmetry_Int_Tables_number   1
_chemical_formula_structural   Li15Mn21O43
_chemical_formula_sum   'Li15 Mn21 O43'
_cell_volume   896.42031637
_cell_formula_units_Z   1
loop_
 _symmetry_equiv_pos_site_id
 _symmetry_equiv_pos_as_xyz
  1  'x, y, z'
loop_
 _atom_site_type_symbol
 _atom_site_label
 _atom_site_symmetry_multiplicity
 _atom_site_fract_x
 _atom_site_fract_y
 _atom_site_fract_z
 _atom_site_occupancy
  Li  Li0  1  0.13014100  0.11976200  0.98283200  1
  Li  Li1  1  0.46713200  0.45479400  0.81929800  1
  Li  Li2  1  0.15946800  0.69770200  0.91218800  1
  Li  Li3  1  0.79193300  0.78878500  0.64949600  1
  Li  Li4  1  0.11407900  0.11538000  0.48309400  1
  Li  Li5  1  0.19120400  0.19003200  0.66905500  1
  Li  Li6  1  0.16212800  0.18059500  0.85367800  1
  Li  Li7  1  0.44089100  0.44201600  0.32186300  1
  Li  Li8  1  0.50709900  0.50699200  0.69013800  1
  Li  Li9  1  0.66688600  0.66610500  0.41561000  1
  Li  Li10  1  0.82652100  0.83315000  0.14679200  1
  Li  Li11  1  0.84575700  0.84416400  0.51566700  1
  Li  Li12  1  0.19132100  0.18562000  0.35456900  1
  Li  Li13  1  0.50925200  0.50245700  0.18560200  1
  Li  Li14  1  0.83786400  0.83921300  0.01921200  1
  Mn  Mn0  1  0.51429600  0.51861800  0.00128100  1
  Mn  Mn1  1  0.65834800  0.66983400  0.91624000  1
  Mn  Mn2  1  0.84965300  0.83503500  0.83688800  1
  Mn  Mn3  1  0.00398900  0.99919600  0.74999200  1
  Mn  Mn4  1  0.68730400  0.15807300  0.91434900  1
  Mn  Mn5  1  0.49204300  0.01640800  0.74684200  1
  Mn  Mn6  1  0.33491700  0.33370400  0.58461900  1
  Mn  Mn7  1  0.02256900  0.48538700  0.74689400  1
  Mn  Mn8  1  0.83110500  0.35422900  0.58125200  1
  Mn  Mn9  1  0.51099400  0.51323800  0.50039200  1
  Mn  Mn10  1  0.35489800  0.82970300  0.58134600  1
  Mn  Mn11  1  0.15647900  0.69510300  0.41324000  1
  Mn  Mn12  1  0.49176200  0.01715000  0.24675600  1
  Mn  Mn13  1  0.83882400  0.84191100  0.33583200  1
  Mn  Mn14  1  0.67407800  0.16286400  0.41552000  1
  Mn  Mn15  1  0.99847200  0.99688900  0.24974800  1
  Mn  Mn16  1  0.16365900  0.16850900  0.16571100  1
  Mn  Mn17  1  0.33790700  0.33919000  0.08258100  1
  Mn  Mn18  1  0.01662700  0.49193300  0.24691100  1
  Mn  Mn19  1  0.83691600  0.33966100  0.08370100  1
  Mn  Mn20  1  0.33844500  0.83824800  0.08411200  1
  O  O0  1  0.51197500  0.48335200  0.88400800  1
  O  O1  1  0.78796100  0.35697300  0.95643100  1
  O  O2  1  0.36319100  0.78638400  0.95751700  1
  O  O3  1  0.95298200  0.54337000  0.87461700  1
  O  O4  1  0.53814800  0.97521600  0.87602800  1
  O  O5  1  0.83119200  0.82462600  0.71695600  1
  O  O6  1  0.11751500  0.67946000  0.78980200  1
  O  O7  1  0.79915200  0.85051600  0.95109300  1
  O  O8  1  0.68937100  0.10840300  0.78951800  1
  O  O9  1  0.99561300  0.99444100  0.87218500  1
  O  O10  1  0.31703300  0.86235700  0.71597000  1
  O  O11  1  0.86456700  0.31323600  0.71599900  1
  O  O12  1  0.16420300  0.16392900  0.55039900  1
  O  O13  1  0.46410400  0.01634400  0.61981800  1
  O  O14  1  0.16790800  0.16368200  0.78447900  1
  O  O15  1  0.01779200  0.46345300  0.61954300  1
  O  O16  1  0.33389700  0.33565100  0.71011800  1
  O  O17  1  0.64466400  0.21216900  0.54579400  1
  O  O18  1  0.21331600  0.64467500  0.54558000  1
  O  O19  1  0.48010700  0.48982800  0.38514200  1
  O  O20  1  0.77661000  0.33317800  0.46022700  1
  O  O21  1  0.50467500  0.50280100  0.61780800  1
  O  O22  1  0.33041100  0.78073200  0.45916300  1
  O  O23  1  0.66629700  0.66696900  0.53759700  1
  O  O24  1  0.00199900  0.54759100  0.37461100  1
  O  O25  1  0.80813600  0.80946600  0.21568400  1
  O  O26  1  0.54731900  0.99986800  0.37376500  1
  O  O27  1  0.11791300  0.68303900  0.28784700  1
  O  O28  1  0.85105500  0.83903000  0.44923000  1
  O  O29  1  0.02498300  0.99462800  0.37813200  1
  O  O30  1  0.68330800  0.11961200  0.28778700  1
  O  O31  1  0.30803600  0.87520600  0.20987200  1
  O  O32  1  0.01369200  0.02337800  0.12222900  1
  O  O33  1  0.87623900  0.30699200  0.21011100  1
  O  O34  1  0.15047200  0.20595000  0.04729200  1
  O  O35  1  0.18446900  0.18324500  0.28479900  1
  O  O36  1  0.45317200  0.02248900  0.12383900  1
  O  O37  1  0.01296000  0.45967100  0.12463500  1
  O  O38  1  0.31850600  0.32154300  0.20149700  1
  O  O39  1  0.66543800  0.21315400  0.04213800  1
  O  O40  1  0.21493300  0.65995600  0.04323200  1
  O  O41  1  0.52423600  0.46745100  0.11851600  1
  O  O42  1  0.67208900  0.66093200  0.05111300  1
loop_
_geom_bond_atom_site_label_1
_geom_bond_atom_site_label_2
_geom_bond_distance
_geom_bond_site_symmetry_2
Li0 O2 1.942178 1_545
Li0 O34 1.983737 1_556
Li0 O1 1.989376 1_455
Li1 O0 1.938401 1_555
Li1 O8 2.037459 1_555
Li1 O6 2.042829 1_555
Li2 O9 1.929946 1_455
Li2 O0 2.025722 1_555
Li2 O2 2.034344 1_555
Li2 O3 2.153535 1_455
Li2 O7 2.186810 1_455
Li3 O15 1.958486 1_655
Li3 O13 1.959924 1_565
Li3 O5 2.018838 1_555
Li4 O20 1.908865 1_455
Li4 O22 1.912275 1_545
Li4 O12 2.042349 1_555
Li5 O16 1.907145 1_555
Li5 O15 2.035588 1_555
Li5 O13 2.036791 1_555
Li5 O10 2.178591 1_545
Li5 O11 2.183119 1_455
Li6 O9 1.855266 1_445
Li6 O3 2.000998 1_455
Li6 O14 2.030024 1_555
Li6 O4 2.068723 1_545
Li7 O19 1.913077 1_555
Li7 O27 2.019461 1_555
Li7 O30 2.027985 1_555
Li8 O16 1.827717 1_555
Li8 O10 2.007930 1_555
Li8 O11 2.013421 1_555
Li8 O21 2.119349 1_555
Li9 O19 2.056312 1_555
Li9 O28 2.072963 1_555
Li9 O24 2.119414 1_655
Li9 O26 2.120099 1_555
Li9 O20 2.169667 1_555
Li9 O22 2.170624 1_555
Li10 O25 2.025003 1_555
Li10 O32 2.027108 1_665
Li10 O37 2.054558 1_655
Li10 O36 2.056808 1_565
Li11 O23 1.903347 1_555
Li11 O28 1.946220 1_555
Li11 O18 2.109263 1_655
Li11 O17 2.121298 1_565
Li12 O29 1.923697 1_545
Li12 O26 1.937762 1_545
Li12 O24 1.979791 1_555
Li12 O35 2.044838 1_555
Li13 O38 1.928151 1_555
Li13 O41 1.975797 1_555
Li13 O33 2.043797 1_555
Li13 O31 2.076132 1_555
Li14 O42 1.959895 1_555
Li14 O7 2.007512 1_554
Li14 O39 2.064023 1_565
Li14 O40 2.084583 1_655
Mn0 O2 1.885837 1_554
Mn0 O1 1.941591 1_554
Mn0 O39 1.975438 1_555
Mn0 O40 1.976131 1_555
Mn0 O42 2.125290 1_555
Mn1 O7 1.939650 1_555
Mn1 O0 1.949139 1_555
Mn1 O2 1.949992 1_555
Mn1 O3 1.951576 1_555
Mn1 O4 1.967164 1_555
Mn1 O1 1.996079 1_555
Mn2 O3 1.872826 1_555
Mn2 O9 1.874701 1_555
Mn2 O6 1.962941 1_655
Mn2 O4 1.977436 1_555
Mn2 O8 1.982319 1_565
Mn3 O11 1.900210 1_465
Mn3 O10 1.902511 1_555
Mn3 O14 1.959687 1_565
Mn3 O8 2.008154 1_465
Mn3 O5 2.021114 1_455
Mn3 O6 2.027028 1_555
Mn4 O0 1.903763 1_555
Mn4 O7 1.923093 1_545
Mn4 O1 1.993710 1_555
Mn4 O9 2.020482 1_545
Mn4 O4 2.039587 1_545
Mn5 O10 1.909389 1_545
Mn5 O16 1.965413 1_555
Mn5 O8 1.966837 1_555
Mn5 O5 1.972710 1_545
Mn5 O14 2.006893 1_555
Mn6 O13 1.935758 1_555
Mn6 O15 1.936293 1_555
Mn6 O17 1.968591 1_555
Mn6 O18 1.971181 1_555
Mn6 O21 1.985665 1_555
Mn6 O12 2.008254 1_555
Mn7 O11 1.914257 1_455
Mn7 O16 1.937912 1_555
Mn7 O5 1.967541 1_455
Mn7 O6 1.969023 1_555
Mn7 O14 1.989001 1_555
Mn8 O15 1.900399 1_655
Mn8 O12 1.958456 1_655
Mn8 O17 1.979563 1_555
Mn8 O21 1.999889 1_555
Mn8 O23 2.057295 1_555
Mn9 O20 1.839994 1_555
Mn9 O22 1.859242 1_555
Mn9 O23 1.921626 1_555
Mn9 O18 2.029464 1_555
Mn9 O17 2.039550 1_555
Mn10 O13 1.904673 1_565
Mn10 O12 1.958617 1_565
Mn10 O18 1.976853 1_555
Mn10 O21 1.994001 1_555
Mn10 O23 2.060705 1_555
Mn11 O29 1.854099 1_555
Mn11 O19 1.895009 1_555
Mn11 O28 1.899495 1_455
Mn11 O22 1.914505 1_555
Mn11 O24 1.917396 1_555
Mn12 O25 1.907893 1_545
Mn12 O35 1.946388 1_555
Mn12 O30 1.946900 1_555
Mn12 O31 1.989920 1_545
Mn12 O38 2.058645 1_555
Mn13 O26 1.877821 1_555
Mn13 O24 1.898935 1_655
Mn13 O30 2.008270 1_565
Mn13 O27 2.021480 1_655
Mn13 O29 2.135226 1_655
Mn14 O19 1.922502 1_555
Mn14 O26 1.929313 1_545
Mn14 O20 1.931265 1_555
Mn14 O28 1.945319 1_545
Mn14 O29 2.120943 1_645
Mn15 O27 1.969456 1_655
Mn15 O33 1.977139 1_565
Mn15 O30 1.979171 1_565
Mn15 O31 1.985494 1_655
Mn15 O35 2.161257 1_665
Mn15 O25 2.171449 1_555
Mn16 O38 1.892877 1_555
Mn16 O37 1.922281 1_555
Mn16 O36 1.936271 1_555
Mn16 O33 1.974375 1_455
Mn16 O32 1.979691 1_555
Mn16 O31 1.986039 1_545
Mn17 O41 1.931226 1_555
Mn17 O34 1.945571 1_555
Mn17 O40 2.019135 1_555
Mn17 O36 2.036779 1_555
Mn17 O39 2.072426 1_555
Mn17 O37 2.090601 1_555
Mn18 O25 1.909017 1_455
Mn18 O27 1.940727 1_555
Mn18 O35 1.943232 1_555
Mn18 O33 1.988344 1_455
Mn18 O38 2.058684 1_555
Mn19 O42 1.913589 1_555
Mn19 O41 1.915040 1_555
Mn19 O37 1.942162 1_655
Mn19 O34 1.942456 1_655
Mn19 O39 1.958935 1_555
Mn19 O32 1.988564 1_655
Mn20 O36 1.936827 1_565
Mn20 O40 1.964662 1_555
Mn20 O42 1.983714 1_555
Mn20 O32 2.027818 1_565
Mn20 O41 2.163239 1_555
Mn20 O34 2.183174 1_565
