# generated using pymatgen
data_SnRh2
_symmetry_space_group_name_H-M   'P 1'
_cell_length_a   4.24565504
_cell_length_b   5.55006020
_cell_length_c   8.04629740
_cell_angle_alpha   90.00103279
_cell_angle_beta   90.00000000
_cell_angle_gamma   90.00000000
_symmetry_Int_Tables_number   1
_chemical_formula_structural   SnRh2
_chemical_formula_sum   'Sn4 Rh8'
_cell_volume   189.60006378
_cell_formula_units_Z   4
loop_
 _symmetry_equiv_pos_site_id
 _symmetry_equiv_pos_as_xyz
  1  'x, y, z'
loop_
 _atom_site_type_symbol
 _atom_site_label
 _atom_site_symmetry_multiplicity
 _atom_site_fract_x
 _atom_site_fract_y
 _atom_site_fract_z
 _atom_site_occupancy
  Sn  Sn0  1  0.75000000  0.80862531  0.10126323  1
  Sn  Sn1  1  0.75000000  0.30866393  0.39878002  1
  Sn  Sn2  1  0.25000000  0.19138197  0.89870184  1
  Sn  Sn3  1  0.25000000  0.69134278  0.60125345  1
  Rh  Rh0  1  0.25000000  0.17000477  0.56901787  1
  Rh  Rh1  1  0.75000000  0.45478159  0.72482906  1
  Rh  Rh2  1  0.75000000  0.95476739  0.77511128  1
  Rh  Rh3  1  0.75000000  0.82999647  0.43092529  1
  Rh  Rh4  1  0.75000000  0.32999934  0.06911439  1
  Rh  Rh5  1  0.25000000  0.67003584  0.93094671  1
  Rh  Rh6  1  0.25000000  0.04519491  0.22491654  1
  Rh  Rh7  1  0.25000000  0.54520469  0.27513832  1
loop_
_geom_bond_atom_site_label_1
_geom_bond_atom_site_label_2
_geom_bond_distance
_geom_bond_site_symmetry_2
Rh0 Sn1 2.641018 1_555
Rh0 Sn1 2.641018 1_455
Rh0 Sn2 2.655385 1_555
Rh0 Sn3 2.669240 1_545
Rh0 Sn3 2.905055 1_555
Rh1 Sn3 2.686803 1_555
Rh1 Sn3 2.686803 1_655
Rh1 Sn1 2.745955 1_555
Rh1 Sn2 2.932723 1_655
Rh1 Sn2 2.932723 1_555
Rh2 Sn2 2.686975 1_565
Rh2 Sn2 2.686975 1_665
Rh2 Sn0 2.746814 1_556
Rh2 Sn3 2.932710 1_555
Rh2 Sn3 2.932710 1_655
Rh3 Sn3 2.641386 1_555
Rh3 Sn3 2.641386 1_655
Rh3 Sn0 2.655207 1_555
Rh3 Sn1 2.669199 1_565
Rh3 Sn1 2.904960 1_555
Rh4 Sn2 2.641666 1_654
Rh4 Sn2 2.641666 1_554
Rh4 Sn1 2.655232 1_555
Rh4 Sn0 2.668964 1_555
Rh4 Sn0 2.905201 1_545
Rh5 Sn0 2.641219 1_456
Rh5 Sn0 2.641219 1_556
Rh5 Sn3 2.655447 1_555
Rh5 Sn2 2.669193 1_555
Rh5 Sn2 2.905116 1_565
Rh6 Sn0 2.687040 1_445
Rh6 Sn0 2.687040 1_545
Rh6 Sn2 2.747370 1_554
Rh6 Sn1 2.932854 1_455
Rh6 Sn1 2.932854 1_555
Rh7 Sn1 2.686944 1_455
Rh7 Sn1 2.686944 1_555
Rh7 Sn3 2.746497 1_555
Rh7 Sn0 2.932790 1_455
Rh7 Sn0 2.932790 1_555
