# generated using pymatgen
data_Rb4CO6
_symmetry_space_group_name_H-M   'P 1'
_cell_length_a   5.89818100
_cell_length_b   7.07167633
_cell_length_c   7.34293145
_cell_angle_alpha   103.54632983
_cell_angle_beta   104.18049608
_cell_angle_gamma   88.46178417
_symmetry_Int_Tables_number   1
_chemical_formula_structural   Rb4CO6
_chemical_formula_sum   'Rb4 C1 O6'
_cell_volume   288.52912531
_cell_formula_units_Z   1
loop_
 _symmetry_equiv_pos_site_id
 _symmetry_equiv_pos_as_xyz
  1  'x, y, z'
loop_
 _atom_site_type_symbol
 _atom_site_label
 _atom_site_symmetry_multiplicity
 _atom_site_fract_x
 _atom_site_fract_y
 _atom_site_fract_z
 _atom_site_occupancy
  Rb  Rb0  1  0.92685100  0.43123700  0.02012700  1
  Rb  Rb1  1  0.06677200  0.87289200  0.87008900  1
  Rb  Rb2  1  0.51491200  0.78811100  0.27201100  1
  Rb  Rb3  1  0.30710700  0.28191000  0.58680600  1
  C  C0  1  0.05586200  0.88455400  0.43903700  1
  O  O0  1  0.92379200  0.01262300  0.52073700  1
  O  O1  1  0.30382500  0.53924400  0.91351700  1
  O  O2  1  0.98970300  0.80379200  0.25344300  1
  O  O3  1  0.30702300  0.20426000  0.17195200  1
  O  O4  1  0.43143800  0.29762500  0.08905700  1
  O  O5  1  0.25360500  0.84045200  0.54342000  1
loop_
_geom_bond_atom_site_label_1
_geom_bond_atom_site_label_2
_geom_bond_distance
_geom_bond_site_symmetry_2
C0 O5 1.303656 1_555
C0 O2 1.312433 1_455
C0 O0 1.312816 1_465
O0 Rb3 2.869531 1_655
O0 Rb1 2.889808 1_645
O0 Rb2 2.891632 1_545
O1 Rb3 2.653858 1_555
O1 Rb0 2.713681 1_456
O1 Rb1 2.753274 1_555
O1 Rb2 2.813975 1_556
O2 Rb0 2.764128 1_555
O2 Rb2 2.843233 1_555
O2 Rb2 3.067379 1_655
O2 Rb1 3.106857 1_654
O3 O4 1.333438 1_555
O3 Rb0 2.875327 1_455
O3 Rb1 2.935715 1_544
O3 Rb3 2.965939 1_555
O3 Rb2 3.328901 1_545
O4 Rb0 3.283921 1_555
O4 Rb2 3.415081 1_555
O5 Rb2 2.759158 1_555
O5 Rb1 2.836287 1_555
O5 Rb3 3.079729 1_565
