# generated using pymatgen
data_Sc11Nb3O24
_symmetry_space_group_name_H-M   'P 1'
_cell_length_a   7.90370808
_cell_length_b   7.91926381
_cell_length_c   7.94698871
_cell_angle_alpha   71.50192674
_cell_angle_beta   72.08066723
_cell_angle_gamma   72.28549873
_symmetry_Int_Tables_number   1
_chemical_formula_structural   Sc11Nb3O24
_chemical_formula_sum   'Sc11 Nb3 O24'
_cell_volume   436.90276639
_cell_formula_units_Z   1
loop_
 _symmetry_equiv_pos_site_id
 _symmetry_equiv_pos_as_xyz
  1  'x, y, z'
loop_
 _atom_site_type_symbol
 _atom_site_label
 _atom_site_symmetry_multiplicity
 _atom_site_fract_x
 _atom_site_fract_y
 _atom_site_fract_z
 _atom_site_occupancy
  Sc  Sc0  1  0.39426344  0.92608606  0.21912062  1
  Sc  Sc1  1  0.71215522  0.89525193  0.43561820  1
  Sc  Sc2  1  0.41620213  0.72068353  0.89644417  1
  Sc  Sc3  1  0.07148832  0.78785914  0.60475883  1
  Sc  Sc4  1  0.89394920  0.42252403  0.70990244  1
  Sc  Sc5  1  0.21417520  0.39299973  0.93585250  1
  Sc  Sc6  1  0.10494115  0.57493339  0.28717682  1
  Sc  Sc7  1  0.92969290  0.20879245  0.39910888  1
  Sc  Sc8  1  0.57038105  0.28248227  0.10396537  1
  Sc  Sc9  1  0.28670551  0.10328794  0.57017818  1
  Sc  Sc10  1  0.60671335  0.08400175  0.77721886  1
  Nb  Nb0  1  0.00153574  0.00578018  0.99759808  1
  Nb  Nb1  1  0.49450259  0.50473764  0.50714878  1
  Nb  Nb2  1  0.78280613  0.60381880  0.07040223  1
  O  O0  1  0.13781900  0.91051811  0.77436064  1
  O  O1  1  0.59376666  0.72536476  0.36128312  1
  O  O2  1  0.50785568  0.91285016  0.67603937  1
  O  O3  1  0.22801561  0.86421092  0.08810488  1
  O  O4  1  0.83100851  0.99006778  0.59198725  1
  O  O5  1  0.91328196  0.66946378  0.50874873  1
  O  O6  1  0.59792071  0.82407098  0.99754365  1
  O  O7  1  0.67266486  0.51405268  0.91255832  1
  O  O8  1  0.27355730  0.63590252  0.41300880  1
  O  O9  1  0.98075506  0.59085563  0.84125972  1
  O  O10  1  0.91286720  0.76495749  0.11961243  1
  O  O11  1  0.64289436  0.42588964  0.25673324  1
  O  O12  1  0.36436554  0.58358743  0.73061781  1
  O  O13  1  0.08702336  0.23149089  0.86497194  1
  O  O14  1  0.99859068  0.41528995  0.17161192  1
  O  O15  1  0.72555818  0.35970944  0.58750164  1
  O  O16  1  0.32719227  0.48998419  0.08990653  1
  O  O17  1  0.41182698  0.16907619  0.00422026  1
  O  O18  1  0.08699019  0.32821608  0.49102051  1
  O  O19  1  0.17180137  0.00530484  0.41276004  1
  O  O20  1  0.77229138  0.13947351  0.91258809  1
  O  O21  1  0.49398121  0.08626898  0.32849369  1
  O  O22  1  0.41821263  0.27250661  0.62012230  1
  O  O23  1  0.87024535  0.07765257  0.23045017  1
loop_
_geom_bond_atom_site_label_1
_geom_bond_atom_site_label_2
_geom_bond_distance
_geom_bond_site_symmetry_2
Nb0 O13 1.965634 1_555
Nb0 O23 1.988039 1_456
Nb0 O20 1.998057 1_455
Nb0 O3 2.009423 1_546
Nb0 O0 2.013833 1_545
Nb0 O10 2.071301 1_446
Nb1 O12 1.946918 1_555
Nb1 O22 1.961095 1_555
Nb1 O8 1.973611 1_555
Nb1 O1 2.000338 1_555
Nb1 O15 2.009398 1_555
Nb1 O11 2.152288 1_555
Nb2 O6 1.960018 1_554
Nb2 O11 2.004399 1_555
Nb2 O9 2.010484 1_554
Nb2 O10 2.049491 1_555
Nb2 O14 2.077807 1_555
Nb2 O7 2.109745 1_554
O0 Sc3 2.147212 1_555
O0 Sc9 2.166698 1_565
O0 Sc2 2.533303 1_555
O1 Sc1 2.155256 1_555
O1 Sc0 2.172742 1_555
O2 Sc2 2.026650 1_555
O2 Sc1 2.100192 1_555
O2 Sc9 2.129080 1_565
O2 Sc10 2.194708 1_565
O3 Sc2 2.121272 1_554
O3 Sc0 2.146649 1_555
O3 Sc6 2.608927 1_555
O4 Sc10 2.037022 1_565
O4 Sc3 2.085801 1_655
O4 Sc7 2.088034 1_565
O4 Sc1 2.174881 1_555
O5 Sc1 2.059442 1_555
O5 Sc4 2.109722 1_555
O5 Sc6 2.112012 1_655
O5 Sc3 2.186158 1_655
O6 Sc0 2.170595 1_556
O6 Sc10 2.243425 1_565
O6 Sc2 2.285123 1_555
O7 Sc4 2.100950 1_555
O7 Sc8 2.169288 1_556
O7 Sc2 2.193421 1_555
O8 Sc6 2.127719 1_555
O8 Sc3 2.194845 1_555
O8 Sc0 2.597703 1_555
O9 Sc3 2.114594 1_655
O9 Sc5 2.184183 1_655
O9 Sc4 2.284251 1_555
O10 Sc6 2.219144 1_655
O11 Sc8 2.188903 1_555
O12 Sc2 2.143376 1_555
O12 Sc5 2.164292 1_555
O12 Sc3 2.663625 1_555
O13 Sc5 2.133287 1_555
O13 Sc4 2.169178 1_455
O14 Sc7 2.073497 1_555
O14 Sc5 2.123002 1_654
O14 Sc6 2.237596 1_655
O15 Sc4 2.114601 1_555
O15 Sc7 2.179112 1_555
O15 Sc10 2.492073 1_555
O16 Sc6 2.061900 1_555
O16 Sc8 2.121504 1_555
O16 Sc2 2.128546 1_554
O16 Sc5 2.138626 1_554
O17 Sc5 2.026163 1_554
O17 Sc10 2.123827 1_554
O17 Sc0 2.137795 1_545
O17 Sc8 2.180186 1_555
O18 Sc9 2.061360 1_555
O18 Sc4 2.099795 1_455
O18 Sc6 2.116751 1_555
O18 Sc7 2.164771 1_455
O19 Sc0 2.032120 1_545
O19 Sc3 2.083556 1_545
O19 Sc7 2.100136 1_455
O19 Sc9 2.176190 1_555
O20 Sc10 2.139855 1_555
O20 Sc8 2.154524 1_556
O20 Sc4 2.571211 1_555
O21 Sc8 2.027701 1_555
O21 Sc9 2.117695 1_555
O21 Sc1 2.117857 1_545
O21 Sc0 2.171502 1_545
O22 Sc9 2.114878 1_555
O22 Sc10 2.148322 1_555
O23 Sc1 2.157877 1_545
O23 Sc7 2.159523 1_555
