# generated using pymatgen
data_Ca(Ga3Te5)2
_symmetry_space_group_name_H-M   'P 1'
_cell_length_a   10.42202319
_cell_length_b   10.42202319
_cell_length_c   10.35844535
_cell_angle_alpha   89.82458500
_cell_angle_beta   89.82458500
_cell_angle_gamma   89.25222727
_symmetry_Int_Tables_number   1
_chemical_formula_structural   Ca(Ga3Te5)2
_chemical_formula_sum   'Ca2 Ga12 Te20'
_cell_volume   1125.01326502
_cell_formula_units_Z   2
loop_
 _symmetry_equiv_pos_site_id
 _symmetry_equiv_pos_as_xyz
  1  'x, y, z'
loop_
 _atom_site_type_symbol
 _atom_site_label
 _atom_site_symmetry_multiplicity
 _atom_site_fract_x
 _atom_site_fract_y
 _atom_site_fract_z
 _atom_site_occupancy
  Ca  Ca0  1  0.99890510  0.74148957  0.74849939  1
  Ca  Ca1  1  0.25851043  0.00109490  0.25150061  1
  Ga  Ga0  1  0.90656525  0.99791598  0.16731397  1
  Ga  Ga1  1  0.82229598  0.61651551  0.16149292  1
  Ga  Ga2  1  0.68468350  0.90480040  0.87787450  1
  Ga  Ga3  1  0.59587473  0.91179399  0.25264531  1
  Ga  Ga4  1  0.50835598  0.57711497  0.33752587  1
  Ga  Ga5  1  0.42288503  0.49164402  0.66247413  1
  Ga  Ga6  1  0.41764584  0.86994735  0.57403504  1
  Ga  Ga7  1  0.38348449  0.17770402  0.83850708  1
  Ga  Ga8  1  0.13005265  0.58235416  0.42596496  1
  Ga  Ga9  1  0.09519960  0.31531650  0.12212550  1
  Ga  Ga10  1  0.08820601  0.40412527  0.74735469  1
  Ga  Ga11  1  0.00208402  0.09343475  0.83268603  1
  Te  Te0  1  0.93976022  0.49882036  0.56738512  1
  Te  Te1  1  0.92704191  0.31764004  0.93027261  1
  Te  Te2  1  0.82342471  0.81424552  0.32429058  1
  Te  Te3  1  0.82618187  0.99369638  0.68673398  1
  Te  Te4  1  0.75293094  0.66445545  0.91989373  1
  Te  Te5  1  0.69177426  0.43055212  0.25786365  1
  Te  Te6  1  0.68235996  0.07295809  0.06972739  1
  Te  Te7  1  0.57744834  0.67378767  0.56920060  1
  Te  Te8  1  0.56944788  0.30822574  0.74213635  1
  Te  Te9  1  0.50117964  0.06023978  0.43261488  1
  Te  Te10  1  0.43069249  0.92216347  0.82675547  1
  Te  Te11  1  0.43082323  0.74796352  0.16683711  1
  Te  Te12  1  0.33554455  0.24706906  0.08010627  1
  Te  Te13  1  0.32621233  0.42255166  0.43079940  1
  Te  Te14  1  0.25203648  0.56917677  0.83316289  1
  Te  Te15  1  0.18575448  0.17657529  0.67570942  1
  Te  Te16  1  0.17612402  0.82387598  0.50000000  1
  Te  Te17  1  0.08156493  0.91843507  0.00000000  1
  Te  Te18  1  0.07783653  0.56930751  0.17324453  1
  Te  Te19  1  0.00630362  0.17381813  0.31326602  1
loop_
_geom_bond_atom_site_label_1
_geom_bond_atom_site_label_2
_geom_bond_distance
_geom_bond_site_symmetry_2
Ca0 Te0 3.220677 1_555
Ca0 Te4 3.222646 1_555
Ca0 Te3 3.229873 1_555
Ca0 Te16 3.282249 1_655
Ca0 Te14 3.291629 1_655
Ca0 Te17 3.318799 1_656
Ca1 Te9 3.220677 1_555
Ca1 Te12 3.222646 1_555
Ca1 Te19 3.229873 1_555
Ca1 Te16 3.282249 1_545
Ca1 Te11 3.291629 1_545
Ca1 Te17 3.318799 1_545
Ga0 Te19 2.608318 1_665
Ga0 Te17 2.639371 1_655
Ga0 Te6 2.656207 1_565
Ga0 Te2 2.659818 1_555
Ga1 Te5 2.579121 1_555
Ga1 Te4 2.651266 1_554
Ga1 Te2 2.666938 1_555
Ga1 Te18 2.705032 1_655
Ga2 Te4 2.630305 1_555
Ga2 Te3 2.638129 1_555
Ga2 Te6 2.653539 1_566
Ga2 Te10 2.704767 1_555
Ga3 Te11 2.599944 1_555
Ga3 Te9 2.609471 1_565
Ga3 Te2 2.674272 1_555
Ga3 Te6 2.689481 1_565
Ga4 Te5 2.567126 1_555
Ga4 Te11 2.627056 1_555
Ga4 Te13 2.681600 1_555
Ga4 Te7 2.708679 1_555
Ga5 Te8 2.567126 1_555
Ga5 Te14 2.627056 1_555
Ga5 Te7 2.681600 1_555
Ga5 Te13 2.708679 1_555
Ga6 Te9 2.618495 1_565
Ga6 Te7 2.620500 1_555
Ga6 Te10 2.679609 1_555
Ga6 Te16 2.683340 1_555
Ga7 Te8 2.579121 1_555
Ga7 Te12 2.651266 1_556
Ga7 Te15 2.666938 1_555
Ga7 Te10 2.705032 1_545
Ga8 Te0 2.618495 1_455
Ga8 Te13 2.620500 1_555
Ga8 Te18 2.679609 1_555
Ga8 Te16 2.683340 1_555
Ga9 Te12 2.630305 1_555
Ga9 Te19 2.638129 1_555
Ga9 Te1 2.653539 1_454
Ga9 Te18 2.704767 1_555
Ga10 Te14 2.599944 1_555
Ga10 Te0 2.609471 1_455
Ga10 Te15 2.674272 1_555
Ga10 Te1 2.689481 1_455
Ga11 Te3 2.608318 1_445
Ga11 Te17 2.639371 1_546
Ga11 Te1 2.656207 1_455
Ga11 Te15 2.659818 1_555
