# generated using pymatgen
data_Li2Co4O5
_symmetry_space_group_name_H-M   'P 1'
_cell_length_a   6.11282243
_cell_length_b   6.11282243
_cell_length_c   10.50141380
_cell_angle_alpha   73.55393401
_cell_angle_beta   73.55393401
_cell_angle_gamma   59.76674374
_symmetry_Int_Tables_number   1
_chemical_formula_structural   Li2Co4O5
_chemical_formula_sum   'Li6 Co12 O15'
_cell_volume   320.44571639
_cell_formula_units_Z   3
loop_
 _symmetry_equiv_pos_site_id
 _symmetry_equiv_pos_as_xyz
  1  'x, y, z'
loop_
 _atom_site_type_symbol
 _atom_site_label
 _atom_site_symmetry_multiplicity
 _atom_site_fract_x
 _atom_site_fract_y
 _atom_site_fract_z
 _atom_site_occupancy
  Li  Li0  1  0.03450300  0.03450300  0.97945700  1
  Li  Li1  1  0.25451900  0.25451900  0.90214600  1
  Li  Li2  1  0.91918000  0.48311900  0.02203500  1
  Li  Li3  1  0.48311900  0.91918000  0.02203500  1
  Li  Li4  1  0.24329600  0.24329600  0.70228400  1
  Li  Li5  1  0.83851100  0.83851100  0.06361300  1
  Co  Co0  1  0.49722800  0.49722800  0.99582600  1
  Co  Co1  1  0.75166800  0.75166800  0.75739400  1
  Co  Co2  1  0.75847500  0.24689600  0.24331900  1
  Co  Co3  1  0.98904200  0.98904200  0.50757300  1
  Co  Co4  1  0.76356000  0.24356000  0.75638500  1
  Co  Co5  1  0.24689600  0.75847500  0.24331900  1
  Co  Co6  1  0.25499000  0.25499000  0.23661100  1
  Co  Co7  1  0.24356000  0.76356000  0.75638500  1
  Co  Co8  1  0.99913400  0.49122800  0.50145300  1
  Co  Co9  1  0.49122800  0.99913400  0.50145300  1
  Co  Co10  1  0.48805300  0.48805300  0.50808500  1
  Co  Co11  1  0.72235700  0.72235700  0.29140000  1
  O  O0  1  0.61378900  0.61378900  0.63159200  1
  O  O1  1  0.38280500  0.87035400  0.87434800  1
  O  O2  1  0.87035400  0.38280500  0.87434800  1
  O  O3  1  0.86768700  0.86768700  0.37579200  1
  O  O4  1  0.61702900  0.12380300  0.63414000  1
  O  O5  1  0.14356600  0.14356600  0.10636000  1
  O  O6  1  0.88270700  0.88270700  0.87395600  1
  O  O7  1  0.12380300  0.61702900  0.63414000  1
  O  O8  1  0.87778800  0.35305700  0.37904300  1
  O  O9  1  0.35305700  0.87778800  0.37904300  1
  O  O10  1  0.11695500  0.11695500  0.61751800  1
  O  O11  1  0.15857100  0.62515700  0.11519200  1
  O  O12  1  0.36879900  0.36879900  0.38003400  1
  O  O13  1  0.62515700  0.15857100  0.11519200  1
  O  O14  1  0.63761100  0.63761100  0.14552900  1
loop_
_geom_bond_atom_site_label_1
_geom_bond_atom_site_label_2
_geom_bond_distance
_geom_bond_site_symmetry_2
Li0 O2 1.975683 1_455
Li0 O1 1.975683 1_545
Li0 O5 2.029446 1_556
Li0 O6 2.231755 1_445
Li0 O13 2.355782 1_456
Li0 O11 2.355782 1_546
Li1 O5 2.082099 1_556
Li1 O2 2.149155 1_455
Li1 O1 2.149155 1_545
Li2 O14 1.824515 1_555
Li2 O5 1.937455 1_655
Li2 O2 1.963508 1_554
Li2 O6 2.435439 1_554
Li3 O14 1.824515 1_555
Li3 O5 1.937455 1_565
Li3 O1 1.963508 1_554
Li3 O6 2.435439 1_554
Li4 O10 1.834247 1_555
Li4 O4 1.988631 1_555
Li4 O7 1.988631 1_555
Li4 O2 2.402416 1_455
Li4 O1 2.402416 1_545
Li5 O13 1.858103 1_565
Li5 O11 1.858103 1_655
Li5 O6 1.891262 1_554
Li5 O14 2.019583 1_555
Co0 O13 1.980856 1_556
Co0 O11 1.980856 1_556
Co0 O2 2.137764 1_555
Co0 O1 2.137764 1_555
Co0 O14 2.492712 1_556
Co1 O1 2.099521 1_555
Co1 O2 2.099521 1_555
Co1 O6 2.130285 1_555
Co1 O7 2.139625 1_655
Co1 O4 2.139625 1_565
Co1 O0 2.267671 1_555
Co2 O13 2.059462 1_555
Co2 O14 2.137425 1_555
Co2 O8 2.138571 1_555
Co2 O3 2.212649 1_545
Co2 O5 2.260277 1_655
Co2 O12 2.274286 1_555
Co3 O10 2.047890 1_665
Co3 O8 2.128584 1_565
Co3 O9 2.128584 1_655
Co3 O4 2.153727 1_565
Co3 O7 2.153727 1_655
Co3 O3 2.175428 1_555
Co4 O6 2.066335 1_545
Co4 O2 2.073586 1_555
Co4 O10 2.136324 1_655
Co4 O0 2.142634 1_555
Co4 O4 2.197670 1_555
Co5 O11 2.059462 1_555
Co5 O14 2.137425 1_555
Co5 O9 2.138571 1_555
Co5 O3 2.212649 1_455
Co5 O5 2.260277 1_565
Co5 O12 2.274286 1_555
Co6 O5 2.078699 1_555
Co6 O13 2.131222 1_555
Co6 O11 2.131222 1_555
Co6 O12 2.215954 1_555
Co6 O9 2.253017 1_545
Co6 O8 2.253017 1_455
Co7 O6 2.066335 1_455
Co7 O1 2.073586 1_555
Co7 O10 2.136324 1_565
Co7 O0 2.142634 1_555
Co7 O7 2.197670 1_555
Co8 O10 2.120698 1_655
Co8 O12 2.120837 1_655
Co8 O3 2.168292 1_555
Co8 O8 2.168328 1_555
Co8 O7 2.216269 1_655
Co8 O0 2.226515 1_555
Co9 O10 2.120698 1_565
Co9 O12 2.120837 1_565
Co9 O3 2.168292 1_555
Co9 O9 2.168328 1_555
Co9 O4 2.216269 1_565
Co9 O0 2.226515 1_555
Co10 O7 2.117978 1_555
Co10 O4 2.117978 1_555
Co10 O12 2.125169 1_555
Co10 O0 2.141850 1_555
Co10 O8 2.240186 1_555
Co10 O9 2.240186 1_555
Co11 O9 2.001172 1_555
Co11 O8 2.001172 1_555
Co11 O3 2.012511 1_555
Co11 O14 2.013010 1_555
