# generated using pymatgen
data_TeAs(Se2F3)2
_symmetry_space_group_name_H-M   'P 1'
_cell_length_a   13.38736900
_cell_length_b   16.54070400
_cell_length_c   19.40820500
_cell_angle_alpha   90.00000000
_cell_angle_beta   90.00000000
_cell_angle_gamma   90.00000000
_symmetry_Int_Tables_number   1
_chemical_formula_structural   TeAs(Se2F3)2
_chemical_formula_sum   'Te16 As16 Se64 F96'
_cell_volume   4297.68514112
_cell_formula_units_Z   16
loop_
 _symmetry_equiv_pos_site_id
 _symmetry_equiv_pos_as_xyz
  1  'x, y, z'
loop_
 _atom_site_type_symbol
 _atom_site_label
 _atom_site_symmetry_multiplicity
 _atom_site_fract_x
 _atom_site_fract_y
 _atom_site_fract_z
 _atom_site_occupancy
  Te  Te0  1  0.21763700  0.86065400  0.70208700  1
  Te  Te1  1  0.27970600  0.25530000  0.03363500  1
  Te  Te2  1  0.71763700  0.63934600  0.70208700  1
  Te  Te3  1  0.77970600  0.75530000  0.46636500  1
  Te  Te4  1  0.28236300  0.63934600  0.20208700  1
  Te  Te5  1  0.22029400  0.24470000  0.53363500  1
  Te  Te6  1  0.77970600  0.24470000  0.03363500  1
  Te  Te7  1  0.21763700  0.13934600  0.79791300  1
  Te  Te8  1  0.28236300  0.36065400  0.29791300  1
  Te  Te9  1  0.27970600  0.74470000  0.46636500  1
  Te  Te10  1  0.71763700  0.36065400  0.79791300  1
  Te  Te11  1  0.22029400  0.75530000  0.96636500  1
  Te  Te12  1  0.72029400  0.74470000  0.96636500  1
  Te  Te13  1  0.78236300  0.13934600  0.29791300  1
  Te  Te14  1  0.78236300  0.86065400  0.20208700  1
  Te  Te15  1  0.72029400  0.25530000  0.53363500  1
  As  As0  1  0.47787800  0.40384800  0.64588000  1
  As  As1  1  0.93435400  0.41409400  0.63789300  1
  As  As2  1  0.97787800  0.90384800  0.85412000  1
  As  As3  1  0.06564600  0.41409400  0.13789300  1
  As  As4  1  0.97787800  0.09615200  0.64588000  1
  As  As5  1  0.43435400  0.91409500  0.86210700  1
  As  As6  1  0.56564600  0.08590600  0.13789300  1
  As  As7  1  0.43435400  0.08590600  0.63789300  1
  As  As8  1  0.93435400  0.58590500  0.86210700  1
  As  As9  1  0.06564600  0.58590500  0.36210700  1
  As  As10  1  0.56564600  0.91409500  0.36210700  1
  As  As11  1  0.02212200  0.09615200  0.14588000  1
  As  As12  1  0.02212200  0.90384800  0.35412000  1
  As  As13  1  0.52212200  0.59615200  0.35412000  1
  As  As14  1  0.52212200  0.40384800  0.14588000  1
  As  As15  1  0.47787800  0.59615200  0.85412000  1
  Se  Se0  1  0.11329800  0.23644400  0.96340200  1
  Se  Se1  1  0.61864600  0.20001400  0.35300800  1
  Se  Se2  1  0.36518600  0.22149700  0.26535600  1
  Se  Se3  1  0.36925300  0.39094500  0.41572700  1
  Se  Se4  1  0.34033500  0.38732600  0.97139300  1
  Se  Se5  1  0.75101900  0.87777800  0.70851000  1
  Se  Se6  1  0.11864600  0.29998600  0.35300800  1
  Se  Se7  1  0.74898100  0.37777800  0.29149000  1
  Se  Se8  1  0.84033500  0.88732600  0.52860700  1
  Se  Se9  1  0.74898100  0.62222200  0.20851000  1
  Se  Se10  1  0.15966500  0.11267400  0.47139300  1
  Se  Se11  1  0.11963800  0.35354200  0.46253200  1
  Se  Se12  1  0.25101900  0.62222200  0.70851000  1
  Se  Se13  1  0.13074700  0.89094500  0.58427300  1
  Se  Se14  1  0.11329800  0.76355600  0.53659800  1
  Se  Se15  1  0.63074700  0.60905500  0.58427300  1
  Se  Se16  1  0.88036200  0.64645800  0.53746800  1
  Se  Se17  1  0.70588000  0.07527100  0.90334700  1
  Se  Se18  1  0.38135400  0.79998600  0.64699200  1
  Se  Se19  1  0.13481400  0.72149700  0.73464400  1
  Se  Se20  1  0.11963800  0.64645800  0.03746800  1
  Se  Se21  1  0.63481400  0.22149700  0.76535600  1
  Se  Se22  1  0.13481400  0.27850300  0.76535600  1
  Se  Se23  1  0.63481400  0.77850300  0.73464400  1
  Se  Se24  1  0.88670200  0.23644400  0.46340200  1
  Se  Se25  1  0.20588000  0.57527100  0.59665300  1
  Se  Se26  1  0.61963800  0.14645800  0.46253200  1
  Se  Se27  1  0.34033500  0.61267400  0.52860700  1
  Se  Se28  1  0.86518600  0.27850300  0.26535600  1
  Se  Se29  1  0.11864600  0.70001400  0.14699200  1
  Se  Se30  1  0.86925300  0.10905500  0.41572700  1
  Se  Se31  1  0.20588000  0.42472900  0.90334700  1
  Se  Se32  1  0.88135400  0.70001400  0.64699200  1
  Se  Se33  1  0.61329800  0.73644400  0.53659800  1
  Se  Se34  1  0.88135400  0.29998600  0.85300800  1
  Se  Se35  1  0.38036200  0.14645800  0.96253200  1
  Se  Se36  1  0.75101900  0.12222200  0.79149000  1
  Se  Se37  1  0.38670200  0.26355600  0.46340200  1
  Se  Se38  1  0.24898100  0.87777800  0.20851000  1
  Se  Se39  1  0.61963800  0.85354200  0.03746800  1
  Se  Se40  1  0.79412000  0.57527100  0.09665300  1
  Se  Se41  1  0.38670200  0.73644400  0.03659800  1
  Se  Se42  1  0.84033500  0.11267400  0.97139300  1
  Se  Se43  1  0.38036200  0.85354200  0.53746800  1
  Se  Se44  1  0.79412000  0.42472900  0.40334700  1
  Se  Se45  1  0.61864600  0.79998600  0.14699200  1
  Se  Se46  1  0.15966500  0.88732600  0.02860700  1
  Se  Se47  1  0.65966500  0.61267400  0.02860700  1
  Se  Se48  1  0.24898100  0.12222200  0.29149000  1
  Se  Se49  1  0.88670200  0.76355600  0.03659800  1
  Se  Se50  1  0.65966500  0.38732600  0.47139300  1
  Se  Se51  1  0.36518600  0.77850300  0.23464400  1
  Se  Se52  1  0.88036200  0.35354200  0.96253200  1
  Se  Se53  1  0.36925300  0.60905500  0.08427300  1
  Se  Se54  1  0.38135400  0.20001400  0.85300800  1
  Se  Se55  1  0.29412000  0.07527100  0.40334700  1
  Se  Se56  1  0.63074700  0.39094500  0.91572700  1
  Se  Se57  1  0.29412000  0.92472900  0.09665300  1
  Se  Se58  1  0.25101900  0.37777800  0.79149000  1
  Se  Se59  1  0.86518600  0.72149700  0.23464400  1
  Se  Se60  1  0.13074700  0.10905500  0.91572700  1
  Se  Se61  1  0.70588000  0.92472900  0.59665300  1
  Se  Se62  1  0.61329800  0.26355600  0.96340200  1
  Se  Se63  1  0.86925300  0.89094500  0.08427300  1
  F  F0  1  0.54114600  0.31862800  0.61002100  1
  F  F1  1  0.13201300  0.67557500  0.33770300  1
  F  F2  1  0.32719000  0.02721300  0.65991300  1
  F  F3  1  0.13201300  0.32442500  0.16229700  1
  F  F4  1  0.04200700  0.35763500  0.61368300  1
  F  F5  1  0.90381200  0.04834100  0.15865300  1
  F  F6  1  0.04200700  0.64236500  0.88631700  1
  F  F7  1  0.36118500  0.35484100  0.63433600  1
  F  F8  1  0.54200700  0.14236500  0.61368300  1
  F  F9  1  0.45799300  0.14236500  0.11368300  1
  F  F10  1  0.40381200  0.45165900  0.15865300  1
  F  F11  1  0.67281000  0.97278700  0.34008700  1
  F  F12  1  0.95799300  0.35763500  0.11368300  1
  F  F13  1  0.51899400  0.07770900  0.22220800  1
  F  F14  1  0.63201300  0.17557500  0.16229700  1
  F  F15  1  0.09618800  0.04834100  0.65865300  1
  F  F16  1  0.58346300  0.51091800  0.32037800  1
  F  F17  1  0.82719000  0.52721300  0.84008700  1
  F  F18  1  0.01056100  0.14043400  0.22938900  1
  F  F19  1  0.47005400  0.44644200  0.56179300  1
  F  F20  1  0.91653700  0.01091800  0.67962200  1
  F  F21  1  0.63201300  0.82442500  0.33770300  1
  F  F22  1  0.86118500  0.85484100  0.86566400  1
  F  F23  1  0.45799300  0.85763500  0.38631700  1
  F  F24  1  0.09618800  0.95165900  0.84134700  1
  F  F25  1  0.95885400  0.18137200  0.11002100  1
  F  F26  1  0.63881500  0.64515900  0.36566400  1
  F  F27  1  0.48943900  0.64043400  0.77061100  1
  F  F28  1  0.38670100  0.90004900  0.94752500  1
  F  F29  1  0.11329900  0.59995100  0.44752500  1
  F  F30  1  0.45885400  0.31862800  0.11002100  1
  F  F31  1  0.38670100  0.09995100  0.55247500  1
  F  F32  1  0.08346300  0.01091800  0.17962200  1
  F  F33  1  0.86118500  0.14515900  0.63433600  1
  F  F34  1  0.41653700  0.48908200  0.67962200  1
  F  F35  1  0.95885400  0.81862800  0.38997900  1
  F  F36  1  0.99526100  0.50409500  0.61161200  1
  F  F37  1  0.52994600  0.44644200  0.06179300  1
  F  F38  1  0.97005400  0.94644200  0.93820700  1
  F  F39  1  0.48100600  0.07770900  0.72220800  1
  F  F40  1  0.36798700  0.82442500  0.83770300  1
  F  F41  1  0.00473900  0.50409500  0.11161200  1
  F  F42  1  0.13881500  0.85484100  0.36566400  1
  F  F43  1  0.95799300  0.64236500  0.38631700  1
  F  F44  1  0.97005400  0.05355800  0.56179300  1
  F  F45  1  0.59618800  0.54834100  0.84134700  1
  F  F46  1  0.50473900  0.00409500  0.38838800  1
  F  F47  1  0.01056100  0.85956600  0.27061100  1
  F  F48  1  0.32719000  0.97278700  0.84008700  1
  F  F49  1  0.41653700  0.51091800  0.82037800  1
  F  F50  1  0.61329900  0.09995100  0.05247500  1
  F  F51  1  0.98943900  0.14043400  0.72938900  1
  F  F52  1  0.98100600  0.57770900  0.77779200  1
  F  F53  1  0.36798700  0.17557500  0.66229700  1
  F  F54  1  0.01899400  0.42229100  0.22220800  1
  F  F55  1  0.67281000  0.02721300  0.15991300  1
  F  F56  1  0.90381200  0.95165900  0.34134700  1
  F  F57  1  0.86798700  0.32442500  0.66229700  1
  F  F58  1  0.47005400  0.55355800  0.93820700  1
  F  F59  1  0.51056100  0.35956600  0.22938900  1
  F  F60  1  0.88670100  0.40004900  0.55247500  1
  F  F61  1  0.63881500  0.35484100  0.13433600  1
  F  F62  1  0.08346300  0.98908200  0.32037800  1
  F  F63  1  0.59618800  0.45165900  0.65865300  1
  F  F64  1  0.88670100  0.59995100  0.94752500  1
  F  F65  1  0.50473900  0.99590500  0.11161200  1
  F  F66  1  0.54114600  0.68137200  0.88997900  1
  F  F67  1  0.17281000  0.47278700  0.15991300  1
  F  F68  1  0.01899400  0.57770900  0.27779200  1
  F  F69  1  0.45885400  0.68137200  0.38997900  1
  F  F70  1  0.61329900  0.90004900  0.44752500  1
  F  F71  1  0.98100600  0.42229100  0.72220800  1
  F  F72  1  0.99526100  0.49590500  0.88838800  1
  F  F73  1  0.86798700  0.67557500  0.83770300  1
  F  F74  1  0.02994600  0.94644200  0.43820700  1
  F  F75  1  0.82719000  0.47278700  0.65991300  1
  F  F76  1  0.48100600  0.92229100  0.77779200  1
  F  F77  1  0.04114600  0.18137200  0.61002100  1
  F  F78  1  0.11329900  0.40004900  0.05247500  1
  F  F79  1  0.49526100  0.00409500  0.88838800  1
  F  F80  1  0.40381200  0.54834100  0.34134700  1
  F  F81  1  0.13881500  0.14515900  0.13433600  1
  F  F82  1  0.91653700  0.98908200  0.82037800  1
  F  F83  1  0.02994600  0.05355800  0.06179300  1
  F  F84  1  0.51056100  0.64043400  0.27061100  1
  F  F85  1  0.17281000  0.52721300  0.34008700  1
  F  F86  1  0.51899400  0.92229100  0.27779200  1
  F  F87  1  0.98943900  0.85956600  0.77061100  1
  F  F88  1  0.04114600  0.81862800  0.88997900  1
  F  F89  1  0.48943900  0.35956600  0.72938900  1
  F  F90  1  0.36118500  0.64515900  0.86566400  1
  F  F91  1  0.49526100  0.99590500  0.61161200  1
  F  F92  1  0.58346300  0.48908200  0.17962200  1
  F  F93  1  0.00473900  0.49590500  0.38838800  1
  F  F94  1  0.52994600  0.55355800  0.43820700  1
  F  F95  1  0.54200700  0.85763500  0.88631700  1
loop_
_geom_bond_atom_site_label_1
_geom_bond_atom_site_label_2
_geom_bond_distance
_geom_bond_site_symmetry_2
As0 F34 1.758078 1_555
As0 F7 1.774202 1_555
As0 F19 1.780644 1_555
As0 F89 1.785303 1_555
As0 F0 1.785700 1_555
As0 F63 1.787589 1_555
As1 F71 1.756775 1_555
As1 F36 1.772340 1_555
As1 F4 1.780429 1_655
As1 F75 1.784193 1_555
As1 F60 1.791447 1_555
As1 F57 1.792645 1_555
As2 F82 1.758078 1_555
As2 F22 1.774202 1_555
As2 F38 1.780644 1_555
As2 F87 1.785303 1_555
As2 F88 1.785700 1_655
As2 F24 1.787589 1_655
As3 F54 1.756775 1_555
As3 F41 1.772340 1_555
As3 F12 1.780429 1_455
As3 F67 1.784193 1_555
As3 F78 1.791447 1_555
As3 F3 1.792645 1_555
As4 F20 1.758078 1_555
As4 F33 1.774202 1_555
As4 F44 1.780644 1_555
As4 F51 1.785303 1_555
As4 F77 1.785700 1_655
As4 F15 1.787589 1_655
As5 F76 1.756773 1_555
As5 F79 1.772326 1_565
As5 F95 1.780437 1_555
As5 F48 1.784184 1_555
As5 F28 1.791449 1_555
As5 F40 1.792659 1_555
As6 F13 1.756775 1_555
As6 F65 1.772340 1_545
As6 F9 1.780429 1_555
As6 F55 1.784193 1_555
As6 F50 1.791447 1_555
As6 F14 1.792645 1_555
As7 F39 1.756775 1_555
As7 F91 1.772340 1_545
As7 F8 1.780429 1_555
As7 F2 1.784193 1_555
As7 F31 1.791447 1_555
As7 F53 1.792645 1_555
As8 F52 1.756773 1_555
As8 F72 1.772326 1_555
As8 F6 1.780437 1_655
As8 F17 1.784184 1_555
As8 F64 1.791449 1_555
As8 F73 1.792659 1_555
As9 F68 1.756773 1_555
As9 F93 1.772326 1_555
As9 F43 1.780437 1_455
As9 F85 1.784184 1_555
As9 F29 1.791449 1_555
As9 F1 1.792659 1_555
As10 F86 1.756773 1_555
As10 F46 1.772326 1_565
As10 F23 1.780437 1_555
As10 F11 1.784184 1_555
As10 F70 1.791449 1_555
As10 F21 1.792659 1_555
As11 F32 1.758078 1_555
As11 F81 1.774202 1_555
As11 F83 1.780644 1_555
As11 F18 1.785303 1_555
As11 F25 1.785700 1_455
As11 F5 1.787589 1_455
As12 F62 1.758078 1_555
As12 F42 1.774202 1_555
As12 F74 1.780644 1_555
As12 F47 1.785303 1_555
As12 F35 1.785700 1_455
As12 F56 1.787589 1_455
As13 F16 1.758078 1_555
As13 F26 1.774202 1_555
As13 F94 1.780644 1_555
As13 F84 1.785303 1_555
As13 F69 1.785700 1_555
As13 F80 1.787589 1_555
As14 F92 1.758078 1_555
As14 F61 1.774202 1_555
As14 F37 1.780644 1_555
As14 F59 1.785303 1_555
As14 F30 1.785700 1_555
As14 F10 1.787589 1_555
As15 F49 1.758078 1_555
As15 F90 1.774202 1_555
As15 F58 1.780644 1_555
As15 F27 1.785303 1_555
As15 F66 1.785700 1_555
As15 F45 1.787589 1_555
Se0 Se60 2.313138 1_555
Se0 Te1 2.630256 1_556
Se1 Se26 2.302903 1_555
Se1 Te13 2.637065 1_555
Se2 Se48 2.318151 1_555
Se2 Te8 2.631869 1_555
Se3 Se37 2.313138 1_555
Se3 Te8 2.613902 1_555
Se4 Te1 2.624323 1_556
Se5 Se61 2.383543 1_555
Se6 Te8 2.637065 1_555
Se8 Te3 2.624323 1_555
Se10 Se55 2.316650 1_555
Se10 Te5 2.624323 1_555
Se11 Se6 2.302903 1_555
Se11 Te5 2.638431 1_555
Se12 Se19 2.318151 1_555
Se12 Se25 2.383543 1_555
Se13 Se14 2.313138 1_555
Se13 Te0 2.613902 1_555
Se14 Te9 2.630256 1_555
Se15 Se33 2.313138 1_555
Se15 Te2 2.613902 1_555
Se16 Se32 2.302903 1_555
Se16 Te3 2.638431 1_555
Se17 Se42 2.316650 1_555
Se17 Se36 2.383543 1_555
Se18 Se43 2.302903 1_555
Se18 Te0 2.637065 1_555
Se19 Te0 2.631869 1_555
Se20 Se29 2.302903 1_555
Se20 Te11 2.638431 1_554
Se21 Se36 2.318151 1_555
Se21 Te10 2.631869 1_555
Se22 Se58 2.318151 1_555
Se22 Te7 2.631869 1_555
Se23 Se5 2.318151 1_555
Se23 Te2 2.631869 1_555
Se24 Se30 2.313138 1_555
Se24 Te15 2.630256 1_555
Se25 Se27 2.316650 1_555
Se26 Te15 2.638431 1_555
Se27 Te9 2.624323 1_555
Se28 Se7 2.318151 1_555
Se28 Te13 2.631869 1_555
Se29 Te4 2.637065 1_555
Se30 Te13 2.613902 1_555
Se31 Se4 2.316650 1_555
Se31 Se58 2.383543 1_555
Se32 Te2 2.637065 1_555
Se33 Te3 2.630256 1_555
Se34 Se52 2.302903 1_555
Se34 Te10 2.637065 1_555
Se35 Se54 2.302903 1_555
Se35 Te1 2.638431 1_556
Se37 Te5 2.630256 1_555
Se38 Se51 2.318151 1_555
Se38 Se57 2.383543 1_555
Se39 Se45 2.302903 1_555
Se39 Te12 2.638431 1_554
Se40 Se47 2.316650 1_555
Se40 Se9 2.383543 1_555
Se41 Se53 2.313138 1_555
Se41 Te11 2.630256 1_554
Se42 Te6 2.624323 1_556
Se43 Te9 2.638431 1_555
Se44 Se50 2.316650 1_555
Se44 Se7 2.383543 1_555
Se45 Te14 2.637065 1_555
Se46 Se57 2.316650 1_555
Se46 Te11 2.624323 1_554
Se47 Te12 2.624323 1_554
Se48 Se55 2.383543 1_555
Se49 Se63 2.313138 1_555
Se49 Te12 2.630256 1_554
Se50 Te15 2.624323 1_555
Se51 Te4 2.631869 1_555
Se52 Te6 2.638431 1_556
Se53 Te4 2.613902 1_555
Se54 Te7 2.637065 1_555
Se56 Se62 2.313138 1_555
Se56 Te10 2.613902 1_555
Se59 Se9 2.318151 1_555
Se59 Te14 2.631869 1_555
Se60 Te7 2.613902 1_555
Se61 Se8 2.316650 1_555
Se62 Te6 2.630256 1_556
Se63 Te14 2.613902 1_555
