# generated using pymatgen
data_LiFeP2O7
_symmetry_space_group_name_H-M   'P 1'
_cell_length_a   6.31850212
_cell_length_b   6.31850212
_cell_length_c   13.41586990
_cell_angle_alpha   74.11222264
_cell_angle_beta   74.11222264
_cell_angle_gamma   80.48750806
_symmetry_Int_Tables_number   1
_chemical_formula_structural   LiFeP2O7
_chemical_formula_sum   'Li4 Fe4 P8 O28'
_cell_volume   493.10153584
_cell_formula_units_Z   4
loop_
 _symmetry_equiv_pos_site_id
 _symmetry_equiv_pos_as_xyz
  1  'x, y, z'
loop_
 _atom_site_type_symbol
 _atom_site_label
 _atom_site_symmetry_multiplicity
 _atom_site_fract_x
 _atom_site_fract_y
 _atom_site_fract_z
 _atom_site_occupancy
  Li  Li0  1  0.76537400  0.01128400  0.88122800  1
  Li  Li1  1  0.02138700  0.76900000  0.37840000  1
  Li  Li2  1  0.23100000  0.97861300  0.62160000  1
  Li  Li3  1  0.98871600  0.23462600  0.11877200  1
  Fe  Fe0  1  0.59971900  0.12505300  0.39187100  1
  Fe  Fe1  1  0.87494700  0.40028100  0.60812900  1
  Fe  Fe2  1  0.40328300  0.87552200  0.10664300  1
  Fe  Fe3  1  0.12447800  0.59671700  0.89335700  1
  P  P0  1  0.24701500  0.09508000  0.88451600  1
  P  P1  1  0.33373800  0.42085400  0.67512600  1
  P  P2  1  0.57914600  0.66626200  0.32487400  1
  P  P3  1  0.09725800  0.24785800  0.38594800  1
  P  P4  1  0.66880900  0.58123800  0.82257200  1
  P  P5  1  0.90492000  0.75298500  0.11548400  1
  P  P6  1  0.75214200  0.90274200  0.61405200  1
  P  P7  1  0.41876200  0.33119100  0.17742800  1
  O  O0  1  0.53372500  0.43981800  0.39458500  1
  O  O1  1  0.98740200  0.42855000  0.44510800  1
  O  O2  1  0.18929200  0.33281100  0.62359700  1
  O  O3  1  0.61205300  0.78889100  0.72806600  1
  O  O4  1  0.21961500  0.61429300  0.72558500  1
  O  O5  1  0.61637000  0.21570800  0.22615900  1
  O  O6  1  0.72999800  0.91187600  0.06236400  1
  O  O7  1  0.38570700  0.78038500  0.27441500  1
  O  O8  1  0.46939100  0.56080200  0.10424000  1
  O  O9  1  0.01694500  0.57299400  0.05359700  1
  O  O10  1  0.11417700  0.93183700  0.86581900  1
  O  O11  1  0.66718900  0.81070800  0.37640300  1
  O  O12  1  0.21110900  0.38794700  0.27193400  1
  O  O13  1  0.33420900  0.18915100  0.12407400  1
  O  O14  1  0.56018200  0.46627500  0.60541500  1
  O  O15  1  0.38894400  0.21250600  0.76993100  1
  O  O16  1  0.78749400  0.61105600  0.23006900  1
  O  O17  1  0.43919800  0.53060900  0.89576100  1
  O  O18  1  0.57145000  0.01259800  0.55489200  1
  O  O19  1  0.93478600  0.11345800  0.36725200  1
  O  O20  1  0.81084900  0.66579100  0.87592600  1
  O  O21  1  0.27306300  0.08854000  0.43545100  1
  O  O22  1  0.88654200  0.06521400  0.63274800  1
  O  O23  1  0.42700600  0.98305500  0.94640300  1
  O  O24  1  0.06816300  0.88582300  0.13418100  1
  O  O25  1  0.78429200  0.38363000  0.77384100  1
  O  O26  1  0.91146000  0.72693700  0.56454900  1
  O  O27  1  0.08812400  0.27000200  0.93763600  1
loop_
_geom_bond_atom_site_label_1
_geom_bond_atom_site_label_2
_geom_bond_distance
_geom_bond_site_symmetry_2
Li0 O23 2.093907 1_545
Li0 O10 2.143281 1_645
Li0 O20 2.172465 1_545
Li0 O6 2.294159 1_546
Li0 O25 2.401631 1_555
Li1 O1 2.113727 1_455
Li1 O19 2.128781 1_465
Li1 O11 2.216492 1_455
Li1 O7 2.343479 1_555
Li1 O26 2.353241 1_455
Li2 O18 2.113727 1_565
Li2 O22 2.128781 1_465
Li2 O2 2.216492 1_565
Li2 O4 2.343479 1_555
Li2 O21 2.353241 1_565
Li3 O9 2.093907 1_655
Li3 O24 2.143281 1_645
Li3 O13 2.172465 1_655
Li3 O27 2.294159 1_654
Li3 O5 2.401631 1_555
Fe0 O0 1.971782 1_555
Fe0 O11 2.016709 1_545
Fe0 O21 2.019381 1_555
Fe0 O19 2.043476 1_555
Fe0 O18 2.072988 1_555
Fe0 O5 2.115727 1_555
Fe1 O14 1.971782 1_555
Fe1 O2 2.016709 1_655
Fe1 O26 2.019381 1_555
Fe1 O22 2.043476 1_555
Fe1 O1 2.072988 1_555
Fe1 O25 2.115727 1_555
Fe2 O8 1.970550 1_555
Fe2 O6 2.019355 1_555
Fe2 O13 2.020927 1_565
Fe2 O23 2.040368 1_554
Fe2 O24 2.040503 1_555
Fe2 O7 2.141084 1_555
Fe3 O17 1.970553 1_555
Fe3 O27 2.019355 1_555
Fe3 O20 2.020927 1_455
Fe3 O9 2.040368 1_556
Fe3 O10 2.040503 1_555
Fe3 O4 2.141084 1_555
O0 P2 1.503434 1_555
O1 P3 1.532248 1_655
O2 P1 1.531072 1_555
O3 P6 1.583471 1_555
O3 P4 1.624881 1_555
O4 P1 1.538360 1_555
O5 P7 1.550298 1_555
O6 P5 1.552458 1_555
O7 P2 1.538360 1_555
O8 P7 1.540368 1_555
O9 P5 1.553352 1_455
O10 P0 1.540899 1_565
O11 P2 1.531072 1_555
O12 P3 1.583471 1_555
O12 P7 1.624881 1_555
O13 P7 1.524081 1_555
O14 P1 1.503434 1_555
O15 P0 1.599542 1_555
O15 P1 1.626902 1_555
O16 P5 1.599542 1_555
O16 P2 1.626902 1_555
O17 P4 1.540372 1_555
O18 P6 1.532248 1_545
O19 P3 1.543915 1_655
O20 P4 1.524081 1_555
O21 P3 1.535129 1_555
O22 P6 1.543915 1_545
O23 P0 1.553352 1_565
O24 P5 1.540899 1_455
O25 P4 1.550298 1_555
O26 P6 1.535129 1_555
O27 P0 1.552458 1_555
