# generated using pymatgen
data_Hg3SeO6
_symmetry_space_group_name_H-M   'P 1'
_cell_length_a   7.42760300
_cell_length_b   7.55450167
_cell_length_c   10.11900243
_cell_angle_alpha   89.79004550
_cell_angle_beta   90.63448473
_cell_angle_gamma   119.18425246
_symmetry_Int_Tables_number   1
_chemical_formula_structural   Hg3SeO6
_chemical_formula_sum   'Hg9 Se3 O18'
_cell_volume   495.68626357
_cell_formula_units_Z   3
loop_
 _symmetry_equiv_pos_site_id
 _symmetry_equiv_pos_as_xyz
  1  'x, y, z'
loop_
 _atom_site_type_symbol
 _atom_site_label
 _atom_site_symmetry_multiplicity
 _atom_site_fract_x
 _atom_site_fract_y
 _atom_site_fract_z
 _atom_site_occupancy
  Hg  Hg0  1  0.65067500  0.00550900  0.65817800  1
  Hg  Hg1  1  0.80872400  0.32861500  0.95978200  1
  Hg  Hg2  1  0.95160900  0.62555500  0.29769600  1
  Hg  Hg3  1  0.64034700  0.48395000  0.64746800  1
  Hg  Hg4  1  0.47363500  0.13820200  0.29951700  1
  Hg  Hg5  1  0.44586600  0.62578000  0.34389000  1
  Hg  Hg6  1  0.29901400  0.29732000  0.00732100  1
  Hg  Hg7  1  0.24576600  0.57403400  0.73882800  1
  Hg  Hg8  1  0.34366900  0.82446800  0.02676700  1
  Se  Se0  1  0.95334200  0.10687000  0.33030100  1
  Se  Se1  1  0.78409200  0.80572000  0.99356700  1
  Se  Se2  1  0.14713200  0.10073600  0.60270200  1
  O  O0  1  0.86143900  0.25665400  0.26938100  1
  O  O1  1  0.76800100  0.30181400  0.72222000  1
  O  O2  1  0.64687400  0.57517200  0.92152200  1
  O  O3  1  0.63483100  0.47714600  0.35304700  1
  O  O4  1  0.49160200  0.15714700  0.04778000  1
  O  O5  1  0.37490000  0.13075800  0.54579800  1
  O  O6  1  0.69372600  0.80762200  0.14508900  1
  O  O7  1  0.53949200  0.70390600  0.59441900  1
  O  O8  1  0.15812500  0.15358800  0.23398300  1
  O  O9  1  0.21953000  0.25885400  0.73581600  1
  O  O10  1  0.10191200  0.26378400  0.47660700  1
  O  O11  1  0.16453600  0.49627400  0.96398700  1
  O  O12  1  0.28303700  0.78398500  0.26844000  1
  O  O13  1  0.74391800  0.97158900  0.90251200  1
  O  O14  1  0.10135200  0.59873400  0.52792400  1
  O  O15  1  0.08881500  0.77312600  0.71130600  1
  O  O16  1  0.03124800  0.72145500  0.57660300  1
  O  O17  1  0.03079200  0.86663100  0.99984900  1
loop_
_geom_bond_atom_site_label_1
_geom_bond_atom_site_label_2
_geom_bond_distance
_geom_bond_site_symmetry_2
Hg0 O1 2.070198 1_555
Hg0 O7 2.110350 1_545
Hg0 O13 2.605508 1_545
Hg1 O4 2.254200 1_556
Hg1 O11 2.307383 1_655
Hg1 O1 2.416384 1_555
Hg1 O13 2.565408 1_545
Hg1 O2 2.689336 1_555
Hg2 O3 2.135129 1_555
Hg2 O12 2.172631 1_655
Hg2 O0 2.545307 1_555
Hg2 O14 2.620009 1_655
Hg3 O1 2.147840 1_555
Hg3 O7 2.192928 1_555
Hg3 O16 2.668283 1_655
Hg4 O3 2.299854 1_555
Hg4 O12 2.359131 1_545
Hg4 O8 2.485124 1_555
Hg4 O4 2.552136 1_555
Hg4 O0 2.587368 1_555
Hg4 O5 2.598243 1_555
Hg5 O3 2.184649 1_555
Hg5 O12 2.203760 1_555
Hg5 O7 2.613492 1_555
Hg5 O6 2.630320 1_555
Hg6 O4 2.190050 1_555
Hg6 O11 2.213267 1_554
Hg6 O8 2.541936 1_555
Hg6 O2 2.565689 1_554
Hg7 O9 2.292617 1_555
Hg7 O15 2.323448 1_555
Hg7 O11 2.361171 1_555
Hg7 O7 2.414593 1_555
Hg7 O14 2.425185 1_555
Hg8 O4 2.207818 1_565
Hg8 O11 2.257583 1_554
Hg8 O12 2.482208 1_555
Hg8 O17 2.506694 1_554
O0 Se0 1.692698 1_555
O2 Se1 1.692739 1_555
O5 Se2 1.700443 1_555
O6 Se1 1.683431 1_554
O8 Se0 1.701426 1_455
O9 Se2 1.702845 1_555
O10 Se0 1.875017 1_455
O10 Se2 1.908019 1_555
O13 Se1 1.690634 1_555
O14 O16 1.361285 1_555
O15 O16 1.421742 1_555
O15 Se2 2.542784 1_565
O16 Se2 2.572112 1_565
O17 Se1 1.657941 1_455
