# generated using pymatgen
data_Sc
_symmetry_space_group_name_H-M   'P 1'
_cell_length_a   6.49533306
_cell_length_b   6.49019782
_cell_length_c   32.69395064
_cell_angle_alpha   90.00000000
_cell_angle_beta   90.00000000
_cell_angle_gamma   120.02737463
_symmetry_Int_Tables_number   1
_chemical_formula_structural   Sc
_chemical_formula_sum   Sc48
_cell_volume   1193.26672320
_cell_formula_units_Z   48
loop_
 _symmetry_equiv_pos_site_id
 _symmetry_equiv_pos_as_xyz
  1  'x, y, z'
loop_
 _atom_site_type_symbol
 _atom_site_label
 _atom_site_symmetry_multiplicity
 _atom_site_fract_x
 _atom_site_fract_y
 _atom_site_fract_z
 _atom_site_occupancy
  Sc  Sc0_0  1  0.25982578  0.00000043  0.25000079  1
  Sc  Sc0_1  1  0.25982578  0.00000043  0.75000079  1
  Sc  Sc0_2  1  0.25982578  0.50000043  0.25000079  1
  Sc  Sc0_3  1  0.25982578  0.50000043  0.75000079  1
  Sc  Sc0_4  1  0.75982578  0.00000043  0.25000079  1
  Sc  Sc0_5  1  0.75982578  0.00000043  0.75000079  1
  Sc  Sc0_6  1  0.75982578  0.50000043  0.25000079  1
  Sc  Sc0_7  1  0.75982578  0.50000043  0.75000079  1
  Sc  Sc1_0  1  0.24017422  0.99999957  0.00000079  1
  Sc  Sc1_1  1  0.24017422  0.99999957  0.50000079  1
  Sc  Sc1_2  1  0.24017422  0.49999957  0.00000079  1
  Sc  Sc1_3  1  0.24017422  0.49999957  0.50000079  1
  Sc  Sc1_4  1  0.74017422  0.99999957  0.00000079  1
  Sc  Sc1_5  1  0.74017422  0.99999957  0.50000079  1
  Sc  Sc1_6  1  0.74017422  0.49999957  0.00000079  1
  Sc  Sc1_7  1  0.74017422  0.49999957  0.50000079  1
  Sc  Sc2_0  1  0.49996176  0.23981085  0.16661683  1
  Sc  Sc2_1  1  0.49996176  0.23981085  0.66661684  1
  Sc  Sc2_2  1  0.49996176  0.73981085  0.16661683  1
  Sc  Sc2_3  1  0.49996176  0.73981085  0.66661684  1
  Sc  Sc2_4  1  0.99996176  0.23981086  0.16661683  1
  Sc  Sc2_5  1  0.99996176  0.23981086  0.66661684  1
  Sc  Sc2_6  1  0.99996176  0.73981085  0.16661683  1
  Sc  Sc2_7  1  0.99996176  0.73981085  0.66661684  1
  Sc  Sc3_0  1  0.23984759  0.23980853  0.08338239  1
  Sc  Sc3_1  1  0.23984759  0.23980853  0.58338239  1
  Sc  Sc3_2  1  0.23984759  0.73980853  0.08338239  1
  Sc  Sc3_3  1  0.23984759  0.73980853  0.58338239  1
  Sc  Sc3_4  1  0.73984759  0.23980853  0.08338239  1
  Sc  Sc3_5  1  0.73984759  0.23980853  0.58338239  1
  Sc  Sc3_6  1  0.73984759  0.73980853  0.08338239  1
  Sc  Sc3_7  1  0.73984759  0.73980853  0.58338239  1
  Sc  Sc4_0  1  0.00003824  0.26018915  0.41661684  1
  Sc  Sc4_1  1  0.00003824  0.26018915  0.91661684  1
  Sc  Sc4_2  1  0.00003824  0.76018915  0.41661684  1
  Sc  Sc4_3  1  0.00003824  0.76018915  0.91661684  1
  Sc  Sc4_4  1  0.50003824  0.26018915  0.41661684  1
  Sc  Sc4_5  1  0.50003824  0.26018915  0.91661684  1
  Sc  Sc4_6  1  0.50003824  0.76018915  0.41661684  1
  Sc  Sc4_7  1  0.50003824  0.76018915  0.91661684  1
  Sc  Sc5_0  1  0.26015242  0.26019147  0.33338239  1
  Sc  Sc5_1  1  0.26015242  0.26019147  0.83338239  1
  Sc  Sc5_2  1  0.26015242  0.76019147  0.33338239  1
  Sc  Sc5_3  1  0.26015242  0.76019147  0.83338239  1
  Sc  Sc5_4  1  0.76015241  0.26019147  0.33338239  1
  Sc  Sc5_5  1  0.76015241  0.26019147  0.83338239  1
  Sc  Sc5_6  1  0.76015241  0.76019147  0.33338239  1
  Sc  Sc5_7  1  0.76015241  0.76019147  0.83338239  1
loop_
_geom_bond_atom_site_label_1
_geom_bond_atom_site_label_2
_geom_bond_distance
_geom_bond_site_symmetry_2
Sc0_0 Sc5_2 3.139617 1_545
Sc0_0 Sc2_0 3.139672 1_555
Sc0_0 Sc5_0 3.206178 1_555
Sc0_0 Sc2_6 3.206224 1_445
Sc0_0 Sc0_6 3.245040 1_555
Sc0_0 Sc0_6 3.245040 1_445
Sc0_0 Sc0_2 3.245099 1_545
Sc0_0 Sc0_2 3.245099 1_555
Sc0_0 Sc0_4 3.247667 1_555
Sc0_0 Sc0_4 3.247667 1_455
Sc0_1 Sc5_3 3.139617 1_545
Sc0_1 Sc2_1 3.139672 1_555
Sc0_1 Sc5_1 3.206178 1_555
Sc0_1 Sc2_7 3.206224 1_445
Sc0_1 Sc0_7 3.245040 1_445
Sc0_1 Sc0_7 3.245040 1_555
Sc0_1 Sc0_3 3.245099 1_545
Sc0_1 Sc0_3 3.245099 1_555
Sc0_1 Sc0_5 3.247667 1_555
Sc0_1 Sc0_5 3.247667 1_455
Sc0_2 Sc5_0 3.139617 1_555
Sc0_2 Sc2_2 3.139672 1_555
Sc0_2 Sc5_2 3.206178 1_555
Sc0_2 Sc2_4 3.206224 1_455
Sc0_2 Sc0_4 3.245040 1_455
Sc0_2 Sc0_4 3.245040 1_565
Sc0_2 Sc0_6 3.247667 1_455
Sc0_2 Sc0_6 3.247667 1_555
Sc0_3 Sc5_1 3.139617 1_555
Sc0_3 Sc2_3 3.139672 1_555
Sc0_3 Sc5_3 3.206178 1_555
Sc0_3 Sc2_5 3.206224 1_455
Sc0_3 Sc0_5 3.245040 1_455
Sc0_3 Sc0_5 3.245040 1_565
Sc0_3 Sc0_7 3.247667 1_555
Sc0_3 Sc0_7 3.247667 1_455
Sc0_4 Sc5_6 3.139617 1_545
Sc0_4 Sc2_4 3.139672 1_555
Sc0_4 Sc5_4 3.206178 1_555
Sc0_4 Sc2_2 3.206224 1_545
Sc0_4 Sc0_6 3.245099 1_545
Sc0_4 Sc0_6 3.245099 1_555
Sc0_5 Sc5_7 3.139617 1_545
Sc0_5 Sc2_5 3.139672 1_555
Sc0_5 Sc5_5 3.206178 1_555
Sc0_5 Sc2_3 3.206224 1_545
Sc0_5 Sc0_7 3.245099 1_545
Sc0_5 Sc0_7 3.245099 1_555
Sc0_6 Sc5_4 3.139617 1_555
Sc0_6 Sc2_6 3.139672 1_555
Sc0_6 Sc5_6 3.206178 1_555
Sc0_6 Sc2_0 3.206224 1_555
Sc0_7 Sc5_5 3.139617 1_555
Sc0_7 Sc2_7 3.139672 1_555
Sc0_7 Sc5_7 3.206178 1_555
Sc0_7 Sc2_1 3.206224 1_555
Sc1_0 Sc3_0 3.139617 1_565
Sc1_0 Sc4_3 3.139672 1_554
Sc1_0 Sc3_2 3.206178 1_555
Sc1_0 Sc4_5 3.206224 1_564
Sc1_0 Sc1_6 3.245040 1_565
Sc1_0 Sc1_6 3.245040 1_455
Sc1_0 Sc1_2 3.245099 1_565
Sc1_0 Sc1_2 3.245099 1_555
Sc1_0 Sc1_4 3.247667 1_555
Sc1_0 Sc1_4 3.247667 1_455
Sc1_1 Sc3_1 3.139617 1_565
Sc1_1 Sc4_2 3.139672 1_555
Sc1_1 Sc3_3 3.206178 1_555
Sc1_1 Sc4_4 3.206224 1_565
Sc1_1 Sc1_7 3.245040 1_565
Sc1_1 Sc1_7 3.245040 1_455
Sc1_1 Sc1_3 3.245099 1_555
Sc1_1 Sc1_3 3.245099 1_565
Sc1_1 Sc1_5 3.247667 1_555
Sc1_1 Sc1_5 3.247667 1_455
Sc1_2 Sc3_2 3.139617 1_555
Sc1_2 Sc4_1 3.139672 1_554
Sc1_2 Sc3_0 3.206178 1_555
Sc1_2 Sc4_7 3.206224 1_554
Sc1_2 Sc1_4 3.245040 1_555
Sc1_2 Sc1_4 3.245040 1_445
Sc1_2 Sc1_6 3.247667 1_555
Sc1_2 Sc1_6 3.247667 1_455
Sc1_3 Sc3_3 3.139617 1_555
Sc1_3 Sc4_0 3.139672 1_555
Sc1_3 Sc3_1 3.206178 1_555
Sc1_3 Sc4_6 3.206224 1_555
Sc1_3 Sc1_5 3.245040 1_555
Sc1_3 Sc1_5 3.245040 1_445
Sc1_3 Sc1_7 3.247667 1_555
Sc1_3 Sc1_7 3.247667 1_455
Sc1_4 Sc3_4 3.139617 1_565
Sc1_4 Sc4_7 3.139672 1_554
Sc1_4 Sc3_6 3.206178 1_555
Sc1_4 Sc4_1 3.206224 1_664
Sc1_4 Sc1_6 3.245099 1_555
Sc1_4 Sc1_6 3.245099 1_565
Sc1_5 Sc3_5 3.139617 1_565
Sc1_5 Sc4_6 3.139672 1_555
Sc1_5 Sc3_7 3.206178 1_555
Sc1_5 Sc4_0 3.206224 1_665
Sc1_5 Sc1_7 3.245099 1_555
Sc1_5 Sc1_7 3.245099 1_565
Sc1_6 Sc3_6 3.139617 1_555
Sc1_6 Sc4_5 3.139672 1_554
Sc1_6 Sc3_4 3.206178 1_555
Sc1_6 Sc4_3 3.206224 1_654
Sc1_7 Sc3_7 3.139617 1_555
Sc1_7 Sc4_4 3.139672 1_555
Sc1_7 Sc3_5 3.206178 1_555
Sc1_7 Sc4_2 3.206224 1_655
Sc2_0 Sc3_4 3.135776 1_555
Sc2_0 Sc3_0 3.203085 1_555
Sc2_0 Sc2_6 3.245040 1_555
Sc2_0 Sc2_6 3.245040 1_445
Sc2_0 Sc2_2 3.245099 1_545
Sc2_0 Sc2_2 3.245099 1_555
Sc2_0 Sc2_4 3.247667 1_555
Sc2_0 Sc2_4 3.247667 1_455
Sc2_1 Sc3_5 3.135776 1_555
Sc2_1 Sc3_1 3.203085 1_555
Sc2_1 Sc2_7 3.245040 1_555
Sc2_1 Sc2_7 3.245040 1_445
Sc2_1 Sc2_3 3.245099 1_545
Sc2_1 Sc2_3 3.245099 1_555
Sc2_1 Sc2_5 3.247667 1_455
Sc2_1 Sc2_5 3.247667 1_555
Sc2_2 Sc3_6 3.135776 1_555
Sc2_2 Sc3_2 3.203085 1_555
Sc2_2 Sc2_4 3.245040 1_455
Sc2_2 Sc2_4 3.245040 1_565
Sc2_2 Sc2_6 3.247667 1_455
Sc2_2 Sc2_6 3.247667 1_555
Sc2_3 Sc3_7 3.135776 1_555
Sc2_3 Sc3_3 3.203085 1_555
Sc2_3 Sc2_5 3.245040 1_565
Sc2_3 Sc2_5 3.245040 1_455
Sc2_3 Sc2_7 3.247667 1_555
Sc2_3 Sc2_7 3.247667 1_455
Sc2_4 Sc3_0 3.135776 1_655
Sc2_4 Sc3_4 3.203085 1_555
Sc2_4 Sc2_6 3.245099 1_545
Sc2_4 Sc2_6 3.245099 1_555
Sc2_5 Sc3_1 3.135776 1_655
Sc2_5 Sc3_5 3.203085 1_555
Sc2_5 Sc2_7 3.245099 1_555
Sc2_5 Sc2_7 3.245099 1_545
Sc2_6 Sc3_2 3.135776 1_655
Sc2_6 Sc3_6 3.203085 1_555
Sc2_7 Sc3_3 3.135776 1_655
Sc2_7 Sc3_7 3.203085 1_555
Sc3_0 Sc3_6 3.245040 1_445
Sc3_0 Sc3_6 3.245040 1_555
Sc3_0 Sc3_2 3.245099 1_545
Sc3_0 Sc3_2 3.245099 1_555
Sc3_0 Sc3_4 3.247667 1_455
Sc3_0 Sc3_4 3.247667 1_555
Sc3_1 Sc3_7 3.245040 1_445
Sc3_1 Sc3_7 3.245040 1_555
Sc3_1 Sc3_3 3.245099 1_545
Sc3_1 Sc3_3 3.245099 1_555
Sc3_1 Sc3_5 3.247667 1_455
Sc3_1 Sc3_5 3.247667 1_555
Sc3_2 Sc3_4 3.245040 1_565
Sc3_2 Sc3_4 3.245040 1_455
Sc3_2 Sc3_6 3.247667 1_555
Sc3_2 Sc3_6 3.247667 1_455
Sc3_3 Sc3_5 3.245040 1_455
Sc3_3 Sc3_5 3.245040 1_565
Sc3_3 Sc3_7 3.247667 1_555
Sc3_3 Sc3_7 3.247667 1_455
Sc3_4 Sc3_6 3.245099 1_545
Sc3_4 Sc3_6 3.245099 1_555
Sc3_5 Sc3_7 3.245099 1_545
Sc3_5 Sc3_7 3.245099 1_555
Sc4_0 Sc5_4 3.135776 1_455
Sc4_0 Sc5_0 3.203085 1_555
Sc4_0 Sc4_6 3.245040 1_555
Sc4_0 Sc4_6 3.245040 1_445
Sc4_0 Sc4_2 3.245099 1_545
Sc4_0 Sc4_2 3.245099 1_555
Sc4_0 Sc4_4 3.247667 1_555
Sc4_0 Sc4_4 3.247667 1_455
Sc4_1 Sc5_5 3.135776 1_455
Sc4_1 Sc5_1 3.203085 1_555
Sc4_1 Sc4_7 3.245040 1_555
Sc4_1 Sc4_7 3.245040 1_445
Sc4_1 Sc4_3 3.245099 1_555
Sc4_1 Sc4_3 3.245099 1_545
Sc4_1 Sc4_5 3.247667 1_555
Sc4_1 Sc4_5 3.247667 1_455
Sc4_2 Sc5_6 3.135776 1_455
Sc4_2 Sc5_2 3.203085 1_555
Sc4_2 Sc4_4 3.245040 1_565
Sc4_2 Sc4_4 3.245040 1_455
Sc4_2 Sc4_6 3.247667 1_455
Sc4_2 Sc4_6 3.247667 1_555
Sc4_3 Sc5_7 3.135776 1_455
Sc4_3 Sc5_3 3.203085 1_555
Sc4_3 Sc4_5 3.245040 1_565
Sc4_3 Sc4_5 3.245040 1_455
Sc4_3 Sc4_7 3.247667 1_455
Sc4_3 Sc4_7 3.247667 1_555
Sc4_4 Sc5_0 3.135776 1_555
Sc4_4 Sc5_4 3.203085 1_555
Sc4_4 Sc4_6 3.245099 1_555
Sc4_4 Sc4_6 3.245099 1_545
Sc4_5 Sc5_1 3.135776 1_555
Sc4_5 Sc5_5 3.203085 1_555
Sc4_5 Sc4_7 3.245099 1_555
Sc4_5 Sc4_7 3.245099 1_545
Sc4_6 Sc5_2 3.135776 1_555
Sc4_6 Sc5_6 3.203085 1_555
Sc4_7 Sc5_3 3.135776 1_555
Sc4_7 Sc5_7 3.203085 1_555
Sc5_0 Sc5_6 3.245040 1_555
Sc5_0 Sc5_6 3.245040 1_445
Sc5_0 Sc5_2 3.245099 1_545
Sc5_0 Sc5_2 3.245099 1_555
Sc5_0 Sc5_4 3.247667 1_555
Sc5_0 Sc5_4 3.247667 1_455
Sc5_1 Sc5_7 3.245040 1_445
Sc5_1 Sc5_7 3.245040 1_555
Sc5_1 Sc5_3 3.245099 1_545
Sc5_1 Sc5_3 3.245099 1_555
Sc5_1 Sc5_5 3.247667 1_555
Sc5_1 Sc5_5 3.247667 1_455
Sc5_2 Sc5_4 3.245040 1_565
Sc5_2 Sc5_4 3.245040 1_455
Sc5_2 Sc5_6 3.247667 1_455
Sc5_2 Sc5_6 3.247667 1_555
Sc5_3 Sc5_5 3.245040 1_565
Sc5_3 Sc5_5 3.245040 1_455
Sc5_3 Sc5_7 3.247667 1_455
Sc5_3 Sc5_7 3.247667 1_555
Sc5_4 Sc5_6 3.245099 1_555
Sc5_4 Sc5_6 3.245099 1_545
Sc5_5 Sc5_7 3.245099 1_555
Sc5_5 Sc5_7 3.245099 1_545
