# generated using pymatgen
data_U6Fe16Si7C
_symmetry_space_group_name_H-M   'P 1'
_cell_length_a   8.20720739
_cell_length_b   8.20720739
_cell_length_c   8.20720739
_cell_angle_alpha   60.00000000
_cell_angle_beta   60.00000000
_cell_angle_gamma   60.00000000
_symmetry_Int_Tables_number   1
_chemical_formula_structural   U6Fe16Si7C
_chemical_formula_sum   'U6 Fe16 Si7 C1'
_cell_volume   390.90500025
_cell_formula_units_Z   1
loop_
 _symmetry_equiv_pos_site_id
 _symmetry_equiv_pos_as_xyz
  1  'x, y, z'
loop_
 _atom_site_type_symbol
 _atom_site_label
 _atom_site_symmetry_multiplicity
 _atom_site_fract_x
 _atom_site_fract_y
 _atom_site_fract_z
 _atom_site_occupancy
  U  U0  1  0.21432200  0.21432200  0.78567800  1
  U  U1  1  0.78567800  0.21432200  0.78567800  1
  U  U2  1  0.78567800  0.78567800  0.21432200  1
  U  U3  1  0.78567800  0.21432200  0.21432200  1
  U  U4  1  0.21432200  0.78567800  0.78567800  1
  U  U5  1  0.21432200  0.78567800  0.21432200  1
  Fe  Fe0  1  0.37750500  0.86748500  0.37750500  1
  Fe  Fe1  1  0.82510600  0.82510600  0.82510600  1
  Fe  Fe2  1  0.52468200  0.82510600  0.82510600  1
  Fe  Fe3  1  0.47531800  0.17489400  0.17489400  1
  Fe  Fe4  1  0.82510600  0.52468200  0.82510600  1
  Fe  Fe5  1  0.82510600  0.82510600  0.52468200  1
  Fe  Fe6  1  0.17489400  0.17489400  0.47531800  1
  Fe  Fe7  1  0.13251500  0.62249500  0.62249500  1
  Fe  Fe8  1  0.17489400  0.47531800  0.17489400  1
  Fe  Fe9  1  0.62249500  0.62249500  0.62249500  1
  Fe  Fe10  1  0.86748500  0.37750500  0.37750500  1
  Fe  Fe11  1  0.62249500  0.13251500  0.62249500  1
  Fe  Fe12  1  0.62249500  0.62249500  0.13251500  1
  Fe  Fe13  1  0.17489400  0.17489400  0.17489400  1
  Fe  Fe14  1  0.37750500  0.37750500  0.37750500  1
  Fe  Fe15  1  0.37750500  0.37750500  0.86748500  1
  Si  Si0  1  0.50000000  0.50000000  0.00000000  1
  Si  Si1  1  0.50000000  0.50000000  0.50000000  1
  Si  Si2  1  0.50000000  0.00000000  0.50000000  1
  Si  Si3  1  0.00000000  0.00000000  0.50000000  1
  Si  Si4  1  0.00000000  0.50000000  0.50000000  1
  Si  Si5  1  0.00000000  0.50000000  0.00000000  1
  Si  Si6  1  0.50000000  0.00000000  0.00000000  1
  C  C0  1  0.00000000  0.00000000  0.00000000  1
loop_
_geom_bond_atom_site_label_1
_geom_bond_atom_site_label_2
_geom_bond_distance
_geom_bond_site_symmetry_2
Fe0 Si1 2.462575 1_555
Fe0 Fe13 2.504006 1_565
Fe0 Fe3 2.504006 1_565
Fe0 Fe6 2.504006 1_565
Fe0 Si6 2.530166 1_565
Fe0 Si3 2.530166 1_565
Fe0 Si2 2.530166 1_565
Fe0 U5 2.762277 1_555
Fe0 U4 2.762277 1_555
Fe0 U2 2.762277 1_555
Fe0 Fe7 2.843536 1_555
Fe0 Fe12 2.843536 1_555
Fe0 Fe9 2.843536 1_555
Fe1 Si6 2.374983 1_566
Fe1 Si3 2.374983 1_665
Fe1 Si5 2.374983 1_656
Fe1 Fe5 2.465642 1_555
Fe1 Fe4 2.465642 1_555
Fe1 Fe2 2.465642 1_555
Fe1 Fe7 2.504006 1_655
Fe1 Fe11 2.504006 1_565
Fe1 Fe12 2.504006 1_556
Fe1 U2 2.907029 1_556
Fe1 U1 2.907029 1_565
Fe1 U4 2.907029 1_655
Fe2 Si2 2.374983 1_565
Fe2 Si6 2.374983 1_566
Fe2 Si0 2.374983 1_556
Fe2 Fe5 2.465642 1_555
Fe2 Fe4 2.465642 1_555
Fe2 Fe9 2.504006 1_555
Fe2 U4 2.907029 1_555
Fe2 U0 2.907029 1_565
Fe2 U5 2.907029 1_556
Fe3 Si0 2.374983 1_555
Fe3 Si6 2.374983 1_555
Fe3 Si2 2.374983 1_555
Fe3 Fe8 2.465642 1_555
Fe3 Fe6 2.465642 1_555
Fe3 U2 2.907029 1_545
Fe3 U1 2.907029 1_554
Fe3 U3 2.907029 1_555
Fe4 Si0 2.374983 1_556
Fe4 Si4 2.374983 1_655
Fe4 Si5 2.374983 1_656
Fe4 Fe5 2.465642 1_555
Fe4 Fe7 2.504006 1_655
Fe4 Fe9 2.504006 1_555
Fe4 U1 2.907029 1_555
Fe4 U3 2.907029 1_556
Fe4 U0 2.907029 1_655
Fe5 Si4 2.374983 1_655
Fe5 Si2 2.374983 1_565
Fe5 Si3 2.374983 1_665
Fe5 Fe7 2.504006 1_655
Fe5 Fe9 2.504006 1_555
Fe5 U2 2.907029 1_555
Fe5 U5 2.907029 1_655
Fe5 U3 2.907029 1_565
Fe6 Si2 2.374983 1_555
Fe6 Si4 2.374983 1_555
Fe6 Si3 2.374983 1_555
Fe6 Fe8 2.465642 1_555
Fe6 U1 2.907029 1_455
Fe6 U4 2.907029 1_545
Fe6 U0 2.907029 1_555
Fe7 Si1 2.462575 1_555
Fe7 Si3 2.530166 1_565
Fe7 Si5 2.530166 1_556
Fe7 Si4 2.530166 1_555
Fe7 U4 2.762277 1_555
Fe7 U5 2.762277 1_555
Fe7 U0 2.762277 1_555
Fe8 Si0 2.374983 1_555
Fe8 Si4 2.374983 1_555
Fe8 Si5 2.374983 1_555
Fe8 U2 2.907029 1_455
Fe8 U4 2.907029 1_554
Fe8 U5 2.907029 1_555
Fe9 Si1 2.462575 1_555
Fe9 Si4 2.530166 1_655
Fe9 Si0 2.530166 1_556
Fe9 Si2 2.530166 1_565
Fe9 U1 2.762277 1_555
Fe9 U4 2.762277 1_555
Fe9 U2 2.762277 1_555
Fe10 Si1 2.462575 1_555
Fe10 Fe13 2.504006 1_655
Fe10 Fe8 2.504006 1_655
Fe10 Fe6 2.504006 1_655
Fe10 Si5 2.530166 1_655
Fe10 Si3 2.530166 1_655
Fe10 Si4 2.530166 1_655
Fe10 U3 2.762277 1_555
Fe10 U1 2.762277 1_555
Fe10 U2 2.762277 1_555
Fe10 Fe11 2.843536 1_555
Fe10 Fe12 2.843536 1_555
Fe10 Fe9 2.843536 1_555
Fe11 Si1 2.462575 1_555
Fe11 Fe5 2.504006 1_545
Fe11 Fe2 2.504006 1_545
Fe11 Si6 2.530166 1_556
Fe11 Si3 2.530166 1_655
Fe11 Si2 2.530166 1_555
Fe11 U1 2.762277 1_555
Fe11 U0 2.762277 1_555
Fe11 U3 2.762277 1_555
Fe11 Fe15 2.843536 1_555
Fe11 Fe14 2.843536 1_555
Fe12 Si1 2.462575 1_555
Fe12 Fe4 2.504006 1_554
Fe12 Fe2 2.504006 1_554
Fe12 Si6 2.530166 1_565
Fe12 Si0 2.530166 1_555
Fe12 Si5 2.530166 1_655
Fe12 U2 2.762277 1_555
Fe12 U5 2.762277 1_555
Fe12 U3 2.762277 1_555
Fe12 Fe14 2.843536 1_555
Fe13 Si6 2.374983 1_555
Fe13 Si5 2.374983 1_555
Fe13 Si3 2.374983 1_555
Fe13 Fe8 2.465642 1_555
Fe13 Fe6 2.465642 1_555
Fe13 Fe3 2.465642 1_555
Fe13 Fe15 2.504006 1_554
Fe13 U3 2.907029 1_455
Fe13 U5 2.907029 1_545
Fe13 U0 2.907029 1_554
Fe14 Si1 2.462575 1_555
Fe14 Fe6 2.504006 1_555
Fe14 Fe8 2.504006 1_555
Fe14 Fe3 2.504006 1_555
Fe14 Si2 2.530166 1_555
Fe14 Si0 2.530166 1_555
Fe14 Si4 2.530166 1_555
Fe14 U0 2.762277 1_555
Fe14 U5 2.762277 1_555
Fe14 U3 2.762277 1_555
Fe14 Fe7 2.843536 1_555
Fe15 Si1 2.462575 1_555
Fe15 Fe3 2.504006 1_556
Fe15 Fe8 2.504006 1_556
Fe15 Si5 2.530166 1_556
Fe15 Si6 2.530166 1_556
Fe15 Si0 2.530166 1_556
Fe15 U0 2.762277 1_555
Fe15 U1 2.762277 1_555
Fe15 U4 2.762277 1_555
Fe15 Fe7 2.843536 1_555
Fe15 Fe9 2.843536 1_555
Si0 U5 2.931086 1_555
Si0 U3 2.931086 1_555
Si0 U4 2.931086 1_554
Si0 U1 2.931086 1_554
Si2 U2 2.931086 1_545
Si2 U3 2.931086 1_555
Si2 U4 2.931086 1_545
Si2 U0 2.931086 1_555
Si3 U5 2.931086 1_545
Si3 U3 2.931086 1_455
Si3 U1 2.931086 1_455
Si3 U4 2.931086 1_545
Si4 U5 2.931086 1_555
Si4 U0 2.931086 1_555
Si4 U1 2.931086 1_455
Si4 U2 2.931086 1_455
Si5 U0 2.931086 1_554
Si5 U3 2.931086 1_455
Si5 U4 2.931086 1_554
Si5 U2 2.931086 1_455
Si6 U2 2.931086 1_545
Si6 U0 2.931086 1_554
Si6 U5 2.931086 1_545
Si6 U1 2.931086 1_554
C0 U2 2.487581 1_445
C0 U0 2.487581 1_554
C0 U5 2.487581 1_545
C0 U4 2.487581 1_544
C0 U3 2.487581 1_455
C0 U1 2.487581 1_454
