# generated using pymatgen
data_Yb3Si2ClO8
_symmetry_space_group_name_H-M   'P 1'
_cell_length_a   6.32344900
_cell_length_b   6.95484300
_cell_length_c   18.05788200
_cell_angle_alpha   90.00000000
_cell_angle_beta   90.00000000
_cell_angle_gamma   90.00000000
_symmetry_Int_Tables_number   1
_chemical_formula_structural   Yb3Si2ClO8
_chemical_formula_sum   'Yb12 Si8 Cl4 O32'
_cell_volume   794.16027928
_cell_formula_units_Z   4
loop_
 _symmetry_equiv_pos_site_id
 _symmetry_equiv_pos_as_xyz
  1  'x, y, z'
loop_
 _atom_site_type_symbol
 _atom_site_label
 _atom_site_symmetry_multiplicity
 _atom_site_fract_x
 _atom_site_fract_y
 _atom_site_fract_z
 _atom_site_occupancy
  Yb  Yb0  1  0.12532400  0.01533600  0.09284800  1
  Yb  Yb1  1  0.62532400  0.48466400  0.90715200  1
  Yb  Yb2  1  0.37467600  0.51533600  0.40715200  1
  Yb  Yb3  1  0.88707400  0.28783800  0.25000000  1
  Yb  Yb4  1  0.11292600  0.71216200  0.75000000  1
  Yb  Yb5  1  0.61292600  0.78783800  0.25000000  1
  Yb  Yb6  1  0.87467600  0.98466400  0.90715200  1
  Yb  Yb7  1  0.38707400  0.21216200  0.75000000  1
  Yb  Yb8  1  0.37467600  0.51533600  0.09284800  1
  Yb  Yb9  1  0.12532400  0.01533600  0.40715200  1
  Yb  Yb10  1  0.62532400  0.48466400  0.59284800  1
  Yb  Yb11  1  0.87467600  0.98466400  0.59284800  1
  Si  Si0  1  0.62549300  0.01844800  0.39886400  1
  Si  Si1  1  0.62549300  0.01844800  0.10113600  1
  Si  Si2  1  0.37450700  0.98155200  0.89886400  1
  Si  Si3  1  0.37450700  0.98155200  0.60113600  1
  Si  Si4  1  0.12549300  0.48155200  0.60113600  1
  Si  Si5  1  0.87450700  0.51844800  0.10113600  1
  Si  Si6  1  0.87450700  0.51844800  0.39886400  1
  Si  Si7  1  0.12549300  0.48155200  0.89886400  1
  Cl  Cl0  1  0.25986600  0.53668100  0.25000000  1
  Cl  Cl1  1  0.75986600  0.96331900  0.75000000  1
  Cl  Cl2  1  0.24013400  0.03668100  0.25000000  1
  Cl  Cl3  1  0.74013400  0.46331900  0.75000000  1
  O  O0  1  0.27844500  0.46222800  0.82579900  1
  O  O1  1  0.02538900  0.32992200  0.11645300  1
  O  O2  1  0.02538900  0.32992200  0.38354700  1
  O  O3  1  0.71648600  0.50637600  0.47005200  1
  O  O4  1  0.54546300  0.80589000  0.90719900  1
  O  O5  1  0.78351400  0.00637600  0.02994800  1
  O  O6  1  0.77844500  0.03777200  0.32579900  1
  O  O7  1  0.04546300  0.69411000  0.40719900  1
  O  O8  1  0.97461100  0.67007800  0.61645300  1
  O  O9  1  0.52538900  0.17007800  0.61645300  1
  O  O10  1  0.95453700  0.30589000  0.90719900  1
  O  O11  1  0.27844500  0.46222800  0.67420100  1
  O  O12  1  0.28351400  0.49362400  0.52994800  1
  O  O13  1  0.47461100  0.82992200  0.11645300  1
  O  O14  1  0.21648600  0.99362400  0.52994800  1
  O  O15  1  0.22155500  0.96222800  0.67420100  1
  O  O16  1  0.78351400  0.00637600  0.47005200  1
  O  O17  1  0.21648600  0.99362400  0.97005200  1
  O  O18  1  0.04546300  0.69411000  0.09280100  1
  O  O19  1  0.77844500  0.03777200  0.17420100  1
  O  O20  1  0.52538900  0.17007800  0.88354700  1
  O  O21  1  0.95453700  0.30589000  0.59280100  1
  O  O22  1  0.71648600  0.50637600  0.02994800  1
  O  O23  1  0.28351400  0.49362400  0.97005200  1
  O  O24  1  0.22155500  0.96222800  0.82579900  1
  O  O25  1  0.97461100  0.67007800  0.88354700  1
  O  O26  1  0.45453700  0.19411000  0.40719900  1
  O  O27  1  0.54546300  0.80589000  0.59280100  1
  O  O28  1  0.45453700  0.19411000  0.09280100  1
  O  O29  1  0.72155500  0.53777200  0.32579900  1
  O  O30  1  0.47461100  0.82992200  0.38354700  1
  O  O31  1  0.72155500  0.53777200  0.17420100  1
loop_
_geom_bond_atom_site_label_1
_geom_bond_atom_site_label_2
_geom_bond_distance
_geom_bond_site_symmetry_2
Cl0 Yb5 2.834691 1_555
Cl0 Yb3 2.924416 1_455
Cl0 Yb8 2.932985 1_555
Cl0 Yb2 2.932985 1_555
Cl1 Yb4 2.834691 1_655
Cl1 Yb7 2.924416 1_565
Cl1 Yb11 2.932985 1_555
Cl1 Yb6 2.932985 1_555
Cl2 Yb3 2.834691 1_455
Cl2 Yb5 2.924416 1_545
Cl2 Yb0 2.932985 1_555
Cl2 Yb9 2.932985 1_555
Cl3 Yb7 2.834691 1_555
Cl3 Yb4 2.924416 1_655
Cl3 Yb1 2.932985 1_555
Cl3 Yb10 2.932985 1_555
O0 Si7 1.641439 1_555
O0 Yb7 2.317345 1_555
O0 Yb4 2.447555 1_555
O0 Yb1 2.644582 1_555
O1 Si5 1.644981 1_455
O1 Yb0 2.316878 1_555
O1 Yb3 2.581925 1_455
O1 Yb8 2.592859 1_555
O2 Si6 1.644981 1_455
O2 Yb9 2.316878 1_555
O2 Yb3 2.581925 1_455
O2 Yb2 2.592859 1_555
O3 Si6 1.630352 1_555
O3 Yb10 2.296111 1_555
O3 Yb2 2.442488 1_555
O4 Si2 1.638242 1_555
O4 Yb1 2.290441 1_555
O4 Yb6 2.424797 1_555
O5 Si1 1.630352 1_555
O5 Yb6 2.296111 1_544
O5 Yb0 2.442488 1_655
O6 Si0 1.641439 1_555
O6 Yb3 2.317345 1_555
O6 Yb5 2.447555 1_545
O6 Yb9 2.644582 1_655
O7 Si6 1.638242 1_455
O7 Yb9 2.290441 1_565
O7 Yb2 2.424797 1_555
O8 Si4 1.644981 1_655
O8 Yb11 2.316878 1_555
O8 Yb4 2.581925 1_655
O8 Yb10 2.592859 1_555
O9 Si3 1.644981 1_545
O9 Yb10 2.316878 1_555
O9 Yb7 2.581925 1_555
O9 Yb11 2.592859 1_545
O10 Si7 1.638242 1_655
O10 Yb6 2.290441 1_545
O10 Yb1 2.424797 1_555
O11 Si4 1.641439 1_555
O11 Yb7 2.317345 1_555
O11 Yb4 2.447555 1_555
O11 Yb10 2.644582 1_555
O12 Si4 1.630352 1_555
O12 Yb2 2.296111 1_555
O12 Yb10 2.442488 1_555
O13 Si1 1.644981 1_565
O13 Yb8 2.316878 1_555
O13 Yb5 2.581925 1_555
O13 Yb0 2.592859 1_565
O14 Si3 1.630352 1_555
O14 Yb9 2.296111 1_565
O14 Yb11 2.442488 1_455
O15 Si3 1.641439 1_555
O15 Yb4 2.317345 1_555
O15 Yb7 2.447555 1_565
O15 Yb11 2.644582 1_455
O16 Si0 1.630352 1_555
O16 Yb11 2.296111 1_545
O16 Yb9 2.442488 1_655
O17 Si2 1.630352 1_555
O17 Yb0 2.296111 1_566
O17 Yb6 2.442488 1_455
O18 Si5 1.638242 1_455
O18 Yb0 2.290441 1_565
O18 Yb8 2.424797 1_555
O19 Si1 1.641439 1_555
O19 Yb3 2.317345 1_555
O19 Yb5 2.447555 1_545
O19 Yb0 2.644582 1_655
O20 Si2 1.644981 1_545
O20 Yb1 2.316878 1_555
O20 Yb7 2.581925 1_555
O20 Yb6 2.592859 1_545
O21 Si4 1.638242 1_655
O21 Yb11 2.290441 1_545
O21 Yb10 2.424797 1_555
O22 Si5 1.630352 1_555
O22 Yb1 2.296111 1_554
O22 Yb8 2.442488 1_555
O23 Si7 1.630352 1_555
O23 Yb8 2.296111 1_556
O23 Yb1 2.442488 1_555
O24 Si2 1.641439 1_555
O24 Yb4 2.317345 1_555
O24 Yb7 2.447555 1_565
O24 Yb6 2.644582 1_455
O25 Si7 1.644981 1_655
O25 Yb6 2.316878 1_555
O25 Yb4 2.581925 1_655
O25 Yb1 2.592859 1_555
O26 Si0 1.638242 1_555
O26 Yb2 2.290441 1_555
O26 Yb9 2.424797 1_555
O27 Si3 1.638242 1_555
O27 Yb10 2.290441 1_555
O27 Yb11 2.424797 1_555
O28 Si1 1.638242 1_555
O28 Yb8 2.290441 1_555
O28 Yb0 2.424797 1_555
O29 Si6 1.641439 1_555
O29 Yb5 2.317345 1_555
O29 Yb3 2.447555 1_555
O29 Yb2 2.644582 1_555
O30 Si0 1.644981 1_565
O30 Yb2 2.316878 1_555
O30 Yb5 2.581925 1_555
O30 Yb9 2.592859 1_565
O31 Si5 1.641439 1_555
O31 Yb5 2.317345 1_555
O31 Yb3 2.447555 1_555
O31 Yb8 2.644582 1_555
