# generated using pymatgen
data_K2LiAlP2
_symmetry_space_group_name_H-M   'P 1'
_cell_length_a   6.12420200
_cell_length_b   6.16256200
_cell_length_c   8.62913872
_cell_angle_alpha   110.92089248
_cell_angle_beta   110.78461461
_cell_angle_gamma   90.00000000
_symmetry_Int_Tables_number   1
_chemical_formula_structural   K2LiAlP2
_chemical_formula_sum   'K4 Li2 Al2 P4'
_cell_volume   281.39355427
_cell_formula_units_Z   2
loop_
 _symmetry_equiv_pos_site_id
 _symmetry_equiv_pos_as_xyz
  1  'x, y, z'
loop_
 _atom_site_type_symbol
 _atom_site_label
 _atom_site_symmetry_multiplicity
 _atom_site_fract_x
 _atom_site_fract_y
 _atom_site_fract_z
 _atom_site_occupancy
  K  K0  1  0.82684700  0.09954300  0.65369400  1
  K  K1  1  0.17315300  0.90045700  0.34630600  1
  K  K2  1  0.67315300  0.44584900  0.34630600  1
  K  K3  1  0.32684700  0.55415100  0.65369400  1
  Li  Li0  1  0.25000000  0.50000000  0.00000000  1
  Li  Li1  1  0.75000000  0.50000000  0.00000000  1
  Al  Al0  1  0.25000000  0.00000000  0.00000000  1
  Al  Al1  1  0.75000000  0.00000000  0.00000000  1
  P  P0  1  0.91163600  0.69058300  0.82327300  1
  P  P1  1  0.41163600  0.13269000  0.82327200  1
  P  P2  1  0.58836400  0.86731000  0.17672800  1
  P  P3  1  0.08836400  0.30941700  0.17672700  1
loop_
_geom_bond_atom_site_label_1
_geom_bond_atom_site_label_2
_geom_bond_distance
_geom_bond_site_symmetry_2
K0 P0 3.295002 1_545
K0 P1 3.328117 1_555
K0 P1 3.328117 1_655
K0 P0 3.366273 1_555
K0 P2 3.556446 1_545
K1 P3 3.295002 1_565
K1 P2 3.328117 1_555
K1 P2 3.328117 1_455
K1 P3 3.366273 1_555
K1 P1 3.556446 1_565
K2 P2 3.295002 1_545
K2 P3 3.328118 1_555
K2 P3 3.328123 1_655
K2 P2 3.366267 1_555
K2 P0 3.556454 1_555
K3 P1 3.295002 1_565
K3 P0 3.328118 1_555
K3 P0 3.328123 1_455
K3 P1 3.366267 1_555
K3 P3 3.556454 1_555
Li0 P3 2.652434 1_555
Li0 P2 2.652437 1_555
Li0 P1 2.652437 1_554
Li0 P0 2.652437 1_454
Li1 P0 2.652434 1_554
Li1 P2 2.652437 1_555
Li1 P1 2.652437 1_554
Li1 P3 2.652437 1_655
Al0 P3 2.436411 1_555
Al0 P0 2.436415 1_444
Al0 P1 2.436419 1_554
Al0 P2 2.436419 1_545
Al1 P0 2.436411 1_544
Al1 P3 2.436415 1_655
Al1 P2 2.436419 1_545
Al1 P1 2.436419 1_554
