# generated using pymatgen
data_Mg7P2(HO2)8
_symmetry_space_group_name_H-M   'P 1'
_cell_length_a   11.74683000
_cell_length_b   5.31895700
_cell_length_c   10.60147642
_cell_angle_alpha   66.66735707
_cell_angle_beta   90.00000000
_cell_angle_gamma   90.00000000
_symmetry_Int_Tables_number   1
_chemical_formula_structural   Mg7P2(HO2)8
_chemical_formula_sum   'Mg14 P4 H16 O32'
_cell_volume   608.21997451
_cell_formula_units_Z   2
loop_
 _symmetry_equiv_pos_site_id
 _symmetry_equiv_pos_as_xyz
  1  'x, y, z'
loop_
 _atom_site_type_symbol
 _atom_site_label
 _atom_site_symmetry_multiplicity
 _atom_site_fract_x
 _atom_site_fract_y
 _atom_site_fract_z
 _atom_site_occupancy
  Mg  Mg0  1  0.50000000  0.00000000  0.50000000  1
  Mg  Mg1  1  0.00000000  0.00000000  0.00000000  1
  Mg  Mg2  1  0.67488500  0.95003100  0.28911000  1
  Mg  Mg3  1  0.82511500  0.95003100  0.78911000  1
  Mg  Mg4  1  0.32511500  0.04996900  0.71089000  1
  Mg  Mg5  1  0.17488500  0.04996900  0.21089000  1
  Mg  Mg6  1  0.92954100  0.74719400  0.50390600  1
  Mg  Mg7  1  0.57045900  0.74719400  0.00390600  1
  Mg  Mg8  1  0.07045900  0.25280600  0.49609400  1
  Mg  Mg9  1  0.42954100  0.25280600  0.99609400  1
  Mg  Mg10  1  0.71018600  0.25248900  0.00559700  1
  Mg  Mg11  1  0.78981400  0.25248900  0.50559700  1
  Mg  Mg12  1  0.28981400  0.74751100  0.99440300  1
  Mg  Mg13  1  0.21018600  0.74751100  0.49440300  1
  P  P0  1  0.08053000  0.68271700  0.78804700  1
  P  P1  1  0.41947000  0.68271700  0.28804700  1
  P  P2  1  0.91947000  0.31728300  0.21195300  1
  P  P3  1  0.58053000  0.31728300  0.71195300  1
  H  H0  1  0.52369800  0.30057400  0.19581900  1
  H  H1  1  0.97630200  0.30057400  0.69581900  1
  H  H2  1  0.47630200  0.69942600  0.80418100  1
  H  H3  1  0.02369800  0.69942600  0.30418100  1
  H  H4  1  0.37215400  0.65732300  0.64938200  1
  H  H5  1  0.12784600  0.65732300  0.14938200  1
  H  H6  1  0.62784600  0.34267700  0.35061800  1
  H  H7  1  0.87215400  0.34267700  0.85061800  1
  H  H8  1  0.83637300  0.67444200  0.30763900  1
  H  H9  1  0.66362700  0.67444200  0.80763900  1
  H  H10  1  0.16362700  0.32555800  0.69236100  1
  H  H11  1  0.33637300  0.32555800  0.19236100  1
  H  H12  1  0.75261500  0.74304200  0.12397600  1
  H  H13  1  0.74738500  0.74304200  0.62397600  1
  H  H14  1  0.24738500  0.25695800  0.87602400  1
  H  H15  1  0.25261500  0.25695800  0.37602400  1
  O  O0  1  0.79633800  0.66547200  0.39092300  1
  O  O1  1  0.70366200  0.66547200  0.89092300  1
  O  O2  1  0.20366200  0.33452800  0.60907700  1
  O  O3  1  0.29633800  0.33452800  0.10907700  1
  O  O4  1  0.07023700  0.81415200  0.62502200  1
  O  O5  1  0.42976300  0.81415200  0.12502200  1
  O  O6  1  0.92976300  0.18584800  0.37497800  1
  O  O7  1  0.57023700  0.18584800  0.87497800  1
  O  O8  1  0.34705600  0.83918400  0.58751500  1
  O  O9  1  0.15294400  0.83918400  0.08751500  1
  O  O10  1  0.65294400  0.16081600  0.41248500  1
  O  O11  1  0.84705600  0.16081600  0.91248500  1
  O  O12  1  0.19917500  0.75657000  0.82600200  1
  O  O13  1  0.30082500  0.75657000  0.32600200  1
  O  O14  1  0.80082500  0.24343000  0.17399800  1
  O  O15  1  0.69917500  0.24343000  0.67399800  1
  O  O16  1  0.56249200  0.31758500  0.11076600  1
  O  O17  1  0.93750800  0.31758500  0.61076600  1
  O  O18  1  0.43750800  0.68241500  0.88923400  1
  O  O19  1  0.06249200  0.68241500  0.38923400  1
  O  O20  1  0.68193600  0.84042600  0.12374600  1
  O  O21  1  0.81806400  0.84042600  0.62374600  1
  O  O22  1  0.31806400  0.15957400  0.87625400  1
  O  O23  1  0.18193600  0.15957400  0.37625400  1
  O  O24  1  0.98661200  0.79908100  0.85326800  1
  O  O25  1  0.51338800  0.79908100  0.35326800  1
  O  O26  1  0.01338800  0.20091900  0.14673200  1
  O  O27  1  0.48661200  0.20091900  0.64673200  1
  O  O28  1  0.06931900  0.36708600  0.83475500  1
  O  O29  1  0.43068100  0.36708600  0.33475500  1
  O  O30  1  0.93068100  0.63291400  0.16524500  1
  O  O31  1  0.56931900  0.63291400  0.66524500  1
loop_
_geom_bond_atom_site_label_1
_geom_bond_atom_site_label_2
_geom_bond_distance
_geom_bond_site_symmetry_2
Mg0 O10 2.047342 1_555
Mg0 O8 2.047342 1_545
Mg0 O31 2.198820 1_545
Mg0 O29 2.198820 1_555
Mg0 O27 2.214381 1_555
Mg0 O25 2.214381 1_545
Mg1 O9 2.047342 1_545
Mg1 O11 2.047342 1_454
Mg1 O28 2.198820 1_554
Mg1 O30 2.198820 1_445
Mg1 O26 2.214381 1_555
Mg1 O24 2.214381 1_444
Mg2 O10 2.048361 1_565
Mg2 O0 2.048713 1_555
Mg2 O20 2.056621 1_555
Mg2 O25 2.067266 1_555
Mg2 O14 2.145854 1_565
Mg3 O11 2.048361 1_565
Mg3 O1 2.048713 1_555
Mg3 O21 2.056621 1_555
Mg3 O24 2.067266 1_555
Mg3 O15 2.145854 1_565
Mg4 O8 2.048361 1_545
Mg4 O2 2.048713 1_555
Mg4 O22 2.056621 1_555
Mg4 O27 2.067266 1_555
Mg4 O12 2.145854 1_545
Mg5 O9 2.048361 1_545
Mg5 O3 2.048713 1_555
Mg5 O23 2.056621 1_555
Mg5 O26 2.067266 1_555
Mg5 O13 2.145854 1_545
Mg6 O21 2.018390 1_555
Mg6 O19 2.089858 1_655
Mg6 O17 2.112607 1_555
Mg6 O0 2.117637 1_555
Mg6 O6 2.187645 1_565
Mg6 O4 2.206645 1_655
Mg7 O20 2.018390 1_555
Mg7 O18 2.089858 1_554
Mg7 O16 2.112607 1_555
Mg7 O1 2.117637 1_554
Mg7 O7 2.187645 1_564
Mg7 O5 2.206645 1_555
Mg8 O23 2.018390 1_555
Mg8 O17 2.089858 1_455
Mg8 O19 2.112607 1_555
Mg8 O2 2.117637 1_555
Mg8 O4 2.187645 1_545
Mg8 O6 2.206645 1_455
Mg9 O22 2.018390 1_555
Mg9 O16 2.089858 1_556
Mg9 O18 2.112607 1_555
Mg9 O3 2.117637 1_556
Mg9 O5 2.187645 1_546
Mg9 O7 2.206645 1_555
Mg10 O11 2.044122 1_554
Mg10 O1 2.047844 1_554
Mg10 O14 2.062790 1_555
Mg10 O20 2.075602 1_545
Mg10 O16 2.163052 1_555
Mg10 O7 2.265964 1_554
Mg11 O10 2.044122 1_555
Mg11 O0 2.047844 1_555
Mg11 O15 2.062790 1_555
Mg11 O21 2.075602 1_545
Mg11 O17 2.163052 1_555
Mg11 O6 2.265964 1_555
Mg12 O9 2.044122 1_556
Mg12 O3 2.047844 1_556
Mg12 O12 2.062790 1_555
Mg12 O22 2.075602 1_565
Mg12 O18 2.163052 1_555
Mg12 O5 2.265964 1_556
Mg13 O8 2.044122 1_555
Mg13 O2 2.047844 1_555
Mg13 O13 2.062790 1_555
Mg13 O23 2.075602 1_565
Mg13 O19 2.163052 1_555
Mg13 O4 2.265964 1_555
H0 O16 0.981972 1_555
H1 O17 0.981972 1_555
H2 O18 0.981972 1_555
H3 O19 0.981972 1_555
H4 O8 0.974795 1_555
H5 O9 0.974795 1_555
H6 O10 0.974795 1_555
H7 O11 0.974795 1_555
H8 O0 0.984706 1_555
H9 O1 0.984706 1_555
H10 O2 0.984706 1_555
H11 O3 0.984706 1_555
H12 O20 0.978076 1_555
H13 O21 0.978076 1_555
H14 O22 0.978076 1_555
H15 O23 0.978076 1_555
O4 P0 1.591632 1_555
O5 P1 1.591632 1_555
O6 P2 1.591632 1_555
O7 P3 1.591632 1_555
O12 P0 1.543966 1_555
O13 P1 1.543966 1_555
O14 P2 1.543966 1_555
O15 P3 1.543966 1_555
O24 P0 1.554768 1_655
O25 P1 1.554768 1_555
O26 P2 1.554768 1_455
O27 P3 1.554768 1_555
O28 P0 1.556435 1_555
O29 P1 1.556435 1_555
O30 P2 1.556435 1_555
O31 P3 1.556435 1_555
