# generated using pymatgen
data_Rb2NbCuSe4
_symmetry_space_group_name_H-M   'P 1'
_cell_length_a   14.46854400
_cell_length_b   12.91482560
_cell_length_c   7.70575853
_cell_angle_alpha   85.14867078
_cell_angle_beta   62.79998488
_cell_angle_gamma   32.05134435
_symmetry_Int_Tables_number   1
_chemical_formula_structural   Rb2NbCuSe4
_chemical_formula_sum   'Rb4 Nb2 Cu2 Se8'
_cell_volume   521.26859519
_cell_formula_units_Z   2
loop_
 _symmetry_equiv_pos_site_id
 _symmetry_equiv_pos_as_xyz
  1  'x, y, z'
loop_
 _atom_site_type_symbol
 _atom_site_label
 _atom_site_symmetry_multiplicity
 _atom_site_fract_x
 _atom_site_fract_y
 _atom_site_fract_z
 _atom_site_occupancy
  Rb  Rb0  1  0.68025200  0.68002700  0.31508000  1
  Rb  Rb1  1  0.31972100  0.32487800  0.68471100  1
  Rb  Rb2  1  0.93826100  0.92035600  0.56434700  1
  Rb  Rb3  1  0.57036600  0.56882300  0.92620800  1
  Nb  Nb0  1  0.74188800  0.75726300  0.75255400  1
  Nb  Nb1  1  0.49533800  0.50353200  0.49797600  1
  Cu  Cu0  1  0.24488700  0.25182600  0.25685600  1
  Cu  Cu1  1  0.99709100  0.00383900  0.00780500  1
  Se  Se0  1  0.29774000  0.59519600  0.89520500  1
  Se  Se1  1  0.21205100  0.90220900  0.59237700  1
  Se  Se2  1  0.90158500  0.20593400  0.29976500  1
  Se  Se3  1  0.58536700  0.30121600  0.21859300  1
  Se  Se4  1  0.35693200  0.03048000  0.95039500  1
  Se  Se5  1  0.66702100  0.94454200  0.03380800  1
  Se  Se6  1  0.03763200  0.35217700  0.65228600  1
  Se  Se7  1  0.94845100  0.66090000  0.34810000  1
loop_
_geom_bond_atom_site_label_1
_geom_bond_atom_site_label_2
_geom_bond_distance
_geom_bond_site_symmetry_2
Rb0 Se6 3.626479 1_654
Rb0 Se4 3.640851 1_565
Rb0 Se6 3.669648 1_565
Rb0 Se1 3.680051 1_555
Rb0 Se4 3.706066 1_654
Rb0 Se2 3.781162 1_555
Rb0 Se5 3.797749 1_555
Rb0 Se7 3.801416 1_555
Rb1 Se5 3.573375 1_456
Rb1 Se7 3.598888 1_456
Rb1 Se7 3.601641 1_545
Rb1 Se3 3.652534 1_555
Rb1 Se0 3.677502 1_555
Rb1 Se5 3.717617 1_545
Rb1 Se4 3.893370 1_555
Rb1 Se6 3.914440 1_555
Rb2 Se3 3.547914 1_655
Rb2 Se0 3.659791 1_654
Rb2 Se0 3.685905 1_565
Rb2 Se5 3.704046 1_556
Rb2 Se3 3.710734 1_566
Rb2 Se7 3.729461 1_555
Rb2 Se2 3.800084 1_565
Rb2 Se1 3.872168 1_655
Rb3 Se2 3.583059 1_555
Rb3 Se2 3.632830 1_466
Rb3 Se1 3.652011 1_556
Rb3 Se1 3.654061 1_645
Rb3 Se4 3.683765 1_565
Rb3 Se6 3.725346 1_655
Rb3 Se0 3.781859 1_555
Rb3 Se3 3.863466 1_556
Nb0 Se4 2.372608 1_565
Nb0 Se6 2.447488 1_655
Nb0 Se5 2.453502 1_556
Nb0 Se7 2.455611 1_555
Nb1 Se3 2.403538 1_555
Nb1 Se0 2.412452 1_555
Nb1 Se1 2.444017 1_555
Nb1 Se2 2.478735 1_555
Cu0 Se6 2.383966 1_555
Cu0 Se4 2.482530 1_554
Cu0 Se7 2.502367 1_455
Cu0 Se5 2.544815 1_545
Cu1 Se2 2.412581 1_555
Cu1 Se0 2.436374 1_644
Cu1 Se3 2.510337 1_555
Cu1 Se1 2.516403 1_644
