# generated using pymatgen
data_Pr7Mn8O24
_symmetry_space_group_name_H-M   'P 1'
_cell_length_a   9.56846137
_cell_length_b   9.56846137
_cell_length_c   7.79020708
_cell_angle_alpha   65.94620757
_cell_angle_beta   65.94620757
_cell_angle_gamma   109.42638685
_symmetry_Int_Tables_number   1
_chemical_formula_structural   Pr7Mn8O24
_chemical_formula_sum   'Pr7 Mn8 O24'
_cell_volume   476.64448035
_cell_formula_units_Z   1
loop_
 _symmetry_equiv_pos_site_id
 _symmetry_equiv_pos_as_xyz
  1  'x, y, z'
loop_
 _atom_site_type_symbol
 _atom_site_label
 _atom_site_symmetry_multiplicity
 _atom_site_fract_x
 _atom_site_fract_y
 _atom_site_fract_z
 _atom_site_occupancy
  Pr  Pr0  1  0.39270200  0.89896000  0.96776900  1
  Pr  Pr1  1  0.11274300  0.11274300  0.53790400  1
  Pr  Pr2  1  0.38636300  0.88964100  0.47492000  1
  Pr  Pr3  1  0.89896000  0.39270200  0.96776900  1
  Pr  Pr4  1  0.61676900  0.61676900  0.52518800  1
  Pr  Pr5  1  0.88964100  0.38636300  0.47492000  1
  Pr  Pr6  1  0.61121000  0.61121000  0.01422500  1
  Mn  Mn0  1  0.75218500  0.00074300  0.00291900  1
  Mn  Mn1  1  0.49937500  0.25257600  0.49939500  1
  Mn  Mn2  1  0.75729400  0.00321900  0.49077100  1
  Mn  Mn3  1  0.25065500  0.49588100  0.99837300  1
  Mn  Mn4  1  0.00074300  0.75218500  0.00291900  1
  Mn  Mn5  1  0.00321900  0.75729400  0.49077100  1
  Mn  Mn6  1  0.25257600  0.49937500  0.49939500  1
  Mn  Mn7  1  0.49588100  0.25065500  0.99837300  1
  O  O0  1  0.74974400  0.04058700  0.72915700  1
  O  O1  1  0.58896800  0.08976400  0.50669600  1
  O  O2  1  0.24050900  0.01039700  0.75306600  1
  O  O3  1  0.01039700  0.24050900  0.75306600  1
  O  O4  1  0.45509000  0.24751200  0.27278600  1
  O  O5  1  0.65532300  0.15587700  0.01248100  1
  O  O6  1  0.84277200  0.84277200  0.98874500  1
  O  O7  1  0.25789900  0.55286100  0.71828800  1
  O  O8  1  0.04058700  0.74974400  0.72915700  1
  O  O9  1  0.48120600  0.77242900  0.21729300  1
  O  O10  1  0.27815500  0.97788200  0.23330700  1
  O  O11  1  0.89716400  0.89716400  0.53125900  1
  O  O12  1  0.08976400  0.58896800  0.50669600  1
  O  O13  1  0.73483900  0.51631500  0.77538800  1
  O  O14  1  0.51631500  0.73483900  0.77538800  1
  O  O15  1  0.94200600  0.71342700  0.29695700  1
  O  O16  1  0.71342700  0.94200600  0.29695700  1
  O  O17  1  0.15587700  0.65532300  0.01248100  1
  O  O18  1  0.37003400  0.37003400  0.97019200  1
  O  O19  1  0.55286100  0.25789900  0.71828800  1
  O  O20  1  0.97788200  0.27815500  0.23330700  1
  O  O21  1  0.77242900  0.48120600  0.21729300  1
  O  O22  1  0.43328700  0.43328700  0.46205500  1
  O  O23  1  0.24751200  0.45509000  0.27278600  1
loop_
_geom_bond_atom_site_label_1
_geom_bond_atom_site_label_2
_geom_bond_distance
_geom_bond_site_symmetry_2
Mn0 O16 1.954415 1_545
Mn0 O3 1.955834 1_654
Mn0 O6 1.994442 1_544
Mn0 O9 2.003133 1_545
Mn0 O5 2.004239 1_555
Mn0 O0 2.019373 1_554
Mn1 O2 1.966975 1_555
Mn1 O19 1.984229 1_555
Mn1 O22 1.985356 1_555
Mn1 O4 1.991020 1_555
Mn1 O1 2.005231 1_555
Mn1 O21 2.009935 1_555
Mn2 O16 1.967964 1_545
Mn2 O11 1.976621 1_545
Mn2 O20 1.988125 1_555
Mn2 O0 2.007711 1_555
Mn2 O14 2.019758 1_545
Mn2 O1 2.025663 1_555
Mn3 O18 1.931068 1_555
Mn3 O20 1.970481 1_456
Mn3 O7 1.986116 1_555
Mn3 O23 1.995686 1_556
Mn3 O14 2.000868 1_555
Mn3 O17 2.034150 1_556
Mn4 O15 1.954415 1_455
Mn4 O2 1.955834 1_564
Mn4 O6 1.994442 1_454
Mn4 O21 2.003133 1_455
Mn4 O17 2.004239 1_555
Mn4 O8 2.019373 1_554
Mn5 O15 1.967964 1_455
Mn5 O11 1.976621 1_455
Mn5 O10 1.988125 1_555
Mn5 O8 2.007711 1_555
Mn5 O13 2.019758 1_455
Mn5 O12 2.025663 1_555
Mn6 O3 1.966975 1_555
Mn6 O7 1.984229 1_555
Mn6 O22 1.985356 1_555
Mn6 O23 1.991020 1_555
Mn6 O12 2.005231 1_555
Mn6 O9 2.009935 1_555
Mn7 O18 1.931068 1_555
Mn7 O10 1.970481 1_546
Mn7 O19 1.986116 1_555
Mn7 O4 1.995686 1_556
Mn7 O13 2.000868 1_555
Mn7 O5 2.034150 1_556
O0 Pr5 2.492383 1_555
O0 Pr0 2.579388 1_545
O0 Pr6 3.179368 1_546
O1 Pr2 2.407182 1_545
O1 Pr0 2.576083 1_545
O1 Pr3 3.005863 1_554
O1 Pr5 3.131784 1_555
O2 Pr1 2.528201 1_555
O2 Pr0 2.760391 1_545
O2 Pr2 2.937057 1_545
O3 Pr1 2.528201 1_555
O3 Pr3 2.760391 1_455
O3 Pr5 2.937057 1_455
O4 Pr1 2.482500 1_555
O4 Pr6 2.602740 1_555
O4 Pr2 2.810706 1_545
O5 Pr3 2.423136 1_554
O5 Pr2 2.586648 1_545
O5 Pr5 2.992624 1_554
O6 Pr6 2.423906 1_556
O6 Pr1 2.539791 1_665
O7 Pr2 2.444315 1_555
O7 Pr3 2.559507 1_455
O7 Pr4 2.840873 1_555
O8 Pr2 2.492383 1_555
O8 Pr3 2.579388 1_455
O8 Pr6 3.179368 1_456
O9 Pr0 2.463113 1_554
O9 Pr2 2.671429 1_555
O9 Pr6 2.844506 1_555
O10 Pr0 2.454875 1_554
O10 Pr2 2.490443 1_555
O11 Pr1 2.419990 1_665
O11 Pr6 2.713822 1_556
O12 Pr5 2.407182 1_455
O12 Pr3 2.576083 1_455
O12 Pr0 3.005863 1_554
O12 Pr2 3.131784 1_555
O13 Pr6 2.446033 1_556
O13 Pr4 2.643747 1_555
O13 Pr3 2.796469 1_555
O13 Pr5 3.160777 1_555
O14 Pr6 2.446033 1_556
O14 Pr4 2.643747 1_555
O14 Pr0 2.796469 1_555
O14 Pr2 3.160777 1_555
O15 Pr4 2.436323 1_555
O15 Pr5 2.611650 1_555
O16 Pr4 2.436323 1_555
O16 Pr2 2.611650 1_555
O17 Pr0 2.423136 1_554
O17 Pr5 2.586648 1_455
O17 Pr2 2.992624 1_554
O18 Pr4 2.472663 1_555
O18 Pr6 2.918332 1_556
O19 Pr5 2.444315 1_555
O19 Pr0 2.559507 1_545
O19 Pr4 2.840873 1_555
O20 Pr3 2.454875 1_554
O20 Pr5 2.490443 1_555
O21 Pr3 2.463113 1_554
O21 Pr5 2.671429 1_555
O21 Pr6 2.844506 1_555
O22 Pr4 2.400811 1_555
O22 Pr6 2.521180 1_555
O23 Pr1 2.482500 1_555
O23 Pr6 2.602740 1_555
O23 Pr5 2.810706 1_455
