# generated using pymatgen
data_Li11MnAs6
_symmetry_space_group_name_H-M   'P 1'
_cell_length_a   14.17427309
_cell_length_b   13.52883515
_cell_length_c   7.36569028
_cell_angle_alpha   79.48435587
_cell_angle_beta   69.79020977
_cell_angle_gamma   30.72543436
_symmetry_Int_Tables_number   1
_chemical_formula_structural   Li11MnAs6
_chemical_formula_sum   'Li22 Mn2 As12'
_cell_volume   657.64793940
_cell_formula_units_Z   2
loop_
 _symmetry_equiv_pos_site_id
 _symmetry_equiv_pos_as_xyz
  1  'x, y, z'
loop_
 _atom_site_type_symbol
 _atom_site_label
 _atom_site_symmetry_multiplicity
 _atom_site_fract_x
 _atom_site_fract_y
 _atom_site_fract_z
 _atom_site_occupancy
  Li  Li0  1  0.72042400  0.44723800  0.03609000  1
  Li  Li1  1  0.20228100  0.96496000  0.54662900  1
  Li  Li2  1  0.96641300  0.20358500  0.28566100  1
  Li  Li3  1  0.28504000  0.04771900  0.96387000  1
  Li  Li4  1  0.04641500  0.28358700  0.70566000  1
  Li  Li5  1  0.36708300  0.13291700  0.36708300  1
  Li  Li6  1  0.45496100  0.71499200  0.79442700  1
  Li  Li7  1  0.13209100  0.36790900  0.13209100  1
  Li  Li8  1  0.80276200  0.52957600  0.45375200  1
  Li  Li9  1  0.45375200  0.21391000  0.80276200  1
  Li  Li10  1  0.53500800  0.79503900  0.21437900  1
  Li  Li11  1  0.21437900  0.45557300  0.53500800  1
  Li  Li12  1  0.54662900  0.28613000  0.20228100  1
  Li  Li13  1  0.61868500  0.88131500  0.61868500  1
  Li  Li14  1  0.96387000  0.70337100  0.28504000  1
  Li  Li15  1  0.70566000  0.96433900  0.04641500  1
  Li  Li16  1  0.03609000  0.79624800  0.72042400  1
  Li  Li17  1  0.79442700  0.03562100  0.45496100  1
  Li  Li18  1  0.11708300  0.88291700  0.11708300  1
  Li  Li19  1  0.88209100  0.11790900  0.88209100  1
  Li  Li20  1  0.28566100  0.54434000  0.96641300  1
  Li  Li21  1  0.36868500  0.63131500  0.36868500  1
  Mn  Mn0  1  0.87623400  0.62376600  0.87623400  1
  Mn  Mn1  1  0.62623400  0.37376600  0.62623400  1
  As  As0  1  0.51269400  0.48750700  0.95827600  1
  As  As1  1  0.95827600  0.04152300  0.51269400  1
  As  As2  1  0.08858400  0.07969000  0.91603500  1
  As  As3  1  0.17031000  0.16141600  0.33430900  1
  As  As4  1  0.58513300  0.56311200  0.43829200  1
  As  As5  1  0.20847700  0.29172400  0.76249300  1
  As  As6  1  0.33430900  0.33396500  0.17031000  1
  As  As7  1  0.68688800  0.66486700  0.83653600  1
  As  As8  1  0.76249300  0.73730600  0.20847700  1
  As  As9  1  0.43829200  0.41346400  0.58513300  1
  As  As10  1  0.83653600  0.81170800  0.68688800  1
  As  As11  1  0.91603500  0.91569100  0.08858400  1
loop_
_geom_bond_atom_site_label_1
_geom_bond_atom_site_label_2
_geom_bond_distance
_geom_bond_site_symmetry_2
As0 Mn1 2.309979 1_555
As0 Li20 2.565173 1_555
As0 Li6 2.567987 1_555
As0 Li19 2.591302 1_555
As0 Li12 2.727805 1_556
As0 Li0 2.754832 1_556
As0 Li18 2.758364 1_556
As0 Li21 2.854069 1_556
As1 Mn1 2.309979 1_555
As1 Li2 2.565163 1_555
As1 Li17 2.567976 1_555
As1 Li19 2.591302 1_555
As1 Li1 2.727805 1_645
As1 Li16 2.754832 1_645
As1 Li18 2.758364 1_645
As1 Li21 2.854069 1_645
As2 Li6 2.542099 1_545
As2 Li0 2.558152 1_456
As2 Li18 2.562906 1_546
As2 Li4 2.571515 1_555
As2 Li3 2.572327 1_555
As2 Li1 2.573161 1_545
As2 Li2 2.576537 1_456
As2 Li19 2.598669 1_455
As3 Li10 2.542099 1_545
As3 Li8 2.558152 1_455
As3 Li5 2.562906 1_555
As3 Li2 2.571518 1_455
As3 Li1 2.572327 1_545
As3 Li3 2.573161 1_554
As3 Li4 2.576544 1_555
As3 Li7 2.598669 1_555
As4 Mn1 2.348366 1_555
As4 Li21 2.563980 1_555
As4 Li6 2.571529 1_555
As4 Li2 2.594994 1_555
As4 Li1 2.740647 1_555
As4 Li0 2.740965 1_555
As4 Li8 2.748099 1_555
As4 Li10 2.856234 1_555
As5 Mn0 2.309979 1_455
As5 Li4 2.565159 1_555
As5 Li11 2.567980 1_555
As5 Li7 2.591302 1_556
As5 Li3 2.727805 1_555
As5 Li9 2.754832 1_555
As5 Li5 2.758364 1_555
As5 Li13 2.854069 1_545
As6 Li11 2.542095 1_555
As6 Li9 2.558152 1_554
As6 Li5 2.562906 1_555
As6 Li20 2.571508 1_554
As6 Li12 2.572327 1_555
As6 Li14 2.573161 1_455
As6 Li15 2.576541 1_545
As6 Li7 2.598669 1_555
As7 Mn0 2.348369 1_555
As7 Li13 2.563976 1_555
As7 Li10 2.571529 1_556
As7 Li4 2.594993 1_655
As7 Li3 2.740647 1_565
As7 Li8 2.740958 1_555
As7 Li0 2.748102 1_556
As7 Li6 2.856227 1_555
As8 Mn0 2.309979 1_554
As8 Li15 2.565170 1_555
As8 Li10 2.567990 1_555
As8 Li7 2.591302 1_655
As8 Li14 2.727805 1_555
As8 Li8 2.754832 1_555
As8 Li5 2.758364 1_565
As8 Li13 2.854069 1_555
As9 Mn1 2.348355 1_555
As9 Li21 2.563970 1_555
As9 Li17 2.571529 1_555
As9 Li20 2.594989 1_555
As9 Li12 2.740652 1_555
As9 Li16 2.740963 1_555
As9 Li9 2.748110 1_555
As9 Li11 2.856255 1_555
As10 Mn0 2.348359 1_555
As10 Li13 2.563966 1_555
As10 Li11 2.571529 1_655
As10 Li15 2.595003 1_556
As10 Li14 2.740645 1_555
As10 Li9 2.740963 1_565
As10 Li16 2.748113 1_655
As10 Li17 2.856248 1_565
As11 Li17 2.542102 1_565
As11 Li16 2.558152 1_654
As11 Li18 2.562906 1_655
As11 Li15 2.571504 1_555
As11 Li14 2.572327 1_555
As11 Li12 2.573161 1_565
As11 Li20 2.576541 1_654
As11 Li19 2.598669 1_564
