# generated using pymatgen
data_Co6C13(SO6)2
_symmetry_space_group_name_H-M   'P 1'
_cell_length_a   9.36362255
_cell_length_b   9.36362255
_cell_length_c   16.02619711
_cell_angle_alpha   67.32964296
_cell_angle_beta   67.32964296
_cell_angle_gamma   60.26810443
_symmetry_Int_Tables_number   1
_chemical_formula_structural   Co6C13(SO6)2
_chemical_formula_sum   'Co12 C26 S4 O24'
_cell_volume   1092.28899572
_cell_formula_units_Z   2
loop_
 _symmetry_equiv_pos_site_id
 _symmetry_equiv_pos_as_xyz
  1  'x, y, z'
loop_
 _atom_site_type_symbol
 _atom_site_label
 _atom_site_symmetry_multiplicity
 _atom_site_fract_x
 _atom_site_fract_y
 _atom_site_fract_z
 _atom_site_occupancy
  Co  Co0  1  0.97338000  0.65888300  0.35067800  1
  Co  Co1  1  0.58413000  0.83253100  0.03261000  1
  Co  Co2  1  0.44495500  0.24348700  0.87715300  1
  Co  Co3  1  0.37130000  0.10371000  0.05882800  1
  Co  Co4  1  0.65679500  0.01784600  0.06291800  1
  Co  Co5  1  0.65888300  0.97338000  0.85067800  1
  Co  Co6  1  0.10371000  0.37130000  0.55882800  1
  Co  Co7  1  0.83253100  0.58413000  0.53261000  1
  Co  Co8  1  0.73199200  0.15450500  0.88195500  1
  Co  Co9  1  0.01784600  0.65679500  0.56291800  1
  Co  Co10  1  0.15450500  0.73199200  0.38195500  1
  Co  Co11  1  0.24348700  0.44495500  0.37715300  1
  C  C0  1  0.95508300  0.04824400  0.85321100  1
  C  C1  1  0.25751900  0.26953500  0.35468400  1
  C  C2  1  0.75319200  0.45893900  0.52253100  1
  C  C3  1  0.18094200  0.63536600  0.60237000  1
  C  C4  1  0.27758600  0.29068900  0.09726600  1
  C  C5  1  0.09816700  0.18260000  0.56505000  1
  C  C6  1  0.76984400  0.64246800  0.03671800  1
  C  C7  1  0.91130600  0.55213700  0.31008200  1
  C  C8  1  0.55213700  0.91130600  0.81008200  1
  C  C9  1  0.80556600  0.85891700  0.32884600  1
  C  C10  1  0.72257200  0.33658500  0.89641300  1
  C  C11  1  0.05674300  0.57349000  0.45992200  1
  C  C12  1  0.29068900  0.27758600  0.59726600  1
  C  C13  1  0.18260000  0.09816700  0.06505000  1
  C  C14  1  0.85891700  0.80556600  0.82884600  1
  C  C15  1  0.45836200  0.35770300  0.38300600  1
  C  C16  1  0.45893900  0.75319200  0.02253100  1
  C  C17  1  0.26953500  0.25751900  0.85468400  1
  C  C18  1  0.63536600  0.18094200  0.10237000  1
  C  C19  1  0.86847100  0.87953500  0.06759500  1
  C  C20  1  0.35770300  0.45836200  0.88300600  1
  C  C21  1  0.57349000  0.05674300  0.95992200  1
  C  C22  1  0.87953500  0.86847100  0.56759500  1
  C  C23  1  0.33658500  0.72257200  0.39641300  1
  C  C24  1  0.04824400  0.95508300  0.35321100  1
  C  C25  1  0.64246800  0.76984400  0.53671800  1
  S  S0  1  0.65746800  0.21022000  0.75782500  1
  S  S1  1  0.21022000  0.65746800  0.25782500  1
  S  S2  1  0.90029700  0.49145000  0.66333800  1
  S  S3  1  0.49145000  0.90029700  0.16333800  1
  O  O0  1  0.37303700  0.70125800  0.01650500  1
  O  O1  1  0.10129500  0.98146400  0.83125400  1
  O  O2  1  0.87012400  0.48830400  0.27971200  1
  O  O3  1  0.99164400  0.69608200  0.81404800  1
  O  O4  1  0.48830400  0.87012400  0.77971200  1
  O  O5  1  0.89176000  0.51786800  0.03895100  1
  O  O6  1  0.05649400  0.09425800  0.07050000  1
  O  O7  1  0.41671900  0.21257000  0.62354100  1
  O  O8  1  0.09425800  0.05649400  0.57050000  1
  O  O9  1  0.45934600  0.71386500  0.40721700  1
  O  O10  1  0.21257000  0.41671900  0.12354100  1
  O  O11  1  0.62339600  0.28705500  0.12918300  1
  O  O12  1  0.69608200  0.99164400  0.31404800  1
  O  O13  1  0.70125800  0.37303700  0.51650500  1
  O  O14  1  0.78683500  0.00384400  0.57069600  1
  O  O15  1  0.71386500  0.45934600  0.90721700  1
  O  O16  1  0.26943500  0.15124900  0.34043400  1
  O  O17  1  0.59898400  0.29954700  0.38496200  1
  O  O18  1  0.15124900  0.26943500  0.84043400  1
  O  O19  1  0.51786800  0.89176000  0.53895100  1
  O  O20  1  0.29954700  0.59898400  0.88496200  1
  O  O21  1  0.28705500  0.62339600  0.62918300  1
  O  O22  1  0.00384400  0.78683500  0.07069600  1
  O  O23  1  0.98146400  0.10129500  0.33125400  1
loop_
_geom_bond_atom_site_label_1
_geom_bond_atom_site_label_2
_geom_bond_distance
_geom_bond_site_symmetry_2
Co0 S1 2.138884 1_655
Co1 S3 2.149913 1_555
Co2 S0 2.150540 1_555
Co3 S3 2.136997 1_545
Co4 S3 2.145372 1_545
Co5 S0 2.138884 1_565
Co6 S2 2.136997 1_455
Co7 S2 2.149913 1_555
Co8 S0 2.150707 1_555
Co9 S2 2.145372 1_455
Co10 S1 2.150707 1_555
Co11 S1 2.150540 1_555
C0 O1 1.156850 1_645
C0 Co8 1.765166 1_555
C1 O16 1.159358 1_555
C1 Co11 1.746529 1_555
C2 O13 1.173391 1_555
C2 Co7 1.747683 1_555
C3 O21 1.168758 1_555
C3 Co9 1.764894 1_555
C4 O10 1.188872 1_555
C4 Co3 1.762277 1_555
C5 O8 1.167982 1_555
C5 Co6 1.756640 1_555
C6 O5 1.159272 1_555
C6 Co1 1.767434 1_555
C7 O2 1.157751 1_555
C7 Co0 1.768957 1_555
C8 O4 1.157751 1_555
C8 Co5 1.768957 1_555
C9 O12 1.161140 1_555
C9 Co0 1.760442 1_555
C10 O15 1.186396 1_555
C10 Co8 1.762910 1_555
C11 Co11 1.902865 1_555
C11 Co10 1.907431 1_555
C11 Co0 1.915489 1_455
C11 Co6 1.920533 1_555
C11 Co9 1.926914 1_555
C11 Co7 1.941990 1_455
C12 O7 1.188872 1_555
C12 Co6 1.762277 1_555
C13 O6 1.167982 1_555
C13 Co3 1.756640 1_555
C14 O3 1.161140 1_555
C14 Co5 1.760442 1_555
C15 O17 1.157044 1_555
C15 Co11 1.783369 1_555
C16 O0 1.173391 1_555
C16 Co1 1.747683 1_555
C17 O18 1.159358 1_555
C17 Co2 1.746529 1_555
C18 O11 1.168758 1_555
C18 Co4 1.764894 1_555
C19 O22 1.134300 1_655
C19 Co4 1.762102 1_565
C20 O20 1.157044 1_555
C20 Co2 1.783369 1_555
C21 Co2 1.902865 1_555
C21 Co8 1.907431 1_555
C21 Co5 1.915489 1_545
C21 Co3 1.920533 1_556
C21 Co4 1.926914 1_556
C21 Co1 1.941990 1_546
C22 O14 1.134300 1_565
C22 Co9 1.762102 1_655
C23 O9 1.186396 1_555
C23 Co10 1.762910 1_555
C24 O23 1.156850 1_465
C24 Co10 1.765166 1_555
C25 O19 1.159272 1_555
C25 Co7 1.767434 1_555
