# generated using pymatgen
data_TlV3(SeO6)2
_symmetry_space_group_name_H-M   'P 1'
_cell_length_a   7.09516912
_cell_length_b   7.09516912
_cell_length_c   11.55669746
_cell_angle_alpha   90.00000000
_cell_angle_beta   90.00000000
_cell_angle_gamma   119.99999767
_symmetry_Int_Tables_number   1
_chemical_formula_structural   TlV3(SeO6)2
_chemical_formula_sum   'Tl2 V6 Se4 O24'
_cell_volume   503.83680525
_cell_formula_units_Z   2
loop_
 _symmetry_equiv_pos_site_id
 _symmetry_equiv_pos_as_xyz
  1  'x, y, z'
loop_
 _atom_site_type_symbol
 _atom_site_label
 _atom_site_symmetry_multiplicity
 _atom_site_fract_x
 _atom_site_fract_y
 _atom_site_fract_z
 _atom_site_occupancy
  Tl  Tl0  1  0.66666700  0.33333300  0.46734329  1
  Tl  Tl1  1  0.33333300  0.66666700  0.96734329  1
  V  V0  1  0.79157288  0.66602785  0.10588760  1
  V  V1  1  0.66602785  0.87445397  0.60588760  1
  V  V2  1  0.33397215  0.12554603  0.10588760  1
  V  V3  1  0.87445397  0.20842712  0.10588760  1
  V  V4  1  0.12554603  0.79157288  0.60588760  1
  V  V5  1  0.20842712  0.33397215  0.60588760  1
  Se  Se0  1  -0.00000000  0.00000000  0.32690026  1
  Se  Se1  1  0.33333300  0.66666700  0.38031422  1
  Se  Se2  1  -0.00000000  0.00000000  0.82690026  1
  Se  Se3  1  0.66666700  0.33333300  0.88031422  1
  O  O0  1  0.41508744  0.21708167  0.94353229  1
  O  O1  1  0.08023380  0.54044040  0.63051246  1
  O  O2  1  0.12360970  0.25196657  0.07306947  1
  O  O3  1  0.87164313  0.12360970  0.57306947  1
  O  O4  1  0.87639030  0.74803343  0.57306947  1
  O  O5  1  0.74838146  0.86575080  0.76194927  1
  O  O6  1  0.78291833  0.19800477  0.94353229  1
  O  O7  1  0.25161854  0.13424920  0.26194927  1
  O  O8  1  0.58491256  0.78291833  0.44353229  1
  O  O9  1  0.11737034  0.25161854  0.76194927  1
  O  O10  1  0.53979440  0.08023380  0.13051246  1
  O  O11  1  0.25196657  0.12835687  0.57306947  1
  O  O12  1  0.80199523  0.58491256  0.94353229  1
  O  O13  1  0.45955960  0.53979440  0.63051246  1
  O  O14  1  0.21708167  0.80199523  0.44353229  1
  O  O15  1  0.86575080  0.11737034  0.26194927  1
  O  O16  1  0.88262966  0.74838146  0.26194927  1
  O  O17  1  0.91976620  0.45955960  0.13051246  1
  O  O18  1  0.19800477  0.41508744  0.44353229  1
  O  O19  1  0.74803343  0.87164313  0.07306947  1
  O  O20  1  0.12835687  0.87639030  0.07306947  1
  O  O21  1  0.13424920  0.88262966  0.76194927  1
  O  O22  1  0.46020560  0.91976620  0.63051246  1
  O  O23  1  0.54044040  0.46020560  0.13051246  1
loop_
_geom_bond_atom_site_label_1
_geom_bond_atom_site_label_2
_geom_bond_distance
_geom_bond_site_symmetry_2
O0 Se3 1.711144 1_555
O0 V2 1.974770 1_556
O1 V4 1.669252 1_555
O1 V5 2.094449 1_555
O2 V3 1.678777 1_455
O2 V2 2.124835 1_555
O2 Tl1 2.826012 1_554
O3 V1 1.678774 1_545
O3 V5 2.124840 1_655
O3 Tl0 2.826007 1_555
O4 V4 1.678777 1_655
O4 V1 2.124835 1_555
O4 Tl0 2.826012 1_555
O5 Se2 1.719716 1_665
O5 V1 1.906341 1_555
O6 Se3 1.711144 1_555
O6 V3 1.974768 1_556
O7 Se0 1.719716 1_555
O7 V2 1.906341 1_555
O8 Se1 1.711144 1_555
O8 V1 1.974770 1_555
O9 Se2 1.719716 1_555
O9 V5 1.906341 1_555
O10 V2 1.669266 1_555
O10 V3 2.094436 1_555
O11 V5 1.678770 1_555
O11 V4 2.124841 1_545
O11 Tl0 2.826012 1_555
O12 Se3 1.711144 1_555
O12 V0 1.974773 1_556
O13 V5 1.669257 1_555
O13 V1 2.094438 1_555
O14 Se1 1.711144 1_555
O14 V4 1.974768 1_555
O15 Se0 1.719721 1_655
O15 V3 1.906341 1_555
O16 Se0 1.719716 1_665
O16 V0 1.906341 1_555
O17 V3 1.669252 1_555
O17 V0 2.094449 1_555
O18 Se1 1.711144 1_555
O18 V5 1.974773 1_555
O19 V0 1.678770 1_555
O19 V3 2.124841 1_565
O19 Tl1 2.826012 1_554
O20 V2 1.678774 1_565
O20 V0 2.124840 1_455
O20 Tl1 2.826007 1_554
O21 Se2 1.719721 1_565
O21 V4 1.906341 1_555
O22 V1 1.669266 1_555
O22 V4 2.094436 1_555
O23 V0 1.669257 1_555
O23 V2 2.094438 1_555
