# generated using pymatgen
data_Fe3N
_symmetry_space_group_name_H-M   'P 1'
_cell_length_a   4.65689220
_cell_length_b   4.65689220
_cell_length_c   17.23102400
_cell_angle_alpha   90.00000000
_cell_angle_beta   90.00000000
_cell_angle_gamma   120.00000277
_symmetry_Int_Tables_number   1
_chemical_formula_structural   Fe3N
_chemical_formula_sum   'Fe24 N8'
_cell_volume   323.61904770
_cell_formula_units_Z   8
loop_
 _symmetry_equiv_pos_site_id
 _symmetry_equiv_pos_as_xyz
  1  'x, y, z'
loop_
 _atom_site_type_symbol
 _atom_site_label
 _atom_site_symmetry_multiplicity
 _atom_site_fract_x
 _atom_site_fract_y
 _atom_site_fract_z
 _atom_site_occupancy
  Fe  Fe0  1  0.00595400  0.33966100  0.93771600  1
  Fe  Fe1  1  0.99956200  0.32771100  0.18733400  1
  Fe  Fe2  1  0.00006200  0.32592800  0.68764800  1
  Fe  Fe3  1  0.33370700  0.33966100  0.06228400  1
  Fe  Fe4  1  0.32670500  0.32684200  0.56258900  1
  Fe  Fe5  1  0.32586600  0.32592800  0.31235200  1
  Fe  Fe6  1  0.32815000  0.32771100  0.81266600  1
  Fe  Fe7  1  0.66033900  0.66629300  0.93771600  1
  Fe  Fe8  1  0.67228900  0.67185000  0.18733400  1
  Fe  Fe9  1  0.67407200  0.67413400  0.68764800  1
  Fe  Fe10  1  0.67315800  0.67329500  0.43741100  1
  Fe  Fe11  1  0.33370700  0.99404600  0.93771600  1
  Fe  Fe12  1  0.32815000  0.00043800  0.18733400  1
  Fe  Fe13  1  0.32670500  0.99986300  0.43741100  1
  Fe  Fe14  1  0.32586600  0.99993800  0.68764800  1
  Fe  Fe15  1  0.66033900  0.99404600  0.06228400  1
  Fe  Fe16  1  0.67407200  0.99993800  0.31235200  1
  Fe  Fe17  1  0.67315800  0.99986300  0.56258900  1
  Fe  Fe18  1  0.67228900  0.00043800  0.81266600  1
  Fe  Fe19  1  0.00595400  0.66629300  0.06228400  1
  Fe  Fe20  1  0.00006200  0.67413400  0.31235200  1
  Fe  Fe21  1  0.00013700  0.67329500  0.56258900  1
  Fe  Fe22  1  0.99956200  0.67185000  0.81266600  1
  Fe  Fe23  1  0.00013700  0.32684200  0.43741100  1
  N  N0  1  0.33333300  0.66666700  0.24946100  1
  N  N1  1  0.33333300  0.66666700  0.50000000  1
  N  N2  1  0.33333300  0.66666700  0.75053900  1
  N  N3  1  0.00000000  0.00000000  0.00000000  1
  N  N4  1  0.66666700  0.33333300  0.12464900  1
  N  N5  1  0.66666700  0.33333300  0.37499800  1
  N  N6  1  0.66666700  0.33333300  0.62500200  1
  N  N7  1  0.66666700  0.33333300  0.87535100  1
loop_
_geom_bond_atom_site_label_1
_geom_bond_atom_site_label_2
_geom_bond_distance
_geom_bond_site_symmetry_2
Fe0 N7 1.898834 1_455
Fe0 N3 1.900180 1_556
Fe1 N0 1.897385 1_655
Fe1 N4 1.900326 1_555
Fe2 N6 1.905379 1_455
Fe2 N2 1.907424 1_555
Fe3 N4 1.898838 1_555
Fe3 N3 1.900180 1_555
Fe4 N6 1.901590 1_555
Fe4 N1 1.902526 1_555
Fe5 N5 1.905383 1_555
Fe5 N0 1.907426 1_555
Fe6 N2 1.897388 1_555
Fe6 N7 1.900326 1_555
Fe7 N7 1.898838 1_555
Fe7 N3 1.900180 1_666
Fe8 N0 1.897388 1_555
Fe8 N4 1.900326 1_555
Fe9 N6 1.905383 1_555
Fe9 N2 1.907426 1_555
Fe10 N5 1.901590 1_555
Fe10 N1 1.902526 1_555
Fe11 N7 1.898836 1_565
Fe11 N3 1.900180 1_566
Fe12 N0 1.897381 1_545
Fe12 N4 1.900326 1_555
Fe13 N5 1.901588 1_565
Fe13 N1 1.902522 1_555
Fe14 N6 1.905381 1_565
Fe14 N2 1.907422 1_555
Fe15 N4 1.898834 1_565
Fe15 N3 1.900180 1_665
Fe16 N5 1.905379 1_565
Fe16 N0 1.907424 1_555
Fe17 N6 1.901586 1_565
Fe17 N1 1.902524 1_555
Fe18 N2 1.897385 1_545
Fe18 N7 1.900326 1_555
Fe19 N4 1.898836 1_455
Fe19 N3 1.900180 1_565
Fe20 N5 1.905381 1_455
Fe20 N0 1.907422 1_555
Fe21 N6 1.901588 1_455
Fe21 N1 1.902522 1_555
Fe22 N2 1.897381 1_655
Fe22 N7 1.900326 1_555
Fe23 N5 1.901586 1_455
Fe23 N1 1.902524 1_555
