# generated using pymatgen
data_Ba20Y10Cu(Ru3O20)3
_symmetry_space_group_name_H-M   'P 1'
_cell_length_a   5.96972906
_cell_length_b   11.97234425
_cell_length_c   59.80977026
_cell_angle_alpha   60.01107950
_cell_angle_beta   60.06272252
_cell_angle_gamma   60.08997033
_symmetry_Int_Tables_number   1
_chemical_formula_structural   Ba20Y10Cu(Ru3O20)3
_chemical_formula_sum   'Ba40 Y20 Cu2 Ru18 O120'
_cell_volume   3026.40845535
_cell_formula_units_Z   2
loop_
 _symmetry_equiv_pos_site_id
 _symmetry_equiv_pos_as_xyz
  1  'x, y, z'
loop_
 _atom_site_type_symbol
 _atom_site_label
 _atom_site_symmetry_multiplicity
 _atom_site_fract_x
 _atom_site_fract_y
 _atom_site_fract_z
 _atom_site_occupancy
  Ba  Ba0  1  0.25231012  0.12543587  0.02445200  1
  Ba  Ba1  1  0.24995712  0.12477184  0.12505503  1
  Ba  Ba2  1  0.25608202  0.62916989  0.02294848  1
  Ba  Ba3  1  0.25010050  0.12515617  0.22494832  1
  Ba  Ba4  1  0.25039910  0.62517855  0.12488410  1
  Ba  Ba5  1  0.75038917  0.37637962  0.07464522  1
  Ba  Ba6  1  0.75015160  0.37494465  0.17498053  1
  Ba  Ba7  1  0.24999275  0.12513436  0.32497464  1
  Ba  Ba8  1  0.25004759  0.62507707  0.22497439  1
  Ba  Ba9  1  0.75177179  0.87443777  0.07475746  1
  Ba  Ba10  1  0.24996557  0.12505551  0.42499586  1
  Ba  Ba11  1  0.25006949  0.62504386  0.32497760  1
  Ba  Ba12  1  0.75007241  0.37496385  0.27499315  1
  Ba  Ba13  1  0.75001907  0.87488069  0.17501981  1
  Ba  Ba14  1  0.75004893  0.37488467  0.37501421  1
  Ba  Ba15  1  0.24987721  0.12505880  0.52501362  1
  Ba  Ba16  1  0.24997476  0.62501022  0.42500299  1
  Ba  Ba17  1  0.75006677  0.87500669  0.27498596  1
  Ba  Ba18  1  0.24946954  0.12364002  0.62537835  1
  Ba  Ba19  1  0.74997533  0.87497457  0.37501064  1
  Ba  Ba20  1  0.74992123  0.37486346  0.47504203  1
  Ba  Ba21  1  0.25000718  0.62512326  0.52497468  1
  Ba  Ba22  1  0.24823038  0.62546802  0.62526066  1
  Ba  Ba23  1  0.74997466  0.87494305  0.47501583  1
  Ba  Ba24  1  0.74997041  0.37519327  0.57496712  1
  Ba  Ba25  1  0.25402874  0.11589705  0.72601531  1
  Ba  Ba26  1  0.24933269  0.12523109  0.82508765  1
  Ba  Ba27  1  0.74774919  0.37448720  0.67555177  1
  Ba  Ba28  1  0.74957401  0.87480970  0.57512309  1
  Ba  Ba29  1  0.23890780  0.62948798  0.72632012  1
  Ba  Ba30  1  0.25608871  0.11730392  0.92532073  1
  Ba  Ba31  1  0.74367740  0.87083474  0.67709625  1
  Ba  Ba32  1  0.25548678  0.62752133  0.82339900  1
  Ba  Ba33  1  0.74376530  0.38286447  0.77467400  1
  Ba  Ba34  1  0.24069304  0.63035880  0.92579000  1
  Ba  Ba35  1  0.75065801  0.37476993  0.87491437  1
  Ba  Ba36  1  0.75953713  0.86951131  0.77419021  1
  Ba  Ba37  1  0.74611580  0.38392728  0.97399169  1
  Ba  Ba38  1  0.74464086  0.87252096  0.87656931  1
  Ba  Ba39  1  0.76079741  0.87061272  0.97371873  1
  Y  Y0  1  0.00540567  0.99852031  0.99921456  1
  Y  Y1  1  0.00091969  0.00056770  0.09970265  1
  Y  Y2  1  0.00064458  0.50458013  0.99895567  1
  Y  Y3  1  0.00013034  0.00015766  0.19994175  1
  Y  Y4  1  0.00158963  0.50044893  0.09959237  1
  Y  Y5  1  0.00005001  0.00001062  0.29998741  1
  Y  Y6  1  0.00038950  0.50003874  0.19991416  1
  Y  Y7  1  0.00003987  0.99999374  0.39999295  1
  Y  Y8  1  0.00002439  0.50004883  0.29998573  1
  Y  Y9  1  0.00000984  0.50003137  0.39999089  1
  Y  Y10  1  0.99966514  -0.00000505  0.50006769  1
  Y  Y11  1  0.99834440  0.99955088  0.60042053  1
  Y  Y12  1  0.99993002  0.49987861  0.50003857  1
  Y  Y13  1  0.00414669  0.99767113  0.79963629  1
  Y  Y14  1  0.99448356  0.50147881  0.70080822  1
  Y  Y15  1  0.99930299  0.99530832  0.70107767  1
  Y  Y16  1  0.99907360  0.49936305  0.60031308  1
  Y  Y17  1  0.00008646  0.99580060  0.90082311  1
  Y  Y18  1  0.99987143  0.50432904  0.79915976  1
  Y  Y19  1  0.99594513  0.50224741  0.90036073  1
  Cu  Cu0  1  0.49984388  0.75003622  0.75002206  1
  Cu  Cu1  1  0.50012167  0.74995087  0.94999048  1
  Ru  Ru0  1  0.50121960  0.25059896  0.04964583  1
  Ru  Ru1  1  0.50033856  0.75030652  0.04987350  1
  Ru  Ru2  1  0.50032917  0.25001411  0.14993261  1
  Ru  Ru3  1  0.49996098  0.25002119  0.25000483  1
  Ru  Ru4  1  0.50002562  0.74996535  0.15000692  1
  Ru  Ru5  1  0.50002593  0.25002463  0.34998446  1
  Ru  Ru6  1  0.50000589  0.74997587  0.25000208  1
  Ru  Ru7  1  0.50020275  0.24999266  0.44996193  1
  Ru  Ru8  1  0.50002661  0.75002473  0.34998409  1
  Ru  Ru9  1  0.50014994  0.75003633  0.44996579  1
  Ru  Ru10  1  0.49976715  0.25003391  0.55003880  1
  Ru  Ru11  1  0.50003194  0.75012060  0.54996296  1
  Ru  Ru12  1  0.49890630  0.24947750  0.65033000  1
  Ru  Ru13  1  0.50007412  0.24976180  0.75003143  1
  Ru  Ru14  1  0.49966994  0.74974916  0.65011857  1
  Ru  Ru15  1  0.49985735  0.24994306  0.85003446  1
  Ru  Ru16  1  0.49979690  0.25011711  0.95001690  1
  Ru  Ru17  1  0.49987186  0.74992728  0.85003504  1
  O  O0  1  0.26509211  0.13245250  0.07361451  1
  O  O1  1  0.26334071  0.36617896  0.02685402  1
  O  O2  1  0.73382490  0.13211155  0.02681266  1
  O  O3  1  0.26581939  0.36607843  0.07362043  1
  O  O4  1  0.73385717  0.13245407  0.07361494  1
  O  O5  1  0.73576372  0.36618052  0.02685351  1
  O  O6  1  0.26476211  0.63253264  0.07373510  1
  O  O7  1  0.26272771  0.86754864  0.02704531  1
  O  O8  1  0.26492638  0.13259569  0.17350801  1
  O  O9  1  0.26487517  0.36718120  0.12655831  1
  O  O10  1  0.73268205  0.63174468  0.02711474  1
  O  O11  1  0.73461008  0.13245967  0.12658541  1
  O  O12  1  0.26438814  0.86711573  0.07369965  1
  O  O13  1  0.26529443  0.36707965  0.17352595  1
  O  O14  1  0.73480185  0.13259040  0.17350897  1
  O  O15  1  0.73518541  0.36717612  0.12655891  1
  O  O16  1  0.73282739  0.63253410  0.07373499  1
  O  O17  1  0.73171962  0.86754920  0.02704525  1
  O  O18  1  0.26455223  0.86730224  0.12663313  1
  O  O19  1  0.26486196  0.36733058  0.22656006  1
  O  O20  1  0.26477796  0.63261202  0.17354075  1
  O  O21  1  0.26486367  0.13259086  0.27350511  1
  O  O22  1  0.73467151  0.13253076  0.22655889  1
  O  O23  1  0.73456186  0.63236629  0.12661393  1
  O  O24  1  0.26497529  0.86730212  0.17354505  1
  O  O25  1  0.26508806  0.36734982  0.27351254  1
  O  O26  1  0.73451052  0.86729795  0.12663450  1
  O  O27  1  0.73490306  0.13258711  0.27350614  1
  O  O28  1  0.73486968  0.36732629  0.22656109  1
  O  O29  1  0.73459556  0.63260638  0.17354155  1
  O  O30  1  0.26489992  0.13259169  0.37348016  1
  O  O31  1  0.26493371  0.36739856  0.32652127  1
  O  O32  1  0.26483870  0.63260546  0.27350722  1
  O  O33  1  0.26482778  0.86732647  0.22655870  1
  O  O34  1  0.73483812  0.13257671  0.32651730  1
  O  O35  1  0.73468112  0.63254895  0.22655344  1
  O  O36  1  0.26512706  0.36745181  0.37348432  1
  O  O37  1  0.26510246  0.86733833  0.27351214  1
  O  O38  1  0.73510909  0.13259021  0.37348045  1
  O  O39  1  0.73493110  0.86732221  0.22655972  1
  O  O40  1  0.73505611  0.36739441  0.32652204  1
  O  O41  1  0.73487760  0.63260248  0.27350790  1
  O  O42  1  0.26506094  0.13263847  0.47344445  1
  O  O43  1  0.26488967  0.63260842  0.37348048  1
  O  O44  1  0.26496493  0.86738246  0.32652087  1
  O  O45  1  0.26509793  0.36741051  0.42649323  1
  O  O46  1  0.73492730  0.13265083  0.42648389  1
  O  O47  1  0.26524675  0.36751536  0.47344832  1
  O  O48  1  0.73482735  0.63259191  0.32651623  1
  O  O49  1  0.26513573  0.86743721  0.37348526  1
  O  O50  1  0.73521897  0.13263906  0.47344463  1
  O  O51  1  0.73506788  0.86737715  0.32652170  1
  O  O52  1  0.73514029  0.36741081  0.42649350  1
  O  O53  1  0.73507975  0.63260680  0.37348066  1
  O  O54  1  0.26471225  0.13276668  0.57345206  1
  O  O55  1  0.26515726  0.36742189  0.52648895  1
  O  O56  1  0.26499941  0.63264216  0.47344587  1
  O  O57  1  0.26512602  0.86739514  0.42649118  1
  O  O58  1  0.26527429  0.36759529  0.57342679  1
  O  O59  1  0.73491677  0.63265929  0.42648442  1
  O  O60  1  0.26523780  0.86749782  0.47345361  1
  O  O61  1  0.73475740  0.13289119  0.52646981  1
  O  O62  1  0.73523376  0.13276745  0.57345255  1
  O  O63  1  0.73511173  0.36742227  0.52648886  1
  O  O64  1  0.73525380  0.63264355  0.47344588  1
  O  O65  1  0.73516437  0.86739699  0.42649129  1
  O  O66  1  0.26397417  0.13368000  0.67317649  1
  O  O67  1  0.26585985  0.36768239  0.62635855  1
  O  O68  1  0.26537858  0.63264507  0.57337699  1
  O  O69  1  0.26536512  0.86740604  0.52645600  1
  O  O70  1  0.73448736  0.13376161  0.62634993  1
  O  O71  1  0.26532263  0.86768602  0.57339852  1
  O  O72  1  0.26586257  0.36803419  0.67322044  1
  O  O73  1  0.73507363  0.63267017  0.52645060  1
  O  O74  1  0.73690488  0.13368014  0.67317651  1
  O  O75  1  0.73556095  0.63264551  0.57337716  1
  O  O76  1  0.73526490  0.86740642  0.52645616  1
  O  O77  1  0.73518472  0.36768054  0.62635908  1
  O  O78  1  0.26807090  0.63235418  0.67297472  1
  O  O79  1  0.26699583  0.86755203  0.62624564  1
  O  O80  1  0.26521471  0.13389806  0.77341977  1
  O  O81  1  0.26840349  0.36619235  0.72640113  1
  O  O82  1  0.26710834  0.86836264  0.67290548  1
  O  O83  1  0.73579502  0.63279761  0.62628065  1
  O  O84  1  0.26644419  0.36587839  0.77353612  1
  O  O85  1  0.73410812  0.13435272  0.72630657  1
  O  O86  1  0.73747839  0.63234942  0.67297553  1
  O  O87  1  0.73544356  0.86755005  0.62624609  1
  O  O88  1  0.73278501  0.13389382  0.77342097  1
  O  O89  1  0.73520010  0.36618836  0.72640219  1
  O  O90  1  0.26411251  0.13341002  0.87332399  1
  O  O91  1  0.26408150  0.63092543  0.77379703  1
  O  O92  1  0.26414787  0.36660566  0.82667358  1
  O  O93  1  0.26498948  0.86914144  0.72610162  1
  O  O94  1  0.26638554  0.36677632  0.87336792  1
  O  O95  1  0.73364069  0.13321292  0.82662943  1
  O  O96  1  0.73917010  0.63079020  0.72600900  1
  O  O97  1  0.26050000  0.86991338  0.77391772  1
  O  O98  1  0.73582174  0.13340667  0.87332475  1
  O  O99  1  0.73590098  0.36660397  0.82667405  1
  O  O100  1  0.73610254  0.63092175  0.77379689  1
  O  O101  1  0.73571765  0.86913739  0.72610140  1
  O  O102  1  0.26505334  0.13394356  0.97357253  1
  O  O103  1  0.26772458  0.63270862  0.87322533  1
  O  O104  1  0.26736645  0.36602822  0.92659450  1
  O  O105  1  0.26529963  0.86733977  0.82676689  1
  O  O106  1  0.26613458  0.36552295  0.97366835  1
  O  O107  1  0.73374329  0.63217562  0.82681585  1
  O  O108  1  0.26632746  0.86778307  0.87317846  1
  O  O109  1  0.73340669  0.13419711  0.92647869  1
  O  O110  1  0.73133215  0.13394247  0.97357282  1
  O  O111  1  0.73462566  0.36602855  0.92659532  1
  O  O112  1  0.73460238  0.63270746  0.87322639  1
  O  O113  1  0.73235205  0.86733591  0.82676749  1
  O  O114  1  0.26506586  0.63124782  0.97382174  1
  O  O115  1  0.26461930  0.86870594  0.92628028  1
  O  O116  1  0.26148025  0.86889004  0.97392645  1
  O  O117  1  0.73889020  0.63038230  0.92614500  1
  O  O118  1  0.73422053  0.63124619  0.97382174  1
  O  O119  1  0.73516641  0.86870649  0.92627948  1
loop_
_geom_bond_atom_site_label_1
_geom_bond_atom_site_label_2
_geom_bond_distance
_geom_bond_site_symmetry_2
Ba0 O110 2.956894 1_554
Ba0 O102 2.956919 1_554
Ba0 O106 2.958592 1_554
Ba0 O17 2.983218 1_545
Ba0 O7 2.983300 1_545
Ba0 O2 2.989085 1_555
Ba0 O2 2.989159 1_455
Ba0 O1 2.990828 1_555
Ba0 O5 2.990828 1_455
Ba0 O12 3.021427 1_545
Ba0 O0 3.022595 1_555
Ba0 O4 3.022671 1_455
Ba1 O3 2.986054 1_555
Ba1 O11 2.987649 1_555
Ba1 O11 2.987735 1_455
Ba1 O4 2.988360 1_555
Ba1 O0 2.988374 1_555
Ba1 O8 2.992178 1_555
Ba1 O14 2.992255 1_455
Ba1 O15 2.994172 1_455
Ba1 O9 2.994233 1_555
Ba1 O26 2.994609 1_545
Ba1 O18 2.994647 1_545
Ba1 O24 2.994667 1_545
Ba2 O114 2.899627 1_554
Ba2 O118 2.899681 1_554
Ba2 O116 2.901809 1_554
Ba2 O10 2.993394 1_455
Ba2 O10 2.993463 1_555
Ba2 O17 3.004659 1_455
Ba2 O7 3.004721 1_555
Ba2 O5 3.018106 1_555
Ba2 O1 3.018118 1_555
Ba2 O16 3.084180 1_455
Ba2 O6 3.084212 1_555
Ba2 O3 3.091942 1_555
Ba3 O22 2.987718 1_555
Ba3 O22 2.987736 1_455
Ba3 O13 2.989130 1_555
Ba3 O8 2.990581 1_555
Ba3 O14 2.990584 1_555
Ba3 O28 2.994315 1_455
Ba3 O19 2.994368 1_555
Ba3 O21 2.995263 1_555
Ba3 O27 2.995306 1_455
Ba3 O39 2.997676 1_545
Ba3 O33 2.997681 1_545
Ba3 O37 2.998948 1_545
Ba4 O6 2.974950 1_555
Ba4 O16 2.975004 1_555
Ba4 O12 2.981690 1_555
Ba4 O23 2.987888 1_555
Ba4 O23 2.987892 1_455
Ba4 O26 2.996139 1_455
Ba4 O18 2.996209 1_555
Ba4 O9 2.998603 1_555
Ba4 O15 2.998625 1_555
Ba4 O20 3.000012 1_555
Ba4 O29 3.000030 1_455
Ba4 O13 3.002921 1_555
Ba5 O10 2.954496 1_555
Ba5 O5 2.966764 1_555
Ba5 O1 2.966807 1_655
Ba5 O3 2.987856 1_555
Ba5 O3 2.987915 1_655
Ba5 O6 2.989416 1_555
Ba5 O16 2.989512 1_555
Ba5 O4 3.002572 1_555
Ba5 O0 3.002595 1_655
Ba5 O9 3.007920 1_555
Ba5 O15 3.007948 1_555
Ba5 O11 3.016760 1_555
Ba6 O13 2.987591 1_555
Ba6 O13 2.987649 1_655
Ba6 O15 2.989943 1_555
Ba6 O9 2.989996 1_655
Ba6 O23 2.990905 1_555
Ba6 O8 2.993865 1_655
Ba6 O14 2.993931 1_555
Ba6 O19 2.996680 1_555
Ba6 O28 2.996681 1_555
Ba6 O22 2.996829 1_555
Ba6 O20 2.998152 1_555
Ba6 O29 2.998165 1_555
Ba7 O34 2.987618 1_455
Ba7 O34 2.987631 1_555
Ba7 O25 2.992031 1_555
Ba7 O27 2.992094 1_555
Ba7 O21 2.992106 1_555
Ba7 O30 2.992797 1_555
Ba7 O38 2.992849 1_455
Ba7 O40 2.993883 1_455
Ba7 O31 2.993942 1_555
Ba7 O49 2.996689 1_545
Ba7 O44 2.997863 1_545
Ba7 O51 2.997875 1_545
Ba8 O35 2.987698 1_455
Ba8 O35 2.987707 1_555
Ba8 O20 2.989913 1_555
Ba8 O29 2.989946 1_555
Ba8 O24 2.991048 1_555
Ba8 O39 2.994373 1_455
Ba8 O33 2.994453 1_555
Ba8 O32 2.994513 1_555
Ba8 O41 2.994536 1_455
Ba8 O28 2.997124 1_555
Ba8 O19 2.997134 1_555
Ba8 O25 2.997652 1_555
Ba9 O17 2.958133 1_555
Ba9 O7 2.958169 1_655
Ba9 O2 2.980781 1_565
Ba9 O16 2.985772 1_555
Ba9 O6 2.985785 1_655
Ba9 O12 2.986770 1_555
Ba9 O12 2.986832 1_655
Ba9 O23 3.003755 1_555
Ba9 O0 3.004115 1_565
Ba9 O4 3.004199 1_565
Ba9 O18 3.011521 1_555
Ba9 O26 3.011567 1_555
Ba10 O46 2.987565 1_555
Ba10 O46 2.987597 1_455
Ba10 O42 2.990785 1_555
Ba10 O50 2.990812 1_455
Ba10 O52 2.994063 1_455
Ba10 O45 2.994071 1_555
Ba10 O38 2.994235 1_555
Ba10 O30 2.994239 1_555
Ba10 O60 2.994322 1_545
Ba10 O36 2.994614 1_555
Ba10 O65 2.997598 1_545
Ba10 O57 2.997671 1_545
Ba11 O48 2.987650 1_555
Ba11 O48 2.987661 1_455
Ba11 O41 2.991844 1_555
Ba11 O32 2.991850 1_555
Ba11 O37 2.992582 1_555
Ba11 O43 2.993044 1_555
Ba11 O53 2.993109 1_455
Ba11 O51 2.994502 1_455
Ba11 O44 2.994582 1_555
Ba11 O36 2.995913 1_555
Ba11 O40 2.996941 1_555
Ba11 O31 2.996961 1_555
Ba12 O25 2.987565 1_655
Ba12 O25 2.987583 1_555
Ba12 O28 2.990483 1_555
Ba12 O19 2.990507 1_655
Ba12 O35 2.993991 1_555
Ba12 O21 2.994055 1_655
Ba12 O27 2.994120 1_555
Ba12 O40 2.994611 1_555
Ba12 O31 2.994625 1_555
Ba12 O34 2.994961 1_555
Ba12 O32 2.997589 1_555
Ba12 O41 2.997597 1_555
Ba13 O24 2.987529 1_555
Ba13 O24 2.987574 1_655
Ba13 O26 2.988307 1_555
Ba13 O18 2.988388 1_655
Ba13 O20 2.993362 1_655
Ba13 O29 2.993420 1_555
Ba13 O11 2.993803 1_565
Ba13 O35 2.994950 1_555
Ba13 O33 2.995115 1_555
Ba13 O39 2.995131 1_555
Ba13 O8 2.997659 1_565
Ba13 O14 2.997667 1_565
Ba14 O36 2.987573 1_655
Ba14 O36 2.987623 1_555
Ba14 O46 2.992374 1_555
Ba14 O40 2.992478 1_555
Ba14 O52 2.992486 1_555
Ba14 O31 2.992491 1_655
Ba14 O45 2.992542 1_555
Ba14 O30 2.993797 1_655
Ba14 O38 2.993893 1_555
Ba14 O48 2.996399 1_555
Ba14 O53 2.997871 1_555
Ba14 O43 2.997898 1_555
Ba15 O61 2.987573 1_555
Ba15 O61 2.987649 1_455
Ba15 O54 2.990149 1_555
Ba15 O62 2.990212 1_455
Ba15 O71 2.991106 1_545
Ba15 O63 2.993918 1_455
Ba15 O55 2.993936 1_555
Ba15 O50 2.996492 1_555
Ba15 O42 2.996492 1_555
Ba15 O47 2.996655 1_555
Ba15 O76 2.998095 1_545
Ba15 O69 2.998152 1_545
Ba16 O59 2.987579 1_555
Ba16 O59 2.987599 1_455
Ba16 O56 2.990531 1_555
Ba16 O64 2.990566 1_455
Ba16 O47 2.993575 1_555
Ba16 O65 2.994193 1_455
Ba16 O57 2.994198 1_555
Ba16 O53 2.994346 1_555
Ba16 O43 2.994352 1_555
Ba16 O49 2.994982 1_555
Ba16 O52 2.997129 1_555
Ba16 O45 2.997192 1_555
Ba17 O37 2.987571 1_655
Ba17 O37 2.987593 1_555
Ba17 O39 2.990221 1_555
Ba17 O33 2.990254 1_655
Ba17 O22 2.993249 1_565
Ba17 O32 2.994153 1_655
Ba17 O41 2.994228 1_555
Ba17 O51 2.994732 1_555
Ba17 O44 2.994736 1_555
Ba17 O48 2.995311 1_555
Ba17 O21 2.997138 1_565
Ba17 O27 2.997140 1_565
Ba18 O82 2.953841 1_545
Ba18 O66 2.965742 1_555
Ba18 O74 2.965761 1_455
Ba18 O70 2.987713 1_555
Ba18 O70 2.987743 1_455
Ba18 O87 2.990009 1_545
Ba18 O79 2.990042 1_545
Ba18 O77 3.001932 1_455
Ba18 O67 3.001958 1_555
Ba18 O54 3.009020 1_555
Ba18 O62 3.009021 1_555
Ba18 O58 3.017319 1_555
Ba19 O49 2.987604 1_655
Ba19 O49 2.987651 1_555
Ba19 O65 2.992257 1_555
Ba19 O57 2.992303 1_555
Ba19 O51 2.992695 1_555
Ba19 O44 2.992735 1_655
Ba19 O59 2.992962 1_555
Ba19 O43 2.994410 1_655
Ba19 O53 2.994510 1_555
Ba19 O34 2.995602 1_565
Ba19 O38 2.996979 1_565
Ba19 O30 2.996985 1_565
Ba20 O47 2.987633 1_555
Ba20 O47 2.987738 1_655
Ba20 O61 2.989576 1_555
Ba20 O55 2.990999 1_555
Ba20 O63 2.991007 1_555
Ba20 O50 2.994324 1_555
Ba20 O42 2.994334 1_655
Ba20 O52 2.994939 1_555
Ba20 O45 2.994987 1_655
Ba20 O56 2.997580 1_555
Ba20 O64 2.997653 1_555
Ba20 O59 2.998634 1_555
Ba21 O73 2.987500 1_555
Ba21 O73 2.987583 1_455
Ba21 O68 2.988503 1_555
Ba21 O75 2.988557 1_455
Ba21 O76 2.993392 1_455
Ba21 O69 2.993411 1_555
Ba21 O58 2.993975 1_555
Ba21 O60 2.994793 1_555
Ba21 O64 2.994950 1_555
Ba21 O56 2.994958 1_555
Ba21 O63 2.997603 1_555
Ba21 O55 2.997658 1_555
Ba22 O78 2.957552 1_555
Ba22 O86 2.957593 1_455
Ba22 O72 2.979656 1_555
Ba22 O87 2.986148 1_455
Ba22 O79 2.986187 1_555
Ba22 O83 2.986717 1_555
Ba22 O83 2.986786 1_455
Ba22 O77 3.003448 1_555
Ba22 O67 3.003498 1_555
Ba22 O71 3.004753 1_555
Ba22 O68 3.012069 1_555
Ba22 O75 3.012077 1_555
Ba23 O60 2.987622 1_555
Ba23 O60 2.987702 1_655
Ba23 O69 2.990351 1_555
Ba23 O76 2.990361 1_555
Ba23 O73 2.991489 1_555
Ba23 O65 2.994190 1_555
Ba23 O57 2.994228 1_655
Ba23 O56 2.994396 1_655
Ba23 O64 2.994410 1_555
Ba23 O42 2.997028 1_565
Ba23 O50 2.997100 1_565
Ba23 O46 2.997355 1_565
Ba24 O70 2.985113 1_555
Ba24 O77 2.987393 1_555
Ba24 O67 2.987406 1_555
Ba24 O58 2.987652 1_555
Ba24 O58 2.987702 1_655
Ba24 O63 2.993004 1_555
Ba24 O55 2.993036 1_655
Ba24 O54 2.994206 1_655
Ba24 O62 2.994216 1_555
Ba24 O68 2.994576 1_555
Ba24 O75 2.994627 1_555
Ba24 O73 2.995456 1_555
Ba25 O97 2.906071 1_545
Ba25 O101 2.919612 1_545
Ba25 O93 2.919619 1_545
Ba25 O80 2.983907 1_555
Ba25 O88 2.983996 1_455
Ba25 O85 2.991315 1_555
Ba25 O85 2.991413 1_455
Ba25 O66 3.031325 1_555
Ba25 O74 3.031348 1_555
Ba25 O89 3.052032 1_455
Ba25 O81 3.052080 1_555
Ba25 O72 3.090215 1_555
Ba26 O90 2.980891 1_555
Ba26 O98 2.980967 1_455
Ba26 O108 2.983384 1_545
Ba26 O99 2.984128 1_455
Ba26 O92 2.984151 1_555
Ba26 O84 2.986088 1_555
Ba26 O95 2.987816 1_555
Ba26 O95 2.987830 1_455
Ba26 O113 2.993015 1_545
Ba26 O105 2.993039 1_545
Ba26 O88 2.994317 1_555
Ba26 O80 2.994360 1_555
Ba27 O81 2.956855 1_555
Ba27 O89 2.956897 1_555
Ba27 O85 2.957951 1_555
Ba27 O78 2.983833 1_555
Ba27 O86 2.983877 1_555
Ba27 O72 2.988942 1_555
Ba27 O72 2.988987 1_655
Ba27 O74 2.990143 1_555
Ba27 O66 2.990150 1_655
Ba27 O83 3.022033 1_555
Ba27 O77 3.022395 1_555
Ba27 O67 3.022453 1_655
Ba28 O87 2.974580 1_555
Ba28 O79 2.974585 1_555
Ba28 O83 2.981266 1_555
Ba28 O71 2.987844 1_555
Ba28 O71 2.987869 1_655
Ba28 O68 2.996129 1_655
Ba28 O75 2.996153 1_555
Ba28 O54 2.998546 1_565
Ba28 O62 2.998612 1_565
Ba28 O76 3.000215 1_555
Ba28 O69 3.000263 1_655
Ba28 O61 3.003131 1_565
Ba29 O100 2.926322 1_455
Ba29 O91 2.926340 1_555
Ba29 O101 2.943160 1_455
Ba29 O93 2.943265 1_555
Ba29 O96 2.984861 1_455
Ba29 O96 2.984968 1_555
Ba29 O84 2.999793 1_555
Ba29 O82 3.037004 1_555
Ba29 O81 3.065917 1_555
Ba29 O89 3.065923 1_555
Ba29 O78 3.090851 1_555
Ba29 O86 3.090882 1_555
Ba30 O119 2.923209 1_545
Ba30 O115 2.923227 1_545
Ba30 O116 2.941485 1_545
Ba30 O109 2.991778 1_455
Ba30 O109 2.991794 1_555
Ba30 O90 2.995345 1_555
Ba30 O98 2.995350 1_555
Ba30 O102 3.018385 1_555
Ba30 O110 3.018398 1_455
Ba30 O94 3.048707 1_555
Ba30 O111 3.051115 1_455
Ba30 O104 3.051155 1_555
Ba31 O101 2.897545 1_555
Ba31 O93 2.897549 1_555
Ba31 O96 2.900383 1_555
Ba31 O82 2.993458 1_555
Ba31 O82 2.993520 1_655
Ba31 O78 3.005382 1_655
Ba31 O86 3.005392 1_555
Ba31 O66 3.017276 1_565
Ba31 O74 3.017366 1_565
Ba31 O87 3.086161 1_555
Ba31 O79 3.086240 1_655
Ba31 O70 3.093058 1_565
Ba32 O91 2.921436 1_555
Ba32 O100 2.921461 1_555
Ba32 O97 2.931493 1_555
Ba32 O107 2.991429 1_555
Ba32 O107 2.991490 1_455
Ba32 O99 3.006008 1_555
Ba32 O92 3.006065 1_555
Ba32 O113 3.007519 1_455
Ba32 O105 3.007558 1_555
Ba32 O103 3.049105 1_555
Ba32 O112 3.049186 1_455
Ba32 O94 3.057170 1_555
Ba33 O91 2.921618 1_555
Ba33 O100 2.921624 1_555
Ba33 O96 2.940234 1_555
Ba33 O84 2.991790 1_555
Ba33 O84 2.991826 1_655
Ba33 O99 2.995164 1_555
Ba33 O92 2.995181 1_555
Ba33 O89 3.018563 1_555
Ba33 O81 3.018622 1_655
Ba33 O95 3.049818 1_555
Ba33 O80 3.052457 1_655
Ba33 O88 3.052528 1_555
Ba34 O119 2.942500 1_455
Ba34 O115 2.942525 1_555
Ba34 O114 2.953537 1_555
Ba34 O118 2.953575 1_455
Ba34 O117 2.984896 1_555
Ba34 O117 2.984948 1_455
Ba34 O108 3.002772 1_555
Ba34 O106 3.025538 1_555
Ba34 O112 3.052932 1_555
Ba34 O103 3.052959 1_555
Ba34 O111 3.065156 1_555
Ba34 O104 3.065224 1_555
Ba35 O99 2.980975 1_555
Ba35 O92 2.981004 1_655
Ba35 O107 2.983327 1_555
Ba35 O90 2.984128 1_655
Ba35 O98 2.984199 1_555
Ba35 O109 2.986080 1_555
Ba35 O94 2.987827 1_555
Ba35 O94 2.987846 1_655
Ba35 O103 2.993053 1_555
Ba35 O112 2.993101 1_555
Ba35 O104 2.994299 1_555
Ba35 O111 2.994308 1_555
Ba36 O91 2.940777 1_655
Ba36 O100 2.940845 1_555
Ba36 O101 2.952011 1_555
Ba36 O93 2.952020 1_655
Ba36 O97 2.984879 1_555
Ba36 O97 2.984909 1_655
Ba36 O107 3.002760 1_555
Ba36 O85 3.025716 1_565
Ba36 O113 3.054295 1_555
Ba36 O105 3.054302 1_555
Ba36 O80 3.066626 1_565
Ba36 O88 3.066632 1_565
Ba37 O117 2.907358 1_555
Ba37 O114 2.921214 1_555
Ba37 O118 2.921221 1_555
Ba37 O111 2.983708 1_555
Ba37 O104 2.983751 1_655
Ba37 O106 2.991357 1_655
Ba37 O106 2.991390 1_555
Ba37 O5 3.031759 1_556
Ba37 O1 3.031808 1_556
Ba37 O102 3.050591 1_655
Ba37 O110 3.050651 1_555
Ba37 O2 3.089196 1_556
Ba38 O119 2.923000 1_555
Ba38 O115 2.923115 1_555
Ba38 O117 2.932890 1_555
Ba38 O108 2.991371 1_655
Ba38 O108 2.991436 1_555
Ba38 O98 3.006066 1_565
Ba38 O90 3.006109 1_565
Ba38 O103 3.007307 1_655
Ba38 O112 3.007385 1_555
Ba38 O105 3.047769 1_655
Ba38 O113 3.047784 1_555
Ba38 O95 3.056009 1_565
Ba39 O115 2.928422 1_655
Ba39 O119 2.928465 1_555
Ba39 O114 2.944861 1_655
Ba39 O118 2.944946 1_555
Ba39 O116 2.984908 1_655
Ba39 O116 2.984924 1_555
Ba39 O109 3.000262 1_565
Ba39 O10 3.036352 1_556
Ba39 O102 3.064526 1_565
Ba39 O110 3.064532 1_565
Ba39 O17 3.088829 1_556
Ba39 O7 3.088879 1_556
Cu0 O91 2.003350 1_555
Cu0 O100 2.003405 1_555
Cu0 O93 2.003670 1_555
Cu0 O101 2.003784 1_555
Cu0 O96 2.027230 1_555
Cu0 O97 2.027608 1_555
Cu1 O118 1.996705 1_555
Cu1 O114 1.996958 1_555
Cu1 O119 1.997317 1_555
Cu1 O115 1.997478 1_555
Cu1 O116 2.021365 1_555
Cu1 O117 2.022867 1_555
O0 Ru0 1.996834 1_555
O0 Y1 2.231417 1_555
O1 Ru0 1.968859 1_555
O1 Y2 2.290314 1_554
O2 Ru0 1.971030 1_555
O2 Y0 2.300714 1_644
O3 Ru0 1.993835 1_555
O3 Y4 2.238515 1_555
O4 Ru0 1.996409 1_555
O4 Y1 2.231361 1_655
O5 Ru0 1.968516 1_555
O5 Y2 2.290363 1_654
O6 Ru1 1.991327 1_555
O6 Y4 2.229002 1_555
O7 Ru1 1.969279 1_555
O7 Y0 2.264942 1_554
O8 Ru2 1.987488 1_555
O8 Y3 2.238676 1_555
O9 Ru2 1.983033 1_555
O9 Y4 2.252566 1_555
O10 Ru1 1.968549 1_555
O10 Y2 2.271281 1_654
O11 Ru2 1.984709 1_555
O11 Y1 2.255934 1_655
O12 Ru1 1.998702 1_555
O12 Y1 2.231974 1_565
O13 Ru2 1.990982 1_555
O13 Y6 2.244011 1_555
O14 Ru2 1.987433 1_555
O14 Y3 2.238562 1_655
O15 Ru2 1.983004 1_555
O15 Y4 2.252634 1_655
O16 Ru1 1.991199 1_555
O16 Y4 2.228939 1_655
O17 Ru1 1.969209 1_555
O17 Y0 2.264984 1_654
O18 Ru4 1.983097 1_555
O18 Y1 2.252515 1_565
O19 Ru3 1.984510 1_555
O19 Y6 2.243967 1_555
O20 Ru4 1.986278 1_555
O20 Y6 2.238105 1_555
O21 Ru3 1.986292 1_555
O21 Y5 2.239955 1_555
O22 Ru3 1.988340 1_555
O22 Y3 2.248726 1_655
O23 Ru4 1.987023 1_555
O23 Y4 2.262054 1_655
O24 Ru4 1.990939 1_555
O24 Y3 2.243490 1_565
O25 Ru3 1.989582 1_555
O25 Y8 2.245394 1_555
O26 Ru4 1.982881 1_555
O26 Y1 2.252610 1_665
O27 Ru3 1.986238 1_555
O27 Y5 2.239847 1_655
O28 Ru3 1.984434 1_555
O28 Y6 2.244070 1_655
O29 Ru4 1.986076 1_555
O29 Y6 2.237995 1_655
O30 Ru5 1.986434 1_555
O30 Y7 2.240303 1_545
O31 Ru5 1.985261 1_555
O31 Y8 2.241139 1_555
O32 Ru6 1.986080 1_555
O32 Y8 2.239758 1_555
O33 Ru6 1.984786 1_555
O33 Y3 2.243693 1_565
O34 Ru5 1.988877 1_555
O34 Y5 2.246666 1_655
O35 Ru6 1.987915 1_555
O35 Y6 2.250825 1_655
O36 Ru5 1.990085 1_555
O36 Y9 2.245793 1_555
O37 Ru6 1.989968 1_555
O37 Y5 2.245256 1_565
O38 Ru5 1.986609 1_555
O38 Y7 2.240255 1_645
O39 Ru6 1.984853 1_555
O39 Y3 2.243754 1_665
O40 Ru5 1.985494 1_555
O40 Y8 2.241239 1_655
O41 Ru6 1.986131 1_555
O41 Y8 2.239700 1_655
O42 Ru7 1.985834 1_555
O42 Y10 2.242960 1_455
O43 Ru8 1.986340 1_555
O43 Y9 2.240209 1_555
O44 Ru8 1.985133 1_555
O44 Y5 2.241074 1_565
O45 Ru7 1.985547 1_555
O45 Y9 2.240490 1_555
O46 Ru7 1.988438 1_555
O46 Y7 2.245790 1_645
O47 Ru7 1.990325 1_555
O47 Y12 2.247504 1_455
O48 Ru8 1.988778 1_555
O48 Y8 2.246497 1_655
O49 Ru8 1.990016 1_555
O49 Y7 2.245646 1_555
O50 Ru7 1.985763 1_555
O50 Y10 2.242888 1_555
O51 Ru8 1.985394 1_555
O51 Y5 2.241119 1_665
O52 Ru7 1.985513 1_555
O52 Y9 2.240533 1_655
O53 Ru8 1.986506 1_555
O53 Y9 2.240155 1_655
O54 Ru10 1.984731 1_555
O54 Y11 2.252003 1_445
O55 Ru10 1.986889 1_555
O55 Y12 2.238878 1_455
O56 Ru9 1.986209 1_555
O56 Y12 2.242595 1_455
O57 Ru9 1.985454 1_555
O57 Y7 2.240307 1_555
O58 Ru10 1.986492 1_555
O58 Y16 2.255037 1_455
O59 Ru9 1.988877 1_555
O59 Y9 2.245652 1_655
O60 Ru9 1.989866 1_555
O60 Y10 2.249647 1_465
O61 Ru10 1.990603 1_555
O61 Y10 2.244064 1_555
O62 Ru10 1.984752 1_555
O62 Y11 2.251918 1_545
O63 Ru10 1.986985 1_555
O63 Y12 2.238925 1_555
O64 Ru9 1.986024 1_555
O64 Y12 2.242576 1_555
O65 Ru9 1.985351 1_555
O65 Y7 2.240356 1_655
O66 Ru12 1.971970 1_555
O66 Y15 2.289271 1_445
O67 Ru12 1.998221 1_555
O67 Y16 2.228410 1_455
O68 Ru11 1.984800 1_555
O68 Y16 2.252279 1_455
O69 Ru11 1.985313 1_555
O69 Y10 2.238261 1_465
O70 Ru12 1.996055 1_555
O70 Y11 2.235365 1_545
O71 Ru11 1.988537 1_555
O71 Y11 2.261630 1_455
O72 Ru12 1.974024 1_555
O72 Y14 2.299041 1_455
O73 Ru11 1.990811 1_555
O73 Y12 2.243594 1_555
O74 Ru12 1.971657 1_555
O74 Y15 2.289204 1_545
O75 Ru11 1.985040 1_555
O75 Y16 2.252243 1_555
O76 Ru11 1.985643 1_555
O76 Y10 2.238283 1_565
O77 Ru12 1.997942 1_555
O77 Y16 2.228512 1_555
O78 Ru14 1.971418 1_555
O78 Y14 2.263792 1_455
O79 Ru14 1.992462 1_555
O79 Y11 2.227116 1_455
O80 Ru13 1.972052 1_555
O80 Y13 2.255423 1_545
O81 Ru13 1.977925 1_555
O81 Y14 2.240299 1_455
O82 Ru14 1.970170 1_555
O82 Y15 2.270043 1_455
O83 Ru14 2.000403 1_555
O83 Y16 2.230336 1_555
O84 Ru13 1.979195 1_555
O84 Y18 2.259052 1_455
O85 Ru13 1.982590 1_555
O85 Y15 2.247861 1_545
O86 Ru14 1.971330 1_555
O86 Y14 2.263719 1_555
O87 Ru14 1.992386 1_555
O87 Y11 2.227163 1_555
O88 Ru13 1.972093 1_555
O88 Y13 2.255346 1_645
O89 Ru13 1.977989 1_555
O89 Y14 2.240410 1_555
O90 Ru15 1.981452 1_555
O90 Y17 2.279724 1_545
O91 Y18 2.187166 1_455
O92 Ru15 1.983548 1_555
O92 Y18 2.280414 1_455
O93 Y15 2.181148 1_455
O94 Ru15 1.978008 1_555
O94 Y19 2.290888 1_455
O95 Ru15 1.980163 1_555
O95 Y13 2.291502 1_645
O96 Y14 2.162915 1_555
O97 Y13 2.171571 1_555
O98 Ru15 1.981650 1_555
O98 Y17 2.279689 1_645
O99 Ru15 1.983789 1_555
O99 Y18 2.280487 1_555
O100 Y18 2.187098 1_555
O101 Y15 2.181199 1_555
O102 Ru16 1.974221 1_555
O102 Y0 2.243044 1_545
O103 Ru17 1.972072 1_555
O103 Y19 2.251874 1_455
O104 Ru16 1.972302 1_555
O104 Y19 2.256360 1_455
O105 Ru17 1.974854 1_555
O105 Y13 2.250817 1_555
O106 Ru16 1.979436 1_555
O106 Y2 2.250383 1_555
O107 Ru17 1.980983 1_555
O107 Y18 2.255177 1_555
O108 Ru17 1.978676 1_555
O108 Y17 2.256105 1_555
O109 Ru16 1.978958 1_555
O109 Y17 2.259910 1_645
O110 Ru16 1.974196 1_555
O110 Y0 2.242983 1_645
O111 Ru16 1.972331 1_555
O111 Y19 2.256399 1_555
O112 Ru17 1.972281 1_555
O112 Y19 2.251760 1_555
O113 Ru17 1.975079 1_555
O113 Y13 2.250890 1_655
O114 Y2 2.188900 1_555
O115 Y17 2.194293 1_555
O116 Y0 2.169308 1_555
O117 Y19 2.177548 1_555
O118 Y2 2.188884 1_655
O119 Y17 2.194356 1_655
