# generated using pymatgen
data_Ti4(PO5)3
_symmetry_space_group_name_H-M   'P 1'
_cell_length_a   22.49973580
_cell_length_b   19.86990830
_cell_length_c   11.81375204
_cell_angle_alpha   86.56369596
_cell_angle_beta   61.82743267
_cell_angle_gamma   31.60887137
_symmetry_Int_Tables_number   1
_chemical_formula_structural   Ti4(PO5)3
_chemical_formula_sum   'Ti24 P18 O90'
_cell_volume   1639.85382075
_cell_formula_units_Z   6
loop_
 _symmetry_equiv_pos_site_id
 _symmetry_equiv_pos_as_xyz
  1  'x, y, z'
loop_
 _atom_site_type_symbol
 _atom_site_label
 _atom_site_symmetry_multiplicity
 _atom_site_fract_x
 _atom_site_fract_y
 _atom_site_fract_z
 _atom_site_occupancy
  Ti  Ti0  1  0.87713400  0.04149500  0.05748300  1
  Ti  Ti1  1  0.02388800  0.05748300  0.04149500  1
  Ti  Ti2  1  0.20850500  0.37286600  0.22611200  1
  Ti  Ti3  1  0.19251700  0.22611200  0.37286600  1
  Ti  Ti4  1  0.47883600  0.76837200  0.43034800  1
  Ti  Ti5  1  0.32244400  0.43034800  0.76837200  1
  Ti  Ti6  1  0.48162800  0.77116400  0.92755600  1
  Ti  Ti7  1  0.81965200  0.92755600  0.77116400  1
  Ti  Ti8  1  0.32961800  0.75757300  0.44030800  1
  Ti  Ti9  1  0.47250100  0.44030800  0.75757300  1
  Ti  Ti10  1  0.49242700  0.92038200  0.77749900  1
  Ti  Ti11  1  0.80969200  0.77749900  0.92038200  1
  Ti  Ti12  1  0.20235600  0.39165200  0.72382400  1
  Ti  Ti13  1  0.68216800  0.72382400  0.39165200  1
  Ti  Ti14  1  0.85834800  0.04764400  0.56783200  1
  Ti  Ti15  1  0.52617600  0.56783200  0.04764400  1
  Ti  Ti16  1  0.00702600  0.42305600  0.75888100  1
  Ti  Ti17  1  0.81103700  0.75888100  0.42305600  1
  Ti  Ti18  1  0.82694400  0.24297400  0.43896300  1
  Ti  Ti19  1  0.49111900  0.43896300  0.24297400  1
  Ti  Ti20  1  0.87964700  0.37958200  0.72564800  1
  Ti  Ti21  1  0.01512400  0.72564800  0.37958200  1
  Ti  Ti22  1  0.87041800  0.37035300  0.23487600  1
  Ti  Ti23  1  0.52435200  0.23487600  0.37035300  1
  P  P0  1  0.56732800  0.43267200  0.43267200  1
  P  P1  1  0.81732800  0.68267200  0.68267200  1
  P  P2  1  0.20374800  0.46763600  0.45953400  1
  P  P3  1  0.86908200  0.45953400  0.46763600  1
  P  P4  1  0.78236400  0.04625200  0.38091800  1
  P  P5  1  0.79046600  0.38091800  0.04625200  1
  P  P6  1  0.87838800  0.78589600  0.11816900  1
  P  P7  1  0.21754600  0.11816900  0.78589600  1
  P  P8  1  0.46410400  0.37161200  0.03245400  1
  P  P9  1  0.13183100  0.03245400  0.37161200  1
  P  P10  1  0.55729600  0.10558800  0.77144900  1
  P  P11  1  0.56566700  0.77144900  0.10558800  1
  P  P12  1  0.14441200  0.69270400  0.68433300  1
  P  P13  1  0.47855100  0.68433300  0.69270400  1
  P  P14  1  0.87570800  0.12342800  0.78913800  1
  P  P15  1  0.21172500  0.78913800  0.12342800  1
  P  P16  1  0.12657200  0.37429200  0.03827500  1
  P  P17  1  0.46086200  0.03827500  0.37429200  1
  O  O0  1  0.10899300  0.27557800  0.80448600  1
  O  O1  1  0.81094200  0.80448600  0.27557800  1
  O  O2  1  0.97442200  0.14100700  0.43905800  1
  O  O3  1  0.44551400  0.43905800  0.14100700  1
  O  O4  1  0.46555900  0.48595900  0.60801400  1
  O  O5  1  0.44046900  0.60801400  0.48595900  1
  O  O6  1  0.76404100  0.78444100  0.80953100  1
  O  O7  1  0.64198600  0.80953100  0.78444100  1
  O  O8  1  0.08990800  0.20656300  0.98338900  1
  O  O9  1  0.72014000  0.98338900  0.20656300  1
  O  O10  1  0.04343700  0.16009200  0.52986000  1
  O  O11  1  0.26661100  0.52986000  0.16009200  1
  O  O12  1  0.28885200  0.17487900  0.94806000  1
  O  O13  1  0.58820900  0.94806000  0.17487900  1
  O  O14  1  0.07512100  0.96114800  0.66179100  1
  O  O15  1  0.30194000  0.66179100  0.96114800  1
  O  O16  1  0.78367900  0.17017500  0.96837700  1
  O  O17  1  0.07776900  0.96837700  0.17017500  1
  O  O18  1  0.07982500  0.46632100  0.17223100  1
  O  O19  1  0.28162300  0.17223100  0.46632100  1
  O  O20  1  0.49398500  0.79712300  0.26756500  1
  O  O21  1  0.44132700  0.26756500  0.79712300  1
  O  O22  1  0.45287700  0.75601500  0.80867300  1
  O  O23  1  0.98243500  0.80867300  0.75601500  1
  O  O24  1  0.40728000  0.96775100  0.18930200  1
  O  O25  1  0.43566600  0.18930200  0.96775100  1
  O  O26  1  0.28224900  0.84272000  0.81433400  1
  O  O27  1  0.06069800  0.81433400  0.84272000  1
  O  O28  1  0.74678800  0.30450100  0.85747800  1
  O  O29  1  0.09123400  0.85747800  0.30450100  1
  O  O30  1  0.94549900  0.50321200  0.15876600  1
  O  O31  1  0.39252200  0.15876600  0.50321200  1
  O  O32  1  0.77301500  0.51259400  0.65127500  1
  O  O33  1  0.06311500  0.65127500  0.51259400  1
  O  O34  1  0.73740600  0.47698500  0.18688500  1
  O  O35  1  0.59872500  0.18688500  0.47698500  1
  O  O36  1  0.91923300  0.20377800  0.98912900  1
  O  O37  1  0.88786000  0.98912900  0.20377800  1
  O  O38  1  0.04622200  0.33076700  0.36214000  1
  O  O39  1  0.26087100  0.36214000  0.33076700  1
  O  O40  1  0.19009600  0.35736000  0.88079400  1
  O  O41  1  0.57175100  0.88079400  0.35736000  1
  O  O42  1  0.89264000  0.05990400  0.67824900  1
  O  O43  1  0.36920600  0.67824900  0.05990400  1
  O  O44  1  0.57546300  0.63095000  0.50984700  1
  O  O45  1  0.28374000  0.50984700  0.63095000  1
  O  O46  1  0.61905000  0.67453700  0.96626000  1
  O  O47  1  0.74015300  0.96626000  0.67453700  1
  O  O48  1  0.60784400  0.50367200  0.62692000  1
  O  O49  1  0.26156400  0.62692000  0.50367200  1
  O  O50  1  0.74632800  0.64215600  0.98843600  1
  O  O51  1  0.62308000  0.98843600  0.64215600  1
  O  O52  1  0.72161500  0.64816400  0.53047600  1
  O  O53  1  0.09974400  0.53047600  0.64816400  1
  O  O54  1  0.60183600  0.52838500  0.15025600  1
  O  O55  1  0.71952400  0.15025600  0.52838500  1
  O  O56  1  0.90784900  0.87191200  0.33268600  1
  O  O57  1  0.88755200  0.33268600  0.87191200  1
  O  O58  1  0.37808800  0.34215100  0.36244800  1
  O  O59  1  0.91731400  0.36244800  0.34215100  1
  O  O60  1  0.27224600  0.84926700  0.31919800  1
  O  O61  1  0.55928900  0.31919800  0.84926700  1
  O  O62  1  0.40073300  0.97775400  0.69071100  1
  O  O63  1  0.93080200  0.69071100  0.97775400  1
  O  O64  1  0.96348800  0.49512300  0.62236500  1
  O  O65  1  0.91902400  0.62236500  0.49512300  1
  O  O66  1  0.75487700  0.28651200  0.33097600  1
  O  O67  1  0.62763500  0.33097600  0.28651200  1
  O  O68  1  0.24791400  0.96696200  0.18976700  1
  O  O69  1  0.59535700  0.18976700  0.96696200  1
  O  O70  1  0.28303800  0.00208600  0.65464300  1
  O  O71  1  0.06023300  0.65464300  0.00208600  1
  O  O72  1  0.26877200  0.23122800  0.23122800  1
  O  O73  1  0.01877200  0.98122800  0.98122800  1
  O  O74  1  0.69140200  0.63524100  0.32735900  1
  O  O75  1  0.34599800  0.32735900  0.63524100  1
  O  O76  1  0.61475900  0.55859800  0.90400200  1
  O  O77  1  0.92264100  0.90400200  0.55859800  1
  O  O78  1  0.41567100  0.91689300  0.92106200  1
  O  O79  1  0.74637400  0.92106200  0.91689300  1
  O  O80  1  0.33310700  0.83432900  0.50362600  1
  O  O81  1  0.32893800  0.50362600  0.83432900  1
  O  O82  1  0.04459100  0.61727600  0.30711300  1
  O  O83  1  0.03101900  0.30711300  0.61727600  1
  O  O84  1  0.63272400  0.20540900  0.21898100  1
  O  O85  1  0.94288700  0.21898100  0.20540900  1
  O  O86  1  0.72916400  0.26065600  0.58396700  1
  O  O87  1  0.42621400  0.58396700  0.26065600  1
  O  O88  1  0.98934400  0.52083600  0.82378600  1
  O  O89  1  0.66603300  0.82378600  0.52083600  1
loop_
_geom_bond_atom_site_label_1
_geom_bond_atom_site_label_2
_geom_bond_distance
_geom_bond_site_symmetry_2
O0 P7 1.536326 1_555
O0 Ti16 1.915097 1_555
O1 P6 1.536326 1_555
O1 Ti17 1.915098 1_555
O2 P9 1.536326 1_655
O2 Ti18 1.915106 1_555
O3 P8 1.536326 1_555
O3 Ti19 1.915087 1_555
O4 P0 1.519768 1_555
O4 Ti9 1.948359 1_555
O5 P0 1.519774 1_555
O5 Ti8 1.948361 1_555
O6 P1 1.519759 1_555
O6 Ti11 1.948369 1_555
O7 P1 1.519778 1_555
O7 Ti10 1.948352 1_555
O8 P7 1.532552 1_555
O8 Ti22 1.932917 1_456
O9 P6 1.532556 1_555
O9 Ti23 1.932908 1_565
O10 P9 1.532543 1_555
O10 Ti20 1.932922 1_455
O11 P8 1.532559 1_555
O11 Ti21 1.932909 1_555
O12 P16 1.535246 1_556
O12 Ti10 1.914717 1_545
O13 P17 1.535243 1_565
O13 Ti11 1.914717 1_554
O14 P14 1.535249 1_465
O14 Ti8 1.914717 1_555
O15 P15 1.535234 1_556
O15 Ti9 1.914717 1_555
O16 P14 1.566431 1_555
O16 Ti19 2.100011 1_556
O16 Ti0 2.162641 1_556
O17 P15 1.566435 1_555
O17 Ti18 2.100011 1_465
O17 Ti1 2.162641 1_565
O18 P16 1.566422 1_555
O18 Ti17 2.100011 1_455
O18 Ti2 2.162641 1_555
O19 P17 1.566440 1_555
O19 Ti16 2.100011 1_555
O19 Ti3 2.162641 1_555
O20 P11 1.524650 1_555
O20 Ti4 1.929195 1_555
O21 P10 1.524650 1_555
O21 Ti5 1.929195 1_555
O22 P13 1.524650 1_555
O22 Ti6 1.929195 1_555
O23 P12 1.524650 1_655
O23 Ti7 1.929195 1_555
O24 P11 1.533073 1_555
O24 Ti3 1.895704 1_565
O25 P10 1.533076 1_555
O25 Ti2 1.895697 1_556
O26 P13 1.533069 1_555
O26 Ti1 1.895702 1_566
O27 P12 1.533085 1_555
O27 Ti0 1.895692 1_466
O28 P14 1.539936 1_555
O28 Ti15 1.924778 1_556
O29 P15 1.539920 1_555
O29 Ti14 1.924784 1_465
O30 P16 1.539941 1_655
O30 Ti13 1.924779 1_555
O31 P17 1.539905 1_555
O31 Ti12 1.924790 1_555
O32 P3 1.566816 1_555
O32 Ti20 2.103545 1_555
O32 Ti6 2.112725 1_555
O33 P2 1.566813 1_555
O33 Ti21 2.103533 1_555
O33 Ti7 2.112732 1_455
O34 P5 1.566825 1_555
O34 Ti22 2.103525 1_555
O34 Ti4 2.112722 1_555
O35 P4 1.566808 1_555
O35 Ti23 2.103556 1_555
O35 Ti5 2.112727 1_555
O36 P5 1.518951 1_556
O36 Ti1 1.969378 1_656
O37 P4 1.518951 1_565
O37 Ti0 1.969378 1_565
O38 P3 1.518951 1_455
O38 Ti3 1.969378 1_555
O39 P2 1.518951 1_555
O39 Ti2 1.969378 1_555
O40 P16 1.537006 1_556
O40 Ti12 1.914377 1_555
O41 P17 1.537006 1_565
O41 Ti13 1.914377 1_555
O42 P14 1.537006 1_555
O42 Ti14 1.914367 1_555
O43 P15 1.537006 1_555
O43 Ti15 1.914386 1_555
O44 P13 1.560009 1_555
O44 Ti22 2.129624 1_555
O44 Ti4 2.138632 1_555
O45 P12 1.560009 1_555
O45 Ti23 2.129631 1_555
O45 Ti5 2.138632 1_555
O46 P11 1.560009 1_556
O46 Ti20 2.129622 1_555
O46 Ti6 2.138632 1_555
O47 P10 1.560009 1_565
O47 Ti21 2.129627 1_655
O47 Ti7 2.138632 1_555
O48 P13 1.537975 1_555
O48 Ti18 1.900713 1_555
O49 P12 1.537975 1_555
O49 Ti19 1.900713 1_555
O50 P11 1.537975 1_556
O50 Ti16 1.900713 1_655
O51 P10 1.537975 1_565
O51 Ti17 1.900713 1_555
O52 P3 1.560010 1_555
O52 Ti10 2.130331 1_555
O52 Ti13 2.131602 1_555
O53 P2 1.560013 1_555
O53 Ti11 2.130322 1_455
O53 Ti12 2.131606 1_555
O54 P5 1.560006 1_555
O54 Ti8 2.130326 1_555
O54 Ti15 2.131613 1_555
O55 P4 1.560022 1_555
O55 Ti9 2.130320 1_555
O55 Ti14 2.131596 1_555
O56 P4 1.534510 1_565
O56 Ti21 1.923684 1_655
O57 P5 1.534504 1_556
O57 Ti20 1.923679 1_555
O58 P2 1.534514 1_555
O58 Ti23 1.923665 1_555
O59 P3 1.534495 1_555
O59 Ti22 1.923700 1_555
O60 P9 1.565054 1_565
O60 Ti8 2.111500 1_555
O60 Ti15 2.151642 1_555
O61 P8 1.565051 1_556
O61 Ti9 2.111500 1_555
O61 Ti14 2.151642 1_555
O62 P7 1.565059 1_565
O62 Ti10 2.111500 1_555
O62 Ti13 2.151642 1_555
O63 P6 1.565042 1_556
O63 Ti11 2.111500 1_555
O63 Ti12 2.151642 1_655
O64 P1 1.562554 1_555
O64 Ti16 2.106372 1_655
O64 Ti3 2.108072 1_655
O65 P1 1.562554 1_555
O65 Ti17 2.106372 1_555
O65 Ti2 2.108072 1_655
O66 P0 1.562554 1_555
O66 Ti18 2.106372 1_555
O66 Ti1 2.108072 1_655
O67 P0 1.562554 1_555
O67 Ti19 2.106372 1_555
O67 Ti0 2.108072 1_555
O68 P9 1.542060 1_565
O68 Ti6 1.897567 1_554
O69 P8 1.542067 1_556
O69 Ti7 1.897567 1_545
O70 P7 1.542053 1_555
O70 Ti4 1.897567 1_545
O71 P6 1.542071 1_455
O71 Ti5 1.897567 1_554
O72 Ti2 1.822008 1_555
O72 Ti3 1.822008 1_555
O73 Ti1 1.822008 1_566
O73 Ti0 1.822008 1_466
O74 Ti13 1.762534 1_555
O74 Ti4 2.166501 1_555
O74 Ti22 2.354619 1_555
O75 Ti12 1.762534 1_555
O75 Ti5 2.166501 1_555
O75 Ti23 2.354610 1_555
O76 Ti15 1.762534 1_556
O76 Ti6 2.166501 1_555
O76 Ti20 2.354621 1_555
O77 Ti14 1.762534 1_565
O77 Ti7 2.166501 1_555
O77 Ti21 2.354603 1_655
O78 Ti10 1.813249 1_555
O78 Ti6 1.831500 1_555
O79 Ti11 1.813249 1_555
O79 Ti7 1.831500 1_555
O80 Ti8 1.813249 1_555
O80 Ti4 1.831500 1_555
O81 Ti9 1.813249 1_555
O81 Ti5 1.831500 1_555
O82 Ti21 1.750059 1_555
O82 Ti2 2.195379 1_555
O82 Ti17 2.426561 1_455
O83 Ti20 1.750018 1_455
O83 Ti3 2.195388 1_555
O83 Ti16 2.426582 1_555
O84 Ti23 1.750049 1_555
O84 Ti0 2.195376 1_555
O84 Ti19 2.426566 1_555
O85 Ti22 1.750021 1_555
O85 Ti1 2.195395 1_655
O85 Ti18 2.426574 1_555
O86 Ti18 1.759256 1_555
O86 Ti9 2.208981 1_555
O86 Ti14 2.240124 1_555
O87 Ti19 1.759270 1_555
O87 Ti8 2.208963 1_555
O87 Ti15 2.240116 1_555
O88 Ti16 1.759252 1_655
O88 Ti11 2.208979 1_555
O88 Ti12 2.240129 1_655
O89 Ti17 1.759272 1_555
O89 Ti10 2.208970 1_555
O89 Ti13 2.240109 1_555
