# generated using pymatgen
data_Eu(MgGe)3
_symmetry_space_group_name_H-M   'P 1'
_cell_length_a   15.62832558
_cell_length_b   15.62832558
_cell_length_c   4.61148300
_cell_angle_alpha   90.00000000
_cell_angle_beta   90.00000000
_cell_angle_gamma   163.49509091
_symmetry_Int_Tables_number   1
_chemical_formula_structural   Eu(MgGe)3
_chemical_formula_sum   'Eu2 Mg6 Ge6'
_cell_volume   319.98742895
_cell_formula_units_Z   2
loop_
 _symmetry_equiv_pos_site_id
 _symmetry_equiv_pos_as_xyz
  1  'x, y, z'
loop_
 _atom_site_type_symbol
 _atom_site_label
 _atom_site_symmetry_multiplicity
 _atom_site_fract_x
 _atom_site_fract_y
 _atom_site_fract_z
 _atom_site_occupancy
  Eu  Eu0  1  0.05596900  0.94403100  0.75000000  1
  Eu  Eu1  1  0.94403100  0.05596900  0.25000000  1
  Mg  Mg0  1  0.85252800  0.14747200  0.75000000  1
  Mg  Mg1  1  0.64587100  0.35412900  0.75000000  1
  Mg  Mg2  1  0.14747200  0.85252800  0.25000000  1
  Mg  Mg3  1  0.25047700  0.74952300  0.25000000  1
  Mg  Mg4  1  0.35412900  0.64587100  0.25000000  1
  Mg  Mg5  1  0.74952300  0.25047700  0.75000000  1
  Ge  Ge0  1  0.48375100  0.51624900  0.75000000  1
  Ge  Ge1  1  0.40292300  0.59707700  0.75000000  1
  Ge  Ge2  1  0.19884200  0.80115800  0.75000000  1
  Ge  Ge3  1  0.51624900  0.48375100  0.25000000  1
  Ge  Ge4  1  0.80115800  0.19884200  0.25000000  1
  Ge  Ge5  1  0.59707700  0.40292300  0.25000000  1
loop_
_geom_bond_atom_site_label_1
_geom_bond_atom_site_label_2
_geom_bond_distance
_geom_bond_site_symmetry_2
Eu0 Ge0 3.165817 1_455
Eu0 Ge0 3.165817 1_565
Eu0 Ge3 3.443551 1_565
Eu0 Ge3 3.443551 1_566
Eu0 Ge3 3.443551 1_456
Eu0 Ge3 3.443551 1_455
Eu0 Ge5 3.459103 1_565
Eu0 Ge5 3.459103 1_566
Eu0 Ge5 3.459103 1_455
Eu0 Ge5 3.459103 1_456
Eu1 Ge3 3.165817 1_545
Eu1 Ge3 3.165817 1_655
Eu1 Ge0 3.443551 1_655
Eu1 Ge0 3.443551 1_654
Eu1 Ge0 3.443551 1_545
Eu1 Ge0 3.443551 1_544
Eu1 Ge1 3.459103 1_545
Eu1 Ge1 3.459103 1_544
Eu1 Ge1 3.459103 1_655
Eu1 Ge1 3.459103 1_654
Ge0 Ge1 2.500252 1_555
Ge0 Ge3 2.515351 1_556
Ge0 Ge3 2.515351 1_555
Ge1 Mg0 2.731679 1_455
Ge1 Mg0 2.731679 1_565
Ge1 Mg4 2.755824 1_556
Ge1 Mg4 2.755824 1_555
Ge2 Mg5 2.736737 1_565
Ge2 Mg5 2.736737 1_455
Ge2 Mg1 2.777922 1_565
Ge2 Mg1 2.777922 1_455
Ge2 Mg2 2.800260 1_555
Ge2 Mg2 2.800260 1_556
Ge2 Mg3 2.804919 1_556
Ge2 Mg3 2.804919 1_555
Ge3 Ge5 2.500252 1_555
Ge4 Mg3 2.736737 1_545
Ge4 Mg3 2.736737 1_655
Ge4 Mg4 2.777922 1_655
Ge4 Mg4 2.777922 1_545
Ge4 Mg0 2.800260 1_554
Ge4 Mg0 2.800260 1_555
Ge4 Mg5 2.804919 1_555
Ge4 Mg5 2.804919 1_554
Ge5 Mg2 2.731679 1_545
Ge5 Mg2 2.731679 1_655
Ge5 Mg1 2.755824 1_554
Ge5 Mg1 2.755824 1_555
