# generated using pymatgen
data_Er2Zr8O19
_symmetry_space_group_name_H-M   'P 1'
_cell_length_a   3.66230200
_cell_length_b   3.66230200
_cell_length_c   26.19377000
_cell_angle_alpha   90.00000000
_cell_angle_beta   90.00000000
_cell_angle_gamma   90.00000000
_symmetry_Int_Tables_number   1
_chemical_formula_structural   Er2Zr8O19
_chemical_formula_sum   'Er2 Zr8 O19'
_cell_volume   351.32278601
_cell_formula_units_Z   1
loop_
 _symmetry_equiv_pos_site_id
 _symmetry_equiv_pos_as_xyz
  1  'x, y, z'
loop_
 _atom_site_type_symbol
 _atom_site_label
 _atom_site_symmetry_multiplicity
 _atom_site_fract_x
 _atom_site_fract_y
 _atom_site_fract_z
 _atom_site_occupancy
  Er  Er0  1  0.50000000  0.00000000  0.94301000  1
  Er  Er1  1  0.00000000  0.50000000  0.05699000  1
  Zr  Zr0  1  0.50000000  0.00000000  0.15304100  1
  Zr  Zr1  1  0.00000000  0.50000000  0.25276200  1
  Zr  Zr2  1  0.50000000  0.00000000  0.35218500  1
  Zr  Zr3  1  0.00000000  0.50000000  0.45100800  1
  Zr  Zr4  1  0.50000000  0.00000000  0.54899200  1
  Zr  Zr5  1  0.00000000  0.50000000  0.64781500  1
  Zr  Zr6  1  0.50000000  0.00000000  0.74723800  1
  Zr  Zr7  1  0.00000000  0.50000000  0.84695900  1
  O  O0  1  0.50000000  0.50000000  0.19448900  1
  O  O1  1  0.00000000  0.00000000  0.30955000  1
  O  O2  1  0.50000000  0.50000000  0.39658500  1
  O  O3  1  0.00000000  0.00000000  0.50000000  1
  O  O4  1  0.50000000  0.50000000  0.60341500  1
  O  O5  1  0.00000000  0.00000000  0.69045000  1
  O  O6  1  0.50000000  0.50000000  0.70372400  1
  O  O7  1  0.50000000  0.50000000  0.80551100  1
  O  O8  1  0.00000000  0.00000000  0.78970800  1
  O  O9  1  0.00000000  0.00000000  0.88874500  1
  O  O10  1  0.50000000  0.50000000  0.90482900  1
  O  O11  1  0.00000000  0.00000000  0.11125500  1
  O  O12  1  0.00000000  0.00000000  0.00000000  1
  O  O13  1  0.50000000  0.50000000  0.09517100  1
  O  O14  1  0.00000000  0.00000000  0.21029200  1
  O  O15  1  0.50000000  0.50000000  0.29627600  1
  O  O16  1  0.00000000  0.00000000  0.40609000  1
  O  O17  1  0.50000000  0.50000000  0.50000000  1
  O  O18  1  0.00000000  0.00000000  0.59391000  1
loop_
_geom_bond_atom_site_label_1
_geom_bond_atom_site_label_2
_geom_bond_distance
_geom_bond_site_symmetry_2
Er0 O10 2.086462 1_545
Er0 O10 2.086462 1_555
Er0 O9 2.318082 1_655
Er0 O9 2.318082 1_555
Er0 O12 2.362523 1_556
Er0 O12 2.362523 1_656
Er1 O13 2.086462 1_555
Er1 O13 2.086462 1_455
Er1 O11 2.318082 1_555
Er1 O11 2.318082 1_565
Er1 O12 2.362523 1_555
Er1 O12 2.362523 1_565
O0 Zr0 2.128806 1_565
O0 Zr0 2.128806 1_555
O0 Zr1 2.383900 1_655
O0 Zr1 2.383900 1_555
O1 Zr2 2.144829 1_555
O1 Zr2 2.144829 1_455
O1 Zr1 2.359183 1_555
O1 Zr1 2.359183 1_545
O2 Zr2 2.169260 1_555
O2 Zr2 2.169260 1_565
O2 Zr3 2.320622 1_655
O2 Zr3 2.320622 1_555
O3 Zr4 2.236053 1_555
O3 Zr4 2.236053 1_455
O3 Zr3 2.236053 1_545
O3 Zr3 2.236053 1_555
O4 Zr5 2.169260 1_655
O4 Zr5 2.169260 1_555
O4 Zr4 2.320622 1_565
O4 Zr4 2.320622 1_555
O5 Zr5 2.144829 1_555
O5 Zr5 2.144829 1_545
O5 Zr6 2.359183 1_555
O5 Zr6 2.359183 1_455
O6 Zr6 2.156907 1_565
O6 Zr6 2.156907 1_555
O6 Zr5 2.344734 1_555
O6 Zr5 2.344734 1_655
O7 Zr7 2.128806 1_555
O7 Zr7 2.128806 1_655
O7 Zr6 2.383900 1_565
O7 Zr6 2.383900 1_555
O8 Zr6 2.142582 1_555
O8 Zr6 2.142582 1_455
O8 Zr7 2.366849 1_545
O8 Zr7 2.366849 1_555
O9 Zr7 2.133335 1_545
O9 Zr7 2.133335 1_555
O10 Zr7 2.377155 1_555
O10 Zr7 2.377155 1_655
O11 Zr0 2.133335 1_455
O11 Zr0 2.133335 1_555
O13 Zr0 2.377155 1_555
O13 Zr0 2.377155 1_565
O14 Zr1 2.142582 1_555
O14 Zr1 2.142582 1_545
O14 Zr0 2.366849 1_555
O14 Zr0 2.366849 1_455
O15 Zr1 2.156907 1_655
O15 Zr1 2.156907 1_555
O15 Zr2 2.344734 1_555
O15 Zr2 2.344734 1_565
O16 Zr3 2.176565 1_545
O16 Zr3 2.176565 1_555
O16 Zr2 2.312312 1_555
O16 Zr2 2.312312 1_455
O17 Zr4 2.236053 1_565
O17 Zr4 2.236053 1_555
O17 Zr3 2.236053 1_555
O17 Zr3 2.236053 1_655
O18 Zr4 2.176565 1_455
O18 Zr4 2.176565 1_555
O18 Zr5 2.312312 1_545
O18 Zr5 2.312312 1_555
