# generated using pymatgen
data_Cu(NO3)2
_symmetry_space_group_name_H-M   'P 1'
_cell_length_a   7.62413200
_cell_length_b   13.10025200
_cell_length_c   14.33757100
_cell_angle_alpha   90.00000000
_cell_angle_beta   90.00000000
_cell_angle_gamma   90.00000000
_symmetry_Int_Tables_number   1
_chemical_formula_structural   Cu(NO3)2
_chemical_formula_sum   'Cu12 N24 O72'
_cell_volume   1432.00864012
_cell_formula_units_Z   12
loop_
 _symmetry_equiv_pos_site_id
 _symmetry_equiv_pos_as_xyz
  1  'x, y, z'
loop_
 _atom_site_type_symbol
 _atom_site_label
 _atom_site_symmetry_multiplicity
 _atom_site_fract_x
 _atom_site_fract_y
 _atom_site_fract_z
 _atom_site_occupancy
  Cu  Cu0  1  0.17513700  0.70308900  0.18574300  1
  Cu  Cu1  1  0.82486300  0.20308900  0.18574300  1
  Cu  Cu2  1  0.67513700  0.79691100  0.68574300  1
  Cu  Cu3  1  0.00000000  0.00000000  0.50000000  1
  Cu  Cu4  1  0.17513700  0.79691100  0.81425700  1
  Cu  Cu5  1  0.67513700  0.70308900  0.31425700  1
  Cu  Cu6  1  0.32486300  0.29691100  0.68574300  1
  Cu  Cu7  1  0.50000000  0.50000000  0.00000000  1
  Cu  Cu8  1  0.00000000  0.50000000  0.50000000  1
  Cu  Cu9  1  0.50000000  0.00000000  0.00000000  1
  Cu  Cu10  1  0.82486300  0.29691100  0.81425700  1
  Cu  Cu11  1  0.32486300  0.20308900  0.31425700  1
  N  N0  1  0.25458400  0.99291000  0.85872100  1
  N  N1  1  0.65630800  0.19521500  0.36090400  1
  N  N2  1  0.75458400  0.50709000  0.35872100  1
  N  N3  1  0.25458400  0.50709000  0.14127900  1
  N  N4  1  0.29239300  0.88092400  0.11259200  1
  N  N5  1  0.24541600  0.00709000  0.35872100  1
  N  N6  1  0.75458400  0.99291000  0.64127900  1
  N  N7  1  0.79239300  0.88092400  0.38740800  1
  N  N8  1  0.70760700  0.38092400  0.11259200  1
  N  N9  1  0.34369200  0.69521500  0.36090400  1
  N  N10  1  0.15630800  0.19521500  0.13909600  1
  N  N11  1  0.65630800  0.30478500  0.63909600  1
  N  N12  1  0.20760700  0.11907600  0.61259200  1
  N  N13  1  0.24541600  0.49291000  0.64127900  1
  N  N14  1  0.34369200  0.80478500  0.63909600  1
  N  N15  1  0.74541600  0.00709000  0.14127900  1
  N  N16  1  0.79239300  0.61907600  0.61259200  1
  N  N17  1  0.84369200  0.80478500  0.86090400  1
  N  N18  1  0.29239300  0.61907600  0.88740800  1
  N  N19  1  0.15630800  0.30478500  0.86090400  1
  N  N20  1  0.70760700  0.11907600  0.88740800  1
  N  N21  1  0.74541600  0.49291000  0.85872100  1
  N  N22  1  0.84369200  0.69521500  0.13909600  1
  N  N23  1  0.20760700  0.38092400  0.38740800  1
  O  O0  1  0.19559900  0.68846900  0.39204500  1
  O  O1  1  0.24269300  0.58487000  0.62618700  1
  O  O2  1  0.98297600  0.68983700  0.08913600  1
  O  O3  1  0.69421700  0.47662200  0.09303900  1
  O  O4  1  0.30440100  0.18846900  0.10795500  1
  O  O5  1  0.80578300  0.97662200  0.40696100  1
  O  O6  1  0.37614400  0.79075200  0.72858100  1
  O  O7  1  0.48297600  0.68983700  0.41086400  1
  O  O8  1  0.85380900  0.57078000  0.40511100  1
  O  O9  1  0.24269300  0.91513000  0.37381300  1
  O  O10  1  0.01702400  0.31016300  0.91086400  1
  O  O11  1  0.30440100  0.31153100  0.89204500  1
  O  O12  1  0.19421700  0.02337800  0.59303900  1
  O  O13  1  0.69559900  0.81153100  0.89204500  1
  O  O14  1  0.14619100  0.42922000  0.59488900  1
  O  O15  1  0.33063300  0.14338200  0.66965800  1
  O  O16  1  0.15536300  0.95152900  0.79737800  1
  O  O17  1  0.39120700  0.68373900  0.92146500  1
  O  O18  1  0.69421700  0.02337800  0.90696100  1
  O  O19  1  0.51702400  0.31016300  0.58913600  1
  O  O20  1  0.30578300  0.52337800  0.90696100  1
  O  O21  1  0.66936700  0.85661800  0.33034200  1
  O  O22  1  0.12385600  0.29075200  0.77141900  1
  O  O23  1  0.10879300  0.31626100  0.42146500  1
  O  O24  1  0.25730700  0.08487000  0.87381300  1
  O  O25  1  0.64619100  0.42922000  0.90511100  1
  O  O26  1  0.75730700  0.08487000  0.62618700  1
  O  O27  1  0.80440100  0.31153100  0.60795500  1
  O  O28  1  0.89120700  0.81626100  0.42146500  1
  O  O29  1  0.16936700  0.64338200  0.83034200  1
  O  O30  1  0.37614400  0.70924800  0.27141900  1
  O  O31  1  0.60879300  0.18373900  0.92146500  1
  O  O32  1  0.19421700  0.47662200  0.40696100  1
  O  O33  1  0.66936700  0.64338200  0.66965800  1
  O  O34  1  0.39120700  0.81626100  0.07853500  1
  O  O35  1  0.84463700  0.04847100  0.20262200  1
  O  O36  1  0.19559900  0.81153100  0.60795500  1
  O  O37  1  0.89120700  0.68373900  0.57853500  1
  O  O38  1  0.65536300  0.54847100  0.29737800  1
  O  O39  1  0.60879300  0.31626100  0.07853500  1
  O  O40  1  0.12385600  0.20924800  0.22858100  1
  O  O41  1  0.98297600  0.81016300  0.91086400  1
  O  O42  1  0.14619100  0.07078000  0.40511100  1
  O  O43  1  0.64619100  0.07078000  0.09488900  1
  O  O44  1  0.10879300  0.18373900  0.57853500  1
  O  O45  1  0.48297600  0.81016300  0.58913600  1
  O  O46  1  0.51702400  0.18983700  0.41086400  1
  O  O47  1  0.30578300  0.97662200  0.09303900  1
  O  O48  1  0.25730700  0.41513000  0.12618700  1
  O  O49  1  0.62385600  0.20924800  0.27141900  1
  O  O50  1  0.35380900  0.57078000  0.09488900  1
  O  O51  1  0.62385600  0.29075200  0.72858100  1
  O  O52  1  0.33063300  0.35661800  0.33034200  1
  O  O53  1  0.75730700  0.41513000  0.37381300  1
  O  O54  1  0.80440100  0.18846900  0.39204500  1
  O  O55  1  0.87614400  0.79075200  0.77141900  1
  O  O56  1  0.65536300  0.95152900  0.70262200  1
  O  O57  1  0.34463700  0.04847100  0.29737800  1
  O  O58  1  0.74269300  0.58487000  0.87381300  1
  O  O59  1  0.34463700  0.45152900  0.70262200  1
  O  O60  1  0.80578300  0.52337800  0.59303900  1
  O  O61  1  0.74269300  0.91513000  0.12618700  1
  O  O62  1  0.16936700  0.85661800  0.16965800  1
  O  O63  1  0.87614400  0.70924800  0.22858100  1
  O  O64  1  0.35380900  0.92922000  0.90511100  1
  O  O65  1  0.15536300  0.54847100  0.20262200  1
  O  O66  1  0.69559900  0.68846900  0.10795500  1
  O  O67  1  0.84463700  0.45152900  0.79737800  1
  O  O68  1  0.01702400  0.18983700  0.08913600  1
  O  O69  1  0.85380900  0.92922000  0.59488900  1
  O  O70  1  0.83063300  0.35661800  0.16965800  1
  O  O71  1  0.83063300  0.14338200  0.83034200  1
loop_
_geom_bond_atom_site_label_1
_geom_bond_atom_site_label_2
_geom_bond_distance
_geom_bond_site_symmetry_2
Cu0 O30 1.965708 1_555
Cu0 O2 2.023628 1_455
Cu0 O62 2.024925 1_555
Cu0 O65 2.045504 1_555
Cu0 O63 2.362233 1_455
Cu1 O49 1.965708 1_555
Cu1 O68 2.023628 1_655
Cu1 O70 2.024925 1_555
Cu1 O35 2.045504 1_555
Cu1 O40 2.362233 1_655
Cu2 O55 1.965708 1_555
Cu2 O45 2.023628 1_555
Cu2 O33 2.024925 1_555
Cu2 O56 2.045504 1_555
Cu2 O6 2.362233 1_555
Cu3 O69 1.988204 1_445
Cu3 O42 1.988204 1_555
Cu3 O5 2.016384 1_445
Cu3 O12 2.016384 1_555
Cu4 O6 1.965708 1_555
Cu4 O41 2.023628 1_455
Cu4 O29 2.024925 1_555
Cu4 O16 2.045504 1_555
Cu4 O55 2.362233 1_455
Cu5 O63 1.965708 1_555
Cu5 O7 2.023628 1_555
Cu5 O21 2.024925 1_555
Cu5 O38 2.045504 1_555
Cu5 O30 2.362233 1_555
Cu6 O22 1.965708 1_555
Cu6 O19 2.023628 1_555
Cu6 O15 2.024925 1_555
Cu6 O59 2.045504 1_555
Cu6 O51 2.362233 1_555
Cu7 O50 1.988204 1_555
Cu7 O25 1.988204 1_554
Cu7 O3 2.016384 1_555
Cu7 O20 2.016384 1_554
Cu8 O8 1.988204 1_455
Cu8 O14 1.988204 1_555
Cu8 O60 2.016384 1_455
Cu8 O32 2.016384 1_555
Cu9 O64 1.988204 1_544
Cu9 O43 1.988204 1_555
Cu9 O47 2.016384 1_545
Cu9 O18 2.016384 1_554
Cu10 O51 1.965708 1_555
Cu10 O10 2.023628 1_655
Cu10 O71 2.024925 1_555
Cu10 O67 2.045504 1_555
Cu10 O22 2.362233 1_655
Cu11 O40 1.965708 1_555
Cu11 O46 2.023628 1_555
Cu11 O52 2.024925 1_555
Cu11 O57 2.045504 1_555
Cu11 O49 2.362233 1_555
N0 O24 1.224154 1_565
N0 O16 1.280494 1_555
N0 O64 1.307988 1_555
N1 O54 1.217367 1_555
N1 O46 1.282860 1_555
N1 O49 1.319505 1_555
N2 O53 1.224154 1_555
N2 O38 1.280494 1_555
N2 O8 1.307988 1_555
N3 O48 1.224154 1_555
N3 O65 1.280494 1_555
N3 O50 1.307988 1_555
N4 O34 1.234334 1_555
N4 O62 1.284757 1_555
N4 O47 1.288680 1_555
N5 O9 1.224154 1_545
N5 O57 1.280494 1_555
N5 O42 1.307988 1_555
N6 O26 1.224154 1_565
N6 O56 1.280494 1_555
N6 O69 1.307988 1_555
N7 O28 1.234334 1_555
N7 O21 1.284757 1_555
N7 O5 1.288680 1_555
N8 O39 1.234334 1_555
N8 O70 1.284757 1_555
N8 O3 1.288680 1_555
N9 O0 1.217367 1_555
N9 O7 1.282860 1_555
N9 O30 1.319505 1_555
N10 O4 1.217367 1_555
N10 O68 1.282860 1_555
N10 O40 1.319505 1_555
N11 O27 1.217367 1_555
N11 O19 1.282860 1_555
N11 O51 1.319505 1_555
N12 O44 1.234334 1_555
N12 O15 1.284757 1_555
N12 O12 1.288680 1_555
N13 O1 1.224154 1_555
N13 O59 1.280494 1_555
N13 O14 1.307988 1_555
N14 O36 1.217367 1_555
N14 O45 1.282860 1_555
N14 O6 1.319505 1_555
N15 O61 1.224154 1_545
N15 O35 1.280494 1_555
N15 O43 1.307988 1_555
N16 O37 1.234334 1_555
N16 O33 1.284757 1_555
N16 O60 1.288680 1_555
N17 O13 1.217367 1_555
N17 O41 1.282860 1_555
N17 O55 1.319505 1_555
N18 O17 1.234334 1_555
N18 O29 1.284757 1_555
N18 O20 1.288680 1_555
N19 O11 1.217367 1_555
N19 O10 1.282860 1_555
N19 O22 1.319505 1_555
N20 O31 1.234334 1_555
N20 O71 1.284757 1_555
N20 O18 1.288680 1_555
N21 O58 1.224154 1_555
N21 O67 1.280494 1_555
N21 O25 1.307988 1_555
N22 O66 1.217367 1_555
N22 O2 1.282860 1_555
N22 O63 1.319505 1_555
N23 O23 1.234334 1_555
N23 O52 1.284757 1_555
N23 O32 1.288680 1_555
