# generated using pymatgen
data_NbBi7O13
_symmetry_space_group_name_H-M   'P 1'
_cell_length_a   3.92753000
_cell_length_b   3.96808893
_cell_length_c   22.63866642
_cell_angle_alpha   90.18365843
_cell_angle_beta   91.15872914
_cell_angle_gamma   91.05677372
_symmetry_Int_Tables_number   1
_chemical_formula_structural   NbBi7O13
_chemical_formula_sum   'Nb1 Bi7 O13'
_cell_volume   352.68441747
_cell_formula_units_Z   1
loop_
 _symmetry_equiv_pos_site_id
 _symmetry_equiv_pos_as_xyz
  1  'x, y, z'
loop_
 _atom_site_type_symbol
 _atom_site_label
 _atom_site_symmetry_multiplicity
 _atom_site_fract_x
 _atom_site_fract_y
 _atom_site_fract_z
 _atom_site_occupancy
  Nb  Nb0  1  0.50822900  0.43508000  0.87433200  1
  Bi  Bi0  1  0.83541900  0.13368500  0.99594400  1
  Bi  Bi1  1  0.50486300  0.52355400  0.14297100  1
  Bi  Bi2  1  0.97619600  0.03033600  0.25738900  1
  Bi  Bi3  1  0.50380500  0.59535500  0.39198200  1
  Bi  Bi4  1  0.97862400  0.04242300  0.50639800  1
  Bi  Bi5  1  0.55780600  0.51081900  0.64386300  1
  Bi  Bi6  1  0.04359700  0.98018600  0.75778200  1
  O  O0  1  0.73407500  0.02523100  0.16488900  1
  O  O1  1  0.83391700  0.54523800  0.06977200  1
  O  O2  1  0.72153700  0.52446600  0.24165400  1
  O  O3  1  0.73602200  0.04326300  0.34084000  1
  O  O4  1  0.96031000  0.58460500  0.44682500  1
  O  O5  1  0.46577900  0.04596100  0.45583300  1
  O  O6  1  0.00978300  0.68504200  0.58455900  1
  O  O7  1  0.03014000  0.47685600  0.70615500  1
  O  O8  1  0.54424200  0.96821200  0.69943200  1
  O  O9  1  0.56632200  0.99548800  0.83755500  1
  O  O10  1  0.05790600  0.48901100  0.83931100  1
  O  O11  1  0.77191000  0.60790100  0.94207200  1
  O  O12  1  0.32481500  0.15999300  0.94261500  1
loop_
_geom_bond_atom_site_label_1
_geom_bond_atom_site_label_2
_geom_bond_distance
_geom_bond_site_symmetry_2
Nb0 O10 1.939293 1_555
Nb0 O11 1.948682 1_555
Nb0 O9 1.949622 1_545
Nb0 O12 2.031479 1_555
Nb0 O10 2.321288 1_655
Nb0 O9 2.385612 1_555
Bi0 O11 2.260587 1_555
Bi0 O12 2.291345 1_655
Bi0 O12 2.323952 1_555
Bi0 O1 2.333175 1_556
Bi0 O11 2.419647 1_545
Bi1 O1 2.122999 1_555
Bi1 O0 2.220139 1_565
Bi1 O0 2.240668 1_555
Bi1 O2 2.374475 1_555
Bi2 O3 2.129511 1_555
Bi2 O2 2.243704 1_555
Bi2 O2 2.250246 1_545
Bi2 O0 2.282176 1_555
Bi3 O4 2.161267 1_555
Bi3 O5 2.304538 1_565
Bi3 O3 2.308100 1_565
Bi3 O4 2.490778 1_455
Bi3 O5 2.623223 1_555
Bi3 O3 2.659289 1_555
Bi4 O5 2.249236 1_655
Bi4 O4 2.258285 1_545
Bi4 O6 2.273931 1_645
Bi4 O5 2.296855 1_555
Bi4 O4 2.544221 1_555
Bi5 O8 2.207079 1_555
Bi5 O7 2.313634 1_655
Bi5 O6 2.342789 1_655
Bi5 O8 2.497431 1_545
Bi5 O7 2.531977 1_555
Bi5 O6 2.618608 1_555
Bi6 O7 2.295451 1_565
Bi6 O7 2.310085 1_555
Bi6 O8 2.342012 1_455
Bi6 O8 2.391994 1_555
Bi6 O9 2.630468 1_455
Bi6 O10 2.689127 1_555
Bi6 O9 2.706434 1_555
Bi6 O10 2.730227 1_565
