# generated using pymatgen
data_TeH21C7(NCl2)3
_symmetry_space_group_name_H-M   'P 1'
_cell_length_a   9.15764300
_cell_length_b   14.01247700
_cell_length_c   17.53465454
_cell_angle_alpha   64.39399008
_cell_angle_beta   90.00000000
_cell_angle_gamma   90.00000000
_symmetry_Int_Tables_number   1
_chemical_formula_structural   TeH21C7(NCl2)3
_chemical_formula_sum   'Te4 H84 C28 N12 Cl24'
_cell_volume   2029.08341865
_cell_formula_units_Z   4
loop_
 _symmetry_equiv_pos_site_id
 _symmetry_equiv_pos_as_xyz
  1  'x, y, z'
loop_
 _atom_site_type_symbol
 _atom_site_label
 _atom_site_symmetry_multiplicity
 _atom_site_fract_x
 _atom_site_fract_y
 _atom_site_fract_z
 _atom_site_occupancy
  Te  Te0  1  0.29056800  0.22171900  0.52094600  1
  Te  Te1  1  0.20943200  0.22171900  0.02094600  1
  Te  Te2  1  0.79056800  0.77828100  0.97905400  1
  Te  Te3  1  0.70943200  0.77828100  0.47905400  1
  H  H0  1  0.92994700  0.55571000  0.85904700  1
  H  H1  1  0.36863400  0.43539800  0.74043800  1
  H  H2  1  0.42994700  0.44429000  0.64095300  1
  H  H3  1  0.57336200  0.01329300  0.12169300  1
  H  H4  1  0.81187600  0.12452900  0.60535400  1
  H  H5  1  0.73781800  0.21058000  0.29297800  1
  H  H6  1  0.37029600  0.69599600  0.27290800  1
  H  H7  1  0.03894600  0.59373400  0.32651500  1
  H  H8  1  0.57005300  0.55571000  0.35904700  1
  H  H9  1  0.36706600  0.99723200  0.28705900  1
  H  H10  1  0.75709400  0.61333400  0.81694100  1
  H  H11  1  0.23244900  0.64706100  0.00093300  1
  H  H12  1  0.42663800  0.98670700  0.87830700  1
  H  H13  1  0.88261200  0.04014700  0.06518700  1
  H  H14  1  0.26334900  0.50987700  0.03343200  1
  H  H15  1  0.09336700  0.59020400  0.54306400  1
  H  H16  1  0.75243100  0.89129000  0.22957700  1
  H  H17  1  0.67024400  0.31202800  0.87267100  1
  H  H18  1  0.23665100  0.50987700  0.53343200  1
  H  H19  1  0.19509100  0.70218600  0.31354100  1
  H  H20  1  0.86706600  0.00276800  0.21294100  1
  H  H21  1  0.38261200  0.95985300  0.43481300  1
  H  H22  1  0.76218200  0.21058000  0.79297800  1
  H  H23  1  0.46966400  0.39451000  0.27254600  1
  H  H24  1  0.63293400  0.00276800  0.71294100  1
  H  H25  1  0.56941400  0.50961600  0.20327000  1
  H  H26  1  0.61738800  0.04014700  0.56518700  1
  H  H27  1  0.96966400  0.60549000  0.22745400  1
  H  H28  1  0.56089300  0.89367600  0.69694900  1
  H  H29  1  0.40663300  0.59020400  0.04306400  1
  H  H30  1  0.74290600  0.61333400  0.31694100  1
  H  H31  1  0.92663800  0.01329300  0.62169300  1
  H  H32  1  0.53033600  0.60549000  0.72745400  1
  H  H33  1  0.43910700  0.10632400  0.30305100  1
  H  H34  1  0.07336200  0.98670700  0.37830700  1
  H  H35  1  0.24756900  0.10871000  0.77042300  1
  H  H36  1  0.13293400  0.99723200  0.78705900  1
  H  H37  1  0.17024400  0.68797200  0.62732900  1
  H  H38  1  0.74756900  0.89129000  0.72957700  1
  H  H39  1  0.76755100  0.35293900  0.99906700  1
  H  H40  1  0.69509100  0.29781400  0.18645900  1
  H  H41  1  0.73244900  0.35293900  0.49906700  1
  H  H42  1  0.14053100  0.90381800  0.48211600  1
  H  H43  1  0.62970400  0.30400400  0.72709200  1
  H  H44  1  0.06941400  0.49038400  0.29673000  1
  H  H45  1  0.86863400  0.56460200  0.75956200  1
  H  H46  1  0.11738800  0.95985300  0.93481300  1
  H  H47  1  0.07005300  0.44429000  0.14095300  1
  H  H48  1  0.26755100  0.64706100  0.50093300  1
  H  H49  1  0.59336700  0.40979600  0.95693600  1
  H  H50  1  0.93058600  0.50961600  0.70327000  1
  H  H51  1  0.12970400  0.69599600  0.77290800  1
  H  H52  1  0.53894600  0.40626600  0.17348500  1
  H  H53  1  0.30490900  0.70218600  0.81354100  1
  H  H54  1  0.93910700  0.89367600  0.19694900  1
  H  H55  1  0.76334900  0.49012300  0.46656800  1
  H  H56  1  0.64053100  0.09618200  0.01788400  1
  H  H57  1  0.35946900  0.90381800  0.98211600  1
  H  H58  1  0.68812400  0.12452900  0.10535400  1
  H  H59  1  0.13136600  0.43539800  0.24043800  1
  H  H60  1  0.26218200  0.78942000  0.70702200  1
  H  H61  1  0.32975600  0.68797200  0.12732900  1
  H  H62  1  0.73665100  0.49012300  0.96656800  1
  H  H63  1  0.46105400  0.59373400  0.82651500  1
  H  H64  1  0.85946900  0.09618200  0.51788400  1
  H  H65  1  0.80490900  0.29781400  0.68645900  1
  H  H66  1  0.82975600  0.31202800  0.37267100  1
  H  H67  1  0.24290600  0.38666600  0.18305900  1
  H  H68  1  0.87029600  0.30400400  0.22709200  1
  H  H69  1  0.03033600  0.39451000  0.77254600  1
  H  H70  1  0.90663300  0.40979600  0.45693600  1
  H  H71  1  0.96105400  0.40626600  0.67348500  1
  H  H72  1  0.77548500  0.93553900  0.08147200  1
  H  H73  1  0.18812400  0.87547100  0.39464600  1
  H  H74  1  0.63136600  0.56460200  0.25956200  1
  H  H75  1  0.72451500  0.93553900  0.58147200  1
  H  H76  1  0.25709400  0.38666600  0.68305900  1
  H  H77  1  0.23781800  0.78942000  0.20702200  1
  H  H78  1  0.22451500  0.06446100  0.91852800  1
  H  H79  1  0.43058600  0.49038400  0.79673000  1
  H  H80  1  0.31187600  0.87547100  0.89464600  1
  H  H81  1  0.25243100  0.10871000  0.27042300  1
  H  H82  1  0.06089300  0.10632400  0.80305100  1
  H  H83  1  0.27548500  0.06446100  0.41852800  1
  C  C0  1  0.66494300  0.55105300  0.32271700  1
  C  C1  1  0.06048500  0.57600200  0.27273500  1
  C  C2  1  0.28824200  0.57694000  0.04769800  1
  C  C3  1  0.16494300  0.44894700  0.17728300  1
  C  C4  1  0.74590600  0.29093300  0.74288900  1
  C  C5  1  0.93951500  0.42399800  0.72726500  1
  C  C6  1  0.15797600  0.05859900  0.80786300  1
  C  C7  1  0.24590600  0.70906700  0.75711100  1
  C  C8  1  0.65797600  0.94140100  0.69213700  1
  C  C9  1  0.74594900  0.37639800  0.83624500  1
  C  C10  1  0.25409400  0.70906700  0.25711100  1
  C  C11  1  0.34202400  0.05859900  0.30786300  1
  C  C12  1  0.16515500  0.93807600  0.41440300  1
  C  C13  1  0.66515500  0.06192400  0.08559700  1
  C  C14  1  0.43951500  0.57600200  0.77273500  1
  C  C15  1  0.21175800  0.57694000  0.54769800  1
  C  C16  1  0.24594900  0.62360200  0.66375500  1
  C  C17  1  0.83505700  0.55105300  0.82271700  1
  C  C18  1  0.56048500  0.42399800  0.22726500  1
  C  C19  1  0.83484500  0.06192400  0.58559700  1
  C  C20  1  0.33484500  0.93807600  0.91440300  1
  C  C21  1  0.75409400  0.29093300  0.24288900  1
  C  C22  1  0.84202400  0.94140100  0.19213700  1
  C  C23  1  0.71175800  0.42306000  0.95230200  1
  C  C24  1  0.78824200  0.42306000  0.45230200  1
  C  C25  1  0.75405100  0.37639800  0.33624500  1
  C  C26  1  0.25405100  0.62360200  0.16375500  1
  C  C27  1  0.33505700  0.44894700  0.67728300  1
  N  N0  1  0.79715300  0.99374300  0.10151000  1
  N  N1  1  0.73484800  0.44746900  0.36622800  1
  N  N2  1  0.69636800  0.37144300  0.26801400  1
  N  N3  1  0.23484800  0.55253100  0.13377200  1
  N  N4  1  0.70284700  0.99374300  0.60151000  1
  N  N5  1  0.76515200  0.44746900  0.86622800  1
  N  N6  1  0.80363200  0.37144300  0.76801400  1
  N  N7  1  0.26515200  0.55253100  0.63377200  1
  N  N8  1  0.30363200  0.62855700  0.73198600  1
  N  N9  1  0.19636800  0.62855700  0.23198600  1
  N  N10  1  0.29715300  0.00625700  0.39849000  1
  N  N11  1  0.20284700  0.00625700  0.89849000  1
  Cl  Cl0  1  0.24752800  0.01974100  0.10483500  1
  Cl  Cl1  1  0.74752800  0.98025900  0.39516500  1
  Cl  Cl2  1  0.25247200  0.01974100  0.60483500  1
  Cl  Cl3  1  0.39194800  0.22185800  0.90257100  1
  Cl  Cl4  1  0.99277600  0.17905000  0.94194300  1
  Cl  Cl5  1  0.16297700  0.42035400  0.93370000  1
  Cl  Cl6  1  0.89194800  0.77814200  0.59742900  1
  Cl  Cl7  1  0.83702300  0.57964600  0.06630000  1
  Cl  Cl8  1  0.00722400  0.82095000  0.05805700  1
  Cl  Cl9  1  0.47285100  0.21512500  0.63175200  1
  Cl  Cl10  1  0.91601200  0.73793700  0.39912200  1
  Cl  Cl11  1  0.60805200  0.77814200  0.09742900  1
  Cl  Cl12  1  0.50722400  0.17905000  0.44194300  1
  Cl  Cl13  1  0.75247200  0.98025900  0.89516500  1
  Cl  Cl14  1  0.58398800  0.73793700  0.89912200  1
  Cl  Cl15  1  0.66297700  0.57964600  0.56630000  1
  Cl  Cl16  1  0.02714900  0.21512500  0.13175200  1
  Cl  Cl17  1  0.33702300  0.42035400  0.43370000  1
  Cl  Cl18  1  0.49277600  0.82095000  0.55805700  1
  Cl  Cl19  1  0.41601200  0.26206300  0.10087800  1
  Cl  Cl20  1  0.08398800  0.26206300  0.60087800  1
  Cl  Cl21  1  0.10805200  0.22185800  0.40257100  1
  Cl  Cl22  1  0.97285100  0.78487500  0.86824800  1
  Cl  Cl23  1  0.52714900  0.78487500  0.36824800  1
loop_
_geom_bond_atom_site_label_1
_geom_bond_atom_site_label_2
_geom_bond_distance
_geom_bond_site_symmetry_2
H13 N0 1.040654 1_545
H21 N10 1.040654 1_565
H26 N4 1.040654 1_545
H46 N11 1.040654 1_565
H72 N0 1.037157 1_555
H75 N4 1.037157 1_555
H78 N11 1.037157 1_555
H83 N10 1.037157 1_555
C0 H74 1.084067 1_555
C0 H8 1.095951 1_555
C0 H30 1.097824 1_555
C0 N1 1.463377 1_555
C1 H44 1.089373 1_555
C1 H7 1.091992 1_555
C1 H27 1.099686 1_455
C1 N9 1.465092 1_555
C2 H14 1.095809 1_555
C2 H11 1.096576 1_555
C2 H29 1.097062 1_555
C2 N3 1.479118 1_555
C3 H59 1.084067 1_555
C3 H47 1.095951 1_555
C3 H67 1.097824 1_555
C3 N3 1.463377 1_555
C4 H65 1.094467 1_555
C4 H43 1.094900 1_555
C4 H22 1.098450 1_555
C4 N6 1.475078 1_555
C5 H50 1.089373 1_555
C5 H71 1.091992 1_555
C5 H69 1.099686 1_655
C5 N6 1.465092 1_555
C6 H82 1.093608 1_555
C6 H36 1.093725 1_545
C6 H35 1.094874 1_555
C6 N11 1.491521 1_555
C7 H53 1.094467 1_555
C7 H51 1.094900 1_555
C7 H60 1.098450 1_555
C7 N8 1.475078 1_555
C8 H28 1.093608 1_555
C8 H24 1.093725 1_565
C8 H38 1.094874 1_555
C8 N4 1.491521 1_555
C9 H17 1.097361 1_555
C9 N5 1.323505 1_555
C9 N6 1.336806 1_555
C10 H19 1.094467 1_555
C10 H6 1.094900 1_555
C10 H77 1.098450 1_555
C10 N9 1.475078 1_555
C11 H33 1.093608 1_555
C11 H9 1.093725 1_545
C11 H81 1.094874 1_555
C11 N10 1.491521 1_555
C12 H73 1.093853 1_555
C12 H42 1.094702 1_555
C12 H34 1.094889 1_555
C12 N10 1.490426 1_565
C13 H58 1.093853 1_555
C13 H56 1.094702 1_555
C13 H3 1.094889 1_555
C13 N0 1.490426 1_545
C14 H79 1.089373 1_555
C14 H63 1.091992 1_555
C14 H32 1.099686 1_555
C14 N8 1.465092 1_555
C15 H18 1.095809 1_555
C15 H48 1.096576 1_555
C15 H15 1.097062 1_555
C15 N7 1.479118 1_555
C16 H37 1.097361 1_555
C16 N7 1.323505 1_555
C16 N8 1.336806 1_555
C17 H45 1.084067 1_555
C17 H0 1.095951 1_555
C17 H10 1.097824 1_555
C17 N5 1.463377 1_555
C18 H25 1.089373 1_555
C18 H52 1.091992 1_555
C18 H23 1.099686 1_555
C18 N2 1.465092 1_555
C19 H4 1.093853 1_555
C19 H64 1.094702 1_555
C19 H31 1.094889 1_555
C19 N4 1.490426 1_545
C20 H80 1.093853 1_555
C20 H57 1.094702 1_555
C20 H12 1.094889 1_555
C20 N11 1.490426 1_565
C21 H40 1.094467 1_555
C21 H68 1.094900 1_555
C21 H5 1.098450 1_555
C21 N2 1.475078 1_555
C22 H54 1.093608 1_555
C22 H20 1.093725 1_565
C22 H16 1.094874 1_555
C22 N0 1.491521 1_555
C23 H62 1.095809 1_555
C23 H39 1.096576 1_555
C23 H49 1.097062 1_555
C23 N5 1.479118 1_555
C24 H55 1.095809 1_555
C24 H41 1.096576 1_555
C24 H70 1.097062 1_555
C24 N1 1.479118 1_555
C25 H66 1.097361 1_555
C25 N1 1.323505 1_555
C25 N2 1.336806 1_555
C26 H61 1.097361 1_555
C26 N3 1.323505 1_555
C26 N9 1.336806 1_555
C27 H1 1.084067 1_555
C27 H2 1.095951 1_555
C27 H76 1.097824 1_555
C27 N7 1.463377 1_555
Cl0 Te1 2.587874 1_555
Cl1 Te3 2.587874 1_555
Cl2 Te0 2.587874 1_555
Cl3 Te1 2.664306 1_556
Cl4 Te1 2.632284 1_656
Cl5 Te1 2.566706 1_556
Cl6 Te3 2.664306 1_555
Cl7 Te2 2.566706 1_554
Cl8 Te2 2.632284 1_454
Cl9 Te0 2.532766 1_555
Cl10 Te3 2.558854 1_555
Cl11 Te2 2.664306 1_554
Cl12 Te0 2.632284 1_555
Cl13 Te2 2.587874 1_555
Cl14 Te2 2.558854 1_555
Cl15 Te3 2.566706 1_555
Cl16 Te1 2.532766 1_555
Cl17 Te0 2.566706 1_555
Cl18 Te3 2.632284 1_555
Cl19 Te1 2.558854 1_555
Cl20 Te0 2.558854 1_555
Cl21 Te0 2.664306 1_555
Cl22 Te2 2.532766 1_555
Cl23 Te3 2.532766 1_555
