# generated using pymatgen
data_Cd2H2SO6
_symmetry_space_group_name_H-M   'P 1'
_cell_length_a   6.95548937
_cell_length_b   6.95548937
_cell_length_c   6.47107246
_cell_angle_alpha   67.91309926
_cell_angle_beta   112.08690074
_cell_angle_gamma   112.54688987
_symmetry_Int_Tables_number   1
_chemical_formula_structural   Cd2H2SO6
_chemical_formula_sum   'Cd4 H4 S2 O12'
_cell_volume   257.89792127
_cell_formula_units_Z   2
loop_
 _symmetry_equiv_pos_site_id
 _symmetry_equiv_pos_as_xyz
  1  'x, y, z'
loop_
 _atom_site_type_symbol
 _atom_site_label
 _atom_site_symmetry_multiplicity
 _atom_site_fract_x
 _atom_site_fract_y
 _atom_site_fract_z
 _atom_site_occupancy
  Cd  Cd0  1  0.84942634  0.34657766  0.81264316  1
  Cd  Cd1  1  0.34657766  0.84942634  0.68735684  1
  Cd  Cd2  1  0.15057366  0.65342234  0.18735684  1
  Cd  Cd3  1  0.65342234  0.15057366  0.31264316  1
  H  H0  1  0.77139925  0.94864343  0.81098556  1
  H  H1  1  0.94864343  0.77139925  0.68901444  1
  H  H2  1  0.22860075  0.05135657  0.18901444  1
  H  H3  1  0.05135657  0.22860075  0.31098556  1
  S  S0  1  0.31227307  0.31227307  0.75000000  1
  S  S1  1  0.68772693  0.68772693  0.25000000  1
  O  O0  1  0.31368335  0.53317943  0.59569424  1
  O  O1  1  0.53317943  0.31368335  0.90430576  1
  O  O2  1  0.68631665  0.46682057  0.40430576  1
  O  O3  1  0.46682057  0.68631665  0.09569424  1
  O  O4  1  0.16442643  0.24506262  0.89326768  1
  O  O5  1  0.24506262  0.16442643  0.60673232  1
  O  O6  1  0.83557357  0.75493738  0.10673232  1
  O  O7  1  0.75493738  0.83557357  0.39326768  1
  O  O8  1  0.68666035  0.04691452  0.70133605  1
  O  O9  1  0.04691452  0.68666035  0.79866395  1
  O  O10  1  0.31333965  0.95308548  0.29866395  1
  O  O11  1  0.95308548  0.31333965  0.20133605  1
loop_
_geom_bond_atom_site_label_1
_geom_bond_atom_site_label_2
_geom_bond_distance
_geom_bond_site_symmetry_2
Cd0 O8 2.202497 1_555
Cd0 O9 2.220610 1_655
Cd0 O11 2.286165 1_556
Cd0 O4 2.370835 1_655
Cd0 O1 2.394961 1_555
Cd0 O2 2.404174 1_555
Cd1 O9 2.202497 1_555
Cd1 O8 2.220610 1_565
Cd1 O10 2.286165 1_555
Cd1 O5 2.370835 1_565
Cd1 O0 2.394961 1_555
Cd1 O3 2.404174 1_556
Cd2 O10 2.202497 1_555
Cd2 O11 2.220610 1_455
Cd2 O9 2.286165 1_554
Cd2 O6 2.370835 1_455
Cd2 O3 2.394961 1_555
Cd2 O0 2.404174 1_555
Cd3 O11 2.202497 1_555
Cd3 O10 2.220610 1_545
Cd3 O8 2.286165 1_555
Cd3 O7 2.370835 1_545
Cd3 O2 2.394961 1_555
Cd3 O1 2.404174 1_554
H0 O8 0.973539 1_565
H1 O9 0.973539 1_655
H2 O10 0.973539 1_545
H3 O11 0.973539 1_455
O0 S0 1.483251 1_555
O1 S0 1.483251 1_555
O2 S1 1.483251 1_555
O3 S1 1.483251 1_555
O4 S0 1.468983 1_555
O5 S0 1.468983 1_555
O6 S1 1.468983 1_555
O7 S1 1.468983 1_555
