# generated using pymatgen
data_CsV3O8
_symmetry_space_group_name_H-M   'P 1'
_cell_length_a   8.53903813
_cell_length_b   5.02856232
_cell_length_c   8.29244369
_cell_angle_alpha   83.23989985
_cell_angle_beta   90.00000000
_cell_angle_gamma   90.00000000
_symmetry_Int_Tables_number   1
_chemical_formula_structural   CsV3O8
_chemical_formula_sum   'Cs2 V6 O16'
_cell_volume   353.59445022
_cell_formula_units_Z   2
loop_
 _symmetry_equiv_pos_site_id
 _symmetry_equiv_pos_as_xyz
  1  'x, y, z'
loop_
 _atom_site_type_symbol
 _atom_site_label
 _atom_site_symmetry_multiplicity
 _atom_site_fract_x
 _atom_site_fract_y
 _atom_site_fract_z
 _atom_site_occupancy
  Cs  Cs0  1  0.25000000  0.07028720  0.05608149  1
  Cs  Cs1  1  0.75000000  0.92971280  0.94391851  1
  V  V0  1  0.55636714  0.43578993  0.32815274  1
  V  V1  1  0.05636714  0.56421007  0.67184726  1
  V  V2  1  0.44363286  0.56421007  0.67184726  1
  V  V3  1  0.94363286  0.43578993  0.32815274  1
  V  V4  1  0.25000000  0.07954295  0.56505583  1
  V  V5  1  0.75000000  0.92045705  0.43494417  1
  O  O0  1  0.60238158  0.10955326  0.28925960  1
  O  O1  1  0.10238158  0.89044674  0.71074040  1
  O  O2  1  0.39761842  0.89044674  0.71074040  1
  O  O3  1  0.89761842  0.10955326  0.28925960  1
  O  O4  1  0.55648590  0.43727126  0.81709273  1
  O  O5  1  0.05648590  0.56272874  0.18290727  1
  O  O6  1  0.44351410  0.56272874  0.18290727  1
  O  O7  1  0.94351410  0.43727126  0.81709273  1
  O  O8  1  0.75000000  0.11184287  0.57713073  1
  O  O9  1  0.25000000  0.88815713  0.42286927  1
  O  O10  1  0.75000000  0.57573407  0.26364597  1
  O  O11  1  0.25000000  0.42426593  0.73635403  1
  O  O12  1  0.91091923  0.67817261  0.49735927  1
  O  O13  1  0.41091923  0.32182739  0.50264073  1
  O  O14  1  0.08908077  0.32182739  0.50264073  1
  O  O15  1  0.58908077  0.67817261  0.49735927  1
loop_
_geom_bond_atom_site_label_1
_geom_bond_atom_site_label_2
_geom_bond_distance
_geom_bond_site_symmetry_2
Cs0 O11 3.014443 1_554
Cs0 O9 3.071500 1_545
Cs0 O6 3.117502 1_545
Cs0 O5 3.117502 1_545
Cs0 O5 3.252939 1_555
Cs0 O6 3.252939 1_555
Cs0 O2 3.349229 1_544
Cs0 O1 3.349229 1_544
Cs0 O3 3.594694 1_455
Cs0 O0 3.594694 1_555
Cs0 O4 3.649826 1_554
Cs0 O7 3.649826 1_454
Cs1 O10 3.014443 1_556
Cs1 O8 3.071500 1_565
Cs1 O7 3.117502 1_565
Cs1 O4 3.117502 1_565
Cs1 O7 3.252939 1_555
Cs1 O4 3.252939 1_555
Cs1 O3 3.349229 1_566
Cs1 O0 3.349229 1_566
Cs1 O2 3.594694 1_555
Cs1 O1 3.594694 1_655
Cs1 O5 3.649826 1_656
Cs1 O6 3.649826 1_556
O0 V0 1.753343 1_555
O0 V5 1.918881 1_545
O1 V1 1.753343 1_555
O1 V4 1.918881 1_565
O2 V2 1.753343 1_555
O2 V4 1.918881 1_565
O3 V3 1.753343 1_555
O3 V5 1.918881 1_545
O4 V2 1.614237 1_555
O5 V3 1.614237 1_455
O6 V0 1.614237 1_555
O7 V1 1.614237 1_655
O8 V5 1.607347 1_545
O9 V4 1.607347 1_565
O10 V0 1.851106 1_555
O10 V3 1.851106 1_555
O10 V5 2.366928 1_555
O11 V1 1.851106 1_555
O11 V2 1.851106 1_555
O11 V4 2.366928 1_555
O12 V5 1.868669 1_555
O12 V1 1.941477 1_655
O12 V3 1.983685 1_555
O13 V4 1.868669 1_555
O13 V0 1.941477 1_555
O13 V2 1.983685 1_555
O14 V4 1.868669 1_555
O14 V3 1.941477 1_455
O14 V1 1.983685 1_555
O15 V5 1.868669 1_555
O15 V2 1.941477 1_555
O15 V0 1.983685 1_555
