# generated using pymatgen
data_FeSb2WC8Se2(O2F3)4
_symmetry_space_group_name_H-M   'P 1'
_cell_length_a   12.48512300
_cell_length_b   12.23816000
_cell_length_c   15.42608769
_cell_angle_alpha   87.35522073
_cell_angle_beta   90.00000000
_cell_angle_gamma   90.00000000
_symmetry_Int_Tables_number   1
_chemical_formula_structural   FeSb2WC8Se2(O2F3)4
_chemical_formula_sum   'Fe4 Sb8 W4 C32 Se8 O32 F48'
_cell_volume   2354.51735443
_cell_formula_units_Z   4
loop_
 _symmetry_equiv_pos_site_id
 _symmetry_equiv_pos_as_xyz
  1  'x, y, z'
loop_
 _atom_site_type_symbol
 _atom_site_label
 _atom_site_symmetry_multiplicity
 _atom_site_fract_x
 _atom_site_fract_y
 _atom_site_fract_z
 _atom_site_occupancy
  Fe  Fe0  1  0.46147300  0.62083700  0.68873400  1
  Fe  Fe1  1  0.96147300  0.87916300  0.31126600  1
  Fe  Fe2  1  0.03852700  0.12083700  0.68873400  1
  Fe  Fe3  1  0.53852700  0.37916300  0.31126600  1
  Sb  Sb0  1  0.52753600  0.19596500  0.60886200  1
  Sb  Sb1  1  0.76835000  0.52023800  0.05397800  1
  Sb  Sb2  1  0.97246400  0.69596500  0.60886200  1
  Sb  Sb3  1  0.23165000  0.47976200  0.94602200  1
  Sb  Sb4  1  0.47246400  0.80403500  0.39113800  1
  Sb  Sb5  1  0.26835000  0.97976200  0.94602200  1
  Sb  Sb6  1  0.02753600  0.30403500  0.39113800  1
  Sb  Sb7  1  0.73165000  0.02023800  0.05397800  1
  W  W0  1  0.08060000  0.72012000  0.21485400  1
  W  W1  1  0.58060000  0.77988000  0.78514600  1
  W  W2  1  0.91940000  0.27988000  0.78514600  1
  W  W3  1  0.41940000  0.22012000  0.21485400  1
  C  C0  1  0.35486000  0.37268100  0.23721400  1
  C  C1  1  0.15893000  0.07854200  0.63181300  1
  C  C2  1  0.17017100  0.65556200  0.32211600  1
  C  C3  1  0.94429500  0.44383600  0.82052300  1
  C  C4  1  0.03059000  0.98976200  0.75112500  1
  C  C5  1  0.76583500  0.29575200  0.84476000  1
  C  C6  1  0.54407800  0.72735400  0.91555400  1
  C  C7  1  0.53059000  0.51023800  0.24887500  1
  C  C8  1  0.34107000  0.57854200  0.63181300  1
  C  C9  1  0.04407800  0.77264600  0.08444600  1
  C  C10  1  0.26583500  0.20424800  0.15524000  1
  C  C11  1  0.64514000  0.62731900  0.76278600  1
  C  C12  1  0.55570500  0.94383600  0.82052300  1
  C  C13  1  0.44429500  0.05616400  0.17947700  1
  C  C14  1  0.05570500  0.55616400  0.17947700  1
  C  C15  1  0.94764900  0.08639200  0.60076700  1
  C  C16  1  0.84107000  0.92145800  0.36818700  1
  C  C17  1  0.65893000  0.42145800  0.36818700  1
  C  C18  1  0.82982900  0.34443800  0.67788400  1
  C  C19  1  0.23416500  0.70424800  0.15524000  1
  C  C20  1  0.14514000  0.87268100  0.23721400  1
  C  C21  1  0.73416500  0.79575200  0.84476000  1
  C  C22  1  0.96941000  0.01023800  0.24887500  1
  C  C23  1  0.32982900  0.15556200  0.32211600  1
  C  C24  1  0.67017100  0.84443800  0.67788400  1
  C  C25  1  0.44764900  0.41360800  0.39923300  1
  C  C26  1  0.45592200  0.27264600  0.08444600  1
  C  C27  1  0.55235100  0.58639200  0.60076700  1
  C  C28  1  0.85486000  0.12731900  0.76278600  1
  C  C29  1  0.05235100  0.91360800  0.39923300  1
  C  C30  1  0.95592200  0.22735400  0.91555400  1
  C  C31  1  0.46941000  0.48976200  0.75112500  1
  Se  Se0  1  0.37135200  0.73262600  0.78814900  1
  Se  Se1  1  0.43810600  0.81296800  0.65784600  1
  Se  Se2  1  0.93810600  0.68703200  0.34215400  1
  Se  Se3  1  0.87135200  0.76737400  0.21185100  1
  Se  Se4  1  0.62864800  0.26737400  0.21185100  1
  Se  Se5  1  0.56189400  0.18703200  0.34215400  1
  Se  Se6  1  0.06189400  0.31296800  0.65784600  1
  Se  Se7  1  0.12864800  0.23262600  0.78814900  1
  O  O0  1  0.31690400  0.69897500  0.12411100  1
  O  O1  1  0.47546000  0.29898100  0.01420800  1
  O  O2  1  0.52184800  0.59131400  0.20967200  1
  O  O3  1  0.95145000  0.53319700  0.83842500  1
  O  O4  1  0.47815200  0.40868600  0.79032800  1
  O  O5  1  0.70152700  0.55205900  0.75799100  1
  O  O6  1  0.02184800  0.90868600  0.79032800  1
  O  O7  1  0.97546000  0.20101900  0.98579200  1
  O  O8  1  0.27974400  0.11843900  0.37827700  1
  O  O9  1  0.61343800  0.56695600  0.54848500  1
  O  O10  1  0.73462800  0.44994900  0.40228600  1
  O  O11  1  0.72025600  0.88156100  0.62172300  1
  O  O12  1  0.88656200  0.06695600  0.54848500  1
  O  O13  1  0.18309600  0.19897500  0.12411100  1
  O  O14  1  0.54855000  0.03319700  0.83842500  1
  O  O15  1  0.22025600  0.61843900  0.37827700  1
  O  O16  1  0.23462800  0.05005100  0.59771400  1
  O  O17  1  0.76537200  0.94994900  0.40228600  1
  O  O18  1  0.81690400  0.80102500  0.87588900  1
  O  O19  1  0.45145000  0.96680300  0.16157500  1
  O  O20  1  0.11343800  0.93304400  0.45151500  1
  O  O21  1  0.77974400  0.38156100  0.62172300  1
  O  O22  1  0.79847300  0.05205900  0.75799100  1
  O  O23  1  0.29847300  0.44794100  0.24200900  1
  O  O24  1  0.26537200  0.55005100  0.59771400  1
  O  O25  1  0.04855000  0.46680300  0.16157500  1
  O  O26  1  0.38656200  0.43304400  0.45151500  1
  O  O27  1  0.97815200  0.09131400  0.20967200  1
  O  O28  1  0.52454000  0.70101900  0.98579200  1
  O  O29  1  0.20152700  0.94794100  0.24200900  1
  O  O30  1  0.68309600  0.30102500  0.87588900  1
  O  O31  1  0.02454000  0.79898100  0.01420800  1
  F  F0  1  0.44434900  0.17687100  0.50460900  1
  F  F1  1  0.83282000  0.39358600  0.00614600  1
  F  F2  1  0.47238400  0.95982400  0.36653400  1
  F  F3  1  0.29485300  0.35088100  0.90162200  1
  F  F4  1  0.20514700  0.85088100  0.90162200  1
  F  F5  1  0.34646300  0.81390200  0.46291300  1
  F  F6  1  0.13514100  0.05908700  0.92851600  1
  F  F7  1  0.30809700  0.02571200  0.82918700  1
  F  F8  1  0.55565100  0.82312900  0.49539100  1
  F  F9  1  0.16718000  0.60641400  0.99385400  1
  F  F10  1  0.02761600  0.45982400  0.36653400  1
  F  F11  1  0.61851100  0.21558100  0.70791600  1
  F  F12  1  0.70514700  0.64911900  0.09837800  1
  F  F13  1  0.79485300  0.14911900  0.09837800  1
  F  F14  1  0.02749000  0.14742400  0.41359400  1
  F  F15  1  0.19190300  0.52571200  0.82918700  1
  F  F16  1  0.05565100  0.67687100  0.50460900  1
  F  F17  1  0.72318500  0.56552100  0.93809400  1
  F  F18  1  0.90144300  0.59784400  0.03876800  1
  F  F19  1  0.84646300  0.68609800  0.53708700  1
  F  F20  1  0.40071900  0.20862300  0.67785500  1
  F  F21  1  0.69190300  0.97428800  0.17081300  1
  F  F22  1  0.47251000  0.64742400  0.41359400  1
  F  F23  1  0.59928100  0.79137700  0.32214500  1
  F  F24  1  0.80809700  0.47428800  0.17081300  1
  F  F25  1  0.77681500  0.06552100  0.93809400  1
  F  F26  1  0.09855700  0.40215600  0.96123200  1
  F  F27  1  0.65353700  0.18609800  0.53708700  1
  F  F28  1  0.86485900  0.94091300  0.07148400  1
  F  F29  1  0.11851100  0.28441900  0.29208400  1
  F  F30  1  0.22318500  0.93447900  0.06190600  1
  F  F31  1  0.33282000  0.10641400  0.99385400  1
  F  F32  1  0.09928100  0.70862300  0.67785500  1
  F  F33  1  0.94434900  0.32312900  0.49539100  1
  F  F34  1  0.38148900  0.78441900  0.29208400  1
  F  F35  1  0.66718000  0.89358600  0.00614600  1
  F  F36  1  0.63514100  0.44091300  0.07148400  1
  F  F37  1  0.59855700  0.09784400  0.03876800  1
  F  F38  1  0.27681500  0.43447900  0.06190600  1
  F  F39  1  0.15353700  0.31390200  0.46291300  1
  F  F40  1  0.40144300  0.90215600  0.96123200  1
  F  F41  1  0.52761600  0.04017600  0.63346600  1
  F  F42  1  0.97238400  0.54017600  0.63346600  1
  F  F43  1  0.88148900  0.71558100  0.70791600  1
  F  F44  1  0.90071900  0.29137700  0.32214500  1
  F  F45  1  0.36485900  0.55908700  0.92851600  1
  F  F46  1  0.52749000  0.35257600  0.58640600  1
  F  F47  1  0.97251000  0.85257600  0.58640600  1
loop_
_geom_bond_atom_site_label_1
_geom_bond_atom_site_label_2
_geom_bond_distance
_geom_bond_site_symmetry_2
Fe0 Se0 2.383945 1_555
Fe0 Se1 2.395309 1_555
Fe1 Se3 2.383945 1_555
Fe1 Se2 2.395309 1_555
Fe2 Se7 2.383945 1_555
Fe2 Se6 2.395309 1_555
Fe3 Se4 2.383945 1_555
Fe3 Se5 2.395309 1_555
C0 O23 1.164343 1_555
C0 W3 2.076931 1_555
C1 O16 1.143855 1_555
C1 Fe2 1.827737 1_555
C2 O15 1.145275 1_555
C2 W0 2.119430 1_555
C3 O3 1.143725 1_555
C3 W2 2.126407 1_555
C4 O6 1.143136 1_555
C4 Fe2 1.834895 1_565
C5 O30 1.142242 1_555
C5 W2 2.139125 1_555
C6 O28 1.142417 1_555
C6 W1 2.132762 1_555
C7 O2 1.143136 1_555
C7 Fe3 1.834895 1_555
C8 O24 1.143855 1_555
C8 Fe0 1.827737 1_555
C9 O31 1.142417 1_555
C9 W0 2.132762 1_555
C10 O13 1.142242 1_555
C10 W3 2.139125 1_555
C11 O5 1.164343 1_555
C11 W1 2.076931 1_555
C12 O14 1.143725 1_565
C12 W1 2.126407 1_555
C13 O19 1.143725 1_545
C13 W3 2.126407 1_555
C14 O25 1.143725 1_555
C14 W0 2.126407 1_555
C15 O12 1.142985 1_555
C15 Fe2 1.832832 1_655
C16 O17 1.143855 1_555
C16 Fe1 1.827737 1_555
C17 O10 1.143855 1_555
C17 Fe3 1.827737 1_555
C18 O21 1.145275 1_555
C18 W2 2.119430 1_555
C19 O0 1.142242 1_555
C19 W0 2.139125 1_555
C20 O29 1.164343 1_555
C20 W0 2.076931 1_555
C21 O18 1.142242 1_555
C21 W1 2.139125 1_555
C22 O27 1.143136 1_555
C22 Fe1 1.834895 1_545
C23 O8 1.145275 1_555
C23 W3 2.119430 1_555
C24 O11 1.145275 1_555
C24 W1 2.119430 1_555
C25 O26 1.142985 1_555
C25 Fe3 1.832832 1_555
C26 O1 1.142417 1_555
C26 W3 2.132762 1_555
C27 O9 1.142985 1_555
C27 Fe0 1.832832 1_555
C28 O22 1.164343 1_555
C28 W2 2.076931 1_555
C29 O20 1.142985 1_555
C29 Fe1 1.832832 1_455
C30 O7 1.142417 1_555
C30 W2 2.132762 1_555
C31 O4 1.143136 1_555
C31 Fe0 1.834895 1_555
Se0 Se1 2.349327 1_555
Se0 W1 2.675667 1_555
Se1 W1 2.666815 1_555
Se2 Se3 2.349327 1_555
Se2 W0 2.666815 1_655
Se3 W0 2.675667 1_655
Se4 Se5 2.349327 1_555
Se4 W3 2.675667 1_555
Se5 W3 2.666815 1_555
Se6 Se7 2.349327 1_555
Se6 W2 2.666815 1_455
Se7 W2 2.675667 1_455
F0 Sb0 1.937610 1_555
F1 Sb1 1.923626 1_555
F2 Sb4 1.926729 1_555
F3 Sb3 1.918138 1_555
F4 Sb5 1.918138 1_555
F5 Sb4 1.930697 1_555
F6 Sb5 1.938343 1_545
F7 Sb5 1.928021 1_545
F8 Sb4 1.937610 1_555
F9 Sb3 1.923626 1_555
F10 Sb6 1.926729 1_555
F11 Sb0 1.927806 1_555
F12 Sb1 1.918138 1_555
F13 Sb7 1.918138 1_555
F14 Sb6 1.931890 1_555
F15 Sb3 1.928021 1_555
F16 Sb2 1.937610 1_455
F17 Sb1 1.931141 1_556
F18 Sb1 1.922943 1_555
F19 Sb2 1.930697 1_555
F20 Sb0 1.918033 1_555
F21 Sb7 1.928021 1_565
F22 Sb4 1.931890 1_555
F23 Sb4 1.918033 1_555
F24 Sb1 1.928021 1_555
F25 Sb7 1.931141 1_556
F26 Sb3 1.922943 1_555
F27 Sb0 1.930697 1_555
F28 Sb7 1.938343 1_565
F29 Sb6 1.927806 1_555
F30 Sb5 1.931141 1_554
F31 Sb5 1.923626 1_545
F32 Sb2 1.918033 1_455
F33 Sb6 1.937610 1_655
F34 Sb4 1.927806 1_555
F35 Sb7 1.923626 1_565
F36 Sb1 1.938343 1_555
F37 Sb7 1.922943 1_555
F38 Sb3 1.931141 1_554
F39 Sb6 1.930697 1_555
F40 Sb5 1.922943 1_555
F41 Sb0 1.926729 1_555
F42 Sb2 1.926729 1_555
F43 Sb2 1.927806 1_555
F44 Sb6 1.918033 1_655
F45 Sb3 1.938343 1_555
F46 Sb0 1.931890 1_555
F47 Sb2 1.931890 1_555
