# generated using pymatgen
data_VP2Pb2O9
_symmetry_space_group_name_H-M   'P 1'
_cell_length_a   9.17648400
_cell_length_b   8.88283700
_cell_length_c   9.99229507
_cell_angle_alpha   79.47494706
_cell_angle_beta   90.00000000
_cell_angle_gamma   90.00000000
_symmetry_Int_Tables_number   1
_chemical_formula_structural   VP2Pb2O9
_chemical_formula_sum   'V4 P8 Pb8 O36'
_cell_volume   800.80013713
_cell_formula_units_Z   4
loop_
 _symmetry_equiv_pos_site_id
 _symmetry_equiv_pos_as_xyz
  1  'x, y, z'
loop_
 _atom_site_type_symbol
 _atom_site_label
 _atom_site_symmetry_multiplicity
 _atom_site_fract_x
 _atom_site_fract_y
 _atom_site_fract_z
 _atom_site_occupancy
  V  V0  1  0.99946700  0.24418000  0.06344700  1
  V  V1  1  0.49946700  0.25582000  0.93655300  1
  V  V2  1  0.50053300  0.74418000  0.06344700  1
  V  V3  1  0.00053300  0.75582000  0.93655300  1
  P  P0  1  0.04803100  0.23190100  0.42702500  1
  P  P1  1  0.54803100  0.26809900  0.57297500  1
  P  P2  1  0.45196900  0.73190100  0.42702500  1
  P  P3  1  0.24855000  0.00415100  0.96809500  1
  P  P4  1  0.74855000  0.49584900  0.03190500  1
  P  P5  1  0.75145000  0.99584900  0.03190500  1
  P  P6  1  0.25145000  0.50415100  0.96809500  1
  P  P7  1  0.95196900  0.76809900  0.57297500  1
  Pb  Pb0  1  0.64534000  0.60651400  0.71403200  1
  Pb  Pb1  1  0.80877700  0.51875400  0.35858100  1
  Pb  Pb2  1  0.35466000  0.39348600  0.28596800  1
  Pb  Pb3  1  0.14534000  0.89348600  0.28596800  1
  Pb  Pb4  1  0.30877700  0.98124600  0.64141900  1
  Pb  Pb5  1  0.19122300  0.48124600  0.64141900  1
  Pb  Pb6  1  0.69122300  0.01875400  0.35858100  1
  Pb  Pb7  1  0.85466000  0.10651400  0.71403200  1
  O  O0  1  0.11498300  0.39749300  0.40909300  1
  O  O1  1  0.65105300  0.88568500  0.12871900  1
  O  O2  1  0.10028700  0.12674500  0.56034700  1
  O  O3  1  0.60028700  0.37325500  0.43965300  1
  O  O4  1  0.34894700  0.11431500  0.87128100  1
  O  O5  1  0.03516900  0.71972700  0.10051200  1
  O  O6  1  0.15150400  0.92627400  0.87204300  1
  O  O7  1  0.46483100  0.21972700  0.10051200  1
  O  O8  1  0.65023900  0.41855500  0.93863100  1
  O  O9  1  0.88501700  0.60250700  0.59090700  1
  O  O10  1  0.65150400  0.57372600  0.12795700  1
  O  O11  1  0.08961900  0.16261900  0.29986500  1
  O  O12  1  0.16325100  0.39010200  0.07236600  1
  O  O13  1  0.84894700  0.38568500  0.12871900  1
  O  O14  1  0.34976100  0.58144500  0.06136900  1
  O  O15  1  0.87989500  0.24791400  0.44122400  1
  O  O16  1  0.89971300  0.87325500  0.43965300  1
  O  O17  1  0.34849600  0.42627400  0.87204300  1
  O  O18  1  0.83674900  0.60989800  0.92763400  1
  O  O19  1  0.53516900  0.78027300  0.89948800  1
  O  O20  1  0.38501700  0.89749300  0.40909300  1
  O  O21  1  0.15105300  0.61431500  0.87128100  1
  O  O22  1  0.66325100  0.10989800  0.92763400  1
  O  O23  1  0.61498300  0.10250700  0.59090700  1
  O  O24  1  0.12010500  0.75208600  0.55877600  1
  O  O25  1  0.62010500  0.74791400  0.44122400  1
  O  O26  1  0.39971300  0.62674500  0.56034700  1
  O  O27  1  0.15023900  0.08144500  0.06136900  1
  O  O28  1  0.58961900  0.33738100  0.70013500  1
  O  O29  1  0.84976100  0.91855500  0.93863100  1
  O  O30  1  0.37989500  0.25208600  0.55877600  1
  O  O31  1  0.96483100  0.28027300  0.89948800  1
  O  O32  1  0.41038100  0.66261900  0.29986500  1
  O  O33  1  0.84849600  0.07372600  0.12795700  1
  O  O34  1  0.33674900  0.89010200  0.07236600  1
  O  O35  1  0.91038100  0.83738100  0.70013500  1
loop_
_geom_bond_atom_site_label_1
_geom_bond_atom_site_label_2
_geom_bond_distance
_geom_bond_site_symmetry_2
O0 P0 1.573821 1_555
O0 Pb2 2.523536 1_555
O0 Pb5 2.657654 1_555
O1 P5 1.548025 1_555
O1 V2 2.052484 1_555
O2 P0 1.556466 1_555
O2 Pb4 2.367386 1_545
O2 Pb7 2.714816 1_455
O3 P1 1.556466 1_555
O3 Pb1 2.367386 1_555
O3 Pb2 2.714816 1_555
O4 P3 1.548025 1_555
O4 V1 2.052484 1_555
O5 V3 1.641959 1_554
O5 Pb3 2.807744 1_555
O6 P3 1.560559 1_565
O6 V3 2.066586 1_555
O6 Pb4 2.687147 1_555
O7 V1 1.641959 1_554
O7 Pb2 2.807744 1_555
O8 P4 1.545226 1_556
O8 V1 2.003806 1_555
O8 Pb0 2.541143 1_555
O9 P7 1.573821 1_555
O9 Pb0 2.523536 1_555
O9 Pb1 2.657654 1_555
O10 P4 1.560559 1_555
O10 V2 2.066586 1_555
O10 Pb1 2.687147 1_555
O11 P0 1.557093 1_555
O11 Pb3 2.473316 1_545
O11 V0 2.482891 1_455
O12 P6 1.543158 1_554
O12 V0 1.997292 1_455
O12 Pb2 2.768583 1_555
O13 P4 1.548025 1_555
O13 V0 2.052484 1_555
O14 P6 1.545226 1_554
O14 V2 2.003806 1_555
O14 Pb2 2.541143 1_555
O15 P0 1.558290 1_655
O15 Pb1 2.483956 1_555
O15 Pb7 2.794877 1_555
O16 P7 1.556466 1_555
O16 Pb6 2.367386 1_565
O16 Pb3 2.714816 1_655
O17 P6 1.560559 1_555
O17 V1 2.066586 1_555
O17 Pb5 2.687147 1_555
O18 P4 1.543158 1_556
O18 V3 1.997292 1_655
O18 Pb0 2.768583 1_555
O19 V2 1.641959 1_556
O19 Pb0 2.807744 1_555
O20 P2 1.573821 1_555
O20 Pb3 2.523536 1_555
O20 Pb4 2.657654 1_555
O21 P6 1.548025 1_555
O21 V3 2.052484 1_555
O22 P5 1.543158 1_546
O22 V1 1.997292 1_555
O22 Pb7 2.768583 1_555
O23 P1 1.573821 1_555
O23 Pb7 2.523536 1_555
O23 Pb6 2.657654 1_555
O24 P7 1.558290 1_455
O24 Pb5 2.483956 1_555
O24 Pb3 2.794877 1_555
O25 P2 1.558290 1_555
O25 Pb6 2.483956 1_565
O25 Pb0 2.794877 1_555
O26 P2 1.556466 1_555
O26 Pb5 2.367386 1_555
O26 Pb0 2.714816 1_555
O27 P3 1.545226 1_554
O27 V0 2.003806 1_455
O27 Pb3 2.541143 1_545
O28 P1 1.557093 1_555
O28 Pb0 2.473316 1_555
O28 V1 2.482891 1_555
O29 P5 1.545226 1_556
O29 V3 2.003806 1_655
O29 Pb7 2.541143 1_565
O30 P1 1.558290 1_555
O30 Pb4 2.483956 1_545
O30 Pb2 2.794877 1_555
O31 V0 1.641959 1_556
O31 Pb7 2.807744 1_555
O32 P2 1.557093 1_555
O32 Pb2 2.473316 1_555
O32 V2 2.482891 1_555
O33 P5 1.560559 1_545
O33 V0 2.066586 1_555
O33 Pb6 2.687147 1_555
O34 P3 1.543158 1_564
O34 V2 1.997292 1_555
O34 Pb3 2.768583 1_555
O35 P7 1.557093 1_555
O35 Pb7 2.473316 1_565
O35 V3 2.482891 1_655
