# generated using pymatgen
data_Tm(BO2)3
_symmetry_space_group_name_H-M   'P 1'
_cell_length_a   7.39809700
_cell_length_b   12.21973300
_cell_length_c   15.89855800
_cell_angle_alpha   90.00000000
_cell_angle_beta   90.00000000
_cell_angle_gamma   90.00000000
_symmetry_Int_Tables_number   1
_chemical_formula_structural   Tm(BO2)3
_chemical_formula_sum   'Tm16 B48 O96'
_cell_volume   1437.27368297
_cell_formula_units_Z   16
loop_
 _symmetry_equiv_pos_site_id
 _symmetry_equiv_pos_as_xyz
  1  'x, y, z'
loop_
 _atom_site_type_symbol
 _atom_site_label
 _atom_site_symmetry_multiplicity
 _atom_site_fract_x
 _atom_site_fract_y
 _atom_site_fract_z
 _atom_site_occupancy
  Tm  Tm0  1  0.75000000  0.76499400  0.62867500  1
  Tm  Tm1  1  0.75000000  0.01019100  0.12062800  1
  Tm  Tm2  1  0.75000000  0.43552500  0.32696600  1
  Tm  Tm3  1  0.75000000  0.48980900  0.62062800  1
  Tm  Tm4  1  0.25000000  0.26499400  0.87132500  1
  Tm  Tm5  1  0.75000000  0.06447500  0.82696600  1
  Tm  Tm6  1  0.25000000  0.56447500  0.67303400  1
  Tm  Tm7  1  0.25000000  0.23500600  0.37132500  1
  Tm  Tm8  1  0.25000000  0.93552500  0.17303400  1
  Tm  Tm9  1  0.25000000  0.98980900  0.87937200  1
  Tm  Tm10  1  0.25000000  0.51019100  0.37937200  1
  Tm  Tm11  1  0.75000000  0.41169900  0.95146600  1
  Tm  Tm12  1  0.75000000  0.08830100  0.45146600  1
  Tm  Tm13  1  0.25000000  0.91169900  0.54853400  1
  Tm  Tm14  1  0.25000000  0.58830100  0.04853400  1
  Tm  Tm15  1  0.75000000  0.73500600  0.12867500  1
  B  B0  1  0.56875600  0.12815400  0.25866200  1
  B  B1  1  0.05917500  0.82346300  0.03310900  1
  B  B2  1  0.92972500  0.68551600  0.78240700  1
  B  B3  1  0.56875600  0.37184600  0.75866200  1
  B  B4  1  0.93124400  0.37184600  0.75866200  1
  B  B5  1  0.42348300  0.14222600  0.10955400  1
  B  B6  1  0.57651700  0.64222600  0.39044600  1
  B  B7  1  0.42655600  0.34582700  0.05588000  1
  B  B8  1  0.55917500  0.32346300  0.46689100  1
  B  B9  1  0.92348300  0.85777400  0.89044600  1
  B  B10  1  0.57834900  0.48281300  0.15190900  1
  B  B11  1  0.92165100  0.01718700  0.65190900  1
  B  B12  1  0.42165100  0.51718700  0.84809100  1
  B  B13  1  0.06875600  0.62815400  0.24133800  1
  B  B14  1  0.07027500  0.18551600  0.71759300  1
  B  B15  1  0.94082500  0.32346300  0.46689100  1
  B  B16  1  0.57344400  0.84582700  0.44412000  1
  B  B17  1  0.07027500  0.31448400  0.21759300  1
  B  B18  1  0.42972500  0.18551600  0.71759300  1
  B  B19  1  0.07834900  0.51718700  0.84809100  1
  B  B20  1  0.92655600  0.84582700  0.44412000  1
  B  B21  1  0.93124400  0.12815400  0.25866200  1
  B  B22  1  0.92348300  0.64222600  0.39044600  1
  B  B23  1  0.44082500  0.82346300  0.03310900  1
  B  B24  1  0.57344400  0.65417300  0.94412000  1
  B  B25  1  0.43124400  0.87184600  0.74133800  1
  B  B26  1  0.07834900  0.98281300  0.34809100  1
  B  B27  1  0.07651700  0.35777400  0.60955400  1
  B  B28  1  0.55917500  0.17653700  0.96689100  1
  B  B29  1  0.42655600  0.15417300  0.55588000  1
  B  B30  1  0.92655600  0.65417300  0.94412000  1
  B  B31  1  0.42348300  0.35777400  0.60955400  1
  B  B32  1  0.57027500  0.68551600  0.78240700  1
  B  B33  1  0.57651700  0.85777400  0.89044600  1
  B  B34  1  0.57027500  0.81448400  0.28240700  1
  B  B35  1  0.05917500  0.67653700  0.53310900  1
  B  B36  1  0.07651700  0.14222600  0.10955400  1
  B  B37  1  0.07344400  0.34582700  0.05588000  1
  B  B38  1  0.42165100  0.98281300  0.34809100  1
  B  B39  1  0.57834900  0.01718700  0.65190900  1
  B  B40  1  0.44082500  0.67653700  0.53310900  1
  B  B41  1  0.43124400  0.62815400  0.24133800  1
  B  B42  1  0.42972500  0.31448400  0.21759300  1
  B  B43  1  0.92972500  0.81448400  0.28240700  1
  B  B44  1  0.94082500  0.17653700  0.96689100  1
  B  B45  1  0.07344400  0.15417300  0.55588000  1
  B  B46  1  0.92165100  0.48281300  0.15190900  1
  B  B47  1  0.06875600  0.87184600  0.74133800  1
  O  O0  1  0.02465300  0.21005500  0.47653400  1
  O  O1  1  0.06142300  0.93084800  0.43163500  1
  O  O2  1  0.97534700  0.71005500  0.02346600  1
  O  O3  1  0.56142300  0.06915200  0.56836500  1
  O  O4  1  0.56618000  0.12147300  0.04793000  1
  O  O5  1  0.25000000  0.63939800  0.27608000  1
  O  O6  1  0.56754300  0.06367700  0.33673500  1
  O  O7  1  0.75000000  0.64274000  0.75506800  1
  O  O8  1  0.43857700  0.56915200  0.93163500  1
  O  O9  1  0.75000000  0.60021000  0.95203800  1
  O  O10  1  0.54394600  0.87952300  0.09719400  1
  O  O11  1  0.47534700  0.21005500  0.47653400  1
  O  O12  1  0.75000000  0.13939800  0.22392000  1
  O  O13  1  0.75000000  0.60339600  0.42222400  1
  O  O14  1  0.03441800  0.07612000  0.18562600  1
  O  O15  1  0.43382000  0.87852700  0.95207000  1
  O  O16  1  0.43250700  0.60139000  0.78189800  1
  O  O17  1  0.56754300  0.43632300  0.83673500  1
  O  O18  1  0.75000000  0.30365700  0.43246400  1
  O  O19  1  0.56749300  0.39861000  0.21810200  1
  O  O20  1  0.93857700  0.43084800  0.06836500  1
  O  O21  1  0.25000000  0.80365700  0.06753600  1
  O  O22  1  0.56749300  0.10139000  0.71810200  1
  O  O23  1  0.92587800  0.76482900  0.37145200  1
  O  O24  1  0.07412200  0.26482900  0.12854800  1
  O  O25  1  0.25000000  0.39660400  0.57777600  1
  O  O26  1  0.75000000  0.54284500  0.15806400  1
  O  O27  1  0.52254000  0.77038400  0.72236100  1
  O  O28  1  0.53441800  0.92388000  0.81437400  1
  O  O29  1  0.25000000  0.35726000  0.24493200  1
  O  O30  1  0.75000000  0.89660400  0.92222400  1
  O  O31  1  0.54394600  0.62047700  0.59719400  1
  O  O32  1  0.96558200  0.92388000  0.81437400  1
  O  O33  1  0.57412200  0.73517100  0.87145200  1
  O  O34  1  0.25000000  0.04284500  0.34193600  1
  O  O35  1  0.06618000  0.62147300  0.45207000  1
  O  O36  1  0.93857700  0.06915200  0.56836500  1
  O  O37  1  0.46558200  0.07612000  0.18562600  1
  O  O38  1  0.06618000  0.87852700  0.95207000  1
  O  O39  1  0.42587800  0.23517100  0.62854800  1
  O  O40  1  0.45605400  0.37952300  0.40280600  1
  O  O41  1  0.56618000  0.37852700  0.54793000  1
  O  O42  1  0.95605400  0.87952300  0.09719400  1
  O  O43  1  0.06142300  0.56915200  0.93163500  1
  O  O44  1  0.93382000  0.12147300  0.04793000  1
  O  O45  1  0.02254000  0.27038400  0.77763900  1
  O  O46  1  0.97746000  0.72961600  0.22236100  1
  O  O47  1  0.75000000  0.85726000  0.25506800  1
  O  O48  1  0.06749300  0.60139000  0.78189800  1
  O  O49  1  0.75000000  0.89979000  0.45203800  1
  O  O50  1  0.25000000  0.10021000  0.54796200  1
  O  O51  1  0.25000000  0.39979000  0.04796200  1
  O  O52  1  0.03441800  0.42388000  0.68562600  1
  O  O53  1  0.97746000  0.77038400  0.72236100  1
  O  O54  1  0.43382000  0.62147300  0.45207000  1
  O  O55  1  0.43245700  0.93632300  0.66326500  1
  O  O56  1  0.93250700  0.39861000  0.21810200  1
  O  O57  1  0.25000000  0.69634300  0.56753600  1
  O  O58  1  0.47534700  0.28994500  0.97653400  1
  O  O59  1  0.02254000  0.22961600  0.27763900  1
  O  O60  1  0.93382000  0.37852700  0.54793000  1
  O  O61  1  0.56142300  0.43084800  0.06836500  1
  O  O62  1  0.47746000  0.22961600  0.27763900  1
  O  O63  1  0.25000000  0.14274000  0.74493200  1
  O  O64  1  0.25000000  0.10339600  0.07777600  1
  O  O65  1  0.02465300  0.28994500  0.97653400  1
  O  O66  1  0.06754300  0.56367700  0.16326500  1
  O  O67  1  0.43857700  0.93084800  0.43163500  1
  O  O68  1  0.04394600  0.12047700  0.90280600  1
  O  O69  1  0.46558200  0.42388000  0.68562600  1
  O  O70  1  0.75000000  0.19634300  0.93246400  1
  O  O71  1  0.52465300  0.78994500  0.52346600  1
  O  O72  1  0.42587800  0.26482900  0.12854800  1
  O  O73  1  0.97534700  0.78994500  0.52346600  1
  O  O74  1  0.53441800  0.57612000  0.31437400  1
  O  O75  1  0.57412200  0.76482900  0.37145200  1
  O  O76  1  0.43250700  0.89861000  0.28189800  1
  O  O77  1  0.06754300  0.93632300  0.66326500  1
  O  O78  1  0.25000000  0.86060200  0.77608000  1
  O  O79  1  0.45605400  0.12047700  0.90280600  1
  O  O80  1  0.75000000  0.36060200  0.72392000  1
  O  O81  1  0.75000000  0.95715500  0.65806400  1
  O  O82  1  0.25000000  0.45715500  0.84193600  1
  O  O83  1  0.04394600  0.37952300  0.40280600  1
  O  O84  1  0.07412200  0.23517100  0.62854800  1
  O  O85  1  0.92587800  0.73517100  0.87145200  1
  O  O86  1  0.95605400  0.62047700  0.59719400  1
  O  O87  1  0.43245700  0.56367700  0.16326500  1
  O  O88  1  0.93250700  0.10139000  0.71810200  1
  O  O89  1  0.47746000  0.27038400  0.77763900  1
  O  O90  1  0.06749300  0.89861000  0.28189800  1
  O  O91  1  0.96558200  0.57612000  0.31437400  1
  O  O92  1  0.52465300  0.71005500  0.02346600  1
  O  O93  1  0.93245700  0.06367700  0.33673500  1
  O  O94  1  0.52254000  0.72961600  0.22236100  1
  O  O95  1  0.93245700  0.43632300  0.83673500  1
loop_
_geom_bond_atom_site_label_1
_geom_bond_atom_site_label_2
_geom_bond_distance
_geom_bond_site_symmetry_2
B0 O62 1.443750 1_555
B0 O12 1.456665 1_555
B0 O6 1.470221 1_555
B0 O37 1.528142 1_555
B1 O42 1.445464 1_455
B1 O38 1.454448 1_554
B1 O2 1.525974 1_455
B1 O21 1.533353 1_555
B2 O48 1.447638 1_655
B2 O53 1.453122 1_555
B2 O7 1.493334 1_555
B2 O85 1.540503 1_555
B3 O89 1.443750 1_555
B3 O80 1.456665 1_555
B3 O17 1.470221 1_555
B3 O69 1.528142 1_555
B4 O45 1.443750 1_655
B4 O80 1.456665 1_555
B4 O95 1.470221 1_555
B4 O52 1.528142 1_655
B5 O64 1.458637 1_555
B5 O4 1.462416 1_555
B5 O37 1.487371 1_555
B5 O72 1.528409 1_555
B6 O13 1.458637 1_555
B6 O54 1.462416 1_555
B6 O74 1.487371 1_555
B6 O75 1.528409 1_555
B7 O61 1.454066 1_555
B7 O51 1.468596 1_555
B7 O58 1.479170 1_554
B7 O72 1.521326 1_555
B8 O40 1.445464 1_555
B8 O41 1.454448 1_555
B8 O11 1.525974 1_555
B8 O18 1.533353 1_555
B9 O30 1.458637 1_555
B9 O38 1.462416 1_655
B9 O32 1.487371 1_555
B9 O85 1.528409 1_555
B10 O26 1.469806 1_555
B10 O19 1.473992 1_555
B10 O87 1.474432 1_555
B10 O61 1.477530 1_555
B11 O81 1.469806 1_545
B11 O88 1.473992 1_555
B11 O77 1.474432 1_645
B11 O36 1.477530 1_555
B12 O82 1.469806 1_555
B12 O16 1.473992 1_555
B12 O17 1.474432 1_555
B12 O8 1.477530 1_555
B13 O46 1.443750 1_455
B13 O5 1.456665 1_555
B13 O66 1.470221 1_555
B13 O91 1.528142 1_455
B14 O88 1.447638 1_455
B14 O45 1.453122 1_555
B14 O63 1.493334 1_555
B14 O84 1.540503 1_555
B15 O83 1.445464 1_655
B15 O60 1.454448 1_555
B15 O0 1.525974 1_655
B15 O18 1.533353 1_555
B16 O67 1.454066 1_555
B16 O49 1.468596 1_555
B16 O71 1.479170 1_555
B16 O75 1.521326 1_555
B17 O56 1.447638 1_455
B17 O59 1.453122 1_555
B17 O29 1.493334 1_555
B17 O24 1.540503 1_555
B18 O22 1.447638 1_555
B18 O89 1.453122 1_555
B18 O63 1.493334 1_555
B18 O39 1.540503 1_555
B19 O82 1.469806 1_555
B19 O48 1.473992 1_555
B19 O95 1.474432 1_455
B19 O43 1.477530 1_555
B20 O1 1.454066 1_655
B20 O49 1.468596 1_555
B20 O73 1.479170 1_555
B20 O23 1.521326 1_555
B21 O59 1.443750 1_655
B21 O12 1.456665 1_555
B21 O93 1.470221 1_555
B21 O14 1.528142 1_655
B22 O13 1.458637 1_555
B22 O35 1.462416 1_655
B22 O91 1.487371 1_555
B22 O23 1.528409 1_555
B23 O10 1.445464 1_555
B23 O15 1.454448 1_554
B23 O92 1.525974 1_555
B23 O21 1.533353 1_555
B24 O8 1.454066 1_555
B24 O9 1.468596 1_555
B24 O92 1.479170 1_556
B24 O33 1.521326 1_555
B25 O27 1.443750 1_555
B25 O78 1.456665 1_555
B25 O55 1.470221 1_555
B25 O28 1.528142 1_555
B26 O34 1.469806 1_565
B26 O90 1.473992 1_555
B26 O93 1.474432 1_465
B26 O1 1.477530 1_555
B27 O25 1.458637 1_555
B27 O60 1.462416 1_455
B27 O52 1.487371 1_555
B27 O84 1.528409 1_555
B28 O79 1.445464 1_555
B28 O4 1.454448 1_556
B28 O58 1.525974 1_555
B28 O70 1.533353 1_555
B29 O3 1.454066 1_555
B29 O50 1.468596 1_555
B29 O11 1.479170 1_555
B29 O39 1.521326 1_555
B30 O43 1.454066 1_655
B30 O9 1.468596 1_555
B30 O2 1.479170 1_556
B30 O85 1.521326 1_555
B31 O25 1.458637 1_555
B31 O41 1.462416 1_555
B31 O69 1.487371 1_555
B31 O39 1.528409 1_555
B32 O16 1.447638 1_555
B32 O27 1.453122 1_555
B32 O7 1.493334 1_555
B32 O33 1.540503 1_555
B33 O30 1.458637 1_555
B33 O15 1.462416 1_555
B33 O28 1.487371 1_555
B33 O33 1.528409 1_555
B34 O76 1.447638 1_555
B34 O94 1.453122 1_555
B34 O47 1.493334 1_555
B34 O75 1.540503 1_555
B35 O86 1.445464 1_455
B35 O35 1.454448 1_555
B35 O73 1.525974 1_455
B35 O57 1.533353 1_555
B36 O64 1.458637 1_555
B36 O44 1.462416 1_455
B36 O14 1.487371 1_555
B36 O24 1.528409 1_555
B37 O20 1.454066 1_455
B37 O51 1.468596 1_555
B37 O65 1.479170 1_554
B37 O24 1.521326 1_555
B38 O34 1.469806 1_565
B38 O76 1.473992 1_555
B38 O6 1.474432 1_565
B38 O67 1.477530 1_555
B39 O81 1.469806 1_545
B39 O22 1.473992 1_555
B39 O55 1.474432 1_545
B39 O3 1.477530 1_555
B40 O31 1.445464 1_555
B40 O54 1.454448 1_555
B40 O71 1.525974 1_555
B40 O57 1.533353 1_555
B41 O94 1.443750 1_555
B41 O5 1.456665 1_555
B41 O87 1.470221 1_555
B41 O74 1.528142 1_555
B42 O19 1.447638 1_555
B42 O62 1.453122 1_555
B42 O29 1.493334 1_555
B42 O72 1.540503 1_555
B43 O90 1.447638 1_655
B43 O46 1.453122 1_555
B43 O47 1.493334 1_555
B43 O23 1.540503 1_555
B44 O68 1.445464 1_655
B44 O44 1.454448 1_556
B44 O65 1.525974 1_655
B44 O70 1.533353 1_555
B45 O36 1.454066 1_455
B45 O50 1.468596 1_555
B45 O0 1.479170 1_555
B45 O84 1.521326 1_555
B46 O26 1.469806 1_555
B46 O56 1.473992 1_555
B46 O66 1.474432 1_655
B46 O20 1.477530 1_555
B47 O53 1.443750 1_455
B47 O78 1.456665 1_555
B47 O77 1.470221 1_555
B47 O32 1.528142 1_455
O0 Tm7 2.381206 1_555
O0 Tm12 2.549715 1_455
O1 Tm13 2.335638 1_555
O2 Tm15 2.381206 1_555
O2 Tm14 2.549715 1_655
O3 Tm12 2.335638 1_555
O4 Tm1 2.243745 1_555
O5 Tm10 2.278080 1_555
O6 Tm12 2.289056 1_555
O7 Tm0 2.503942 1_555
O7 Tm3 2.839157 1_555
O8 Tm14 2.335638 1_556
O9 Tm11 2.303572 1_555
O10 Tm1 2.238786 1_565
O10 Tm15 2.385987 1_555
O10 Tm8 2.578991 1_555
O11 Tm7 2.381206 1_555
O11 Tm12 2.549715 1_555
O12 Tm1 2.278080 1_555
O13 Tm2 2.549822 1_555
O14 Tm8 2.352746 1_545
O14 Tm1 2.478783 1_455
O15 Tm9 2.243745 1_555
O16 Tm6 2.241013 1_555
O17 Tm11 2.289056 1_555
O18 Tm2 2.325899 1_555
O18 Tm12 2.648877 1_555
O19 Tm2 2.241013 1_555
O20 Tm11 2.335638 1_554
O21 Tm8 2.325899 1_555
O21 Tm14 2.648877 1_555
O22 Tm5 2.241013 1_555
O25 Tm6 2.549822 1_555
O26 Tm15 2.394191 1_555
O27 Tm0 2.248240 1_555
O28 Tm5 2.352746 1_565
O28 Tm9 2.478783 1_555
O29 Tm7 2.503942 1_555
O29 Tm10 2.839157 1_555
O30 Tm5 2.549822 1_565
O31 Tm3 2.238786 1_555
O31 Tm0 2.385987 1_555
O31 Tm6 2.578991 1_555
O32 Tm5 2.352746 1_565
O32 Tm9 2.478783 1_655
O34 Tm7 2.394191 1_555
O35 Tm10 2.243745 1_555
O36 Tm12 2.335638 1_555
O37 Tm8 2.352746 1_545
O37 Tm1 2.478783 1_555
O38 Tm9 2.243745 1_555
O40 Tm10 2.238786 1_555
O40 Tm7 2.385987 1_555
O40 Tm2 2.578991 1_555
O41 Tm3 2.243745 1_555
O42 Tm1 2.238786 1_565
O42 Tm15 2.385987 1_555
O42 Tm8 2.578991 1_655
O43 Tm14 2.335638 1_556
O44 Tm1 2.243745 1_555
O45 Tm4 2.248240 1_555
O46 Tm15 2.248240 1_555
O47 Tm15 2.503942 1_555
O47 Tm1 2.839157 1_565
O48 Tm6 2.241013 1_555
O49 Tm12 2.303572 1_565
O50 Tm13 2.303572 1_545
O51 Tm14 2.303572 1_555
O52 Tm6 2.352746 1_555
O52 Tm3 2.478783 1_455
O53 Tm0 2.248240 1_555
O54 Tm10 2.243745 1_555
O55 Tm13 2.289056 1_555
O56 Tm2 2.241013 1_555
O57 Tm6 2.325899 1_555
O57 Tm13 2.648877 1_555
O58 Tm4 2.381206 1_555
O58 Tm11 2.549715 1_555
O59 Tm7 2.248240 1_555
O60 Tm3 2.243745 1_555
O61 Tm11 2.335638 1_554
O62 Tm7 2.248240 1_555
O63 Tm4 2.503942 1_555
O63 Tm9 2.839157 1_545
O64 Tm8 2.549822 1_545
O65 Tm4 2.381206 1_555
O65 Tm11 2.549715 1_455
O66 Tm14 2.289056 1_555
O67 Tm13 2.335638 1_555
O68 Tm9 2.238786 1_545
O68 Tm4 2.385987 1_555
O68 Tm5 2.578991 1_455
O69 Tm6 2.352746 1_555
O69 Tm3 2.478783 1_555
O70 Tm5 2.325899 1_555
O70 Tm11 2.648877 1_555
O71 Tm0 2.381206 1_555
O71 Tm13 2.549715 1_555
O73 Tm0 2.381206 1_555
O73 Tm13 2.549715 1_655
O74 Tm2 2.352746 1_555
O74 Tm10 2.478783 1_555
O76 Tm8 2.241013 1_555
O77 Tm13 2.289056 1_555
O78 Tm9 2.278080 1_555
O79 Tm9 2.238786 1_545
O79 Tm4 2.385987 1_555
O79 Tm5 2.578991 1_555
O80 Tm3 2.278080 1_555
O81 Tm0 2.394191 1_555
O82 Tm4 2.394191 1_555
O83 Tm10 2.238786 1_555
O83 Tm7 2.385987 1_555
O83 Tm2 2.578991 1_455
O86 Tm3 2.238786 1_555
O86 Tm0 2.385987 1_555
O86 Tm6 2.578991 1_655
O87 Tm14 2.289056 1_555
O88 Tm5 2.241013 1_555
O89 Tm4 2.248240 1_555
O90 Tm8 2.241013 1_555
O91 Tm2 2.352746 1_555
O91 Tm10 2.478783 1_655
O92 Tm15 2.381206 1_555
O92 Tm14 2.549715 1_555
O93 Tm12 2.289056 1_555
O94 Tm15 2.248240 1_555
O95 Tm11 2.289056 1_555
