# generated using pymatgen
data_Li3Al3P3H2O14F
_symmetry_space_group_name_H-M   'P 1'
_cell_length_a   5.08846300
_cell_length_b   7.13702204
_cell_length_c   14.21333587
_cell_angle_alpha   90.61985235
_cell_angle_beta   93.24604867
_cell_angle_gamma   106.84087463
_symmetry_Int_Tables_number   1
_chemical_formula_structural   Li3Al3P3H2O14F
_chemical_formula_sum   'Li6 Al6 P6 H4 O28 F2'
_cell_volume   493.04806696
_cell_formula_units_Z   2
loop_
 _symmetry_equiv_pos_site_id
 _symmetry_equiv_pos_as_xyz
  1  'x, y, z'
loop_
 _atom_site_type_symbol
 _atom_site_label
 _atom_site_symmetry_multiplicity
 _atom_site_fract_x
 _atom_site_fract_y
 _atom_site_fract_z
 _atom_site_occupancy
  Li  Li0  1  0.41773600  0.68094500  0.96783100  1
  Li  Li1  1  0.09027400  0.35161600  0.63573600  1
  Li  Li2  1  0.74920700  0.00930900  0.29806900  1
  Li  Li3  1  0.23544300  0.97956200  0.70807500  1
  Li  Li4  1  0.90833300  0.66007700  0.36772700  1
  Li  Li5  1  0.55566100  0.31218500  0.04177500  1
  Al  Al0  1  0.33466100  0.33396900  0.83581000  1
  Al  Al1  1  0.00159600  0.00339700  0.50085900  1
  Al  Al2  1  0.65595900  0.66673500  0.16817000  1
  Al  Al3  1  0.67406100  0.67215500  0.66650500  1
  Al  Al4  1  0.32704600  0.33391600  0.33391700  1
  Al  Al5  1  0.99898500  0.00378000  0.99953200  1
  P  P0  1  0.73202100  0.05868600  0.79434900  1
  P  P1  1  0.93510700  0.61183700  0.87084200  1
  P  P2  1  0.39874100  0.72619200  0.46208600  1
  P  P3  1  0.60142700  0.27756000  0.53935700  1
  P  P4  1  0.05384800  0.39323800  0.12618000  1
  P  P5  1  0.26060600  0.94574900  0.20380900  1
  H  H0  1  0.90270300  0.25040600  0.40603500  1
  H  H1  1  0.42435200  0.08378000  0.92918200  1
  H  H2  1  0.09858400  0.75413500  0.59536600  1
  H  H3  1  0.74688100  0.41744800  0.25978300  1
  O  O0  1  0.05861200  0.34045100  0.23168600  1
  O  O1  1  0.03056800  0.15424900  0.76451200  1
  O  O2  1  0.10899200  0.46797300  0.88567300  1
  O  O3  1  0.69822000  0.81441400  0.43259800  1
  O  O4  1  0.73155500  0.00298600  0.89996200  1
  O  O5  1  0.77123100  0.13195000  0.55588000  1
  O  O6  1  0.35158300  0.49106900  0.09559100  1
  O  O7  1  0.08239300  0.78621700  0.93920100  1
  O  O8  1  0.58350000  0.88111300  0.72855100  1
  O  O9  1  0.39769000  0.67038300  0.56778500  1
  O  O10  1  0.43491000  0.80187600  0.21863500  1
  O  O11  1  0.97474700  0.83663100  0.60623500  1
  O  O12  1  0.75417300  0.45545900  0.60470600  1
  O  O13  1  0.24614300  0.54948300  0.39611500  1
  O  O14  1  0.02576600  0.16773500  0.39361300  1
  O  O15  1  0.55441500  0.19911600  0.77904800  1
  O  O16  1  0.62647500  0.50041700  0.27256900  1
  O  O17  1  0.41042500  0.11960100  0.27192000  1
  O  O18  1  0.90703700  0.21531900  0.06036700  1
  O  O19  1  0.63538300  0.52078500  0.90053200  1
  O  O20  1  0.22950500  0.87204100  0.44574300  1
  O  O21  1  0.30167500  0.16729500  0.93967900  1
  O  O22  1  0.30151800  0.19230200  0.56831400  1
  O  O23  1  0.25498900  0.00685600  0.10084600  1
  O  O24  1  0.87242600  0.53158700  0.11098500  1
  O  O25  1  0.96173300  0.85136100  0.23382600  1
  O  O26  1  0.93183100  0.67187800  0.76727800  1
  O  O27  1  0.60302000  0.33114400  0.43353300  1
  F  F0  1  0.38485000  0.49276100  0.72660200  1
  F  F1  1  0.70806900  0.82753900  0.05968600  1
loop_
_geom_bond_atom_site_label_1
_geom_bond_atom_site_label_2
_geom_bond_distance
_geom_bond_site_symmetry_2
Li0 O19 2.068317 1_555
Li0 O7 2.076694 1_555
Li0 O2 2.124219 1_555
Li0 O6 2.259506 1_556
Li1 O22 2.041528 1_555
Li1 O12 2.079612 1_455
Li1 O5 2.158652 1_455
Li1 O1 2.301611 1_555
Li1 O9 2.590781 1_555
Li2 O14 1.982772 1_655
Li2 O25 2.017409 1_545
Li2 O10 2.100384 1_545
Li2 O17 2.109395 1_555
Li2 O3 2.358576 1_545
Li3 O11 1.965209 1_455
Li3 O1 2.027511 1_565
Li3 O8 2.093371 1_555
Li3 O15 2.100968 1_565
Li3 O26 2.477597 1_455
Li3 O22 2.491894 1_565
Li4 O3 1.994641 1_555
Li4 O16 1.996186 1_555
Li4 O13 2.110699 1_655
Li4 O20 2.124834 1_655
Li4 O25 2.336564 1_555
Li5 O21 1.956055 1_554
Li5 O6 2.032345 1_555
Li5 O24 2.083831 1_555
Li5 O18 2.100299 1_555
Li5 O23 2.459185 1_555
Li5 O19 2.493628 1_554
Al0 O2 1.857262 1_555
Al0 O15 1.880572 1_555
Al0 O21 1.890270 1_555
Al0 O19 1.896676 1_555
Al0 F0 1.916821 1_555
Al0 O1 1.926340 1_555
Al1 O5 1.881189 1_455
Al1 O20 1.885326 1_545
Al1 O11 1.909459 1_445
Al1 O22 1.918368 1_555
Al1 O14 1.921113 1_555
Al1 O3 1.933702 1_445
Al2 O10 1.847954 1_555
Al2 O24 1.871976 1_555
Al2 O16 1.895648 1_555
Al2 O25 1.910242 1_555
Al2 F1 1.916563 1_555
Al2 O6 1.923738 1_555
Al3 O26 1.887004 1_555
Al3 O11 1.892694 1_555
Al3 F0 1.899703 1_555
Al3 O8 1.905236 1_555
Al3 O12 1.925105 1_555
Al3 O9 1.926784 1_555
Al4 O14 1.895358 1_555
Al4 O16 1.902014 1_555
Al4 O17 1.919708 1_555
Al4 O13 1.922701 1_555
Al4 O27 1.941299 1_555
Al4 O0 1.947524 1_555
Al5 O23 1.881850 1_656
Al5 O21 1.893749 1_655
Al5 F1 1.895310 1_546
Al5 O4 1.905766 1_555
Al5 O18 1.916453 1_556
Al5 O7 1.928923 1_645
H0 O14 0.997888 1_655
H1 O21 0.995701 1_555
H1 Li5 2.203668 1_556
H2 O11 0.995806 1_455
H2 Li3 2.192820 1_555
H3 O16 0.989721 1_555
O0 P4 1.550709 1_555
O1 P0 1.559386 1_455
O2 P1 1.546454 1_455
O3 P2 1.554485 1_555
O4 P0 1.556967 1_555
O5 P3 1.544115 1_555
O6 P4 1.562063 1_555
O7 P1 1.550981 1_455
O8 P0 1.546372 1_565
O9 P2 1.558305 1_555
O10 P5 1.548114 1_555
O12 P3 1.549132 1_555
O13 P2 1.548306 1_555
O15 P0 1.541378 1_555
O17 P5 1.549276 1_545
O18 P4 1.546293 1_655
O19 P1 1.559153 1_555
O20 P2 1.543064 1_555
O22 P3 1.551467 1_555
O23 P5 1.532643 1_545
O24 P4 1.544029 1_655
O25 P5 1.560369 1_655
O26 P1 1.538072 1_555
O27 P3 1.555860 1_555
F0 Li1 1.951224 1_555
F1 Li0 1.959107 1_554
