# generated using pymatgen
data_Dy7In(CoGe3)4
_symmetry_space_group_name_H-M   'P 1'
_cell_length_a   10.41227400
_cell_length_b   10.41227400
_cell_length_c   4.20159800
_cell_angle_alpha   90.00000000
_cell_angle_beta   90.00000000
_cell_angle_gamma   90.00000000
_symmetry_Int_Tables_number   1
_chemical_formula_structural   Dy7In(CoGe3)4
_chemical_formula_sum   'Dy7 In1 Co4 Ge12'
_cell_volume   455.51813726
_cell_formula_units_Z   1
loop_
 _symmetry_equiv_pos_site_id
 _symmetry_equiv_pos_as_xyz
  1  'x, y, z'
loop_
 _atom_site_type_symbol
 _atom_site_label
 _atom_site_symmetry_multiplicity
 _atom_site_fract_x
 _atom_site_fract_y
 _atom_site_fract_z
 _atom_site_occupancy
  Dy  Dy0  1  0.32578800  0.32299300  0.50000000  1
  Dy  Dy1  1  0.32299300  0.67421200  0.50000000  1
  Dy  Dy2  1  0.50000000  0.00000000  0.50000000  1
  Dy  Dy3  1  0.67421200  0.67700700  0.50000000  1
  Dy  Dy4  1  0.67700700  0.32578800  0.50000000  1
  Dy  Dy5  1  0.00000000  0.50000000  0.50000000  1
  Dy  Dy6  1  0.00000000  0.00000000  0.00000000  1
  In  In0  1  0.50000000  0.50000000  0.00000000  1
  Co  Co0  1  0.72063500  0.11792100  0.00000000  1
  Co  Co1  1  0.27936500  0.88207900  0.00000000  1
  Co  Co2  1  0.88207900  0.72063500  0.00000000  1
  Co  Co3  1  0.11792100  0.27936500  0.00000000  1
  Ge  Ge0  1  0.88713600  0.28572100  0.00000000  1
  Ge  Ge1  1  0.21355000  0.48708500  0.00000000  1
  Ge  Ge2  1  0.11286400  0.71427900  0.00000000  1
  Ge  Ge3  1  0.06546300  0.19500000  0.50000000  1
  Ge  Ge4  1  0.80500000  0.06546300  0.50000000  1
  Ge  Ge5  1  0.19500000  0.93453700  0.50000000  1
  Ge  Ge6  1  0.78645000  0.51291500  0.00000000  1
  Ge  Ge7  1  0.93453700  0.80500000  0.50000000  1
  Ge  Ge8  1  0.51291500  0.21355000  0.00000000  1
  Ge  Ge9  1  0.28572100  0.11286400  0.00000000  1
  Ge  Ge10  1  0.71427900  0.88713600  0.00000000  1
  Ge  Ge11  1  0.48708500  0.78645000  0.00000000  1
loop_
_geom_bond_atom_site_label_1
_geom_bond_atom_site_label_2
_geom_bond_distance
_geom_bond_site_symmetry_2
Dy0 Ge1 2.949291 1_556
Dy0 Ge1 2.949291 1_555
Dy0 Ge3 3.020481 1_555
Dy0 Ge9 3.061764 1_556
Dy0 Ge9 3.061764 1_555
Dy0 Ge8 3.083547 1_556
Dy0 Ge8 3.083547 1_555
Dy0 In0 3.331751 1_555
Dy0 In0 3.331751 1_556
Dy1 Ge11 2.949291 1_556
Dy1 Ge11 2.949291 1_555
Dy1 Ge5 3.020481 1_555
Dy1 Ge2 3.061764 1_556
Dy1 Ge2 3.061764 1_555
Dy1 Ge1 3.083547 1_556
Dy1 Ge1 3.083547 1_555
Dy1 In0 3.331751 1_555
Dy1 In0 3.331751 1_556
Dy2 Ge8 3.061956 1_556
Dy2 Ge11 3.061956 1_545
Dy2 Ge11 3.061956 1_546
Dy2 Ge8 3.061956 1_555
Dy2 Ge5 3.248069 1_545
Dy2 Ge4 3.248069 1_555
Dy2 Ge10 3.282123 1_546
Dy2 Ge9 3.282123 1_556
Dy2 Ge9 3.282123 1_555
Dy2 Ge10 3.282123 1_545
Dy3 Ge6 2.949291 1_555
Dy3 Ge6 2.949291 1_556
Dy3 Ge7 3.020481 1_555
Dy3 Ge10 3.061764 1_556
Dy3 Ge10 3.061764 1_555
Dy3 Ge11 3.083547 1_556
Dy3 Ge11 3.083547 1_555
Dy3 In0 3.331751 1_556
Dy3 In0 3.331751 1_555
Dy4 Ge8 2.949291 1_556
Dy4 Ge8 2.949291 1_555
Dy4 Ge4 3.020481 1_555
Dy4 Ge0 3.061764 1_556
Dy4 Ge0 3.061764 1_555
Dy4 Ge6 3.083547 1_555
Dy4 Ge6 3.083547 1_556
Dy4 In0 3.331751 1_555
Dy4 In0 3.331751 1_556
Dy5 Ge6 3.061956 1_456
Dy5 Ge6 3.061956 1_455
Dy5 Ge1 3.061956 1_555
Dy5 Ge1 3.061956 1_556
Dy5 Ge3 3.248069 1_555
Dy5 Ge7 3.248069 1_455
Dy5 Ge0 3.282123 1_456
Dy5 Ge0 3.282123 1_455
Dy5 Ge2 3.282123 1_555
Dy5 Ge2 3.282123 1_556
Dy6 Ge4 3.000076 1_455
Dy6 Ge7 3.000076 1_444
Dy6 Ge4 3.000076 1_454
Dy6 Ge7 3.000076 1_445
Dy6 Ge3 3.000076 1_554
Dy6 Ge5 3.000076 1_545
Dy6 Ge3 3.000076 1_555
Dy6 Ge5 3.000076 1_544
Dy6 Ge10 3.198700 1_445
Dy6 Ge9 3.198700 1_555
Dy6 Ge2 3.198700 1_545
Dy6 Ge0 3.198700 1_455
Co0 Ge4 2.341653 1_554
Co0 Ge4 2.341653 1_555
Co0 Ge8 2.381032 1_555
Co0 Ge10 2.403908 1_545
Co0 Ge0 2.461340 1_555
Co0 Dy4 3.050279 1_554
Co0 Dy4 3.050279 1_555
Co0 Dy6 3.157344 1_655
Co0 Dy2 3.346424 1_555
Co0 Dy2 3.346424 1_554
Co1 Ge5 2.341653 1_555
Co1 Ge5 2.341653 1_554
Co1 Ge11 2.381032 1_555
Co1 Ge9 2.403908 1_565
Co1 Ge2 2.461340 1_555
Co1 Dy1 3.050279 1_554
Co1 Dy1 3.050279 1_555
Co1 Dy6 3.157344 1_565
Co1 Dy2 3.346424 1_565
Co1 Dy2 3.346424 1_564
Co2 Ge7 2.341653 1_554
Co2 Ge7 2.341653 1_555
Co2 Ge6 2.381032 1_555
Co2 Ge2 2.403908 1_655
Co2 Ge10 2.461340 1_555
Co2 Dy3 3.050279 1_555
Co2 Dy3 3.050279 1_554
Co2 Dy6 3.157344 1_665
Co2 Dy5 3.346424 1_654
Co2 Dy5 3.346424 1_655
Co3 Ge3 2.341653 1_554
Co3 Ge3 2.341653 1_555
Co3 Ge1 2.381032 1_555
Co3 Ge0 2.403908 1_455
Co3 Ge9 2.461340 1_555
Co3 Dy0 3.050279 1_555
Co3 Dy0 3.050279 1_554
Co3 Dy6 3.157344 1_555
Co3 Dy5 3.346424 1_555
Co3 Dy5 3.346424 1_554
Ge0 Ge6 2.587503 1_555
Ge0 Ge3 2.958600 1_654
Ge0 Ge3 2.958600 1_655
Ge1 Ge2 2.587503 1_555
Ge1 In0 2.985626 1_555
Ge2 Ge7 2.958600 1_455
Ge2 Ge7 2.958600 1_454
Ge5 Ge9 2.958600 1_566
Ge5 Ge9 2.958600 1_565
Ge6 In0 2.985626 1_555
Ge8 Ge9 2.587503 1_555
Ge8 In0 2.985626 1_555
Ge10 Ge11 2.587503 1_555
Ge10 Ge4 2.958600 1_564
Ge10 Ge4 2.958600 1_565
Ge11 In0 2.985626 1_555
