# generated using pymatgen
data_Ba2Co4ClO7
_symmetry_space_group_name_H-M   'P 1'
_cell_length_a   15.69417874
_cell_length_b   15.69417874
_cell_length_c   15.69417905
_cell_angle_alpha   21.08517912
_cell_angle_beta   21.08517912
_cell_angle_gamma   21.08518139
_symmetry_Int_Tables_number   1
_chemical_formula_structural   Ba2Co4ClO7
_chemical_formula_sum   'Ba4 Co8 Cl2 O14'
_cell_volume   438.16073160
_cell_formula_units_Z   2
loop_
 _symmetry_equiv_pos_site_id
 _symmetry_equiv_pos_as_xyz
  1  'x, y, z'
loop_
 _atom_site_type_symbol
 _atom_site_label
 _atom_site_symmetry_multiplicity
 _atom_site_fract_x
 _atom_site_fract_y
 _atom_site_fract_z
 _atom_site_occupancy
  Ba  Ba0  1  0.56990600  0.56990600  0.56990600  1
  Ba  Ba1  1  0.43009400  0.43009400  0.43009400  1
  Ba  Ba2  1  0.28908100  0.28908100  0.28908100  1
  Ba  Ba3  1  0.71091900  0.71091900  0.71091900  1
  Co  Co0  1  0.21976300  0.21976300  0.21976300  1
  Co  Co1  1  0.89744900  0.89744900  0.89744900  1
  Co  Co2  1  0.78023700  0.78023700  0.78023700  1
  Co  Co3  1  0.50000000  0.50000000  0.50000000  1
  Co  Co4  1  0.10255100  0.10255100  0.10255100  1
  Co  Co5  1  0.00000000  0.00000000  0.50000000  1
  Co  Co6  1  0.00000000  0.50000000  0.00000000  1
  Co  Co7  1  0.50000000  0.00000000  0.00000000  1
  Cl  Cl0  1  0.63983400  0.63983400  0.63983400  1
  Cl  Cl1  1  0.36016600  0.36016600  0.36016600  1
  O  O0  1  0.55046400  0.09094000  0.09094000  1
  O  O1  1  0.34998000  0.34998000  0.86665500  1
  O  O2  1  0.13334500  0.65002000  0.65002000  1
  O  O3  1  0.90906000  0.90906000  0.44953600  1
  O  O4  1  0.09094000  0.09094000  0.55046400  1
  O  O5  1  0.09094000  0.55046400  0.09094000  1
  O  O6  1  0.34998000  0.86665500  0.34998000  1
  O  O7  1  0.85464300  0.85464300  0.85464300  1
  O  O8  1  0.65002000  0.65002000  0.13334500  1
  O  O9  1  0.44953600  0.90906000  0.90906000  1
  O  O10  1  0.86665500  0.34998000  0.34998000  1
  O  O11  1  0.65002000  0.13334500  0.65002000  1
  O  O12  1  0.90906000  0.44953600  0.90906000  1
  O  O13  1  0.14535700  0.14535700  0.14535700  1
loop_
_geom_bond_atom_site_label_1
_geom_bond_atom_site_label_2
_geom_bond_distance
_geom_bond_site_symmetry_2
Ba0 O1 2.784556 1_555
Ba0 O6 2.784556 1_555
Ba0 O10 2.784556 1_555
Ba0 O5 2.895519 1_655
Ba0 O0 2.895519 1_565
Ba0 O0 2.895519 1_556
Ba0 O5 2.895519 1_556
Ba0 O4 2.895519 1_565
Ba0 O4 2.895519 1_655
Ba0 Cl0 3.218070 1_555
Ba1 O8 2.784556 1_555
Ba1 O11 2.784556 1_555
Ba1 O2 2.784556 1_555
Ba1 O12 2.895519 1_455
Ba1 O9 2.895519 1_545
Ba1 O12 2.895519 1_554
Ba1 O9 2.895519 1_554
Ba1 O3 2.895519 1_455
Ba1 O3 2.895519 1_545
Ba1 Cl1 3.218070 1_555
Ba2 O4 2.569767 1_555
Ba2 O5 2.569767 1_555
Ba2 O0 2.569767 1_555
Ba2 Cl1 3.271315 1_555
Ba2 Cl0 3.411262 1_554
Ba2 Cl0 3.411262 1_545
Ba2 Cl0 3.411262 1_455
Ba3 O3 2.569767 1_555
Ba3 O12 2.569767 1_555
Ba3 O9 2.569767 1_555
Ba3 Cl0 3.271315 1_555
Ba3 Cl1 3.411262 1_556
Ba3 Cl1 3.411262 1_565
Ba3 Cl1 3.411262 1_655
Co0 O4 1.891403 1_555
Co0 O0 1.891403 1_555
Co0 O5 1.891403 1_555
Co0 O10 2.142248 1_455
Co0 O6 2.142248 1_545
Co0 O1 2.142248 1_554
Co1 O4 1.894193 1_665
Co1 O5 1.894194 1_656
Co1 O0 1.894194 1_566
Co1 O7 1.969922 1_555
Co2 O3 1.891403 1_555
Co2 O9 1.891403 1_555
Co2 O12 1.891403 1_555
Co2 O11 2.142248 1_565
Co2 O2 2.142248 1_655
Co2 O8 2.142248 1_556
Co3 O8 1.994772 1_555
Co3 O1 1.994772 1_555
Co3 O11 1.994772 1_555
Co3 O6 1.994772 1_555
Co3 O10 1.994772 1_555
Co3 O2 1.994772 1_555
Co4 O3 1.894193 1_445
Co4 O12 1.894194 1_454
Co4 O9 1.894194 1_544
Co4 O13 1.969922 1_555
Co5 O11 1.924611 1_455
Co5 O2 1.924611 1_545
Co5 O6 1.924611 1_545
Co5 O10 1.924611 1_455
Co5 O7 1.926194 1_445
Co5 O13 1.926194 1_555
Co6 O2 1.924611 1_554
Co6 O10 1.924611 1_455
Co6 O8 1.924611 1_455
Co6 O1 1.924611 1_554
Co6 O7 1.926194 1_454
Co6 O13 1.926194 1_555
Co7 O11 1.924611 1_554
Co7 O6 1.924611 1_545
Co7 O8 1.924611 1_545
Co7 O1 1.924611 1_554
Co7 O7 1.926194 1_544
Co7 O13 1.926194 1_555
