# generated using pymatgen
data_Sr7Al12O25
_symmetry_space_group_name_H-M   'P 1'
_cell_length_a   10.82731972
_cell_length_b   10.82731972
_cell_length_c   10.82731971
_cell_angle_alpha   115.57511477
_cell_angle_beta   115.57511477
_cell_angle_gamma   115.57511904
_symmetry_Int_Tables_number   1
_chemical_formula_structural   Sr7Al12O25
_chemical_formula_sum   'Sr7 Al12 O25'
_cell_volume   671.67224580
_cell_formula_units_Z   1
loop_
 _symmetry_equiv_pos_site_id
 _symmetry_equiv_pos_as_xyz
  1  'x, y, z'
loop_
 _atom_site_type_symbol
 _atom_site_label
 _atom_site_symmetry_multiplicity
 _atom_site_fract_x
 _atom_site_fract_y
 _atom_site_fract_z
 _atom_site_occupancy
  Sr  Sr0  1  0.01936500  0.97104900  0.59330600  1
  Sr  Sr1  1  0.97104900  0.59330600  0.01936500  1
  Sr  Sr2  1  0.50314800  0.55054800  0.91332400  1
  Sr  Sr3  1  0.91332400  0.50314800  0.55054800  1
  Sr  Sr4  1  0.46676600  0.46676600  0.46676600  1
  Sr  Sr5  1  0.59330600  0.01936500  0.97104900  1
  Sr  Sr6  1  0.55054800  0.91332400  0.50314800  1
  Al  Al0  1  0.72477200  0.48164400  0.19767600  1
  Al  Al1  1  0.37927600  0.41722800  0.10656100  1
  Al  Al2  1  0.48164400  0.19767600  0.72477200  1
  Al  Al3  1  0.13255100  0.09446900  0.38415700  1
  Al  Al4  1  0.78669000  0.02903300  0.32025200  1
  Al  Al5  1  0.41722800  0.10656100  0.37927600  1
  Al  Al6  1  0.32025200  0.78669000  0.02903300  1
  Al  Al7  1  0.10656100  0.37927600  0.41722800  1
  Al  Al8  1  0.38415700  0.13255100  0.09446900  1
  Al  Al9  1  0.19767600  0.72477200  0.48164400  1
  Al  Al10  1  0.09446900  0.38415700  0.13255100  1
  Al  Al11  1  0.02903300  0.32025200  0.78669000  1
  O  O0  1  0.26666700  0.16577600  0.95914500  1
  O  O1  1  0.65124100  0.59284500  0.26830700  1
  O  O2  1  0.68159400  0.43791400  0.99874900  1
  O  O3  1  0.25560100  0.38900300  0.90614600  1
  O  O4  1  0.27373400  0.16022000  0.61756200  1
  O  O5  1  0.82946100  0.07092800  0.51815800  1
  O  O6  1  0.59284500  0.26830700  0.65124100  1
  O  O7  1  0.87368100  0.93390900  0.25873100  1
  O  O8  1  0.38900300  0.90614600  0.25560100  1
  O  O9  1  0.07092800  0.51815800  0.82946100  1
  O  O10  1  0.16577600  0.95914500  0.26666700  1
  O  O11  1  0.51815800  0.82946100  0.07092800  1
  O  O12  1  0.26738900  0.36237100  0.53412400  1
  O  O13  1  0.90614600  0.25560100  0.38900300  1
  O  O14  1  0.53412400  0.26738900  0.36237100  1
  O  O15  1  0.25873100  0.87368100  0.93390900  1
  O  O16  1  0.16101800  0.16101800  0.16101800  1
  O  O17  1  0.26830700  0.65124100  0.59284500  1
  O  O18  1  0.95914500  0.26666700  0.16577600  1
  O  O19  1  0.61756200  0.27373400  0.16022000  1
  O  O20  1  0.36237100  0.53412400  0.26738900  1
  O  O21  1  0.99874900  0.68159400  0.43791400  1
  O  O22  1  0.43791400  0.99874900  0.68159400  1
  O  O23  1  0.16022000  0.61756200  0.27373400  1
  O  O24  1  0.93390900  0.25873100  0.87368100  1
loop_
_geom_bond_atom_site_label_1
_geom_bond_atom_site_label_2
_geom_bond_distance
_geom_bond_site_symmetry_2
Al0 O19 1.768797 1_555
Al0 O2 1.772238 1_554
Al0 O21 1.784326 1_555
Al0 O1 1.796281 1_555
Al1 O0 1.774367 1_554
Al1 O3 1.777802 1_554
Al1 O1 1.786559 1_555
Al1 O20 1.800001 1_555
Al2 O4 1.768797 1_555
Al2 O22 1.772238 1_545
Al2 O2 1.784326 1_555
Al2 O6 1.796281 1_555
Al3 O10 1.770703 1_545
Al3 O7 1.786286 1_445
Al3 O4 1.844392 1_555
Al3 O12 1.847247 1_555
Al4 O13 1.759978 1_555
Al4 O5 1.770437 1_555
Al4 O11 1.781250 1_545
Al4 O7 1.782840 1_545
Al5 O10 1.774367 1_545
Al5 O8 1.777802 1_545
Al5 O6 1.786559 1_555
Al5 O14 1.800001 1_555
Al6 O8 1.759978 1_555
Al6 O11 1.770437 1_555
Al6 O9 1.781250 1_554
Al6 O15 1.782840 1_554
Al7 O18 1.774367 1_455
Al7 O13 1.777802 1_455
Al7 O17 1.786559 1_555
Al7 O12 1.800001 1_555
Al8 O0 1.770703 1_554
Al8 O15 1.786286 1_544
Al8 O19 1.844392 1_555
Al8 O14 1.847247 1_555
Al9 O23 1.768797 1_555
Al9 O21 1.772238 1_455
Al9 O22 1.784326 1_555
Al9 O17 1.796281 1_555
Al10 O18 1.770703 1_455
Al10 O24 1.786286 1_454
Al10 O23 1.844392 1_555
Al10 O20 1.847247 1_555
Al11 O3 1.759978 1_555
Al11 O9 1.770437 1_555
Al11 O5 1.781250 1_455
Al11 O24 1.782840 1_455
O0 Sr0 2.462297 1_545
O1 Sr0 2.528869 1_655
O2 Sr1 2.687346 1_556
O2 Sr2 2.746090 1_555
O3 Sr2 2.429899 1_555
O3 Sr0 2.790348 1_545
O4 Sr0 2.426945 1_545
O4 Sr2 2.582551 1_555
O5 Sr6 2.635449 1_545
O5 Sr0 2.700799 1_645
O6 Sr1 2.528869 1_556
O7 Sr2 2.564439 1_554
O7 Sr0 3.005631 1_655
O8 Sr6 2.429899 1_555
O8 Sr1 2.790348 1_455
O9 Sr3 2.635449 1_455
O9 Sr1 2.700799 1_456
O10 Sr1 2.462297 1_455
O11 Sr2 2.635449 1_554
O11 Sr5 2.700799 1_564
O12 Sr4 2.536512 1_555
O12 Sr2 2.600508 1_555
O13 Sr3 2.429899 1_555
O13 Sr5 2.790348 1_554
O14 Sr4 2.536512 1_555
O14 Sr3 2.600508 1_555
O15 Sr3 2.564439 1_455
O15 Sr5 3.005631 1_565
O16 Sr4 2.119286 1_555
O17 Sr5 2.528869 1_565
O18 Sr5 2.462297 1_554
O19 Sr5 2.426945 1_554
O19 Sr3 2.582552 1_555
O20 Sr4 2.536512 1_555
O20 Sr6 2.600508 1_555
O21 Sr0 2.687346 1_655
O21 Sr3 2.746090 1_555
O22 Sr5 2.687346 1_565
O22 Sr6 2.746090 1_555
O23 Sr1 2.426945 1_455
O23 Sr6 2.582551 1_555
O24 Sr6 2.564439 1_545
O24 Sr1 3.005631 1_556
