# generated using pymatgen
data_UTl2(MoO5)2
_symmetry_space_group_name_H-M   'P 1'
_cell_length_a   11.16030500
_cell_length_b   14.23821300
_cell_length_c   14.24364900
_cell_angle_alpha   90.00000000
_cell_angle_beta   90.00000000
_cell_angle_gamma   90.00000000
_symmetry_Int_Tables_number   1
_chemical_formula_structural   UTl2(MoO5)2
_chemical_formula_sum   'U8 Tl16 Mo16 O80'
_cell_volume   2263.35570454
_cell_formula_units_Z   8
loop_
 _symmetry_equiv_pos_site_id
 _symmetry_equiv_pos_as_xyz
  1  'x, y, z'
loop_
 _atom_site_type_symbol
 _atom_site_label
 _atom_site_symmetry_multiplicity
 _atom_site_fract_x
 _atom_site_fract_y
 _atom_site_fract_z
 _atom_site_occupancy
  U  U0  1  0.16289600  0.13058900  0.72838800  1
  U  U1  1  0.65586100  0.98366700  0.76212300  1
  U  U2  1  0.15586100  0.98366700  0.23787700  1
  U  U3  1  0.83710400  0.63058900  0.27161200  1
  U  U4  1  0.33710400  0.63058900  0.72838800  1
  U  U5  1  0.84413900  0.48366700  0.76212300  1
  U  U6  1  0.66289600  0.13058900  0.27161200  1
  U  U7  1  0.34413900  0.48366700  0.23787700  1
  Tl  Tl0  1  0.74803900  0.24509600  0.91621400  1
  Tl  Tl1  1  0.27571500  0.90496800  0.55457300  1
  Tl  Tl2  1  0.75196100  0.74509600  0.91621400  1
  Tl  Tl3  1  0.25196100  0.74509600  0.08378600  1
  Tl  Tl4  1  0.00816400  0.67426400  0.57244700  1
  Tl  Tl5  1  0.46541400  0.46164900  0.94800900  1
  Tl  Tl6  1  0.99183600  0.17426400  0.42755300  1
  Tl  Tl7  1  0.53458600  0.96164900  0.05199100  1
  Tl  Tl8  1  0.72428500  0.40496800  0.44542700  1
  Tl  Tl9  1  0.24803900  0.24509600  0.08378600  1
  Tl  Tl10  1  0.22428500  0.40496800  0.55457300  1
  Tl  Tl11  1  0.77571500  0.90496800  0.44542700  1
  Tl  Tl12  1  0.50816400  0.67426400  0.42755300  1
  Tl  Tl13  1  0.49183600  0.17426400  0.57244700  1
  Tl  Tl14  1  0.03458600  0.96164900  0.94800900  1
  Tl  Tl15  1  0.96541400  0.46164900  0.05199100  1
  Mo  Mo0  1  0.33585300  0.21547800  0.33841100  1
  Mo  Mo1  1  0.43944300  0.16645200  0.88473600  1
  Mo  Mo2  1  0.83585300  0.21547800  0.66158900  1
  Mo  Mo3  1  0.94881500  0.90749000  0.66264500  1
  Mo  Mo4  1  0.34850300  0.88898300  0.81769400  1
  Mo  Mo5  1  0.66414700  0.71547800  0.66158900  1
  Mo  Mo6  1  0.44881500  0.90749000  0.33735500  1
  Mo  Mo7  1  0.05118500  0.40749000  0.33735500  1
  Mo  Mo8  1  0.16414700  0.71547800  0.33841100  1
  Mo  Mo9  1  0.65149700  0.38898300  0.18230600  1
  Mo  Mo10  1  0.06055700  0.66645200  0.88473600  1
  Mo  Mo11  1  0.55118500  0.40749000  0.66264500  1
  Mo  Mo12  1  0.56055700  0.66645200  0.11526400  1
  Mo  Mo13  1  0.84850300  0.88898300  0.18230600  1
  Mo  Mo14  1  0.93944300  0.16645200  0.11526400  1
  Mo  Mo15  1  0.15149700  0.38898300  0.81769400  1
  O  O0  1  0.22875000  0.46038000  0.14956500  1
  O  O1  1  0.04069600  0.00250900  0.32759600  1
  O  O2  1  0.01184000  0.77126900  0.94048800  1
  O  O3  1  0.73340900  0.74031400  0.55288200  1
  O  O4  1  0.76659100  0.24031400  0.55288200  1
  O  O5  1  0.01503400  0.67063300  0.36196800  1
  O  O6  1  0.49023300  0.37253800  0.55188000  1
  O  O7  1  0.95930400  0.50250900  0.67240400  1
  O  O8  1  0.21684900  0.49613900  0.77470800  1
  O  O9  1  0.72875000  0.46038000  0.85043500  1
  O  O10  1  0.85626000  0.10157200  0.03241800  1
  O  O11  1  0.84482200  0.80139200  0.27607600  1
  O  O12  1  0.35626000  0.10157200  0.96758200  1
  O  O13  1  0.78315100  0.99613900  0.22529200  1
  O  O14  1  0.24957100  0.12936400  0.27464700  1
  O  O15  1  0.92527100  0.59744600  0.85943500  1
  O  O16  1  0.28315100  0.99613900  0.77470800  1
  O  O17  1  0.26659100  0.24031400  0.44711800  1
  O  O18  1  0.79947100  0.95676000  0.64035400  1
  O  O19  1  0.70052900  0.45676000  0.64035400  1
  O  O20  1  0.00976700  0.87253800  0.55188000  1
  O  O21  1  0.26469800  0.85193200  0.91540800  1
  O  O22  1  0.54069600  0.00250900  0.67240400  1
  O  O23  1  0.20052900  0.45676000  0.35964600  1
  O  O24  1  0.15517800  0.30139200  0.72392400  1
  O  O25  1  0.06583800  0.30410100  0.27060400  1
  O  O26  1  0.71684900  0.49613900  0.22529200  1
  O  O27  1  0.72929400  0.11387600  0.38763300  1
  O  O28  1  0.45930400  0.50250900  0.32759600  1
  O  O29  1  0.42527100  0.59744600  0.14056500  1
  O  O30  1  0.50976700  0.87253800  0.44812000  1
  O  O31  1  0.34482200  0.80139200  0.72392400  1
  O  O32  1  0.14374000  0.60157200  0.96758200  1
  O  O33  1  0.40643100  0.64507200  0.84352600  1
  O  O34  1  0.64374000  0.60157200  0.03241800  1
  O  O35  1  0.51503400  0.67063300  0.63803200  1
  O  O36  1  0.99775300  0.41099900  0.85562600  1
  O  O37  1  0.45217600  0.49177500  0.71989300  1
  O  O38  1  0.29947100  0.95676000  0.35964600  1
  O  O39  1  0.65396400  0.68635100  0.21931000  1
  O  O40  1  0.22929400  0.11387600  0.61236700  1
  O  O41  1  0.15342400  0.82022000  0.26737900  1
  O  O42  1  0.77070600  0.61387600  0.38763300  1
  O  O43  1  0.51184000  0.77126900  0.05951200  1
  O  O44  1  0.99023300  0.37253800  0.44812000  1
  O  O45  1  0.98816000  0.27126900  0.05951200  1
  O  O46  1  0.75042900  0.62936400  0.72535300  1
  O  O47  1  0.77125000  0.96038000  0.85043500  1
  O  O48  1  0.74957100  0.12936400  0.72535300  1
  O  O49  1  0.27125000  0.96038000  0.14956500  1
  O  O50  1  0.98496600  0.17063300  0.63803200  1
  O  O51  1  0.50224700  0.91099900  0.85562600  1
  O  O52  1  0.54782400  0.99177500  0.28010700  1
  O  O53  1  0.76469800  0.85193200  0.08459200  1
  O  O54  1  0.04782400  0.99177500  0.71989300  1
  O  O55  1  0.09356900  0.14507200  0.84352600  1
  O  O56  1  0.56583800  0.30410100  0.72939600  1
  O  O57  1  0.84603600  0.18635100  0.21931000  1
  O  O58  1  0.43416200  0.80410100  0.27060400  1
  O  O59  1  0.57472900  0.09744600  0.85943500  1
  O  O60  1  0.84657600  0.32022000  0.73262100  1
  O  O61  1  0.23530200  0.35193200  0.91540800  1
  O  O62  1  0.48816000  0.27126900  0.94048800  1
  O  O63  1  0.48496600  0.17063300  0.36196800  1
  O  O64  1  0.27070600  0.61387600  0.61236700  1
  O  O65  1  0.65342400  0.82022000  0.73262100  1
  O  O66  1  0.34657600  0.32022000  0.26737900  1
  O  O67  1  0.23340900  0.74031400  0.44711800  1
  O  O68  1  0.95217600  0.49177500  0.28010700  1
  O  O69  1  0.34603600  0.18635100  0.78069000  1
  O  O70  1  0.07472900  0.09744600  0.14056500  1
  O  O71  1  0.73530200  0.35193200  0.08459200  1
  O  O72  1  0.65517800  0.30139200  0.27607600  1
  O  O73  1  0.59356900  0.14507200  0.15647400  1
  O  O74  1  0.25042900  0.62936400  0.27464700  1
  O  O75  1  0.15396400  0.68635100  0.78069000  1
  O  O76  1  0.90643100  0.64507200  0.15647400  1
  O  O77  1  0.49775300  0.41099900  0.14437400  1
  O  O78  1  0.93416200  0.80410100  0.72939600  1
  O  O79  1  0.00224700  0.91099900  0.14437400  1
loop_
_geom_bond_atom_site_label_1
_geom_bond_atom_site_label_2
_geom_bond_distance
_geom_bond_site_symmetry_2
Mo0 O17 1.766366 1_555
Mo0 O14 1.804292 1_555
Mo0 O66 1.806118 1_555
Mo0 O63 1.813744 1_555
Mo1 O12 1.762855 1_555
Mo1 O62 1.775809 1_555
Mo1 O69 1.833926 1_555
Mo1 O59 1.837068 1_555
Mo2 O4 1.766366 1_555
Mo2 O48 1.804292 1_555
Mo2 O60 1.806118 1_555
Mo2 O50 1.813744 1_555
Mo3 O78 1.760035 1_555
Mo3 O20 1.788720 1_655
Mo3 O54 1.823742 1_655
Mo3 O18 1.836003 1_555
Mo4 O21 1.757892 1_555
Mo4 O16 1.798506 1_555
Mo4 O51 1.825992 1_555
Mo4 O31 1.827825 1_555
Mo5 O3 1.766366 1_555
Mo5 O46 1.804292 1_555
Mo5 O65 1.806118 1_555
Mo5 O35 1.813744 1_555
Mo6 O58 1.760035 1_555
Mo6 O30 1.788720 1_555
Mo6 O52 1.823742 1_555
Mo6 O38 1.836003 1_555
Mo7 O25 1.760035 1_555
Mo7 O44 1.788720 1_455
Mo7 O68 1.823742 1_455
Mo7 O23 1.836003 1_555
Mo8 O67 1.766366 1_555
Mo8 O74 1.804292 1_555
Mo8 O41 1.806118 1_555
Mo8 O5 1.813744 1_555
Mo9 O71 1.757892 1_555
Mo9 O26 1.798506 1_555
Mo9 O77 1.825992 1_555
Mo9 O72 1.827825 1_555
Mo10 O32 1.762855 1_555
Mo10 O2 1.775809 1_555
Mo10 O75 1.833926 1_555
Mo10 O15 1.837068 1_455
Mo11 O56 1.760035 1_555
Mo11 O6 1.788720 1_555
Mo11 O37 1.823742 1_555
Mo11 O19 1.836003 1_555
Mo12 O34 1.762855 1_555
Mo12 O43 1.775809 1_555
Mo12 O39 1.833926 1_555
Mo12 O29 1.837068 1_555
Mo13 O53 1.757892 1_555
Mo13 O13 1.798506 1_555
Mo13 O79 1.825992 1_655
Mo13 O11 1.827825 1_555
Mo14 O10 1.762855 1_555
Mo14 O45 1.775809 1_555
Mo14 O57 1.833926 1_555
Mo14 O70 1.837068 1_655
Mo15 O61 1.757892 1_555
Mo15 O8 1.798506 1_555
Mo15 O36 1.825992 1_455
Mo15 O24 1.827825 1_555
O0 U7 1.830459 1_555
O1 U2 1.832213 1_545
O1 Tl6 2.881806 1_455
O2 Tl14 2.724638 1_555
O5 U3 2.434062 1_455
O6 Tl13 2.838283 1_555
O7 U5 1.832213 1_555
O7 Tl4 2.881806 1_655
O8 U4 2.429224 1_555
O9 U5 1.830459 1_555
O11 U3 2.434285 1_555
O13 U6 2.429224 1_565
O14 U2 2.381485 1_545
O15 U5 2.316354 1_555
O16 U0 2.429224 1_565
O18 U1 2.392443 1_555
O19 U5 2.392443 1_555
O20 Tl4 2.838283 1_555
O22 U1 1.832213 1_545
O22 Tl13 2.881806 1_555
O23 U7 2.392443 1_555
O24 U0 2.434285 1_555
O26 U3 2.429224 1_555
O27 U6 1.826664 1_555
O28 U7 1.832213 1_555
O28 Tl12 2.881806 1_555
O29 U7 2.316354 1_555
O30 Tl12 2.838283 1_555
O31 U4 2.434285 1_555
O33 U4 1.825021 1_555
O35 U4 2.434062 1_555
O36 U5 2.404865 1_555
O37 U4 2.360152 1_555
O38 U2 2.392443 1_555
O39 U3 2.315785 1_555
O40 U0 1.826664 1_555
O41 U2 2.364984 1_555
O42 U3 1.826664 1_555
O43 Tl7 2.724638 1_555
O44 Tl6 2.838283 1_555
O45 Tl15 2.724638 1_555
O46 U5 2.381485 1_555
O47 U1 1.830459 1_555
O48 U1 2.381485 1_545
O49 U2 1.830459 1_555
O50 U0 2.434062 1_655
O51 U1 2.404865 1_555
O52 U6 2.360152 1_565
O54 U0 2.360152 1_565
O55 U0 1.825021 1_555
O57 U6 2.315785 1_555
O59 U1 2.316354 1_545
O60 U5 2.364984 1_555
O62 Tl5 2.724638 1_555
O63 U6 2.434062 1_555
O64 U4 1.826664 1_555
O65 U1 2.364984 1_555
O66 U7 2.364984 1_555
O68 U3 2.360152 1_555
O69 U0 2.315785 1_555
O70 U2 2.316354 1_545
O72 U6 2.434285 1_555
O73 U6 1.825021 1_555
O74 U7 2.381485 1_555
O75 U4 2.315785 1_555
O76 U3 1.825021 1_555
O77 U7 2.404865 1_555
O79 U2 2.404865 1_555
