# generated using pymatgen
data_FePbW2
_symmetry_space_group_name_H-M   'P 1'
_cell_length_a   4.53606455
_cell_length_b   4.53606455
_cell_length_c   4.53606455
_cell_angle_alpha   60.00000000
_cell_angle_beta   60.00000000
_cell_angle_gamma   60.00000000
_symmetry_Int_Tables_number   1
_chemical_formula_structural   FePbW2
_chemical_formula_sum   'Fe1 Pb1 W2'
_cell_volume   65.99676974
_cell_formula_units_Z   1
loop_
 _symmetry_equiv_pos_site_id
 _symmetry_equiv_pos_as_xyz
  1  'x, y, z'
loop_
 _atom_site_type_symbol
 _atom_site_label
 _atom_site_symmetry_multiplicity
 _atom_site_fract_x
 _atom_site_fract_y
 _atom_site_fract_z
 _atom_site_occupancy
  Fe  Fe0  1  0.50000000  0.50000000  0.50000000  1
  Pb  Pb0  1  0.25000000  0.25000000  0.25000000  1
  W  W0  1  0.00000000  0.00000000  0.00000000  1
  W  W1  1  0.75000000  0.75000000  0.75000000  1
loop_
_geom_bond_atom_site_label_1
_geom_bond_atom_site_label_2
_geom_bond_distance
_geom_bond_site_symmetry_2
Fe0 W1 2.777761 1_554
Fe0 W1 2.777761 1_455
Fe0 Pb0 2.777761 1_655
Fe0 Pb0 2.777761 1_555
Fe0 W1 2.777761 1_555
Fe0 W1 2.777761 1_545
Fe0 Pb0 2.777761 1_556
Fe0 Pb0 2.777761 1_565
Fe0 W0 3.207482 1_565
Fe0 W0 3.207482 1_655
Fe0 W0 3.207482 1_665
Fe0 W0 3.207482 1_566
Fe0 W0 3.207482 1_656
Fe0 W0 3.207482 1_556
Pb0 W0 2.777761 1_555
Pb0 W0 2.777761 1_565
Pb0 W0 2.777761 1_655
Pb0 W0 2.777761 1_556
W0 W1 2.777761 1_444
W0 W1 2.777761 1_445
W0 W1 2.777761 1_544
W0 W1 2.777761 1_454
