# generated using pymatgen
data_SiO2
_symmetry_space_group_name_H-M   'P 1'
_cell_length_a   14.41836688
_cell_length_b   14.41836688
_cell_length_c   14.41836688
_cell_angle_alpha   109.47122063
_cell_angle_beta   109.47122063
_cell_angle_gamma   109.47122063
_symmetry_Int_Tables_number   1
_chemical_formula_structural   SiO2
_chemical_formula_sum   'Si48 O96'
_cell_volume   2307.41826248
_cell_formula_units_Z   48
loop_
 _symmetry_equiv_pos_site_id
 _symmetry_equiv_pos_as_xyz
  1  'x, y, z'
loop_
 _atom_site_type_symbol
 _atom_site_label
 _atom_site_symmetry_multiplicity
 _atom_site_fract_x
 _atom_site_fract_y
 _atom_site_fract_z
 _atom_site_occupancy
  Si  Si0  1  0.62853400  0.39120200  0.54032700  1
  Si  Si1  1  0.14912500  0.54032700  0.41179400  1
  Si  Si2  1  0.76266900  0.87146600  0.41179400  1
  Si  Si3  1  0.89120200  0.12853400  0.04032700  1
  Si  Si4  1  0.41179400  0.76266900  0.87146600  1
  Si  Si5  1  0.91179400  0.37146600  0.26266900  1
  Si  Si6  1  0.45967300  0.58820600  0.85087500  1
  Si  Si7  1  0.08820600  0.95967300  0.35087500  1
  Si  Si8  1  0.10879800  0.73733100  0.14912500  1
  Si  Si9  1  0.58820600  0.85087500  0.45967300  1
  Si  Si10  1  0.08820600  0.62853400  0.73733100  1
  Si  Si11  1  0.95967300  0.10879800  0.87146600  1
  Si  Si12  1  0.35087500  0.76266900  0.39120200  1
  Si  Si13  1  0.37146600  0.60879800  0.45967300  1
  Si  Si14  1  0.23733100  0.12853400  0.58820600  1
  Si  Si15  1  0.87146600  0.95967300  0.10879800  1
  Si  Si16  1  0.60879800  0.45967300  0.37146600  1
  Si  Si17  1  0.10879800  0.87146600  0.95967300  1
  Si  Si18  1  0.76266900  0.39120200  0.35087500  1
  Si  Si19  1  0.14912500  0.10879800  0.73733100  1
  Si  Si20  1  0.85087500  0.89120200  0.26266900  1
  Si  Si21  1  0.85087500  0.45967300  0.58820600  1
  Si  Si22  1  0.12853400  0.58820600  0.23733100  1
  Si  Si23  1  0.26266900  0.85087500  0.89120200  1
  Si  Si24  1  0.23733100  0.60879800  0.64912500  1
  Si  Si25  1  0.62853400  0.73733100  0.08820600  1
  Si  Si26  1  0.54032700  0.41179400  0.14912500  1
  Si  Si27  1  0.04032700  0.64912500  0.91179400  1
  Si  Si28  1  0.73733100  0.08820600  0.62853400  1
  Si  Si29  1  0.37146600  0.26266900  0.91179400  1
  Si  Si30  1  0.41179400  0.14912500  0.54032700  1
  Si  Si31  1  0.73733100  0.14912500  0.10879800  1
  Si  Si32  1  0.89120200  0.26266900  0.85087500  1
  Si  Si33  1  0.12853400  0.04032700  0.89120200  1
  Si  Si34  1  0.35087500  0.08820600  0.95967300  1
  Si  Si35  1  0.39120200  0.54032700  0.62853400  1
  Si  Si36  1  0.64912500  0.23733100  0.60879800  1
  Si  Si37  1  0.87146600  0.41179400  0.76266900  1
  Si  Si38  1  0.39120200  0.35087500  0.76266900  1
  Si  Si39  1  0.91179400  0.04032700  0.64912500  1
  Si  Si40  1  0.58820600  0.23733100  0.12853400  1
  Si  Si41  1  0.04032700  0.89120200  0.12853400  1
  Si  Si42  1  0.54032700  0.62853400  0.39120200  1
  Si  Si43  1  0.95967300  0.35087500  0.08820600  1
  Si  Si44  1  0.45967300  0.37146600  0.60879800  1
  Si  Si45  1  0.64912500  0.91179400  0.04032700  1
  Si  Si46  1  0.60879800  0.64912500  0.23733100  1
  Si  Si47  1  0.26266900  0.91179400  0.37146600  1
  O  O0  1  0.51222100  0.15446700  0.50095300  1
  O  O1  1  0.71606700  0.86655400  0.20949200  1
  O  O2  1  0.15048600  0.86655400  0.15706200  1
  O  O3  1  0.48777900  0.84553300  0.49904700  1
  O  O4  1  0.13344600  0.79050800  0.28393200  1
  O  O5  1  0.86655400  0.20949200  0.71606700  1
  O  O6  1  0.84293800  0.49342500  0.70949200  1
  O  O7  1  0.99904700  0.34553300  0.98777900  1
  O  O8  1  0.01222100  0.51126800  0.35775400  1
  O  O9  1  0.70949200  0.84293800  0.49342500  1
  O  O10  1  0.34648600  0.50095300  0.48873200  1
  O  O11  1  0.63344600  0.78393300  0.29050800  1
  O  O12  1  0.65446700  0.14224600  0.65351400  1
  O  O13  1  0.36655400  0.21606700  0.70949200  1
  O  O14  1  0.63344600  0.34951400  0.34293800  1
  O  O15  1  0.00095300  0.84648600  0.98873200  1
  O  O16  1  0.13344600  0.84293800  0.84951400  1
  O  O17  1  0.15446700  0.15351400  0.64224600  1
  O  O18  1  0.84951400  0.13344600  0.84293800  1
  O  O19  1  0.34553300  0.98777900  0.99904700  1
  O  O20  1  0.51126800  0.65351400  0.49904700  1
  O  O21  1  0.65351400  0.49904700  0.51126800  1
  O  O22  1  0.64224600  0.15446700  0.15351400  1
  O  O23  1  0.98873200  0.48777900  0.14224600  1
  O  O24  1  0.34293800  0.63344600  0.34951400  1
  O  O25  1  0.84648600  0.98873200  0.00095300  1
  O  O26  1  0.51126800  0.35775400  0.01222100  1
  O  O27  1  0.65446700  0.01222100  0.00095300  1
  O  O28  1  0.50095300  0.48873200  0.34648600  1
  O  O29  1  0.78393200  0.99342500  0.15048600  1
  O  O30  1  0.65048600  0.65706200  0.36655400  1
  O  O31  1  0.79050800  0.00657500  0.65706200  1
  O  O32  1  0.14224600  0.98873200  0.48777900  1
  O  O33  1  0.15351400  0.01126800  0.99904700  1
  O  O34  1  0.99904700  0.15351400  0.01126800  1
  O  O35  1  0.00657500  0.84951400  0.21606700  1
  O  O36  1  0.28393200  0.65048600  0.49342500  1
  O  O37  1  0.99342500  0.15048600  0.78393300  1
  O  O38  1  0.35775400  0.01222100  0.51126800  1
  O  O39  1  0.34293800  0.20949200  0.99342500  1
  O  O40  1  0.34951400  0.34293800  0.63344600  1
  O  O41  1  0.64224600  0.98777900  0.48873200  1
  O  O42  1  0.84553300  0.84648600  0.35775400  1
  O  O43  1  0.20949200  0.99342500  0.34293800  1
  O  O44  1  0.34951400  0.50657500  0.71606700  1
  O  O45  1  0.50657500  0.29050800  0.15706200  1
  O  O46  1  0.29050800  0.15706200  0.50657500  1
  O  O47  1  0.15351400  0.64224600  0.15446700  1
  O  O48  1  0.14224600  0.65351400  0.65446700  1
  O  O49  1  0.21606700  0.70949200  0.36655400  1
  O  O50  1  0.00095300  0.65446700  0.01222100  1
  O  O51  1  0.78393200  0.29050800  0.63344600  1
  O  O52  1  0.35775400  0.84553300  0.84648600  1
  O  O53  1  0.00657500  0.65706200  0.79050800  1
  O  O54  1  0.65706200  0.79050800  0.00657500  1
  O  O55  1  0.98777900  0.48873200  0.64224600  1
  O  O56  1  0.65048600  0.49342500  0.28393200  1
  O  O57  1  0.65706200  0.36655400  0.65048600  1
  O  O58  1  0.49904700  0.48777900  0.84553300  1
  O  O59  1  0.28393200  0.13344600  0.79050800  1
  O  O60  1  0.01126800  0.51222100  0.85775400  1
  O  O61  1  0.51222100  0.85775400  0.01126800  1
  O  O62  1  0.84951400  0.21606700  0.00657500  1
  O  O63  1  0.15706200  0.50657500  0.29050800  1
  O  O64  1  0.84293800  0.84951400  0.13344600  1
  O  O65  1  0.49342500  0.28393200  0.65048600  1
  O  O66  1  0.98777900  0.99904700  0.34553300  1
  O  O67  1  0.29050800  0.63344600  0.78393200  1
  O  O68  1  0.49904700  0.51126800  0.65351400  1
  O  O69  1  0.48873200  0.64224600  0.98777900  1
  O  O70  1  0.15706200  0.15048600  0.86655400  1
  O  O71  1  0.34553300  0.85775400  0.34648600  1
  O  O72  1  0.85775400  0.34648600  0.34553300  1
  O  O73  1  0.34648600  0.34553300  0.85775400  1
  O  O74  1  0.01126800  0.99904700  0.15351400  1
  O  O75  1  0.79050800  0.28393200  0.13344600  1
  O  O76  1  0.21606700  0.00657500  0.84951400  1
  O  O77  1  0.86655400  0.15706200  0.15048600  1
  O  O78  1  0.48873200  0.34648600  0.50095300  1
  O  O79  1  0.01222100  0.00095300  0.65446700  1
  O  O80  1  0.84648600  0.35775400  0.84553300  1
  O  O81  1  0.36655400  0.65048600  0.65706200  1
  O  O82  1  0.70949200  0.36655400  0.21606700  1
  O  O83  1  0.50657500  0.71606700  0.34951400  1
  O  O84  1  0.85775400  0.01126800  0.51222100  1
  O  O85  1  0.65351400  0.65446700  0.14224600  1
  O  O86  1  0.49342500  0.70949200  0.84293800  1
  O  O87  1  0.98873200  0.00095300  0.84648600  1
  O  O88  1  0.48777900  0.14224600  0.98873200  1
  O  O89  1  0.71606700  0.34951400  0.50657500  1
  O  O90  1  0.15048600  0.78393200  0.99342500  1
  O  O91  1  0.99342500  0.34293800  0.20949200  1
  O  O92  1  0.20949200  0.71606700  0.86655400  1
  O  O93  1  0.15446700  0.50095300  0.51222100  1
  O  O94  1  0.50095300  0.51222100  0.15446700  1
  O  O95  1  0.84553300  0.49904700  0.48777900  1
loop_
_geom_bond_atom_site_label_1
_geom_bond_atom_site_label_2
_geom_bond_distance
_geom_bond_site_symmetry_2
O0 Si36 1.698442 1_555
O0 Si30 1.711062 1_555
O1 Si20 1.690114 1_555
O1 Si25 1.706232 1_555
O2 Si41 1.690101 1_555
O2 Si8 1.706233 1_555
O3 Si12 1.698442 1_555
O3 Si9 1.711062 1_555
O4 Si8 1.690101 1_555
O4 Si47 1.706233 1_555
O5 Si32 1.690114 1_555
O5 Si28 1.706232 1_555
O6 Si37 1.690110 1_555
O6 Si21 1.706233 1_555
O7 Si32 1.698442 1_555
O7 Si43 1.711062 1_556
O8 Si1 1.698442 1_555
O8 Si5 1.711072 1_455
O9 Si2 1.690110 1_555
O9 Si9 1.706233 1_555
O10 Si13 1.698442 1_555
O10 Si35 1.711076 1_555
O11 Si46 1.690114 1_555
O11 Si2 1.706232 1_555
O12 Si28 1.698438 1_555
O12 Si36 1.711062 1_555
O13 Si38 1.690114 1_555
O13 Si14 1.706232 1_555
O14 Si16 1.690101 1_555
O14 Si18 1.706233 1_555
O15 Si17 1.698442 1_555
O15 Si41 1.711076 1_556
O16 Si17 1.690101 1_555
O16 Si23 1.706233 1_555
O17 Si14 1.698438 1_555
O17 Si19 1.711062 1_555
O18 Si11 1.690101 1_555
O18 Si32 1.706233 1_555
O19 Si23 1.698442 1_555
O19 Si34 1.711062 1_565
O20 Si42 1.698442 1_555
O20 Si13 1.711076 1_555
O21 Si0 1.698442 1_555
O21 Si16 1.711076 1_555
O22 Si40 1.698438 1_555
O22 Si31 1.711062 1_555
O23 Si43 1.698442 1_555
O23 Si22 1.711072 1_655
O24 Si13 1.690101 1_555
O24 Si12 1.706233 1_555
O25 Si15 1.698442 1_555
O25 Si3 1.711076 1_565
O26 Si26 1.698442 1_555
O26 Si29 1.711072 1_554
O27 Si31 1.698442 1_555
O27 Si45 1.711062 1_545
O28 Si16 1.698442 1_555
O28 Si42 1.711076 1_555
O29 Si45 1.690101 1_555
O29 Si15 1.706225 1_555
O30 Si42 1.690101 1_555
O30 Si46 1.706233 1_555
O31 Si28 1.690110 1_555
O31 Si39 1.706233 1_555
O32 Si7 1.698442 1_555
O32 Si14 1.711072 1_565
O33 Si33 1.698442 1_555
O33 Si17 1.711076 1_545
O34 Si3 1.698442 1_555
O34 Si11 1.711076 1_554
O35 Si7 1.690110 1_555
O35 Si41 1.706212 1_555
O36 Si1 1.690101 1_555
O36 Si13 1.706225 1_555
O37 Si39 1.690110 1_555
O37 Si11 1.706212 1_555
O38 Si30 1.698442 1_555
O38 Si47 1.711072 1_545
O39 Si29 1.690110 1_555
O39 Si34 1.706233 1_555
O40 Si44 1.690101 1_555
O40 Si38 1.706233 1_555
O41 Si9 1.698442 1_555
O41 Si28 1.711072 1_565
O42 Si2 1.698438 1_555
O42 Si20 1.711062 1_555
O43 Si47 1.690110 1_555
O43 Si7 1.706233 1_555
O44 Si6 1.690110 1_555
O44 Si35 1.706212 1_555
O45 Si40 1.690110 1_555
O45 Si26 1.706233 1_555
O46 Si14 1.690110 1_555
O46 Si30 1.706233 1_555
O47 Si22 1.698438 1_555
O47 Si8 1.711062 1_555
O48 Si10 1.698438 1_555
O48 Si24 1.711062 1_555
O49 Si12 1.690114 1_555
O49 Si22 1.706232 1_555
O50 Si8 1.698442 1_555
O50 Si27 1.711062 1_554
O51 Si36 1.690101 1_555
O51 Si37 1.706233 1_555
O52 Si4 1.698438 1_555
O52 Si23 1.711062 1_555
O53 Si10 1.690110 1_555
O53 Si27 1.706233 1_555
O54 Si25 1.690110 1_555
O54 Si45 1.706233 1_555
O55 Si21 1.698442 1_555
O55 Si10 1.711072 1_655
O56 Si26 1.690101 1_555
O56 Si16 1.706225 1_555
O57 Si0 1.690101 1_555
O57 Si36 1.706233 1_555
O58 Si38 1.698442 1_555
O58 Si6 1.711062 1_555
O59 Si19 1.690101 1_555
O59 Si29 1.706233 1_555
O60 Si27 1.698442 1_555
O60 Si37 1.711072 1_455
O61 Si45 1.698442 1_555
O61 Si4 1.711072 1_554
O62 Si43 1.690110 1_555
O62 Si3 1.706212 1_555
O63 Si22 1.690110 1_555
O63 Si1 1.706233 1_555
O64 Si15 1.690101 1_555
O64 Si20 1.706233 1_555
O65 Si30 1.690101 1_555
O65 Si44 1.706225 1_555
O66 Si20 1.698442 1_555
O66 Si7 1.711062 1_655
O67 Si24 1.690101 1_555
O67 Si4 1.706233 1_555
O68 Si35 1.698442 1_555
O68 Si44 1.711076 1_555
O69 Si6 1.698442 1_555
O69 Si25 1.711072 1_556
O70 Si33 1.690101 1_555
O70 Si19 1.706233 1_555
O71 Si47 1.698438 1_555
O71 Si12 1.711062 1_555
O72 Si5 1.698438 1_555
O72 Si18 1.711062 1_555
O73 Si29 1.698438 1_555
O73 Si38 1.711062 1_555
O74 Si41 1.698442 1_555
O74 Si15 1.711076 1_455
O75 Si31 1.690101 1_555
O75 Si5 1.706233 1_555
O76 Si34 1.690110 1_555
O76 Si33 1.706212 1_555
O77 Si3 1.690101 1_555
O77 Si31 1.706233 1_555
O78 Si44 1.698442 1_555
O78 Si0 1.711076 1_555
O79 Si19 1.698442 1_555
O79 Si39 1.711062 1_455
O80 Si37 1.698438 1_555
O80 Si32 1.711062 1_555
O81 Si35 1.690101 1_555
O81 Si24 1.706233 1_555
O82 Si18 1.690114 1_555
O82 Si40 1.706232 1_555
O83 Si9 1.690110 1_555
O83 Si42 1.706212 1_555
O84 Si39 1.698442 1_555
O84 Si2 1.711072 1_545
O85 Si25 1.698438 1_555
O85 Si46 1.711062 1_555
O86 Si4 1.690110 1_555
O86 Si6 1.706233 1_555
O87 Si11 1.698442 1_555
O87 Si33 1.711076 1_655
O88 Si34 1.698442 1_555
O88 Si40 1.711072 1_556
O89 Si21 1.690110 1_555
O89 Si0 1.706212 1_555
O90 Si27 1.690101 1_555
O90 Si17 1.706225 1_555
O91 Si5 1.690110 1_555
O91 Si43 1.706233 1_555
O92 Si23 1.690114 1_555
O92 Si10 1.706232 1_555
O93 Si24 1.698442 1_555
O93 Si1 1.711062 1_555
O94 Si46 1.698442 1_555
O94 Si26 1.711062 1_555
O95 Si18 1.698442 1_555
O95 Si21 1.711062 1_555
