# generated using pymatgen
data_Ag2CO3
_symmetry_space_group_name_H-M   'P 1'
_cell_length_a   3.44682300
_cell_length_b   9.23145400
_cell_length_c   15.89507100
_cell_angle_alpha   90.00000000
_cell_angle_beta   90.00000000
_cell_angle_gamma   90.00000000
_symmetry_Int_Tables_number   1
_chemical_formula_structural   Ag2CO3
_chemical_formula_sum   'Ag12 C6 O18'
_cell_volume   505.76825196
_cell_formula_units_Z   6
loop_
 _symmetry_equiv_pos_site_id
 _symmetry_equiv_pos_as_xyz
  1  'x, y, z'
loop_
 _atom_site_type_symbol
 _atom_site_label
 _atom_site_symmetry_multiplicity
 _atom_site_fract_x
 _atom_site_fract_y
 _atom_site_fract_z
 _atom_site_occupancy
  Ag  Ag0  1  0.00000000  0.17307100  0.92234000  1
  Ag  Ag1  1  0.50000000  0.32464500  0.07106300  1
  Ag  Ag2  1  0.50000000  0.34865400  0.74783300  1
  Ag  Ag3  1  0.00000000  0.67307100  0.07766000  1
  Ag  Ag4  1  0.00000000  0.66904000  0.41962300  1
  Ag  Ag5  1  0.00000000  0.65709600  0.74897900  1
  Ag  Ag6  1  0.50000000  0.82464500  0.92893700  1
  Ag  Ag7  1  0.50000000  0.81976600  0.57875100  1
  Ag  Ag8  1  0.50000000  0.84865400  0.25216700  1
  Ag  Ag9  1  0.00000000  0.16904000  0.58037700  1
  Ag  Ag10  1  0.00000000  0.15709600  0.25102100  1
  Ag  Ag11  1  0.50000000  0.31976600  0.42124900  1
  C  C0  1  0.00000000  0.00083700  0.08368600  1
  C  C1  1  0.50000000  0.00054900  0.75077500  1
  C  C2  1  0.00000000  0.49848700  0.58240600  1
  C  C3  1  0.50000000  0.50054900  0.24922500  1
  C  C4  1  0.00000000  0.50083700  0.91631400  1
  C  C5  1  0.00000000  0.99848700  0.41759400  1
  O  O0  1  0.50000000  0.61125700  0.19837300  1
  O  O1  1  0.00000000  0.88912000  0.13315100  1
  O  O2  1  0.00000000  0.98151300  0.00205500  1
  O  O3  1  0.50000000  0.11125700  0.80162700  1
  O  O4  1  0.00000000  0.13048700  0.11426400  1
  O  O5  1  0.50000000  0.36885700  0.21663800  1
  O  O6  1  0.00000000  0.38912000  0.86684900  1
  O  O7  1  0.00000000  0.38913200  0.63395900  1
  O  O8  1  0.00000000  0.48151300  0.99794500  1
  O  O9  1  0.00000000  0.47666200  0.50212100  1
  O  O10  1  0.50000000  0.51720300  0.32983600  1
  O  O11  1  0.00000000  0.63065400  0.61199700  1
  O  O12  1  0.00000000  0.63048700  0.88573600  1
  O  O13  1  0.50000000  0.86885700  0.78336200  1
  O  O14  1  0.00000000  0.88913200  0.36604100  1
  O  O15  1  0.00000000  0.97666200  0.49787900  1
  O  O16  1  0.50000000  0.01720300  0.67016400  1
  O  O17  1  0.00000000  0.13065400  0.38800300  1
loop_
_geom_bond_atom_site_label_1
_geom_bond_atom_site_label_2
_geom_bond_distance
_geom_bond_site_symmetry_2
Ag0 O2 2.175448 1_546
Ag0 O6 2.180780 1_555
Ag0 O3 2.641465 1_555
Ag0 O3 2.641465 1_455
Ag1 O5 2.349644 1_555
Ag1 O8 2.533366 1_554
Ag1 O8 2.533366 1_654
Ag1 O4 2.579581 1_555
Ag1 O4 2.579581 1_655
Ag2 O3 2.352421 1_555
Ag2 O7 2.527055 1_655
Ag2 O7 2.527055 1_555
Ag2 O6 2.586210 1_555
Ag2 O6 2.586210 1_655
Ag3 O8 2.175448 1_554
Ag3 O1 2.180780 1_555
Ag3 O0 2.641465 1_555
Ag3 O0 2.641465 1_455
Ag4 O14 2.203057 1_555
Ag4 O9 2.207592 1_555
Ag4 O10 2.640390 1_455
Ag4 O10 2.640390 1_555
Ag5 O12 2.187597 1_555
Ag5 O11 2.190979 1_555
Ag5 O13 2.662765 1_555
Ag5 O13 2.662765 1_455
Ag6 O13 2.349644 1_555
Ag6 O2 2.533366 1_656
Ag6 O2 2.533366 1_556
Ag6 O12 2.579581 1_655
Ag6 O12 2.579581 1_555
Ag7 O16 2.330931 1_565
Ag7 O11 2.509412 1_655
Ag7 O11 2.509412 1_555
Ag7 O15 2.592368 1_655
Ag7 O15 2.592368 1_555
Ag8 O0 2.352421 1_555
Ag8 O14 2.527055 1_555
Ag8 O14 2.527055 1_655
Ag8 O1 2.586210 1_655
Ag8 O1 2.586210 1_555
Ag9 O7 2.203057 1_555
Ag9 O15 2.207592 1_545
Ag9 O16 2.640390 1_555
Ag9 O16 2.640390 1_455
Ag10 O4 2.187597 1_555
Ag10 O17 2.190979 1_555
Ag10 O5 2.662765 1_555
Ag10 O5 2.662765 1_455
Ag11 O10 2.330931 1_555
Ag11 O17 2.509412 1_555
Ag11 O17 2.509412 1_655
Ag11 O9 2.592368 1_555
Ag11 O9 2.592368 1_655
C0 O4 1.291783 1_555
C0 O1 1.296838 1_545
C0 O2 1.309736 1_545
C1 O16 1.290508 1_555
C1 O3 1.303003 1_555
C1 O13 1.321455 1_545
C2 O9 1.291942 1_555
C2 O7 1.300224 1_555
C2 O11 1.307616 1_555
C3 O10 1.290508 1_555
C3 O0 1.303003 1_555
C3 O5 1.321455 1_555
C4 O12 1.291783 1_555
C4 O6 1.296838 1_555
C4 O8 1.309736 1_555
C5 O15 1.291942 1_555
C5 O14 1.300224 1_555
C5 O17 1.307616 1_565
