# generated using pymatgen
data_Sn(WO3)18
_symmetry_space_group_name_H-M   'P 1'
_cell_length_a   7.50824900
_cell_length_b   13.00762600
_cell_length_c   23.17489700
_cell_angle_alpha   90.00000000
_cell_angle_beta   90.00000000
_cell_angle_gamma   90.00000000
_symmetry_Int_Tables_number   1
_chemical_formula_structural   Sn(WO3)18
_chemical_formula_sum   'Sn2 W36 O108'
_cell_volume   2263.36461002
_cell_formula_units_Z   2
loop_
 _symmetry_equiv_pos_site_id
 _symmetry_equiv_pos_as_xyz
  1  'x, y, z'
loop_
 _atom_site_type_symbol
 _atom_site_label
 _atom_site_symmetry_multiplicity
 _atom_site_fract_x
 _atom_site_fract_y
 _atom_site_fract_z
 _atom_site_occupancy
  Sn  Sn0  1  0.00000000  0.00000000  0.91605800  1
  Sn  Sn1  1  0.50000000  0.50000000  0.08394200  1
  W  W0  1  0.75005300  0.75026600  0.25118900  1
  W  W1  1  0.74998500  0.74997200  0.58286400  1
  W  W2  1  0.75001500  0.75002800  0.41713600  1
  W  W3  1  0.74994700  0.74973400  0.74881100  1
  W  W4  1  0.75015100  0.74824900  0.91600800  1
  W  W5  1  0.74984900  0.75175100  0.08399200  1
  W  W6  1  0.00000000  0.50000000  0.25120100  1
  W  W7  1  0.00000000  0.50000000  0.41693600  1
  W  W8  1  0.00000000  0.50000000  0.74876200  1
  W  W9  1  0.00000000  0.50000000  0.58264900  1
  W  W10  1  0.00000000  0.50000000  0.91570300  1
  W  W11  1  0.00000000  0.50000000  0.08370200  1
  W  W12  1  0.24994700  0.75026600  0.25118900  1
  W  W13  1  0.25001500  0.74997200  0.58286400  1
  W  W14  1  0.24998500  0.75002800  0.41713600  1
  W  W15  1  0.24994700  0.24973400  0.25118900  1
  W  W16  1  0.24998500  0.24997200  0.41713600  1
  W  W17  1  0.25005300  0.25026600  0.74881100  1
  W  W18  1  0.25001500  0.25002800  0.58286400  1
  W  W19  1  0.25005300  0.74973400  0.74881100  1
  W  W20  1  0.24984900  0.74824900  0.91600800  1
  W  W21  1  0.25015100  0.24824900  0.08399200  1
  W  W22  1  0.25015100  0.75175100  0.08399200  1
  W  W23  1  0.24984900  0.25175100  0.91600800  1
  W  W24  1  0.50000000  0.00000000  0.25123800  1
  W  W25  1  0.50000000  0.00000000  0.41735100  1
  W  W26  1  0.50000000  0.00000000  0.58306400  1
  W  W27  1  0.50000000  0.00000000  0.74879900  1
  W  W28  1  0.50000000  0.00000000  0.91629800  1
  W  W29  1  0.50000000  0.00000000  0.08429700  1
  W  W30  1  0.75005300  0.24973400  0.25118900  1
  W  W31  1  0.75001500  0.24997200  0.41713600  1
  W  W32  1  0.74998500  0.25002800  0.58286400  1
  W  W33  1  0.74994700  0.25026600  0.74881100  1
  W  W34  1  0.75015100  0.25175100  0.91600800  1
  W  W35  1  0.74984900  0.24824900  0.08399200  1
  O  O0  1  0.24959200  0.75009200  0.33304300  1
  O  O1  1  0.25040800  0.74990800  0.66695700  1
  O  O2  1  0.25000000  0.75000000  0.50000000  1
  O  O3  1  0.25000000  0.75000000  0.00000000  1
  O  O4  1  0.24874100  0.75037300  0.83451500  1
  O  O5  1  0.25125900  0.74962700  0.16548500  1
  O  O6  1  0.32088500  0.89300000  0.24911800  1
  O  O7  1  0.32093100  0.89303500  0.41649000  1
  O  O8  1  0.32086400  0.89307800  0.58356100  1
  O  O9  1  0.32031900  0.89332100  0.75069600  1
  O  O10  1  0.30690900  0.89875200  0.91718900  1
  O  O11  1  0.31928100  0.89255100  0.08276000  1
  O  O12  1  0.50000000  0.71356000  0.24920900  1
  O  O13  1  0.50000000  0.00000000  0.99982900  1
  O  O14  1  0.50000000  0.71394700  0.58348300  1
  O  O15  1  0.50000000  0.00000000  0.16549500  1
  O  O16  1  0.50000000  0.71402400  0.41640100  1
  O  O17  1  0.50000000  0.71968900  0.91731000  1
  O  O18  1  0.50000000  0.71404800  0.75094800  1
  O  O19  1  0.50000000  0.69998700  0.08266300  1
  O  O20  1  0.67911500  0.89300000  0.24911800  1
  O  O21  1  0.67906900  0.89303500  0.41649000  1
  O  O22  1  0.67913600  0.89307800  0.58356100  1
  O  O23  1  0.67968100  0.89332100  0.75069600  1
  O  O24  1  0.69309100  0.89875200  0.91718900  1
  O  O25  1  0.68071900  0.89255100  0.08276000  1
  O  O26  1  0.75040800  0.75009200  0.33304300  1
  O  O27  1  0.74959200  0.74990800  0.66695700  1
  O  O28  1  0.75125900  0.75037300  0.83451500  1
  O  O29  1  0.75000000  0.75000000  0.50000000  1
  O  O30  1  0.75000000  0.75000000  0.00000000  1
  O  O31  1  0.75040800  0.24990800  0.33304300  1
  O  O32  1  0.75000000  0.25000000  0.50000000  1
  O  O33  1  0.74874100  0.74962700  0.16548500  1
  O  O34  1  0.74959200  0.25009200  0.66695700  1
  O  O35  1  0.75125900  0.24962700  0.83451500  1
  O  O36  1  0.75000000  0.25000000  0.00000000  1
  O  O37  1  0.74874100  0.25037300  0.16548500  1
  O  O38  1  0.82031900  0.39332100  0.24930400  1
  O  O39  1  0.82086400  0.39307800  0.41643900  1
  O  O40  1  0.82093100  0.39303500  0.58351000  1
  O  O41  1  0.82031900  0.60667900  0.24930400  1
  O  O42  1  0.81928100  0.39255100  0.91724000  1
  O  O43  1  0.82088500  0.39300000  0.75088200  1
  O  O44  1  0.82086400  0.60692200  0.41643900  1
  O  O45  1  0.81928100  0.60744900  0.91724000  1
  O  O46  1  0.82093100  0.60696500  0.58351000  1
  O  O47  1  0.82088500  0.60700000  0.75088200  1
  O  O48  1  0.80690900  0.39875200  0.08281100  1
  O  O49  1  0.80690900  0.60124800  0.08281100  1
  O  O50  1  0.00000000  0.78605300  0.41651700  1
  O  O51  1  0.00000000  0.78595200  0.24905200  1
  O  O52  1  0.00000000  0.78597600  0.58359900  1
  O  O53  1  0.00000000  0.50000000  0.49985800  1
  O  O54  1  0.00000000  0.78644000  0.75079100  1
  O  O55  1  0.00000000  0.50000000  0.33298900  1
  O  O56  1  0.00000000  0.50000000  0.83450500  1
  O  O57  1  0.00000000  0.80001300  0.91733700  1
  O  O58  1  0.00000000  0.78031100  0.08269000  1
  O  O59  1  0.00000000  0.50000000  0.66697800  1
  O  O60  1  0.00000000  0.50000000  0.00017100  1
  O  O61  1  0.00000000  0.50000000  0.16542200  1
  O  O62  1  0.00000000  0.21404800  0.24905200  1
  O  O63  1  0.00000000  0.21394700  0.41651700  1
  O  O64  1  0.00000000  0.21402400  0.58359900  1
  O  O65  1  0.00000000  0.21356000  0.75079100  1
  O  O66  1  0.00000000  0.19998700  0.91733700  1
  O  O67  1  0.00000000  0.21968900  0.08269000  1
  O  O68  1  0.17968100  0.39332100  0.24930400  1
  O  O69  1  0.17913600  0.39307800  0.41643900  1
  O  O70  1  0.17968100  0.60667900  0.24930400  1
  O  O71  1  0.17906900  0.39303500  0.58351000  1
  O  O72  1  0.17911500  0.39300000  0.75088200  1
  O  O73  1  0.18071900  0.39255100  0.91724000  1
  O  O74  1  0.17906900  0.60696500  0.58351000  1
  O  O75  1  0.18071900  0.60744900  0.91724000  1
  O  O76  1  0.17913600  0.60692200  0.41643900  1
  O  O77  1  0.19309100  0.39875200  0.08281100  1
  O  O78  1  0.17911500  0.60700000  0.75088200  1
  O  O79  1  0.19309100  0.60124800  0.08281100  1
  O  O80  1  0.24959200  0.24990800  0.33304300  1
  O  O81  1  0.25000000  0.25000000  0.50000000  1
  O  O82  1  0.24874100  0.24962700  0.83451500  1
  O  O83  1  0.25040800  0.25009200  0.66695700  1
  O  O84  1  0.25125900  0.25037300  0.16548500  1
  O  O85  1  0.25000000  0.25000000  0.00000000  1
  O  O86  1  0.32088500  0.10700000  0.24911800  1
  O  O87  1  0.32093100  0.10696500  0.41649000  1
  O  O88  1  0.32086400  0.10692200  0.58356100  1
  O  O89  1  0.32031900  0.10667900  0.75069600  1
  O  O90  1  0.30690900  0.10124800  0.91718900  1
  O  O91  1  0.31928100  0.10744900  0.08276000  1
  O  O92  1  0.50000000  0.28644000  0.24920900  1
  O  O93  1  0.50000000  0.28597600  0.41640100  1
  O  O94  1  0.50000000  0.28605300  0.58348300  1
  O  O95  1  0.50000000  0.28595200  0.75094800  1
  O  O96  1  0.50000000  0.00000000  0.33302200  1
  O  O97  1  0.50000000  0.28031100  0.91731000  1
  O  O98  1  0.50000000  0.00000000  0.50014200  1
  O  O99  1  0.50000000  0.00000000  0.66701100  1
  O  O100  1  0.50000000  0.30001300  0.08266300  1
  O  O101  1  0.50000000  0.00000000  0.83457800  1
  O  O102  1  0.67911500  0.10700000  0.24911800  1
  O  O103  1  0.67906900  0.10696500  0.41649000  1
  O  O104  1  0.67913600  0.10692200  0.58356100  1
  O  O105  1  0.67968100  0.10667900  0.75069600  1
  O  O106  1  0.69309100  0.10124800  0.91718900  1
  O  O107  1  0.68071900  0.10744900  0.08276000  1
loop_
_geom_bond_atom_site_label_1
_geom_bond_atom_site_label_2
_geom_bond_distance
_geom_bond_site_symmetry_2
O0 W12 1.896961 1_555
O0 W14 1.948849 1_555
O1 W19 1.896961 1_555
O1 W13 1.948849 1_555
O2 W13 1.920365 1_555
O2 W14 1.920365 1_555
O3 W22 1.946640 1_555
O3 W20 1.946640 1_554
O4 W20 1.888812 1_555
O4 W19 1.986223 1_555
O5 W22 1.888812 1_555
O5 W12 1.986223 1_555
O6 W12 1.932114 1_555
O6 W24 1.936017 1_565
O7 W25 1.934929 1_565
O7 W14 1.935006 1_555
O8 W26 1.934807 1_565
O8 W13 1.936053 1_555
O9 W27 1.935852 1_565
O9 W19 1.941299 1_555
O10 W28 1.958763 1_565
O10 W20 2.004203 1_555
O10 Sn0 2.654278 1_565
O11 W22 1.903817 1_555
O11 W29 1.948293 1_565
O12 W12 1.937764 1_555
O12 W0 1.937764 1_555
O13 W28 1.935822 1_555
O13 W29 1.957537 1_556
O14 W1 1.934614 1_555
O14 W13 1.934614 1_555
O15 W29 1.881755 1_555
O15 W24 1.987085 1_555
O16 W2 1.934788 1_555
O16 W14 1.934788 1_555
O17 W20 1.914821 1_555
O17 W4 1.914821 1_555
O18 W3 1.933855 1_555
O18 W19 1.933855 1_555
O19 W22 1.993345 1_555
O19 W5 1.993345 1_555
O19 Sn1 2.601525 1_555
O20 W0 1.932114 1_555
O20 W24 1.936017 1_565
O21 W25 1.934929 1_565
O21 W2 1.935006 1_555
O22 W26 1.934807 1_565
O22 W1 1.936053 1_555
O23 W27 1.935852 1_565
O23 W3 1.941299 1_555
O24 W28 1.958763 1_565
O24 W4 2.004203 1_555
O24 Sn0 2.654278 1_665
O25 W5 1.903817 1_555
O25 W29 1.948293 1_565
O26 W0 1.896961 1_555
O26 W2 1.948849 1_555
O27 W3 1.896961 1_555
O27 W1 1.948849 1_555
O28 W4 1.888812 1_555
O28 W3 1.986223 1_555
O29 W1 1.920365 1_555
O29 W2 1.920365 1_555
O30 W5 1.946640 1_555
O30 W4 1.946640 1_554
O31 W30 1.896961 1_555
O31 W31 1.948849 1_555
O32 W32 1.920365 1_555
O32 W31 1.920365 1_555
O33 W5 1.888812 1_555
O33 W0 1.986223 1_555
O34 W33 1.896961 1_555
O34 W32 1.948849 1_555
O35 W34 1.888812 1_555
O35 W33 1.986223 1_555
O36 W35 1.946640 1_555
O36 W34 1.946640 1_554
O37 W35 1.888812 1_555
O37 W30 1.986223 1_555
O38 W6 1.935852 1_655
O38 W30 1.941299 1_555
O39 W7 1.934807 1_655
O39 W31 1.936053 1_555
O40 W9 1.934929 1_655
O40 W32 1.935006 1_555
O41 W6 1.935852 1_655
O41 W0 1.941299 1_555
O42 W34 1.903817 1_555
O42 W10 1.948293 1_655
O43 W33 1.932114 1_555
O43 W8 1.936017 1_655
O44 W7 1.934807 1_655
O44 W2 1.936053 1_555
O45 W4 1.903817 1_555
O45 W10 1.948293 1_655
O46 W9 1.934929 1_655
O46 W1 1.935006 1_555
O47 W3 1.932114 1_555
O47 W8 1.936017 1_655
O48 W11 1.958763 1_655
O48 W35 2.004203 1_555
O48 Sn1 2.654278 1_555
O49 W11 1.958763 1_655
O49 W5 2.004203 1_555
O49 Sn1 2.654278 1_555
O50 W14 1.934614 1_555
O50 W2 1.934614 1_455
O51 W12 1.933855 1_555
O51 W0 1.933855 1_455
O52 W13 1.934788 1_555
O52 W1 1.934788 1_455
O53 W9 1.918673 1_555
O53 W7 1.921709 1_555
O54 W19 1.937764 1_555
O54 W3 1.937764 1_455
O55 W6 1.895428 1_555
O55 W7 1.945463 1_555
O56 W10 1.881755 1_555
O56 W8 1.987085 1_555
O57 W20 1.993345 1_555
O57 W4 1.993345 1_455
O57 Sn0 2.601525 1_565
O58 W22 1.914821 1_555
O58 W5 1.914821 1_455
O59 W8 1.895336 1_555
O59 W9 1.954316 1_555
O60 W11 1.935822 1_555
O60 W10 1.957537 1_554
O61 W11 1.893853 1_555
O61 W6 1.987919 1_555
O62 W15 1.933855 1_555
O62 W30 1.933855 1_455
O63 W16 1.934614 1_555
O63 W31 1.934614 1_455
O64 W18 1.934788 1_555
O64 W32 1.934788 1_455
O65 W17 1.937764 1_555
O65 W33 1.937764 1_455
O66 W34 1.993345 1_455
O66 W23 1.993345 1_555
O66 Sn0 2.601525 1_555
O67 W21 1.914821 1_555
O67 W35 1.914821 1_455
O68 W6 1.935852 1_555
O68 W15 1.941299 1_555
O69 W7 1.934807 1_555
O69 W16 1.936053 1_555
O70 W6 1.935852 1_555
O70 W12 1.941299 1_555
O71 W9 1.934929 1_555
O71 W18 1.935006 1_555
O72 W17 1.932114 1_555
O72 W8 1.936017 1_555
O73 W23 1.903817 1_555
O73 W10 1.948293 1_555
O74 W9 1.934929 1_555
O74 W13 1.935006 1_555
O75 W20 1.903817 1_555
O75 W10 1.948293 1_555
O76 W7 1.934807 1_555
O76 W14 1.936053 1_555
O77 W11 1.958763 1_555
O77 W21 2.004203 1_555
O77 Sn1 2.654278 1_555
O78 W19 1.932114 1_555
O78 W8 1.936017 1_555
O79 W11 1.958763 1_555
O79 W22 2.004203 1_555
O79 Sn1 2.654278 1_555
O80 W15 1.896961 1_555
O80 W16 1.948849 1_555
O81 W18 1.920365 1_555
O81 W16 1.920365 1_555
O82 W23 1.888812 1_555
O82 W17 1.986223 1_555
O83 W17 1.896961 1_555
O83 W18 1.948849 1_555
O84 W21 1.888812 1_555
O84 W15 1.986223 1_555
O85 W21 1.946640 1_555
O85 W23 1.946640 1_554
O86 W15 1.932114 1_555
O86 W24 1.936017 1_555
O87 W25 1.934929 1_555
O87 W16 1.935006 1_555
O88 W26 1.934807 1_555
O88 W18 1.936053 1_555
O89 W27 1.935852 1_555
O89 W17 1.941299 1_555
O90 W28 1.958763 1_555
O90 W23 2.004203 1_555
O90 Sn0 2.654278 1_555
O91 W21 1.903817 1_555
O91 W29 1.948293 1_555
O92 W30 1.937764 1_555
O92 W15 1.937764 1_555
O93 W31 1.934788 1_555
O93 W16 1.934788 1_555
O94 W18 1.934614 1_555
O94 W32 1.934614 1_555
O95 W33 1.933855 1_555
O95 W17 1.933855 1_555
O96 W24 1.895336 1_555
O96 W25 1.954316 1_555
O97 W23 1.914821 1_555
O97 W34 1.914821 1_555
O98 W25 1.918673 1_555
O98 W26 1.921709 1_555
O99 W27 1.895428 1_555
O99 W26 1.945463 1_555
O100 W21 1.993345 1_555
O100 W35 1.993345 1_555
O100 Sn1 2.601525 1_555
O101 W28 1.893853 1_555
O101 W27 1.987919 1_555
O102 W30 1.932114 1_555
O102 W24 1.936017 1_555
O103 W25 1.934929 1_555
O103 W31 1.935006 1_555
O104 W26 1.934807 1_555
O104 W32 1.936053 1_555
O105 W27 1.935852 1_555
O105 W33 1.941299 1_555
O106 W28 1.958763 1_555
O106 W34 2.004203 1_555
O106 Sn0 2.654278 1_655
O107 W35 1.903817 1_555
O107 W29 1.948293 1_555
