# generated using pymatgen
data_Ba4Si23
_symmetry_space_group_name_H-M   'P 1'
_cell_length_a   10.40428700
_cell_length_b   10.40428700
_cell_length_c   10.40428700
_cell_angle_alpha   90.00000000
_cell_angle_beta   90.00000000
_cell_angle_gamma   90.00000000
_symmetry_Int_Tables_number   1
_chemical_formula_structural   Ba4Si23
_chemical_formula_sum   'Ba8 Si46'
_cell_volume   1126.25561924
_cell_formula_units_Z   2
loop_
 _symmetry_equiv_pos_site_id
 _symmetry_equiv_pos_as_xyz
  1  'x, y, z'
loop_
 _atom_site_type_symbol
 _atom_site_label
 _atom_site_symmetry_multiplicity
 _atom_site_fract_x
 _atom_site_fract_y
 _atom_site_fract_z
 _atom_site_occupancy
  Ba  Ba0  1  0.00000000  0.00000000  0.00000000  1
  Ba  Ba1  1  0.25000000  0.50000000  0.00000000  1
  Ba  Ba2  1  0.00000000  0.25000000  0.50000000  1
  Ba  Ba3  1  0.50000000  0.00000000  0.75000000  1
  Ba  Ba4  1  0.50000000  0.00000000  0.25000000  1
  Ba  Ba5  1  0.75000000  0.50000000  0.00000000  1
  Ba  Ba6  1  0.50000000  0.50000000  0.50000000  1
  Ba  Ba7  1  0.00000000  0.75000000  0.50000000  1
  Si  Si0  1  0.18506100  0.81493900  0.18506100  1
  Si  Si1  1  0.81493900  0.18506100  0.18506100  1
  Si  Si2  1  0.19356700  0.50000000  0.62072700  1
  Si  Si3  1  0.50000000  0.37927300  0.80643300  1
  Si  Si4  1  0.37927300  0.19356700  0.50000000  1
  Si  Si5  1  0.68506100  0.31493900  0.31493900  1
  Si  Si6  1  0.00000000  0.69356700  0.87927300  1
  Si  Si7  1  0.80643300  0.50000000  0.62072700  1
  Si  Si8  1  0.18506100  0.18506100  0.81493900  1
  Si  Si9  1  0.69356700  0.87927300  0.00000000  1
  Si  Si10  1  0.80643300  0.50000000  0.37927300  1
  Si  Si11  1  0.00000000  0.30643300  0.12072700  1
  Si  Si12  1  0.00000000  0.50000000  0.25000000  1
  Si  Si13  1  0.69356700  0.12072700  0.00000000  1
  Si  Si14  1  0.68506100  0.68506100  0.31493900  1
  Si  Si15  1  0.50000000  0.62072700  0.19356700  1
  Si  Si16  1  0.30643300  0.87927300  0.00000000  1
  Si  Si17  1  0.12072700  0.00000000  0.30643300  1
  Si  Si18  1  0.30643300  0.12072700  0.00000000  1
  Si  Si19  1  0.81493900  0.81493900  0.81493900  1
  Si  Si20  1  0.31493900  0.68506100  0.31493900  1
  Si  Si21  1  0.18506100  0.81493900  0.81493900  1
  Si  Si22  1  0.68506100  0.31493900  0.68506100  1
  Si  Si23  1  0.31493900  0.31493900  0.31493900  1
  Si  Si24  1  0.50000000  0.62072700  0.80643300  1
  Si  Si25  1  0.87927300  0.00000000  0.30643300  1
  Si  Si26  1  0.00000000  0.69356700  0.12072700  1
  Si  Si27  1  0.81493900  0.81493900  0.18506100  1
  Si  Si28  1  0.87927300  0.00000000  0.69356700  1
  Si  Si29  1  0.50000000  0.75000000  0.00000000  1
  Si  Si30  1  0.68506100  0.68506100  0.68506100  1
  Si  Si31  1  0.31493900  0.31493900  0.68506100  1
  Si  Si32  1  0.62072700  0.19356700  0.50000000  1
  Si  Si33  1  0.25000000  0.00000000  0.50000000  1
  Si  Si34  1  0.62072700  0.80643300  0.50000000  1
  Si  Si35  1  0.37927300  0.80643300  0.50000000  1
  Si  Si36  1  0.19356700  0.50000000  0.37927300  1
  Si  Si37  1  0.81493900  0.18506100  0.81493900  1
  Si  Si38  1  0.00000000  0.30643300  0.87927300  1
  Si  Si39  1  0.12072700  0.00000000  0.69356700  1
  Si  Si40  1  0.00000000  0.50000000  0.75000000  1
  Si  Si41  1  0.31493900  0.68506100  0.68506100  1
  Si  Si42  1  0.50000000  0.37927300  0.19356700  1
  Si  Si43  1  0.75000000  0.00000000  0.50000000  1
  Si  Si44  1  0.50000000  0.25000000  0.00000000  1
  Si  Si45  1  0.18506100  0.18506100  0.18506100  1
loop_
_geom_bond_atom_site_label_1
_geom_bond_atom_site_label_2
_geom_bond_distance
_geom_bond_site_symmetry_2
Ba0 Si0 3.334939 1_545
Ba0 Si8 3.334939 1_554
Ba0 Si45 3.334939 1_555
Ba0 Si1 3.334939 1_455
Ba0 Si37 3.334939 1_454
Ba0 Si21 3.334939 1_544
Ba0 Si19 3.334939 1_444
Ba0 Si27 3.334939 1_445
Ba0 Si11 3.426727 1_555
Ba0 Si25 3.426727 1_455
Ba0 Si17 3.426727 1_555
Ba0 Si38 3.426727 1_554
Ba0 Si18 3.426727 1_555
Ba0 Si16 3.426727 1_545
Ba0 Si39 3.426727 1_554
Ba0 Si6 3.426727 1_544
Ba0 Si28 3.426727 1_454
Ba0 Si13 3.426727 1_455
Ba0 Si26 3.426727 1_545
Ba0 Si9 3.426727 1_445
Ba1 Si26 3.521251 1_555
Ba1 Si6 3.521251 1_554
Ba1 Si15 3.521251 1_555
Ba1 Si24 3.521251 1_554
Ba1 Si11 3.521251 1_555
Ba1 Si38 3.521251 1_554
Ba1 Si42 3.521251 1_555
Ba1 Si3 3.521251 1_554
Ba1 Si29 3.678471 1_555
Ba1 Si44 3.678471 1_555
Ba1 Si12 3.678471 1_555
Ba1 Si40 3.678471 1_554
Ba1 Si20 3.860134 1_555
Ba1 Si23 3.860134 1_555
Ba1 Si45 3.860134 1_555
Ba1 Si0 3.860134 1_555
Ba1 Si21 3.860134 1_554
Ba1 Si8 3.860134 1_554
Ba1 Si41 3.860134 1_554
Ba1 Si31 3.860134 1_554
Ba2 Si39 3.521251 1_555
Ba2 Si28 3.521251 1_455
Ba2 Si2 3.521251 1_555
Ba2 Si7 3.521251 1_455
Ba2 Si25 3.521251 1_455
Ba2 Si17 3.521251 1_555
Ba2 Si36 3.521251 1_555
Ba2 Si10 3.521251 1_455
Ba2 Si33 3.678471 1_555
Ba2 Si40 3.678471 1_555
Ba2 Si12 3.678471 1_555
Ba2 Si43 3.678471 1_455
Ba2 Si31 3.860134 1_555
Ba2 Si23 3.860134 1_555
Ba2 Si8 3.860134 1_555
Ba2 Si45 3.860134 1_555
Ba2 Si37 3.860134 1_455
Ba2 Si1 3.860134 1_455
Ba2 Si22 3.860134 1_455
Ba2 Si5 3.860134 1_455
Ba3 Si13 3.521251 1_556
Ba3 Si9 3.521251 1_546
Ba3 Si34 3.521251 1_545
Ba3 Si32 3.521251 1_555
Ba3 Si18 3.521251 1_556
Ba3 Si16 3.521251 1_546
Ba3 Si4 3.521251 1_555
Ba3 Si35 3.521251 1_545
Ba3 Si43 3.678471 1_555
Ba3 Si33 3.678471 1_555
Ba3 Si29 3.678471 1_546
Ba3 Si44 3.678471 1_556
Ba3 Si22 3.860134 1_555
Ba3 Si31 3.860134 1_555
Ba3 Si37 3.860134 1_555
Ba3 Si8 3.860134 1_555
Ba3 Si19 3.860134 1_545
Ba3 Si21 3.860134 1_545
Ba3 Si30 3.860134 1_545
Ba3 Si41 3.860134 1_545
Ba4 Si13 3.521251 1_555
Ba4 Si9 3.521251 1_545
Ba4 Si34 3.521251 1_545
Ba4 Si32 3.521251 1_555
Ba4 Si18 3.521251 1_555
Ba4 Si16 3.521251 1_545
Ba4 Si4 3.521251 1_555
Ba4 Si35 3.521251 1_545
Ba4 Si43 3.678471 1_555
Ba4 Si33 3.678471 1_555
Ba4 Si29 3.678471 1_545
Ba4 Si44 3.678471 1_555
Ba4 Si5 3.860134 1_555
Ba4 Si23 3.860134 1_555
Ba4 Si45 3.860134 1_555
Ba4 Si1 3.860134 1_555
Ba4 Si0 3.860134 1_545
Ba4 Si27 3.860134 1_545
Ba4 Si14 3.860134 1_545
Ba4 Si20 3.860134 1_545
Ba5 Si26 3.521251 1_655
Ba5 Si6 3.521251 1_654
Ba5 Si15 3.521251 1_555
Ba5 Si24 3.521251 1_554
Ba5 Si11 3.521251 1_655
Ba5 Si38 3.521251 1_654
Ba5 Si42 3.521251 1_555
Ba5 Si3 3.521251 1_554
Ba5 Si40 3.678471 1_654
Ba5 Si29 3.678471 1_555
Ba5 Si44 3.678471 1_555
Ba5 Si12 3.678471 1_655
Ba5 Si14 3.860134 1_555
Ba5 Si5 3.860134 1_555
Ba5 Si27 3.860134 1_555
Ba5 Si37 3.860134 1_554
Ba5 Si19 3.860134 1_554
Ba5 Si1 3.860134 1_555
Ba5 Si30 3.860134 1_554
Ba5 Si22 3.860134 1_554
Ba6 Si30 3.334939 1_555
Ba6 Si41 3.334939 1_555
Ba6 Si14 3.334939 1_555
Ba6 Si22 3.334939 1_555
Ba6 Si31 3.334939 1_555
Ba6 Si5 3.334939 1_555
Ba6 Si20 3.334939 1_555
Ba6 Si23 3.334939 1_555
Ba6 Si34 3.426727 1_555
Ba6 Si24 3.426727 1_555
Ba6 Si7 3.426727 1_555
Ba6 Si32 3.426727 1_555
Ba6 Si15 3.426727 1_555
Ba6 Si2 3.426727 1_555
Ba6 Si3 3.426727 1_555
Ba6 Si10 3.426727 1_555
Ba6 Si35 3.426727 1_555
Ba6 Si36 3.426727 1_555
Ba6 Si42 3.426727 1_555
Ba6 Si4 3.426727 1_555
Ba7 Si28 3.521251 1_465
Ba7 Si39 3.521251 1_565
Ba7 Si2 3.521251 1_555
Ba7 Si7 3.521251 1_455
Ba7 Si17 3.521251 1_565
Ba7 Si25 3.521251 1_465
Ba7 Si36 3.521251 1_555
Ba7 Si10 3.521251 1_455
Ba7 Si43 3.678471 1_465
Ba7 Si33 3.678471 1_565
Ba7 Si40 3.678471 1_555
Ba7 Si12 3.678471 1_555
Ba7 Si41 3.860134 1_555
Ba7 Si20 3.860134 1_555
Ba7 Si21 3.860134 1_555
Ba7 Si27 3.860134 1_455
Ba7 Si19 3.860134 1_455
Ba7 Si0 3.860134 1_555
Ba7 Si30 3.860134 1_455
Ba7 Si14 3.860134 1_455
Si0 Si20 2.340499 1_555
Si0 Si16 2.397903 1_555
Si0 Si17 2.397903 1_565
Si0 Si26 2.397903 1_555
Si1 Si5 2.340499 1_555
Si1 Si25 2.397903 1_555
Si1 Si11 2.397903 1_655
Si1 Si13 2.397903 1_555
Si2 Si41 2.397903 1_555
Si2 Si31 2.397903 1_555
Si2 Si40 2.421757 1_555
Si2 Si36 2.512157 1_555
Si3 Si31 2.397903 1_555
Si3 Si44 2.421757 1_556
Si10 Si14 2.397903 1_555
Si10 Si5 2.397903 1_555
Si10 Si12 2.421757 1_655
Si10 Si7 2.512157 1_555
Si11 Si45 2.397903 1_555
Si11 Si12 2.421757 1_555
Si11 Si38 2.512157 1_554
Si12 Si26 2.421757 1_555
Si12 Si36 2.421757 1_555
Si13 Si37 2.397903 1_554
Si13 Si44 2.421757 1_555
Si13 Si9 2.512157 1_545
Si14 Si27 2.340499 1_555
Si14 Si15 2.397903 1_555
Si14 Si34 2.397903 1_555
Si15 Si20 2.397903 1_555
Si15 Si29 2.421757 1_555
Si15 Si42 2.512157 1_555
Si16 Si21 2.397903 1_554
Si16 Si29 2.421757 1_555
Si16 Si18 2.512157 1_565
Si17 Si45 2.397903 1_555
Si17 Si33 2.421757 1_555
Si17 Si25 2.512157 1_455
Si18 Si45 2.397903 1_555
Si18 Si8 2.397903 1_554
Si18 Si44 2.421757 1_555
Si19 Si30 2.340499 1_555
Si19 Si9 2.397903 1_556
Si19 Si6 2.397903 1_655
Si19 Si28 2.397903 1_565
Si20 Si36 2.397903 1_555
Si20 Si35 2.397903 1_555
Si21 Si41 2.340499 1_555
Si21 Si6 2.397903 1_555
Si21 Si39 2.397903 1_565
Si22 Si37 2.340499 1_555
Si22 Si32 2.397903 1_555
Si22 Si3 2.397903 1_555
Si22 Si7 2.397903 1_555
Si23 Si45 2.340499 1_555
Si23 Si4 2.397903 1_555
Si23 Si42 2.397903 1_555
Si23 Si36 2.397903 1_555
Si24 Si30 2.397903 1_555
Si24 Si41 2.397903 1_555
Si24 Si29 2.421757 1_556
Si24 Si3 2.512157 1_555
Si25 Si27 2.397903 1_545
Si25 Si43 2.421757 1_555
Si26 Si27 2.397903 1_455
Si26 Si6 2.512157 1_554
Si27 Si9 2.397903 1_555
Si28 Si37 2.397903 1_555
Si28 Si43 2.421757 1_555
Si28 Si39 2.512157 1_655
Si29 Si9 2.421757 1_555
Si30 Si7 2.397903 1_555
Si30 Si34 2.397903 1_555
Si31 Si8 2.340499 1_555
Si31 Si4 2.397903 1_555
Si32 Si5 2.397903 1_555
Si32 Si43 2.421757 1_555
Si32 Si4 2.512157 1_555
Si33 Si39 2.421757 1_555
Si33 Si4 2.421757 1_555
Si33 Si35 2.421757 1_545
Si34 Si43 2.421757 1_565
Si34 Si35 2.512157 1_555
Si35 Si41 2.397903 1_555
Si37 Si38 2.397903 1_655
Si38 Si8 2.397903 1_555
Si38 Si40 2.421757 1_555
Si39 Si8 2.397903 1_555
Si40 Si6 2.421757 1_555
Si40 Si7 2.421757 1_455
Si42 Si5 2.397903 1_555
Si42 Si44 2.421757 1_555
