# generated using pymatgen
data_TaTe4
_symmetry_space_group_name_H-M   'P 1'
_cell_length_a   13.26865300
_cell_length_b   13.26865300
_cell_length_c   20.91790400
_cell_angle_alpha   90.00000000
_cell_angle_beta   90.00000000
_cell_angle_gamma   90.00000000
_symmetry_Int_Tables_number   1
_chemical_formula_structural   TaTe4
_chemical_formula_sum   'Ta24 Te96'
_cell_volume   3682.74661314
_cell_formula_units_Z   24
loop_
 _symmetry_equiv_pos_site_id
 _symmetry_equiv_pos_as_xyz
  1  'x, y, z'
loop_
 _atom_site_type_symbol
 _atom_site_label
 _atom_site_symmetry_multiplicity
 _atom_site_fract_x
 _atom_site_fract_y
 _atom_site_fract_z
 _atom_site_occupancy
  Ta  Ta0  1  0.00000000  0.00000000  0.40294600  1
  Ta  Ta1  1  0.50000000  0.00000000  0.91816300  1
  Ta  Ta2  1  0.00000000  0.00000000  0.90294600  1
  Ta  Ta3  1  0.50000000  0.50000000  0.90294600  1
  Ta  Ta4  1  0.50000000  0.50000000  0.09705400  1
  Ta  Ta5  1  0.50000000  0.00000000  0.76463300  1
  Ta  Ta6  1  0.00000000  0.50000000  0.73536700  1
  Ta  Ta7  1  0.00000000  0.50000000  0.08183700  1
  Ta  Ta8  1  0.00000000  0.00000000  0.59705400  1
  Ta  Ta9  1  0.00000000  0.50000000  0.43034900  1
  Ta  Ta10  1  0.00000000  0.50000000  0.58183700  1
  Ta  Ta11  1  0.50000000  0.00000000  0.41816300  1
  Ta  Ta12  1  0.50000000  0.00000000  0.06965100  1
  Ta  Ta13  1  0.00000000  0.50000000  0.93034900  1
  Ta  Ta14  1  0.00000000  0.00000000  0.25000000  1
  Ta  Ta15  1  0.00000000  0.00000000  0.75000000  1
  Ta  Ta16  1  0.50000000  0.50000000  0.40294600  1
  Ta  Ta17  1  0.50000000  0.00000000  0.26463300  1
  Ta  Ta18  1  0.50000000  0.50000000  0.59705400  1
  Ta  Ta19  1  0.50000000  0.50000000  0.25000000  1
  Ta  Ta20  1  0.00000000  0.50000000  0.23536700  1
  Ta  Ta21  1  0.00000000  0.00000000  0.09705400  1
  Ta  Ta22  1  0.50000000  0.50000000  0.75000000  1
  Ta  Ta23  1  0.50000000  0.00000000  0.56965100  1
  Te  Te0  1  0.07845600  0.33742100  0.50208400  1
  Te  Te1  1  0.56864500  0.83394300  0.83693100  1
  Te  Te2  1  0.57761200  0.33727300  0.83107300  1
  Te  Te3  1  0.05888600  0.15456500  0.00062100  1
  Te  Te4  1  0.07845600  0.66257900  0.00208400  1
  Te  Te5  1  0.93135500  0.33394300  0.66306900  1
  Te  Te6  1  0.33727300  0.57761200  0.66892700  1
  Te  Te7  1  0.07285200  0.83608600  0.83026400  1
  Te  Te8  1  0.66391400  0.42714800  0.33026400  1
  Te  Te9  1  0.56283500  0.84776300  0.16748700  1
  Te  Te10  1  0.16391400  0.92714800  0.66973600  1
  Te  Te11  1  0.66605700  0.06864500  0.83693100  1
  Te  Te12  1  0.65223700  0.06283500  0.16748700  1
  Te  Te13  1  0.42238800  0.33727300  0.33107300  1
  Te  Te14  1  0.33394300  0.93135500  0.83693100  1
  Te  Te15  1  0.42154400  0.83742100  0.99791600  1
  Te  Te16  1  0.15223700  0.56283500  0.83251300  1
  Te  Te17  1  0.33608600  0.57285200  0.33026400  1
  Te  Te18  1  0.05888600  0.84543500  0.50062100  1
  Te  Te19  1  0.44111400  0.34543500  0.99937900  1
  Te  Te20  1  0.93716500  0.34776300  0.33251300  1
  Te  Te21  1  0.15456500  0.94111400  0.99937900  1
  Te  Te22  1  0.16272700  0.07761200  0.83107300  1
  Te  Te23  1  0.65456500  0.55888600  0.50062100  1
  Te  Te24  1  0.33742100  0.92154400  0.49791600  1
  Te  Te25  1  0.83727300  0.92238800  0.83107300  1
  Te  Te26  1  0.34543500  0.55888600  0.00062100  1
  Te  Te27  1  0.57761200  0.66272700  0.33107300  1
  Te  Te28  1  0.83742100  0.42154400  0.50208400  1
  Te  Te29  1  0.42714800  0.66391400  0.16973600  1
  Te  Te30  1  0.34543500  0.44111400  0.50062100  1
  Te  Te31  1  0.92714800  0.83608600  0.33026400  1
  Te  Te32  1  0.83742100  0.57845600  0.00208400  1
  Te  Te33  1  0.06864500  0.66605700  0.66306900  1
  Te  Te34  1  0.16605700  0.43135500  0.66306900  1
  Te  Te35  1  0.16391400  0.07285200  0.16973600  1
  Te  Te36  1  0.44111400  0.65456500  0.49937900  1
  Te  Te37  1  0.84543500  0.05888600  0.99937900  1
  Te  Te38  1  0.66272700  0.57761200  0.16892700  1
  Te  Te39  1  0.66391400  0.57285200  0.83026400  1
  Te  Te40  1  0.55888600  0.34543500  0.49937900  1
  Te  Te41  1  0.33608600  0.42714800  0.83026400  1
  Te  Te42  1  0.83608600  0.92714800  0.16973600  1
  Te  Te43  1  0.06864500  0.33394300  0.16306900  1
  Te  Te44  1  0.66257900  0.92154400  0.99791600  1
  Te  Te45  1  0.65456500  0.44111400  0.00062100  1
  Te  Te46  1  0.06283500  0.34776300  0.83251300  1
  Te  Te47  1  0.34776300  0.06283500  0.66748700  1
  Te  Te48  1  0.94111400  0.15456500  0.50062100  1
  Te  Te49  1  0.16272700  0.92238800  0.33107300  1
  Te  Te50  1  0.55888600  0.65456500  0.99937900  1
  Te  Te51  1  0.83394300  0.43135500  0.16306900  1
  Te  Te52  1  0.93716500  0.65223700  0.83251300  1
  Te  Te53  1  0.16257900  0.42154400  0.00208400  1
  Te  Te54  1  0.83394300  0.56864500  0.66306900  1
  Te  Te55  1  0.33727300  0.42238800  0.16892700  1
  Te  Te56  1  0.16257900  0.57845600  0.50208400  1
  Te  Te57  1  0.43716500  0.84776300  0.66748700  1
  Te  Te58  1  0.92238800  0.83727300  0.66892700  1
  Te  Te59  1  0.84776300  0.43716500  0.83251300  1
  Te  Te60  1  0.66605700  0.93135500  0.33693100  1
  Te  Te61  1  0.43716500  0.15223700  0.16748700  1
  Te  Te62  1  0.66272700  0.42238800  0.66892700  1
  Te  Te63  1  0.92714800  0.16391400  0.83026400  1
  Te  Te64  1  0.42714800  0.33608600  0.66973600  1
  Te  Te65  1  0.34776300  0.93716500  0.16748700  1
  Te  Te66  1  0.56864500  0.16605700  0.33693100  1
  Te  Te67  1  0.33394300  0.06864500  0.33693100  1
  Te  Te68  1  0.65223700  0.93716500  0.66748700  1
  Te  Te69  1  0.42238800  0.66272700  0.83107300  1
  Te  Te70  1  0.57285200  0.33608600  0.16973600  1
  Te  Te71  1  0.83727300  0.07761200  0.33107300  1
  Te  Te72  1  0.06283500  0.65223700  0.33251300  1
  Te  Te73  1  0.66257900  0.07845600  0.49791600  1
  Te  Te74  1  0.94111400  0.84543500  0.00062100  1
  Te  Te75  1  0.93135500  0.66605700  0.16306900  1
  Te  Te76  1  0.84776300  0.56283500  0.33251300  1
  Te  Te77  1  0.42154400  0.16257900  0.49791600  1
  Te  Te78  1  0.57845600  0.83742100  0.49791600  1
  Te  Te79  1  0.07761200  0.16272700  0.66892700  1
  Te  Te80  1  0.16605700  0.56864500  0.16306900  1
  Te  Te81  1  0.43135500  0.16605700  0.83693100  1
  Te  Te82  1  0.56283500  0.15223700  0.66748700  1
  Te  Te83  1  0.57285200  0.66391400  0.66973600  1
  Te  Te84  1  0.33742100  0.07845600  0.99791600  1
  Te  Te85  1  0.84543500  0.94111400  0.49937900  1
  Te  Te86  1  0.92154400  0.33742100  0.00208400  1
  Te  Te87  1  0.92154400  0.66257900  0.50208400  1
  Te  Te88  1  0.57845600  0.16257900  0.99791600  1
  Te  Te89  1  0.15223700  0.43716500  0.33251300  1
  Te  Te90  1  0.07285200  0.16391400  0.33026400  1
  Te  Te91  1  0.43135500  0.83394300  0.33693100  1
  Te  Te92  1  0.07761200  0.83727300  0.16892700  1
  Te  Te93  1  0.92238800  0.16272700  0.16892700  1
  Te  Te94  1  0.15456500  0.05888600  0.49937900  1
  Te  Te95  1  0.83608600  0.07285200  0.66973600  1
loop_
_geom_bond_atom_site_label_1
_geom_bond_atom_site_label_2
_geom_bond_distance
_geom_bond_site_symmetry_2
Ta0 Te90 2.824209 1_555
Ta0 Te31 2.824209 1_445
Ta0 Te49 2.825388 1_545
Ta0 Te71 2.825388 1_455
Ta0 Te94 2.980865 1_555
Ta0 Te85 2.980865 1_445
Ta0 Te48 2.998507 1_455
Ta0 Te18 2.998507 1_545
Ta1 Te44 2.918961 1_545
Ta1 Te88 2.918961 1_555
Ta1 Te15 2.918961 1_545
Ta1 Te84 2.918961 1_555
Ta1 Te81 2.927740 1_555
Ta1 Te1 2.927740 1_545
Ta1 Te11 2.927740 1_555
Ta1 Te14 2.927740 1_545
Ta2 Te7 2.824209 1_545
Ta2 Te63 2.824209 1_455
Ta2 Te22 2.825388 1_555
Ta2 Te25 2.825388 1_445
Ta2 Te21 2.980865 1_545
Ta2 Te37 2.980865 1_455
Ta2 Te3 2.998507 1_556
Ta2 Te74 2.998507 1_446
Ta3 Te39 2.824209 1_555
Ta3 Te41 2.824209 1_555
Ta3 Te69 2.825388 1_555
Ta3 Te2 2.825388 1_555
Ta3 Te50 2.980865 1_555
Ta3 Te19 2.980865 1_555
Ta3 Te45 2.998507 1_556
Ta3 Te26 2.998507 1_556
Ta4 Te70 2.824209 1_555
Ta4 Te29 2.824209 1_555
Ta4 Te38 2.825388 1_555
Ta4 Te55 2.825388 1_555
Ta4 Te45 2.980865 1_555
Ta4 Te26 2.980865 1_555
Ta4 Te50 2.998507 1_554
Ta4 Te19 2.998507 1_554
Ta5 Te81 2.823382 1_555
Ta5 Te1 2.823382 1_545
Ta5 Te11 2.823382 1_555
Ta5 Te14 2.823382 1_545
Ta5 Te82 2.984096 1_555
Ta5 Te47 2.984096 1_555
Ta5 Te68 2.984096 1_545
Ta5 Te57 2.984096 1_545
Ta6 Te34 2.823382 1_555
Ta6 Te54 2.823382 1_455
Ta6 Te33 2.823382 1_555
Ta6 Te5 2.823382 1_455
Ta6 Te16 2.984096 1_555
Ta6 Te46 2.984096 1_555
Ta6 Te52 2.984096 1_455
Ta6 Te59 2.984096 1_455
Ta7 Te4 2.918961 1_555
Ta7 Te53 2.918961 1_555
Ta7 Te32 2.918961 1_455
Ta7 Te86 2.918961 1_455
Ta7 Te80 2.927740 1_555
Ta7 Te51 2.927740 1_455
Ta7 Te43 2.927740 1_555
Ta7 Te75 2.927740 1_455
Ta8 Te10 2.824209 1_545
Ta8 Te95 2.824209 1_455
Ta8 Te79 2.825388 1_555
Ta8 Te58 2.825388 1_445
Ta8 Te48 2.980865 1_455
Ta8 Te18 2.980865 1_545
Ta8 Te94 2.998507 1_555
Ta8 Te85 2.998507 1_445
Ta9 Te87 2.826457 1_455
Ta9 Te56 2.826457 1_555
Ta9 Te28 2.826457 1_455
Ta9 Te0 2.826457 1_555
Ta9 Te89 2.993943 1_555
Ta9 Te72 2.993943 1_555
Ta9 Te20 2.993943 1_455
Ta9 Te76 2.993943 1_455
Ta10 Te87 2.918961 1_455
Ta10 Te56 2.918961 1_555
Ta10 Te28 2.918961 1_455
Ta10 Te0 2.918961 1_555
Ta10 Te34 2.927740 1_555
Ta10 Te54 2.927740 1_455
Ta10 Te33 2.927740 1_555
Ta10 Te5 2.927740 1_455
Ta11 Te73 2.918961 1_555
Ta11 Te77 2.918961 1_555
Ta11 Te78 2.918961 1_545
Ta11 Te24 2.918961 1_545
Ta11 Te66 2.927740 1_555
Ta11 Te91 2.927740 1_545
Ta11 Te67 2.927740 1_555
Ta11 Te60 2.927740 1_545
Ta12 Te44 2.826457 1_544
Ta12 Te88 2.826457 1_554
Ta12 Te15 2.826457 1_544
Ta12 Te84 2.826457 1_554
Ta12 Te61 2.993943 1_555
Ta12 Te12 2.993943 1_555
Ta12 Te65 2.993943 1_545
Ta12 Te9 2.993943 1_545
Ta13 Te4 2.826457 1_556
Ta13 Te32 2.826457 1_456
Ta13 Te53 2.826457 1_556
Ta13 Te86 2.826457 1_456
Ta13 Te16 2.993943 1_555
Ta13 Te46 2.993943 1_555
Ta13 Te52 2.993943 1_455
Ta13 Te59 2.993943 1_455
Ta14 Te90 2.912656 1_555
Ta14 Te35 2.912656 1_555
Ta14 Te42 2.912656 1_445
Ta14 Te31 2.912656 1_445
Ta14 Te49 2.932321 1_545
Ta14 Te93 2.932321 1_455
Ta14 Te92 2.932321 1_545
Ta14 Te71 2.932321 1_455
Ta15 Te7 2.912656 1_545
Ta15 Te95 2.912656 1_455
Ta15 Te63 2.912656 1_455
Ta15 Te10 2.912656 1_545
Ta15 Te22 2.932321 1_555
Ta15 Te79 2.932321 1_555
Ta15 Te25 2.932321 1_445
Ta15 Te58 2.932321 1_445
Ta16 Te17 2.824209 1_555
Ta16 Te8 2.824209 1_555
Ta16 Te27 2.825388 1_555
Ta16 Te13 2.825388 1_555
Ta16 Te36 2.980865 1_555
Ta16 Te40 2.980865 1_555
Ta16 Te23 2.998507 1_555
Ta16 Te30 2.998507 1_555
Ta17 Te66 2.823382 1_555
Ta17 Te67 2.823382 1_555
Ta17 Te91 2.823382 1_545
Ta17 Te60 2.823382 1_545
Ta17 Te61 2.984096 1_555
Ta17 Te12 2.984096 1_555
Ta17 Te65 2.984096 1_545
Ta17 Te9 2.984096 1_545
Ta18 Te83 2.824209 1_555
Ta18 Te64 2.824209 1_555
Ta18 Te62 2.825388 1_555
Ta18 Te6 2.825388 1_555
Ta18 Te23 2.980865 1_555
Ta18 Te30 2.980865 1_555
Ta18 Te36 2.998507 1_555
Ta18 Te40 2.998507 1_555
Ta19 Te17 2.912656 1_555
Ta19 Te70 2.912656 1_555
Ta19 Te8 2.912656 1_555
Ta19 Te29 2.912656 1_555
Ta19 Te38 2.932321 1_555
Ta19 Te27 2.932321 1_555
Ta19 Te13 2.932321 1_555
Ta19 Te55 2.932321 1_555
Ta20 Te80 2.823382 1_555
Ta20 Te43 2.823382 1_555
Ta20 Te51 2.823382 1_455
Ta20 Te75 2.823382 1_455
Ta20 Te89 2.984096 1_555
Ta20 Te72 2.984096 1_555
Ta20 Te20 2.984096 1_455
Ta20 Te76 2.984096 1_455
Ta21 Te42 2.824209 1_445
Ta21 Te35 2.824209 1_555
Ta21 Te93 2.825388 1_455
Ta21 Te92 2.825388 1_545
Ta21 Te3 2.980865 1_555
Ta21 Te74 2.980865 1_445
Ta21 Te21 2.998507 1_544
Ta21 Te37 2.998507 1_454
Ta22 Te83 2.912656 1_555
Ta22 Te39 2.912656 1_555
Ta22 Te64 2.912656 1_555
Ta22 Te41 2.912656 1_555
Ta22 Te69 2.932321 1_555
Ta22 Te2 2.932321 1_555
Ta22 Te62 2.932321 1_555
Ta22 Te6 2.932321 1_555
Ta23 Te73 2.826457 1_555
Ta23 Te78 2.826457 1_545
Ta23 Te77 2.826457 1_555
Ta23 Te24 2.826457 1_545
Ta23 Te82 2.993943 1_555
Ta23 Te47 2.993943 1_555
Ta23 Te68 2.993943 1_545
Ta23 Te57 2.993943 1_545
Te0 Te48 3.034563 1_455
Te3 Te86 3.034563 1_455
Te3 Te37 3.103834 1_454
Te4 Te74 3.034563 1_455
Te10 Te47 3.032228 1_565
Te12 Te42 3.032228 1_545
Te12 Te61 3.090448 1_555
Te12 Te9 3.090448 1_545
Te15 Te50 3.034563 1_555
Te16 Te41 3.032228 1_555
Te16 Te46 3.090448 1_555
Te16 Te52 3.090448 1_455
Te17 Te89 3.032228 1_555
Te18 Te87 3.034563 1_455
Te18 Te94 3.103834 1_565
Te18 Te85 3.103834 1_455
Te19 Te88 3.034563 1_555
Te19 Te45 3.103834 1_556
Te19 Te26 3.103834 1_556
Te20 Te90 3.032228 1_655
Te20 Te89 3.090448 1_655
Te20 Te76 3.090448 1_555
Te21 Te84 3.034563 1_565
Te21 Te3 3.103834 1_566
Te21 Te74 3.103834 1_456
Te23 Te28 3.034563 1_555
Te23 Te36 3.103834 1_555
Te23 Te40 3.103834 1_555
Te24 Te94 3.034563 1_565
Te26 Te53 3.034563 1_555
Te26 Te50 3.103834 1_554
Te29 Te9 3.032228 1_555
Te30 Te56 3.034563 1_555
Te30 Te36 3.103834 1_555
Te30 Te40 3.103834 1_555
Te31 Te72 3.032228 1_655
Te32 Te45 3.034563 1_555
Te35 Te65 3.032228 1_545
Te36 Te78 3.034563 1_555
Te37 Te44 3.034563 1_545
Te37 Te74 3.103834 1_546
Te39 Te59 3.032228 1_555
Te40 Te77 3.034563 1_555
Te45 Te50 3.103834 1_554
Te46 Te63 3.032228 1_455
Te46 Te59 3.090448 1_455
Te47 Te82 3.090448 1_555
Te47 Te57 3.090448 1_545
Te48 Te94 3.103834 1_655
Te48 Te85 3.103834 1_545
Te52 Te7 3.032228 1_655
Te52 Te59 3.090448 1_555
Te57 Te83 3.032228 1_555
Te57 Te68 3.090448 1_555
Te61 Te70 3.032228 1_555
Te61 Te65 3.090448 1_545
Te64 Te82 3.032228 1_555
Te65 Te9 3.090448 1_555
Te68 Te95 3.032228 1_565
Te68 Te82 3.090448 1_565
Te72 Te89 3.090448 1_555
Te72 Te76 3.090448 1_455
Te73 Te85 3.034563 1_545
Te76 Te8 3.032228 1_555
