# generated using pymatgen
data_Ba4Y(CuO3)3
_symmetry_space_group_name_H-M   'P 1'
_cell_length_a   8.09279769
_cell_length_b   8.09293171
_cell_length_c   8.09277150
_cell_angle_alpha   90.00000000
_cell_angle_beta   90.00000000
_cell_angle_gamma   90.00000000
_symmetry_Int_Tables_number   1
_chemical_formula_structural   Ba4Y(CuO3)3
_chemical_formula_sum   'Ba8 Y2 Cu6 O18'
_cell_volume   530.03169159
_cell_formula_units_Z   2
loop_
 _symmetry_equiv_pos_site_id
 _symmetry_equiv_pos_as_xyz
  1  'x, y, z'
loop_
 _atom_site_type_symbol
 _atom_site_label
 _atom_site_symmetry_multiplicity
 _atom_site_fract_x
 _atom_site_fract_y
 _atom_site_fract_z
 _atom_site_occupancy
  Ba  Ba0  1  0.75002012  0.24999791  0.25001924  1
  Ba  Ba1  1  0.24997988  0.24999791  0.74998076  1
  Ba  Ba2  1  0.24997988  0.75000209  0.25001924  1
  Ba  Ba3  1  0.75002012  0.75000209  0.74998076  1
  Ba  Ba4  1  0.24997988  0.75000209  0.74998076  1
  Ba  Ba5  1  0.75002012  0.75000209  0.25001924  1
  Ba  Ba6  1  0.75002012  0.24999791  0.74998076  1
  Ba  Ba7  1  0.24997988  0.24999791  0.25001924  1
  Y  Y0  1  0.00000000  0.00000000  -0.00000000  1
  Y  Y1  1  0.50000000  0.50000000  0.50000000  1
  Cu  Cu0  1  0.00000000  0.50000000  -0.00000000  1
  Cu  Cu1  1  0.00000000  0.00000000  0.50000000  1
  Cu  Cu2  1  0.50000000  0.00000000  -0.00000000  1
  Cu  Cu3  1  0.50000000  0.00000000  0.50000000  1
  Cu  Cu4  1  0.50000000  0.50000000  -0.00000000  1
  Cu  Cu5  1  0.00000000  0.50000000  0.50000000  1
  O  O0  1  0.00000000  0.27381533  -0.00000000  1
  O  O1  1  0.00000000  0.72618467  -0.00000000  1
  O  O2  1  0.00000000  0.00000000  0.27382031  1
  O  O3  1  0.00000000  0.00000000  0.72617969  1
  O  O4  1  0.27381303  0.00000000  -0.00000000  1
  O  O5  1  0.72618697  0.00000000  -0.00000000  1
  O  O6  1  0.50000000  0.22619006  0.50000000  1
  O  O7  1  0.50000000  0.77380994  0.50000000  1
  O  O8  1  0.50000000  0.50000000  0.22618517  1
  O  O9  1  0.50000000  0.50000000  0.77381483  1
  O  O10  1  0.22617947  0.50000000  0.50000000  1
  O  O11  1  0.77382053  0.50000000  0.50000000  1
  O  O12  1  0.50000000  0.25000210  -0.00000000  1
  O  O13  1  0.50000000  0.74999790  -0.00000000  1
  O  O14  1  0.00000000  0.50000000  0.25000608  1
  O  O15  1  0.00000000  0.50000000  0.74999392  1
  O  O16  1  0.24998568  0.00000000  0.50000000  1
  O  O17  1  0.75001432  0.00000000  0.50000000  1
loop_
_geom_bond_atom_site_label_1
_geom_bond_atom_site_label_2
_geom_bond_distance
_geom_bond_site_symmetry_2
Ba0 O17 2.861133 1_555
Ba0 O14 2.861157 1_655
Ba0 O12 2.861457 1_555
Ba0 O2 2.867609 1_655
Ba0 O11 2.867633 1_555
Ba0 O0 2.867712 1_655
Ba0 O6 2.867717 1_555
Ba0 O5 2.867847 1_555
Ba0 O8 2.867881 1_555
Ba1 O16 2.861133 1_555
Ba1 O15 2.861157 1_555
Ba1 O12 2.861457 1_556
Ba1 O3 2.867609 1_555
Ba1 O10 2.867633 1_555
Ba1 O0 2.867712 1_556
Ba1 O6 2.867717 1_555
Ba1 O4 2.867847 1_556
Ba1 O9 2.867881 1_555
Ba2 O16 2.861133 1_565
Ba2 O14 2.861157 1_555
Ba2 O13 2.861457 1_555
Ba2 O2 2.867609 1_565
Ba2 O10 2.867633 1_555
Ba2 O1 2.867712 1_555
Ba2 O7 2.867717 1_555
Ba2 O4 2.867847 1_565
Ba2 O8 2.867881 1_555
Ba3 O17 2.861133 1_565
Ba3 O15 2.861157 1_655
Ba3 O13 2.861457 1_556
Ba3 O3 2.867609 1_665
Ba3 O11 2.867633 1_555
Ba3 O1 2.867712 1_656
Ba3 O7 2.867717 1_555
Ba3 O5 2.867847 1_566
Ba3 O9 2.867881 1_555
Ba4 O16 2.861133 1_565
Ba4 O15 2.861157 1_555
Ba4 O13 2.861457 1_556
Ba4 O3 2.867609 1_565
Ba4 O10 2.867633 1_555
Ba4 O1 2.867712 1_556
Ba4 O7 2.867717 1_555
Ba4 O4 2.867847 1_566
Ba4 O9 2.867881 1_555
Ba5 O17 2.861133 1_565
Ba5 O14 2.861157 1_655
Ba5 O13 2.861457 1_555
Ba5 O2 2.867609 1_665
Ba5 O11 2.867633 1_555
Ba5 O1 2.867712 1_655
Ba5 O7 2.867717 1_555
Ba5 O5 2.867847 1_565
Ba5 O8 2.867881 1_555
Ba6 O17 2.861133 1_555
Ba6 O15 2.861157 1_655
Ba6 O12 2.861457 1_556
Ba6 O3 2.867609 1_655
Ba6 O11 2.867633 1_555
Ba6 O0 2.867712 1_656
Ba6 O6 2.867717 1_555
Ba6 O5 2.867847 1_556
Ba6 O9 2.867881 1_555
Ba7 O16 2.861133 1_555
Ba7 O14 2.861157 1_555
Ba7 O12 2.861457 1_555
Ba7 O2 2.867609 1_555
Ba7 O10 2.867633 1_555
Ba7 O0 2.867712 1_555
Ba7 O6 2.867717 1_555
Ba7 O4 2.867847 1_555
Ba7 O8 2.867881 1_555
Cu0 O0 1.830497 1_555
Cu0 O1 1.830497 1_555
Cu0 O14 2.023242 1_555
Cu0 O15 2.023242 1_554
Cu1 O2 1.830421 1_555
Cu1 O3 1.830421 1_555
Cu1 O17 2.023084 1_455
Cu1 O16 2.023084 1_555
Cu2 O5 1.830485 1_555
Cu2 O4 1.830485 1_555
Cu2 O13 2.023250 1_545
Cu2 O12 2.023250 1_555
Cu3 O7 1.830541 1_545
Cu3 O6 1.830541 1_555
Cu3 O17 2.023315 1_555
Cu3 O16 2.023315 1_555
Cu4 O8 1.830465 1_555
Cu4 O9 1.830465 1_554
Cu4 O12 2.023216 1_555
Cu4 O13 2.023216 1_555
Cu5 O10 1.830425 1_555
Cu5 O11 1.830425 1_455
Cu5 O14 2.023144 1_555
Cu5 O15 2.023144 1_555
O0 Y0 2.215969 1_555
O1 Y0 2.215969 1_565
O2 Y0 2.215965 1_555
O3 Y0 2.215965 1_556
O4 Y0 2.215913 1_555
O5 Y0 2.215913 1_655
O6 Y1 2.215925 1_555
O7 Y1 2.215925 1_555
O8 Y1 2.215921 1_555
O9 Y1 2.215921 1_555
O10 Y1 2.215974 1_555
O11 Y1 2.215974 1_555
