# generated using pymatgen
data_Co17Se20
_symmetry_space_group_name_H-M   'P 1'
_cell_length_a   10.35274000
_cell_length_b   10.74079565
_cell_length_c   12.37296734
_cell_angle_alpha   107.19923782
_cell_angle_beta   89.28165886
_cell_angle_gamma   118.54579138
_symmetry_Int_Tables_number   1
_chemical_formula_structural   Co17Se20
_chemical_formula_sum   'Co34 Se40'
_cell_volume   1140.86233943
_cell_formula_units_Z   2
loop_
 _symmetry_equiv_pos_site_id
 _symmetry_equiv_pos_as_xyz
  1  'x, y, z'
loop_
 _atom_site_type_symbol
 _atom_site_label
 _atom_site_symmetry_multiplicity
 _atom_site_fract_x
 _atom_site_fract_y
 _atom_site_fract_z
 _atom_site_occupancy
  Co  Co0  1  0.90352300  0.30403300  0.19474700  1
  Co  Co1  1  0.90211800  0.30319600  0.70580900  1
  Co  Co2  1  0.05508300  0.11276100  0.38891800  1
  Co  Co3  1  0.29999700  0.10105700  0.40040400  1
  Co  Co4  1  0.03150300  0.09124100  0.89303000  1
  Co  Co5  1  0.29958300  0.09934700  0.90012700  1
  Co  Co6  1  0.45523500  0.91080400  0.58923300  1
  Co  Co7  1  0.70000300  0.89894300  0.59959600  1
  Co  Co8  1  0.42921200  0.88892000  0.09071600  1
  Co  Co9  1  0.59945800  0.69929100  0.79972800  1
  Co  Co10  1  0.70041700  0.90065300  0.09987300  1
  Co  Co11  1  0.76920900  0.50973500  0.50604600  1
  Co  Co12  1  0.85378700  0.70727600  0.78608600  1
  Co  Co13  1  0.75321600  0.48931500  0.00616700  1
  Co  Co14  1  0.09647700  0.69596700  0.80525300  1
  Co  Co15  1  0.83333200  0.69547600  0.29483000  1
  Co  Co16  1  0.09788200  0.69680400  0.29419100  1
  Co  Co17  1  0.16666800  0.30452400  0.70517000  1
  Co  Co18  1  0.24678400  0.51068500  0.99383300  1
  Co  Co19  1  0.14621300  0.29272400  0.21391400  1
  Co  Co20  1  0.50000000  0.50000000  0.00000000  1
  Co  Co21  1  0.23079100  0.49026500  0.49395400  1
  Co  Co22  1  0.40054200  0.30070900  0.20027200  1
  Co  Co23  1  0.50000000  0.50000000  0.50000000  1
  Co  Co24  1  0.57078800  0.11108000  0.90928400  1
  Co  Co25  1  0.65472200  0.30597700  0.18515700  1
  Co  Co26  1  0.54476500  0.08919600  0.41076700  1
  Co  Co27  1  0.63158800  0.29577200  0.69564800  1
  Co  Co28  1  0.80015500  0.10057500  0.40054900  1
  Co  Co29  1  0.96849700  0.90875900  0.10697000  1
  Co  Co30  1  0.94491700  0.88723900  0.61108200  1
  Co  Co31  1  0.19984500  0.89942500  0.59945100  1
  Co  Co32  1  0.36841200  0.70422800  0.30435200  1
  Co  Co33  1  0.34527800  0.69402300  0.81484300  1
  Se  Se0  1  0.61972600  0.50058700  0.16508300  1
  Se  Se1  1  0.01470100  0.30270600  0.36756400  1
  Se  Se2  1  0.16929200  0.09583100  0.73435500  1
  Se  Se3  1  0.33027600  0.89733900  0.26876300  1
  Se  Se4  1  0.41673400  0.10098900  0.56743300  1
  Se  Se5  1  0.32616200  0.90002000  0.76767800  1
  Se  Se6  1  0.47220200  0.69894800  0.63233300  1
  Se  Se7  1  0.57113100  0.89905900  0.93606200  1
  Se  Se8  1  0.72979600  0.69848600  0.46960600  1
  Se  Se9  1  0.81590000  0.90074100  0.76685900  1
  Se  Se10  1  0.47054300  0.70117000  0.12983400  1
  Se  Se11  1  0.62899300  0.50264700  0.66326900  1
  Se  Se12  1  0.72785100  0.70228200  0.96785000  1
  Se  Se13  1  0.86164600  0.49704000  0.83018200  1
  Se  Se14  1  0.96664300  0.69748800  0.13489200  1
  Se  Se15  1  0.13083800  0.49808500  0.67156300  1
  Se  Se16  1  0.21342700  0.69744200  0.96919000  1
  Se  Se17  1  0.86916200  0.50191500  0.32843700  1
  Se  Se18  1  0.03335700  0.30251200  0.86510800  1
  Se  Se19  1  0.13835400  0.50296000  0.16981800  1
  Se  Se20  1  0.27214900  0.29771800  0.03215000  1
  Se  Se21  1  0.37100700  0.49735300  0.33673100  1
  Se  Se22  1  0.52945700  0.29883000  0.87016600  1
  Se  Se23  1  0.18410000  0.09925900  0.23314100  1
  Se  Se24  1  0.27020400  0.30151400  0.53039400  1
  Se  Se25  1  0.42886900  0.10094100  0.06393800  1
  Se  Se26  1  0.52779800  0.30105200  0.36766700  1
  Se  Se27  1  0.67383800  0.09998000  0.23232200  1
  Se  Se28  1  0.76853800  0.29779200  0.53624200  1
  Se  Se29  1  0.93086300  0.09919800  0.06888500  1
  Se  Se30  1  0.58326600  0.89901100  0.43256700  1
  Se  Se31  1  0.66972400  0.10266100  0.73123700  1
  Se  Se32  1  0.83070800  0.90416900  0.26564500  1
  Se  Se33  1  0.92833900  0.10274000  0.56829600  1
  Se  Se34  1  0.07166100  0.89726000  0.43170400  1
  Se  Se35  1  0.98529900  0.69729400  0.63243600  1
  Se  Se36  1  0.06913700  0.90080200  0.93111500  1
  Se  Se37  1  0.23146200  0.70220800  0.46375800  1
  Se  Se38  1  0.38027400  0.49941300  0.83491700  1
  Se  Se39  1  0.78657300  0.30255800  0.03081000  1
loop_
_geom_bond_atom_site_label_1
_geom_bond_atom_site_label_2
_geom_bond_distance
_geom_bond_site_symmetry_2
Co0 Se39 2.367440 1_555
Co0 Se29 2.429721 1_555
Co0 Se19 2.444849 1_655
Co0 Se1 2.447971 1_655
Co0 Se17 2.451279 1_555
Co0 Se27 2.503597 1_555
Co1 Se13 2.408592 1_555
Co1 Se18 2.411674 1_655
Co1 Se15 2.435242 1_655
Co1 Se31 2.440460 1_555
Co1 Se33 2.446389 1_555
Co1 Se28 2.498330 1_555
Co2 Se23 2.339937 1_555
Co2 Se1 2.354473 1_555
Co2 Se24 2.412073 1_555
Co2 Se32 2.415753 1_445
Co2 Se33 2.567586 1_455
Co2 Se34 2.602678 1_545
Co3 Se23 2.395724 1_555
Co3 Se4 2.407482 1_555
Co3 Se24 2.427339 1_555
Co3 Se26 2.447289 1_555
Co3 Se34 2.462221 1_545
Co3 Se3 2.464553 1_545
Co4 Se9 2.332234 1_445
Co4 Se18 2.385564 1_555
Co4 Se29 2.396969 1_456
Co4 Se2 2.410724 1_555
Co4 Se36 2.427771 1_545
Co4 Se20 2.580220 1_556
Co5 Se20 2.407730 1_556
Co5 Se5 2.412826 1_545
Co5 Se25 2.434217 1_556
Co5 Se22 2.442562 1_555
Co5 Se36 2.446362 1_545
Co5 Se2 2.450047 1_555
Co6 Se30 2.341203 1_555
Co6 Se4 2.347577 1_565
Co6 Se31 2.418208 1_565
Co6 Se37 2.422695 1_555
Co6 Se6 2.568099 1_555
Co6 Se5 2.569658 1_555
Co7 Se9 2.395724 1_555
Co7 Se30 2.407482 1_555
Co7 Se8 2.427339 1_555
Co7 Se6 2.447289 1_555
Co7 Se33 2.462221 1_565
Co7 Se31 2.464553 1_565
Co8 Se16 2.312063 1_554
Co8 Se7 2.394154 1_554
Co8 Se25 2.397861 1_565
Co8 Se3 2.413398 1_555
Co8 Se10 2.427147 1_555
Co8 Se27 2.626413 1_565
Co9 Se9 2.394156 1_555
Co9 Se38 2.412421 1_555
Co9 Se11 2.429103 1_555
Co9 Se7 2.446192 1_555
Co9 Se12 2.466567 1_555
Co9 Se6 2.466720 1_555
Co10 Se12 2.407730 1_554
Co10 Se27 2.412826 1_565
Co10 Se7 2.434217 1_554
Co10 Se10 2.442562 1_555
Co10 Se29 2.446362 1_565
Co10 Se32 2.450047 1_555
Co11 Se35 2.329380 1_555
Co11 Se11 2.410063 1_555
Co11 Se28 2.410312 1_555
Co11 Se8 2.411564 1_555
Co11 Se17 2.413288 1_555
Co11 Se26 2.585663 1_555
Co12 Se35 2.330982 1_555
Co12 Se9 2.366863 1_555
Co12 Se11 2.404347 1_555
Co12 Se36 2.444712 1_655
Co12 Se13 2.511698 1_555
Co12 Se12 2.586799 1_555
Co13 Se39 2.293976 1_555
Co13 Se14 2.383021 1_555
Co13 Se0 2.396190 1_555
Co13 Se22 2.432254 1_554
Co13 Se13 2.442305 1_554
Co13 Se12 2.597041 1_554
Co14 Se16 2.367440 1_555
Co14 Se36 2.429721 1_555
Co14 Se13 2.444849 1_455
Co14 Se35 2.447971 1_455
Co14 Se15 2.451279 1_555
Co14 Se5 2.503597 1_555
Co15 Se0 2.350922 1_555
Co15 Se32 2.385941 1_555
Co15 Se14 2.397836 1_555
Co15 Se8 2.400005 1_555
Co15 Se17 2.425879 1_555
Co15 Se34 2.544904 1_655
Co16 Se19 2.408592 1_555
Co16 Se14 2.411674 1_455
Co16 Se17 2.435242 1_455
Co16 Se3 2.440460 1_555
Co16 Se34 2.446389 1_555
Co16 Se37 2.498330 1_555
Co17 Se38 2.350922 1_555
Co17 Se2 2.385941 1_555
Co17 Se18 2.397836 1_555
Co17 Se24 2.400005 1_555
Co17 Se15 2.425879 1_555
Co17 Se33 2.544904 1_455
Co18 Se16 2.293976 1_555
Co18 Se18 2.383021 1_555
Co18 Se38 2.396190 1_555
Co18 Se10 2.432254 1_556
Co18 Se19 2.442305 1_556
Co18 Se20 2.597041 1_556
Co19 Se1 2.330982 1_555
Co19 Se23 2.366863 1_555
Co19 Se21 2.404347 1_555
Co19 Se29 2.444712 1_455
Co19 Se19 2.511698 1_555
Co19 Se20 2.586799 1_555
Co20 Se0 2.399345 1_555
Co20 Se38 2.399345 1_554
Co20 Se22 2.430450 1_554
Co20 Se10 2.430450 1_555
Co20 Se12 2.456116 1_554
Co20 Se20 2.456116 1_555
Co21 Se1 2.329380 1_555
Co21 Se21 2.410063 1_555
Co21 Se37 2.410312 1_555
Co21 Se24 2.411564 1_555
Co21 Se15 2.413288 1_555
Co21 Se6 2.585663 1_555
Co22 Se23 2.394156 1_555
Co22 Se0 2.412421 1_555
Co22 Se21 2.429103 1_555
Co22 Se25 2.446192 1_555
Co22 Se20 2.466567 1_555
Co22 Se26 2.466720 1_555
Co23 Se6 2.415920 1_555
Co23 Se26 2.415920 1_555
Co23 Se11 2.421253 1_555
Co23 Se21 2.421253 1_555
Co23 Se24 2.439383 1_555
Co23 Se8 2.439383 1_555
Co24 Se39 2.312063 1_556
Co24 Se25 2.394154 1_556
Co24 Se7 2.397861 1_545
Co24 Se31 2.413398 1_555
Co24 Se22 2.427147 1_555
Co24 Se5 2.626413 1_545
Co25 Se39 2.335116 1_555
Co25 Se0 2.365425 1_555
Co25 Se25 2.404132 1_555
Co25 Se17 2.434633 1_555
Co25 Se27 2.541688 1_555
Co25 Se26 2.599742 1_555
Co26 Se4 2.341203 1_555
Co26 Se30 2.347577 1_545
Co26 Se3 2.418208 1_545
Co26 Se28 2.422695 1_555
Co26 Se26 2.568099 1_555
Co26 Se27 2.569658 1_555
Co27 Se4 2.349351 1_555
Co27 Se11 2.383754 1_555
Co27 Se22 2.390740 1_555
Co27 Se28 2.413816 1_555
Co27 Se31 2.445217 1_555
Co27 Se13 2.483402 1_555
Co28 Se1 2.388737 1_655
Co28 Se30 2.392645 1_545
Co28 Se32 2.424555 1_545
Co28 Se28 2.441031 1_555
Co28 Se33 2.465859 1_555
Co28 Se27 2.468824 1_555
Co29 Se23 2.332234 1_665
Co29 Se14 2.385564 1_555
Co29 Se36 2.396969 1_654
Co29 Se32 2.410724 1_555
Co29 Se29 2.427771 1_565
Co29 Se12 2.580220 1_554
Co30 Se9 2.339937 1_555
Co30 Se35 2.354473 1_555
Co30 Se8 2.412073 1_555
Co30 Se2 2.415753 1_665
Co30 Se34 2.567586 1_655
Co30 Se33 2.602678 1_565
Co31 Se35 2.388737 1_455
Co31 Se4 2.392645 1_565
Co31 Se2 2.424555 1_565
Co31 Se37 2.441031 1_555
Co31 Se34 2.465859 1_555
Co31 Se5 2.468824 1_555
Co32 Se30 2.349351 1_555
Co32 Se21 2.383754 1_555
Co32 Se10 2.390740 1_555
Co32 Se37 2.413816 1_555
Co32 Se3 2.445217 1_555
Co32 Se19 2.483402 1_555
Co33 Se16 2.335116 1_555
Co33 Se38 2.365425 1_555
Co33 Se7 2.404132 1_555
Co33 Se15 2.434633 1_555
Co33 Se5 2.541688 1_555
Co33 Se6 2.599742 1_555
