# generated using pymatgen
data_Sr11In3Ga4
_symmetry_space_group_name_H-M   'P 1'
_cell_length_a   12.28557284
_cell_length_b   12.28556652
_cell_length_c   12.28555380
_cell_angle_alpha   60.00062291
_cell_angle_beta   60.00063403
_cell_angle_gamma   60.00063725
_symmetry_Int_Tables_number   1
_chemical_formula_structural   Sr11In3Ga4
_chemical_formula_sum   'Sr22 In6 Ga8'
_cell_volume   1311.22299205
_cell_formula_units_Z   2
loop_
 _symmetry_equiv_pos_site_id
 _symmetry_equiv_pos_as_xyz
  1  'x, y, z'
loop_
 _atom_site_type_symbol
 _atom_site_label
 _atom_site_symmetry_multiplicity
 _atom_site_fract_x
 _atom_site_fract_y
 _atom_site_fract_z
 _atom_site_occupancy
  Sr  Sr0  1  0.99998807  0.66169398  0.00001398  1
  Sr  Sr1  1  0.99998745  0.66169468  0.33830383  1
  Sr  Sr2  1  0.66169260  0.99998500  0.00001412  1
  Sr  Sr3  1  0.10050973  0.63317902  0.63315611  1
  Sr  Sr4  1  0.89948476  0.36685338  0.36683148  1
  Sr  Sr5  1  0.63316458  0.63316941  0.10051867  1
  Sr  Sr6  1  0.99998821  0.33832161  0.66167730  1
  Sr  Sr7  1  0.63316568  0.63317066  0.63314827  1
  Sr  Sr8  1  0.63317672  0.10050661  0.63315852  1
  Sr  Sr9  1  0.99999428  0.99998576  0.00001032  1
  Sr  Sr10  1  0.66169314  0.99998405  0.33830903  1
  Sr  Sr11  1  -0.00000059  0.99999692  0.33831464  1
  Sr  Sr12  1  0.33830808  0.66168856  0.00000127  1
  Sr  Sr13  1  0.33831854  0.99998578  0.00001375  1
  Sr  Sr14  1  0.36683973  0.36684494  0.89949405  1
  Sr  Sr15  1  0.99998937  0.33832009  0.00001385  1
  Sr  Sr16  1  0.33832035  0.99998442  0.66168240  1
  Sr  Sr17  1  -0.00000061  0.99999670  0.66168831  1
  Sr  Sr18  1  0.66168125  0.33831400  0.00000150  1
  Sr  Sr19  1  0.36685144  0.89948070  0.36683416  1
  Sr  Sr20  1  0.50001447  0.50002715  0.49997904  1
  Sr  Sr21  1  0.36684090  0.36684563  0.36682243  1
  In  In0  1  0.71910183  0.71910227  0.28089657  1
  In  In1  1  0.28089498  0.71910323  0.28089565  1
  In  In2  1  0.28089517  0.71910454  0.71910245  1
  In  In3  1  0.28089752  0.28089695  0.71910023  1
  In  In4  1  0.71910464  0.28089481  0.71910286  1
  In  In5  1  0.71910333  0.28089492  0.28089565  1
  Ga  Ga0  1  0.80536935  0.80536817  0.58389122  1
  Ga  Ga1  1  0.19462964  0.19462436  0.19464046  1
  Ga  Ga2  1  0.19462836  0.41610417  0.19463796  1
  Ga  Ga3  1  0.80536150  0.58390013  0.80537475  1
  Ga  Ga4  1  0.58390047  0.80536081  0.80537495  1
  Ga  Ga5  1  0.41610283  0.19462488  0.19464089  1
  Ga  Ga6  1  0.80536274  0.80535835  0.80537333  1
  Ga  Ga7  1  0.19463849  0.19463535  0.41608697  1
loop_
_geom_bond_atom_site_label_1
_geom_bond_atom_site_label_2
_geom_bond_distance
_geom_bond_site_symmetry_2
Sr0 Sr15 3.972824 1_555
Sr0 Sr1 4.156079 1_555
Sr0 Sr9 4.156122 1_555
Sr0 Sr2 4.156165 1_555
Sr0 Sr12 4.156344 1_655
Sr0 Sr17 4.156419 1_654
Sr0 Sr4 4.187962 1_555
Sr0 Sr5 4.187994 1_555
Sr0 Sr14 4.188263 1_654
Sr0 Sr3 4.188281 1_654
Sr1 Sr6 3.972859 1_555
Sr1 Sr10 4.156148 1_555
Sr1 Sr9 4.156149 1_555
Sr1 Sr11 4.156375 1_655
Sr1 Sr12 4.156388 1_655
Sr1 Sr4 4.187915 1_555
Sr1 Sr7 4.188006 1_555
Sr1 Sr21 4.188278 1_655
Sr1 Sr3 4.188280 1_655
Sr2 Sr9 4.156211 1_555
Sr2 Sr5 4.187918 1_555
Sr2 Sr8 4.188260 1_564
Sr3 Sr6 4.188305 1_455
Sr4 Sr6 4.187947 1_555
Sr6 Sr9 4.156667 1_546
Sr6 Sr7 4.188042 1_555
Sr10 Sr16 3.972859 1_555
Sr10 Sr2 4.156138 1_555
Sr10 Sr9 4.156245 1_555
Sr10 Sr11 4.156400 1_655
Sr10 Sr18 4.156474 1_565
Sr10 Sr7 4.187923 1_555
Sr10 Sr19 4.187942 1_555
Sr10 Sr8 4.188244 1_565
Sr10 Sr21 4.188344 1_565
Sr11 Sr17 3.972823 1_555
Sr11 Sr9 4.156356 1_455
Sr11 Sr13 4.156369 1_555
Sr11 Sr15 4.156391 1_465
Sr11 Sr3 4.187987 1_555
Sr11 Sr8 4.188030 1_465
Sr11 Sr19 4.188264 1_555
Sr11 Sr4 4.188304 1_465
Sr12 Sr18 3.972870 1_555
Sr12 Sr13 4.156314 1_555
Sr12 Sr9 4.156316 1_455
Sr12 Sr16 4.156335 1_554
Sr12 Sr14 4.187955 1_554
Sr12 Sr21 4.188012 1_555
Sr12 Sr5 4.188272 1_555
Sr12 Sr7 4.188298 1_554
Sr13 Sr2 3.972833 1_555
Sr13 Sr9 4.156529 1_455
Sr13 Sr16 4.156585 1_554
Sr13 Sr15 4.156638 1_465
Sr13 Sr5 4.187994 1_555
Sr13 Sr19 4.187997 1_555
Sr13 Sr8 4.188337 1_564
Sr13 Sr14 4.188345 1_564
Sr14 Sr20 4.007612 1_555
Sr14 Sr18 4.187938 1_556
Sr14 Sr15 4.188263 1_456
Sr14 Sr2 4.188335 1_546
Sr15 Sr18 4.156422 1_555
Sr15 Sr9 4.156620 1_545
Sr15 Sr6 4.156650 1_554
Sr15 Sr4 4.187968 1_555
Sr15 Sr5 4.188065 1_555
Sr15 Sr3 4.188354 1_654
Sr16 Sr17 4.156355 1_555
Sr16 Sr9 4.156578 1_456
Sr16 Sr6 4.156674 1_465
Sr16 Sr7 4.187966 1_555
Sr16 Sr19 4.187981 1_555
Sr16 Sr8 4.188283 1_565
Sr16 Sr21 4.188383 1_565
Sr17 Sr9 4.156375 1_456
Sr17 Sr6 4.156377 1_465
Sr17 Sr2 4.156446 1_456
Sr17 Sr3 4.187947 1_555
Sr17 Sr8 4.187996 1_465
Sr17 Sr19 4.188284 1_555
Sr17 Sr4 4.188323 1_465
Sr18 Sr2 4.156416 1_545
Sr18 Sr6 4.156437 1_554
Sr18 Sr9 4.156502 1_545
Sr18 Sr21 4.188000 1_555
Sr18 Sr5 4.188271 1_555
Sr18 Sr7 4.188290 1_554
Sr19 Sr20 4.006999 1_555
Sr19 Sr2 4.187985 1_555
Sr20 Sr7 4.007052 1_555
Sr20 Sr5 4.007064 1_555
Sr20 Sr4 4.007170 1_555
Sr20 Sr3 4.007515 1_555
Sr20 Sr21 4.007531 1_555
Sr20 Sr8 4.007671 1_555
Sr21 Sr6 4.188303 1_455
In0 Sr10 3.522160 1_555
In0 Sr2 3.522172 1_555
In0 Sr1 3.522175 1_555
In0 Sr0 3.522189 1_555
In0 Sr5 3.596366 1_555
In0 Sr4 3.596433 1_555
In0 Sr19 3.596440 1_555
In0 Sr7 3.596446 1_555
In0 Sr20 3.806427 1_555
In1 Sr13 3.522205 1_555
In1 Sr12 3.522303 1_555
In1 Sr11 3.522342 1_555
In1 Sr1 3.522446 1_455
In1 Sr21 3.596507 1_555
In1 Sr3 3.596540 1_555
In1 Sr19 3.596591 1_555
In1 Sr5 3.596613 1_555
In1 Sr20 3.806776 1_555
In2 Sr16 3.522175 1_555
In2 Sr17 3.522329 1_555
In2 Sr12 3.522330 1_556
In2 Sr0 3.522494 1_456
In2 Sr3 3.596469 1_555
In2 Sr14 3.596548 1_555
In2 Sr19 3.596594 1_555
In2 Sr7 3.596623 1_555
In2 Sr20 3.806758 1_555
In3 Sr6 3.522492 1_455
In3 Sr16 3.522501 1_545
In3 Sr15 3.522555 1_456
In3 Sr13 3.522562 1_546
In3 Sr21 3.596690 1_555
In3 Sr8 3.596728 1_555
In3 Sr14 3.596729 1_555
In3 Sr3 3.596748 1_555
In3 Sr20 3.807163 1_555
In4 Sr6 3.522207 1_555
In4 Sr18 3.522338 1_556
In4 Sr17 3.522360 1_645
In4 Sr2 3.522514 1_546
In4 Sr8 3.596502 1_555
In4 Sr14 3.596598 1_555
In4 Sr4 3.596631 1_555
In4 Sr7 3.596669 1_555
In4 Sr20 3.806873 1_555
In5 Sr15 3.522235 1_555
In5 Sr18 3.522326 1_555
In5 Sr11 3.522371 1_645
In5 Sr10 3.522472 1_545
In5 Sr21 3.596554 1_555
In5 Sr8 3.596568 1_555
In5 Sr4 3.596630 1_555
In5 Sr5 3.596656 1_555
In5 Sr20 3.806887 1_555
Ga0 Ga6 2.720929 1_555
Ga0 Ga3 2.720980 1_555
Ga0 Ga4 2.720987 1_555
Ga0 Sr7 3.351529 1_555
Ga0 Sr8 3.351544 1_565
Ga0 Sr3 3.351554 1_655
Ga0 Sr11 3.439035 1_655
Ga0 Sr10 3.439036 1_555
Ga0 Sr1 3.439066 1_555
Ga1 Ga7 2.720715 1_555
Ga1 Ga5 2.720931 1_555
Ga1 Ga2 2.720982 1_555
Ga1 Sr19 3.351632 1_545
Ga1 Sr4 3.351663 1_455
Ga1 Sr14 3.351722 1_554
Ga1 Sr11 3.439027 1_545
Ga1 Sr13 3.439065 1_545
Ga1 Sr15 3.439066 1_455
Ga2 Ga7 2.720772 1_555
Ga2 Ga5 2.720996 1_555
Ga2 Sr21 3.351475 1_555
Ga2 Sr4 3.351517 1_455
Ga2 Sr14 3.351558 1_554
Ga2 Sr1 3.439041 1_455
Ga2 Sr12 3.439085 1_555
Ga2 Sr0 3.439105 1_455
Ga3 Ga6 2.720739 1_555
Ga3 Ga4 2.720799 1_555
Ga3 Sr5 3.351608 1_556
Ga3 Sr7 3.351674 1_555
Ga3 Sr3 3.351706 1_655
Ga3 Sr15 3.439103 1_556
Ga3 Sr18 3.439106 1_556
Ga3 Sr6 3.439159 1_555
Ga4 Ga6 2.720766 1_555
Ga4 Sr5 3.351580 1_556
Ga4 Sr7 3.351645 1_555
Ga4 Sr8 3.351666 1_565
Ga4 Sr13 3.439084 1_556
Ga4 Sr12 3.439108 1_556
Ga4 Sr16 3.439139 1_555
Ga5 Ga7 2.720728 1_555
Ga5 Sr21 3.351511 1_555
Ga5 Sr19 3.351525 1_545
Ga5 Sr14 3.351608 1_554
Ga5 Sr10 3.439056 1_545
Ga5 Sr18 3.439098 1_555
Ga5 Sr2 3.439122 1_545
Ga6 Sr5 3.351499 1_556
Ga6 Sr3 3.351557 1_655
Ga6 Sr8 3.351585 1_565
Ga6 Sr0 3.439127 1_556
Ga6 Sr2 3.439128 1_556
Ga6 Sr17 3.439170 1_655
Ga7 Sr21 3.351608 1_555
Ga7 Sr19 3.351642 1_545
Ga7 Sr4 3.351647 1_455
Ga7 Sr6 3.439189 1_455
Ga7 Sr16 3.439205 1_545
Ga7 Sr17 3.439231 1_545
