# generated using pymatgen
data_LiTiAsO5
_symmetry_space_group_name_H-M   'P 1'
_cell_length_a   6.60488192
_cell_length_b   7.46262207
_cell_length_c   7.47971560
_cell_angle_alpha   90.00000000
_cell_angle_beta   90.00000000
_cell_angle_gamma   90.00000000
_symmetry_Int_Tables_number   1
_chemical_formula_structural   LiTiAsO5
_chemical_formula_sum   'Li4 Ti4 As4 O20'
_cell_volume   368.67321914
_cell_formula_units_Z   4
loop_
 _symmetry_equiv_pos_site_id
 _symmetry_equiv_pos_as_xyz
  1  'x, y, z'
loop_
 _atom_site_type_symbol
 _atom_site_label
 _atom_site_symmetry_multiplicity
 _atom_site_fract_x
 _atom_site_fract_y
 _atom_site_fract_z
 _atom_site_occupancy
  Li  Li0  1  0.00000000  0.00000000  -0.00000000  1
  Li  Li1  1  0.50000000  0.50000000  0.50000000  1
  Li  Li2  1  0.00000000  0.50000000  0.50000000  1
  Li  Li3  1  0.50000000  0.00000000  -0.00000000  1
  Ti  Ti0  1  0.75000000  0.22566551  0.33837707  1
  Ti  Ti1  1  0.25000000  0.77433449  0.66162293  1
  Ti  Ti2  1  0.25000000  0.72566551  0.16162293  1
  Ti  Ti3  1  0.75000000  0.27433449  0.83837707  1
  As  As0  1  0.25000000  0.13185325  0.37328531  1
  As  As1  1  0.75000000  0.86814675  0.62671469  1
  As  As2  1  0.75000000  0.63185325  0.12671469  1
  As  As3  1  0.25000000  0.36814675  0.87328531  1
  O  O0  1  0.95439849  0.73335099  0.62562883  1
  O  O1  1  0.54560151  0.76664901  0.12562883  1
  O  O2  1  0.04560151  0.23335099  0.87437117  1
  O  O3  1  0.45439849  0.26664901  0.37437117  1
  O  O4  1  0.04560151  0.26664901  0.37437117  1
  O  O5  1  0.54560151  0.73335099  0.62562883  1
  O  O6  1  0.95439849  0.76664901  0.12562883  1
  O  O7  1  0.45439849  0.23335099  0.87437117  1
  O  O8  1  0.75000000  0.16715998  0.11434521  1
  O  O9  1  0.25000000  0.83284002  0.88565479  1
  O  O10  1  0.25000000  0.66715998  0.38565479  1
  O  O11  1  0.75000000  0.33284002  0.61434521  1
  O  O12  1  0.75000000  -0.00208631  0.81318707  1
  O  O13  1  0.25000000  0.00208631  0.18681293  1
  O  O14  1  0.25000000  0.49791369  0.68681293  1
  O  O15  1  0.75000000  0.50208631  0.31318707  1
  O  O16  1  0.25000000  0.48940289  0.06414858  1
  O  O17  1  0.75000000  0.51059711  0.93585142  1
  O  O18  1  0.75000000  0.98940289  0.43585142  1
  O  O19  1  0.25000000  0.01059711  0.56414858  1
loop_
_geom_bond_atom_site_label_1
_geom_bond_atom_site_label_2
_geom_bond_distance
_geom_bond_site_symmetry_2
Li0 O2 2.001550 1_554
Li0 O6 2.001550 1_445
Li0 O13 2.163155 1_555
Li0 O12 2.163155 1_454
Li0 O8 2.239230 1_455
Li0 O9 2.239230 1_544
Li1 O5 2.001550 1_555
Li1 O3 2.001550 1_555
Li1 O14 2.163155 1_555
Li1 O15 2.163155 1_555
Li1 O10 2.239230 1_555
Li1 O11 2.239230 1_555
Li2 O0 2.001550 1_455
Li2 O4 2.001550 1_555
Li2 O14 2.163155 1_555
Li2 O15 2.163155 1_455
Li2 O10 2.239230 1_555
Li2 O11 2.239230 1_455
Li3 O1 2.001550 1_545
Li3 O7 2.001550 1_554
Li3 O13 2.163155 1_555
Li3 O12 2.163155 1_554
Li3 O9 2.239230 1_544
Li3 O8 2.239230 1_555
As0 O4 1.683608 1_555
As0 O3 1.683608 1_555
As0 O19 1.690229 1_555
As0 O13 1.697987 1_555
As1 O5 1.683608 1_555
As1 O0 1.683608 1_555
As1 O18 1.690229 1_555
As1 O12 1.697987 1_565
As2 O1 1.683608 1_555
As2 O6 1.683608 1_555
As2 O17 1.690229 1_554
As2 O15 1.697987 1_555
As3 O7 1.683608 1_555
As3 O2 1.683608 1_555
As3 O16 1.690229 1_556
As3 O14 1.697987 1_555
O0 Ti1 1.994477 1_655
O1 Ti2 1.994477 1_555
O2 Ti3 1.994477 1_455
O3 Ti0 1.994477 1_555
O4 Ti0 1.994477 1_455
O5 Ti1 1.994477 1_555
O6 Ti2 1.994477 1_655
O7 Ti3 1.994477 1_555
O8 Ti0 1.731640 1_555
O8 Ti3 2.213697 1_554
O9 Ti1 1.731640 1_555
O9 Ti2 2.213697 1_556
O10 Ti2 1.731640 1_555
O10 Ti1 2.213697 1_555
O11 Ti3 1.731640 1_555
O11 Ti0 2.213697 1_555
O12 Ti3 2.071411 1_555
O13 Ti2 2.071411 1_545
O14 Ti1 2.071411 1_555
O15 Ti0 2.071411 1_555
O16 Ti2 1.907935 1_555
O17 Ti3 1.907935 1_555
O18 Ti0 1.907935 1_565
O19 Ti1 1.907935 1_545
