# generated using pymatgen
data_Be3N2
_symmetry_space_group_name_H-M   'P 1'
_cell_length_a   2.84167913
_cell_length_b   2.84167932
_cell_length_c   9.74684101
_cell_angle_alpha   90.00000000
_cell_angle_beta   90.00000000
_cell_angle_gamma   119.99998600
_symmetry_Int_Tables_number   1
_chemical_formula_structural   Be3N2
_chemical_formula_sum   'Be6 N4'
_cell_volume   68.16236959
_cell_formula_units_Z   2
loop_
 _symmetry_equiv_pos_site_id
 _symmetry_equiv_pos_as_xyz
  1  'x, y, z'
loop_
 _atom_site_type_symbol
 _atom_site_label
 _atom_site_symmetry_multiplicity
 _atom_site_fract_x
 _atom_site_fract_y
 _atom_site_fract_z
 _atom_site_occupancy
  Be  Be0  1  0.33333300  0.66666700  0.07848597  1
  Be  Be1  1  0.66666700  0.33333300  0.57848597  1
  Be  Be2  1  0.66666700  0.33333300  0.92151403  1
  Be  Be3  1  0.33333300  0.66666700  0.42151403  1
  Be  Be4  1  0.00000000  -0.00000000  0.25000000  1
  Be  Be5  1  -0.00000000  0.00000000  0.75000000  1
  N  N0  1  -0.00000000  0.00000000  -0.00000000  1
  N  N1  1  -0.00000000  0.00000000  0.50000000  1
  N  N2  1  0.33333300  0.66666700  0.25000000  1
  N  N3  1  0.66666700  0.33333300  0.75000000  1
loop_
_geom_bond_atom_site_label_1
_geom_bond_atom_site_label_2
_geom_bond_distance
_geom_bond_site_symmetry_2
Be0 N2 1.671720 1_555
Be0 N0 1.810226 1_565
Be0 N0 1.810228 1_665
Be0 N0 1.810229 1_555
Be1 N3 1.671720 1_555
Be1 N1 1.810226 1_655
Be1 N1 1.810228 1_555
Be1 N1 1.810229 1_665
Be2 N3 1.671720 1_555
Be2 N0 1.810226 1_656
Be2 N0 1.810228 1_556
Be2 N0 1.810229 1_666
Be3 N2 1.671720 1_555
Be3 N1 1.810226 1_565
Be3 N1 1.810228 1_665
Be3 N1 1.810229 1_555
Be4 N2 1.640643 1_545
Be4 N2 1.640645 1_445
Be4 N2 1.640645 1_555
Be5 N3 1.640643 1_455
Be5 N3 1.640645 1_555
Be5 N3 1.640645 1_445
