# generated using pymatgen
data_Ca10Pr4Cu24O41
_symmetry_space_group_name_H-M   'P 1'
_cell_length_a   8.55034278
_cell_length_b   8.55034276
_cell_length_c   27.96809900
_cell_angle_alpha   90.00000000
_cell_angle_beta   90.00000000
_cell_angle_gamma   97.45559887
_symmetry_Int_Tables_number   1
_chemical_formula_structural   Ca10Pr4Cu24O41
_chemical_formula_sum   'Ca20 Pr8 Cu48 O82'
_cell_volume   2027.41539892
_cell_formula_units_Z   2
loop_
 _symmetry_equiv_pos_site_id
 _symmetry_equiv_pos_as_xyz
  1  'x, y, z'
loop_
 _atom_site_type_symbol
 _atom_site_label
 _atom_site_symmetry_multiplicity
 _atom_site_fract_x
 _atom_site_fract_y
 _atom_site_fract_z
 _atom_site_occupancy
  Ca  Ca0  1  0.37415000  0.13260500  0.71353600  1
  Ca  Ca1  1  0.14081500  0.37595600  0.50000000  1
  Ca  Ca2  1  0.37396000  0.12608000  0.56963900  1
  Ca  Ca3  1  0.85918500  0.62404400  0.50000000  1
  Ca  Ca4  1  0.12608000  0.37396000  0.93036100  1
  Ca  Ca5  1  0.86739500  0.62585000  0.21353600  1
  Ca  Ca6  1  0.37595600  0.14081500  0.00000000  1
  Ca  Ca7  1  0.37415000  0.13260500  0.28646400  1
  Ca  Ca8  1  0.62404400  0.85918500  0.00000000  1
  Ca  Ca9  1  0.62604000  0.87392000  0.43036100  1
  Ca  Ca10  1  0.62585000  0.86739500  0.28646400  1
  Ca  Ca11  1  0.87392000  0.62604000  0.93036100  1
  Ca  Ca12  1  0.62604000  0.87392000  0.56963900  1
  Ca  Ca13  1  0.12608000  0.37396000  0.06963900  1
  Ca  Ca14  1  0.13260500  0.37415000  0.21353600  1
  Ca  Ca15  1  0.86739500  0.62585000  0.78646400  1
  Ca  Ca16  1  0.62585000  0.86739500  0.71353600  1
  Ca  Ca17  1  0.37396000  0.12608000  0.43036100  1
  Ca  Ca18  1  0.87392000  0.62604000  0.06963900  1
  Ca  Ca19  1  0.13260500  0.37415000  0.78646400  1
  Pr  Pr0  1  0.13050500  0.36053600  0.35717700  1
  Pr  Pr1  1  0.36053600  0.13050500  0.85717700  1
  Pr  Pr2  1  0.86949500  0.63946400  0.35717700  1
  Pr  Pr3  1  0.63946400  0.86949500  0.14282300  1
  Pr  Pr4  1  0.36053600  0.13050500  0.14282300  1
  Pr  Pr5  1  0.63946400  0.86949500  0.85717700  1
  Pr  Pr6  1  0.86949500  0.63946400  0.64282300  1
  Pr  Pr7  1  0.13050500  0.36053600  0.64282300  1
  Cu  Cu0  1  0.66909200  0.16877600  0.21485800  1
  Cu  Cu1  1  0.66909200  0.16877600  0.78514200  1
  Cu  Cu2  1  0.50000000  0.50000000  0.90014400  1
  Cu  Cu3  1  0.67204900  0.16391700  0.50000000  1
  Cu  Cu4  1  0.50000000  0.50000000  0.79959300  1
  Cu  Cu5  1  0.32795100  0.83608300  0.50000000  1
  Cu  Cu6  1  0.00000000  0.00000000  0.54952900  1
  Cu  Cu7  1  0.16877600  0.66909200  0.28514200  1
  Cu  Cu8  1  0.00000000  0.00000000  0.84963100  1
  Cu  Cu9  1  0.83122400  0.33090800  0.28514200  1
  Cu  Cu10  1  0.00000000  0.00000000  0.65036900  1
  Cu  Cu11  1  0.16894700  0.66704900  0.57013700  1
  Cu  Cu12  1  0.33090800  0.83122400  0.21485800  1
  Cu  Cu13  1  0.50000000  0.50000000  0.70040700  1
  Cu  Cu14  1  0.83426000  0.33578600  0.85709200  1
  Cu  Cu15  1  0.83122400  0.33090800  0.71485800  1
  Cu  Cu16  1  0.50000000  0.50000000  0.59985600  1
  Cu  Cu17  1  0.00000000  0.00000000  0.75000000  1
  Cu  Cu18  1  0.00000000  0.00000000  0.15036900  1
  Cu  Cu19  1  0.83105300  0.33295000  0.42986300  1
  Cu  Cu20  1  0.50000000  0.50000000  0.09985600  1
  Cu  Cu21  1  0.33295000  0.83105300  0.07013700  1
  Cu  Cu22  1  0.66704900  0.16894700  0.92986300  1
  Cu  Cu23  1  0.33295000  0.83105300  0.92986300  1
  Cu  Cu24  1  0.33090800  0.83122400  0.78514200  1
  Cu  Cu25  1  0.16391700  0.67204900  0.00000000  1
  Cu  Cu26  1  0.66704900  0.16894700  0.07013700  1
  Cu  Cu27  1  0.00000000  0.00000000  0.34963100  1
  Cu  Cu28  1  0.16574000  0.66421400  0.85709200  1
  Cu  Cu29  1  0.50000000  0.50000000  0.29959300  1
  Cu  Cu30  1  0.83426000  0.33578600  0.14290800  1
  Cu  Cu31  1  0.33578600  0.83426000  0.64290800  1
  Cu  Cu32  1  0.50000000  0.50000000  0.20040700  1
  Cu  Cu33  1  0.00000000  0.00000000  0.45047100  1
  Cu  Cu34  1  0.50000000  0.50000000  0.50000000  1
  Cu  Cu35  1  0.50000000  0.50000000  0.00000000  1
  Cu  Cu36  1  0.66421400  0.16574000  0.35709200  1
  Cu  Cu37  1  0.50000000  0.50000000  0.40014400  1
  Cu  Cu38  1  0.16894700  0.66704900  0.42986300  1
  Cu  Cu39  1  0.66421400  0.16574000  0.64290800  1
  Cu  Cu40  1  0.83608300  0.32795100  0.00000000  1
  Cu  Cu41  1  0.16877600  0.66909200  0.71485800  1
  Cu  Cu42  1  0.83105300  0.33295000  0.57013700  1
  Cu  Cu43  1  0.00000000  0.00000000  0.25000000  1
  Cu  Cu44  1  0.00000000  0.00000000  0.95047100  1
  Cu  Cu45  1  0.33578600  0.83426000  0.35709200  1
  Cu  Cu46  1  0.00000000  0.00000000  0.04952900  1
  Cu  Cu47  1  0.16574000  0.66421400  0.14290800  1
  O  O0  1  0.33696700  0.84136300  0.28576500  1
  O  O1  1  0.33838100  0.82740300  0.14222500  1
  O  O2  1  0.36267800  0.40328000  0.15134100  1
  O  O3  1  0.33590600  0.83691900  0.42841000  1
  O  O4  1  0.50000000  0.00000000  0.64177000  1
  O  O5  1  0.15863700  0.66303400  0.78576500  1
  O  O6  1  0.66303400  0.15863700  0.71423500  1
  O  O7  1  0.89598100  0.85986400  0.30069700  1
  O  O8  1  0.16308100  0.66409400  0.07159000  1
  O  O9  1  0.10235100  0.13030600  0.00000000  1
  O  O10  1  0.50000000  0.00000000  0.35823000  1
  O  O11  1  0.66433300  0.15783700  0.00000000  1
  O  O12  1  0.11464200  0.12185200  0.59857700  1
  O  O13  1  0.40328000  0.36267800  0.65134100  1
  O  O14  1  0.66303400  0.15863700  0.28576500  1
  O  O15  1  0.00000000  0.50000000  0.70937700  1
  O  O16  1  0.16308100  0.66409400  0.92841000  1
  O  O17  1  0.61702500  0.61702500  0.75000000  1
  O  O18  1  0.33566700  0.84216300  0.00000000  1
  O  O19  1  0.00000000  0.50000000  0.29062300  1
  O  O20  1  0.39311600  0.37004300  0.95046000  1
  O  O21  1  0.37004300  0.39311600  0.54954000  1
  O  O22  1  0.87814800  0.88535800  0.09857700  1
  O  O23  1  0.88535800  0.87814800  0.40142300  1
  O  O24  1  0.85986400  0.89598100  0.80069700  1
  O  O25  1  0.38297500  0.38297500  0.75000000  1
  O  O26  1  0.83691900  0.33590600  0.92841000  1
  O  O27  1  0.50000000  0.00000000  0.79062300  1
  O  O28  1  0.00000000  0.50000000  0.42460700  1
  O  O29  1  0.17259700  0.66161900  0.64222500  1
  O  O30  1  0.12185200  0.11464200  0.90142300  1
  O  O31  1  0.84216300  0.33566700  0.50000000  1
  O  O32  1  0.50000000  0.00000000  0.50000000  1
  O  O33  1  0.59672000  0.63732200  0.34865900  1
  O  O34  1  0.83691900  0.33590600  0.07159000  1
  O  O35  1  0.85986400  0.89598100  0.19930300  1
  O  O36  1  0.17259700  0.66161900  0.35777500  1
  O  O37  1  0.66409400  0.16308100  0.42841000  1
  O  O38  1  0.00000000  0.50000000  0.85823000  1
  O  O39  1  0.00000000  0.50000000  0.14177000  1
  O  O40  1  0.39311600  0.37004300  0.04954000  1
  O  O41  1  0.33696700  0.84136300  0.71423500  1
  O  O42  1  0.84136300  0.33696700  0.78576500  1
  O  O43  1  0.66161900  0.17259700  0.14222500  1
  O  O44  1  0.12185200  0.11464200  0.09857700  1
  O  O45  1  0.00000000  0.50000000  0.57539300  1
  O  O46  1  0.84136300  0.33696700  0.21423500  1
  O  O47  1  0.88535800  0.87814800  0.59857700  1
  O  O48  1  0.60688400  0.62995700  0.95046000  1
  O  O49  1  0.15783700  0.66433300  0.50000000  1
  O  O50  1  0.60688400  0.62995700  0.04954000  1
  O  O51  1  0.63732200  0.59672000  0.15134100  1
  O  O52  1  0.89764900  0.86969400  0.00000000  1
  O  O53  1  0.37004300  0.39311600  0.45046000  1
  O  O54  1  0.13030600  0.10235100  0.50000000  1
  O  O55  1  0.00000000  0.50000000  0.00000000  1
  O  O56  1  0.40328000  0.36267800  0.34865900  1
  O  O57  1  0.50000000  0.00000000  0.92460700  1
  O  O58  1  0.33590600  0.83691900  0.57159000  1
  O  O59  1  0.87814800  0.88535800  0.90142300  1
  O  O60  1  0.10401900  0.14013600  0.69930300  1
  O  O61  1  0.59672000  0.63732200  0.65134100  1
  O  O62  1  0.50000000  0.00000000  0.20937700  1
  O  O63  1  0.33838100  0.82740300  0.85777500  1
  O  O64  1  0.66161900  0.17259700  0.85777500  1
  O  O65  1  0.11464200  0.12185200  0.40142300  1
  O  O66  1  0.14013600  0.10401900  0.80069700  1
  O  O67  1  0.15863700  0.66303400  0.21423500  1
  O  O68  1  0.89598100  0.85986400  0.69930300  1
  O  O69  1  0.38297500  0.38297500  0.25000000  1
  O  O70  1  0.63732200  0.59672000  0.84865900  1
  O  O71  1  0.82740300  0.33838100  0.64222500  1
  O  O72  1  0.36267800  0.40328000  0.84865900  1
  O  O73  1  0.86969400  0.89764900  0.50000000  1
  O  O74  1  0.50000000  0.00000000  0.07539300  1
  O  O75  1  0.14013600  0.10401900  0.19930300  1
  O  O76  1  0.10401900  0.14013600  0.30069700  1
  O  O77  1  0.61702500  0.61702500  0.25000000  1
  O  O78  1  0.62995700  0.60688400  0.54954000  1
  O  O79  1  0.66409400  0.16308100  0.57159000  1
  O  O80  1  0.62995700  0.60688400  0.45046000  1
  O  O81  1  0.82740300  0.33838100  0.35777500  1
loop_
_geom_bond_atom_site_label_1
_geom_bond_atom_site_label_2
_geom_bond_distance
_geom_bond_site_symmetry_2
Ca0 O60 2.352865 1_555
Ca0 O25 2.363606 1_555
Ca0 O6 2.451210 1_555
Ca0 O41 2.469249 1_545
Ca0 O4 2.605525 1_555
Ca0 O13 2.613531 1_555
Ca0 O27 2.721821 1_555
Ca1 O54 2.329462 1_555
Ca1 O53 2.389170 1_555
Ca1 O21 2.389170 1_555
Ca1 O49 2.451089 1_555
Ca1 O31 2.532022 1_455
Ca1 O28 2.711487 1_555
Ca1 O45 2.711487 1_555
Ca2 O21 2.355883 1_555
Ca2 O12 2.356219 1_555
Ca2 O58 2.452134 1_545
Ca2 O79 2.460384 1_555
Ca2 O32 2.533469 1_555
Ca2 O4 2.587434 1_555
Ca2 O54 2.839918 1_555
Ca2 O13 3.040590 1_555
Ca3 O73 2.329462 1_555
Ca3 O80 2.389170 1_555
Ca3 O78 2.389170 1_555
Ca3 O31 2.451089 1_555
Ca3 O49 2.532022 1_655
Ca3 O28 2.711487 1_655
Ca3 O45 2.711487 1_655
Ca4 O20 2.355883 1_555
Ca4 O30 2.356219 1_555
Ca4 O26 2.452134 1_455
Ca4 O16 2.460384 1_555
Ca4 O55 2.533469 1_556
Ca4 O38 2.587434 1_555
Ca4 O9 2.839918 1_556
Ca4 O72 3.040590 1_555
Ca5 O35 2.352865 1_555
Ca5 O77 2.363606 1_555
Ca5 O46 2.451201 1_555
Ca5 O67 2.469249 1_655
Ca5 O39 2.605525 1_655
Ca5 O51 2.613531 1_555
Ca5 O19 2.721821 1_655
Ca6 O9 2.329462 1_555
Ca6 O40 2.389170 1_555
Ca6 O20 2.389170 1_554
Ca6 O11 2.451089 1_555
Ca6 O18 2.532022 1_545
Ca6 O74 2.711487 1_555
Ca6 O57 2.711487 1_554
Ca7 O76 2.352865 1_555
Ca7 O69 2.363606 1_555
Ca7 O14 2.451210 1_555
Ca7 O0 2.469249 1_545
Ca7 O10 2.605525 1_555
Ca7 O56 2.613531 1_555
Ca7 O62 2.721821 1_555
Ca8 O52 2.329462 1_555
Ca8 O50 2.389170 1_555
Ca8 O48 2.389170 1_554
Ca8 O18 2.451089 1_555
Ca8 O11 2.532022 1_565
Ca8 O74 2.711487 1_565
Ca8 O57 2.711487 1_564
Ca9 O80 2.355883 1_555
Ca9 O23 2.356219 1_555
Ca9 O37 2.452134 1_565
Ca9 O3 2.460384 1_555
Ca9 O32 2.533469 1_565
Ca9 O10 2.587434 1_565
Ca9 O73 2.839918 1_555
Ca9 O33 3.040590 1_555
Ca10 O7 2.352865 1_555
Ca10 O77 2.363606 1_555
Ca10 O0 2.451201 1_555
Ca10 O14 2.469249 1_565
Ca10 O10 2.605525 1_565
Ca10 O33 2.613531 1_555
Ca10 O62 2.721821 1_565
Ca11 O48 2.355883 1_555
Ca11 O59 2.356219 1_555
Ca11 O16 2.452134 1_655
Ca11 O26 2.460384 1_555
Ca11 O55 2.533469 1_656
Ca11 O38 2.587434 1_655
Ca11 O52 2.839918 1_556
Ca11 O70 3.040590 1_555
Ca12 O78 2.355883 1_555
Ca12 O47 2.356219 1_555
Ca12 O79 2.452134 1_565
Ca12 O58 2.460384 1_555
Ca12 O32 2.533469 1_565
Ca12 O4 2.587434 1_565
Ca12 O73 2.839918 1_555
Ca12 O61 3.040590 1_555
Ca13 O40 2.355883 1_555
Ca13 O44 2.356219 1_555
Ca13 O34 2.452134 1_455
Ca13 O8 2.460384 1_555
Ca13 O55 2.533469 1_555
Ca13 O39 2.587434 1_555
Ca13 O9 2.839918 1_555
Ca13 O2 3.040590 1_555
Ca14 O75 2.352865 1_555
Ca14 O69 2.363606 1_555
Ca14 O67 2.451210 1_555
Ca14 O46 2.469249 1_455
Ca14 O39 2.605525 1_555
Ca14 O2 2.613531 1_555
Ca14 O19 2.721821 1_555
Ca15 O24 2.352865 1_555
Ca15 O17 2.363606 1_555
Ca15 O42 2.451201 1_555
Ca15 O5 2.469249 1_655
Ca15 O38 2.605525 1_655
Ca15 O70 2.613531 1_555
Ca15 O15 2.721821 1_655
Ca16 O68 2.352865 1_555
Ca16 O17 2.363606 1_555
Ca16 O41 2.451201 1_555
Ca16 O6 2.469249 1_565
Ca16 O4 2.605525 1_565
Ca16 O61 2.613531 1_555
Ca16 O27 2.721821 1_565
Ca17 O53 2.355883 1_555
Ca17 O65 2.356219 1_555
Ca17 O3 2.452134 1_545
Ca17 O37 2.460384 1_555
Ca17 O32 2.533469 1_555
Ca17 O10 2.587434 1_555
Ca17 O54 2.839918 1_555
Ca17 O56 3.040590 1_555
Ca18 O50 2.355883 1_555
Ca18 O22 2.356219 1_555
Ca18 O8 2.452134 1_655
Ca18 O34 2.460384 1_555
Ca18 O55 2.533469 1_655
Ca18 O39 2.587434 1_655
Ca18 O52 2.839918 1_555
Ca18 O51 3.040590 1_555
Ca19 O66 2.352865 1_555
Ca19 O25 2.363606 1_555
Ca19 O5 2.451210 1_555
Ca19 O42 2.469249 1_455
Ca19 O38 2.605525 1_555
Ca19 O72 2.613531 1_555
Ca19 O15 2.721821 1_555
Cu0 O62 1.911774 1_555
Cu0 O46 1.920506 1_555
Cu0 O14 1.985410 1_555
Cu0 O43 2.032807 1_555
Cu1 O27 1.911774 1_555
Cu1 O42 1.920506 1_555
Cu1 O6 1.985410 1_555
Cu1 O64 2.032807 1_555
Cu2 O20 1.945948 1_555
Cu2 O48 1.945948 1_555
Cu2 O72 1.970778 1_555
Cu2 O70 1.970778 1_555
Cu3 O32 1.895610 1_555
Cu3 O31 1.928184 1_555
Cu3 O37 2.003372 1_555
Cu3 O79 2.003372 1_555
Cu4 O25 1.914789 1_555
Cu4 O17 1.914789 1_555
Cu4 O72 1.921902 1_555
Cu4 O70 1.921902 1_555
Cu5 O32 1.895610 1_565
Cu5 O49 1.928184 1_555
Cu5 O3 2.003372 1_555
Cu5 O58 2.003372 1_555
Cu6 O12 1.913921 1_555
Cu6 O47 1.913921 1_445
Cu6 O73 1.916519 1_445
Cu6 O54 1.916519 1_555
Cu7 O19 1.911774 1_555
Cu7 O0 1.920506 1_555
Cu7 O67 1.985410 1_555
Cu7 O36 2.032807 1_555
Cu8 O66 1.955305 1_555
Cu8 O24 1.955305 1_445
Cu8 O59 1.969654 1_445
Cu8 O30 1.969654 1_555
Cu9 O19 1.911774 1_655
Cu9 O14 1.920500 1_555
Cu9 O46 1.985410 1_555
Cu9 O81 2.032807 1_555
Cu10 O68 1.955305 1_445
Cu10 O60 1.955305 1_555
Cu10 O12 1.969654 1_555
Cu10 O47 1.969654 1_445
Cu11 O58 1.900284 1_555
Cu11 O45 1.900791 1_555
Cu11 O49 1.963889 1_555
Cu11 O29 2.017034 1_555
Cu12 O62 1.911774 1_565
Cu12 O67 1.920500 1_555
Cu12 O0 1.985410 1_555
Cu12 O1 2.032807 1_555
Cu13 O25 1.914789 1_555
Cu13 O17 1.914789 1_555
Cu13 O13 1.921902 1_555
Cu13 O61 1.921902 1_555
Cu14 O38 1.861279 1_655
Cu14 O64 1.895193 1_555
Cu14 O26 1.994757 1_555
Cu14 O42 1.995791 1_555
Cu15 O15 1.911774 1_655
Cu15 O6 1.920500 1_555
Cu15 O42 1.985410 1_555
Cu15 O71 2.032807 1_555
Cu16 O78 1.945948 1_555
Cu16 O21 1.945948 1_555
Cu16 O13 1.970778 1_555
Cu16 O61 1.970778 1_555
Cu17 O60 1.990129 1_555
Cu17 O68 1.990129 1_445
Cu17 O66 1.990129 1_555
Cu17 O24 1.990129 1_445
Cu18 O35 1.955305 1_445
Cu18 O75 1.955305 1_555
Cu18 O22 1.969654 1_445
Cu18 O44 1.969654 1_555
Cu19 O37 1.900278 1_555
Cu19 O28 1.900796 1_655
Cu19 O31 1.963889 1_555
Cu19 O81 2.017034 1_555
Cu20 O50 1.945948 1_555
Cu20 O40 1.945948 1_555
Cu20 O2 1.970778 1_555
Cu20 O51 1.970778 1_555
Cu21 O8 1.900278 1_555
Cu21 O74 1.900796 1_565
Cu21 O18 1.963889 1_555
Cu21 O1 2.017034 1_555
Cu22 O26 1.900284 1_555
Cu22 O57 1.900791 1_555
Cu22 O11 1.963889 1_556
Cu22 O64 2.017034 1_555
Cu23 O16 1.900278 1_555
Cu23 O57 1.900796 1_565
Cu23 O18 1.963889 1_556
Cu23 O63 2.017034 1_555
Cu24 O27 1.911774 1_565
Cu24 O5 1.920500 1_555
Cu24 O41 1.985410 1_555
Cu24 O63 2.032807 1_555
Cu25 O55 1.895610 1_555
Cu25 O18 1.928184 1_555
Cu25 O8 2.003372 1_555
Cu25 O16 2.003372 1_554
Cu26 O34 1.900284 1_555
Cu26 O74 1.900791 1_555
Cu26 O11 1.963889 1_555
Cu26 O43 2.017034 1_555
Cu27 O7 1.955305 1_445
Cu27 O76 1.955305 1_555
Cu27 O65 1.969654 1_555
Cu27 O23 1.969654 1_445
Cu28 O38 1.861279 1_555
Cu28 O63 1.895193 1_555
Cu28 O16 1.994757 1_555
Cu28 O5 1.995791 1_555
Cu29 O69 1.914789 1_555
Cu29 O77 1.914789 1_555
Cu29 O56 1.921902 1_555
Cu29 O33 1.921902 1_555
Cu30 O39 1.861279 1_655
Cu30 O43 1.895193 1_555
Cu30 O34 1.994757 1_555
Cu30 O46 1.995791 1_555
Cu31 O4 1.861279 1_565
Cu31 O29 1.895193 1_555
Cu31 O58 1.994757 1_555
Cu31 O41 1.995791 1_555
Cu32 O69 1.914789 1_555
Cu32 O77 1.914789 1_555
Cu32 O2 1.921902 1_555
Cu32 O51 1.921902 1_555
Cu33 O65 1.913921 1_555
Cu33 O23 1.913921 1_445
Cu33 O73 1.916519 1_445
Cu33 O54 1.916519 1_555
Cu34 O80 1.930311 1_555
Cu34 O53 1.930311 1_555
Cu34 O78 1.930311 1_555
Cu34 O21 1.930311 1_555
Cu35 O50 1.930311 1_555
Cu35 O40 1.930311 1_555
Cu35 O48 1.930311 1_554
Cu35 O20 1.930311 1_554
Cu36 O10 1.861279 1_555
Cu36 O81 1.895193 1_555
Cu36 O37 1.994757 1_555
Cu36 O14 1.995791 1_555
Cu37 O53 1.945948 1_555
Cu37 O80 1.945948 1_555
Cu37 O56 1.970778 1_555
Cu37 O33 1.970778 1_555
Cu38 O3 1.900284 1_555
Cu38 O28 1.900791 1_555
Cu38 O49 1.963889 1_555
Cu38 O36 2.017034 1_555
Cu39 O4 1.861279 1_555
Cu39 O71 1.895193 1_555
Cu39 O79 1.994757 1_555
Cu39 O6 1.995791 1_555
Cu40 O55 1.895610 1_655
Cu40 O11 1.928184 1_555
Cu40 O34 2.003372 1_555
Cu40 O26 2.003372 1_554
Cu41 O15 1.911774 1_555
Cu41 O41 1.920506 1_555
Cu41 O5 1.985410 1_555
Cu41 O29 2.032807 1_555
Cu42 O79 1.900278 1_555
Cu42 O45 1.900796 1_655
Cu42 O31 1.963889 1_555
Cu42 O71 2.017034 1_555
Cu43 O7 1.990129 1_445
Cu43 O76 1.990129 1_555
Cu43 O75 1.990129 1_555
Cu43 O35 1.990129 1_445
Cu44 O30 1.913921 1_555
Cu44 O59 1.913921 1_445
Cu44 O9 1.916519 1_556
Cu44 O52 1.916519 1_446
Cu45 O10 1.861279 1_565
Cu45 O36 1.895193 1_555
Cu45 O3 1.994757 1_555
Cu45 O0 1.995791 1_555
Cu46 O22 1.913921 1_445
Cu46 O44 1.913921 1_555
Cu46 O9 1.916519 1_555
Cu46 O52 1.916519 1_445
Cu47 O39 1.861279 1_555
Cu47 O1 1.895193 1_555
Cu47 O8 1.994757 1_555
Cu47 O67 1.995791 1_555
O1 Pr3 2.552784 1_555
O1 Pr4 2.573963 1_565
O2 Pr4 2.342161 1_555
O7 Pr2 2.446858 1_555
O12 Pr7 2.375478 1_555
O13 Pr7 2.342161 1_555
O15 Pr7 2.545036 1_555
O15 Pr6 2.545036 1_455
O19 Pr0 2.545036 1_555
O19 Pr2 2.545036 1_455
O22 Pr3 2.375478 1_555
O23 Pr2 2.375478 1_555
O24 Pr5 2.446858 1_555
O27 Pr5 2.545036 1_545
O27 Pr1 2.545036 1_555
O28 Pr2 2.563009 1_455
O28 Pr0 2.563009 1_555
O29 Pr7 2.552784 1_555
O29 Pr6 2.573963 1_455
O30 Pr1 2.375478 1_555
O33 Pr2 2.342161 1_555
O35 Pr3 2.446858 1_555
O36 Pr0 2.552784 1_555
O36 Pr2 2.573963 1_455
O43 Pr4 2.552784 1_555
O43 Pr3 2.573963 1_545
O44 Pr4 2.375478 1_555
O45 Pr7 2.563009 1_555
O45 Pr6 2.563009 1_455
O47 Pr6 2.375478 1_555
O51 Pr3 2.342161 1_555
O56 Pr0 2.342161 1_555
O57 Pr1 2.563009 1_555
O57 Pr5 2.563009 1_545
O59 Pr5 2.375478 1_555
O60 Pr7 2.446858 1_555
O61 Pr6 2.342161 1_555
O62 Pr4 2.545036 1_555
O62 Pr3 2.545036 1_545
O63 Pr5 2.552784 1_555
O63 Pr1 2.573963 1_565
O64 Pr1 2.552784 1_555
O64 Pr5 2.573963 1_545
O65 Pr0 2.375478 1_555
O66 Pr1 2.446858 1_555
O68 Pr6 2.446858 1_555
O70 Pr5 2.342161 1_555
O71 Pr6 2.552784 1_555
O71 Pr7 2.573963 1_655
O72 Pr1 2.342161 1_555
O74 Pr4 2.563009 1_555
O74 Pr3 2.563009 1_545
O75 Pr4 2.446858 1_555
O76 Pr0 2.446858 1_555
O81 Pr2 2.552784 1_555
O81 Pr0 2.573963 1_655
