# generated using pymatgen
data_LiCS(OF)3
_symmetry_space_group_name_H-M   'P 1'
_cell_length_a   5.11919900
_cell_length_b   9.67563800
_cell_length_c   10.30851676
_cell_angle_alpha   89.05308989
_cell_angle_beta   90.00000000
_cell_angle_gamma   90.00000000
_symmetry_Int_Tables_number   1
_chemical_formula_structural   LiCS(OF)3
_chemical_formula_sum   'Li4 C4 S4 O12 F12'
_cell_volume   510.52673820
_cell_formula_units_Z   4
loop_
 _symmetry_equiv_pos_site_id
 _symmetry_equiv_pos_as_xyz
  1  'x, y, z'
loop_
 _atom_site_type_symbol
 _atom_site_label
 _atom_site_symmetry_multiplicity
 _atom_site_fract_x
 _atom_site_fract_y
 _atom_site_fract_z
 _atom_site_occupancy
  Li  Li0  1  0.88872800  0.90994100  0.10042600  1
  Li  Li1  1  0.11127200  0.09005900  0.89957400  1
  Li  Li2  1  0.61127200  0.40994100  0.10042600  1
  Li  Li3  1  0.38872800  0.59005900  0.89957400  1
  C  C0  1  0.26230800  0.60202500  0.33980600  1
  C  C1  1  0.73769200  0.39797500  0.66019400  1
  C  C2  1  0.23769200  0.10202500  0.33980600  1
  C  C3  1  0.76230800  0.89797500  0.66019400  1
  S  S0  1  0.89296000  0.40834000  0.82421000  1
  S  S1  1  0.10704000  0.59166000  0.17579000  1
  S  S2  1  0.39296000  0.09166000  0.17579000  1
  S  S3  1  0.60704000  0.90834000  0.82421000  1
  O  O0  1  0.17395700  0.05287700  0.09066300  1
  O  O1  1  0.00757700  0.72921000  0.14776800  1
  O  O2  1  0.82604300  0.94712300  0.90933700  1
  O  O3  1  0.58935400  0.98403700  0.19095300  1
  O  O4  1  0.32604300  0.55287700  0.09066300  1
  O  O5  1  0.67395700  0.44712300  0.90933700  1
  O  O6  1  0.08935400  0.51596300  0.80904700  1
  O  O7  1  0.49242300  0.22921000  0.14776800  1
  O  O8  1  0.91064600  0.48403700  0.19095300  1
  O  O9  1  0.99242300  0.27079000  0.85223200  1
  O  O10  1  0.41064600  0.01596300  0.80904700  1
  O  O11  1  0.50757700  0.77079000  0.85223200  1
  F  F0  1  0.54451900  0.30323100  0.66227800  1
  F  F1  1  0.58322500  0.86245000  0.57083700  1
  F  F2  1  0.45548100  0.69676900  0.33772200  1
  F  F3  1  0.08322500  0.63755000  0.42916300  1
  F  F4  1  0.91677500  0.36245000  0.57083700  1
  F  F5  1  0.04451900  0.19676900  0.33772200  1
  F  F6  1  0.86441100  0.02297500  0.62759500  1
  F  F7  1  0.41677500  0.13755000  0.42916300  1
  F  F8  1  0.36441100  0.47702500  0.37240500  1
  F  F9  1  0.13558900  0.97702500  0.37240500  1
  F  F10  1  0.95548100  0.80323100  0.66227800  1
  F  F11  1  0.63558900  0.52297500  0.62759500  1
loop_
_geom_bond_atom_site_label_1
_geom_bond_atom_site_label_2
_geom_bond_distance
_geom_bond_site_symmetry_2
Li0 O1 1.907364 1_655
Li0 O3 1.937958 1_555
Li0 O0 2.012518 1_665
Li0 O2 2.022193 1_554
Li1 O9 1.907364 1_455
Li1 O10 1.937958 1_555
Li1 O2 2.012518 1_445
Li1 O0 2.022193 1_556
Li2 O7 1.907364 1_555
Li2 O8 1.937958 1_555
Li2 O4 2.012518 1_555
Li2 O5 2.022193 1_554
Li3 O11 1.907364 1_555
Li3 O6 1.937958 1_555
Li3 O5 2.012518 1_555
Li3 O4 2.022193 1_556
C0 F3 1.348169 1_555
C0 F2 1.348359 1_555
C0 F8 1.354797 1_555
C1 F4 1.348169 1_555
C1 F0 1.348359 1_555
C1 F11 1.354797 1_555
C2 F7 1.348169 1_555
C2 F5 1.348359 1_555
C2 F9 1.354797 1_545
C3 F1 1.348169 1_555
C3 F10 1.348359 1_555
C3 F6 1.354797 1_565
O0 S2 1.476032 1_555
O1 S1 1.449567 1_555
O2 S3 1.476032 1_555
O3 S2 1.454026 1_565
O4 S1 1.476032 1_555
O5 S0 1.476032 1_555
O6 S0 1.454026 1_455
O7 S2 1.449567 1_555
O8 S1 1.454026 1_655
O9 S0 1.449567 1_555
O10 S3 1.454026 1_545
O11 S3 1.449567 1_555
