# generated using pymatgen
data_H2W2O7
_symmetry_space_group_name_H-M   'P 1'
_cell_length_a   7.40259409
_cell_length_b   7.40259409
_cell_length_c   7.40259409
_cell_angle_alpha   120.56949536
_cell_angle_beta   119.66231073
_cell_angle_gamma   89.80116876
_symmetry_Int_Tables_number   1
_chemical_formula_structural   H2W2O7
_chemical_formula_sum   'H4 W4 O14'
_cell_volume   286.31118121
_cell_formula_units_Z   2
loop_
 _symmetry_equiv_pos_site_id
 _symmetry_equiv_pos_as_xyz
  1  'x, y, z'
loop_
 _atom_site_type_symbol
 _atom_site_label
 _atom_site_symmetry_multiplicity
 _atom_site_fract_x
 _atom_site_fract_y
 _atom_site_fract_z
 _atom_site_occupancy
  H  H0  1  0.56019500  0.40780400  0.65239100  1
  H  H1  1  0.01810600  0.81949100  0.69861500  1
  H  H2  1  0.24458800  0.59219600  0.15239100  1
  H  H3  1  0.87912400  0.18050900  0.19861500  1
  W  W0  1  0.54653100  0.00000000  0.54653100  1
  W  W1  1  0.46932200  0.98519600  0.98412600  1
  W  W2  1  0.99893000  0.01480400  0.48412600  1
  W  W3  1  0.54653100  0.50000000  0.04653100  1
  O  O0  1  0.16318400  0.29857500  0.73781400  1
  O  O1  1  0.57847800  0.82080600  0.64819700  1
  O  O2  1  0.57847800  0.43028000  0.25767200  1
  O  O3  1  0.16318400  0.92537000  0.36460900  1
  O  O4  1  0.47593100  0.31483500  0.66109600  1
  O  O5  1  0.13286600  0.91190700  0.72095900  1
  O  O6  1  0.82739200  0.56972000  0.14819700  1
  O  O7  1  0.43923900  0.07463000  0.23781400  1
  O  O8  1  0.43923900  0.70142500  0.86460900  1
  O  O9  1  0.82739200  0.17919400  0.75767200  1
  O  O10  1  0.34626100  0.68516500  0.16109600  1
  O  O11  1  0.80905300  0.08809300  0.22095900  1
  O  O12  1  0.49953300  0.14724600  0.85228800  1
  O  O13  1  0.70504200  0.85275400  0.35228800  1
loop_
_geom_bond_atom_site_label_1
_geom_bond_atom_site_label_2
_geom_bond_distance
_geom_bond_site_symmetry_2
H0 O4 0.977115 1_555
H1 O5 0.983322 1_555
H2 O10 0.977109 1_555
H3 O11 0.983317 1_555
O0 W2 1.778445 1_455
O0 W3 2.375561 1_556
O1 W0 1.794168 1_565
O2 W3 1.794173 1_555
O3 W2 1.778445 1_465
O3 W0 2.375561 1_565
O4 W0 2.200870 1_555
O4 W3 2.200870 1_556
O5 W2 2.066272 1_465
O5 W1 2.103495 1_555
O6 W3 1.794176 1_555
O7 W1 1.778445 1_544
O7 W0 2.375561 1_555
O8 W1 1.778445 1_555
O8 W3 2.375561 1_556
O9 W0 1.794173 1_555
O10 W0 2.200870 1_565
O10 W3 2.200870 1_555
O11 W1 2.066278 1_544
O11 W2 2.103493 1_555
O12 W1 1.962197 1_545
O12 W3 2.167806 1_556
O12 W0 2.167813 1_555
O13 W2 1.962199 1_565
O13 W0 2.167808 1_565
O13 W3 2.167808 1_555
