# generated using pymatgen
data_Mg(FeO2)2
_symmetry_space_group_name_H-M   'P 1'
_cell_length_a   2.92681900
_cell_length_b   9.72965900
_cell_length_c   9.91801600
_cell_angle_alpha   90.00000000
_cell_angle_beta   90.00000000
_cell_angle_gamma   90.00000000
_symmetry_Int_Tables_number   1
_chemical_formula_structural   Mg(FeO2)2
_chemical_formula_sum   'Mg4 Fe8 O16'
_cell_volume   282.43485391
_cell_formula_units_Z   4
loop_
 _symmetry_equiv_pos_site_id
 _symmetry_equiv_pos_as_xyz
  1  'x, y, z'
loop_
 _atom_site_type_symbol
 _atom_site_label
 _atom_site_symmetry_multiplicity
 _atom_site_fract_x
 _atom_site_fract_y
 _atom_site_fract_z
 _atom_site_occupancy
  Mg  Mg0  1  0.27619500  0.86079200  0.75000000  1
  Mg  Mg1  1  0.72380500  0.13920800  0.25000000  1
  Mg  Mg2  1  0.27619500  0.63920800  0.25000000  1
  Mg  Mg3  1  0.72380500  0.36079200  0.75000000  1
  Fe  Fe0  1  0.24121400  0.38291700  0.42568200  1
  Fe  Fe1  1  0.75878600  0.88291700  0.07431800  1
  Fe  Fe2  1  0.24121400  0.11708300  0.57431800  1
  Fe  Fe3  1  0.24121400  0.11708300  0.92568200  1
  Fe  Fe4  1  0.75878600  0.61708300  0.57431800  1
  Fe  Fe5  1  0.75878600  0.61708300  0.92568200  1
  Fe  Fe6  1  0.75878600  0.88291700  0.42568200  1
  Fe  Fe7  1  0.24121400  0.38291700  0.07431800  1
  O  O0  1  0.74544200  0.52249500  0.38472700  1
  O  O1  1  0.25455800  0.02249500  0.11527300  1
  O  O2  1  0.25939300  0.75000000  0.50000000  1
  O  O3  1  0.25455800  0.47750500  0.88472700  1
  O  O4  1  0.74544200  0.97750500  0.88472700  1
  O  O5  1  0.77270200  0.78706000  0.25000000  1
  O  O6  1  0.22729800  0.21294000  0.75000000  1
  O  O7  1  0.74544200  0.97750500  0.61527300  1
  O  O8  1  0.74060700  0.25000000  0.50000000  1
  O  O9  1  0.25455800  0.47750500  0.61527300  1
  O  O10  1  0.25939300  0.75000000  0.00000000  1
  O  O11  1  0.25455800  0.02249500  0.38472700  1
  O  O12  1  0.22729800  0.28706000  0.25000000  1
  O  O13  1  0.74060700  0.25000000  0.00000000  1
  O  O14  1  0.74544200  0.52249500  0.11527300  1
  O  O15  1  0.77270200  0.71294000  0.75000000  1
loop_
_geom_bond_atom_site_label_1
_geom_bond_atom_site_label_2
_geom_bond_distance
_geom_bond_site_symmetry_2
Mg0 O15 2.044792 1_555
Mg0 O15 2.059373 1_455
Mg0 O4 2.227389 1_555
Mg0 O7 2.227389 1_555
Mg0 O4 2.342678 1_455
Mg0 O7 2.342678 1_455
Mg1 O12 2.044792 1_555
Mg1 O12 2.059373 1_655
Mg1 O11 2.227389 1_555
Mg1 O1 2.227389 1_555
Mg1 O11 2.342678 1_655
Mg1 O1 2.342678 1_655
Mg2 O5 2.044792 1_555
Mg2 O5 2.059373 1_455
Mg2 O0 2.227389 1_555
Mg2 O14 2.227389 1_555
Mg2 O0 2.342678 1_455
Mg2 O14 2.342678 1_455
Mg3 O6 2.044792 1_555
Mg3 O6 2.059373 1_655
Mg3 O3 2.227389 1_555
Mg3 O9 2.227389 1_555
Mg3 O3 2.342678 1_655
Mg3 O9 2.342678 1_655
Fe0 O12 1.976745 1_555
Fe0 O0 2.028493 1_455
Fe0 O0 2.046270 1_555
Fe0 O8 2.086176 1_555
Fe0 O8 2.088667 1_455
Fe0 O9 2.093865 1_555
Fe1 O5 1.976745 1_555
Fe1 O1 2.028493 1_665
Fe1 O1 2.046270 1_565
Fe1 O10 2.086176 1_555
Fe1 O10 2.088667 1_655
Fe1 O4 2.093865 1_554
Fe2 O6 1.976745 1_555
Fe2 O7 2.028493 1_445
Fe2 O7 2.046270 1_545
Fe2 O8 2.086176 1_555
Fe2 O8 2.088667 1_455
Fe2 O11 2.093865 1_555
Fe3 O6 1.976745 1_555
Fe3 O4 2.028493 1_445
Fe3 O4 2.046270 1_545
Fe3 O13 2.086176 1_556
Fe3 O13 2.088667 1_456
Fe3 O1 2.093865 1_556
Fe4 O15 1.976745 1_555
Fe4 O9 2.028493 1_655
Fe4 O9 2.046270 1_555
Fe4 O2 2.086176 1_555
Fe4 O2 2.088667 1_655
Fe4 O0 2.093865 1_555
Fe5 O15 1.976745 1_555
Fe5 O3 2.028493 1_655
Fe5 O3 2.046270 1_555
Fe5 O10 2.086176 1_556
Fe5 O10 2.088667 1_656
Fe5 O14 2.093865 1_556
Fe6 O5 1.976745 1_555
Fe6 O11 2.028493 1_665
Fe6 O11 2.046270 1_565
Fe6 O2 2.086176 1_555
Fe6 O2 2.088667 1_655
Fe6 O7 2.093865 1_555
Fe7 O12 1.976745 1_555
Fe7 O14 2.028493 1_455
Fe7 O14 2.046270 1_555
Fe7 O13 2.086176 1_555
Fe7 O13 2.088667 1_455
Fe7 O3 2.093865 1_554
