# generated using pymatgen
data_Eu2Si3Ni8
_symmetry_space_group_name_H-M   'P 1'
_cell_length_a   10.31871600
_cell_length_b   10.31871600
_cell_length_c   7.23190100
_cell_angle_alpha   90.00000000
_cell_angle_beta   90.00000000
_cell_angle_gamma   90.00000000
_symmetry_Int_Tables_number   1
_chemical_formula_structural   Eu2Si3Ni8
_chemical_formula_sum   'Eu8 Si12 Ni32'
_cell_volume   770.02316688
_cell_formula_units_Z   4
loop_
 _symmetry_equiv_pos_site_id
 _symmetry_equiv_pos_as_xyz
  1  'x, y, z'
loop_
 _atom_site_type_symbol
 _atom_site_label
 _atom_site_symmetry_multiplicity
 _atom_site_fract_x
 _atom_site_fract_y
 _atom_site_fract_z
 _atom_site_occupancy
  Eu  Eu0  1  0.00780100  0.25000000  0.88562500  1
  Eu  Eu1  1  0.75000000  0.50780100  0.61437500  1
  Eu  Eu2  1  0.99219900  0.75000000  0.11437500  1
  Eu  Eu3  1  0.25000000  0.49219900  0.38562500  1
  Eu  Eu4  1  0.75000000  0.99219900  0.61437500  1
  Eu  Eu5  1  0.49219900  0.25000000  0.88562500  1
  Eu  Eu6  1  0.25000000  0.00780100  0.38562500  1
  Eu  Eu7  1  0.50780100  0.75000000  0.11437500  1
  Si  Si0  1  0.46722400  0.53277600  0.75000000  1
  Si  Si1  1  0.46722400  0.96722400  0.75000000  1
  Si  Si2  1  0.03277600  0.96722400  0.75000000  1
  Si  Si3  1  0.75000000  0.25000000  0.48253000  1
  Si  Si4  1  0.53277600  0.46722400  0.25000000  1
  Si  Si5  1  0.25000000  0.75000000  0.98253000  1
  Si  Si6  1  0.03277600  0.53277600  0.75000000  1
  Si  Si7  1  0.96722400  0.03277600  0.25000000  1
  Si  Si8  1  0.53277600  0.03277600  0.25000000  1
  Si  Si9  1  0.75000000  0.25000000  0.01747000  1
  Si  Si10  1  0.96722400  0.46722400  0.25000000  1
  Si  Si11  1  0.25000000  0.75000000  0.51747000  1
  Ni  Ni0  1  0.97036400  0.62904700  0.47314400  1
  Ni  Ni1  1  0.86485700  0.75000000  0.75455500  1
  Ni  Ni2  1  0.47036400  0.12904700  0.52685600  1
  Ni  Ni3  1  0.36485700  0.25000000  0.24544500  1
  Ni  Ni4  1  0.09006200  0.75000000  0.71375600  1
  Ni  Ni5  1  0.25000000  0.13514300  0.74544500  1
  Ni  Ni6  1  0.62904700  0.52963600  0.97314400  1
  Ni  Ni7  1  0.75000000  0.86485700  0.25455500  1
  Ni  Ni8  1  0.25000000  0.90993800  0.78624400  1
  Ni  Ni9  1  0.87095300  0.97036400  0.97314400  1
  Ni  Ni10  1  0.02963600  0.37095300  0.52685600  1
  Ni  Ni11  1  0.37095300  0.47036400  0.02685600  1
  Ni  Ni12  1  0.87095300  0.52963600  0.97314400  1
  Ni  Ni13  1  0.63514300  0.75000000  0.75455500  1
  Ni  Ni14  1  0.02963600  0.12904700  0.52685600  1
  Ni  Ni15  1  0.37095300  0.02963600  0.02685600  1
  Ni  Ni16  1  0.59006200  0.25000000  0.28624400  1
  Ni  Ni17  1  0.75000000  0.09006200  0.21375600  1
  Ni  Ni18  1  0.25000000  0.59006200  0.78624400  1
  Ni  Ni19  1  0.75000000  0.63514300  0.25455500  1
  Ni  Ni20  1  0.62904700  0.97036400  0.97314400  1
  Ni  Ni21  1  0.12904700  0.02963600  0.02685600  1
  Ni  Ni22  1  0.52963600  0.62904700  0.47314400  1
  Ni  Ni23  1  0.47036400  0.37095300  0.52685600  1
  Ni  Ni24  1  0.40993800  0.75000000  0.71375600  1
  Ni  Ni25  1  0.12904700  0.47036400  0.02685600  1
  Ni  Ni26  1  0.52963600  0.87095300  0.47314400  1
  Ni  Ni27  1  0.75000000  0.40993800  0.21375600  1
  Ni  Ni28  1  0.25000000  0.36485700  0.74544500  1
  Ni  Ni29  1  0.97036400  0.87095300  0.47314400  1
  Ni  Ni30  1  0.90993800  0.25000000  0.28624400  1
  Ni  Ni31  1  0.13514300  0.25000000  0.24544500  1
loop_
_geom_bond_atom_site_label_1
_geom_bond_atom_site_label_2
_geom_bond_distance
_geom_bond_site_symmetry_2
Eu0 Ni21 2.789078 1_556
Eu0 Ni25 2.789078 1_556
Eu0 Si9 2.825894 1_456
Eu0 Ni10 2.887962 1_555
Eu0 Ni14 2.887962 1_555
Eu0 Ni31 2.915127 1_556
Eu0 Ni28 2.945893 1_555
Eu0 Ni5 2.945893 1_555
Eu0 Ni30 3.068179 1_456
Eu0 Si2 3.089092 1_545
Eu0 Si6 3.089092 1_555
Eu0 Ni12 3.274238 1_455
Eu0 Ni9 3.274238 1_445
Eu1 Ni22 2.789078 1_555
Eu1 Ni0 2.789078 1_555
Eu1 Si3 2.825894 1_555
Eu1 Ni6 2.887962 1_555
Eu1 Ni12 2.887962 1_555
Eu1 Ni19 2.915127 1_555
Eu1 Ni13 2.945893 1_555
Eu1 Ni1 2.945893 1_555
Eu1 Ni27 3.068179 1_555
Eu1 Si6 3.089092 1_655
Eu1 Si0 3.089092 1_555
Eu1 Ni10 3.274238 1_655
Eu1 Ni23 3.274238 1_555
Eu2 Ni9 2.789078 1_554
Eu2 Ni12 2.789078 1_554
Eu2 Si5 2.825894 1_654
Eu2 Ni29 2.887962 1_555
Eu2 Ni0 2.887962 1_555
Eu2 Ni1 2.915127 1_554
Eu2 Ni19 2.945893 1_555
Eu2 Ni7 2.945893 1_555
Eu2 Ni4 3.068179 1_654
Eu2 Si7 3.089092 1_565
Eu2 Si10 3.089092 1_555
Eu2 Ni25 3.274238 1_655
Eu2 Ni21 3.274238 1_665
Eu3 Ni10 2.789078 1_555
Eu3 Ni23 2.789078 1_555
Eu3 Si11 2.825894 1_555
Eu3 Ni11 2.887962 1_555
Eu3 Ni25 2.887962 1_555
Eu3 Ni28 2.915127 1_555
Eu3 Ni3 2.945893 1_555
Eu3 Ni31 2.945893 1_555
Eu3 Ni18 3.068179 1_555
Eu3 Si4 3.089092 1_555
Eu3 Si10 3.089092 1_455
Eu3 Ni0 3.274238 1_455
Eu3 Ni22 3.274238 1_555
Eu4 Ni29 2.789078 1_555
Eu4 Ni26 2.789078 1_555
Eu4 Si3 2.825894 1_565
Eu4 Ni20 2.887962 1_555
Eu4 Ni9 2.887962 1_555
Eu4 Ni7 2.915127 1_555
Eu4 Ni13 2.945893 1_555
Eu4 Ni1 2.945893 1_555
Eu4 Ni17 3.068179 1_565
Eu4 Si2 3.089092 1_655
Eu4 Si1 3.089092 1_555
Eu4 Ni14 3.274238 1_665
Eu4 Ni2 3.274238 1_565
Eu5 Ni15 2.789078 1_556
Eu5 Ni11 2.789078 1_556
Eu5 Si9 2.825894 1_556
Eu5 Ni23 2.887962 1_555
Eu5 Ni2 2.887962 1_555
Eu5 Ni3 2.915127 1_556
Eu5 Ni28 2.945893 1_555
Eu5 Ni5 2.945893 1_555
Eu5 Ni16 3.068179 1_556
Eu5 Si0 3.089092 1_555
Eu5 Si1 3.089092 1_545
Eu5 Ni20 3.274238 1_545
Eu5 Ni6 3.274238 1_555
Eu6 Ni14 2.789078 1_555
Eu6 Ni2 2.789078 1_555
Eu6 Si11 2.825894 1_545
Eu6 Ni15 2.887962 1_555
Eu6 Ni21 2.887962 1_555
Eu6 Ni5 2.915127 1_555
Eu6 Ni31 2.945893 1_555
Eu6 Ni3 2.945893 1_555
Eu6 Ni8 3.068179 1_545
Eu6 Si8 3.089092 1_555
Eu6 Si7 3.089092 1_455
Eu6 Ni26 3.274238 1_545
Eu6 Ni29 3.274238 1_445
Eu7 Ni6 2.789078 1_554
Eu7 Ni20 2.789078 1_554
Eu7 Si5 2.825894 1_554
Eu7 Ni26 2.887962 1_555
Eu7 Ni22 2.887962 1_555
Eu7 Ni13 2.915127 1_554
Eu7 Ni19 2.945893 1_555
Eu7 Ni7 2.945893 1_555
Eu7 Ni24 3.068179 1_554
Eu7 Si8 3.089092 1_565
Eu7 Si4 3.089092 1_555
Eu7 Ni15 3.274238 1_565
Eu7 Ni11 3.274238 1_555
Ni0 Si10 2.322392 1_555
Ni0 Si6 2.326019 1_655
Ni0 Ni4 2.472071 1_655
Ni0 Ni29 2.496159 1_555
Ni0 Ni1 2.623880 1_555
Ni0 Ni10 2.759997 1_655
Ni0 Ni19 2.770096 1_555
Ni1 Ni4 2.342483 1_655
Ni1 Ni13 2.370354 1_555
Ni1 Ni29 2.623880 1_555
Ni1 Ni12 2.770096 1_555
Ni1 Ni9 2.770096 1_555
Ni1 Si6 2.833296 1_655
Ni1 Si2 2.833296 1_655
Ni2 Si1 2.322392 1_545
Ni2 Si8 2.326019 1_555
Ni2 Ni23 2.496159 1_555
Ni2 Ni3 2.623880 1_555
Ni2 Ni26 2.759997 1_545
Ni2 Ni5 2.770096 1_555
Ni3 Ni31 2.370354 1_555
Ni3 Si4 2.833296 1_555
Ni3 Si8 2.833296 1_555
Ni4 Si11 2.176858 1_555
Ni4 Si2 2.332879 1_555
Ni4 Si6 2.332879 1_555
Ni4 Ni8 2.392103 1_555
Ni4 Si5 2.549867 1_555
Ni5 Ni8 2.342483 1_545
Ni5 Si1 2.833296 1_545
Ni5 Si2 2.833296 1_545
Ni6 Si0 2.322392 1_555
Ni6 Si4 2.326019 1_556
Ni7 Ni9 2.623880 1_554
Ni7 Si8 2.833296 1_565
Ni7 Si7 2.833296 1_565
Ni8 Si5 2.176858 1_555
Ni8 Si1 2.332879 1_555
Ni8 Si2 2.332879 1_555
Ni8 Si11 2.549867 1_555
Ni9 Si2 2.322392 1_655
Ni9 Si7 2.326019 1_566
Ni10 Si6 2.322392 1_555
Ni10 Si10 2.326019 1_455
Ni10 Ni30 2.472071 1_455
Ni10 Ni14 2.496159 1_555
Ni10 Ni31 2.623880 1_555
Ni10 Ni28 2.770096 1_555
Ni11 Si4 2.322392 1_555
Ni11 Si0 2.326019 1_554
Ni11 Ni18 2.472071 1_554
Ni11 Ni25 2.496159 1_555
Ni11 Ni28 2.623880 1_554
Ni11 Ni6 2.759997 1_554
Ni11 Ni3 2.770096 1_555
Ni12 Si6 2.322392 1_655
Ni12 Si10 2.326019 1_556
Ni12 Ni27 2.472071 1_556
Ni12 Ni6 2.496159 1_555
Ni12 Ni19 2.623880 1_556
Ni12 Ni25 2.759997 1_656
Ni13 Ni24 2.342483 1_555
Ni13 Ni26 2.623880 1_555
Ni13 Ni22 2.623880 1_555
Ni13 Ni20 2.770096 1_555
Ni13 Ni6 2.770096 1_555
Ni13 Si0 2.833296 1_555
Ni13 Si1 2.833296 1_555
Ni14 Si2 2.322392 1_545
Ni14 Si7 2.326019 1_455
Ni14 Ni30 2.472071 1_455
Ni14 Ni31 2.623880 1_555
Ni14 Ni29 2.759997 1_445
Ni14 Ni5 2.770096 1_555
Ni15 Si8 2.322392 1_555
Ni15 Si1 2.326019 1_544
Ni15 Ni8 2.472071 1_544
Ni15 Ni21 2.496159 1_555
Ni15 Ni5 2.623880 1_554
Ni15 Ni20 2.759997 1_544
Ni15 Ni3 2.770096 1_555
Ni16 Si3 2.176858 1_555
Ni16 Si4 2.332879 1_555
Ni16 Si8 2.332879 1_555
Ni16 Ni3 2.342483 1_555
Ni16 Ni17 2.392103 1_555
Ni16 Ni27 2.392103 1_555
Ni16 Ni23 2.472071 1_555
Ni16 Ni2 2.472071 1_555
Ni16 Si9 2.549867 1_555
Ni17 Si9 2.176858 1_555
Ni17 Si7 2.332879 1_555
Ni17 Si8 2.332879 1_555
Ni17 Ni7 2.342483 1_545
Ni17 Ni30 2.392103 1_555
Ni17 Ni20 2.472071 1_544
Ni17 Ni9 2.472071 1_544
Ni17 Si3 2.549867 1_555
Ni18 Si5 2.176858 1_555
Ni18 Si0 2.332879 1_555
Ni18 Si6 2.332879 1_555
Ni18 Ni28 2.342483 1_555
Ni18 Ni4 2.392103 1_555
Ni18 Ni24 2.392103 1_555
Ni18 Ni25 2.472071 1_556
Ni18 Si11 2.549867 1_555
Ni19 Ni27 2.342483 1_555
Ni19 Ni7 2.370354 1_555
Ni19 Ni6 2.623880 1_554
Ni19 Ni22 2.770096 1_555
Ni19 Si10 2.833296 1_555
Ni19 Si4 2.833296 1_555
Ni20 Si1 2.322392 1_555
Ni20 Si8 2.326019 1_566
Ni20 Ni9 2.496159 1_555
Ni20 Ni7 2.623880 1_556
Ni21 Si7 2.322392 1_455
Ni21 Si2 2.326019 1_544
Ni21 Ni8 2.472071 1_544
Ni21 Ni5 2.623880 1_554
Ni21 Ni9 2.759997 1_444
Ni21 Ni31 2.770096 1_555
Ni22 Si4 2.322392 1_555
Ni22 Si0 2.326019 1_555
Ni22 Ni24 2.472071 1_555
Ni22 Ni26 2.496159 1_555
Ni22 Ni23 2.759997 1_555
Ni23 Si0 2.322392 1_555
Ni23 Si4 2.326019 1_555
Ni23 Ni3 2.623880 1_555
Ni23 Ni28 2.770096 1_555
Ni24 Si11 2.176858 1_555
Ni24 Si0 2.332879 1_555
Ni24 Si1 2.332879 1_555
Ni24 Ni8 2.392103 1_555
Ni24 Ni26 2.472071 1_555
Ni24 Si5 2.549867 1_555
Ni25 Si10 2.322392 1_455
Ni25 Si6 2.326019 1_554
Ni25 Ni28 2.623880 1_554
Ni25 Ni31 2.770096 1_555
Ni26 Si8 2.322392 1_565
Ni26 Si1 2.326019 1_555
Ni26 Ni7 2.770096 1_555
Ni27 Si9 2.176858 1_555
Ni27 Si10 2.332879 1_555
Ni27 Si4 2.332879 1_555
Ni27 Ni30 2.392103 1_555
Ni27 Ni6 2.472071 1_554
Ni27 Si3 2.549867 1_555
Ni28 Ni5 2.370354 1_555
Ni28 Si0 2.833296 1_555
Ni28 Si6 2.833296 1_555
Ni29 Si7 2.322392 1_565
Ni29 Si2 2.326019 1_655
Ni29 Ni4 2.472071 1_655
Ni29 Ni7 2.770096 1_555
Ni30 Si3 2.176858 1_555
Ni30 Si10 2.332879 1_555
Ni30 Si7 2.332879 1_555
Ni30 Ni31 2.342483 1_655
Ni30 Si9 2.549867 1_555
Ni31 Si10 2.833296 1_455
Ni31 Si7 2.833296 1_455
