# generated using pymatgen
data_Sr2P6Rh7
_symmetry_space_group_name_H-M   'P 1'
_cell_length_a   11.12076207
_cell_length_b   11.12076207
_cell_length_c   4.10390052
_cell_angle_alpha   90.00000000
_cell_angle_beta   90.00000000
_cell_angle_gamma   90.00000000
_symmetry_Int_Tables_number   1
_chemical_formula_structural   Sr2P6Rh7
_chemical_formula_sum   'Sr4 P12 Rh14'
_cell_volume   507.53491354
_cell_formula_units_Z   2
loop_
 _symmetry_equiv_pos_site_id
 _symmetry_equiv_pos_as_xyz
  1  'x, y, z'
loop_
 _atom_site_type_symbol
 _atom_site_label
 _atom_site_symmetry_multiplicity
 _atom_site_fract_x
 _atom_site_fract_y
 _atom_site_fract_z
 _atom_site_occupancy
  Sr  Sr0  1  0.16118132  0.66118132  0.75066846  1
  Sr  Sr1  1  0.33881868  0.16118132  0.24933154  1
  Sr  Sr2  1  0.66118132  0.83881868  0.24933154  1
  Sr  Sr3  1  0.83881868  0.33881868  0.75066846  1
  P  P0  1  0.85773507  0.11145328  0.27363021  1
  P  P1  1  0.35773507  0.38854672  0.72636979  1
  P  P2  1  0.57274268  0.07274268  0.76436101  1
  P  P3  1  0.64226493  0.61145328  0.72636979  1
  P  P4  1  0.61145328  0.35773507  0.27363021  1
  P  P5  1  0.07274268  0.42725732  0.23563899  1
  P  P6  1  0.38854672  0.64226493  0.27363021  1
  P  P7  1  0.92725732  0.57274268  0.23563899  1
  P  P8  1  0.11145328  0.14226493  0.72636979  1
  P  P9  1  0.42725732  0.92725732  0.76436101  1
  P  P10  1  0.14226493  0.88854672  0.27363021  1
  P  P11  1  0.88854672  0.85773507  0.72636979  1
  Rh  Rh0  1  0.53725047  0.27655128  0.75258592  1
  Rh  Rh1  1  0.03725047  0.22344872  0.24741408  1
  Rh  Rh2  1  0.72344872  0.53725047  0.24741408  1
  Rh  Rh3  1  0.27655128  0.46274953  0.24741408  1
  Rh  Rh4  1  0.34664950  0.84664950  0.26151458  1
  Rh  Rh5  1  0.84664950  0.65335050  0.73848542  1
  Rh  Rh6  1  0.96274953  0.77655128  0.24741408  1
  Rh  Rh7  1  0.22344872  0.96274953  0.75258592  1
  Rh  Rh8  1  0.77655128  0.03725047  0.75258592  1
  Rh  Rh9  1  -0.00000000  -0.00000000  -0.00000000  1
  Rh  Rh10  1  0.15335050  0.34664950  0.73848542  1
  Rh  Rh11  1  0.46274953  0.72344872  0.75258592  1
  Rh  Rh12  1  0.50000000  0.50000000  -0.00000000  1
  Rh  Rh13  1  0.65335050  0.15335050  0.26151458  1
loop_
_geom_bond_atom_site_label_1
_geom_bond_atom_site_label_2
_geom_bond_distance
_geom_bond_site_symmetry_2
P0 Rh9 2.302231 1_655
P0 Rh8 2.315074 1_555
P0 Rh13 2.320709 1_555
P0 Rh1 2.355459 1_655
P0 Rh8 2.463417 1_554
P0 Sr3 3.204700 1_555
P0 Sr3 3.323183 1_554
P1 Rh12 2.302231 1_556
P1 Rh3 2.315074 1_555
P1 Rh10 2.320709 1_555
P1 Rh0 2.355459 1_555
P1 Rh3 2.463417 1_556
P1 Sr1 3.204700 1_555
P1 Sr1 3.323183 1_556
P2 P9 2.288068 1_545
P2 Rh8 2.301125 1_555
P2 Rh0 2.301125 1_555
P2 Rh13 2.402048 1_556
P2 Rh13 2.421924 1_555
P2 Sr2 3.419914 1_546
P2 Sr1 3.419914 1_556
P2 Sr2 3.493145 1_545
P2 Sr1 3.493145 1_555
P3 Rh12 2.302231 1_556
P3 Rh2 2.315074 1_555
P3 Rh5 2.320709 1_555
P3 Rh11 2.355459 1_555
P3 Rh2 2.463417 1_556
P3 Sr2 3.204700 1_555
P3 Sr2 3.323183 1_556
P4 Rh12 2.302231 1_555
P4 Rh0 2.315074 1_555
P4 Rh13 2.320709 1_555
P4 Rh2 2.355459 1_555
P4 Rh0 2.463417 1_554
P4 Sr3 3.204700 1_555
P4 Sr3 3.323183 1_554
P5 P7 2.288068 1_455
P5 Rh1 2.301125 1_555
P5 Rh3 2.301125 1_555
P5 Rh10 2.402048 1_554
P5 Rh10 2.421924 1_555
P5 Sr3 3.419914 1_454
P5 Sr0 3.419914 1_554
P5 Sr0 3.493145 1_555
P5 Sr3 3.493145 1_455
P6 Rh12 2.302231 1_555
P6 Rh11 2.315074 1_555
P6 Rh4 2.320709 1_555
P6 Rh3 2.355459 1_555
P6 Rh11 2.463417 1_554
P6 Sr0 3.204700 1_555
P6 Sr0 3.323183 1_554
P7 Rh6 2.301125 1_555
P7 Rh2 2.301125 1_555
P7 Rh5 2.402048 1_554
P7 Rh5 2.421924 1_555
P7 Sr0 3.419914 1_654
P7 Sr3 3.419914 1_554
P7 Sr0 3.493145 1_655
P7 Sr3 3.493145 1_555
P8 Rh9 2.302231 1_556
P8 Rh1 2.315074 1_555
P8 Rh10 2.320709 1_555
P8 Rh7 2.355459 1_545
P8 Rh1 2.463417 1_556
P8 Sr1 3.204700 1_555
P8 Sr1 3.323183 1_556
P9 Rh7 2.301125 1_555
P9 Rh11 2.301125 1_555
P9 Rh4 2.402048 1_556
P9 Rh4 2.421924 1_555
P9 Sr2 3.419914 1_556
P9 Sr1 3.419914 1_566
P9 Sr2 3.493145 1_555
P9 Sr1 3.493145 1_565
P10 Rh9 2.302231 1_565
P10 Rh7 2.315074 1_555
P10 Rh4 2.320709 1_555
P10 Rh6 2.355459 1_455
P10 Rh7 2.463417 1_554
P10 Sr0 3.204700 1_555
P10 Sr0 3.323183 1_554
P11 Rh9 2.302231 1_666
P11 Rh6 2.315074 1_555
P11 Rh5 2.320709 1_555
P11 Rh8 2.355459 1_565
P11 Rh6 2.463417 1_556
P11 Sr2 3.204700 1_555
P11 Sr2 3.323183 1_556
Rh0 Rh12 2.716136 1_556
Rh0 Rh13 2.757825 1_555
Rh0 Rh13 2.811823 1_556
Rh0 Sr1 3.266733 1_556
Rh0 Sr1 3.283468 1_555
Rh0 Sr3 3.424420 1_555
Rh1 Rh9 2.716136 1_555
Rh1 Rh10 2.757825 1_555
Rh1 Rh10 2.811823 1_554
Rh1 Sr3 3.266733 1_454
Rh1 Sr3 3.283468 1_455
Rh1 Sr1 3.424420 1_555
Rh2 Rh5 2.757825 1_555
Rh2 Rh5 2.811823 1_554
Rh2 Sr3 3.266733 1_554
Rh2 Sr3 3.283468 1_555
Rh2 Sr2 3.424420 1_555
Rh3 Sr0 3.266733 1_554
Rh3 Sr0 3.283468 1_555
Rh3 Sr1 3.424420 1_555
Rh4 Rh7 2.757825 1_555
Rh4 Rh7 2.811823 1_554
Rh4 Sr2 3.499275 1_555
Rh4 Sr1 3.499275 1_565
Rh4 Sr0 3.540906 1_555
Rh4 Sr0 3.592124 1_554
Rh5 Rh6 2.757825 1_555
Rh5 Rh6 2.811823 1_556
Rh5 Sr3 3.499275 1_555
Rh5 Sr0 3.499275 1_655
Rh5 Sr2 3.540906 1_555
Rh5 Sr2 3.592124 1_556
Rh6 Rh9 2.716136 1_665
Rh6 Sr0 3.266733 1_654
Rh6 Sr0 3.283468 1_655
Rh6 Sr2 3.424420 1_555
Rh7 Rh9 2.716136 1_566
Rh7 Sr1 3.266733 1_566
Rh7 Sr1 3.283468 1_565
Rh7 Sr0 3.424420 1_555
Rh8 Rh9 2.716136 1_656
Rh8 Sr2 3.266733 1_546
Rh8 Sr2 3.283468 1_545
Rh8 Sr3 3.424420 1_555
Rh10 Rh3 2.757825 1_555
Rh10 Rh3 2.811823 1_556
Rh10 Sr0 3.499275 1_555
Rh10 Sr3 3.499275 1_455
Rh10 Sr1 3.540906 1_555
Rh10 Sr1 3.592124 1_556
Rh11 Rh12 2.716136 1_556
Rh11 Rh4 2.757825 1_555
Rh11 Rh4 2.811823 1_556
Rh11 Sr2 3.266733 1_556
Rh11 Sr2 3.283468 1_555
Rh11 Sr0 3.424420 1_555
Rh12 Rh3 2.716136 1_555
Rh12 Rh2 2.716136 1_555
Rh13 Rh8 2.757825 1_555
Rh13 Rh8 2.811823 1_554
Rh13 Sr1 3.499275 1_555
Rh13 Sr2 3.499275 1_545
Rh13 Sr3 3.540906 1_555
Rh13 Sr3 3.592124 1_554
