# generated using pymatgen
data_KC(NO2)3
_symmetry_space_group_name_H-M   'P 1'
_cell_length_a   10.07159893
_cell_length_b   10.07159893
_cell_length_c   10.07159893
_cell_angle_alpha   100.16344345
_cell_angle_beta   100.16344345
_cell_angle_gamma   130.32229405
_symmetry_Int_Tables_number   1
_chemical_formula_structural   KC(NO2)3
_chemical_formula_sum   'K4 C4 N12 O24'
_cell_volume   706.85578932
_cell_formula_units_Z   4
loop_
 _symmetry_equiv_pos_site_id
 _symmetry_equiv_pos_as_xyz
  1  'x, y, z'
loop_
 _atom_site_type_symbol
 _atom_site_label
 _atom_site_symmetry_multiplicity
 _atom_site_fract_x
 _atom_site_fract_y
 _atom_site_fract_z
 _atom_site_occupancy
  K  K0  1  0.98749800  0.77427200  0.21322600  1
  K  K1  1  0.56104600  0.77427200  0.78677400  1
  K  K2  1  0.02427200  0.31104600  0.28677400  1
  K  K3  1  0.02427200  0.73749800  0.71322600  1
  C  C0  1  0.48664200  0.76682000  0.28017900  1
  C  C1  1  0.45646300  0.23664200  0.21982100  1
  C  C2  1  0.01682000  0.23664200  0.78017900  1
  C  C3  1  0.48664200  0.20646300  0.71982100  1
  N  N0  1  0.99490500  0.28029100  0.90769100  1
  N  N1  1  0.53029100  0.74490500  0.40769100  1
  N  N2  1  0.56271200  0.38507000  0.82235800  1
  N  N3  1  0.33721500  0.74490500  0.21461500  1
  N  N4  1  0.37260000  0.28029100  0.28538500  1
  N  N5  1  0.33721500  0.12260000  0.59230900  1
  N  N6  1  0.63507000  0.31271200  0.32235800  1
  N  N7  1  0.99490500  0.08721500  0.71461500  1
  N  N8  1  0.37260000  0.08721500  0.09230900  1
  N  N9  1  0.99035300  0.31271200  0.67764200  1
  N  N10  1  0.56271200  0.74035300  0.17764200  1
  N  N11  1  0.53029100  0.12260000  0.78538500  1
  O  O0  1  0.32086400  0.22909500  0.56437200  1
  O  O1  1  0.22738000  0.95051000  0.50950100  1
  O  O2  1  0.20051000  0.19100900  0.22313000  1
  O  O3  1  0.00649200  0.07086400  0.59176800  1
  O  O4  1  0.32086400  0.75649200  0.09176800  1
  O  O5  1  0.12941600  0.45978200  0.66963300  1
  O  O6  1  0.44100900  0.95051000  0.72313000  1
  O  O7  1  0.47125500  0.36821500  0.89695900  1
  O  O8  1  0.22738000  0.71787900  0.27687000  1
  O  O9  1  0.96787900  0.97738000  0.77687000  1
  O  O10  1  0.47909500  0.41472300  0.40823200  1
  O  O11  1  0.82429600  0.22125500  0.60304100  1
  O  O12  1  0.47909500  0.07086400  0.06437200  1
  O  O13  1  0.70978200  0.87941600  0.16963300  1
  O  O14  1  0.66472300  0.75649200  0.43562800  1
  O  O15  1  0.00649200  0.41472300  0.93562800  1
  O  O16  1  0.20051000  0.97738000  0.00950100  1
  O  O17  1  0.66472300  0.22909500  0.90823200  1
  O  O18  1  0.79014900  0.45978200  0.33036700  1
  O  O19  1  0.61821500  0.22125500  0.39695900  1
  O  O20  1  0.47125500  0.57429600  0.10304100  1
  O  O21  1  0.44100900  0.71787900  0.49049900  1
  O  O22  1  0.96787900  0.19100900  0.99049900  1
  O  O23  1  0.70978200  0.54014900  0.83036700  1
loop_
_geom_bond_atom_site_label_1
_geom_bond_atom_site_label_2
_geom_bond_distance
_geom_bond_site_symmetry_2
K0 O1 2.815727 1_655
K0 O8 2.815727 1_655
K0 O18 3.061674 1_555
K0 O2 3.217511 1_665
K0 O16 3.217511 1_655
K1 O6 2.815727 1_555
K1 O21 2.815727 1_555
K1 O5 3.061667 1_555
K1 O22 3.217511 1_565
K1 O9 3.217511 1_555
K2 O22 2.815727 1_454
K2 O2 2.815727 1_555
K2 O13 3.061667 1_445
K2 O8 3.217511 1_555
K2 O21 3.217511 1_555
K3 O16 2.815727 1_556
K3 O9 2.815727 1_455
K3 O23 3.061674 1_455
K3 O1 3.217511 1_555
K3 O6 3.217511 1_555
C0 N3 1.384789 1_555
C0 N1 1.384789 1_555
C0 N10 1.473402 1_555
C1 N4 1.384789 1_555
C1 N8 1.384789 1_555
C1 N6 1.473402 1_555
C2 N7 1.384789 1_455
C2 N0 1.384789 1_455
C2 N9 1.473402 1_455
C3 N5 1.384789 1_555
C3 N11 1.384789 1_555
C3 N2 1.473402 1_555
N0 O15 1.255164 1_655
N0 O22 1.267385 1_555
N1 O14 1.255164 1_555
N1 O21 1.267385 1_555
N2 O7 1.236406 1_555
N2 O23 1.248732 1_555
N3 O4 1.255184 1_555
N3 O8 1.267386 1_555
N4 O10 1.255177 1_555
N4 O2 1.267384 1_555
N5 O0 1.255170 1_555
N5 O1 1.267384 1_545
N6 O19 1.236406 1_555
N6 O18 1.248732 1_555
N7 O3 1.255184 1_655
N7 O9 1.267386 1_545
N8 O12 1.255170 1_555
N8 O16 1.267384 1_545
N9 O11 1.236396 1_555
N9 O5 1.248739 1_655
N10 O20 1.236396 1_555
N10 O13 1.248739 1_555
N11 O17 1.255177 1_555
N11 O6 1.267384 1_545
