# generated using pymatgen
data_CuIrBr
_symmetry_space_group_name_H-M   'P 1'
_cell_length_a   4.25281595
_cell_length_b   4.25281595
_cell_length_c   4.25281595
_cell_angle_alpha   60.00000000
_cell_angle_beta   60.00000000
_cell_angle_gamma   60.00000000
_symmetry_Int_Tables_number   1
_chemical_formula_structural   CuIrBr
_chemical_formula_sum   'Cu1 Ir1 Br1'
_cell_volume   54.38946257
_cell_formula_units_Z   1
loop_
 _symmetry_equiv_pos_site_id
 _symmetry_equiv_pos_as_xyz
  1  'x, y, z'
loop_
 _atom_site_type_symbol
 _atom_site_label
 _atom_site_symmetry_multiplicity
 _atom_site_fract_x
 _atom_site_fract_y
 _atom_site_fract_z
 _atom_site_occupancy
  Cu  Cu0  1  0.75000000  0.75000000  0.75000000  1
  Ir  Ir0  1  0.00000000  0.00000000  0.00000000  1
  Br  Br0  1  0.50000000  0.50000000  0.50000000  1
loop_
_geom_bond_atom_site_label_1
_geom_bond_atom_site_label_2
_geom_bond_distance
_geom_bond_site_symmetry_2
Cu0 Ir0 2.604307 1_656
Cu0 Ir0 2.604307 1_666
Cu0 Ir0 2.604307 1_665
Cu0 Ir0 2.604307 1_566
Br0 Cu0 2.604307 1_554
Br0 Cu0 2.604307 1_555
Br0 Cu0 2.604307 1_545
Br0 Cu0 2.604307 1_455
Br0 Ir0 3.007195 1_565
Br0 Ir0 3.007195 1_656
Br0 Ir0 3.007195 1_665
Br0 Ir0 3.007195 1_655
Br0 Ir0 3.007195 1_556
Br0 Ir0 3.007195 1_566
