# generated using pymatgen
data_K9(NbAs3)2
_symmetry_space_group_name_H-M   'P 1'
_cell_length_a   9.34210200
_cell_length_b   9.46802100
_cell_length_c   12.84298965
_cell_angle_alpha   83.69474690
_cell_angle_beta   90.00000000
_cell_angle_gamma   90.00000000
_symmetry_Int_Tables_number   1
_chemical_formula_structural   K9(NbAs3)2
_chemical_formula_sum   'K18 Nb4 As12'
_cell_volume   1129.10642057
_cell_formula_units_Z   2
loop_
 _symmetry_equiv_pos_site_id
 _symmetry_equiv_pos_as_xyz
  1  'x, y, z'
loop_
 _atom_site_type_symbol
 _atom_site_label
 _atom_site_symmetry_multiplicity
 _atom_site_fract_x
 _atom_site_fract_y
 _atom_site_fract_z
 _atom_site_occupancy
  K  K0  1  0.33865700  0.58557300  0.16611300  1
  K  K1  1  0.42063500  0.93186900  0.58654500  1
  K  K2  1  0.44057400  0.62442300  0.89289300  1
  K  K3  1  0.46834600  0.18219900  0.30032000  1
  K  K4  1  0.53165400  0.18219900  0.80032000  1
  K  K5  1  0.55942600  0.62442300  0.39289300  1
  K  K6  1  0.57936500  0.93186900  0.08654500  1
  K  K7  1  0.66134300  0.58557300  0.66611300  1
  K  K8  1  0.80385400  0.01383400  0.59388600  1
  K  K9  1  0.83428900  0.40702000  0.33618900  1
  K  K10  1  0.92426100  0.06998200  0.90471200  1
  K  K11  1  0.94416500  0.39570900  0.60939100  1
  K  K12  1  0.93010900  0.80250600  0.21755200  1
  K  K13  1  0.06989100  0.80250600  0.71755200  1
  K  K14  1  0.05583500  0.39570900  0.10939100  1
  K  K15  1  0.07573900  0.06998200  0.40471200  1
  K  K16  1  0.16571100  0.40702000  0.83618900  1
  K  K17  1  0.19614600  0.01383400  0.09388600  1
  Nb  Nb0  1  0.32532800  0.34337000  0.55403500  1
  Nb  Nb1  1  0.67467200  0.34337000  0.05403500  1
  Nb  Nb2  1  0.82936000  0.65714200  0.94550000  1
  Nb  Nb3  1  0.17064000  0.65714200  0.44550000  1
  As  As0  1  0.30635000  0.58950400  0.62054700  1
  As  As1  1  0.29764600  0.84403000  0.32464700  1
  As  As2  1  0.41448900  0.28321400  0.03277200  1
  As  As3  1  0.58551100  0.28321400  0.53277200  1
  As  As4  1  0.70235400  0.84403000  0.82464700  1
  As  As5  1  0.69365000  0.58950400  0.12054700  1
  As  As6  1  0.80630100  0.41076700  0.87867200  1
  As  As7  1  0.81199500  0.15457100  0.16618000  1
  As  As8  1  0.91507400  0.72248600  0.47714600  1
  As  As9  1  0.08492600  0.72248600  0.97714600  1
  As  As10  1  0.18800500  0.15457100  0.66618000  1
  As  As11  1  0.19369900  0.41076700  0.37867200  1
loop_
_geom_bond_atom_site_label_1
_geom_bond_atom_site_label_2
_geom_bond_distance
_geom_bond_site_symmetry_2
As0 Nb0 2.574711 1_555
As0 Nb3 2.599098 1_555
As0 K13 3.324285 1_555
As0 K16 3.366071 1_555
As0 K7 3.367112 1_555
As0 K1 3.395161 1_555
As0 K5 3.746342 1_555
As0 K2 3.764283 1_555
As1 Nb3 2.518846 1_555
As1 K15 3.227208 1_565
As1 K5 3.266806 1_555
As1 K17 3.349712 1_565
As1 K0 3.372663 1_555
As1 K3 3.559833 1_565
As1 K1 3.733595 1_555
As1 K12 3.735574 1_455
As2 Nb1 2.518178 1_555
As2 K17 3.292731 1_555
As2 K4 3.413568 1_554
As2 K3 3.500417 1_555
As2 K2 3.528244 1_554
As2 K16 3.535486 1_554
As2 K0 3.564636 1_555
As2 K6 3.662062 1_545
As2 K14 3.682302 1_555
As3 Nb0 2.518178 1_555
As3 K8 3.292731 1_555
As3 K3 3.413568 1_555
As3 K4 3.500417 1_555
As3 K5 3.528244 1_555
As3 K9 3.535486 1_555
As3 K7 3.564636 1_555
As3 K1 3.662062 1_545
As3 K11 3.682302 1_555
As4 Nb2 2.518846 1_555
As4 K10 3.227208 1_565
As4 K2 3.266806 1_555
As4 K8 3.349712 1_565
As4 K7 3.372663 1_555
As4 K4 3.559833 1_565
As4 K6 3.733595 1_556
As4 K13 3.735574 1_655
As5 Nb1 2.574711 1_555
As5 Nb2 2.599098 1_554
As5 K12 3.324285 1_555
As5 K9 3.366071 1_555
As5 K0 3.367112 1_555
As5 K6 3.395161 1_555
As5 K2 3.746342 1_554
As5 K5 3.764283 1_555
As6 Nb2 2.581512 1_555
As6 Nb1 2.583795 1_556
As6 K7 3.321602 1_555
As6 K10 3.391151 1_555
As6 K16 3.402496 1_655
As6 K4 3.571752 1_555
As6 K11 3.707797 1_555
As6 K14 3.760583 1_656
As7 Nb1 2.519927 1_555
As7 K14 3.250833 1_655
As7 K6 3.269358 1_545
As7 K9 3.416146 1_555
As7 K12 3.504436 1_545
As7 K3 3.666333 1_555
As7 K10 3.688972 1_554
As8 Nb3 2.510667 1_655
As8 K12 3.339794 1_555
As8 K11 3.372934 1_555
As8 K8 3.441677 1_565
As8 K7 3.535240 1_555
As8 K13 3.565459 1_655
As8 K15 3.642900 1_665
As8 K5 3.645898 1_555
As8 K9 3.735729 1_555
As9 Nb2 2.510667 1_455
As9 K13 3.339794 1_555
As9 K14 3.372934 1_556
As9 K17 3.441677 1_566
As9 K0 3.535240 1_556
As9 K12 3.565459 1_456
As9 K10 3.642900 1_465
As9 K2 3.645898 1_555
As9 K16 3.735729 1_555
As10 Nb0 2.519927 1_555
As10 K11 3.250833 1_455
As10 K1 3.269358 1_545
As10 K16 3.416146 1_555
As10 K13 3.504436 1_545
As10 K4 3.666333 1_555
As10 K15 3.688972 1_555
As11 Nb3 2.581512 1_555
As11 Nb0 2.583795 1_555
As11 K0 3.321602 1_555
As11 K15 3.391151 1_555
As11 K9 3.402496 1_455
As11 K3 3.571752 1_555
As11 K14 3.707797 1_555
As11 K11 3.760583 1_455
