# generated using pymatgen
data_Cu2HgI4
_symmetry_space_group_name_H-M   'P 1'
_cell_length_a   7.11813338
_cell_length_b   7.11813338
_cell_length_c   19.45315700
_cell_angle_alpha   90.00000000
_cell_angle_beta   90.00000000
_cell_angle_gamma   117.16752005
_symmetry_Int_Tables_number   1
_chemical_formula_structural   Cu2HgI4
_chemical_formula_sum   'Cu4 Hg2 I8'
_cell_volume   876.90771872
_cell_formula_units_Z   2
loop_
 _symmetry_equiv_pos_site_id
 _symmetry_equiv_pos_as_xyz
  1  'x, y, z'
loop_
 _atom_site_type_symbol
 _atom_site_label
 _atom_site_symmetry_multiplicity
 _atom_site_fract_x
 _atom_site_fract_y
 _atom_site_fract_z
 _atom_site_occupancy
  Cu  Cu0  1  0.50000000  0.50000000  0.00000000  1
  Cu  Cu1  1  0.00000000  0.50000000  0.00000000  1
  Cu  Cu2  1  0.50000000  0.50000000  0.50000000  1
  Cu  Cu3  1  0.50000000  0.00000000  0.50000000  1
  Hg  Hg0  1  0.00000000  0.50000000  0.50000000  1
  Hg  Hg1  1  0.50000000  0.00000000  0.00000000  1
  I  I0  1  0.64927400  0.31913000  0.59699400  1
  I  I1  1  0.68087000  0.35072600  0.09699400  1
  I  I2  1  0.68087000  0.35072600  0.90300600  1
  I  I3  1  0.64927400  0.31913000  0.40300600  1
  I  I4  1  0.35072600  0.68087000  0.59699400  1
  I  I5  1  0.31913000  0.64927400  0.90300600  1
  I  I6  1  0.31913000  0.64927400  0.09699400  1
  I  I7  1  0.35072600  0.68087000  0.40300600  1
loop_
_geom_bond_atom_site_label_1
_geom_bond_atom_site_label_2
_geom_bond_distance
_geom_bond_site_symmetry_2
Cu0 I6 2.756076 1_555
Cu0 I1 2.756076 1_555
Cu0 I2 2.756076 1_554
Cu0 I5 2.756076 1_554
Cu1 I1 2.765001 1_455
Cu1 I6 2.765001 1_555
Cu1 I5 2.765001 1_554
Cu1 I2 2.765001 1_454
Cu2 I3 2.756076 1_555
Cu2 I4 2.756076 1_555
Cu2 I7 2.756076 1_555
Cu2 I0 2.756076 1_555
Cu3 I0 2.765001 1_555
Cu3 I3 2.765001 1_555
Cu3 I7 2.765001 1_545
Cu3 I4 2.765001 1_545
Hg0 I4 2.918076 1_555
Hg0 I0 2.918076 1_455
Hg0 I3 2.918076 1_455
Hg0 I7 2.918076 1_555
Hg1 I1 2.918076 1_555
Hg1 I6 2.918076 1_545
Hg1 I5 2.918076 1_544
Hg1 I2 2.918076 1_554
