# generated using pymatgen
data_Er2Zr2O7
_symmetry_space_group_name_H-M   'P 1'
_cell_length_a   3.59958500
_cell_length_b   7.50647100
_cell_length_c   10.59401500
_cell_angle_alpha   90.00000000
_cell_angle_beta   90.00000000
_cell_angle_gamma   90.00000000
_symmetry_Int_Tables_number   1
_chemical_formula_structural   Er2Zr2O7
_chemical_formula_sum   'Er4 Zr4 O14'
_cell_volume   286.25219661
_cell_formula_units_Z   2
loop_
 _symmetry_equiv_pos_site_id
 _symmetry_equiv_pos_as_xyz
  1  'x, y, z'
loop_
 _atom_site_type_symbol
 _atom_site_label
 _atom_site_symmetry_multiplicity
 _atom_site_fract_x
 _atom_site_fract_y
 _atom_site_fract_z
 _atom_site_occupancy
  Er  Er0  1  0.50000000  0.00000000  0.50000000  1
  Er  Er1  1  0.00000000  0.75000000  0.22620800  1
  Er  Er2  1  0.50000000  0.50000000  0.50000000  1
  Er  Er3  1  0.00000000  0.25000000  0.77379200  1
  Zr  Zr0  1  0.00000000  0.75000000  0.75405200  1
  Zr  Zr1  1  0.00000000  0.25000000  0.24594800  1
  Zr  Zr2  1  0.50000000  0.00000000  0.00000000  1
  Zr  Zr3  1  0.50000000  0.50000000  0.00000000  1
  O  O0  1  0.50000000  0.75000000  0.61866800  1
  O  O1  1  0.00000000  0.95603200  0.37134700  1
  O  O2  1  0.50000000  0.75000000  0.11295300  1
  O  O3  1  0.50000000  0.25000000  0.13267900  1
  O  O4  1  0.00000000  0.98238900  0.87992500  1
  O  O5  1  0.00000000  0.51761100  0.87992500  1
  O  O6  1  0.00000000  0.01761100  0.12007500  1
  O  O7  1  0.50000000  0.75000000  0.86732100  1
  O  O8  1  0.50000000  0.25000000  0.88704700  1
  O  O9  1  0.00000000  0.04396800  0.62865300  1
  O  O10  1  0.00000000  0.45603200  0.62865300  1
  O  O11  1  0.00000000  0.54396800  0.37134700  1
  O  O12  1  0.50000000  0.25000000  0.38133200  1
  O  O13  1  0.00000000  0.48238900  0.12007500  1
loop_
_geom_bond_atom_site_label_1
_geom_bond_atom_site_label_2
_geom_bond_distance
_geom_bond_site_symmetry_2
Er0 O0 2.258799 1_545
Er0 O12 2.258799 1_555
Er0 O1 2.281627 1_545
Er0 O9 2.281627 1_655
Er0 O9 2.281627 1_555
Er0 O1 2.281627 1_645
Er1 O2 2.163061 1_455
Er1 O2 2.163061 1_555
Er1 O11 2.180852 1_555
Er1 O1 2.180852 1_555
Er1 O13 2.302076 1_555
Er1 O6 2.302076 1_565
Er2 O12 2.258799 1_555
Er2 O0 2.258799 1_555
Er2 O10 2.281627 1_555
Er2 O11 2.281627 1_655
Er2 O11 2.281627 1_555
Er2 O10 2.281627 1_655
Er3 O8 2.163061 1_555
Er3 O8 2.163061 1_455
Er3 O9 2.180852 1_555
Er3 O10 2.180852 1_555
Er3 O5 2.302076 1_555
Er3 O4 2.302076 1_545
O0 Zr0 2.301381 1_655
O0 Zr0 2.301381 1_555
O1 Zr1 2.575697 1_565
O2 Zr3 2.225670 1_555
O2 Zr2 2.225670 1_565
O3 Zr1 2.163143 1_555
O3 Zr1 2.163143 1_655
O3 Zr3 2.344657 1_555
O3 Zr2 2.344657 1_555
O4 Zr0 2.195730 1_555
O4 Zr2 2.207919 1_466
O4 Zr2 2.207919 1_566
O5 Zr0 2.195730 1_555
O5 Zr3 2.207919 1_456
O5 Zr3 2.207919 1_556
O6 Zr1 2.195730 1_555
O6 Zr2 2.207919 1_455
O6 Zr2 2.207919 1_555
O7 Zr0 2.163143 1_555
O7 Zr0 2.163143 1_655
O7 Zr3 2.344657 1_556
O7 Zr2 2.344657 1_566
O8 Zr3 2.225670 1_556
O8 Zr2 2.225670 1_556
O9 Zr0 2.575697 1_545
O10 Zr0 2.575697 1_555
O11 Zr1 2.575697 1_555
O12 Zr1 2.301381 1_655
O12 Zr1 2.301381 1_555
O13 Zr1 2.195730 1_555
O13 Zr3 2.207919 1_555
O13 Zr3 2.207919 1_455
