# generated using pymatgen
data_CdIn2O4
_symmetry_space_group_name_H-M   'P 1'
_cell_length_a   6.58383083
_cell_length_b   6.58383083
_cell_length_c   6.58383083
_cell_angle_alpha   120.99928837
_cell_angle_beta   119.14600652
_cell_angle_gamma   89.88172647
_symmetry_Int_Tables_number   1
_chemical_formula_structural   CdIn2O4
_chemical_formula_sum   'Cd2 In4 O8'
_cell_volume   201.51178639
_cell_formula_units_Z   2
loop_
 _symmetry_equiv_pos_site_id
 _symmetry_equiv_pos_as_xyz
  1  'x, y, z'
loop_
 _atom_site_type_symbol
 _atom_site_label
 _atom_site_symmetry_multiplicity
 _atom_site_fract_x
 _atom_site_fract_y
 _atom_site_fract_z
 _atom_site_occupancy
  Cd  Cd0  1  0.50000000  0.00000000  0.00000000  1
  Cd  Cd1  1  0.50000000  0.50000000  0.50000000  1
  In  In0  1  0.88357200  0.13357200  0.75000000  1
  In  In1  1  0.11642800  0.86642800  0.25000000  1
  In  In2  1  0.50000000  0.50000000  0.00000000  1
  In  In3  1  0.00000000  0.50000000  0.50000000  1
  O  O0  1  0.24800000  0.72885200  0.98085200  1
  O  O1  1  0.24800000  0.26714800  0.51914800  1
  O  O2  1  0.72993600  0.73473700  0.99519900  1
  O  O3  1  0.23953800  0.73473700  0.50480100  1
  O  O4  1  0.76046200  0.26526300  0.49519900  1
  O  O5  1  0.27006400  0.26526300  0.00480100  1
  O  O6  1  0.75200000  0.73285200  0.48085200  1
  O  O7  1  0.75200000  0.27114800  0.01914800  1
loop_
_geom_bond_atom_site_label_1
_geom_bond_atom_site_label_2
_geom_bond_distance
_geom_bond_site_symmetry_2
Cd0 O3 2.306877 1_544
Cd0 O4 2.306877 1_555
Cd0 O5 2.306877 1_555
Cd0 O2 2.306877 1_544
Cd0 O0 2.352057 1_544
Cd0 O7 2.352057 1_555
Cd1 O3 2.306877 1_555
Cd1 O4 2.306877 1_555
Cd1 O5 2.306877 1_555
Cd1 O2 2.306877 1_555
Cd1 O6 2.352057 1_555
Cd1 O1 2.352057 1_555
In0 O4 2.096135 1_555
In0 O5 2.096135 1_656
In0 O7 2.132971 1_556
In0 O6 2.132971 1_545
In1 O2 2.096135 1_454
In1 O3 2.096135 1_555
In1 O1 2.132971 1_565
In1 O0 2.132971 1_554
In2 O5 2.188112 1_555
In2 O2 2.188112 1_554
In2 O6 2.240625 1_555
In2 O7 2.240625 1_555
In2 O1 2.240625 1_554
In2 O0 2.240625 1_554
In3 O3 2.188112 1_555
In3 O4 2.188112 1_455
In3 O1 2.240625 1_555
In3 O0 2.240625 1_555
In3 O6 2.240625 1_455
In3 O7 2.240625 1_455
