# generated using pymatgen
data_Li2TiSiO5
_symmetry_space_group_name_H-M   'P 1'
_cell_length_a   6.47663200
_cell_length_b   6.47663200
_cell_length_c   4.49141300
_cell_angle_alpha   90.00000000
_cell_angle_beta   90.00000000
_cell_angle_gamma   90.00000000
_symmetry_Int_Tables_number   1
_chemical_formula_structural   Li2TiSiO5
_chemical_formula_sum   'Li4 Ti2 Si2 O10'
_cell_volume   188.40023244
_cell_formula_units_Z   2
loop_
 _symmetry_equiv_pos_site_id
 _symmetry_equiv_pos_as_xyz
  1  'x, y, z'
loop_
 _atom_site_type_symbol
 _atom_site_label
 _atom_site_symmetry_multiplicity
 _atom_site_fract_x
 _atom_site_fract_y
 _atom_site_fract_z
 _atom_site_occupancy
  Li  Li0  1  0.75000000  0.25000000  0.50000000  1
  Li  Li1  1  0.25000000  0.75000000  0.50000000  1
  Li  Li2  1  0.25000000  0.25000000  0.50000000  1
  Li  Li3  1  0.75000000  0.75000000  0.50000000  1
  Ti  Ti0  1  0.50000000  0.00000000  0.90685700  1
  Ti  Ti1  1  0.00000000  0.50000000  0.09314300  1
  Si  Si0  1  0.50000000  0.50000000  0.00000000  1
  Si  Si1  1  0.00000000  0.00000000  0.00000000  1
  O  O0  1  0.50000000  0.00000000  0.28994600  1
  O  O1  1  0.00000000  0.50000000  0.71005400  1
  O  O2  1  0.50000000  0.29471400  0.78396000  1
  O  O3  1  0.50000000  0.70528600  0.78396000  1
  O  O4  1  0.70528600  0.50000000  0.21604000  1
  O  O5  1  0.00000000  0.79471400  0.21604000  1
  O  O6  1  0.00000000  0.20528600  0.21604000  1
  O  O7  1  0.29471400  0.50000000  0.21604000  1
  O  O8  1  0.79471400  0.00000000  0.78396000  1
  O  O9  1  0.20528600  0.00000000  0.78396000  1
loop_
_geom_bond_atom_site_label_1
_geom_bond_atom_site_label_2
_geom_bond_distance
_geom_bond_site_symmetry_2
Li0 O4 2.081379 1_555
Li0 O6 2.081379 1_655
Li0 O8 2.081379 1_555
Li0 O2 2.081379 1_555
Li0 O0 2.476575 1_555
Li0 O1 2.476575 1_655
Li1 O3 2.081379 1_555
Li1 O9 2.081379 1_565
Li1 O7 2.081379 1_555
Li1 O5 2.081379 1_555
Li1 O0 2.476575 1_565
Li1 O1 2.476575 1_555
Li2 O9 2.081379 1_555
Li2 O6 2.081379 1_555
Li2 O7 2.081379 1_555
Li2 O2 2.081379 1_555
Li2 O0 2.476575 1_555
Li2 O1 2.476575 1_555
Li3 O3 2.081379 1_555
Li3 O4 2.081379 1_555
Li3 O5 2.081379 1_655
Li3 O8 2.081379 1_565
Li3 O0 2.476575 1_565
Li3 O1 2.476575 1_655
O0 Ti0 1.720611 1_554
O1 Ti1 1.720611 1_556
O2 Si0 1.645985 1_556
O2 Ti0 1.986964 1_555
O3 Si0 1.645985 1_556
O3 Ti0 1.986964 1_565
O4 Si0 1.645985 1_555
O4 Ti1 1.986964 1_655
O5 Si1 1.645985 1_565
O5 Ti1 1.986964 1_555
O6 Si1 1.645985 1_555
O6 Ti1 1.986964 1_555
O7 Si0 1.645985 1_555
O7 Ti1 1.986964 1_555
O8 Si1 1.645985 1_656
O8 Ti0 1.986964 1_555
O9 Si1 1.645985 1_556
O9 Ti0 1.986964 1_555
