# generated using pymatgen
data_Ca19Si6S6(ClO24)2
_symmetry_space_group_name_H-M   'P 1'
_cell_length_a   13.78476200
_cell_length_b   9.72076200
_cell_length_c   9.75081759
_cell_angle_alpha   60.17154545
_cell_angle_beta   90.00000000
_cell_angle_gamma   90.00000000
_symmetry_Int_Tables_number   1
_chemical_formula_structural   Ca19Si6S6(ClO24)2
_chemical_formula_sum   'Ca19 Si6 S6 Cl2 O48'
_cell_volume   1133.49439630
_cell_formula_units_Z   1
loop_
 _symmetry_equiv_pos_site_id
 _symmetry_equiv_pos_as_xyz
  1  'x, y, z'
loop_
 _atom_site_type_symbol
 _atom_site_label
 _atom_site_symmetry_multiplicity
 _atom_site_fract_x
 _atom_site_fract_y
 _atom_site_fract_z
 _atom_site_occupancy
  Ca  Ca0  1  0.00000000  0.02021500  0.72559600  1
  Ca  Ca1  1  0.50000000  0.02072400  0.73985700  1
  Ca  Ca2  1  0.00000000  0.29272900  0.95688700  1
  Ca  Ca3  1  0.50000000  0.27811400  0.95771400  1
  Ca  Ca4  1  0.87672300  0.67152400  0.67094200  1
  Ca  Ca5  1  0.12327700  0.67152400  0.67094200  1
  Ca  Ca6  1  0.63144300  0.65763900  0.68561800  1
  Ca  Ca7  1  0.36855700  0.65763900  0.68561800  1
  Ca  Ca8  1  0.74899500  0.25771400  0.74821600  1
  Ca  Ca9  1  0.25100500  0.25771400  0.74821600  1
  Ca  Ca10  1  0.50000000  0.73182300  0.25922900  1
  Ca  Ca11  1  0.87213300  0.34084900  0.34739100  1
  Ca  Ca12  1  0.63012100  0.32625800  0.35497400  1
  Ca  Ca13  1  0.36987900  0.32625800  0.35497400  1
  Ca  Ca14  1  0.12786700  0.34084900  0.34739100  1
  Ca  Ca15  1  0.75133600  0.74786000  0.97500500  1
  Ca  Ca16  1  0.24866400  0.74786000  0.97500500  1
  Ca  Ca17  1  0.75026800  0.02407900  0.26817500  1
  Ca  Ca18  1  0.24973200  0.02407900  0.26817500  1
  Si  Si0  1  0.74942800  0.39094000  0.97770800  1
  Si  Si1  1  0.25057200  0.39094000  0.97770800  1
  Si  Si2  1  0.74938100  0.96697000  0.63100700  1
  Si  Si3  1  0.25061900  0.96697000  0.63100700  1
  Si  Si4  1  0.00000000  0.36800700  0.60721100  1
  Si  Si5  1  0.50000000  0.38630600  0.58521300  1
  S  S0  1  0.25232500  0.64464200  0.39047700  1
  S  S1  1  0.74767500  0.64464200  0.39047700  1
  S  S2  1  0.00000000  0.02572600  0.36294600  1
  S  S3  1  0.50000000  0.03155200  0.37415400  1
  S  S4  1  0.00000000  0.59976200  0.03402500  1
  S  S5  1  0.50000000  0.58093700  0.03860700  1
  Cl  Cl0  1  0.64762900  0.98980700  0.01459500  1
  Cl  Cl1  1  0.35237100  0.98980700  0.01459500  1
  O  O0  1  0.84158200  0.91448300  0.75624300  1
  O  O1  1  0.64922600  0.89743900  0.73800700  1
  O  O2  1  0.35077400  0.89743900  0.73800700  1
  O  O3  1  0.15841800  0.91448300  0.75624300  1
  O  O4  1  0.00000000  0.65524000  0.85944200  1
  O  O5  1  0.50000000  0.63954100  0.86586300  1
  O  O6  1  0.76583900  0.58538300  0.87333500  1
  O  O7  1  0.23416100  0.58538300  0.87333500  1
  O  O8  1  0.83468400  0.29829400  0.93743400  1
  O  O9  1  0.34978300  0.36871000  0.89628600  1
  O  O10  1  0.65021700  0.36871000  0.89628600  1
  O  O11  1  0.16531600  0.29829400  0.93743400  1
  O  O12  1  0.24184900  0.86667700  0.53437200  1
  O  O13  1  0.75815100  0.86667700  0.53437200  1
  O  O14  1  0.00000000  0.49239400  0.67835600  1
  O  O15  1  0.50000000  0.51492900  0.64744300  1
  O  O16  1  0.00000000  0.85827100  0.49179200  1
  O  O17  1  0.50000000  0.85810200  0.48210200  1
  O  O18  1  0.76527300  0.54654900  0.56651500  1
  O  O19  1  0.23472700  0.54654900  0.56651500  1
  O  O20  1  0.90638400  0.24448100  0.67678100  1
  O  O21  1  0.40526000  0.26680000  0.64314600  1
  O  O22  1  0.09361600  0.24448100  0.67678100  1
  O  O23  1  0.59474000  0.26680000  0.64314600  1
  O  O24  1  0.65111600  0.72192900  0.37026300  1
  O  O25  1  0.17779800  0.76667300  0.31261800  1
  O  O26  1  0.82220200  0.76667300  0.31261800  1
  O  O27  1  0.34888400  0.72192900  0.37026300  1
  O  O28  1  0.00000000  0.44484000  0.41532100  1
  O  O29  1  0.50000000  0.47079200  0.38935800  1
  O  O30  1  0.75113100  0.15815400  0.50605400  1
  O  O31  1  0.24886900  0.15815400  0.50605400  1
  O  O32  1  0.74594200  0.53541200  0.32307700  1
  O  O33  1  0.25405800  0.53541200  0.32307700  1
  O  O34  1  0.00000000  0.12848000  0.43963600  1
  O  O35  1  0.50000000  0.11976500  0.46450100  1
  O  O36  1  0.08841600  0.65384400  0.07775300  1
  O  O37  1  0.91158400  0.65384400  0.07775300  1
  O  O38  1  0.58720600  0.63931700  0.08439600  1
  O  O39  1  0.41279400  0.63931700  0.08439600  1
  O  O40  1  0.00000000  0.41967100  0.12030500  1
  O  O41  1  0.50000000  0.40362000  0.12712600  1
  O  O42  1  0.74589300  0.32248900  0.16989500  1
  O  O43  1  0.25410700  0.32248900  0.16989500  1
  O  O44  1  0.08565600  0.06771200  0.25854200  1
  O  O45  1  0.91434400  0.06771200  0.25854200  1
  O  O46  1  0.58649900  0.08400200  0.27013500  1
  O  O47  1  0.41350100  0.08400200  0.27013500  1
loop_
_geom_bond_atom_site_label_1
_geom_bond_atom_site_label_2
_geom_bond_distance
_geom_bond_site_symmetry_2
Ca0 O0 2.368312 1_445
Ca0 O3 2.368312 1_545
Ca0 O22 2.369001 1_555
Ca0 O20 2.369001 1_455
Ca0 O34 2.441961 1_555
Ca1 O35 2.358878 1_555
Ca1 O1 2.385264 1_545
Ca1 O2 2.385264 1_545
Ca1 O21 2.464283 1_555
Ca1 O23 2.464283 1_555
Ca1 Cl1 3.256893 1_546
Ca1 Cl0 3.256893 1_546
Ca2 O11 2.285130 1_555
Ca2 O8 2.285130 1_455
Ca2 O14 2.428845 1_555
Ca2 O40 2.453137 1_556
Ca3 O9 2.213007 1_555
Ca3 O10 2.213007 1_555
Ca3 O41 2.494416 1_556
Ca3 O15 2.742981 1_555
Ca3 Cl1 3.279786 1_546
Ca3 Cl0 3.279786 1_546
Ca4 O6 2.299621 1_555
Ca4 O13 2.351706 1_555
Ca4 O14 2.408283 1_655
Ca4 O4 2.449845 1_655
Ca4 O16 2.465772 1_655
Ca4 O18 2.470537 1_555
Ca5 O7 2.299621 1_555
Ca5 O12 2.351706 1_555
Ca5 O14 2.408283 1_555
Ca5 O4 2.449845 1_555
Ca5 O16 2.465772 1_555
Ca5 O19 2.470537 1_555
Ca6 O15 2.420692 1_555
Ca6 O6 2.448859 1_555
Ca6 O5 2.468868 1_555
Ca6 O13 2.524592 1_555
Ca6 O10 2.536825 1_555
Ca6 O1 2.634271 1_555
Ca6 O18 2.676907 1_555
Ca6 O17 2.677942 1_555
Ca6 O24 2.829809 1_555
Ca7 O15 2.420692 1_555
Ca7 O7 2.448859 1_555
Ca7 O5 2.468868 1_555
Ca7 O12 2.524592 1_555
Ca7 O9 2.536825 1_555
Ca7 O2 2.634271 1_555
Ca7 O19 2.676907 1_555
Ca7 O17 2.677942 1_555
Ca7 O27 2.829809 1_555
Ca8 O20 2.301716 1_555
Ca8 O23 2.342832 1_555
Ca8 O8 2.383067 1_555
Ca8 O18 2.474647 1_555
Ca8 O10 2.579245 1_555
Ca8 Cl0 2.958371 1_546
Ca8 O30 2.964206 1_555
Ca9 O22 2.301716 1_555
Ca9 O21 2.342832 1_555
Ca9 O11 2.383067 1_555
Ca9 O19 2.474647 1_555
Ca9 O9 2.579245 1_555
Ca9 Cl1 2.958371 1_546
Ca9 O31 2.964206 1_555
Ca10 O29 2.201269 1_555
Ca10 O27 2.327475 1_555
Ca10 O24 2.327475 1_555
Ca10 O38 2.585523 1_555
Ca10 O39 2.585523 1_555
Ca10 O17 2.980505 1_555
Ca10 Cl0 3.188957 1_555
Ca10 Cl1 3.188957 1_555
Ca11 O28 2.287688 1_655
Ca11 O30 2.365658 1_555
Ca11 O32 2.492602 1_555
Ca11 O34 2.516018 1_655
Ca11 O42 2.522464 1_555
Ca11 O40 2.628519 1_655
Ca11 O20 2.902263 1_555
Ca11 O37 2.916774 1_555
Ca12 O30 2.286529 1_555
Ca12 O29 2.402561 1_555
Ca12 O42 2.422978 1_555
Ca12 O32 2.479986 1_555
Ca12 O35 2.500885 1_555
Ca12 O23 2.617613 1_555
Ca12 O41 2.656450 1_555
Ca12 O46 2.920536 1_555
Ca12 O38 2.929928 1_555
Ca13 O31 2.286529 1_555
Ca13 O29 2.402561 1_555
Ca13 O43 2.422978 1_555
Ca13 O33 2.479986 1_555
Ca13 O35 2.500885 1_555
Ca13 O21 2.617613 1_555
Ca13 O41 2.656450 1_555
Ca13 O47 2.920536 1_555
Ca13 O39 2.929928 1_555
Ca14 O28 2.287688 1_555
Ca14 O31 2.365658 1_555
Ca14 O33 2.492602 1_555
Ca14 O34 2.516018 1_555
Ca14 O43 2.522464 1_555
Ca14 O40 2.628519 1_555
Ca14 O22 2.902263 1_555
Ca14 O36 2.916774 1_555
Ca15 O6 2.252757 1_555
Ca15 O0 2.298718 1_555
Ca15 O37 2.409919 1_556
Ca15 O1 2.468418 1_555
Ca15 O38 2.500059 1_556
Ca15 Cl0 2.937243 1_556
Ca15 O32 2.969312 1_556
Ca16 O7 2.252757 1_555
Ca16 O3 2.298718 1_555
Ca16 O36 2.409919 1_556
Ca16 O2 2.468418 1_555
Ca16 O39 2.500059 1_556
Ca16 Cl1 2.937243 1_556
Ca16 O33 2.969312 1_556
Ca17 O13 2.267017 1_545
Ca17 O45 2.294471 1_555
Ca17 O46 2.333908 1_555
Ca17 O26 2.520568 1_545
Ca17 O42 2.563409 1_555
Ca17 O24 2.928680 1_545
Ca17 Cl0 3.007672 1_545
Ca18 O12 2.267017 1_545
Ca18 O44 2.294471 1_555
Ca18 O47 2.333908 1_555
Ca18 O25 2.520568 1_545
Ca18 O43 2.563409 1_555
Ca18 O27 2.928680 1_545
Ca18 Cl1 3.007672 1_545
O0 Si2 1.657432 1_555
O1 Si2 1.658298 1_555
O2 Si3 1.658298 1_555
O3 Si3 1.657432 1_555
O4 S4 1.508466 1_556
O5 S5 1.485644 1_556
O6 Si0 1.657074 1_555
O7 Si1 1.657074 1_555
O8 Si0 1.642645 1_555
O9 Si1 1.648643 1_555
O10 Si0 1.648643 1_555
O11 Si1 1.642645 1_555
O12 Si3 1.663382 1_555
O13 Si2 1.663382 1_555
O14 Si4 1.666647 1_555
O15 Si5 1.638971 1_555
O16 S2 1.481101 1_565
O17 S3 1.478254 1_565
O18 S1 1.512031 1_555
O19 S0 1.512031 1_555
O20 Si4 1.660426 1_655
O21 Si5 1.649653 1_555
O22 Si4 1.660426 1_555
O23 Si5 1.649653 1_555
O24 S1 1.492530 1_555
O25 S0 1.463912 1_555
O26 S1 1.463912 1_555
O27 S0 1.492530 1_555
O28 Si4 1.633575 1_555
O29 Si5 1.661728 1_555
O30 Si2 1.639006 1_545
O31 Si3 1.639006 1_545
O32 S1 1.501367 1_555
O33 S0 1.501367 1_555
O34 S2 1.516554 1_555
O35 S3 1.504289 1_555
O36 S4 1.471949 1_555
O37 S4 1.471949 1_655
O38 S5 1.489476 1_555
O39 S5 1.489476 1_555
O40 S4 1.518983 1_555
O41 S5 1.495315 1_555
O42 Si0 1.648169 1_554
O43 Si1 1.648169 1_554
O44 S2 1.477761 1_555
O45 S2 1.477761 1_655
O46 S3 1.481888 1_555
O47 S3 1.481888 1_555
