# generated using pymatgen
data_Rb5Te3H4NCl18
_symmetry_space_group_name_H-M   'P 1'
_cell_length_a   7.41572951
_cell_length_b   7.41572951
_cell_length_c   18.16612600
_cell_angle_alpha   90.00000000
_cell_angle_beta   90.00000000
_cell_angle_gamma   119.99999561
_symmetry_Int_Tables_number   1
_chemical_formula_structural   Rb5Te3H4NCl18
_chemical_formula_sum   'Rb5 Te3 H4 N1 Cl18'
_cell_volume   865.16856965
_cell_formula_units_Z   1
loop_
 _symmetry_equiv_pos_site_id
 _symmetry_equiv_pos_as_xyz
  1  'x, y, z'
loop_
 _atom_site_type_symbol
 _atom_site_label
 _atom_site_symmetry_multiplicity
 _atom_site_fract_x
 _atom_site_fract_y
 _atom_site_fract_z
 _atom_site_occupancy
  Rb  Rb0  1  0.66666700  0.33333300  0.91679300  1
  Rb  Rb1  1  0.33333300  0.66666700  0.58332000  1
  Rb  Rb2  1  0.00000000  0.00000000  0.74998700  1
  Rb  Rb3  1  0.00000000  0.00000000  0.24989300  1
  Rb  Rb4  1  0.66666700  0.33333300  0.41666300  1
  Te  Te0  1  0.00000000  0.00000000  0.00044500  1
  Te  Te1  1  0.66666700  0.33333300  0.66665800  1
  Te  Te2  1  0.33333300  0.66666700  0.33288800  1
  H  H0  1  0.18149500  0.59074800  0.10231400  1
  H  H1  1  0.33333300  0.66666700  0.02633100  1
  H  H2  1  0.40925200  0.59074800  0.10231400  1
  H  H3  1  0.40925200  0.81850500  0.10231400  1
  N  N0  1  0.33333300  0.66666700  0.08341600  1
  Cl  Cl0  1  0.99281300  0.49640600  0.74819700  1
  Cl  Cl1  1  0.16303900  0.32607800  0.91854800  1
  Cl  Cl2  1  0.16303900  0.83696100  0.91854800  1
  Cl  Cl3  1  0.50359400  0.49640600  0.74819700  1
  Cl  Cl4  1  0.65912800  0.82956400  0.41469800  1
  Cl  Cl5  1  0.82974400  0.65948800  0.58512600  1
  Cl  Cl6  1  0.50359400  0.00718700  0.74819700  1
  Cl  Cl7  1  0.67392200  0.83696100  0.91854800  1
  Cl  Cl8  1  0.17043600  0.82956400  0.41469800  1
  Cl  Cl9  1  0.82974400  0.17025600  0.58512600  1
  Cl  Cl10  1  0.32711100  0.16355500  0.08186500  1
  Cl  Cl11  1  0.49674100  0.99348200  0.25156400  1
  Cl  Cl12  1  0.17043600  0.34087200  0.41469800  1
  Cl  Cl13  1  0.34051200  0.17025600  0.58512600  1
  Cl  Cl14  1  0.83644500  0.16355500  0.08186500  1
  Cl  Cl15  1  0.49674100  0.50325900  0.25156400  1
  Cl  Cl16  1  0.83644500  0.67288900  0.08186500  1
  Cl  Cl17  1  0.00651800  0.50325900  0.25156400  1
loop_
_geom_bond_atom_site_label_1
_geom_bond_atom_site_label_2
_geom_bond_distance
_geom_bond_site_symmetry_2
H0 N0 1.033802 1_555
H1 N0 1.037013 1_555
H2 N0 1.033802 1_555
H3 N0 1.033802 1_555
Cl0 Te1 2.565415 1_555
Cl0 Rb2 3.708291 1_655
Cl0 Rb2 3.708298 1_665
Cl0 Rb1 3.708581 1_655
Cl0 Rb0 3.710473 1_555
Cl1 Te0 2.568819 1_556
Cl1 Rb0 3.708291 1_455
Cl1 Rb0 3.708298 1_555
Cl1 Rb2 3.709702 1_555
Cl2 Te0 2.568819 1_566
Cl2 Rb0 3.708295 1_455
Cl2 Rb0 3.708295 1_565
Cl2 Rb2 3.709702 1_565
Cl3 Te1 2.565415 1_555
Cl3 Rb2 3.708295 1_555
Cl3 Rb2 3.708295 1_665
Cl3 Rb1 3.708589 1_555
Cl3 Rb0 3.710473 1_555
Cl4 Te2 2.566422 1_555
Cl4 Rb4 3.708349 1_565
Cl4 Rb4 3.708356 1_555
Cl4 Rb3 3.708859 1_665
Cl4 Rb1 3.709591 1_555
Cl5 Te1 2.565389 1_555
Cl5 Rb1 3.708293 1_655
Cl5 Rb1 3.708300 1_555
Cl5 Rb2 3.708316 1_665
Cl5 Rb4 3.708512 1_555
Cl6 Te1 2.565415 1_555
Cl6 Rb2 3.708291 1_655
Cl6 Rb2 3.708298 1_555
Cl6 Rb1 3.708581 1_545
Cl6 Rb0 3.710473 1_555
Cl7 Te0 2.568819 1_666
Cl7 Rb0 3.708291 1_565
Cl7 Rb0 3.708298 1_555
Cl7 Rb2 3.709702 1_665
Cl8 Te2 2.566417 1_555
Cl8 Rb4 3.708353 1_455
Cl8 Rb4 3.708353 1_565
Cl8 Rb3 3.708859 1_565
Cl8 Rb1 3.709587 1_555
Cl9 Te1 2.565383 1_555
Cl9 Rb1 3.708297 1_545
Cl9 Rb1 3.708297 1_655
Cl9 Rb2 3.708316 1_655
Cl9 Rb4 3.708508 1_555
Cl10 Te0 2.569232 1_555
Cl10 Rb3 3.705471 1_555
Cl10 Rb0 3.707798 1_554
Cl11 Te2 2.566674 1_555
Cl11 Rb3 3.708225 1_565
Cl11 Rb3 3.708225 1_665
Cl11 Rb4 3.709309 1_565
Cl12 Te2 2.566422 1_555
Cl12 Rb4 3.708349 1_455
Cl12 Rb4 3.708356 1_555
Cl12 Rb3 3.708859 1_555
Cl12 Rb1 3.709591 1_555
Cl13 Te1 2.565389 1_555
Cl13 Rb1 3.708293 1_545
Cl13 Rb1 3.708300 1_555
Cl13 Rb2 3.708316 1_555
Cl13 Rb4 3.708512 1_555
Cl14 Te0 2.569227 1_655
Cl14 Rb3 3.705467 1_655
Cl14 Rb0 3.707798 1_554
Cl15 Te2 2.566679 1_555
Cl15 Rb3 3.708226 1_665
Cl15 Rb3 3.708226 1_555
Cl15 Rb4 3.709313 1_555
Cl16 Te0 2.569232 1_665
Cl16 Rb3 3.705471 1_665
Cl16 Rb0 3.707798 1_554
Cl17 Te2 2.566674 1_555
Cl17 Rb3 3.708225 1_565
Cl17 Rb3 3.708225 1_555
Cl17 Rb4 3.709309 1_455
