# generated using pymatgen
data_U6Fe16Si7
_symmetry_space_group_name_H-M   'P 1'
_cell_length_a   8.21798653
_cell_length_b   8.21798653
_cell_length_c   8.21798653
_cell_angle_alpha   60.00000000
_cell_angle_beta   60.00000000
_cell_angle_gamma   60.00000000
_symmetry_Int_Tables_number   1
_chemical_formula_structural   U6Fe16Si7
_chemical_formula_sum   'U6 Fe16 Si7'
_cell_volume   392.44723783
_cell_formula_units_Z   1
loop_
 _symmetry_equiv_pos_site_id
 _symmetry_equiv_pos_as_xyz
  1  'x, y, z'
loop_
 _atom_site_type_symbol
 _atom_site_label
 _atom_site_symmetry_multiplicity
 _atom_site_fract_x
 _atom_site_fract_y
 _atom_site_fract_z
 _atom_site_occupancy
  U  U0  1  0.78187400  0.21812600  0.78187400  1
  U  U1  1  0.21812600  0.78187400  0.21812600  1
  U  U2  1  0.21812600  0.21812600  0.78187400  1
  U  U3  1  0.78187400  0.78187400  0.21812600  1
  U  U4  1  0.21812600  0.78187400  0.78187400  1
  U  U5  1  0.78187400  0.21812600  0.21812600  1
  Fe  Fe0  1  0.17054400  0.17054400  0.17054400  1
  Fe  Fe1  1  0.17054400  0.17054400  0.48836900  1
  Fe  Fe2  1  0.82945600  0.82945600  0.51163100  1
  Fe  Fe3  1  0.82945600  0.51163100  0.82945600  1
  Fe  Fe4  1  0.62188300  0.13435100  0.62188300  1
  Fe  Fe5  1  0.82945600  0.82945600  0.82945600  1
  Fe  Fe6  1  0.37811700  0.37811700  0.37811700  1
  Fe  Fe7  1  0.62188300  0.62188300  0.62188300  1
  Fe  Fe8  1  0.48836900  0.17054400  0.17054400  1
  Fe  Fe9  1  0.51163100  0.82945600  0.82945600  1
  Fe  Fe10  1  0.17054400  0.48836900  0.17054400  1
  Fe  Fe11  1  0.62188300  0.62188300  0.13435100  1
  Fe  Fe12  1  0.37811700  0.37811700  0.86564900  1
  Fe  Fe13  1  0.86564900  0.37811700  0.37811700  1
  Fe  Fe14  1  0.37811700  0.86564900  0.37811700  1
  Fe  Fe15  1  0.13435100  0.62188300  0.62188300  1
  Si  Si0  1  0.50000000  0.50000000  0.00000000  1
  Si  Si1  1  0.50000000  0.50000000  0.50000000  1
  Si  Si2  1  0.50000000  0.00000000  0.50000000  1
  Si  Si3  1  0.00000000  0.00000000  0.50000000  1
  Si  Si4  1  0.00000000  0.50000000  0.50000000  1
  Si  Si5  1  0.00000000  0.50000000  0.00000000  1
  Si  Si6  1  0.50000000  0.00000000  0.00000000  1
loop_
_geom_bond_atom_site_label_1
_geom_bond_atom_site_label_2
_geom_bond_distance
_geom_bond_site_symmetry_2
Fe0 Si5 2.373612 1_555
Fe0 Si6 2.373612 1_555
Fe0 Si3 2.373612 1_555
Fe0 Fe13 2.541533 1_455
Fe0 Fe12 2.541533 1_554
Fe0 Fe14 2.541533 1_545
Fe0 Fe8 2.611882 1_555
Fe0 Fe10 2.611882 1_555
Fe0 Fe1 2.611882 1_555
Fe0 U2 2.857085 1_554
Fe0 U5 2.857085 1_455
Fe0 U1 2.857085 1_545
Fe1 Si4 2.373609 1_555
Fe1 Si2 2.373609 1_555
Fe1 Si3 2.373616 1_555
Fe1 Fe6 2.541531 1_555
Fe1 Fe14 2.541538 1_545
Fe1 Fe13 2.541538 1_455
Fe1 Fe8 2.611882 1_555
Fe1 Fe10 2.611882 1_555
Fe1 U2 2.857077 1_555
Fe1 U0 2.857082 1_455
Fe1 U4 2.857082 1_545
Fe2 Si2 2.373609 1_565
Fe2 Si4 2.373609 1_655
Fe2 Si3 2.373616 1_665
Fe2 Fe7 2.541531 1_555
Fe2 Fe4 2.541538 1_565
Fe2 Fe5 2.611882 1_555
Fe2 Fe9 2.611882 1_555
Fe2 Fe3 2.611882 1_555
Fe2 U3 2.857077 1_555
Fe2 U1 2.857082 1_655
Fe2 U5 2.857082 1_565
Fe3 Si4 2.373609 1_655
Fe3 Si0 2.373609 1_556
Fe3 Si5 2.373616 1_656
Fe3 Fe7 2.541531 1_555
Fe3 Fe5 2.611882 1_555
Fe3 Fe9 2.611882 1_555
Fe3 U0 2.857077 1_555
Fe3 U5 2.857082 1_556
Fe3 U2 2.857082 1_655
Fe4 Si1 2.453489 1_555
Fe4 Si2 2.537839 1_555
Fe4 Si6 2.537839 1_556
Fe4 Si3 2.537839 1_655
Fe4 Fe5 2.541533 1_545
Fe4 Fe9 2.541538 1_545
Fe4 U2 2.733220 1_555
Fe4 U0 2.733220 1_555
Fe4 U5 2.733220 1_555
Fe4 Fe6 2.833046 1_555
Fe5 Si6 2.373612 1_566
Fe5 Si3 2.373612 1_665
Fe5 Si5 2.373612 1_656
Fe5 Fe9 2.611882 1_555
Fe5 U4 2.857085 1_655
Fe5 U0 2.857085 1_565
Fe5 U3 2.857085 1_556
Fe6 Si1 2.453489 1_555
Fe6 Si0 2.537839 1_555
Fe6 Si4 2.537839 1_555
Fe6 Si2 2.537839 1_555
Fe6 Fe8 2.541531 1_555
Fe6 U2 2.733220 1_555
Fe6 U5 2.733220 1_555
Fe6 U1 2.733220 1_555
Fe7 Si1 2.453489 1_555
Fe7 Si2 2.537839 1_565
Fe7 Si0 2.537839 1_556
Fe7 Si4 2.537839 1_655
Fe7 Fe9 2.541531 1_555
Fe7 U3 2.733220 1_555
Fe7 U0 2.733220 1_555
Fe7 U4 2.733220 1_555
Fe8 Si0 2.373609 1_555
Fe8 Si2 2.373609 1_555
Fe8 Si6 2.373616 1_555
Fe8 U5 2.857077 1_555
Fe8 U0 2.857082 1_554
Fe8 U3 2.857082 1_545
Fe9 Si2 2.373609 1_565
Fe9 Si0 2.373609 1_556
Fe9 Si6 2.373616 1_566
Fe9 U4 2.857077 1_555
Fe9 U1 2.857082 1_556
Fe9 U2 2.857082 1_565
Fe10 Si0 2.373609 1_555
Fe10 Si4 2.373609 1_555
Fe10 Si5 2.373616 1_555
Fe10 Fe6 2.541531 1_555
Fe10 Fe12 2.541538 1_554
Fe10 Fe13 2.541538 1_455
Fe10 Fe8 2.611882 1_555
Fe10 U1 2.857077 1_555
Fe10 U4 2.857082 1_554
Fe10 U3 2.857082 1_455
Fe11 Si1 2.453489 1_555
Fe11 Si0 2.537839 1_555
Fe11 Si6 2.537839 1_565
Fe11 Si5 2.537839 1_655
Fe11 Fe5 2.541533 1_554
Fe11 Fe9 2.541538 1_554
Fe11 Fe3 2.541538 1_554
Fe11 U3 2.733220 1_555
Fe11 U5 2.733220 1_555
Fe11 U1 2.733220 1_555
Fe11 Fe6 2.833046 1_555
Fe11 Fe13 2.833046 1_555
Fe11 Fe14 2.833046 1_555
Fe12 Si1 2.453489 1_555
Fe12 Si6 2.537839 1_556
Fe12 Si5 2.537839 1_556
Fe12 Si0 2.537839 1_556
Fe12 Fe8 2.541538 1_556
Fe12 U0 2.733220 1_555
Fe12 U4 2.733220 1_555
Fe12 U2 2.733220 1_555
Fe12 Fe7 2.833046 1_555
Fe12 Fe15 2.833046 1_555
Fe12 Fe4 2.833046 1_555
Fe13 Si1 2.453489 1_555
Fe13 Si5 2.537839 1_655
Fe13 Si4 2.537839 1_655
Fe13 Si3 2.537839 1_655
Fe13 U3 2.733220 1_555
Fe13 U0 2.733220 1_555
Fe13 U5 2.733220 1_555
Fe13 Fe7 2.833046 1_555
Fe13 Fe4 2.833046 1_555
Fe14 Si1 2.453489 1_555
Fe14 Si6 2.537839 1_565
Fe14 Si2 2.537839 1_565
Fe14 Si3 2.537839 1_565
Fe14 Fe8 2.541538 1_565
Fe14 U3 2.733220 1_555
Fe14 U4 2.733220 1_555
Fe14 U1 2.733220 1_555
Fe14 Fe7 2.833046 1_555
Fe14 Fe15 2.833046 1_555
Fe15 Si1 2.453489 1_555
Fe15 Si4 2.537839 1_555
Fe15 Si3 2.537839 1_565
Fe15 Si5 2.537839 1_556
Fe15 Fe5 2.541533 1_455
Fe15 Fe2 2.541538 1_455
Fe15 Fe3 2.541538 1_455
Fe15 U2 2.733220 1_555
Fe15 U1 2.733220 1_555
Fe15 U4 2.733220 1_555
Fe15 Fe6 2.833046 1_555
Si0 U1 2.929017 1_555
Si0 U5 2.929017 1_555
Si0 U0 2.929017 1_554
Si0 U4 2.929017 1_554
Si2 U2 2.929017 1_555
Si2 U5 2.929017 1_555
Si2 U4 2.929017 1_545
Si2 U3 2.929017 1_545
Si3 U4 2.929017 1_545
Si3 U0 2.929017 1_455
Si3 U1 2.929017 1_545
Si3 U5 2.929017 1_455
Si4 U2 2.929017 1_555
Si4 U1 2.929017 1_555
Si4 U0 2.929017 1_455
Si4 U3 2.929017 1_455
Si5 U3 2.929017 1_455
Si5 U4 2.929017 1_554
Si5 U2 2.929017 1_554
Si5 U5 2.929017 1_455
Si6 U3 2.929017 1_545
Si6 U0 2.929017 1_554
Si6 U2 2.929017 1_554
Si6 U1 2.929017 1_545
