# generated using pymatgen
data_GaCl3
_symmetry_space_group_name_H-M   'P 1'
_cell_length_a   7.17430200
_cell_length_b   7.11695269
_cell_length_c   7.29194257
_cell_angle_alpha   116.13160570
_cell_angle_beta   91.93479122
_cell_angle_gamma   116.90915937
_symmetry_Int_Tables_number   1
_chemical_formula_structural   GaCl3
_chemical_formula_sum   'Ga2 Cl6'
_cell_volume   285.15760701
_cell_formula_units_Z   2
loop_
 _symmetry_equiv_pos_site_id
 _symmetry_equiv_pos_as_xyz
  1  'x, y, z'
loop_
 _atom_site_type_symbol
 _atom_site_label
 _atom_site_symmetry_multiplicity
 _atom_site_fract_x
 _atom_site_fract_y
 _atom_site_fract_z
 _atom_site_occupancy
  Ga  Ga0  1  0.15191100  0.84876700  0.22018800  1
  Ga  Ga1  1  0.84808900  0.15123300  0.77981200  1
  Cl  Cl0  1  0.82839600  0.17230100  0.48260200  1
  Cl  Cl1  1  0.21472100  0.23016100  0.98081700  1
  Cl  Cl2  1  0.31902500  0.68492400  0.19655700  1
  Cl  Cl3  1  0.17160400  0.82769900  0.51739800  1
  Cl  Cl4  1  0.78527900  0.76983900  0.01918300  1
  Cl  Cl5  1  0.68097500  0.31507600  0.80344300  1
loop_
_geom_bond_atom_site_label_1
_geom_bond_atom_site_label_2
_geom_bond_distance
_geom_bond_site_symmetry_2
Cl0 Ga1 2.241452 1_555
Cl1 Ga1 2.656977 1_455
Cl2 Ga0 1.982222 1_555
Cl3 Ga0 2.241452 1_555
Cl4 Ga0 2.656977 1_655
Cl5 Ga1 1.982222 1_555
