# generated using pymatgen
data_Cu2BiPO6
_symmetry_space_group_name_H-M   'P 1'
_cell_length_a   5.17404900
_cell_length_b   7.88532369
_cell_length_c   12.03175502
_cell_angle_alpha   90.04746366
_cell_angle_beta   90.00004595
_cell_angle_gamma   90.00004394
_symmetry_Int_Tables_number   1
_chemical_formula_structural   Cu2BiPO6
_chemical_formula_sum   'Cu8 Bi4 P4 O24'
_cell_volume   490.88401974
_cell_formula_units_Z   4
loop_
 _symmetry_equiv_pos_site_id
 _symmetry_equiv_pos_as_xyz
  1  'x, y, z'
loop_
 _atom_site_type_symbol
 _atom_site_label
 _atom_site_symmetry_multiplicity
 _atom_site_fract_x
 _atom_site_fract_y
 _atom_site_fract_z
 _atom_site_occupancy
  Cu  Cu0  1  0.24999600  0.68347400  0.93071500  1
  Cu  Cu1  1  0.74999800  0.81210300  0.58848700  1
  Cu  Cu2  1  0.75000300  0.18341900  0.56907500  1
  Cu  Cu3  1  0.74999900  0.68801600  0.08847900  1
  Cu  Cu4  1  0.25000000  0.31193700  0.91156600  1
  Cu  Cu5  1  0.24999900  0.18796700  0.41146200  1
  Cu  Cu6  1  0.25000400  0.81665100  0.43093200  1
  Cu  Cu7  1  0.75000000  0.31652300  0.06917700  1
  Bi  Bi0  1  0.75000000  0.52749600  0.38878100  1
  Bi  Bi1  1  0.25000000  0.47252800  0.61123100  1
  Bi  Bi2  1  0.75000100  0.97245300  0.88879400  1
  Bi  Bi3  1  0.24999900  0.02748200  0.11119400  1
  P  P0  1  0.24999900  0.03737200  0.69707800  1
  P  P1  1  0.75000100  0.96263500  0.30290700  1
  P  P2  1  0.25000000  0.46284500  0.19712100  1
  P  P3  1  0.75000100  0.53718600  0.80289600  1
  O  O0  1  0.74999900  0.41962100  0.70182200  1
  O  O1  1  0.99999000  0.50677600  0.87467500  1
  O  O2  1  0.25000000  0.27469500  0.23291900  1
  O  O3  1  0.00003800  0.99319200  0.37468600  1
  O  O4  1  0.75000000  0.77456600  0.26700600  1
  O  O5  1  0.99766000  0.82299100  0.00631300  1
  O  O6  1  0.50001700  0.49320600  0.12532800  1
  O  O7  1  0.50001100  0.50677600  0.87467500  1
  O  O8  1  0.00219400  0.32298100  0.49369600  1
  O  O9  1  0.75000000  0.72532700  0.76707600  1
  O  O10  1  0.25000000  0.22541400  0.73298300  1
  O  O11  1  0.99998300  0.49320600  0.12532900  1
  O  O12  1  0.75000000  0.08030600  0.20191700  1
  O  O13  1  0.49780500  0.32298100  0.49369600  1
  O  O14  1  0.50007800  0.00681900  0.62531700  1
  O  O15  1  0.49775900  0.17696700  0.99371000  1
  O  O16  1  0.50234000  0.82299200  0.00631400  1
  O  O17  1  0.50224000  0.67703700  0.50632300  1
  O  O18  1  0.25000000  0.91967600  0.79810100  1
  O  O19  1  0.00224100  0.17696800  0.99371100  1
  O  O20  1  0.25000000  0.58036500  0.29818200  1
  O  O21  1  0.99992300  0.00681900  0.62531700  1
  O  O22  1  0.99776000  0.67703800  0.50632300  1
  O  O23  1  0.49996300  0.99319200  0.37468600  1
loop_
_geom_bond_atom_site_label_1
_geom_bond_atom_site_label_2
_geom_bond_distance
_geom_bond_site_symmetry_2
Cu0 O5 1.934054 1_456
Cu0 O16 1.934090 1_556
Cu0 O1 2.016845 1_455
Cu0 O7 2.016877 1_555
Cu0 O18 2.453530 1_555
Cu1 O17 1.937303 1_555
Cu1 O22 1.937315 1_555
Cu1 O14 2.055430 1_565
Cu1 O21 2.055444 1_565
Cu1 O9 2.255598 1_555
Cu2 O8 1.933367 1_655
Cu2 O13 1.933392 1_555
Cu2 O21 2.017614 1_555
Cu2 O14 2.017630 1_555
Cu2 O0 2.452564 1_555
Cu3 O16 1.937481 1_555
Cu3 O5 1.937490 1_555
Cu3 O6 2.056782 1_555
Cu3 O11 2.056792 1_555
Cu3 O4 2.253268 1_555
Cu4 O15 1.937669 1_555
Cu4 O19 1.937670 1_555
Cu4 O1 2.057154 1_455
Cu4 O7 2.057156 1_555
Cu4 O10 2.253846 1_555
Cu5 O8 1.937670 1_555
Cu5 O13 1.937672 1_555
Cu5 O3 2.055770 1_545
Cu5 O23 2.055781 1_545
Cu5 O2 2.254956 1_555
Cu6 O17 1.933826 1_555
Cu6 O22 1.933849 1_455
Cu6 O23 2.017437 1_555
Cu6 O3 2.017461 1_555
Cu6 O20 2.453090 1_555
Cu7 O19 1.933147 1_654
Cu7 O15 1.933155 1_554
Cu7 O6 2.017135 1_555
Cu7 O11 2.017137 1_555
Cu7 O12 2.454607 1_555
Bi0 O17 2.243010 1_555
Bi0 O22 2.243012 1_555
Bi0 O8 2.429026 1_655
Bi0 O13 2.429029 1_555
Bi0 O4 2.438654 1_555
Bi1 O13 2.243115 1_555
Bi1 O8 2.243116 1_555
Bi1 O17 2.429079 1_555
Bi1 O22 2.429084 1_455
Bi1 O10 2.438765 1_555
Bi2 O5 2.243440 1_556
Bi2 O16 2.243450 1_556
Bi2 O15 2.427773 1_565
Bi2 O19 2.427777 1_665
Bi2 O9 2.436655 1_555
Bi3 O19 2.243559 1_554
Bi3 O15 2.243569 1_554
Bi3 O16 2.427698 1_545
Bi3 O5 2.427701 1_445
Bi3 O2 2.437254 1_555
O0 P3 1.528537 1_555
O1 P3 1.573760 1_555
O2 P2 1.545222 1_555
O3 P1 1.573923 1_455
O4 P1 1.544269 1_555
O6 P2 1.573914 1_555
O7 P3 1.573765 1_555
O9 P3 1.545228 1_555
O10 P0 1.544078 1_555
O11 P2 1.573906 1_655
O12 P1 1.529462 1_545
O14 P0 1.573979 1_555
O18 P0 1.529897 1_565
O20 P2 1.528198 1_555
O21 P0 1.573965 1_655
O23 P1 1.573928 1_555
