# generated using pymatgen
data_Ho(IO3)3
_symmetry_space_group_name_H-M   'P 1'
_cell_length_a   5.99422070
_cell_length_b   8.66560136
_cell_length_c   16.38306215
_cell_angle_alpha   65.38095037
_cell_angle_beta   90.00000000
_cell_angle_gamma   90.00000000
_symmetry_Int_Tables_number   1
_chemical_formula_structural   Ho(IO3)3
_chemical_formula_sum   'Ho4 I12 O36'
_cell_volume   773.63667825
_cell_formula_units_Z   4
loop_
 _symmetry_equiv_pos_site_id
 _symmetry_equiv_pos_as_xyz
  1  'x, y, z'
loop_
 _atom_site_type_symbol
 _atom_site_label
 _atom_site_symmetry_multiplicity
 _atom_site_fract_x
 _atom_site_fract_y
 _atom_site_fract_z
 _atom_site_occupancy
  Ho  Ho0  1  0.78687935  0.85356513  0.10408609  1
  Ho  Ho1  1  0.21312065  0.14643487  0.89591391  1
  Ho  Ho2  1  0.28687935  0.14643487  0.39591391  1
  Ho  Ho3  1  0.71312065  0.85356513  0.60408609  1
  I  I0  1  0.84862375  0.35637235  0.97907339  1
  I  I1  1  0.31206217  0.07669711  0.14341834  1
  I  I2  1  0.34862375  0.64362765  0.52092661  1
  I  I3  1  0.65137625  0.35637235  0.47907339  1
  I  I4  1  0.09968411  0.58180568  0.30036393  1
  I  I5  1  0.40031589  0.58180568  0.80036393  1
  I  I6  1  0.59968411  0.41819432  0.19963607  1
  I  I7  1  0.18793783  0.07669711  0.64341834  1
  I  I8  1  0.68793783  0.92330289  0.85658166  1
  I  I9  1  0.15137625  0.64362765  0.02092661  1
  I  I10  1  0.90031589  0.41819432  0.69963607  1
  I  I11  1  0.81206217  0.92330289  0.35658166  1
  O  O0  1  0.67616851  0.65721629  0.75632365  1
  O  O1  1  0.37183254  0.12054558  0.02814555  1
  O  O2  1  0.32383149  0.34278371  0.24367635  1
  O  O3  1  0.62747636  0.12692760  0.51318369  1
  O  O4  1  0.98759584  0.63756158  0.63671311  1
  O  O5  1  0.47424741  0.39182007  0.38227512  1
  O  O6  1  0.01240416  0.36243842  0.36328689  1
  O  O7  1  0.87183254  0.87945442  0.47185445  1
  O  O8  1  0.02575259  0.39182007  0.88227512  1
  O  O9  1  0.43323478  0.35367861  0.55887824  1
  O  O10  1  0.05692682  0.05675731  0.31276991  1
  O  O11  1  0.56676522  0.64632139  0.44112176  1
  O  O12  1  0.52575259  0.60817993  0.61772488  1
  O  O13  1  0.12747636  0.87307240  0.98681631  1
  O  O14  1  0.12816746  0.12054558  0.52814555  1
  O  O15  1  0.51240416  0.63756158  0.13671311  1
  O  O16  1  0.91210783  0.34273853  0.61139595  1
  O  O17  1  0.93323478  0.64632139  0.94112176  1
  O  O18  1  0.17616851  0.34278371  0.74367635  1
  O  O19  1  0.37252364  0.87307240  0.48681631  1
  O  O20  1  0.10644208  0.90659236  0.16959583  1
  O  O21  1  0.60644208  0.09340764  0.33040417  1
  O  O22  1  0.82383149  0.65721629  0.25632365  1
  O  O23  1  0.62816746  0.87945442  0.97185445  1
  O  O24  1  0.39355792  0.90659236  0.66959583  1
  O  O25  1  0.87252364  0.12692760  0.01318369  1
  O  O26  1  0.44307318  0.05675731  0.81276991  1
  O  O27  1  0.58789217  0.34273853  0.11139595  1
  O  O28  1  0.89355792  0.09340764  0.83040417  1
  O  O29  1  0.41210783  0.65726147  0.88860405  1
  O  O30  1  0.55692682  0.94324269  0.18723009  1
  O  O31  1  0.06676522  0.35367861  0.05887824  1
  O  O32  1  0.08789217  0.65726147  0.38860405  1
  O  O33  1  0.97424741  0.60817993  0.11772488  1
  O  O34  1  0.94307318  0.94324269  0.68723009  1
  O  O35  1  0.48759584  0.36243842  0.86328689  1
loop_
_geom_bond_atom_site_label_1
_geom_bond_atom_site_label_2
_geom_bond_distance
_geom_bond_site_symmetry_2
Ho0 O25 2.270159 1_565
Ho0 O30 2.289378 1_555
Ho0 O23 2.289888 1_554
Ho0 O33 2.331757 1_555
Ho0 O20 2.333059 1_655
Ho0 O22 2.372555 1_555
Ho0 O15 2.379631 1_555
Ho0 O13 2.759951 1_654
Ho1 O13 2.270159 1_545
Ho1 O26 2.289378 1_555
Ho1 O1 2.289888 1_556
Ho1 O8 2.331757 1_555
Ho1 O28 2.333059 1_455
Ho1 O18 2.372555 1_555
Ho1 O35 2.379631 1_555
Ho1 O25 2.759951 1_456
Ho2 O19 2.270159 1_545
Ho2 O10 2.289378 1_555
Ho2 O14 2.289888 1_555
Ho2 O5 2.331757 1_555
Ho2 O21 2.333059 1_555
Ho2 O2 2.372555 1_555
Ho2 O6 2.379631 1_555
Ho2 O3 2.759951 1_555
Ho3 O3 2.270159 1_565
Ho3 O34 2.289378 1_555
Ho3 O7 2.289888 1_555
Ho3 O12 2.331757 1_555
Ho3 O24 2.333059 1_555
Ho3 O0 2.372555 1_555
Ho3 O4 2.379631 1_555
Ho3 O19 2.759951 1_555
I0 O8 1.825029 1_655
I0 O25 1.833118 1_556
I0 O31 1.842369 1_656
I0 O17 2.378086 1_555
I1 O1 1.800385 1_555
I1 O30 1.820815 1_545
I1 O20 1.830084 1_545
I1 O31 2.659237 1_555
I2 O12 1.825029 1_555
I2 O19 1.833118 1_555
I2 O11 1.842369 1_555
I2 O9 2.378086 1_555
I3 O5 1.825029 1_555
I3 O3 1.833118 1_555
I3 O9 1.842369 1_555
I3 O11 2.378086 1_555
I4 O22 1.813537 1_455
I4 O32 1.819337 1_555
I4 O6 1.821350 1_555
I5 O0 1.813537 1_555
I5 O29 1.819337 1_555
I5 O35 1.821350 1_555
I6 O2 1.813537 1_555
I6 O27 1.819337 1_555
I6 O15 1.821350 1_555
I7 O14 1.800385 1_555
I7 O34 1.820815 1_445
I7 O24 1.830084 1_545
I7 O9 2.659237 1_555
I8 O23 1.800385 1_555
I8 O26 1.820815 1_565
I8 O28 1.830084 1_565
I8 O17 2.659237 1_555
I9 O33 1.825029 1_455
I9 O13 1.833118 1_554
I9 O17 1.842369 1_454
I9 O31 2.378086 1_555
I10 O18 1.813537 1_655
I10 O16 1.819337 1_555
I10 O4 1.821350 1_555
I11 O7 1.800385 1_555
I11 O10 1.820815 1_665
I11 O21 1.830084 1_565
I11 O11 2.659237 1_555
