# generated using pymatgen
data_Ca2Ga2Si(HO4)2
_symmetry_space_group_name_H-M   'P 1'
_cell_length_a   7.80153300
_cell_length_b   7.81999681
_cell_length_c   7.82486212
_cell_angle_alpha   109.43311355
_cell_angle_beta   109.01520316
_cell_angle_gamma   109.66205130
_symmetry_Int_Tables_number   1
_chemical_formula_structural   Ca2Ga2Si(HO4)2
_chemical_formula_sum   'Ca4 Ga4 Si2 H4 O16'
_cell_volume   368.84648745
_cell_formula_units_Z   2
loop_
 _symmetry_equiv_pos_site_id
 _symmetry_equiv_pos_as_xyz
  1  'x, y, z'
loop_
 _atom_site_type_symbol
 _atom_site_label
 _atom_site_symmetry_multiplicity
 _atom_site_fract_x
 _atom_site_fract_y
 _atom_site_fract_z
 _atom_site_occupancy
  Ca  Ca0  1  0.99782600  0.71506900  0.98952300  1
  Ca  Ca1  1  0.99277800  0.00213400  0.71954900  1
  Ca  Ca2  1  0.72159600  0.99797800  0.00907900  1
  Ca  Ca3  1  0.27734400  0.27765000  0.27727300  1
  Ga  Ga0  1  0.24291200  0.48485000  0.74275100  1
  Ga  Ga1  1  0.75738100  0.51602700  0.25698400  1
  Ga  Ga2  1  0.50731900  0.24674800  0.75610700  1
  Ga  Ga3  1  0.25925200  0.75417600  0.50773900  1
  Si  Si0  1  0.73632100  0.24377000  0.48866900  1
  Si  Si1  1  0.49136400  0.75479400  0.24465400  1
  H  H0  1  0.01168700  0.97213400  0.34504500  1
  H  H1  1  0.33808500  0.00092700  0.96444300  1
  H  H2  1  0.96625300  0.34007300  0.00158700  1
  H  H3  1  0.62494300  0.65936700  0.65803900  1
  O  O0  1  0.99877200  0.23167700  0.00649800  1
  O  O1  1  0.69759400  0.99899800  0.42235900  1
  O  O2  1  0.55281400  0.58457600  0.28519500  1
  O  O3  1  0.96750300  0.41266000  0.69859700  1
  O  O4  1  0.44135700  0.72425300  0.01185900  1
  O  O5  1  0.71909600  0.27657700  0.28788900  1
  O  O6  1  0.22525700  0.00055000  0.99147100  1
  O  O7  1  0.74826700  0.45584400  0.00488700  1
  O  O8  1  0.00092900  0.99214600  0.22666000  1
  O  O9  1  0.26625800  0.25552400  0.72234000  1
  O  O10  1  0.00951000  0.74997800  0.46128400  1
  O  O11  1  0.46868600  0.99884200  0.74968700  1
  O  O12  1  0.28991400  0.54357500  0.54811200  1
  O  O13  1  0.55342700  0.26583100  0.53765700  1
  O  O14  1  0.28644000  0.73392800  0.27086400  1
  O  O15  1  0.76531500  0.76744300  0.77129800  1
loop_
_geom_bond_atom_site_label_1
_geom_bond_atom_site_label_2
_geom_bond_distance
_geom_bond_site_symmetry_2
Ca0 O15 2.306698 1_555
Ca0 O8 2.323488 1_656
Ca0 O6 2.329472 1_665
Ca0 O7 2.360741 1_556
Ca0 O14 2.503681 1_656
Ca0 O3 2.553636 1_555
Ca1 O6 2.309738 1_655
Ca1 O15 2.335036 1_545
Ca1 O0 2.336457 1_556
Ca1 O9 2.361102 1_655
Ca1 O10 2.383855 1_645
Ca1 O1 2.673208 1_545
Ca2 O8 2.313132 1_655
Ca2 O0 2.325914 1_565
Ca2 O11 2.328357 1_554
Ca2 O15 2.328852 1_554
Ca2 O4 2.504982 1_555
Ca2 O5 2.529833 1_565
Ca3 O0 2.303997 1_455
Ca3 O8 2.325297 1_545
Ca3 O6 2.335089 1_554
Ca3 O12 2.370697 1_555
Ca3 O13 2.489693 1_555
Ca3 O2 2.593498 1_555
Ga0 O9 1.822877 1_555
Ga0 O12 1.838738 1_555
Ga0 O3 1.903898 1_455
Ga0 O4 1.907307 1_556
Ga1 O10 1.831632 1_655
Ga1 O7 1.840142 1_555
Ga1 O2 1.899903 1_555
Ga1 O5 1.904195 1_555
Ga2 O11 1.839500 1_545
Ga2 O9 1.840235 1_555
Ga2 O7 1.850869 1_556
Ga2 O13 1.899420 1_555
Ga3 O11 1.839790 1_555
Ga3 O10 1.848475 1_555
Ga3 O12 1.852394 1_555
Ga3 O14 1.894486 1_555
H0 O8 0.971746 1_555
H1 O6 0.969289 1_555
H2 O0 0.971802 1_555
H3 O15 0.972270 1_555
O1 Si0 1.694743 1_565
O1 Si1 1.696041 1_555
O2 Si1 1.647303 1_555
O3 Si0 1.648744 1_555
O4 Si1 1.646859 1_555
O5 Si0 1.644987 1_555
O13 Si0 1.640326 1_555
O14 Si1 1.638590 1_555
