# generated using pymatgen
data_BaNa4Ti2Si10(BO15)2
_symmetry_space_group_name_H-M   'P 1'
_cell_length_a   7.56758400
_cell_length_b   9.75495604
_cell_length_c   9.76121517
_cell_angle_alpha   62.96598273
_cell_angle_beta   85.89257298
_cell_angle_gamma   84.77140006
_symmetry_Int_Tables_number   1
_chemical_formula_structural   BaNa4Ti2Si10(BO15)2
_chemical_formula_sum   'Ba1 Na4 Ti2 Si10 B2 O30'
_cell_volume   638.81197262
_cell_formula_units_Z   1
loop_
 _symmetry_equiv_pos_site_id
 _symmetry_equiv_pos_as_xyz
  1  'x, y, z'
loop_
 _atom_site_type_symbol
 _atom_site_label
 _atom_site_symmetry_multiplicity
 _atom_site_fract_x
 _atom_site_fract_y
 _atom_site_fract_z
 _atom_site_occupancy
  Ba  Ba0  1  0.00000000  0.00000000  0.00000000  1
  Na  Na0  1  0.42665700  0.73469200  0.06434300  1
  Na  Na1  1  0.43590000  0.26556600  0.38478400  1
  Na  Na2  1  0.56410000  0.73443400  0.61521600  1
  Na  Na3  1  0.57334300  0.26530800  0.93565700  1
  Ti  Ti0  1  0.57481100  0.89318900  0.27038000  1
  Ti  Ti1  1  0.42518900  0.10681100  0.72962000  1
  Si  Si0  1  0.81624700  0.39832900  0.16410500  1
  Si  Si1  1  0.89652400  0.41059700  0.64714400  1
  Si  Si2  1  0.82834000  0.05500300  0.29369200  1
  Si  Si3  1  0.77351800  0.09842400  0.68730400  1
  Si  Si4  1  0.71449100  0.62276300  0.29968200  1
  Si  Si5  1  0.28550900  0.37723700  0.70031800  1
  Si  Si6  1  0.22648200  0.90157600  0.31269600  1
  Si  Si7  1  0.17166000  0.94499700  0.70630800  1
  Si  Si8  1  0.10347600  0.58940300  0.35285600  1
  Si  Si9  1  0.18375300  0.60167100  0.83589500  1
  B  B0  1  0.86014200  0.45781900  0.85546300  1
  B  B1  1  0.13985800  0.54218100  0.14453700  1
  O  O0  1  0.02077400  0.42766300  0.16206100  1
  O  O1  1  0.95391200  0.97608700  0.73221200  1
  O  O2  1  0.88610100  0.54905900  0.41908900  1
  O  O3  1  0.74077900  0.90061100  0.41950800  1
  O  O4  1  0.84683500  0.27113300  0.61107900  1
  O  O5  1  0.79184100  0.21986200  0.30054500  1
  O  O6  1  0.75595900  0.51916900  0.70471100  1
  O  O7  1  0.94703700  0.32081500  0.84039500  1
  O  O8  1  0.74693100  0.41842400  0.99858300  1
  O  O9  1  0.68042300  0.50348800  0.22761600  1
  O  O10  1  0.64939000  0.07425000  0.84323700  1
  O  O11  1  0.71347800  0.07622800  0.14583900  1
  O  O12  1  0.72059600  0.79725400  0.15659600  1
  O  O13  1  0.55779300  0.66592300  0.39978300  1
  O  O14  1  0.61939400  0.07242400  0.59547100  1
  O  O15  1  0.38060600  0.92757600  0.40452900  1
  O  O16  1  0.44220700  0.33407700  0.60021700  1
  O  O17  1  0.27940400  0.20274600  0.84340400  1
  O  O18  1  0.28652200  0.92377200  0.85416100  1
  O  O19  1  0.35061000  0.92575000  0.15676300  1
  O  O20  1  0.31957700  0.49651200  0.77238400  1
  O  O21  1  0.25306900  0.58157600  0.00141700  1
  O  O22  1  0.05296300  0.67918500  0.15960500  1
  O  O23  1  0.24404100  0.48083100  0.29528900  1
  O  O24  1  0.20815900  0.78013800  0.69945500  1
  O  O25  1  0.15316500  0.72886700  0.38892100  1
  O  O26  1  0.25922100  0.09938900  0.58049200  1
  O  O27  1  0.11389900  0.45094100  0.58091100  1
  O  O28  1  0.04608800  0.02391300  0.26778800  1
  O  O29  1  0.97922600  0.57233700  0.83793900  1
loop_
_geom_bond_atom_site_label_1
_geom_bond_atom_site_label_2
_geom_bond_distance
_geom_bond_site_symmetry_2
Ba0 O11 2.739918 1_455
Ba0 O18 2.739918 1_544
Ba0 O28 2.776408 1_555
Ba0 O1 2.776408 1_444
Ba0 O22 2.794730 1_545
Ba0 O7 2.794730 1_454
Ba0 O17 2.875739 1_554
Ba0 O12 2.875739 1_445
Ba0 O10 3.021556 1_454
Ba0 O19 3.021556 1_545
Na0 O18 2.291527 1_554
Na0 O21 2.375098 1_555
Na0 O19 2.424294 1_555
Na0 O12 2.676807 1_555
Na0 O9 2.774201 1_555
Na0 O23 2.868272 1_555
Na0 O22 2.932558 1_555
Na1 O23 2.288932 1_555
Na1 O26 2.297593 1_555
Na1 O14 2.473345 1_555
Na1 O16 2.483713 1_555
Na1 O5 2.815591 1_555
Na1 O9 2.881625 1_555
Na2 O6 2.288932 1_555
Na2 O3 2.297593 1_555
Na2 O15 2.473345 1_555
Na2 O13 2.483713 1_555
Na2 O24 2.815591 1_555
Na2 O20 2.881625 1_555
Na3 O11 2.291527 1_556
Na3 O8 2.375098 1_555
Na3 O10 2.424294 1_555
Na3 O17 2.676807 1_555
Na3 O20 2.774201 1_555
Na3 O6 2.868272 1_555
Na3 O7 2.932558 1_555
B0 O29 1.441190 1_555
B0 O8 1.494613 1_555
B0 O7 1.498284 1_555
B0 O6 1.557173 1_555
B1 O0 1.441190 1_555
B1 O21 1.494613 1_555
B1 O22 1.498284 1_555
B1 O23 1.557173 1_555
O0 Si0 1.596558 1_455
O1 Si7 1.670384 1_655
O1 Si3 1.671292 1_565
O2 Si4 1.687271 1_555
O2 Si8 1.735871 1_655
O2 Si1 2.014585 1_555
O3 Si2 1.612312 1_565
O3 Ti0 2.018907 1_555
O4 Si1 1.632104 1_555
O4 Si3 1.634503 1_555
O5 Si2 1.637448 1_555
O5 Si0 1.659631 1_555
O6 Si1 1.679006 1_555
O7 Si1 1.735511 1_555
O8 Si0 1.654937 1_556
O9 Si4 1.655228 1_555
O9 Si0 1.669666 1_555
O10 Si3 1.662536 1_555
O10 Ti1 2.015099 1_555
O11 Si2 1.660300 1_555
O11 Ti0 1.988153 1_545
O12 Si4 1.641390 1_555
O12 Ti0 1.976786 1_555
O13 Si4 1.629468 1_555
O13 Ti0 2.002541 1_555
O14 Si3 1.624374 1_555
O14 Ti1 2.005210 1_555
O15 Si6 1.624374 1_555
O15 Ti0 2.005210 1_555
O16 Si5 1.629468 1_555
O16 Ti1 2.002541 1_555
O17 Si5 1.641390 1_555
O17 Ti1 1.976786 1_555
O18 Si7 1.660300 1_555
O18 Ti1 1.988153 1_565
O19 Si6 1.662536 1_555
O19 Ti0 2.015099 1_555
O20 Si5 1.655228 1_555
O20 Si9 1.669666 1_555
O21 Si9 1.654937 1_554
O22 Si8 1.735511 1_555
O23 Si8 1.679006 1_555
O24 Si7 1.637448 1_555
O24 Si9 1.659631 1_555
O25 Si8 1.632104 1_555
O25 Si6 1.634503 1_555
O26 Si7 1.612312 1_545
O26 Ti1 2.018907 1_555
O27 Si5 1.687271 1_555
O27 Si1 1.735871 1_455
O27 Si8 2.014585 1_555
O28 Si2 1.670384 1_455
O28 Si6 1.671292 1_545
O29 Si9 1.596558 1_655
