# generated using pymatgen
data_La2GeS5
_symmetry_space_group_name_H-M   'P 1'
_cell_length_a   12.78296388
_cell_length_b   7.68873873
_cell_length_c   7.95275448
_cell_angle_alpha   78.67340655
_cell_angle_beta   90.00000000
_cell_angle_gamma   90.00000000
_symmetry_Int_Tables_number   1
_chemical_formula_structural   La2GeS5
_chemical_formula_sum   'La8 Ge4 S20'
_cell_volume   766.41199599
_cell_formula_units_Z   4
loop_
 _symmetry_equiv_pos_site_id
 _symmetry_equiv_pos_as_xyz
  1  'x, y, z'
loop_
 _atom_site_type_symbol
 _atom_site_label
 _atom_site_symmetry_multiplicity
 _atom_site_fract_x
 _atom_site_fract_y
 _atom_site_fract_z
 _atom_site_occupancy
  La  La0  1  0.16676143  0.15972928  0.36534033  1
  La  La1  1  0.09329722  0.76075861  0.04182763  1
  La  La2  1  0.59329722  0.23924139  0.45817237  1
  La  La3  1  0.40670278  0.76075861  0.54182763  1
  La  La4  1  0.83323857  0.84027072  0.63465967  1
  La  La5  1  0.90670278  0.23924139  0.95817237  1
  La  La6  1  0.66676143  0.84027072  0.13465967  1
  La  La7  1  0.33323857  0.15972928  0.86534033  1
  Ge  Ge0  1  0.61669372  0.33760439  0.90857178  1
  Ge  Ge1  1  0.11669372  0.66239561  0.59142822  1
  Ge  Ge2  1  0.38330628  0.66239561  0.09142822  1
  Ge  Ge3  1  0.88330628  0.33760439  0.40857178  1
  S  S0  1  0.70532098  0.12879718  0.80441110  1
  S  S1  1  0.02714522  0.82889235  0.38154862  1
  S  S2  1  0.23212163  0.46466149  0.54782843  1
  S  S3  1  0.52714522  0.17110765  0.11845138  1
  S  S4  1  0.79467902  0.12879718  0.30441110  1
  S  S5  1  0.29467902  0.87120282  0.19558890  1
  S  S6  1  0.20532098  0.87120282  0.69558890  1
  S  S7  1  0.87932665  0.86302946  -0.00105619  1
  S  S8  1  0.97285478  0.17110765  0.61845138  1
  S  S9  1  0.62067335  0.86302946  0.49894381  1
  S  S10  1  0.49338466  0.42014761  0.71754273  1
  S  S11  1  0.76787837  0.53533851  0.45217157  1
  S  S12  1  0.47285478  0.82889235  0.88154862  1
  S  S13  1  0.99338466  0.57985239  0.78245727  1
  S  S14  1  0.37932665  0.13697054  0.50105619  1
  S  S15  1  0.50661534  0.57985239  0.28245727  1
  S  S16  1  0.00661534  0.42014761  0.21754273  1
  S  S17  1  0.12067335  0.13697054  0.00105619  1
  S  S18  1  0.73212163  0.53533851  0.95217157  1
  S  S19  1  0.26787837  0.46466149  0.04782843  1
loop_
_geom_bond_atom_site_label_1
_geom_bond_atom_site_label_2
_geom_bond_distance
_geom_bond_site_symmetry_2
La0 S14 2.916265 1_555
La0 S16 2.942287 1_555
La0 S17 2.994964 1_555
La0 S1 3.089257 1_545
La0 S2 3.104467 1_555
La0 S6 3.126269 1_545
La0 S8 3.205102 1_455
La0 S5 3.254833 1_545
La0 S19 3.349368 1_555
La1 S7 2.847892 1_455
La1 S17 2.868151 1_565
La1 S16 2.932833 1_555
La1 S1 2.974008 1_555
La1 S13 2.991264 1_454
La1 S5 3.041559 1_555
La1 S6 3.071691 1_554
La1 S19 3.181650 1_555
La2 S14 2.847892 1_555
La2 S9 2.868151 1_545
La2 S15 2.932833 1_555
La2 S3 2.974008 1_555
La2 S10 2.991264 1_555
La2 S4 3.041559 1_555
La2 S0 3.071691 1_555
La2 S11 3.181650 1_555
La3 S9 2.847892 1_555
La3 S14 2.868151 1_565
La3 S10 2.932833 1_555
La3 S12 2.974008 1_555
La3 S15 2.991264 1_555
La3 S6 3.041559 1_555
La3 S5 3.071691 1_555
La3 S2 3.181650 1_555
La4 S9 2.916265 1_555
La4 S13 2.942287 1_555
La4 S7 2.994964 1_556
La4 S8 3.089257 1_565
La4 S11 3.104467 1_555
La4 S4 3.126269 1_565
La4 S1 3.205102 1_655
La4 S0 3.254833 1_565
La4 S18 3.349368 1_555
La5 S17 2.847892 1_656
La5 S7 2.868151 1_546
La5 S13 2.932833 1_555
La5 S8 2.974008 1_555
La5 S16 2.991264 1_656
La5 S0 3.041559 1_555
La5 S4 3.071691 1_556
La5 S18 3.181650 1_555
La6 S7 2.916265 1_555
La6 S15 2.942287 1_555
La6 S9 2.994964 1_555
La6 S3 3.089257 1_565
La6 S18 3.104467 1_554
La6 S0 3.126269 1_564
La6 S12 3.205102 1_554
La6 S4 3.254833 1_565
La6 S11 3.349368 1_555
La7 S17 2.916265 1_556
La7 S10 2.942287 1_555
La7 S14 2.994964 1_555
La7 S12 3.089257 1_545
La7 S19 3.104467 1_556
La7 S5 3.126269 1_546
La7 S3 3.205102 1_556
La7 S6 3.254833 1_545
La7 S2 3.349368 1_555
Ge0 S18 2.194497 1_555
Ge0 S10 2.194682 1_555
Ge0 S3 2.212637 1_556
Ge0 S0 2.251577 1_555
Ge1 S2 2.194497 1_555
Ge1 S13 2.194682 1_455
Ge1 S1 2.212637 1_555
Ge1 S6 2.251577 1_555
Ge2 S19 2.194497 1_555
Ge2 S15 2.194682 1_555
Ge2 S12 2.212637 1_554
Ge2 S5 2.251577 1_555
Ge3 S11 2.194497 1_555
Ge3 S16 2.194682 1_655
Ge3 S8 2.212637 1_555
Ge3 S4 2.251577 1_555
