# generated using pymatgen
data_K6Sb2H18S8O9
_symmetry_space_group_name_H-M   'P 1'
_cell_length_a   11.27209800
_cell_length_b   10.54424400
_cell_length_c   11.78626143
_cell_angle_alpha   84.69612795
_cell_angle_beta   90.00000000
_cell_angle_gamma   90.00000000
_symmetry_Int_Tables_number   1
_chemical_formula_structural   K6Sb2H18S8O9
_chemical_formula_sum   'K12 Sb4 H36 S16 O18'
_cell_volume   1394.86709314
_cell_formula_units_Z   2
loop_
 _symmetry_equiv_pos_site_id
 _symmetry_equiv_pos_as_xyz
  1  'x, y, z'
loop_
 _atom_site_type_symbol
 _atom_site_label
 _atom_site_symmetry_multiplicity
 _atom_site_fract_x
 _atom_site_fract_y
 _atom_site_fract_z
 _atom_site_occupancy
  K  K0  1  0.79043200  0.11321200  0.88744800  1
  K  K1  1  0.87101700  0.85278400  0.17198700  1
  K  K2  1  0.01664400  0.41544000  0.59378800  1
  K  K3  1  0.48236800  0.19163200  0.42153400  1
  K  K4  1  0.54064800  0.41389500  0.13199200  1
  K  K5  1  0.71166800  0.50496800  0.82711300  1
  K  K6  1  0.29043200  0.88678800  0.11255200  1
  K  K7  1  0.37101700  0.14721600  0.82801300  1
  K  K8  1  0.51664400  0.58456000  0.40621200  1
  K  K9  1  0.98236800  0.80836800  0.57846600  1
  K  K10  1  0.04064800  0.58610500  0.86800800  1
  K  K11  1  0.21166800  0.49503200  0.17288700  1
  Sb  Sb0  1  0.17068300  0.17342600  0.39210000  1
  Sb  Sb1  1  0.34698100  0.64883300  0.64243800  1
  Sb  Sb2  1  0.67068300  0.82657400  0.60790000  1
  Sb  Sb3  1  0.84698100  0.35116700  0.35756200  1
  H  H0  1  0.99518000  0.59443700  0.08965400  1
  H  H1  1  0.86845500  0.21774100  0.12741600  1
  H  H2  1  0.89543900  0.60281600  0.29836300  1
  H  H3  1  0.77289200  0.12113300  0.17039500  1
  H  H4  1  0.81980200  0.31272400  0.67222100  1
  H  H5  1  0.05593200  0.89655900  0.90365400  1
  H  H6  1  0.71165700  0.17404500  0.62752300  1
  H  H7  1  0.10238600  0.32000600  0.40608400  1
  H  H8  1  0.35737700  0.69807100  0.27396600  1
  H  H9  1  0.82891900  0.77413700  0.76960300  1
  H  H10  1  0.76346800  0.80630600  0.49330300  1
  H  H11  1  0.77813900  0.56606000  0.09139400  1
  H  H12  1  0.51005600  0.33902400  0.93666800  1
  H  H13  1  0.66832200  0.77673800  0.94112500  1
  H  H14  1  0.65406800  0.63699100  0.09942100  1
  H  H15  1  0.68912200  0.21234300  0.31343100  1
  H  H16  1  0.53131100  0.75220700  0.20341700  1
  H  H17  1  0.50025000  0.91018300  0.91873600  1
  H  H18  1  0.49518000  0.40556300  0.91034600  1
  H  H19  1  0.36845500  0.78225900  0.87258400  1
  H  H20  1  0.39543900  0.39718400  0.70163700  1
  H  H21  1  0.27289200  0.87886700  0.82960500  1
  H  H22  1  0.31980200  0.68727600  0.32777900  1
  H  H23  1  0.55593200  0.10344100  0.09634600  1
  H  H24  1  0.21165700  0.82595500  0.37247700  1
  H  H25  1  0.60238600  0.67999400  0.59391600  1
  H  H26  1  0.85737700  0.30192900  0.72603400  1
  H  H27  1  0.32891900  0.22586300  0.23039700  1
  H  H28  1  0.26346800  0.19369400  0.50669700  1
  H  H29  1  0.27813900  0.43394000  0.90860600  1
  H  H30  1  0.01005600  0.66097600  0.06333200  1
  H  H31  1  0.16832200  0.22326200  0.05887500  1
  H  H32  1  0.15406800  0.36300900  0.90057900  1
  H  H33  1  0.18912200  0.78765700  0.68656900  1
  H  H34  1  0.03131100  0.24779300  0.79658300  1
  H  H35  1  0.00025000  0.08981700  0.08126400  1
  S  S0  1  0.64245200  0.40803100  0.58669100  1
  S  S1  1  0.42305100  0.61276900  0.83031900  1
  S  S2  1  0.60167300  0.22917300  0.65127200  1
  S  S3  1  0.79824500  0.60082300  0.36587900  1
  S  S4  1  0.86833100  0.08347900  0.38460100  1
  S  S5  1  0.94079900  0.85940600  0.90833700  1
  S  S6  1  0.04785300  0.10904400  0.60992300  1
  S  S7  1  0.87285100  0.07743900  0.56002100  1
  S  S8  1  0.14245200  0.59196900  0.41330900  1
  S  S9  1  0.92305100  0.38723100  0.16968100  1
  S  S10  1  0.10167300  0.77082700  0.34872800  1
  S  S11  1  0.29824500  0.39917700  0.63412100  1
  S  S12  1  0.36833100  0.91652100  0.61539900  1
  S  S13  1  0.44079900  0.14059400  0.09166300  1
  S  S14  1  0.54785300  0.89095600  0.39007700  1
  S  S15  1  0.37285100  0.92256100  0.43997900  1
  O  O0  1  0.03887100  0.33591700  0.81612500  1
  O  O1  1  0.59584200  0.21616500  0.78211900  1
  O  O2  1  0.92522400  0.36008800  0.87802000  1
  O  O3  1  0.21379500  0.39223000  0.95491900  1
  O  O4  1  0.33479100  0.87055100  0.88763400  1
  O  O5  1  0.57565100  0.92796700  0.95823800  1
  O  O6  1  0.17546900  0.69540900  0.69181100  1
  O  O7  1  0.79843800  0.71926600  0.71215100  1
  O  O8  1  0.66034700  0.85787200  0.89207400  1
  O  O9  1  0.53887100  0.66408300  0.18387500  1
  O  O10  1  0.09584200  0.78383500  0.21788100  1
  O  O11  1  0.42522400  0.63991200  0.12198000  1
  O  O12  1  0.71379500  0.60777000  0.04508100  1
  O  O13  1  0.83479100  0.12944900  0.11236600  1
  O  O14  1  0.07565100  0.07203300  0.04176200  1
  O  O15  1  0.67546900  0.30459100  0.30818900  1
  O  O16  1  0.29843800  0.28073400  0.28784900  1
  O  O17  1  0.16034700  0.14212800  0.10792600  1
loop_
_geom_bond_atom_site_label_1
_geom_bond_atom_site_label_2
_geom_bond_distance
_geom_bond_site_symmetry_2
K0 O1 2.698449 1_555
K0 O13 2.718590 1_556
K0 O2 3.007266 1_555
K0 O8 3.061830 1_545
K0 S5 3.158112 1_545
K0 O5 3.173563 1_545
K1 O10 2.677846 1_655
K1 S4 3.650287 1_565
K2 O0 2.688266 1_555
K2 S8 3.044438 1_555
K2 S11 3.211865 1_555
K2 S6 3.237877 1_555
K2 Sb3 3.495356 1_455
K3 O16 2.718482 1_555
K3 O15 2.765314 1_555
K3 S2 3.081445 1_555
K3 S15 3.083279 1_545
K3 S14 3.309243 1_545
K4 O11 2.708183 1_555
K4 O15 2.740084 1_555
K4 O9 2.762581 1_555
K4 O12 2.941162 1_555
K4 S13 3.170243 1_555
K5 O7 2.707839 1_555
K5 O12 2.879288 1_556
K5 O2 2.884266 1_555
K5 S0 3.196665 1_555
K6 O10 2.698449 1_555
K6 O4 2.718590 1_554
K6 O11 3.007266 1_555
K6 O17 3.061830 1_565
K6 S13 3.158112 1_565
K6 O14 3.173563 1_565
K7 O1 2.677846 1_555
K7 S12 3.650287 1_545
K8 O9 2.688266 1_555
K8 S0 3.044438 1_555
K8 S3 3.211865 1_555
K8 S14 3.237877 1_555
K8 Sb1 3.495356 1_555
K9 O7 2.718482 1_555
K9 O6 2.765314 1_655
K9 S10 3.081445 1_655
K9 S7 3.083279 1_565
K9 S6 3.309243 1_665
K10 O2 2.708183 1_455
K10 O6 2.740084 1_555
K10 O0 2.762581 1_555
K10 O3 2.941162 1_555
K10 S5 3.170243 1_455
K11 O16 2.707839 1_555
K11 O3 2.879288 1_554
K11 O11 2.884266 1_555
K11 S8 3.196665 1_555
H0 H30 0.759192 1_655
H0 K10 2.671581 1_654
H0 K11 2.797469 1_655
H1 O13 1.035711 1_555
H1 S9 1.996335 1_555
H2 S3 1.353101 1_555
H3 O13 0.975301 1_555
H4 K2 2.601090 1_655
H5 S5 1.355278 1_455
H6 S2 1.408298 1_555
H7 Sb0 1.748066 1_555
H7 K2 2.693079 1_555
H8 K8 2.596180 1_555
H8 K6 2.729204 1_555
H9 O7 0.991843 1_555
H9 K9 2.836697 1_555
H10 Sb2 1.737013 1_555
H10 K9 2.664657 1_555
H11 O12 0.986433 1_555
H12 H18 0.759192 1_555
H12 K4 2.525471 1_556
H13 O8 0.991338 1_555
H14 O12 0.997435 1_555
H14 K4 2.673690 1_555
H15 O15 0.981075 1_555
H15 K3 2.655396 1_555
H16 O9 0.981475 1_555
H16 K8 2.843244 1_555
H17 O5 0.995212 1_555
H18 K4 2.671581 1_556
H18 K5 2.797469 1_555
H19 O4 1.035711 1_555
H19 S1 1.996335 1_555
H20 S11 1.353101 1_555
H21 O4 0.975301 1_555
H22 H8 0.762418 1_555
H22 K8 2.601090 1_555
H23 S13 1.355278 1_555
H24 S10 1.408298 1_555
H25 Sb2 1.748066 1_555
H25 K8 2.693079 1_555
H26 H4 0.762418 1_555
H26 K2 2.596180 1_655
H26 K0 2.729204 1_555
H27 O16 0.991843 1_555
H27 K3 2.836697 1_555
H28 Sb0 1.737013 1_555
H28 K3 2.664657 1_555
H29 O3 0.986433 1_555
H30 K10 2.525471 1_554
H31 O17 0.991338 1_555
H32 O3 0.997435 1_555
H32 K10 2.673690 1_555
H33 O6 0.981075 1_555
H33 K9 2.655396 1_455
H34 O0 0.981475 1_555
H34 K2 2.843244 1_555
H35 O14 0.995212 1_555
S0 S2 2.020392 1_555
S1 Sb1 2.372300 1_555
S4 S7 2.063263 1_555
S4 Sb3 2.821359 1_555
S6 S7 2.093927 1_455
S6 Sb0 2.940536 1_555
S9 Sb3 2.372300 1_555
S10 S8 2.020392 1_555
S12 S15 2.063263 1_555
S12 Sb1 2.821359 1_555
S14 S15 2.093927 1_555
S14 Sb2 2.940536 1_555
O0 O2 1.507508 1_455
O1 S2 1.537009 1_555
O6 Sb1 2.090528 1_555
O7 Sb2 2.146343 1_555
O10 S10 1.537009 1_555
O11 O9 1.507508 1_555
O15 Sb3 2.090528 1_555
O16 Sb0 2.146343 1_555
