# generated using pymatgen
data_Gd3Co29(Si2B5)2
_symmetry_space_group_name_H-M   'P 1'
_cell_length_a   7.81672600
_cell_length_b   11.15207400
_cell_length_c   11.15207400
_cell_angle_alpha   90.00000000
_cell_angle_beta   90.00000000
_cell_angle_gamma   90.00000000
_symmetry_Int_Tables_number   1
_chemical_formula_structural   Gd3Co29(Si2B5)2
_chemical_formula_sum   'Gd6 Co58 Si8 B20'
_cell_volume   972.15647690
_cell_formula_units_Z   2
loop_
 _symmetry_equiv_pos_site_id
 _symmetry_equiv_pos_as_xyz
  1  'x, y, z'
loop_
 _atom_site_type_symbol
 _atom_site_label
 _atom_site_symmetry_multiplicity
 _atom_site_fract_x
 _atom_site_fract_y
 _atom_site_fract_z
 _atom_site_occupancy
  Gd  Gd0  1  0.00000000  0.50000000  0.00000000  1
  Gd  Gd1  1  0.50000000  0.75000000  0.25000000  1
  Gd  Gd2  1  0.50000000  0.25000000  0.75000000  1
  Gd  Gd3  1  0.00000000  0.50000000  0.50000000  1
  Gd  Gd4  1  0.00000000  0.00000000  0.50000000  1
  Gd  Gd5  1  0.00000000  0.00000000  0.00000000  1
  Co  Co0  1  0.69750700  0.14003500  0.14003500  1
  Co  Co1  1  0.88825800  0.86002200  0.25000000  1
  Co  Co2  1  0.66390000  0.57547900  0.08865200  1
  Co  Co3  1  0.24973500  0.36426400  0.13573600  1
  Co  Co4  1  0.69750700  0.35996500  0.14003500  1
  Co  Co5  1  0.11174200  0.75000000  0.13997800  1
  Co  Co6  1  0.88825800  0.25000000  0.86002200  1
  Co  Co7  1  0.03021200  0.75000000  0.91489200  1
  Co  Co8  1  0.24973500  0.36426400  0.36426400  1
  Co  Co9  1  0.33610000  0.07547900  0.58865200  1
  Co  Co10  1  0.52715700  0.75000000  0.52255800  1
  Co  Co11  1  0.30249300  0.64003500  0.85996500  1
  Co  Co12  1  0.33610000  0.91134800  0.42452100  1
  Co  Co13  1  0.30249300  0.64003500  0.64003500  1
  Co  Co14  1  0.52715700  0.75000000  0.97744200  1
  Co  Co15  1  0.33610000  0.07547900  0.91134800  1
  Co  Co16  1  0.47284300  0.25000000  0.02255800  1
  Co  Co17  1  0.53225100  0.75000000  0.75000000  1
  Co  Co18  1  0.03021200  0.75000000  0.58510800  1
  Co  Co19  1  0.88825800  0.25000000  0.63997800  1
  Co  Co20  1  0.47284300  0.25000000  0.47744200  1
  Co  Co21  1  0.33610000  0.58865200  0.07547900  1
  Co  Co22  1  0.11174200  0.13997800  0.75000000  1
  Co  Co23  1  0.66390000  0.08865200  0.92452100  1
  Co  Co24  1  0.66390000  0.08865200  0.57547900  1
  Co  Co25  1  0.24973500  0.13573600  0.13573600  1
  Co  Co26  1  0.66390000  0.92452100  0.41134800  1
  Co  Co27  1  0.69750700  0.14003500  0.35996500  1
  Co  Co28  1  0.33610000  0.42452100  0.58865200  1
  Co  Co29  1  0.24973500  0.13573600  0.36426400  1
  Co  Co30  1  0.66390000  0.92452100  0.08865200  1
  Co  Co31  1  0.30249300  0.85996500  0.64003500  1
  Co  Co32  1  0.88825800  0.63997800  0.25000000  1
  Co  Co33  1  0.96978800  0.25000000  0.08510800  1
  Co  Co34  1  0.47284300  0.02255800  0.25000000  1
  Co  Co35  1  0.52715700  0.97744200  0.75000000  1
  Co  Co36  1  0.66390000  0.41134800  0.92452100  1
  Co  Co37  1  0.96978800  0.41489200  0.25000000  1
  Co  Co38  1  0.75026500  0.63573600  0.86426400  1
  Co  Co39  1  0.75026500  0.86426400  0.86426400  1
  Co  Co40  1  0.75026500  0.86426400  0.63573600  1
  Co  Co41  1  0.11174200  0.75000000  0.36002200  1
  Co  Co42  1  0.75026500  0.63573600  0.63573600  1
  Co  Co43  1  0.11174200  0.36002200  0.75000000  1
  Co  Co44  1  0.66390000  0.57547900  0.41134800  1
  Co  Co45  1  0.03021200  0.91489200  0.75000000  1
  Co  Co46  1  0.03021200  0.58510800  0.75000000  1
  Co  Co47  1  0.66390000  0.41134800  0.57547900  1
  Co  Co48  1  0.96978800  0.25000000  0.41489200  1
  Co  Co49  1  0.69750700  0.35996500  0.35996500  1
  Co  Co50  1  0.47284300  0.47744200  0.25000000  1
  Co  Co51  1  0.30249300  0.85996500  0.85996500  1
  Co  Co52  1  0.46774900  0.25000000  0.25000000  1
  Co  Co53  1  0.33610000  0.58865200  0.42452100  1
  Co  Co54  1  0.33610000  0.91134800  0.07547900  1
  Co  Co55  1  0.33610000  0.42452100  0.91134800  1
  Co  Co56  1  0.96978800  0.08510800  0.25000000  1
  Co  Co57  1  0.52715700  0.52255800  0.75000000  1
  Si  Si0  1  0.82508800  0.75000000  0.43139900  1
  Si  Si1  1  0.82508800  0.75000000  0.06860100  1
  Si  Si2  1  0.82508800  0.43139900  0.75000000  1
  Si  Si3  1  0.17491200  0.25000000  0.56860100  1
  Si  Si4  1  0.17491200  0.93139900  0.25000000  1
  Si  Si5  1  0.82508800  0.06860100  0.75000000  1
  Si  Si6  1  0.17491200  0.56860100  0.25000000  1
  Si  Si7  1  0.17491200  0.25000000  0.93139900  1
  B  B0  1  0.48121700  0.43631800  0.06368200  1
  B  B1  1  0.10106700  0.25000000  0.25000000  1
  B  B2  1  0.73647100  0.50577900  0.25000000  1
  B  B3  1  0.48121700  0.06368200  0.43631800  1
  B  B4  1  0.84871400  0.25000000  0.25000000  1
  B  B5  1  0.51878300  0.56368200  0.93631800  1
  B  B6  1  0.51878300  0.56368200  0.56368200  1
  B  B7  1  0.51878300  0.93631800  0.93631800  1
  B  B8  1  0.26352900  0.75000000  0.49422100  1
  B  B9  1  0.89893300  0.75000000  0.75000000  1
  B  B10  1  0.73647100  0.25000000  0.99422100  1
  B  B11  1  0.15128600  0.75000000  0.75000000  1
  B  B12  1  0.48121700  0.43631800  0.43631800  1
  B  B13  1  0.73647100  0.25000000  0.50577900  1
  B  B14  1  0.26352900  0.00577900  0.75000000  1
  B  B15  1  0.48121700  0.06368200  0.06368200  1
  B  B16  1  0.26352900  0.49422100  0.75000000  1
  B  B17  1  0.26352900  0.75000000  0.00577900  1
  B  B18  1  0.73647100  0.99422100  0.25000000  1
  B  B19  1  0.51878300  0.93631800  0.56368200  1
loop_
_geom_bond_atom_site_label_1
_geom_bond_atom_site_label_2
_geom_bond_distance
_geom_bond_site_symmetry_2
Gd0 Si7 3.198075 1_554
Gd0 Si1 3.198075 1_455
Gd0 Si6 3.198075 1_555
Gd0 Si2 3.198075 1_454
Gd1 Si4 3.248036 1_555
Gd1 Si6 3.248036 1_555
Gd1 Si0 3.248036 1_555
Gd1 Si1 3.248036 1_555
Gd2 Si7 3.248036 1_555
Gd2 Si3 3.248036 1_555
Gd2 Si5 3.248036 1_555
Gd2 Si2 3.248036 1_555
Gd3 Si2 3.198075 1_455
Gd3 Si6 3.198075 1_555
Gd3 Si0 3.198075 1_455
Gd3 Si3 3.198075 1_555
Gd4 Si5 3.198075 1_455
Gd4 Si3 3.198075 1_555
Gd4 Si4 3.198075 1_545
Gd4 Si0 3.198075 1_445
Gd5 Si5 3.198075 1_454
Gd5 Si1 3.198075 1_445
Gd5 Si7 3.198075 1_554
Gd5 Si4 3.198075 1_545
Co0 Co52 2.496651 1_555
Co0 Gd5 3.235518 1_655
Co1 Si4 2.377885 1_655
Co1 Si0 2.416964 1_555
Co1 Si1 2.416964 1_555
Co1 Gd4 3.312527 1_665
Co1 Gd5 3.312527 1_665
Co2 Si1 2.329266 1_555
Co2 Gd0 2.930557 1_655
Co2 Gd1 2.943987 1_555
Co3 Co52 2.480268 1_555
Co3 Si7 2.675576 1_554
Co3 Si6 2.675576 1_555
Co3 Gd0 2.897160 1_555
Co4 Co52 2.496651 1_555
Co4 Gd0 3.235518 1_655
Co5 Si1 2.377885 1_455
Co5 Si4 2.416964 1_555
Co5 Si6 2.416964 1_555
Co5 Gd5 3.312527 1_565
Co5 Gd0 3.312527 1_555
Co6 Si7 2.377885 1_655
Co6 Si2 2.416964 1_555
Co6 Si5 2.416964 1_555
Co6 Gd0 3.312527 1_656
Co6 Gd5 3.312527 1_656
Co7 Si1 2.347185 1_456
Co7 Gd0 2.954601 1_556
Co7 Gd5 2.954601 1_566
Co8 Si6 2.675576 1_555
Co8 Si3 2.675576 1_555
Co8 Gd3 2.897160 1_555
Co9 Si3 2.329266 1_555
Co9 Gd4 2.930557 1_555
Co9 Gd2 2.943987 1_555
Co10 Co17 2.536763 1_555
Co10 Si0 2.541066 1_555
Co10 Gd1 3.046991 1_555
Co11 Co17 2.496651 1_555
Co11 Gd0 3.235518 1_556
Co12 Si4 2.329266 1_555
Co12 Gd4 2.930557 1_565
Co12 Gd1 2.943987 1_555
Co13 Co17 2.496651 1_555
Co13 Gd3 3.235518 1_555
Co14 Co17 2.536763 1_555
Co14 Si1 2.541066 1_556
Co14 Gd1 3.046991 1_556
Co15 Si7 2.329266 1_555
Co15 Gd5 2.930557 1_556
Co15 Gd2 2.943987 1_555
Co16 Co52 2.536763 1_555
Co16 Si7 2.541066 1_554
Co16 Gd2 3.046991 1_554
Co17 Co42 2.480268 1_555
Co17 Co39 2.480268 1_555
Co17 Co40 2.480268 1_555
Co17 Co38 2.480268 1_555
Co17 Co31 2.496651 1_555
Co17 Co51 2.496651 1_555
Co17 Co57 2.536763 1_555
Co17 Co35 2.536763 1_555
Co18 Si0 2.347185 1_455
Co18 Gd3 2.954601 1_555
Co18 Gd4 2.954601 1_565
Co19 Si3 2.377885 1_655
Co19 Si2 2.416964 1_555
Co19 Si5 2.416964 1_555
Co19 Gd3 3.312527 1_655
Co19 Gd4 3.312527 1_655
Co20 Co52 2.536763 1_555
Co20 Si3 2.541066 1_555
Co20 Gd2 3.046991 1_555
Co21 Si6 2.329266 1_555
Co21 Gd0 2.930557 1_555
Co21 Gd1 2.943987 1_555
Co22 Si5 2.377885 1_455
Co22 Si3 2.416964 1_555
Co22 Si7 2.416964 1_555
Co22 Gd5 3.312527 1_556
Co22 Gd4 3.312527 1_555
Co23 Si5 2.329266 1_555
Co23 Gd5 2.930557 1_656
Co23 Gd2 2.943987 1_555
Co24 Si5 2.329266 1_555
Co24 Gd4 2.930557 1_655
Co24 Gd2 2.943987 1_555
Co25 Co52 2.480268 1_555
Co25 Si4 2.675576 1_545
Co25 Si7 2.675576 1_554
Co25 Gd5 2.897160 1_555
Co26 Si0 2.329266 1_555
Co26 Gd4 2.930557 1_665
Co26 Gd1 2.943987 1_555
Co27 Co52 2.496651 1_555
Co27 Gd4 3.235518 1_655
Co28 Si3 2.329266 1_555
Co28 Gd3 2.930557 1_555
Co28 Gd2 2.943987 1_555
Co29 Co52 2.480268 1_555
Co29 Si4 2.675576 1_545
Co29 Si3 2.675576 1_555
Co29 Gd4 2.897160 1_555
Co30 Si1 2.329266 1_555
Co30 Gd5 2.930557 1_665
Co30 Gd1 2.943987 1_555
Co31 Gd4 3.235518 1_565
Co32 Si6 2.377885 1_655
Co32 Si0 2.416964 1_555
Co32 Si1 2.416964 1_555
Co32 Gd3 3.312527 1_655
Co32 Gd0 3.312527 1_655
Co33 Si7 2.347185 1_654
Co33 Gd0 2.954601 1_655
Co33 Gd5 2.954601 1_655
Co34 Co52 2.536763 1_555
Co34 Si4 2.541066 1_545
Co34 Gd1 3.046991 1_545
Co35 Si5 2.541066 1_565
Co35 Gd2 3.046991 1_565
Co36 Si2 2.329266 1_555
Co36 Gd0 2.930557 1_656
Co36 Gd2 2.943987 1_555
Co37 Si6 2.347185 1_655
Co37 Gd3 2.954601 1_655
Co37 Gd0 2.954601 1_655
Co38 Si1 2.675576 1_556
Co38 Si2 2.675576 1_555
Co38 Gd0 2.897160 1_656
Co39 Si1 2.675576 1_556
Co39 Si5 2.675576 1_565
Co39 Gd5 2.897160 1_666
Co40 Si5 2.675576 1_565
Co40 Si0 2.675576 1_555
Co40 Gd4 2.897160 1_665
Co41 Si0 2.377885 1_455
Co41 Si4 2.416964 1_555
Co41 Si6 2.416964 1_555
Co41 Gd3 3.312527 1_555
Co41 Gd4 3.312527 1_565
Co42 Si0 2.675576 1_555
Co42 Si2 2.675576 1_555
Co42 Gd3 2.897160 1_655
Co43 Si2 2.377885 1_455
Co43 Si3 2.416964 1_555
Co43 Si7 2.416964 1_555
Co43 Gd0 3.312527 1_556
Co43 Gd3 3.312527 1_555
Co44 Si0 2.329266 1_555
Co44 Gd3 2.930557 1_655
Co44 Gd1 2.943987 1_555
Co45 Si5 2.347185 1_465
Co45 Gd4 2.954601 1_565
Co45 Gd5 2.954601 1_566
Co46 Si2 2.347185 1_455
Co46 Gd0 2.954601 1_556
Co46 Gd3 2.954601 1_555
Co47 Si2 2.329266 1_555
Co47 Gd3 2.930557 1_655
Co47 Gd2 2.943987 1_555
Co48 Si3 2.347185 1_655
Co48 Gd3 2.954601 1_655
Co48 Gd4 2.954601 1_655
Co49 Co52 2.496651 1_555
Co49 Gd3 3.235518 1_655
Co50 Co52 2.536763 1_555
Co50 Si6 2.541066 1_555
Co50 Gd1 3.046991 1_555
Co51 Gd5 3.235518 1_566
Co52 Co8 2.480268 1_555
Co53 Si6 2.329266 1_555
Co53 Gd3 2.930557 1_555
Co53 Gd1 2.943987 1_555
Co54 Si4 2.329266 1_555
Co54 Gd5 2.930557 1_565
Co54 Gd1 2.943987 1_555
Co55 Si7 2.329266 1_555
Co55 Gd0 2.930557 1_556
Co55 Gd2 2.943987 1_555
Co56 Si4 2.347185 1_645
Co56 Gd5 2.954601 1_655
Co56 Gd4 2.954601 1_655
Co57 Si2 2.541066 1_555
Co57 Gd2 3.046991 1_555
B0 B5 2.030060 1_554
B0 Co21 2.046972 1_555
B0 Co55 2.046972 1_554
B0 Co4 2.075689 1_555
B0 Co36 2.127247 1_554
B0 Co2 2.127247 1_555
B0 Co16 2.128850 1_555
B0 Co50 2.128850 1_555
B0 Co3 2.136687 1_555
B1 B4 1.972574 1_455
B1 Co33 2.105834 1_455
B1 Co56 2.105834 1_455
B1 Co37 2.105834 1_455
B1 Co48 2.105834 1_455
B1 Co8 2.144307 1_555
B1 Co25 2.144307 1_555
B1 Co3 2.144307 1_555
B1 Co29 2.144307 1_555
B2 Co32 1.909851 1_555
B2 Co2 2.040515 1_555
B2 Co44 2.040515 1_555
B2 Co4 2.059360 1_555
B2 Co49 2.059360 1_555
B2 Co50 2.084798 1_555
B2 Co37 2.086504 1_555
B3 Co9 2.046972 1_555
B3 Co12 2.046972 1_545
B3 Co27 2.075689 1_555
B3 Co24 2.127247 1_555
B3 Co26 2.127247 1_545
B3 Co20 2.128850 1_555
B3 Co34 2.128850 1_555
B3 Co29 2.136687 1_555
B4 Co48 2.068136 1_555
B4 Co56 2.068136 1_555
B4 Co33 2.068136 1_555
B4 Co37 2.068136 1_555
B4 Co4 2.098761 1_555
B4 Co49 2.098761 1_555
B4 Co27 2.098761 1_555
B4 Co0 2.098761 1_555
B5 Co2 2.046972 1_556
B5 Co36 2.046972 1_555
B5 Co11 2.075689 1_555
B5 Co55 2.127247 1_555
B5 Co21 2.127247 1_556
B5 Co14 2.128850 1_555
B5 Co57 2.128850 1_555
B5 Co38 2.136687 1_555
B6 Co47 2.046972 1_555
B6 Co44 2.046972 1_555
B6 Co13 2.075689 1_555
B6 Co28 2.127247 1_555
B6 Co53 2.127247 1_555
B6 Co10 2.128850 1_555
B6 Co57 2.128850 1_555
B6 Co42 2.136687 1_555
B7 Co23 2.046972 1_565
B7 Co30 2.046972 1_556
B7 Co51 2.075689 1_555
B7 Co15 2.127247 1_565
B7 Co54 2.127247 1_556
B7 Co14 2.128850 1_555
B7 Co35 2.128850 1_555
B7 Co39 2.136687 1_555
B8 Co41 1.909851 1_555
B8 Co53 2.040515 1_555
B8 Co12 2.040515 1_555
B8 Co31 2.059360 1_555
B8 Co13 2.059360 1_555
B8 Co10 2.084798 1_555
B8 Co18 2.086504 1_555
B9 Co46 2.105834 1_655
B9 Co18 2.105834 1_655
B9 Co7 2.105834 1_655
B9 Co45 2.105834 1_655
B9 Co39 2.144307 1_555
B9 Co42 2.144307 1_555
B9 Co40 2.144307 1_555
B9 Co38 2.144307 1_555
B10 Co6 1.909851 1_555
B10 Co23 2.040515 1_555
B10 Co36 2.040515 1_555
B10 Co4 2.059360 1_556
B10 Co0 2.059360 1_556
B10 Co16 2.084798 1_556
B10 Co33 2.086504 1_556
B11 B9 1.972574 1_455
B11 Co46 2.068136 1_555
B11 Co18 2.068136 1_555
B11 Co45 2.068136 1_555
B11 Co7 2.068136 1_555
B11 Co11 2.098761 1_555
B11 Co31 2.098761 1_555
B11 Co51 2.098761 1_555
B11 Co13 2.098761 1_555
B12 B6 2.030060 1_555
B12 Co53 2.046972 1_555
B12 Co28 2.046972 1_555
B12 Co49 2.075689 1_555
B12 Co47 2.127247 1_555
B12 Co44 2.127247 1_555
B12 Co50 2.128850 1_555
B12 Co20 2.128850 1_555
B12 Co8 2.136687 1_555
B13 Co19 1.909851 1_555
B13 Co47 2.040515 1_555
B13 Co24 2.040515 1_555
B13 Co49 2.059360 1_555
B13 Co27 2.059360 1_555
B13 Co20 2.084798 1_555
B13 Co48 2.086504 1_555
B14 Co22 1.909851 1_555
B14 Co9 2.040515 1_555
B14 Co15 2.040515 1_555
B14 Co51 2.059360 1_545
B14 Co31 2.059360 1_545
B14 Co35 2.084798 1_545
B14 Co45 2.086504 1_545
B15 B7 2.030060 1_544
B15 Co15 2.046972 1_554
B15 Co54 2.046972 1_545
B15 Co0 2.075689 1_555
B15 Co30 2.127247 1_545
B15 Co23 2.127247 1_554
B15 Co16 2.128850 1_555
B15 Co34 2.128850 1_555
B15 Co25 2.136687 1_555
B16 Co43 1.909851 1_555
B16 Co28 2.040515 1_555
B16 Co55 2.040515 1_555
B16 Co11 2.059360 1_555
B16 Co13 2.059360 1_555
B16 Co57 2.084798 1_555
B16 Co46 2.086504 1_555
B17 Co5 1.909851 1_555
B17 Co21 2.040515 1_555
B17 Co54 2.040515 1_555
B17 Co11 2.059360 1_554
B17 Co51 2.059360 1_554
B17 Co14 2.084798 1_554
B17 Co7 2.086504 1_554
B18 Co1 1.909851 1_555
B18 Co26 2.040515 1_555
B18 Co30 2.040515 1_555
B18 Co0 2.059360 1_565
B18 Co27 2.059360 1_565
B18 Co34 2.084798 1_565
B18 Co56 2.086504 1_565
B19 B3 2.030060 1_565
B19 Co24 2.046972 1_565
B19 Co26 2.046972 1_555
B19 Co31 2.075689 1_555
B19 Co12 2.127247 1_555
B19 Co9 2.127247 1_565
B19 Co10 2.128850 1_555
B19 Co35 2.128850 1_555
B19 Co40 2.136687 1_555
