# generated using pymatgen
data_U(HO2)2
_symmetry_space_group_name_H-M   'P 1'
_cell_length_a   5.42213800
_cell_length_b   6.02181800
_cell_length_c   10.14415400
_cell_angle_alpha   90.00000000
_cell_angle_beta   90.00000000
_cell_angle_gamma   90.00000000
_symmetry_Int_Tables_number   1
_chemical_formula_structural   U(HO2)2
_chemical_formula_sum   'U4 H8 O16'
_cell_volume   331.21807280
_cell_formula_units_Z   4
loop_
 _symmetry_equiv_pos_site_id
 _symmetry_equiv_pos_as_xyz
  1  'x, y, z'
loop_
 _atom_site_type_symbol
 _atom_site_label
 _atom_site_symmetry_multiplicity
 _atom_site_fract_x
 _atom_site_fract_y
 _atom_site_fract_z
 _atom_site_occupancy
  U  U0  1  0.50000000  0.00000000  0.50000000  1
  U  U1  1  0.00000000  0.50000000  0.50000000  1
  U  U2  1  0.50000000  0.50000000  0.00000000  1
  U  U3  1  0.00000000  0.00000000  0.00000000  1
  H  H0  1  0.64982800  0.37884900  0.26156200  1
  H  H1  1  0.14982800  0.12115100  0.73843800  1
  H  H2  1  0.35017200  0.87884900  0.23843800  1
  H  H3  1  0.85017200  0.62115100  0.76156200  1
  H  H4  1  0.35017200  0.62115100  0.73843800  1
  H  H5  1  0.85017200  0.87884900  0.26156200  1
  H  H6  1  0.64982800  0.12115100  0.76156200  1
  H  H7  1  0.14982800  0.37884900  0.23843800  1
  O  O0  1  0.66508300  0.47239500  0.18147700  1
  O  O1  1  0.16508300  0.02760500  0.81852300  1
  O  O2  1  0.33491700  0.97239500  0.31852300  1
  O  O3  1  0.83491700  0.52760500  0.68147700  1
  O  O4  1  0.33491700  0.52760500  0.81852300  1
  O  O5  1  0.83491700  0.97239500  0.18147700  1
  O  O6  1  0.66508300  0.02760500  0.68147700  1
  O  O7  1  0.16508300  0.47239500  0.31852300  1
  O  O8  1  0.73477400  0.29695300  0.43947800  1
  O  O9  1  0.23477400  0.20304700  0.56052200  1
  O  O10  1  0.26522600  0.79695300  0.06052200  1
  O  O11  1  0.76522600  0.70304700  0.93947800  1
  O  O12  1  0.26522600  0.70304700  0.56052200  1
  O  O13  1  0.76522600  0.79695300  0.43947800  1
  O  O14  1  0.73477400  0.20304700  0.93947800  1
  O  O15  1  0.23477400  0.29695300  0.06052200  1
loop_
_geom_bond_atom_site_label_1
_geom_bond_atom_site_label_2
_geom_bond_distance
_geom_bond_site_symmetry_2
H0 O0 0.992045 1_555
H1 O1 0.992045 1_555
H2 O2 0.992045 1_555
H3 O3 0.992045 1_555
H4 O4 0.992045 1_555
H5 O5 0.992045 1_555
H6 O6 0.992045 1_555
H7 O7 0.992045 1_555
O0 U2 2.053745 1_555
O1 U3 2.053745 1_556
O2 U0 2.053745 1_565
O3 U1 2.053745 1_655
O4 U2 2.053745 1_556
O5 U3 2.053745 1_665
O6 U0 2.053745 1_555
O7 U1 2.053745 1_555
O8 U1 1.984959 1_655
O8 U0 2.279264 1_555
O9 U0 1.984959 1_555
O9 U1 2.279264 1_555
O10 U3 1.984959 1_565
O10 U2 2.279264 1_555
O11 U2 1.984959 1_556
O11 U3 2.279264 1_666
O12 U1 1.984959 1_555
O12 U0 2.279264 1_565
O13 U0 1.984959 1_565
O13 U1 2.279264 1_655
O14 U3 1.984959 1_656
O14 U2 2.279264 1_556
O15 U2 1.984959 1_555
O15 U3 2.279264 1_555
