# generated using pymatgen
data_MnTcPd
_symmetry_space_group_name_H-M   'P 1'
_cell_length_a   4.09196047
_cell_length_b   4.09196047
_cell_length_c   4.09196047
_cell_angle_alpha   60.00000000
_cell_angle_beta   60.00000000
_cell_angle_gamma   60.00000000
_symmetry_Int_Tables_number   1
_chemical_formula_structural   MnTcPd
_chemical_formula_sum   'Mn1 Tc1 Pd1'
_cell_volume   48.44838364
_cell_formula_units_Z   1
loop_
 _symmetry_equiv_pos_site_id
 _symmetry_equiv_pos_as_xyz
  1  'x, y, z'
loop_
 _atom_site_type_symbol
 _atom_site_label
 _atom_site_symmetry_multiplicity
 _atom_site_fract_x
 _atom_site_fract_y
 _atom_site_fract_z
 _atom_site_occupancy
  Mn  Mn0  1  0.75000000  0.75000000  0.75000000  1
  Tc  Tc0  1  0.50000000  0.50000000  0.50000000  1
  Pd  Pd0  1  0.00000000  0.00000000  0.00000000  1
loop_
_geom_bond_atom_site_label_1
_geom_bond_atom_site_label_2
_geom_bond_distance
_geom_bond_site_symmetry_2
Mn0 Tc0 2.505804 1_655
Mn0 Pd0 2.505804 1_566
Mn0 Pd0 2.505804 1_665
Mn0 Tc0 2.505804 1_565
Mn0 Pd0 2.505804 1_666
Mn0 Tc0 2.505804 1_555
Mn0 Tc0 2.505804 1_556
Mn0 Pd0 2.505804 1_656
Pd0 Tc0 2.893453 1_554
Pd0 Tc0 2.893453 1_544
Pd0 Tc0 2.893453 1_445
Pd0 Tc0 2.893453 1_545
Pd0 Tc0 2.893453 1_454
Pd0 Tc0 2.893453 1_455
