# generated using pymatgen
data_La2MgIrO6
_symmetry_space_group_name_H-M   'P 1'
_cell_length_a   5.71753800
_cell_length_b   5.59841100
_cell_length_c   9.72872952
_cell_angle_alpha   54.94272960
_cell_angle_beta   90.00000000
_cell_angle_gamma   90.00000000
_symmetry_Int_Tables_number   1
_chemical_formula_structural   La2MgIrO6
_chemical_formula_sum   'La4 Mg2 Ir2 O12'
_cell_volume   254.91195397
_cell_formula_units_Z   2
loop_
 _symmetry_equiv_pos_site_id
 _symmetry_equiv_pos_as_xyz
  1  'x, y, z'
loop_
 _atom_site_type_symbol
 _atom_site_label
 _atom_site_symmetry_multiplicity
 _atom_site_fract_x
 _atom_site_fract_y
 _atom_site_fract_z
 _atom_site_occupancy
  La  La0  1  0.54856200  0.73826300  0.75078200  1
  La  La1  1  0.04856200  0.26173700  0.74921800  1
  La  La2  1  0.95143800  0.73826300  0.25078200  1
  La  La3  1  0.45143800  0.26173700  0.24921800  1
  Mg  Mg0  1  0.50000000  0.50000000  0.50000000  1
  Mg  Mg1  1  0.00000000  0.50000000  0.00000000  1
  Ir  Ir0  1  0.50000000  0.00000000  0.00000000  1
  Ir  Ir1  1  0.00000000  0.00000000  0.50000000  1
  O  O0  1  0.52292200  0.83910000  0.24810400  1
  O  O1  1  0.02292200  0.16090000  0.25189600  1
  O  O2  1  0.47707800  0.16090000  0.75189600  1
  O  O3  1  0.97707800  0.83910000  0.74810400  1
  O  O4  1  0.79426300  0.66120800  0.54701900  1
  O  O5  1  0.29426300  0.33879200  0.95298100  1
  O  O6  1  0.20573700  0.33879200  0.45298100  1
  O  O7  1  0.70573700  0.66120800  0.04701900  1
  O  O8  1  0.21099500  0.75070700  0.04718200  1
  O  O9  1  0.71099500  0.24929300  0.45281800  1
  O  O10  1  0.78900500  0.24929300  0.95281800  1
  O  O11  1  0.28900500  0.75070700  0.54718200  1
loop_
_geom_bond_atom_site_label_1
_geom_bond_atom_site_label_2
_geom_bond_distance
_geom_bond_site_symmetry_2
La0 O2 2.407287 1_565
La0 O5 2.435417 1_555
La0 O11 2.443790 1_555
La0 O3 2.511026 1_555
La0 O10 2.658154 1_555
La0 O4 2.659267 1_555
La0 O7 2.805603 1_556
La0 O9 2.814844 1_565
La1 O3 2.407287 1_445
La1 O4 2.435417 1_455
La1 O10 2.443790 1_455
La1 O2 2.511026 1_555
La1 O11 2.658154 1_555
La1 O5 2.659267 1_555
La1 O6 2.805603 1_555
La1 O8 2.814844 1_546
La2 O1 2.407287 1_665
La2 O6 2.435417 1_655
La2 O8 2.443790 1_655
La2 O0 2.511026 1_555
La2 O9 2.658154 1_555
La2 O7 2.659267 1_555
La2 O4 2.805603 1_555
La2 O10 2.814844 1_564
La3 O0 2.407287 1_545
La3 O7 2.435417 1_555
La3 O9 2.443790 1_555
La3 O1 2.511026 1_555
La3 O8 2.658154 1_555
La3 O6 2.659267 1_555
La3 O5 2.805603 1_554
La3 O11 2.814844 1_545
Mg0 O0 2.069351 1_555
Mg0 O2 2.069351 1_555
Mg0 O6 2.080554 1_555
Mg0 O4 2.080554 1_555
Mg0 O11 2.091923 1_555
Mg0 O9 2.091923 1_555
Mg1 O3 2.069351 1_454
Mg1 O1 2.069351 1_555
Mg1 O5 2.080554 1_554
Mg1 O7 2.080554 1_455
Mg1 O8 2.091923 1_555
Mg1 O10 2.091923 1_454
Ir0 O8 2.037889 1_545
Ir0 O10 2.037889 1_554
Ir0 O2 2.038860 1_554
Ir0 O0 2.038860 1_545
Ir0 O5 2.047853 1_554
Ir0 O7 2.047853 1_545
Ir1 O9 2.037889 1_455
Ir1 O11 2.037889 1_545
Ir1 O1 2.038860 1_555
Ir1 O3 2.038860 1_445
Ir1 O4 2.047853 1_445
Ir1 O6 2.047853 1_555
