# generated using pymatgen
data_LiCa9Co(PO4)7
_symmetry_space_group_name_H-M   'P 1'
_cell_length_a   13.80516463
_cell_length_b   13.80516463
_cell_length_c   13.80516453
_cell_angle_alpha   44.46673361
_cell_angle_beta   44.46673361
_cell_angle_gamma   44.46673364
_symmetry_Int_Tables_number   1
_chemical_formula_structural   LiCa9Co(PO4)7
_chemical_formula_sum   'Li2 Ca18 Co2 P14 O56'
_cell_volume   1173.74550126
_cell_formula_units_Z   2
loop_
 _symmetry_equiv_pos_site_id
 _symmetry_equiv_pos_as_xyz
  1  'x, y, z'
loop_
 _atom_site_type_symbol
 _atom_site_label
 _atom_site_symmetry_multiplicity
 _atom_site_fract_x
 _atom_site_fract_y
 _atom_site_fract_z
 _atom_site_occupancy
  Li  Li0  1  0.82958700  0.82958700  0.82958700  1
  Li  Li1  1  0.32958700  0.32958700  0.32958700  1
  Ca  Ca0  1  0.34036900  0.93451800  0.92536800  1
  Ca  Ca1  1  0.03251600  0.44287100  0.05136400  1
  Ca  Ca2  1  0.44287100  0.05136400  0.03251600  1
  Ca  Ca3  1  0.84036900  0.42536800  0.43451800  1
  Ca  Ca4  1  0.65076700  0.06483200  0.09156200  1
  Ca  Ca5  1  0.43451800  0.84036900  0.42536800  1
  Ca  Ca6  1  0.59156200  0.56483200  0.15076700  1
  Ca  Ca7  1  0.94287100  0.53251600  0.55136400  1
  Ca  Ca8  1  0.55136400  0.94287100  0.53251600  1
  Ca  Ca9  1  0.42536800  0.43451800  0.84036900  1
  Ca  Ca10  1  0.06483200  0.09156200  0.65076700  1
  Ca  Ca11  1  0.53251600  0.55136400  0.94287100  1
  Ca  Ca12  1  0.15076700  0.59156200  0.56483200  1
  Ca  Ca13  1  0.56483200  0.15076700  0.59156200  1
  Ca  Ca14  1  0.09156200  0.65076700  0.06483200  1
  Ca  Ca15  1  0.93451800  0.92536800  0.34036900  1
  Ca  Ca16  1  0.92536800  0.34036900  0.93451800  1
  Ca  Ca17  1  0.05136400  0.03251600  0.44287100  1
  Co  Co0  1  0.49812800  0.49812800  0.49812800  1
  Co  Co1  1  0.99812800  0.99812800  0.99812800  1
  P  P0  1  0.27743800  0.31522300  0.81267700  1
  P  P1  1  0.17245800  0.72736800  0.69399300  1
  P  P2  1  0.81267700  0.27743800  0.31522300  1
  P  P3  1  0.31522300  0.81267700  0.27743800  1
  P  P4  1  0.77743800  0.31267700  0.81522300  1
  P  P5  1  0.67245800  0.19399300  0.22736800  1
  P  P6  1  0.22736800  0.67245800  0.19399300  1
  P  P7  1  0.72940700  0.72940700  0.72940700  1
  P  P8  1  0.72736800  0.69399300  0.17245800  1
  P  P9  1  0.19399300  0.22736800  0.67245800  1
  P  P10  1  0.69399300  0.17245800  0.72736800  1
  P  P11  1  0.81522300  0.77743800  0.31267700  1
  P  P12  1  0.22940700  0.22940700  0.22940700  1
  P  P13  1  0.31267700  0.81522300  0.77743800  1
  O  O0  1  0.62492000  0.34773700  0.62590100  1
  O  O1  1  0.86918000  0.33100500  0.14542100  1
  O  O2  1  0.85508500  0.10394000  0.41047100  1
  O  O3  1  0.38448600  0.82630500  0.81634200  1
  O  O4  1  0.66520900  0.11184400  0.38679700  1
  O  O5  1  0.07049000  0.75037900  0.65896100  1
  O  O6  1  0.36791700  0.15290500  0.61669200  1
  O  O7  1  0.36399300  0.38294900  0.63535100  1
  O  O8  1  0.12492000  0.12590100  0.84773700  1
  O  O9  1  0.16520900  0.88679700  0.61184400  1
  O  O10  1  0.21731700  0.39459800  0.11432200  1
  O  O11  1  0.13535100  0.88294900  0.86399300  1
  O  O12  1  0.84773700  0.12492000  0.12590100  1
  O  O13  1  0.81634200  0.38448600  0.82630500  1
  O  O14  1  0.35508500  0.91047100  0.60394000  1
  O  O15  1  0.75037900  0.65896100  0.07049000  1
  O  O16  1  0.88679700  0.61184400  0.16520900  1
  O  O17  1  0.39459800  0.11432200  0.21731700  1
  O  O18  1  0.82630500  0.81634200  0.38448600  1
  O  O19  1  0.57049000  0.15896100  0.25037900  1
  O  O20  1  0.41047100  0.85508500  0.10394000  1
  O  O21  1  0.14542100  0.86918000  0.33100500  1
  O  O22  1  0.11432200  0.21731700  0.39459800  1
  O  O23  1  0.91047100  0.60394000  0.35508500  1
  O  O24  1  0.25037900  0.57049000  0.15896100  1
  O  O25  1  0.89459800  0.71731700  0.61432200  1
  O  O26  1  0.65290500  0.86791700  0.11669200  1
  O  O27  1  0.36918000  0.64542100  0.83100500  1
  O  O28  1  0.11184400  0.38679700  0.66520900  1
  O  O29  1  0.65896100  0.07049000  0.75037900  1
  O  O30  1  0.12590100  0.84773700  0.12492000  1
  O  O31  1  0.62590100  0.62492000  0.34773700  1
  O  O32  1  0.15290500  0.61669200  0.36791700  1
  O  O33  1  0.38294900  0.63535100  0.36399300  1
  O  O34  1  0.63535100  0.36399300  0.38294900  1
  O  O35  1  0.83100500  0.36918000  0.64542100  1
  O  O36  1  0.60394000  0.35508500  0.91047100  1
  O  O37  1  0.15896100  0.25037900  0.57049000  1
  O  O38  1  0.61432200  0.89459800  0.71731700  1
  O  O39  1  0.18763600  0.18763600  0.18763600  1
  O  O40  1  0.86791700  0.11669200  0.65290500  1
  O  O41  1  0.68763600  0.68763600  0.68763600  1
  O  O42  1  0.71731700  0.61432200  0.89459800  1
  O  O43  1  0.10394000  0.41047100  0.85508500  1
  O  O44  1  0.88448600  0.31634200  0.32630500  1
  O  O45  1  0.61669200  0.36791700  0.15290500  1
  O  O46  1  0.64542100  0.83100500  0.36918000  1
  O  O47  1  0.33100500  0.14542100  0.86918000  1
  O  O48  1  0.86399300  0.13535100  0.88294900  1
  O  O49  1  0.11669200  0.65290500  0.86791700  1
  O  O50  1  0.32630500  0.88448600  0.31634200  1
  O  O51  1  0.34773700  0.62590100  0.62492000  1
  O  O52  1  0.88294900  0.86399300  0.13535100  1
  O  O53  1  0.38679700  0.66520900  0.11184400  1
  O  O54  1  0.31634200  0.32630500  0.88448600  1
  O  O55  1  0.61184400  0.16520900  0.88679700  1
loop_
_geom_bond_atom_site_label_1
_geom_bond_atom_site_label_2
_geom_bond_distance
_geom_bond_site_symmetry_2
Li0 O15 2.260317 1_556
Li0 O5 2.260317 1_655
Li0 O29 2.260317 1_565
Li1 O37 2.260317 1_555
Li1 O24 2.260317 1_555
Li1 O19 2.260317 1_555
Ca0 O3 2.338875 1_555
Ca0 O47 2.340496 1_565
Ca0 O53 2.480624 1_556
Ca0 O20 2.499677 1_556
Ca0 O8 2.503499 1_565
Ca0 O30 2.549680 1_556
Ca0 O38 2.576155 1_555
Ca0 O6 2.894679 1_565
Ca1 O43 2.408633 1_554
Ca1 O16 2.445542 1_455
Ca1 O39 2.461589 1_555
Ca1 O44 2.488926 1_455
Ca1 O49 2.509823 1_554
Ca1 O54 2.580197 1_554
Ca1 O1 2.661689 1_455
Ca1 O15 2.685447 1_455
Ca1 O10 2.760377 1_555
Ca2 O20 2.408633 1_545
Ca2 O55 2.445542 1_554
Ca2 O39 2.461589 1_555
Ca2 O54 2.488926 1_554
Ca2 O26 2.509823 1_545
Ca2 O50 2.580197 1_545
Ca2 O47 2.661689 1_554
Ca2 O29 2.685447 1_554
Ca2 O17 2.760377 1_555
Ca3 O44 2.338875 1_555
Ca3 O35 2.340496 1_555
Ca3 O16 2.480624 1_555
Ca3 O23 2.499677 1_555
Ca3 O0 2.503499 1_555
Ca3 O31 2.549680 1_555
Ca3 O22 2.576155 1_655
Ca3 O40 2.894679 1_555
Ca4 O17 2.338487 1_555
Ca4 O55 2.390406 1_554
Ca4 O48 2.428004 1_554
Ca4 O52 2.452655 1_545
Ca4 O26 2.462756 1_545
Ca4 O19 2.503351 1_555
Ca4 O36 2.652413 1_554
Ca4 O46 2.718872 1_545
Ca5 O50 2.338875 1_555
Ca5 O46 2.340496 1_555
Ca5 O9 2.480624 1_555
Ca5 O14 2.499677 1_555
Ca5 O31 2.503499 1_555
Ca5 O51 2.549680 1_555
Ca5 O17 2.576155 1_565
Ca5 O26 2.894679 1_555
Ca6 O42 2.338487 1_554
Ca6 O53 2.390406 1_555
Ca6 O33 2.428004 1_555
Ca6 O34 2.452655 1_555
Ca6 O45 2.462756 1_555
Ca6 O15 2.503351 1_555
Ca6 O20 2.652413 1_555
Ca6 O1 2.718872 1_555
Ca7 O23 2.408633 1_555
Ca7 O28 2.445542 1_655
Ca7 O41 2.461589 1_555
Ca7 O13 2.488926 1_555
Ca7 O32 2.509823 1_655
Ca7 O18 2.580197 1_555
Ca7 O35 2.661689 1_555
Ca7 O37 2.685447 1_655
Ca7 O25 2.760377 1_555
Ca8 O14 2.408633 1_555
Ca8 O4 2.445542 1_565
Ca8 O41 2.461589 1_555
Ca8 O18 2.488926 1_555
Ca8 O6 2.509823 1_565
Ca8 O3 2.580197 1_555
Ca8 O46 2.661689 1_555
Ca8 O19 2.685447 1_565
Ca8 O38 2.760377 1_555
Ca9 O54 2.338875 1_555
Ca9 O27 2.340496 1_555
Ca9 O55 2.480624 1_555
Ca9 O36 2.499677 1_555
Ca9 O51 2.503499 1_555
Ca9 O0 2.549680 1_555
Ca9 O10 2.576155 1_556
Ca9 O49 2.894679 1_555
Ca10 O22 2.338487 1_555
Ca10 O9 2.390406 1_545
Ca10 O11 2.428004 1_545
Ca10 O48 2.452655 1_455
Ca10 O40 2.462756 1_455
Ca10 O37 2.503351 1_555
Ca10 O14 2.652413 1_545
Ca10 O35 2.718872 1_455
Ca11 O36 2.408633 1_555
Ca11 O53 2.445542 1_556
Ca11 O41 2.461589 1_555
Ca11 O3 2.488926 1_555
Ca11 O45 2.509823 1_556
Ca11 O13 2.580197 1_555
Ca11 O27 2.661689 1_555
Ca11 O24 2.685447 1_556
Ca11 O42 2.760377 1_555
Ca12 O25 2.338487 1_455
Ca12 O28 2.390406 1_555
Ca12 O7 2.428004 1_555
Ca12 O33 2.452655 1_555
Ca12 O32 2.462756 1_555
Ca12 O5 2.503351 1_555
Ca12 O43 2.652413 1_555
Ca12 O21 2.718872 1_555
Ca13 O38 2.338487 1_545
Ca13 O4 2.390406 1_555
Ca13 O34 2.428004 1_555
Ca13 O7 2.452655 1_555
Ca13 O6 2.462756 1_555
Ca13 O29 2.503351 1_555
Ca13 O2 2.652413 1_555
Ca13 O47 2.718872 1_555
Ca14 O10 2.338487 1_555
Ca14 O16 2.390406 1_455
Ca14 O52 2.428004 1_455
Ca14 O11 2.452655 1_554
Ca14 O49 2.462756 1_554
Ca14 O24 2.503351 1_555
Ca14 O23 2.652413 1_455
Ca14 O27 2.718872 1_554
Ca15 O18 2.338875 1_555
Ca15 O21 2.340496 1_655
Ca15 O4 2.480624 1_565
Ca15 O2 2.499677 1_565
Ca15 O30 2.503499 1_655
Ca15 O12 2.549680 1_565
Ca15 O25 2.576155 1_555
Ca15 O32 2.894679 1_655
Ca16 O13 2.338875 1_555
Ca16 O1 2.340496 1_556
Ca16 O28 2.480624 1_655
Ca16 O43 2.499677 1_655
Ca16 O12 2.503499 1_556
Ca16 O8 2.549680 1_655
Ca16 O42 2.576155 1_555
Ca16 O45 2.894679 1_556
Ca17 O2 2.408633 1_455
Ca17 O9 2.445542 1_545
Ca17 O39 2.461589 1_555
Ca17 O50 2.488926 1_545
Ca17 O40 2.509823 1_455
Ca17 O44 2.580197 1_455
Ca17 O21 2.661689 1_545
Ca17 O5 2.685447 1_545
Ca17 O22 2.760377 1_555
Co0 O33 2.107681 1_555
Co0 O34 2.107681 1_555
Co0 O7 2.107681 1_555
Co0 O0 2.116257 1_555
Co0 O51 2.116257 1_555
Co0 O31 2.116257 1_555
Co1 O11 2.107681 1_655
Co1 O48 2.107681 1_565
Co1 O52 2.107681 1_556
Co1 O12 2.116257 1_566
Co1 O30 2.116257 1_656
Co1 O8 2.116257 1_665
O0 P10 1.581730 1_555
O1 P2 1.545816 1_555
O2 P2 1.552629 1_555
O3 P13 1.545408 1_555
O4 P5 1.557329 1_555
O5 P1 1.559016 1_555
O6 P9 1.543617 1_555
O7 P0 1.564407 1_555
O8 P9 1.581730 1_555
O9 P1 1.557329 1_555
O10 P12 1.554505 1_555
O11 P13 1.564407 1_555
O12 P5 1.581730 1_555
O13 P4 1.545408 1_555
O14 P13 1.552629 1_555
O15 P8 1.559016 1_555
O16 P8 1.557329 1_555
O17 P12 1.554505 1_555
O18 P11 1.545408 1_555
O19 P5 1.559016 1_555
O20 P3 1.552629 1_555
O21 P3 1.545816 1_555
O22 P12 1.554505 1_555
O23 P11 1.552629 1_555
O24 P6 1.559016 1_555
O25 P7 1.554505 1_555
O26 P8 1.543617 1_555
O27 P13 1.545816 1_555
O28 P9 1.557329 1_555
O29 P10 1.559016 1_555
O30 P6 1.581730 1_555
O31 P8 1.581730 1_555
O32 P6 1.543617 1_555
O33 P3 1.564407 1_555
O34 P2 1.564407 1_555
O35 P4 1.545816 1_555
O36 P4 1.552629 1_555
O37 P9 1.559016 1_555
O38 P7 1.554505 1_555
O39 P12 1.556109 1_555
O40 P10 1.543617 1_555
O41 P7 1.556109 1_555
O42 P7 1.554505 1_555
O43 P0 1.552629 1_555
O44 P2 1.545408 1_555
O45 P5 1.543617 1_555
O46 P11 1.545816 1_555
O47 P0 1.545816 1_555
O48 P4 1.564407 1_555
O49 P1 1.543617 1_555
O50 P3 1.545408 1_555
O51 P1 1.581730 1_555
O52 P11 1.564407 1_555
O53 P6 1.557329 1_555
O54 P0 1.545408 1_555
O55 P10 1.557329 1_555
