# generated using pymatgen
data_Sm(BO2)3
_symmetry_space_group_name_H-M   'P 1'
_cell_length_a   7.50689900
_cell_length_b   12.47845400
_cell_length_c   16.24352300
_cell_angle_alpha   90.00000000
_cell_angle_beta   90.00000000
_cell_angle_gamma   90.00000000
_symmetry_Int_Tables_number   1
_chemical_formula_structural   Sm(BO2)3
_chemical_formula_sum   'Sm16 B48 O96'
_cell_volume   1521.60379543
_cell_formula_units_Z   16
loop_
 _symmetry_equiv_pos_site_id
 _symmetry_equiv_pos_as_xyz
  1  'x, y, z'
loop_
 _atom_site_type_symbol
 _atom_site_label
 _atom_site_symmetry_multiplicity
 _atom_site_fract_x
 _atom_site_fract_y
 _atom_site_fract_z
 _atom_site_occupancy
  Sm  Sm0  1  0.75000000  0.49356300  0.62006100  1
  Sm  Sm1  1  0.25000000  0.93136800  0.17097300  1
  Sm  Sm2  1  0.25000000  0.58603900  0.04803400  1
  Sm  Sm3  1  0.25000000  0.27383800  0.87316000  1
  Sm  Sm4  1  0.25000000  0.50643700  0.37993900  1
  Sm  Sm5  1  0.75000000  0.06863200  0.82902700  1
  Sm  Sm6  1  0.75000000  0.77383800  0.62684000  1
  Sm  Sm7  1  0.25000000  0.91396100  0.54803400  1
  Sm  Sm8  1  0.25000000  0.22616200  0.37316000  1
  Sm  Sm9  1  0.75000000  0.41396100  0.95196600  1
  Sm  Sm10  1  0.75000000  0.08603900  0.45196600  1
  Sm  Sm11  1  0.25000000  0.56863200  0.67097300  1
  Sm  Sm12  1  0.25000000  0.99356300  0.87993900  1
  Sm  Sm13  1  0.75000000  0.72616200  0.12684000  1
  Sm  Sm14  1  0.75000000  0.43136800  0.32902700  1
  Sm  Sm15  1  0.75000000  0.00643700  0.12006100  1
  B  B0  1  0.92904900  0.68721900  0.78308900  1
  B  B1  1  0.92441400  0.48123700  0.15455500  1
  B  B2  1  0.92257200  0.85548700  0.88998100  1
  B  B3  1  0.42441400  0.51876300  0.84544500  1
  B  B4  1  0.57280500  0.84465000  0.44155100  1
  B  B5  1  0.56856000  0.12898500  0.25655800  1
  B  B6  1  0.06170000  0.82017000  0.02949900  1
  B  B7  1  0.07280500  0.34465000  0.05844900  1
  B  B8  1  0.07742800  0.14451300  0.11001900  1
  B  B9  1  0.42719500  0.34465000  0.05844900  1
  B  B10  1  0.07742800  0.35548700  0.61001900  1
  B  B11  1  0.56170000  0.32017000  0.47050100  1
  B  B12  1  0.07558600  0.98123700  0.34544500  1
  B  B13  1  0.42904900  0.18721900  0.71691100  1
  B  B14  1  0.07095100  0.18721900  0.71691100  1
  B  B15  1  0.06856000  0.87101500  0.74344200  1
  B  B16  1  0.92904900  0.81278100  0.28308900  1
  B  B17  1  0.07095100  0.31278100  0.21691100  1
  B  B18  1  0.92719500  0.84465000  0.44155100  1
  B  B19  1  0.43830000  0.67983000  0.52949900  1
  B  B20  1  0.93830000  0.32017000  0.47050100  1
  B  B21  1  0.56856000  0.37101500  0.75655800  1
  B  B22  1  0.92257200  0.64451300  0.38998100  1
  B  B23  1  0.92719500  0.65535000  0.94155100  1
  B  B24  1  0.56170000  0.17983000  0.97050100  1
  B  B25  1  0.57280500  0.65535000  0.94155100  1
  B  B26  1  0.42257200  0.14451300  0.11001900  1
  B  B27  1  0.93144000  0.37101500  0.75655800  1
  B  B28  1  0.57558600  0.01876300  0.65455500  1
  B  B29  1  0.57742800  0.85548700  0.88998100  1
  B  B30  1  0.57742800  0.64451300  0.38998100  1
  B  B31  1  0.92441400  0.01876300  0.65455500  1
  B  B32  1  0.93144000  0.12898500  0.25655800  1
  B  B33  1  0.42441400  0.98123700  0.34544500  1
  B  B34  1  0.06170000  0.67983000  0.52949900  1
  B  B35  1  0.07280500  0.15535000  0.55844900  1
  B  B36  1  0.42719500  0.15535000  0.55844900  1
  B  B37  1  0.93830000  0.17983000  0.97050100  1
  B  B38  1  0.06856000  0.62898500  0.24344200  1
  B  B39  1  0.42904900  0.31278100  0.21691100  1
  B  B40  1  0.57558600  0.48123700  0.15455500  1
  B  B41  1  0.43144000  0.87101500  0.74344200  1
  B  B42  1  0.57095100  0.81278100  0.28308900  1
  B  B43  1  0.43830000  0.82017000  0.02949900  1
  B  B44  1  0.57095100  0.68721900  0.78308900  1
  B  B45  1  0.42257200  0.35548700  0.61001900  1
  B  B46  1  0.07558600  0.51876300  0.84544500  1
  B  B47  1  0.43144000  0.62898500  0.24344200  1
  O  O0  1  0.57287900  0.76532100  0.37062000  1
  O  O1  1  0.25000000  0.39299900  0.04730600  1
  O  O2  1  0.43768700  0.87595600  0.95084200  1
  O  O3  1  0.07287900  0.23467900  0.62938000  1
  O  O4  1  0.25000000  0.46501800  0.83919900  1
  O  O5  1  0.51670200  0.73081300  0.22504700  1
  O  O6  1  0.25000000  0.03498200  0.33919900  1
  O  O7  1  0.94753700  0.06707300  0.57216800  1
  O  O8  1  0.75000000  0.60865800  0.42125200  1
  O  O9  1  0.56022500  0.43400600  0.83347500  1
  O  O10  1  0.57287900  0.73467900  0.87062000  1
  O  O11  1  0.53459200  0.92042800  0.81546000  1
  O  O12  1  0.56231300  0.37595600  0.54915800  1
  O  O13  1  0.46161600  0.37358500  0.40590200  1
  O  O14  1  0.98329800  0.76918700  0.72504700  1
  O  O15  1  0.25000000  0.39134200  0.57874800  1
  O  O16  1  0.03838400  0.12641500  0.90590200  1
  O  O17  1  0.48329800  0.26918700  0.77495300  1
  O  O18  1  0.75000000  0.13728300  0.22494800  1
  O  O19  1  0.55945800  0.39836000  0.21823900  1
  O  O20  1  0.25000000  0.35175400  0.24432800  1
  O  O21  1  0.42712100  0.23467900  0.62938000  1
  O  O22  1  0.44054200  0.89836000  0.28176100  1
  O  O23  1  0.06231300  0.62404400  0.45084200  1
  O  O24  1  0.51625700  0.70831600  0.01882400  1
  O  O25  1  0.56022500  0.06599400  0.33347500  1
  O  O26  1  0.43768700  0.62404400  0.45084200  1
  O  O27  1  0.75000000  0.53498200  0.16080100  1
  O  O28  1  0.01670200  0.23081300  0.27495300  1
  O  O29  1  0.92712100  0.73467900  0.87062000  1
  O  O30  1  0.25000000  0.10865800  0.07874800  1
  O  O31  1  0.05945800  0.89836000  0.28176100  1
  O  O32  1  0.53838400  0.87358500  0.09409800  1
  O  O33  1  0.06022500  0.56599400  0.16652500  1
  O  O34  1  0.01670200  0.26918700  0.77495300  1
  O  O35  1  0.75000000  0.96501800  0.66080100  1
  O  O36  1  0.06231300  0.87595600  0.95084200  1
  O  O37  1  0.75000000  0.36271700  0.72494800  1
  O  O38  1  0.25000000  0.10700100  0.54730600  1
  O  O39  1  0.25000000  0.86271700  0.77505200  1
  O  O40  1  0.43977500  0.93400600  0.66652500  1
  O  O41  1  0.25000000  0.14824600  0.74432800  1
  O  O42  1  0.75000000  0.30264100  0.43846000  1
  O  O43  1  0.03459200  0.42042800  0.68454000  1
  O  O44  1  0.44054200  0.60164000  0.78176100  1
  O  O45  1  0.53459200  0.57957200  0.31546000  1
  O  O46  1  0.46161600  0.12641500  0.90590200  1
  O  O47  1  0.93977500  0.43400600  0.83347500  1
  O  O48  1  0.07287900  0.26532100  0.12938000  1
  O  O49  1  0.25000000  0.63728300  0.27505200  1
  O  O50  1  0.75000000  0.85175400  0.25567200  1
  O  O51  1  0.03459200  0.07957200  0.18454000  1
  O  O52  1  0.01625700  0.20831600  0.48117600  1
  O  O53  1  0.96161600  0.87358500  0.09409800  1
  O  O54  1  0.06022500  0.93400600  0.66652500  1
  O  O55  1  0.94054200  0.39836000  0.21823900  1
  O  O56  1  0.05246300  0.93292700  0.42783200  1
  O  O57  1  0.48374300  0.29168400  0.98117600  1
  O  O58  1  0.25000000  0.80264100  0.06154000  1
  O  O59  1  0.48329800  0.23081300  0.27495300  1
  O  O60  1  0.75000000  0.89299900  0.45269400  1
  O  O61  1  0.46540800  0.07957200  0.18454000  1
  O  O62  1  0.96540800  0.92042800  0.81546000  1
  O  O63  1  0.94054200  0.10164000  0.71823900  1
  O  O64  1  0.75000000  0.64824600  0.75567200  1
  O  O65  1  0.98374300  0.70831600  0.01882400  1
  O  O66  1  0.51625700  0.79168400  0.51882400  1
  O  O67  1  0.51670200  0.76918700  0.72504700  1
  O  O68  1  0.93768700  0.12404400  0.04915800  1
  O  O69  1  0.42712100  0.26532100  0.12938000  1
  O  O70  1  0.96161600  0.62641500  0.59409800  1
  O  O71  1  0.01625700  0.29168400  0.98117600  1
  O  O72  1  0.46540800  0.42042800  0.68454000  1
  O  O73  1  0.05945800  0.60164000  0.78176100  1
  O  O74  1  0.44753700  0.93292700  0.42783200  1
  O  O75  1  0.93977500  0.06599400  0.33347500  1
  O  O76  1  0.98329800  0.73081300  0.22504700  1
  O  O77  1  0.98374300  0.79168400  0.51882400  1
  O  O78  1  0.75000000  0.19735900  0.93846000  1
  O  O79  1  0.25000000  0.69735900  0.56154000  1
  O  O80  1  0.48374300  0.20831600  0.48117600  1
  O  O81  1  0.56231300  0.12404400  0.04915800  1
  O  O82  1  0.75000000  0.89134200  0.92125200  1
  O  O83  1  0.92712100  0.76532100  0.37062000  1
  O  O84  1  0.75000000  0.60700100  0.95269400  1
  O  O85  1  0.55945800  0.10164000  0.71823900  1
  O  O86  1  0.53838400  0.62641500  0.59409800  1
  O  O87  1  0.43977500  0.56599400  0.16652500  1
  O  O88  1  0.44753700  0.56707300  0.92783200  1
  O  O89  1  0.55246300  0.43292700  0.07216800  1
  O  O90  1  0.03838400  0.37358500  0.40590200  1
  O  O91  1  0.96540800  0.57957200  0.31546000  1
  O  O92  1  0.05246300  0.56707300  0.92783200  1
  O  O93  1  0.93768700  0.37595600  0.54915800  1
  O  O94  1  0.55246300  0.06707300  0.57216800  1
  O  O95  1  0.94753700  0.43292700  0.07216800  1
loop_
_geom_bond_atom_site_label_1
_geom_bond_atom_site_label_2
_geom_bond_distance
_geom_bond_site_symmetry_2
B0 O73 1.448875 1_655
B0 O14 1.449455 1_555
B0 O64 1.497150 1_555
B0 O29 1.540289 1_555
B1 O55 1.467744 1_555
B1 O27 1.474571 1_555
B1 O95 1.477994 1_555
B1 O33 1.481830 1_655
B2 O82 1.461665 1_555
B2 O36 1.463902 1_655
B2 O62 1.491765 1_555
B2 O29 1.540331 1_555
B3 O44 1.467744 1_555
B3 O4 1.474571 1_555
B3 O88 1.477994 1_555
B3 O9 1.481830 1_555
B4 O74 1.465401 1_555
B4 O60 1.471784 1_555
B4 O66 1.480718 1_555
B4 O0 1.519014 1_555
B5 O59 1.453794 1_555
B5 O18 1.459296 1_555
B5 O25 1.477419 1_555
B5 O61 1.532418 1_555
B6 O53 1.452521 1_455
B6 O36 1.455005 1_554
B6 O58 1.522118 1_555
B6 O65 1.523386 1_455
B7 O95 1.465401 1_455
B7 O1 1.471784 1_555
B7 O71 1.480718 1_554
B7 O48 1.519014 1_555
B8 O30 1.461665 1_555
B8 O68 1.463902 1_455
B8 O51 1.491765 1_555
B8 O48 1.540331 1_555
B9 O89 1.465401 1_555
B9 O1 1.471784 1_555
B9 O57 1.480718 1_554
B9 O69 1.519014 1_555
B10 O15 1.461665 1_555
B10 O93 1.463902 1_455
B10 O43 1.491765 1_555
B10 O3 1.540331 1_555
B11 O13 1.452521 1_555
B11 O12 1.455005 1_555
B11 O42 1.522118 1_555
B11 O80 1.523386 1_555
B12 O31 1.467744 1_555
B12 O6 1.474571 1_565
B12 O56 1.477994 1_555
B12 O75 1.481830 1_465
B13 O85 1.448875 1_555
B13 O17 1.449455 1_555
B13 O41 1.497150 1_555
B13 O21 1.540289 1_555
B14 O63 1.448875 1_455
B14 O34 1.449455 1_555
B14 O41 1.497150 1_555
B14 O3 1.540289 1_555
B15 O14 1.453794 1_455
B15 O39 1.459296 1_555
B15 O54 1.477419 1_555
B15 O62 1.532418 1_455
B16 O31 1.448875 1_655
B16 O76 1.449455 1_555
B16 O50 1.497150 1_555
B16 O83 1.540289 1_555
B17 O55 1.448875 1_455
B17 O28 1.449455 1_555
B17 O20 1.497150 1_555
B17 O48 1.540289 1_555
B18 O56 1.465401 1_655
B18 O60 1.471784 1_555
B18 O77 1.480718 1_555
B18 O83 1.519014 1_555
B19 O86 1.452521 1_555
B19 O26 1.455005 1_555
B19 O79 1.522118 1_555
B19 O66 1.523386 1_555
B20 O90 1.452521 1_655
B20 O93 1.455005 1_555
B20 O42 1.522118 1_555
B20 O52 1.523386 1_655
B21 O17 1.453794 1_555
B21 O37 1.459296 1_555
B21 O9 1.477419 1_555
B21 O72 1.532418 1_555
B22 O8 1.461665 1_555
B22 O23 1.463902 1_655
B22 O91 1.491765 1_555
B22 O83 1.540331 1_555
B23 O92 1.465401 1_655
B23 O84 1.471784 1_555
B23 O65 1.480718 1_556
B23 O29 1.519014 1_555
B24 O46 1.452521 1_555
B24 O81 1.455005 1_556
B24 O78 1.522118 1_555
B24 O57 1.523386 1_555
B25 O88 1.465401 1_555
B25 O84 1.471784 1_555
B25 O24 1.480718 1_556
B25 O10 1.519014 1_555
B26 O30 1.461665 1_555
B26 O81 1.463902 1_555
B26 O61 1.491765 1_555
B26 O69 1.540331 1_555
B27 O34 1.453794 1_655
B27 O37 1.459296 1_555
B27 O47 1.477419 1_555
B27 O43 1.532418 1_655
B28 O85 1.467744 1_555
B28 O35 1.474571 1_545
B28 O94 1.477994 1_555
B28 O40 1.481830 1_545
B29 O82 1.461665 1_555
B29 O2 1.463902 1_555
B29 O11 1.491765 1_555
B29 O10 1.540331 1_555
B30 O8 1.461665 1_555
B30 O26 1.463902 1_555
B30 O45 1.491765 1_555
B30 O0 1.540331 1_555
B31 O63 1.467744 1_555
B31 O35 1.474571 1_545
B31 O7 1.477994 1_555
B31 O54 1.481830 1_645
B32 O28 1.453794 1_655
B32 O18 1.459296 1_555
B32 O75 1.477419 1_555
B32 O51 1.532418 1_655
B33 O22 1.467744 1_555
B33 O6 1.474571 1_565
B33 O74 1.477994 1_555
B33 O25 1.481830 1_565
B34 O70 1.452521 1_455
B34 O23 1.455005 1_555
B34 O79 1.522118 1_555
B34 O77 1.523386 1_455
B35 O7 1.465401 1_455
B35 O38 1.471784 1_555
B35 O52 1.480718 1_555
B35 O3 1.519014 1_555
B36 O94 1.465401 1_555
B36 O38 1.471784 1_555
B36 O80 1.480718 1_555
B36 O21 1.519014 1_555
B37 O16 1.452521 1_655
B37 O68 1.455005 1_556
B37 O78 1.522118 1_555
B37 O71 1.523386 1_655
B38 O76 1.453794 1_455
B38 O49 1.459296 1_555
B38 O33 1.477419 1_555
B38 O91 1.532418 1_455
B39 O19 1.448875 1_555
B39 O59 1.449455 1_555
B39 O20 1.497150 1_555
B39 O69 1.540289 1_555
B40 O19 1.467744 1_555
B40 O27 1.474571 1_555
B40 O89 1.477994 1_555
B40 O87 1.481830 1_555
B41 O67 1.453794 1_555
B41 O39 1.459296 1_555
B41 O40 1.477419 1_555
B41 O11 1.532418 1_555
B42 O22 1.448875 1_555
B42 O5 1.449455 1_555
B42 O50 1.497150 1_555
B42 O0 1.540289 1_555
B43 O32 1.452521 1_555
B43 O2 1.455005 1_554
B43 O58 1.522118 1_555
B43 O24 1.523386 1_555
B44 O44 1.448875 1_555
B44 O67 1.449455 1_555
B44 O64 1.497150 1_555
B44 O10 1.540289 1_555
B45 O15 1.461665 1_555
B45 O12 1.463902 1_555
B45 O72 1.491765 1_555
B45 O21 1.540331 1_555
B46 O73 1.467744 1_555
B46 O4 1.474571 1_555
B46 O92 1.477994 1_555
B46 O47 1.481830 1_455
B47 O5 1.453794 1_555
B47 O49 1.459296 1_555
B47 O87 1.477419 1_555
B47 O45 1.532418 1_555
O1 Sm2 2.408870 1_555
O2 Sm12 2.337796 1_555
O4 Sm3 2.448581 1_555
O5 Sm13 2.369668 1_555
O6 Sm8 2.448581 1_555
O7 Sm10 2.463178 1_555
O8 Sm14 2.671792 1_555
O9 Sm9 2.407618 1_555
O11 Sm5 2.466480 1_565
O11 Sm12 2.548344 1_555
O12 Sm0 2.337796 1_555
O13 Sm4 2.334460 1_555
O13 Sm8 2.488095 1_555
O13 Sm14 2.601128 1_555
O14 Sm6 2.369668 1_555
O15 Sm11 2.671792 1_555
O16 Sm12 2.334460 1_545
O16 Sm3 2.488095 1_555
O16 Sm5 2.601128 1_455
O17 Sm3 2.369668 1_555
O18 Sm15 2.359789 1_555
O19 Sm14 2.335413 1_555
O20 Sm8 2.614465 1_555
O20 Sm4 2.928826 1_555
O22 Sm1 2.335413 1_555
O23 Sm4 2.337796 1_555
O24 Sm13 2.491384 1_555
O24 Sm2 2.558971 1_555
O25 Sm10 2.407618 1_555
O26 Sm4 2.337796 1_555
O27 Sm13 2.448581 1_555
O28 Sm8 2.369668 1_555
O30 Sm1 2.671792 1_545
O31 Sm1 2.335413 1_555
O32 Sm15 2.334460 1_565
O32 Sm13 2.488095 1_555
O32 Sm1 2.601128 1_555
O33 Sm2 2.407618 1_555
O34 Sm3 2.369668 1_555
O35 Sm6 2.448581 1_555
O36 Sm12 2.337796 1_555
O37 Sm0 2.359789 1_555
O38 Sm7 2.408870 1_545
O39 Sm12 2.359789 1_555
O40 Sm7 2.407618 1_555
O41 Sm3 2.614465 1_555
O41 Sm12 2.928826 1_545
O42 Sm14 2.395835 1_555
O42 Sm10 2.711747 1_555
O43 Sm11 2.466480 1_555
O43 Sm0 2.548344 1_455
O44 Sm11 2.335413 1_555
O45 Sm14 2.466480 1_555
O45 Sm4 2.548344 1_555
O46 Sm12 2.334460 1_545
O46 Sm3 2.488095 1_555
O46 Sm5 2.601128 1_555
O47 Sm9 2.407618 1_555
O49 Sm4 2.359789 1_555
O50 Sm13 2.614465 1_555
O50 Sm15 2.928826 1_565
O51 Sm1 2.466480 1_545
O51 Sm15 2.548344 1_455
O52 Sm8 2.491384 1_555
O52 Sm10 2.558971 1_455
O53 Sm15 2.334460 1_565
O53 Sm13 2.488095 1_555
O53 Sm1 2.601128 1_655
O54 Sm7 2.407618 1_555
O55 Sm14 2.335413 1_555
O56 Sm7 2.463178 1_555
O57 Sm3 2.491384 1_555
O57 Sm9 2.558971 1_555
O58 Sm1 2.395835 1_555
O58 Sm2 2.711747 1_555
O59 Sm8 2.369668 1_555
O60 Sm10 2.408870 1_565
O61 Sm1 2.466480 1_545
O61 Sm15 2.548344 1_555
O62 Sm5 2.466480 1_565
O62 Sm12 2.548344 1_655
O63 Sm5 2.335413 1_555
O64 Sm6 2.614465 1_555
O64 Sm0 2.928826 1_555
O65 Sm13 2.491384 1_555
O65 Sm2 2.558971 1_655
O66 Sm6 2.491384 1_555
O66 Sm7 2.558971 1_555
O67 Sm6 2.369668 1_555
O68 Sm15 2.337796 1_555
O70 Sm0 2.334460 1_555
O70 Sm6 2.488095 1_555
O70 Sm11 2.601128 1_655
O71 Sm3 2.491384 1_555
O71 Sm9 2.558971 1_455
O72 Sm11 2.466480 1_555
O72 Sm0 2.548344 1_555
O73 Sm11 2.335413 1_555
O74 Sm7 2.463178 1_555
O75 Sm10 2.407618 1_555
O76 Sm13 2.369668 1_555
O77 Sm6 2.491384 1_555
O77 Sm7 2.558971 1_655
O78 Sm5 2.395835 1_555
O78 Sm9 2.711747 1_555
O79 Sm11 2.395835 1_555
O79 Sm7 2.711747 1_555
O80 Sm8 2.491384 1_555
O80 Sm10 2.558971 1_555
O81 Sm15 2.337796 1_555
O82 Sm5 2.671792 1_565
O84 Sm9 2.408870 1_555
O85 Sm5 2.335413 1_555
O86 Sm0 2.334460 1_555
O86 Sm6 2.488095 1_555
O86 Sm11 2.601128 1_555
O87 Sm2 2.407618 1_555
O88 Sm2 2.463178 1_556
O89 Sm9 2.463178 1_554
O90 Sm4 2.334460 1_555
O90 Sm8 2.488095 1_555
O90 Sm14 2.601128 1_455
O91 Sm14 2.466480 1_555
O91 Sm4 2.548344 1_655
O92 Sm2 2.463178 1_556
O93 Sm0 2.337796 1_555
O94 Sm10 2.463178 1_555
O95 Sm9 2.463178 1_554
