# generated using pymatgen
data_Ta2Br5
_symmetry_space_group_name_H-M   'P 1'
_cell_length_a   18.80991415
_cell_length_b   18.80991415
_cell_length_c   18.80991415
_cell_angle_alpha   109.47122063
_cell_angle_beta   109.47122063
_cell_angle_gamma   109.47122063
_symmetry_Int_Tables_number   1
_chemical_formula_structural   Ta2Br5
_chemical_formula_sum   'Ta48 Br120'
_cell_volume   5123.16743504
_cell_formula_units_Z   24
loop_
 _symmetry_equiv_pos_site_id
 _symmetry_equiv_pos_as_xyz
  1  'x, y, z'
loop_
 _atom_site_type_symbol
 _atom_site_label
 _atom_site_symmetry_multiplicity
 _atom_site_fract_x
 _atom_site_fract_y
 _atom_site_fract_z
 _atom_site_occupancy
  Ta  Ta0  1  0.39611300  0.98362300  0.52440000  1
  Ta  Ta1  1  0.41249000  0.01637700  0.04077700  1
  Ta  Ta2  1  0.02440000  0.48362300  0.89611300  1
  Ta  Ta3  1  0.95922300  0.87171400  0.97560000  1
  Ta  Ta4  1  0.37171400  0.41249000  0.89611300  1
  Ta  Ta5  1  0.48362300  0.08751000  0.45922300  1
  Ta  Ta6  1  0.47560000  0.60388700  0.01637700  1
  Ta  Ta7  1  0.89611300  0.37171400  0.41249000  1
  Ta  Ta8  1  0.52440000  0.62828600  0.54077700  1
  Ta  Ta9  1  0.54077700  0.52440000  0.62828600  1
  Ta  Ta10  1  0.08751000  0.12828600  0.60388700  1
  Ta  Ta11  1  0.89611300  0.02440000  0.48362300  1
  Ta  Ta12  1  0.87171400  0.39611300  0.91249000  1
  Ta  Ta13  1  0.91249000  0.54077700  0.51637700  1
  Ta  Ta14  1  0.39611300  0.91249000  0.87171400  1
  Ta  Ta15  1  0.95922300  0.58751000  0.98362300  1
  Ta  Ta16  1  0.37171400  0.45922300  0.47560000  1
  Ta  Ta17  1  0.52440000  0.39611300  0.98362300  1
  Ta  Ta18  1  0.04077700  0.41249000  0.01637700  1
  Ta  Ta19  1  0.98362300  0.95922300  0.58751000  1
  Ta  Ta20  1  0.48362300  0.89611300  0.02440000  1
  Ta  Ta21  1  0.98362300  0.52440000  0.39611300  1
  Ta  Ta22  1  0.62828600  0.58751000  0.10388700  1
  Ta  Ta23  1  0.08751000  0.45922300  0.48362300  1
  Ta  Ta24  1  0.62828600  0.54077700  0.52440000  1
  Ta  Ta25  1  0.10388700  0.62828600  0.58751000  1
  Ta  Ta26  1  0.51637700  0.10388700  0.97560000  1
  Ta  Ta27  1  0.87171400  0.97560000  0.95922300  1
  Ta  Ta28  1  0.02440000  0.04077700  0.12828600  1
  Ta  Ta29  1  0.60388700  0.08751000  0.12828600  1
  Ta  Ta30  1  0.12828600  0.60388700  0.08751000  1
  Ta  Ta31  1  0.04077700  0.12828600  0.02440000  1
  Ta  Ta32  1  0.60388700  0.01637700  0.47560000  1
  Ta  Ta33  1  0.97560000  0.51637700  0.10388700  1
  Ta  Ta34  1  0.51637700  0.91249000  0.54077700  1
  Ta  Ta35  1  0.97560000  0.95922300  0.87171400  1
  Ta  Ta36  1  0.12828600  0.02440000  0.04077700  1
  Ta  Ta37  1  0.45922300  0.48362300  0.08751000  1
  Ta  Ta38  1  0.10388700  0.97560000  0.51637700  1
  Ta  Ta39  1  0.91249000  0.87171400  0.39611300  1
  Ta  Ta40  1  0.58751000  0.98362300  0.95922300  1
  Ta  Ta41  1  0.45922300  0.47560000  0.37171400  1
  Ta  Ta42  1  0.01637700  0.04077700  0.41249000  1
  Ta  Ta43  1  0.47560000  0.37171400  0.45922300  1
  Ta  Ta44  1  0.54077700  0.51637700  0.91249000  1
  Ta  Ta45  1  0.58751000  0.10388700  0.62828600  1
  Ta  Ta46  1  0.41249000  0.89611300  0.37171400  1
  Ta  Ta47  1  0.01637700  0.47560000  0.60388700  1
  Br  Br0  1  0.29339700  0.37271800  0.97951500  1
  Br  Br1  1  0.60710400  0.55355200  0.80355200  1
  Br  Br2  1  0.62848300  0.39484900  0.48790400  1
  Br  Br3  1  0.37151700  0.60515100  0.51209600  1
  Br  Br4  1  0.94644800  0.89289600  0.69644800  1
  Br  Br5  1  0.10515100  0.87151700  0.01209600  1
  Br  Br6  1  0.39289600  0.44644800  0.19644800  1
  Br  Br7  1  0.47951500  0.10679800  0.68611900  1
  Br  Br8  1  0.12848300  0.98790400  0.89484900  1
  Br  Br9  1  0.68611900  0.70660300  0.57932100  1
  Br  Br10  1  0.39320200  0.87271800  0.57932100  1
  Br  Br11  1  0.51209600  0.37151700  0.60515100  1
  Br  Br12  1  0.52048500  0.12728200  0.20660300  1
  Br  Br13  1  0.89320200  0.31388100  0.52048500  1
  Br  Br14  1  0.60515100  0.51209600  0.37151700  1
  Br  Br15  1  0.19644800  0.30355200  0.75000000  1
  Br  Br16  1  0.69644800  0.94644800  0.89289600  1
  Br  Br17  1  0.98790400  0.59305600  0.85942100  1
  Br  Br18  1  0.02048500  0.81388100  0.39320200  1
  Br  Br19  1  0.79339700  0.47951500  0.87271800  1
  Br  Br20  1  0.40694400  0.76636600  0.39484900  1
  Br  Br21  1  0.73363400  0.09305600  0.10515100  1
  Br  Br22  1  0.87271800  0.57932100  0.39320200  1
  Br  Br23  1  0.60515100  0.59305600  0.23363400  1
  Br  Br24  1  0.87151700  0.35942100  0.76636600  1
  Br  Br25  1  0.05355200  0.10710400  0.30355200  1
  Br  Br26  1  0.26636600  0.90694400  0.89484900  1
  Br  Br27  1  0.30355200  0.05355200  0.10710400  1
  Br  Br28  1  0.44644800  0.75000000  0.05355200  1
  Br  Br29  1  0.89484900  0.26636600  0.90694400  1
  Br  Br30  1  0.55355200  0.25000000  0.94644800  1
  Br  Br31  1  0.37271800  0.89320200  0.07932100  1
  Br  Br32  1  0.75000000  0.19644800  0.30355200  1
  Br  Br33  1  0.75000000  0.05355200  0.44644800  1
  Br  Br34  1  0.10679800  0.68611900  0.47951500  1
  Br  Br35  1  0.05355200  0.44644800  0.75000000  1
  Br  Br36  1  0.87151700  0.01209600  0.10515100  1
  Br  Br37  1  0.18611900  0.60679800  0.97951500  1
  Br  Br38  1  0.70660300  0.57932100  0.68611900  1
  Br  Br39  1  0.59305600  0.85942100  0.98790400  1
  Br  Br40  1  0.10710400  0.30355200  0.05355200  1
  Br  Br41  1  0.09305600  0.10515100  0.73363400  1
  Br  Br42  1  0.80355200  0.69644800  0.25000000  1
  Br  Br43  1  0.81388100  0.92067900  0.79339700  1
  Br  Br44  1  0.01209600  0.10515100  0.87151700  1
  Br  Br45  1  0.62848300  0.73363400  0.14057900  1
  Br  Br46  1  0.62728200  0.10679800  0.92067900  1
  Br  Br47  1  0.37151700  0.26636600  0.85942100  1
  Br  Br48  1  0.60679800  0.12728200  0.42067900  1
  Br  Br49  1  0.20660300  0.52048500  0.12728200  1
  Br  Br50  1  0.59305600  0.23363400  0.60515100  1
  Br  Br51  1  0.51209600  0.64057900  0.90694400  1
  Br  Br52  1  0.35942100  0.09305600  0.48790400  1
  Br  Br53  1  0.42067900  0.60679800  0.12728200  1
  Br  Br54  1  0.39484900  0.48790400  0.62848300  1
  Br  Br55  1  0.10515100  0.73363400  0.09305600  1
  Br  Br56  1  0.55355200  0.80355200  0.60710400  1
  Br  Br57  1  0.48790400  0.62848300  0.39484900  1
  Br  Br58  1  0.40694400  0.14057900  0.01209600  1
  Br  Br59  1  0.48790400  0.35942100  0.09305600  1
  Br  Br60  1  0.92067900  0.79339700  0.81388100  1
  Br  Br61  1  0.30355200  0.75000000  0.19644800  1
  Br  Br62  1  0.79339700  0.81388100  0.92067900  1
  Br  Br63  1  0.44644800  0.19644800  0.39289600  1
  Br  Br64  1  0.68611900  0.47951500  0.10679800  1
  Br  Br65  1  0.10679800  0.92067900  0.62728200  1
  Br  Br66  1  0.89484900  0.12848300  0.98790400  1
  Br  Br67  1  0.97951500  0.29339700  0.37271800  1
  Br  Br68  1  0.23363400  0.60515100  0.59305600  1
  Br  Br69  1  0.25000000  0.80355200  0.69644800  1
  Br  Br70  1  0.62728200  0.02048500  0.70660300  1
  Br  Br71  1  0.14057900  0.01209600  0.40694400  1
  Br  Br72  1  0.14057900  0.62848300  0.73363400  1
  Br  Br73  1  0.64057900  0.90694400  0.51209600  1
  Br  Br74  1  0.02048500  0.70660300  0.62728200  1
  Br  Br75  1  0.90694400  0.89484900  0.26636600  1
  Br  Br76  1  0.09305600  0.48790400  0.35942100  1
  Br  Br77  1  0.87271800  0.79339700  0.47951500  1
  Br  Br78  1  0.94644800  0.55355200  0.25000000  1
  Br  Br79  1  0.85942100  0.37151700  0.26636600  1
  Br  Br80  1  0.12728200  0.20660300  0.52048500  1
  Br  Br81  1  0.35942100  0.76636600  0.87151700  1
  Br  Br82  1  0.57932100  0.39320200  0.87271800  1
  Br  Br83  1  0.25000000  0.94644800  0.55355200  1
  Br  Br84  1  0.39320200  0.02048500  0.81388100  1
  Br  Br85  1  0.42067900  0.31388100  0.29339700  1
  Br  Br86  1  0.76636600  0.87151700  0.35942100  1
  Br  Br87  1  0.89320200  0.07932100  0.37271800  1
  Br  Br88  1  0.90694400  0.51209600  0.64057900  1
  Br  Br89  1  0.01209600  0.40694400  0.14057900  1
  Br  Br90  1  0.37271800  0.97951500  0.29339700  1
  Br  Br91  1  0.81388100  0.39320200  0.02048500  1
  Br  Br92  1  0.12848300  0.64057900  0.23363400  1
  Br  Br93  1  0.80355200  0.60710400  0.55355200  1
  Br  Br94  1  0.20660300  0.18611900  0.07932100  1
  Br  Br95  1  0.39484900  0.40694400  0.76636600  1
  Br  Br96  1  0.07932100  0.20660300  0.18611900  1
  Br  Br97  1  0.29339700  0.42067900  0.31388100  1
  Br  Br98  1  0.97951500  0.18611900  0.60679800  1
  Br  Br99  1  0.31388100  0.52048500  0.89320200  1
  Br  Br100  1  0.92067900  0.62728200  0.10679800  1
  Br  Br101  1  0.89289600  0.69644800  0.94644800  1
  Br  Br102  1  0.07932100  0.37271800  0.89320200  1
  Br  Br103  1  0.19644800  0.39289600  0.44644800  1
  Br  Br104  1  0.47951500  0.87271800  0.79339700  1
  Br  Br105  1  0.85942100  0.98790400  0.59305600  1
  Br  Br106  1  0.57932100  0.68611900  0.70660300  1
  Br  Br107  1  0.64057900  0.23363400  0.12848300  1
  Br  Br108  1  0.52048500  0.89320200  0.31388100  1
  Br  Br109  1  0.12728200  0.42067900  0.60679800  1
  Br  Br110  1  0.76636600  0.39484900  0.40694400  1
  Br  Br111  1  0.98790400  0.89484900  0.12848300  1
  Br  Br112  1  0.70660300  0.62728200  0.02048500  1
  Br  Br113  1  0.69644800  0.25000000  0.80355200  1
  Br  Br114  1  0.26636600  0.85942100  0.37151700  1
  Br  Br115  1  0.60679800  0.97951500  0.18611900  1
  Br  Br116  1  0.73363400  0.14057900  0.62848300  1
  Br  Br117  1  0.23363400  0.12848300  0.64057900  1
  Br  Br118  1  0.18611900  0.07932100  0.20660300  1
  Br  Br119  1  0.31388100  0.29339700  0.42067900  1
loop_
_geom_bond_atom_site_label_1
_geom_bond_atom_site_label_2
_geom_bond_distance
_geom_bond_site_symmetry_2
Br0 Ta4 2.603704 1_555
Br0 Ta37 2.611584 1_556
Br1 Ta44 2.884843 1_555
Br1 Ta9 2.884860 1_555
Br2 Ta43 2.593279 1_555
Br2 Ta24 2.599610 1_555
Br3 Ta8 2.593279 1_555
Br3 Ta16 2.599610 1_555
Br4 Ta19 2.884843 1_555
Br4 Ta35 2.884860 1_555
Br5 Ta36 2.593279 1_565
Br5 Ta3 2.599610 1_454
Br6 Ta37 2.884843 1_555
Br6 Ta41 2.884860 1_555
Br7 Ta0 2.603709 1_545
Br7 Ta45 2.611612 1_555
Br8 Ta35 2.593279 1_455
Br8 Ta36 2.599610 1_566
Br9 Ta8 2.603709 1_555
Br9 Ta24 2.611579 1_555
Br10 Ta34 2.603708 1_555
Br10 Ta0 2.611582 1_555
Br11 Ta9 2.593279 1_555
Br11 Ta43 2.599610 1_555
Br12 Ta29 2.603704 1_555
Br12 Ta1 2.611584 1_555
Br13 Ta47 2.603709 1_655
Br13 Ta7 2.611612 1_555
Br14 Ta24 2.593279 1_555
Br14 Ta41 2.599610 1_555
Br15 Ta4 2.884854 1_555
Br15 Ta10 2.884854 1_555
Br16 Ta40 2.884843 1_555
Br16 Ta27 2.884860 1_555
Br17 Ta15 2.593279 1_555
Br17 Ta2 2.599620 1_655
Br18 Ta38 2.603709 1_555
Br18 Ta39 2.611612 1_455
Br19 Ta12 2.603704 1_555
Br19 Ta15 2.611584 1_555
Br20 Ta46 2.593260 1_555
Br20 Ta34 2.599603 1_555
Br21 Ta29 2.593260 1_555
Br21 Ta40 2.599603 1_544
Br22 Ta13 2.603708 1_555
Br22 Ta21 2.611582 1_555
Br23 Ta22 2.593260 1_555
Br23 Ta37 2.599603 1_555
Br24 Ta2 2.593274 1_655
Br24 Ta12 2.599593 1_555
Br25 Ta42 2.884843 1_555
Br25 Ta28 2.884860 1_555
Br26 Ta14 2.593260 1_555
Br26 Ta1 2.599603 1_566
Br27 Ta1 2.884843 1_555
Br27 Ta36 2.884860 1_555
Br28 Ta20 2.884843 1_555
Br28 Ta6 2.884843 1_555
Br29 Ta12 2.593260 1_555
Br29 Ta18 2.599603 1_656
Br30 Ta17 2.884843 1_555
Br30 Ta26 2.884843 1_555
Br31 Ta1 2.603708 1_565
Br31 Ta20 2.611582 1_555
Br32 Ta7 2.884854 1_555
Br32 Ta29 2.884854 1_555
Br33 Ta11 2.884843 1_555
Br33 Ta32 2.884843 1_555
Br34 Ta21 2.603709 1_455
Br34 Ta25 2.611612 1_555
Br35 Ta2 2.884843 1_555
Br35 Ta47 2.884843 1_555
Br36 Ta28 2.593279 1_655
Br36 Ta27 2.599610 1_544
Br37 Ta2 2.603709 1_555
Br37 Ta30 2.611612 1_556
Br38 Ta24 2.603709 1_555
Br38 Ta9 2.611579 1_555
Br39 Ta40 2.593279 1_555
Br39 Ta20 2.599620 1_556
Br40 Ta18 2.884843 1_555
Br40 Ta31 2.884860 1_555
Br41 Ta10 2.593260 1_555
Br41 Ta19 2.599603 1_445
Br42 Ta22 2.884854 1_555
Br42 Ta39 2.884854 1_555
Br43 Ta35 2.603709 1_555
Br43 Ta27 2.611579 1_555
Br44 Ta31 2.593279 1_556
Br44 Ta35 2.599610 1_445
Br45 Ta6 2.593274 1_555
Br45 Ta22 2.599593 1_555
Br46 Ta40 2.603708 1_545
Br46 Ta26 2.611582 1_555
Br47 Ta17 2.593274 1_555
Br47 Ta4 2.599593 1_555
Br48 Ta5 2.603708 1_555
Br48 Ta32 2.611582 1_555
Br49 Ta30 2.603704 1_555
Br49 Ta18 2.611584 1_555
Br50 Ta45 2.593260 1_555
Br50 Ta5 2.599603 1_555
Br51 Ta44 2.593279 1_555
Br51 Ta6 2.599620 1_556
Br52 Ta5 2.593279 1_555
Br52 Ta0 2.599620 1_545
Br53 Ta37 2.603708 1_555
Br53 Ta6 2.611582 1_555
Br54 Ta16 2.593279 1_555
Br54 Ta9 2.599610 1_555
Br55 Ta30 2.593260 1_555
Br55 Ta15 2.599603 1_454
Br56 Ta34 2.884843 1_555
Br56 Ta8 2.884860 1_555
Br57 Ta41 2.593279 1_555
Br57 Ta8 2.599610 1_555
Br58 Ta1 2.593279 1_555
Br58 Ta26 2.599620 1_554
Br59 Ta37 2.593279 1_555
Br59 Ta17 2.599620 1_554
Br60 Ta3 2.603709 1_555
Br60 Ta35 2.611579 1_555
Br61 Ta46 2.884854 1_555
Br61 Ta30 2.884854 1_555
Br62 Ta27 2.603709 1_555
Br62 Ta3 2.611579 1_555
Br63 Ta5 2.884843 1_555
Br63 Ta43 2.884860 1_555
Br64 Ta17 2.603709 1_554
Br64 Ta22 2.611612 1_555
Br65 Ta19 2.603708 1_455
Br65 Ta38 2.611582 1_555
Br66 Ta27 2.593279 1_545
Br66 Ta31 2.599610 1_656
Br67 Ta7 2.603704 1_555
Br67 Ta23 2.611584 1_655
Br68 Ta25 2.593260 1_555
Br68 Ta23 2.599603 1_555
Br69 Ta25 2.884854 1_555
Br69 Ta14 2.884854 1_555
Br70 Ta45 2.603704 1_555
Br70 Ta34 2.611584 1_545
Br71 Ta42 2.593279 1_555
Br71 Ta38 2.599620 1_545
Br72 Ta47 2.593274 1_555
Br72 Ta25 2.599593 1_555
Br73 Ta34 2.593279 1_555
Br73 Ta32 2.599620 1_565
Br74 Ta25 2.603704 1_555
Br74 Ta13 2.611584 1_455
Br75 Ta39 2.593260 1_555
Br75 Ta42 2.599603 1_665
Br76 Ta23 2.593279 1_555
Br76 Ta21 2.599620 1_455
Br77 Ta39 2.603704 1_555
Br77 Ta19 2.611584 1_555
Br78 Ta21 2.884843 1_555
Br78 Ta33 2.884843 1_555
Br79 Ta21 2.593274 1_555
Br79 Ta7 2.599593 1_555
Br80 Ta10 2.603704 1_555
Br80 Ta42 2.611584 1_555
Br81 Ta20 2.593274 1_556
Br81 Ta14 2.599593 1_555
Br82 Ta44 2.603708 1_555
Br82 Ta17 2.611582 1_555
Br83 Ta0 2.884843 1_555
Br83 Ta38 2.884843 1_555
Br84 Ta26 2.603709 1_555
Br84 Ta14 2.611612 1_545
Br85 Ta41 2.603709 1_555
Br85 Ta43 2.611579 1_555
Br86 Ta11 2.593274 1_565
Br86 Ta39 2.599593 1_555
Br87 Ta42 2.603708 1_655
Br87 Ta11 2.611582 1_555
Br88 Ta13 2.593279 1_555
Br88 Ta47 2.599620 1_655
Br89 Ta18 2.593279 1_555
Br89 Ta33 2.599620 1_455
Br90 Ta46 2.603704 1_555
Br90 Ta5 2.611584 1_565
Br91 Ta33 2.603709 1_555
Br91 Ta12 2.611612 1_554
Br92 Ta33 2.593274 1_455
Br92 Ta30 2.599593 1_555
Br93 Ta13 2.884843 1_555
Br93 Ta24 2.884860 1_555
Br94 Ta36 2.603709 1_555
Br94 Ta31 2.611579 1_555
Br95 Ta4 2.593260 1_555
Br95 Ta44 2.599603 1_555
Br96 Ta31 2.603709 1_555
Br96 Ta28 2.611579 1_555
Br97 Ta16 2.603709 1_555
Br97 Ta41 2.611579 1_555
Br98 Ta11 2.603709 1_555
Br98 Ta10 2.611612 1_655
Br99 Ta6 2.603709 1_556
Br99 Ta4 2.611612 1_555
Br100 Ta15 2.603708 1_554
Br100 Ta33 2.611582 1_555
Br101 Ta15 2.884843 1_555
Br101 Ta3 2.884860 1_555
Br102 Ta18 2.603708 1_556
Br102 Ta2 2.611582 1_555
Br103 Ta23 2.884843 1_555
Br103 Ta16 2.884860 1_555
Br104 Ta14 2.603704 1_555
Br104 Ta40 2.611584 1_555
Br105 Ta19 2.593279 1_555
Br105 Ta11 2.599620 1_565
Br106 Ta9 2.603709 1_555
Br106 Ta8 2.611579 1_555
Br107 Ta26 2.593274 1_554
Br107 Ta29 2.599593 1_555
Br108 Ta32 2.603709 1_565
Br108 Ta46 2.611612 1_555
Br109 Ta23 2.603708 1_555
Br109 Ta47 2.611582 1_555
Br110 Ta7 2.593260 1_555
Br110 Ta13 2.599603 1_555
Br111 Ta3 2.593279 1_554
Br111 Ta28 2.599610 1_665
Br112 Ta22 2.603704 1_555
Br112 Ta44 2.611584 1_554
Br113 Ta45 2.884854 1_555
Br113 Ta12 2.884854 1_555
Br114 Ta0 2.593274 1_555
Br114 Ta46 2.599593 1_555
Br115 Ta20 2.603709 1_555
Br115 Ta29 2.611612 1_565
Br116 Ta32 2.593274 1_555
Br116 Ta45 2.599593 1_555
Br117 Ta38 2.593274 1_545
Br117 Ta10 2.599593 1_555
Br118 Ta28 2.603709 1_555
Br118 Ta36 2.611579 1_555
Br119 Ta43 2.603709 1_555
Br119 Ta16 2.611579 1_555
