# generated using pymatgen
data_Os10C23S2O23
_symmetry_space_group_name_H-M   'P 1'
_cell_length_a   11.79084511
_cell_length_b   11.79084511
_cell_length_c   21.37379899
_cell_angle_alpha   64.82185408
_cell_angle_beta   64.82185408
_cell_angle_gamma   54.91999381
_symmetry_Int_Tables_number   1
_chemical_formula_structural   Os10C23S2O23
_chemical_formula_sum   'Os20 C46 S4 O46'
_cell_volume   2133.98571475
_cell_formula_units_Z   2
loop_
 _symmetry_equiv_pos_site_id
 _symmetry_equiv_pos_as_xyz
  1  'x, y, z'
loop_
 _atom_site_type_symbol
 _atom_site_label
 _atom_site_symmetry_multiplicity
 _atom_site_fract_x
 _atom_site_fract_y
 _atom_site_fract_z
 _atom_site_occupancy
  Os  Os0  1  0.98033400  0.17842500  0.12372200  1
  Os  Os1  1  0.03321200  0.96678800  0.25000000  1
  Os  Os2  1  0.77090800  0.22909200  0.25000000  1
  Os  Os3  1  0.82512300  0.03261700  0.18784400  1
  Os  Os4  1  0.03261700  0.82512300  0.68784400  1
  Os  Os5  1  0.17487700  0.96738300  0.81215600  1
  Os  Os6  1  0.12220500  0.19764900  0.67788200  1
  Os  Os7  1  0.96738300  0.17487700  0.31215600  1
  Os  Os8  1  0.19764900  0.12220500  0.17788200  1
  Os  Os9  1  0.17842500  0.98033400  0.62372200  1
  Os  Os10  1  0.80235100  0.87779500  0.82211800  1
  Os  Os11  1  0.87779500  0.80235100  0.32211800  1
  Os  Os12  1  0.69246800  0.31828400  0.12055700  1
  Os  Os13  1  0.22909200  0.77090800  0.75000000  1
  Os  Os14  1  0.68171600  0.30753200  0.37944300  1
  Os  Os15  1  0.31828400  0.69246800  0.62055700  1
  Os  Os16  1  0.96678800  0.03321200  0.75000000  1
  Os  Os17  1  0.01966600  0.82157500  0.87627800  1
  Os  Os18  1  0.30753200  0.68171600  0.87944300  1
  Os  Os19  1  0.82157500  0.01966600  0.37627800  1
  C  C0  1  0.90730600  0.73034700  0.24763000  1
  C  C1  1  0.64960200  0.01654200  0.85949700  1
  C  C2  1  0.36546000  0.49628700  0.66019000  1
  C  C3  1  0.67948700  0.04773000  0.46383200  1
  C  C4  1  0.16866600  0.83801100  0.30815000  1
  C  C5  1  0.35465400  0.48282600  0.90878800  1
  C  C6  1  0.66917700  0.31842300  0.46804500  1
  C  C7  1  0.26965300  0.09269400  0.25237000  1
  C  C8  1  0.98345800  0.35039800  0.64050300  1
  C  C9  1  0.32051300  0.95227000  0.53616800  1
  C  C10  1  0.59524500  0.40475500  0.25000000  1
  C  C11  1  0.85974700  0.93419900  0.93906200  1
  C  C12  1  0.93419900  0.85974700  0.43906200  1
  C  C13  1  0.04947200  0.67550400  0.66400800  1
  C  C14  1  0.49628700  0.36546000  0.16019000  1
  C  C15  1  0.64534600  0.51717400  0.09121200  1
  C  C16  1  0.25615900  0.26675500  0.11599400  1
  C  C17  1  0.16198900  0.83133400  0.19185000  1
  C  C18  1  0.93266400  0.94387300  0.61603100  1
  C  C19  1  0.06580100  0.14025300  0.56093800  1
  C  C20  1  0.63454000  0.50371300  0.33981000  1
  C  C21  1  0.09269400  0.26965300  0.75237000  1
  C  C22  1  0.73324500  0.74384100  0.38400600  1
  C  C23  1  0.73034700  0.90730600  0.74763000  1
  C  C24  1  0.40475500  0.59524500  0.75000000  1
  C  C25  1  0.94387300  0.93266400  0.11603100  1
  C  C26  1  0.95227000  0.32051300  0.03616800  1
  C  C27  1  0.83801100  0.16866600  0.80815000  1
  C  C28  1  0.67550400  0.04947200  0.16400800  1
  C  C29  1  0.95052800  0.32449600  0.33599200  1
  C  C30  1  0.01654200  0.64960200  0.35949700  1
  C  C31  1  0.04773000  0.67948700  0.96383200  1
  C  C32  1  0.68157700  0.33082300  0.03195500  1
  C  C33  1  0.48282600  0.35465400  0.40878800  1
  C  C34  1  0.74384100  0.73324500  0.88400600  1
  C  C35  1  0.35039800  0.98345800  0.14050300  1
  C  C36  1  0.06733600  0.05612700  0.38396900  1
  C  C37  1  0.32449600  0.95052800  0.83599200  1
  C  C38  1  0.26675500  0.25615900  0.61599400  1
  C  C39  1  0.51717400  0.64534600  0.59121200  1
  C  C40  1  0.31842300  0.66917700  0.96804500  1
  C  C41  1  0.50371300  0.63454000  0.83981000  1
  C  C42  1  0.83133400  0.16198900  0.69185000  1
  C  C43  1  0.14025300  0.06580100  0.06093800  1
  C  C44  1  0.05612700  0.06733600  0.88396900  1
  C  C45  1  0.33082300  0.68157700  0.53195500  1
  S  S0  1  0.07651600  0.67424700  0.80660300  1
  S  S1  1  0.67424700  0.07651600  0.30660300  1
  S  S2  1  0.32575300  0.92348400  0.69339700  1
  S  S3  1  0.92348400  0.32575300  0.19339700  1
  O  O0  1  0.65674500  0.33005400  0.52216100  1
  O  O1  1  0.86989900  0.01241900  0.57171400  1
  O  O2  1  0.87954500  0.47903300  0.16647700  1
  O  O3  1  0.60278100  0.04791500  0.52079200  1
  O  O4  1  0.39209100  0.37774800  0.68670100  1
  O  O5  1  0.48756900  0.51243100  0.25000000  1
  O  O6  1  0.41074000  0.94522300  0.85106800  1
  O  O7  1  0.98758100  0.13010100  0.92828600  1
  O  O8  1  0.61617200  0.63403800  0.07467700  1
  O  O9  1  0.74442900  0.24369000  0.66068200  1
  O  O10  1  0.23526200  0.00054300  0.02001700  1
  O  O11  1  0.66994600  0.34325500  0.97783900  1
  O  O12  1  0.60790900  0.62225200  0.31329900  1
  O  O13  1  0.58926000  0.05477700  0.14893200  1
  O  O14  1  0.75631000  0.25557100  0.83931800  1
  O  O15  1  0.94522300  0.41074000  0.35106800  1
  O  O16  1  0.25557100  0.75631000  0.33931800  1
  O  O17  1  0.95208500  0.39721900  0.97920800  1
  O  O18  1  0.47903300  0.87954500  0.66647700  1
  O  O19  1  0.24369000  0.74442900  0.16068200  1
  O  O20  1  0.66154100  0.93287700  0.71269900  1
  O  O21  1  0.29597100  0.34977600  0.08279500  1
  O  O22  1  0.51243100  0.48756900  0.75000000  1
  O  O23  1  0.62225200  0.60790900  0.81329900  1
  O  O24  1  0.12045500  0.52096700  0.83352300  1
  O  O25  1  0.13010100  0.98758100  0.42828600  1
  O  O26  1  0.01241900  0.86989900  0.07171400  1
  O  O27  1  0.04791500  0.60278100  0.02079200  1
  O  O28  1  0.65022400  0.70402900  0.41720500  1
  O  O29  1  0.06712300  0.33845900  0.78730100  1
  O  O30  1  0.05477700  0.58926000  0.64893200  1
  O  O31  1  0.34325500  0.66994600  0.47783900  1
  O  O32  1  0.76473800  0.99945700  0.97998300  1
  O  O33  1  0.93287700  0.66154100  0.21269900  1
  O  O34  1  0.33005400  0.65674500  0.02216100  1
  O  O35  1  0.00054300  0.23526200  0.52001700  1
  O  O36  1  0.34977600  0.29597100  0.58279500  1
  O  O37  1  0.52096700  0.12045500  0.33352300  1
  O  O38  1  0.37774800  0.39209100  0.18670100  1
  O  O39  1  0.99945700  0.76473800  0.47998300  1
  O  O40  1  0.70402900  0.65022400  0.91720500  1
  O  O41  1  0.39721900  0.95208500  0.47920800  1
  O  O42  1  0.38382800  0.36596200  0.92532300  1
  O  O43  1  0.36596200  0.38382800  0.42532300  1
  O  O44  1  0.63403800  0.61617200  0.57467700  1
  O  O45  1  0.33845900  0.06712300  0.28730100  1
loop_
_geom_bond_atom_site_label_1
_geom_bond_atom_site_label_2
_geom_bond_distance
_geom_bond_site_symmetry_2
Os0 S3 2.387059 1_555
Os2 S1 2.308822 1_555
Os2 S3 2.308822 1_555
Os3 S1 2.468416 1_555
Os4 S0 2.468416 1_555
Os5 S2 2.468416 1_555
Os7 S3 2.468416 1_555
Os9 S2 2.387059 1_555
Os13 S0 2.308822 1_555
Os13 S2 2.308822 1_555
Os17 S0 2.387059 1_555
Os19 S1 2.387059 1_555
C0 O33 1.161547 1_555
C0 Os11 1.927635 1_555
C1 Os10 1.749117 1_545
C2 O4 1.160275 1_555
C2 Os15 1.905868 1_555
C3 O3 1.167599 1_555
C3 Os19 1.907959 1_555
C4 O16 1.149752 1_555
C4 Os1 1.922725 1_555
C5 O42 1.134095 1_555
C5 Os18 1.936194 1_555
C6 O0 1.160071 1_555
C6 Os14 1.889854 1_555
C7 O45 1.161547 1_555
C7 Os8 1.927635 1_555
C8 Os6 1.749117 1_655
C9 O41 1.167599 1_555
C9 Os9 1.907959 1_555
C10 O5 1.170891 1_555
C10 Os2 1.910196 1_555
C11 O32 1.166249 1_555
C11 Os17 1.898622 1_655
C12 O39 1.166249 1_555
C12 Os19 1.898622 1_565
C13 O30 1.153410 1_555
C13 Os4 1.920108 1_555
C14 O38 1.160275 1_555
C14 Os12 1.905868 1_555
C15 O8 1.134095 1_555
C15 Os12 1.936194 1_555
C16 O21 1.155780 1_555
C16 Os8 1.946104 1_555
C17 O19 1.149752 1_555
C17 Os1 1.922725 1_555
C18 O1 1.164336 1_565
C18 Os4 1.875946 1_655
C19 O35 1.166249 1_555
C19 Os9 1.898622 1_545
C20 O12 1.160275 1_555
C20 Os14 1.905868 1_555
C21 O29 1.161547 1_555
C21 Os6 1.927635 1_555
C22 O28 1.155780 1_555
C22 Os11 1.946104 1_555
C23 O20 1.161547 1_555
C23 Os10 1.927635 1_555
C24 O22 1.170891 1_555
C24 Os13 1.910196 1_555
C25 O26 1.164336 1_655
C25 Os3 1.875946 1_565
C26 O17 1.167599 1_554
C26 Os0 1.907959 1_555
C27 O14 1.149752 1_555
C27 Os16 1.922725 1_555
C28 O13 1.153410 1_555
C28 Os3 1.920108 1_555
C29 O15 1.153410 1_555
C29 Os7 1.920108 1_555
C30 Os11 1.749117 1_455
C31 O27 1.167599 1_556
C31 Os17 1.907959 1_555
C32 O11 1.160071 1_554
C32 Os12 1.889854 1_555
C33 O43 1.134095 1_555
C33 Os14 1.936194 1_555
C34 O40 1.155780 1_555
C34 Os10 1.946104 1_555
C35 Os8 1.749117 1_565
C36 O25 1.164336 1_545
C36 Os7 1.875946 1_455
C37 O6 1.153410 1_555
C37 Os5 1.920108 1_555
C38 O36 1.155780 1_555
C38 Os6 1.946104 1_555
C39 O44 1.134095 1_555
C39 Os15 1.936194 1_555
C40 O34 1.160071 1_556
C40 Os18 1.889854 1_555
C41 O23 1.160275 1_555
C41 Os18 1.905868 1_555
C42 O9 1.149752 1_555
C42 Os16 1.922725 1_555
C43 O10 1.166249 1_555
C43 Os0 1.898622 1_455
C44 O7 1.164336 1_455
C44 Os5 1.875946 1_545
C45 O31 1.160071 1_555
C45 Os15 1.889854 1_555
O2 S3 1.469146 1_555
O18 S2 1.469146 1_555
O24 S0 1.469146 1_555
O37 S1 1.469146 1_555
