# generated using pymatgen
data_Mg2Fe2O5
_symmetry_space_group_name_H-M   'P 1'
_cell_length_a   6.17100139
_cell_length_b   5.99269454
_cell_length_c   30.03245542
_cell_angle_alpha   59.83970171
_cell_angle_beta   60.56196094
_cell_angle_gamma   60.69839855
_symmetry_Int_Tables_number   1
_chemical_formula_structural   Mg2Fe2O5
_chemical_formula_sum   'Mg16 Fe16 O40'
_cell_volume   791.74525472
_cell_formula_units_Z   8
loop_
 _symmetry_equiv_pos_site_id
 _symmetry_equiv_pos_as_xyz
  1  'x, y, z'
loop_
 _atom_site_type_symbol
 _atom_site_label
 _atom_site_symmetry_multiplicity
 _atom_site_fract_x
 _atom_site_fract_y
 _atom_site_fract_z
 _atom_site_occupancy
  Mg  Mg0  1  0.98615900  0.98693800  0.00405000  1
  Mg  Mg1  1  0.12192600  0.62572500  0.12558700  1
  Mg  Mg2  1  0.62419200  0.12278800  0.12589000  1
  Mg  Mg3  1  0.12390700  0.62434700  0.32505700  1
  Mg  Mg4  1  0.62750600  0.12281600  0.32461700  1
  Mg  Mg5  1  0.13904000  0.62031500  0.52344500  1
  Mg  Mg6  1  0.65290300  0.12484000  0.51800300  1
  Mg  Mg7  1  0.62662500  0.62731100  0.42242700  1
  Mg  Mg8  1  0.63395200  0.12090500  0.62432600  1
  Mg  Mg9  1  0.12447700  0.62598500  0.72474400  1
  Mg  Mg10  1  0.62573300  0.12444400  0.72519900  1
  Mg  Mg11  1  0.63165800  0.62323700  0.62343500  1
  Mg  Mg12  1  0.10713100  0.63234000  0.92640200  1
  Mg  Mg13  1  0.61750000  0.12770200  0.82634300  1
  Mg  Mg14  1  0.59724100  0.12581700  0.93182500  1
  Mg  Mg15  1  0.61652300  0.62767500  0.82714700  1
  Fe  Fe0  1  0.24223100  0.25572300  0.05239700  1
  Fe  Fe1  1  0.25318700  0.26025200  0.24873400  1
  Fe  Fe2  1  0.62920300  0.62744300  0.02537600  1
  Fe  Fe3  1  0.62684200  0.62838300  0.12588400  1
  Fe  Fe4  1  0.99816600  0.98944400  0.20174700  1
  Fe  Fe5  1  0.26082400  0.26033700  0.44775700  1
  Fe  Fe6  1  0.10024100  0.97649300  0.58537200  1
  Fe  Fe7  1  0.62578800  0.62563200  0.22535100  1
  Fe  Fe8  1  0.62796200  0.62467500  0.32467000  1
  Fe  Fe9  1  0.01144600  0.99670600  0.39530600  1
  Fe  Fe10  1  0.16850700  0.28991300  0.65523900  1
  Fe  Fe11  1  0.65963900  0.63442800  0.51586900  1
  Fe  Fe12  1  0.15203400  0.27841100  0.86196700  1
  Fe  Fe13  1  0.62627000  0.62506400  0.72501800  1
  Fe  Fe14  1  0.08201600  0.96195500  0.79366300  1
  Fe  Fe15  1  0.59283100  0.61681200  0.93413100  1
  O  O0  1  0.38626500  0.38683500  0.07436700  1
  O  O1  1  0.38536900  0.38772700  0.17077100  1
  O  O2  1  0.38716300  0.85868500  0.07509200  1
  O  O3  1  0.85411600  0.38711500  0.07533600  1
  O  O4  1  0.38658700  0.38599600  0.27482500  1
  O  O5  1  0.39106800  0.86374300  0.17525900  1
  O  O6  1  0.86244400  0.38980500  0.17535600  1
  O  O7  1  0.38595400  0.38241500  0.37115800  1
  O  O8  1  0.85485200  0.85569900  0.08337200  1
  O  O9  1  0.38909200  0.85663300  0.27541500  1
  O  O10  1  0.85673300  0.38781100  0.27518600  1
  O  O11  1  0.86526900  0.86547800  0.17550200  1
  O  O12  1  0.38270600  0.37021400  0.47881200  1
  O  O13  1  0.39425700  0.86391000  0.37282300  1
  O  O14  1  0.37834400  0.36700000  0.57930100  1
  O  O15  1  0.86493200  0.38901900  0.37319900  1
  O  O16  1  0.86559300  0.86237400  0.27936300  1
  O  O17  1  0.38466000  0.85417000  0.48024400  1
  O  O18  1  0.86558300  0.37894100  0.47684800  1
  O  O19  1  0.86878900  0.86700300  0.37399000  1
  O  O20  1  0.37610400  0.36858900  0.67532400  1
  O  O21  1  0.45775700  0.84532700  0.56903900  1
  O  O22  1  0.87881800  0.35702600  0.57727600  1
  O  O23  1  0.37448800  0.38057500  0.77643300  1
  O  O24  1  0.88940500  0.85539700  0.47740100  1
  O  O25  1  0.37713700  0.88164900  0.67623100  1
  O  O26  1  0.80646700  0.39866600  0.67970000  1
  O  O27  1  0.87759500  0.87090100  0.57737800  1
  O  O28  1  0.37061900  0.37891500  0.87274300  1
  O  O29  1  0.44429800  0.85037000  0.77038200  1
  O  O30  1  0.87290900  0.36865400  0.77377400  1
  O  O31  1  0.35830200  0.39554300  0.97244600  1
  O  O32  1  0.36964900  0.89592300  0.87267000  1
  O  O33  1  0.87593300  0.86968800  0.67338900  1
  O  O34  1  0.79448100  0.40303800  0.88127200  1
  O  O35  1  0.87400800  0.88065700  0.77476400  1
  O  O36  1  0.39311400  0.86456200  0.97377600  1
  O  O37  1  0.85478500  0.40568500  0.97093800  1
  O  O38  1  0.87641600  0.88437900  0.86931200  1
  O  O39  1  0.85427600  0.86902800  0.97255600  1
loop_
_geom_bond_atom_site_label_1
_geom_bond_atom_site_label_2
_geom_bond_distance
_geom_bond_site_symmetry_2
Mg0 O8 1.947786 1_555
Mg0 O39 2.011805 1_554
Mg0 O37 2.058389 1_564
Mg0 O36 2.072224 1_654
Mg1 O8 2.073144 1_455
Mg1 O11 2.103108 1_455
Mg1 O1 2.114874 1_555
Mg1 O6 2.129982 1_455
Mg1 O0 2.130062 1_555
Mg1 O2 2.144098 1_555
Mg2 O8 2.062902 1_545
Mg2 O1 2.101671 1_555
Mg2 O11 2.106125 1_545
Mg2 O5 2.110516 1_545
Mg2 O3 2.119722 1_555
Mg2 O0 2.133714 1_555
Mg3 O19 2.094064 1_455
Mg3 O16 2.101568 1_455
Mg3 O4 2.106863 1_555
Mg3 O15 2.125832 1_455
Mg3 O7 2.126685 1_555
Mg3 O9 2.141161 1_555
Mg4 O16 2.089462 1_545
Mg4 O19 2.101814 1_545
Mg4 O4 2.110507 1_555
Mg4 O13 2.110817 1_545
Mg4 O7 2.112577 1_555
Mg4 O10 2.119518 1_555
Mg5 O12 2.033648 1_555
Mg5 O17 2.064894 1_555
Mg5 O24 2.069335 1_455
Mg5 O14 2.231846 1_555
Mg5 O27 2.232831 1_455
Mg5 O22 2.246507 1_455
Mg6 O18 2.009825 1_555
Mg6 O12 2.029249 1_555
Mg6 O24 2.036324 1_545
Mg6 O21 2.045847 1_545
Mg6 O27 2.248647 1_545
Mg6 O14 2.361672 1_555
Mg7 O13 2.067148 1_555
Mg7 O19 2.068133 1_555
Mg7 O15 2.077598 1_555
Mg7 O12 2.156352 1_555
Mg7 O18 2.199403 1_555
Mg7 O17 2.220217 1_555
Mg8 O22 2.065706 1_555
Mg8 O14 2.075392 1_555
Mg8 O27 2.080182 1_545
Mg8 O33 2.097805 1_545
Mg8 O25 2.132424 1_545
Mg8 O20 2.158204 1_555
Mg9 O20 2.164244 1_555
Mg9 O35 2.165030 1_455
Mg9 O33 2.175645 1_455
Mg9 O25 2.182507 1_555
Mg9 O30 2.184242 1_455
Mg9 O23 2.189105 1_555
Mg10 O26 1.962440 1_555
Mg10 O29 1.964581 1_545
Mg10 O35 2.136155 1_545
Mg10 O20 2.148756 1_555
Mg10 O23 2.196858 1_555
Mg10 O33 2.203174 1_545
Mg11 O21 1.931907 1_555
Mg11 O26 1.978856 1_555
Mg11 O27 2.120801 1_555
Mg11 O22 2.134321 1_555
Mg11 O20 2.189641 1_555
Mg11 O25 2.240030 1_555
Mg12 O39 2.012752 1_455
Mg12 O37 2.063080 1_455
Mg12 O31 2.076161 1_555
Mg12 O38 2.222719 1_455
Mg12 O28 2.239146 1_555
Mg12 O32 2.257700 1_555
Mg13 O38 2.049361 1_545
Mg13 O32 2.061594 1_545
Mg13 O28 2.074965 1_555
Mg13 O23 2.120084 1_555
Mg13 O30 2.133699 1_555
Mg13 O35 2.167328 1_545
Mg14 O39 2.001718 1_545
Mg14 O36 2.003389 1_545
Mg14 O31 2.038515 1_555
Mg14 O34 2.043226 1_555
Mg14 O28 2.250187 1_555
Mg14 O38 2.386737 1_545
Mg15 O34 1.941471 1_555
Mg15 O29 1.980762 1_555
Mg15 O28 2.126172 1_555
Mg15 O32 2.130297 1_555
Mg15 O35 2.191397 1_555
Mg15 O30 2.255094 1_555
Fe0 O0 1.903604 1_555
Fe0 O2 1.952531 1_545
Fe0 O31 1.963611 1_554
Fe0 O3 1.976914 1_455
Fe1 O1 1.914795 1_555
Fe1 O4 1.921995 1_555
Fe1 O9 1.980743 1_545
Fe1 O10 2.017450 1_455
Fe2 O39 2.009041 1_554
Fe2 O3 2.042278 1_555
Fe2 O2 2.059511 1_555
Fe2 O0 2.075391 1_555
Fe2 O37 2.124176 1_554
Fe2 O36 2.126834 1_554
Fe3 O8 1.956576 1_555
Fe3 O5 2.068166 1_555
Fe3 O1 2.071959 1_555
Fe3 O6 2.078373 1_555
Fe3 O3 2.118940 1_555
Fe3 O2 2.126847 1_555
Fe4 O16 1.906399 1_555
Fe4 O11 1.914640 1_555
Fe4 O6 1.964902 1_565
Fe4 O5 1.999362 1_655
Fe5 O7 1.881301 1_555
Fe5 O12 1.913245 1_555
Fe5 O17 1.996589 1_545
Fe5 O18 2.012434 1_455
Fe6 O21 1.830889 1_555
Fe6 O27 1.916680 1_455
Fe6 O22 1.961108 1_465
Fe6 O33 2.209877 1_455
Fe7 O4 2.055186 1_555
Fe7 O11 2.057504 1_555
Fe7 O9 2.064955 1_555
Fe7 O10 2.065784 1_555
Fe7 O6 2.083527 1_555
Fe7 O5 2.087857 1_555
Fe8 O16 2.041217 1_555
Fe8 O13 2.058175 1_555
Fe8 O15 2.064543 1_555
Fe8 O10 2.076633 1_555
Fe8 O7 2.079235 1_555
Fe8 O9 2.089223 1_555
Fe9 O19 1.874216 1_455
Fe9 O15 1.930418 1_465
Fe9 O13 1.949801 1_555
Fe9 O24 2.015974 1_455
Fe10 O26 1.843483 1_455
Fe10 O14 1.927526 1_555
Fe10 O20 1.965677 1_555
Fe10 O25 2.050764 1_545
Fe11 O18 1.940877 1_555
Fe11 O24 1.946531 1_555
Fe11 O17 1.984917 1_555
Fe11 O21 2.056825 1_555
Fe11 O22 2.272543 1_555
Fe11 O14 2.369681 1_555
Fe12 O34 1.824021 1_455
Fe12 O28 1.925400 1_555
Fe12 O32 1.957460 1_545
Fe12 O23 2.152690 1_555
Fe13 O29 1.949520 1_555
Fe13 O26 1.954663 1_555
Fe13 O30 2.112420 1_555
Fe13 O33 2.122586 1_555
Fe13 O25 2.123960 1_555
Fe13 O23 2.131130 1_555
Fe14 O29 1.845028 1_555
Fe14 O38 1.915757 1_455
Fe14 O35 1.952771 1_455
Fe14 O30 2.044118 1_465
Fe15 O36 1.919296 1_555
Fe15 O37 1.945514 1_555
Fe15 O31 1.971092 1_555
Fe15 O34 2.061831 1_555
Fe15 O32 2.289824 1_555
Fe15 O38 2.384225 1_555
