# generated using pymatgen
data_Mg3Cr2(SiO4)3
_symmetry_space_group_name_H-M   'P 1'
_cell_length_a   10.18411061
_cell_length_b   10.18411061
_cell_length_c   10.18411061
_cell_angle_alpha   109.47122063
_cell_angle_beta   109.47122063
_cell_angle_gamma   109.47122063
_symmetry_Int_Tables_number   1
_chemical_formula_structural   Mg3Cr2(SiO4)3
_chemical_formula_sum   'Mg12 Cr8 Si12 O48'
_cell_volume   813.10649740
_cell_formula_units_Z   4
loop_
 _symmetry_equiv_pos_site_id
 _symmetry_equiv_pos_as_xyz
  1  'x, y, z'
loop_
 _atom_site_type_symbol
 _atom_site_label
 _atom_site_symmetry_multiplicity
 _atom_site_fract_x
 _atom_site_fract_y
 _atom_site_fract_z
 _atom_site_occupancy
  Mg  Mg0  1  0.75000000  0.12500000  0.37500000  1
  Mg  Mg1  1  0.25000000  0.37500000  0.12500000  1
  Mg  Mg2  1  0.12500000  0.25000000  0.37500000  1
  Mg  Mg3  1  0.37500000  0.75000000  0.12500000  1
  Mg  Mg4  1  0.75000000  0.62500000  0.87500000  1
  Mg  Mg5  1  0.12500000  0.37500000  0.75000000  1
  Mg  Mg6  1  0.62500000  0.87500000  0.75000000  1
  Mg  Mg7  1  0.25000000  0.87500000  0.62500000  1
  Mg  Mg8  1  0.87500000  0.62500000  0.25000000  1
  Mg  Mg9  1  0.62500000  0.25000000  0.87500000  1
  Mg  Mg10  1  0.87500000  0.75000000  0.62500000  1
  Mg  Mg11  1  0.37500000  0.12500000  0.25000000  1
  Cr  Cr0  1  0.00000000  0.00000000  0.00000000  1
  Cr  Cr1  1  0.50000000  0.00000000  0.00000000  1
  Cr  Cr2  1  0.00000000  0.50000000  0.00000000  1
  Cr  Cr3  1  0.50000000  0.50000000  0.00000000  1
  Cr  Cr4  1  0.00000000  0.50000000  0.50000000  1
  Cr  Cr5  1  0.50000000  0.00000000  0.50000000  1
  Cr  Cr6  1  0.50000000  0.50000000  0.50000000  1
  Cr  Cr7  1  0.00000000  0.00000000  0.50000000  1
  Si  Si0  1  0.12500000  0.87500000  0.25000000  1
  Si  Si1  1  0.87500000  0.12500000  0.75000000  1
  Si  Si2  1  0.25000000  0.62500000  0.37500000  1
  Si  Si3  1  0.37500000  0.25000000  0.62500000  1
  Si  Si4  1  0.75000000  0.87500000  0.12500000  1
  Si  Si5  1  0.12500000  0.75000000  0.87500000  1
  Si  Si6  1  0.37500000  0.62500000  0.75000000  1
  Si  Si7  1  0.62500000  0.75000000  0.37500000  1
  Si  Si8  1  0.87500000  0.25000000  0.12500000  1
  Si  Si9  1  0.25000000  0.12500000  0.87500000  1
  Si  Si10  1  0.75000000  0.37500000  0.62500000  1
  Si  Si11  1  0.62500000  0.37500000  0.25000000  1
  O  O0  1  0.47974300  0.37611500  0.28857200  1
  O  O1  1  0.30883000  0.89637300  0.02025700  1
  O  O2  1  0.60362700  0.91245700  0.12388500  1
  O  O3  1  0.58754300  0.19117000  0.21142800  1
  O  O4  1  0.12388500  0.02025700  0.21142800  1
  O  O5  1  0.19117000  0.21142800  0.58754300  1
  O  O6  1  0.19117000  0.47974300  0.60362700  1
  O  O7  1  0.21142800  0.58754300  0.19117000  1
  O  O8  1  0.37611500  0.58754300  0.89637300  1
  O  O9  1  0.91245700  0.28857200  0.30883000  1
  O  O10  1  0.28857200  0.30883000  0.91245700  1
  O  O11  1  0.21142800  0.12388500  0.02025700  1
  O  O12  1  0.47974300  0.60362700  0.19117000  1
  O  O13  1  0.89637300  0.37611500  0.58754300  1
  O  O14  1  0.02025700  0.21142800  0.12388500  1
  O  O15  1  0.60362700  0.19117000  0.47974300  1
  O  O16  1  0.58754300  0.89637300  0.37611500  1
  O  O17  1  0.02025700  0.30883000  0.89637300  1
  O  O18  1  0.91245700  0.12388500  0.60362700  1
  O  O19  1  0.62388500  0.41245700  0.10362700  1
  O  O20  1  0.12388500  0.60362700  0.91245700  1
  O  O21  1  0.28857200  0.47974300  0.37611500  1
  O  O22  1  0.89637300  0.02025700  0.30883000  1
  O  O23  1  0.30883000  0.91245700  0.28857200  1
  O  O24  1  0.52025700  0.62388500  0.71142800  1
  O  O25  1  0.69117000  0.10362700  0.97974300  1
  O  O26  1  0.39637300  0.08754300  0.87611500  1
  O  O27  1  0.41245700  0.80883000  0.78857200  1
  O  O28  1  0.87611500  0.97974300  0.78857200  1
  O  O29  1  0.80883000  0.78857200  0.41245700  1
  O  O30  1  0.80883000  0.52025700  0.39637300  1
  O  O31  1  0.78857200  0.41245700  0.80883000  1
  O  O32  1  0.69117000  0.08754300  0.71142800  1
  O  O33  1  0.10362700  0.97974300  0.69117000  1
  O  O34  1  0.71142800  0.52025700  0.62388500  1
  O  O35  1  0.62388500  0.71142800  0.52025700  1
  O  O36  1  0.87611500  0.39637300  0.08754300  1
  O  O37  1  0.08754300  0.87611500  0.39637300  1
  O  O38  1  0.97974300  0.69117000  0.10362700  1
  O  O39  1  0.41245700  0.10362700  0.62388500  1
  O  O40  1  0.39637300  0.80883000  0.52025700  1
  O  O41  1  0.97974300  0.78857200  0.87611500  1
  O  O42  1  0.10362700  0.62388500  0.41245700  1
  O  O43  1  0.52025700  0.39637300  0.80883000  1
  O  O44  1  0.78857200  0.87611500  0.97974300  1
  O  O45  1  0.71142800  0.69117000  0.08754300  1
  O  O46  1  0.08754300  0.71142800  0.69117000  1
  O  O47  1  0.37611500  0.28857200  0.47974300  1
loop_
_geom_bond_atom_site_label_1
_geom_bond_atom_site_label_2
_geom_bond_distance
_geom_bond_site_symmetry_2
Mg0 O2 2.250477 1_545
Mg0 O13 2.250477 1_555
Mg0 O15 2.250483 1_555
Mg0 O22 2.250483 1_555
Mg0 O3 2.370802 1_555
Mg0 O16 2.370802 1_545
Mg0 O9 2.370802 1_555
Mg0 O18 2.370802 1_555
Mg1 O10 2.250477 1_554
Mg1 O7 2.250477 1_555
Mg1 O21 2.250477 1_555
Mg1 O11 2.250477 1_555
Mg1 O12 2.370808 1_555
Mg1 O17 2.370808 1_554
Mg1 O14 2.370810 1_555
Mg1 O0 2.370810 1_555
Mg2 O9 2.250477 1_455
Mg2 O5 2.250477 1_555
Mg2 O47 2.250477 1_555
Mg2 O14 2.250477 1_555
Mg2 O22 2.370808 1_455
Mg2 O6 2.370808 1_555
Mg2 O21 2.370810 1_555
Mg2 O4 2.370810 1_555
Mg3 O20 2.250477 1_554
Mg3 O16 2.250477 1_555
Mg3 O12 2.250483 1_555
Mg3 O1 2.250483 1_555
Mg3 O7 2.370802 1_555
Mg3 O23 2.370802 1_555
Mg3 O8 2.370802 1_554
Mg3 O2 2.370802 1_555
Mg4 O45 2.250477 1_556
Mg4 O31 2.250477 1_555
Mg4 O34 2.250477 1_555
Mg4 O44 2.250477 1_555
Mg4 O38 2.370808 1_556
Mg4 O43 2.370808 1_555
Mg4 O24 2.370810 1_555
Mg4 O41 2.370810 1_555
Mg5 O18 2.250477 1_455
Mg5 O8 2.250477 1_555
Mg5 O17 2.250483 1_555
Mg5 O6 2.250483 1_555
Mg5 O13 2.370802 1_455
Mg5 O10 2.370802 1_555
Mg5 O5 2.370802 1_555
Mg5 O20 2.370802 1_555
Mg6 O32 2.250477 1_565
Mg6 O27 2.250477 1_555
Mg6 O24 2.250477 1_555
Mg6 O28 2.250477 1_555
Mg6 O25 2.370808 1_565
Mg6 O40 2.370808 1_555
Mg6 O35 2.370810 1_555
Mg6 O44 2.370810 1_555
Mg7 O26 2.250477 1_565
Mg7 O42 2.250477 1_555
Mg7 O40 2.250483 1_555
Mg7 O33 2.250483 1_555
Mg7 O39 2.370802 1_565
Mg7 O27 2.370802 1_555
Mg7 O46 2.370802 1_555
Mg7 O37 2.370802 1_555
Mg8 O37 2.250477 1_655
Mg8 O19 2.250477 1_555
Mg8 O30 2.250483 1_555
Mg8 O38 2.250483 1_555
Mg8 O42 2.370802 1_655
Mg8 O45 2.370802 1_555
Mg8 O29 2.370802 1_555
Mg8 O36 2.370802 1_555
Mg9 O36 2.250477 1_556
Mg9 O39 2.250477 1_555
Mg9 O43 2.250483 1_555
Mg9 O25 2.250483 1_555
Mg9 O19 2.370802 1_556
Mg9 O32 2.370802 1_555
Mg9 O31 2.370802 1_555
Mg9 O26 2.370802 1_555
Mg10 O29 2.250477 1_555
Mg10 O46 2.250477 1_655
Mg10 O41 2.250477 1_555
Mg10 O35 2.250477 1_555
Mg10 O33 2.370808 1_655
Mg10 O30 2.370808 1_555
Mg10 O34 2.370810 1_555
Mg10 O28 2.370810 1_555
Mg11 O3 2.250477 1_555
Mg11 O23 2.250477 1_545
Mg11 O4 2.250477 1_555
Mg11 O0 2.250477 1_555
Mg11 O1 2.370808 1_545
Mg11 O15 2.370808 1_555
Mg11 O47 2.370810 1_555
Mg11 O11 2.370810 1_555
Cr0 O44 1.997475 1_444
Cr0 O28 1.997475 1_444
Cr0 O14 1.997475 1_555
Cr0 O11 1.997475 1_555
Cr0 O4 1.997475 1_555
Cr0 O41 1.997475 1_444
Cr1 O25 1.997464 1_554
Cr1 O1 1.997464 1_545
Cr1 O27 1.997471 1_544
Cr1 O3 1.997471 1_555
Cr1 O26 1.997471 1_554
Cr1 O2 1.997471 1_545
Cr2 O38 1.997464 1_455
Cr2 O17 1.997464 1_554
Cr2 O31 1.997471 1_454
Cr2 O7 1.997471 1_555
Cr2 O36 1.997471 1_455
Cr2 O20 1.997471 1_554
Cr3 O43 1.997464 1_554
Cr3 O12 1.997464 1_555
Cr3 O45 1.997471 1_555
Cr3 O10 1.997471 1_554
Cr3 O19 1.997471 1_555
Cr3 O8 1.997471 1_554
Cr4 O30 1.997464 1_455
Cr4 O6 1.997464 1_555
Cr4 O46 1.997471 1_555
Cr4 O42 1.997471 1_555
Cr4 O9 1.997471 1_455
Cr4 O13 1.997471 1_455
Cr5 O40 1.997464 1_545
Cr5 O15 1.997464 1_555
Cr5 O32 1.997471 1_555
Cr5 O39 1.997471 1_555
Cr5 O23 1.997471 1_545
Cr5 O16 1.997471 1_545
Cr6 O35 1.997475 1_555
Cr6 O34 1.997475 1_555
Cr6 O24 1.997475 1_555
Cr6 O47 1.997475 1_555
Cr6 O0 1.997475 1_555
Cr6 O21 1.997475 1_555
Cr7 O33 1.997464 1_545
Cr7 O22 1.997464 1_455
Cr7 O29 1.997471 1_445
Cr7 O5 1.997471 1_555
Cr7 O37 1.997471 1_545
Cr7 O18 1.997471 1_455
O0 Si11 1.654822 1_555
O1 Si5 1.654829 1_554
O2 Si4 1.654832 1_555
O3 Si11 1.654832 1_555
O4 Si0 1.654822 1_545
O5 Si3 1.654832 1_555
O6 Si6 1.654829 1_555
O7 Si2 1.654832 1_555
O8 Si6 1.654832 1_555
O9 Si8 1.654832 1_555
O10 Si9 1.654832 1_555
O11 Si9 1.654822 1_554
O12 Si7 1.654829 1_555
O13 Si10 1.654832 1_555
O14 Si8 1.654822 1_455
O15 Si10 1.654829 1_555
O16 Si7 1.654832 1_555
O17 Si1 1.654829 1_455
O18 Si1 1.654832 1_555
O19 Si11 1.654832 1_555
O20 Si5 1.654832 1_555
O21 Si2 1.654822 1_555
O22 Si4 1.654829 1_545
O23 Si0 1.654832 1_555
O24 Si6 1.654822 1_555
O25 Si8 1.654829 1_556
O26 Si9 1.654832 1_555
O27 Si6 1.654832 1_555
O28 Si1 1.654822 1_565
O29 Si7 1.654832 1_555
O30 Si11 1.654829 1_555
O31 Si10 1.654832 1_555
O32 Si1 1.654832 1_555
O33 Si9 1.654829 1_565
O34 Si10 1.654822 1_555
O35 Si7 1.654822 1_555
O36 Si8 1.654832 1_555
O37 Si0 1.654832 1_555
O38 Si0 1.654829 1_655
O39 Si3 1.654832 1_555
O40 Si2 1.654829 1_555
O41 Si5 1.654822 1_655
O42 Si2 1.654832 1_555
O43 Si3 1.654829 1_555
O44 Si4 1.654822 1_556
O45 Si4 1.654832 1_555
O46 Si5 1.654832 1_555
O47 Si3 1.654822 1_555
