# generated using pymatgen
data_Bi8Se7
_symmetry_space_group_name_H-M   'P 1'
_cell_length_a   4.28749561
_cell_length_b   4.28749561
_cell_length_c   88.64102600
_cell_angle_alpha   90.00000000
_cell_angle_beta   90.00000000
_cell_angle_gamma   119.99999392
_symmetry_Int_Tables_number   1
_chemical_formula_structural   Bi8Se7
_chemical_formula_sum   'Bi24 Se21'
_cell_volume   1411.14879274
_cell_formula_units_Z   3
loop_
 _symmetry_equiv_pos_site_id
 _symmetry_equiv_pos_as_xyz
  1  'x, y, z'
loop_
 _atom_site_type_symbol
 _atom_site_label
 _atom_site_symmetry_multiplicity
 _atom_site_fract_x
 _atom_site_fract_y
 _atom_site_fract_z
 _atom_site_occupancy
  Bi  Bi0  1  0.00000000  0.00000000  0.90029200  1
  Bi  Bi1  1  0.00000000  0.00000000  0.83281900  1
  Bi  Bi2  1  0.00000000  0.00000000  0.56822600  1
  Bi  Bi3  1  0.66666700  0.33333300  0.94294900  1
  Bi  Bi4  1  0.33333300  0.66666700  0.85286300  1
  Bi  Bi5  1  0.00000000  0.00000000  0.36426900  1
  Bi  Bi6  1  0.66666700  0.33333300  0.41175700  1
  Bi  Bi7  1  0.00000000  0.00000000  0.63573100  1
  Bi  Bi8  1  0.33333300  0.66666700  0.58824300  1
  Bi  Bi9  1  0.00000000  0.00000000  0.09970800  1
  Bi  Bi10  1  0.33333300  0.66666700  0.32181400  1
  Bi  Bi11  1  0.66666700  0.33333300  0.74322800  1
  Bi  Bi12  1  0.66666700  0.33333300  0.47881300  1
  Bi  Bi13  1  0.33333300  0.66666700  0.52118700  1
  Bi  Bi14  1  0.00000000  0.00000000  0.43177400  1
  Bi  Bi15  1  0.66666700  0.33333300  0.67818600  1
  Bi  Bi16  1  0.66666700  0.33333300  0.00999500  1
  Bi  Bi17  1  0.33333300  0.66666700  0.05705100  1
  Bi  Bi18  1  0.33333300  0.66666700  0.99000500  1
  Bi  Bi19  1  0.00000000  0.00000000  0.16718100  1
  Bi  Bi20  1  0.66666700  0.33333300  0.21416300  1
  Bi  Bi21  1  0.33333300  0.66666700  0.78583700  1
  Bi  Bi22  1  0.33333300  0.66666700  0.25677200  1
  Bi  Bi23  1  0.66666700  0.33333300  0.14713700  1
  Se  Se0  1  0.33333300  0.66666700  0.19665200  1
  Se  Se1  1  0.00000000  0.00000000  0.03963600  1
  Se  Se2  1  0.66666700  0.33333300  0.27367800  1
  Se  Se3  1  0.66666700  0.33333300  0.53854000  1
  Se  Se4  1  0.33333300  0.66666700  0.11706300  1
  Se  Se5  1  0.33333300  0.66666700  0.46146000  1
  Se  Se6  1  0.33333300  0.66666700  0.92169000  1
  Se  Se7  1  0.00000000  0.00000000  0.69507400  1
  Se  Se8  1  0.00000000  0.00000000  0.30492600  1
  Se  Se9  1  0.33333300  0.66666700  0.72632200  1
  Se  Se10  1  0.66666700  0.33333300  0.61825600  1
  Se  Se11  1  0.66666700  0.33333300  0.34338800  1
  Se  Se12  1  0.00000000  0.00000000  0.96036400  1
  Se  Se13  1  0.00000000  0.00000000  0.76489900  1
  Se  Se14  1  0.33333300  0.66666700  0.65661200  1
  Se  Se15  1  0.66666700  0.33333300  0.88293700  1
  Se  Se16  1  0.66666700  0.33333300  0.80334800  1
  Se  Se17  1  0.00000000  0.00000000  0.50000000  1
  Se  Se18  1  0.00000000  0.00000000  0.23510100  1
  Se  Se19  1  0.66666700  0.33333300  0.07831000  1
  Se  Se20  1  0.33333300  0.66666700  0.38174400  1
loop_
_geom_bond_atom_site_label_1
_geom_bond_atom_site_label_2
_geom_bond_distance
_geom_bond_site_symmetry_2
Bi0 Se15 2.914463 1_455
Bi0 Se15 2.914466 1_445
Bi0 Se15 2.914466 1_555
Bi0 Se6 3.118518 1_545
Bi0 Se6 3.118521 1_555
Bi0 Se6 3.118521 1_445
Bi1 Bi4 3.047009 1_545
Bi1 Bi4 3.047012 1_445
Bi1 Bi4 3.047012 1_555
Bi2 Bi8 3.045614 1_545
Bi2 Bi8 3.045617 1_555
Bi2 Bi8 3.045617 1_445
Bi3 Se12 2.917274 1_655
Bi3 Se12 2.917277 1_665
Bi3 Se12 2.917277 1_555
Bi3 Se6 3.111039 1_545
Bi3 Se6 3.111039 1_655
Bi3 Se6 3.111045 1_555
Bi5 Se20 2.920091 1_545
Bi5 Se20 2.920095 1_445
Bi5 Se20 2.920095 1_555
Bi5 Se11 3.090859 1_455
Bi5 Se11 3.090862 1_445
Bi5 Se11 3.090862 1_555
Bi7 Se10 2.920091 1_455
Bi7 Se10 2.920095 1_555
Bi7 Se10 2.920095 1_445
Bi7 Se14 3.090859 1_545
Bi7 Se14 3.090862 1_555
Bi7 Se14 3.090862 1_445
Bi9 Se4 2.914463 1_545
Bi9 Se4 2.914466 1_445
Bi9 Se4 2.914466 1_555
Bi9 Se19 3.118518 1_455
Bi9 Se19 3.118521 1_445
Bi9 Se19 3.118521 1_555
Bi10 Se8 2.892826 1_565
Bi10 Se8 2.892830 1_665
Bi10 Se8 2.892830 1_555
Bi10 Se11 3.128031 1_455
Bi10 Se11 3.128031 1_565
Bi10 Se11 3.128037 1_555
Bi11 Se9 2.893653 1_545
Bi11 Se9 2.893653 1_655
Bi11 Se9 2.893659 1_555
Bi11 Se13 3.133295 1_655
Bi11 Se13 3.133298 1_665
Bi11 Se13 3.133298 1_555
Bi12 Se5 2.914369 1_545
Bi12 Se5 2.914369 1_655
Bi12 Se5 2.914376 1_555
Bi12 Se17 3.107177 1_655
Bi12 Se17 3.107181 1_665
Bi12 Se17 3.107181 1_555
Bi13 Se3 2.914369 1_565
Bi13 Se3 2.914369 1_455
Bi13 Se3 2.914376 1_555
Bi13 Se17 3.107177 1_565
Bi13 Se17 3.107181 1_665
Bi13 Se17 3.107181 1_555
Bi14 Bi6 3.045614 1_455
Bi14 Bi6 3.045617 1_445
Bi14 Bi6 3.045617 1_555
Bi15 Se7 2.892826 1_655
Bi15 Se7 2.892830 1_665
Bi15 Se7 2.892830 1_555
Bi15 Se14 3.128031 1_545
Bi15 Se14 3.128031 1_655
Bi15 Se14 3.128037 1_555
Bi16 Bi18 3.044221 1_544
Bi16 Bi18 3.044221 1_654
Bi16 Bi18 3.044226 1_554
Bi17 Se1 2.917274 1_565
Bi17 Se1 2.917277 1_665
Bi17 Se1 2.917277 1_555
Bi17 Se19 3.111039 1_565
Bi17 Se19 3.111039 1_455
Bi17 Se19 3.111045 1_555
Bi19 Bi23 3.047009 1_455
Bi19 Bi23 3.047012 1_445
Bi19 Bi23 3.047012 1_555
Bi20 Se0 2.921786 1_545
Bi20 Se0 2.921786 1_655
Bi20 Se0 2.921792 1_555
Bi20 Se18 3.093887 1_655
Bi20 Se18 3.093890 1_555
Bi20 Se18 3.093890 1_665
Bi21 Se16 2.921786 1_455
Bi21 Se16 2.921786 1_565
Bi21 Se16 2.921792 1_555
Bi21 Se13 3.093887 1_565
Bi21 Se13 3.093890 1_665
Bi21 Se13 3.093890 1_555
Bi22 Se2 2.893653 1_455
Bi22 Se2 2.893653 1_565
Bi22 Se2 2.893659 1_555
Bi22 Se18 3.133295 1_565
Bi22 Se18 3.133298 1_555
Bi22 Se18 3.133298 1_665
