# generated using pymatgen
data_ReOsRu
_symmetry_space_group_name_H-M   'P 1'
_cell_length_a   4.18682026
_cell_length_b   4.18682026
_cell_length_c   4.18682026
_cell_angle_alpha   60.00000000
_cell_angle_beta   60.00000000
_cell_angle_gamma   60.00000000
_symmetry_Int_Tables_number   1
_chemical_formula_structural   ReOsRu
_chemical_formula_sum   'Re1 Os1 Ru1'
_cell_volume   51.89648629
_cell_formula_units_Z   1
loop_
 _symmetry_equiv_pos_site_id
 _symmetry_equiv_pos_as_xyz
  1  'x, y, z'
loop_
 _atom_site_type_symbol
 _atom_site_label
 _atom_site_symmetry_multiplicity
 _atom_site_fract_x
 _atom_site_fract_y
 _atom_site_fract_z
 _atom_site_occupancy
  Re  Re0  1  0.00000000  0.00000000  0.00000000  1
  Os  Os0  1  0.75000000  0.75000000  0.75000000  1
  Ru  Ru0  1  0.50000000  0.50000000  0.50000000  1
loop_
_geom_bond_atom_site_label_1
_geom_bond_atom_site_label_2
_geom_bond_distance
_geom_bond_site_symmetry_2
Re0 Ru0 2.960529 1_455
Re0 Ru0 2.960529 1_554
Re0 Ru0 2.960529 1_454
Re0 Ru0 2.960529 1_544
Re0 Ru0 2.960529 1_545
Re0 Ru0 2.960529 1_445
Os0 Ru0 2.563893 1_655
Os0 Re0 2.563893 1_656
Os0 Ru0 2.563893 1_556
Os0 Re0 2.563893 1_665
Os0 Re0 2.563893 1_566
Os0 Re0 2.563893 1_666
Os0 Ru0 2.563893 1_555
Os0 Ru0 2.563893 1_565
