# generated using pymatgen
data_CrWO4
_symmetry_space_group_name_H-M   'P 1'
_cell_length_a   4.73727818
_cell_length_b   5.57256269
_cell_length_c   5.57855609
_cell_angle_alpha   64.38121133
_cell_angle_beta   88.29732892
_cell_angle_gamma   88.30311576
_symmetry_Int_Tables_number   1
_chemical_formula_structural   CrWO4
_chemical_formula_sum   'Cr2 W2 O8'
_cell_volume   132.70776991
_cell_formula_units_Z   2
loop_
 _symmetry_equiv_pos_site_id
 _symmetry_equiv_pos_as_xyz
  1  'x, y, z'
loop_
 _atom_site_type_symbol
 _atom_site_label
 _atom_site_symmetry_multiplicity
 _atom_site_fract_x
 _atom_site_fract_y
 _atom_site_fract_z
 _atom_site_occupancy
  Cr  Cr0  1  0.50927300  0.25984100  0.25986900  1
  Cr  Cr1  1  0.49047000  0.74030700  0.74070000  1
  W  W0  1  0.99987400  0.77146200  0.22872700  1
  W  W1  1  0.99994100  0.22890200  0.77124500  1
  O  O0  1  0.19065600  0.59263700  0.59221100  1
  O  O1  1  0.80979600  0.40702300  0.40736400  1
  O  O2  1  0.78424100  0.88763600  0.88820200  1
  O  O3  1  0.21545500  0.11234900  0.11219400  1
  O  O4  1  0.70341300  0.39240600  0.90414100  1
  O  O5  1  0.29662100  0.09445600  0.60875700  1
  O  O6  1  0.29691000  0.60882400  0.09531400  1
  O  O7  1  0.70335000  0.90415600  0.39127600  1
loop_
_geom_bond_atom_site_label_1
_geom_bond_atom_site_label_2
_geom_bond_distance
_geom_bond_site_symmetry_2
Cr0 O7 1.996732 1_545
Cr0 O4 1.998414 1_554
Cr0 O3 2.003249 1_555
Cr0 O6 2.007974 1_555
Cr0 O5 2.009871 1_555
Cr0 O1 2.024568 1_555
Cr1 O5 1.989100 1_565
Cr1 O6 1.992389 1_556
Cr1 O2 2.001948 1_555
Cr1 O4 2.004429 1_555
Cr1 O7 2.012211 1_555
Cr1 O0 2.027115 1_555
O0 W1 2.055829 1_455
O0 W0 2.056621 1_455
O1 W1 2.056829 1_555
O1 W0 2.057459 1_555
O2 W0 2.020863 1_556
O2 W1 2.022097 1_565
O3 W0 2.020314 1_445
O3 W1 2.022287 1_454
O4 W1 1.949237 1_555
O5 W1 1.951276 1_455
O6 W0 1.949589 1_455
O7 W0 1.945483 1_555
