# generated using pymatgen
data_Na2AlFeF7
_symmetry_space_group_name_H-M   'P 1'
_cell_length_a   7.28553498
_cell_length_b   7.28553498
_cell_length_c   24.50285078
_cell_angle_alpha   81.62184470
_cell_angle_beta   81.62184470
_cell_angle_gamma   60.63196189
_symmetry_Int_Tables_number   1
_chemical_formula_structural   Na2AlFeF7
_chemical_formula_sum   'Na16 Al8 Fe8 F56'
_cell_volume   1117.18362933
_cell_formula_units_Z   8
loop_
 _symmetry_equiv_pos_site_id
 _symmetry_equiv_pos_as_xyz
  1  'x, y, z'
loop_
 _atom_site_type_symbol
 _atom_site_label
 _atom_site_symmetry_multiplicity
 _atom_site_fract_x
 _atom_site_fract_y
 _atom_site_fract_z
 _atom_site_occupancy
  Na  Na0  1  0.11693200  0.13595600  0.12159000  1
  Na  Na1  1  0.50000000  0.50000000  0.00000000  1
  Na  Na2  1  0.13595600  0.11693200  0.62159000  1
  Na  Na3  1  0.69919300  0.79581800  0.25255300  1
  Na  Na4  1  0.88306800  0.86404400  0.87841000  1
  Na  Na5  1  0.79282300  0.20717700  0.75000000  1
  Na  Na6  1  0.79581800  0.69919300  0.75255300  1
  Na  Na7  1  0.00000000  0.00000000  0.00000000  1
  Na  Na8  1  0.30080700  0.20418200  0.74744700  1
  Na  Na9  1  0.00000000  0.00000000  0.50000000  1
  Na  Na10  1  0.20418200  0.30080700  0.24744700  1
  Na  Na11  1  0.50000000  0.00000000  0.50000000  1
  Na  Na12  1  0.50000000  0.50000000  0.50000000  1
  Na  Na13  1  0.00000000  0.50000000  0.00000000  1
  Na  Na14  1  0.86404400  0.88306800  0.37841000  1
  Na  Na15  1  0.20717700  0.79282300  0.25000000  1
  Al  Al0  1  0.74981800  0.25018200  0.25000000  1
  Al  Al1  1  0.25018200  0.74981800  0.75000000  1
  Al  Al2  1  0.36115700  0.89170200  0.37413600  1
  Al  Al3  1  0.89170200  0.36115700  0.87413600  1
  Al  Al4  1  0.63884300  0.10829800  0.62586400  1
  Al  Al5  1  0.50000000  0.00000000  0.00000000  1
  Al  Al6  1  0.00000000  0.50000000  0.50000000  1
  Al  Al7  1  0.10829800  0.63884300  0.12586400  1
  Fe  Fe0  1  0.13654800  0.61039000  0.62590700  1
  Fe  Fe1  1  0.38822900  0.36687500  0.87229500  1
  Fe  Fe2  1  0.38961000  0.86345200  0.87409300  1
  Fe  Fe3  1  0.36687500  0.38822900  0.37229500  1
  Fe  Fe4  1  0.61177100  0.63312500  0.12770500  1
  Fe  Fe5  1  0.86345200  0.38961000  0.37409300  1
  Fe  Fe6  1  0.61039000  0.13654800  0.12590700  1
  Fe  Fe7  1  0.63312500  0.61177100  0.62770500  1
  F  F0  1  0.00363500  0.15044600  0.20946200  1
  F  F1  1  0.15044600  0.00363500  0.70946200  1
  F  F2  1  0.50999300  0.64298300  0.71001600  1
  F  F3  1  0.29257700  0.72333800  0.14020000  1
  F  F4  1  0.14771000  0.64195300  0.70744800  1
  F  F5  1  0.45072700  0.07233900  0.38788900  1
  F  F6  1  0.77855300  0.87669000  0.96946200  1
  F  F7  1  0.57184900  0.76354600  0.04659100  1
  F  F8  1  0.35804700  0.85229000  0.79255200  1
  F  F9  1  0.42815100  0.23645400  0.95340900  1
  F  F10  1  0.91932600  0.92635000  0.61085300  1
  F  F11  1  0.86966000  0.43016600  0.45528100  1
  F  F12  1  0.72333800  0.29257800  0.64020000  1
  F  F13  1  0.27666200  0.70742200  0.35980000  1
  F  F14  1  0.64799200  0.28608700  0.40875900  1
  F  F15  1  0.07233900  0.45072700  0.88788900  1
  F  F16  1  0.35200800  0.71391300  0.59124100  1
  F  F17  1  0.50989900  0.91901700  0.16129300  1
  F  F18  1  0.02137300  0.64762700  0.20041000  1
  F  F19  1  0.35773700  0.29324300  0.64057100  1
  F  F20  1  0.64226300  0.70675700  0.35942900  1
  F  F21  1  0.12331000  0.22144700  0.53053800  1
  F  F22  1  0.84955400  0.99636500  0.29053800  1
  F  F23  1  0.99636500  0.84955400  0.79053800  1
  F  F24  1  0.35701700  0.49000700  0.78998400  1
  F  F25  1  0.49010100  0.08098300  0.83870700  1
  F  F26  1  0.13034000  0.56983400  0.54471900  1
  F  F27  1  0.08098300  0.49010100  0.33870700  1
  F  F28  1  0.92766100  0.54927300  0.11211100  1
  F  F29  1  0.07365000  0.08067400  0.88914700  1
  F  F30  1  0.97862700  0.35237300  0.79959000  1
  F  F31  1  0.71391300  0.35200800  0.09124100  1
  F  F32  1  0.49000700  0.35701700  0.28998400  1
  F  F33  1  0.35237300  0.97862700  0.29959000  1
  F  F34  1  0.19152600  0.63179800  0.05120900  1
  F  F35  1  0.54927300  0.92766100  0.61211100  1
  F  F36  1  0.91901700  0.50989900  0.66129300  1
  F  F37  1  0.70742300  0.27666200  0.85980000  1
  F  F38  1  0.76354600  0.57184900  0.54659100  1
  F  F39  1  0.64762700  0.02137300  0.70041000  1
  F  F40  1  0.29324300  0.35773700  0.14057100  1
  F  F41  1  0.64195300  0.14771000  0.20744800  1
  F  F42  1  0.87669000  0.77855300  0.46946200  1
  F  F43  1  0.56983400  0.13034000  0.04471900  1
  F  F44  1  0.22144700  0.12331000  0.03053800  1
  F  F45  1  0.85229000  0.35804700  0.29255200  1
  F  F46  1  0.70675700  0.64226300  0.85942900  1
  F  F47  1  0.28608700  0.64799200  0.90875900  1
  F  F48  1  0.43016600  0.86966000  0.95528100  1
  F  F49  1  0.63179800  0.19152600  0.55120900  1
  F  F50  1  0.64298300  0.50999300  0.21001600  1
  F  F51  1  0.36820200  0.80847400  0.44879100  1
  F  F52  1  0.08067400  0.07365000  0.38914700  1
  F  F53  1  0.92635000  0.91932600  0.11085300  1
  F  F54  1  0.80847400  0.36820200  0.94879100  1
  F  F55  1  0.23645400  0.42815100  0.45340900  1
loop_
_geom_bond_atom_site_label_1
_geom_bond_atom_site_label_2
_geom_bond_distance
_geom_bond_site_symmetry_2
Al0 F22 1.814188 1_545
Al0 F0 1.814188 1_655
Al0 F41 1.817440 1_555
Al0 F45 1.817440 1_555
Al0 F32 1.839930 1_555
Al0 F50 1.839930 1_555
Al1 F23 1.814188 1_455
Al1 F1 1.814188 1_565
Al1 F8 1.817440 1_555
Al1 F4 1.817440 1_555
Al1 F2 1.839930 1_555
Al1 F24 1.839930 1_555
Al2 F5 1.818521 1_565
Al2 F13 1.820975 1_555
Al2 F52 1.826035 1_565
Al2 F20 1.832901 1_555
Al2 F51 1.841224 1_555
Al2 F33 1.843585 1_555
Al3 F15 1.818521 1_655
Al3 F37 1.820968 1_555
Al3 F29 1.826035 1_655
Al3 F46 1.832901 1_555
Al3 F54 1.841224 1_555
Al3 F30 1.843585 1_555
Al4 F35 1.818521 1_545
Al4 F12 1.820975 1_555
Al4 F10 1.826035 1_545
Al4 F19 1.832901 1_555
Al4 F49 1.841224 1_555
Al4 F39 1.843585 1_555
Al5 F9 1.805969 1_554
Al5 F7 1.805969 1_545
Al5 F43 1.816809 1_555
Al5 F48 1.816809 1_544
Al5 F6 1.857585 1_544
Al5 F44 1.857585 1_555
Al6 F38 1.805969 1_455
Al6 F55 1.805969 1_555
Al6 F26 1.816809 1_555
Al6 F11 1.816809 1_455
Al6 F42 1.857585 1_455
Al6 F21 1.857585 1_555
Al7 F28 1.818521 1_455
Al7 F3 1.820968 1_555
Al7 F53 1.826035 1_455
Al7 F40 1.832901 1_555
Al7 F34 1.841224 1_555
Al7 F18 1.843585 1_555
F0 Na0 2.188890 1_555
F0 Na15 2.420658 1_545
F0 Na10 2.542520 1_555
F1 Na2 2.188890 1_555
F1 Na5 2.420658 1_455
F1 Na8 2.542520 1_555
F2 Fe7 2.080982 1_555
F2 Na6 2.680242 1_555
F2 Na5 2.924320 1_555
F3 Fe4 2.070188 1_555
F3 Na0 2.622941 1_565
F3 Na15 2.735300 1_555
F4 Fe0 2.061800 1_555
F4 Na6 2.495600 1_455
F4 Na8 2.880159 1_555
F5 Fe3 2.061195 1_555
F5 Na14 2.615291 1_545
F5 Na11 2.762744 1_555
F6 Na4 2.249853 1_555
F6 Na7 2.437057 1_666
F6 Na13 2.470839 1_656
F7 Fe4 2.069965 1_555
F7 Na1 2.657574 1_555
F7 Na13 2.906298 1_655
F8 Fe2 2.061800 1_555
F8 Na8 2.495600 1_565
F8 Na6 2.880159 1_555
F9 Fe1 2.069965 1_555
F9 Na1 2.657574 1_556
F9 Na13 2.906298 1_556
F10 Fe0 2.070997 1_655
F10 Na2 2.620097 1_665
F10 Na9 2.725908 1_665
F11 Fe5 2.063354 1_555
F11 Na12 2.582868 1_555
F11 Na9 2.882322 1_655
F12 Fe7 2.070181 1_555
F12 Na2 2.622941 1_655
F12 Na5 2.735300 1_555
F13 Fe3 2.070181 1_555
F13 Na14 2.622941 1_455
F13 Na15 2.735300 1_555
F14 Fe5 2.083371 1_555
F14 Fe3 2.095551 1_555
F14 Na12 2.693380 1_555
F14 Na14 2.722861 1_545
F15 Fe1 2.061195 1_555
F15 Na4 2.615291 1_455
F15 Na13 2.762744 1_556
F16 Fe0 2.083371 1_555
F16 Fe7 2.095551 1_555
F16 Na12 2.693380 1_555
F16 Na2 2.722861 1_565
F17 Fe6 2.086175 1_565
F17 Fe4 2.090891 1_555
F17 Na3 2.609121 1_555
F17 Na0 2.750706 1_565
F18 Na3 2.313015 1_455
F18 Na10 2.405126 1_555
F18 Na15 2.585796 1_555
F19 Fe0 2.083140 1_555
F19 Na8 2.627405 1_555
F19 Na2 2.627911 1_555
F20 Fe5 2.083140 1_555
F20 Na3 2.627405 1_555
F20 Na14 2.627911 1_555
F21 Na2 2.249853 1_555
F21 Na9 2.437057 1_555
F21 Na11 2.470839 1_555
F22 Na14 2.188890 1_555
F22 Na15 2.420658 1_655
F22 Na3 2.542520 1_555
F23 Na4 2.188890 1_555
F23 Na5 2.420658 1_565
F23 Na6 2.542520 1_555
F24 Fe1 2.080982 1_555
F24 Na8 2.680242 1_555
F24 Na5 2.924320 1_555
F25 Fe2 2.086175 1_545
F25 Fe1 2.090891 1_555
F25 Na8 2.609121 1_555
F25 Na4 2.750706 1_545
F26 Fe0 2.063354 1_555
F26 Na12 2.582868 1_555
F26 Na9 2.882322 1_565
F27 Fe5 2.086175 1_455
F27 Fe3 2.090891 1_555
F27 Na10 2.609121 1_555
F27 Na14 2.750706 1_455
F28 Fe4 2.061195 1_555
F28 Na0 2.615291 1_655
F28 Na13 2.762744 1_655
F29 Fe2 2.070997 1_545
F29 Na4 2.620097 1_445
F29 Na7 2.725908 1_556
F30 Na8 2.313015 1_655
F30 Na6 2.405126 1_555
F30 Na5 2.585796 1_555
F31 Fe6 2.083371 1_555
F31 Fe4 2.095551 1_555
F31 Na1 2.693380 1_555
F31 Na0 2.722861 1_655
F32 Fe3 2.080982 1_555
F32 Na10 2.680242 1_555
F32 Na15 2.924320 1_555
F33 Na10 2.313015 1_565
F33 Na3 2.405126 1_555
F33 Na15 2.585796 1_555
F34 Na1 2.227097 1_555
F34 Na7 2.564272 1_565
F34 Na13 2.572747 1_555
F35 Fe7 2.061195 1_555
F35 Na2 2.615291 1_565
F35 Na11 2.762744 1_565
F36 Fe0 2.086175 1_655
F36 Fe7 2.090891 1_555
F36 Na6 2.609121 1_555
F36 Na2 2.750706 1_655
F37 Fe1 2.070188 1_555
F37 Na4 2.622941 1_545
F37 Na5 2.735300 1_555
F38 Fe7 2.069965 1_555
F38 Na12 2.657574 1_555
F38 Na11 2.906298 1_565
F39 Na6 2.313015 1_545
F39 Na8 2.405126 1_555
F39 Na5 2.585796 1_555
F40 Fe6 2.083140 1_555
F40 Na10 2.627405 1_555
F40 Na0 2.627911 1_555
F41 Fe6 2.061800 1_555
F41 Na3 2.495600 1_545
F41 Na10 2.880159 1_555
F42 Na14 2.249853 1_555
F42 Na9 2.437057 1_665
F42 Na11 2.470839 1_565
F43 Fe6 2.063354 1_555
F43 Na1 2.582868 1_555
F43 Na7 2.882322 1_655
F44 Na0 2.249853 1_555
F44 Na7 2.437057 1_555
F44 Na13 2.470839 1_555
F45 Fe5 2.061800 1_555
F45 Na10 2.495600 1_655
F45 Na3 2.880159 1_555
F46 Fe2 2.083140 1_555
F46 Na6 2.627405 1_555
F46 Na4 2.627911 1_555
F47 Fe2 2.083371 1_555
F47 Fe1 2.095551 1_555
F47 Na1 2.693380 1_556
F47 Na4 2.722861 1_455
F48 Fe2 2.063354 1_555
F48 Na1 2.582868 1_556
F48 Na7 2.882322 1_566
F49 Na12 2.227097 1_555
F49 Na9 2.564272 1_655
F49 Na11 2.572747 1_555
F50 Fe4 2.080982 1_555
F50 Na3 2.680242 1_555
F50 Na15 2.924320 1_555
F51 Na12 2.227097 1_555
F51 Na9 2.564272 1_565
F51 Na11 2.572747 1_565
F52 Fe5 2.070997 1_455
F52 Na14 2.620097 1_445
F52 Na9 2.725908 1_555
F53 Fe6 2.070997 1_565
F53 Na0 2.620097 1_665
F53 Na7 2.725908 1_665
F54 Na1 2.227097 1_556
F54 Na7 2.564272 1_656
F54 Na13 2.572747 1_656
F55 Fe3 2.069965 1_555
F55 Na12 2.657574 1_555
F55 Na11 2.906298 1_555
