# generated using pymatgen
data_Na13Zr7Si5P7O48
_symmetry_space_group_name_H-M   'P 1'
_cell_length_a   9.38585679
_cell_length_b   9.38505374
_cell_length_c   18.74643801
_cell_angle_alpha   59.29168253
_cell_angle_beta   59.26627271
_cell_angle_gamma   59.24136580
_symmetry_Int_Tables_number   1
_chemical_formula_structural   Na13Zr7Si5P7O48
_chemical_formula_sum   'Na13 Zr7 Si5 P7 O48'
_cell_volume   1148.14679867
_cell_formula_units_Z   1
loop_
 _symmetry_equiv_pos_site_id
 _symmetry_equiv_pos_as_xyz
  1  'x, y, z'
loop_
 _atom_site_type_symbol
 _atom_site_label
 _atom_site_symmetry_multiplicity
 _atom_site_fract_x
 _atom_site_fract_y
 _atom_site_fract_z
 _atom_site_occupancy
  Na  Na0  1  0.01799000  0.01449500  0.00986000  1
  Na  Na1  1  0.15160900  0.15128700  0.07578700  1
  Na  Na2  1  0.12729800  0.37715000  0.37122700  1
  Na  Na3  1  0.36693200  0.78671700  0.06938500  1
  Na  Na4  1  0.78957500  0.14342200  0.18162500  1
  Na  Na5  1  0.24973800  0.88205200  0.30225500  1
  Na  Na6  1  0.61770500  0.24744500  0.44061700  1
  Na  Na7  1  0.13705100  0.36512100  0.89883500  1
  Na  Na8  1  0.88389700  0.58865100  0.12543200  1
  Na  Na9  1  0.37139400  0.75284100  0.55788000  1
  Na  Na10  1  0.74875200  0.11104300  0.69407500  1
  Na  Na11  1  0.25297400  0.87223800  0.80934300  1
  Na  Na12  1  0.59642700  0.26034500  0.93631700  1
  Zr  Zr0  1  0.35705200  0.35637800  0.17489200  1
  Zr  Zr1  1  0.14568000  0.14664700  0.57337100  1
  Zr  Zr2  1  0.34849500  0.35612200  0.68100100  1
  Zr  Zr3  1  0.64518300  0.64903100  0.32638100  1
  Zr  Zr4  1  0.85607000  0.85084500  0.42621700  1
  Zr  Zr5  1  0.65701700  0.65303600  0.81575300  1
  Zr  Zr6  1  0.84979400  0.84767200  0.92645900  1
  Si  Si0  1  0.04023500  0.74524000  0.23154700  1
  Si  Si1  1  0.46258300  0.03816700  0.37502400  1
  Si  Si2  1  0.74481700  0.46005900  0.01624300  1
  Si  Si3  1  0.04389800  0.75205300  0.73064600  1
  Si  Si4  1  0.46172400  0.03880800  0.87223000  1
  P  P0  1  0.24942900  0.54164200  0.48080000  1
  P  P1  1  0.55168900  0.95218900  0.12341000  1
  P  P2  1  0.95217600  0.24704800  0.27536200  1
  P  P3  1  0.74615500  0.46234300  0.52147200  1
  P  P4  1  0.24729900  0.55146500  0.97577600  1
  P  P5  1  0.53843100  0.96454200  0.62311100  1
  P  P6  1  0.95902800  0.24688600  0.77154900  1
  O  O0  1  0.12323700  0.26834900  0.25666600  1
  O  O1  1  0.26993600  0.50548600  0.06304100  1
  O  O2  1  0.05916100  0.90722400  0.14195300  1
  O  O3  1  0.50752800  0.12307900  0.13653000  1
  O  O4  1  0.01418100  0.77562300  0.31829900  1
  O  O5  1  0.20839000  0.56148000  0.22352200  1
  O  O6  1  0.28688900  0.08031100  0.46096300  1
  O  O7  1  0.43340600  0.20505100  0.28656900  1
  O  O8  1  0.56249700  0.44679300  0.10251500  1
  O  O9  1  0.22092400  0.37666800  0.49709500  1
  O  O10  1  0.09103700  0.70956800  0.46332100  1
  O  O11  1  0.40190900  0.95454300  0.11255100  1
  O  O12  1  0.63868100  0.00753100  0.38721900  1
  O  O13  1  0.12637500  0.27701700  0.75233300  1
  O  O14  1  0.90642600  0.28068700  0.02958900  1
  O  O15  1  0.77796500  0.63278000  0.00349600  1
  O  O16  1  0.41605400  0.55987200  0.39693700  1
  O  O17  1  0.28368500  0.51341400  0.56028000  1
  O  O18  1  0.58899400  0.78774900  0.20715400  1
  O  O19  1  0.07362000  0.92762200  0.64343500  1
  O  O20  1  0.51044100  0.13266400  0.63330000  1
  O  O21  1  0.72795100  0.93246600  0.04242900  1
  O  O22  1  0.02396100  0.77153300  0.81789700  1
  O  O23  1  0.21844800  0.58140500  0.71093900  1
  O  O24  1  0.78470800  0.40380000  0.30141800  1
  O  O25  1  0.95309100  0.23936800  0.19659700  1
  O  O26  1  0.28295800  0.05925900  0.95356500  1
  O  O27  1  0.48099000  0.85470900  0.37423100  1
  O  O28  1  0.93611900  0.07687700  0.35936700  1
  O  O29  1  0.44365800  0.21564700  0.78165700  1
  O  O30  1  0.72615500  0.47639600  0.44132600  1
  O  O31  1  0.58365200  0.43187900  0.60438900  1
  O  O32  1  0.22263800  0.40100600  0.97909600  1
  O  O33  1  0.08307800  0.72705300  0.96820900  1
  O  O34  1  0.86355700  0.70290400  0.26154600  1
  O  O35  1  0.36983100  0.99915900  0.61047500  1
  O  O36  1  0.63670200  0.01350700  0.88648200  1
  O  O37  1  0.91331100  0.30143600  0.53681700  1
  O  O38  1  0.76320400  0.63309900  0.50443200  1
  O  O39  1  0.41021900  0.58941800  0.89310100  1
  O  O40  1  0.55523100  0.80085500  0.70523700  1
  O  O41  1  0.69969800  0.94064000  0.53965900  1
  O  O42  1  0.78977900  0.40373200  0.78766000  1
  O  O43  1  0.98866600  0.21147900  0.69195000  1
  O  O44  1  0.51121600  0.87394600  0.84613400  1
  O  O45  1  0.94394700  0.08086000  0.85624600  1
  O  O46  1  0.71116400  0.50681500  0.92789300  1
  O  O47  1  0.86622500  0.73825100  0.74399600  1
loop_
_geom_bond_atom_site_label_1
_geom_bond_atom_site_label_2
_geom_bond_distance
_geom_bond_site_symmetry_2
Na0 O2 2.308408 1_545
Na0 O14 2.312254 1_455
Na0 O26 2.325606 1_554
Na0 O33 2.870246 1_544
Na0 O21 2.888060 1_445
Na0 O45 2.989073 1_454
Na1 O32 2.290605 1_554
Na1 O25 2.303861 1_455
Na1 O11 2.306888 1_545
Na1 O26 2.358063 1_554
Na1 O2 2.359902 1_545
Na1 O14 2.371694 1_455
Na2 O5 2.353603 1_555
Na2 O6 2.520986 1_555
Na2 O7 2.567702 1_555
Na2 O37 2.647537 1_455
Na2 O0 2.831878 1_555
Na2 O9 2.905890 1_555
Na3 O11 2.312044 1_555
Na3 O2 2.384836 1_555
Na3 O26 2.427511 1_564
Na3 O8 2.661654 1_555
Na3 O5 2.759764 1_555
Na4 O25 2.314511 1_555
Na4 O14 2.342196 1_555
Na4 O2 2.427480 1_645
Na4 O8 2.749459 1_555
Na4 O7 2.800479 1_555
Na5 O28 2.535201 1_465
Na5 O10 2.614074 1_555
Na5 O18 2.650960 1_555
Na5 O4 2.692312 1_555
Na5 O16 2.693061 1_555
Na5 O11 2.912243 1_555
Na5 O27 2.944065 1_555
Na5 O0 2.958640 1_565
Na6 O24 2.383433 1_555
Na6 O41 2.462541 1_545
Na6 O16 2.511108 1_555
Na6 O28 2.599688 1_555
Na6 O12 2.785261 1_555
Na6 O30 2.816631 1_555
Na6 O20 2.939335 1_555
Na6 O9 3.020359 1_555
Na7 O32 2.247710 1_555
Na7 O26 2.361202 1_555
Na7 O14 2.381030 1_456
Na7 O29 2.762550 1_555
Na7 O23 2.940128 1_555
Na8 O18 2.607536 1_555
Na8 O33 2.609795 1_654
Na8 O25 2.681163 1_555
Na8 O15 2.705579 1_555
Na8 O21 2.710052 1_555
Na8 O24 2.725381 1_555
Na8 O1 2.968799 1_655
Na9 O23 2.513915 1_555
Na9 O19 2.547632 1_555
Na9 O6 2.579153 1_565
Na9 O31 2.599539 1_555
Na9 O17 2.734932 1_555
Na9 O27 2.801670 1_555
Na9 O35 2.931684 1_555
Na9 O38 2.991225 1_555
Na10 O29 2.413463 1_555
Na10 O19 2.550203 1_645
Na10 O31 2.648470 1_555
Na10 O37 2.656718 1_555
Na10 O43 2.828722 1_555
Na10 O47 2.845537 1_545
Na10 O20 2.871690 1_555
Na10 O36 2.947768 1_555
Na11 O39 2.407064 1_555
Na11 O40 2.457285 1_555
Na11 O45 2.522367 1_465
Na11 O33 2.548096 1_555
Na11 O22 2.666475 1_555
Na11 O44 2.847901 1_555
Na12 O42 2.523705 1_555
Na12 O39 2.572888 1_555
Na12 O21 2.706019 1_546
Na12 O36 2.708503 1_555
Na12 O45 2.772728 1_555
Na12 O32 2.857022 1_555
Na12 O46 2.921691 1_555
O0 P2 1.556339 1_455
O0 Zr0 2.229584 1_555
O1 P4 1.564622 1_554
O1 Zr0 2.146765 1_555
O2 Si0 1.589675 1_555
O3 P1 1.556676 1_545
O3 Zr0 2.170935 1_555
O4 Si0 1.667859 1_555
O4 Zr4 2.027807 1_455
O5 Si0 1.651077 1_555
O5 Zr0 2.056241 1_555
O6 Si1 1.655152 1_555
O6 Zr1 2.055725 1_555
O7 Si1 1.628067 1_555
O7 Zr0 2.090275 1_555
O8 Si2 1.656198 1_555
O8 Zr0 2.025546 1_555
O9 P0 1.555380 1_555
O9 Zr1 2.139674 1_555
O10 P0 1.541181 1_555
O10 Zr4 2.177274 1_455
O11 P1 1.508105 1_555
O12 Si1 1.643100 1_555
O12 Zr4 2.053710 1_545
O13 P6 1.564854 1_455
O13 Zr2 2.098906 1_555
O14 Si2 1.594742 1_555
O15 Si2 1.681002 1_555
O15 Zr6 2.007086 1_554
O16 P0 1.559700 1_555
O16 Zr3 2.208503 1_555
O17 P0 1.546911 1_555
O17 Zr2 2.178826 1_555
O18 P1 1.582256 1_555
O18 Zr3 2.121141 1_555
O19 Si3 1.648748 1_555
O19 Zr1 2.040710 1_565
O20 P5 1.558075 1_545
O20 Zr2 2.184883 1_555
O21 P1 1.575632 1_555
O21 Zr6 2.227660 1_554
O22 Si3 1.643581 1_555
O22 Zr6 2.053000 1_455
O23 Si3 1.639319 1_555
O23 Zr2 2.036458 1_555
O24 P2 1.567623 1_555
O24 Zr3 2.149812 1_555
O25 P2 1.510169 1_555
O26 Si4 1.591091 1_555
O27 Si1 1.647361 1_565
O27 Zr3 2.053887 1_555
O28 P2 1.577405 1_555
O28 Zr4 2.141892 1_545
O29 Si4 1.671665 1_555
O29 Zr2 2.018378 1_555
O30 P3 1.539661 1_555
O30 Zr3 2.166676 1_555
O31 P3 1.546984 1_555
O31 Zr2 2.182182 1_555
O32 P4 1.510366 1_555
O33 P4 1.580564 1_555
O33 Zr6 2.235993 1_455
O34 Si0 1.648193 1_655
O34 Zr3 1.954477 1_555
O35 P5 1.563491 1_555
O35 Zr1 2.087987 1_565
O36 Si4 1.676241 1_555
O36 Zr6 2.034931 1_545
O37 P3 1.555290 1_555
O37 Zr1 2.146335 1_655
O38 P3 1.543710 1_555
O38 Zr4 2.130987 1_555
O39 P4 1.561466 1_555
O39 Zr5 2.218590 1_555
O40 P5 1.529666 1_555
O40 Zr5 2.204869 1_555
O41 P5 1.542615 1_555
O41 Zr4 2.182192 1_555
O42 P6 1.534086 1_555
O42 Zr5 2.215867 1_555
O43 P6 1.549862 1_555
O43 Zr1 2.144611 1_655
O44 Si4 1.629326 1_565
O44 Zr5 2.000706 1_555
O45 P6 1.561413 1_555
O45 Zr6 2.269391 1_545
O46 Si2 1.638943 1_556
O46 Zr5 1.998260 1_555
O47 Si3 1.619140 1_655
O47 Zr5 2.027943 1_555
