# generated using pymatgen
data_Sr(H8O5)2
_symmetry_space_group_name_H-M   'P 1'
_cell_length_a   6.32329800
_cell_length_b   6.45624768
_cell_length_c   11.40508132
_cell_angle_alpha   88.70972004
_cell_angle_beta   87.52532153
_cell_angle_gamma   87.80141389
_symmetry_Int_Tables_number   1
_chemical_formula_structural   Sr(H8O5)2
_chemical_formula_sum   'Sr2 H32 O20'
_cell_volume   464.73175793
_cell_formula_units_Z   2
loop_
 _symmetry_equiv_pos_site_id
 _symmetry_equiv_pos_as_xyz
  1  'x, y, z'
loop_
 _atom_site_type_symbol
 _atom_site_label
 _atom_site_symmetry_multiplicity
 _atom_site_fract_x
 _atom_site_fract_y
 _atom_site_fract_z
 _atom_site_occupancy
  Sr  Sr0  1  0.00031800  0.99412700  0.75867800  1
  Sr  Sr1  1  0.98352500  0.00405800  0.23819300  1
  H  H0  1  0.99495700  0.34748300  0.61769700  1
  H  H1  1  0.73257000  0.39086100  0.64852300  1
  H  H2  1  0.03054800  0.60150500  0.64237500  1
  H  H3  1  0.28741500  0.59562000  0.64876100  1
  H  H4  1  0.40704600  0.19732900  0.64966800  1
  H  H5  1  0.31137600  0.13369900  0.52957500  1
  H  H6  1  0.63023000  0.72247300  0.65618100  1
  H  H7  1  0.70521800  0.87717500  0.55290100  1
  H  H8  1  0.26763600  0.38549600  0.14331100  1
  H  H9  1  0.14274800  0.31798600  0.03037500  1
  H  H10  1  0.96319800  0.54561800  0.12999500  1
  H  H11  1  0.72218100  0.60846700  0.15139200  1
  H  H12  1  0.59593400  0.26293300  0.14463400  1
  H  H13  1  0.67583800  0.13565200  0.03058600  1
  H  H14  1  0.38507700  0.72067700  0.14917700  1
  H  H15  1  0.45358800  0.95504800  0.12902600  1
  H  H16  1  0.26951900  0.62317200  0.35499700  1
  H  H17  1  0.13269800  0.71400800  0.46147400  1
  H  H18  1  0.72429700  0.37233600  0.35271500  1
  H  H19  1  0.86437400  0.29704200  0.45601700  1
  H  H20  1  0.64309100  0.73108400  0.37145800  1
  H  H21  1  0.56435600  0.96985300  0.38680400  1
  H  H22  1  0.40916400  0.30198400  0.33444700  1
  H  H23  1  0.28821400  0.97524300  0.38459200  1
  H  H24  1  0.72090000  0.60619500  0.85567800  1
  H  H25  1  0.85109000  0.68089100  0.96645700  1
  H  H26  1  0.03427500  0.45508600  0.87388300  1
  H  H27  1  0.27881800  0.39196100  0.85232500  1
  H  H28  1  0.39959800  0.72595000  0.85346300  1
  H  H29  1  0.31771800  0.85855600  0.96463500  1
  H  H30  1  0.54673500  0.04337100  0.87234000  1
  H  H31  1  0.60624900  0.28344000  0.85722800  1
  O  O0  1  0.52298400  0.50746700  0.68759200  1
  O  O1  1  0.48337300  0.47979600  0.18720400  1
  O  O2  1  0.46639600  0.45291400  0.31670200  1
  O  O3  1  0.51007800  0.50468200  0.81890800  1
  O  O4  1  0.85385200  0.29138500  0.61580400  1
  O  O5  1  0.15576100  0.68025600  0.62279400  1
  O  O6  1  0.27451800  0.15699400  0.61704900  1
  O  O7  1  0.71159700  0.85400500  0.63824700  1
  O  O8  1  0.12903600  0.32903500  0.11791600  1
  O  O9  1  0.86084000  0.66775300  0.12425600  1
  O  O10  1  0.66248900  0.12447600  0.11877100  1
  O  O11  1  0.33175800  0.86200300  0.12162100  1
  O  O12  1  0.16142900  0.73475500  0.37634200  1
  O  O13  1  0.86605100  0.31060900  0.36912400  1
  O  O14  1  0.69946400  0.86704800  0.38406100  1
  O  O15  1  0.37110400  0.10096100  0.39430200  1
  O  O16  1  0.86096200  0.66725900  0.87960800  1
  O  O17  1  0.13643000  0.33270600  0.87666900  1
  O  O18  1  0.33246500  0.86638300  0.87743300  1
  O  O19  1  0.66396100  0.13920900  0.88337800  1
loop_
_geom_bond_atom_site_label_1
_geom_bond_atom_site_label_2
_geom_bond_distance
_geom_bond_site_symmetry_2
H0 O4 0.977016 1_555
H1 O4 1.043146 1_555
H1 O0 1.552168 1_555
H2 O5 0.972505 1_555
H3 O5 1.028801 1_555
H3 O0 1.649075 1_555
H4 O6 0.978014 1_555
H5 O6 1.027730 1_555
H5 O15 1.589273 1_555
H6 O7 1.021917 1_555
H6 O0 1.594988 1_555
H7 O7 0.983788 1_555
H8 O8 1.017863 1_555
H8 O1 1.618225 1_555
H9 O8 1.002343 1_555
H10 O9 1.003576 1_555
H11 O9 1.004002 1_555
H11 O1 1.779019 1_555
H12 O10 1.017590 1_555
H12 O1 1.620794 1_555
H13 O10 1.006850 1_555
H14 O11 1.008768 1_555
H14 O1 1.706391 1_555
H15 O11 1.002435 1_555
H16 O12 1.000576 1_555
H17 O12 0.987140 1_555
H18 O13 0.990461 1_555
H19 O13 0.992554 1_555
H20 O14 0.975913 1_555
H21 O14 1.061376 1_555
H21 O15 1.460119 1_565
H22 O2 1.064572 1_555
H22 O15 1.475885 1_555
H23 O15 0.993725 1_565
H23 Sr1 2.602063 1_465
H24 O16 1.032864 1_555
H24 O3 1.584370 1_555
H25 O16 0.995458 1_555
H26 O17 1.002015 1_555
H27 O17 1.016932 1_555
H27 O3 1.683542 1_555
H28 O18 1.024012 1_555
H28 O3 1.615286 1_555
H29 O18 0.995219 1_555
H30 O19 0.997457 1_555
H31 O19 1.029591 1_555
H31 O3 1.590381 1_555
O0 O3 1.496109 1_555
O1 O2 1.482962 1_555
O4 Sr0 2.655055 1_645
O5 Sr0 2.707652 1_555
O6 Sr0 2.557851 1_545
O7 Sr0 2.537180 1_655
O8 Sr1 2.653303 1_455
O9 Sr1 2.710754 1_565
O10 Sr1 2.578843 1_555
O11 Sr1 2.665451 1_465
O12 Sr1 2.578887 1_465
O13 Sr1 2.573575 1_555
O14 Sr1 2.563996 1_565
O16 Sr0 2.653096 1_655
O17 Sr0 2.776129 1_545
O18 Sr0 2.643517 1_555
O19 Sr0 2.658879 1_645
