# generated using pymatgen
data_Sr15Fe10(Bi5O23)2
_symmetry_space_group_name_H-M   'P 1'
_cell_length_a   21.40565710
_cell_length_b   21.40565710
_cell_length_c   5.54635900
_cell_angle_alpha   90.00000000
_cell_angle_beta   90.00000000
_cell_angle_gamma   100.09453379
_symmetry_Int_Tables_number   1
_chemical_formula_structural   Sr15Fe10(Bi5O23)2
_chemical_formula_sum   'Sr30 Fe20 Bi20 O92'
_cell_volume   2502.01325863
_cell_formula_units_Z   2
loop_
 _symmetry_equiv_pos_site_id
 _symmetry_equiv_pos_as_xyz
  1  'x, y, z'
loop_
 _atom_site_type_symbol
 _atom_site_label
 _atom_site_symmetry_multiplicity
 _atom_site_fract_x
 _atom_site_fract_y
 _atom_site_fract_z
 _atom_site_occupancy
  Sr  Sr0  1  0.68846300  0.21021000  0.25308700  1
  Sr  Sr1  1  0.50000000  0.00000000  0.25510800  1
  Sr  Sr2  1  0.18717600  0.90785100  0.25656700  1
  Sr  Sr3  1  0.78979000  0.31153700  0.74691300  1
  Sr  Sr4  1  0.21021000  0.68846300  0.74691300  1
  Sr  Sr5  1  0.00531000  0.28060900  0.24964900  1
  Sr  Sr6  1  0.09214900  0.81282400  0.74343300  1
  Sr  Sr7  1  0.71939100  0.99469000  0.75035100  1
  Sr  Sr8  1  0.53017400  0.78704600  0.74632400  1
  Sr  Sr9  1  0.99469000  0.71939100  0.24964900  1
  Sr  Sr10  1  0.31153700  0.78979000  0.25308700  1
  Sr  Sr11  1  0.67789500  0.43111800  0.75112100  1
  Sr  Sr12  1  0.90785100  0.18717600  0.74343300  1
  Sr  Sr13  1  0.40717400  0.89417400  0.75134700  1
  Sr  Sr14  1  0.00000000  0.50000000  0.74489200  1
  Sr  Sr15  1  0.21295400  0.46982600  0.25367600  1
  Sr  Sr16  1  0.81282400  0.09214900  0.25656700  1
  Sr  Sr17  1  0.89322900  0.62577500  0.74220700  1
  Sr  Sr18  1  0.32210500  0.56888200  0.75112100  1
  Sr  Sr19  1  0.89417400  0.40717400  0.24865300  1
  Sr  Sr20  1  0.78704600  0.53017400  0.25367600  1
  Sr  Sr21  1  0.10677100  0.37422500  0.74220700  1
  Sr  Sr22  1  0.56888200  0.32210500  0.24887900  1
  Sr  Sr23  1  0.59282600  0.10582600  0.75134700  1
  Sr  Sr24  1  0.43111800  0.67789500  0.24887900  1
  Sr  Sr25  1  0.37422500  0.10677100  0.25779300  1
  Sr  Sr26  1  0.10582600  0.59282600  0.24865300  1
  Sr  Sr27  1  0.62577500  0.89322900  0.25779300  1
  Sr  Sr28  1  0.46982600  0.21295400  0.74632400  1
  Sr  Sr29  1  0.28060900  0.00531000  0.75035100  1
  Fe  Fe0  1  0.84751600  0.24989600  0.24638300  1
  Fe  Fe1  1  0.94454500  0.56322200  0.24466000  1
  Fe  Fe2  1  0.05056600  0.65560400  0.74784700  1
  Fe  Fe3  1  0.15248400  0.75010400  0.24638300  1
  Fe  Fe4  1  0.24989600  0.84751600  0.75361700  1
  Fe  Fe5  1  0.65560400  0.05056600  0.25215300  1
  Fe  Fe6  1  0.73025800  0.37232400  0.24949600  1
  Fe  Fe7  1  0.16323700  0.53007300  0.74936300  1
  Fe  Fe8  1  0.26974200  0.62767600  0.24949600  1
  Fe  Fe9  1  0.37232400  0.73025800  0.75050400  1
  Fe  Fe10  1  0.46992700  0.83676300  0.25063700  1
  Fe  Fe11  1  0.43677800  0.05545500  0.75534000  1
  Fe  Fe12  1  0.62767600  0.26974200  0.75050400  1
  Fe  Fe13  1  0.83676300  0.46992700  0.74936300  1
  Fe  Fe14  1  0.56322200  0.94454500  0.75534000  1
  Fe  Fe15  1  0.05545500  0.43677800  0.24466000  1
  Fe  Fe16  1  0.34439600  0.94943400  0.25215300  1
  Fe  Fe17  1  0.53007300  0.16323700  0.25063700  1
  Fe  Fe18  1  0.75010400  0.15248400  0.75361700  1
  Fe  Fe19  1  0.94943400  0.34439600  0.74784700  1
  Bi  Bi0  1  0.80877300  0.91281200  0.22963000  1
  Bi  Bi1  1  0.71648000  0.62405900  0.77427700  1
  Bi  Bi2  1  0.28279600  0.18313800  0.78080900  1
  Bi  Bi3  1  0.39689100  0.48147500  0.21204800  1
  Bi  Bi4  1  0.48147500  0.39689100  0.78795200  1
  Bi  Bi5  1  0.08718800  0.19122700  0.77037000  1
  Bi  Bi6  1  0.00750800  0.89996300  0.22016500  1
  Bi  Bi7  1  0.18313800  0.28279600  0.21919100  1
  Bi  Bi8  1  0.81686200  0.71720400  0.21919100  1
  Bi  Bi9  1  0.99249200  0.10003700  0.22016500  1
  Bi  Bi10  1  0.89996300  0.00750800  0.77983500  1
  Bi  Bi11  1  0.19122700  0.08718800  0.22963000  1
  Bi  Bi12  1  0.51852500  0.60310900  0.78795200  1
  Bi  Bi13  1  0.91281200  0.80877300  0.77037000  1
  Bi  Bi14  1  0.37594100  0.28352000  0.22572300  1
  Bi  Bi15  1  0.10003700  0.99249200  0.77983500  1
  Bi  Bi16  1  0.60310900  0.51852500  0.21204800  1
  Bi  Bi17  1  0.71720400  0.81686200  0.78080900  1
  Bi  Bi18  1  0.62405900  0.71648000  0.22572300  1
  Bi  Bi19  1  0.28352000  0.37594100  0.77427700  1
  O  O0  1  0.92184000  0.81357900  0.15456500  1
  O  O1  1  0.81357900  0.92184000  0.84543500  1
  O  O2  1  0.88462900  0.52318000  0.99889400  1
  O  O3  1  0.83590500  0.06976400  0.73337400  1
  O  O4  1  0.27253500  0.17098800  0.16556400  1
  O  O5  1  0.93023600  0.16409500  0.26662600  1
  O  O6  1  0.90073700  0.01287400  0.16592300  1
  O  O7  1  0.50000000  0.00000000  0.76212000  1
  O  O8  1  0.54938900  0.63968900  0.13552000  1
  O  O9  1  0.78799200  0.30941400  0.23605600  1
  O  O10  1  0.52318000  0.88462900  0.00110600  1
  O  O11  1  0.87703900  0.65097900  0.25741400  1
  O  O12  1  0.00958300  0.38287500  0.99343900  1
  O  O13  1  0.33083400  0.66916600  0.00000000  1
  O  O14  1  0.01287400  0.90073700  0.83407700  1
  O  O15  1  0.74376300  0.97401200  0.27436000  1
  O  O16  1  0.82901200  0.72746500  0.83443600  1
  O  O17  1  0.98712600  0.09926300  0.83407700  1
  O  O18  1  0.17098800  0.27253500  0.83443600  1
  O  O19  1  0.99041700  0.61712500  0.99343900  1
  O  O20  1  0.19164800  0.80835200  0.00000000  1
  O  O21  1  0.11376700  0.47896000  0.49323600  1
  O  O22  1  0.66888200  0.46183100  0.29938500  1
  O  O23  1  0.67224700  0.32775300  0.50000000  1
  O  O24  1  0.52104000  0.88623300  0.50676400  1
  O  O25  1  0.29080800  0.90493900  0.50554800  1
  O  O26  1  0.30941400  0.78799200  0.76394400  1
  O  O27  1  0.00782400  0.38482200  0.49809100  1
  O  O28  1  0.90662300  0.28849800  0.99749800  1
  O  O29  1  0.55800500  0.44199500  0.00000000  1
  O  O30  1  0.66916600  0.33083400  0.00000000  1
  O  O31  1  0.22052100  0.57503700  0.50298500  1
  O  O32  1  0.59429800  0.10739100  0.24255400  1
  O  O33  1  0.47896000  0.11376700  0.50676400  1
  O  O34  1  0.53816900  0.33111800  0.70061500  1
  O  O35  1  0.09337700  0.71150200  0.99749800  1
  O  O36  1  0.46183100  0.66888200  0.70061500  1
  O  O37  1  0.77947900  0.42496300  0.50298500  1
  O  O38  1  0.80835200  0.19164800  0.00000000  1
  O  O39  1  0.77657300  0.55790800  0.72899800  1
  O  O40  1  0.77599700  0.42897700  0.99836500  1
  O  O41  1  0.40570200  0.89260900  0.24255400  1
  O  O42  1  0.07816000  0.18642100  0.15456500  1
  O  O43  1  0.09926300  0.98712600  0.16592300  1
  O  O44  1  0.34902100  0.12296100  0.74258600  1
  O  O45  1  0.44199500  0.55800500  0.00000000  1
  O  O46  1  0.90493900  0.29080800  0.49445200  1
  O  O47  1  0.57503700  0.22052100  0.49701500  1
  O  O48  1  0.22342700  0.44209200  0.72899800  1
  O  O49  1  0.71150200  0.09337700  0.00250200  1
  O  O50  1  0.55790800  0.77657300  0.27100200  1
  O  O51  1  0.11537100  0.47682000  0.99889400  1
  O  O52  1  0.69058600  0.21200800  0.76394400  1
  O  O53  1  0.26511300  0.36027400  0.15313200  1
  O  O54  1  0.61517800  0.99217600  0.50190900  1
  O  O55  1  0.65097900  0.87703900  0.74258600  1
  O  O56  1  0.80537800  0.19462200  0.50000000  1
  O  O57  1  0.00000000  0.50000000  0.23788000  1
  O  O58  1  0.22400300  0.57102300  0.99836500  1
  O  O59  1  0.38287500  0.00958300  0.00656100  1
  O  O60  1  0.06976400  0.83590500  0.26662600  1
  O  O61  1  0.63968900  0.54938900  0.86448000  1
  O  O62  1  0.25623700  0.02598800  0.27436000  1
  O  O63  1  0.19462200  0.80537800  0.50000000  1
  O  O64  1  0.42496300  0.77947900  0.49701500  1
  O  O65  1  0.47682000  0.11537100  0.00110600  1
  O  O66  1  0.73488700  0.63972600  0.15313200  1
  O  O67  1  0.61712500  0.99041700  0.00656100  1
  O  O68  1  0.28849800  0.90662300  0.00250200  1
  O  O69  1  0.57102300  0.22400300  0.00163500  1
  O  O70  1  0.02598800  0.25623700  0.72564000  1
  O  O71  1  0.42897700  0.77599700  0.00163500  1
  O  O72  1  0.89260900  0.40570200  0.75744600  1
  O  O73  1  0.12296100  0.34902100  0.25741400  1
  O  O74  1  0.44209200  0.22342700  0.27100200  1
  O  O75  1  0.72746500  0.82901200  0.16556400  1
  O  O76  1  0.09506100  0.70919200  0.49445200  1
  O  O77  1  0.70919200  0.09506100  0.50554800  1
  O  O78  1  0.36031100  0.45061100  0.86448000  1
  O  O79  1  0.32775300  0.67224700  0.50000000  1
  O  O80  1  0.45061100  0.36031100  0.13552000  1
  O  O81  1  0.97401200  0.74376300  0.72564000  1
  O  O82  1  0.10739100  0.59429800  0.75744600  1
  O  O83  1  0.33111800  0.53816900  0.29938500  1
  O  O84  1  0.99217600  0.61517800  0.49809100  1
  O  O85  1  0.16409500  0.93023600  0.73337400  1
  O  O86  1  0.18642100  0.07816000  0.84543500  1
  O  O87  1  0.38482200  0.00782400  0.50190900  1
  O  O88  1  0.21200800  0.69058600  0.23605600  1
  O  O89  1  0.63972600  0.73488700  0.84686800  1
  O  O90  1  0.36027400  0.26511300  0.84686800  1
  O  O91  1  0.88623300  0.52104000  0.49323600  1
loop_
_geom_bond_atom_site_label_1
_geom_bond_atom_site_label_2
_geom_bond_distance
_geom_bond_site_symmetry_2
Fe0 O38 1.938657 1_555
Fe0 O46 1.947694 1_555
Fe0 O56 1.953984 1_555
Fe0 O9 1.954203 1_555
Fe0 O28 1.955148 1_554
Fe0 O5 2.767869 1_555
Fe1 O57 1.950661 1_655
Fe1 O19 1.959538 1_554
Fe1 O2 1.962723 1_554
Fe1 O84 1.963336 1_555
Fe1 O91 1.969522 1_555
Fe1 O11 2.563853 1_555
Fe2 O82 1.940124 1_555
Fe2 O35 1.950480 1_555
Fe2 O76 1.953248 1_555
Fe2 O19 1.954440 1_455
Fe2 O84 1.962333 1_455
Fe2 O81 2.710284 1_455
Fe3 O20 1.938657 1_555
Fe3 O76 1.947694 1_555
Fe3 O63 1.953984 1_555
Fe3 O88 1.954203 1_555
Fe3 O35 1.955148 1_554
Fe3 O60 2.767869 1_555
Fe4 O20 1.938657 1_556
Fe4 O25 1.947694 1_555
Fe4 O63 1.953984 1_555
Fe4 O26 1.954203 1_555
Fe4 O68 1.955148 1_556
Fe4 O85 2.767869 1_555
Fe5 O32 1.940124 1_555
Fe5 O49 1.950480 1_555
Fe5 O77 1.953248 1_555
Fe5 O67 1.954440 1_545
Fe5 O54 1.962333 1_545
Fe5 O15 2.710284 1_545
Fe6 O9 1.982331 1_555
Fe6 O37 1.984998 1_555
Fe6 O40 1.988233 1_554
Fe6 O23 1.991813 1_555
Fe6 O30 2.001658 1_555
Fe6 O22 2.521089 1_555
Fe7 O51 1.963471 1_555
Fe7 O31 1.970674 1_555
Fe7 O82 1.974121 1_555
Fe7 O21 1.982500 1_555
Fe7 O58 1.991960 1_555
Fe7 O48 2.463760 1_555
Fe8 O88 1.982331 1_555
Fe8 O31 1.984998 1_555
Fe8 O58 1.988233 1_554
Fe8 O79 1.991813 1_555
Fe8 O13 2.001658 1_555
Fe8 O83 2.521089 1_555
Fe9 O26 1.982331 1_555
Fe9 O64 1.984998 1_555
Fe9 O71 1.988233 1_556
Fe9 O79 1.991813 1_555
Fe9 O13 2.001658 1_556
Fe9 O36 2.521089 1_555
Fe10 O10 1.963471 1_555
Fe10 O64 1.970674 1_555
Fe10 O41 1.974121 1_555
Fe10 O24 1.982500 1_555
Fe10 O71 1.991960 1_555
Fe10 O50 2.463760 1_555
Fe11 O7 1.950661 1_555
Fe11 O59 1.959538 1_556
Fe11 O65 1.962723 1_556
Fe11 O87 1.963336 1_555
Fe11 O33 1.969522 1_555
Fe11 O44 2.563853 1_555
Fe12 O52 1.982331 1_555
Fe12 O47 1.984998 1_555
Fe12 O69 1.988233 1_556
Fe12 O23 1.991813 1_555
Fe12 O30 2.001658 1_556
Fe12 O34 2.521089 1_555
Fe13 O2 1.963471 1_555
Fe13 O37 1.970674 1_555
Fe13 O72 1.974121 1_555
Fe13 O91 1.982500 1_555
Fe13 O40 1.991960 1_555
Fe13 O39 2.463760 1_555
Fe14 O7 1.950661 1_565
Fe14 O67 1.959538 1_556
Fe14 O10 1.962723 1_556
Fe14 O54 1.963336 1_555
Fe14 O24 1.969522 1_555
Fe14 O55 2.563853 1_555
Fe15 O57 1.950661 1_555
Fe15 O12 1.959538 1_554
Fe15 O51 1.962723 1_554
Fe15 O27 1.963336 1_555
Fe15 O21 1.969522 1_555
Fe15 O73 2.563853 1_555
Fe16 O41 1.940124 1_555
Fe16 O68 1.950480 1_555
Fe16 O25 1.953248 1_555
Fe16 O59 1.954440 1_565
Fe16 O87 1.962333 1_565
Fe16 O62 2.710284 1_565
Fe17 O65 1.963471 1_555
Fe17 O47 1.970674 1_555
Fe17 O32 1.974121 1_555
Fe17 O33 1.982500 1_555
Fe17 O69 1.991960 1_555
Fe17 O74 2.463760 1_555
Fe18 O38 1.938657 1_556
Fe18 O77 1.947694 1_555
Fe18 O56 1.953984 1_555
Fe18 O52 1.954203 1_555
Fe18 O49 1.955148 1_556
Fe18 O3 2.767869 1_555
Fe19 O72 1.940124 1_555
Fe19 O28 1.950480 1_555
Fe19 O46 1.953248 1_555
Fe19 O12 1.954440 1_655
Fe19 O27 1.962333 1_655
Fe19 O70 2.710284 1_655
Bi0 O15 2.086448 1_555
Bi0 O1 2.140473 1_554
Bi0 O75 2.297547 1_555
Bi0 O6 2.666401 1_565
Bi1 O39 2.088369 1_555
Bi1 O61 2.141497 1_555
Bi1 O66 2.153303 1_556
Bi2 O44 2.086597 1_555
Bi2 O4 2.156333 1_556
Bi2 O90 2.223439 1_555
Bi2 O86 2.794431 1_555
Bi3 O83 2.070886 1_555
Bi3 O45 2.108207 1_555
Bi3 O78 2.141127 1_554
Bi4 O34 2.070886 1_555
Bi4 O29 2.108207 1_556
Bi4 O80 2.141127 1_556
Bi5 O70 2.086448 1_555
Bi5 O42 2.140473 1_556
Bi5 O18 2.297547 1_555
Bi5 O17 2.666401 1_455
Bi6 O60 2.088794 1_555
Bi6 O14 2.144369 1_554
Bi6 O0 2.392838 1_455
Bi6 O43 2.478842 1_555
Bi7 O73 2.086597 1_555
Bi7 O18 2.156333 1_554
Bi7 O53 2.223439 1_555
Bi7 O42 2.794431 1_555
Bi8 O11 2.086597 1_555
Bi8 O16 2.156333 1_554
Bi8 O66 2.223439 1_555
Bi8 O0 2.794431 1_555
Bi9 O5 2.088794 1_555
Bi9 O17 2.144369 1_554
Bi9 O42 2.392838 1_655
Bi9 O6 2.478842 1_555
Bi10 O3 2.088794 1_555
Bi10 O6 2.144369 1_556
Bi10 O1 2.392838 1_545
Bi10 O17 2.478842 1_555
Bi11 O62 2.086448 1_555
Bi11 O86 2.140473 1_554
Bi11 O4 2.297547 1_555
Bi11 O43 2.666401 1_545
Bi12 O36 2.070886 1_555
Bi12 O45 2.108207 1_556
Bi12 O8 2.141127 1_556
Bi13 O81 2.086448 1_555
Bi13 O0 2.140473 1_556
Bi13 O16 2.297547 1_555
Bi13 O14 2.666401 1_655
Bi14 O74 2.088369 1_555
Bi14 O80 2.141497 1_555
Bi14 O90 2.153303 1_554
Bi15 O85 2.088794 1_555
Bi15 O43 2.144369 1_556
Bi15 O86 2.392838 1_565
Bi15 O14 2.478842 1_555
Bi16 O22 2.070886 1_555
Bi16 O29 2.108207 1_555
Bi16 O61 2.141127 1_554
Bi17 O55 2.086597 1_555
Bi17 O75 2.156333 1_556
Bi17 O89 2.223439 1_555
Bi17 O1 2.794431 1_555
Bi18 O50 2.088369 1_555
Bi18 O8 2.141497 1_555
Bi18 O89 2.153303 1_554
Bi19 O48 2.088369 1_555
Bi19 O78 2.141497 1_555
Bi19 O53 2.153303 1_556
O0 Sr9 2.806573 1_555
O1 Sr7 2.806573 1_555
O2 Sr20 2.547965 1_556
O2 Sr17 2.596525 1_555
O2 Sr19 2.881793 1_556
O2 Sr14 2.959613 1_655
O3 Sr12 2.708253 1_555
O3 Sr7 2.721524 1_545
O3 Sr16 2.747780 1_555
O3 Sr16 2.996202 1_556
O4 Sr25 2.817500 1_555
O5 Sr16 2.708253 1_555
O5 Sr5 2.721524 1_655
O5 Sr12 2.747780 1_555
O5 Sr12 2.996202 1_554
O6 Sr16 2.791604 1_555
O7 Sr1 2.734288 1_556
O7 Sr23 2.739594 1_555
O7 Sr13 2.739594 1_545
O7 Sr1 2.812071 1_555
O8 Sr24 2.863437 1_555
O9 Sr3 2.713503 1_554
O9 Sr0 2.733374 1_555
O9 Sr19 2.807611 1_555
O9 Sr3 2.833914 1_555
O10 Sr8 2.547965 1_554
O10 Sr27 2.596525 1_555
O10 Sr13 2.881793 1_554
O10 Sr1 2.959613 1_565
O11 Sr9 2.682510 1_555
O11 Sr17 2.776068 1_555
O11 Sr17 2.939753 1_554
O11 Sr20 2.941431 1_555
O12 Sr21 2.537497 1_555
O12 Sr5 2.597988 1_556
O12 Sr14 2.899732 1_555
O12 Sr19 2.971118 1_456
O13 Sr24 2.531367 1_555
O13 Sr18 2.531367 1_554
O13 Sr10 3.030150 1_555
O13 Sr4 3.030150 1_554
O14 Sr6 2.791604 1_555
O15 Sr16 2.698051 1_565
O15 Sr7 2.742029 1_555
O15 Sr27 2.801140 1_555
O15 Sr7 2.999310 1_554
O16 Sr17 2.817500 1_555
O17 Sr12 2.791604 1_555
O18 Sr21 2.817500 1_555
O19 Sr17 2.537497 1_555
O19 Sr9 2.597988 1_556
O19 Sr14 2.899732 1_655
O19 Sr26 2.971118 1_656
O20 Sr2 2.577173 1_555
O20 Sr6 2.577173 1_554
O20 Sr4 3.011915 1_554
O20 Sr10 3.011915 1_555
O21 Sr15 2.541057 1_555
O21 Sr21 2.614916 1_555
O21 Sr26 2.820487 1_555
O21 Sr14 2.909635 1_555
O22 Sr11 2.606028 1_555
O22 Sr20 2.702787 1_555
O22 Sr11 3.124225 1_554
O23 Sr11 2.599296 1_555
O23 Sr22 2.599296 1_555
O23 Sr3 2.938158 1_555
O23 Sr0 2.938158 1_555
O24 Sr8 2.541057 1_555
O24 Sr27 2.614916 1_555
O24 Sr13 2.820487 1_555
O24 Sr1 2.909635 1_565
O25 Sr29 2.582963 1_565
O25 Sr2 2.623023 1_555
O25 Sr13 2.883990 1_555
O25 Sr10 2.935367 1_555
O26 Sr10 2.713503 1_556
O26 Sr4 2.733374 1_555
O26 Sr13 2.807611 1_555
O26 Sr10 2.833914 1_555
O27 Sr21 2.557166 1_555
O27 Sr5 2.614535 1_555
O27 Sr14 2.850444 1_555
O27 Sr19 2.910195 1_455
O28 Sr5 2.563574 1_656
O28 Sr12 2.590427 1_555
O28 Sr19 2.949926 1_556
O28 Sr3 2.976850 1_555
O29 Sr11 2.958904 1_554
O29 Sr22 2.958904 1_555
O30 Sr11 2.531367 1_554
O30 Sr22 2.531367 1_555
O30 Sr3 3.030150 1_554
O30 Sr0 3.030150 1_555
O31 Sr18 2.596186 1_555
O31 Sr15 2.623429 1_555
O31 Sr4 2.821687 1_555
O31 Sr26 2.913791 1_555
O32 Sr0 2.712045 1_555
O32 Sr23 2.724731 1_554
O32 Sr1 2.781552 1_555
O32 Sr23 2.822258 1_555
O33 Sr28 2.541057 1_555
O33 Sr25 2.614916 1_555
O33 Sr23 2.820487 1_555
O33 Sr1 2.909635 1_555
O34 Sr22 2.606028 1_555
O34 Sr28 2.702787 1_555
O34 Sr22 3.124225 1_556
O35 Sr9 2.563574 1_456
O35 Sr6 2.590427 1_555
O35 Sr26 2.949926 1_556
O35 Sr4 2.976850 1_555
O36 Sr24 2.606028 1_555
O36 Sr8 2.702787 1_555
O36 Sr24 3.124225 1_556
O37 Sr11 2.596186 1_555
O37 Sr20 2.623429 1_555
O37 Sr3 2.821687 1_555
O37 Sr19 2.913791 1_555
O38 Sr12 2.577173 1_554
O38 Sr16 2.577173 1_555
O38 Sr0 3.011915 1_555
O38 Sr3 3.011915 1_554
O39 Sr17 2.660764 1_555
O39 Sr20 2.720195 1_555
O39 Sr20 2.986261 1_556
O39 Sr11 3.135772 1_555
O40 Sr11 2.515164 1_555
O40 Sr20 2.563962 1_556
O40 Sr3 2.934617 1_555
O40 Sr19 2.992975 1_556
O41 Sr10 2.712045 1_555
O41 Sr13 2.724731 1_554
O41 Sr1 2.781552 1_565
O41 Sr13 2.822258 1_555
O42 Sr5 2.806573 1_555
O43 Sr2 2.791604 1_555
O44 Sr29 2.682510 1_555
O44 Sr25 2.776068 1_555
O44 Sr25 2.939753 1_556
O44 Sr28 2.941431 1_555
O45 Sr24 2.958904 1_555
O45 Sr18 2.958904 1_554
O46 Sr5 2.582963 1_655
O46 Sr12 2.623023 1_555
O46 Sr19 2.883990 1_555
O46 Sr3 2.935367 1_555
O47 Sr22 2.596186 1_555
O47 Sr28 2.623429 1_555
O47 Sr0 2.821687 1_555
O47 Sr23 2.913791 1_555
O48 Sr21 2.660764 1_555
O48 Sr15 2.720195 1_555
O48 Sr15 2.986261 1_556
O48 Sr18 3.135772 1_555
O49 Sr7 2.563574 1_544
O49 Sr16 2.590427 1_555
O49 Sr23 2.949926 1_554
O49 Sr0 2.976850 1_555
O50 Sr27 2.660764 1_555
O50 Sr8 2.720195 1_555
O50 Sr8 2.986261 1_554
O50 Sr24 3.135772 1_555
O51 Sr15 2.547965 1_556
O51 Sr21 2.596525 1_555
O51 Sr26 2.881793 1_556
O51 Sr14 2.959613 1_555
O52 Sr0 2.713503 1_556
O52 Sr3 2.733374 1_555
O52 Sr23 2.807611 1_555
O52 Sr0 2.833914 1_555
O53 Sr15 2.823921 1_555
O54 Sr27 2.557166 1_555
O54 Sr7 2.614535 1_555
O54 Sr1 2.850444 1_565
O54 Sr23 2.910195 1_565
O55 Sr7 2.682510 1_555
O55 Sr27 2.776068 1_555
O55 Sr27 2.939753 1_556
O55 Sr8 2.941431 1_555
O56 Sr12 2.604297 1_555
O56 Sr16 2.604297 1_555
O56 Sr0 2.922794 1_555
O56 Sr3 2.922794 1_555
O57 Sr14 2.734288 1_554
O57 Sr26 2.739594 1_555
O57 Sr19 2.739594 1_455
O57 Sr14 2.812071 1_555
O58 Sr18 2.515164 1_555
O58 Sr15 2.563962 1_556
O58 Sr4 2.934617 1_555
O58 Sr26 2.992975 1_556
O59 Sr25 2.537497 1_555
O59 Sr29 2.597988 1_554
O59 Sr1 2.899732 1_555
O59 Sr13 2.971118 1_544
O60 Sr2 2.708253 1_555
O60 Sr9 2.721524 1_455
O60 Sr6 2.747780 1_555
O60 Sr6 2.996202 1_554
O61 Sr11 2.863437 1_555
O62 Sr2 2.698051 1_545
O62 Sr29 2.742029 1_555
O62 Sr25 2.801140 1_555
O62 Sr29 2.999310 1_554
O63 Sr2 2.604297 1_555
O63 Sr6 2.604297 1_555
O63 Sr4 2.922794 1_555
O63 Sr10 2.922794 1_555
O64 Sr24 2.596186 1_555
O64 Sr8 2.623429 1_555
O64 Sr10 2.821687 1_555
O64 Sr13 2.913791 1_555
O65 Sr28 2.547965 1_554
O65 Sr25 2.596525 1_555
O65 Sr23 2.881793 1_554
O65 Sr1 2.959613 1_555
O66 Sr20 2.823921 1_555
O67 Sr27 2.537497 1_555
O67 Sr7 2.597988 1_554
O67 Sr1 2.899732 1_565
O67 Sr23 2.971118 1_564
O68 Sr29 2.563574 1_564
O68 Sr2 2.590427 1_555
O68 Sr13 2.949926 1_554
O68 Sr10 2.976850 1_555
O69 Sr22 2.515164 1_555
O69 Sr28 2.563962 1_554
O69 Sr0 2.934617 1_555
O69 Sr23 2.992975 1_554
O70 Sr12 2.698051 1_455
O70 Sr5 2.742029 1_555
O70 Sr21 2.801140 1_555
O70 Sr5 2.999310 1_556
O71 Sr24 2.515164 1_555
O71 Sr8 2.563962 1_554
O71 Sr10 2.934617 1_555
O71 Sr13 2.992975 1_554
O72 Sr3 2.712045 1_555
O72 Sr19 2.724731 1_556
O72 Sr14 2.781552 1_655
O72 Sr19 2.822258 1_555
O73 Sr5 2.682510 1_555
O73 Sr21 2.776068 1_555
O73 Sr21 2.939753 1_554
O73 Sr15 2.941431 1_555
O74 Sr25 2.660764 1_555
O74 Sr28 2.720195 1_555
O74 Sr28 2.986261 1_554
O74 Sr22 3.135772 1_555
O75 Sr27 2.817500 1_555
O76 Sr9 2.582963 1_455
O76 Sr6 2.623023 1_555
O76 Sr26 2.883990 1_555
O76 Sr4 2.935367 1_555
O77 Sr7 2.582963 1_545
O77 Sr16 2.623023 1_555
O77 Sr23 2.883990 1_555
O77 Sr0 2.935367 1_555
O78 Sr18 2.863437 1_555
O79 Sr24 2.599296 1_555
O79 Sr18 2.599296 1_555
O79 Sr10 2.938158 1_555
O79 Sr4 2.938158 1_555
O80 Sr22 2.863437 1_555
O81 Sr6 2.698051 1_655
O81 Sr9 2.742029 1_555
O81 Sr17 2.801140 1_555
O81 Sr9 2.999310 1_556
O82 Sr4 2.712045 1_555
O82 Sr26 2.724731 1_556
O82 Sr14 2.781552 1_555
O82 Sr26 2.822258 1_555
O83 Sr18 2.606028 1_555
O83 Sr15 2.702787 1_555
O83 Sr18 3.124225 1_554
O84 Sr17 2.557166 1_555
O84 Sr9 2.614535 1_555
O84 Sr14 2.850444 1_655
O84 Sr26 2.910195 1_655
O85 Sr6 2.708253 1_555
O85 Sr29 2.721524 1_565
O85 Sr2 2.747780 1_555
O85 Sr2 2.996202 1_556
O86 Sr29 2.806573 1_555
O87 Sr25 2.557166 1_555
O87 Sr29 2.614535 1_555
O87 Sr1 2.850444 1_555
O87 Sr13 2.910195 1_545
O88 Sr4 2.713503 1_554
O88 Sr10 2.733374 1_555
O88 Sr26 2.807611 1_555
O88 Sr4 2.833914 1_555
O89 Sr8 2.823921 1_555
O90 Sr28 2.823921 1_555
O91 Sr20 2.541057 1_555
O91 Sr17 2.614916 1_555
O91 Sr19 2.820487 1_555
O91 Sr14 2.909635 1_655
