# generated using pymatgen
data_K2CoH2(SeO5)2
_symmetry_space_group_name_H-M   'P 1'
_cell_length_a   5.48360700
_cell_length_b   6.64174158
_cell_length_c   7.67151587
_cell_angle_alpha   108.57517117
_cell_angle_beta   95.51966458
_cell_angle_gamma   104.95740177
_symmetry_Int_Tables_number   1
_chemical_formula_structural   K2CoH2(SeO5)2
_chemical_formula_sum   'K2 Co1 H2 Se2 O10'
_cell_volume   250.97113534
_cell_formula_units_Z   1
loop_
 _symmetry_equiv_pos_site_id
 _symmetry_equiv_pos_as_xyz
  1  'x, y, z'
loop_
 _atom_site_type_symbol
 _atom_site_label
 _atom_site_symmetry_multiplicity
 _atom_site_fract_x
 _atom_site_fract_y
 _atom_site_fract_z
 _atom_site_occupancy
  K  K0  1  0.28519700  0.68325400  0.27334400  1
  K  K1  1  0.71480300  0.31674600  0.72665600  1
  Co  Co0  1  0.00000000  0.00000000  0.00000000  1
  H  H0  1  0.88598600  0.01633400  0.28555300  1
  H  H1  1  0.11401400  0.98366600  0.71444700  1
  Se  Se0  1  0.35675600  0.71306600  0.77418000  1
  Se  Se1  1  0.64324400  0.28693400  0.22582000  1
  O  O0  1  0.37642500  0.89203900  0.66195600  1
  O  O1  1  0.62357500  0.10796100  0.33804400  1
  O  O2  1  0.26199500  0.45001700  0.63355400  1
  O  O3  1  0.73800500  0.54998300  0.36644600  1
  O  O4  1  0.62583600  0.76431600  0.92927100  1
  O  O5  1  0.37416400  0.23568400  0.07072900  1
  O  O6  1  0.12690400  0.74020100  0.91393300  1
  O  O7  1  0.87309600  0.25979900  0.08606700  1
  O  O8  1  0.02444500  0.96818900  0.22431800  1
  O  O9  1  0.97555500  0.03181100  0.77568200  1
loop_
_geom_bond_atom_site_label_1
_geom_bond_atom_site_label_2
_geom_bond_distance
_geom_bond_site_symmetry_2
K0 O8 2.741206 1_555
K0 O0 2.789657 1_555
K0 O1 2.806284 1_565
K0 O7 2.932774 1_455
K0 O3 2.941965 1_555
K0 O6 2.978636 1_554
K0 O5 3.072688 1_555
K0 O3 3.121086 1_455
K1 O9 2.741206 1_555
K1 O1 2.789657 1_555
K1 O0 2.806284 1_545
K1 O6 2.932774 1_655
K1 O2 2.941965 1_555
K1 O7 2.978636 1_556
K1 O4 3.072688 1_555
K1 O2 3.121086 1_655
Co0 O8 1.796064 1_545
Co0 O9 1.796064 1_454
Co0 O7 1.969775 1_455
Co0 O6 1.969775 1_544
Co0 O5 2.131032 1_555
Co0 O4 2.131032 1_444
H0 O8 0.998818 1_645
H0 O1 1.735076 1_555
H1 O9 0.998818 1_465
H1 O0 1.735076 1_555
O0 Se0 1.664180 1_555
O1 Se1 1.664180 1_555
O2 Se0 1.645889 1_555
O3 Se1 1.645889 1_555
O4 Se0 1.689268 1_555
O5 Se1 1.689268 1_555
O6 Se0 1.739163 1_555
O7 Se1 1.739163 1_555
