# generated using pymatgen
data_Cu3BiSe2BrO8
_symmetry_space_group_name_H-M   'P 1'
_cell_length_a   6.44740500
_cell_length_b   7.36530800
_cell_length_c   9.78638100
_cell_angle_alpha   90.00000000
_cell_angle_beta   90.00000000
_cell_angle_gamma   90.00000000
_symmetry_Int_Tables_number   1
_chemical_formula_structural   Cu3BiSe2BrO8
_chemical_formula_sum   'Cu6 Bi2 Se4 Br2 O16'
_cell_volume   464.72708440
_cell_formula_units_Z   2
loop_
 _symmetry_equiv_pos_site_id
 _symmetry_equiv_pos_as_xyz
  1  'x, y, z'
loop_
 _atom_site_type_symbol
 _atom_site_label
 _atom_site_symmetry_multiplicity
 _atom_site_fract_x
 _atom_site_fract_y
 _atom_site_fract_z
 _atom_site_occupancy
  Cu  Cu0  1  0.75000000  0.00000000  0.75000000  1
  Cu  Cu1  1  0.75000000  0.00000000  0.25000000  1
  Cu  Cu2  1  0.25000000  0.00000000  0.25000000  1
  Cu  Cu3  1  0.50000000  0.79320400  0.50000000  1
  Cu  Cu4  1  0.00000000  0.20679600  0.00000000  1
  Cu  Cu5  1  0.25000000  0.00000000  0.75000000  1
  Bi  Bi0  1  0.00000000  0.75510100  0.00000000  1
  Bi  Bi1  1  0.50000000  0.24489900  0.50000000  1
  Se  Se0  1  0.50000000  0.61101900  0.19308000  1
  Se  Se1  1  0.00000000  0.38898100  0.69308000  1
  Se  Se2  1  0.50000000  0.61101900  0.80692000  1
  Se  Se3  1  0.00000000  0.38898100  0.30692000  1
  Br  Br0  1  0.00000000  0.84150800  0.50000000  1
  Br  Br1  1  0.50000000  0.15849200  0.00000000  1
  O  O0  1  0.00000000  0.01000800  0.86397000  1
  O  O1  1  0.50000000  0.98999200  0.36397000  1
  O  O2  1  0.00000000  0.41137400  0.86731500  1
  O  O3  1  0.28879000  0.75583200  0.16562800  1
  O  O4  1  0.21121000  0.24416800  0.66562800  1
  O  O5  1  0.50000000  0.58862600  0.36731500  1
  O  O6  1  0.78879000  0.24416800  0.33437200  1
  O  O7  1  0.78879000  0.24416800  0.66562800  1
  O  O8  1  0.00000000  0.41137400  0.13268500  1
  O  O9  1  0.50000000  0.58862600  0.63268500  1
  O  O10  1  0.71121000  0.75583200  0.83437200  1
  O  O11  1  0.21121000  0.24416800  0.33437200  1
  O  O12  1  0.50000000  0.98999200  0.63603000  1
  O  O13  1  0.00000000  0.01000800  0.13603000  1
  O  O14  1  0.71121000  0.75583200  0.16562800  1
  O  O15  1  0.28879000  0.75583200  0.83437200  1
loop_
_geom_bond_atom_site_label_1
_geom_bond_atom_site_label_2
_geom_bond_distance
_geom_bond_site_symmetry_2
Cu0 O0 1.961508 1_655
Cu0 O12 1.961508 1_545
Cu0 O7 1.994609 1_555
Cu0 O10 1.994609 1_545
Cu1 O13 1.961508 1_655
Cu1 O1 1.961508 1_545
Cu1 O6 1.994609 1_555
Cu1 O14 1.994609 1_545
Cu2 O13 1.961508 1_555
Cu2 O1 1.961508 1_545
Cu2 O11 1.994609 1_555
Cu2 O3 1.994609 1_545
Cu3 O1 1.967988 1_555
Cu3 O12 1.967988 1_555
Cu3 O5 1.989096 1_555
Cu3 O9 1.989096 1_555
Cu4 O0 1.967988 1_554
Cu4 O13 1.967988 1_555
Cu4 O8 1.989096 1_555
Cu4 O2 1.989096 1_554
Cu5 O0 1.961508 1_555
Cu5 O12 1.961508 1_545
Cu5 O4 1.994609 1_555
Cu5 O15 1.994609 1_545
Bi0 O13 2.301541 1_565
Bi0 O0 2.301541 1_564
Bi0 O15 2.468640 1_554
Bi0 O10 2.468640 1_454
Bi0 O3 2.468640 1_555
Bi0 O14 2.468640 1_455
Bi1 O1 2.301541 1_545
Bi1 O12 2.301541 1_545
Bi1 O7 2.468640 1_555
Bi1 O11 2.468640 1_555
Bi1 O4 2.468640 1_555
Bi1 O6 2.468640 1_555
Br0 Cu0 3.153820 1_465
Br0 Cu1 3.153820 1_465
Br0 Cu5 3.153820 1_565
Br0 Cu2 3.153820 1_565
Br0 Cu3 3.243275 1_455
Br0 Cu3 3.243275 1_555
Br1 Cu2 3.153820 1_555
Br1 Cu5 3.153820 1_554
Br1 Cu1 3.153820 1_555
Br1 Cu0 3.153820 1_554
Br1 Cu4 3.243275 1_555
Br1 Cu4 3.243275 1_655
O2 Se1 1.713088 1_555
O3 Se0 1.750479 1_555
O4 Se1 1.750479 1_555
O5 Se0 1.713088 1_555
O6 Se3 1.750479 1_655
O7 Se1 1.750479 1_655
O8 Se3 1.713088 1_555
O9 Se2 1.713088 1_555
O10 Se2 1.750479 1_555
O11 Se3 1.750479 1_555
O14 Se0 1.750479 1_555
O15 Se2 1.750479 1_555
