# generated using pymatgen
data_As2Pb14Cl4O17
_symmetry_space_group_name_H-M   'P 1'
_cell_length_a   13.19017083
_cell_length_b   13.19017083
_cell_length_c   11.50358125
_cell_angle_alpha   76.55109875
_cell_angle_beta   76.55109875
_cell_angle_gamma   121.34357819
_symmetry_Int_Tables_number   1
_chemical_formula_structural   As2Pb14Cl4O17
_chemical_formula_sum   'As4 Pb28 Cl8 O34'
_cell_volume   1504.33503462
_cell_formula_units_Z   2
loop_
 _symmetry_equiv_pos_site_id
 _symmetry_equiv_pos_as_xyz
  1  'x, y, z'
loop_
 _atom_site_type_symbol
 _atom_site_label
 _atom_site_symmetry_multiplicity
 _atom_site_fract_x
 _atom_site_fract_y
 _atom_site_fract_z
 _atom_site_occupancy
  As  As0  1  0.81537400  0.45911900  0.32264500  1
  As  As1  1  0.18462600  0.54088100  0.67735500  1
  As  As2  1  0.54088100  0.18462600  0.17735500  1
  As  As3  1  0.45911900  0.81537400  0.82264500  1
  Pb  Pb0  1  0.45524100  0.28242000  0.92427100  1
  Pb  Pb1  1  0.79539400  0.95973000  0.69342600  1
  Pb  Pb2  1  0.04027000  0.20460600  0.80657400  1
  Pb  Pb3  1  0.45162300  0.84116400  0.29910000  1
  Pb  Pb4  1  0.20460600  0.04027000  0.30657400  1
  Pb  Pb5  1  0.70503100  0.54876600  0.04919300  1
  Pb  Pb6  1  0.45123400  0.29496900  0.45080700  1
  Pb  Pb7  1  0.02880000  0.19844700  0.31851400  1
  Pb  Pb8  1  0.90290100  0.29626400  0.56074100  1
  Pb  Pb9  1  0.28242000  0.45524100  0.42427100  1
  Pb  Pb10  1  0.95973000  0.79539400  0.19342600  1
  Pb  Pb11  1  0.19844700  0.02880000  0.81851400  1
  Pb  Pb12  1  0.54475900  0.71758000  0.07572900  1
  Pb  Pb13  1  0.32270600  0.92554300  0.57547400  1
  Pb  Pb14  1  0.92554300  0.32270600  0.07547400  1
  Pb  Pb15  1  0.67729400  0.07445700  0.42452600  1
  Pb  Pb16  1  0.15883600  0.54837700  0.20090000  1
  Pb  Pb17  1  0.54837700  0.15883600  0.70090000  1
  Pb  Pb18  1  0.07445700  0.67729400  0.92452600  1
  Pb  Pb19  1  0.54876600  0.70503100  0.54919300  1
  Pb  Pb20  1  0.84116400  0.45162300  0.79910000  1
  Pb  Pb21  1  0.97120000  0.80155300  0.68148600  1
  Pb  Pb22  1  0.09709900  0.70373600  0.43925900  1
  Pb  Pb23  1  0.70373600  0.09709900  0.93925900  1
  Pb  Pb24  1  0.29626400  0.90290100  0.06074100  1
  Pb  Pb25  1  0.71758000  0.54475900  0.57572900  1
  Pb  Pb26  1  0.80155300  0.97120000  0.18148600  1
  Pb  Pb27  1  0.29496900  0.45123400  0.95080700  1
  Cl  Cl0  1  0.12645600  0.12624900  0.06224000  1
  Cl  Cl1  1  0.12624900  0.12645600  0.56224000  1
  Cl  Cl2  1  0.39470500  0.36574100  0.69126200  1
  Cl  Cl3  1  0.36574100  0.39470500  0.19126200  1
  Cl  Cl4  1  0.87375100  0.87354400  0.43776000  1
  Cl  Cl5  1  0.87354400  0.87375100  0.93776000  1
  Cl  Cl6  1  0.63425900  0.60529500  0.80873800  1
  Cl  Cl7  1  0.60529500  0.63425900  0.30873800  1
  O  O0  1  0.16922100  0.88443500  0.48623300  1
  O  O1  1  0.82286000  0.52654600  0.16966800  1
  O  O2  1  0.52654600  0.82286000  0.66966800  1
  O  O3  1  0.08901900  0.40735500  0.64480400  1
  O  O4  1  0.90692800  0.62111000  0.61112600  1
  O  O5  1  0.17714000  0.47345400  0.83033200  1
  O  O6  1  0.86697600  0.13302400  0.75000000  1
  O  O7  1  0.85574500  0.14425500  0.25000000  1
  O  O8  1  0.35636000  0.64364000  0.25000000  1
  O  O9  1  0.12646100  0.63098700  0.68063100  1
  O  O10  1  0.14425500  0.85574500  0.75000000  1
  O  O11  1  0.11556500  0.83077900  0.01376700  1
  O  O12  1  0.62111000  0.90692800  0.11112600  1
  O  O13  1  0.40735500  0.08901900  0.14480400  1
  O  O14  1  0.37889000  0.09307200  0.88887400  1
  O  O15  1  0.64364000  0.35636000  0.75000000  1
  O  O16  1  0.39222500  0.11722500  0.61982500  1
  O  O17  1  0.11722500  0.39222500  0.11982500  1
  O  O18  1  0.88277500  0.60777500  0.88017500  1
  O  O19  1  0.34015400  0.63357300  0.54594700  1
  O  O20  1  0.87353900  0.36901300  0.31936900  1
  O  O21  1  0.88443500  0.16922100  0.98623300  1
  O  O22  1  0.91098100  0.59264500  0.35519600  1
  O  O23  1  0.09307200  0.37889000  0.38887400  1
  O  O24  1  0.36901300  0.87353900  0.81936900  1
  O  O25  1  0.59264500  0.91098100  0.85519600  1
  O  O26  1  0.63357300  0.34015400  0.04594800  1
  O  O27  1  0.63098700  0.12646100  0.18063100  1
  O  O28  1  0.83077900  0.11556500  0.51376700  1
  O  O29  1  0.65984600  0.36642700  0.45405300  1
  O  O30  1  0.36642700  0.65984600  0.95405300  1
  O  O31  1  0.13302400  0.86697600  0.25000000  1
  O  O32  1  0.60777500  0.88277500  0.38017500  1
  O  O33  1  0.47345400  0.17714000  0.33033200  1
loop_
_geom_bond_atom_site_label_1
_geom_bond_atom_site_label_2
_geom_bond_distance
_geom_bond_site_symmetry_2
As0 O20 1.720056 1_555
As0 O1 1.731290 1_555
As0 O22 1.745922 1_555
As0 O29 1.754093 1_555
As1 O9 1.720056 1_555
As1 O5 1.731290 1_555
As1 O3 1.745922 1_555
As1 O19 1.754093 1_555
As2 O27 1.720056 1_555
As2 O33 1.731290 1_555
As2 O13 1.745922 1_555
As2 O26 1.754088 1_555
As3 O24 1.720056 1_555
As3 O2 1.731290 1_555
As3 O25 1.745922 1_555
As3 O30 1.754093 1_555
Cl2 Pb0 3.093280 1_555
Cl2 Pb6 3.169304 1_555
Cl3 Pb9 3.093280 1_555
Cl3 Pb27 3.169304 1_554
Cl6 Pb25 3.093280 1_555
Cl6 Pb5 3.169304 1_556
Cl7 Pb12 3.093280 1_555
Cl7 Pb19 3.169304 1_555
O0 Pb4 2.300308 1_565
O0 Pb22 2.314558 1_555
O0 Pb13 2.351624 1_555
O0 Pb21 2.494113 1_455
O1 Pb5 2.389341 1_555
O2 Pb19 2.389341 1_555
O3 Pb2 2.523468 1_555
O3 Pb8 2.670206 1_455
O4 Pb22 2.288117 1_655
O4 Pb20 2.299454 1_555
O4 Pb25 2.337694 1_555
O4 Pb21 2.480867 1_555
O5 Pb27 2.389341 1_555
O6 Pb1 2.296159 1_545
O6 Pb2 2.296159 1_655
O6 Pb23 2.424621 1_555
O6 Pb8 2.424621 1_555
O7 Pb15 2.259721 1_555
O7 Pb14 2.259721 1_555
O7 Pb7 2.396659 1_655
O7 Pb26 2.396659 1_545
O8 Pb12 2.323214 1_555
O8 Pb9 2.323214 1_555
O8 Pb16 2.508931 1_555
O8 Pb3 2.508931 1_555
O10 Pb13 2.259721 1_555
O10 Pb18 2.259721 1_555
O10 Pb11 2.396659 1_565
O10 Pb21 2.396659 1_455
O11 Pb10 2.300308 1_455
O11 Pb24 2.314558 1_555
O11 Pb18 2.351624 1_554
O11 Pb11 2.494113 1_564
O12 Pb23 2.288117 1_564
O12 Pb3 2.299454 1_555
O12 Pb12 2.337694 1_555
O12 Pb26 2.480867 1_555
O13 Pb4 2.523468 1_555
O13 Pb24 2.670206 1_545
O14 Pb24 2.288117 1_546
O14 Pb17 2.299454 1_555
O14 Pb0 2.337694 1_555
O14 Pb11 2.480867 1_555
O15 Pb25 2.323214 1_555
O15 Pb0 2.323214 1_555
O15 Pb17 2.508931 1_555
O15 Pb20 2.508931 1_555
O16 Pb6 2.271567 1_555
O16 Pb17 2.317094 1_555
O16 Pb13 2.428838 1_545
O16 Pb11 2.461420 1_555
O17 Pb27 2.271567 1_554
O17 Pb16 2.317094 1_555
O17 Pb14 2.428838 1_455
O17 Pb7 2.461420 1_555
O18 Pb5 2.271567 1_556
O18 Pb20 2.317094 1_555
O18 Pb18 2.428838 1_655
O18 Pb21 2.461420 1_555
O19 Pb19 2.413971 1_555
O21 Pb2 2.300308 1_655
O21 Pb23 2.314558 1_555
O21 Pb14 2.351624 1_556
O21 Pb26 2.494113 1_546
O22 Pb10 2.523468 1_555
O22 Pb22 2.670206 1_655
O23 Pb8 2.288117 1_455
O23 Pb16 2.299454 1_555
O23 Pb9 2.337694 1_555
O23 Pb7 2.480867 1_555
O25 Pb1 2.523468 1_555
O25 Pb23 2.670206 1_565
O26 Pb5 2.413967 1_555
O28 Pb1 2.300308 1_545
O28 Pb8 2.314558 1_555
O28 Pb15 2.351624 1_555
O28 Pb7 2.494113 1_655
O29 Pb6 2.413971 1_555
O30 Pb27 2.413971 1_555
O31 Pb10 2.296159 1_455
O31 Pb4 2.296159 1_565
O31 Pb22 2.424621 1_555
O31 Pb24 2.424621 1_555
O32 Pb19 2.271567 1_555
O32 Pb3 2.317094 1_555
O32 Pb15 2.428838 1_565
O32 Pb26 2.461420 1_555
O33 Pb6 2.389341 1_555
