# generated using pymatgen
data_Ca2B3(HO)13
_symmetry_space_group_name_H-M   'P 1'
_cell_length_a   7.40132800
_cell_length_b   8.03672299
_cell_length_c   9.91006128
_cell_angle_alpha   107.27502531
_cell_angle_beta   110.98232438
_cell_angle_gamma   94.66792465
_symmetry_Int_Tables_number   1
_chemical_formula_structural   Ca2B3(HO)13
_chemical_formula_sum   'Ca4 B6 H26 O26'
_cell_volume   513.77841691
_cell_formula_units_Z   2
loop_
 _symmetry_equiv_pos_site_id
 _symmetry_equiv_pos_as_xyz
  1  'x, y, z'
loop_
 _atom_site_type_symbol
 _atom_site_label
 _atom_site_symmetry_multiplicity
 _atom_site_fract_x
 _atom_site_fract_y
 _atom_site_fract_z
 _atom_site_occupancy
  Ca  Ca0  1  0.74565100  0.92243400  0.96740000  1
  Ca  Ca1  1  0.25434900  0.07756600  0.03260000  1
  Ca  Ca2  1  0.58253700  0.88488500  0.32694900  1
  Ca  Ca3  1  0.41746300  0.11511500  0.67305100  1
  B  B0  1  0.36693100  0.71634600  0.97157300  1
  B  B1  1  0.63306900  0.28365400  0.02842700  1
  B  B2  1  0.30831200  0.76262200  0.71361200  1
  B  B3  1  0.69168800  0.23737800  0.28638800  1
  B  B4  1  0.15038600  0.47097200  0.71545500  1
  B  B5  1  0.84961400  0.52902800  0.28454500  1
  H  H0  1  0.62826900  0.63281400  0.08027400  1
  H  H1  1  0.37173100  0.36718600  0.91972600  1
  H  H2  1  0.14737200  0.74790900  0.05952700  1
  H  H3  1  0.85262800  0.25209100  0.94047300  1
  H  H4  1  0.50869900  0.74714800  0.60504400  1
  H  H5  1  0.49130100  0.25285200  0.39495600  1
  H  H6  1  0.08756000  0.90652800  0.69792400  1
  H  H7  1  0.91244000  0.09347200  0.30207600  1
  H  H8  1  0.03675700  0.22897000  0.54360600  1
  H  H9  1  0.96324300  0.77103000  0.45639400  1
  H  H10  1  0.87907300  0.49454900  0.57800500  1
  H  H11  1  0.12092700  0.50545100  0.42199500  1
  H  H12  1  0.93468500  0.80565900  0.77718400  1
  H  H13  1  0.06531500  0.19434100  0.22281600  1
  H  H14  1  0.89808200  0.57356800  0.85856200  1
  H  H15  1  0.10191800  0.42643200  0.14143800  1
  H  H16  1  0.83224300  0.56580700  0.99812200  1
  H  H17  1  0.16775700  0.43419300  0.00187800  1
  H  H18  1  0.80692000  0.99666800  0.68987400  1
  H  H19  1  0.19308000  0.00333200  0.31012600  1
  H  H20  1  0.82464900  0.14963000  0.62114100  1
  H  H21  1  0.17535100  0.85037000  0.37885900  1
  H  H22  1  0.35144600  0.56985700  0.35003400  1
  H  H23  1  0.64855400  0.43014300  0.64996600  1
  H  H24  1  0.57566100  0.54433900  0.37669700  1
  H  H25  1  0.42433900  0.45566100  0.62330300  1
  O  O0  1  0.58251000  0.74319400  0.06660800  1
  O  O1  1  0.41749000  0.25680600  0.93339200  1
  O  O2  1  0.28798100  0.79923300  0.09083300  1
  O  O3  1  0.71201900  0.20076700  0.90916700  1
  O  O4  1  0.34921600  0.83050800  0.87803600  1
  O  O5  1  0.65078400  0.16949200  0.12196400  1
  O  O6  1  0.49780200  0.81994200  0.69954900  1
  O  O7  1  0.50219800  0.18005800  0.30045100  1
  O  O8  1  0.16790400  0.86631300  0.63780200  1
  O  O9  1  0.83209600  0.13368700  0.36219800  1
  O  O10  1  0.24408200  0.56885000  0.64284000  1
  O  O11  1  0.75591800  0.43115000  0.35716000  1
  O  O12  1  0.14374800  0.27822100  0.64889200  1
  O  O13  1  0.85625200  0.72177900  0.35110800  1
  O  O14  1  0.94308100  0.50455600  0.68739500  1
  O  O15  1  0.05691900  0.49544400  0.31260500  1
  O  O16  1  0.26685600  0.53005200  0.88404500  1
  O  O17  1  0.73314400  0.46994800  0.11595500  1
  O  O18  1  0.94445200  0.93431500  0.81730400  1
  O  O19  1  0.05554800  0.06568500  0.18269600  1
  O  O20  1  0.88187500  0.64544900  0.95285500  1
  O  O21  1  0.11812500  0.35455100  0.04714500  1
  O  O22  1  0.72837800  0.04783300  0.60633400  1
  O  O23  1  0.27162200  0.95216700  0.39366600  1
  O  O24  1  0.49004700  0.63325600  0.39649200  1
  O  O25  1  0.50995300  0.36674400  0.60350800  1
loop_
_geom_bond_atom_site_label_1
_geom_bond_atom_site_label_2
_geom_bond_distance
_geom_bond_site_symmetry_2
Ca0 O19 2.396902 1_666
Ca0 O0 2.430598 1_556
Ca0 O5 2.443855 1_566
Ca0 O18 2.452662 1_555
Ca0 O6 2.461259 1_555
Ca0 O3 2.480541 1_565
Ca0 O20 2.504284 1_555
Ca0 O4 2.708685 1_555
Ca1 O18 2.396902 1_444
Ca1 O1 2.430598 1_554
Ca1 O4 2.443855 1_544
Ca1 O19 2.452662 1_555
Ca1 O7 2.461259 1_555
Ca1 O2 2.480541 1_545
Ca1 O21 2.504284 1_555
Ca1 O5 2.708685 1_555
Ca2 O2 2.418207 1_555
Ca2 O24 2.444064 1_555
Ca2 O22 2.453996 1_565
Ca2 O9 2.460457 1_565
Ca2 O13 2.480114 1_555
Ca2 O0 2.491545 1_555
Ca2 O7 2.556893 1_565
Ca2 O23 2.665481 1_555
Ca3 O3 2.418207 1_555
Ca3 O25 2.444064 1_555
Ca3 O23 2.453996 1_545
Ca3 O8 2.460457 1_545
Ca3 O12 2.480114 1_555
Ca3 O1 2.491545 1_555
Ca3 O6 2.556893 1_545
Ca3 O22 2.665481 1_555
B0 O16 1.459686 1_555
B0 O4 1.468290 1_555
B0 O0 1.492142 1_556
B0 O2 1.507438 1_556
B1 O17 1.459686 1_555
B1 O5 1.468290 1_555
B1 O1 1.492142 1_554
B1 O3 1.507438 1_554
B2 O10 1.461195 1_555
B2 O4 1.461597 1_555
B2 O6 1.507160 1_555
B2 O8 1.514092 1_555
B3 O11 1.461195 1_555
B3 O5 1.461597 1_555
B3 O7 1.507160 1_555
B3 O9 1.514092 1_555
B4 O16 1.480105 1_555
B4 O12 1.481460 1_555
B4 O10 1.490748 1_555
B4 O14 1.520123 1_455
B5 O17 1.480105 1_555
B5 O13 1.481460 1_555
B5 O11 1.490748 1_555
B5 O15 1.520123 1_655
H0 O0 1.003685 1_555
H0 O17 1.638435 1_555
H1 O1 1.003685 1_555
H1 O16 1.638435 1_555
H2 O2 0.986071 1_555
H3 O3 0.986071 1_555
H4 O6 0.980943 1_555
H5 O7 0.980943 1_555
H6 O8 0.991822 1_555
H7 O9 0.991822 1_555
H8 O12 0.992163 1_555
H9 O13 0.992163 1_555
H10 O14 0.990108 1_555
H11 O15 0.990108 1_555
H12 O18 0.977495 1_555
H13 O19 0.977495 1_555
H14 O20 0.996119 1_555
H15 O21 0.996119 1_555
H16 O20 0.998067 1_555
H17 O21 0.998067 1_555
H18 O22 1.043474 1_565
H18 O18 1.555733 1_555
H19 O23 1.043474 1_545
H19 O19 1.555733 1_555
H20 O22 0.978514 1_555
H21 O23 0.978514 1_555
H22 O24 0.980447 1_555
H23 O25 0.980447 1_555
H24 O24 1.014950 1_555
H25 O25 1.014950 1_555
