# generated using pymatgen
data_In2Se
_symmetry_space_group_name_H-M   'P 1'
_cell_length_a   4.09284600
_cell_length_b   11.61178800
_cell_length_c   15.16202700
_cell_angle_alpha   90.00000000
_cell_angle_beta   90.00000000
_cell_angle_gamma   90.00000000
_symmetry_Int_Tables_number   1
_chemical_formula_structural   In2Se
_chemical_formula_sum   'In16 Se8'
_cell_volume   720.57927634
_cell_formula_units_Z   8
loop_
 _symmetry_equiv_pos_site_id
 _symmetry_equiv_pos_as_xyz
  1  'x, y, z'
loop_
 _atom_site_type_symbol
 _atom_site_label
 _atom_site_symmetry_multiplicity
 _atom_site_fract_x
 _atom_site_fract_y
 _atom_site_fract_z
 _atom_site_occupancy
  In  In0  1  0.50000000  0.09446000  0.85966200  1
  In  In1  1  0.00000000  0.59446000  0.64033800  1
  In  In2  1  0.50000000  0.25305500  0.23928700  1
  In  In3  1  0.50000000  0.74694500  0.76071300  1
  In  In4  1  0.50000000  0.69162600  0.49154800  1
  In  In5  1  0.50000000  0.58669300  0.12249600  1
  In  In6  1  0.00000000  0.75305500  0.26071300  1
  In  In7  1  0.50000000  0.30837400  0.50845200  1
  In  In8  1  0.00000000  0.08669300  0.37750400  1
  In  In9  1  0.50000000  0.41330700  0.87750400  1
  In  In10  1  0.00000000  0.91330700  0.62249600  1
  In  In11  1  0.00000000  0.24694500  0.73928700  1
  In  In12  1  0.00000000  0.80837400  0.99154800  1
  In  In13  1  0.00000000  0.19162600  0.00845200  1
  In  In14  1  0.00000000  0.40554000  0.35966200  1
  In  In15  1  0.50000000  0.90554000  0.14033800  1
  Se  Se0  1  0.00000000  0.08467200  0.17642400  1
  Se  Se1  1  0.50000000  0.58467200  0.32357600  1
  Se  Se2  1  0.50000000  0.34680200  0.06866400  1
  Se  Se3  1  0.00000000  0.91532800  0.82357600  1
  Se  Se4  1  0.50000000  0.41532800  0.67642400  1
  Se  Se5  1  0.00000000  0.15319800  0.56866400  1
  Se  Se6  1  0.50000000  0.65319800  0.93133600  1
  Se  Se7  1  0.00000000  0.84680200  0.43133600  1
loop_
_geom_bond_atom_site_label_1
_geom_bond_atom_site_label_2
_geom_bond_distance
_geom_bond_site_symmetry_2
In0 Se3 2.968802 1_545
In0 Se3 2.968802 1_645
In1 Se4 2.968802 1_555
In1 Se4 2.968802 1_455
In2 Se2 2.806689 1_555
In2 Se0 2.986506 1_555
In2 Se0 2.986506 1_655
In3 Se6 2.806689 1_555
In3 Se3 2.986506 1_555
In3 Se3 2.986506 1_655
In4 Se1 2.833470 1_555
In4 Se7 2.875420 1_655
In4 Se7 2.875420 1_555
In5 Se2 2.902680 1_555
In5 Se6 2.999487 1_554
In5 Se1 3.048871 1_555
In6 Se7 2.806689 1_555
In6 Se1 2.986506 1_555
In6 Se1 2.986506 1_455
In7 Se4 2.833470 1_555
In7 Se5 2.875420 1_555
In7 Se5 2.875420 1_655
In8 Se7 2.902680 1_545
In8 Se5 2.999487 1_555
In8 Se0 3.048871 1_555
In9 Se6 2.902680 1_555
In9 Se2 2.999487 1_556
In9 Se4 3.048871 1_555
In10 Se5 2.902680 1_565
In10 Se7 2.999487 1_555
In10 Se3 3.048871 1_555
In11 Se5 2.806689 1_555
In11 Se4 2.986506 1_455
In11 Se4 2.986506 1_555
In12 Se3 2.833470 1_555
In12 Se6 2.875420 1_555
In12 Se6 2.875420 1_455
In13 Se0 2.833470 1_555
In13 Se2 2.875420 1_455
In13 Se2 2.875420 1_555
In14 Se1 2.968802 1_455
In14 Se1 2.968802 1_555
In15 Se0 2.968802 1_565
In15 Se0 2.968802 1_665
