# generated using pymatgen
data_ZnCuAs
_symmetry_space_group_name_H-M   'P 1'
_cell_length_a   4.14954400
_cell_length_b   5.93013600
_cell_length_c   8.45545900
_cell_angle_alpha   90.00000000
_cell_angle_beta   90.00000000
_cell_angle_gamma   90.00000000
_symmetry_Int_Tables_number   1
_chemical_formula_structural   ZnCuAs
_chemical_formula_sum   'Zn4 Cu4 As4'
_cell_volume   208.06652576
_cell_formula_units_Z   4
loop_
 _symmetry_equiv_pos_site_id
 _symmetry_equiv_pos_as_xyz
  1  'x, y, z'
loop_
 _atom_site_type_symbol
 _atom_site_label
 _atom_site_symmetry_multiplicity
 _atom_site_fract_x
 _atom_site_fract_y
 _atom_site_fract_z
 _atom_site_occupancy
  Zn  Zn0  1  0.78143000  0.03173200  0.86666700  1
  Zn  Zn1  1  0.28143000  0.53173200  0.63333300  1
  Zn  Zn2  1  0.71857000  0.03173200  0.36666700  1
  Zn  Zn3  1  0.21857000  0.53173200  0.13333300  1
  Cu  Cu0  1  0.28216500  0.01978700  0.63726900  1
  Cu  Cu1  1  0.71783500  0.51978700  0.36273100  1
  Cu  Cu2  1  0.21783500  0.01978700  0.13726900  1
  Cu  Cu3  1  0.78216500  0.51978700  0.86273100  1
  As  As0  1  0.27690000  0.77654000  0.88645700  1
  As  As1  1  0.77690000  0.27654000  0.61354300  1
  As  As2  1  0.22310000  0.77654000  0.38645700  1
  As  As3  1  0.72310000  0.27654000  0.11354300  1
loop_
_geom_bond_atom_site_label_1
_geom_bond_atom_site_label_2
_geom_bond_distance
_geom_bond_site_symmetry_2
Cu0 Zn0 2.838900 1_555
Cu0 Zn0 2.843354 1_455
Cu0 Zn1 2.894425 1_545
Cu0 Zn2 2.918826 1_555
Cu0 Zn1 3.036087 1_555
Cu1 Zn3 2.838900 1_555
Cu1 Zn3 2.843354 1_655
Cu1 Zn2 2.894425 1_555
Cu1 Zn1 2.918826 1_555
Cu1 Zn2 3.036087 1_565
Cu2 Zn2 2.838900 1_455
Cu2 Zn2 2.843354 1_555
Cu2 Zn3 2.894425 1_545
Cu2 Zn0 2.918826 1_454
Cu2 Zn3 3.036087 1_555
Cu3 Zn1 2.838900 1_655
Cu3 Zn1 2.843354 1_555
Cu3 Zn0 2.894425 1_555
Cu3 Zn3 2.918826 1_656
Cu3 Zn0 3.036087 1_565
As0 Cu0 2.553565 1_565
As0 Zn3 2.554133 1_556
As0 Zn0 2.558355 1_465
As0 Cu3 2.563786 1_455
As0 Cu2 2.576498 1_566
As0 Zn1 2.586255 1_555
As0 Zn0 2.588664 1_565
As0 Cu3 2.598905 1_555
As1 Cu3 2.553565 1_555
As1 Zn2 2.554133 1_555
As1 Zn1 2.558355 1_555
As1 Cu0 2.563786 1_555
As1 Cu1 2.576498 1_555
As1 Zn0 2.586255 1_555
As1 Zn1 2.588664 1_655
As1 Cu0 2.598905 1_655
As2 Cu2 2.553565 1_565
As2 Zn1 2.554133 1_555
As2 Zn2 2.558355 1_565
As2 Cu1 2.563786 1_555
As2 Cu0 2.576498 1_565
As2 Zn3 2.586255 1_555
As2 Zn2 2.588664 1_465
As2 Cu1 2.598905 1_455
As3 Cu1 2.553565 1_555
As3 Zn0 2.554133 1_554
As3 Zn3 2.558355 1_655
As3 Cu2 2.563786 1_655
As3 Cu3 2.576498 1_554
As3 Zn2 2.586255 1_555
As3 Zn3 2.588664 1_555
As3 Cu2 2.598905 1_555
