# generated using pymatgen
data_Ba11In6O3
_symmetry_space_group_name_H-M   'P 1'
_cell_length_a   12.36649611
_cell_length_b   12.36651372
_cell_length_c   12.36587603
_cell_angle_alpha   101.92846495
_cell_angle_beta   101.92860219
_cell_angle_gamma   125.91528411
_symmetry_Int_Tables_number   1
_chemical_formula_structural   Ba11In6O3
_chemical_formula_sum   'Ba22 In12 O6'
_cell_volume   1364.16618978
_cell_formula_units_Z   2
loop_
 _symmetry_equiv_pos_site_id
 _symmetry_equiv_pos_as_xyz
  1  'x, y, z'
loop_
 _atom_site_type_symbol
 _atom_site_label
 _atom_site_symmetry_multiplicity
 _atom_site_fract_x
 _atom_site_fract_y
 _atom_site_fract_z
 _atom_site_occupancy
  Ba  Ba0  1  0.57651820  0.32680492  0.49999906  1
  Ba  Ba1  1  0.82681562  0.07652556  0.50000102  1
  Ba  Ba2  1  0.76989048  0.73010203  0.49999310  1
  Ba  Ba3  1  0.23010629  0.26988037  0.49998713  1
  Ba  Ba4  1  0.62378959  0.87622221  0.00000639  1
  Ba  Ba5  1  0.87618761  0.87616530  0.25238643  1
  Ba  Ba6  1  0.12382126  0.12383038  0.74761295  1
  Ba  Ba7  1  0.92339115  0.42340410  0.75020820  1
  Ba  Ba8  1  0.73009489  0.23010234  0.96026578  1
  Ba  Ba9  1  0.37621700  0.12378406  0.00000647  1
  Ba  Ba10  1  0.26990158  0.76991548  0.03975007  1
  Ba  Ba11  1  0.07659276  0.57660133  0.24979173  1
  Ba  Ba12  1  0.62384150  0.62381944  0.74761324  1
  Ba  Ba13  1  0.12375501  0.37624628  0.00000940  1
  Ba  Ba14  1  0.42346824  0.67317725  0.49998582  1
  Ba  Ba15  1  0.50000744  0.49999889  0.00000792  1
  Ba  Ba16  1  0.87625081  0.62375962  0.00000784  1
  Ba  Ba17  1  0.32678698  0.82679922  0.75019246  1
  Ba  Ba18  1  0.17318683  0.92347381  0.49998282  1
  Ba  Ba19  1  0.00000711  0.99999891  0.00000769  1
  Ba  Ba20  1  0.37616196  0.37617133  0.25238672  1
  Ba  Ba21  1  0.67320595  0.17321538  0.24980840  1
  In  In0  1  0.24271844  0.99938884  0.24207055  1
  In  In1  1  0.50061522  0.25728101  0.75793206  1
  In  In2  1  0.56562224  0.06562204  0.63131429  1
  In  In3  1  0.93436591  0.56563960  0.49999466  1
  In  In4  1  0.74288076  0.50072666  0.24336162  1
  In  In5  1  0.25712011  0.49927420  0.75663825  1
  In  In6  1  0.43437188  0.93437674  0.36867374  1
  In  In7  1  0.99927551  0.75712285  0.75664230  1
  In  In8  1  0.00072295  0.24287893  0.24335969  1
  In  In9  1  0.75728347  0.00061508  0.75793397  1
  In  In10  1  0.49937952  0.74272435  0.24207062  1
  In  In11  1  0.06563182  0.43435936  0.49998784  1
  O  O0  1  0.00000545  0.99999709  0.49999721  1
  O  O1  1  0.74999877  0.75000839  0.00000249  1
  O  O2  1  0.50000180  0.00000512  0.00000521  1
  O  O3  1  0.25000838  0.24998751  0.00000267  1
  O  O4  1  0.49999996  0.49999127  0.49999725  1
  O  O5  1  0.99999955  0.50000272  0.00000496  1
loop_
_geom_bond_atom_site_label_1
_geom_bond_atom_site_label_2
_geom_bond_distance
_geom_bond_site_symmetry_2
Ba0 O4 2.803558 1_555
Ba0 In3 3.601833 1_555
Ba0 In0 3.635592 1_545
Ba0 In1 3.635667 1_555
Ba0 In6 3.851299 1_545
Ba0 In2 3.851668 1_555
Ba1 O0 2.803699 1_645
Ba1 In11 3.601732 1_655
Ba1 In10 3.635673 1_545
Ba1 In9 3.635721 1_555
Ba1 In6 3.851453 1_545
Ba1 In2 3.851735 1_555
Ba2 O4 2.845180 1_555
Ba2 O0 2.845185 1_655
Ba2 In4 3.599689 1_555
Ba2 In7 3.599825 1_555
Ba2 In3 3.623080 1_555
Ba2 In10 4.218472 1_555
Ba2 In9 4.218510 1_565
Ba3 O0 2.845123 1_545
Ba3 O4 2.845124 1_555
Ba3 In8 3.599757 1_555
Ba3 In5 3.599957 1_555
Ba3 In11 3.623252 1_555
Ba3 In0 4.218196 1_545
Ba3 In1 4.218435 1_555
Ba4 O2 2.726863 1_565
Ba4 O1 2.780309 1_555
Ba4 In10 3.875480 1_555
Ba4 In9 3.875493 1_564
Ba4 In8 3.886934 1_665
Ba4 In5 3.887099 1_554
Ba5 O0 2.727215 1_655
Ba5 O1 2.779787 1_555
Ba5 In4 3.875135 1_555
Ba5 In8 3.877742 1_665
Ba5 In10 3.885760 1_555
Ba5 In0 3.885853 1_655
Ba6 O0 2.727270 1_545
Ba6 O3 2.779851 1_556
Ba6 In5 3.875222 1_555
Ba6 In7 3.877646 1_445
Ba6 In1 3.885549 1_555
Ba6 In9 3.885986 1_455
Ba7 O5 2.804344 1_556
Ba7 In2 3.601261 1_555
Ba7 In7 3.634348 1_555
Ba7 In5 3.634551 1_655
Ba7 In3 3.850867 1_555
Ba7 In11 3.850999 1_655
Ba8 O2 2.844663 1_556
Ba8 O5 2.845472 1_556
Ba8 In1 3.599723 1_555
Ba8 In9 3.599869 1_555
Ba8 In2 3.623112 1_555
Ba8 In4 4.217541 1_556
Ba8 In8 4.217612 1_656
Ba9 O2 2.726787 1_555
Ba9 O3 2.780188 1_555
Ba9 In0 3.875425 1_545
Ba9 In1 3.875550 1_554
Ba9 In4 3.887008 1_555
Ba9 In7 3.887025 1_444
Ba10 O2 2.844700 1_565
Ba10 O5 2.845503 1_455
Ba10 In0 3.599625 1_555
Ba10 In10 3.599726 1_555
Ba10 In6 3.622805 1_555
Ba10 In7 4.217591 1_454
Ba10 In5 4.217829 1_554
Ba11 O5 2.804242 1_455
Ba11 In6 3.601294 1_555
Ba11 In4 3.634322 1_455
Ba11 In8 3.634473 1_555
Ba11 In3 3.850696 1_455
Ba11 In11 3.850732 1_555
Ba12 O4 2.727273 1_555
Ba12 O1 2.779846 1_556
Ba12 In7 3.875070 1_555
Ba12 In5 3.877784 1_555
Ba12 In9 3.885600 1_565
Ba12 In1 3.885951 1_555
Ba13 O5 2.726216 1_455
Ba13 O3 2.781291 1_555
Ba13 In10 3.875993 1_555
Ba13 In9 3.876048 1_454
Ba13 In8 3.884711 1_555
Ba13 In5 3.884929 1_554
Ba14 O4 2.803695 1_555
Ba14 In11 3.601695 1_555
Ba14 In10 3.635559 1_555
Ba14 In9 3.635821 1_565
Ba14 In2 3.851453 1_565
Ba14 In6 3.851795 1_555
Ba15 O3 2.811239 1_555
Ba15 O1 2.811245 1_555
Ba15 In1 3.780464 1_554
Ba15 In10 3.780578 1_555
Ba15 In4 3.781216 1_555
Ba15 In5 3.781473 1_554
Ba16 O5 2.726147 1_555
Ba16 O1 2.781166 1_555
Ba16 In0 3.875980 1_655
Ba16 In1 3.876094 1_554
Ba16 In4 3.884767 1_555
Ba16 In7 3.884843 1_554
Ba17 O2 2.804602 1_566
Ba17 In2 3.600416 1_565
Ba17 In7 3.635990 1_455
Ba17 In5 3.636193 1_555
Ba17 In3 3.850807 1_455
Ba17 In11 3.850989 1_555
Ba18 O0 2.803560 1_555
Ba18 In3 3.601734 1_455
Ba18 In0 3.635486 1_555
Ba18 In1 3.635766 1_565
Ba18 In2 3.851366 1_565
Ba18 In6 3.851613 1_555
Ba19 O1 2.811174 1_455
Ba19 O3 2.811181 1_565
Ba19 In0 3.780321 1_555
Ba19 In9 3.780549 1_464
Ba19 In7 3.781307 1_454
Ba19 In8 3.781355 1_565
Ba20 O4 2.727213 1_555
Ba20 O3 2.779789 1_555
Ba20 In8 3.875175 1_555
Ba20 In4 3.877719 1_555
Ba20 In0 3.885458 1_545
Ba20 In10 3.886140 1_555
Ba21 O2 2.804503 1_555
Ba21 In6 3.600374 1_545
Ba21 In4 3.635990 1_555
Ba21 In8 3.636118 1_655
Ba21 In11 3.850771 1_655
Ba21 In3 3.850785 1_555
In0 In6 3.152228 1_555
In1 In2 3.152309 1_555
In2 In6 2.892755 1_545
In2 In9 3.152335 1_555
In3 In4 3.151694 1_555
In3 In7 3.151850 1_555
In10 In6 3.152179 1_555
In11 In3 2.891810 1_455
In11 In8 3.151648 1_555
In11 In5 3.151871 1_555
