# generated using pymatgen
data_Re3(TeBr)7
_symmetry_space_group_name_H-M   'P 1'
_cell_length_a   13.32806873
_cell_length_b   13.32806873
_cell_length_c   13.32806866
_cell_angle_alpha   46.94157305
_cell_angle_beta   46.94157305
_cell_angle_gamma   46.94156992
_symmetry_Int_Tables_number   1
_chemical_formula_structural   Re3(TeBr)7
_chemical_formula_sum   'Re6 Te14 Br14'
_cell_volume   1155.23971748
_cell_formula_units_Z   2
loop_
 _symmetry_equiv_pos_site_id
 _symmetry_equiv_pos_as_xyz
  1  'x, y, z'
loop_
 _atom_site_type_symbol
 _atom_site_label
 _atom_site_symmetry_multiplicity
 _atom_site_fract_x
 _atom_site_fract_y
 _atom_site_fract_z
 _atom_site_occupancy
  Re  Re0  1  0.87269500  0.16551600  0.05651800  1
  Re  Re1  1  0.83448400  0.94348200  0.12730500  1
  Re  Re2  1  0.12730500  0.83448400  0.94348200  1
  Re  Re3  1  0.16551600  0.05651800  0.87269500  1
  Re  Re4  1  0.94348200  0.12730500  0.83448400  1
  Re  Re5  1  0.05651800  0.87269500  0.16551600  1
  Te  Te0  1  0.34837200  0.76278000  0.98196500  1
  Te  Te1  1  0.68859200  0.40014600  0.13299400  1
  Te  Te2  1  0.23722000  0.01803500  0.65162800  1
  Te  Te3  1  0.13299400  0.68859200  0.40014600  1
  Te  Te4  1  0.98196500  0.34837200  0.76278000  1
  Te  Te5  1  0.31140800  0.59985400  0.86700600  1
  Te  Te6  1  0.86700600  0.31140800  0.59985400  1
  Te  Te7  1  0.90638900  0.90638900  0.90638900  1
  Te  Te8  1  0.59985400  0.86700600  0.31140800  1
  Te  Te9  1  0.65162800  0.23722000  0.01803500  1
  Te  Te10  1  0.40014600  0.13299400  0.68859200  1
  Te  Te11  1  0.01803500  0.65162800  0.23722000  1
  Te  Te12  1  0.09361100  0.09361100  0.09361100  1
  Te  Te13  1  0.76278000  0.98196500  0.34837200  1
  Br  Br0  1  0.63226600  0.29306600  0.69825900  1
  Br  Br1  1  0.36773400  0.70693400  0.30174100  1
  Br  Br2  1  0.54951300  0.96410200  0.84942500  1
  Br  Br3  1  0.63698800  0.63698800  0.63698800  1
  Br  Br4  1  0.84942500  0.54951300  0.96410200  1
  Br  Br5  1  0.15057500  0.45048700  0.03589800  1
  Br  Br6  1  0.36301200  0.36301200  0.36301200  1
  Br  Br7  1  0.96410200  0.84942500  0.54951300  1
  Br  Br8  1  0.03589800  0.15057500  0.45048700  1
  Br  Br9  1  0.69825900  0.63226600  0.29306600  1
  Br  Br10  1  0.30174100  0.36773400  0.70693400  1
  Br  Br11  1  0.70693400  0.30174100  0.36773400  1
  Br  Br12  1  0.29306600  0.69825900  0.63226600  1
  Br  Br13  1  0.45048700  0.03589800  0.15057500  1
loop_
_geom_bond_atom_site_label_1
_geom_bond_atom_site_label_2
_geom_bond_distance
_geom_bond_site_symmetry_2
Re0 Te1 2.701570 1_555
Re0 Te12 2.705525 1_655
Re0 Te13 2.716665 1_545
Re0 Re5 2.721421 1_645
Re0 Re3 2.721421 1_654
Re0 Te9 2.721567 1_555
Re0 Te4 2.723990 1_554
Re0 Re4 2.737937 1_554
Re0 Re1 2.737937 1_545
Re1 Te8 2.701570 1_555
Re1 Te7 2.705525 1_554
Re1 Te11 2.716664 1_655
Re1 Re2 2.721421 1_654
Re1 Re4 2.721421 1_564
Re1 Te13 2.721567 1_555
Re1 Te9 2.723990 1_565
Re1 Re5 2.737937 1_655
Re2 Te5 2.701570 1_555
Re2 Te7 2.705525 1_455
Re2 Te2 2.716665 1_565
Re2 Re4 2.721421 1_465
Re2 Te0 2.721567 1_555
Re2 Te11 2.723990 1_556
Re2 Re5 2.737937 1_556
Re2 Re3 2.737937 1_565
Re3 Te10 2.701570 1_555
Re3 Te12 2.705525 1_556
Re3 Te4 2.716664 1_455
Re3 Re5 2.721421 1_546
Re3 Te2 2.721567 1_555
Re3 Te0 2.723990 1_545
Re3 Re4 2.737937 1_455
Re4 Te6 2.701570 1_555
Re4 Te7 2.705525 1_545
Re4 Te9 2.716665 1_556
Re4 Te4 2.721567 1_555
Re4 Te2 2.723990 1_655
Re5 Te3 2.701570 1_555
Re5 Te12 2.705525 1_565
Re5 Te0 2.716665 1_554
Re5 Te11 2.721567 1_555
Re5 Te13 2.723990 1_455
Br0 Te6 2.563541 1_555
Br1 Te3 2.563541 1_555
Br2 Te10 2.596999 1_565
Br3 Te6 3.341992 1_555
Br3 Te8 3.341992 1_555
Br3 Te5 3.341992 1_555
Br4 Te1 2.597000 1_556
Br5 Te5 2.597000 1_554
Br6 Te3 3.341992 1_555
Br6 Te10 3.341992 1_555
Br6 Te1 3.341992 1_555
Br7 Te3 2.596999 1_655
Br8 Te6 2.596999 1_455
Br9 Te8 2.563541 1_555
Br10 Te10 2.563541 1_555
Br11 Te1 2.563541 1_555
Br12 Te5 2.563541 1_555
Br13 Te8 2.596999 1_545
