# generated using pymatgen
data_Ga2I3
_symmetry_space_group_name_H-M   'P 1'
_cell_length_a   7.76292748
_cell_length_b   8.59399610
_cell_length_c   11.85529529
_cell_angle_alpha   90.00000000
_cell_angle_beta   91.81430966
_cell_angle_gamma   90.00000000
_symmetry_Int_Tables_number   1
_chemical_formula_structural   Ga2I3
_chemical_formula_sum   'Ga8 I12'
_cell_volume   790.52440909
_cell_formula_units_Z   4
loop_
 _symmetry_equiv_pos_site_id
 _symmetry_equiv_pos_as_xyz
  1  'x, y, z'
loop_
 _atom_site_type_symbol
 _atom_site_label
 _atom_site_symmetry_multiplicity
 _atom_site_fract_x
 _atom_site_fract_y
 _atom_site_fract_z
 _atom_site_occupancy
  Ga  Ga0  1  0.56341934  0.59529686  0.44020603  1
  Ga  Ga1  1  0.53363829  0.88896285  0.80529024  1
  Ga  Ga2  1  0.96636171  0.38896285  0.69470976  1
  Ga  Ga3  1  0.06341934  0.90470314  0.94020603  1
  Ga  Ga4  1  0.93658066  0.09529686  0.05979397  1
  Ga  Ga5  1  0.46636271  0.11103715  0.19470976  1
  Ga  Ga6  1  0.03363829  0.61103715  0.30529024  1
  Ga  Ga7  1  0.43658066  0.40470314  0.55979397  1
  I  I0  1  0.14856910  0.02007270  0.74571640  1
  I  I1  1  0.35143090  0.52007270  0.75428360  1
  I  I2  1  0.14871451  0.29515981  0.46483731  1
  I  I3  1  0.64871451  0.20484019  0.96483731  1
  I  I4  1  0.64856910  0.47992730  0.24571640  1
  I  I5  1  0.85721426  0.66971429  0.90529069  1
  I  I6  1  0.85143090  0.97992730  0.25428360  1
  I  I7  1  0.64278574  0.16971429  0.59470931  1
  I  I8  1  0.35721426  0.83028571  0.40529069  1
  I  I9  1  0.85128549  0.70484019  0.53516269  1
  I  I10  1  0.35128549  0.79515981  0.03516269  1
  I  I11  1  0.14278574  0.33028571  0.09470931  1
loop_
_geom_bond_atom_site_label_1
_geom_bond_atom_site_label_2
_geom_bond_distance
_geom_bond_site_symmetry_2
Ga0 Ga7 2.398092 1_555
Ga0 I8 2.601952 1_555
Ga0 I4 2.613979 1_555
Ga0 I9 2.643496 1_555
Ga1 I10 3.213221 1_556
Ga1 I0 3.251217 1_565
Ga1 I5 3.328189 1_555
Ga2 I2 3.213221 1_655
Ga2 I1 3.251217 1_655
Ga2 I7 3.328189 1_555
Ga3 Ga4 2.398092 1_466
Ga3 I5 2.601952 1_455
Ga3 I0 2.613979 1_565
Ga3 I10 2.643496 1_556
Ga4 I11 2.601952 1_655
Ga4 I6 2.613979 1_545
Ga4 I3 2.643496 1_554
Ga5 I3 3.213217 1_554
Ga5 I6 3.251210 1_545
Ga5 I11 3.328195 1_555
Ga6 I9 3.213221 1_455
Ga6 I4 3.251217 1_455
Ga6 I8 3.328189 1_555
Ga7 I7 2.601952 1_555
Ga7 I1 2.613979 1_555
Ga7 I2 2.643496 1_555
