# generated using pymatgen
data_Na3Ca2Ta3Ti2O15
_symmetry_space_group_name_H-M   'P 1'
_cell_length_a   5.48879800
_cell_length_b   5.56912020
_cell_length_c   38.93469392
_cell_angle_alpha   89.95954724
_cell_angle_beta   89.94452264
_cell_angle_gamma   89.91452626
_symmetry_Int_Tables_number   1
_chemical_formula_structural   Na3Ca2Ta3Ti2O15
_chemical_formula_sum   'Na12 Ca8 Ta12 Ti8 O60'
_cell_volume   1190.14481677
_cell_formula_units_Z   4
loop_
 _symmetry_equiv_pos_site_id
 _symmetry_equiv_pos_as_xyz
  1  'x, y, z'
loop_
 _atom_site_type_symbol
 _atom_site_label
 _atom_site_symmetry_multiplicity
 _atom_site_fract_x
 _atom_site_fract_y
 _atom_site_fract_z
 _atom_site_occupancy
  Na  Na0  1  0.00935100  0.01620400  0.84948900  1
  Na  Na1  1  0.00985600  0.02036300  0.64990700  1
  Na  Na2  1  0.00597700  0.02540600  0.45029900  1
  Na  Na3  1  0.01202700  0.02014600  0.24878300  1
  Na  Na4  1  0.01243900  0.03704700  0.04795600  1
  Na  Na5  1  0.49462300  0.51215200  0.64978600  1
  Na  Na6  1  0.49926800  0.50935600  0.84876500  1
  Na  Na7  1  0.48001900  0.52208400  0.44893100  1
  Na  Na8  1  0.49172600  0.51833000  0.24837800  1
  Na  Na9  1  0.49678000  0.53170000  0.04880800  1
  Na  Na10  1  0.50016100  0.47563700  0.35352800  1
  Na  Na11  1  0.50980300  0.47532300  0.15272800  1
  Ca  Ca0  1  0.51747800  0.46072000  0.94914100  1
  Ca  Ca1  1  0.50905200  0.46158600  0.74953700  1
  Ca  Ca2  1  0.51049700  0.46147200  0.55024000  1
  Ca  Ca3  1  0.99462800  0.94709300  0.94925100  1
  Ca  Ca4  1  0.98862800  0.94625000  0.74973300  1
  Ca  Ca5  1  0.99005900  0.94642000  0.55040600  1
  Ca  Ca6  1  0.98187800  0.95412800  0.35363500  1
  Ca  Ca7  1  0.99083000  0.95648100  0.15256200  1
  Ta  Ta0  1  0.49883700  0.99231400  0.89899100  1
  Ta  Ta1  1  0.49523600  0.99306200  0.69930100  1
  Ta  Ta2  1  0.49660400  0.99180400  0.49941100  1
  Ta  Ta3  1  0.49726900  0.00428300  0.09995900  1
  Ta  Ta4  1  0.49560700  0.99798600  0.29987200  1
  Ta  Ta5  1  0.50301300  0.99431700  0.00068500  1
  Ta  Ta6  1  0.49583400  0.99062200  0.80047100  1
  Ta  Ta7  1  0.49607700  0.99138300  0.60088100  1
  Ta  Ta8  1  0.48628800  0.00209400  0.40080600  1
  Ta  Ta9  1  0.49994900  0.99494600  0.20070100  1
  Ta  Ta10  1  0.00010500  0.49419300  0.30108100  1
  Ta  Ta11  1  0.00005200  0.50053800  0.09916100  1
  Ti  Ti0  1  0.01414300  0.48894500  0.99843200  1
  Ti  Ti1  1  0.00633200  0.48572800  0.89622400  1
  Ti  Ti2  1  0.00599800  0.48496600  0.60085100  1
  Ti  Ti3  1  0.00485500  0.48489600  0.49999300  1
  Ti  Ti4  1  0.00299700  0.48744700  0.20157700  1
  Ti  Ti5  1  0.00753300  0.48421200  0.79898100  1
  Ti  Ti6  1  0.00168900  0.48659200  0.69768500  1
  Ti  Ti7  1  0.98349400  0.49540800  0.40360200  1
  O  O0  1  0.08395500  0.51991300  0.95013600  1
  O  O1  1  0.07909600  0.52078100  0.75037000  1
  O  O2  1  0.07980900  0.51980600  0.55094500  1
  O  O3  1  0.06996600  0.52026600  0.35026900  1
  O  O4  1  0.07234700  0.52004000  0.14912400  1
  O  O5  1  0.21298700  0.78879800  0.60658500  1
  O  O6  1  0.21474100  0.77966900  0.40713200  1
  O  O7  1  0.22012000  0.78162500  0.20570900  1
  O  O8  1  0.21001500  0.79141500  0.80554200  1
  O  O9  1  0.21368900  0.79047400  0.89356700  1
  O  O10  1  0.21137100  0.79012700  0.69383500  1
  O  O11  1  0.21042800  0.79136700  0.49491500  1
  O  O12  1  0.21783500  0.78334500  0.29316600  1
  O  O13  1  0.21304900  0.79824600  0.00489100  1
  O  O14  1  0.21601800  0.79264700  0.09266000  1
  O  O15  1  0.29012000  0.29085700  0.89263500  1
  O  O16  1  0.28587300  0.28962600  0.80570300  1
  O  O17  1  0.28529100  0.29098600  0.69356400  1
  O  O18  1  0.28393000  0.28875400  0.60695000  1
  O  O19  1  0.26840900  0.27805700  0.40809300  1
  O  O20  1  0.28630900  0.29283400  0.49446200  1
  O  O21  1  0.28827900  0.28798000  0.09119500  1
  O  O22  1  0.29399700  0.29464000  0.00578400  1
  O  O23  1  0.28339900  0.28178200  0.29254300  1
  O  O24  1  0.27361000  0.27819500  0.20718100  1
  O  O25  1  0.42221600  0.02759900  0.94919200  1
  O  O26  1  0.41570100  0.02401100  0.74968000  1
  O  O27  1  0.41480300  0.01316100  0.35027700  1
  O  O28  1  0.41562700  0.02546500  0.55066800  1
  O  O29  1  0.42046000  0.02037400  0.14937500  1
  O  O30  1  0.57866500  0.99238700  0.64997200  1
  O  O31  1  0.57787000  0.98900500  0.84939100  1
  O  O32  1  0.57307200  0.99001400  0.45098300  1
  O  O33  1  0.57462100  0.98871200  0.25071100  1
  O  O34  1  0.57840300  0.98719900  0.04961800  1
  O  O35  1  0.71603600  0.72443200  0.98907500  1
  O  O36  1  0.72003800  0.72366100  0.90867700  1
  O  O37  1  0.71668000  0.72521800  0.70949300  1
  O  O38  1  0.71398800  0.72347000  0.78975000  1
  O  O39  1  0.72428200  0.73175300  0.39313100  1
  O  O40  1  0.71716700  0.72496800  0.59080000  1
  O  O41  1  0.71610600  0.72566800  0.51095600  1
  O  O42  1  0.72261300  0.72623200  0.30918500  1
  O  O43  1  0.72903300  0.73441600  0.19155400  1
  O  O44  1  0.72227800  0.72876600  0.10811100  1
  O  O45  1  0.78519300  0.22287600  0.90848500  1
  O  O46  1  0.78864000  0.22163500  0.98996900  1
  O  O47  1  0.77895800  0.22335300  0.78995300  1
  O  O48  1  0.77953500  0.22507200  0.70949000  1
  O  O49  1  0.78125900  0.22302200  0.51051600  1
  O  O50  1  0.78498900  0.21380000  0.30964900  1
  O  O51  1  0.77926500  0.22518300  0.59083800  1
  O  O52  1  0.77437800  0.22458800  0.39247900  1
  O  O53  1  0.78871700  0.21669800  0.10815700  1
  O  O54  1  0.77931500  0.22599400  0.19175900  1
  O  O55  1  0.93410100  0.48643900  0.84951900  1
  O  O56  1  0.93052900  0.48677600  0.65027000  1
  O  O57  1  0.92369800  0.48782700  0.45171100  1
  O  O58  1  0.92761400  0.49073300  0.25013500  1
  O  O59  1  0.93251200  0.49362900  0.04898700  1
loop_
_geom_bond_atom_site_label_1
_geom_bond_atom_site_label_2
_geom_bond_distance
_geom_bond_site_symmetry_2
Na0 O31 2.373384 1_445
Na0 O8 2.388155 1_545
Na0 O9 2.404154 1_545
Na0 O55 2.650559 1_455
Na0 O16 2.743512 1_555
Na0 O15 2.748127 1_555
Na0 O45 2.847585 1_455
Na0 O47 2.881109 1_455
Na0 O55 2.979705 1_445
Na1 O30 2.372074 1_445
Na1 O5 2.397165 1_545
Na1 O10 2.406036 1_545
Na1 O56 2.633155 1_455
Na1 O18 2.700516 1_555
Na1 O17 2.731597 1_555
Na1 O51 2.861799 1_455
Na1 O48 2.876337 1_455
Na2 O32 2.384703 1_445
Na2 O11 2.443748 1_545
Na2 O6 2.450607 1_545
Na2 O19 2.598690 1_555
Na2 O57 2.614520 1_455
Na2 O20 2.749154 1_555
Na2 O52 2.812855 1_455
Na2 O49 2.867643 1_455
Na3 O33 2.408561 1_445
Na3 O7 2.424166 1_545
Na3 O12 2.448975 1_545
Na3 O24 2.597830 1_555
Na3 O58 2.661264 1_455
Na3 O23 2.694343 1_555
Na3 O54 2.805816 1_455
Na3 O50 2.885460 1_455
Na3 O58 2.985650 1_445
Na4 O34 2.399673 1_445
Na4 O13 2.405765 1_545
Na4 O14 2.475180 1_545
Na4 O59 2.580016 1_455
Na4 O21 2.663449 1_555
Na4 O22 2.672204 1_555
Na4 O46 2.767899 1_454
Na4 O53 2.827873 1_455
Na5 O18 2.382808 1_555
Na5 O17 2.395823 1_555
Na5 O56 2.396651 1_555
Na5 O30 2.714670 1_555
Na5 O5 2.754408 1_555
Na5 O10 2.783239 1_555
Na5 O40 2.857652 1_555
Na5 O37 2.882939 1_555
Na5 O30 2.930484 1_545
Na6 O16 2.385652 1_555
Na6 O55 2.390138 1_555
Na6 O15 2.390288 1_555
Na6 O31 2.706605 1_555
Na6 O8 2.795385 1_555
Na6 O9 2.818165 1_555
Na6 O38 2.843505 1_555
Na6 O36 2.889254 1_555
Na6 O31 2.929288 1_545
Na7 O19 2.394881 1_555
Na7 O20 2.429049 1_555
Na7 O57 2.444938 1_555
Na7 O6 2.611809 1_555
Na7 O32 2.657557 1_555
Na7 O11 2.763347 1_555
Na7 O39 2.806494 1_555
Na8 O58 2.398243 1_555
Na8 O24 2.409579 1_555
Na8 O23 2.448939 1_555
Na8 O33 2.661131 1_555
Na8 O7 2.669704 1_555
Na8 O12 2.733330 1_555
Na8 O43 2.834597 1_555
Na8 O42 2.926726 1_555
Na8 O33 2.985055 1_545
Na9 O59 2.400726 1_555
Na9 O22 2.408108 1_555
Na9 O21 2.423502 1_555
Na9 O34 2.576865 1_555
Na9 O14 2.719111 1_555
Na9 O13 2.747226 1_555
Na9 O35 2.829151 1_554
Na9 O44 2.842674 1_555
Na10 O3 2.377431 1_555
Na10 O39 2.436656 1_555
Na10 O42 2.533149 1_555
Na10 O52 2.552488 1_555
Na10 O27 2.621705 1_555
Na10 O19 2.708850 1_555
Na10 O50 2.735084 1_555
Na10 O23 2.869134 1_555
Na11 O43 2.413903 1_555
Na11 O4 2.417818 1_555
Na11 O44 2.523394 1_555
Na11 O54 2.533966 1_555
Na11 O29 2.584817 1_555
Na11 O24 2.715958 1_555
Na11 O53 2.724232 1_555
Na11 O21 2.884376 1_555
Ca0 O0 2.402038 1_555
Ca0 O35 2.402794 1_555
Ca0 O36 2.420890 1_555
Ca0 O25 2.468886 1_555
Ca0 O45 2.532206 1_555
Ca0 O46 2.551599 1_555
Ca0 O22 2.686835 1_556
Ca0 O15 2.702623 1_555
Ca1 O1 2.382562 1_555
Ca1 O38 2.419772 1_555
Ca1 O37 2.425587 1_555
Ca1 O26 2.490941 1_555
Ca1 O48 2.522461 1_555
Ca1 O47 2.535124 1_555
Ca1 O17 2.678059 1_555
Ca1 O16 2.682385 1_555
Ca2 O2 2.385832 1_555
Ca2 O41 2.403392 1_555
Ca2 O40 2.438387 1_555
Ca2 O28 2.484183 1_555
Ca2 O49 2.521269 1_555
Ca2 O51 2.530259 1_555
Ca2 O20 2.669082 1_555
Ca2 O18 2.709645 1_555
Ca3 O25 2.390041 1_665
Ca3 O0 2.428526 1_655
Ca3 O46 2.474699 1_565
Ca3 O45 2.488858 1_565
Ca3 O35 2.505679 1_555
Ca3 O36 2.515639 1_555
Ca3 O13 2.610927 1_656
Ca3 O9 2.627051 1_655
Ca4 O26 2.384418 1_665
Ca4 O1 2.420349 1_655
Ca4 O47 2.480481 1_565
Ca4 O48 2.485570 1_565
Ca4 O37 2.492125 1_555
Ca4 O38 2.497502 1_555
Ca4 O8 2.634578 1_655
Ca4 O10 2.642280 1_655
Ca5 O28 2.377654 1_665
Ca5 O2 2.425759 1_655
Ca5 O49 2.468464 1_565
Ca5 O41 2.478772 1_555
Ca5 O51 2.494294 1_565
Ca5 O40 2.497248 1_555
Ca5 O11 2.621261 1_655
Ca5 O5 2.655443 1_655
Ca6 O27 2.402780 1_665
Ca6 O52 2.418247 1_565
Ca6 O39 2.428138 1_555
Ca6 O3 2.466972 1_655
Ca6 O50 2.487483 1_565
Ca6 O42 2.577654 1_555
Ca6 O6 2.629569 1_655
Ca6 O12 2.849291 1_655
Ca7 O29 2.388465 1_665
Ca7 O43 2.428467 1_555
Ca7 O54 2.433997 1_565
Ca7 O4 2.474468 1_655
Ca7 O53 2.513017 1_565
Ca7 O44 2.605745 1_555
Ca7 O7 2.610086 1_655
Ca7 O14 2.791727 1_655
O0 Ti0 1.926340 1_555
O0 Ti1 2.150885 1_555
O1 Ti5 1.943234 1_555
O1 Ti6 2.104038 1_555
O2 Ti2 1.993865 1_555
O2 Ti3 2.035898 1_555
O3 Ta10 1.959026 1_555
O3 Ti7 2.134054 1_455
O4 Ta11 1.988805 1_555
O4 Ti4 2.084890 1_555
O5 Ta7 1.934109 1_555
O5 Ti2 2.051949 1_555
O6 Ta8 1.954719 1_565
O6 Ti7 2.035369 1_455
O7 Ta9 1.952688 1_555
O7 Ti4 2.033906 1_555
O8 Ta6 1.932665 1_555
O8 Ti5 2.057736 1_555
O9 Ta0 1.940092 1_555
O9 Ti1 2.047371 1_555
O10 Ta1 1.938147 1_555
O10 Ti6 2.051752 1_555
O11 Ta2 1.936494 1_555
O11 Ti3 2.056739 1_555
O12 Ta4 1.956584 1_555
O12 Ta10 2.029936 1_555
O13 Ta5 1.938202 1_555
O13 Ti0 2.056465 1_554
O14 Ta3 1.964631 1_565
O14 Ta11 2.029843 1_555
O15 Ti1 1.902197 1_555
O15 Ta0 2.032793 1_545
O16 Ti5 1.890054 1_555
O16 Ta6 2.033901 1_545
O17 Ti6 1.905321 1_555
O17 Ta1 2.030991 1_545
O18 Ti2 1.890236 1_555
O18 Ta7 2.036824 1_545
O19 Ta8 1.966496 1_555
O19 Ti7 1.983924 1_455
O20 Ti3 1.889907 1_555
O20 Ta2 2.043091 1_545
O21 Ta3 1.980679 1_555
O21 Ta11 1.998563 1_555
O22 Ti0 1.899431 1_554
O22 Ta5 2.036483 1_545
O23 Ta10 1.980347 1_555
O23 Ta4 1.982570 1_545
O24 Ti4 1.899207 1_555
O24 Ta9 2.022247 1_545
O25 Ta0 2.008605 1_545
O25 Ta5 2.061907 1_546
O26 Ta1 2.016513 1_545
O26 Ta6 2.034597 1_545
O27 Ta8 2.007335 1_555
O27 Ta4 2.013382 1_545
O28 Ta7 2.013466 1_545
O28 Ta2 2.052797 1_545
O29 Ta3 1.971317 1_555
O29 Ta9 2.050601 1_545
O30 Ta7 1.964804 1_555
O30 Ta1 1.974019 1_555
O31 Ta6 1.957622 1_555
O31 Ta0 1.978966 1_555
O32 Ta2 1.931312 1_555
O32 Ta8 2.012362 1_565
O33 Ta4 1.962875 1_555
O33 Ta9 1.990450 1_555
O34 Ta5 1.950366 1_555
O34 Ta3 2.011830 1_565
O35 Ta5 1.955818 1_556
O35 Ti0 2.126976 1_655
O36 Ta0 1.962013 1_555
O36 Ti1 2.110323 1_655
O37 Ta1 1.963298 1_555
O37 Ti6 2.101884 1_655
O38 Ta6 1.953500 1_555
O38 Ti5 2.120059 1_655
O39 Ti7 1.979320 1_555
O39 Ta8 2.014062 1_565
O40 Ta7 1.955139 1_555
O40 Ti2 2.108807 1_655
O41 Ta2 1.960900 1_555
O41 Ti3 2.117827 1_655
O42 Ta4 1.992214 1_555
O42 Ta10 2.020662 1_655
O43 Ta9 1.951275 1_555
O43 Ti4 2.073508 1_655
O44 Ta3 1.993690 1_565
O44 Ta11 2.013778 1_655
O45 Ti1 1.961436 1_655
O45 Ta0 2.064844 1_545
O46 Ti0 1.965637 1_655
O46 Ta5 2.058757 1_546
O47 Ti5 1.953226 1_655
O47 Ta6 2.065568 1_545
O48 Ti6 1.955138 1_655
O48 Ta1 2.066361 1_545
O49 Ti3 1.950522 1_655
O49 Ta2 2.072269 1_545
O50 Ta10 1.986912 1_655
O50 Ta4 2.029742 1_545
O51 Ti2 1.949609 1_655
O51 Ta7 2.066021 1_545
O52 Ti7 1.945968 1_555
O52 Ta8 2.035968 1_555
O53 Ta11 1.992702 1_655
O53 Ta3 2.016802 1_555
O54 Ti4 1.944384 1_655
O54 Ta9 2.032826 1_545
O55 Ti1 1.861537 1_655
O55 Ti5 2.008198 1_655
O56 Ti6 1.887324 1_655
O56 Ti2 1.967835 1_655
O57 Ti7 1.901783 1_555
O57 Ti3 1.932374 1_655
O58 Ti4 1.935040 1_655
O58 Ta10 2.023568 1_655
O59 Ta11 1.989135 1_655
O59 Ti0 2.018450 1_654
