# generated using pymatgen
data_NaCa2TiSi2O8F
_symmetry_space_group_name_H-M   'P 1'
_cell_length_a   5.80429400
_cell_length_b   7.60714591
_cell_length_c   19.27502629
_cell_angle_alpha   101.30828057
_cell_angle_beta   90.28643214
_cell_angle_gamma   89.97194391
_symmetry_Int_Tables_number   1
_chemical_formula_structural   NaCa2TiSi2O8F
_chemical_formula_sum   'Na4 Ca8 Ti4 Si8 O32 F4'
_cell_volume   834.53870000
_cell_formula_units_Z   4
loop_
 _symmetry_equiv_pos_site_id
 _symmetry_equiv_pos_as_xyz
  1  'x, y, z'
loop_
 _atom_site_type_symbol
 _atom_site_label
 _atom_site_symmetry_multiplicity
 _atom_site_fract_x
 _atom_site_fract_y
 _atom_site_fract_z
 _atom_site_occupancy
  Na  Na0  1  0.27008200  0.50004600  0.49595000  1
  Na  Na1  1  0.97694800  0.00077800  0.99709300  1
  Na  Na2  1  0.98139900  0.49664700  0.99798600  1
  Na  Na3  1  0.27589000  0.04594500  0.49807900  1
  Ca  Ca0  1  0.07512000  0.65806200  0.32855000  1
  Ca  Ca1  1  0.46454100  0.32963800  0.67426600  1
  Ca  Ca2  1  0.78636000  0.83689900  0.17641500  1
  Ca  Ca3  1  0.46176800  0.83115200  0.67192900  1
  Ca  Ca4  1  0.18756700  0.65765000  0.82177500  1
  Ca  Ca5  1  0.77877300  0.33467900  0.17905500  1
  Ca  Ca6  1  0.17720700  0.16203500  0.82347300  1
  Ca  Ca7  1  0.07197800  0.15420300  0.32664800  1
  Ti  Ti0  1  0.77601200  0.87214300  0.50096100  1
  Ti  Ti1  1  0.53499500  0.23669200  0.97497100  1
  Ti  Ti2  1  0.41125100  0.76376900  0.02697400  1
  Ti  Ti3  1  0.78013900  0.31480300  0.50299100  1
  Si  Si0  1  0.29294000  0.09460900  0.15321600  1
  Si  Si1  1  0.57923400  0.43165000  0.35444200  1
  Si  Si2  1  0.68456500  0.90443300  0.84446100  1
  Si  Si3  1  0.68421600  0.44180100  0.84797700  1
  Si  Si4  1  0.95017600  0.58272700  0.65088300  1
  Si  Si5  1  0.94735000  0.04952100  0.65037000  1
  Si  Si6  1  0.57678900  0.89947600  0.35152400  1
  Si  Si7  1  0.29117500  0.56025500  0.15698500  1
  O  O0  1  0.71124400  0.77274900  0.04809500  1
  O  O1  1  0.70290400  0.58978000  0.68622800  1
  O  O2  1  0.66425000  0.41107300  0.92853700  1
  O  O3  1  0.68121100  0.27645600  0.05827900  1
  O  O4  1  0.66661000  0.02137400  0.92414000  1
  O  O5  1  0.23422800  0.22805700  0.95348900  1
  O  O6  1  0.31910700  0.91100900  0.32520800  1
  O  O7  1  0.05711400  0.60062600  0.20172400  1
  O  O8  1  0.54070500  0.26151400  0.55513100  1
  O  O9  1  0.61114800  0.98655200  0.43486800  1
  O  O10  1  0.60903700  0.41839200  0.43650500  1
  O  O11  1  0.31976200  0.39862600  0.32754500  1
  O  O12  1  0.05668500  0.09040700  0.19604500  1
  O  O13  1  0.95140800  0.05324800  0.56623800  1
  O  O14  1  0.80398800  0.38617000  0.30614700  1
  O  O15  1  0.27316300  0.98375000  0.07255700  1
  O  O16  1  0.45153400  0.90004400  0.79907400  1
  O  O17  1  0.26286200  0.60484400  0.07857100  1
  O  O18  1  0.53943800  0.09291000  0.18863800  1
  O  O19  1  0.70441600  0.08297600  0.68728200  1
  O  O20  1  0.93970400  0.90708300  0.81471700  1
  O  O21  1  0.98574000  0.73074000  0.45115000  1
  O  O22  1  0.80158200  0.90084500  0.30388000  1
  O  O23  1  0.93905200  0.40687300  0.81867400  1
  O  O24  1  0.55878000  0.78268100  0.54897900  1
  O  O25  1  0.96755900  0.47308400  0.57014000  1
  O  O26  1  0.18606100  0.10150800  0.69154800  1
  O  O27  1  0.00855600  0.20882400  0.44662800  1
  O  O28  1  0.45331700  0.39560800  0.80216800  1
  O  O29  1  0.54027200  0.59187200  0.19134000  1
  O  O30  1  0.18844000  0.58086600  0.69377600  1
  O  O31  1  0.27227200  0.71969300  0.94269600  1
  F  F0  1  0.68337100  0.68370000  0.86580200  1
  F  F1  1  0.98416100  0.80440200  0.63302500  1
  F  F2  1  0.26087900  0.31845900  0.13393300  1
  F  F3  1  0.57996700  0.67059300  0.36427000  1
loop_
_geom_bond_atom_site_label_1
_geom_bond_atom_site_label_2
_geom_bond_distance
_geom_bond_site_symmetry_2
Na0 O25 2.304515 1_455
Na0 O10 2.304683 1_555
Na0 O21 2.669547 1_455
Na0 O27 2.697925 1_555
Na0 O24 2.756797 1_555
Na0 O8 2.802178 1_555
Na1 O15 2.266557 1_646
Na1 O4 2.303762 1_555
Na1 O5 2.551592 1_655
Na1 O0 2.653380 1_546
Na1 O31 2.782971 1_645
Na1 O3 2.789642 1_556
Na2 O17 2.287715 1_656
Na2 O2 2.288915 1_555
Na2 O5 2.527099 1_655
Na2 O0 2.649430 1_556
Na2 O31 2.755909 1_655
Na2 O3 2.824661 1_556
Na3 O13 2.296135 1_455
Na3 O9 2.298313 1_545
Na3 O27 2.321873 1_555
Na3 O8 2.353585 1_555
Na3 O24 2.901833 1_545
Na3 O21 2.922683 1_445
Ca0 O21 2.378809 1_455
Ca0 O7 2.399246 1_555
Ca0 O6 2.400927 1_555
Ca0 O11 2.427799 1_555
Ca0 O22 2.547916 1_455
Ca0 O14 2.566549 1_455
Ca1 O8 2.297902 1_555
Ca1 O19 2.387651 1_555
Ca1 O1 2.388317 1_555
Ca1 O28 2.418727 1_555
Ca1 O26 2.443392 1_555
Ca1 O30 2.466422 1_555
Ca2 O18 2.392300 1_565
Ca2 O22 2.410377 1_555
Ca2 O29 2.411293 1_555
Ca2 O12 2.456612 1_665
Ca2 O0 2.462087 1_555
Ca2 O7 2.504327 1_655
Ca3 O19 2.348846 1_565
Ca3 O1 2.366106 1_555
Ca3 O24 2.395773 1_555
Ca3 O16 2.404570 1_555
Ca3 O26 2.575168 1_565
Ca3 O30 2.577474 1_555
Ca3 F1 2.865062 1_455
Ca4 O31 2.335435 1_555
Ca4 O23 2.383416 1_455
Ca4 O20 2.405263 1_455
Ca4 O30 2.421397 1_555
Ca4 O28 2.490600 1_555
Ca4 O16 2.502973 1_555
Ca5 O18 2.341957 1_555
Ca5 O3 2.349243 1_555
Ca5 O29 2.370503 1_555
Ca5 O14 2.407498 1_555
Ca5 O12 2.528373 1_655
Ca5 O7 2.558005 1_655
Ca6 O23 2.334975 1_455
Ca6 O20 2.358446 1_445
Ca6 O5 2.477981 1_555
Ca6 O28 2.487904 1_555
Ca6 O26 2.494571 1_555
Ca6 O16 2.522969 1_545
Ca7 O27 2.299538 1_555
Ca7 O6 2.336345 1_545
Ca7 O11 2.348561 1_555
Ca7 O14 2.440118 1_455
Ca7 O22 2.456576 1_445
Ca7 O12 2.469670 1_555
O0 Ti2 1.784508 1_555
O1 Si4 1.588173 1_555
O2 Si3 1.619697 1_555
O2 Ti1 1.896557 1_555
O3 Ti1 1.785041 1_554
O4 Si2 1.620696 1_545
O4 Ti1 1.898243 1_555
O5 Ti1 1.790417 1_555
O6 Si6 1.584845 1_555
O7 Si7 1.609683 1_555
O8 Ti3 1.811087 1_555
O9 Si6 1.624456 1_555
O9 Ti0 1.928190 1_555
O10 Si1 1.613038 1_555
O10 Ti3 1.905810 1_555
O11 Si1 1.594230 1_555
O12 Si0 1.607693 1_555
O13 Si5 1.627731 1_555
O13 Ti0 1.956099 1_545
O14 Si1 1.604202 1_555
O15 Si0 1.620369 1_565
O15 Ti2 1.908885 1_555
O16 Si2 1.603959 1_555
O17 Si7 1.620187 1_555
O17 Ti2 1.916674 1_555
O18 Si0 1.583364 1_555
O19 Si5 1.580478 1_555
O20 Si2 1.592237 1_555
O21 Ti0 1.779364 1_555
O22 Si6 1.600503 1_555
O23 Si3 1.589526 1_555
O24 Ti0 1.780207 1_555
O25 Si4 1.618767 1_555
O25 Ti3 1.919483 1_555
O26 Si5 1.603919 1_455
O27 Ti3 1.804945 1_455
O28 Si3 1.601941 1_555
O29 Si7 1.585902 1_555
O30 Si4 1.609174 1_455
O31 Ti2 1.782014 1_556
F0 Si3 1.804528 1_555
F0 Si2 1.805468 1_555
F1 Si4 1.797135 1_555
F1 Si5 1.841252 1_565
F2 Si7 1.814022 1_555
F2 Si0 1.822010 1_555
F3 Si1 1.790197 1_555
F3 Si6 1.805539 1_555
