# generated using pymatgen
data_Sn2H21C6ClO2
_symmetry_space_group_name_H-M   'P 1'
_cell_length_a   13.06138900
_cell_length_b   10.83719200
_cell_length_c   15.44884796
_cell_angle_alpha   48.98820597
_cell_angle_beta   90.00000000
_cell_angle_gamma   90.00000000
_symmetry_Int_Tables_number   1
_chemical_formula_structural   Sn2H21C6ClO2
_chemical_formula_sum   'Sn8 H84 C24 Cl4 O8'
_cell_volume   1650.07758836
_cell_formula_units_Z   4
loop_
 _symmetry_equiv_pos_site_id
 _symmetry_equiv_pos_as_xyz
  1  'x, y, z'
loop_
 _atom_site_type_symbol
 _atom_site_label
 _atom_site_symmetry_multiplicity
 _atom_site_fract_x
 _atom_site_fract_y
 _atom_site_fract_z
 _atom_site_occupancy
  Sn  Sn0  1  0.86360300  0.05594200  0.72080100  1
  Sn  Sn1  1  0.37699400  0.55636700  0.75240500  1
  Sn  Sn2  1  0.87699400  0.44363300  0.74759500  1
  Sn  Sn3  1  0.62300600  0.44363300  0.24759500  1
  Sn  Sn4  1  0.13639700  0.94405800  0.27919900  1
  Sn  Sn5  1  0.12300600  0.55636700  0.25240500  1
  Sn  Sn6  1  0.63639700  0.05594200  0.22080100  1
  Sn  Sn7  1  0.36360300  0.94405800  0.77919900  1
  H  H0  1  0.21247700  0.35776400  0.80765700  1
  H  H1  1  0.52959800  0.41350800  0.91172500  1
  H  H2  1  0.75448400  0.94188500  0.63226900  1
  H  H3  1  0.11832700  0.51269700  0.99704800  1
  H  H4  1  0.14658100  0.15926400  0.04743300  1
  H  H5  1  0.55286200  0.81202400  0.81424800  1
  H  H6  1  0.45983000  0.69745300  0.53817100  1
  H  H7  1  0.25290800  0.20087600  0.09839600  1
  H  H8  1  0.93459200  0.98605700  0.30486100  1
  H  H9  1  0.71792300  0.48000700  0.84551700  1
  H  H10  1  0.04946900  0.98469300  0.82252600  1
  H  H11  1  0.09192600  0.33520300  0.48099600  1
  H  H12  1  0.74387400  0.97041700  0.89634500  1
  H  H13  1  0.13063500  0.96208200  0.44902100  1
  H  H14  1  0.38167300  0.51269700  0.49704800  1
  H  H15  1  0.04017000  0.69745300  0.03817100  1
  H  H16  1  0.53318200  0.37144500  0.62719100  1
  H  H17  1  0.90807400  0.66479700  0.51900400  1
  H  H18  1  0.53798800  0.73889600  0.61232700  1
  H  H19  1  0.06540800  0.01394300  0.69513900  1
  H  H20  1  0.85341900  0.84073600  0.95256700  1
  H  H21  1  0.23609800  0.83895100  0.47079000  1
  H  H22  1  0.84414900  0.43111900  0.05132500  1
  H  H23  1  0.24551600  0.05811500  0.36773100  1
  H  H24  1  0.56540800  0.98605700  0.80486100  1
  H  H25  1  0.59192600  0.66479700  0.01900400  1
  H  H26  1  0.25612600  0.02958300  0.10365500  1
  H  H27  1  0.67121700  0.43959200  0.75742100  1
  H  H28  1  0.24709200  0.20087600  0.59839600  1
  H  H29  1  0.94713800  0.81202400  0.31424800  1
  H  H30  1  0.43459200  0.01394300  0.19513900  1
  H  H31  1  0.46681800  0.62855500  0.37280900  1
  H  H32  1  0.88167300  0.48730300  0.00295200  1
  H  H33  1  0.73609800  0.16104900  0.02921000  1
  H  H34  1  0.97040200  0.41350800  0.41172500  1
  H  H35  1  0.75290800  0.79912400  0.40160400  1
  H  H36  1  0.74709200  0.79912400  0.90160400  1
  H  H37  1  0.86936500  0.03791800  0.55097900  1
  H  H38  1  0.61832700  0.48730300  0.50295200  1
  H  H39  1  0.65585100  0.43111900  0.55132500  1
  H  H40  1  0.71247700  0.64223600  0.69234300  1
  H  H41  1  0.95983000  0.30254700  0.96182900  1
  H  H42  1  0.36936500  0.96208200  0.94902100  1
  H  H43  1  0.05286200  0.18797600  0.68575200  1
  H  H44  1  0.54946900  0.01530700  0.67747400  1
  H  H45  1  0.25448400  0.05811500  0.86773100  1
  H  H46  1  0.53339800  0.74023300  0.08141200  1
  H  H47  1  0.96681800  0.37144500  0.12719100  1
  H  H48  1  0.54017000  0.30254700  0.46182900  1
  H  H49  1  0.44713800  0.18797600  0.18575200  1
  H  H50  1  0.96201200  0.73889600  0.11232700  1
  H  H51  1  0.82878300  0.43959200  0.25742100  1
  H  H52  1  0.07996400  0.84515800  0.04960900  1
  H  H53  1  0.42003600  0.84515800  0.54960900  1
  H  H54  1  0.45053100  0.98469300  0.32252600  1
  H  H55  1  0.28752300  0.35776400  0.30765700  1
  H  H56  1  0.03798800  0.26110400  0.88767300  1
  H  H57  1  0.47040200  0.58649200  0.08827500  1
  H  H58  1  0.15585100  0.56888100  0.94867500  1
  H  H59  1  0.03339800  0.25976700  0.41858800  1
  H  H60  1  0.78752300  0.64223600  0.19234300  1
  H  H61  1  0.64658100  0.84073600  0.45256700  1
  H  H62  1  0.34414900  0.56888100  0.44867500  1
  H  H63  1  0.74551600  0.94188500  0.13226900  1
  H  H64  1  0.21792300  0.51999300  0.65448300  1
  H  H65  1  0.24387400  0.02958300  0.60365500  1
  H  H66  1  0.35341900  0.15926400  0.54743300  1
  H  H67  1  0.46201200  0.26110400  0.38767300  1
  H  H68  1  0.75612600  0.97041700  0.39634500  1
  H  H69  1  0.46660200  0.25976700  0.91858800  1
  H  H70  1  0.03318200  0.62855500  0.87280900  1
  H  H71  1  0.57996400  0.15484200  0.45039100  1
  H  H72  1  0.17121700  0.56040800  0.74257900  1
  H  H73  1  0.32878300  0.56040800  0.24257900  1
  H  H74  1  0.76390200  0.16104900  0.52921000  1
  H  H75  1  0.95053100  0.01530700  0.17747400  1
  H  H76  1  0.78207700  0.48000700  0.34551700  1
  H  H77  1  0.02959800  0.58649200  0.58827500  1
  H  H78  1  0.26390200  0.83895100  0.97079000  1
  H  H79  1  0.40807400  0.33520300  0.98099600  1
  H  H80  1  0.96660200  0.74023300  0.58141200  1
  H  H81  1  0.92003600  0.15484200  0.95039100  1
  H  H82  1  0.28207700  0.51999300  0.15448300  1
  H  H83  1  0.63063500  0.03791800  0.05097900  1
  C  C0  1  0.22621900  0.48854900  0.73804800  1
  C  C1  1  0.80575400  0.04643700  0.59338500  1
  C  C2  1  0.19424600  0.95356300  0.40661500  1
  C  C3  1  0.52836900  0.93837300  0.76825500  1
  C  C4  1  0.30575400  0.95356300  0.90661500  1
  C  C5  1  0.79234500  0.89567200  0.88836700  1
  C  C6  1  0.97163100  0.93837300  0.26825500  1
  C  C7  1  0.27378100  0.48854900  0.23804800  1
  C  C8  1  0.29234500  0.10432800  0.61163300  1
  C  C9  1  0.72621900  0.51145100  0.76195200  1
  C  C10  1  0.69424600  0.04643700  0.09338500  1
  C  C11  1  0.70765500  0.89567200  0.38836700  1
  C  C12  1  0.95555200  0.63207300  0.58988000  1
  C  C13  1  0.45943700  0.72808900  0.59326500  1
  C  C14  1  0.47163100  0.06162700  0.23174500  1
  C  C15  1  0.45555200  0.36792700  0.91012000  1
  C  C16  1  0.54056300  0.27191100  0.40673500  1
  C  C17  1  0.77378100  0.51145100  0.26195200  1
  C  C18  1  0.02836900  0.06162700  0.73174500  1
  C  C19  1  0.95943700  0.27191100  0.90673500  1
  C  C20  1  0.04444800  0.36792700  0.41012000  1
  C  C21  1  0.04056300  0.72808900  0.09326500  1
  C  C22  1  0.20765500  0.10432800  0.11163300  1
  C  C23  1  0.54444800  0.63207300  0.08988000  1
  Cl  Cl0  1  0.46644000  0.29763000  0.70971000  1
  Cl  Cl1  1  0.53356000  0.70237000  0.29029000  1
  Cl  Cl2  1  0.96644000  0.70237000  0.79029000  1
  Cl  Cl3  1  0.03356000  0.29763000  0.20971000  1
  O  O0  1  0.35374200  0.74690600  0.74780600  1
  O  O1  1  0.85374200  0.25309400  0.75219400  1
  O  O2  1  0.81325000  0.28717300  0.64683300  1
  O  O3  1  0.31325000  0.71282700  0.85316700  1
  O  O4  1  0.68675000  0.28717300  0.14683300  1
  O  O5  1  0.14625800  0.74690600  0.24780600  1
  O  O6  1  0.18675000  0.71282700  0.35316700  1
  O  O7  1  0.64625800  0.25309400  0.25219400  1
loop_
_geom_bond_atom_site_label_1
_geom_bond_atom_site_label_2
_geom_bond_distance
_geom_bond_site_symmetry_2
H3 H58 0.756461 1_555
H14 H62 0.756461 1_555
H22 H32 0.756461 1_555
H38 H39 0.756461 1_555
C0 H0 1.094138 1_555
C0 H72 1.094987 1_555
C0 H64 1.103238 1_555
C0 Sn1 2.163692 1_555
C1 H2 1.095359 1_545
C1 H37 1.098817 1_555
C1 H74 1.099244 1_555
C1 Sn0 2.173098 1_555
C2 H23 1.095359 1_565
C2 H13 1.098817 1_555
C2 H21 1.099244 1_555
C2 Sn4 2.173098 1_555
C3 H44 1.096980 1_565
C3 H24 1.097470 1_555
C3 H5 1.097825 1_555
C3 Sn7 2.162746 1_555
C4 H45 1.095359 1_565
C4 H42 1.098817 1_555
C4 H78 1.099244 1_555
C4 Sn7 2.173098 1_555
C5 H20 1.095228 1_555
C5 H12 1.096893 1_555
C5 H36 1.097782 1_555
C5 Sn0 2.164107 1_565
C6 H75 1.096980 1_565
C6 H8 1.097470 1_555
C6 H29 1.097825 1_555
C6 Sn4 2.162746 1_655
C7 H55 1.094138 1_555
C7 H73 1.094987 1_555
C7 H82 1.103238 1_555
C7 Sn5 2.163692 1_555
C8 H66 1.095228 1_555
C8 H65 1.096893 1_555
C8 H28 1.097782 1_555
C8 Sn7 2.164107 1_545
C9 H40 1.094138 1_555
C9 H27 1.094987 1_555
C9 H9 1.103238 1_555
C9 Sn2 2.163692 1_555
C10 H63 1.095359 1_545
C10 H83 1.098817 1_555
C10 H33 1.099244 1_555
C10 Sn6 2.173098 1_555
C11 H61 1.095228 1_555
C11 H68 1.096893 1_555
C11 H35 1.097782 1_555
C11 Sn6 2.164107 1_565
C12 H77 1.093647 1_655
C12 H17 1.095271 1_555
C12 H80 1.100287 1_555
C12 Sn2 2.151635 1_555
C13 H18 1.094691 1_555
C13 H6 1.097983 1_555
C13 H53 1.098326 1_555
C13 Sn1 2.159268 1_555
C14 H54 1.096980 1_545
C14 H30 1.097470 1_555
C14 H49 1.097825 1_555
C14 Sn6 2.162746 1_555
C15 H1 1.093647 1_555
C15 H79 1.095271 1_555
C15 H69 1.100287 1_555
C15 Sn1 2.151635 1_555
C16 H67 1.094691 1_555
C16 H48 1.097983 1_555
C16 H71 1.098326 1_555
C16 Sn3 2.159268 1_555
C17 H60 1.094138 1_555
C17 H51 1.094987 1_555
C17 H76 1.103238 1_555
C17 Sn3 2.163692 1_555
C18 H10 1.096980 1_545
C18 H19 1.097470 1_555
C18 H43 1.097825 1_555
C18 Sn0 2.162746 1_455
C19 H56 1.094691 1_655
C19 H41 1.097983 1_555
C19 H81 1.098326 1_555
C19 Sn2 2.159268 1_555
C20 H34 1.093647 1_455
C20 H11 1.095271 1_555
C20 H59 1.100287 1_555
C20 Sn5 2.151635 1_555
C21 H50 1.094691 1_455
C21 H15 1.097983 1_555
C21 H52 1.098326 1_555
C21 Sn5 2.159268 1_555
C22 H4 1.095228 1_555
C22 H26 1.096893 1_555
C22 H7 1.097782 1_555
C22 Sn4 2.164107 1_545
C23 H57 1.093647 1_555
C23 H25 1.095271 1_555
C23 H46 1.100287 1_555
C23 Sn3 2.151635 1_555
Cl0 H16 1.298701 1_555
Cl1 H31 1.298701 1_555
Cl2 H70 1.298701 1_655
Cl3 H47 1.298701 1_455
O0 O3 1.508834 1_555
O0 Sn1 2.041710 1_555
O0 Sn7 2.485296 1_555
O1 O2 1.508834 1_555
O1 Sn2 2.041710 1_555
O1 Sn0 2.485296 1_555
O2 Sn0 2.063898 1_555
O3 Sn7 2.063898 1_555
O4 O7 1.508834 1_555
O4 Sn6 2.063898 1_555
O5 O6 1.508834 1_555
O5 Sn5 2.041710 1_555
O5 Sn4 2.485296 1_555
O6 Sn4 2.063898 1_555
O7 Sn3 2.041710 1_555
O7 Sn6 2.485296 1_555
