# generated using pymatgen
data_TiAs2
_symmetry_space_group_name_H-M   'P 1'
_cell_length_a   3.53591100
_cell_length_b   8.57492100
_cell_length_c   15.35702100
_cell_angle_alpha   90.00000000
_cell_angle_beta   90.00000000
_cell_angle_gamma   90.00000000
_symmetry_Int_Tables_number   1
_chemical_formula_structural   TiAs2
_chemical_formula_sum   'Ti8 As16'
_cell_volume   465.62729527
_cell_formula_units_Z   8
loop_
 _symmetry_equiv_pos_site_id
 _symmetry_equiv_pos_as_xyz
  1  'x, y, z'
loop_
 _atom_site_type_symbol
 _atom_site_label
 _atom_site_symmetry_multiplicity
 _atom_site_fract_x
 _atom_site_fract_y
 _atom_site_fract_z
 _atom_site_occupancy
  Ti  Ti0  1  0.50000000  0.41609400  0.28382200  1
  Ti  Ti1  1  0.00000000  0.65838700  0.01826700  1
  Ti  Ti2  1  0.50000000  0.58390600  0.71617800  1
  Ti  Ti3  1  0.50000000  0.84161300  0.51826700  1
  Ti  Ti4  1  0.00000000  0.08390600  0.78382200  1
  Ti  Ti5  1  0.50000000  0.15838700  0.48173300  1
  Ti  Ti6  1  0.00000000  0.91609400  0.21617800  1
  Ti  Ti7  1  0.00000000  0.34161300  0.98173300  1
  As  As0  1  0.50000000  0.53688500  0.89975800  1
  As  As1  1  0.50000000  0.71755600  0.26661200  1
  As  As2  1  0.00000000  0.96311500  0.39975800  1
  As  As3  1  0.00000000  0.78244400  0.76661200  1
  As  As4  1  0.00000000  0.10235000  0.08103800  1
  As  As5  1  0.00000000  0.32758400  0.39871600  1
  As  As6  1  0.00000000  0.67241600  0.60128400  1
  As  As7  1  0.50000000  0.17241600  0.89871600  1
  As  As8  1  0.50000000  0.60235000  0.41896200  1
  As  As9  1  0.50000000  0.39765000  0.58103800  1
  As  As10  1  0.00000000  0.21755600  0.23338800  1
  As  As11  1  0.00000000  0.03688500  0.60024200  1
  As  As12  1  0.50000000  0.28244400  0.73338800  1
  As  As13  1  0.50000000  0.46311500  0.10024200  1
  As  As14  1  0.50000000  0.82758400  0.10128400  1
  As  As15  1  0.00000000  0.89765000  0.91896200  1
loop_
_geom_bond_atom_site_label_1
_geom_bond_atom_site_label_2
_geom_bond_distance
_geom_bond_site_symmetry_2
As0 Ti7 2.741210 1_555
As0 Ti7 2.741210 1_655
As0 Ti1 2.742874 1_556
As0 Ti1 2.742874 1_656
As0 Ti2 2.847928 1_555
As1 Ti6 2.573688 1_555
As1 Ti6 2.573688 1_655
As1 Ti0 2.598489 1_555
As2 Ti5 2.741210 1_565
As2 Ti5 2.741210 1_465
As2 Ti3 2.742874 1_455
As2 Ti3 2.742874 1_555
As2 Ti6 2.847928 1_555
As3 Ti2 2.573688 1_555
As3 Ti2 2.573688 1_455
As3 Ti4 2.598489 1_565
As4 Ti7 2.556370 1_554
As4 Ti6 2.618758 1_545
As5 Ti0 2.610538 1_455
As5 Ti0 2.610538 1_555
As5 Ti5 2.618394 1_455
As5 Ti5 2.618394 1_555
As6 Ti2 2.610538 1_555
As6 Ti2 2.610538 1_455
As6 Ti3 2.618394 1_555
As6 Ti3 2.618394 1_455
As7 Ti4 2.610538 1_555
As7 Ti4 2.610538 1_655
As7 Ti7 2.618394 1_655
As7 Ti7 2.618394 1_555
As8 Ti3 2.556370 1_555
As8 Ti0 2.618758 1_555
As9 Ti5 2.556370 1_555
As9 Ti2 2.618758 1_555
As10 Ti0 2.573688 1_455
As10 Ti0 2.573688 1_555
As10 Ti6 2.598489 1_545
As11 Ti3 2.741210 1_545
As11 Ti3 2.741210 1_445
As11 Ti5 2.742874 1_455
As11 Ti5 2.742874 1_555
As11 Ti4 2.847928 1_555
As12 Ti4 2.573688 1_555
As12 Ti4 2.573688 1_655
As12 Ti2 2.598489 1_555
As13 Ti1 2.741210 1_555
As13 Ti1 2.741210 1_655
As13 Ti7 2.742874 1_554
As13 Ti7 2.742874 1_654
As13 Ti0 2.847928 1_555
As14 Ti6 2.610538 1_555
As14 Ti6 2.610538 1_655
As14 Ti1 2.618394 1_555
As14 Ti1 2.618394 1_655
As15 Ti1 2.556370 1_556
As15 Ti4 2.618758 1_565
