# generated using pymatgen
data_VHO3
_symmetry_space_group_name_H-M   'P 1'
_cell_length_a   3.71701400
_cell_length_b   6.09373414
_cell_length_c   13.14990065
_cell_angle_alpha   90.51937039
_cell_angle_beta   96.43338261
_cell_angle_gamma   107.06919641
_symmetry_Int_Tables_number   1
_chemical_formula_structural   VHO3
_chemical_formula_sum   'V4 H4 O12'
_cell_volume   282.66258911
_cell_formula_units_Z   4
loop_
 _symmetry_equiv_pos_site_id
 _symmetry_equiv_pos_as_xyz
  1  'x, y, z'
loop_
 _atom_site_type_symbol
 _atom_site_label
 _atom_site_symmetry_multiplicity
 _atom_site_fract_x
 _atom_site_fract_y
 _atom_site_fract_z
 _atom_site_occupancy
  V  V0  1  0.96923600  0.86195800  0.85894300  1
  V  V1  1  0.05595400  0.16929900  0.15485400  1
  V  V2  1  0.26345300  0.43812900  0.84000300  1
  V  V3  1  0.74657500  0.58014700  0.15350600  1
  H  H0  1  0.85973800  0.46007100  0.96929500  1
  H  H1  1  0.22050800  0.25059700  0.34967600  1
  H  H2  1  0.38441600  0.94931000  0.47742400  1
  H  H3  1  0.41330000  0.80471000  0.57521200  1
  O  O0  1  0.43735400  0.77422200  0.88188400  1
  O  O1  1  0.57280900  0.23462400  0.12177100  1
  O  O2  1  0.12599300  0.14549000  0.90582500  1
  O  O3  1  0.88213500  0.85955800  0.10414600  1
  O  O4  1  0.81246200  0.49599400  0.89664700  1
  O  O5  1  0.19307800  0.49689900  0.11650600  1
  O  O6  1  0.92181600  0.86519200  0.73531700  1
  O  O7  1  0.09053600  0.15364900  0.28773000  1
  O  O8  1  0.21124900  0.39936200  0.71752000  1
  O  O9  1  0.80509400  0.60919400  0.27668700  1
  O  O10  1  0.60759000  0.23477000  0.49526800  1
  O  O11  1  0.43432400  0.80559400  0.50138800  1
loop_
_geom_bond_atom_site_label_1
_geom_bond_atom_site_label_2
_geom_bond_distance
_geom_bond_site_symmetry_2
H0 O4 0.990039 1_555
H1 O7 0.990703 1_555
H2 O11 0.993963 1_555
H2 O10 1.694397 1_565
H3 O11 0.982545 1_555
O0 V0 1.949742 1_555
O0 V0 1.958536 1_455
O0 V2 2.009549 1_555
O1 V1 1.944234 1_555
O1 V1 1.954624 1_655
O1 V3 2.037124 1_555
O2 V0 1.736072 1_445
O2 V2 1.944858 1_555
O3 V3 1.778739 1_555
O3 V1 1.894565 1_665
O4 V2 2.018834 1_555
O4 V2 2.027643 1_655
O4 V0 2.209203 1_555
O5 V3 1.971116 1_555
O5 V3 1.979716 1_455
O5 V1 1.994452 1_555
O6 V0 1.616374 1_555
O7 V1 1.743153 1_555
O8 V2 1.607412 1_555
O9 V3 1.611117 1_555
