# generated using pymatgen
data_Y2Si3N4O3
_symmetry_space_group_name_H-M   'P 1'
_cell_length_a   7.64863400
_cell_length_b   7.64863400
_cell_length_c   4.95004700
_cell_angle_alpha   90.00000000
_cell_angle_beta   90.00000000
_cell_angle_gamma   90.00000000
_symmetry_Int_Tables_number   1
_chemical_formula_structural   Y2Si3N4O3
_chemical_formula_sum   'Y4 Si6 N8 O6'
_cell_volume   289.58567980
_cell_formula_units_Z   2
loop_
 _symmetry_equiv_pos_site_id
 _symmetry_equiv_pos_as_xyz
  1  'x, y, z'
loop_
 _atom_site_type_symbol
 _atom_site_label
 _atom_site_symmetry_multiplicity
 _atom_site_fract_x
 _atom_site_fract_y
 _atom_site_fract_z
 _atom_site_occupancy
  Y  Y0  1  0.67040500  0.17040500  0.50407300  1
  Y  Y1  1  0.82959500  0.67040500  0.49592700  1
  Y  Y2  1  0.17040500  0.32959500  0.49592700  1
  Y  Y3  1  0.32959500  0.82959500  0.50407300  1
  Si  Si0  1  0.85465700  0.35465700  0.94534000  1
  Si  Si1  1  0.64534300  0.85465700  0.05466000  1
  Si  Si2  1  0.35465700  0.14534300  0.05466000  1
  Si  Si3  1  0.14534300  0.64534300  0.94534000  1
  Si  Si4  1  0.50000000  0.50000000  0.00000000  1
  Si  Si5  1  0.00000000  0.00000000  0.00000000  1
  N  N0  1  0.66738600  0.42290100  0.79289800  1
  N  N1  1  0.33261400  0.57709900  0.79289800  1
  N  N2  1  0.42290100  0.33261400  0.20710200  1
  N  N3  1  0.57709900  0.66738600  0.20710200  1
  N  N4  1  0.92290100  0.16738600  0.79289800  1
  N  N5  1  0.83261400  0.92290100  0.20710200  1
  N  N6  1  0.16738600  0.07709900  0.20710200  1
  N  N7  1  0.07709900  0.83261400  0.79289800  1
  O  O0  1  0.86853000  0.36853000  0.27860400  1
  O  O1  1  0.63147000  0.86853000  0.72139600  1
  O  O2  1  0.50000000  0.00000000  0.18414800  1
  O  O3  1  0.00000000  0.50000000  0.81585200  1
  O  O4  1  0.13147000  0.63147000  0.27860400  1
  O  O5  1  0.36853000  0.13147000  0.72139600  1
loop_
_geom_bond_atom_site_label_1
_geom_bond_atom_site_label_2
_geom_bond_distance
_geom_bond_site_symmetry_2
N0 Si0 1.701043 1_555
N0 Si4 1.742932 1_556
N0 Y0 2.402976 1_555
N0 Y1 2.698878 1_555
N1 Si3 1.701043 1_555
N1 Si4 1.742932 1_556
N1 Y3 2.402976 1_555
N1 Y2 2.698878 1_555
N2 Si2 1.701043 1_555
N2 Si4 1.742932 1_555
N2 Y2 2.402976 1_555
N2 Y0 2.698878 1_555
N3 Si1 1.701043 1_555
N3 Si4 1.742932 1_555
N3 Y1 2.402976 1_555
N3 Y3 2.698878 1_555
N4 Si0 1.701043 1_555
N4 Si5 1.742932 1_656
N4 Y0 2.402976 1_555
N4 Y2 2.698878 1_655
N5 Si1 1.701043 1_555
N5 Si5 1.742932 1_665
N5 Y1 2.402976 1_555
N5 Y0 2.698878 1_565
N6 Si2 1.701043 1_555
N6 Si5 1.742932 1_555
N6 Y2 2.402976 1_555
N6 Y3 2.698878 1_545
N7 Si3 1.701043 1_555
N7 Si5 1.742932 1_566
N7 Y3 2.402976 1_555
N7 Y1 2.698878 1_455
O0 Si0 1.656484 1_554
O0 Y0 2.416284 1_555
O0 Y2 2.564587 1_655
O0 Y1 2.564587 1_555
O1 Si1 1.656484 1_556
O1 Y1 2.416284 1_555
O1 Y0 2.564587 1_565
O1 Y3 2.564587 1_555
O2 Si2 1.697789 1_555
O2 Si1 1.697789 1_545
O2 Y0 2.430113 1_555
O2 Y3 2.430113 1_545
O3 Si0 1.697789 1_455
O3 Si3 1.697789 1_555
O3 Y2 2.430113 1_555
O3 Y1 2.430113 1_455
O4 Si3 1.656484 1_554
O4 Y3 2.416284 1_555
O4 Y2 2.564587 1_555
O4 Y1 2.564587 1_455
O5 Si2 1.656484 1_556
O5 Y2 2.416284 1_555
O5 Y3 2.564587 1_545
O5 Y0 2.564587 1_555
