# generated using pymatgen
data_LaH6S3(NO3)3
_symmetry_space_group_name_H-M   'P 1'
_cell_length_a   6.07938000
_cell_length_b   9.86825780
_cell_length_c   9.87367380
_cell_angle_alpha   119.90601151
_cell_angle_beta   90.62997373
_cell_angle_gamma   89.72363588
_symmetry_Int_Tables_number   1
_chemical_formula_structural   LaH6S3(NO3)3
_chemical_formula_sum   'La2 H12 S6 N6 O18'
_cell_volume   513.44430816
_cell_formula_units_Z   2
loop_
 _symmetry_equiv_pos_site_id
 _symmetry_equiv_pos_as_xyz
  1  'x, y, z'
loop_
 _atom_site_type_symbol
 _atom_site_label
 _atom_site_symmetry_multiplicity
 _atom_site_fract_x
 _atom_site_fract_y
 _atom_site_fract_z
 _atom_site_occupancy
  La  La0  1  0.24921100  0.33312000  0.66665700  1
  La  La1  1  0.74897400  0.66689700  0.33326700  1
  H  H0  1  0.62961700  0.79966200  0.88714500  1
  H  H1  1  0.76849400  0.67039000  0.73280700  1
  H  H2  1  0.73042900  0.26649800  0.93691500  1
  H  H3  1  0.87374400  0.11200200  0.91080500  1
  H  H4  1  0.13266200  0.90104600  0.80062800  1
  H  H5  1  0.27370900  0.93844500  0.67770300  1
  H  H6  1  0.73026100  0.06238900  0.32707700  1
  H  H7  1  0.87289500  0.09309700  0.20264000  1
  H  H8  1  0.36879800  0.89670600  0.09798300  1
  H  H9  1  0.22462100  0.73762000  0.06166900  1
  H  H10  1  0.23109100  0.32517800  0.26272900  1
  H  H11  1  0.37528700  0.20163300  0.10708200  1
  S  S0  1  0.75004700  0.59868200  0.91351000  1
  S  S1  1  0.75137000  0.08645100  0.68461900  1
  S  S2  1  0.74779300  0.31545500  0.40147500  1
  S  S3  1  0.25121700  0.68262400  0.59737800  1
  S  S4  1  0.24917900  0.91447100  0.31689100  1
  S  S5  1  0.24872500  0.40167700  0.08514600  1
  N  N0  1  0.76355600  0.72778600  0.85258400  1
  N  N1  1  0.73844200  0.14673900  0.87405200  1
  N  N2  1  0.26615000  0.87072500  0.72950700  1
  N  N3  1  0.73525100  0.12577700  0.27036700  1
  N  N4  1  0.23399700  0.85705800  0.12843900  1
  N  N5  1  0.23715800  0.26998700  0.14307800  1
  O  O0  1  0.94935800  0.50484300  0.85312300  1
  O  O1  1  0.54961200  0.50292000  0.85364200  1
  O  O2  1  0.25217900  0.60636800  0.69216300  1
  O  O3  1  0.24845500  0.30695300  0.91472800  1
  O  O4  1  0.55027800  0.34677400  0.49517600  1
  O  O5  1  0.95013600  0.35116000  0.49637700  1
  O  O6  1  0.55102100  0.14784200  0.65189000  1
  O  O7  1  0.95083100  0.14575700  0.64836700  1
  O  O8  1  0.75558200  0.91521100  0.61036200  1
  O  O9  1  0.24936200  0.08509600  0.39198600  1
  O  O10  1  0.05125600  0.84997900  0.34726000  1
  O  O11  1  0.45176100  0.85619800  0.35361100  1
  O  O12  1  0.04871700  0.64749300  0.50264700  1
  O  O13  1  0.44892000  0.65181500  0.50284600  1
  O  O14  1  0.74718100  0.69542400  0.08461600  1
  O  O15  1  0.74756300  0.39103900  0.30548200  1
  O  O16  1  0.44998300  0.49692700  0.14532400  1
  O  O17  1  0.04972900  0.49608400  0.14824700  1
loop_
_geom_bond_atom_site_label_1
_geom_bond_atom_site_label_2
_geom_bond_distance
_geom_bond_site_symmetry_2
La0 O5 2.528311 1_455
La0 O1 2.534180 1_555
La0 O7 2.536511 1_455
La0 O6 2.537410 1_555
La0 O0 2.552904 1_455
La0 O4 2.555957 1_555
La0 O2 2.580307 1_555
La0 O3 2.587869 1_555
La0 O9 2.593580 1_555
La1 O11 2.529045 1_555
La1 O12 2.530444 1_655
La1 O16 2.532277 1_555
La1 O10 2.537299 1_655
La1 O13 2.543900 1_555
La1 O17 2.548493 1_655
La1 O15 2.596419 1_555
La1 O14 2.606805 1_555
La1 O8 2.608632 1_555
H0 N0 1.020664 1_555
H1 N0 1.026167 1_555
H2 N1 1.026141 1_555
H3 N1 1.020071 1_555
H4 N2 1.020731 1_555
H5 N2 1.025670 1_555
H6 N3 1.027401 1_555
H7 N3 1.022769 1_555
H8 N4 1.020262 1_555
H9 N4 1.025707 1_555
H10 N5 1.026083 1_555
H11 N5 1.023972 1_555
N0 S0 1.660755 1_555
N1 S1 1.658824 1_555
N2 S3 1.655318 1_555
N3 S2 1.663797 1_555
N4 S4 1.654472 1_555
N5 S5 1.662517 1_555
O0 S0 1.461408 1_555
O1 S0 1.471562 1_555
O2 S3 1.464333 1_555
O3 S5 1.461727 1_556
O4 S2 1.459121 1_555
O5 S2 1.471389 1_555
O6 S1 1.460963 1_555
O7 S1 1.471839 1_555
O8 S1 1.469125 1_565
O9 S4 1.462857 1_545
O10 S4 1.465731 1_555
O11 S4 1.473145 1_555
O12 S3 1.471751 1_555
O13 S3 1.465058 1_555
O14 S0 1.469058 1_554
O15 S2 1.469549 1_555
O16 S5 1.473691 1_555
O17 S5 1.465119 1_555
