# generated using pymatgen
data_Ca17(Y7S19)2
_symmetry_space_group_name_H-M   'P 1'
_cell_length_a   6.91418257
_cell_length_b   6.91418257
_cell_length_c   65.17636040
_cell_angle_alpha   85.84885152
_cell_angle_beta   85.84885152
_cell_angle_gamma   33.75851670
_symmetry_Int_Tables_number   1
_chemical_formula_structural   Ca17(Y7S19)2
_chemical_formula_sum   'Ca17 Y14 S38'
_cell_volume   1726.47851038
_cell_formula_units_Z   1
loop_
 _symmetry_equiv_pos_site_id
 _symmetry_equiv_pos_as_xyz
  1  'x, y, z'
loop_
 _atom_site_type_symbol
 _atom_site_label
 _atom_site_symmetry_multiplicity
 _atom_site_fract_x
 _atom_site_fract_y
 _atom_site_fract_z
 _atom_site_occupancy
  Ca  Ca0  1  0.00465700  0.00465700  0.99991300  1
  Ca  Ca1  1  0.78973500  0.78973500  0.57876100  1
  Ca  Ca2  1  0.26323600  0.26323600  0.52606100  1
  Ca  Ca3  1  0.47418300  0.47418300  0.44749600  1
  Ca  Ca4  1  0.94756800  0.94756800  0.39460300  1
  Ca  Ca5  1  0.42023800  0.42023800  0.34242500  1
  Ca  Ca6  1  0.63135300  0.63135300  0.26247700  1
  Ca  Ca7  1  0.89552100  0.89552100  0.28930900  1
  Ca  Ca8  1  0.10546300  0.10546300  0.20974800  1
  Ca  Ca9  1  0.36877500  0.36877500  0.23612800  1
  Ca  Ca10  1  0.57917200  0.57917200  0.15708500  1
  Ca  Ca11  1  0.84231600  0.84231600  0.18340700  1
  Ca  Ca12  1  0.05297500  0.05297500  0.10451200  1
  Ca  Ca13  1  0.31604200  0.31604200  0.13081400  1
  Ca  Ca14  1  0.52670200  0.52670200  0.05206200  1
  Ca  Ca15  1  0.78960900  0.78960900  0.07823700  1
  Ca  Ca16  1  0.26239200  0.26239200  0.02461000  1
  Y  Y0  1  0.47331200  0.47331200  0.94764500  1
  Y  Y1  1  0.94777000  0.94777000  0.89473700  1
  Y  Y2  1  0.89468200  0.89468200  0.78945600  1
  Y  Y3  1  0.42105900  0.42105900  0.84215000  1
  Y  Y4  1  0.36895100  0.36895100  0.73652200  1
  Y  Y5  1  0.31138000  0.31138000  0.63517500  1
  Y  Y6  1  0.84094600  0.84094600  0.68647600  1
  Y  Y7  1  0.05171700  0.05171700  0.60727500  1
  Y  Y8  1  0.52774500  0.52774500  0.55149900  1
  Y  Y9  1  0.73523900  0.73523900  0.47423500  1
  Y  Y10  1  0.00094600  0.00094600  0.49977600  1
  Y  Y11  1  0.20994300  0.20994300  0.42104800  1
  Y  Y12  1  0.15814200  0.15814200  0.31655600  1
  Y  Y13  1  0.68431500  0.68431500  0.36858200  1
  S  S0  1  0.37665700  0.37665700  0.98576900  1
  S  S1  1  0.85675400  0.85675400  0.93369500  1
  S  S2  1  0.09194600  0.09194600  0.95958800  1
  S  S3  1  0.33091200  0.33091200  0.88123500  1
  S  S4  1  0.56359700  0.56359700  0.90830600  1
  S  S5  1  0.80456000  0.80456000  0.82851800  1
  S  S6  1  0.03774400  0.03774400  0.85570600  1
  S  S7  1  0.27861200  0.27861200  0.77582900  1
  S  S8  1  0.51160600  0.51160600  0.80321600  1
  S  S9  1  0.75052800  0.75052800  0.72347100  1
  S  S10  1  0.98445800  0.98445800  0.75067900  1
  S  S11  1  0.22378100  0.22378100  0.66933700  1
  S  S12  1  0.45881300  0.45881300  0.69726800  1
  S  S13  1  0.68417000  0.68417000  0.61668600  1
  S  S14  1  0.94182100  0.94182100  0.64164700  1
  S  S15  1  0.15341300  0.15341300  0.56585300  1
  S  S16  1  0.42755500  0.42755500  0.59124000  1
  S  S17  1  0.63056500  0.63056500  0.51304300  1
  S  S18  1  0.89676000  0.89676000  0.53930100  1
  S  S19  1  0.10700400  0.10700400  0.46046700  1
  S  S20  1  0.36885100  0.36885100  0.48674400  1
  S  S21  1  0.58102400  0.58102400  0.40786800  1
  S  S22  1  0.83925500  0.83925500  0.43443500  1
  S  S23  1  0.05497600  0.05497600  0.35524000  1
  S  S24  1  0.31316100  0.31316100  0.38191600  1
  S  S25  1  0.52960400  0.52960400  0.30335000  1
  S  S26  1  0.78714500  0.78714500  0.32911400  1
  S  S27  1  0.99896200  0.99896200  0.25090900  1
  S  S28  1  0.26096800  0.26096800  0.27775200  1
  S  S29  1  0.47325600  0.47325600  0.19829700  1
  S  S30  1  0.73673800  0.73673800  0.22461600  1
  S  S31  1  0.94700500  0.94700500  0.14564500  1
  S  S32  1  0.21029200  0.21029200  0.17198200  1
  S  S33  1  0.42072800  0.42072800  0.09281500  1
  S  S34  1  0.68405100  0.68405100  0.11926000  1
  S  S35  1  0.89333200  0.89333200  0.03965500  1
  S  S36  1  0.15816200  0.15816200  0.06630500  1
  S  S37  1  0.62988500  0.62988500  0.01394400  1
loop_
_geom_bond_atom_site_label_1
_geom_bond_atom_site_label_2
_geom_bond_distance
_geom_bond_site_symmetry_2
Ca0 S2 2.789714 1_555
Ca0 S37 2.800334 1_456
Ca0 S37 2.800334 1_546
Ca0 S0 2.825823 1_455
Ca0 S0 2.825823 1_545
Ca0 S35 2.881341 1_446
Ca1 S13 2.745687 1_555
Ca1 S18 2.840613 1_555
Ca1 S15 2.867365 1_655
Ca1 S15 2.867365 1_565
Ca1 S16 2.870929 1_565
Ca1 S16 2.870929 1_655
Ca2 S20 2.824528 1_555
Ca2 S17 2.838606 1_545
Ca2 S17 2.838606 1_455
Ca2 S18 2.850881 1_545
Ca2 S18 2.850881 1_455
Ca2 S15 2.875401 1_555
Ca3 S20 2.819021 1_555
Ca3 S19 2.838822 1_655
Ca3 S19 2.838822 1_565
Ca3 S21 2.849077 1_555
Ca3 S22 2.858810 1_545
Ca3 S22 2.858810 1_455
Ca4 S23 2.837318 1_665
Ca4 S24 2.846027 1_655
Ca4 S24 2.846027 1_565
Ca4 S21 2.850873 1_655
Ca4 S21 2.850873 1_565
Ca4 S22 2.868982 1_555
Ca5 S25 2.832452 1_555
Ca5 S24 2.842662 1_555
Ca5 S26 2.848841 1_455
Ca5 S26 2.848841 1_545
Ca5 S23 2.851690 1_565
Ca5 S23 2.851690 1_655
Ca6 S30 2.741043 1_555
Ca6 S27 2.804946 1_455
Ca6 S27 2.804946 1_545
Ca6 S28 2.867329 1_655
Ca6 S28 2.867329 1_565
Ca6 S25 2.892543 1_555
Ca7 S27 2.760285 1_555
Ca7 S28 2.823256 1_565
Ca7 S28 2.823256 1_655
Ca7 S26 2.867816 1_555
Ca7 S25 2.874286 1_655
Ca7 S25 2.874286 1_565
Ca8 S32 2.732467 1_555
Ca8 S29 2.800975 1_545
Ca8 S29 2.800975 1_455
Ca8 S30 2.870824 1_455
Ca8 S30 2.870824 1_545
Ca8 S27 2.934468 1_445
Ca9 S29 2.734104 1_555
Ca9 S30 2.800776 1_545
Ca9 S30 2.800776 1_455
Ca9 S27 2.859593 1_545
Ca9 S27 2.859593 1_455
Ca9 S28 2.968064 1_555
Ca10 S34 2.736075 1_555
Ca10 S31 2.800409 1_545
Ca10 S31 2.800409 1_455
Ca10 S32 2.870256 1_565
Ca10 S32 2.870256 1_655
Ca10 S29 2.934216 1_555
Ca11 S31 2.731428 1_555
Ca11 S32 2.798883 1_655
Ca11 S32 2.798883 1_565
Ca11 S29 2.868581 1_655
Ca11 S29 2.868581 1_565
Ca11 S30 2.932220 1_555
Ca12 S36 2.759357 1_555
Ca12 S33 2.806387 1_545
Ca12 S33 2.806387 1_455
Ca12 S34 2.866174 1_545
Ca12 S34 2.866174 1_455
Ca12 S31 2.929982 1_445
Ca13 S33 2.744748 1_555
Ca13 S34 2.801247 1_545
Ca13 S34 2.801247 1_455
Ca13 S31 2.867298 1_545
Ca13 S31 2.867298 1_455
Ca13 S32 2.930797 1_555
Ca14 S37 2.742857 1_555
Ca14 S35 2.831044 1_545
Ca14 S35 2.831044 1_455
Ca14 S36 2.857007 1_565
Ca14 S36 2.857007 1_655
Ca14 S33 2.908263 1_555
Ca15 S35 2.772191 1_555
Ca15 S36 2.804509 1_565
Ca15 S36 2.804509 1_655
Ca15 S33 2.862328 1_565
Ca15 S33 2.862328 1_655
Ca15 S34 2.921450 1_555
Ca16 S37 2.787919 1_455
Ca16 S37 2.787919 1_545
Ca16 S0 2.848803 1_554
Ca16 S35 2.872475 1_545
Ca16 S35 2.872475 1_455
Ca16 S36 2.952996 1_555
S0 Y0 2.707244 1_555
S1 Y1 2.726738 1_555
S1 Y0 2.729116 1_655
S1 Y0 2.729116 1_565
S2 Y0 2.699172 1_455
S2 Y0 2.699172 1_545
S3 Y1 2.720627 1_545
S3 Y1 2.720627 1_455
S3 Y3 2.729937 1_555
S4 Y1 2.714167 1_545
S4 Y1 2.714167 1_455
S4 Y0 2.745513 1_555
S5 Y3 2.720931 1_655
S5 Y3 2.720931 1_565
S5 Y2 2.728467 1_555
S6 Y3 2.720562 1_545
S6 Y3 2.720562 1_455
S6 Y1 2.725931 1_445
S7 Y2 2.717458 1_545
S7 Y2 2.717458 1_455
S7 Y4 2.743895 1_555
S8 Y3 2.723034 1_555
S8 Y2 2.727351 1_455
S8 Y2 2.727351 1_545
S9 Y6 2.609396 1_555
S9 Y4 2.722352 1_565
S9 Y4 2.722352 1_655
S10 Y2 2.710073 1_555
S10 Y4 2.726039 1_655
S10 Y4 2.726039 1_565
S11 Y5 2.431199 1_555
S11 Y6 2.818498 1_545
S11 Y6 2.818498 1_455
S12 Y6 2.669027 1_545
S12 Y6 2.669027 1_455
S12 Y4 2.738483 1_555
S13 Y7 2.764270 1_655
S13 Y7 2.764270 1_565
S13 Y5 2.936487 1_655
S13 Y5 2.936487 1_565
S14 Y7 2.576923 1_665
S14 Y5 2.701440 1_565
S14 Y5 2.701440 1_655
S14 Y6 3.119070 1_555
S15 Y8 2.811806 1_455
S15 Y8 2.811806 1_545
S15 Y7 2.924010 1_555
S16 Y8 2.819068 1_555
S16 Y7 2.842848 1_655
S16 Y7 2.842848 1_565
S16 Y5 3.145957 1_555
S17 Y8 2.759961 1_555
S17 Y9 2.790370 1_555
S17 Y10 2.818571 1_565
S17 Y10 2.818571 1_655
S18 Y8 2.806266 1_565
S18 Y8 2.806266 1_655
S18 Y10 2.828362 1_665
S19 Y11 2.815442 1_555
S19 Y9 2.818755 1_455
S19 Y9 2.818755 1_545
S19 Y10 2.826578 1_555
S20 Y10 2.834041 1_565
S20 Y10 2.834041 1_655
S20 Y9 2.835329 1_455
S20 Y9 2.835329 1_545
S21 Y13 2.809793 1_555
S21 Y11 2.810730 1_655
S21 Y11 2.810730 1_565
S22 Y11 2.818777 1_655
S22 Y11 2.818777 1_565
S22 Y9 2.843104 1_555
S23 Y12 2.774846 1_555
S23 Y13 2.817961 1_545
S23 Y13 2.817961 1_455
S24 Y11 2.800615 1_555
S24 Y13 2.813666 1_545
S24 Y13 2.813666 1_455
S25 Y12 2.808153 1_565
S25 Y12 2.808153 1_655
S26 Y12 2.797439 1_565
S26 Y12 2.797439 1_655
S26 Y13 2.817642 1_555
S28 Y12 2.779769 1_555
