# generated using pymatgen
data_Cu3As4
_symmetry_space_group_name_H-M   'P 1'
_cell_length_a   10.42413728
_cell_length_b   10.42413728
_cell_length_c   10.42413728
_cell_angle_alpha   160.47360323
_cell_angle_beta   131.73694644
_cell_angle_gamma   52.54058731
_symmetry_Int_Tables_number   1
_chemical_formula_structural   Cu3As4
_chemical_formula_sum   'Cu6 As8'
_cell_volume   281.67391773
_cell_formula_units_Z   2
loop_
 _symmetry_equiv_pos_site_id
 _symmetry_equiv_pos_as_xyz
  1  'x, y, z'
loop_
 _atom_site_type_symbol
 _atom_site_label
 _atom_site_symmetry_multiplicity
 _atom_site_fract_x
 _atom_site_fract_y
 _atom_site_fract_z
 _atom_site_occupancy
  Cu  Cu0  1  0.27205800  0.43126500  0.84079200  1
  Cu  Cu1  1  0.72794200  0.56873500  0.15920800  1
  Cu  Cu2  1  0.40952700  0.56873500  0.84079200  1
  Cu  Cu3  1  0.59047300  0.43126500  0.15920800  1
  Cu  Cu4  1  0.31894400  0.31894400  0.00000000  1
  Cu  Cu5  1  0.68105600  0.68105600  0.00000000  1
  As  As0  1  0.13210200  0.83857500  0.29352800  1
  As  As1  1  0.86789800  0.16142500  0.70647200  1
  As  As2  1  0.45495300  0.16142500  0.29352800  1
  As  As3  1  0.54504700  0.83857500  0.70647200  1
  As  As4  1  0.21295700  0.00000000  0.21295700  1
  As  As5  1  0.78704300  0.00000000  0.78704300  1
  As  As6  1  0.22841000  0.72841000  0.50000000  1
  As  As7  1  0.77159000  0.27159000  0.50000000  1
loop_
_geom_bond_atom_site_label_1
_geom_bond_atom_site_label_2
_geom_bond_distance
_geom_bond_site_symmetry_2
Cu0 Cu4 2.500161 1_556
Cu0 Cu2 2.569990 1_555
Cu0 Cu3 2.714001 1_556
Cu1 Cu5 2.500161 1_555
Cu1 Cu3 2.569990 1_555
Cu1 Cu2 2.714001 1_554
Cu2 Cu5 2.500156 1_556
Cu3 Cu4 2.500156 1_555
As0 Cu0 2.507948 1_565
As0 Cu0 2.507953 1_554
As0 Cu4 2.521211 1_566
As0 Cu4 2.521214 1_555
As1 Cu1 2.507948 1_545
As1 Cu1 2.507953 1_556
As1 Cu5 2.521211 1_545
As1 Cu5 2.521214 1_556
As2 Cu2 2.507936 1_544
As2 Cu2 2.507936 1_555
As2 Cu5 2.521211 1_545
As2 Cu5 2.521211 1_556
As3 Cu3 2.507936 1_566
As3 Cu3 2.507936 1_555
As3 Cu4 2.521211 1_555
As3 Cu4 2.521211 1_566
As4 Cu0 2.441956 1_555
As4 Cu0 2.441958 1_544
As4 Cu2 2.441960 1_555
As4 Cu2 2.441960 1_544
As5 Cu1 2.441956 1_545
As5 Cu1 2.441958 1_556
As5 Cu3 2.441960 1_556
As5 Cu3 2.441960 1_545
As6 Cu4 2.447322 1_555
As6 Cu4 2.447322 1_566
As7 Cu5 2.447322 1_545
As7 Cu5 2.447322 1_556
