# generated using pymatgen
data_V2Cu(PO5)2
_symmetry_space_group_name_H-M   'P 1'
_cell_length_a   7.45731300
_cell_length_b   12.77864100
_cell_length_c   14.73296900
_cell_angle_alpha   90.00000000
_cell_angle_beta   90.00000000
_cell_angle_gamma   90.00000000
_symmetry_Int_Tables_number   1
_chemical_formula_structural   V2Cu(PO5)2
_chemical_formula_sum   'V16 Cu8 P16 O80'
_cell_volume   1403.96834570
_cell_formula_units_Z   8
loop_
 _symmetry_equiv_pos_site_id
 _symmetry_equiv_pos_as_xyz
  1  'x, y, z'
loop_
 _atom_site_type_symbol
 _atom_site_label
 _atom_site_symmetry_multiplicity
 _atom_site_fract_x
 _atom_site_fract_y
 _atom_site_fract_z
 _atom_site_occupancy
  V  V0  1  0.71464600  0.25368200  0.48783500  1
  V  V1  1  0.52768500  0.98146100  0.73622600  1
  V  V2  1  0.28535400  0.75368200  0.01216500  1
  V  V3  1  0.97231500  0.01853900  0.23622600  1
  V  V4  1  0.02768500  0.51853900  0.26377400  1
  V  V5  1  0.97231500  0.48146100  0.73622600  1
  V  V6  1  0.78535400  0.75368200  0.48783500  1
  V  V7  1  0.47231500  0.01853900  0.26377400  1
  V  V8  1  0.52768500  0.51853900  0.23622600  1
  V  V9  1  0.71464600  0.24631800  0.98783500  1
  V  V10  1  0.47231500  0.48146100  0.76377400  1
  V  V11  1  0.02768500  0.98146100  0.76377400  1
  V  V12  1  0.78535400  0.74631800  0.98783500  1
  V  V13  1  0.21464600  0.25368200  0.01216500  1
  V  V14  1  0.21464600  0.24631800  0.51216500  1
  V  V15  1  0.28535400  0.74631800  0.51216500  1
  Cu  Cu0  1  0.87480600  0.11897900  0.62724700  1
  Cu  Cu1  1  0.62519400  0.88102100  0.12724700  1
  Cu  Cu2  1  0.87480600  0.38102100  0.12724700  1
  Cu  Cu3  1  0.37480600  0.11897900  0.87275300  1
  Cu  Cu4  1  0.37480600  0.38102100  0.37275300  1
  Cu  Cu5  1  0.12519400  0.88102100  0.37275300  1
  Cu  Cu6  1  0.12519400  0.61897900  0.87275300  1
  Cu  Cu7  1  0.62519400  0.61897900  0.62724700  1
  P  P0  1  0.73625200  0.50199700  0.43611400  1
  P  P1  1  0.26374800  0.00199700  0.06388600  1
  P  P2  1  0.99992600  0.73906400  0.68689700  1
  P  P3  1  0.49992600  0.73906400  0.81310300  1
  P  P4  1  0.50007400  0.23906400  0.68689700  1
  P  P5  1  0.49992600  0.76093600  0.31310300  1
  P  P6  1  0.23625200  0.50199700  0.06388600  1
  P  P7  1  0.26374800  0.49800300  0.56388600  1
  P  P8  1  0.00007400  0.26093600  0.31310300  1
  P  P9  1  0.73625200  0.99800300  0.93611400  1
  P  P10  1  0.23625200  0.99800300  0.56388600  1
  P  P11  1  0.00007400  0.23906400  0.81310300  1
  P  P12  1  0.76374800  0.49800300  0.93611400  1
  P  P13  1  0.99992600  0.76093600  0.18689700  1
  P  P14  1  0.76374800  0.00199700  0.43611400  1
  P  P15  1  0.50007400  0.26093600  0.18689700  1
  O  O0  1  0.25394700  0.48930200  0.79360900  1
  O  O1  1  0.43084800  0.49996300  0.62837400  1
  O  O2  1  0.26770400  0.90508500  0.00278700  1
  O  O3  1  0.33061700  0.76912300  0.37470000  1
  O  O4  1  0.50409100  0.75387000  0.54266600  1
  O  O5  1  0.93084800  0.49996300  0.87162600  1
  O  O6  1  0.00409100  0.75387000  0.95733400  1
  O  O7  1  0.49590900  0.24613000  0.45733400  1
  O  O8  1  0.33061700  0.73087700  0.87470000  1
  O  O9  1  0.27612300  0.09835600  0.99929000  1
  O  O10  1  0.48825500  0.83296400  0.74835900  1
  O  O11  1  0.50409100  0.74613000  0.04266600  1
  O  O12  1  0.48825500  0.66703600  0.24835900  1
  O  O13  1  0.16982300  0.74517000  0.62845100  1
  O  O14  1  0.98825500  0.66703600  0.25164100  1
  O  O15  1  0.50915000  0.86001400  0.25110600  1
  O  O16  1  0.74605300  0.51069800  0.20639100  1
  O  O17  1  0.98825500  0.83296400  0.75164100  1
  O  O18  1  0.76770400  0.59491500  0.99721300  1
  O  O19  1  0.33017700  0.25483000  0.12845100  1
  O  O20  1  0.23229600  0.40508500  0.00278700  1
  O  O21  1  0.23229600  0.09491500  0.50278700  1
  O  O22  1  0.22387700  0.90164400  0.49929000  1
  O  O23  1  0.59094800  0.48766800  0.88026600  1
  O  O24  1  0.50915000  0.63998600  0.75110600  1
  O  O25  1  0.74605300  0.98930200  0.70639100  1
  O  O26  1  0.56915200  0.99996300  0.87162600  1
  O  O27  1  0.00915000  0.86001400  0.24889400  1
  O  O28  1  0.66982300  0.75483000  0.37154900  1
  O  O29  1  0.56915200  0.50003700  0.37162600  1
  O  O30  1  0.59094800  0.01233200  0.38026600  1
  O  O31  1  0.49085000  0.13998600  0.74889400  1
  O  O32  1  0.16938300  0.26912300  0.37470000  1
  O  O33  1  0.00409100  0.74613000  0.45733400  1
  O  O34  1  0.99085000  0.13998600  0.75110600  1
  O  O35  1  0.76770400  0.90508500  0.49721300  1
  O  O36  1  0.90905200  0.98766800  0.88026600  1
  O  O37  1  0.77612300  0.40164400  0.00071000  1
  O  O38  1  0.73229600  0.40508500  0.49721300  1
  O  O39  1  0.33017700  0.24517000  0.62845100  1
  O  O40  1  0.06915200  0.99996300  0.62837400  1
  O  O41  1  0.73229600  0.09491500  0.99721300  1
  O  O42  1  0.24605300  0.51069800  0.29360900  1
  O  O43  1  0.16938300  0.23087700  0.87470000  1
  O  O44  1  0.06915200  0.50003700  0.12837400  1
  O  O45  1  0.83017700  0.25483000  0.37154900  1
  O  O46  1  0.99590900  0.24613000  0.04266600  1
  O  O47  1  0.43084800  0.00003700  0.12837400  1
  O  O48  1  0.83061700  0.76912300  0.12530000  1
  O  O49  1  0.00915000  0.63998600  0.74889400  1
  O  O50  1  0.40905200  0.98766800  0.61973400  1
  O  O51  1  0.75394700  0.48930200  0.70639100  1
  O  O52  1  0.24605300  0.98930200  0.79360900  1
  O  O53  1  0.26770400  0.59491500  0.50278700  1
  O  O54  1  0.66938300  0.26912300  0.12530000  1
  O  O55  1  0.01174500  0.16703600  0.24835900  1
  O  O56  1  0.51174500  0.16703600  0.25164100  1
  O  O57  1  0.99085000  0.36001400  0.25110600  1
  O  O58  1  0.83061700  0.73087700  0.62530000  1
  O  O59  1  0.99590900  0.25387000  0.54266600  1
  O  O60  1  0.66982300  0.74517000  0.87154900  1
  O  O61  1  0.75394700  0.01069800  0.20639100  1
  O  O62  1  0.40905200  0.51233200  0.11973400  1
  O  O63  1  0.49590900  0.25387000  0.95733400  1
  O  O64  1  0.51174500  0.33296400  0.75164100  1
  O  O65  1  0.66938300  0.23087700  0.62530000  1
  O  O66  1  0.09094800  0.48766800  0.61973400  1
  O  O67  1  0.01174500  0.33296400  0.74835900  1
  O  O68  1  0.22387700  0.59835600  0.99929000  1
  O  O69  1  0.93084800  0.00003700  0.37162600  1
  O  O70  1  0.72387700  0.59835600  0.50071000  1
  O  O71  1  0.83017700  0.24517000  0.87154900  1
  O  O72  1  0.72387700  0.90164400  0.00071000  1
  O  O73  1  0.90905200  0.51233200  0.38026600  1
  O  O74  1  0.27612300  0.40164400  0.49929000  1
  O  O75  1  0.09094800  0.01233200  0.11973400  1
  O  O76  1  0.16982300  0.75483000  0.12845100  1
  O  O77  1  0.49085000  0.36001400  0.24889400  1
  O  O78  1  0.77612300  0.09835600  0.50071000  1
  O  O79  1  0.25394700  0.01069800  0.29360900  1
loop_
_geom_bond_atom_site_label_1
_geom_bond_atom_site_label_2
_geom_bond_distance
_geom_bond_site_symmetry_2
Cu0 O78 2.021509 1_555
Cu0 O34 2.037369 1_555
Cu0 O65 2.095752 1_555
Cu0 O40 2.100897 1_645
Cu0 O25 2.242203 1_545
Cu0 O59 2.310770 1_555
Cu1 O72 2.021509 1_555
Cu1 O15 2.037369 1_555
Cu1 O48 2.095752 1_555
Cu1 O47 2.100897 1_565
Cu1 O61 2.242203 1_565
Cu1 O11 2.310770 1_555
Cu2 O37 2.021509 1_555
Cu2 O57 2.037369 1_555
Cu2 O54 2.095752 1_555
Cu2 O44 2.100897 1_655
Cu2 O16 2.242203 1_555
Cu2 O46 2.310770 1_555
Cu3 O9 2.021509 1_555
Cu3 O31 2.037369 1_555
Cu3 O43 2.095752 1_555
Cu3 O26 2.100897 1_545
Cu3 O52 2.242203 1_545
Cu3 O63 2.310770 1_555
Cu4 O74 2.021509 1_555
Cu4 O77 2.037369 1_555
Cu4 O32 2.095752 1_555
Cu4 O29 2.100897 1_555
Cu4 O42 2.242203 1_555
Cu4 O7 2.310770 1_555
Cu5 O22 2.021509 1_555
Cu5 O27 2.037369 1_555
Cu5 O3 2.095752 1_555
Cu5 O69 2.100897 1_465
Cu5 O79 2.242203 1_565
Cu5 O33 2.310770 1_555
Cu6 O68 2.021509 1_555
Cu6 O49 2.037369 1_555
Cu6 O8 2.095752 1_555
Cu6 O5 2.100897 1_455
Cu6 O0 2.242203 1_555
Cu6 O6 2.310770 1_555
Cu7 O70 2.021509 1_555
Cu7 O24 2.037369 1_555
Cu7 O58 2.095752 1_555
Cu7 O1 2.100897 1_555
Cu7 O51 2.242203 1_555
Cu7 O4 2.310770 1_555
O0 V10 1.689693 1_555
O0 V5 2.266207 1_455
O1 P7 1.567203 1_555
O1 V10 2.032468 1_555
O2 P1 1.531280 1_565
O2 V2 1.944112 1_555
O3 P5 1.558412 1_555
O3 V15 2.073781 1_555
O4 V15 1.694706 1_555
O4 V6 2.247654 1_555
O5 P12 1.567203 1_555
O5 V5 2.032468 1_555
O6 V12 1.694706 1_455
O6 V2 2.247654 1_556
O7 V0 1.694706 1_555
O7 V14 2.247654 1_555
O8 P3 1.558412 1_555
O8 V2 2.073781 1_556
O9 P1 1.558981 1_556
O9 V13 2.045925 1_556
O10 P3 1.535331 1_555
O10 V1 1.928539 1_555
O11 V2 1.694706 1_555
O11 V12 2.247654 1_554
O12 P5 1.535331 1_555
O12 V8 1.928539 1_555
O13 P2 1.533877 1_455
O13 V15 1.917725 1_555
O14 P13 1.535331 1_555
O14 V4 1.928539 1_655
O15 P5 1.562688 1_555
O15 V7 2.052775 1_565
O16 V8 1.689693 1_555
O16 V4 2.266207 1_655
O17 P2 1.535331 1_555
O17 V11 1.928539 1_655
O18 P12 1.531280 1_555
O18 V12 1.944112 1_555
O19 P15 1.533877 1_555
O19 V13 1.917725 1_555
O20 P6 1.531280 1_555
O20 V13 1.944112 1_555
O21 P10 1.531280 1_545
O21 V14 1.944112 1_555
O22 P10 1.558981 1_555
O22 V15 2.045925 1_555
O23 P12 1.534602 1_555
O23 V10 1.932498 1_555
O24 P3 1.562688 1_555
O24 V10 2.052775 1_555
O25 V1 1.689693 1_555
O25 V11 2.266207 1_655
O26 P9 1.567203 1_555
O26 V1 2.032468 1_555
O27 P13 1.562688 1_455
O27 V3 2.052775 1_465
O28 P5 1.533877 1_555
O28 V6 1.917725 1_555
O29 P0 1.567203 1_555
O29 V8 2.032468 1_555
O30 P14 1.534602 1_555
O30 V7 1.932498 1_555
O31 P4 1.562688 1_555
O31 V1 2.052775 1_545
O32 P8 1.558412 1_555
O32 V14 2.073781 1_555
O33 V6 1.694706 1_455
O33 V15 2.247654 1_555
O34 P11 1.562688 1_655
O34 V11 2.052775 1_645
O35 P14 1.531280 1_565
O35 V6 1.944112 1_555
O36 P9 1.534602 1_555
O36 V11 1.932498 1_655
O37 P12 1.558981 1_554
O37 V9 2.045925 1_554
O38 P0 1.531280 1_555
O38 V0 1.944112 1_555
O39 P4 1.533877 1_555
O39 V14 1.917725 1_555
O40 P10 1.567203 1_555
O40 V11 2.032468 1_555
O41 P9 1.531280 1_545
O41 V9 1.944112 1_555
O42 V4 1.689693 1_555
O42 V8 2.266207 1_555
O43 P11 1.558412 1_555
O43 V13 2.073781 1_556
O44 P6 1.567203 1_555
O44 V4 2.032468 1_555
O45 P8 1.533877 1_655
O45 V0 1.917725 1_555
O46 V13 1.694706 1_655
O46 V9 2.247654 1_554
O47 P1 1.567203 1_555
O47 V7 2.032468 1_555
O48 P13 1.558412 1_555
O48 V12 2.073781 1_554
O49 P2 1.562688 1_455
O49 V5 2.052775 1_455
O50 P10 1.534602 1_555
O50 V1 1.932498 1_555
O51 V5 1.689693 1_555
O51 V10 2.266207 1_555
O52 V11 1.689693 1_555
O52 V1 2.266207 1_555
O53 P7 1.531280 1_555
O53 V15 1.944112 1_555
O54 P15 1.558412 1_555
O54 V9 2.073781 1_554
O55 P8 1.535331 1_555
O55 V3 1.928539 1_455
O56 P15 1.535331 1_555
O56 V7 1.928539 1_555
O57 P8 1.562688 1_655
O57 V4 2.052775 1_655
O58 P2 1.558412 1_555
O58 V6 2.073781 1_555
O59 V14 1.694706 1_655
O59 V0 2.247654 1_555
O60 P3 1.533877 1_555
O60 V12 1.917725 1_555
O61 V3 1.689693 1_555
O61 V7 2.266207 1_555
O62 P6 1.534602 1_555
O62 V8 1.932498 1_555
O63 V9 1.694706 1_555
O63 V13 2.247654 1_556
O64 P4 1.535331 1_555
O64 V10 1.928539 1_555
O65 P4 1.558412 1_555
O65 V0 2.073781 1_555
O66 P7 1.534602 1_555
O66 V5 1.932498 1_455
O67 P11 1.535331 1_555
O67 V5 1.928539 1_455
O68 P6 1.558981 1_556
O68 V2 2.045925 1_556
O69 P14 1.567203 1_555
O69 V3 2.032468 1_555
O70 P0 1.558981 1_555
O70 V6 2.045925 1_555
O71 P11 1.533877 1_655
O71 V9 1.917725 1_555
O72 P9 1.558981 1_554
O72 V12 2.045925 1_554
O73 P0 1.534602 1_555
O73 V4 1.932498 1_655
O74 P7 1.558981 1_555
O74 V14 2.045925 1_555
O75 P1 1.534602 1_555
O75 V3 1.932498 1_455
O76 P13 1.533877 1_455
O76 V2 1.917725 1_555
O77 P15 1.562688 1_555
O77 V8 2.052775 1_555
O78 P14 1.558981 1_555
O78 V0 2.045925 1_555
O79 V7 1.689693 1_555
O79 V3 2.266207 1_455
