# generated using pymatgen
data_Pr7C3I10
_symmetry_space_group_name_H-M   'P 1'
_cell_length_a   9.75673762
_cell_length_b   11.80716968
_cell_length_c   14.02367276
_cell_angle_alpha   79.65648381
_cell_angle_beta   71.60161168
_cell_angle_gamma   66.07063242
_symmetry_Int_Tables_number   1
_chemical_formula_structural   Pr7C3I10
_chemical_formula_sum   'Pr14 C6 I20'
_cell_volume   1398.70464786
_cell_formula_units_Z   2
loop_
 _symmetry_equiv_pos_site_id
 _symmetry_equiv_pos_as_xyz
  1  'x, y, z'
loop_
 _atom_site_type_symbol
 _atom_site_label
 _atom_site_symmetry_multiplicity
 _atom_site_fract_x
 _atom_site_fract_y
 _atom_site_fract_z
 _atom_site_occupancy
  Pr  Pr0  1  0.62313968  0.07213060  0.35917490  1
  Pr  Pr1  1  0.86715045  0.72340338  0.41334117  1
  Pr  Pr2  1  0.95225805  0.57937350  0.16608329  1
  Pr  Pr3  1  0.04868559  0.88439784  0.17580663  1
  Pr  Pr4  1  0.25431417  0.04893631  0.92093242  1
  Pr  Pr5  1  0.74568583  0.95106369  0.07906758  1
  Pr  Pr6  1  0.04774195  0.42062650  0.83391671  1
  Pr  Pr7  1  0.54064827  0.79390196  0.30739866  1
  Pr  Pr8  1  0.16740669  0.75715644  0.89977369  1
  Pr  Pr9  1  0.13284955  0.27659662  0.58665883  1
  Pr  Pr10  1  0.95131441  0.11560216  0.82419337  1
  Pr  Pr11  1  0.83259331  0.24284356  0.10022631  1
  Pr  Pr12  1  0.37686032  0.92786940  0.64082510  1
  Pr  Pr13  1  0.45935173  0.20609804  0.69260134  1
  C  C0  1  0.16794155  0.22493177  0.77036445  1
  C  C1  1  0.24422148  0.11160205  0.72500083  1
  C  C2  1  0.96186605  0.05654970  0.02264393  1
  C  C3  1  0.75577852  0.88839795  0.27499917  1
  C  C4  1  0.03813395  0.94345030  0.97735607  1
  C  C5  1  0.83205845  0.77506823  0.22963555  1
  I  I0  1  0.07015758  0.86788099  0.69547905  1
  I  I1  1  0.60508140  0.07746047  0.87776271  1
  I  I2  1  0.50139325  0.22100368  0.16992989  1
  I  I3  1  0.28279148  0.60574145  0.09140572  1
  I  I4  1  0.95780278  0.56536230  0.63720317  1
  I  I5  1  0.39491860  0.92253953  0.12223729  1
  I  I6  1  0.49860675  0.77899632  0.83007011  1
  I  I7  1  0.92984242  0.13211901  0.30452095  1
  I  I8  1  0.56489015  0.65698966  0.52030593  1
  I  I9  1  0.14369721  0.30528414  0.04235400  1
  I  I10  1  0.04219722  0.43463770  0.36279683  1
  I  I11  1  0.43510985  0.34301034  0.47969407  1
  I  I12  1  0.71453606  0.95301395  0.56875575  1
  I  I13  1  0.28546394  0.04698605  0.43124425  1
  I  I14  1  0.64367727  0.52452843  0.22448186  1
  I  I15  1  0.71720852  0.39425855  0.90859428  1
  I  I16  1  0.81388953  0.24526133  0.62557365  1
  I  I17  1  0.35632273  0.47547157  0.77551814  1
  I  I18  1  0.85630279  0.69471586  0.95764600  1
  I  I19  1  0.18611047  0.75473867  0.37442635  1
loop_
_geom_bond_atom_site_label_1
_geom_bond_atom_site_label_2
_geom_bond_distance
_geom_bond_site_symmetry_2
C0 C1 1.395731 1_555
C0 Pr6 2.321643 1_555
C0 Pr13 2.634294 1_555
C0 Pr9 2.636156 1_555
C0 Pr10 2.749476 1_455
C0 Pr4 2.759313 1_555
C1 Pr12 2.334992 1_545
C1 Pr13 2.640587 1_555
C1 Pr9 2.645005 1_555
C1 Pr4 2.736519 1_555
C1 Pr10 2.740262 1_455
C2 C4 1.393002 1_644
C2 Pr11 2.314167 1_555
C2 Pr5 2.711052 1_545
C2 Pr4 2.730021 1_654
C2 Pr3 2.765244 1_645
C2 Pr10 2.769059 1_554
C3 C5 1.395731 1_555
C3 Pr0 2.334992 1_565
C3 Pr7 2.640587 1_555
C3 Pr1 2.645005 1_555
C3 Pr5 2.736519 1_555
C3 Pr3 2.740262 1_655
C4 Pr8 2.314167 1_555
C4 Pr4 2.711052 1_565
C4 Pr5 2.730021 1_456
C4 Pr10 2.765244 1_465
C4 Pr3 2.769059 1_556
C5 Pr2 2.321643 1_555
C5 Pr7 2.634294 1_555
C5 Pr1 2.636156 1_555
C5 Pr3 2.749476 1_655
C5 Pr5 2.759313 1_555
I0 Pr12 3.181250 1_555
I0 Pr8 3.190942 1_555
I0 Pr10 3.313776 1_465
I1 Pr13 3.198989 1_555
I1 Pr5 3.368918 1_546
I1 Pr10 3.418983 1_555
I1 Pr4 3.427289 1_555
I2 Pr11 3.171070 1_555
I2 Pr0 3.188253 1_555
I2 Pr5 3.292676 1_545
I3 Pr2 3.187368 1_455
I3 Pr8 3.199590 1_554
I3 Pr3 3.322443 1_555
I4 Pr6 3.149483 1_655
I4 Pr9 3.228609 1_655
I4 Pr1 3.525648 1_555
I5 Pr7 3.198989 1_555
I5 Pr4 3.368918 1_564
I5 Pr3 3.418983 1_555
I5 Pr5 3.427289 1_555
I6 Pr8 3.171070 1_555
I6 Pr12 3.188253 1_555
I6 Pr4 3.292676 1_565
I7 Pr0 3.181250 1_555
I7 Pr11 3.190942 1_555
I7 Pr3 3.313776 1_645
I8 Pr7 3.160096 1_555
I8 Pr1 3.197372 1_555
I8 Pr12 3.416931 1_555
I9 Pr11 3.234356 1_455
I9 Pr6 3.246396 1_554
I9 Pr4 3.356507 1_554
I9 Pr2 3.469818 1_455
I10 Pr2 3.149483 1_455
I10 Pr1 3.228609 1_455
I10 Pr9 3.525648 1_555
I11 Pr13 3.160096 1_555
I11 Pr9 3.197372 1_555
I11 Pr0 3.416931 1_555
I12 Pr12 3.247753 1_555
I12 Pr0 3.250252 1_565
I12 Pr1 3.334009 1_555
I12 Pr13 3.353106 1_565
I13 Pr0 3.247753 1_555
I13 Pr12 3.250252 1_545
I13 Pr9 3.334009 1_555
I13 Pr7 3.353106 1_545
I14 Pr2 3.160587 1_555
I14 Pr7 3.236514 1_555
I14 Pr11 3.546273 1_555
I15 Pr6 3.187368 1_655
I15 Pr11 3.199590 1_556
I15 Pr10 3.322443 1_555
I16 Pr9 3.147821 1_655
I16 Pr10 3.325791 1_555
I16 Pr13 3.485967 1_555
I17 Pr6 3.160587 1_555
I17 Pr13 3.236514 1_555
I17 Pr8 3.546273 1_555
I18 Pr8 3.234356 1_655
I18 Pr2 3.246396 1_556
I18 Pr5 3.356507 1_556
I18 Pr6 3.469818 1_655
I19 Pr1 3.147821 1_455
I19 Pr3 3.325791 1_555
I19 Pr7 3.485967 1_555
