# generated using pymatgen
data_U13O34
_symmetry_space_group_name_H-M   'P 1'
_cell_length_a   25.62343816
_cell_length_b   25.62343816
_cell_length_c   4.16444800
_cell_angle_alpha   90.00000000
_cell_angle_beta   90.00000000
_cell_angle_gamma   164.48017921
_symmetry_Int_Tables_number   1
_chemical_formula_structural   U13O34
_chemical_formula_sum   'U13 O34'
_cell_volume   731.59790736
_cell_formula_units_Z   1
loop_
 _symmetry_equiv_pos_site_id
 _symmetry_equiv_pos_as_xyz
  1  'x, y, z'
loop_
 _atom_site_type_symbol
 _atom_site_label
 _atom_site_symmetry_multiplicity
 _atom_site_fract_x
 _atom_site_fract_y
 _atom_site_fract_z
 _atom_site_occupancy
  U  U0  1  0.83561900  0.13873300  0.00000000  1
  U  U1  1  0.13873300  0.83561900  0.00000000  1
  U  U2  1  0.93152400  0.08242900  0.00000000  1
  U  U3  1  0.43796500  0.51640300  0.00000000  1
  U  U4  1  0.36147200  0.59999400  0.00000000  1
  U  U5  1  0.08242900  0.93152400  0.00000000  1
  U  U6  1  0.29597800  0.68072300  0.00000000  1
  U  U7  1  0.94158700  0.94158700  0.00000000  1
  U  U8  1  0.59999400  0.36147200  0.00000000  1
  U  U9  1  0.51640300  0.43796500  0.00000000  1
  U  U10  1  0.22171300  0.75247200  0.00000000  1
  U  U11  1  0.68072300  0.29597800  0.00000000  1
  U  U12  1  0.75247200  0.22171300  0.00000000  1
  O  O0  1  0.29883000  0.45374800  0.00000000  1
  O  O1  1  0.25419700  0.02548500  0.00000000  1
  O  O2  1  0.07430700  0.52753200  0.00000000  1
  O  O3  1  0.89988700  0.44797700  0.00000000  1
  O  O4  1  0.83717800  0.75033200  0.00000000  1
  O  O5  1  0.67780500  0.29273400  0.50000000  1
  O  O6  1  0.13912700  0.45734800  0.00000000  1
  O  O7  1  0.17400400  0.78961300  0.00000000  1
  O  O8  1  0.35693500  0.59777200  0.50000000  1
  O  O9  1  0.43622900  0.51336700  0.50000000  1
  O  O10  1  0.75245700  0.22317600  0.50000000  1
  O  O11  1  0.52753200  0.07430700  0.00000000  1
  O  O12  1  0.13533100  0.19723600  0.00000000  1
  O  O13  1  0.66116100  0.86681900  0.00000000  1
  O  O14  1  0.51116800  0.82318900  0.00000000  1
  O  O15  1  0.78961300  0.17400400  0.00000000  1
  O  O16  1  0.75033200  0.83717800  0.00000000  1
  O  O17  1  0.12921500  0.82839500  0.50000000  1
  O  O18  1  0.92649900  0.92649900  0.50000000  1
  O  O19  1  0.45374800  0.29883000  0.00000000  1
  O  O20  1  0.29273400  0.67780500  0.50000000  1
  O  O21  1  0.44797700  0.89988700  0.00000000  1
  O  O22  1  0.19723600  0.13533100  0.00000000  1
  O  O23  1  0.45734800  0.13912700  0.00000000  1
  O  O24  1  0.09121000  0.94214100  0.50000000  1
  O  O25  1  0.59777200  0.35693500  0.50000000  1
  O  O26  1  0.82318900  0.51116800  0.00000000  1
  O  O27  1  0.58298400  0.58298400  0.00000000  1
  O  O28  1  0.22317600  0.75245700  0.50000000  1
  O  O29  1  0.82839500  0.12921500  0.50000000  1
  O  O30  1  0.02548500  0.25419700  0.00000000  1
  O  O31  1  0.51336700  0.43622900  0.50000000  1
  O  O32  1  0.94214100  0.09121000  0.50000000  1
  O  O33  1  0.86681900  0.66116100  0.00000000  1
loop_
_geom_bond_atom_site_label_1
_geom_bond_atom_site_label_2
_geom_bond_distance
_geom_bond_site_symmetry_2
O0 U3 2.063428 1_555
O0 U4 2.242263 1_555
O0 U2 2.557478 1_455
O1 U1 2.164286 1_545
O1 U5 2.178879 1_545
O1 U8 2.371905 1_555
O2 U6 2.169061 1_555
O2 U12 2.209261 1_455
O2 U10 2.352547 1_555
O3 U11 2.134670 1_555
O3 U10 2.211129 1_655
O3 U12 2.383052 1_555
O4 U5 2.195874 1_655
O4 U9 2.200881 1_555
O4 U7 2.430641 1_555
O5 U11 2.082350 1_555
O5 U11 2.082350 1_556
O6 U6 2.140816 1_555
O6 U0 2.186288 1_455
O6 U4 2.385160 1_555
O7 U1 2.063859 1_555
O7 U10 2.154549 1_555
O8 U4 2.083185 1_555
O8 U4 2.083185 1_556
O9 U3 2.082551 1_555
O9 U3 2.082551 1_556
O10 U12 2.082568 1_555
O10 U12 2.082568 1_556
O11 U11 2.169061 1_555
O11 U10 2.209261 1_545
O11 U12 2.352547 1_555
O12 U3 2.191836 1_555
O12 U7 2.210784 1_445
O12 U2 2.514143 1_455
O13 U4 2.130198 1_555
O13 U2 2.181585 1_565
O14 U6 2.222666 1_555
O14 U0 2.225732 1_565
O14 U4 2.268593 1_555
O15 U0 2.063859 1_555
O15 U12 2.154549 1_555
O16 U2 2.195874 1_565
O16 U3 2.200881 1_555
O16 U7 2.430641 1_555
O17 U1 2.083844 1_556
O17 U1 2.083844 1_555
O18 U7 2.084840 1_556
O18 U7 2.084840 1_555
O19 U9 2.063428 1_555
O19 U8 2.242263 1_555
O19 U5 2.557478 1_545
O20 U6 2.082350 1_556
O20 U6 2.082350 1_555
O21 U6 2.134670 1_555
O21 U12 2.211129 1_565
O21 U10 2.383052 1_555
O22 U9 2.191836 1_555
O22 U7 2.210784 1_445
O22 U5 2.514143 1_545
O23 U11 2.140816 1_555
O23 U1 2.186288 1_545
O23 U8 2.385160 1_555
O24 U5 2.083827 1_556
O24 U5 2.083827 1_555
O25 U8 2.083185 1_555
O25 U8 2.083185 1_556
O26 U11 2.222666 1_555
O26 U1 2.225732 1_655
O26 U8 2.268593 1_555
O27 U9 2.121744 1_555
O27 U3 2.121744 1_555
O27 U7 2.481343 1_555
O28 U10 2.082568 1_555
O28 U10 2.082568 1_556
O29 U0 2.083844 1_556
O29 U0 2.083844 1_555
O30 U0 2.164286 1_455
O30 U2 2.178879 1_455
O30 U4 2.371905 1_555
O31 U9 2.082551 1_556
O31 U9 2.082551 1_555
O32 U2 2.083827 1_555
O32 U2 2.083827 1_556
O33 U8 2.130198 1_555
O33 U5 2.181585 1_655
