# generated using pymatgen
data_VHO3
_symmetry_space_group_name_H-M   'P 1'
_cell_length_a   5.18999200
_cell_length_b   8.18530349
_cell_length_c   8.62758755
_cell_angle_alpha   89.65306874
_cell_angle_beta   87.94920092
_cell_angle_gamma   82.22967386
_symmetry_Int_Tables_number   1
_chemical_formula_structural   VHO3
_chemical_formula_sum   'V6 H6 O18'
_cell_volume   362.91602867
_cell_formula_units_Z   6
loop_
 _symmetry_equiv_pos_site_id
 _symmetry_equiv_pos_as_xyz
  1  'x, y, z'
loop_
 _atom_site_type_symbol
 _atom_site_label
 _atom_site_symmetry_multiplicity
 _atom_site_fract_x
 _atom_site_fract_y
 _atom_site_fract_z
 _atom_site_occupancy
  V  V0  1  0.44372400  0.81983100  0.45458100  1
  V  V1  1  0.55133500  0.18073300  0.94441900  1
  V  V2  1  0.58527800  0.17101600  0.56022500  1
  V  V3  1  0.44856400  0.82402000  0.06490600  1
  V  V4  1  0.91525400  0.93709000  0.24459600  1
  V  V5  1  0.08317600  0.06131500  0.75837600  1
  H  H0  1  0.01939200  0.28206700  0.25842200  1
  H  H1  1  0.36832200  0.61747700  0.64913900  1
  H  H2  1  0.16272800  0.41437000  0.16260500  1
  H  H3  1  0.84832500  0.46554400  0.21735300  1
  H  H4  1  0.09711800  0.47152400  0.72779300  1
  H  H5  1  0.99993700  0.66413800  0.74297500  1
  O  O0  1  0.69039300  0.98324800  0.41970200  1
  O  O1  1  0.33040300  0.00471200  0.91965500  1
  O  O2  1  0.34639600  0.00140700  0.60014500  1
  O  O3  1  0.67415400  0.99751300  0.09430800  1
  O  O4  1  0.13216200  0.80820000  0.40904300  1
  O  O5  1  0.88192800  0.20651100  0.90259000  1
  O  O6  1  0.90815400  0.20009400  0.60665000  1
  O  O7  1  0.12117100  0.78544400  0.11908400  1
  O  O8  1  0.58785900  0.75260400  0.25908900  1
  O  O9  1  0.43268500  0.24868500  0.75319300  1
  O  O10  1  0.06793300  0.10161700  0.24248300  1
  O  O11  1  0.91788800  0.90601400  0.75960600  1
  O  O12  1  0.52769000  0.66055900  0.58250300  1
  O  O13  1  0.42060400  0.32658600  0.06576200  1
  O  O14  1  0.48502500  0.31202000  0.43529100  1
  O  O15  1  0.58442500  0.68061400  0.94999400  1
  O  O16  1  0.01967500  0.40944200  0.24650500  1
  O  O17  1  0.15286300  0.57993600  0.74101500  1
loop_
_geom_bond_atom_site_label_1
_geom_bond_atom_site_label_2
_geom_bond_distance
_geom_bond_site_symmetry_2
H0 O16 1.047234 1_555
H0 O10 1.470843 1_555
H1 O12 1.086913 1_555
H1 O17 1.414112 1_555
H2 O16 1.022788 1_555
H2 O13 1.634881 1_555
H3 O16 0.984469 1_655
H4 O17 0.978355 1_555
H5 O17 0.978012 1_655
O0 V4 1.883757 1_555
O0 V2 1.969302 1_565
O0 V0 1.987289 1_555
O1 V5 1.938137 1_555
O1 V1 1.975922 1_555
O1 V3 1.980227 1_546
O2 V5 1.914116 1_555
O2 V0 1.953331 1_545
O2 V2 2.003039 1_555
O3 V4 1.852733 1_555
O3 V3 1.981671 1_555
O3 V1 2.026026 1_564
O4 V0 1.692830 1_555
O4 V4 2.041647 1_455
O5 V1 1.780814 1_555
O5 V5 1.908065 1_655
O6 V2 1.783864 1_555
O6 V5 1.901877 1_655
O7 V3 1.814333 1_555
O7 V4 1.852087 1_455
O8 V0 1.875293 1_555
O8 V3 1.905686 1_555
O8 V4 2.420640 1_555
O9 V1 1.838329 1_555
O9 V2 1.893514 1_555
O10 V4 1.651990 1_445
O11 V5 1.626646 1_665
O12 V0 1.723644 1_555
O13 V1 1.651330 1_554
O14 V2 1.620902 1_555
O15 V3 1.611893 1_556
