# generated using pymatgen
data_MgSiO3
_symmetry_space_group_name_H-M   'P 1'
_cell_length_a   6.37693289
_cell_length_b   6.37693289
_cell_length_c   4.89492618
_cell_angle_alpha   84.04629231
_cell_angle_beta   84.04629231
_cell_angle_gamma   80.38613500
_symmetry_Int_Tables_number   1
_chemical_formula_structural   MgSiO3
_chemical_formula_sum   'Mg4 Si4 O12'
_cell_volume   194.44017702
_cell_formula_units_Z   4
loop_
 _symmetry_equiv_pos_site_id
 _symmetry_equiv_pos_as_xyz
  1  'x, y, z'
loop_
 _atom_site_type_symbol
 _atom_site_label
 _atom_site_symmetry_multiplicity
 _atom_site_fract_x
 _atom_site_fract_y
 _atom_site_fract_z
 _atom_site_occupancy
  Mg  Mg0  1  0.11230400  0.88769600  0.25000000  1
  Mg  Mg1  1  0.69282400  0.30717600  0.25000000  1
  Mg  Mg2  1  0.88769600  0.11230400  0.75000000  1
  Mg  Mg3  1  0.30717600  0.69282400  0.75000000  1
  Si  Si0  1  0.32673500  0.16724700  0.52773100  1
  Si  Si1  1  0.67326500  0.83275300  0.47226900  1
  Si  Si2  1  0.83275300  0.67326500  0.97226900  1
  Si  Si3  1  0.16724700  0.32673500  0.02773100  1
  O  O0  1  0.93583800  0.80079600  0.63078400  1
  O  O1  1  0.71194000  0.60371300  0.30317400  1
  O  O2  1  0.89512300  0.38503900  0.92535400  1
  O  O3  1  0.80079600  0.93583800  0.13078400  1
  O  O4  1  0.19920400  0.06416200  0.86921600  1
  O  O5  1  0.60371300  0.71194000  0.80317400  1
  O  O6  1  0.10487700  0.61496100  0.07464600  1
  O  O7  1  0.38503900  0.89512300  0.42535400  1
  O  O8  1  0.61496100  0.10487700  0.57464600  1
  O  O9  1  0.39628700  0.28806000  0.19682600  1
  O  O10  1  0.28806000  0.39628700  0.69682600  1
  O  O11  1  0.06416200  0.19920400  0.36921600  1
loop_
_geom_bond_atom_site_label_1
_geom_bond_atom_site_label_2
_geom_bond_distance
_geom_bond_site_symmetry_2
Mg0 O6 2.027189 1_555
Mg0 O7 2.027189 1_555
Mg0 O11 2.092951 1_565
Mg0 O3 2.092951 1_455
Mg0 O4 2.146269 1_564
Mg0 O0 2.146269 1_455
Mg1 O9 1.960652 1_555
Mg1 O1 1.960652 1_555
Mg1 O8 2.015203 1_555
Mg1 O2 2.015203 1_554
Mg1 O11 2.465916 1_655
Mg1 O3 2.465916 1_545
Mg2 O2 2.027189 1_555
Mg2 O8 2.027189 1_555
Mg2 O4 2.092951 1_655
Mg2 O0 2.092951 1_545
Mg2 O11 2.146269 1_655
Mg2 O3 2.146269 1_546
Mg3 O10 1.960652 1_555
Mg3 O5 1.960652 1_555
Mg3 O6 2.015203 1_556
Mg3 O7 2.015203 1_555
Mg3 O4 2.465916 1_565
Mg3 O0 2.465916 1_455
O0 Si2 1.885785 1_555
O0 Si1 1.889438 1_555
O1 Si1 1.722592 1_555
O1 Si2 1.766378 1_554
O2 Si3 1.823989 1_656
O2 Si2 1.847594 1_555
O3 Si1 1.885785 1_555
O3 Si2 1.889438 1_554
O4 Si0 1.885785 1_555
O4 Si3 1.889438 1_556
O5 Si2 1.722592 1_555
O5 Si1 1.766378 1_555
O6 Si2 1.823989 1_454
O6 Si3 1.847594 1_555
O7 Si0 1.823989 1_565
O7 Si1 1.847594 1_555
O8 Si1 1.823989 1_545
O8 Si0 1.847594 1_555
O9 Si3 1.722592 1_555
O9 Si0 1.766378 1_555
O10 Si0 1.722592 1_555
O10 Si3 1.766378 1_556
O11 Si3 1.885785 1_555
O11 Si0 1.889438 1_555
