# generated using pymatgen
data_Na4TiP2O9
_symmetry_space_group_name_H-M   'P 1'
_cell_length_a   7.63412100
_cell_length_b   13.40880600
_cell_length_c   20.76236076
_cell_angle_alpha   85.05745842
_cell_angle_beta   90.00000000
_cell_angle_gamma   90.00000000
_symmetry_Int_Tables_number   1
_chemical_formula_structural   Na4TiP2O9
_chemical_formula_sum   'Na40 Ti10 P20 O90'
_cell_volume   2117.42476949
_cell_formula_units_Z   10
loop_
 _symmetry_equiv_pos_site_id
 _symmetry_equiv_pos_as_xyz
  1  'x, y, z'
loop_
 _atom_site_type_symbol
 _atom_site_label
 _atom_site_symmetry_multiplicity
 _atom_site_fract_x
 _atom_site_fract_y
 _atom_site_fract_z
 _atom_site_occupancy
  Na  Na0  1  0.98393100  0.89700500  0.20144900  1
  Na  Na1  1  0.42017100  0.50000000  0.25000000  1
  Na  Na2  1  0.94996800  0.70367700  0.63755400  1
  Na  Na3  1  0.27326300  0.90430700  0.83165300  1
  Na  Na4  1  0.02103600  0.29894100  0.16034900  1
  Na  Na5  1  0.53948800  0.69907500  0.84730800  1
  Na  Na6  1  0.46051200  0.30092500  0.15269200  1
  Na  Na7  1  0.25582600  0.50736800  0.63803100  1
  Na  Na8  1  0.47339300  0.09541100  0.05192100  1
  Na  Na9  1  0.05003200  0.29632300  0.36244600  1
  Na  Na10  1  0.94996800  0.29632300  0.86244600  1
  Na  Na11  1  0.21271100  0.71158400  0.48043400  1
  Na  Na12  1  0.78728900  0.28841600  0.51956600  1
  Na  Na13  1  0.97896400  0.29894100  0.66034900  1
  Na  Na14  1  0.20000600  0.90030600  0.05552000  1
  Na  Na15  1  0.72673700  0.09569300  0.16834700  1
  Na  Na16  1  0.52660700  0.90458900  0.94807900  1
  Na  Na17  1  0.72673700  0.90430700  0.33165300  1
  Na  Na18  1  0.05003200  0.70367700  0.13755400  1
  Na  Na19  1  0.97896400  0.70105900  0.83965100  1
  Na  Na20  1  0.98393100  0.10299500  0.29855100  1
  Na  Na21  1  0.00000000  0.50000000  0.00000000  1
  Na  Na22  1  0.53948800  0.30092500  0.65269200  1
  Na  Na23  1  0.78728900  0.71158400  0.98043400  1
  Na  Na24  1  0.20000600  0.09969400  0.44448000  1
  Na  Na25  1  0.01606900  0.89700500  0.70144900  1
  Na  Na26  1  0.57982900  0.50000000  0.75000000  1
  Na  Na27  1  0.74417400  0.50736800  0.13803100  1
  Na  Na28  1  0.46051200  0.69907500  0.34730800  1
  Na  Na29  1  0.00000000  0.50000000  0.50000000  1
  Na  Na30  1  0.01606900  0.10299500  0.79855100  1
  Na  Na31  1  0.79999400  0.90030600  0.55552000  1
  Na  Na32  1  0.21271100  0.28841600  0.01956600  1
  Na  Na33  1  0.47339300  0.90458900  0.44807900  1
  Na  Na34  1  0.02103600  0.70105900  0.33965100  1
  Na  Na35  1  0.25582600  0.49263200  0.86196900  1
  Na  Na36  1  0.74417400  0.49263200  0.36196900  1
  Na  Na37  1  0.52660700  0.09541100  0.55192100  1
  Na  Na38  1  0.27326300  0.09569300  0.66834700  1
  Na  Na39  1  0.79999400  0.09969400  0.94448000  1
  Ti  Ti0  1  0.53969700  0.10280100  0.79958400  1
  Ti  Ti1  1  0.52331000  0.29933600  0.90049300  1
  Ti  Ti2  1  0.47669000  0.29933600  0.40049300  1
  Ti  Ti3  1  0.46030300  0.89719900  0.20041600  1
  Ti  Ti4  1  0.50000000  0.50000000  0.00000000  1
  Ti  Ti5  1  0.46030300  0.10280100  0.29958400  1
  Ti  Ti6  1  0.53969700  0.89719900  0.70041600  1
  Ti  Ti7  1  0.52331000  0.70066400  0.59950700  1
  Ti  Ti8  1  0.47669000  0.70066400  0.09950700  1
  Ti  Ti9  1  0.50000000  0.50000000  0.50000000  1
  P  P0  1  0.26026800  0.10341000  0.92608800  1
  P  P1  1  0.20777200  0.90209300  0.33187200  1
  P  P2  1  0.78366700  0.49662400  0.87663400  1
  P  P3  1  0.26026800  0.89659000  0.57391200  1
  P  P4  1  0.79222800  0.90209300  0.83187200  1
  P  P5  1  0.25724100  0.69999000  0.95931800  1
  P  P6  1  0.71518100  0.29947300  0.26482200  1
  P  P7  1  0.74275900  0.69999000  0.45931800  1
  P  P8  1  0.79222800  0.09790700  0.66812800  1
  P  P9  1  0.28481900  0.29947300  0.76482200  1
  P  P10  1  0.78366700  0.50337600  0.62336600  1
  P  P11  1  0.21633300  0.49662400  0.37663400  1
  P  P12  1  0.20777200  0.09790700  0.16812800  1
  P  P13  1  0.21633300  0.50337600  0.12336600  1
  P  P14  1  0.28481900  0.70052700  0.73517800  1
  P  P15  1  0.73973200  0.10341000  0.42608800  1
  P  P16  1  0.74275900  0.30001000  0.04068200  1
  P  P17  1  0.25724100  0.30001000  0.54068200  1
  P  P18  1  0.73973200  0.89659000  0.07391200  1
  P  P19  1  0.71518100  0.70052700  0.23517800  1
  O  O0  1  0.07221900  0.14000000  0.91282300  1
  O  O1  1  0.58348200  0.60200100  0.05123900  1
  O  O2  1  0.28387500  0.01550600  0.97785800  1
  O  O3  1  0.07221900  0.86000000  0.58717700  1
  O  O4  1  0.66536600  0.38693100  0.21565800  1
  O  O5  1  0.68520400  0.99458900  0.85256000  1
  O  O6  1  0.76105300  0.41500000  0.67455100  1
  O  O7  1  0.92778100  0.14000000  0.41282300  1
  O  O8  1  0.63263100  0.60445800  0.44484300  1
  O  O9  1  0.75372100  0.18676200  0.61815700  1
  O  O10  1  0.93669100  0.67481100  0.45154000  1
  O  O11  1  0.67261600  0.59361200  0.64562800  1
  O  O12  1  0.33467900  0.67377900  0.66527300  1
  O  O13  1  0.29095200  0.27405400  0.46896300  1
  O  O14  1  0.72884200  0.12587500  0.73668300  1
  O  O15  1  0.58348200  0.39799900  0.44876100  1
  O  O16  1  0.93669100  0.32518900  0.04846000  1
  O  O17  1  0.41651800  0.60200100  0.55123900  1
  O  O18  1  0.55478200  0.00000000  0.25000000  1
  O  O19  1  0.71612500  0.98449400  0.02214200  1
  O  O20  1  0.98609600  0.07124700  0.67701600  1
  O  O21  1  0.31479600  0.00541100  0.14744000  1
  O  O22  1  0.32566100  0.78630800  0.91262700  1
  O  O23  1  0.06330900  0.32518900  0.54846000  1
  O  O24  1  0.37336400  0.19203800  0.94994900  1
  O  O25  1  0.09061700  0.27060300  0.76422700  1
  O  O26  1  0.24627900  0.81323800  0.38184300  1
  O  O27  1  0.60347800  0.20592100  0.24800400  1
  O  O28  1  0.44521800  0.00000000  0.75000000  1
  O  O29  1  0.41651800  0.39799900  0.94876100  1
  O  O30  1  0.67433900  0.21369200  0.08737300  1
  O  O31  1  0.01390400  0.07124700  0.17701600  1
  O  O32  1  0.72884200  0.87412500  0.76331700  1
  O  O33  1  0.60347800  0.79407900  0.25199600  1
  O  O34  1  0.75372100  0.81323800  0.88184300  1
  O  O35  1  0.68520400  0.00541100  0.64744000  1
  O  O36  1  0.63130700  0.80206900  0.64557700  1
  O  O37  1  0.66532100  0.32622100  0.33472700  1
  O  O38  1  0.92778100  0.86000000  0.08717700  1
  O  O39  1  0.97303400  0.53842300  0.61152300  1
  O  O40  1  0.70904800  0.27405400  0.96896300  1
  O  O41  1  0.90938300  0.27060300  0.26422700  1
  O  O42  1  0.27115800  0.87412500  0.26331700  1
  O  O43  1  0.36736900  0.39554200  0.55515700  1
  O  O44  1  0.66216000  0.07100400  0.36074100  1
  O  O45  1  0.02696600  0.46157700  0.38847700  1
  O  O46  1  0.76105300  0.58500000  0.82544900  1
  O  O47  1  0.27115800  0.12587500  0.23668300  1
  O  O48  1  0.32566100  0.21369200  0.58737300  1
  O  O49  1  0.36869300  0.80206900  0.14557700  1
  O  O50  1  0.71071000  0.52735800  0.94330200  1
  O  O51  1  0.33784000  0.07100400  0.86074100  1
  O  O52  1  0.66536600  0.61306900  0.28434200  1
  O  O53  1  0.32738400  0.40638800  0.35437200  1
  O  O54  1  0.06330900  0.67481100  0.95154000  1
  O  O55  1  0.98609600  0.92875300  0.82298400  1
  O  O56  1  0.29095200  0.72594600  0.03103700  1
  O  O57  1  0.66216000  0.92899600  0.13925900  1
  O  O58  1  0.02696600  0.53842300  0.11152300  1
  O  O59  1  0.63130700  0.19793100  0.85442300  1
  O  O60  1  0.24627900  0.18676200  0.11815700  1
  O  O61  1  0.28387500  0.98449400  0.52214200  1
  O  O62  1  0.90938300  0.72939700  0.23577300  1
  O  O63  1  0.28929000  0.52735800  0.44330200  1
  O  O64  1  0.62663600  0.80796200  0.05005100  1
  O  O65  1  0.67261600  0.40638800  0.85437200  1
  O  O66  1  0.63263100  0.39554200  0.05515700  1
  O  O67  1  0.97303400  0.46157700  0.88847700  1
  O  O68  1  0.36869300  0.19793100  0.35442300  1
  O  O69  1  0.70904800  0.72594600  0.53103700  1
  O  O70  1  0.23894700  0.58500000  0.32544900  1
  O  O71  1  0.31479600  0.99458900  0.35256000  1
  O  O72  1  0.67433900  0.78630800  0.41262700  1
  O  O73  1  0.33463400  0.38693100  0.71565800  1
  O  O74  1  0.66532100  0.67377900  0.16527300  1
  O  O75  1  0.28929000  0.47264200  0.05669800  1
  O  O76  1  0.33463400  0.61306900  0.78434200  1
  O  O77  1  0.09061700  0.72939700  0.73577300  1
  O  O78  1  0.33467900  0.32622100  0.83472700  1
  O  O79  1  0.23894700  0.41500000  0.17455100  1
  O  O80  1  0.37336400  0.80796200  0.55005100  1
  O  O81  1  0.36736900  0.60445800  0.94484300  1
  O  O82  1  0.62663600  0.19203800  0.44994900  1
  O  O83  1  0.71612500  0.01550600  0.47785800  1
  O  O84  1  0.71071000  0.47264200  0.55669800  1
  O  O85  1  0.39652200  0.79407900  0.75199600  1
  O  O86  1  0.33784000  0.92899600  0.63925900  1
  O  O87  1  0.01390400  0.92875300  0.32298400  1
  O  O88  1  0.32738400  0.59361200  0.14562800  1
  O  O89  1  0.39652200  0.20592100  0.74800400  1
loop_
_geom_bond_atom_site_label_1
_geom_bond_atom_site_label_2
_geom_bond_distance
_geom_bond_site_symmetry_2
Na0 O31 2.358840 1_665
Na0 O62 2.367843 1_555
Na0 O38 2.502365 1_555
Na0 O42 2.546423 1_655
Na0 O87 2.604994 1_655
Na0 O57 2.791036 1_555
Na1 O70 2.444306 1_555
Na1 O79 2.444306 1_555
Na1 O53 2.510890 1_555
Na1 O88 2.510890 1_555
Na1 O4 2.548943 1_555
Na1 O52 2.548943 1_555
Na2 O39 2.332274 1_555
Na2 O77 2.356183 1_655
Na2 O3 2.445585 1_655
Na2 O11 2.578119 1_555
Na2 O36 2.779250 1_555
Na2 O69 2.872108 1_555
Na3 O55 2.221647 1_455
Na3 O22 2.243113 1_555
Na3 O51 2.415893 1_565
Na3 O28 2.422583 1_565
Na3 O85 2.495292 1_555
Na4 O79 2.314140 1_555
Na4 O41 2.319761 1_455
Na4 O16 2.407134 1_455
Na4 O60 2.492751 1_555
Na5 O46 2.350812 1_555
Na5 O34 2.391940 1_555
Na5 O76 2.396781 1_555
Na5 O22 2.478992 1_555
Na5 O85 2.509116 1_555
Na5 O81 2.644672 1_555
Na6 O79 2.350812 1_555
Na6 O60 2.391940 1_555
Na6 O4 2.396781 1_555
Na6 O30 2.478992 1_555
Na6 O27 2.509116 1_555
Na6 O66 2.644672 1_555
Na7 O39 2.257770 1_455
Na7 O73 2.262534 1_555
Na7 O12 2.424620 1_555
Na7 O17 2.443002 1_555
Na7 O43 2.525612 1_555
Na8 O30 2.368896 1_555
Na8 O2 2.426869 1_554
Na8 O19 2.487259 1_545
Na8 O24 2.504321 1_554
Na8 O21 2.538295 1_555
Na8 O60 2.586117 1_555
Na9 O45 2.332274 1_555
Na9 O41 2.356183 1_455
Na9 O7 2.445585 1_455
Na9 O53 2.578119 1_555
Na9 O68 2.779250 1_555
Na9 O13 2.872108 1_555
Na10 O67 2.332274 1_555
Na10 O25 2.356183 1_655
Na10 O0 2.445585 1_655
Na10 O65 2.578119 1_555
Na10 O59 2.779250 1_555
Na10 O40 2.872108 1_555
Na11 O10 2.257024 1_455
Na11 O80 2.363330 1_555
Na11 O26 2.373384 1_555
Na11 O17 2.523643 1_555
Na11 O63 2.714117 1_555
Na12 O23 2.257024 1_655
Na12 O82 2.363330 1_555
Na12 O9 2.373384 1_555
Na12 O15 2.523643 1_555
Na12 O84 2.714117 1_555
Na13 O6 2.314140 1_555
Na13 O25 2.319761 1_655
Na13 O23 2.407134 1_655
Na13 O9 2.492751 1_555
Na14 O2 2.228636 1_564
Na14 O38 2.231995 1_455
Na14 O56 2.532050 1_555
Na14 O49 2.542681 1_555
Na14 O21 2.619142 1_565
Na15 O31 2.221647 1_655
Na15 O30 2.243113 1_555
Na15 O57 2.415893 1_545
Na15 O18 2.422583 1_555
Na15 O27 2.495292 1_555
Na16 O22 2.368896 1_555
Na16 O19 2.426869 1_556
Na16 O2 2.487259 1_565
Na16 O64 2.504321 1_556
Na16 O5 2.538295 1_555
Na16 O34 2.586117 1_555
Na17 O87 2.221647 1_655
Na17 O72 2.243113 1_555
Na17 O44 2.415893 1_565
Na17 O18 2.422583 1_565
Na17 O33 2.495292 1_555
Na18 O58 2.332274 1_555
Na18 O62 2.356183 1_455
Na18 O38 2.445585 1_455
Na18 O88 2.578119 1_555
Na18 O49 2.779250 1_555
Na18 O56 2.872108 1_555
Na19 O46 2.314140 1_555
Na19 O77 2.319761 1_655
Na19 O54 2.407134 1_655
Na19 O34 2.492751 1_555
Na20 O87 2.358840 1_645
Na20 O41 2.367843 1_555
Na20 O7 2.502365 1_555
Na20 O47 2.546423 1_655
Na20 O31 2.604994 1_655
Na20 O44 2.791036 1_555
Na21 O58 2.423805 1_555
Na21 O67 2.423805 1_454
Na21 O75 2.514614 1_555
Na21 O50 2.514614 1_454
Na21 O16 2.516723 1_455
Na21 O54 2.516723 1_554
Na22 O6 2.350812 1_555
Na22 O9 2.391940 1_555
Na22 O73 2.396781 1_555
Na22 O48 2.478992 1_555
Na22 O89 2.509116 1_555
Na22 O43 2.644672 1_555
Na23 O54 2.257024 1_655
Na23 O64 2.363330 1_556
Na23 O34 2.373384 1_555
Na23 O1 2.523643 1_556
Na23 O50 2.714117 1_555
Na24 O61 2.228636 1_545
Na24 O7 2.231995 1_455
Na24 O13 2.532050 1_555
Na24 O68 2.542681 1_555
Na24 O71 2.619142 1_545
Na25 O20 2.358840 1_465
Na25 O77 2.367843 1_555
Na25 O3 2.502365 1_555
Na25 O32 2.546423 1_455
Na25 O55 2.604994 1_455
Na25 O86 2.791036 1_555
Na26 O46 2.444306 1_555
Na26 O6 2.444306 1_555
Na26 O65 2.510890 1_555
Na26 O11 2.510890 1_555
Na26 O76 2.548943 1_555
Na26 O73 2.548943 1_555
Na27 O58 2.257770 1_655
Na27 O4 2.262534 1_555
Na27 O74 2.424620 1_555
Na27 O1 2.443002 1_555
Na27 O66 2.525612 1_555
Na28 O70 2.350812 1_555
Na28 O26 2.391940 1_555
Na28 O52 2.396781 1_555
Na28 O72 2.478992 1_555
Na28 O33 2.509116 1_555
Na28 O8 2.644672 1_555
Na29 O45 2.423805 1_555
Na29 O39 2.423805 1_455
Na29 O84 2.514614 1_455
Na29 O63 2.514614 1_555
Na29 O23 2.516723 1_555
Na29 O10 2.516723 1_455
Na30 O55 2.358840 1_445
Na30 O25 2.367843 1_555
Na30 O0 2.502365 1_555
Na30 O14 2.546423 1_455
Na30 O20 2.604994 1_455
Na30 O51 2.791036 1_555
Na31 O83 2.228636 1_565
Na31 O3 2.231995 1_655
Na31 O69 2.532050 1_555
Na31 O36 2.542681 1_555
Na31 O35 2.619142 1_565
Na32 O16 2.257024 1_455
Na32 O24 2.363330 1_554
Na32 O60 2.373384 1_555
Na32 O29 2.523643 1_554
Na32 O75 2.714117 1_555
Na33 O72 2.368896 1_555
Na33 O61 2.426869 1_555
Na33 O83 2.487259 1_565
Na33 O80 2.504321 1_555
Na33 O71 2.538295 1_555
Na33 O26 2.586117 1_555
Na34 O70 2.314140 1_555
Na34 O62 2.319761 1_455
Na34 O10 2.407134 1_455
Na34 O26 2.492751 1_555
Na35 O67 2.257770 1_455
Na35 O76 2.262534 1_555
Na35 O78 2.424620 1_555
Na35 O29 2.443002 1_555
Na35 O81 2.525612 1_555
Na36 O45 2.257770 1_655
Na36 O52 2.262534 1_555
Na36 O37 2.424620 1_555
Na36 O15 2.443002 1_555
Na36 O8 2.525612 1_555
Na37 O48 2.368896 1_555
Na37 O83 2.426869 1_555
Na37 O61 2.487259 1_545
Na37 O82 2.504321 1_555
Na37 O35 2.538295 1_555
Na37 O9 2.586117 1_555
Na38 O20 2.221647 1_455
Na38 O48 2.243113 1_555
Na38 O86 2.415893 1_545
Na38 O28 2.422583 1_555
Na38 O89 2.495292 1_555
Na39 O19 2.228636 1_546
Na39 O0 2.231995 1_655
Na39 O40 2.532050 1_555
Na39 O59 2.542681 1_555
Na39 O5 2.619142 1_545
O0 P0 1.534340 1_555
O1 Ti8 1.909878 1_555
O1 Ti4 1.912925 1_555
O2 P0 1.535843 1_555
O3 P3 1.534340 1_555
O4 P6 1.534780 1_555
O5 P4 1.575464 1_555
O5 Ti0 2.067387 1_565
O6 P10 1.531811 1_555
O7 P15 1.534340 1_555
O8 P7 1.582520 1_555
O8 Ti9 2.005519 1_555
O9 P8 1.539279 1_555
O10 P7 1.530145 1_555
O11 P10 1.578838 1_555
O11 Ti7 2.009921 1_555
O12 P14 1.571547 1_555
O12 Ti7 1.995821 1_555
O13 P17 1.579225 1_555
O13 Ti2 2.015786 1_555
O14 P8 1.578840 1_555
O14 Ti0 1.953631 1_555
O15 Ti2 1.909878 1_555
O15 Ti9 1.912925 1_555
O16 P16 1.530145 1_555
O17 Ti7 1.909878 1_555
O17 Ti9 1.912925 1_555
O18 Ti5 1.929941 1_555
O18 Ti3 1.929941 1_545
O19 P18 1.535843 1_555
O20 P8 1.530004 1_555
O21 P12 1.575464 1_555
O21 Ti3 2.067387 1_545
O22 P5 1.535863 1_555
O23 P17 1.530145 1_555
O24 P0 1.582594 1_555
O24 Ti1 2.044534 1_555
O25 P9 1.532586 1_555
O26 P1 1.539279 1_555
O27 P6 1.580559 1_555
O27 Ti5 1.999576 1_555
O28 Ti0 1.929941 1_555
O28 Ti6 1.929941 1_545
O29 Ti1 1.909878 1_555
O29 Ti4 1.912925 1_556
O30 P16 1.535863 1_555
O31 P12 1.530004 1_555
O32 P4 1.578840 1_555
O32 Ti6 1.953631 1_555
O33 P19 1.580559 1_555
O33 Ti3 1.999576 1_555
O34 P4 1.539279 1_555
O35 P8 1.575464 1_555
O35 Ti6 2.067387 1_545
O36 Ti6 1.913858 1_555
O36 Ti7 1.915104 1_555
O37 P6 1.571547 1_555
O37 Ti2 1.995821 1_555
O38 P18 1.534340 1_555
O39 P10 1.533394 1_555
O40 P16 1.579225 1_556
O40 Ti1 2.015786 1_555
O41 P6 1.532586 1_555
O42 P1 1.578840 1_555
O42 Ti3 1.953631 1_555
O43 P17 1.582520 1_555
O43 Ti9 2.005519 1_555
O44 P15 1.575400 1_555
O44 Ti5 2.018782 1_555
O45 P11 1.533394 1_555
O46 P2 1.531811 1_555
O47 P12 1.578840 1_555
O47 Ti5 1.953631 1_555
O48 P17 1.535863 1_555
O49 Ti3 1.913858 1_555
O49 Ti8 1.915104 1_555
O50 P2 1.579335 1_555
O50 Ti4 2.008350 1_556
O51 P0 1.575400 1_555
O51 Ti0 2.018782 1_555
O52 P19 1.534780 1_555
O53 P11 1.578838 1_555
O53 Ti2 2.009921 1_555
O54 P5 1.530145 1_555
O55 P4 1.530004 1_555
O56 P5 1.579225 1_554
O56 Ti8 2.015786 1_555
O57 P18 1.575400 1_555
O57 Ti3 2.018782 1_555
O58 P13 1.533394 1_555
O59 Ti0 1.913858 1_555
O59 Ti1 1.915104 1_555
O60 P12 1.539279 1_555
O61 P3 1.535843 1_555
O62 P19 1.532586 1_555
O63 P11 1.579335 1_555
O63 Ti9 2.008350 1_555
O64 P18 1.582594 1_555
O64 Ti8 2.044534 1_555
O65 P2 1.578838 1_555
O65 Ti1 2.009921 1_555
O66 P16 1.582520 1_555
O66 Ti4 2.005519 1_555
O67 P2 1.533394 1_555
O68 Ti5 1.913858 1_555
O68 Ti2 1.915104 1_555
O69 P7 1.579225 1_555
O69 Ti7 2.015786 1_555
O70 P11 1.531811 1_555
O71 P1 1.575464 1_555
O71 Ti5 2.067387 1_565
O72 P7 1.535863 1_555
O73 P9 1.534780 1_555
O74 P19 1.571547 1_555
O74 Ti8 1.995821 1_555
O75 P13 1.579335 1_555
O75 Ti4 2.008350 1_555
O76 P14 1.534780 1_555
O77 P14 1.532586 1_555
O78 P9 1.571547 1_555
O78 Ti1 1.995821 1_555
O79 P13 1.531811 1_555
O80 P3 1.582594 1_555
O80 Ti7 2.044534 1_555
O81 P5 1.582520 1_555
O81 Ti4 2.005519 1_556
O82 P15 1.582594 1_555
O82 Ti2 2.044534 1_555
O83 P15 1.535843 1_555
O84 P10 1.579335 1_555
O84 Ti9 2.008350 1_555
O85 P14 1.580559 1_555
O85 Ti6 1.999576 1_555
O86 P3 1.575400 1_555
O86 Ti6 2.018782 1_555
O87 P1 1.530004 1_555
O88 P13 1.578838 1_555
O88 Ti8 2.009921 1_555
O89 P9 1.580559 1_555
O89 Ti0 1.999576 1_555
