# generated using pymatgen
data_Ba5Pb3
_symmetry_space_group_name_H-M   'P 1'
_cell_length_a   10.86744699
_cell_length_b   10.86744699
_cell_length_c   10.86744699
_cell_angle_alpha   130.19541353
_cell_angle_beta   130.19541353
_cell_angle_gamma   73.09455693
_symmetry_Int_Tables_number   1
_chemical_formula_structural   Ba5Pb3
_chemical_formula_sum   'Ba10 Pb6'
_cell_volume   731.25503262
_cell_formula_units_Z   2
loop_
 _symmetry_equiv_pos_site_id
 _symmetry_equiv_pos_as_xyz
  1  'x, y, z'
loop_
 _atom_site_type_symbol
 _atom_site_label
 _atom_site_symmetry_multiplicity
 _atom_site_fract_x
 _atom_site_fract_y
 _atom_site_fract_z
 _atom_site_occupancy
  Ba  Ba0  1  0.03551688  0.53551688  0.85498886  1
  Ba  Ba1  1  0.53551688  0.68053002  0.50000000  1
  Ba  Ba2  1  0.81946998  0.96448312  0.50000000  1
  Ba  Ba3  1  0.31946998  0.81946998  0.85498886  1
  Ba  Ba4  1  0.00000000  -0.00000000  -0.00000000  1
  Ba  Ba5  1  0.46448312  0.31946998  0.50000000  1
  Ba  Ba6  1  0.96448312  0.46448312  0.14501114  1
  Ba  Ba7  1  0.68053002  0.18053002  0.14501114  1
  Ba  Ba8  1  0.18053002  0.03551688  0.50000000  1
  Ba  Ba9  1  0.50000000  0.50000000  -0.00000000  1
  Pb  Pb0  1  0.88101435  0.61898565  0.50000000  1
  Pb  Pb1  1  0.61898565  0.11898565  0.73797030  1
  Pb  Pb2  1  0.75000000  0.75000000  -0.00000000  1
  Pb  Pb3  1  0.11898565  0.38101435  0.50000000  1
  Pb  Pb4  1  0.38101435  0.88101435  0.26202970  1
  Pb  Pb5  1  0.25000000  0.25000000  -0.00000000  1
loop_
_geom_bond_atom_site_label_1
_geom_bond_atom_site_label_2
_geom_bond_distance
_geom_bond_site_symmetry_2
Ba0 Pb4 3.617240 1_556
Ba0 Pb3 3.714157 1_555
Ba0 Pb0 3.714157 1_455
Ba0 Pb2 3.861106 1_456
Ba0 Pb5 3.861106 1_556
Ba1 Pb0 3.617239 1_555
Ba1 Pb4 3.714128 1_555
Ba1 Pb1 3.714140 1_565
Ba1 Pb5 3.861118 1_555
Ba1 Pb2 3.861118 1_556
Ba2 Pb0 3.617239 1_555
Ba2 Pb1 3.714128 1_565
Ba2 Pb4 3.714140 1_555
Ba2 Pb2 3.861118 1_555
Ba2 Pb5 3.861118 1_666
Ba3 Pb4 3.617228 1_556
Ba3 Pb3 3.714133 1_555
Ba3 Pb0 3.714133 1_455
Ba3 Pb5 3.861123 1_566
Ba3 Pb2 3.861123 1_556
Ba4 Pb0 3.653105 1_444
Ba4 Pb3 3.653105 1_555
Ba4 Pb4 3.653108 1_545
Ba4 Pb1 3.653108 1_454
Ba5 Pb3 3.617239 1_555
Ba5 Pb1 3.714128 1_555
Ba5 Pb4 3.714140 1_545
Ba5 Pb2 3.861118 1_556
Ba5 Pb5 3.861118 1_555
Ba6 Pb1 3.617240 1_554
Ba6 Pb3 3.714157 1_655
Ba6 Pb0 3.714157 1_555
Ba6 Pb5 3.861106 1_655
Ba6 Pb2 3.861106 1_555
Ba7 Pb1 3.617228 1_554
Ba7 Pb3 3.714133 1_655
Ba7 Pb0 3.714133 1_555
Ba7 Pb5 3.861123 1_555
Ba7 Pb2 3.861123 1_545
Ba8 Pb3 3.617239 1_555
Ba8 Pb4 3.714128 1_545
Ba8 Pb1 3.714140 1_555
Ba8 Pb2 3.861118 1_445
Ba8 Pb5 3.861118 1_556
Ba9 Pb0 3.653105 1_555
Ba9 Pb3 3.653105 1_554
Ba9 Pb4 3.653108 1_555
Ba9 Pb1 3.653108 1_554
Pb0 Pb3 3.080020 1_655
Pb1 Pb4 3.080007 1_545
