# generated using pymatgen
data_GdP2H9O11
_symmetry_space_group_name_H-M   'P 1'
_cell_length_a   11.48396000
_cell_length_b   6.72878300
_cell_length_c   13.52537245
_cell_angle_alpha   62.52940044
_cell_angle_beta   90.00000000
_cell_angle_gamma   90.00000000
_symmetry_Int_Tables_number   1
_chemical_formula_structural   GdP2H9O11
_chemical_formula_sum   'Gd4 P8 H36 O44'
_cell_volume   927.30432979
_cell_formula_units_Z   4
loop_
 _symmetry_equiv_pos_site_id
 _symmetry_equiv_pos_as_xyz
  1  'x, y, z'
loop_
 _atom_site_type_symbol
 _atom_site_label
 _atom_site_symmetry_multiplicity
 _atom_site_fract_x
 _atom_site_fract_y
 _atom_site_fract_z
 _atom_site_occupancy
  Gd  Gd0  1  0.58314800  0.41150500  0.84068200  1
  Gd  Gd1  1  0.41685200  0.58849500  0.15931800  1
  Gd  Gd2  1  0.91685200  0.41150500  0.34068200  1
  Gd  Gd3  1  0.08314800  0.58849500  0.65931800  1
  P  P0  1  0.54935800  0.10323700  0.14281500  1
  P  P1  1  0.63240600  0.68472100  0.33716000  1
  P  P2  1  0.86759400  0.68472100  0.83716000  1
  P  P3  1  0.13240600  0.31527900  0.16284000  1
  P  P4  1  0.04935800  0.89676300  0.35718500  1
  P  P5  1  0.95064200  0.10323700  0.64281500  1
  P  P6  1  0.45064200  0.89676300  0.85718500  1
  P  P7  1  0.36759400  0.31527900  0.66284000  1
  H  H0  1  0.60040300  0.65578600  0.59169900  1
  H  H1  1  0.65394000  0.04150700  0.66895700  1
  H  H2  1  0.01071300  0.76780400  0.92304800  1
  H  H3  1  0.21160100  0.77805900  0.94190800  1
  H  H4  1  0.39959700  0.34421400  0.40830100  1
  H  H5  1  0.11971600  0.20544700  0.51239000  1
  H  H6  1  0.88028400  0.79455300  0.48761000  1
  H  H7  1  0.15394000  0.95849300  0.83104300  1
  H  H8  1  0.65989000  0.30212700  0.30865800  1
  H  H9  1  0.34606000  0.95849300  0.33104300  1
  H  H10  1  0.73136500  0.09737000  0.31374600  1
  H  H11  1  0.21479500  0.24465600  0.88536100  1
  H  H12  1  0.89959700  0.65578600  0.09169900  1
  H  H13  1  0.15989000  0.69787300  0.19134200  1
  H  H14  1  0.33467000  0.44508200  0.92622300  1
  H  H15  1  0.23136500  0.90263000  0.18625400  1
  H  H16  1  0.28520500  0.24465600  0.38536100  1
  H  H17  1  0.83467000  0.55491800  0.57377700  1
  H  H18  1  0.38028400  0.20544700  0.01239000  1
  H  H19  1  0.84011000  0.30212700  0.80865800  1
  H  H20  1  0.78839900  0.22194100  0.05809200  1
  H  H21  1  0.71479500  0.75534400  0.61463900  1
  H  H22  1  0.28839900  0.77805900  0.44190800  1
  H  H23  1  0.78520500  0.75534400  0.11463900  1
  H  H24  1  0.26863500  0.90263000  0.68625400  1
  H  H25  1  0.16533000  0.44508200  0.42622300  1
  H  H26  1  0.84606000  0.04150700  0.16895700  1
  H  H27  1  0.61971600  0.79455300  0.98761000  1
  H  H28  1  0.51071300  0.23219600  0.57695200  1
  H  H29  1  0.10040300  0.34421400  0.90830100  1
  H  H30  1  0.98928700  0.23219600  0.07695200  1
  H  H31  1  0.76863500  0.09737000  0.81374600  1
  H  H32  1  0.48928700  0.76780400  0.42304800  1
  H  H33  1  0.71160100  0.22194100  0.55809200  1
  H  H34  1  0.34011000  0.69787300  0.69134200  1
  H  H35  1  0.66533000  0.55491800  0.07377700  1
  O  O0  1  0.34969700  0.34735300  0.34893300  1
  O  O1  1  0.35271600  0.06677400  0.76892500  1
  O  O2  1  0.92291600  0.72990900  0.93200300  1
  O  O3  1  0.55420900  0.54474100  0.30365100  1
  O  O4  1  0.07708400  0.27009100  0.06799700  1
  O  O5  1  0.76334700  0.22976000  0.82574400  1
  O  O6  1  0.26334700  0.77024000  0.67425600  1
  O  O7  1  0.74492900  0.60139500  0.87147100  1
  O  O8  1  0.12100800  0.31526700  0.43266700  1
  O  O9  1  0.42291600  0.27009100  0.56799700  1
  O  O10  1  0.15030300  0.34735300  0.84893300  1
  O  O11  1  0.05420900  0.45525900  0.19634900  1
  O  O12  1  0.13713200  0.82836100  0.90161800  1
  O  O13  1  0.62100800  0.68473300  0.06733300  1
  O  O14  1  0.04648600  0.95716100  0.63115700  1
  O  O15  1  0.85271600  0.93322600  0.73107500  1
  O  O16  1  0.87943600  0.23483500  0.53630600  1
  O  O17  1  0.94579100  0.54474100  0.80365100  1
  O  O18  1  0.49586200  0.75102700  0.80657400  1
  O  O19  1  0.36286800  0.82836100  0.40161800  1
  O  O20  1  0.44579100  0.45525900  0.69634900  1
  O  O21  1  0.23665300  0.77024000  0.17425600  1
  O  O22  1  0.95351400  0.04283900  0.36884300  1
  O  O23  1  0.45351400  0.95716100  0.13115700  1
  O  O24  1  0.37943600  0.76516500  0.96369400  1
  O  O25  1  0.00413800  0.75102700  0.30657400  1
  O  O26  1  0.25507100  0.39860500  0.12852900  1
  O  O27  1  0.14728400  0.06677400  0.26892500  1
  O  O28  1  0.54648600  0.04283900  0.86884300  1
  O  O29  1  0.57708400  0.72990900  0.43200300  1
  O  O30  1  0.84969700  0.65264700  0.15106700  1
  O  O31  1  0.99586200  0.24897300  0.69342600  1
  O  O32  1  0.37899200  0.31526700  0.93266700  1
  O  O33  1  0.86286800  0.17163900  0.09838200  1
  O  O34  1  0.50413800  0.24897300  0.19342600  1
  O  O35  1  0.75507100  0.60139500  0.37147100  1
  O  O36  1  0.62056400  0.23483500  0.03630600  1
  O  O37  1  0.24492900  0.39860500  0.62852900  1
  O  O38  1  0.65030300  0.65264700  0.65106700  1
  O  O39  1  0.64728400  0.93322600  0.23107500  1
  O  O40  1  0.12056400  0.76516500  0.46369400  1
  O  O41  1  0.63713200  0.17163900  0.59838200  1
  O  O42  1  0.73665300  0.22976000  0.32574400  1
  O  O43  1  0.87899200  0.68473300  0.56733300  1
loop_
_geom_bond_atom_site_label_1
_geom_bond_atom_site_label_2
_geom_bond_distance
_geom_bond_site_symmetry_2
Gd0 O18 2.337632 1_555
Gd0 O28 2.367354 1_555
Gd0 O36 2.386768 1_556
Gd0 O7 2.397633 1_555
Gd0 O20 2.419824 1_555
Gd0 O38 2.442463 1_555
Gd0 O5 2.459009 1_555
Gd0 O32 2.592429 1_555
Gd1 O34 2.337632 1_555
Gd1 O23 2.367354 1_555
Gd1 O24 2.386768 1_554
Gd1 O26 2.397633 1_555
Gd1 O3 2.419824 1_555
Gd1 O0 2.442463 1_555
Gd1 O21 2.459009 1_555
Gd1 O13 2.592429 1_555
Gd2 O25 2.337632 1_655
Gd2 O22 2.367354 1_555
Gd2 O16 2.386768 1_555
Gd2 O35 2.397633 1_555
Gd2 O11 2.419824 1_655
Gd2 O30 2.442463 1_555
Gd2 O42 2.459009 1_555
Gd2 O8 2.592429 1_655
Gd3 O31 2.337632 1_455
Gd3 O14 2.367354 1_555
Gd3 O40 2.386768 1_555
Gd3 O37 2.397633 1_555
Gd3 O17 2.419824 1_455
Gd3 O10 2.442463 1_555
Gd3 O6 2.459009 1_555
Gd3 O43 2.592429 1_455
H0 O38 0.978750 1_555
H1 O41 0.971610 1_555
H2 O2 1.033333 1_455
H2 O12 1.499594 1_555
H3 O12 0.986265 1_555
H4 O0 0.978750 1_555
H5 O8 0.986838 1_555
H6 O43 0.986838 1_555
H7 O12 0.971610 1_555
H8 O42 0.981742 1_555
H9 O19 0.971610 1_555
H10 O42 0.978242 1_555
H11 O10 0.977078 1_555
H12 O30 0.978750 1_555
H13 O21 0.981742 1_555
H14 O32 0.979504 1_555
H15 O21 0.978242 1_555
H16 O0 0.977078 1_555
H17 O43 0.979504 1_555
H18 O32 0.986838 1_554
H19 O5 0.981742 1_555
H20 O33 0.986265 1_555
H21 O38 0.977078 1_555
H22 O19 0.986265 1_555
H23 O30 0.977078 1_555
H24 O6 0.978242 1_555
H25 O8 0.979504 1_555
H26 O33 0.971610 1_555
H27 O13 0.986838 1_556
H28 O9 1.033333 1_555
H28 O41 1.499594 1_555
H29 O10 0.978750 1_555
H30 O4 1.033333 1_655
H30 O33 1.499594 1_555
H31 O5 0.978242 1_555
H32 O29 1.033333 1_555
H32 O19 1.499594 1_555
H33 O41 0.986265 1_555
H34 O6 0.981742 1_555
H35 O13 0.979504 1_555
O1 P7 1.634161 1_555
O1 P6 1.654836 1_545
O2 P2 1.581604 1_555
O3 P1 1.514213 1_555
O4 P3 1.581604 1_555
O7 P2 1.507996 1_555
O9 P7 1.581604 1_555
O11 P3 1.514213 1_555
O14 P5 1.531483 1_465
O15 P2 1.634161 1_555
O15 P5 1.654836 1_565
O16 P5 1.533349 1_555
O17 P2 1.514213 1_555
O18 P6 1.522890 1_555
O20 P7 1.514213 1_555
O22 P4 1.531483 1_645
O23 P0 1.531483 1_565
O24 P6 1.533349 1_555
O25 P4 1.522890 1_555
O26 P3 1.507996 1_555
O27 P3 1.634161 1_555
O27 P4 1.654836 1_545
O28 P6 1.531483 1_545
O29 P1 1.581604 1_555
O31 P5 1.522890 1_555
O34 P0 1.522890 1_555
O35 P1 1.507996 1_555
O36 P0 1.533349 1_555
O37 P7 1.507996 1_555
O39 P1 1.634161 1_555
O39 P0 1.654836 1_565
O40 P4 1.533349 1_555
