# generated using pymatgen
data_YbPaO4
_symmetry_space_group_name_H-M   'P 1'
_cell_length_a   6.50496786
_cell_length_b   6.50496786
_cell_length_c   6.50496786
_cell_angle_alpha   131.89749894
_cell_angle_beta   131.89749894
_cell_angle_gamma   70.39096442
_symmetry_Int_Tables_number   1
_chemical_formula_structural   YbPaO4
_chemical_formula_sum   'Yb2 Pa2 O8'
_cell_volume   149.44735478
_cell_formula_units_Z   2
loop_
 _symmetry_equiv_pos_site_id
 _symmetry_equiv_pos_as_xyz
  1  'x, y, z'
loop_
 _atom_site_type_symbol
 _atom_site_label
 _atom_site_symmetry_multiplicity
 _atom_site_fract_x
 _atom_site_fract_y
 _atom_site_fract_z
 _atom_site_occupancy
  Yb  Yb0  1  0.00000000  0.00000000  0.00000000  1
  Yb  Yb1  1  0.75000000  0.25000000  0.50000000  1
  Pa  Pa0  1  0.50000000  0.50000000  0.00000000  1
  Pa  Pa1  1  0.25000000  0.75000000  0.50000000  1
  O  O0  1  0.37500000  0.37993990  0.50493990  1
  O  O1  1  0.87500000  0.87006010  0.49506010  1
  O  O2  1  0.62006010  0.12500000  0.99506010  1
  O  O3  1  0.87500000  0.37993990  0.00493990  1
  O  O4  1  0.12993990  0.62500000  0.00493990  1
  O  O5  1  0.37500000  0.87006010  0.99506010  1
  O  O6  1  0.12993990  0.12500000  0.50493990  1
  O  O7  1  0.62006010  0.62500000  0.49506010  1
loop_
_geom_bond_atom_site_label_1
_geom_bond_atom_site_label_2
_geom_bond_distance
_geom_bond_site_symmetry_2
O0 Pa1 2.282888 1_555
O0 Pa0 2.282888 1_556
O0 Yb1 2.313106 1_555
O0 Yb0 2.313106 1_555
O1 Pa1 2.282888 1_655
O1 Pa0 2.282888 1_555
O1 Yb1 2.313106 1_565
O1 Yb0 2.313106 1_666
O2 Pa1 2.282888 1_545
O2 Pa0 2.282888 1_556
O2 Yb1 2.313106 1_556
O2 Yb0 2.313106 1_656
O3 Pa1 2.282888 1_655
O3 Pa0 2.282888 1_555
O3 Yb1 2.313106 1_554
O3 Yb0 2.313106 1_655
O4 Pa0 2.282888 1_555
O4 Pa1 2.282888 1_555
O4 Yb1 2.313106 1_454
O4 Yb0 2.313106 1_565
O5 Pa0 2.282888 1_556
O5 Pa1 2.282888 1_555
O5 Yb0 2.313106 1_566
O5 Yb1 2.313106 1_566
O6 Pa1 2.282888 1_545
O6 Pa0 2.282888 1_556
O6 Yb0 2.313106 1_555
O6 Yb1 2.313106 1_455
O7 Pa1 2.282888 1_555
O7 Pa0 2.282888 1_555
O7 Yb0 2.313106 1_666
O7 Yb1 2.313106 1_555
