# generated using pymatgen
data_NaCaFe2(SiO3)4
_symmetry_space_group_name_H-M   'P 1'
_cell_length_a   5.35659154
_cell_length_b   6.68828692
_cell_length_c   6.68702066
_cell_angle_alpha   84.85006869
_cell_angle_beta   77.79748243
_cell_angle_gamma   77.79682129
_symmetry_Int_Tables_number   1
_chemical_formula_structural   NaCaFe2(SiO3)4
_chemical_formula_sum   'Na1 Ca1 Fe2 Si4 O12'
_cell_volume   228.61325292
_cell_formula_units_Z   1
loop_
 _symmetry_equiv_pos_site_id
 _symmetry_equiv_pos_as_xyz
  1  'x, y, z'
loop_
 _atom_site_type_symbol
 _atom_site_label
 _atom_site_symmetry_multiplicity
 _atom_site_fract_x
 _atom_site_fract_y
 _atom_site_fract_z
 _atom_site_occupancy
  Na  Na0  1  0.25000400  0.69971700  0.30028000  1
  Ca  Ca0  1  0.74992500  0.30031100  0.69970800  1
  Fe  Fe0  1  0.75004700  0.89780900  0.10215400  1
  Fe  Fe1  1  0.24998900  0.09291200  0.90703800  1
  Si  Si0  1  0.26939800  0.19794200  0.37759300  1
  Si  Si1  1  0.23061200  0.62239600  0.80207300  1
  Si  Si2  1  0.76210600  0.38095600  0.19746900  1
  Si  Si3  1  0.73789600  0.80250900  0.61905900  1
  O  O0  1  0.00293800  0.63139100  0.66158800  1
  O  O1  1  0.49706900  0.33839700  0.36861400  1
  O  O2  1  0.17983700  0.11627600  0.60927300  1
  O  O3  1  0.32021100  0.39077900  0.88373600  1
  O  O4  1  0.37070700  0.02965300  0.20053200  1
  O  O5  1  0.12924700  0.79941800  0.97039100  1
  O  O6  1  0.50461300  0.66696600  0.64111000  1
  O  O7  1  0.99537500  0.35886900  0.33306700  1
  O  O8  1  0.68949200  0.61398200  0.10843200  1
  O  O9  1  0.81049700  0.89158900  0.38601500  1
  O  O10  1  0.84071500  0.20089800  0.03276100  1
  O  O11  1  0.65932200  0.96723100  0.79910500  1
loop_
_geom_bond_atom_site_label_1
_geom_bond_atom_site_label_2
_geom_bond_distance
_geom_bond_site_symmetry_2
Na0 O8 2.408597 1_555
Na0 O9 2.408803 1_455
Na0 O5 2.426144 1_554
Na0 O4 2.426751 1_565
Na0 O0 2.550193 1_555
Na0 O1 2.550609 1_555
Na0 O6 2.863668 1_555
Na0 O7 2.864221 1_455
Ca0 O3 2.350791 1_555
Ca0 O2 2.351710 1_655
Ca0 O10 2.386220 1_556
Ca0 O11 2.386422 1_545
Ca0 O7 2.564306 1_555
Ca0 O6 2.564535 1_555
Ca0 O1 2.796773 1_555
Ca0 O0 2.797592 1_655
Fe0 O9 1.987371 1_555
Fe0 O8 1.987670 1_555
Fe0 O5 2.029205 1_654
Fe0 O4 2.029979 1_565
Fe0 O11 2.170357 1_554
Fe0 O10 2.170852 1_565
Fe1 O2 2.089490 1_555
Fe1 O3 2.090695 1_555
Fe1 O10 2.166828 1_456
Fe1 O11 2.166998 1_545
Fe1 O4 2.172718 1_556
Fe1 O5 2.173164 1_545
O0 Si1 1.678278 1_555
O0 Si3 1.682756 1_455
O1 Si0 1.678276 1_555
O1 Si2 1.682806 1_555
O2 Si0 1.604162 1_555
O3 Si1 1.604038 1_555
O4 Si0 1.634831 1_555
O5 Si1 1.634802 1_555
O6 Si3 1.667963 1_555
O6 Si1 1.691486 1_555
O7 Si2 1.667995 1_555
O7 Si0 1.691441 1_655
O8 Si2 1.615510 1_555
O9 Si3 1.615488 1_555
O10 Si2 1.633517 1_555
O11 Si3 1.633503 1_555
