# generated using pymatgen
data_Li(Fe3Ge2)2
_symmetry_space_group_name_H-M   'P 1'
_cell_length_a   7.16943705
_cell_length_b   7.16943705
_cell_length_c   7.16943821
_cell_angle_alpha   41.22669037
_cell_angle_beta   41.22669037
_cell_angle_gamma   41.22669321
_symmetry_Int_Tables_number   1
_chemical_formula_structural   Li(Fe3Ge2)2
_chemical_formula_sum   'Li1 Fe6 Ge4'
_cell_volume   144.56184423
_cell_formula_units_Z   1
loop_
 _symmetry_equiv_pos_site_id
 _symmetry_equiv_pos_as_xyz
  1  'x, y, z'
loop_
 _atom_site_type_symbol
 _atom_site_label
 _atom_site_symmetry_multiplicity
 _atom_site_fract_x
 _atom_site_fract_y
 _atom_site_fract_z
 _atom_site_occupancy
  Li  Li0  1  -0.00000000  -0.00000000  0.00000000  1
  Fe  Fe0  1  0.39797359  0.88781632  0.39797359  1
  Fe  Fe1  1  0.11218368  0.60202641  0.60202641  1
  Fe  Fe2  1  0.60202641  0.60202641  0.11218368  1
  Fe  Fe3  1  0.60202641  0.11218368  0.60202641  1
  Fe  Fe4  1  0.39797359  0.39797359  0.88781632  1
  Fe  Fe5  1  0.88781632  0.39797359  0.39797359  1
  Ge  Ge0  1  0.12543281  0.12543281  0.12543281  1
  Ge  Ge1  1  0.33261149  0.33261149  0.33261149  1
  Ge  Ge2  1  0.66738851  0.66738851  0.66738851  1
  Ge  Ge3  1  0.87456719  0.87456719  0.87456719  1
loop_
_geom_bond_atom_site_label_1
_geom_bond_atom_site_label_2
_geom_bond_distance
_geom_bond_site_symmetry_2
Fe0 Fe5 2.472794 1_555
Fe0 Fe4 2.472794 1_555
Fe0 Ge0 2.503385 1_565
Fe0 Ge2 2.527463 1_555
Fe0 Ge1 2.538326 1_565
Fe0 Ge3 2.554718 1_455
Fe0 Ge3 2.554719 1_554
Fe0 Fe5 2.575345 1_465
Fe0 Fe4 2.575345 1_564
Fe0 Fe1 2.798901 1_555
Fe0 Fe2 2.798901 1_555
Fe0 Li0 3.265374 1_665
Fe0 Li0 3.265374 1_566
Fe1 Fe3 2.472794 1_555
Fe1 Fe2 2.472794 1_555
Fe1 Ge3 2.503385 1_455
Fe1 Ge1 2.527463 1_555
Fe1 Ge2 2.538326 1_455
Fe1 Ge0 2.554718 1_565
Fe1 Ge0 2.554719 1_556
Fe1 Fe3 2.575345 1_465
Fe1 Fe2 2.575345 1_456
Fe1 Fe4 2.798901 1_555
Fe1 Li0 3.265374 1_556
Fe1 Li0 3.265374 1_565
Fe2 Fe3 2.472794 1_555
Fe2 Ge3 2.503384 1_554
Fe2 Ge1 2.527462 1_555
Fe2 Ge2 2.538326 1_554
Fe2 Ge0 2.554718 1_565
Fe2 Ge0 2.554718 1_655
Fe2 Fe3 2.575345 1_564
Fe2 Fe5 2.798901 1_555
Fe2 Li0 3.265374 1_565
Fe2 Li0 3.265374 1_655
Fe3 Ge3 2.503385 1_545
Fe3 Ge1 2.527463 1_555
Fe3 Ge2 2.538326 1_545
Fe3 Ge0 2.554718 1_655
Fe3 Ge0 2.554719 1_556
Fe3 Fe5 2.798901 1_555
Fe3 Fe4 2.798901 1_555
Fe3 Li0 3.265374 1_556
Fe3 Li0 3.265374 1_655
Fe4 Fe5 2.472794 1_555
Fe4 Ge0 2.503384 1_556
Fe4 Ge2 2.527462 1_555
Fe4 Ge1 2.538326 1_556
Fe4 Ge3 2.554718 1_545
Fe4 Ge3 2.554718 1_455
Fe4 Fe5 2.575345 1_456
Fe4 Li0 3.265374 1_656
Fe4 Li0 3.265374 1_566
Fe5 Ge0 2.503385 1_655
Fe5 Ge2 2.527463 1_555
Fe5 Ge1 2.538326 1_655
Fe5 Ge3 2.554718 1_545
Fe5 Ge3 2.554719 1_554
Fe5 Li0 3.265374 1_665
Fe5 Li0 3.265374 1_656
Ge0 Li0 2.464863 1_555
Ge1 Li0 2.914579 1_655
Ge1 Li0 2.914579 1_565
Ge1 Li0 2.914579 1_556
Ge2 Li0 2.914579 1_566
Ge2 Li0 2.914579 1_656
Ge2 Li0 2.914579 1_665
Ge3 Li0 2.464863 1_666
