# generated using pymatgen
data_Cs2MnTe2
_symmetry_space_group_name_H-M   'P 1'
_cell_length_a   7.26852578
_cell_length_b   7.99490869
_cell_length_c   9.39029116
_cell_angle_alpha   115.10533878
_cell_angle_beta   112.44357376
_cell_angle_gamma   90.10326422
_symmetry_Int_Tables_number   1
_chemical_formula_structural   Cs2MnTe2
_chemical_formula_sum   'Cs4 Mn2 Te4'
_cell_volume   447.87262289
_cell_formula_units_Z   2
loop_
 _symmetry_equiv_pos_site_id
 _symmetry_equiv_pos_as_xyz
  1  'x, y, z'
loop_
 _atom_site_type_symbol
 _atom_site_label
 _atom_site_symmetry_multiplicity
 _atom_site_fract_x
 _atom_site_fract_y
 _atom_site_fract_z
 _atom_site_occupancy
  Cs  Cs0  1  0.14378441  0.47253472  0.28853973  1
  Cs  Cs1  1  0.35511031  0.18143058  0.70626436  1
  Cs  Cs2  1  0.64254798  0.81682795  0.28820984  1
  Cs  Cs3  1  0.85616025  0.52691460  0.70929896  1
  Mn  Mn0  1  0.74896187  0.00017715  0.99748525  1
  Mn  Mn1  1  0.24972499  0.99990093  0.99799010  1
  Te  Te0  1  0.90093092  0.08146628  0.79849992  1
  Te  Te1  1  0.40075248  0.71909825  0.79839368  1
  Te  Te2  1  0.59806162  0.28055076  0.19737138  1
  Te  Te3  1  0.09724617  0.91768778  0.19687778  1
loop_
_geom_bond_atom_site_label_1
_geom_bond_atom_site_label_2
_geom_bond_distance
_geom_bond_site_symmetry_2
Cs0 Te2 3.879835 1_555
Cs0 Te2 3.884957 1_455
Cs0 Mn0 3.896253 1_454
Cs0 Mn1 3.896337 1_544
Cs0 Te1 3.930215 1_555
Cs0 Te0 3.954191 1_454
Cs0 Te3 3.987847 1_555
Cs0 Te3 4.131011 1_545
Cs1 Te0 3.879169 1_455
Cs1 Te0 3.886334 1_555
Cs1 Mn1 3.894761 1_545
Cs1 Mn0 3.895327 1_555
Cs1 Te3 3.926916 1_545
Cs1 Te2 3.960979 1_556
Cs1 Te1 3.994564 1_555
Cs1 Te1 4.125524 1_545
Cs2 Te3 3.879456 1_655
Cs2 Te3 3.885650 1_555
Cs2 Mn1 3.896173 1_554
Cs2 Mn0 3.899208 1_564
Cs2 Te0 3.933953 1_565
Cs2 Te1 3.953237 1_554
Cs2 Te2 3.986942 1_555
Cs2 Te2 4.129697 1_565
Cs3 Te1 3.880702 1_555
Cs3 Te1 3.884351 1_655
Cs3 Mn1 3.895222 1_655
Cs3 Mn0 3.895974 1_565
Cs3 Te3 3.938304 1_656
Cs3 Te2 3.946372 1_555
Cs3 Te0 3.977168 1_555
Cs3 Te0 4.135166 1_565
Mn0 Te0 2.781673 1_555
Mn0 Te1 2.784323 1_545
Mn0 Te2 2.785901 1_556
Mn0 Te3 2.789966 1_646
Mn1 Te2 2.783095 1_566
Mn1 Te1 2.786978 1_555
Mn1 Te3 2.787078 1_556
Mn1 Te0 2.788919 1_465
