# generated using pymatgen
data_AuXe2F17
_symmetry_space_group_name_H-M   'P 1'
_cell_length_a   8.85373600
_cell_length_b   9.30335400
_cell_length_c   16.19712000
_cell_angle_alpha   90.00000000
_cell_angle_beta   90.00000000
_cell_angle_gamma   90.00000000
_symmetry_Int_Tables_number   1
_chemical_formula_structural   AuXe2F17
_chemical_formula_sum   'Au4 Xe8 F68'
_cell_volume   1334.14770775
_cell_formula_units_Z   4
loop_
 _symmetry_equiv_pos_site_id
 _symmetry_equiv_pos_as_xyz
  1  'x, y, z'
loop_
 _atom_site_type_symbol
 _atom_site_label
 _atom_site_symmetry_multiplicity
 _atom_site_fract_x
 _atom_site_fract_y
 _atom_site_fract_z
 _atom_site_occupancy
  Au  Au0  1  0.25000000  0.65682300  0.52248200  1
  Au  Au1  1  0.75000000  0.34317700  0.47751800  1
  Au  Au2  1  0.25000000  0.15682300  0.97751800  1
  Au  Au3  1  0.75000000  0.84317700  0.02248200  1
  Xe  Xe0  1  0.25000000  0.79061900  0.16151500  1
  Xe  Xe1  1  0.75000000  0.79808800  0.38251500  1
  Xe  Xe2  1  0.75000000  0.29808800  0.11748500  1
  Xe  Xe3  1  0.25000000  0.20191200  0.61748500  1
  Xe  Xe4  1  0.25000000  0.70191200  0.88251500  1
  Xe  Xe5  1  0.75000000  0.20938100  0.83848500  1
  Xe  Xe6  1  0.25000000  0.29061900  0.33848500  1
  Xe  Xe7  1  0.75000000  0.70938100  0.66151500  1
  F  F0  1  0.25000000  0.04109900  0.07987200  1
  F  F1  1  0.25000000  0.73197800  0.27875900  1
  F  F2  1  0.75000000  0.95890100  0.92012800  1
  F  F3  1  0.25000000  0.72779300  0.02426900  1
  F  F4  1  0.58699100  0.08009200  0.79580700  1
  F  F5  1  0.75000000  0.77220700  0.52426900  1
  F  F6  1  0.40593200  0.63841800  0.15571600  1
  F  F7  1  0.59099100  0.93285800  0.41980000  1
  F  F8  1  0.91300900  0.08009200  0.79580700  1
  F  F9  1  0.25000000  0.77056300  0.62227500  1
  F  F10  1  0.09406800  0.63841800  0.15571600  1
  F  F11  1  0.75000000  0.16886800  0.54203600  1
  F  F12  1  0.75000000  0.92803000  0.28624600  1
  F  F13  1  0.02955500  0.15851700  0.97740200  1
  F  F14  1  0.09406800  0.13841800  0.34428400  1
  F  F15  1  0.75000000  0.22943700  0.37772500  1
  F  F16  1  0.90900900  0.43285800  0.08020000  1
  F  F17  1  0.41099600  0.79766400  0.81563200  1
  F  F18  1  0.41099600  0.29766400  0.68436800  1
  F  F19  1  0.40593200  0.13841800  0.34428400  1
  F  F20  1  0.90593200  0.36158200  0.84428400  1
  F  F21  1  0.75000000  0.45890100  0.57987200  1
  F  F22  1  0.09099100  0.06714200  0.58020000  1
  F  F23  1  0.25000000  0.97919600  0.91011400  1
  F  F24  1  0.40900900  0.56714200  0.91980000  1
  F  F25  1  0.08699100  0.41990800  0.29580700  1
  F  F26  1  0.52955500  0.84148300  0.02259800  1
  F  F27  1  0.59406800  0.36158200  0.84428400  1
  F  F28  1  0.58900400  0.20233600  0.18436800  1
  F  F29  1  0.75000000  0.27220700  0.97573100  1
  F  F30  1  0.40900900  0.06714200  0.58020000  1
  F  F31  1  0.25000000  0.33113200  0.04203600  1
  F  F32  1  0.25000000  0.07197000  0.71375400  1
  F  F33  1  0.75000000  0.66886800  0.95796400  1
  F  F34  1  0.08900400  0.29766400  0.68436800  1
  F  F35  1  0.91099600  0.70233600  0.31563200  1
  F  F36  1  0.41300900  0.41990800  0.29580700  1
  F  F37  1  0.02955500  0.65851700  0.52259800  1
  F  F38  1  0.25000000  0.54109900  0.42012800  1
  F  F39  1  0.25000000  0.23197800  0.22124100  1
  F  F40  1  0.58699100  0.58009200  0.70419300  1
  F  F41  1  0.90900900  0.93285800  0.41980000  1
  F  F42  1  0.25000000  0.22779300  0.47573100  1
  F  F43  1  0.41300900  0.91990800  0.20419300  1
  F  F44  1  0.47044500  0.15851700  0.97740200  1
  F  F45  1  0.25000000  0.47919600  0.58988600  1
  F  F46  1  0.58900400  0.70233600  0.31563200  1
  F  F47  1  0.97044500  0.34148300  0.47740200  1
  F  F48  1  0.52955500  0.34148300  0.47740200  1
  F  F49  1  0.08900400  0.79766400  0.81563200  1
  F  F50  1  0.75000000  0.42803000  0.21375400  1
  F  F51  1  0.09099100  0.56714200  0.91980000  1
  F  F52  1  0.75000000  0.72943700  0.12227500  1
  F  F53  1  0.75000000  0.52080400  0.41011400  1
  F  F54  1  0.97044500  0.84148300  0.02259800  1
  F  F55  1  0.75000000  0.76802200  0.77875900  1
  F  F56  1  0.25000000  0.27056300  0.87772500  1
  F  F57  1  0.59406800  0.86158200  0.65571600  1
  F  F58  1  0.25000000  0.57197000  0.78624600  1
  F  F59  1  0.91300900  0.58009200  0.70419300  1
  F  F60  1  0.90593200  0.86158200  0.65571600  1
  F  F61  1  0.75000000  0.26802200  0.72124100  1
  F  F62  1  0.08699100  0.91990800  0.20419300  1
  F  F63  1  0.47044500  0.65851700  0.52259800  1
  F  F64  1  0.59099100  0.43285800  0.08020000  1
  F  F65  1  0.25000000  0.83113200  0.45796400  1
  F  F66  1  0.91099600  0.20233600  0.18436800  1
  F  F67  1  0.75000000  0.02080400  0.08988600  1
loop_
_geom_bond_atom_site_label_1
_geom_bond_atom_site_label_2
_geom_bond_distance
_geom_bond_site_symmetry_2
Au0 F65 1.929200 1_555
Au0 F9 1.931923 1_555
Au0 F37 1.951826 1_555
Au0 F63 1.951826 1_555
Au0 F38 1.976752 1_555
Au0 F45 1.980597 1_555
Au1 F11 1.929200 1_555
Au1 F15 1.931923 1_555
Au1 F48 1.951826 1_555
Au1 F47 1.951826 1_555
Au1 F21 1.976752 1_555
Au1 F53 1.980597 1_555
Au2 F31 1.929200 1_556
Au2 F56 1.931923 1_555
Au2 F44 1.951826 1_555
Au2 F13 1.951826 1_555
Au2 F0 1.976752 1_556
Au2 F23 1.980597 1_545
Au3 F33 1.929200 1_554
Au3 F52 1.931923 1_555
Au3 F26 1.951826 1_555
Au3 F54 1.951826 1_555
Au3 F2 1.976752 1_554
Au3 F67 1.980597 1_565
F1 Xe0 1.975827 1_555
F3 Xe0 2.298546 1_555
F3 Xe4 2.308597 1_554
F4 Xe5 2.001889 1_555
F5 Xe7 2.298546 1_555
F5 Xe1 2.308597 1_555
F6 Xe0 1.979855 1_555
F7 Xe1 1.979576 1_555
F8 Xe5 2.001889 1_555
F10 Xe0 1.979855 1_555
F12 Xe1 1.973015 1_555
F14 Xe6 1.979855 1_555
F16 Xe2 1.979576 1_555
F17 Xe4 1.999732 1_555
F18 Xe3 1.999732 1_555
F19 Xe6 1.979855 1_555
F20 Xe5 1.979855 1_555
F22 Xe3 1.979576 1_555
F23 Xe4 2.618117 1_555
F24 Xe4 1.979576 1_555
F25 Xe6 2.001889 1_555
F27 Xe5 1.979855 1_555
F28 Xe2 1.999732 1_555
F29 Xe5 2.298546 1_555
F29 Xe2 2.308597 1_556
F30 Xe3 1.979576 1_555
F32 Xe3 1.973015 1_555
F34 Xe3 1.999732 1_555
F35 Xe1 1.999732 1_555
F36 Xe6 2.001889 1_555
F39 Xe6 1.975827 1_555
F40 Xe7 2.001889 1_555
F41 Xe1 1.979576 1_555
F42 Xe6 2.298546 1_555
F42 Xe3 2.308597 1_555
F43 Xe0 2.001889 1_555
F45 Xe3 2.618117 1_555
F46 Xe1 1.999732 1_555
F49 Xe4 1.999732 1_555
F50 Xe2 1.973015 1_555
F51 Xe4 1.979576 1_555
F53 Xe1 2.618117 1_555
F55 Xe7 1.975827 1_555
F57 Xe7 1.979855 1_555
F58 Xe4 1.973015 1_555
F59 Xe7 2.001889 1_555
F60 Xe7 1.979855 1_555
F61 Xe5 1.975827 1_555
F62 Xe0 2.001889 1_555
F64 Xe2 1.979576 1_555
F66 Xe2 1.999732 1_555
F67 Xe2 2.618117 1_555
