# generated using pymatgen
data_CdHg3C6S6(N3Cl)2
_symmetry_space_group_name_H-M   'P 1'
_cell_length_a   21.47816215
_cell_length_b   21.47816215
_cell_length_c   21.47816205
_cell_angle_alpha   30.73005636
_cell_angle_beta   30.73005636
_cell_angle_gamma   30.73005476
_symmetry_Int_Tables_number   1
_chemical_formula_structural   CdHg3C6S6(N3Cl)2
_chemical_formula_sum   'Cd4 Hg12 C24 S24 N24 Cl8'
_cell_volume   2294.16674238
_cell_formula_units_Z   4
loop_
 _symmetry_equiv_pos_site_id
 _symmetry_equiv_pos_as_xyz
  1  'x, y, z'
loop_
 _atom_site_type_symbol
 _atom_site_label
 _atom_site_symmetry_multiplicity
 _atom_site_fract_x
 _atom_site_fract_y
 _atom_site_fract_z
 _atom_site_occupancy
  Cd  Cd0  1  0.22426000  0.22426000  0.22426000  1
  Cd  Cd1  1  0.04149500  0.04149500  0.04149500  1
  Cd  Cd2  1  0.72426000  0.72426000  0.72426000  1
  Cd  Cd3  1  0.54149500  0.54149500  0.54149500  1
  Hg  Hg0  1  0.77873900  0.85174200  0.23602800  1
  Hg  Hg1  1  0.23602800  0.77873900  0.85174200  1
  Hg  Hg2  1  0.38749500  0.04971000  0.50214100  1
  Hg  Hg3  1  0.88749500  0.00214100  0.54971000  1
  Hg  Hg4  1  0.54971000  0.88749500  0.00214100  1
  Hg  Hg5  1  0.85174200  0.23602800  0.77873900  1
  Hg  Hg6  1  0.04971000  0.50214100  0.38749500  1
  Hg  Hg7  1  0.73602800  0.35174200  0.27873900  1
  Hg  Hg8  1  0.35174200  0.27873900  0.73602800  1
  Hg  Hg9  1  0.00214100  0.54971000  0.88749500  1
  Hg  Hg10  1  0.27873900  0.73602800  0.35174200  1
  Hg  Hg11  1  0.50214100  0.38749500  0.04971000  1
  C  C0  1  0.42364400  0.37364400  0.98498900  1
  C  C1  1  0.50738600  0.00061000  0.57863000  1
  C  C2  1  0.79537500  0.38889400  0.33706400  1
  C  C3  1  0.37364400  0.98498900  0.42364400  1
  C  C4  1  0.77262500  0.25101900  0.19250400  1
  C  C5  1  0.27262500  0.69250400  0.75101900  1
  C  C6  1  0.92364400  0.48498900  0.87364400  1
  C  C7  1  0.25101900  0.19250400  0.77262500  1
  C  C8  1  0.33706400  0.79537500  0.38889400  1
  C  C9  1  0.07863000  0.50061000  0.00738600  1
  C  C10  1  0.83706400  0.88889400  0.29537500  1
  C  C11  1  0.88889400  0.29537500  0.83706400  1
  C  C12  1  0.75101900  0.27262500  0.69250400  1
  C  C13  1  0.50061000  0.00738600  0.07863000  1
  C  C14  1  0.38889400  0.33706400  0.79537500  1
  C  C15  1  0.00738600  0.07863000  0.50061000  1
  C  C16  1  0.57863000  0.50738600  0.00061000  1
  C  C17  1  0.00061000  0.57863000  0.50738600  1
  C  C18  1  0.69250400  0.75101900  0.27262500  1
  C  C19  1  0.29537500  0.83706400  0.88889400  1
  C  C20  1  0.48498900  0.87364400  0.92364400  1
  C  C21  1  0.87364400  0.92364400  0.48498900  1
  C  C22  1  0.19250400  0.77262500  0.25101900  1
  C  C23  1  0.98498900  0.42364400  0.37364400  1
  S  S0  1  0.86085900  0.13317600  0.75526000  1
  S  S1  1  0.38053400  0.95543600  0.00157500  1
  S  S2  1  0.25526000  0.63317600  0.36085900  1
  S  S3  1  0.88053400  0.50157500  0.45543600  1
  S  S4  1  0.89841500  0.01354400  0.64539300  1
  S  S5  1  0.45543600  0.88053400  0.50157500  1
  S  S6  1  0.13317600  0.75526000  0.86085900  1
  S  S7  1  0.14539300  0.51354400  0.39841500  1
  S  S8  1  0.90820900  0.31224200  0.24955900  1
  S  S9  1  0.95543600  0.00157500  0.38053400  1
  S  S10  1  0.74955900  0.81224200  0.40820900  1
  S  S11  1  0.51354400  0.39841500  0.14539300  1
  S  S12  1  0.31224200  0.24955900  0.90820900  1
  S  S13  1  0.01354400  0.64539300  0.89841500  1
  S  S14  1  0.63317600  0.36085900  0.25526000  1
  S  S15  1  0.75526000  0.86085900  0.13317600  1
  S  S16  1  0.81224200  0.40820900  0.74955900  1
  S  S17  1  0.40820900  0.74955900  0.81224200  1
  S  S18  1  0.36085900  0.25526000  0.63317600  1
  S  S19  1  0.64539300  0.89841500  0.01354400  1
  S  S20  1  0.00157500  0.38053400  0.95543600  1
  S  S21  1  0.50157500  0.45543600  0.88053400  1
  S  S22  1  0.39841500  0.14539300  0.51354400  1
  S  S23  1  0.24955900  0.90820900  0.31224200  1
  N  N0  1  0.55540400  0.81739300  0.86873500  1
  N  N1  1  0.71774600  0.44099200  0.40005200  1
  N  N2  1  0.08216800  0.12741800  0.39987200  1
  N  N3  1  0.36946300  0.64634800  0.67467500  1
  N  N4  1  0.39987200  0.08216800  0.12741800  1
  N  N5  1  0.17467500  0.14634800  0.86946300  1
  N  N6  1  0.40005200  0.71774600  0.44099200  1
  N  N7  1  0.31739300  0.05540400  0.36873500  1
  N  N8  1  0.05540400  0.36873500  0.31739300  1
  N  N9  1  0.21774600  0.90005200  0.94099200  1
  N  N10  1  0.86946300  0.17467500  0.14634800  1
  N  N11  1  0.90005200  0.94099200  0.21774600  1
  N  N12  1  0.94099200  0.21774600  0.90005200  1
  N  N13  1  0.12741800  0.39987200  0.08216800  1
  N  N14  1  0.81739300  0.86873500  0.55540400  1
  N  N15  1  0.36873500  0.31739300  0.05540400  1
  N  N16  1  0.62741800  0.58216800  0.89987200  1
  N  N17  1  0.64634800  0.67467500  0.36946300  1
  N  N18  1  0.67467500  0.36946300  0.64634800  1
  N  N19  1  0.89987200  0.62741800  0.58216800  1
  N  N20  1  0.44099200  0.40005200  0.71774600  1
  N  N21  1  0.58216800  0.89987200  0.62741800  1
  N  N22  1  0.14634800  0.86946300  0.17467500  1
  N  N23  1  0.86873500  0.55540400  0.81739300  1
  Cl  Cl0  1  0.80005800  0.80005800  0.80005800  1
  Cl  Cl1  1  0.12071100  0.06784400  0.72108000  1
  Cl  Cl2  1  0.22108000  0.56784400  0.62071100  1
  Cl  Cl3  1  0.06784400  0.72108000  0.12071100  1
  Cl  Cl4  1  0.62071100  0.22108000  0.56784400  1
  Cl  Cl5  1  0.30005800  0.30005800  0.30005800  1
  Cl  Cl6  1  0.56784400  0.62071100  0.22108000  1
  Cl  Cl7  1  0.72108000  0.12071100  0.06784400  1
loop_
_geom_bond_atom_site_label_1
_geom_bond_atom_site_label_2
_geom_bond_distance
_geom_bond_site_symmetry_2
Cd0 N4 2.345834 1_555
Cd0 N13 2.345834 1_555
Cd0 N2 2.345834 1_555
Cd0 N8 2.373850 1_555
Cd0 N7 2.373850 1_555
Cd0 N15 2.373850 1_555
Cd1 N10 2.346371 1_455
Cd1 N22 2.346371 1_545
Cd1 N5 2.346371 1_554
Cd1 N9 2.381970 1_544
Cd1 N12 2.381970 1_454
Cd1 N11 2.381970 1_445
Cd2 N21 2.345834 1_555
Cd2 N19 2.345834 1_555
Cd2 N16 2.345834 1_555
Cd2 N23 2.373850 1_555
Cd2 N0 2.373850 1_555
Cd2 N14 2.373850 1_555
Cd3 N18 2.346371 1_555
Cd3 N3 2.346371 1_555
Cd3 N17 2.346371 1_555
Cd3 N6 2.381970 1_555
Cd3 N1 2.381970 1_555
Cd3 N20 2.381970 1_555
Hg0 S15 2.484830 1_555
Hg0 S10 2.514845 1_555
Hg1 S6 2.484830 1_555
Hg1 S17 2.514845 1_555
Hg2 S22 2.476108 1_555
Hg2 S5 2.502480 1_545
Hg3 S4 2.476108 1_555
Hg3 S9 2.502480 1_555
Hg4 S19 2.476108 1_555
Hg4 S1 2.502480 1_555
Hg5 S0 2.484830 1_555
Hg5 S16 2.514845 1_555
Hg6 S7 2.476108 1_555
Hg6 S3 2.502480 1_455
Hg7 S14 2.484830 1_555
Hg7 S8 2.514845 1_555
Hg8 S18 2.484830 1_555
Hg8 S12 2.514845 1_555
Hg9 S13 2.476108 1_555
Hg9 S20 2.502480 1_555
Hg10 S2 2.484830 1_555
Hg10 S23 2.514845 1_555
Hg11 S11 2.476108 1_555
Hg11 S21 2.502480 1_554
C0 N15 1.174625 1_556
C0 S21 1.656724 1_555
C1 N21 1.174944 1_545
C1 S22 1.655667 1_555
C2 N1 1.174527 1_555
C2 S8 1.657035 1_555
C3 N7 1.174625 1_565
C3 S5 1.656724 1_555
C4 N10 1.176480 1_555
C4 S14 1.652851 1_555
C5 N3 1.176480 1_555
C5 S6 1.652851 1_555
C6 N23 1.174625 1_555
C6 S20 1.656724 1_655
C7 N5 1.176480 1_555
C7 S18 1.652851 1_555
C8 N6 1.174527 1_555
C8 S23 1.657035 1_555
C9 N13 1.174944 1_555
C9 S13 1.655667 1_554
C10 N11 1.174527 1_555
C10 S10 1.657036 1_555
C11 N12 1.174527 1_555
C11 S16 1.657035 1_555
C12 N18 1.176480 1_555
C12 S0 1.652851 1_555
C13 N4 1.174944 1_555
C13 S19 1.655667 1_545
C14 N20 1.174527 1_555
C14 S12 1.657036 1_555
C15 N2 1.174944 1_555
C15 S4 1.655667 1_455
C16 N16 1.174944 1_554
C16 S11 1.655667 1_555
C17 N19 1.174944 1_455
C17 S7 1.655667 1_555
C18 N17 1.176480 1_555
C18 S15 1.652851 1_555
C19 N9 1.174527 1_555
C19 S17 1.657035 1_555
C20 N0 1.174625 1_555
C20 S1 1.656724 1_556
C21 N14 1.174625 1_555
C21 S9 1.656724 1_565
C22 N22 1.176480 1_555
C22 S2 1.652851 1_555
C23 N8 1.174625 1_655
C23 S3 1.656724 1_555
Cl0 Hg9 2.794403 1_655
Cl0 Hg4 2.794403 1_556
Cl0 Hg3 2.794403 1_565
Cl1 Hg5 2.733350 1_455
Cl1 Hg2 2.843695 1_555
Cl1 Hg1 2.849350 1_545
Cl2 Hg10 2.733350 1_555
Cl2 Hg9 2.843695 1_555
Cl2 Hg8 2.849350 1_555
Cl3 Hg1 2.733350 1_554
Cl3 Hg6 2.843695 1_555
Cl3 Hg0 2.849350 1_455
Cl4 Hg8 2.733350 1_555
Cl4 Hg3 2.843695 1_555
Cl4 Hg7 2.849350 1_555
Cl5 Hg6 2.794403 1_555
Cl5 Hg2 2.794403 1_555
Cl5 Hg11 2.794403 1_555
Cl6 Hg7 2.733350 1_555
Cl6 Hg4 2.843695 1_555
Cl6 Hg10 2.849350 1_555
Cl7 Hg0 2.733350 1_545
Cl7 Hg11 2.843695 1_555
Cl7 Hg5 2.849350 1_554
