# generated using pymatgen
data_Ce2Si2O7
_symmetry_space_group_name_H-M   'P 1'
_cell_length_a   6.87153241
_cell_length_b   6.87153241
_cell_length_c   24.94392174
_cell_angle_alpha   90.00000000
_cell_angle_beta   90.00000000
_cell_angle_gamma   90.00000000
_symmetry_Int_Tables_number   1
_chemical_formula_structural   Ce2Si2O7
_chemical_formula_sum   'Ce16 Si16 O56'
_cell_volume   1177.80104064
_cell_formula_units_Z   8
loop_
 _symmetry_equiv_pos_site_id
 _symmetry_equiv_pos_as_xyz
  1  'x, y, z'
loop_
 _atom_site_type_symbol
 _atom_site_label
 _atom_site_symmetry_multiplicity
 _atom_site_fract_x
 _atom_site_fract_y
 _atom_site_fract_z
 _atom_site_occupancy
  Ce  Ce0  1  0.77196221  0.88378725  0.89159404  1
  Ce  Ce1  1  0.82875914  0.51780045  0.39878618  1
  Ce  Ce2  1  0.76752486  0.29813436  0.00099030  1
  Ce  Ce3  1  0.48219955  0.82875914  0.64878618  1
  Ce  Ce4  1  0.23247514  0.70186564  0.50099030  1
  Ce  Ce5  1  0.51780045  0.17124086  0.14878618  1
  Ce  Ce6  1  0.91608030  0.66192412  0.75191644  1
  Ce  Ce7  1  0.70186564  0.76752486  0.25099030  1
  Ce  Ce8  1  0.08391970  0.33807588  0.25191644  1
  Ce  Ce9  1  0.33807588  0.91608030  0.00191644  1
  Ce  Ce10  1  0.29813436  0.23247514  0.75099030  1
  Ce  Ce11  1  0.11621275  0.77196221  0.14159404  1
  Ce  Ce12  1  0.17124086  0.48219955  0.89878618  1
  Ce  Ce13  1  0.22803779  0.11621275  0.39159404  1
  Ce  Ce14  1  0.88378725  0.22803779  0.64159404  1
  Ce  Ce15  1  0.66192412  0.08391970  0.50191644  1
  Si  Si0  1  0.59392122  0.69864521  0.11467860  1
  Si  Si1  1  0.40607878  0.30135479  0.61467860  1
  Si  Si2  1  0.26166358  0.37704738  0.02172359  1
  Si  Si3  1  0.14858499  0.23332073  0.51672953  1
  Si  Si4  1  0.76667927  0.14858499  0.76672953  1
  Si  Si5  1  0.70305524  0.01024636  0.37208752  1
  Si  Si6  1  0.98975364  0.70305524  0.62208752  1
  Si  Si7  1  0.85141501  0.76667927  0.01672953  1
  Si  Si8  1  0.62295262  0.26166358  0.27172359  1
  Si  Si9  1  0.29694476  0.98975364  0.87208752  1
  Si  Si10  1  0.69864521  0.40607878  0.86467860  1
  Si  Si11  1  0.30135479  0.59392122  0.36467860  1
  Si  Si12  1  0.73833642  0.62295262  0.52172359  1
  Si  Si13  1  0.23332073  0.85141501  0.26672953  1
  Si  Si14  1  0.01024636  0.29694476  0.12208752  1
  Si  Si15  1  0.37704738  0.73833642  0.77172359  1
  O  O0  1  0.18921804  0.78407303  0.59552105  1
  O  O1  1  0.84381216  0.95721114  0.79849581  1
  O  O2  1  0.88852679  0.61581698  0.96660721  1
  O  O3  1  0.95721114  0.15618784  0.54849581  1
  O  O4  1  0.87397513  0.75520439  0.48102854  1
  O  O5  1  0.28755090  0.36610320  0.55833743  1
  O  O6  1  0.51590367  0.51937095  0.89024941  1
  O  O7  1  0.46059264  0.02497724  0.91847646  1
  O  O8  1  0.32787554  0.57351125  0.99071484  1
  O  O9  1  0.24479561  0.87397513  0.73102854  1
  O  O10  1  0.71244910  0.63389680  0.05833743  1
  O  O11  1  0.15618784  0.04278886  0.29849581  1
  O  O12  1  0.44403497  0.23657945  0.03961864  1
  O  O13  1  0.42905959  0.87644048  0.82469517  1
  O  O14  1  0.15230460  0.13091734  0.14850666  1
  O  O15  1  0.76342055  0.44403497  0.28961864  1
  O  O16  1  0.27464172  0.05241739  0.49201887  1
  O  O17  1  0.81078196  0.21592697  0.09552105  1
  O  O18  1  0.78407303  0.81078196  0.34552105  1
  O  O19  1  0.74857168  0.81167694  0.15418732  1
  O  O20  1  0.72535828  0.94758261  0.99201887  1
  O  O21  1  0.05241739  0.72535828  0.24201887  1
  O  O22  1  0.55596503  0.76342055  0.53961864  1
  O  O23  1  0.94758261  0.27464172  0.74201887  1
  O  O24  1  0.81167694  0.25142832  0.90418732  1
  O  O25  1  0.57094041  0.12355952  0.32469517  1
  O  O26  1  0.57351125  0.67212446  0.74071484  1
  O  O27  1  0.86406585  0.56983264  0.84623637  1
  O  O28  1  0.13593415  0.43016736  0.34623637  1
  O  O29  1  0.84769540  0.86908266  0.64850666  1
  O  O30  1  0.38418302  0.88852679  0.21660721  1
  O  O31  1  0.23657945  0.55596503  0.78961864  1
  O  O32  1  0.12602487  0.24479561  0.98102854  1
  O  O33  1  0.51937095  0.48409633  0.64024941  1
  O  O34  1  0.63389680  0.28755090  0.80833743  1
  O  O35  1  0.21592697  0.18921804  0.84552105  1
  O  O36  1  0.04278886  0.84381216  0.04849581  1
  O  O37  1  0.67212446  0.42648875  0.49071484  1
  O  O38  1  0.56983264  0.13593415  0.59623637  1
  O  O39  1  0.36610320  0.71244910  0.30833743  1
  O  O40  1  0.42648875  0.32787554  0.24071484  1
  O  O41  1  0.86908266  0.15230460  0.39850666  1
  O  O42  1  0.87644048  0.57094041  0.57469517  1
  O  O43  1  0.43016736  0.86406585  0.09623637  1
  O  O44  1  0.25142832  0.18832306  0.65418732  1
  O  O45  1  0.18832306  0.74857168  0.40418732  1
  O  O46  1  0.02497724  0.53940736  0.66847646  1
  O  O47  1  0.53940736  0.97502276  0.41847646  1
  O  O48  1  0.48062905  0.51590367  0.14024941  1
  O  O49  1  0.12355952  0.42905959  0.07469517  1
  O  O50  1  0.13091734  0.84769540  0.89850666  1
  O  O51  1  0.11147321  0.38418302  0.46660721  1
  O  O52  1  0.97502276  0.46059264  0.16847646  1
  O  O53  1  0.75520439  0.12602487  0.23102854  1
  O  O54  1  0.48409633  0.48062905  0.39024941  1
  O  O55  1  0.61581698  0.11147321  0.71660721  1
loop_
_geom_bond_atom_site_label_1
_geom_bond_atom_site_label_2
_geom_bond_distance
_geom_bond_site_symmetry_2
Ce0 O1 2.427157 1_555
Ce0 O7 2.443101 1_565
Ce0 O50 2.484998 1_655
Ce0 O27 2.516897 1_555
Ce0 O24 2.560298 1_565
Ce0 O20 2.563141 1_555
Ce0 O2 2.744685 1_555
Ce0 O13 2.887762 1_555
Ce0 O6 3.060641 1_555
Ce1 O54 2.391594 1_555
Ce1 O18 2.431600 1_555
Ce1 O41 2.526765 1_555
Ce1 O28 2.556585 1_655
Ce1 O37 2.609653 1_555
Ce1 O4 2.639357 1_555
Ce1 O51 2.734765 1_655
Ce1 O15 2.805994 1_555
Ce1 O45 2.938944 1_655
Ce2 O20 2.436490 1_544
Ce2 O17 2.442840 1_555
Ce2 O24 2.454703 1_554
Ce2 O12 2.459366 1_555
Ce2 O2 2.488422 1_554
Ce2 O32 2.539847 1_654
Ce2 O10 2.740918 1_555
Ce3 O33 2.391594 1_555
Ce3 O0 2.431600 1_555
Ce3 O29 2.526765 1_555
Ce3 O38 2.556585 1_565
Ce3 O26 2.609653 1_555
Ce3 O9 2.639357 1_555
Ce3 O55 2.734765 1_565
Ce3 O22 2.805994 1_555
Ce3 O44 2.938944 1_565
Ce4 O16 2.436490 1_565
Ce4 O0 2.442840 1_555
Ce4 O45 2.454703 1_555
Ce4 O22 2.459366 1_555
Ce4 O51 2.488422 1_555
Ce4 O4 2.539847 1_455
Ce4 O5 2.740918 1_555
Ce5 O48 2.391594 1_555
Ce5 O17 2.431600 1_555
Ce5 O14 2.526765 1_555
Ce5 O43 2.556585 1_545
Ce5 O40 2.609653 1_555
Ce5 O53 2.639357 1_555
Ce5 O30 2.734765 1_545
Ce5 O12 2.805994 1_555
Ce5 O19 2.938944 1_545
Ce6 O46 2.366556 1_655
Ce6 O26 2.371535 1_555
Ce6 O1 2.390333 1_555
Ce6 O27 2.462404 1_555
Ce6 O31 2.502953 1_655
Ce6 O23 2.681403 1_555
Ce6 O9 2.738016 1_655
Ce6 O29 2.983403 1_555
Ce7 O21 2.436490 1_655
Ce7 O18 2.442840 1_555
Ce7 O19 2.454703 1_555
Ce7 O15 2.459366 1_555
Ce7 O30 2.488422 1_555
Ce7 O53 2.539847 1_565
Ce7 O39 2.740918 1_555
Ce8 O52 2.366556 1_455
Ce8 O40 2.371535 1_555
Ce8 O11 2.390333 1_555
Ce8 O28 2.462404 1_555
Ce8 O15 2.502953 1_455
Ce8 O21 2.681403 1_555
Ce8 O53 2.738016 1_455
Ce8 O14 2.983403 1_555
Ce9 O7 2.366556 1_564
Ce9 O8 2.371535 1_554
Ce9 O36 2.390333 1_555
Ce9 O43 2.462404 1_555
Ce9 O12 2.502953 1_565
Ce9 O20 2.681403 1_554
Ce9 O32 2.738016 1_564
Ce9 O50 2.983403 1_554
Ce10 O23 2.436490 1_455
Ce10 O35 2.442840 1_555
Ce10 O44 2.454703 1_555
Ce10 O31 2.459366 1_555
Ce10 O55 2.488422 1_555
Ce10 O9 2.539847 1_545
Ce10 O34 2.740918 1_555
Ce11 O36 2.427157 1_555
Ce11 O52 2.443101 1_455
Ce11 O14 2.484998 1_565
Ce11 O43 2.516897 1_555
Ce11 O19 2.560298 1_455
Ce11 O21 2.563141 1_555
Ce11 O30 2.744685 1_555
Ce11 O49 2.887762 1_555
Ce11 O48 3.060641 1_555
Ce12 O6 2.391594 1_555
Ce12 O35 2.431600 1_555
Ce12 O50 2.526765 1_555
Ce12 O27 2.556585 1_455
Ce12 O8 2.609653 1_555
Ce12 O32 2.639357 1_555
Ce12 O2 2.734765 1_455
Ce12 O31 2.805994 1_555
Ce12 O24 2.938944 1_455
Ce13 O11 2.427157 1_555
Ce13 O47 2.443101 1_545
Ce13 O41 2.484998 1_455
Ce13 O28 2.516897 1_555
Ce13 O45 2.560298 1_545
Ce13 O16 2.563141 1_555
Ce13 O51 2.744685 1_555
Ce13 O25 2.887762 1_555
Ce13 O54 3.060641 1_555
Ce14 O3 2.427157 1_555
Ce14 O46 2.443101 1_655
Ce14 O29 2.484998 1_545
Ce14 O38 2.516897 1_555
Ce14 O44 2.560298 1_655
Ce14 O23 2.563141 1_555
Ce14 O55 2.744685 1_555
Ce14 O42 2.887762 1_555
Ce14 O33 3.060641 1_555
Ce15 O47 2.366556 1_545
Ce15 O37 2.371535 1_555
Ce15 O3 2.390333 1_555
Ce15 O38 2.462404 1_555
Ce15 O22 2.502953 1_545
Ce15 O16 2.681403 1_555
Ce15 O4 2.738016 1_545
Ce15 O41 2.983403 1_555
O0 Si6 1.621013 1_455
O1 Si4 1.624220 1_565
O2 Si7 1.644021 1_556
O3 Si3 1.624220 1_655
O4 Si12 1.650755 1_555
O5 Si3 1.679738 1_555
O5 Si1 1.684155 1_555
O6 Si10 1.609255 1_555
O7 Si9 1.631576 1_545
O8 Si2 1.621048 1_556
O9 Si15 1.650755 1_555
O10 Si7 1.679738 1_555
O10 Si0 1.684155 1_555
O11 Si13 1.624220 1_545
O12 Si2 1.643580 1_555
O13 Si15 1.665592 1_555
O13 Si9 1.681640 1_555
O14 Si14 1.639734 1_555
O15 Si8 1.643580 1_555
O16 Si3 1.635692 1_555
O17 Si14 1.621013 1_655
O18 Si5 1.621013 1_565
O19 Si0 1.644318 1_555
O20 Si7 1.635692 1_556
O21 Si13 1.635692 1_555
O22 Si12 1.643580 1_555
O23 Si4 1.635692 1_555
O24 Si10 1.644318 1_555
O25 Si8 1.665592 1_555
O25 Si5 1.681640 1_555
O26 Si15 1.621048 1_555
O27 Si10 1.664289 1_555
O28 Si11 1.664289 1_555
O29 Si6 1.639734 1_555
O30 Si13 1.644021 1_555
O31 Si15 1.643580 1_555
O32 Si2 1.650755 1_556
O33 Si1 1.609255 1_555
O34 Si4 1.679738 1_555
O34 Si10 1.684155 1_555
O35 Si9 1.621013 1_545
O36 Si7 1.624220 1_455
O37 Si12 1.621048 1_555
O38 Si1 1.664289 1_555
O39 Si13 1.679738 1_555
O39 Si11 1.684155 1_555
O40 Si8 1.621048 1_555
O41 Si5 1.639734 1_555
O42 Si12 1.665592 1_555
O42 Si6 1.681640 1_555
O43 Si0 1.664289 1_555
O44 Si1 1.644318 1_555
O45 Si11 1.644318 1_555
O46 Si6 1.631576 1_455
O47 Si5 1.631576 1_565
O48 Si0 1.609255 1_555
O49 Si2 1.665592 1_555
O49 Si14 1.681640 1_555
O50 Si9 1.639734 1_555
O51 Si3 1.644021 1_555
O52 Si14 1.631576 1_655
O53 Si8 1.650755 1_555
O54 Si11 1.609255 1_555
O55 Si4 1.644021 1_555
