# generated using pymatgen
data_Sn4Bi2Se7
_symmetry_space_group_name_H-M   'P 1'
_cell_length_a   7.42966350
_cell_length_b   7.42966350
_cell_length_c   9.50292532
_cell_angle_alpha   81.59583995
_cell_angle_beta   81.59583995
_cell_angle_gamma   47.73906141
_symmetry_Int_Tables_number   1
_chemical_formula_structural   Sn4Bi2Se7
_chemical_formula_sum   'Sn4 Bi2 Se7'
_cell_volume   383.23142963
_cell_formula_units_Z   1
loop_
 _symmetry_equiv_pos_site_id
 _symmetry_equiv_pos_as_xyz
  1  'x, y, z'
loop_
 _atom_site_type_symbol
 _atom_site_label
 _atom_site_symmetry_multiplicity
 _atom_site_fract_x
 _atom_site_fract_y
 _atom_site_fract_z
 _atom_site_occupancy
  Sn  Sn0  1  0.42599400  0.42599400  0.23358200  1
  Sn  Sn1  1  0.14166600  0.14166600  0.06092000  1
  Sn  Sn2  1  0.85833400  0.85833400  0.93908000  1
  Sn  Sn3  1  0.57400600  0.57400600  0.76641800  1
  Bi  Bi0  1  0.71213800  0.71213800  0.35517300  1
  Bi  Bi1  1  0.28786200  0.28786200  0.64482700  1
  Se  Se0  1  0.21938900  0.21938900  0.36573400  1
  Se  Se1  1  0.91923900  0.91923900  0.21095800  1
  Se  Se2  1  0.64750400  0.64750400  0.07096300  1
  Se  Se3  1  0.35249600  0.35249600  0.92903700  1
  Se  Se4  1  0.08076100  0.08076100  0.78904200  1
  Se  Se5  1  0.78061100  0.78061100  0.63426600  1
  Se  Se6  1  0.50000000  0.50000000  0.50000000  1
loop_
_geom_bond_atom_site_label_1
_geom_bond_atom_site_label_2
_geom_bond_distance
_geom_bond_site_symmetry_2
Bi0 Se1 2.926590 1_555
Bi0 Se5 2.947657 1_555
Bi0 Se2 2.970531 1_555
Bi0 Se6 2.989227 1_555
Bi0 Se0 3.010266 1_565
Bi0 Se0 3.010266 1_655
Bi1 Se4 2.926590 1_555
Bi1 Se0 2.947657 1_555
Bi1 Se3 2.970531 1_555
Bi1 Se6 2.989227 1_555
Bi1 Se5 3.010266 1_455
Bi1 Se5 3.010266 1_545
Se0 Sn0 2.886486 1_555
Se0 Sn1 3.237858 1_555
Se1 Sn2 2.836121 1_554
Se1 Sn0 3.016573 1_565
Se1 Sn0 3.016573 1_655
Se1 Sn1 3.128974 1_665
Se2 Sn2 2.937743 1_554
Se2 Sn1 3.009415 1_655
Se2 Sn1 3.009415 1_565
Se2 Sn0 3.156134 1_555
Se2 Sn3 3.208890 1_554
Se3 Sn1 2.937743 1_556
Se3 Sn2 3.009415 1_545
Se3 Sn2 3.009415 1_455
Se3 Sn3 3.156134 1_555
Se3 Sn0 3.208890 1_556
Se4 Sn1 2.836121 1_556
Se4 Sn3 3.016573 1_545
Se4 Sn3 3.016573 1_455
Se4 Sn2 3.128974 1_445
Se5 Sn3 2.886486 1_555
Se5 Sn2 3.237858 1_555
Se6 Sn0 2.869645 1_555
Se6 Sn3 2.869645 1_555
