# generated using pymatgen
data_Eu2Al42O65
_symmetry_space_group_name_H-M   'P 1'
_cell_length_a   11.46718934
_cell_length_b   11.44100761
_cell_length_c   45.57283388
_cell_angle_alpha   29.04523690
_cell_angle_beta   28.84120493
_cell_angle_gamma   28.76267144
_symmetry_Int_Tables_number   1
_chemical_formula_structural   Eu2Al42O65
_chemical_formula_sum   'Eu2 Al42 O65'
_cell_volume   1233.56165350
_cell_formula_units_Z   1
loop_
 _symmetry_equiv_pos_site_id
 _symmetry_equiv_pos_as_xyz
  1  'x, y, z'
loop_
 _atom_site_type_symbol
 _atom_site_label
 _atom_site_symmetry_multiplicity
 _atom_site_fract_x
 _atom_site_fract_y
 _atom_site_fract_z
 _atom_site_occupancy
  Eu  Eu0  1  0.51440935  0.00024139  0.49618979  1
  Eu  Eu1  1  0.48310860  0.00180090  0.75889483  1
  Al  Al0  1  0.00015903  0.99835652  0.00053363  1
  Al  Al1  1  0.09314486  0.09320260  0.14788035  1
  Al  Al2  1  0.08907249  0.58981263  0.02498881  1
  Al  Al3  1  0.59120867  0.08815904  0.02501809  1
  Al  Al4  1  0.34787488  0.34911509  0.08896725  1
  Al  Al5  1  0.45333949  0.45374225  0.11269105  1
  Al  Al6  1  0.54836739  0.54781105  0.13599162  1
  Al  Al7  1  0.09421598  0.10187460  0.39644442  1
  Al  Al8  1  0.10186120  0.59773831  0.27068717  1
  Al  Al9  1  0.59428794  0.10631615  0.27051242  1
  Al  Al10  1  0.64907375  0.65003273  0.16272072  1
  Al  Al11  1  0.35405536  0.36003824  0.33681457  1
  Al  Al12  1  0.99948496  0.00103851  0.25152393  1
  Al  Al13  1  0.41331376  0.90140179  0.22872507  1
  Al  Al14  1  0.90328180  0.41490431  0.22776308  1
  Al  Al15  1  0.90449161  0.90462402  0.10325106  1
  Al  Al16  1  0.56492711  0.57964267  0.38110001  1
  Al  Al17  1  0.09021610  0.08360507  0.64333877  1
  Al  Al18  1  0.08104769  0.58576198  0.52503614  1
  Al  Al19  1  0.58985214  0.08894624  0.52606304  1
  Al  Al20  1  0.64864437  0.65250361  0.41279988  1
  Al  Al21  1  0.35239794  0.35019977  0.58522522  1
  Al  Al22  1  0.00158575  0.99929848  0.49947018  1
  Al  Al23  1  0.41212462  0.91409024  0.47227398  1
  Al  Al24  1  0.92117048  0.41562613  0.47289860  1
  Al  Al25  1  0.91595809  0.91969335  0.35395257  1
  Al  Al26  1  0.43280710  0.42627214  0.61383563  1
  Al  Al27  1  0.09429113  0.09240796  0.89942398  1
  Al  Al28  1  0.10450198  0.57811113  0.77155018  1
  Al  Al29  1  0.59280753  0.10225519  0.77412028  1
  Al  Al30  1  0.64666587  0.64404085  0.66127998  1
  Al  Al31  1  0.35203073  0.34881630  0.83821193  1
  Al  Al32  1  0.00338198  0.99573573  0.74855516  1
  Al  Al33  1  0.40440301  0.89190466  0.72823090  1
  Al  Al34  1  0.89764266  0.40202800  0.72921061  1
  Al  Al35  1  0.90645503  0.90124566  0.60246868  1
  Al  Al36  1  0.44731883  0.44528308  0.86489299  1
  Al  Al37  1  0.55040088  0.53859124  0.89082291  1
  Al  Al38  1  0.65011107  0.64777133  0.91247613  1
  Al  Al39  1  0.40701524  0.90244887  0.97767472  1
  Al  Al40  1  0.90407701  0.40425937  0.97778472  1
  Al  Al41  1  0.90375858  0.90112923  0.85372709  1
  O  O0  1  0.09481856  0.09581029  0.02481163  1
  O  O1  1  0.29132498  0.29199830  0.07537026  1
  O  O2  1  0.18754946  0.19288997  0.18057833  1
  O  O3  1  0.19784882  0.71893600  0.04614502  1
  O  O4  1  0.71858362  0.19717537  0.04658996  1
  O  O5  1  0.10075250  0.10661735  0.27270387  1
  O  O6  1  0.10276838  0.60317757  0.14866153  1
  O  O7  1  0.60046855  0.10334022  0.14932332  1
  O  O8  1  0.60330845  0.60382700  0.02365028  1
  O  O9  1  0.40041091  0.40110799  0.22444250  1
  O  O10  1  0.40027423  0.90024647  0.09949890  1
  O  O11  1  0.90109457  0.39836840  0.09992812  1
  O  O12  1  0.29156436  0.29723445  0.32461648  1
  O  O13  1  0.27870389  0.80660963  0.20292465  1
  O  O14  1  0.80887399  0.80822662  0.06993553  1
  O  O15  1  0.80371049  0.27950564  0.20376978  1
  O  O16  1  0.19036915  0.18420296  0.43216221  1
  O  O17  1  0.18808801  0.72210065  0.29834812  1
  O  O18  1  0.71717451  0.18323321  0.30154698  1
  O  O19  1  0.71200406  0.71239518  0.17227156  1
  O  O20  1  0.09978393  0.08754271  0.52730293  1
  O  O21  1  0.08301156  0.60559637  0.40462230  1
  O  O22  1  0.60874609  0.61008136  0.27076889  1
  O  O23  1  0.60440712  0.06519158  0.41213139  1
  O  O24  1  0.40355239  0.40036401  0.46942935  1
  O  O25  1  0.39151289  0.92520201  0.34504272  1
  O  O26  1  0.91346840  0.39890877  0.34623213  1
  O  O27  1  0.90326323  0.90386697  0.22553052  1
  O  O28  1  0.30830993  0.30628409  0.56711817  1
  O  O29  1  0.27848073  0.80725291  0.45138371  1
  O  O30  1  0.80272921  0.80524659  0.32182750  1
  O  O31  1  0.80660242  0.28048362  0.45201952  1
  O  O32  1  0.20089337  0.19325174  0.67764503  1
  O  O33  1  0.18777563  0.71539151  0.55061258  1
  O  O34  1  0.71438991  0.18932252  0.55188619  1
  O  O35  1  0.68379168  0.68396166  0.43641810  1
  O  O36  1  0.10395932  0.09343662  0.77437075  1
  O  O37  1  0.08221374  0.60176808  0.65509729  1
  O  O38  1  0.60475165  0.07780449  0.65738746  1
  O  O39  1  0.59936345  0.60433382  0.52829505  1
  O  O40  1  0.39931029  0.93125799  0.58778093  1
  O  O41  1  0.38879063  0.35235756  0.73635003  1
  O  O42  1  0.90994343  0.39900481  0.59646376  1
  O  O43  1  0.89868508  0.91269739  0.47254880  1
  O  O44  1  0.29668420  0.29846652  0.82368217  1
  O  O45  1  0.27873107  0.80581617  0.70046264  1
  O  O46  1  0.80475109  0.27745085  0.70351686  1
  O  O47  1  0.80659477  0.81708997  0.56831408  1
  O  O48  1  0.19319190  0.18940548  0.92969576  1
  O  O49  1  0.19626142  0.72381922  0.79497037  1
  O  O50  1  0.72761623  0.19382382  0.79583496  1
  O  O51  1  0.70548009  0.70661383  0.67471506  1
  O  O52  1  0.09699549  0.59510467  0.90008382  1
  O  O53  1  0.59622688  0.60406728  0.77369871  1
  O  O54  1  0.60017404  0.09429241  0.90070430  1
  O  O55  1  0.50567019  0.56963709  0.85668559  1
  O  O56  1  0.39714513  0.39176328  0.97851936  1
  O  O57  1  0.40708597  0.89933896  0.85019302  1
  O  O58  1  0.90403869  0.39510405  0.85195256  1
  O  O59  1  0.89255951  0.89481753  0.72744936  1
  O  O60  1  0.28206623  0.80934147  0.95151578  1
  O  O61  1  0.80697650  0.81563332  0.81902541  1
  O  O62  1  0.81006670  0.27970298  0.95231429  1
  O  O63  1  0.70736091  0.70693109  0.92488325  1
  O  O64  1  0.90655137  0.90228913  0.97521339  1
loop_
_geom_bond_atom_site_label_1
_geom_bond_atom_site_label_2
_geom_bond_distance
_geom_bond_site_symmetry_2
Eu0 O23 2.394428 1_555
Eu0 O40 2.490456 1_545
Eu0 O39 2.603806 1_545
Eu0 O24 2.609858 1_555
Eu0 O43 2.722700 1_545
Eu0 O20 2.820225 1_555
Eu1 O41 2.334048 1_555
Eu1 O55 2.371608 1_545
Eu1 O57 2.520877 1_545
Eu1 O59 2.607755 1_545
Eu1 O38 2.808922 1_555
Eu1 O36 2.903243 1_555
Eu1 O53 2.942984 1_545
Al0 O4 1.898199 1_465
Al0 O3 1.900080 1_555
Al0 O60 1.911987 1_554
Al0 O62 1.914210 1_464
Al0 O48 1.930049 1_564
Al0 O14 1.930933 1_455
Al1 O27 1.823058 1_445
Al1 O10 1.847652 1_545
Al1 O11 1.850859 1_455
Al1 O1 2.005441 1_555
Al1 O13 2.075812 1_545
Al1 O15 2.079820 1_455
Al2 O64 1.823933 1_454
Al2 O56 1.829837 1_554
Al2 O11 1.846335 1_455
Al2 O1 2.013941 1_555
Al2 O14 2.026442 1_455
Al2 O60 2.115748 1_554
Al3 O64 1.824366 1_544
Al3 O56 1.829599 1_554
Al3 O10 1.846841 1_545
Al3 O1 2.000461 1_555
Al3 O14 2.037281 1_545
Al3 O62 2.111428 1_554
Al4 O2 1.808809 1_555
Al4 O3 1.831097 1_555
Al4 O4 1.831321 1_555
Al4 O1 1.840225 1_555
Al5 O6 1.753930 1_555
Al5 O7 1.754775 1_555
Al5 O8 1.772214 1_555
Al6 O9 1.768015 1_555
Al6 O10 1.768024 1_555
Al6 O11 1.768342 1_555
Al7 O25 1.844456 1_545
Al7 O26 1.855830 1_455
Al7 O43 1.870881 1_445
Al7 O12 1.982387 1_555
Al7 O31 2.016676 1_455
Al7 O29 2.029849 1_545
Al8 O27 1.819928 1_455
Al8 O9 1.835626 1_555
Al8 O26 1.893963 1_455
Al8 O13 1.995348 1_555
Al8 O12 2.018061 1_555
Al8 O30 2.055588 1_455
Al9 O27 1.819365 1_545
Al9 O9 1.837385 1_555
Al9 O25 1.882098 1_545
Al9 O15 1.988195 1_555
Al9 O12 2.007201 1_555
Al9 O30 2.078558 1_545
Al10 O19 1.793110 1_555
Al10 O13 1.836040 1_555
Al10 O14 1.836402 1_555
Al10 O15 1.838746 1_555
Al11 O17 1.783406 1_555
Al11 O18 1.790529 1_555
Al11 O16 1.870487 1_555
Al11 O12 1.907322 1_555
Al12 O17 1.868924 1_645
Al12 O18 1.889605 1_555
Al12 O2 1.896692 1_655
Al12 O13 1.951604 1_645
Al12 O15 1.955218 1_555
Al12 O30 2.005388 1_545
Al13 O22 1.750249 1_555
Al13 O5 1.806855 1_565
Al13 O7 1.872976 1_565
Al13 O19 2.081006 1_555
Al13 O17 2.120794 1_555
Al13 O2 2.158446 1_565
Al14 O22 1.751385 1_555
Al14 O5 1.803926 1_655
Al14 O6 1.866292 1_655
Al14 O19 2.090484 1_555
Al14 O2 2.110698 1_655
Al14 O18 2.156073 1_555
Al15 O0 1.832075 1_665
Al15 O7 1.832385 1_565
Al15 O6 1.833767 1_655
Al15 O19 1.963404 1_555
Al15 O3 2.098182 1_655
Al15 O4 2.106562 1_565
Al16 O25 1.693203 1_555
Al16 O26 1.704120 1_555
Al16 O24 1.733046 1_555
Al17 O42 1.743003 1_455
Al17 O40 1.781684 1_545
Al17 O59 1.838971 1_445
Al17 O45 2.213230 1_545
Al17 O28 2.299876 1_555
Al17 O46 2.309547 1_455
Al18 O42 1.735246 1_455
Al18 O43 1.868506 1_455
Al18 O24 1.955666 1_555
Al18 O28 2.029272 1_555
Al18 O47 2.109092 1_455
Al18 O29 2.164939 1_555
Al19 O40 1.792266 1_545
Al19 O43 1.871604 1_545
Al19 O28 1.893166 1_555
Al19 O47 1.979471 1_545
Al19 O24 2.038604 1_555
Al19 O31 2.071986 1_555
Al20 O35 1.772619 1_555
Al20 O30 1.810074 1_555
Al20 O29 1.853514 1_555
Al20 O31 1.856116 1_555
Al21 O28 1.757880 1_555
Al21 O34 1.836397 1_555
Al21 O33 1.836752 1_555
Al21 O32 1.846245 1_555
Al22 O16 1.902779 1_565
Al22 O47 1.906637 1_455
Al22 O29 1.925884 1_555
Al22 O31 1.928938 1_465
Al22 O33 1.965588 1_555
Al22 O34 2.005926 1_465
Al23 O23 1.781374 1_565
Al23 O35 1.879117 1_555
Al23 O20 1.886708 1_565
Al23 O16 1.961307 1_565
Al23 O39 2.032325 1_555
Al23 O33 2.122395 1_555
Al24 O21 1.726427 1_655
Al24 O20 1.891335 1_655
Al24 O39 1.973056 1_555
Al24 O35 1.987786 1_555
Al24 O16 2.052014 1_655
Al24 O34 2.190472 1_555
Al25 O21 1.756970 1_655
Al25 O5 1.768604 1_665
Al25 O23 1.805526 1_565
Al25 O18 2.210827 1_565
Al25 O17 2.250416 1_655
Al25 O35 2.413165 1_555
Al26 O39 1.699087 1_555
Al26 O37 1.713219 1_555
Al26 O38 1.720507 1_555
Al27 O64 1.828337 1_445
Al27 O58 1.831870 1_455
Al27 O57 1.858568 1_545
Al27 O60 2.011736 1_545
Al27 O62 2.011830 1_455
Al27 O44 2.046631 1_555
Al28 O41 1.786702 1_555
Al28 O58 1.833612 1_455
Al28 O59 1.860125 1_455
Al28 O44 2.063433 1_555
Al28 O45 2.074405 1_555
Al28 O61 2.190670 1_455
Al29 O41 1.824891 1_555
Al29 O57 1.898717 1_545
Al29 O59 1.920106 1_545
Al29 O44 1.932790 1_555
Al29 O46 1.960028 1_555
Al29 O61 1.981022 1_545
Al30 O46 1.802642 1_555
Al30 O45 1.817744 1_555
Al30 O47 1.822164 1_555
Al30 O51 1.917967 1_555
Al31 O44 1.793677 1_555
Al31 O48 1.803115 1_555
Al31 O49 1.851788 1_555
Al31 O50 1.857292 1_555
Al32 O61 1.877880 1_455
Al32 O46 1.881893 1_465
Al32 O45 1.915464 1_555
Al32 O49 1.916055 1_555
Al32 O50 1.953193 1_465
Al32 O32 2.015373 1_565
Al33 O53 1.825053 1_555
Al33 O36 1.861635 1_565
Al33 O49 1.936034 1_555
Al33 O38 1.947150 1_565
Al33 O51 1.954053 1_555
Al33 O32 2.017210 1_565
Al34 O53 1.819379 1_555
Al34 O36 1.865196 1_655
Al34 O37 1.889521 1_655
Al34 O50 1.954519 1_555
Al34 O51 2.039508 1_555
Al34 O32 2.062911 1_655
Al35 O20 1.845553 1_665
Al35 O37 1.883377 1_655
Al35 O38 1.931633 1_565
Al35 O34 1.977638 1_565
Al35 O33 1.979081 1_655
Al35 O51 1.998777 1_555
Al36 O55 1.706445 1_555
Al36 O54 1.753171 1_555
Al36 O52 1.759297 1_555
Al36 O53 1.814723 1_555
Al37 O55 1.709379 1_555
Al37 O56 1.736499 1_555
Al37 O58 1.762314 1_555
Al37 O57 1.800234 1_555
Al38 O63 1.818607 1_555
Al38 O60 1.819903 1_555
Al38 O62 1.821516 1_555
Al38 O61 1.842917 1_555
Al39 O0 1.809930 1_566
Al39 O8 1.841855 1_556
Al39 O54 1.864988 1_565
Al39 O63 2.009933 1_555
Al39 O3 2.039632 1_556
Al39 O48 2.073433 1_565
Al40 O0 1.812849 1_656
Al40 O8 1.840092 1_556
Al40 O52 1.851107 1_655
Al40 O63 2.031591 1_555
Al40 O4 2.032529 1_556
Al40 O48 2.058876 1_655
Al41 O52 1.816023 1_655
Al41 O54 1.820314 1_565
Al41 O36 1.894227 1_665
Al41 O63 1.976112 1_555
Al41 O50 2.069763 1_565
Al41 O49 2.090246 1_655
