# generated using pymatgen
data_Lu5(In2Ni)2
_symmetry_space_group_name_H-M   'P 1'
_cell_length_a   3.52078599
_cell_length_b   7.77267642
_cell_length_c   17.48009995
_cell_angle_alpha   90.00000000
_cell_angle_beta   90.00000000
_cell_angle_gamma   90.00000000
_symmetry_Int_Tables_number   1
_chemical_formula_structural   Lu5(In2Ni)2
_chemical_formula_sum   'Lu10 In8 Ni4'
_cell_volume   478.35919590
_cell_formula_units_Z   2
loop_
 _symmetry_equiv_pos_site_id
 _symmetry_equiv_pos_as_xyz
  1  'x, y, z'
loop_
 _atom_site_type_symbol
 _atom_site_label
 _atom_site_symmetry_multiplicity
 _atom_site_fract_x
 _atom_site_fract_y
 _atom_site_fract_z
 _atom_site_occupancy
  Lu  Lu0  1  -0.00000000  0.88514407  0.08822916  1
  Lu  Lu1  1  -0.00000000  0.75427003  0.27900552  1
  Lu  Lu2  1  0.00000000  0.74572997  0.77900552  1
  Lu  Lu3  1  -0.00000000  0.38514407  0.41177084  1
  Lu  Lu4  1  -0.00000000  0.11485593  0.91177084  1
  Lu  Lu5  1  -0.00000000  0.24572997  0.72099448  1
  Lu  Lu6  1  -0.00000000  0.50000000  -0.00000000  1
  Lu  Lu7  1  0.00000000  0.25427003  0.22099448  1
  Lu  Lu8  1  -0.00000000  0.61485593  0.58822916  1
  Lu  Lu9  1  -0.00000000  0.00000000  0.50000000  1
  In  In0  1  0.50000000  0.20632948  0.06818958  1
  In  In1  1  0.50000000  0.42532985  0.84805773  1
  In  In2  1  0.50000000  0.57467015  0.15194227  1
  In  In3  1  0.50000000  0.07467015  0.34805773  1
  In  In4  1  0.50000000  0.92532985  0.65194227  1
  In  In5  1  0.50000000  0.79367052  0.93181042  1
  In  In6  1  0.50000000  0.70632948  0.43181042  1
  In  In7  1  0.50000000  0.29367052  0.56818958  1
  Ni  Ni0  1  0.50000000  0.97295924  0.19593676  1
  Ni  Ni1  1  0.50000000  0.02704076  0.80406324  1
  Ni  Ni2  1  0.50000000  0.52704076  0.69593676  1
  Ni  Ni3  1  0.50000000  0.47295924  0.30406324  1
loop_
_geom_bond_atom_site_label_1
_geom_bond_atom_site_label_2
_geom_bond_distance
_geom_bond_site_symmetry_2
Lu0 Ni0 2.666379 1_555
Lu0 Ni0 2.666379 1_455
Lu1 Ni3 2.841089 1_455
Lu1 Ni3 2.841089 1_555
Lu1 Ni0 2.845480 1_555
Lu1 Ni0 2.845480 1_455
Lu2 Ni1 2.841089 1_465
Lu2 Ni1 2.841089 1_565
Lu2 Ni2 2.845480 1_555
Lu2 Ni2 2.845480 1_455
Lu3 Ni3 2.666379 1_455
Lu3 Ni3 2.666379 1_555
Lu4 Ni1 2.666379 1_455
Lu4 Ni1 2.666379 1_555
Lu5 Ni2 2.841089 1_555
Lu5 Ni2 2.841089 1_455
Lu5 Ni1 2.845480 1_455
Lu5 Ni1 2.845480 1_555
Lu7 Ni0 2.841089 1_445
Lu7 Ni0 2.841089 1_545
Lu7 Ni3 2.845480 1_455
Lu7 Ni3 2.845480 1_555
Lu8 Ni2 2.666379 1_555
Lu8 Ni2 2.666379 1_455
In0 Ni0 2.876928 1_545
In0 Lu0 3.074744 1_645
In0 Lu0 3.074744 1_545
In0 Lu6 3.119302 1_555
In0 Lu6 3.119302 1_655
In0 In2 3.215593 1_555
In0 Lu7 3.220608 1_655
In0 Lu7 3.220608 1_555
In0 Lu4 3.328728 1_654
In0 Lu4 3.328728 1_554
In1 Ni2 2.774122 1_555
In1 Lu5 3.159258 1_555
In1 Lu5 3.159258 1_655
In1 Lu4 3.187936 1_555
In1 Lu4 3.187936 1_655
In1 Ni1 3.189860 1_555
In1 In5 3.215593 1_555
In1 Lu6 3.238825 1_656
In1 Lu6 3.238825 1_556
In1 Lu2 3.279917 1_555
In1 Lu2 3.279917 1_655
In2 Ni3 2.774122 1_555
In2 Lu1 3.159258 1_655
In2 Lu1 3.159258 1_555
In2 Lu0 3.187936 1_555
In2 Lu0 3.187936 1_655
In2 Ni0 3.189860 1_555
In2 Lu6 3.238825 1_555
In2 Lu6 3.238825 1_655
In2 Lu7 3.279917 1_555
In2 Lu7 3.279917 1_655
In3 Ni0 2.774122 1_545
In3 Lu7 3.159258 1_655
In3 Lu7 3.159258 1_555
In3 Lu3 3.187936 1_655
In3 Lu3 3.187936 1_555
In3 Ni3 3.189860 1_555
In3 In6 3.215593 1_545
In3 Lu9 3.238825 1_555
In3 Lu9 3.238825 1_655
In3 Lu1 3.279917 1_545
In3 Lu1 3.279917 1_645
In4 Ni1 2.774122 1_565
In4 Lu2 3.159258 1_555
In4 Lu2 3.159258 1_655
In4 Lu8 3.187936 1_655
In4 Lu8 3.187936 1_555
In4 Ni2 3.189860 1_555
In4 In7 3.215593 1_565
In4 Lu9 3.238825 1_665
In4 Lu9 3.238825 1_565
In4 Lu5 3.279917 1_665
In4 Lu5 3.279917 1_565
In5 Ni1 2.876928 1_565
In5 Lu4 3.074744 1_565
In5 Lu4 3.074744 1_665
In5 Lu6 3.119302 1_556
In5 Lu6 3.119302 1_656
In5 Lu2 3.220608 1_555
In5 Lu2 3.220608 1_655
In5 Lu0 3.328728 1_656
In5 Lu0 3.328728 1_556
In6 Ni3 2.876928 1_555
In6 Lu3 3.074744 1_555
In6 Lu3 3.074744 1_655
In6 Lu9 3.119302 1_665
In6 Lu9 3.119302 1_565
In6 Lu1 3.220608 1_655
In6 Lu1 3.220608 1_555
In6 Lu8 3.328728 1_555
In6 Lu8 3.328728 1_655
In7 Ni2 2.876928 1_555
In7 Lu8 3.074744 1_555
In7 Lu8 3.074744 1_655
In7 Lu9 3.119302 1_655
In7 Lu9 3.119302 1_555
In7 Lu5 3.220608 1_555
In7 Lu5 3.220608 1_655
In7 Lu3 3.328728 1_555
In7 Lu3 3.328728 1_655
