# generated using pymatgen
data_Nb24(CuS8)5
_symmetry_space_group_name_H-M   'P 1'
_cell_length_a   13.27200969
_cell_length_b   13.27200969
_cell_length_c   29.08529500
_cell_angle_alpha   85.73359661
_cell_angle_beta   85.73359661
_cell_angle_gamma   14.53459824
_symmetry_Int_Tables_number   1
_chemical_formula_structural   Nb24(CuS8)5
_chemical_formula_sum   'Nb24 Cu5 S40'
_cell_volume   1282.13718122
_cell_formula_units_Z   1
loop_
 _symmetry_equiv_pos_site_id
 _symmetry_equiv_pos_as_xyz
  1  'x, y, z'
loop_
 _atom_site_type_symbol
 _atom_site_label
 _atom_site_symmetry_multiplicity
 _atom_site_fract_x
 _atom_site_fract_y
 _atom_site_fract_z
 _atom_site_occupancy
  Nb  Nb0  1  0.12164500  0.12164500  0.99164100  1
  Nb  Nb1  1  0.62210000  0.62210000  0.89371600  1
  Nb  Nb2  1  0.12201400  0.12201400  0.79097700  1
  Nb  Nb3  1  0.37794900  0.37794900  0.90721800  1
  Nb  Nb4  1  0.62186300  0.62186300  0.69146000  1
  Nb  Nb5  1  0.87813200  0.87813200  0.80841300  1
  Nb  Nb6  1  0.12249900  0.12249900  0.59157200  1
  Nb  Nb7  1  0.37805300  0.37805300  0.70914500  1
  Nb  Nb8  1  0.62243300  0.62243300  0.49352600  1
  Nb  Nb9  1  0.87790500  0.87790500  0.60623300  1
  Nb  Nb10  1  0.12411100  0.12411100  0.39059900  1
  Nb  Nb11  1  0.37813400  0.37813400  0.50769500  1
  Nb  Nb12  1  0.00037300  0.00037300  0.39565100  1
  Nb  Nb13  1  0.62527800  0.62527800  0.29157600  1
  Nb  Nb14  1  0.87589000  0.87589000  0.40935100  1
  Nb  Nb15  1  0.00041500  0.00041500  0.19503000  1
  Nb  Nb16  1  0.49976800  0.49976800  0.30524800  1
  Nb  Nb17  1  0.12496800  0.12496800  0.19197700  1
  Nb  Nb18  1  0.37515700  0.37515700  0.30804700  1
  Nb  Nb19  1  0.50049500  0.50049500  0.10430900  1
  Nb  Nb20  1  0.62428400  0.62428400  0.09113700  1
  Nb  Nb21  1  0.87505000  0.87505000  0.20839500  1
  Nb  Nb22  1  0.37696800  0.37696800  0.10955800  1
  Nb  Nb23  1  0.87803500  0.87803500  0.00700600  1
  Cu  Cu0  1  0.73220000  0.73220000  0.68348800  1
  Cu  Cu1  1  0.76775700  0.76775700  0.81638000  1
  Cu  Cu2  1  0.76752500  0.76752500  0.41662000  1
  Cu  Cu3  1  0.26733000  0.26733000  0.11678800  1
  Cu  Cu4  1  0.76743700  0.76743700  0.01456800  1
  S  S0  1  0.31598900  0.31598900  0.97721700  1
  S  S1  1  0.43711100  0.43711100  0.97004900  1
  S  S2  1  0.81705800  0.81705800  0.87951000  1
  S  S3  1  0.93755000  0.93755000  0.87047700  1
  S  S4  1  0.06218800  0.06218800  0.92927900  1
  S  S5  1  0.18235000  0.18235000  0.92182200  1
  S  S6  1  0.31635300  0.31635300  0.77790500  1
  S  S7  1  0.43734800  0.43734800  0.77110600  1
  S  S8  1  0.56395000  0.56395000  0.82964000  1
  S  S9  1  0.68251700  0.68251700  0.82174500  1
  S  S10  1  0.81755800  0.81755800  0.67834800  1
  S  S11  1  0.93609400  0.93609400  0.67033100  1
  S  S12  1  0.06269700  0.06269700  0.72893900  1
  S  S13  1  0.18357100  0.18357100  0.72216000  1
  S  S14  1  0.31775200  0.31775200  0.57813600  1
  S  S15  1  0.43761100  0.43761100  0.57036700  1
  S  S16  1  0.56300500  0.56300500  0.62932100  1
  S  S17  1  0.68290600  0.68290600  0.62015400  1
  S  S18  1  0.81627900  0.81627900  0.48068300  1
  S  S19  1  0.93907500  0.93907500  0.46994800  1
  S  S20  1  0.06238100  0.06238100  0.53007300  1
  S  S21  1  0.18306700  0.18306700  0.52104000  1
  S  S22  1  0.31457000  0.31457000  0.37753400  1
  S  S23  1  0.43617900  0.43617900  0.37218700  1
  S  S24  1  0.56126500  0.56126500  0.43065900  1
  S  S25  1  0.68275900  0.68275900  0.42121900  1
  S  S26  1  0.81568400  0.81568400  0.27882900  1
  S  S27  1  0.93823300  0.93823300  0.27058100  1
  S  S28  1  0.06364500  0.06364500  0.32851400  1
  S  S29  1  0.18457000  0.18457000  0.32103000  1
  S  S30  1  0.31504300  0.31504300  0.18049600  1
  S  S31  1  0.43677300  0.43677300  0.17135800  1
  S  S32  1  0.56178200  0.56178200  0.22966300  1
  S  S33  1  0.68449600  0.68449600  0.22096200  1
  S  S34  1  0.81631500  0.81631500  0.07913000  1
  S  S35  1  0.93919600  0.93919600  0.06926500  1
  S  S36  1  0.06413000  0.06413000  0.12837200  1
  S  S37  1  0.18366300  0.18366300  0.12104600  1
  S  S38  1  0.56116700  0.56116700  0.02996800  1
  S  S39  1  0.68284900  0.68284900  0.02011200  1
loop_
_geom_bond_atom_site_label_1
_geom_bond_atom_site_label_2
_geom_bond_distance
_geom_bond_site_symmetry_2
Nb0 S4 2.483304 1_555
Nb0 S5 2.488337 1_555
Nb0 S39 2.510310 1_456
Nb0 S39 2.510310 1_546
Nb0 S38 2.516132 1_546
Nb0 S38 2.516132 1_456
Nb1 S4 2.476373 1_655
Nb1 S4 2.476373 1_565
Nb1 S5 2.489620 1_565
Nb1 S5 2.489620 1_655
Nb1 S8 2.499129 1_555
Nb1 S9 2.532418 1_555
Nb2 S12 2.473452 1_555
Nb2 S13 2.479270 1_555
Nb2 S8 2.482498 1_455
Nb2 S8 2.482498 1_545
Nb2 S9 2.524141 1_545
Nb2 S9 2.524141 1_455
Nb3 S3 2.484333 1_455
Nb3 S3 2.484333 1_545
Nb3 S1 2.488631 1_555
Nb3 S2 2.496505 1_455
Nb3 S2 2.496505 1_545
Nb3 S0 2.511672 1_555
Nb4 S16 2.467464 1_555
Nb4 S12 2.485810 1_655
Nb4 S12 2.485810 1_565
Nb4 S17 2.526804 1_555
Nb4 S13 2.544332 1_655
Nb4 S13 2.544332 1_565
Nb5 S3 2.475865 1_555
Nb5 S7 2.484638 1_655
Nb5 S7 2.484638 1_565
Nb5 S2 2.522578 1_555
Nb5 S6 2.543354 1_565
Nb5 S6 2.543354 1_655
Nb6 S20 2.475873 1_555
Nb6 S16 2.494025 1_545
Nb6 S16 2.494025 1_455
Nb6 S17 2.497594 1_545
Nb6 S17 2.497594 1_455
Nb6 S21 2.502218 1_555
Nb7 S7 2.471315 1_555
Nb7 S6 2.480250 1_555
Nb7 S11 2.483935 1_455
Nb7 S11 2.483935 1_545
Nb7 S10 2.524341 1_455
Nb7 S10 2.524341 1_545
Nb8 S20 2.489324 1_655
Nb8 S20 2.489324 1_565
Nb8 S21 2.489910 1_655
Nb8 S21 2.489910 1_565
Nb8 S24 2.525707 1_555
Nb8 S25 2.538692 1_555
Nb9 S15 2.476370 1_565
Nb9 S15 2.476370 1_655
Nb9 S14 2.487832 1_655
Nb9 S14 2.487832 1_565
Nb9 S11 2.500323 1_555
Nb9 S10 2.534642 1_555
Nb10 S29 2.478989 1_555
Nb10 S25 2.490544 1_545
Nb10 S25 2.490544 1_455
Nb10 S28 2.495363 1_555
Nb10 S24 2.573980 1_545
Nb10 S24 2.573980 1_455
Nb11 S15 2.490683 1_555
Nb11 S14 2.497355 1_555
Nb11 S18 2.506088 1_545
Nb11 S18 2.506088 1_455
Nb11 S19 2.516862 1_455
Nb11 S19 2.516862 1_545
Nb12 S28 2.469947 1_555
Nb12 S23 2.512863 1_545
Nb12 S23 2.512863 1_455
Nb12 S24 2.582825 1_455
Nb12 S24 2.582825 1_545
Nb12 S19 2.598390 1_445
Nb13 S33 2.483777 1_555
Nb13 S29 2.488079 1_655
Nb13 S29 2.488079 1_565
Nb13 S28 2.518931 1_565
Nb13 S28 2.518931 1_655
Nb13 S32 2.547461 1_555
Nb14 S23 2.499942 1_655
Nb14 S23 2.499942 1_565
Nb14 S18 2.505921 1_555
Nb14 S19 2.512786 1_555
Nb14 S22 2.550707 1_565
Nb14 S22 2.550707 1_655
Nb15 S36 2.466884 1_555
Nb15 S31 2.504772 1_455
Nb15 S31 2.504772 1_545
Nb15 S32 2.586199 1_455
Nb15 S32 2.586199 1_545
Nb15 S27 2.640033 1_445
Nb16 S23 2.470843 1_555
Nb16 S28 2.505234 1_565
Nb16 S28 2.505234 1_655
Nb16 S27 2.589525 1_455
Nb16 S27 2.589525 1_545
Nb16 S32 2.638346 1_555
Nb17 S37 2.483235 1_555
Nb17 S33 2.486842 1_545
Nb17 S33 2.486842 1_455
Nb17 S36 2.536339 1_555
Nb17 S32 2.552373 1_545
Nb17 S32 2.552373 1_455
Nb18 S22 2.479119 1_555
Nb18 S26 2.488519 1_455
Nb18 S26 2.488519 1_545
Nb18 S27 2.548149 1_545
Nb18 S27 2.548149 1_455
Nb18 S23 2.551758 1_555
Nb19 S31 2.475368 1_555
Nb19 S36 2.508365 1_565
Nb19 S36 2.508365 1_655
Nb19 S38 2.590225 1_555
Nb19 S35 2.590268 1_545
Nb19 S35 2.590268 1_455
Nb20 S39 2.483466 1_555
Nb20 S37 2.494783 1_565
Nb20 S37 2.494783 1_655
Nb20 S36 2.498598 1_565
Nb20 S36 2.498598 1_655
Nb20 S38 2.524031 1_555
Nb21 S26 2.481908 1_555
Nb21 S30 2.483129 1_655
Nb21 S30 2.483129 1_565
Nb21 S31 2.521473 1_655
Nb21 S31 2.521473 1_565
Nb21 S27 2.547643 1_555
Nb22 S31 2.476929 1_555
Nb22 S34 2.522785 1_545
Nb22 S34 2.522785 1_455
Nb22 S30 2.532004 1_555
Nb22 S35 2.566866 1_455
Nb22 S35 2.566866 1_545
Nb23 S1 2.478494 1_564
Nb23 S1 2.478494 1_654
Nb23 S35 2.511956 1_555
Nb23 S0 2.539825 1_564
Nb23 S0 2.539825 1_654
Nb23 S34 2.555439 1_555
Cu0 S10 2.241295 1_555
Cu0 S17 2.331649 1_555
Cu0 S13 2.346767 1_655
Cu0 S13 2.346767 1_565
Cu1 S9 2.238149 1_555
Cu1 S2 2.326829 1_555
Cu1 S6 2.343818 1_565
Cu1 S6 2.343818 1_655
Cu2 S25 2.225924 1_555
Cu2 S22 2.331154 1_565
Cu2 S22 2.331154 1_655
Cu2 S18 2.340640 1_555
Cu3 S37 2.197203 1_555
Cu3 S30 2.315383 1_555
Cu3 S34 2.338815 1_455
Cu3 S34 2.338815 1_545
Cu4 S39 2.221004 1_555
Cu4 S0 2.329137 1_564
Cu4 S0 2.329137 1_654
Cu4 S34 2.354783 1_555
