# generated using pymatgen
data_NaH2CSO4F3
_symmetry_space_group_name_H-M   'P 1'
_cell_length_a   7.52370200
_cell_length_b   10.27020200
_cell_length_c   10.70764266
_cell_angle_alpha   68.75011483
_cell_angle_beta   90.00000000
_cell_angle_gamma   90.00000000
_symmetry_Int_Tables_number   1
_chemical_formula_structural   NaH2CSO4F3
_chemical_formula_sum   'Na4 H8 C4 S4 O16 F12'
_cell_volume   771.12424556
_cell_formula_units_Z   4
loop_
 _symmetry_equiv_pos_site_id
 _symmetry_equiv_pos_as_xyz
  1  'x, y, z'
loop_
 _atom_site_type_symbol
 _atom_site_label
 _atom_site_symmetry_multiplicity
 _atom_site_fract_x
 _atom_site_fract_y
 _atom_site_fract_z
 _atom_site_occupancy
  Na  Na0  1  0.03097100  0.49835400  0.76872500  1
  Na  Na1  1  0.46902900  0.49835400  0.26872500  1
  Na  Na2  1  0.96902900  0.50164600  0.23127500  1
  Na  Na3  1  0.53097100  0.50164600  0.73127500  1
  H  H0  1  0.76030200  0.22079800  0.41717300  1
  H  H1  1  0.23905100  0.83465500  0.51439400  1
  H  H2  1  0.26030200  0.77920200  0.08282700  1
  H  H3  1  0.73905100  0.16534500  0.98560600  1
  H  H4  1  0.23969800  0.77920200  0.58282700  1
  H  H5  1  0.26094900  0.83465500  0.01439400  1
  H  H6  1  0.76094900  0.16534500  0.48560600  1
  H  H7  1  0.73969800  0.22079800  0.91717300  1
  C  C0  1  0.69135800  0.85654100  0.39466600  1
  C  C1  1  0.30864200  0.14345900  0.60533400  1
  C  C2  1  0.19135800  0.14345900  0.10533400  1
  C  C3  1  0.80864200  0.85654100  0.89466600  1
  S  S0  1  0.67153600  0.69351700  0.93676600  1
  S  S1  1  0.17153600  0.30648300  0.56323400  1
  S  S2  1  0.32846400  0.30648300  0.06323400  1
  S  S3  1  0.82846400  0.69351700  0.43676600  1
  O  O0  1  0.23805100  0.52072100  0.11626800  1
  O  O1  1  0.72501000  0.63648500  0.33721200  1
  O  O2  1  0.50620400  0.26579100  0.10740100  1
  O  O3  1  0.26194900  0.52072100  0.61626800  1
  O  O4  1  0.77499000  0.63648500  0.83721200  1
  O  O5  1  0.29419400  0.38955600  0.92370100  1
  O  O6  1  0.70580600  0.61044400  0.07629900  1
  O  O7  1  0.27499000  0.36351500  0.66278800  1
  O  O8  1  0.73805100  0.47927900  0.38373200  1
  O  O9  1  0.76194900  0.47927900  0.88373200  1
  O  O10  1  0.20580600  0.38955600  0.42370100  1
  O  O11  1  0.49379600  0.73420900  0.89259900  1
  O  O12  1  0.22501000  0.36351500  0.16278800  1
  O  O13  1  0.00620400  0.73420900  0.39259900  1
  O  O14  1  0.79419400  0.61044400  0.57629900  1
  O  O15  1  0.99379600  0.26579100  0.60740100  1
  F  F0  1  0.27082400  0.05564900  0.73011400  1
  F  F1  1  0.76674200  0.91774600  0.98313500  1
  F  F2  1  0.22917600  0.05564900  0.23011400  1
  F  F3  1  0.23325800  0.08225400  0.01686500  1
  F  F4  1  0.01707000  0.17538000  0.09592200  1
  F  F5  1  0.73325800  0.91774600  0.48313500  1
  F  F6  1  0.98293000  0.82462000  0.90407800  1
  F  F7  1  0.26674200  0.08225400  0.51686500  1
  F  F8  1  0.51707000  0.82462000  0.40407800  1
  F  F9  1  0.48293000  0.17538000  0.59592200  1
  F  F10  1  0.77082400  0.94435100  0.76988600  1
  F  F11  1  0.72917600  0.94435100  0.26988600  1
loop_
_geom_bond_atom_site_label_1
_geom_bond_atom_site_label_2
_geom_bond_distance
_geom_bond_site_symmetry_2
Na0 O3 2.337913 1_555
Na0 O9 2.340241 1_455
Na0 O5 2.565190 1_555
Na0 O4 2.648319 1_455
Na0 O14 2.650429 1_455
Na0 O7 2.777364 1_555
Na1 O0 2.337913 1_555
Na1 O8 2.340241 1_555
Na1 O10 2.565190 1_555
Na1 O1 2.648319 1_555
Na1 O6 2.650429 1_555
Na1 O12 2.777364 1_555
Na2 O8 2.337913 1_555
Na2 O0 2.340241 1_655
Na2 O6 2.565190 1_555
Na2 O12 2.648319 1_655
Na2 O10 2.650429 1_655
Na2 O1 2.777364 1_555
Na3 O9 2.337913 1_555
Na3 O3 2.340241 1_555
Na3 O14 2.565190 1_555
Na3 O7 2.648319 1_555
Na3 O5 2.650429 1_555
Na3 O4 2.777364 1_555
H0 H6 0.747530 1_555
H1 H4 0.747530 1_555
H2 H5 0.747530 1_555
H3 H7 0.747530 1_555
C0 F11 1.343872 1_555
C0 F8 1.346539 1_555
C0 F5 1.350370 1_555
C1 F0 1.343872 1_555
C1 F9 1.346539 1_555
C1 F7 1.350370 1_555
C2 F2 1.343872 1_555
C2 F4 1.346539 1_555
C2 F3 1.350370 1_555
C3 F10 1.343872 1_555
C3 F6 1.346539 1_555
C3 F1 1.350370 1_555
O0 O12 1.510468 1_555
O1 O8 1.510468 1_555
O1 S3 1.593063 1_555
O2 S2 1.429446 1_555
O3 O7 1.510468 1_555
O4 O9 1.510468 1_555
O4 S0 1.593063 1_555
O5 S2 1.450047 1_556
O6 S0 1.450047 1_554
O7 S1 1.593063 1_555
O10 S1 1.450047 1_555
O11 S0 1.429446 1_555
O12 S2 1.593063 1_555
O13 S3 1.429446 1_455
O14 S3 1.450047 1_555
O15 S1 1.429446 1_655
