# generated using pymatgen
data_Sr13Mn8O30
_symmetry_space_group_name_H-M   'P 1'
_cell_length_a   8.58218200
_cell_length_b   9.36506084
_cell_length_c   10.28805273
_cell_angle_alpha   89.16433085
_cell_angle_beta   86.13771114
_cell_angle_gamma   83.81189276
_symmetry_Int_Tables_number   1
_chemical_formula_structural   Sr13Mn8O30
_chemical_formula_sum   'Sr13 Mn8 O30'
_cell_volume   820.17081071
_cell_formula_units_Z   1
loop_
 _symmetry_equiv_pos_site_id
 _symmetry_equiv_pos_as_xyz
  1  'x, y, z'
loop_
 _atom_site_type_symbol
 _atom_site_label
 _atom_site_symmetry_multiplicity
 _atom_site_fract_x
 _atom_site_fract_y
 _atom_site_fract_z
 _atom_site_occupancy
  Sr  Sr0  1  0.09914400  0.18840400  0.48981700  1
  Sr  Sr1  1  0.99474400  0.28308500  0.00544500  1
  Sr  Sr2  1  0.11816200  0.96802300  0.19849700  1
  Sr  Sr3  1  0.11377600  0.54927300  0.73175600  1
  Sr  Sr4  1  0.19719500  0.64054100  0.37386500  1
  Sr  Sr5  1  0.37104500  0.90577400  0.55520400  1
  Sr  Sr6  1  0.48870000  0.55372100  0.00510500  1
  Sr  Sr7  1  0.66896300  0.11631400  0.19346000  1
  Sr  Sr8  1  0.78261000  0.36853900  0.67366000  1
  Sr  Sr9  1  0.87921400  0.45097500  0.34232600  1
  Sr  Sr10  1  0.80650200  0.01803900  0.84453600  1
  Sr  Sr11  1  0.86602200  0.73060100  0.05573600  1
  Sr  Sr12  1  0.85801400  0.88172600  0.50819800  1
  Mn  Mn0  1  0.24538400  0.32016800  0.22064200  1
  Mn  Mn1  1  0.22250900  0.17657300  0.78008400  1
  Mn  Mn2  1  0.46803000  0.25293800  0.46170500  1
  Mn  Mn3  1  0.39591700  0.22020800  0.97975300  1
  Mn  Mn4  1  0.47287900  0.89834300  0.05107400  1
  Mn  Mn5  1  0.51637700  0.59474500  0.54596800  1
  Mn  Mn6  1  0.66388000  0.71938500  0.30860500  1
  Mn  Mn7  1  0.70856000  0.71548300  0.77016600  1
  O  O0  1  0.88472300  0.75593100  0.29244500  1
  O  O1  1  0.91231200  0.76856400  0.78454800  1
  O  O2  1  0.13149000  0.48802400  0.17847200  1
  O  O3  1  0.29589200  0.36718700  0.38454800  1
  O  O4  1  0.12475300  0.91290700  0.44388300  1
  O  O5  1  0.24518400  0.08943900  0.95155700  1
  O  O6  1  0.44537900  0.33462500  0.12084700  1
  O  O7  1  0.35876200  0.10912100  0.24003400  1
  O  O8  1  0.32453800  0.77880800  0.09573600  1
  O  O9  1  0.33379100  0.17195000  0.61929900  1
  O  O10  1  0.27134700  0.35896400  0.88000600  1
  O  O11  1  0.31274300  0.64882800  0.60226700  1
  O  O12  1  0.74636500  0.38583800  0.91964100  1
  O  O13  1  0.71723300  0.64687400  0.47586000  1
  O  O14  1  0.66998200  0.11924800  0.44395700  1
  O  O15  1  0.39409700  0.08639700  0.37564200  1
  O  O16  1  0.61461600  0.86746200  0.18771100  1
  O  O17  1  0.58137500  0.57628300  0.72100600  1
  O  O18  1  0.58479900  0.40434600  0.50203600  1
  O  O19  1  0.69224500  0.57431400  0.19074500  1
  O  O20  1  0.46188800  0.70576800  0.38878000  1
  O  O21  1  0.56166200  0.07416600  0.98593200  1
  O  O22  1  0.63655800  0.87348100  0.67867600  1
  O  O23  1  0.62186400  0.77197700  0.93442400  1
  O  O24  1  0.90098800  0.03259600  0.05674700  1
  O  O25  1  0.81607700  0.16941300  0.48483300  1
  O  O26  1  0.00501200  0.45707000  0.54621800  1
  O  O27  1  0.84505700  0.50577300  0.87874100  1
  O  O28  1  0.05599000  0.23457200  0.24322800  1
  O  O29  1  0.00964900  0.17721700  0.74857800  1
loop_
_geom_bond_atom_site_label_1
_geom_bond_atom_site_label_2
_geom_bond_distance
_geom_bond_site_symmetry_2
Mn0 O2 1.822293 1_555
Mn0 O3 1.840269 1_555
Mn0 O28 1.887625 1_555
Mn0 O6 1.956294 1_555
Mn0 O7 2.119684 1_555
Mn1 O9 1.852185 1_555
Mn1 O29 1.876073 1_555
Mn1 O5 1.945740 1_555
Mn1 O10 2.100878 1_555
Mn2 O18 1.888524 1_555
Mn2 O3 1.936444 1_555
Mn2 O15 1.987069 1_555
Mn2 O14 2.025103 1_555
Mn2 O9 2.105257 1_555
Mn3 O21 1.867679 1_555
Mn3 O5 1.913071 1_555
Mn3 O6 1.913605 1_556
Mn3 O10 1.921984 1_555
Mn4 O8 1.816176 1_555
Mn4 O16 1.918862 1_555
Mn4 O21 1.977494 1_564
Mn4 O23 1.996019 1_554
Mn4 O5 2.744400 1_564
Mn5 O11 1.824162 1_555
Mn5 O18 1.868304 1_555
Mn5 O17 1.920780 1_555
Mn5 O13 1.932266 1_555
Mn5 O20 1.965438 1_555
Mn6 O19 1.819977 1_555
Mn6 O16 1.882262 1_555
Mn6 O20 1.885132 1_555
Mn6 O13 1.907020 1_555
Mn6 O0 1.957737 1_555
Mn7 O22 1.815988 1_555
Mn7 O23 1.860399 1_555
Mn7 O17 1.883349 1_555
Mn7 O1 1.884447 1_555
Mn7 O27 2.468484 1_555
O0 Sr11 2.467855 1_555
O0 Sr12 2.513344 1_555
O0 Sr9 2.899142 1_555
O0 Sr4 2.951672 1_655
O0 Sr2 3.071498 1_655
O1 Sr10 2.484592 1_565
O1 Sr3 2.577310 1_655
O1 Sr11 2.814338 1_556
O1 Sr12 3.067186 1_555
O2 Sr4 2.609437 1_555
O2 Sr9 2.702382 1_455
O2 Sr1 3.016015 1_455
O3 Sr4 2.611492 1_555
O3 Sr0 2.671630 1_555
O4 Sr12 2.387039 1_455
O4 Sr5 2.465237 1_555
O4 Sr2 2.572524 1_555
O4 Sr0 2.612966 1_565
O4 Sr4 2.657631 1_555
O5 Sr1 2.691512 1_456
O5 Sr2 2.957274 1_546
O6 Sr6 2.408270 1_555
O6 Sr7 2.778990 1_555
O7 Sr2 2.629822 1_545
O7 Sr7 2.680917 1_555
O8 Sr2 2.553523 1_555
O8 Sr6 2.556929 1_555
O9 Sr0 2.478328 1_555
O9 Sr5 2.568774 1_545
O10 Sr3 2.647712 1_555
O10 Sr1 2.780257 1_456
O10 Sr6 3.096456 1_556
O11 Sr3 2.358033 1_555
O11 Sr5 2.543245 1_555
O11 Sr4 2.616648 1_555
O12 O27 1.516353 1_555
O12 Sr1 2.456750 1_556
O12 Sr8 2.534230 1_555
O12 Sr6 2.676536 1_556
O13 Sr9 2.540088 1_555
O13 Sr12 2.656352 1_555
O14 O25 1.474243 1_555
O14 Sr7 2.578287 1_555
O14 Sr12 2.704781 1_545
O15 O7 1.455368 1_555
O15 Sr5 2.498980 1_545
O15 Sr0 2.794798 1_555
O16 Sr7 2.427842 1_565
O16 Sr11 2.683564 1_555
O17 Sr8 2.488969 1_555
O17 Sr6 2.987504 1_556
O18 Sr8 2.525053 1_555
O18 Sr9 2.988722 1_555
O19 Sr9 2.495175 1_555
O19 Sr11 2.535341 1_555
O19 Sr6 2.696138 1_555
O20 Sr4 2.430206 1_555
O20 Sr5 2.578112 1_555
O21 Sr7 2.435182 1_556
O21 Sr10 2.485983 1_555
O22 Sr12 2.504574 1_555
O22 Sr5 2.669766 1_555
O22 Sr10 2.774889 1_565
O23 Sr11 2.502341 1_556
O23 Sr6 2.522102 1_556
O23 Sr10 3.033807 1_565
O24 Sr10 2.390331 1_554
O24 Sr7 2.424138 1_555
O24 Sr2 2.462466 1_645
O24 Sr1 2.596649 1_555
O24 Sr11 2.876305 1_545
O25 Sr0 2.458884 1_655
O25 Sr12 2.688825 1_545
O25 Sr8 2.692405 1_555
O25 Sr9 3.079659 1_555
O26 Sr3 2.392152 1_555
O26 Sr9 2.427107 1_455
O26 Sr8 2.453956 1_455
O26 Sr0 2.619387 1_555
O26 Sr4 2.990798 1_555
O27 Sr8 2.602019 1_555
O27 Sr1 2.695828 1_556
O27 Sr3 2.736051 1_655
O27 Sr11 2.831796 1_556
O28 Sr2 2.537915 1_545
O28 Sr1 2.560570 1_455
O28 Sr9 2.576308 1_455
O28 Sr0 2.611538 1_555
O29 Sr10 2.553807 1_455
O29 Sr8 2.647718 1_455
O29 Sr0 2.724276 1_555
O29 Sr1 2.826050 1_456
