# generated using pymatgen
data_Ba3Ce2C5O15F2
_symmetry_space_group_name_H-M   'P 1'
_cell_length_a   5.32587517
_cell_length_b   13.96798645
_cell_length_c   21.20963572
_cell_angle_alpha   94.95142839
_cell_angle_beta   90.00000000
_cell_angle_gamma   90.00000000
_symmetry_Int_Tables_number   1
_chemical_formula_structural   Ba3Ce2C5O15F2
_chemical_formula_sum   'Ba12 Ce8 C20 O60 F8'
_cell_volume   1571.93388865
_cell_formula_units_Z   4
loop_
 _symmetry_equiv_pos_site_id
 _symmetry_equiv_pos_as_xyz
  1  'x, y, z'
loop_
 _atom_site_type_symbol
 _atom_site_label
 _atom_site_symmetry_multiplicity
 _atom_site_fract_x
 _atom_site_fract_y
 _atom_site_fract_z
 _atom_site_occupancy
  Ba  Ba0  1  0.99918664  0.40742672  0.81344952  1
  Ba  Ba1  1  0.99918664  0.59257328  0.18655048  1
  Ba  Ba2  1  0.98851813  0.10272907  0.69319755  1
  Ba  Ba3  1  0.49517818  0.09488750  0.19191845  1
  Ba  Ba4  1  0.98851813  0.89727093  0.30680245  1
  Ba  Ba5  1  0.47933392  0.40350192  0.31547879  1
  Ba  Ba6  1  0.49517818  0.90511250  0.80808155  1
  Ba  Ba7  1  0.51840465  0.50000000  0.00000000  1
  Ba  Ba8  1  0.00933203  0.50000000  0.50000000  1
  Ba  Ba9  1  0.48112583  0.00000000  0.50000000  1
  Ba  Ba10  1  0.47933392  0.59649808  0.68452121  1
  Ba  Ba11  1  0.99797572  0.00000000  0.00000000  1
  Ce  Ce0  1  0.99187797  0.20984034  0.39529512  1
  Ce  Ce1  1  0.49458059  0.78508883  0.10636041  1
  Ce  Ce2  1  0.99735302  0.31675892  0.09982359  1
  Ce  Ce3  1  0.50401886  0.31521012  0.60073779  1
  Ce  Ce4  1  0.49458059  0.21491117  0.89363959  1
  Ce  Ce5  1  0.99735302  0.68324108  0.90017641  1
  Ce  Ce6  1  0.99187797  0.79015966  0.60470488  1
  Ce  Ce7  1  0.50401886  0.68478988  0.39926221  1
  C  C0  1  0.49889300  0.77885045  0.24699569  1
  C  C1  1  0.49889300  0.22114955  0.75300431  1
  C  C2  1  0.00218406  0.60076636  0.33820239  1
  C  C3  1  0.00218406  0.39923364  0.66179761  1
  C  C4  1  0.99717612  0.69620170  0.04409618  1
  C  C5  1  0.99865872  0.77021810  0.74528523  1
  C  C6  1  0.00282775  0.85177876  0.45091011  1
  C  C7  1  0.49925017  0.59637752  0.83994832  1
  C  C8  1  0.50196322  0.70719572  0.54001264  1
  C  C9  1  0.99717612  0.30379830  0.95590382  1
  C  C10  1  0.99865872  0.22978190  0.25471477  1
  C  C11  1  0.50144939  0.96109894  0.65150748  1
  C  C12  1  0.49779348  0.14273077  0.04775697  1
  C  C13  1  0.99888972  0.95639769  0.14927881  1
  C  C14  1  0.50144939  0.03890106  0.34849252  1
  C  C15  1  0.50196322  0.29280428  0.45998736  1
  C  C16  1  0.99888972  0.04360231  0.85072119  1
  C  C17  1  0.49925017  0.40362248  0.16005168  1
  C  C18  1  0.00282775  0.14822124  0.54908989  1
  C  C19  1  0.49779348  0.85726923  0.95224303  1
  O  O0  1  0.70367619  0.21901855  0.78659462  1
  O  O1  1  0.29740363  0.05677719  0.38088844  1
  O  O2  1  0.71347927  0.30226928  0.49022102  1
  O  O3  1  0.78402388  0.06173165  0.87833620  1
  O  O4  1  0.70367619  0.78098145  0.21340538  1
  O  O5  1  0.99366313  0.72807598  0.10322955  1
  O  O6  1  0.28596029  0.77421413  0.21707323  1
  O  O7  1  0.71347927  0.69773072  0.50977898  1
  O  O8  1  0.50043188  0.36802095  0.10105489  1
  O  O9  1  0.50043188  0.63197905  0.89894511  1
  O  O10  1  0.00621982  0.00153845  0.20497063  1
  O  O11  1  0.70914166  0.42351830  0.18872687  1
  O  O12  1  0.78609717  0.75782908  0.71621875  1
  O  O13  1  0.28306827  0.15146045  0.07700376  1
  O  O14  1  0.50160351  0.74210246  0.59859894  1
  O  O15  1  0.78843544  0.31498881  0.98726135  1
  O  O16  1  0.28574495  0.41333289  0.18942911  1
  O  O17  1  0.71967447  0.93728580  0.62665943  1
  O  O18  1  0.00464367  0.63476411  0.39720098  1
  O  O19  1  0.01322318  0.22436824  0.19364572  1
  O  O20  1  0.20878773  0.68099929  0.01496134  1
  O  O21  1  0.19892379  0.78029516  0.71098716  1
  O  O22  1  0.28596029  0.22578587  0.78292677  1
  O  O23  1  0.79289871  0.83709160  0.42056824  1
  O  O24  1  0.70596270  0.84220386  0.92075048  1
  O  O25  1  0.70914166  0.57648170  0.81127313  1
  O  O26  1  0.50160351  0.25789754  0.40140106  1
  O  O27  1  0.29740363  0.94322281  0.61911156  1
  O  O28  1  0.19892379  0.21970484  0.28901284  1
  O  O29  1  0.00621982  0.99846155  0.79502937  1
  O  O30  1  0.78847273  0.41842844  0.68937773  1
  O  O31  1  0.00297358  0.11655077  0.48958548  1
  O  O32  1  0.78843544  0.68501119  0.01273865  1
  O  O33  1  0.49234948  0.00718943  0.70703118  1
  O  O34  1  0.20878773  0.31900071  0.98503866  1
  O  O35  1  0.00297358  0.88344923  0.51041452  1
  O  O36  1  0.29363656  0.31333972  0.48951092  1
  O  O37  1  0.50387582  0.11260662  0.98827481  1
  O  O38  1  0.78609717  0.24217092  0.28378125  1
  O  O39  1  0.21524613  0.84026741  0.42107910  1
  O  O40  1  0.29363656  0.68666028  0.51048908  1
  O  O41  1  0.28574495  0.58666711  0.81057089  1
  O  O42  1  0.21377344  0.41069738  0.69217229  1
  O  O43  1  0.20680747  0.06489913  0.88141463  1
  O  O44  1  0.78847273  0.58157156  0.31062227  1
  O  O45  1  0.71967447  0.06271420  0.37334057  1
  O  O46  1  0.51009725  0.21462799  0.69210588  1
  O  O47  1  0.78402388  0.93826835  0.12166380  1
  O  O48  1  0.21524613  0.15973259  0.57892090  1
  O  O49  1  0.20680747  0.93510087  0.11858537  1
  O  O50  1  0.00464367  0.36523589  0.60279902  1
  O  O51  1  0.70596270  0.15779614  0.07924952  1
  O  O52  1  0.99366313  0.27192402  0.89677045  1
  O  O53  1  0.51009725  0.78537201  0.30789412  1
  O  O54  1  0.79289871  0.16290840  0.57943176  1
  O  O55  1  0.01322318  0.77563176  0.80635428  1
  O  O56  1  0.49234948  0.99281057  0.29296882  1
  O  O57  1  0.28306827  0.84853955  0.92299624  1
  O  O58  1  0.21377344  0.58930262  0.30782771  1
  O  O59  1  0.50387582  0.88739338  0.01172519  1
  F  F0  1  0.48682060  0.61340214  0.12848395  1
  F  F1  1  0.49350270  0.51587616  0.42633312  1
  F  F2  1  0.00747664  0.61919908  0.62062751  1
  F  F3  1  0.49350270  0.48412384  0.57366688  1
  F  F4  1  0.99035221  0.47926784  0.07438168  1
  F  F5  1  0.48682060  0.38659786  0.87151605  1
  F  F6  1  0.00747664  0.38080092  0.37937249  1
  F  F7  1  0.99035221  0.52073216  0.92561832  1
loop_
_geom_bond_atom_site_label_1
_geom_bond_atom_site_label_2
_geom_bond_distance
_geom_bond_site_symmetry_2
Ba0 O52 2.698811 1_555
Ba0 F7 2.741706 1_555
Ba0 O42 2.818680 1_655
Ba0 O25 2.825454 1_555
Ba0 O30 2.877103 1_555
Ba0 F5 2.899668 1_655
Ba0 O41 2.937256 1_655
Ba0 O22 2.984198 1_655
Ba0 F5 3.018211 1_555
Ba0 O0 3.077082 1_555
Ba1 O5 2.698811 1_555
Ba1 F4 2.741706 1_555
Ba1 O58 2.818680 1_655
Ba1 O11 2.825454 1_555
Ba1 O44 2.877103 1_555
Ba1 F0 2.899668 1_655
Ba1 O16 2.937256 1_655
Ba1 O6 2.984198 1_655
Ba1 F0 3.018211 1_555
Ba1 O4 3.077082 1_555
Ba2 O29 2.708839 1_645
Ba2 O54 2.822124 1_555
Ba2 O48 2.880949 1_655
Ba2 O0 2.882435 1_555
Ba2 O22 2.919103 1_655
Ba2 O17 2.969695 1_545
Ba2 O33 2.986224 1_555
Ba2 O46 2.990337 1_555
Ba2 O33 3.022398 1_655
Ba2 O27 3.087875 1_645
Ba2 O46 3.188463 1_655
Ba3 O56 2.674725 1_545
Ba3 O51 2.846993 1_555
Ba3 O13 2.858930 1_555
Ba3 O10 2.936085 1_555
Ba3 O47 2.968162 1_545
Ba3 O28 3.024929 1_555
Ba3 O49 3.026558 1_545
Ba3 O10 3.040886 1_655
Ba3 O38 3.120444 1_555
Ba3 O19 3.138393 1_555
Ba3 O19 3.297454 1_655
Ba4 O10 2.708839 1_665
Ba4 O23 2.822124 1_555
Ba4 O39 2.880949 1_655
Ba4 O4 2.882435 1_555
Ba4 O6 2.919103 1_655
Ba4 O45 2.969695 1_565
Ba4 O56 2.986224 1_555
Ba4 O53 2.990337 1_555
Ba4 O56 3.022398 1_655
Ba4 O1 3.087875 1_665
Ba4 O53 3.188463 1_655
Ba5 F1 2.713015 1_555
Ba5 O38 2.817415 1_555
Ba5 O26 2.848031 1_555
Ba5 O16 2.879702 1_555
Ba5 F6 2.885588 1_555
Ba5 O58 2.972336 1_555
Ba5 O28 2.981201 1_555
Ba5 O11 2.988847 1_555
Ba5 O44 2.992009 1_555
Ba5 F6 3.150104 1_655
Ba6 O33 2.674725 1_565
Ba6 O24 2.846993 1_555
Ba6 O57 2.858930 1_555
Ba6 O29 2.936085 1_555
Ba6 O3 2.968162 1_565
Ba6 O21 3.024929 1_555
Ba6 O43 3.026558 1_565
Ba6 O29 3.040886 1_655
Ba6 O12 3.120444 1_555
Ba6 O55 3.138393 1_555
Ba6 O55 3.297454 1_655
Ba7 O9 2.946786 1_554
Ba7 O8 2.946786 1_555
Ba7 O32 2.949409 1_555
Ba7 O15 2.949409 1_554
Ba7 F4 2.994900 1_555
Ba7 F7 2.994900 1_554
Ba7 O34 3.012162 1_554
Ba7 O20 3.012162 1_555
Ba7 F5 3.036178 1_554
Ba7 F0 3.036178 1_555
Ba7 F4 3.249744 1_455
Ba7 F7 3.249744 1_454
Ba8 F6 2.929614 1_555
Ba8 F2 2.929614 1_555
Ba8 O50 3.001051 1_555
Ba8 O18 3.001051 1_555
Ba8 O40 3.006647 1_555
Ba8 O36 3.006647 1_555
Ba8 F3 3.033080 1_555
Ba8 F1 3.033080 1_555
Ba8 O2 3.170958 1_455
Ba8 O7 3.170958 1_455
Ba8 F3 3.177668 1_455
Ba8 F1 3.177668 1_455
Ba9 O27 2.883485 1_545
Ba9 O1 2.883485 1_555
Ba9 O39 3.023305 1_545
Ba9 O48 3.023305 1_555
Ba9 O31 3.040765 1_555
Ba9 O35 3.040765 1_545
Ba9 O17 3.162982 1_545
Ba9 O45 3.162982 1_555
Ba9 O54 3.179869 1_555
Ba9 O23 3.179869 1_545
Ba9 O31 3.238158 1_655
Ba9 O35 3.238158 1_645
Ba10 F3 2.713015 1_555
Ba10 O12 2.817415 1_555
Ba10 O14 2.848031 1_555
Ba10 O41 2.879702 1_555
Ba10 F2 2.885588 1_555
Ba10 O42 2.972336 1_555
Ba10 O21 2.981201 1_555
Ba10 O25 2.988847 1_555
Ba10 O30 2.992009 1_555
Ba10 F2 3.150104 1_655
Ba11 O49 2.962828 1_645
Ba11 O43 2.962828 1_654
Ba11 O57 2.975257 1_644
Ba11 O13 2.975257 1_655
Ba11 O47 3.014085 1_545
Ba11 O3 3.014085 1_554
Ba11 O24 3.076118 1_544
Ba11 O51 3.076118 1_555
Ba11 O37 3.086780 1_554
Ba11 O59 3.086780 1_545
Ba11 O59 3.140529 1_645
Ba11 O37 3.140529 1_654
Ce0 F6 2.441841 1_655
Ce0 O31 2.480077 1_655
Ce0 O28 2.523887 1_655
Ce0 O45 2.525191 1_555
Ce0 O38 2.680200 1_555
Ce0 O1 2.683156 1_655
Ce0 O26 2.696370 1_555
Ce0 O2 2.733149 1_555
Ce0 O26 2.796809 1_655
Ce0 O36 2.857848 1_655
Ce1 F0 2.483365 1_555
Ce1 O4 2.533884 1_555
Ce1 O59 2.562879 1_555
Ce1 O49 2.590946 1_555
Ce1 O6 2.614020 1_555
Ce1 O47 2.634339 1_555
Ce1 O5 2.773932 1_555
Ce1 O20 2.775261 1_555
Ce1 O5 2.783298 1_455
Ce1 O32 2.804851 1_555
Ce2 F4 2.378353 1_555
Ce2 O19 2.464893 1_655
Ce2 O15 2.632138 1_554
Ce2 O34 2.684996 1_654
Ce2 O16 2.710741 1_655
Ce2 O51 2.713248 1_555
Ce2 O8 2.741227 1_555
Ce2 O11 2.765863 1_555
Ce2 O13 2.772694 1_655
Ce2 O8 2.772902 1_655
Ce3 F3 2.476559 1_555
Ce3 O46 2.490030 1_555
Ce3 O2 2.588134 1_555
Ce3 O36 2.609743 1_555
Ce3 O54 2.632674 1_555
Ce3 O48 2.668765 1_555
Ce3 O30 2.727701 1_555
Ce3 O42 2.735474 1_555
Ce3 O50 2.749259 1_555
Ce3 O50 2.755698 1_655
Ce4 F5 2.483365 1_555
Ce4 O0 2.533884 1_555
Ce4 O37 2.562879 1_555
Ce4 O43 2.590946 1_555
Ce4 O22 2.614020 1_555
Ce4 O3 2.634339 1_555
Ce4 O52 2.773932 1_555
Ce4 O34 2.775261 1_555
Ce4 O52 2.783298 1_455
Ce4 O15 2.804851 1_555
Ce5 F7 2.378353 1_555
Ce5 O55 2.464893 1_655
Ce5 O32 2.632138 1_556
Ce5 O20 2.684996 1_656
Ce5 O41 2.710741 1_655
Ce5 O24 2.713248 1_555
Ce5 O9 2.741227 1_555
Ce5 O25 2.765863 1_555
Ce5 O57 2.772694 1_655
Ce5 O9 2.772902 1_655
Ce6 F2 2.441841 1_655
Ce6 O35 2.480077 1_655
Ce6 O21 2.523887 1_655
Ce6 O17 2.525191 1_555
Ce6 O12 2.680200 1_555
Ce6 O27 2.683156 1_655
Ce6 O14 2.696370 1_555
Ce6 O7 2.733149 1_555
Ce6 O14 2.796809 1_655
Ce6 O40 2.857848 1_655
Ce7 F1 2.476559 1_555
Ce7 O53 2.490030 1_555
Ce7 O7 2.588134 1_555
Ce7 O40 2.609743 1_555
Ce7 O23 2.632674 1_555
Ce7 O39 2.668765 1_555
Ce7 O44 2.727701 1_555
Ce7 O58 2.735474 1_555
Ce7 O18 2.749259 1_555
Ce7 O18 2.755698 1_655
C0 O53 1.288358 1_555
C0 O6 1.298441 1_555
C0 O4 1.304466 1_555
C1 O46 1.288358 1_555
C1 O22 1.298441 1_555
C1 O0 1.304466 1_555
C2 O44 1.297110 1_455
C2 O18 1.299597 1_555
C2 O58 1.301066 1_555
C3 O30 1.297110 1_455
C3 O50 1.299597 1_555
C3 O42 1.301066 1_555
C4 O20 1.294008 1_655
C4 O5 1.294291 1_555
C4 O32 1.297982 1_555
C5 O55 1.293254 1_655
C5 O12 1.293517 1_555
C5 O21 1.305480 1_655
C6 O23 1.297493 1_455
C6 O39 1.299415 1_555
C6 O35 1.300819 1_555
C7 O25 1.291337 1_555
C7 O41 1.298092 1_555
C7 O9 1.306012 1_555
C8 O40 1.293992 1_555
C8 O14 1.295064 1_555
C8 O7 1.297328 1_555
C9 O34 1.294008 1_655
C9 O52 1.294291 1_555
C9 O15 1.297982 1_555
C10 O19 1.293254 1_655
C10 O38 1.293517 1_555
C10 O28 1.305480 1_655
C11 O33 1.293357 1_565
C11 O27 1.298388 1_555
C11 O17 1.307259 1_555
C12 O37 1.295410 1_554
C12 O13 1.301699 1_555
C12 O51 1.302055 1_555
C13 O10 1.290644 1_665
C13 O47 1.300425 1_555
C13 O49 1.305783 1_655
C14 O56 1.293357 1_545
C14 O1 1.298388 1_555
C14 O45 1.307259 1_555
C15 O36 1.293992 1_555
C15 O26 1.295064 1_555
C15 O2 1.297328 1_555
C16 O29 1.290644 1_645
C16 O3 1.300425 1_555
C16 O43 1.305783 1_655
C17 O11 1.291337 1_555
C17 O16 1.298092 1_555
C17 O8 1.306012 1_555
C18 O54 1.297493 1_455
C18 O48 1.299415 1_555
C18 O31 1.300819 1_555
C19 O59 1.295410 1_556
C19 O57 1.301699 1_555
C19 O24 1.302055 1_555
