# generated using pymatgen
data_Ca5Si2CO11
_symmetry_space_group_name_H-M   'P 1'
_cell_length_a   6.78584900
_cell_length_b   10.57860200
_cell_length_c   14.30533923
_cell_angle_alpha   78.58111600
_cell_angle_beta   90.00000000
_cell_angle_gamma   90.00000000
_symmetry_Int_Tables_number   1
_chemical_formula_structural   Ca5Si2CO11
_chemical_formula_sum   'Ca20 Si8 C4 O44'
_cell_volume   1006.57925623
_cell_formula_units_Z   4
loop_
 _symmetry_equiv_pos_site_id
 _symmetry_equiv_pos_as_xyz
  1  'x, y, z'
loop_
 _atom_site_type_symbol
 _atom_site_label
 _atom_site_symmetry_multiplicity
 _atom_site_fract_x
 _atom_site_fract_y
 _atom_site_fract_z
 _atom_site_occupancy
  Ca  Ca0  1  0.49192300  0.54644900  0.16887300  1
  Ca  Ca1  1  0.49096200  0.13290700  0.17378100  1
  Ca  Ca2  1  0.00903800  0.63290700  0.17378100  1
  Ca  Ca3  1  0.50903800  0.86709300  0.82621900  1
  Ca  Ca4  1  0.50807700  0.45355100  0.83112700  1
  Ca  Ca5  1  0.00807700  0.04644900  0.16887300  1
  Ca  Ca6  1  0.99096200  0.36709300  0.82621900  1
  Ca  Ca7  1  0.99192300  0.95355100  0.83112700  1
  Ca  Ca8  1  0.44260800  0.25988800  0.45647300  1
  Ca  Ca9  1  0.94260800  0.24011200  0.54352700  1
  Ca  Ca10  1  0.55739200  0.74011200  0.54352700  1
  Ca  Ca11  1  0.05739200  0.75988800  0.45647300  1
  Ca  Ca12  1  0.25696600  0.46829600  0.61124200  1
  Ca  Ca13  1  0.75696600  0.03170400  0.38875800  1
  Ca  Ca14  1  0.74303400  0.53170400  0.38875800  1
  Ca  Ca15  1  0.24303400  0.96829600  0.61124200  1
  Ca  Ca16  1  0.83678000  0.35873800  0.07293800  1
  Ca  Ca17  1  0.33678000  0.14126200  0.92706200  1
  Ca  Ca18  1  0.16322000  0.64126200  0.92706200  1
  Ca  Ca19  1  0.66322000  0.85873800  0.07293800  1
  Si  Si0  1  0.74972300  0.47338600  0.60403700  1
  Si  Si1  1  0.24972300  0.02661400  0.39596300  1
  Si  Si2  1  0.25027700  0.52661400  0.39596300  1
  Si  Si3  1  0.75027700  0.97338600  0.60403700  1
  Si  Si4  1  0.27593700  0.36615500  0.05734800  1
  Si  Si5  1  0.77593700  0.13384500  0.94265200  1
  Si  Si6  1  0.72406300  0.63384500  0.94265200  1
  Si  Si7  1  0.22406300  0.86615500  0.05734800  1
  C  C0  1  0.69977300  0.81167100  0.27900300  1
  C  C1  1  0.80022700  0.31167100  0.27900300  1
  C  C2  1  0.30022700  0.18832900  0.72099700  1
  C  C3  1  0.19977300  0.68832900  0.72099700  1
  O  O0  1  0.43232100  0.10656400  0.33484100  1
  O  O1  1  0.31182600  0.07153000  0.77253400  1
  O  O2  1  0.18817400  0.57153000  0.77253400  1
  O  O3  1  0.68817400  0.92847000  0.22746600  1
  O  O4  1  0.79994500  0.21384200  0.23573700  1
  O  O5  1  0.29994500  0.28615800  0.76426300  1
  O  O6  1  0.20005500  0.78615800  0.76426300  1
  O  O7  1  0.70005500  0.71384200  0.23573700  1
  O  O8  1  0.16758100  0.39777400  0.47032100  1
  O  O9  1  0.66758100  0.10222600  0.52967900  1
  O  O10  1  0.83241900  0.60222600  0.52967900  1
  O  O11  1  0.33241900  0.89777400  0.47032100  1
  O  O12  1  0.42535300  0.47999500  0.33023700  1
  O  O13  1  0.92535300  0.02000500  0.66976300  1
  O  O14  1  0.16628000  0.23478400  0.11253000  1
  O  O15  1  0.07464700  0.97999500  0.33023700  1
  O  O16  1  0.06767900  0.60656400  0.33484100  1
  O  O17  1  0.56767900  0.89343600  0.66515900  1
  O  O18  1  0.93232100  0.39343600  0.66515900  1
  O  O19  1  0.81182600  0.42847000  0.22746600  1
  O  O20  1  0.34178200  0.61730700  0.46723700  1
  O  O21  1  0.84178200  0.88269300  0.53276300  1
  O  O22  1  0.65821800  0.38269300  0.53276300  1
  O  O23  1  0.15821800  0.11730700  0.46723700  1
  O  O24  1  0.78346800  0.29399500  0.36977100  1
  O  O25  1  0.71653200  0.79399500  0.36977100  1
  O  O26  1  0.21653200  0.70600500  0.63022900  1
  O  O27  1  0.28346800  0.20600500  0.63022900  1
  O  O28  1  0.24042600  0.87159100  0.94137600  1
  O  O29  1  0.74042600  0.62840900  0.05862400  1
  O  O30  1  0.75957400  0.12840900  0.05862400  1
  O  O31  1  0.25957400  0.37159100  0.94137600  1
  O  O32  1  0.99700700  0.86049900  0.09787300  1
  O  O33  1  0.49700700  0.63950100  0.90212700  1
  O  O34  1  0.00299300  0.13950100  0.90212700  1
  O  O35  1  0.50299300  0.36049900  0.09787300  1
  O  O36  1  0.33545800  0.99527100  0.08147100  1
  O  O37  1  0.83545800  0.50472900  0.91852900  1
  O  O38  1  0.66454200  0.00472900  0.91852900  1
  O  O39  1  0.16454200  0.49527100  0.08147100  1
  O  O40  1  0.33372000  0.73478400  0.11253000  1
  O  O41  1  0.83372000  0.76521600  0.88747000  1
  O  O42  1  0.66628000  0.26521600  0.88747000  1
  O  O43  1  0.57464700  0.52000500  0.66976300  1
loop_
_geom_bond_atom_site_label_1
_geom_bond_atom_site_label_2
_geom_bond_distance
_geom_bond_site_symmetry_2
Ca0 O40 2.266194 1_555
Ca0 O12 2.320402 1_555
Ca0 O29 2.353997 1_555
Ca0 O35 2.387006 1_555
Ca0 O19 2.560940 1_555
Ca0 O7 2.591525 1_555
Ca0 O39 2.657018 1_555
Ca1 O0 2.300059 1_555
Ca1 O36 2.395522 1_545
Ca1 O35 2.438685 1_555
Ca1 O30 2.463646 1_555
Ca1 O4 2.493039 1_555
Ca1 O3 2.529853 1_545
Ca1 O14 2.531718 1_555
Ca2 O16 2.300059 1_555
Ca2 O39 2.395522 1_555
Ca2 O32 2.438685 1_455
Ca2 O29 2.463646 1_455
Ca2 O7 2.493039 1_455
Ca2 O19 2.529853 1_455
Ca2 O40 2.531718 1_555
Ca3 O17 2.300059 1_555
Ca3 O38 2.395522 1_565
Ca3 O33 2.438685 1_555
Ca3 O28 2.463646 1_555
Ca3 O6 2.493039 1_555
Ca3 O1 2.529853 1_565
Ca3 O41 2.531718 1_555
Ca4 O42 2.266194 1_555
Ca4 O43 2.320402 1_555
Ca4 O31 2.353997 1_555
Ca4 O33 2.387006 1_555
Ca4 O2 2.560940 1_555
Ca4 O5 2.591525 1_555
Ca4 O37 2.657018 1_555
Ca5 O14 2.266194 1_555
Ca5 O15 2.320402 1_545
Ca5 O30 2.353997 1_455
Ca5 O32 2.387006 1_445
Ca5 O3 2.560940 1_445
Ca5 O4 2.591525 1_455
Ca5 O36 2.657018 1_545
Ca6 O18 2.300059 1_555
Ca6 O37 2.395522 1_555
Ca6 O34 2.438685 1_655
Ca6 O31 2.463646 1_655
Ca6 O5 2.493039 1_655
Ca6 O2 2.529853 1_655
Ca6 O42 2.531718 1_555
Ca7 O41 2.266194 1_555
Ca7 O13 2.320402 1_565
Ca7 O28 2.353997 1_655
Ca7 O34 2.387006 1_665
Ca7 O1 2.560940 1_665
Ca7 O6 2.591525 1_655
Ca7 O38 2.657018 1_565
Ca8 O9 2.348919 1_555
Ca8 O22 2.362365 1_555
Ca8 O8 2.400904 1_555
Ca8 O23 2.435359 1_555
Ca8 O0 2.603965 1_555
Ca8 O24 2.615610 1_555
Ca8 O12 2.651685 1_555
Ca8 O27 2.666173 1_555
Ca9 O8 2.348919 1_655
Ca9 O23 2.362365 1_655
Ca9 O9 2.400904 1_555
Ca9 O22 2.435359 1_555
Ca9 O18 2.603965 1_555
Ca9 O27 2.615610 1_655
Ca9 O13 2.651685 1_555
Ca9 O24 2.666173 1_555
Ca10 O11 2.348919 1_555
Ca10 O20 2.362365 1_555
Ca10 O10 2.400904 1_555
Ca10 O21 2.435359 1_555
Ca10 O17 2.603965 1_555
Ca10 O26 2.615610 1_555
Ca10 O43 2.651685 1_555
Ca10 O25 2.666173 1_555
Ca11 O10 2.348919 1_455
Ca11 O21 2.362365 1_455
Ca11 O11 2.400904 1_555
Ca11 O20 2.435359 1_555
Ca11 O16 2.603965 1_555
Ca11 O25 2.615610 1_455
Ca11 O15 2.651685 1_555
Ca11 O26 2.666173 1_555
Ca12 O8 2.363028 1_555
Ca12 O20 2.402921 1_555
Ca12 O43 2.414245 1_555
Ca12 O18 2.415233 1_455
Ca12 O26 2.596702 1_555
Ca12 O5 2.630443 1_555
Ca12 O27 2.739801 1_555
Ca12 O2 2.780660 1_555
Ca13 O9 2.363028 1_555
Ca13 O21 2.402921 1_545
Ca13 O15 2.414245 1_645
Ca13 O0 2.415233 1_555
Ca13 O25 2.596702 1_545
Ca13 O4 2.630443 1_555
Ca13 O24 2.739801 1_555
Ca13 O3 2.780660 1_545
Ca14 O10 2.363028 1_555
Ca14 O22 2.402921 1_555
Ca14 O12 2.414245 1_555
Ca14 O16 2.415233 1_655
Ca14 O24 2.596702 1_555
Ca14 O7 2.630443 1_555
Ca14 O25 2.739801 1_555
Ca14 O19 2.780660 1_555
Ca15 O11 2.363028 1_555
Ca15 O23 2.402921 1_565
Ca15 O13 2.414245 1_465
Ca15 O17 2.415233 1_555
Ca15 O27 2.596702 1_565
Ca15 O6 2.630443 1_555
Ca15 O26 2.739801 1_555
Ca15 O1 2.780660 1_565
Ca16 O35 2.293593 1_555
Ca16 O37 2.431780 1_554
Ca16 O19 2.470860 1_555
Ca16 O4 2.534211 1_555
Ca16 O30 2.539839 1_555
Ca16 O14 2.597217 1_655
Ca16 O39 2.667885 1_655
Ca16 O29 2.894180 1_555
Ca17 O34 2.293593 1_555
Ca17 O36 2.431780 1_546
Ca17 O1 2.470860 1_555
Ca17 O5 2.534211 1_555
Ca17 O31 2.539839 1_555
Ca17 O42 2.597217 1_555
Ca17 O38 2.667885 1_555
Ca17 O28 2.894180 1_545
Ca18 O33 2.293593 1_555
Ca18 O39 2.431780 1_556
Ca18 O2 2.470860 1_555
Ca18 O6 2.534211 1_555
Ca18 O28 2.539839 1_555
Ca18 O41 2.597217 1_455
Ca18 O37 2.667885 1_455
Ca18 O31 2.894180 1_555
Ca19 O32 2.293593 1_555
Ca19 O38 2.431780 1_564
Ca19 O3 2.470860 1_555
Ca19 O7 2.534211 1_555
Ca19 O29 2.539839 1_555
Ca19 O40 2.597217 1_555
Ca19 O36 2.667885 1_555
Ca19 O30 2.894180 1_565
C0 O25 1.279756 1_555
C0 O7 1.306796 1_555
C0 O3 1.309840 1_555
C1 O24 1.279756 1_555
C1 O4 1.306796 1_555
C1 O19 1.309840 1_555
C2 O27 1.279756 1_555
C2 O5 1.306796 1_555
C2 O1 1.309840 1_555
C3 O26 1.279756 1_555
C3 O6 1.306796 1_555
C3 O2 1.309840 1_555
O0 Si1 1.649952 1_555
O8 Si2 1.652259 1_555
O9 Si3 1.652259 1_545
O10 Si0 1.652259 1_555
O11 Si1 1.652259 1_565
O12 Si2 1.649936 1_555
O13 Si3 1.649936 1_545
O14 Si4 1.635175 1_555
O15 Si1 1.649936 1_565
O16 Si2 1.649952 1_555
O17 Si3 1.649952 1_555
O18 Si0 1.649952 1_555
O20 Si2 1.653160 1_555
O21 Si3 1.653160 1_555
O22 Si0 1.653160 1_555
O23 Si1 1.653160 1_555
O28 Si7 1.652333 1_556
O29 Si6 1.652333 1_554
O30 Si5 1.652333 1_554
O31 Si4 1.652333 1_556
O32 Si7 1.643134 1_655
O33 Si6 1.643134 1_555
O34 Si5 1.643134 1_455
O35 Si4 1.643134 1_555
O36 Si7 1.656113 1_555
O37 Si6 1.656113 1_555
O38 Si5 1.656113 1_555
O39 Si4 1.656113 1_555
O40 Si7 1.635175 1_555
O41 Si6 1.635175 1_555
O42 Si5 1.635175 1_555
O43 Si0 1.649936 1_555
