# generated using pymatgen
data_Al2O3
_symmetry_space_group_name_H-M   'P 1'
_cell_length_a   5.59359691
_cell_length_b   6.13436451
_cell_length_c   18.73166163
_cell_angle_alpha   95.70593728
_cell_angle_beta   121.69885761
_cell_angle_gamma   120.02207045
_symmetry_Int_Tables_number   1
_chemical_formula_structural   Al2O3
_chemical_formula_sum   'Al16 O24'
_cell_volume   412.25896570
_cell_formula_units_Z   8
loop_
 _symmetry_equiv_pos_site_id
 _symmetry_equiv_pos_as_xyz
  1  'x, y, z'
loop_
 _atom_site_type_symbol
 _atom_site_label
 _atom_site_symmetry_multiplicity
 _atom_site_fract_x
 _atom_site_fract_y
 _atom_site_fract_z
 _atom_site_occupancy
  Al  Al0  1  0.01674000  0.02882400  0.90699800  1
  Al  Al1  1  0.25226200  0.48778700  0.73299100  1
  Al  Al2  1  0.99414000  0.05349400  0.57290600  1
  Al  Al3  1  0.48929400  0.01898700  0.87903700  1
  Al  Al4  1  0.91096000  0.94578900  0.71563700  1
  Al  Al5  1  0.52724800  0.05829800  0.73790800  1
  Al  Al6  1  0.65947100  0.48421700  0.55763000  1
  Al  Al7  1  0.00567300  0.95251200  0.18211700  1
  Al  Al8  1  0.61607000  0.53214800  0.38006500  1
  Al  Al9  1  0.39977200  0.95767300  0.55126800  1
  Al  Al10  1  0.11404300  0.98880400  0.34499600  1
  Al  Al11  1  0.79433700  0.08379600  0.39242000  1
  Al  Al12  1  0.46357200  0.36269300  0.15065300  1
  Al  Al13  1  0.34085500  0.79777600  0.15798100  1
  Al  Al14  1  0.54454000  0.59701300  0.94817700  1
  Al  Al15  1  0.64120600  0.10046600  0.06091000  1
  O  O0  1  0.15605700  0.79647900  0.74962000  1
  O  O1  1  0.89847100  0.24041600  0.73690700  1
  O  O2  1  0.44221600  0.84787700  0.94754100  1
  O  O3  1  0.62371400  0.79520300  0.74647100  1
  O  O4  1  0.07680600  0.78169800  0.41868600  1
  O  O5  1  0.35626000  0.21564100  0.89591600  1
  O  O6  1  0.25692200  0.29852300  0.43425600  1
  O  O7  1  0.62223300  0.78466100  0.58538000  1
  O  O8  1  0.31744700  0.22382700  0.72019600  1
  O  O9  1  0.63715500  0.69318900  0.87339300  1
  O  O10  1  0.68044200  0.84081300  0.43979400  1
  O  O11  1  0.86753200  0.70082300  0.06945400  1
  O  O12  1  0.86888700  0.23287400  0.88595200  1
  O  O13  1  0.40459500  0.26085200  0.58748800  1
  O  O14  1  0.09961200  0.38174200  0.10897600  1
  O  O15  1  0.62016900  0.85093200  0.28038300  1
  O  O16  1  0.62914500  0.24708600  0.40667700  1
  O  O17  1  0.10832300  0.79777900  0.59136000  1
  O  O18  1  0.54886800  0.85868300  0.10510400  1
  O  O19  1  0.86881500  0.28088200  0.59228900  1
  O  O20  1  0.44598200  0.15051500  0.20726200  1
  O  O21  1  0.34720000  0.17443800  0.03967200  1
  O  O22  1  0.91625900  0.70813600  0.23001200  1
  O  O23  1  0.16204800  0.24438300  0.27399100  1
loop_
_geom_bond_atom_site_label_1
_geom_bond_atom_site_label_2
_geom_bond_distance
_geom_bond_site_symmetry_2
Al0 O9 1.762595 1_445
Al0 O12 1.788176 1_455
Al0 O5 1.801909 1_555
Al0 O21 1.862690 1_556
Al0 O3 2.229780 1_445
Al1 O3 1.835807 1_555
Al1 O1 1.842296 1_455
Al1 O8 1.848715 1_555
Al1 O9 1.953357 1_555
Al1 O19 1.956428 1_455
Al1 O0 2.247446 1_555
Al2 O13 1.820261 1_655
Al2 O10 1.860808 1_545
Al2 O19 1.927227 1_555
Al2 O17 1.966326 1_645
Al2 O7 2.063087 1_545
Al2 O8 2.065590 1_655
Al3 O12 1.770896 1_555
Al3 O2 1.778776 1_545
Al3 O5 1.782885 1_555
Al3 O0 1.806000 1_545
Al4 O7 1.822208 1_555
Al4 O3 1.834295 1_555
Al4 O1 1.855408 1_565
Al4 O0 1.891833 1_655
Al4 O8 1.993114 1_665
Al5 O1 1.812159 1_555
Al5 O8 1.835371 1_555
Al5 O3 1.937417 1_545
Al5 O0 2.037271 1_545
Al5 O17 2.049586 1_545
Al5 O12 2.069133 1_555
Al6 O6 1.774751 1_555
Al6 O13 1.805099 1_555
Al6 O17 1.913474 1_655
Al6 O7 2.004442 1_555
Al6 O19 2.042598 1_555
Al7 O23 1.780638 1_565
Al7 O22 1.814117 1_455
Al7 O18 1.852236 1_455
Al7 O20 1.853839 1_565
Al7 O11 1.969538 1_455
Al8 O23 1.739899 1_555
Al8 O4 1.838810 1_655
Al8 O10 1.854663 1_555
Al8 O16 1.890686 1_555
Al9 O4 1.843129 1_555
Al9 O13 1.897257 1_565
Al9 O7 1.924554 1_555
Al9 O19 1.943725 1_565
Al9 O17 2.004187 1_555
Al10 O6 1.867779 1_565
Al10 O22 1.918259 1_455
Al10 O16 1.927790 1_565
Al10 O15 1.938161 1_455
Al10 O4 1.987170 1_555
Al10 O23 2.160522 1_565
Al11 O16 1.749518 1_555
Al11 O15 1.804608 1_545
Al11 O6 1.815931 1_655
Al11 O10 1.822628 1_545
Al12 O20 1.756168 1_555
Al12 O22 1.777783 1_555
Al12 O14 1.831317 1_555
Al12 O21 1.851297 1_555
Al13 O18 1.823227 1_555
Al13 O15 1.838807 1_555
Al13 O20 1.907663 1_565
Al13 O11 1.930683 1_455
Al13 O14 1.990741 1_555
Al14 O11 1.754474 1_556
Al14 O9 1.788830 1_555
Al14 O5 1.880494 1_555
Al14 O2 1.890447 1_555
Al15 O18 1.754656 1_545
Al15 O21 1.778712 1_555
Al15 O14 1.788938 1_655
Al15 O2 1.812532 1_544
