# generated using pymatgen
data_Ga2Fe2S5
_symmetry_space_group_name_H-M   'P 1'
_cell_length_a   15.25333263
_cell_length_b   15.25333263
_cell_length_c   15.25333242
_cell_angle_alpha   13.64251679
_cell_angle_beta   13.64251679
_cell_angle_gamma   13.64251977
_symmetry_Int_Tables_number   1
_chemical_formula_structural   Ga2Fe2S5
_chemical_formula_sum   'Ga2 Fe2 S5'
_cell_volume   171.78789369
_cell_formula_units_Z   1
loop_
 _symmetry_equiv_pos_site_id
 _symmetry_equiv_pos_as_xyz
  1  'x, y, z'
loop_
 _atom_site_type_symbol
 _atom_site_label
 _atom_site_symmetry_multiplicity
 _atom_site_fract_x
 _atom_site_fract_y
 _atom_site_fract_z
 _atom_site_occupancy
  Ga  Ga0  1  0.72401800  0.72401800  0.72401800  1
  Ga  Ga1  1  0.27598200  0.27598200  0.27598200  1
  Fe  Fe0  1  0.13533900  0.13533900  0.13533900  1
  Fe  Fe1  1  0.86466100  0.86466100  0.86466100  1
  S  S0  1  0.63250100  0.63250100  0.63250100  1
  S  S1  1  0.22669300  0.22669300  0.22669300  1
  S  S2  1  0.36749900  0.36749900  0.36749900  1
  S  S3  1  0.77330700  0.77330700  0.77330700  1
  S  S4  1  0.50000000  0.50000000  0.50000000  1
loop_
_geom_bond_atom_site_label_1
_geom_bond_atom_site_label_2
_geom_bond_distance
_geom_bond_site_symmetry_2
Ga0 S3 2.234152 1_555
Ga0 S2 2.341093 1_556
Ga0 S2 2.341093 1_655
Ga0 S2 2.341093 1_565
Ga1 S1 2.234152 1_555
Ga1 S0 2.341093 1_554
Ga1 S0 2.341093 1_455
Ga1 S0 2.341093 1_545
Fe0 S3 2.463414 1_445
Fe0 S3 2.463414 1_454
Fe0 S3 2.463414 1_544
Fe0 S4 2.528367 1_554
Fe0 S4 2.528368 1_545
Fe0 S4 2.528368 1_455
Fe1 S1 2.463414 1_665
Fe1 S1 2.463414 1_566
Fe1 S1 2.463414 1_656
Fe1 S4 2.528367 1_556
Fe1 S4 2.528368 1_565
Fe1 S4 2.528368 1_655
