# generated using pymatgen
data_Li3ScCl6
_symmetry_space_group_name_H-M   'P 1'
_cell_length_a   6.31511036
_cell_length_b   6.31511036
_cell_length_c   23.93792923
_cell_angle_alpha   87.41570633
_cell_angle_beta   87.41570633
_cell_angle_gamma   119.83164062
_symmetry_Int_Tables_number   1
_chemical_formula_structural   Li3ScCl6
_chemical_formula_sum   'Li12 Sc4 Cl24'
_cell_volume   824.80126587
_cell_formula_units_Z   4
loop_
 _symmetry_equiv_pos_site_id
 _symmetry_equiv_pos_as_xyz
  1  'x, y, z'
loop_
 _atom_site_type_symbol
 _atom_site_label
 _atom_site_symmetry_multiplicity
 _atom_site_fract_x
 _atom_site_fract_y
 _atom_site_fract_z
 _atom_site_occupancy
  Li  Li0  1  0.08169266  0.16908936  0.62501371  1
  Li  Li1  1  0.83091064  0.91830734  0.37498629  1
  Li  Li2  1  0.58194875  0.66164291  0.12496590  1
  Li  Li3  1  0.41964942  0.83085961  0.62493518  1
  Li  Li4  1  0.33835709  0.41805125  0.87503410  1
  Li  Li5  1  0.70865974  0.79068284  0.74997589  1
  Li  Li6  1  0.16914039  0.58035058  0.37506482  1
  Li  Li7  1  0.62472142  0.37527858  0.00000000  1
  Li  Li8  1  0.45918860  0.54081140  0.50000000  1
  Li  Li9  1  0.91691036  0.33713177  0.12525085  1
  Li  Li10  1  0.20931716  0.29134026  0.25002411  1
  Li  Li11  1  0.66286823  0.08308964  0.87474915  1
  Sc  Sc0  1  0.75160863  0.49860065  0.62498010  1
  Sc  Sc1  1  0.50139935  0.24839137  0.37501990  1
  Sc  Sc2  1  0.24821549  0.99662718  0.12494264  1
  Sc  Sc3  1  0.00337282  0.75178451  0.87505736  1
  Cl  Cl0  1  0.41655946  0.49176431  0.68587152  1
  Cl  Cl1  1  0.69662108  0.45668097  0.81470306  1
  Cl  Cl2  1  0.16697264  0.24188292  0.43604121  1
  Cl  Cl3  1  0.00557084  0.08715571  0.81582015  1
  Cl  Cl4  1  0.43925652  0.20165955  0.56646473  1
  Cl  Cl5  1  0.91284429  0.99442916  0.18417985  1
  Cl  Cl6  1  0.75811708  0.83302736  0.56395879  1
  Cl  Cl7  1  0.72882067  0.14617662  0.68260058  1
  Cl  Cl8  1  0.18819885  0.95149685  0.31662622  1
  Cl  Cl9  1  0.04850315  0.81180115  0.68337378  1
  Cl  Cl10  1  0.65573407  0.71896669  0.93590167  1
  Cl  Cl11  1  0.50823569  0.58344054  0.31412848  1
  Cl  Cl12  1  0.47865406  0.89623294  0.43262447  1
  Cl  Cl13  1  0.35194477  0.76720797  0.81741371  1
  Cl  Cl14  1  0.93486220  0.68674653  0.06786742  1
  Cl  Cl15  1  0.79834045  0.56074348  0.43353527  1
  Cl  Cl16  1  0.28103331  0.34426593  0.06409833  1
  Cl  Cl17  1  0.23279203  0.64805523  0.18258629  1
  Cl  Cl18  1  0.10376706  0.52134594  0.56737553  1
  Cl  Cl19  1  0.54331903  0.30337892  0.18529694  1
  Cl  Cl20  1  0.96754593  0.39972977  0.93417065  1
  Cl  Cl21  1  0.85382338  0.27117933  0.31739942  1
  Cl  Cl22  1  0.31325347  0.06513780  0.93213258  1
  Cl  Cl23  1  0.60027023  0.03245407  0.06582935  1
loop_
_geom_bond_atom_site_label_1
_geom_bond_atom_site_label_2
_geom_bond_distance
_geom_bond_site_symmetry_2
Cl0 Sc0 2.495745 1_555
Cl0 Li5 2.524478 1_555
Cl0 Li3 2.527455 1_555
Cl0 Li0 2.646680 1_555
Cl1 Sc3 2.493280 1_655
Cl1 Li4 2.527544 1_555
Cl1 Li5 2.527967 1_555
Cl1 Li11 2.616082 1_555
Cl2 Sc1 2.495141 1_555
Cl2 Li8 2.522437 1_555
Cl2 Li6 2.527298 1_555
Cl2 Li1 2.655198 1_445
Cl3 Sc3 2.488903 1_545
Cl3 Li11 2.518031 1_455
Cl3 Li5 2.558394 1_445
Cl3 Li4 2.637991 1_555
Cl4 Sc0 2.485024 1_555
Cl4 Li0 2.516340 1_555
Cl4 Li8 2.557512 1_555
Cl4 Li3 2.618782 1_545
Cl5 Sc2 2.488903 1_655
Cl5 Li9 2.518031 1_565
Cl5 Li10 2.558394 1_665
Cl5 Li2 2.637991 1_555
Cl6 Sc0 2.495141 1_555
Cl6 Li8 2.522437 1_555
Cl6 Li3 2.527298 1_555
Cl6 Li0 2.655198 1_665
Cl7 Sc0 2.502623 1_555
Cl7 Li0 2.504256 1_655
Cl7 Li3 2.511085 1_545
Cl7 Li5 2.651030 1_545
Cl8 Sc1 2.485451 1_565
Cl8 Li1 2.511053 1_455
Cl8 Li10 2.559901 1_565
Cl8 Li6 2.621722 1_555
Cl9 Sc0 2.485451 1_455
Cl9 Li0 2.511053 1_565
Cl9 Li5 2.559901 1_455
Cl9 Li3 2.621722 1_555
Cl10 Sc3 2.493140 1_655
Cl10 Li7 2.520539 1_556
Cl10 Li4 2.544595 1_555
Cl10 Li11 2.649519 1_565
Cl11 Sc1 2.495745 1_555
Cl11 Li10 2.524478 1_555
Cl11 Li6 2.527455 1_555
Cl11 Li1 2.646680 1_555
Cl12 Sc1 2.501137 1_565
Cl12 Li1 2.503804 1_555
Cl12 Li6 2.511937 1_555
Cl12 Li8 2.652432 1_555
Cl13 Sc3 2.501953 1_555
Cl13 Li4 2.509692 1_555
Cl13 Li11 2.512262 1_565
Cl13 Li5 2.649692 1_555
Cl14 Li2 2.492913 1_555
Cl14 Li9 2.497560 1_555
Cl14 Sc2 2.498858 1_655
Cl14 Li7 2.662061 1_555
Cl15 Sc1 2.485024 1_555
Cl15 Li1 2.516340 1_555
Cl15 Li8 2.557512 1_555
Cl15 Li6 2.618782 1_655
Cl16 Sc2 2.493140 1_545
Cl16 Li7 2.520539 1_555
Cl16 Li2 2.544595 1_555
Cl16 Li9 2.649519 1_455
Cl17 Sc2 2.501953 1_555
Cl17 Li2 2.509692 1_555
Cl17 Li9 2.512262 1_455
Cl17 Li10 2.649692 1_555
Cl18 Sc0 2.501137 1_455
Cl18 Li0 2.503804 1_555
Cl18 Li3 2.511937 1_555
Cl18 Li8 2.652432 1_555
Cl19 Sc2 2.493280 1_545
Cl19 Li2 2.527544 1_555
Cl19 Li10 2.527967 1_555
Cl19 Li9 2.616082 1_555
Cl20 Sc3 2.486651 1_655
Cl20 Li11 2.529687 1_555
Cl20 Li7 2.555772 1_556
Cl20 Li4 2.630149 1_655
Cl21 Sc1 2.502623 1_555
Cl21 Li1 2.504256 1_545
Cl21 Li6 2.511085 1_655
Cl21 Li10 2.651030 1_655
Cl22 Li4 2.492913 1_555
Cl22 Li11 2.497560 1_555
Cl22 Sc3 2.498858 1_545
Cl22 Li7 2.662061 1_556
Cl23 Sc2 2.486651 1_545
Cl23 Li9 2.529687 1_555
Cl23 Li7 2.555772 1_555
Cl23 Li2 2.630149 1_545
