# generated using pymatgen
data_Cr2AsSe
_symmetry_space_group_name_H-M   'P 1'
_cell_length_a   3.87526977
_cell_length_b   3.87526977
_cell_length_c   4.85482200
_cell_angle_alpha   90.00000000
_cell_angle_beta   90.00000000
_cell_angle_gamma   119.99999606
_symmetry_Int_Tables_number   1
_chemical_formula_structural   Cr2AsSe
_chemical_formula_sum   'Cr2 As1 Se1'
_cell_volume   63.14047448
_cell_formula_units_Z   1
loop_
 _symmetry_equiv_pos_site_id
 _symmetry_equiv_pos_as_xyz
  1  'x, y, z'
loop_
 _atom_site_type_symbol
 _atom_site_label
 _atom_site_symmetry_multiplicity
 _atom_site_fract_x
 _atom_site_fract_y
 _atom_site_fract_z
 _atom_site_occupancy
  Cr  Cr0  1  0.00000000  0.00000000  0.72863200  1
  Cr  Cr1  1  0.00000000  0.00000000  0.27136800  1
  As  As0  1  0.66666700  0.33333300  0.50000000  1
  Se  Se0  1  0.33333300  0.66666700  0.00000000  1
loop_
_geom_bond_atom_site_label_1
_geom_bond_atom_site_label_2
_geom_bond_distance
_geom_bond_site_symmetry_2
Cr0 Cr1 2.219935 1_555
Cr0 Se0 2.596450 1_546
Cr0 Se0 2.596453 1_446
Cr0 Se0 2.596453 1_556
Cr0 Cr1 2.634887 1_556
Cr1 Se0 2.596450 1_545
Cr1 Se0 2.596453 1_555
Cr1 Se0 2.596453 1_445
As0 Cr0 2.497583 1_655
As0 Cr1 2.497583 1_655
As0 Cr1 2.497587 1_555
As0 Cr0 2.497587 1_665
As0 Cr1 2.497587 1_665
As0 Cr0 2.497587 1_555
