# generated using pymatgen
data_Na2UI6
_symmetry_space_group_name_H-M   'P 1'
_cell_length_a   7.96052300
_cell_length_b   8.76058857
_cell_length_c   19.81063131
_cell_angle_alpha   94.58088303
_cell_angle_beta   89.92374494
_cell_angle_gamma   116.96470661
_symmetry_Int_Tables_number   1
_chemical_formula_structural   Na2UI6
_chemical_formula_sum   'Na6 U3 I18'
_cell_volume   1226.49483055
_cell_formula_units_Z   3
loop_
 _symmetry_equiv_pos_site_id
 _symmetry_equiv_pos_as_xyz
  1  'x, y, z'
loop_
 _atom_site_type_symbol
 _atom_site_label
 _atom_site_symmetry_multiplicity
 _atom_site_fract_x
 _atom_site_fract_y
 _atom_site_fract_z
 _atom_site_occupancy
  Na  Na0  1  0.66681900  0.32959600  0.83593300  1
  Na  Na1  1  0.75648200  0.50984000  0.56065200  1
  Na  Na2  1  0.91590600  0.82920600  0.77282700  1
  Na  Na3  1  0.08756200  0.17514200  0.22703700  1
  Na  Na4  1  0.24545800  0.49081000  0.43891300  1
  Na  Na5  1  0.57565000  0.15471900  0.10401700  1
  U  U0  1  0.00268400  0.99734100  0.99968600  1
  U  U1  1  0.32817700  0.66730600  0.66740200  1
  U  U2  1  0.66667100  0.33318800  0.33324800  1
  I  I0  1  0.63521400  0.98846900  0.74609100  1
  I  I1  1  0.79747200  0.20660000  0.96727300  1
  I  I2  1  0.22757400  0.11712200  0.87251100  1
  I  I3  1  0.10528400  0.55798400  0.79457900  1
  I  I4  1  0.54557300  0.46092000  0.70118800  1
  I  I5  1  0.96358500  0.65179100  0.41396300  1
  I  I6  1  0.70246800  0.68412300  0.91719600  1
  I  I7  1  0.12163600  0.87320400  0.63214000  1
  I  I8  1  0.56110400  0.77582200  0.54071200  1
  I  I9  1  0.43868900  0.22144300  0.45933000  1
  I  I10  1  0.87458100  0.12965700  0.36740600  1
  I  I11  1  0.29723500  0.31869800  0.08099600  1
  I  I12  1  0.03419500  0.34590800  0.58492600  1
  I  I13  1  0.45904100  0.53710400  0.29938600  1
  I  I14  1  0.89445000  0.44542800  0.20756300  1
  I  I15  1  0.77074300  0.88972900  0.12606800  1
  I  I16  1  0.20926100  0.80075900  0.03247400  1
  I  I17  1  0.36982000  0.01476000  0.25314800  1
loop_
_geom_bond_atom_site_label_1
_geom_bond_atom_site_label_2
_geom_bond_distance
_geom_bond_site_symmetry_2
I0 U1 3.064855 1_555
I0 Na2 3.188809 1_555
I0 Na0 3.260639 1_565
I1 U0 3.057517 1_645
I1 Na5 3.181099 1_556
I1 Na0 3.237928 1_555
I2 U0 3.059443 1_545
I2 Na2 3.155889 1_445
I2 Na0 3.243827 1_555
I3 U1 3.040662 1_555
I3 Na0 3.283023 1_455
I3 Na2 3.393794 1_455
I4 U1 3.121865 1_555
I4 Na1 3.206148 1_555
I4 Na0 3.299273 1_555
I4 Na2 3.430546 1_555
I5 U2 3.041094 1_555
I5 Na4 3.201910 1_655
I5 Na1 3.378543 1_555
I6 U0 3.042771 1_655
I6 Na0 3.274422 1_555
I6 Na2 3.360273 1_555
I7 U1 3.055955 1_555
I7 Na2 3.191486 1_455
I7 Na1 3.389368 1_455
I8 U1 3.067763 1_555
I8 Na4 3.183492 1_555
I8 Na1 3.382306 1_555
I9 U2 3.042723 1_555
I9 Na1 3.196764 1_555
I9 Na4 3.397714 1_555
I10 U2 3.041125 1_555
I10 Na3 3.212150 1_655
I10 Na4 3.399644 1_655
I11 U0 3.052479 1_544
I11 Na5 3.190381 1_555
I11 Na3 3.376780 1_555
I12 U1 3.061670 1_555
I12 Na1 3.189602 1_455
I12 Na4 3.382967 1_555
I13 U2 3.040612 1_555
I13 Na4 3.199505 1_555
I13 Na3 3.411110 1_555
I14 U2 3.035858 1_555
I14 Na5 3.233022 1_555
I14 Na3 3.401091 1_655
I15 U0 3.058195 1_654
I15 Na3 3.179518 1_665
I15 Na5 3.380148 1_565
I16 U0 2.973536 1_554
I16 Na5 3.352329 1_565
I17 U2 3.034602 1_555
I17 Na3 3.205090 1_555
I17 Na5 3.414711 1_555
