# generated using pymatgen
data_GePbS3
_symmetry_space_group_name_H-M   'P 1'
_cell_length_a   10.51691811
_cell_length_b   6.89925919
_cell_length_c   7.39860634
_cell_angle_alpha   74.60755248
_cell_angle_beta   90.00000000
_cell_angle_gamma   90.00000000
_symmetry_Int_Tables_number   1
_chemical_formula_structural   GePbS3
_chemical_formula_sum   'Ge4 Pb4 S12'
_cell_volume   517.57900372
_cell_formula_units_Z   4
loop_
 _symmetry_equiv_pos_site_id
 _symmetry_equiv_pos_as_xyz
  1  'x, y, z'
loop_
 _atom_site_type_symbol
 _atom_site_label
 _atom_site_symmetry_multiplicity
 _atom_site_fract_x
 _atom_site_fract_y
 _atom_site_fract_z
 _atom_site_occupancy
  Ge  Ge0  1  0.79156373  0.50842380  0.81550516  1
  Ge  Ge1  1  0.29156373  0.99157620  0.18449484  1
  Ge  Ge2  1  0.20843627  0.49157620  0.18449484  1
  Ge  Ge3  1  0.70843627  0.00842380  0.81550516  1
  Pb  Pb0  1  0.08078094  0.22119861  0.63169166  1
  Pb  Pb1  1  0.58078094  0.27880139  0.36830834  1
  Pb  Pb2  1  0.91921906  0.77880139  0.36830834  1
  Pb  Pb3  1  0.41921906  0.72119861  0.63169166  1
  S  S0  1  0.98933478  0.58173959  0.72896800  1
  S  S1  1  0.48933478  0.91826041  0.27103200  1
  S  S2  1  0.01066522  0.41826041  0.27103200  1
  S  S3  1  0.51066522  0.08173959  0.72896800  1
  S  S4  1  0.67597503  0.58704493  0.55996911  1
  S  S5  1  0.17597503  0.91295507  0.44003089  1
  S  S6  1  0.32402497  0.41295507  0.44003089  1
  S  S7  1  0.82402497  0.08704493  0.55996911  1
  S  S8  1  0.77767331  0.19291922  0.00721821  1
  S  S9  1  0.27767331  0.30708078  0.99278179  1
  S  S10  1  0.22232669  0.80708078  0.99278179  1
  S  S11  1  0.72232669  0.69291922  0.00721821  1
loop_
_geom_bond_atom_site_label_1
_geom_bond_atom_site_label_2
_geom_bond_distance
_geom_bond_site_symmetry_2
Ge0 S4 2.191348 1_555
Ge0 S0 2.195455 1_555
Ge0 S11 2.262913 1_556
Ge0 S8 2.265485 1_556
Ge1 S5 2.191348 1_555
Ge1 S1 2.195455 1_555
Ge1 S10 2.262913 1_554
Ge1 S9 2.265485 1_564
Ge2 S6 2.191348 1_555
Ge2 S2 2.195455 1_555
Ge2 S9 2.262913 1_554
Ge2 S10 2.265485 1_554
Ge3 S7 2.191348 1_555
Ge3 S3 2.195455 1_555
Ge3 S8 2.262913 1_556
Ge3 S11 2.265485 1_546
Pb0 S2 2.754374 1_555
Pb0 S0 2.929294 1_455
Pb0 S7 2.947965 1_455
Pb0 S5 3.022683 1_545
Pb0 S6 3.051136 1_555
Pb1 S3 2.754374 1_555
Pb1 S1 2.929294 1_545
Pb1 S6 2.947965 1_555
Pb1 S4 3.022683 1_555
Pb1 S7 3.051136 1_555
Pb2 S0 2.754374 1_555
Pb2 S2 2.929294 1_655
Pb2 S5 2.947965 1_655
Pb2 S7 3.022683 1_565
Pb2 S4 3.051136 1_555
Pb3 S1 2.754374 1_555
Pb3 S3 2.929294 1_565
Pb3 S4 2.947965 1_555
Pb3 S6 3.022683 1_555
Pb3 S5 3.051136 1_555
