# generated using pymatgen
data_RbPPbS4
_symmetry_space_group_name_H-M   'P 1'
_cell_length_a   6.55783200
_cell_length_b   6.83364600
_cell_length_c   17.65035800
_cell_angle_alpha   90.00000000
_cell_angle_beta   90.00000000
_cell_angle_gamma   90.00000000
_symmetry_Int_Tables_number   1
_chemical_formula_structural   RbPPbS4
_chemical_formula_sum   'Rb4 P4 Pb4 S16'
_cell_volume   790.98142101
_cell_formula_units_Z   4
loop_
 _symmetry_equiv_pos_site_id
 _symmetry_equiv_pos_as_xyz
  1  'x, y, z'
loop_
 _atom_site_type_symbol
 _atom_site_label
 _atom_site_symmetry_multiplicity
 _atom_site_fract_x
 _atom_site_fract_y
 _atom_site_fract_z
 _atom_site_occupancy
  Rb  Rb0  1  0.01887000  0.00294400  0.04344400  1
  Rb  Rb1  1  0.51887000  0.49705600  0.95655600  1
  Rb  Rb2  1  0.98113000  0.50294400  0.45655600  1
  Rb  Rb3  1  0.48113000  0.99705600  0.54344400  1
  P  P0  1  0.21874800  0.01134400  0.34698000  1
  P  P1  1  0.28125200  0.98865600  0.84698000  1
  P  P2  1  0.71874800  0.48865600  0.65302000  1
  P  P3  1  0.78125200  0.51134400  0.15302000  1
  Pb  Pb0  1  0.28599400  0.47149500  0.23061500  1
  Pb  Pb1  1  0.78599400  0.02850500  0.76938500  1
  Pb  Pb2  1  0.71400600  0.97149500  0.26938500  1
  Pb  Pb3  1  0.21400600  0.52850500  0.73061500  1
  S  S0  1  0.34889600  0.96438200  0.73271900  1
  S  S1  1  0.15110400  0.03561800  0.23271900  1
  S  S2  1  0.39727300  0.24807100  0.37410300  1
  S  S3  1  0.89727300  0.25192900  0.62589700  1
  S  S4  1  0.88768400  0.73734000  0.63347300  1
  S  S5  1  0.95634800  0.00380700  0.41012800  1
  S  S6  1  0.04365200  0.50380700  0.08987200  1
  S  S7  1  0.11231600  0.23734000  0.86652700  1
  S  S8  1  0.65110400  0.46438200  0.76728100  1
  S  S9  1  0.10272700  0.75192900  0.87410300  1
  S  S10  1  0.60272700  0.74807100  0.12589700  1
  S  S11  1  0.84889600  0.53561800  0.26728100  1
  S  S12  1  0.38768400  0.76266000  0.36652700  1
  S  S13  1  0.45634800  0.49619300  0.58987200  1
  S  S14  1  0.54365200  0.99619300  0.91012800  1
  S  S15  1  0.61231600  0.26266000  0.13347300  1
loop_
_geom_bond_atom_site_label_1
_geom_bond_atom_site_label_2
_geom_bond_distance
_geom_bond_site_symmetry_2
Rb0 S1 3.458698 1_555
Rb0 S9 3.489775 1_544
Rb0 S6 3.511746 1_545
Rb0 S6 3.523203 1_555
Rb0 S10 3.549500 1_445
Rb0 S7 3.562605 1_554
Rb0 S15 3.575354 1_455
Rb0 S14 3.905258 1_444
Rb1 S8 3.458698 1_555
Rb1 S10 3.489775 1_556
Rb1 S14 3.511746 1_555
Rb1 S14 3.523203 1_545
Rb1 S9 3.549500 1_555
Rb1 S15 3.562605 1_556
Rb1 S7 3.575354 1_555
Rb1 S6 3.905258 1_556
Rb2 S11 3.458698 1_555
Rb2 S3 3.489775 1_555
Rb2 S5 3.511746 1_555
Rb2 S5 3.523203 1_565
Rb2 S2 3.549500 1_655
Rb2 S4 3.562605 1_555
Rb2 S12 3.575354 1_655
Rb2 S13 3.905258 1_655
Rb3 S0 3.458698 1_555
Rb3 S2 3.489775 1_565
Rb3 S13 3.511746 1_565
Rb3 S13 3.523203 1_555
Rb3 S3 3.549500 1_565
Rb3 S12 3.562605 1_555
Rb3 S4 3.575354 1_555
Rb3 S5 3.905258 1_565
P0 S5 2.050858 1_455
P0 S2 2.053482 1_555
P0 S12 2.057765 1_545
P0 S1 2.071610 1_555
P1 S14 2.050858 1_555
P1 S9 2.053482 1_555
P1 S7 2.057765 1_565
P1 S0 2.071610 1_555
P2 S13 2.050858 1_555
P2 S3 2.053482 1_555
P2 S4 2.057765 1_555
P2 S8 2.071610 1_555
P3 S6 2.050858 1_655
P3 S10 2.053482 1_555
P3 S15 2.057765 1_555
P3 S11 2.071610 1_555
Pb0 S6 2.957280 1_555
Pb0 S11 2.971057 1_455
Pb0 S2 3.045946 1_555
Pb0 S15 3.091262 1_555
Pb0 S1 3.107427 1_555
Pb0 S12 3.187223 1_555
Pb1 S14 2.957280 1_545
Pb1 S0 2.971057 1_545
Pb1 S3 3.045946 1_555
Pb1 S7 3.091262 1_655
Pb1 S8 3.107427 1_555
Pb1 S4 3.187223 1_545
Pb2 S5 2.957280 1_565
Pb2 S1 2.971057 1_665
Pb2 S10 3.045946 1_555
Pb2 S12 3.091262 1_555
Pb2 S11 3.107427 1_555
Pb2 S15 3.187223 1_565
Pb3 S13 2.957280 1_555
Pb3 S8 2.971057 1_555
Pb3 S9 3.045946 1_555
Pb3 S4 3.091262 1_455
Pb3 S0 3.107427 1_555
Pb3 S7 3.187223 1_555
