# generated using pymatgen
data_Cr21(WC3)2
_symmetry_space_group_name_H-M   'P 1'
_cell_length_a   7.48602488
_cell_length_b   7.48596866
_cell_length_c   7.48598519
_cell_angle_alpha   59.99875090
_cell_angle_beta   59.99902684
_cell_angle_gamma   59.99890216
_symmetry_Int_Tables_number   1
_chemical_formula_structural   Cr21(WC3)2
_chemical_formula_sum   'Cr21 W2 C6'
_cell_volume   296.63496346
_cell_formula_units_Z   1
loop_
 _symmetry_equiv_pos_site_id
 _symmetry_equiv_pos_as_xyz
  1  'x, y, z'
loop_
 _atom_site_type_symbol
 _atom_site_label
 _atom_site_symmetry_multiplicity
 _atom_site_fract_x
 _atom_site_fract_y
 _atom_site_fract_z
 _atom_site_occupancy
  Cr  Cr0  1  0.00000528  0.00001316  0.00000382  1
  Cr  Cr1  1  0.61541278  0.61539849  0.15377910  1
  Cr  Cr2  1  0.61540966  0.15377480  0.61540993  1
  Cr  Cr3  1  0.15377681  0.61538876  0.61540014  1
  Cr  Cr4  1  0.61543830  0.61538423  0.61540554  1
  Cr  Cr5  1  0.38460053  0.38456097  0.84623620  1
  Cr  Cr6  1  0.38459563  0.84624750  0.38456716  1
  Cr  Cr7  1  0.84623814  0.38458166  0.38458774  1
  Cr  Cr8  1  0.38459569  0.38457737  0.38458255  1
  Cr  Cr9  1  0.00001273  0.00000280  0.33946027  1
  Cr  Cr10  1  0.66051587  -0.00000333  0.33947764  1
  Cr  Cr11  1  -0.00000661  0.66052002  0.33948656  1
  Cr  Cr12  1  0.66052653  0.33948444  -0.00001313  1
  Cr  Cr13  1  0.00000155  0.33946452  0.00000212  1
  Cr  Cr14  1  -0.00000708  0.33948302  0.66051802  1
  Cr  Cr15  1  0.33947945  0.66053678  0.00000396  1
  Cr  Cr16  1  0.33947060  0.00001040  0.66052962  1
  Cr  Cr17  1  0.33946869  -0.00000628  0.00000520  1
  Cr  Cr18  1  -0.00000188  0.00002130  0.66052134  1
  Cr  Cr19  1  -0.00001333  0.66052699  0.00002205  1
  Cr  Cr20  1  0.66050658  0.00000663  0.00000908  1
  W  W0  1  0.74998992  0.74998461  0.75001151  1
  W  W1  1  0.24997539  0.25001861  0.25000582  1
  C  C0  1  0.72482727  0.72483390  0.27517591  1
  C  C1  1  0.27516788  0.72483859  0.27516409  1
  C  C2  1  0.72484054  0.27516617  0.27515580  1
  C  C3  1  0.27516476  0.27516355  0.72483282  1
  C  C4  1  0.72483335  0.27517816  0.72482981  1
  C  C5  1  0.27517499  0.72484118  0.72482936  1
loop_
_geom_bond_atom_site_label_1
_geom_bond_atom_site_label_2
_geom_bond_distance
_geom_bond_site_symmetry_2
Cr0 Cr13 2.541102 1_555
Cr0 Cr9 2.541155 1_555
Cr0 Cr17 2.541164 1_555
Cr0 Cr16 2.541235 1_554
Cr0 Cr12 2.541267 1_455
Cr0 Cr15 2.541269 1_545
Cr0 Cr14 2.541275 1_554
Cr0 Cr10 2.541324 1_455
Cr0 Cr11 2.541351 1_545
Cr0 Cr18 2.541357 1_554
Cr0 Cr19 2.541384 1_545
Cr0 Cr20 2.541500 1_455
Cr1 W0 2.467906 1_554
Cr2 W0 2.468036 1_545
Cr3 W0 2.468041 1_455
Cr4 W0 2.467905 1_555
Cr5 W1 2.467919 1_556
Cr6 W1 2.467919 1_565
Cr7 W1 2.467738 1_655
Cr8 W1 2.467892 1_555
C0 Cr4 2.080194 1_555
C0 Cr6 2.080223 1_555
C0 Cr7 2.080326 1_555
C0 Cr1 2.080347 1_555
C0 Cr19 2.115295 1_655
C0 Cr10 2.115328 1_565
C0 Cr20 2.115399 1_565
C0 Cr11 2.115399 1_655
C1 Cr3 2.080232 1_555
C1 Cr1 2.080299 1_555
C1 Cr6 2.080306 1_555
C1 Cr8 2.080382 1_555
C1 Cr17 2.115275 1_565
C1 Cr9 2.115306 1_565
C1 Cr15 2.115313 1_555
C1 Cr11 2.115473 1_555
C2 Cr1 2.080200 1_555
C2 Cr8 2.080304 1_555
C2 Cr7 2.080337 1_555
C2 Cr2 2.080341 1_555
C2 Cr13 2.115297 1_655
C2 Cr9 2.115379 1_655
C2 Cr12 2.115413 1_555
C2 Cr10 2.115451 1_555
C3 Cr3 2.080159 1_555
C3 Cr5 2.080286 1_555
C3 Cr2 2.080299 1_555
C3 Cr8 2.080322 1_555
C3 Cr16 2.115280 1_555
C3 Cr13 2.115365 1_556
C3 Cr17 2.115387 1_556
C3 Cr14 2.115444 1_555
C4 Cr4 2.080044 1_555
C4 Cr5 2.080229 1_555
C4 Cr7 2.080271 1_555
C4 Cr2 2.080349 1_555
C4 Cr18 2.115321 1_655
C4 Cr12 2.115324 1_556
C4 Cr14 2.115332 1_655
C4 Cr20 2.115450 1_556
C5 Cr6 2.080393 1_555
C5 Cr4 2.080411 1_555
C5 Cr5 2.080495 1_555
C5 Cr3 2.080548 1_555
C5 Cr16 2.115380 1_565
C5 Cr15 2.115450 1_556
C5 Cr18 2.115453 1_565
C5 Cr19 2.115556 1_556
