# generated using pymatgen
data_Ba(HO)2
_symmetry_space_group_name_H-M   'P 1'
_cell_length_a   7.86797379
_cell_length_b   6.78095236
_cell_length_c   11.08245612
_cell_angle_alpha   57.63178998
_cell_angle_beta   90.00000000
_cell_angle_gamma   90.00000000
_symmetry_Int_Tables_number   1
_chemical_formula_structural   Ba(HO)2
_chemical_formula_sum   'Ba8 H16 O16'
_cell_volume   499.40581842
_cell_formula_units_Z   8
loop_
 _symmetry_equiv_pos_site_id
 _symmetry_equiv_pos_as_xyz
  1  'x, y, z'
loop_
 _atom_site_type_symbol
 _atom_site_label
 _atom_site_symmetry_multiplicity
 _atom_site_fract_x
 _atom_site_fract_y
 _atom_site_fract_z
 _atom_site_occupancy
  Ba  Ba0  1  0.85570999  0.35656345  0.89497560  1
  Ba  Ba1  1  0.64429001  0.35656345  0.39497560  1
  Ba  Ba2  1  0.14429001  0.64343655  0.10502440  1
  Ba  Ba3  1  0.35570999  0.64343655  0.60502440  1
  Ba  Ba4  1  0.95154919  0.96377777  0.31806547  1
  Ba  Ba5  1  0.54845081  0.96377777  0.81806547  1
  Ba  Ba6  1  0.04845081  0.03622223  0.68193453  1
  Ba  Ba7  1  0.45154919  0.03622223  0.18193453  1
  H  H0  1  0.95760793  0.57233704  0.61647029  1
  H  H1  1  0.54239207  0.57233704  0.11647029  1
  H  H2  1  0.04239207  0.42766296  0.38352971  1
  H  H3  1  0.45760793  0.42766296  0.88352971  1
  H  H4  1  0.14968059  0.19770513  0.02295699  1
  H  H5  1  0.35031941  0.19770513  0.52295699  1
  H  H6  1  0.85031941  0.80229487  0.97704301  1
  H  H7  1  0.64968059  0.80229487  0.47704301  1
  H  H8  1  0.27276829  0.18335740  0.88017806  1
  H  H9  1  0.22723171  0.18335740  0.38017806  1
  H  H10  1  0.72723171  0.81664260  0.11982194  1
  H  H11  1  0.77276829  0.81664260  0.61982194  1
  H  H12  1  0.26195760  0.53825753  0.40699836  1
  H  H13  1  0.23804240  0.53825753  0.90699836  1
  H  H14  1  0.73804240  0.46174247  0.59300164  1
  H  H15  1  0.76195760  0.46174247  0.09300164  1
  O  O0  1  0.00512529  0.70296667  0.61905524  1
  O  O1  1  0.49487471  0.70296667  0.11905524  1
  O  O2  1  -0.00512529  0.29703333  0.38094476  1
  O  O3  1  0.50512529  0.29703333  0.88094476  1
  O  O4  1  0.13926454  0.26490752  0.08244594  1
  O  O5  1  0.36073546  0.26490752  0.58244594  1
  O  O6  1  0.86073546  0.73509248  0.91755406  1
  O  O7  1  0.63926454  0.73509248  0.41755406  1
  O  O8  1  0.16000991  0.11439232  0.89383988  1
  O  O9  1  0.33999009  0.11439232  0.39383988  1
  O  O10  1  0.83999009  0.88560768  0.10616012  1
  O  O11  1  0.66000991  0.88560768  0.60616012  1
  O  O12  1  0.20458686  0.68505502  0.34104814  1
  O  O13  1  0.29541314  0.68505502  0.84104814  1
  O  O14  1  0.79541314  0.31494498  0.65895186  1
  O  O15  1  0.70458686  0.31494498  0.15895186  1
loop_
_geom_bond_atom_site_label_1
_geom_bond_atom_site_label_2
_geom_bond_distance
_geom_bond_site_symmetry_2
Ba0 H4 2.624108 1_656
Ba0 O6 2.709293 1_555
Ba0 H0 2.734008 1_555
Ba0 H15 2.746824 1_556
Ba0 O10 2.772863 1_546
Ba0 O3 2.804115 1_555
Ba0 O14 2.817288 1_555
Ba0 O4 2.880556 1_656
Ba0 O8 2.907104 1_655
Ba0 O0 2.925653 1_655
Ba0 O15 3.027875 1_556
Ba0 H11 3.044904 1_555
Ba1 H5 2.624108 1_555
Ba1 O7 2.709293 1_555
Ba1 H1 2.734008 1_555
Ba1 H14 2.746824 1_555
Ba1 O11 2.772863 1_545
Ba1 O2 2.804115 1_655
Ba1 O15 2.817288 1_555
Ba1 O5 2.880556 1_555
Ba1 O9 2.907104 1_555
Ba1 O1 2.925653 1_555
Ba1 O14 3.027875 1_555
Ba1 H10 3.044904 1_555
Ba2 H6 2.624108 1_454
Ba2 O4 2.709293 1_555
Ba2 H2 2.734008 1_555
Ba2 H13 2.746824 1_554
Ba2 O8 2.772863 1_564
Ba2 O1 2.804115 1_555
Ba2 O12 2.817288 1_555
Ba2 O6 2.880556 1_454
Ba2 O10 2.907104 1_455
Ba2 O2 2.925653 1_555
Ba2 O13 3.027875 1_554
Ba2 H9 3.044904 1_555
Ba3 H7 2.624108 1_555
Ba3 O5 2.709293 1_555
Ba3 H3 2.734008 1_555
Ba3 H12 2.746824 1_555
Ba3 O9 2.772863 1_565
Ba3 O0 2.804115 1_555
Ba3 O13 2.817288 1_555
Ba3 O7 2.880556 1_555
Ba3 O11 2.907104 1_555
Ba3 O3 2.925653 1_555
Ba3 O12 3.027875 1_555
Ba3 H8 3.044904 1_555
Ba4 O12 2.661807 1_655
Ba4 O2 2.719297 1_665
Ba4 O4 2.731374 1_665
Ba4 O7 2.797635 1_555
Ba4 H7 2.806882 1_555
Ba4 O10 2.810586 1_555
Ba4 O15 2.838920 1_565
Ba4 O0 2.848833 1_655
Ba4 H9 2.914291 1_665
Ba4 H0 2.930123 1_555
Ba5 O13 2.661807 1_555
Ba5 O3 2.719297 1_565
Ba5 O5 2.731374 1_565
Ba5 O6 2.797635 1_555
Ba5 H6 2.806882 1_555
Ba5 O11 2.810586 1_555
Ba5 O14 2.838920 1_565
Ba5 O1 2.848833 1_556
Ba5 H8 2.914291 1_565
Ba5 H1 2.930123 1_556
Ba6 O14 2.661807 1_455
Ba6 O0 2.719297 1_545
Ba6 O6 2.731374 1_445
Ba6 O5 2.797635 1_555
Ba6 H5 2.806882 1_555
Ba6 O8 2.810586 1_555
Ba6 O13 2.838920 1_545
Ba6 O2 2.848833 1_555
Ba6 H11 2.914291 1_445
Ba6 H2 2.930123 1_555
Ba7 O15 2.661807 1_555
Ba7 O1 2.719297 1_545
Ba7 O7 2.731374 1_545
Ba7 O4 2.797635 1_555
Ba7 H4 2.806882 1_555
Ba7 O9 2.810586 1_555
Ba7 O12 2.838920 1_545
Ba7 O3 2.848833 1_554
Ba7 H10 2.914291 1_545
Ba7 H3 2.930123 1_554
H0 O0 0.975908 1_655
H1 O1 0.975908 1_555
H2 O2 0.975908 1_555
H3 O3 0.975908 1_555
H4 O4 0.985246 1_555
H5 O5 0.985246 1_555
H6 O6 0.985246 1_555
H7 O7 0.985246 1_555
H8 O8 0.976164 1_555
H9 O9 0.976164 1_555
H10 O10 0.976164 1_555
H11 O11 0.976164 1_555
H12 O12 0.974593 1_555
H13 O13 0.974593 1_555
H14 O14 0.974593 1_555
H15 O15 0.974593 1_555
