# generated using pymatgen
data_Os3C9Se2O9
_symmetry_space_group_name_H-M   'P 1'
_cell_length_a   6.90574100
_cell_length_b   9.75660155
_cell_length_c   13.70200633
_cell_angle_alpha   94.23801224
_cell_angle_beta   95.72287446
_cell_angle_gamma   110.42375688
_symmetry_Int_Tables_number   1
_chemical_formula_structural   Os3C9Se2O9
_chemical_formula_sum   'Os6 C18 Se4 O18'
_cell_volume   854.97880521
_cell_formula_units_Z   2
loop_
 _symmetry_equiv_pos_site_id
 _symmetry_equiv_pos_as_xyz
  1  'x, y, z'
loop_
 _atom_site_type_symbol
 _atom_site_label
 _atom_site_symmetry_multiplicity
 _atom_site_fract_x
 _atom_site_fract_y
 _atom_site_fract_z
 _atom_site_occupancy
  Os  Os0  1  0.28234200  0.69351900  0.34335800  1
  Os  Os1  1  0.56808900  0.23397600  0.84437000  1
  Os  Os2  1  0.10793200  0.39330300  0.24155900  1
  Os  Os3  1  0.43191100  0.76602400  0.15563000  1
  Os  Os4  1  0.71765800  0.30648100  0.65664200  1
  Os  Os5  1  0.89206800  0.60669700  0.75844100  1
  C  C0  1  0.27661100  0.11701600  0.81649400  1
  C  C1  1  0.17649300  0.69167100  0.73434900  1
  C  C2  1  0.18837500  0.26707200  0.32541000  1
  C  C3  1  0.07243900  0.27480800  0.12156300  1
  C  C4  1  0.71408100  0.41195300  0.54487900  1
  C  C5  1  0.36322700  0.93266200  0.12119100  1
  C  C6  1  0.55880800  0.30643300  0.97457200  1
  C  C7  1  0.91795900  0.22939800  0.61404800  1
  C  C8  1  0.44119200  0.69356700  0.02542800  1
  C  C9  1  0.82350700  0.30832900  0.26565100  1
  C  C10  1  0.28591900  0.58804700  0.45512100  1
  C  C11  1  0.81162500  0.73292800  0.67459000  1
  C  C12  1  0.51023500  0.87384300  0.38809800  1
  C  C13  1  0.72338900  0.88298400  0.18350600  1
  C  C14  1  0.92756100  0.72519200  0.87843700  1
  C  C15  1  0.48976500  0.12615700  0.61190200  1
  C  C16  1  0.63677300  0.06733800  0.87880900  1
  C  C17  1  0.08204100  0.77060200  0.38595200  1
  Se  Se0  1  0.51002200  0.43721700  0.75124300  1
  Se  Se1  1  0.94465800  0.38423100  0.82681600  1
  Se  Se2  1  0.05534200  0.61576900  0.17318400  1
  Se  Se3  1  0.48997800  0.56278300  0.24875700  1
  O  O0  1  0.95863300  0.81620700  0.41146600  1
  O  O1  1  0.76229900  0.80795100  0.62357400  1
  O  O2  1  0.23770100  0.19204900  0.37642600  1
  O  O3  1  0.65210600  0.25255100  0.28023700  1
  O  O4  1  0.64710900  0.98271700  0.41838000  1
  O  O5  1  0.55984900  0.35502300  0.05494200  1
  O  O6  1  0.44015100  0.64497700  0.94505800  1
  O  O7  1  0.29154900  0.52639600  0.52447200  1
  O  O8  1  0.90052700  0.95348800  0.20056500  1
  O  O9  1  0.04136700  0.18379300  0.58853400  1
  O  O10  1  0.70845100  0.47360400  0.47552800  1
  O  O11  1  0.34789400  0.74744900  0.71976300  1
  O  O12  1  0.09947300  0.04651200  0.79943500  1
  O  O13  1  0.32878700  0.03545200  0.09965900  1
  O  O14  1  0.04773000  0.20652400  0.04511000  1
  O  O15  1  0.95227000  0.79347600  0.95489000  1
  O  O16  1  0.35289100  0.01728300  0.58162000  1
  O  O17  1  0.67121300  0.96454800  0.90034100  1
loop_
_geom_bond_atom_site_label_1
_geom_bond_atom_site_label_2
_geom_bond_distance
_geom_bond_site_symmetry_2
Os0 Se2 2.578648 1_555
Os0 Se3 2.601152 1_555
Os1 Se1 2.546700 1_555
Os1 Se0 2.558902 1_555
Os2 Se2 2.550215 1_555
Os2 Se3 2.565911 1_555
Os3 Se2 2.546700 1_555
Os3 Se3 2.558902 1_555
Os4 Se1 2.578648 1_555
Os4 Se0 2.601152 1_555
Os5 Se1 2.550215 1_555
Os5 Se0 2.565911 1_555
C0 O12 1.164534 1_555
C0 Os1 1.918041 1_555
C1 O11 1.162248 1_555
C1 Os5 1.920290 1_455
C2 O2 1.158703 1_555
C2 Os2 1.924781 1_555
C3 O14 1.162845 1_555
C3 Os2 1.881734 1_555
C4 O10 1.166071 1_555
C4 Os4 1.909915 1_555
C5 O13 1.159993 1_565
C5 Os3 1.922991 1_555
C6 O5 1.164640 1_556
C6 Os1 1.885376 1_555
C7 O9 1.160843 1_655
C7 Os4 1.908324 1_555
C8 O6 1.164640 1_554
C8 Os3 1.885376 1_555
C9 O3 1.162248 1_555
C9 Os2 1.920290 1_655
C10 O7 1.166071 1_555
C10 Os0 1.909915 1_555
C11 O1 1.158703 1_555
C11 Os5 1.924781 1_555
C12 O4 1.161829 1_555
C12 Os0 1.914064 1_555
C13 O8 1.164534 1_555
C13 Os3 1.918041 1_555
C14 O15 1.162845 1_555
C14 Os5 1.881734 1_555
C15 O16 1.161829 1_555
C15 Os4 1.914064 1_555
C16 O17 1.159993 1_545
C16 Os1 1.922991 1_555
C17 O0 1.160843 1_455
C17 Os0 1.908324 1_555
