# generated using pymatgen
data_Te2Mo3Se7Br10
_symmetry_space_group_name_H-M   'P 1'
_cell_length_a   10.65264700
_cell_length_b   11.51058630
_cell_length_c   12.86205236
_cell_angle_alpha   84.69005013
_cell_angle_beta   85.46421606
_cell_angle_gamma   76.60606478
_symmetry_Int_Tables_number   1
_chemical_formula_structural   Te2Mo3Se7Br10
_chemical_formula_sum   'Te4 Mo6 Se14 Br20'
_cell_volume   1524.93331625
_cell_formula_units_Z   2
loop_
 _symmetry_equiv_pos_site_id
 _symmetry_equiv_pos_as_xyz
  1  'x, y, z'
loop_
 _atom_site_type_symbol
 _atom_site_label
 _atom_site_symmetry_multiplicity
 _atom_site_fract_x
 _atom_site_fract_y
 _atom_site_fract_z
 _atom_site_occupancy
  Te  Te0  1  0.15586000  0.67705200  0.78862100  1
  Te  Te1  1  0.84414000  0.32294800  0.21137900  1
  Te  Te2  1  0.86964800  0.45009900  0.63117200  1
  Te  Te3  1  0.13035200  0.54990100  0.36882800  1
  Mo  Mo0  1  0.20909300  0.90808100  0.77786700  1
  Mo  Mo1  1  0.79090700  0.09191900  0.22213300  1
  Mo  Mo2  1  0.39565400  0.99326900  0.64887400  1
  Mo  Mo3  1  0.60434600  0.00673100  0.35112600  1
  Mo  Mo4  1  0.39549000  0.99397900  0.86574000  1
  Mo  Mo5  1  0.60451000  0.00602100  0.13426000  1
  Se  Se0  1  0.84839400  0.92241700  0.36468700  1
  Se  Se1  1  0.38089400  0.18382400  0.74223800  1
  Se  Se2  1  0.61910600  0.81617600  0.25776200  1
  Se  Se3  1  0.77027800  0.11278700  0.42622000  1
  Se  Se4  1  0.15160600  0.07758300  0.63531300  1
  Se  Se5  1  0.44204700  0.80794800  0.76995000  1
  Se  Se6  1  0.15158700  0.08001800  0.89818500  1
  Se  Se7  1  0.22891400  0.88967800  0.98029200  1
  Se  Se8  1  0.22972200  0.88721300  0.57378000  1
  Se  Se9  1  0.55795300  0.19205200  0.23005000  1
  Se  Se10  1  0.41696100  0.95034400  0.25993000  1
  Se  Se11  1  0.77108600  0.11032200  0.01970800  1
  Se  Se12  1  0.58303900  0.04965600  0.74007000  1
  Se  Se13  1  0.84841300  0.91998200  0.10181500  1
  Br  Br0  1  0.76464200  0.57841800  0.78348900  1
  Br  Br1  1  0.41972400  0.13856500  0.47202600  1
  Br  Br2  1  0.57955700  0.86013500  0.98457200  1
  Br  Br3  1  0.97856600  0.65747800  0.54855100  1
  Br  Br4  1  0.95969700  0.89574100  0.78836100  1
  Br  Br5  1  0.67514700  0.52104000  0.51623600  1
  Br  Br6  1  0.09478000  0.32441100  0.75485400  1
  Br  Br7  1  0.62664500  0.48047600  0.20785400  1
  Br  Br8  1  0.42044300  0.13986500  0.01542800  1
  Br  Br9  1  0.90522000  0.67558900  0.24514600  1
  Br  Br10  1  0.32485300  0.47896000  0.48376400  1
  Br  Br11  1  0.04030300  0.10425900  0.21163900  1
  Br  Br12  1  0.23535800  0.42158200  0.21651100  1
  Br  Br13  1  0.02143400  0.34252200  0.45144900  1
  Br  Br14  1  0.22180300  0.73572700  0.30116300  1
  Br  Br15  1  0.90412900  0.36905700  0.02034300  1
  Br  Br16  1  0.77819700  0.26427300  0.69883700  1
  Br  Br17  1  0.09587100  0.63094300  0.97965700  1
  Br  Br18  1  0.58027600  0.86143500  0.52797400  1
  Br  Br19  1  0.37335500  0.51952400  0.79214600  1
loop_
_geom_bond_atom_site_label_1
_geom_bond_atom_site_label_2
_geom_bond_distance
_geom_bond_site_symmetry_2
Mo0 Se5 2.480663 1_555
Mo0 Se4 2.550582 1_565
Mo0 Se6 2.557773 1_565
Mo0 Se7 2.613875 1_555
Mo0 Se8 2.645280 1_555
Mo0 Mo4 2.769304 1_555
Mo0 Mo2 2.782807 1_555
Mo0 Te0 2.833836 1_555
Mo1 Se9 2.480663 1_555
Mo1 Se0 2.550582 1_545
Mo1 Se13 2.557773 1_545
Mo1 Se11 2.613875 1_555
Mo1 Se3 2.645280 1_555
Mo1 Mo5 2.769304 1_555
Mo1 Mo3 2.782807 1_555
Mo1 Te1 2.833836 1_555
Mo2 Se5 2.497638 1_555
Mo2 Se1 2.564301 1_565
Mo2 Se4 2.569535 1_565
Mo2 Se12 2.625488 1_565
Mo2 Se8 2.652470 1_555
Mo3 Se9 2.497638 1_555
Mo3 Se2 2.564301 1_545
Mo3 Se0 2.569535 1_545
Mo3 Se10 2.625488 1_545
Mo3 Se3 2.652470 1_555
Mo4 Se5 2.499771 1_555
Mo4 Se1 2.561614 1_565
Mo4 Se6 2.572654 1_565
Mo4 Se12 2.627863 1_565
Mo4 Se7 2.647078 1_555
Mo5 Se9 2.499771 1_555
Mo5 Se2 2.561614 1_545
Mo5 Se13 2.572654 1_545
Mo5 Se10 2.627863 1_545
Mo5 Se11 2.647078 1_555
Se0 Se3 2.343618 1_565
Se1 Se12 2.341071 1_555
Se4 Se8 2.343618 1_545
Se6 Se7 2.338202 1_545
Se10 Se2 2.341071 1_555
Se11 Se13 2.338202 1_545
Br0 Te2 2.587372 1_555
Br1 Mo3 2.675667 1_555
Br1 Mo2 2.727465 1_545
Br2 Mo4 2.681973 1_555
Br2 Mo5 2.735576 1_566
Br3 Te3 2.915874 1_655
Br3 Te2 2.965154 1_555
Br4 Mo0 2.685360 1_655
Br4 Te0 2.875018 1_655
Br5 Te2 2.573396 1_555
Br6 Te2 2.990873 1_455
Br6 Se1 3.101596 1_555
Br7 Te1 2.590943 1_555
Br8 Mo5 2.681973 1_555
Br8 Mo4 2.735576 1_544
Br9 Te3 2.990873 1_655
Br9 Se2 3.101596 1_555
Br10 Te3 2.573396 1_555
Br11 Mo1 2.685360 1_455
Br11 Te1 2.875018 1_455
Br12 Te3 2.587372 1_555
Br13 Te2 2.915874 1_455
Br13 Te3 2.965154 1_555
Br14 Te3 2.601617 1_555
Br15 Te1 2.528812 1_555
Br16 Te2 2.601617 1_555
Br17 Te0 2.528812 1_555
Br18 Mo2 2.675667 1_555
Br18 Mo3 2.727465 1_565
Br19 Te0 2.590943 1_555
