# generated using pymatgen
data_Cr3AuO8
_symmetry_space_group_name_H-M   'P 1'
_cell_length_a   5.21919767
_cell_length_b   5.21905342
_cell_length_c   8.35470878
_cell_angle_alpha   80.48991815
_cell_angle_beta   80.49473674
_cell_angle_gamma   63.86684873
_symmetry_Int_Tables_number   1
_chemical_formula_structural   Cr3AuO8
_chemical_formula_sum   'Cr3 Au1 O8'
_cell_volume   200.40440602
_cell_formula_units_Z   1
loop_
 _symmetry_equiv_pos_site_id
 _symmetry_equiv_pos_as_xyz
  1  'x, y, z'
loop_
 _atom_site_type_symbol
 _atom_site_label
 _atom_site_symmetry_multiplicity
 _atom_site_fract_x
 _atom_site_fract_y
 _atom_site_fract_z
 _atom_site_occupancy
  Cr  Cr0  1  0.67948400  0.67952400  0.30439900  1
  Cr  Cr1  1  0.32049000  0.32047600  0.69561000  1
  Cr  Cr2  1  0.99998300  0.99999200  0.49997700  1
  Au  Au0  1  0.00007800  0.00003600  0.00001500  1
  O  O0  1  0.31902800  0.81631300  0.33018800  1
  O  O1  1  0.68091200  0.18372600  0.66976200  1
  O  O2  1  0.79357200  0.79358000  0.43892900  1
  O  O3  1  0.18374900  0.68087300  0.66975100  1
  O  O4  1  0.20634600  0.20632200  0.56111100  1
  O  O5  1  0.21962200  0.21956800  0.88683300  1
  O  O6  1  0.81624900  0.31907500  0.33019000  1
  O  O7  1  0.78048800  0.78051400  0.11323600  1
loop_
_geom_bond_atom_site_label_1
_geom_bond_atom_site_label_2
_geom_bond_distance
_geom_bond_site_symmetry_2
Cr0 O2 1.651225 1_555
Cr0 O7 1.671824 1_555
Cr0 O6 1.681909 1_555
Cr0 O0 1.682012 1_555
Cr1 O4 1.651526 1_555
Cr1 O5 1.671914 1_555
Cr1 O3 1.681675 1_555
Cr1 O1 1.681867 1_555
Cr2 O4 1.991393 1_665
Cr2 O2 1.991638 1_555
Cr2 O6 1.991717 1_565
Cr2 O0 1.991733 1_655
Cr2 O3 1.991780 1_655
Cr2 O1 1.991847 1_565
Au0 O5 1.990102 1_554
Au0 O7 1.990336 1_445
