# generated using pymatgen
data_Sm11Br24
_symmetry_space_group_name_H-M   'P 1'
_cell_length_a   7.21009897
_cell_length_b   7.47956595
_cell_length_c   79.06997374
_cell_angle_alpha   90.00000000
_cell_angle_beta   90.00000000
_cell_angle_gamma   90.00465670
_symmetry_Int_Tables_number   1
_chemical_formula_structural   Sm11Br24
_chemical_formula_sum   'Sm44 Br96'
_cell_volume   4264.11800884
_cell_formula_units_Z   4
loop_
 _symmetry_equiv_pos_site_id
 _symmetry_equiv_pos_as_xyz
  1  'x, y, z'
loop_
 _atom_site_type_symbol
 _atom_site_label
 _atom_site_symmetry_multiplicity
 _atom_site_fract_x
 _atom_site_fract_y
 _atom_site_fract_z
 _atom_site_occupancy
  Sm  Sm0  1  0.45777206  0.12632611  0.97312742  1
  Sm  Sm1  1  0.95777206  0.62632611  0.52687258  1
  Sm  Sm2  1  0.54222794  0.87367389  0.02687258  1
  Sm  Sm3  1  0.04222794  0.37367389  0.47312742  1
  Sm  Sm4  1  0.46301742  0.80644894  0.93349742  1
  Sm  Sm5  1  0.96301742  0.30644894  0.56650258  1
  Sm  Sm6  1  0.53698258  0.19355106  0.06650258  1
  Sm  Sm7  1  0.03698258  0.69355106  0.43349742  1
  Sm  Sm8  1  0.49202580  0.17654485  0.88642756  1
  Sm  Sm9  1  0.99202580  0.67654485  0.61357244  1
  Sm  Sm10  1  0.50797420  0.82345515  0.11357244  1
  Sm  Sm11  1  0.00797420  0.32345515  0.38642756  1
  Sm  Sm12  1  0.04242856  0.62662284  0.97314649  1
  Sm  Sm13  1  0.54242856  0.12662284  0.52685351  1
  Sm  Sm14  1  0.95757144  0.37337716  0.02685351  1
  Sm  Sm15  1  0.45757144  0.87337716  0.47314649  1
  Sm  Sm16  1  0.03653472  0.30624111  0.93343555  1
  Sm  Sm17  1  0.53653472  0.80624111  0.56656445  1
  Sm  Sm18  1  0.96346528  0.69375889  0.06656445  1
  Sm  Sm19  1  0.46346528  0.19375889  0.43343555  1
  Sm  Sm20  1  0.00787653  0.67634072  0.88641392  1
  Sm  Sm21  1  0.50787653  0.17634072  0.61358608  1
  Sm  Sm22  1  0.99212347  0.32365928  0.11358608  1
  Sm  Sm23  1  0.49212347  0.82365928  0.38641392  1
  Sm  Sm24  1  0.46629684  0.11215696  0.79787184  1
  Sm  Sm25  1  0.96629684  0.61215696  0.70212816  1
  Sm  Sm26  1  0.53370316  0.88784304  0.20212816  1
  Sm  Sm27  1  0.03370316  0.38784304  0.29787184  1
  Sm  Sm28  1  0.47431990  0.78002620  0.84301326  1
  Sm  Sm29  1  0.97431990  0.28002620  0.65698674  1
  Sm  Sm30  1  0.52568010  0.21997380  0.15698674  1
  Sm  Sm31  1  0.02568010  0.71997380  0.34301326  1
  Sm  Sm32  1  0.03268378  0.61097320  0.79765239  1
  Sm  Sm33  1  0.53268378  0.11097320  0.70234761  1
  Sm  Sm34  1  0.96731622  0.38902680  0.20234761  1
  Sm  Sm35  1  0.46731622  0.88902680  0.29765239  1
  Sm  Sm36  1  0.02607859  0.27923081  0.84296204  1
  Sm  Sm37  1  0.52607859  0.77923081  0.65703796  1
  Sm  Sm38  1  0.97392141  0.72076919  0.15703796  1
  Sm  Sm39  1  0.47392141  0.22076919  0.34296204  1
  Sm  Sm40  1  0.99972625  0.37217859  0.75011742  1
  Sm  Sm41  1  0.49972625  0.87217859  0.74988258  1
  Sm  Sm42  1  0.00027375  0.62782141  0.24988258  1
  Sm  Sm43  1  0.50027375  0.12782141  0.25011742  1
  Br  Br0  1  0.27752082  0.87286667  0.99614375  1
  Br  Br1  1  0.77752082  0.37286667  0.50385625  1
  Br  Br2  1  0.72247918  0.12713333  0.00385625  1
  Br  Br3  1  0.22247918  0.62713333  0.49614375  1
  Br  Br4  1  0.69240554  0.82488746  0.96340100  1
  Br  Br5  1  0.19240554  0.32488746  0.53659900  1
  Br  Br6  1  0.30759446  0.17511254  0.03659900  1
  Br  Br7  1  0.80759446  0.67511254  0.46340100  1
  Br  Br8  1  0.14686801  0.96488960  0.95299409  1
  Br  Br9  1  0.64686801  0.46488960  0.54700591  1
  Br  Br10  1  0.85313199  0.03511040  0.04700591  1
  Br  Br11  1  0.35313199  0.53511040  0.45299409  1
  Br  Br12  1  0.66702070  0.12665088  0.92131810  1
  Br  Br13  1  0.16702070  0.62665088  0.57868190  1
  Br  Br14  1  0.33297930  0.87334912  0.07868190  1
  Br  Br15  1  0.83297930  0.37334912  0.42131810  1
  Br  Br16  1  0.19484063  0.98302000  0.90855079  1
  Br  Br17  1  0.69484063  0.48302000  0.59144921  1
  Br  Br18  1  0.80515937  0.01698000  0.09144921  1
  Br  Br19  1  0.30515937  0.51698000  0.40855079  1
  Br  Br20  1  0.61668530  0.80706549  0.88461212  1
  Br  Br21  1  0.11668530  0.30706549  0.61538788  1
  Br  Br22  1  0.38331470  0.19293451  0.11538788  1
  Br  Br23  1  0.88331470  0.69293451  0.38461212  1
  Br  Br24  1  0.22260409  0.37264234  0.99613392  1
  Br  Br25  1  0.72260409  0.87264234  0.50386608  1
  Br  Br26  1  0.77739591  0.62735766  0.00386608  1
  Br  Br27  1  0.27739591  0.12735766  0.49613392  1
  Br  Br28  1  0.80784368  0.32537718  0.96338775  1
  Br  Br29  1  0.30784368  0.82537718  0.53661225  1
  Br  Br30  1  0.19215632  0.67462282  0.03661225  1
  Br  Br31  1  0.69215632  0.17462282  0.46338775  1
  Br  Br32  1  0.35252648  0.46433631  0.95298510  1
  Br  Br33  1  0.85252648  0.96433631  0.54701490  1
  Br  Br34  1  0.64747352  0.53566369  0.04701490  1
  Br  Br35  1  0.14747352  0.03566369  0.45298510  1
  Br  Br36  1  0.83241017  0.62674744  0.92130830  1
  Br  Br37  1  0.33241017  0.12674744  0.57869170  1
  Br  Br38  1  0.16758983  0.37325256  0.07869170  1
  Br  Br39  1  0.66758983  0.87325256  0.42130830  1
  Br  Br40  1  0.30493320  0.48315370  0.90854356  1
  Br  Br41  1  0.80493320  0.98315370  0.59145644  1
  Br  Br42  1  0.69506680  0.51684630  0.09145644  1
  Br  Br43  1  0.19506680  0.01684630  0.40854356  1
  Br  Br44  1  0.88306019  0.30704320  0.88466417  1
  Br  Br45  1  0.38306019  0.80704320  0.61533583  1
  Br  Br46  1  0.11693981  0.69295680  0.11533583  1
  Br  Br47  1  0.61693981  0.19295680  0.38466417  1
  Br  Br48  1  0.21618877  0.89276800  0.77684236  1
  Br  Br49  1  0.71618877  0.39276800  0.72315764  1
  Br  Br50  1  0.78381123  0.10723200  0.22315764  1
  Br  Br51  1  0.28381123  0.60723200  0.27684236  1
  Br  Br52  1  0.67711711  0.80533796  0.81023885  1
  Br  Br53  1  0.17711711  0.30533796  0.68976115  1
  Br  Br54  1  0.32288289  0.19466204  0.18976115  1
  Br  Br55  1  0.82288289  0.69466204  0.31023885  1
  Br  Br56  1  0.17048978  0.94558893  0.82081869  1
  Br  Br57  1  0.67048978  0.44558893  0.67918131  1
  Br  Br58  1  0.82951022  0.05441107  0.17918131  1
  Br  Br59  1  0.32951022  0.55441107  0.32081869  1
  Br  Br60  1  0.64465227  0.13093881  0.85011427  1
  Br  Br61  1  0.14465227  0.63093881  0.64988573  1
  Br  Br62  1  0.35534773  0.86906119  0.14988573  1
  Br  Br63  1  0.85534773  0.36906119  0.35011427  1
  Br  Br64  1  0.19283649  0.97879432  0.86490781  1
  Br  Br65  1  0.69283649  0.47879432  0.63509219  1
  Br  Br66  1  0.80716351  0.02120568  0.13509219  1
  Br  Br67  1  0.30716351  0.52120568  0.36490781  1
  Br  Br68  1  0.72802818  0.13373255  0.76768208  1
  Br  Br69  1  0.22802818  0.63373255  0.73231792  1
  Br  Br70  1  0.27197182  0.86626745  0.23231792  1
  Br  Br71  1  0.77197182  0.36626745  0.26768208  1
  Br  Br72  1  0.28472018  0.39240498  0.77683132  1
  Br  Br73  1  0.78472018  0.89240498  0.72316868  1
  Br  Br74  1  0.71527982  0.60759502  0.22316868  1
  Br  Br75  1  0.21527982  0.10759502  0.27683132  1
  Br  Br76  1  0.82280617  0.30504115  0.81023117  1
  Br  Br77  1  0.32280617  0.80504115  0.68976883  1
  Br  Br78  1  0.17719383  0.69495885  0.18976883  1
  Br  Br79  1  0.67719383  0.19495885  0.31023117  1
  Br  Br80  1  0.32917157  0.44627324  0.82081025  1
  Br  Br81  1  0.82917157  0.94627324  0.67918975  1
  Br  Br82  1  0.67082843  0.55372676  0.17918975  1
  Br  Br83  1  0.17082843  0.05372676  0.32081025  1
  Br  Br84  1  0.85565319  0.63062780  0.85008943  1
  Br  Br85  1  0.35565319  0.13062780  0.64991057  1
  Br  Br86  1  0.14434681  0.36937220  0.14991057  1
  Br  Br87  1  0.64434681  0.86937220  0.35008943  1
  Br  Br88  1  0.30692337  0.47871868  0.86489726  1
  Br  Br89  1  0.80692337  0.97871868  0.63510274  1
  Br  Br90  1  0.69307663  0.52128132  0.13510274  1
  Br  Br91  1  0.19307663  0.02128132  0.36489726  1
  Br  Br92  1  0.77061530  0.63442413  0.76764931  1
  Br  Br93  1  0.27061530  0.13442413  0.73235069  1
  Br  Br94  1  0.22938470  0.36557587  0.23235069  1
  Br  Br95  1  0.72938470  0.86557587  0.26764931  1
loop_
_geom_bond_atom_site_label_1
_geom_bond_atom_site_label_2
_geom_bond_distance
_geom_bond_site_symmetry_2
Br0 Sm0 2.931656 1_565
Br0 Sm2 3.089697 1_556
Br0 Sm12 3.093771 1_555
Br1 Sm1 2.931656 1_555
Br1 Sm3 3.089697 1_655
Br1 Sm13 3.093771 1_555
Br2 Sm2 2.931656 1_545
Br2 Sm0 3.089697 1_554
Br2 Sm14 3.093771 1_555
Br3 Sm3 2.931656 1_555
Br3 Sm1 3.089697 1_455
Br3 Sm15 3.093771 1_555
Br4 Sm4 2.888797 1_555
Br4 Sm0 2.921882 1_565
Br4 Sm12 3.026971 1_655
Br5 Sm5 2.888797 1_455
Br5 Sm1 2.921882 1_455
Br5 Sm13 3.026971 1_555
Br6 Sm6 2.888797 1_555
Br6 Sm2 2.921882 1_545
Br6 Sm14 3.026971 1_455
Br7 Sm7 2.888797 1_655
Br7 Sm3 2.921882 1_655
Br7 Sm15 3.026971 1_555
Br8 Sm4 2.996220 1_555
Br8 Sm0 3.002803 1_565
Br8 Sm12 3.083368 1_555
Br8 Sm16 3.089247 1_565
Br9 Sm5 2.996220 1_555
Br9 Sm1 3.002803 1_555
Br9 Sm13 3.083368 1_555
Br9 Sm17 3.089247 1_555
Br10 Sm6 2.996220 1_555
Br10 Sm2 3.002803 1_545
Br10 Sm14 3.083368 1_555
Br10 Sm18 3.089247 1_545
Br11 Sm7 2.996220 1_555
Br11 Sm3 3.002803 1_555
Br11 Sm15 3.083368 1_555
Br11 Sm19 3.089247 1_555
Br12 Sm4 2.970895 1_545
Br12 Sm8 3.056510 1_555
Br12 Sm16 3.133672 1_655
Br13 Sm5 2.970895 1_455
Br13 Sm9 3.056510 1_455
Br13 Sm17 3.133672 1_555
Br14 Sm6 2.970895 1_565
Br14 Sm10 3.056510 1_555
Br14 Sm18 3.133672 1_455
Br15 Sm7 2.970895 1_655
Br15 Sm11 3.056510 1_655
Br15 Sm19 3.133672 1_555
Br16 Sm4 3.061732 1_555
Br16 Sm8 3.121859 1_565
Br16 Sm20 3.184665 1_555
Br16 Sm16 3.319549 1_565
Br17 Sm5 3.061732 1_555
Br17 Sm9 3.121859 1_555
Br17 Sm21 3.184665 1_555
Br17 Sm17 3.319549 1_555
Br18 Sm6 3.061732 1_555
Br18 Sm10 3.121859 1_545
Br18 Sm22 3.184665 1_555
Br18 Sm18 3.319549 1_545
Br19 Sm7 3.061732 1_555
Br19 Sm11 3.121859 1_555
Br19 Sm23 3.184665 1_555
Br19 Sm19 3.319549 1_555
Br20 Sm8 2.909647 1_565
Br20 Sm20 2.988669 1_655
Br20 Sm28 3.451591 1_555
Br21 Sm9 2.909647 1_455
Br21 Sm21 2.988669 1_555
Br21 Sm29 3.451591 1_455
Br22 Sm10 2.909647 1_545
Br22 Sm22 2.988669 1_455
Br22 Sm30 3.451591 1_555
Br23 Sm11 2.909647 1_655
Br23 Sm23 2.988669 1_555
Br23 Sm31 3.451591 1_655
Br24 Sm12 2.932655 1_555
Br24 Sm14 3.090573 1_456
Br24 Sm0 3.094985 1_555
Br25 Sm13 2.932655 1_565
Br25 Sm15 3.090573 1_555
Br25 Sm1 3.094985 1_555
Br26 Sm14 2.932655 1_555
Br26 Sm12 3.090573 1_654
Br26 Sm2 3.094985 1_555
Br27 Sm15 2.932655 1_545
Br27 Sm13 3.090573 1_555
Br27 Sm3 3.094985 1_555
Br28 Sm16 2.889340 1_655
Br28 Sm12 2.921027 1_655
Br28 Sm0 3.029830 1_555
Br29 Sm17 2.889340 1_555
Br29 Sm13 2.921027 1_565
Br29 Sm1 3.029830 1_455
Br30 Sm18 2.889340 1_455
Br30 Sm14 2.921027 1_455
Br30 Sm2 3.029830 1_555
Br31 Sm19 2.889340 1_555
Br31 Sm15 2.921027 1_545
Br31 Sm3 3.029830 1_655
Br32 Sm16 2.996343 1_555
Br32 Sm12 3.002357 1_555
Br32 Sm0 3.082908 1_555
Br32 Sm4 3.091342 1_555
Br33 Sm17 2.996343 1_555
Br33 Sm13 3.002357 1_565
Br33 Sm1 3.082908 1_555
Br33 Sm5 3.091342 1_565
Br34 Sm18 2.996343 1_555
Br34 Sm14 3.002357 1_555
Br34 Sm2 3.082908 1_555
Br34 Sm6 3.091342 1_555
Br35 Sm19 2.996343 1_555
Br35 Sm15 3.002357 1_545
Br35 Sm3 3.082908 1_555
Br35 Sm7 3.091342 1_545
Br36 Sm16 2.972026 1_655
Br36 Sm20 3.057890 1_655
Br36 Sm4 3.135209 1_555
Br37 Sm17 2.972026 1_545
Br37 Sm21 3.057890 1_555
Br37 Sm5 3.135209 1_455
Br38 Sm18 2.972026 1_455
Br38 Sm22 3.057890 1_455
Br38 Sm6 3.135209 1_555
Br39 Sm19 2.972026 1_565
Br39 Sm23 3.057890 1_555
Br39 Sm7 3.135209 1_655
Br40 Sm16 3.060929 1_555
Br40 Sm20 3.120498 1_555
Br40 Sm8 3.183930 1_555
Br40 Sm4 3.322511 1_555
Br41 Sm17 3.060929 1_555
Br41 Sm21 3.120498 1_565
Br41 Sm9 3.183930 1_555
Br41 Sm5 3.322511 1_565
Br42 Sm18 3.060929 1_555
Br42 Sm22 3.120498 1_555
Br42 Sm10 3.183930 1_555
Br42 Sm6 3.322511 1_555
Br43 Sm19 3.060929 1_555
Br43 Sm23 3.120498 1_545
Br43 Sm11 3.183930 1_555
Br43 Sm7 3.322511 1_545
Br44 Sm20 2.908314 1_655
Br44 Sm8 2.986755 1_555
Br44 Sm36 3.461126 1_655
Br45 Sm21 2.908314 1_565
Br45 Sm9 2.986755 1_455
Br45 Sm37 3.461126 1_555
Br46 Sm22 2.908314 1_455
Br46 Sm10 2.986755 1_555
Br46 Sm38 3.461126 1_455
Br47 Sm23 2.908314 1_545
Br47 Sm11 2.986755 1_655
Br47 Sm39 3.461126 1_555
Br48 Sm24 2.951101 1_565
Br48 Sm41 2.957575 1_555
Br48 Sm32 2.983291 1_555
Br49 Sm25 2.951101 1_555
Br49 Sm40 2.957575 1_555
Br49 Sm33 2.983291 1_555
Br50 Sm26 2.951101 1_545
Br50 Sm43 2.957575 1_555
Br50 Sm34 2.983291 1_555
Br51 Sm27 2.951101 1_555
Br51 Sm42 2.957575 1_555
Br51 Sm35 2.983291 1_555
Br52 Sm24 2.921254 1_565
Br52 Sm28 2.981529 1_555
Br52 Sm32 3.110770 1_655
Br53 Sm25 2.921254 1_455
Br53 Sm29 2.981529 1_455
Br53 Sm33 3.110770 1_555
Br54 Sm26 2.921254 1_545
Br54 Sm30 2.981529 1_555
Br54 Sm34 3.110770 1_455
Br55 Sm27 2.921254 1_655
Br55 Sm31 2.981529 1_655
Br55 Sm35 3.110770 1_555
Br56 Sm24 3.064739 1_565
Br56 Sm28 3.067997 1_555
Br56 Sm36 3.221432 1_565
Br56 Sm32 3.256697 1_555
Br57 Sm25 3.064739 1_555
Br57 Sm29 3.067997 1_555
Br57 Sm37 3.221432 1_555
Br57 Sm33 3.256697 1_555
Br58 Sm26 3.064739 1_545
Br58 Sm30 3.067997 1_555
Br58 Sm38 3.221432 1_545
Br58 Sm34 3.256697 1_555
Br59 Sm27 3.064739 1_555
Br59 Sm31 3.067997 1_555
Br59 Sm39 3.221432 1_555
Br59 Sm35 3.256697 1_555
Br60 Sm28 2.951594 1_545
Br60 Sm36 3.018730 1_655
Br60 Sm8 3.093820 1_555
Br61 Sm29 2.951594 1_455
Br61 Sm37 3.018730 1_555
Br61 Sm9 3.093820 1_455
Br62 Sm30 2.951594 1_565
Br62 Sm38 3.018730 1_455
Br62 Sm10 3.093820 1_555
Br63 Sm31 2.951594 1_655
Br63 Sm39 3.018730 1_555
Br63 Sm11 3.093820 1_655
Br64 Sm28 3.053979 1_555
Br64 Sm36 3.083306 1_565
Br64 Sm8 3.120249 1_565
Br64 Sm20 3.128458 1_555
Br65 Sm29 3.053979 1_555
Br65 Sm37 3.083306 1_555
Br65 Sm9 3.120249 1_555
Br65 Sm21 3.128458 1_555
Br66 Sm30 3.053979 1_555
Br66 Sm38 3.083306 1_545
Br66 Sm10 3.120249 1_545
Br66 Sm22 3.128458 1_555
Br67 Sm31 3.053979 1_555
Br67 Sm39 3.083306 1_555
Br67 Sm11 3.120249 1_555
Br67 Sm23 3.128458 1_555
Br68 Sm41 2.918389 1_545
Br68 Sm40 2.991093 1_555
Br68 Sm24 3.047201 1_555
Br69 Sm40 2.918389 1_455
Br69 Sm41 2.991093 1_555
Br69 Sm25 3.047201 1_455
Br70 Sm43 2.918389 1_565
Br70 Sm42 2.991093 1_555
Br70 Sm26 3.047201 1_555
Br71 Sm42 2.918389 1_655
Br71 Sm43 2.991093 1_555
Br71 Sm27 3.047201 1_655
Br72 Sm32 2.947144 1_555
Br72 Sm40 2.950738 1_455
Br72 Sm24 2.979261 1_555
Br73 Sm33 2.947144 1_565
Br73 Sm41 2.950738 1_555
Br73 Sm25 2.979261 1_555
Br74 Sm34 2.947144 1_555
Br74 Sm42 2.950738 1_655
Br74 Sm26 2.979261 1_555
Br75 Sm35 2.947144 1_545
Br75 Sm43 2.950738 1_555
Br75 Sm27 2.979261 1_555
Br76 Sm32 2.917979 1_655
Br76 Sm36 2.980475 1_655
Br76 Sm24 3.105330 1_555
Br77 Sm33 2.917979 1_565
Br77 Sm37 2.980475 1_555
Br77 Sm25 3.105330 1_455
Br78 Sm34 2.917979 1_455
Br78 Sm38 2.980475 1_455
Br78 Sm26 3.105330 1_555
Br79 Sm35 2.917979 1_545
Br79 Sm39 2.980475 1_555
Br79 Sm27 3.105330 1_655
Br80 Sm36 3.066616 1_555
Br80 Sm32 3.072564 1_555
Br80 Sm28 3.226230 1_555
Br80 Sm24 3.242342 1_555
Br81 Sm37 3.066616 1_555
Br81 Sm33 3.072564 1_565
Br81 Sm29 3.226230 1_565
Br81 Sm25 3.242342 1_555
Br82 Sm38 3.066616 1_555
Br82 Sm34 3.072564 1_555
Br82 Sm30 3.226230 1_555
Br82 Sm26 3.242342 1_555
Br83 Sm39 3.066616 1_555
Br83 Sm35 3.072564 1_545
Br83 Sm31 3.226230 1_545
Br83 Sm27 3.242342 1_555
Br84 Sm36 2.955670 1_655
Br84 Sm28 3.020214 1_555
Br84 Sm20 3.093679 1_655
Br85 Sm37 2.955670 1_545
Br85 Sm29 3.020214 1_455
Br85 Sm21 3.093679 1_555
Br86 Sm38 2.955670 1_455
Br86 Sm30 3.020214 1_555
Br86 Sm22 3.093679 1_455
Br87 Sm39 2.955670 1_565
Br87 Sm31 3.020214 1_655
Br87 Sm23 3.093679 1_555
Br88 Sm36 3.055212 1_555
Br88 Sm28 3.086970 1_555
Br88 Sm20 3.119117 1_555
Br88 Sm8 3.128580 1_555
Br89 Sm37 3.055212 1_555
Br89 Sm29 3.086970 1_565
Br89 Sm21 3.119117 1_565
Br89 Sm9 3.128580 1_555
Br90 Sm38 3.055212 1_555
Br90 Sm30 3.086970 1_555
Br90 Sm22 3.119117 1_555
Br90 Sm10 3.128580 1_555
Br91 Sm39 3.055212 1_555
Br91 Sm31 3.086970 1_545
Br91 Sm23 3.119117 1_545
Br91 Sm11 3.128580 1_555
Br92 Sm40 2.915208 1_555
Br92 Sm41 2.991850 1_555
Br92 Sm32 3.037958 1_655
Br93 Sm41 2.915208 1_545
Br93 Sm40 2.991850 1_455
Br93 Sm33 3.037958 1_555
Br94 Sm42 2.915208 1_555
Br94 Sm43 2.991850 1_555
Br94 Sm34 3.037958 1_455
Br95 Sm43 2.915208 1_565
Br95 Sm42 2.991850 1_655
Br95 Sm35 3.037958 1_555
