# generated using pymatgen
data_Ce8Fe8As8O7F
_symmetry_space_group_name_H-M   'P 1'
_cell_length_a   7.95222086
_cell_length_b   7.95222128
_cell_length_c   10.56299915
_cell_angle_alpha   67.86910301
_cell_angle_beta   67.86909793
_cell_angle_gamma   89.95353690
_symmetry_Int_Tables_number   1
_chemical_formula_structural   Ce8Fe8As8O7F
_chemical_formula_sum   'Ce8 Fe8 As8 O7 F1'
_cell_volume   565.37709524
_cell_formula_units_Z   1
loop_
 _symmetry_equiv_pos_site_id
 _symmetry_equiv_pos_as_xyz
  1  'x, y, z'
loop_
 _atom_site_type_symbol
 _atom_site_label
 _atom_site_symmetry_multiplicity
 _atom_site_fract_x
 _atom_site_fract_y
 _atom_site_fract_z
 _atom_site_occupancy
  Ce  Ce0  1  0.06151000  0.55155900  0.14814600  1
  Ce  Ce1  1  0.05555500  0.05575600  0.13896400  1
  Ce  Ce2  1  0.54034400  0.55029500  0.14814600  1
  Ce  Ce3  1  0.55548200  0.05528000  0.13896400  1
  Ce  Ce4  1  0.44472000  0.94451800  0.86103600  1
  Ce  Ce5  1  0.44424400  0.44444500  0.86103600  1
  Ce  Ce6  1  0.94970500  0.95965600  0.85185400  1
  Ce  Ce7  1  0.94844100  0.43849000  0.85185400  1
  Fe  Fe0  1  0.12453400  0.87453400  0.50093200  1
  Fe  Fe1  1  0.12500000  0.37500000  0.50000000  1
  Fe  Fe2  1  0.37848600  0.62848600  0.50000000  1
  Fe  Fe3  1  0.37715700  0.12284300  0.50000000  1
  Fe  Fe4  1  0.62500000  0.87500000  0.50000000  1
  Fe  Fe5  1  0.62546600  0.37546600  0.49906800  1
  Fe  Fe6  1  0.87284300  0.62715700  0.50000000  1
  Fe  Fe7  1  0.87151400  0.12151400  0.50000000  1
  As  As0  1  0.21862900  0.71827800  0.31416000  1
  As  As1  1  0.21721100  0.21756200  0.31416000  1
  As  As2  1  0.27921500  0.78008300  0.68971200  1
  As  As3  1  0.28243800  0.28278900  0.68584000  1
  As  As4  1  0.71979500  0.71892700  0.31028800  1
  As  As5  1  0.71991700  0.22078500  0.31028800  1
  As  As6  1  0.78107300  0.78020500  0.68971200  1
  As  As7  1  0.78172200  0.28137100  0.68584000  1
  O  O0  1  0.12202600  0.87202600  0.00000000  1
  O  O1  1  0.12176100  0.37823900  0.00000000  1
  O  O2  1  0.37357200  0.62357200  0.00285500  1
  O  O3  1  0.37500000  0.12500000  0.00000000  1
  O  O4  1  0.62823900  0.87176100  0.00000000  1
  O  O5  1  0.62797400  0.37797400  0.00000000  1
  O  O6  1  0.87642800  0.12642800  0.99714500  1
  F  F0  1  0.87500000  0.62500000  0.00000000  1
loop_
_geom_bond_atom_site_label_1
_geom_bond_atom_site_label_2
_geom_bond_distance
_geom_bond_site_symmetry_2
Ce0 O2 2.304810 1_555
Ce0 O0 2.367434 1_555
Ce0 O1 2.374256 1_555
Ce0 F0 2.459351 1_455
Ce1 O3 2.344092 1_555
Ce1 O6 2.358215 1_454
Ce1 O1 2.364739 1_555
Ce1 O0 2.366179 1_545
Ce2 O2 2.304817 1_555
Ce2 O5 2.367434 1_555
Ce2 O4 2.374256 1_555
Ce2 F0 2.459351 1_555
Ce3 O3 2.344098 1_555
Ce3 O6 2.358215 1_554
Ce3 O4 2.364739 1_545
Ce3 O5 2.366179 1_555
Ce4 O3 2.344098 1_566
Ce4 O2 2.358215 1_556
Ce4 O4 2.364739 1_556
Ce4 O0 2.366179 1_556
Ce5 O3 2.344092 1_556
Ce5 O2 2.358215 1_556
Ce5 O1 2.364739 1_556
Ce5 O5 2.366179 1_556
Ce6 O6 2.304816 1_565
Ce6 O0 2.367434 1_656
Ce6 O4 2.374256 1_556
Ce6 F0 2.459351 1_556
Ce7 O6 2.304810 1_555
Ce7 O5 2.367434 1_556
Ce7 O1 2.374256 1_656
Ce7 F0 2.459351 1_556
As0 Fe1 2.593131 1_555
As0 Fe0 2.594111 1_555
As0 Fe2 2.608053 1_555
As0 Fe6 2.608495 1_455
As0 Ce2 3.127932 1_555
As0 Ce0 3.130362 1_555
As0 Ce3 3.212815 1_565
As0 Ce1 3.220125 1_565
As1 Fe1 2.593131 1_555
As1 Fe0 2.594111 1_545
As1 Fe7 2.608054 1_455
As1 Fe3 2.608495 1_555
As1 Ce0 3.127932 1_555
As1 Ce2 3.130363 1_555
As1 Ce1 3.212809 1_555
As1 Ce3 3.220129 1_555
As2 Fe2 2.592093 1_555
As2 Fe3 2.600744 1_565
As2 Fe0 2.602242 1_555
As2 Fe4 2.618895 1_555
As2 Ce5 3.203996 1_555
As2 Ce6 3.208430 1_455
As2 Ce4 3.208955 1_555
As2 Ce7 3.216075 1_455
As3 Fe1 2.593131 1_555
As3 Fe5 2.594111 1_555
As3 Fe2 2.608054 1_555
As3 Fe3 2.608495 1_555
As3 Ce7 3.127932 1_455
As3 Ce6 3.130363 1_445
As3 Ce5 3.212809 1_555
As3 Ce4 3.220130 1_545
As4 Fe2 2.592093 1_555
As4 Fe6 2.600744 1_555
As4 Fe5 2.602243 1_555
As4 Fe4 2.618895 1_555
As4 Ce3 3.203991 1_565
As4 Ce0 3.208430 1_655
As4 Ce1 3.208960 1_665
As4 Ce2 3.216074 1_555
As5 Fe7 2.592093 1_555
As5 Fe3 2.600744 1_555
As5 Fe5 2.602242 1_555
As5 Fe4 2.618896 1_545
As5 Ce1 3.203996 1_655
As5 Ce2 3.208430 1_555
As5 Ce3 3.208955 1_555
As5 Ce0 3.216075 1_655
As6 Fe7 2.592093 1_565
As6 Fe6 2.600744 1_555
As6 Fe0 2.602242 1_655
As6 Fe4 2.618895 1_555
As6 Ce4 3.203991 1_555
As6 Ce7 3.208430 1_555
As6 Ce5 3.208960 1_555
As6 Ce6 3.216074 1_555
As7 Fe1 2.593131 1_655
As7 Fe5 2.594111 1_555
As7 Fe7 2.608053 1_555
As7 Fe6 2.608495 1_555
As7 Ce6 3.127932 1_545
As7 Ce7 3.130362 1_555
As7 Ce4 3.212815 1_545
As7 Ce5 3.220125 1_555
