# generated using pymatgen
data_K2Fe2P2O7F2
_symmetry_space_group_name_H-M   'P 1'
_cell_length_a   7.31031900
_cell_length_b   11.11279000
_cell_length_c   11.89247900
_cell_angle_alpha   90.00000000
_cell_angle_beta   90.00000000
_cell_angle_gamma   90.00000000
_symmetry_Int_Tables_number   1
_chemical_formula_structural   K2Fe2P2O7F2
_chemical_formula_sum   'K8 Fe8 P8 O28 F8'
_cell_volume   966.12168327
_cell_formula_units_Z   4
loop_
 _symmetry_equiv_pos_site_id
 _symmetry_equiv_pos_as_xyz
  1  'x, y, z'
loop_
 _atom_site_type_symbol
 _atom_site_label
 _atom_site_symmetry_multiplicity
 _atom_site_fract_x
 _atom_site_fract_y
 _atom_site_fract_z
 _atom_site_occupancy
  K  K0  1  0.57282400  0.95121400  0.18478800  1
  K  K1  1  0.92717600  0.45121400  0.31521200  1
  K  K2  1  0.92717600  0.95121400  0.68478800  1
  K  K3  1  0.57282400  0.45121400  0.81521200  1
  K  K4  1  0.07282400  0.04878600  0.31521200  1
  K  K5  1  0.42717600  0.04878600  0.81521200  1
  K  K6  1  0.07282400  0.54878600  0.68478800  1
  K  K7  1  0.42717600  0.54878600  0.18478800  1
  Fe  Fe0  1  0.00000000  0.75000000  0.11518400  1
  Fe  Fe1  1  0.50000000  0.25000000  0.38481600  1
  Fe  Fe2  1  0.50000000  0.75000000  0.61518400  1
  Fe  Fe3  1  0.00000000  0.50000000  0.00000000  1
  Fe  Fe4  1  0.00000000  0.00000000  0.00000000  1
  Fe  Fe5  1  0.00000000  0.25000000  0.88481600  1
  Fe  Fe6  1  0.50000000  0.00000000  0.50000000  1
  Fe  Fe7  1  0.50000000  0.50000000  0.50000000  1
  P  P0  1  0.19463400  0.71809300  0.41555400  1
  P  P1  1  0.69463400  0.78190700  0.91555400  1
  P  P2  1  0.69463400  0.28190700  0.08444600  1
  P  P3  1  0.30536600  0.21809300  0.08444600  1
  P  P4  1  0.19463400  0.21809300  0.58444600  1
  P  P5  1  0.80536600  0.28190700  0.58444600  1
  P  P6  1  0.30536600  0.71809300  0.91555400  1
  P  P7  1  0.80536600  0.78190700  0.41555400  1
  O  O0  1  0.72546400  0.70651000  0.01809000  1
  O  O1  1  0.77453600  0.70651000  0.51809000  1
  O  O2  1  0.27453600  0.29349000  0.98191000  1
  O  O3  1  0.44080900  0.08354600  0.36562500  1
  O  O4  1  0.22546400  0.29349000  0.48191000  1
  O  O5  1  0.27748700  0.08473300  0.08506200  1
  O  O6  1  0.00000000  0.25000000  0.64194100  1
  O  O7  1  0.00000000  0.75000000  0.35805900  1
  O  O8  1  0.55919100  0.41645400  0.36562500  1
  O  O9  1  0.27748700  0.58473300  0.91493800  1
  O  O10  1  0.22251300  0.58473300  0.41493800  1
  O  O11  1  0.72251300  0.41526700  0.08506200  1
  O  O12  1  0.72251300  0.91526700  0.91493800  1
  O  O13  1  0.94080900  0.91645400  0.13437500  1
  O  O14  1  0.72546400  0.20651000  0.98191000  1
  O  O15  1  0.44080900  0.58354600  0.63437500  1
  O  O16  1  0.22251300  0.08473300  0.58506200  1
  O  O17  1  0.55919100  0.91645400  0.63437500  1
  O  O18  1  0.27453600  0.79349000  0.01809000  1
  O  O19  1  0.22546400  0.79349000  0.51809000  1
  O  O20  1  0.77453600  0.20651000  0.48191000  1
  O  O21  1  0.50000000  0.25000000  0.14194100  1
  O  O22  1  0.77748700  0.41526700  0.58506200  1
  O  O23  1  0.94080900  0.41645400  0.86562500  1
  O  O24  1  0.05919100  0.08354600  0.86562500  1
  O  O25  1  0.77748700  0.91526700  0.41493800  1
  O  O26  1  0.05919100  0.58354600  0.13437500  1
  O  O27  1  0.50000000  0.75000000  0.85805900  1
  F  F0  1  0.31527800  0.77332500  0.31494700  1
  F  F1  1  0.68472200  0.22667500  0.68505300  1
  F  F2  1  0.18472200  0.27332500  0.18505300  1
  F  F3  1  0.31527800  0.27332500  0.68505300  1
  F  F4  1  0.81527800  0.72667500  0.81494700  1
  F  F5  1  0.18472200  0.77332500  0.81494700  1
  F  F6  1  0.68472200  0.72667500  0.31494700  1
  F  F7  1  0.81527800  0.22667500  0.18505300  1
loop_
_geom_bond_atom_site_label_1
_geom_bond_atom_site_label_2
_geom_bond_distance
_geom_bond_site_symmetry_2
K0 O3 2.778317 1_565
K0 O13 2.783025 1_555
K0 O5 2.875666 1_565
K0 O25 3.144760 1_555
K1 O26 2.778317 1_655
K1 O8 2.783025 1_555
K1 O10 2.875666 1_655
K1 O11 3.144760 1_555
K2 O24 2.778317 1_665
K2 O17 2.783025 1_555
K2 O16 2.875666 1_665
K2 O12 3.144760 1_555
K3 O15 2.778317 1_555
K3 O23 2.783025 1_555
K3 O9 2.875666 1_555
K3 O22 3.144760 1_555
K4 O13 2.778317 1_445
K4 O3 2.783025 1_555
K4 O25 2.875666 1_445
K4 O5 3.144760 1_555
K5 O17 2.778317 1_545
K5 O24 2.783025 1_555
K5 O12 2.875666 1_545
K5 O16 3.144760 1_555
K6 O23 2.778317 1_455
K6 O15 2.783025 1_555
K6 O22 2.875666 1_455
K6 O9 3.144760 1_555
K7 O8 2.778317 1_555
K7 O26 2.783025 1_555
K7 O11 2.875666 1_555
K7 O10 3.144760 1_555
Fe0 O13 1.913365 1_455
Fe0 O26 1.913365 1_555
Fe0 O18 2.365314 1_555
Fe0 O0 2.365314 1_455
Fe1 O8 1.913365 1_555
Fe1 O3 1.913365 1_555
Fe1 O4 2.365314 1_555
Fe1 O20 2.365314 1_555
Fe2 O17 1.913365 1_555
Fe2 O15 1.913365 1_555
Fe2 O1 2.365314 1_555
Fe2 O19 2.365314 1_555
Fe3 O26 1.898153 1_555
Fe3 O23 1.898153 1_454
Fe3 O9 2.454560 1_554
Fe3 O11 2.454560 1_455
Fe4 O13 1.898153 1_445
Fe4 O24 1.898153 1_554
Fe4 O12 2.454560 1_444
Fe4 O5 2.454560 1_555
Fe5 O23 1.913365 1_455
Fe5 O24 1.913365 1_555
Fe5 O2 2.365314 1_555
Fe5 O14 2.365314 1_455
Fe6 O3 1.898153 1_555
Fe6 O17 1.898153 1_545
Fe6 O25 2.454560 1_545
Fe6 O16 2.454560 1_555
Fe7 O15 1.898153 1_555
Fe7 O8 1.898153 1_555
Fe7 O22 2.454560 1_555
Fe7 O10 2.454560 1_555
O0 P1 1.496588 1_554
O1 P7 1.496588 1_555
O2 P3 1.496588 1_556
O4 P4 1.496588 1_555
O5 P3 1.495968 1_555
O6 P5 1.617935 1_455
O6 P4 1.617935 1_555
O7 P7 1.617935 1_455
O7 P0 1.617935 1_555
O9 P6 1.495968 1_555
O10 P0 1.495968 1_555
O11 P2 1.495968 1_555
O12 P1 1.495968 1_555
O14 P2 1.496588 1_556
O16 P4 1.495968 1_555
O18 P6 1.496588 1_554
O19 P0 1.496588 1_555
O20 P5 1.496588 1_555
O21 P3 1.617935 1_555
O21 P2 1.617935 1_555
O22 P5 1.495968 1_555
O25 P7 1.495968 1_555
O27 P1 1.617935 1_555
O27 P6 1.617935 1_555
F0 P0 1.608132 1_555
F0 K7 3.048192 1_555
F0 K0 3.138259 1_555
F1 P5 1.608132 1_555
F1 K3 3.048192 1_555
F1 K5 3.138259 1_555
F2 P3 1.608132 1_555
F2 K4 3.048192 1_555
F2 K1 3.138259 1_455
F3 P4 1.608132 1_555
F3 K5 3.048192 1_555
F3 K3 3.138259 1_555
F4 P1 1.608132 1_555
F4 K2 3.048192 1_555
F4 K6 3.138259 1_655
F5 P6 1.608132 1_555
F5 K6 3.048192 1_555
F5 K2 3.138259 1_455
F6 P7 1.608132 1_555
F6 K0 3.048192 1_555
F6 K7 3.138259 1_555
F7 P2 1.608132 1_555
F7 K1 3.048192 1_555
F7 K4 3.138259 1_655
