# generated using pymatgen
data_GdCo9Si4
_symmetry_space_group_name_H-M   'P 1'
_cell_length_a   8.11797302
_cell_length_b   8.11797302
_cell_length_c   8.11797302
_cell_angle_alpha   122.71703311
_cell_angle_beta   122.71703311
_cell_angle_gamma   85.35504825
_symmetry_Int_Tables_number   1
_chemical_formula_structural   GdCo9Si4
_chemical_formula_sum   'Gd2 Co18 Si8'
_cell_volume   361.46092320
_cell_formula_units_Z   2
loop_
 _symmetry_equiv_pos_site_id
 _symmetry_equiv_pos_as_xyz
  1  'x, y, z'
loop_
 _atom_site_type_symbol
 _atom_site_label
 _atom_site_symmetry_multiplicity
 _atom_site_fract_x
 _atom_site_fract_y
 _atom_site_fract_z
 _atom_site_occupancy
  Gd  Gd0  1  0.75000000  0.75000000  0.00000000  1
  Gd  Gd1  1  0.25000000  0.25000000  0.00000000  1
  Co  Co0  1  0.22735400  0.52208800  0.74944200  1
  Co  Co1  1  0.52208800  0.77264600  0.29473400  1
  Co  Co2  1  0.43790700  0.70189400  0.50000000  1
  Co  Co3  1  0.47791200  0.22735400  0.70526600  1
  Co  Co4  1  0.79810600  0.06209300  0.50000000  1
  Co  Co5  1  0.29810600  0.79810600  0.73601300  1
  Co  Co6  1  0.77264600  0.47791200  0.25055800  1
  Co  Co7  1  0.72735400  0.97791200  0.70526600  1
  Co  Co8  1  0.06209300  0.56209300  0.26398700  1
  Co  Co9  1  0.56209300  0.29810600  0.50000000  1
  Co  Co10  1  0.70189400  0.20189400  0.26398700  1
  Co  Co11  1  0.93790700  0.43790700  0.73601300  1
  Co  Co12  1  0.20189400  0.93790700  0.50000000  1
  Co  Co13  1  0.97791200  0.27264600  0.25055800  1
  Co  Co14  1  0.02208800  0.72735400  0.74944200  1
  Co  Co15  1  0.27264600  0.02208800  0.29473400  1
  Co  Co16  1  0.00000000  0.00000000  0.00000000  1
  Co  Co17  1  0.50000000  0.50000000  0.00000000  1
  Si  Si0  1  0.68408200  0.54500500  0.50000000  1
  Si  Si1  1  0.31591800  0.45499500  0.50000000  1
  Si  Si2  1  0.18408200  0.68408200  0.13907700  1
  Si  Si3  1  0.54500500  0.04500500  0.86092300  1
  Si  Si4  1  0.81591800  0.31591800  0.86092300  1
  Si  Si5  1  0.04500500  0.18408200  0.50000000  1
  Si  Si6  1  0.45499500  0.95499500  0.13907700  1
  Si  Si7  1  0.95499500  0.81591800  0.50000000  1
loop_
_geom_bond_atom_site_label_1
_geom_bond_atom_site_label_2
_geom_bond_distance
_geom_bond_site_symmetry_2
Gd0 Si4 3.166330 1_554
Gd0 Si6 3.166330 1_555
Gd0 Si7 3.166330 1_555
Gd0 Si3 3.166330 1_564
Gd0 Si0 3.166330 1_554
Gd0 Si5 3.166330 1_665
Gd0 Si1 3.166330 1_554
Gd0 Si2 3.166330 1_655
Gd1 Si6 3.166330 1_545
Gd1 Si3 3.166330 1_554
Gd1 Si2 3.166330 1_555
Gd1 Si0 3.166330 1_555
Gd1 Si4 3.166330 1_454
Gd1 Si7 3.166330 1_444
Gd1 Si5 3.166330 1_554
Gd1 Si1 3.166330 1_555
Co0 Co17 2.128774 1_556
Co0 Co14 2.259133 1_555
Co0 Si5 2.287389 1_555
Co0 Si1 2.287389 1_555
Co0 Co11 2.429553 1_455
Co0 Co5 2.429553 1_555
Co0 Si2 2.913327 1_556
Co0 Si6 2.913327 1_556
Co1 Co17 2.128774 1_555
Co1 Co7 2.259133 1_555
Co1 Si6 2.287389 1_555
Co1 Si2 2.287389 1_555
Co1 Co4 2.429553 1_565
Co1 Co2 2.429553 1_555
Co1 Si7 2.913327 1_555
Co1 Si0 2.913327 1_555
Co2 Si0 2.281150 1_555
Co2 Si1 2.306398 1_555
Co2 Co7 2.429553 1_555
Co2 Si3 2.432178 1_565
Co2 Si2 2.432178 1_555
Co2 Co8 2.481570 1_555
Co2 Co5 2.481570 1_555
Co2 Gd0 3.221350 1_556
Co2 Gd1 3.221350 1_555
Co3 Si4 2.287389 1_555
Co3 Si3 2.287389 1_555
Co3 Co9 2.429553 1_555
Co3 Si1 2.913327 1_555
Co3 Si5 2.913327 1_555
Co4 Si7 2.281150 1_545
Co4 Si5 2.306398 1_655
Co4 Co7 2.429553 1_545
Co4 Si4 2.432178 1_555
Co4 Si6 2.432178 1_545
Co4 Co9 2.597531 1_555
Co4 Gd0 3.221350 1_545
Co4 Gd1 3.221350 1_656
Co5 Si6 2.281150 1_556
Co5 Si3 2.306398 1_565
Co5 Si7 2.432178 1_455
Co5 Si1 2.432178 1_555
Co5 Co8 2.597531 1_555
Co5 Gd1 3.221350 1_566
Co5 Gd0 3.221350 1_556
Co6 Si7 2.287389 1_555
Co6 Si0 2.287389 1_555
Co6 Co8 2.429553 1_655
Co6 Si3 2.913327 1_554
Co6 Si4 2.913327 1_554
Co7 Si4 2.287389 1_565
Co7 Si3 2.287389 1_565
Co7 Si7 2.913327 1_555
Co7 Si0 2.913327 1_555
Co8 Si4 2.281150 1_454
Co8 Si2 2.306398 1_555
Co8 Si7 2.432178 1_455
Co8 Si1 2.432178 1_555
Co8 Gd1 3.221350 1_555
Co8 Gd0 3.221350 1_455
Co9 Si1 2.281150 1_555
Co9 Si0 2.306398 1_555
Co9 Si6 2.432178 1_545
Co9 Si4 2.432178 1_555
Co9 Gd0 3.221350 1_556
Co9 Gd1 3.221350 1_555
Co10 Si3 2.281150 1_554
Co10 Si6 2.306398 1_545
Co10 Co13 2.429553 1_555
Co10 Co6 2.429553 1_555
Co10 Si0 2.432178 1_555
Co10 Si5 2.432178 1_655
Co10 Co4 2.481570 1_555
Co10 Co9 2.481570 1_555
Co10 Co11 2.597531 1_555
Co10 Gd0 3.221350 1_545
Co10 Gd1 3.221350 1_555
Co11 Si2 2.281150 1_656
Co11 Si4 2.306398 1_555
Co11 Co14 2.429553 1_655
Co11 Si5 2.432178 1_655
Co11 Si0 2.432178 1_555
Co11 Co4 2.481570 1_555
Co11 Co9 2.481570 1_555
Co11 Gd1 3.221350 1_656
Co11 Gd0 3.221350 1_556
Co12 Si5 2.281150 1_565
Co12 Si7 2.306398 1_455
Co12 Co3 2.429553 1_565
Co12 Co15 2.429553 1_565
Co12 Si3 2.432178 1_565
Co12 Si2 2.432178 1_555
Co12 Co8 2.481570 1_555
Co12 Co5 2.481570 1_555
Co12 Co2 2.597531 1_555
Co12 Gd1 3.221350 1_566
Co12 Gd0 3.221350 1_455
Co13 Co16 2.128774 1_655
Co13 Co6 2.259133 1_555
Co13 Si1 2.287389 1_655
Co13 Si5 2.287389 1_655
Co13 Co8 2.429553 1_655
Co13 Si4 2.913327 1_554
Co13 Si3 2.913327 1_554
Co14 Co16 2.128774 1_566
Co14 Si0 2.287389 1_455
Co14 Si7 2.287389 1_455
Co14 Co5 2.429553 1_555
Co14 Si2 2.913327 1_556
Co14 Si6 2.913327 1_556
Co15 Co16 2.128774 1_555
Co15 Co3 2.259133 1_555
Co15 Si6 2.287389 1_545
Co15 Si2 2.287389 1_545
Co15 Co9 2.429553 1_555
Co15 Si5 2.913327 1_555
Co15 Si1 2.913327 1_555
Co16 Co7 2.128774 1_444
Co16 Gd0 2.984088 1_445
Co16 Gd1 2.984088 1_555
Co17 Co6 2.128774 1_555
Co17 Co3 2.128774 1_554
Co17 Gd0 2.984088 1_555
Co17 Gd1 2.984088 1_555
