# generated using pymatgen
data_Ta11O2
_symmetry_space_group_name_H-M   'P 1'
_cell_length_a   13.58002855
_cell_length_b   7.49330192
_cell_length_c   9.76455481
_cell_angle_alpha   63.77772192
_cell_angle_beta   44.22485122
_cell_angle_gamma   40.86402332
_symmetry_Int_Tables_number   1
_chemical_formula_structural   Ta11O2
_chemical_formula_sum   'Ta22 O4'
_cell_volume   442.38849157
_cell_formula_units_Z   2
loop_
 _symmetry_equiv_pos_site_id
 _symmetry_equiv_pos_as_xyz
  1  'x, y, z'
loop_
 _atom_site_type_symbol
 _atom_site_label
 _atom_site_symmetry_multiplicity
 _atom_site_fract_x
 _atom_site_fract_y
 _atom_site_fract_z
 _atom_site_occupancy
  Ta  Ta0  1  0.97787400  0.29258600  0.37411400  1
  Ta  Ta1  1  0.21381700  0.23039100  0.36526500  1
  Ta  Ta2  1  0.19931900  0.74262400  0.19504400  1
  Ta  Ta3  1  0.20216100  0.23773700  0.68911600  1
  Ta  Ta4  1  0.45249700  0.26138600  0.27059300  1
  Ta  Ta5  1  0.45750800  0.74439000  0.78132900  1
  Ta  Ta6  1  0.95510100  0.74018900  0.94381400  1
  Ta  Ta7  1  0.70757300  0.24101200  0.84833700  1
  Ta  Ta8  1  0.74099700  0.70840900  0.65841600  1
  Ta  Ta9  1  0.20167600  0.75849000  0.51977500  1
  Ta  Ta10  1  0.43514500  0.21716900  0.64661400  1
  Ta  Ta11  1  0.65321600  0.31093000  0.22983900  1
  Ta  Ta12  1  0.69731100  0.74980100  0.03559300  1
  Ta  Ta13  1  0.25616100  0.72323000  0.79733300  1
  Ta  Ta14  1  0.96203400  0.24554200  0.09716300  1
  Ta  Ta15  1  0.44255100  0.24534100  0.94564400  1
  Ta  Ta16  1  0.68177300  0.76891900  0.36352700  1
  Ta  Ta17  1  0.70404000  0.24858000  0.51775700  1
  Ta  Ta18  1  0.44984000  0.76065500  0.09071300  1
  Ta  Ta19  1  0.96334600  0.74773600  0.25505200  1
  Ta  Ta20  1  0.94173800  0.25273500  0.78764400  1
  Ta  Ta21  1  0.95237300  0.71234300  0.62182100  1
  O  O0  1  0.95523000  0.99670000  0.02190800  1
  O  O1  1  0.42396000  0.02195700  0.88146200  1
  O  O2  1  0.45276700  0.51781000  0.51346800  1
  O  O3  1  0.95572900  0.01523800  0.51359900  1
loop_
_geom_bond_atom_site_label_1
_geom_bond_atom_site_label_2
_geom_bond_distance
_geom_bond_site_symmetry_2
Ta0 Ta16 2.735112 1_555
Ta0 Ta1 2.805564 1_655
Ta1 Ta21 2.788802 1_455
Ta1 Ta4 2.840584 1_555
Ta1 Ta15 2.886073 1_554
Ta1 Ta20 2.919614 1_455
Ta1 Ta18 2.968072 1_545
Ta1 Ta19 3.061259 1_455
Ta1 Ta3 3.074285 1_555
Ta1 Ta8 3.191205 1_455
Ta1 Ta9 3.258549 1_545
Ta1 Ta12 3.260350 1_545
Ta1 Ta2 3.349961 1_555
Ta2 Ta4 2.810775 1_555
Ta3 Ta5 2.940337 1_545
Ta3 Ta4 2.940931 1_555
Ta3 Ta6 2.970996 1_455
Ta4 Ta7 2.882574 1_554
Ta4 Ta9 2.887577 1_555
Ta10 Ta3 2.764686 1_555
Ta10 Ta16 2.839212 1_545
Ta11 Ta4 2.751621 1_555
Ta11 Ta12 3.257226 1_555
Ta11 Ta16 3.465231 1_545
Ta12 Ta21 2.806199 1_554
Ta12 Ta14 2.847268 1_555
Ta12 Ta6 2.871074 1_554
Ta12 Ta20 2.916167 1_554
Ta12 Ta15 2.927619 1_564
Ta12 Ta4 2.928643 1_565
Ta12 Ta18 2.936536 1_555
Ta12 Ta16 3.116081 1_555
Ta12 Ta7 3.372543 1_564
Ta12 Ta3 3.407587 1_654
Ta12 Ta8 3.407646 1_554
Ta13 Ta3 3.122869 1_565
Ta14 Ta3 2.794355 1_654
Ta14 Ta16 2.980120 1_555
Ta16 Ta4 2.801263 1_565
Ta16 Ta5 2.886058 1_555
Ta16 Ta6 2.896337 1_554
Ta16 Ta19 3.032178 1_555
Ta16 Ta3 3.233352 1_565
Ta16 Ta8 3.279859 1_555
Ta16 Ta17 3.352964 1_555
Ta20 Ta3 2.839607 1_655
Ta21 Ta3 2.732932 1_655
O0 Ta13 2.041924 1_654
O0 Ta11 2.042322 1_565
O0 Ta19 2.229484 1_555
O0 Ta20 2.266647 1_564
O0 Ta6 2.361840 1_554
O0 Ta14 2.365205 1_565
O1 Ta10 2.072199 1_555
O1 Ta8 2.140752 1_545
O1 Ta18 2.141279 1_546
O1 Ta15 2.247531 1_555
O1 Ta5 2.283639 1_545
O2 Ta11 2.022316 1_555
O2 Ta13 2.031888 1_555
O2 Ta10 2.145662 1_555
O2 Ta9 2.319274 1_555
O2 Ta17 2.330954 1_555
O3 Ta0 2.030146 1_555
O3 Ta21 2.058671 1_545
O3 Ta9 2.308120 1_645
O3 Ta7 2.319239 1_555
O3 Ta2 2.332016 1_645
O3 Ta17 2.359194 1_555
