# generated using pymatgen
data_CdI2
_symmetry_space_group_name_H-M   'P 1'
_cell_length_a   4.29259599
_cell_length_b   4.29259539
_cell_length_c   28.87162883
_cell_angle_alpha   90.00000000
_cell_angle_beta   90.00000000
_cell_angle_gamma   119.99998038
_symmetry_Int_Tables_number   1
_chemical_formula_structural   CdI2
_chemical_formula_sum   'Cd4 I8'
_cell_volume   460.72520744
_cell_formula_units_Z   4
loop_
 _symmetry_equiv_pos_site_id
 _symmetry_equiv_pos_as_xyz
  1  'x, y, z'
loop_
 _atom_site_type_symbol
 _atom_site_label
 _atom_site_symmetry_multiplicity
 _atom_site_fract_x
 _atom_site_fract_y
 _atom_site_fract_z
 _atom_site_occupancy
  Cd  Cd0  1  0.00000000  -0.00000000  0.56264880  1
  Cd  Cd1  1  0.66666700  0.33333300  0.31229751  1
  Cd  Cd2  1  0.66666700  0.33333300  0.81238671  1
  Cd  Cd3  1  0.66666700  0.33333300  0.06277351  1
  I  I0  1  0.33333300  0.66666700  0.37165621  1
  I  I1  1  0.33333300  0.66666700  0.12210665  1
  I  I2  1  0.33333300  0.66666700  0.87191113  1
  I  I3  1  0.00000000  -0.00000000  0.00322804  1
  I  I4  1  0.66666700  0.33333300  0.50318039  1
  I  I5  1  0.00000000  0.00000000  0.75287421  1
  I  I6  1  0.33333300  0.66666700  0.62208164  1
  I  I7  1  0.00000000  0.00000000  0.25285421  1
loop_
_geom_bond_atom_site_label_1
_geom_bond_atom_site_label_2
_geom_bond_distance
_geom_bond_site_symmetry_2
Cd0 I6 3.014383 1_545
Cd0 I6 3.014386 1_555
Cd0 I6 3.014387 1_445
Cd0 I4 3.014968 1_455
Cd0 I4 3.014971 1_445
Cd0 I4 3.014971 1_555
Cd1 I0 3.013165 1_545
Cd1 I0 3.013166 1_655
Cd1 I0 3.013171 1_555
Cd1 I7 3.014555 1_655
Cd1 I7 3.014558 1_665
Cd1 I7 3.014559 1_555
Cd2 I5 3.015693 1_655
Cd2 I5 3.015696 1_665
Cd2 I5 3.015696 1_555
Cd2 I2 3.015889 1_545
Cd2 I2 3.015889 1_655
Cd2 I2 3.015895 1_555
Cd3 I1 3.012746 1_545
Cd3 I1 3.012746 1_655
Cd3 I1 3.012751 1_555
Cd3 I3 3.016235 1_655
Cd3 I3 3.016239 1_665
Cd3 I3 3.016239 1_555
