# generated using pymatgen
data_Tl18Ag59Se39
_symmetry_space_group_name_H-M   'P 1'
_cell_length_a   15.24751583
_cell_length_b   15.24751583
_cell_length_c   14.03380100
_cell_angle_alpha   90.00000000
_cell_angle_beta   90.00000000
_cell_angle_gamma   119.99999925
_symmetry_Int_Tables_number   1
_chemical_formula_structural   Tl18Ag59Se39
_chemical_formula_sum   'Tl18 Ag59 Se39'
_cell_volume   2825.55740195
_cell_formula_units_Z   1
loop_
 _symmetry_equiv_pos_site_id
 _symmetry_equiv_pos_as_xyz
  1  'x, y, z'
loop_
 _atom_site_type_symbol
 _atom_site_label
 _atom_site_symmetry_multiplicity
 _atom_site_fract_x
 _atom_site_fract_y
 _atom_site_fract_z
 _atom_site_occupancy
  Tl  Tl0  1  0.14133900  0.68463400  0.09306600  1
  Tl  Tl1  1  0.15743200  0.70433600  0.73688000  1
  Tl  Tl2  1  0.14248900  0.68173900  0.41969700  1
  Tl  Tl3  1  0.31536600  0.45670500  0.09306600  1
  Tl  Tl4  1  0.29566400  0.45309600  0.73688000  1
  Tl  Tl5  1  0.31826100  0.46075000  0.41969700  1
  Tl  Tl6  1  0.54329500  0.85866100  0.09306600  1
  Tl  Tl7  1  0.53925000  0.85751100  0.41969700  1
  Tl  Tl8  1  0.54690400  0.84256800  0.73688000  1
  Tl  Tl9  1  0.45162900  0.13494500  0.23456400  1
  Tl  Tl10  1  0.46681200  0.15134800  0.58363700  1
  Tl  Tl11  1  0.45722100  0.14138200  0.93528300  1
  Tl  Tl12  1  0.68331600  0.54837100  0.23456400  1
  Tl  Tl13  1  0.68453600  0.53318800  0.58363700  1
  Tl  Tl14  1  0.68416200  0.54277900  0.93528300  1
  Tl  Tl15  1  0.86505500  0.31668400  0.23456400  1
  Tl  Tl16  1  0.84865200  0.31546400  0.58363700  1
  Tl  Tl17  1  0.85861800  0.31583800  0.93528300  1
  Ag  Ag0  1  0.01102500  0.88977100  0.07715200  1
  Ag  Ag1  1  0.01318600  0.85121500  0.41477800  1
  Ag  Ag2  1  0.01507500  0.83557200  0.75018900  1
  Ag  Ag3  1  0.22161900  0.86822100  0.25884900  1
  Ag  Ag4  1  0.22799700  0.86990300  0.56404000  1
  Ag  Ag5  1  0.21672400  0.85567400  0.91793700  1
  Ag  Ag6  1  0.07884000  0.43181000  0.08610500  1
  Ag  Ag7  1  0.03433900  0.42452900  0.41447700  1
  Ag  Ag8  1  0.02658800  0.45642000  0.74784200  1
  Ag  Ag9  1  0.13177900  0.35339700  0.25884900  1
  Ag  Ag10  1  0.13009700  0.35809500  0.56404000  1
  Ag  Ag11  1  0.14432600  0.36104900  0.91793700  1
  Ag  Ag12  1  0.35296900  0.92116000  0.08610500  1
  Ag  Ag13  1  0.42983200  0.97341200  0.74784200  1
  Ag  Ag14  1  0.39018900  0.96566100  0.41447700  1
  Ag  Ag15  1  0.33333300  0.66666700  0.25158600  1
  Ag  Ag16  1  0.33333300  0.66666700  0.91669100  1
  Ag  Ag17  1  0.11022900  0.12125500  0.07715200  1
  Ag  Ag18  1  0.14878500  0.16197100  0.41477800  1
  Ag  Ag19  1  0.16442800  0.17950300  0.75018900  1
  Ag  Ag20  1  0.11898500  0.00958400  0.24875700  1
  Ag  Ag21  1  0.19159400  0.05129200  0.58771200  1
  Ag  Ag22  1  0.19336600  0.03839900  0.90056900  1
  Ag  Ag23  1  0.34331400  0.21796700  0.07778300  1
  Ag  Ag24  1  0.36805800  0.21691100  0.41749800  1
  Ag  Ag25  1  0.36235200  0.19364700  0.75937200  1
  Ag  Ag26  1  0.42296900  0.35047600  0.24913900  1
  Ag  Ag27  1  0.43571400  0.41100500  0.91629300  1
  Ag  Ag28  1  0.44429400  0.39232600  0.58797900  1
  Ag  Ag29  1  0.56819000  0.64703100  0.08610500  1
  Ag  Ag30  1  0.54358000  0.57016800  0.74784200  1
  Ag  Ag31  1  0.57547100  0.60981100  0.41447700  1
  Ag  Ag32  1  0.64660300  0.77838100  0.25884900  1
  Ag  Ag33  1  0.64190500  0.77200300  0.56404000  1
  Ag  Ag34  1  0.63895100  0.78327600  0.91793700  1
  Ag  Ag35  1  0.83802900  0.98681400  0.41477800  1
  Ag  Ag36  1  0.87874500  0.98897500  0.07715200  1
  Ag  Ag37  1  0.82049700  0.98492500  0.75018900  1
  Ag  Ag38  1  0.89059900  0.88101500  0.24875700  1
  Ag  Ag39  1  0.85969800  0.80840600  0.58771200  1
  Ag  Ag40  1  0.84503400  0.80663400  0.90056900  1
  Ag  Ag41  1  0.66666700  0.33333300  0.40336200  1
  Ag  Ag42  1  0.66666700  0.33333300  0.08316800  1
  Ag  Ag43  1  0.66666700  0.33333300  0.76592300  1
  Ag  Ag44  1  0.64952400  0.07249300  0.24913900  1
  Ag  Ag45  1  0.60767400  0.05196800  0.58797900  1
  Ag  Ag46  1  0.58899500  0.02470900  0.91629300  1
  Ag  Ag47  1  0.87465300  0.65668600  0.07778300  1
  Ag  Ag48  1  0.84885400  0.63194200  0.41749800  1
  Ag  Ag49  1  0.83129400  0.63764800  0.75937200  1
  Ag  Ag50  1  0.92750700  0.57703100  0.24913900  1
  Ag  Ag51  1  0.94803200  0.55570600  0.58797900  1
  Ag  Ag52  1  0.97529100  0.56428600  0.91629300  1
  Ag  Ag53  1  0.78203300  0.12534700  0.07778300  1
  Ag  Ag54  1  0.78308900  0.15114600  0.41749800  1
  Ag  Ag55  1  0.80635300  0.16870600  0.75937200  1
  Ag  Ag56  1  0.99041600  0.10940100  0.24875700  1
  Ag  Ag57  1  0.94870800  0.14030200  0.58771200  1
  Ag  Ag58  1  0.96160100  0.15496600  0.90056900  1
  Se  Se0  1  0.00000000  0.00000000  0.50451800  1
  Se  Se1  1  0.00000000  0.00000000  0.92090000  1
  Se  Se2  1  0.02622300  0.78519000  0.24144800  1
  Se  Se3  1  0.03027500  0.75710800  0.58070500  1
  Se  Se4  1  0.02186200  0.75889900  0.92144300  1
  Se  Se5  1  0.13809100  0.52892600  0.25171100  1
  Se  Se6  1  0.13819300  0.52866100  0.91718100  1
  Se  Se7  1  0.12331800  0.52606100  0.57749300  1
  Se  Se8  1  0.39083500  0.86190900  0.25171100  1
  Se  Se9  1  0.40274300  0.87668200  0.57749300  1
  Se  Se10  1  0.39046800  0.86180700  0.91718100  1
  Se  Se11  1  0.00000000  0.00000000  0.71230700  1
  Se  Se12  1  0.21481000  0.24103300  0.24144800  1
  Se  Se13  1  0.24289200  0.27316700  0.58070500  1
  Se  Se14  1  0.24110100  0.26296300  0.92144300  1
  Se  Se15  1  0.47107400  0.60916500  0.25171100  1
  Se  Se16  1  0.47133900  0.60953200  0.91718100  1
  Se  Se17  1  0.47393900  0.59725700  0.57749300  1
  Se  Se18  1  0.75896700  0.97377700  0.24144800  1
  Se  Se19  1  0.72683300  0.96972500  0.58070500  1
  Se  Se20  1  0.73703700  0.97813800  0.92144300  1
  Se  Se21  1  0.24962900  0.02140900  0.08289300  1
  Se  Se22  1  0.26595300  0.00084700  0.74094100  1
  Se  Se23  1  0.25053700  0.02453600  0.40562500  1
  Se  Se24  1  0.52234300  0.38332200  0.08372300  1
  Se  Se25  1  0.53010000  0.39251700  0.41176100  1
  Se  Se26  1  0.51820400  0.37174500  0.75821400  1
  Se  Se27  1  0.77400000  0.74946300  0.40562500  1
  Se  Se28  1  0.77178000  0.75037100  0.08289300  1
  Se  Se29  1  0.73489400  0.73404700  0.74094100  1
  Se  Se30  1  0.61667800  0.13902100  0.08372300  1
  Se  Se31  1  0.60748300  0.13758300  0.41176100  1
  Se  Se32  1  0.62825500  0.14645900  0.75821400  1
  Se  Se33  1  0.86097900  0.47765700  0.08372300  1
  Se  Se34  1  0.86241700  0.46990000  0.41176100  1
  Se  Se35  1  0.85354100  0.48179600  0.75821400  1
  Se  Se36  1  0.97859100  0.22822000  0.08289300  1
  Se  Se37  1  0.99915300  0.26510600  0.74094100  1
  Se  Se38  1  0.97546400  0.22600000  0.40562500  1
loop_
_geom_bond_atom_site_label_1
_geom_bond_atom_site_label_2
_geom_bond_distance
_geom_bond_site_symmetry_2
Ag0 Se1 2.818514 1_564
Ag0 Se2 2.877883 1_555
Ag0 Se4 3.018939 1_554
Ag0 Se21 3.157340 1_565
Ag0 Se28 3.174550 1_455
Ag1 Se2 2.677697 1_555
Ag1 Se0 2.688709 1_565
Ag1 Se3 2.814787 1_555
Ag1 Se27 3.172683 1_455
Ag1 Se23 3.245563 1_565
Ag2 Se11 2.682794 1_565
Ag2 Se4 2.697126 1_555
Ag2 Se3 2.723895 1_555
Ag2 Tl1 3.618542 1_555
Ag3 Se2 2.601314 1_555
Ag3 Se8 2.631473 1_555
Ag3 Se23 3.011155 1_565
Ag3 Tl2 3.347443 1_555
Ag3 Tl0 3.364604 1_555
Ag4 Se9 2.621102 1_555
Ag4 Se3 2.629917 1_555
Ag4 Se22 3.054343 1_565
Ag4 Se23 3.131986 1_565
Ag4 Tl2 3.208425 1_555
Ag4 Tl1 3.270783 1_555
Ag5 Se4 2.573591 1_555
Ag5 Se10 2.603689 1_555
Ag5 Se22 3.157770 1_565
Ag5 Tl1 3.242242 1_555
Ag5 Tl0 3.341450 1_556
Ag6 Se5 2.659411 1_555
Ag6 Se36 2.688833 1_455
Ag6 Se6 2.698757 1_554
Ag6 Tl3 3.433808 1_555
Ag6 Tl0 3.479171 1_555
Ag6 Tl15 3.510795 1_455
Ag7 Se38 2.695751 1_455
Ag7 Se7 2.714903 1_555
Ag7 Se5 2.781356 1_555
Ag7 Se34 3.027399 1_455
Ag7 Tl15 3.390707 1_455
Ag7 Tl2 3.411467 1_555
Ag7 Tl16 3.421827 1_455
Ag8 Se7 2.729817 1_555
Ag8 Se37 2.733747 1_455
Ag8 Se6 2.807538 1_555
Ag8 Se35 2.855464 1_455
Ag8 Tl1 3.278959 1_555
Ag8 Tl16 3.385161 1_455
Ag9 Se12 2.601300 1_555
Ag9 Se5 2.631489 1_555
Ag9 Se38 3.011155 1_455
Ag9 Tl5 3.347444 1_555
Ag9 Tl3 3.364605 1_555
Ag10 Se7 2.621087 1_555
Ag10 Se13 2.629929 1_555
Ag10 Ag7 3.007059 1_555
Ag10 Se37 3.054346 1_455
Ag10 Ag57 3.098857 1_455
Ag10 Se38 3.131994 1_455
Ag10 Tl5 3.208424 1_555
Ag10 Tl4 3.270783 1_555
Ag11 Se14 2.573578 1_555
Ag11 Se6 2.603705 1_555
Ag11 Se37 3.157768 1_455
Ag11 Tl4 3.242243 1_555
Ag11 Tl3 3.341451 1_556
Ag12 Se8 2.659417 1_555
Ag12 Se21 2.688820 1_565
Ag12 Se10 2.698762 1_554
Ag12 Tl0 3.433802 1_555
Ag12 Tl6 3.479186 1_555
Ag12 Tl9 3.510795 1_565
Ag13 Se9 2.729817 1_555
Ag13 Se22 2.733747 1_565
Ag13 Se10 2.807538 1_555
Ag13 Se32 2.855464 1_565
Ag13 Tl8 3.278959 1_555
Ag13 Tl10 3.385161 1_565
Ag14 Se23 2.695722 1_565
Ag14 Se9 2.714908 1_555
Ag14 Se8 2.781360 1_555
Ag14 Ag4 3.007059 1_555
Ag14 Se31 3.027409 1_565
Ag14 Tl9 3.390705 1_565
Ag14 Tl7 3.411481 1_555
Ag14 Tl10 3.421826 1_565
Ag15 Se8 2.649697 1_555
Ag15 Se5 2.649701 1_555
Ag15 Se15 2.649712 1_555
Ag16 Se10 2.649512 1_555
Ag16 Se6 2.649516 1_555
Ag16 Se16 2.649527 1_555
Ag17 Se1 2.818520 1_554
Ag17 Se12 2.877877 1_555
Ag17 Se14 3.018933 1_554
Ag17 Se36 3.157328 1_455
Ag17 Se21 3.174562 1_555
Ag18 Se12 2.677697 1_555
Ag18 Se0 2.688709 1_555
Ag18 Se13 2.814787 1_555
Ag18 Se23 3.172696 1_555
Ag18 Se38 3.245552 1_455
Ag19 Se11 2.682794 1_555
Ag19 Se14 2.697126 1_555
Ag19 Se13 2.723895 1_555
Ag19 Tl4 3.618542 1_555
Ag20 Se23 2.909378 1_555
Ag20 Se2 2.979611 1_545
Ag20 Se21 3.009916 1_555
Ag20 Se12 3.072960 1_555
Ag21 Se22 2.715384 1_555
Ag21 Se23 2.805483 1_555
Ag21 Se0 2.867794 1_555
Ag21 Se13 3.069255 1_555
Ag21 Ag4 3.098847 1_545
Ag21 Se11 3.149368 1_555
Ag22 Se22 2.684201 1_555
Ag22 Se1 2.718594 1_555
Ag22 Se21 2.751768 1_556
Ag22 Se14 3.138070 1_555
Ag23 Se21 2.597432 1_555
Ag23 Se24 2.633022 1_555
Ag23 Se14 2.963560 1_554
Ag23 Se12 3.150778 1_555
Ag23 Tl11 3.226057 1_554
Ag23 Tl9 3.355844 1_555
Ag24 Se23 2.566418 1_555
Ag24 Se25 2.581626 1_555
Ag24 Tl10 3.195008 1_555
Ag24 Se13 3.355747 1_555
Ag24 Tl9 3.371796 1_555
Ag25 Se22 2.558979 1_555
Ag25 Se26 2.562896 1_555
Ag25 Tl11 3.158275 1_555
Ag25 Tl10 3.172126 1_555
Ag26 Se24 2.678954 1_555
Ag26 Se25 2.690824 1_555
Ag26 Se12 2.752018 1_555
Ag26 Tl9 3.531111 1_555
Ag26 Tl3 3.573542 1_555
Ag26 Tl12 3.595362 1_555
Ag27 Se14 2.684699 1_555
Ag27 Se26 2.759486 1_555
Ag27 Se16 2.795342 1_555
Ag27 Se24 2.828677 1_556
Ag27 Tl14 3.293509 1_555
Ag27 Tl3 3.359436 1_556
Ag27 Tl4 3.561166 1_555
Ag28 Se13 2.676258 1_555
Ag28 Se26 2.725739 1_555
Ag28 Se25 2.797086 1_555
Ag28 Se17 2.928695 1_555
Ag28 Tl13 3.188639 1_555
Ag28 Tl5 3.516188 1_555
Ag28 Tl4 3.530001 1_555
Ag29 Se15 2.659410 1_555
Ag29 Se28 2.688833 1_555
Ag29 Se16 2.698756 1_554
Ag29 Tl6 3.433793 1_555
Ag29 Tl3 3.479175 1_555
Ag29 Tl12 3.510806 1_555
Ag30 Se17 2.729817 1_555
Ag30 Se29 2.733747 1_555
Ag30 Se16 2.807538 1_555
Ag30 Se26 2.855464 1_555
Ag30 Tl4 3.278959 1_555
Ag30 Tl13 3.385161 1_555
Ag31 Se27 2.695744 1_555
Ag31 Se17 2.714900 1_555
Ag31 Se15 2.781351 1_555
Ag31 Ag33 3.007059 1_555
Ag31 Se25 3.027414 1_555
Ag31 Tl12 3.390715 1_555
Ag31 Tl5 3.411468 1_555
Ag31 Tl13 3.421836 1_555
Ag32 Se18 2.601313 1_555
Ag32 Se15 2.631481 1_555
Ag32 Se27 3.011155 1_555
Ag32 Tl7 3.347453 1_555
Ag32 Tl6 3.364614 1_555
Ag33 Se17 2.621095 1_555
Ag33 Se19 2.629915 1_555
Ag33 Se29 3.054352 1_555
Ag33 Ag39 3.098862 1_555
Ag33 Se27 3.132007 1_555
Ag33 Tl7 3.208414 1_555
Ag33 Tl8 3.270774 1_555
Ag34 Se20 2.573591 1_555
Ag34 Se16 2.603697 1_555
Ag34 Se29 3.157761 1_555
Ag34 Tl8 3.242251 1_555
Ag34 Tl6 3.341459 1_556
Ag35 Se18 2.677697 1_555
Ag35 Se0 2.688709 1_665
Ag35 Se19 2.814787 1_555
Ag35 Se38 3.172684 1_565
Ag35 Se27 3.245567 1_555
Ag36 Se1 2.818524 1_664
Ag36 Se18 2.877874 1_555
Ag36 Se20 3.018929 1_554
Ag36 Se28 3.157341 1_555
Ag36 Se36 3.174548 1_565
Ag37 Se11 2.682794 1_665
Ag37 Se20 2.697126 1_555
Ag37 Se19 2.723895 1_555
Ag37 Tl8 3.618542 1_555
Ag38 Se27 2.909374 1_555
Ag38 Se18 2.979611 1_555
Ag38 Se28 3.009916 1_555
Ag38 Se2 3.072960 1_655
Ag39 Se29 2.715384 1_555
Ag39 Se27 2.805479 1_555
Ag39 Se0 2.867794 1_665
Ag39 Se3 3.069255 1_655
Ag39 Se11 3.149368 1_665
Ag40 Se29 2.684207 1_555
Ag40 Se1 2.718589 1_665
Ag40 Se28 2.751772 1_556
Ag40 Se4 3.138055 1_655
Ag41 Se31 2.653913 1_555
Ag41 Se34 2.653917 1_555
Ag41 Se25 2.653928 1_555
Ag42 Se30 2.664734 1_555
Ag42 Se33 2.664738 1_555
Ag42 Se24 2.664749 1_555
Ag43 Se32 2.608596 1_555
Ag43 Se35 2.608601 1_555
Ag43 Se26 2.608611 1_555
Ag44 Se30 2.678954 1_555
Ag44 Se31 2.690824 1_555
Ag44 Se18 2.752018 1_545
Ag44 Tl15 3.531112 1_555
Ag44 Tl6 3.573542 1_545
Ag44 Tl9 3.595362 1_555
Ag45 Se19 2.676258 1_545
Ag45 Se32 2.725739 1_555
Ag45 Se31 2.797086 1_555
Ag45 Se9 2.928695 1_545
Ag45 Tl10 3.188639 1_555
Ag45 Tl7 3.516188 1_545
Ag45 Tl8 3.530001 1_545
Ag46 Se20 2.684698 1_545
Ag46 Se32 2.759486 1_555
Ag46 Se10 2.795342 1_545
Ag46 Se30 2.828677 1_556
Ag46 Tl11 3.293497 1_555
Ag46 Tl6 3.359436 1_546
Ag46 Tl8 3.561166 1_545
Ag47 Se28 2.597432 1_555
Ag47 Se33 2.633022 1_555
Ag47 Se4 2.963560 1_654
Ag47 Se2 3.150778 1_655
Ag47 Tl14 3.226048 1_554
Ag47 Tl12 3.355844 1_555
Ag48 Se27 2.566417 1_555
Ag48 Se34 2.581618 1_555
Ag48 Tl13 3.195017 1_555
Ag48 Se3 3.355739 1_655
Ag48 Tl12 3.371805 1_555
Ag49 Se29 2.558966 1_555
Ag49 Se35 2.562905 1_555
Ag49 Tl14 3.158261 1_555
Ag49 Tl13 3.172119 1_555
Ag50 Se33 2.678954 1_555
Ag50 Se34 2.690824 1_555
Ag50 Se2 2.752018 1_655
Ag50 Tl12 3.531111 1_555
Ag50 Tl0 3.573542 1_655
Ag50 Tl15 3.595362 1_555
Ag51 Se3 2.676258 1_655
Ag51 Se35 2.725739 1_555
Ag51 Se34 2.797086 1_555
Ag51 Se7 2.928695 1_655
Ag51 Tl16 3.188639 1_555
Ag51 Tl2 3.516188 1_655
Ag51 Tl1 3.530001 1_655
Ag52 Se4 2.684698 1_655
Ag52 Se35 2.759486 1_555
Ag52 Se6 2.795342 1_655
Ag52 Se33 2.828677 1_556
Ag52 Tl17 3.293510 1_555
Ag52 Tl0 3.359436 1_656
Ag52 Tl1 3.561166 1_655
Ag53 Se36 2.597432 1_555
Ag53 Se30 2.633022 1_555
Ag53 Se20 2.963560 1_544
Ag53 Se18 3.150778 1_545
Ag53 Tl17 3.226046 1_554
Ag53 Tl15 3.355844 1_555
Ag54 Se38 2.566418 1_555
Ag54 Se31 2.581633 1_555
Ag54 Tl16 3.195018 1_555
Ag54 Se19 3.355736 1_545
Ag54 Tl15 3.371805 1_555
Ag55 Se37 2.558979 1_555
Ag55 Se32 2.562890 1_555
Ag55 Tl17 3.158258 1_555
Ag55 Tl16 3.172117 1_555
Ag56 Se38 2.909368 1_555
Ag56 Se12 2.979611 1_655
Ag56 Se36 3.009916 1_555
Ag56 Se18 3.072960 1_545
Ag57 Se37 2.715384 1_555
Ag57 Se38 2.805477 1_555
Ag57 Se0 2.867794 1_655
Ag57 Se19 3.069255 1_545
Ag57 Se11 3.149368 1_655
Ag58 Se37 2.684209 1_555
Ag58 Se1 2.718579 1_655
Ag58 Se36 2.751774 1_556
Ag58 Se20 3.138065 1_545
Se3 Tl1 3.281805 1_555
Se3 Tl2 3.364512 1_555
Se5 Tl0 3.237026 1_555
Se5 Tl2 3.291650 1_555
Se6 Tl0 3.411266 1_556
Se7 Tl2 3.151185 1_555
Se7 Tl1 3.353929 1_555
Se8 Tl6 3.237026 1_555
Se8 Tl7 3.291650 1_555
Se9 Tl7 3.151185 1_555
Se9 Tl8 3.353929 1_555
Se10 Tl6 3.411266 1_556
Se13 Tl4 3.281805 1_555
Se13 Tl5 3.364512 1_555
Se15 Tl3 3.237026 1_555
Se15 Tl5 3.291650 1_555
Se16 Tl3 3.411266 1_556
Se17 Tl5 3.151185 1_555
Se17 Tl4 3.353929 1_555
Se19 Tl8 3.281805 1_555
Se19 Tl7 3.364512 1_555
Se21 Tl9 3.417883 1_555
Se24 Tl14 3.215559 1_554
Se24 Tl12 3.265244 1_555
Se25 Tl13 3.303460 1_555
Se25 Tl12 3.425954 1_555
Se28 Tl12 3.417883 1_555
Se30 Tl11 3.215553 1_554
Se30 Tl9 3.265244 1_555
Se31 Tl10 3.303460 1_555
Se31 Tl9 3.425954 1_555
Se33 Tl17 3.215565 1_554
Se33 Tl15 3.265244 1_555
Se34 Tl16 3.303460 1_555
Se34 Tl15 3.425954 1_555
Se36 Tl15 3.417883 1_555
