# generated using pymatgen
data_NbAgO2
_symmetry_space_group_name_H-M   'P 1'
_cell_length_a   5.43486351
_cell_length_b   5.43486351
_cell_length_c   12.00427800
_cell_angle_alpha   90.00000000
_cell_angle_beta   90.00000000
_cell_angle_gamma   92.24933355
_symmetry_Int_Tables_number   1
_chemical_formula_structural   NbAgO2
_chemical_formula_sum   'Nb6 Ag6 O12'
_cell_volume   354.30605286
_cell_formula_units_Z   6
loop_
 _symmetry_equiv_pos_site_id
 _symmetry_equiv_pos_as_xyz
  1  'x, y, z'
loop_
 _atom_site_type_symbol
 _atom_site_label
 _atom_site_symmetry_multiplicity
 _atom_site_fract_x
 _atom_site_fract_y
 _atom_site_fract_z
 _atom_site_occupancy
  Nb  Nb0  1  0.00000000  0.50000000  0.00000000  1
  Nb  Nb1  1  0.00000000  0.50000000  0.66706800  1
  Nb  Nb2  1  0.50000000  0.00000000  0.66706800  1
  Nb  Nb3  1  0.00000000  0.50000000  0.33293200  1
  Nb  Nb4  1  0.50000000  0.00000000  0.33293200  1
  Nb  Nb5  1  0.50000000  0.00000000  0.00000000  1
  Ag  Ag0  1  0.50000000  0.50000000  0.88518900  1
  Ag  Ag1  1  0.00000000  0.00000000  0.77919200  1
  Ag  Ag2  1  0.50000000  0.50000000  0.50000000  1
  Ag  Ag3  1  0.00000000  0.00000000  0.50000000  1
  Ag  Ag4  1  0.50000000  0.50000000  0.11481100  1
  Ag  Ag5  1  0.00000000  0.00000000  0.22080800  1
  O  O0  1  0.00000000  0.50000000  0.83500400  1
  O  O1  1  0.50000000  0.00000000  0.83500400  1
  O  O2  1  0.69269500  0.69269500  0.67074300  1
  O  O3  1  0.30730500  0.30730500  0.67074300  1
  O  O4  1  0.00000000  0.50000000  0.50000000  1
  O  O5  1  0.50000000  0.00000000  0.50000000  1
  O  O6  1  0.69269500  0.69269500  0.32925700  1
  O  O7  1  0.30730500  0.30730500  0.32925700  1
  O  O8  1  0.00000000  0.50000000  0.16499600  1
  O  O9  1  0.50000000  0.00000000  0.16499600  1
  O  O10  1  0.82978600  0.17021400  0.00000000  1
  O  O11  1  0.17021400  0.82978600  0.00000000  1
loop_
_geom_bond_atom_site_label_1
_geom_bond_atom_site_label_2
_geom_bond_distance
_geom_bond_site_symmetry_2
Nb0 O8 1.980658 1_555
Nb0 O0 1.980658 1_554
Nb0 O11 1.984472 1_555
Nb0 O10 1.984472 1_455
Nb1 O4 2.005531 1_555
Nb1 O3 2.006355 1_555
Nb1 O2 2.006355 1_455
Nb1 O0 2.015950 1_555
Nb2 O5 2.005531 1_555
Nb2 O3 2.006355 1_555
Nb2 O2 2.006355 1_545
Nb2 O1 2.015950 1_555
Nb3 O4 2.005531 1_555
Nb3 O6 2.006355 1_455
Nb3 O7 2.006355 1_555
Nb3 O8 2.015950 1_555
Nb4 O5 2.005531 1_555
Nb4 O7 2.006355 1_555
Nb4 O6 2.006355 1_545
Nb4 O9 2.015950 1_555
Nb5 O9 1.980658 1_555
Nb5 O1 1.980658 1_554
Nb5 O10 1.984472 1_555
Nb5 O11 1.984472 1_545
Ag0 O0 2.783409 1_655
Ag0 O1 2.783409 1_565
Ag0 O1 2.783409 1_555
Ag0 O0 2.783409 1_555
Ag1 O2 2.656074 1_445
Ag1 O3 2.656074 1_555
Ag1 O1 2.798806 1_455
Ag1 O0 2.798806 1_555
Ag1 O1 2.798806 1_555
Ag1 O0 2.798806 1_545
Ag2 O2 2.511675 1_555
Ag2 O3 2.511675 1_555
Ag2 O6 2.511675 1_555
Ag2 O7 2.511675 1_555
Ag2 O4 2.717432 1_555
Ag2 O4 2.717432 1_655
Ag2 O5 2.717432 1_555
Ag2 O5 2.717432 1_565
Ag3 O4 2.717432 1_545
Ag3 O5 2.717432 1_555
Ag3 O5 2.717432 1_455
Ag3 O4 2.717432 1_555
Ag4 O9 2.783409 1_555
Ag4 O8 2.783409 1_555
Ag4 O8 2.783409 1_655
Ag4 O9 2.783409 1_565
Ag5 O6 2.656074 1_445
Ag5 O7 2.656074 1_555
Ag5 O9 2.798806 1_555
Ag5 O8 2.798806 1_545
Ag5 O8 2.798806 1_555
Ag5 O9 2.798806 1_455
