# generated using pymatgen
data_Mn(GaS2)2
_symmetry_space_group_name_H-M   'P 1'
_cell_length_a   6.38939332
_cell_length_b   12.39325745
_cell_length_c   12.95987470
_cell_angle_alpha   115.58855740
_cell_angle_beta   99.01663933
_cell_angle_gamma   100.86542324
_symmetry_Int_Tables_number   1
_chemical_formula_structural   Mn(GaS2)2
_chemical_formula_sum   'Mn6 Ga12 S24'
_cell_volume   875.51769180
_cell_formula_units_Z   6
loop_
 _symmetry_equiv_pos_site_id
 _symmetry_equiv_pos_as_xyz
  1  'x, y, z'
loop_
 _atom_site_type_symbol
 _atom_site_label
 _atom_site_symmetry_multiplicity
 _atom_site_fract_x
 _atom_site_fract_y
 _atom_site_fract_z
 _atom_site_occupancy
  Mn  Mn0  1  0.46896692  0.21800335  0.43618020  1
  Mn  Mn1  1  0.12105122  0.87031940  0.74149713  1
  Mn  Mn2  1  0.53150085  0.78194175  0.56350415  1
  Mn  Mn3  1  0.70764896  0.95540347  0.91128468  1
  Mn  Mn4  1  0.29577110  0.04421871  0.08903759  1
  Mn  Mn5  1  0.87966804  0.12972570  0.25869688  1
  Ga  Ga0  1  0.28872748  0.67365119  0.91886395  1
  Ga  Ga1  1  0.45392768  0.83567992  0.25165629  1
  Ga  Ga2  1  0.30110358  0.41513812  0.25101907  1
  Ga  Ga3  1  0.71247048  0.32608444  0.08088453  1
  Ga  Ga4  1  0.03408716  0.88667514  0.40282977  1
  Ga  Ga5  1  0.12978825  0.24412035  0.91849356  1
  Ga  Ga6  1  0.96747184  0.11314204  0.59705873  1
  Ga  Ga7  1  0.87199532  0.51582858  0.40204582  1
  Ga  Ga8  1  0.13273084  0.48459500  0.59761698  1
  Ga  Ga9  1  0.54730839  0.16391453  0.74818846  1
  Ga  Ga10  1  0.70254947  0.58457049  0.74860841  1
  Ga  Ga11  1  0.87109952  0.75526842  0.08118595  1
  S  S0  1  0.74614669  0.74686701  0.23654777  1
  S  S1  1  0.25519005  0.25280425  0.76337843  1
  S  S2  1  0.43171606  0.41763105  0.60211327  1
  S  S3  1  0.67046106  0.14963406  0.08764171  1
  S  S4  1  0.59578465  0.59703096  0.91810563  1
  S  S5  1  0.08296637  0.06141132  0.91234468  1
  S  S6  1  0.00907704  0.51022531  0.76307055  1
  S  S7  1  0.25944487  0.23965438  0.26492389  1
  S  S8  1  0.82420727  0.32118183  0.91788371  1
  S  S9  1  0.99367908  0.48941667  0.23623953  1
  S  S10  1  0.91526504  0.91150847  0.56783992  1
  S  S11  1  0.91954302  0.93840659  0.08800054  1
  S  S12  1  0.08611464  0.08825543  0.43195709  1
  S  S13  1  0.40593485  0.40270745  0.08129221  1
  S  S14  1  0.33194139  0.85022145  0.91229565  1
  S  S15  1  0.84846408  0.34398813  0.43219471  1
  S  S16  1  0.57135450  0.58202646  0.39807731  1
  S  S17  1  0.49384858  0.97485226  0.73529579  1
  S  S18  1  0.32927890  0.81554900  0.39812418  1
  S  S19  1  0.50748138  0.02488051  0.26498812  1
  S  S20  1  0.74191424  0.76006854  0.73485160  1
  S  S21  1  0.15455409  0.65651647  0.56798478  1
  S  S22  1  0.17714643  0.67839511  0.08188113  1
  S  S23  1  0.67186260  0.18396171  0.60158464  1
loop_
_geom_bond_atom_site_label_1
_geom_bond_atom_site_label_2
_geom_bond_distance
_geom_bond_site_symmetry_2
Mn0 S7 2.551219 1_555
Mn0 S19 2.552955 1_555
Mn0 S23 2.563212 1_555
Mn0 S2 2.566845 1_555
Mn0 S12 2.640377 1_555
Mn0 S15 2.646048 1_555
Mn1 S20 2.515501 1_455
Mn1 S17 2.518936 1_555
Mn1 S5 2.535139 1_565
Mn1 S14 2.538759 1_555
Mn1 S21 2.709471 1_555
Mn1 S10 2.715215 1_455
Mn2 S17 2.552918 1_555
Mn2 S20 2.556130 1_555
Mn2 S18 2.557864 1_555
Mn2 S16 2.572998 1_555
Mn2 S21 2.632619 1_555
Mn2 S10 2.643573 1_555
Mn3 S5 2.502635 1_665
Mn3 S14 2.511353 1_555
Mn3 S11 2.583563 1_556
Mn3 S3 2.589992 1_566
Mn3 S20 2.590735 1_555
Mn3 S17 2.597816 1_555
Mn4 S11 2.506916 1_445
Mn4 S3 2.508662 1_555
Mn4 S5 2.587016 1_554
Mn4 S14 2.588209 1_544
Mn4 S19 2.591227 1_555
Mn4 S7 2.593251 1_555
Mn5 S19 2.517435 1_555
Mn5 S7 2.519526 1_655
Mn5 S3 2.535762 1_555
Mn5 S11 2.540509 1_545
Mn5 S15 2.707265 1_555
Mn5 S12 2.714798 1_655
Ga0 S14 2.193750 1_555
Ga0 S6 2.311671 1_555
Ga0 S22 2.314255 1_556
Ga0 S4 2.334783 1_555
Ga1 S19 2.230270 1_565
Ga1 S18 2.260035 1_555
Ga1 S0 2.332190 1_555
Ga1 S22 2.354618 1_555
Ga2 S7 2.229008 1_555
Ga2 S16 2.260258 1_555
Ga2 S9 2.336342 1_455
Ga2 S13 2.349208 1_555
Ga3 S3 2.193920 1_555
Ga3 S9 2.313856 1_555
Ga3 S8 2.313897 1_554
Ga3 S13 2.331931 1_555
Ga4 S18 2.225872 1_555
Ga4 S10 2.296256 1_455
Ga4 S12 2.308061 1_565
Ga4 S0 2.315389 1_455
Ga5 S5 2.191904 1_555
Ga5 S1 2.313873 1_555
Ga5 S13 2.317596 1_556
Ga5 S8 2.330026 1_455
Ga6 S23 2.226305 1_555
Ga6 S12 2.296642 1_655
Ga6 S10 2.308226 1_545
Ga6 S1 2.314549 1_655
Ga7 S16 2.228281 1_555
Ga7 S21 2.298179 1_655
Ga7 S15 2.308078 1_555
Ga7 S9 2.311086 1_555
Ga8 S2 2.223981 1_555
Ga8 S15 2.300176 1_455
Ga8 S21 2.306132 1_555
Ga8 S6 2.315216 1_555
Ga9 S17 2.230894 1_545
Ga9 S23 2.260995 1_555
Ga9 S1 2.332174 1_555
Ga9 S8 2.354418 1_555
Ga10 S20 2.228994 1_555
Ga10 S2 2.259847 1_555
Ga10 S6 2.331164 1_655
Ga10 S4 2.351786 1_555
Ga11 S11 2.192823 1_555
Ga11 S0 2.314285 1_555
Ga11 S4 2.315374 1_554
Ga11 S22 2.331477 1_655
