# generated using pymatgen
data_Ba2Ho2Al3Si5N11O3
_symmetry_space_group_name_H-M   'P 1'
_cell_length_a   6.33653674
_cell_length_b   6.33653674
_cell_length_c   10.72985400
_cell_angle_alpha   90.00000000
_cell_angle_beta   90.00000000
_cell_angle_gamma   120.00000770
_symmetry_Int_Tables_number   1
_chemical_formula_structural   Ba2Ho2Al3Si5N11O3
_chemical_formula_sum   'Ba2 Ho2 Al3 Si5 N11 O3'
_cell_volume   373.10264247
_cell_formula_units_Z   1
loop_
 _symmetry_equiv_pos_site_id
 _symmetry_equiv_pos_as_xyz
  1  'x, y, z'
loop_
 _atom_site_type_symbol
 _atom_site_label
 _atom_site_symmetry_multiplicity
 _atom_site_fract_x
 _atom_site_fract_y
 _atom_site_fract_z
 _atom_site_occupancy
  Ba  Ba0  1  0.33333300  0.66666700  0.12848200  1
  Ba  Ba1  1  0.66666700  0.33333300  0.65176800  1
  Ho  Ho0  1  0.33333300  0.66666700  0.62817800  1
  Ho  Ho1  1  0.66666700  0.33333300  0.35045900  1
  Al  Al0  1  0.16031200  0.83968800  0.43413800  1
  Al  Al1  1  0.16031200  0.32062300  0.43413800  1
  Al  Al2  1  0.67937700  0.83968800  0.43413800  1
  Si  Si0  1  0.00000000  0.00000000  0.71253500  1
  Si  Si1  1  0.00000000  0.00000000  0.21572400  1
  Si  Si2  1  0.34167300  0.17083700  0.93103200  1
  Si  Si3  1  0.82916300  0.65832700  0.93103200  1
  Si  Si4  1  0.82916300  0.17083700  0.93103200  1
  N  N0  1  0.14616500  0.85383500  0.26538600  1
  N  N1  1  0.14616500  0.29232900  0.26538600  1
  N  N2  1  0.00000000  0.00000000  0.53693800  1
  N  N3  1  0.00000000  0.00000000  0.01897600  1
  N  N4  1  0.28375300  0.14187600  0.78039800  1
  N  N5  1  0.48803500  0.51196500  0.48759400  1
  N  N6  1  0.70767100  0.85383500  0.26538600  1
  N  N7  1  0.48803500  0.97607000  0.48759400  1
  N  N8  1  0.85812400  0.71624700  0.78039800  1
  N  N9  1  0.02393000  0.51196500  0.48759400  1
  N  N10  1  0.85812400  0.14187600  0.78039800  1
  O  O0  1  0.93960300  0.46980100  0.97408400  1
  O  O1  1  0.53019900  0.06039700  0.97408400  1
  O  O2  1  0.53019900  0.46980100  0.97408400  1
loop_
_geom_bond_atom_site_label_1
_geom_bond_atom_site_label_2
_geom_bond_distance
_geom_bond_site_symmetry_2
Ba0 N0 2.525393 1_555
Ba0 N6 2.525402 1_555
Ba0 N1 2.525402 1_555
Ba0 O0 2.722661 1_454
Ba0 O1 2.722661 1_564
Ba0 O2 2.722670 1_554
Ba1 N8 2.514016 1_555
Ba1 N4 2.514016 1_555
Ba1 N10 2.514016 1_555
Ba1 N7 2.635665 1_545
Ba1 N9 2.635665 1_655
Ba1 N5 2.635669 1_555
Ho0 N9 2.271168 1_555
Ho0 N7 2.271168 1_555
Ho0 N5 2.271173 1_555
Ho1 N7 2.451277 1_545
Ho1 N9 2.451277 1_655
Ho1 N5 2.451281 1_555
Al0 N0 1.817329 1_555
Al0 N9 1.895679 1_555
Al0 N7 1.895679 1_555
Al0 N2 2.076623 1_565
Al1 N1 1.817329 1_555
Al1 N5 1.895679 1_555
Al1 N9 1.895684 1_555
Al1 N2 2.076618 1_555
Al2 N6 1.817329 1_555
Al2 N5 1.895679 1_555
Al2 N7 1.895684 1_555
Al2 N2 2.076618 1_665
N0 Si1 1.690377 1_565
N1 Si1 1.690371 1_555
N2 Si0 1.884130 1_555
N3 Si2 2.099030 1_554
N3 Si3 2.099030 1_444
N3 Si4 2.099035 1_454
N3 Si1 2.111077 1_555
N4 Si2 1.647236 1_555
N4 Si0 1.718968 1_555
N6 Si1 1.690371 1_665
N8 Si3 1.647236 1_555
N8 Si0 1.718968 1_665
N10 Si4 1.647238 1_555
N10 Si0 1.718963 1_655
O0 Si4 1.722250 1_555
O0 Si3 1.722262 1_555
O1 Si4 1.722250 1_555
O1 Si2 1.722262 1_555
O2 Si2 1.722252 1_555
O2 Si3 1.722252 1_555
