# generated using pymatgen
data_La2MgTiO6
_symmetry_space_group_name_H-M   'P 1'
_cell_length_a   5.65929000
_cell_length_b   5.58452000
_cell_length_c   9.68659196
_cell_angle_alpha   54.88911319
_cell_angle_beta   90.00000000
_cell_angle_gamma   90.00000000
_symmetry_Int_Tables_number   1
_chemical_formula_structural   La2MgTiO6
_chemical_formula_sum   'La4 Mg2 Ti2 O12'
_cell_volume   250.43416825
_cell_formula_units_Z   2
loop_
 _symmetry_equiv_pos_site_id
 _symmetry_equiv_pos_as_xyz
  1  'x, y, z'
loop_
 _atom_site_type_symbol
 _atom_site_label
 _atom_site_symmetry_multiplicity
 _atom_site_fract_x
 _atom_site_fract_y
 _atom_site_fract_z
 _atom_site_occupancy
  La  La0  1  0.46068400  0.25775300  0.25066000  1
  La  La1  1  0.96068400  0.74224700  0.24934000  1
  La  La2  1  0.53931600  0.74224700  0.74934000  1
  La  La3  1  0.03931600  0.25775300  0.75066000  1
  Mg  Mg0  1  0.50000000  0.00000000  0.00000000  1
  Mg  Mg1  1  0.00000000  0.00000000  0.50000000  1
  Ti  Ti0  1  0.00000000  0.50000000  0.00000000  1
  Ti  Ti1  1  0.50000000  0.50000000  0.50000000  1
  O  O0  1  0.52247200  0.82601100  0.25744200  1
  O  O1  1  0.02247200  0.17398900  0.24255800  1
  O  O2  1  0.47752800  0.17398900  0.74255800  1
  O  O3  1  0.97752800  0.82601100  0.75744200  1
  O  O4  1  0.28261400  0.34290600  0.95425000  1
  O  O5  1  0.78261400  0.65709400  0.54575000  1
  O  O6  1  0.71738600  0.65709400  0.04575000  1
  O  O7  1  0.21738600  0.34290600  0.45425000  1
  O  O8  1  0.20336700  0.73812300  0.04310500  1
  O  O9  1  0.70336700  0.26187700  0.45689500  1
  O  O10  1  0.79663300  0.26187700  0.95689500  1
  O  O11  1  0.29663300  0.73812300  0.54310500  1
loop_
_geom_bond_atom_site_label_1
_geom_bond_atom_site_label_2
_geom_bond_distance
_geom_bond_site_symmetry_2
La0 O0 2.399511 1_545
La0 O9 2.435279 1_555
La0 O6 2.435521 1_555
La0 O1 2.533270 1_555
La0 O7 2.662687 1_555
La0 O8 2.674896 1_555
La0 O11 2.802045 1_545
La0 O4 2.813341 1_554
La1 O1 2.399511 1_665
La1 O8 2.435279 1_655
La1 O7 2.435521 1_655
La1 O0 2.533270 1_555
La1 O6 2.662687 1_555
La1 O9 2.674896 1_555
La1 O10 2.802045 1_564
La1 O5 2.813341 1_555
La2 O2 2.399511 1_565
La2 O11 2.435279 1_555
La2 O4 2.435521 1_555
La2 O3 2.533270 1_555
La2 O5 2.662687 1_555
La2 O10 2.674896 1_555
La2 O9 2.802045 1_565
La2 O6 2.813341 1_556
La3 O3 2.399511 1_445
La3 O10 2.435279 1_455
La3 O5 2.435521 1_455
La3 O2 2.533270 1_555
La3 O4 2.662687 1_555
La3 O11 2.674896 1_555
La3 O8 2.802045 1_546
La3 O7 2.813341 1_555
Mg0 O0 2.095645 1_545
Mg0 O2 2.095645 1_554
Mg0 O6 2.097807 1_545
Mg0 O4 2.097807 1_554
Mg0 O10 2.104480 1_554
Mg0 O8 2.104480 1_545
Mg1 O3 2.095645 1_445
Mg1 O1 2.095645 1_555
Mg1 O7 2.097807 1_555
Mg1 O5 2.097807 1_445
Mg1 O9 2.104480 1_455
Mg1 O11 2.104480 1_545
O0 Ti1 1.982569 1_555
O1 Ti0 1.982569 1_555
O2 Ti1 1.982569 1_555
O3 Ti0 1.982569 1_656
O4 Ti0 1.992819 1_556
O5 Ti1 1.992819 1_555
O6 Ti0 1.992819 1_655
O7 Ti1 1.992819 1_555
O8 Ti0 1.976367 1_555
O9 Ti1 1.976367 1_555
O10 Ti0 1.976367 1_656
O11 Ti1 1.976367 1_555
