# generated using pymatgen
data_As3HO6
_symmetry_space_group_name_H-M   'P 1'
_cell_length_a   4.62358889
_cell_length_b   11.13882311
_cell_length_c   12.26426523
_cell_angle_alpha   65.11329614
_cell_angle_beta   90.00000000
_cell_angle_gamma   90.00000000
_symmetry_Int_Tables_number   1
_chemical_formula_structural   As3HO6
_chemical_formula_sum   'As12 H4 O24'
_cell_volume   572.97435218
_cell_formula_units_Z   4
loop_
 _symmetry_equiv_pos_site_id
 _symmetry_equiv_pos_as_xyz
  1  'x, y, z'
loop_
 _atom_site_type_symbol
 _atom_site_label
 _atom_site_symmetry_multiplicity
 _atom_site_fract_x
 _atom_site_fract_y
 _atom_site_fract_z
 _atom_site_occupancy
  As  As0  1  0.24506723  0.32601926  0.03733473  1
  As  As1  1  0.74506723  0.17398074  0.96266527  1
  As  As2  1  0.75493277  0.67398074  0.96266527  1
  As  As3  1  0.25493277  0.82601926  0.03733473  1
  As  As4  1  0.55560948  0.80773383  0.55481140  1
  As  As5  1  0.05560948  0.69226617  0.44518860  1
  As  As6  1  0.44439052  0.19226617  0.44518860  1
  As  As7  1  0.94439052  0.30773383  0.55481140  1
  As  As8  1  0.38568052  0.51761060  0.75638012  1
  As  As9  1  0.88568052  0.98238940  0.24361988  1
  As  As10  1  0.61431948  0.48238940  0.24361988  1
  As  As11  1  0.11431948  0.01761060  0.75638012  1
  H  H0  1  0.85058536  0.45364853  0.72700739  1
  H  H1  1  0.35058536  0.04635147  0.27299261  1
  H  H2  1  0.14941464  0.54635147  0.27299261  1
  H  H3  1  0.64941464  0.95364853  0.72700739  1
  O  O0  1  0.10460730  0.23355497  0.95845528  1
  O  O1  1  0.60460730  0.26644503  0.04154472  1
  O  O2  1  0.89539270  0.76644503  0.04154472  1
  O  O3  1  0.39539270  0.73355497  0.95845528  1
  O  O4  1  0.27773025  0.48383657  0.90070429  1
  O  O5  1  0.77773025  0.01616343  0.09929571  1
  O  O6  1  0.72226975  0.51616343  0.09929571  1
  O  O7  1  0.22226975  0.98383657  0.90070429  1
  O  O8  1  0.52624463  0.67415867  0.70991834  1
  O  O9  1  0.02624463  0.82584133  0.29008166  1
  O  O10  1  0.47375537  0.32584133  0.29008166  1
  O  O11  1  0.97375537  0.17415867  0.70991834  1
  O  O12  1  0.19183823  0.80141023  0.50865136  1
  O  O13  1  0.69183823  0.69858977  0.49134864  1
  O  O14  1  0.80816177  0.19858977  0.49134864  1
  O  O15  1  0.30816177  0.30141023  0.50865136  1
  O  O16  1  0.65658632  0.40821182  0.76781119  1
  O  O17  1  0.15658632  0.09178818  0.23218881  1
  O  O18  1  0.34341368  0.59178818  0.23218881  1
  O  O19  1  0.84341368  0.90821182  0.76781119  1
  O  O20  1  0.11776231  0.50908780  0.66946990  1
  O  O21  1  0.61776231  0.99091220  0.33053010  1
  O  O22  1  0.88223769  0.49091220  0.33053010  1
  O  O23  1  0.38223769  0.00908780  0.66946990  1
loop_
_geom_bond_atom_site_label_1
_geom_bond_atom_site_label_2
_geom_bond_distance
_geom_bond_site_symmetry_2
As0 O1 1.782592 1_555
As0 O0 1.804714 1_554
As0 O4 1.855175 1_554
As1 O0 1.782592 1_655
As1 O1 1.804714 1_556
As1 O5 1.855175 1_556
As2 O3 1.782592 1_555
As2 O2 1.804714 1_556
As2 O6 1.855175 1_556
As3 O2 1.782592 1_455
As3 O3 1.804714 1_554
As3 O7 1.855175 1_554
As4 O12 1.785469 1_555
As4 O13 1.810231 1_555
As4 O8 1.862439 1_555
As5 O13 1.785469 1_455
As5 O12 1.810231 1_555
As5 O9 1.862439 1_555
As6 O14 1.785469 1_555
As6 O15 1.810231 1_555
As6 O10 1.862439 1_555
As7 O15 1.785469 1_655
As7 O14 1.810231 1_555
As7 O11 1.862439 1_555
As8 O20 1.662764 1_555
As8 O16 1.711634 1_555
As8 O8 1.717991 1_555
As8 O4 1.721396 1_555
As9 O21 1.662764 1_555
As9 O17 1.711634 1_665
As9 O9 1.717991 1_655
As9 O5 1.721396 1_565
As10 O22 1.662764 1_555
As10 O18 1.711634 1_555
As10 O10 1.717991 1_555
As10 O6 1.721396 1_555
As11 O23 1.662764 1_555
As11 O19 1.711634 1_445
As11 O11 1.717991 1_455
As11 O7 1.721396 1_545
H0 O16 1.047840 1_555
H0 O20 1.427774 1_655
H1 O17 1.047840 1_555
H1 O21 1.427774 1_545
H2 O18 1.047840 1_555
H2 O22 1.427774 1_455
H3 O19 1.047840 1_555
H3 O23 1.427774 1_565
