# generated using pymatgen
data_Cs7Cd3Br13
_symmetry_space_group_name_H-M   'P 1'
_cell_length_a   14.26611166
_cell_length_b   14.26611166
_cell_length_c   14.26611166
_cell_angle_alpha   99.20112731
_cell_angle_beta   99.20112731
_cell_angle_gamma   132.85917839
_symmetry_Int_Tables_number   1
_chemical_formula_structural   Cs7Cd3Br13
_chemical_formula_sum   'Cs14 Cd6 Br26'
_cell_volume   1950.75434061
_cell_formula_units_Z   2
loop_
 _symmetry_equiv_pos_site_id
 _symmetry_equiv_pos_as_xyz
  1  'x, y, z'
loop_
 _atom_site_type_symbol
 _atom_site_label
 _atom_site_symmetry_multiplicity
 _atom_site_fract_x
 _atom_site_fract_y
 _atom_site_fract_z
 _atom_site_occupancy
  Cs  Cs0  1  0.75000000  0.94985600  0.19985600  1
  Cs  Cs1  1  0.78960600  0.71039400  0.50000000  1
  Cs  Cs2  1  0.05014400  0.25000000  0.80014400  1
  Cs  Cs3  1  0.25000000  0.05014400  0.80014400  1
  Cs  Cs4  1  0.71039400  0.21039400  0.92078900  1
  Cs  Cs5  1  0.94985600  0.75000000  0.19985600  1
  Cs  Cs6  1  0.44985600  0.25000000  0.19985600  1
  Cs  Cs7  1  0.25000000  0.44985600  0.19985600  1
  Cs  Cs8  1  0.28960600  0.78960600  0.07921100  1
  Cs  Cs9  1  0.55014400  0.75000000  0.80014400  1
  Cs  Cs10  1  0.75000000  0.25000000  0.50000000  1
  Cs  Cs11  1  0.75000000  0.55014400  0.80014400  1
  Cs  Cs12  1  0.21039400  0.28960600  0.50000000  1
  Cs  Cs13  1  0.25000000  0.75000000  0.50000000  1
  Cd  Cd0  1  0.12711100  0.62711100  0.75422200  1
  Cd  Cd1  1  0.37288900  0.12711100  0.50000000  1
  Cd  Cd2  1  0.87288900  0.37288900  0.24577800  1
  Cd  Cd3  1  0.50000000  0.50000000  0.00000000  1
  Cd  Cd4  1  0.62711100  0.87288900  0.50000000  1
  Cd  Cd5  1  0.00000000  0.00000000  0.00000000  1
  Br  Br0  1  0.65632400  0.01153900  0.66786300  1
  Br  Br1  1  0.10977500  0.89197700  0.00175200  1
  Br  Br2  1  0.47757400  0.62499600  0.50000000  1
  Br  Br3  1  0.02242600  0.52242600  0.14742300  1
  Br  Br4  1  0.51153900  0.15632400  0.66786300  1
  Br  Br5  1  0.34367600  0.98846100  0.33213700  1
  Br  Br6  1  0.37500400  0.87500400  0.85257700  1
  Br  Br7  1  0.89197700  0.89022500  0.78220100  1
  Br  Br8  1  0.84367600  0.51153900  0.35521500  1
  Br  Br9  1  0.60802300  0.39022500  0.99824800  1
  Br  Br10  1  0.39022500  0.39197700  0.78220100  1
  Br  Br11  1  0.39197700  0.60977500  0.00175200  1
  Br  Br12  1  0.52242600  0.37500400  0.50000000  1
  Br  Br13  1  0.62499600  0.12499600  0.14742300  1
  Br  Br14  1  0.98846100  0.65632400  0.64478500  1
  Br  Br15  1  0.48846100  0.84367600  0.33213700  1
  Br  Br16  1  0.01153900  0.34367600  0.35521500  1
  Br  Br17  1  0.75000000  0.75000000  0.00000000  1
  Br  Br18  1  0.25000000  0.25000000  0.00000000  1
  Br  Br19  1  0.97757400  0.47757400  0.85257700  1
  Br  Br20  1  0.87500400  0.02242600  0.50000000  1
  Br  Br21  1  0.89022500  0.10802300  0.99824800  1
  Br  Br22  1  0.10802300  0.10977500  0.21779900  1
  Br  Br23  1  0.60977500  0.60802300  0.21779900  1
  Br  Br24  1  0.15632400  0.48846100  0.64478500  1
  Br  Br25  1  0.12499600  0.97757400  0.50000000  1
loop_
_geom_bond_atom_site_label_1
_geom_bond_atom_site_label_2
_geom_bond_distance
_geom_bond_site_symmetry_2
Br0 Cd4 2.620220 1_545
Br0 Cs4 3.810767 1_555
Br0 Cs9 3.905696 1_545
Br0 Cs2 3.905696 1_655
Br0 Cs13 4.066673 1_545
Br0 Cs10 4.066673 1_555
Br1 Cd5 2.847993 1_565
Br1 Cs8 3.826519 1_555
Br1 Cs5 3.860175 1_455
Br1 Cs6 3.860175 1_565
Br1 Cs11 3.891070 1_454
Br1 Cs3 3.891070 1_564
Br2 Cd4 2.606581 1_555
Br2 Cs12 3.551289 1_555
Br2 Cs1 3.731247 1_555
Br2 Cs9 4.026823 1_555
Br2 Cs7 4.026823 1_555
Br3 Cd2 2.606569 1_455
Br3 Cs8 3.551307 1_555
Br3 Cs4 3.731247 1_454
Br3 Cs5 4.026822 1_455
Br3 Cs7 4.026822 1_555
Br4 Cd1 2.620220 1_555
Br4 Cs4 3.810767 1_555
Br4 Cs3 3.905696 1_555
Br4 Cs11 3.905696 1_555
Br4 Cs13 4.066673 1_545
Br4 Cs10 4.066673 1_555
Br5 Cd1 2.620220 1_565
Br5 Cs8 3.810767 1_555
Br5 Cs6 3.905696 1_565
Br5 Cs5 3.905696 1_455
Br5 Cs13 4.066673 1_555
Br5 Cs10 4.066673 1_565
Br6 Cd0 2.606579 1_555
Br6 Cs4 3.551285 1_565
Br6 Cs8 3.731247 1_556
Br6 Cs3 4.026820 1_565
Br6 Cs9 4.026820 1_555
Br7 Cd5 2.848006 1_666
Br7 Cs1 3.826510 1_555
Br7 Cs3 3.860172 1_665
Br7 Cs11 3.860180 1_555
Br7 Cs2 3.891066 1_665
Br7 Cs9 3.891075 1_555
Br8 Cd2 2.620220 1_555
Br8 Cs1 3.810756 1_555
Br8 Cs6 3.905696 1_555
Br8 Cs5 3.905696 1_555
Br8 Cs10 4.066673 1_555
Br8 Cs13 4.066673 1_655
Br9 Cd3 2.847993 1_556
Br9 Cs4 3.826519 1_555
Br9 Cs11 3.860175 1_555
Br9 Cs3 3.860175 1_555
Br9 Cs5 3.891070 1_556
Br9 Cs6 3.891070 1_556
Br10 Cd3 2.848006 1_556
Br10 Cs12 3.826510 1_555
Br10 Cs9 3.860172 1_555
Br10 Cs2 3.860180 1_555
Br10 Cs11 3.891066 1_555
Br10 Cs3 3.891075 1_555
Br11 Cd3 2.847993 1_555
Br11 Cs8 3.826519 1_555
Br11 Cs7 3.860175 1_555
Br11 Cs0 3.860175 1_555
Br11 Cs2 3.891070 1_554
Br11 Cs9 3.891070 1_554
Br12 Cd1 2.606581 1_555
Br12 Cs1 3.551289 1_555
Br12 Cs12 3.731247 1_555
Br12 Cs11 4.026823 1_555
Br12 Cs6 4.026823 1_555
Br13 Cd2 2.606579 1_555
Br13 Cs8 3.551285 1_545
Br13 Cs4 3.731247 1_554
Br13 Cs6 4.026820 1_555
Br13 Cs0 4.026820 1_545
Br14 Cd0 2.620220 1_655
Br14 Cs1 3.810756 1_555
Br14 Cs3 3.905696 1_665
Br14 Cs11 3.905696 1_555
Br14 Cs10 4.066673 1_555
Br14 Cs13 4.066673 1_655
Br15 Cd4 2.620220 1_555
Br15 Cs8 3.810767 1_555
Br15 Cs7 3.905696 1_555
Br15 Cs0 3.905696 1_555
Br15 Cs10 4.066673 1_565
Br15 Cs13 4.066673 1_555
Br16 Cd2 2.620220 1_455
Br16 Cs12 3.810756 1_555
Br16 Cs0 3.905696 1_445
Br16 Cs7 3.905696 1_555
Br16 Cs10 4.066673 1_455
Br16 Cs13 4.066673 1_555
Br17 Cd3 2.852336 1_555
Br17 Cd5 2.852336 1_665
Br17 Cs0 3.695755 1_555
Br17 Cs5 3.695755 1_555
Br17 Cs11 3.695755 1_554
Br17 Cs9 3.695755 1_554
Br18 Cd5 2.852336 1_555
Br18 Cd3 2.852336 1_555
Br18 Cs7 3.695755 1_555
Br18 Cs6 3.695755 1_555
Br18 Cs2 3.695755 1_554
Br18 Cs3 3.695755 1_554
Br19 Cd0 2.606569 1_655
Br19 Cs4 3.551307 1_555
Br19 Cs8 3.731247 1_656
Br19 Cs11 4.026822 1_555
Br19 Cs2 4.026822 1_655
Br20 Cd4 2.606581 1_545
Br20 Cs12 3.551289 1_655
Br20 Cs1 3.731247 1_545
Br20 Cs2 4.026823 1_655
Br20 Cs0 4.026823 1_545
Br21 Cd5 2.847993 1_656
Br21 Cs4 3.826519 1_555
Br21 Cs2 3.860175 1_655
Br21 Cs9 3.860175 1_545
Br21 Cs0 3.891070 1_546
Br21 Cs7 3.891070 1_656
Br22 Cd5 2.848006 1_555
Br22 Cs12 3.826510 1_555
Br22 Cs0 3.860172 1_445
Br22 Cs7 3.860180 1_555
Br22 Cs5 3.891066 1_445
Br22 Cs6 3.891075 1_555
Br23 Cd3 2.848006 1_555
Br23 Cs1 3.826510 1_555
Br23 Cs6 3.860172 1_555
Br23 Cs5 3.860180 1_555
Br23 Cs7 3.891066 1_555
Br23 Cs0 3.891075 1_555
Br24 Cd0 2.620220 1_555
Br24 Cs12 3.810756 1_555
Br24 Cs9 3.905696 1_555
Br24 Cs2 3.905696 1_555
Br24 Cs13 4.066673 1_555
Br24 Cs10 4.066673 1_455
Br25 Cd1 2.606581 1_565
Br25 Cs1 3.551289 1_455
Br25 Cs12 3.731247 1_565
Br25 Cs3 4.026823 1_565
Br25 Cs5 4.026823 1_455
