# generated using pymatgen
data_Sr10Ga6O19
_symmetry_space_group_name_H-M   'P 1'
_cell_length_a   8.06341600
_cell_length_b   16.13635002
_cell_length_c   18.09525708
_cell_angle_alpha   102.82388448
_cell_angle_beta   102.86394864
_cell_angle_gamma   89.99696413
_symmetry_Int_Tables_number   1
_chemical_formula_structural   Sr10Ga6O19
_chemical_formula_sum   'Sr40 Ga24 O76'
_cell_volume   2235.08210166
_cell_formula_units_Z   4
loop_
 _symmetry_equiv_pos_site_id
 _symmetry_equiv_pos_as_xyz
  1  'x, y, z'
loop_
 _atom_site_type_symbol
 _atom_site_label
 _atom_site_symmetry_multiplicity
 _atom_site_fract_x
 _atom_site_fract_y
 _atom_site_fract_z
 _atom_site_occupancy
  Sr  Sr0  1  0.83287000  0.02202400  0.62636300  1
  Sr  Sr1  1  0.12422600  0.67832400  0.74848700  1
  Sr  Sr2  1  0.37782200  0.33251900  0.25360600  1
  Sr  Sr3  1  0.14398700  0.24976100  0.99911500  1
  Sr  Sr4  1  0.88807200  0.55871100  0.25709600  1
  Sr  Sr5  1  0.02424700  0.84706000  0.49782600  1
  Sr  Sr6  1  0.10996600  0.44077700  0.74105000  1
  Sr  Sr7  1  0.75295300  0.46936500  0.99043200  1
  Sr  Sr8  1  0.12639800  0.16720700  0.74582000  1
  Sr  Sr9  1  0.58167100  0.42423000  0.76103100  1
  Sr  Sr10  1  0.37314800  0.82116900  0.25001000  1
  Sr  Sr11  1  0.79430700  0.52156900  0.62580900  1
  Sr  Sr12  1  0.85458400  0.75027800  0.00002600  1
  Sr  Sr13  1  0.48468800  0.83217300  0.87098400  1
  Sr  Sr14  1  0.62987900  0.94203200  0.74242800  1
  Sr  Sr15  1  0.50256300  0.12089900  0.50892000  1
  Sr  Sr16  1  0.87338000  0.32205400  0.25065300  1
  Sr  Sr17  1  0.99259400  0.37902600  0.48899100  1
  Sr  Sr18  1  0.97292100  0.15332200  0.50208700  1
  Sr  Sr19  1  0.24429900  0.53047400  0.00763600  1
  Sr  Sr20  1  0.20473100  0.47910700  0.37286800  1
  Sr  Sr21  1  0.61301000  0.66774000  0.12854000  1
  Sr  Sr22  1  0.23693800  0.96943400  0.99179200  1
  Sr  Sr23  1  0.36859600  0.05914100  0.25834400  1
  Sr  Sr24  1  0.16678300  0.97811800  0.37307100  1
  Sr  Sr25  1  0.62409700  0.17863900  0.74825100  1
  Sr  Sr26  1  0.29140900  0.75019000  0.99927500  1
  Sr  Sr27  1  0.51336100  0.16786400  0.12892800  1
  Sr  Sr28  1  0.00525800  0.62144600  0.50983900  1
  Sr  Sr29  1  0.82088700  0.07674100  0.23828200  1
  Sr  Sr30  1  0.38547500  0.33219000  0.87038800  1
  Sr  Sr31  1  0.49821400  0.87941000  0.49010500  1
  Sr  Sr32  1  0.17803900  0.92410400  0.76184500  1
  Sr  Sr33  1  0.76066200  0.02987100  0.00874700  1
  Sr  Sr34  1  0.52713400  0.65452700  0.50270800  1
  Sr  Sr35  1  0.70650400  0.24964600  0.00016700  1
  Sr  Sr36  1  0.61987400  0.66778600  0.74579600  1
  Sr  Sr37  1  0.41559800  0.57618300  0.23773100  1
  Sr  Sr38  1  0.87271100  0.83170900  0.25467700  1
  Sr  Sr39  1  0.46947500  0.34746500  0.49760300  1
  Ga  Ga0  1  0.93485700  0.84778900  0.85398800  1
  Ga  Ga1  1  0.29955200  0.03456700  0.61203300  1
  Ga  Ga2  1  0.15373600  0.21342800  0.35964500  1
  Ga  Ga3  1  0.07435200  0.43125000  0.12568700  1
  Ga  Ga4  1  0.41139400  0.08928100  0.88604900  1
  Ga  Ga5  1  0.30970200  0.76541900  0.62902500  1
  Ga  Ga6  1  0.69999900  0.96506700  0.38702100  1
  Ga  Ga7  1  0.94706900  0.06829400  0.87332300  1
  Ga  Ga8  1  0.84595800  0.78709600  0.63971500  1
  Ga  Ga9  1  0.47240100  0.58909100  0.88576200  1
  Ga  Ga10  1  0.79317500  0.28663100  0.63900000  1
  Ga  Ga11  1  0.92405600  0.56845800  0.87261300  1
  Ga  Ga12  1  0.91785800  0.34784700  0.85313700  1
  Ga  Ga13  1  0.07982600  0.65220600  0.14550100  1
  Ga  Ga14  1  0.04959100  0.93192600  0.12687300  1
  Ga  Ga15  1  0.31313100  0.53476200  0.61169800  1
  Ga  Ga16  1  0.68974400  0.23480700  0.37107600  1
  Ga  Ga17  1  0.58639800  0.91087000  0.11400000  1
  Ga  Ga18  1  0.20512700  0.71341700  0.36026800  1
  Ga  Ga19  1  0.68055000  0.73466700  0.37150200  1
  Ga  Ga20  1  0.52546600  0.41075600  0.11334800  1
  Ga  Ga21  1  0.31887500  0.26518200  0.62799900  1
  Ga  Ga22  1  0.68524100  0.46566900  0.38692100  1
  Ga  Ga23  1  0.06355900  0.15236200  0.14536800  1
  O  O0  1  0.25273300  0.48043200  0.50737200  1
  O  O1  1  0.66868800  0.20732700  0.46027700  1
  O  O2  1  0.92874600  0.23452000  0.37459900  1
  O  O3  1  0.30424700  0.44326100  0.12461700  1
  O  O4  1  0.16036100  0.63112700  0.40896200  1
  O  O5  1  0.49948200  0.87437400  0.00719300  1
  O  O6  1  0.09554600  0.03729700  0.09915200  1
  O  O7  1  0.84462300  0.07597400  0.77362000  1
  O  O8  1  0.84005900  0.36950600  0.59067400  1
  O  O9  1  0.92524500  0.57609100  0.77268900  1
  O  O10  1  0.53403400  0.03666400  0.64966200  1
  O  O11  1  0.25337300  0.15147100  0.61983700  1
  O  O12  1  0.87696900  0.17971100  0.63266100  1
  O  O13  1  0.75560200  0.86947800  0.59024900  1
  O  O14  1  0.12191800  0.82061900  0.36755500  1
  O  O15  1  0.94485400  0.35484000  0.04177500  1
  O  O16  1  0.59536500  0.32680900  0.16659800  1
  O  O17  1  0.16856700  0.83146800  0.87238200  1
  O  O18  1  0.90144800  0.14454700  0.95751900  1
  O  O19  1  0.49142700  0.62596300  0.99216100  1
  O  O20  1  0.09594000  0.85527100  0.04278100  1
  O  O21  1  0.07143700  0.76512000  0.62547500  1
  O  O22  1  0.88544100  0.84934000  0.74603900  1
  O  O23  1  0.00091900  0.53711400  0.09894300  1
  O  O24  1  0.69291800  0.55650300  0.87385800  1
  O  O25  1  0.13798500  0.65186100  0.25373000  1
  O  O26  1  0.17809400  0.05751400  0.87307800  1
  O  O27  1  0.15217100  0.92392600  0.22628000  1
  O  O28  1  0.74744900  0.01963600  0.49135000  1
  O  O29  1  0.85506600  0.99352700  0.33366500  1
  O  O30  1  0.36198900  0.48212400  0.85108000  1
  O  O31  1  0.50745400  0.37443900  0.00703100  1
  O  O32  1  0.56827500  0.82614100  0.16646000  1
  O  O33  1  0.44534100  0.73375200  0.37527200  1
  O  O34  1  0.63496100  0.51860600  0.14867200  1
  O  O35  1  0.24820900  0.13067500  0.40750200  1
  O  O36  1  0.85773300  0.34892200  0.74535600  1
  O  O37  1  0.49686500  0.12610700  0.99256900  1
  O  O38  1  0.46533700  0.96272300  0.35020300  1
  O  O39  1  0.31313600  0.32217700  0.72727500  1
  O  O40  1  0.48790200  0.98193200  0.85249900  1
  O  O41  1  0.43014400  0.17298000  0.83227500  1
  O  O42  1  0.24424200  0.32107400  0.36745000  1
  O  O43  1  0.29545900  0.66844600  0.12770900  1
  O  O44  1  0.51042000  0.01834400  0.14816100  1
  O  O45  1  0.55283600  0.26474400  0.62241400  1
  O  O46  1  0.74695800  0.84820100  0.38111200  1
  O  O47  1  0.07246200  0.42374600  0.22570300  1
  O  O48  1  0.09595200  0.27807600  0.86768000  1
  O  O49  1  0.25414900  0.98090000  0.50789900  1
  O  O50  1  0.40217700  0.67369100  0.83268200  1
  O  O51  1  0.81851700  0.94384100  0.12535800  1
  O  O52  1  0.75559700  0.67974700  0.63224000  1
  O  O53  1  0.90181500  0.72171300  0.13117900  1
  O  O54  1  0.82973400  0.16827900  0.12772700  1
  O  O55  1  0.36727800  0.65156600  0.61904100  1
  O  O56  1  0.41489900  0.82179800  0.72843200  1
  O  O57  1  0.11339400  0.15149400  0.25331500  1
  O  O58  1  0.70227200  0.33224800  0.87144400  1
  O  O59  1  0.33274300  0.79315200  0.53958000  1
  O  O60  1  0.14404300  0.00521700  0.66475700  1
  O  O61  1  0.22680300  0.22218600  0.13079200  1
  O  O62  1  0.74407300  0.52052700  0.49097200  1
  O  O63  1  0.11842100  0.53681900  0.65026000  1
  O  O64  1  0.52231900  0.50435900  0.66328900  1
  O  O65  1  0.63409500  0.34899700  0.38045800  1
  O  O66  1  0.20654800  0.29218500  0.53836000  1
  O  O67  1  0.99734200  0.46267600  0.89952800  1
  O  O68  1  0.90332800  0.96261600  0.90094500  1
  O  O69  1  0.88239200  0.46390300  0.34928200  1
  O  O70  1  0.68724100  0.67797300  0.27173900  1
  O  O71  1  0.79203200  0.70860700  0.46128400  1
  O  O72  1  0.47667200  0.49372200  0.33379600  1
  O  O73  1  0.77126800  0.77807200  0.86842300  1
  O  O74  1  0.58369600  0.17804900  0.27160300  1
  O  O75  1  0.05349000  0.64468000  0.95636300  1
loop_
_geom_bond_atom_site_label_1
_geom_bond_atom_site_label_2
_geom_bond_distance
_geom_bond_site_symmetry_2
Ga0 O73 1.832433 1_555
Ga0 O17 1.868436 1_655
Ga0 O68 1.901858 1_555
Ga0 O22 1.910539 1_555
Ga1 O49 1.844764 1_545
Ga1 O60 1.854777 1_555
Ga1 O10 1.859073 1_555
Ga1 O11 1.903208 1_555
Ga2 O35 1.825601 1_555
Ga2 O42 1.847996 1_555
Ga2 O2 1.912584 1_455
Ga2 O57 1.916869 1_555
Ga3 O15 1.838266 1_455
Ga3 O47 1.843878 1_555
Ga3 O3 1.868682 1_555
Ga3 O23 1.934484 1_555
Ga4 O41 1.855457 1_555
Ga4 O37 1.855657 1_555
Ga4 O40 1.857301 1_545
Ga4 O26 1.899167 1_555
Ga5 O59 1.819301 1_555
Ga5 O56 1.837680 1_555
Ga5 O55 1.874379 1_555
Ga5 O21 1.907926 1_555
Ga6 O28 1.851011 1_565
Ga6 O29 1.854974 1_555
Ga6 O38 1.858259 1_555
Ga6 O46 1.907736 1_555
Ga7 O18 1.840612 1_555
Ga7 O7 1.840742 1_555
Ga7 O26 1.871842 1_655
Ga7 O68 1.933662 1_545
Ga8 O13 1.826720 1_555
Ga8 O52 1.844454 1_555
Ga8 O21 1.914608 1_655
Ga8 O22 1.918661 1_555
Ga9 O30 1.853719 1_555
Ga9 O19 1.855899 1_555
Ga9 O50 1.856498 1_555
Ga9 O24 1.898630 1_555
Ga10 O8 1.833676 1_555
Ga10 O12 1.841975 1_555
Ga10 O45 1.914290 1_555
Ga10 O36 1.918437 1_555
Ga11 O75 1.834976 1_655
Ga11 O9 1.841535 1_555
Ga11 O24 1.879360 1_555
Ga11 O67 1.934118 1_555
Ga12 O48 1.833601 1_655
Ga12 O58 1.867745 1_555
Ga12 O67 1.902329 1_555
Ga12 O36 1.906070 1_555
Ga13 O53 1.829933 1_455
Ga13 O43 1.866091 1_555
Ga13 O23 1.905400 1_555
Ga13 O25 1.910837 1_555
Ga14 O27 1.837678 1_555
Ga14 O20 1.844666 1_555
Ga14 O51 1.867876 1_455
Ga14 O6 1.934272 1_565
Ga15 O0 1.850828 1_555
Ga15 O63 1.852169 1_555
Ga15 O64 1.859959 1_555
Ga15 O55 1.903628 1_555
Ga16 O1 1.808475 1_555
Ga16 O74 1.841983 1_555
Ga16 O65 1.876260 1_555
Ga16 O2 1.914028 1_555
Ga17 O32 1.851942 1_555
Ga17 O44 1.859478 1_565
Ga17 O5 1.861447 1_555
Ga17 O51 1.899667 1_555
Ga18 O4 1.825091 1_555
Ga18 O14 1.843354 1_555
Ga18 O33 1.912982 1_555
Ga18 O25 1.918735 1_555
Ga19 O71 1.810320 1_555
Ga19 O70 1.846338 1_555
Ga19 O46 1.868290 1_555
Ga19 O33 1.913107 1_555
Ga20 O16 1.848943 1_555
Ga20 O31 1.854933 1_555
Ga20 O34 1.863283 1_555
Ga20 O3 1.900777 1_555
Ga21 O66 1.816802 1_555
Ga21 O39 1.838129 1_555
Ga21 O11 1.874202 1_555
Ga21 O45 1.911496 1_555
Ga22 O62 1.848283 1_555
Ga22 O72 1.852194 1_555
Ga22 O69 1.861549 1_555
Ga22 O65 1.899747 1_555
Ga23 O61 1.832582 1_555
Ga23 O54 1.868437 1_455
Ga23 O6 1.902645 1_555
Ga23 O57 1.907827 1_555
O0 Sr20 2.373077 1_555
O0 Sr17 2.576092 1_455
O0 Sr39 2.767317 1_555
O0 Sr28 3.025849 1_555
O1 Sr15 2.363103 1_555
O1 Sr18 2.610711 1_555
O1 Sr39 2.820422 1_555
O2 Sr17 2.714779 1_555
O2 Sr18 2.853306 1_555
O2 Sr16 2.860959 1_555
O2 Sr29 3.095179 1_555
O3 Sr37 2.613274 1_555
O3 Sr19 2.749856 1_555
O3 Sr2 3.198130 1_555
O4 Sr20 2.442287 1_555
O4 Sr28 2.462471 1_555
O4 Sr34 3.041147 1_555
O4 Sr4 3.102586 1_455
O5 Sr13 2.382625 1_554
O5 Sr26 2.572325 1_554
O5 Sr22 2.615147 1_554
O5 Sr33 3.267226 1_565
O6 Sr22 2.512933 1_544
O6 Sr33 2.815715 1_455
O6 Sr23 3.161496 1_555
O7 Sr25 2.467987 1_555
O7 Sr0 2.593268 1_555
O7 Sr14 2.648011 1_545
O7 Sr8 2.901838 1_655
O8 Sr11 2.443970 1_555
O8 Sr17 2.460711 1_555
O8 Sr39 3.063558 1_555
O8 Sr6 3.072084 1_655
O9 Sr1 2.474141 1_655
O9 Sr11 2.581745 1_555
O9 Sr6 2.671766 1_655
O9 Sr36 2.876608 1_555
O10 Sr14 2.511359 1_545
O10 Sr0 2.539291 1_555
O10 Sr25 2.562718 1_555
O11 Sr8 2.663093 1_555
O11 Sr18 2.745454 1_455
O12 Sr0 2.543069 1_555
O12 Sr8 2.574539 1_655
O12 Sr18 2.594215 1_555
O13 Sr0 2.445238 1_565
O13 Sr31 2.463968 1_555
O13 Sr5 2.994117 1_655
O14 Sr24 2.543868 1_555
O14 Sr38 2.564491 1_455
O14 Sr5 2.596006 1_555
O15 Sr35 2.435293 1_555
O15 Sr3 2.453522 1_654
O15 Sr7 2.606612 1_554
O16 Sr16 2.424522 1_555
O16 Sr27 2.550183 1_555
O16 Sr2 2.594159 1_555
O17 Sr13 2.554817 1_555
O17 Sr22 2.695065 1_555
O17 Sr32 2.763394 1_555
O17 Sr26 2.880550 1_555
O17 Sr1 2.905958 1_555
O18 Sr35 2.429299 1_556
O18 Sr3 2.459944 1_655
O18 Sr33 2.608149 1_556
O19 Sr21 2.385366 1_556
O19 Sr26 2.571701 1_555
O19 Sr19 2.619881 1_556
O19 Sr7 3.290445 1_555
O20 Sr26 2.436966 1_554
O20 Sr12 2.450400 1_455
O20 Sr22 2.599871 1_554
O21 Sr28 2.717996 1_555
O21 Sr1 2.838932 1_555
O21 Sr5 2.862295 1_555
O21 Sr32 3.107267 1_555
O22 Sr14 2.543819 1_555
O22 Sr32 2.578835 1_655
O23 Sr7 2.519448 1_454
O23 Sr19 2.820957 1_555
O23 Sr4 3.139458 1_455
O24 Sr9 2.603636 1_555
O24 Sr7 2.742818 1_555
O24 Sr36 3.190728 1_555
O25 Sr4 2.533669 1_455
O25 Sr37 2.591780 1_555
O26 Sr32 2.600343 1_545
O26 Sr22 2.785892 1_545
O26 Sr8 3.160923 1_555
O27 Sr10 2.466523 1_555
O27 Sr24 2.581401 1_555
O27 Sr23 2.670257 1_565
O27 Sr38 2.900261 1_455
O28 Sr0 2.377718 1_555
O28 Sr15 2.592062 1_555
O28 Sr18 2.766541 1_555
O28 Sr31 3.019439 1_545
O29 Sr29 2.382215 1_565
O29 Sr24 2.483660 1_655
O29 Sr38 2.704636 1_555
O30 Sr6 2.479486 1_555
O30 Sr30 2.521327 1_555
O30 Sr9 2.697222 1_555
O30 Sr19 3.122589 1_556
O31 Sr30 2.390560 1_554
O31 Sr35 2.573698 1_555
O31 Sr7 2.612370 1_554
O31 Sr19 3.292375 1_555
O32 Sr10 2.425028 1_555
O32 Sr21 2.542776 1_555
O32 Sr38 2.602651 1_555
O33 Sr31 2.731574 1_555
O33 Sr34 2.831645 1_555
O33 Sr10 2.880631 1_555
O33 Sr37 3.105121 1_555
O34 Sr4 2.467196 1_555
O34 Sr21 2.513082 1_555
O34 Sr37 2.682055 1_555
O34 Sr7 3.152549 1_554
O35 Sr24 2.452850 1_545
O35 Sr15 2.460030 1_555
O35 Sr23 3.056652 1_555
O35 Sr18 3.066628 1_455
O36 Sr6 2.541995 1_655
O36 Sr9 2.576837 1_555
O37 Sr27 2.382405 1_556
O37 Sr35 2.574004 1_556
O37 Sr33 2.635517 1_556
O37 Sr22 3.279649 1_545
O38 Sr23 2.522418 1_565
O38 Sr24 2.535000 1_555
O38 Sr10 2.572696 1_555
O38 Sr31 3.081935 1_555
O39 Sr30 2.492865 1_555
O39 Sr6 2.525516 1_555
O39 Sr9 2.595848 1_555
O39 Sr8 3.038262 1_555
O40 Sr14 2.477547 1_555
O40 Sr13 2.512971 1_555
O40 Sr32 2.701883 1_555
O40 Sr33 3.112869 1_566
O41 Sr25 2.426182 1_555
O41 Sr30 2.555284 1_555
O41 Sr8 2.585351 1_555
O42 Sr20 2.552810 1_555
O42 Sr2 2.568062 1_555
O42 Sr39 2.583946 1_555
O43 Sr21 2.557280 1_555
O43 Sr19 2.702106 1_555
O43 Sr37 2.752335 1_555
O43 Sr10 2.885334 1_555
O43 Sr26 2.910184 1_554
O44 Sr23 2.479695 1_555
O44 Sr27 2.513815 1_555
O44 Sr29 2.704580 1_555
O44 Sr22 3.118102 1_544
O45 Sr15 2.698704 1_555
O45 Sr39 2.827806 1_555
O45 Sr25 2.875306 1_555
O45 Sr9 3.137443 1_555
O46 Sr38 2.663844 1_555
O46 Sr5 2.715621 1_655
O46 Sr31 3.080057 1_555
O47 Sr16 2.474933 1_455
O47 Sr20 2.589684 1_555
O47 Sr4 2.665119 1_455
O47 Sr2 2.874120 1_555
O48 Sr3 2.467288 1_555
O48 Sr30 2.478964 1_555
O48 Sr8 2.571590 1_555
O49 Sr24 2.374182 1_555
O49 Sr31 2.589675 1_555
O49 Sr5 2.794505 1_555
O49 Sr15 3.013552 1_565
O50 Sr1 2.424868 1_555
O50 Sr13 2.543808 1_555
O50 Sr36 2.593203 1_555
O51 Sr29 2.610007 1_565
O51 Sr33 2.731163 1_565
O51 Sr38 3.219461 1_555
O52 Sr11 2.551476 1_555
O52 Sr36 2.575781 1_555
O52 Sr34 2.589827 1_555
O53 Sr12 2.464332 1_555
O53 Sr21 2.473081 1_555
O53 Sr38 2.583057 1_555
O54 Sr27 2.555995 1_555
O54 Sr33 2.695413 1_555
O54 Sr29 2.750319 1_555
O54 Sr35 2.891898 1_555
O54 Sr16 2.903490 1_555
O55 Sr36 2.670446 1_555
O55 Sr34 2.710715 1_555
O56 Sr13 2.482046 1_555
O56 Sr14 2.533763 1_555
O56 Sr32 2.609472 1_555
O56 Sr36 3.020199 1_555
O57 Sr23 2.537741 1_555
O57 Sr29 2.580889 1_455
O58 Sr30 2.550278 1_555
O58 Sr7 2.681777 1_555
O58 Sr9 2.755287 1_555
O58 Sr25 2.903835 1_555
O58 Sr35 2.923371 1_556
O59 Sr31 2.367350 1_555
O59 Sr5 2.640078 1_555
O59 Sr34 2.776435 1_555
O60 Sr32 2.383488 1_545
O60 Sr0 2.481786 1_455
O60 Sr8 2.719440 1_555
O61 Sr3 2.466462 1_554
O61 Sr27 2.475863 1_555
O61 Sr2 2.574932 1_555
O62 Sr11 2.378916 1_555
O62 Sr28 2.576292 1_655
O62 Sr34 2.782378 1_555
O62 Sr17 3.037381 1_555
O63 Sr6 2.507100 1_555
O63 Sr11 2.554090 1_455
O63 Sr1 2.556681 1_555
O64 Sr9 2.380596 1_555
O64 Sr11 2.468398 1_555
O64 Sr36 2.744393 1_555
O65 Sr2 2.688280 1_555
O65 Sr39 2.744483 1_555
O66 Sr17 2.367954 1_455
O66 Sr39 2.612059 1_555
O66 Sr18 2.792410 1_455
O67 Sr19 2.510921 1_656
O67 Sr7 2.822282 1_555
O67 Sr6 3.143726 1_655
O68 Sr33 2.523034 1_566
O68 Sr22 2.810958 1_655
O68 Sr14 3.156067 1_555
O69 Sr4 2.508404 1_555
O69 Sr20 2.541178 1_655
O69 Sr16 2.560964 1_555
O70 Sr21 2.493878 1_555
O70 Sr4 2.522004 1_555
O70 Sr37 2.612620 1_555
O70 Sr38 3.005320 1_555
O71 Sr28 2.362593 1_655
O71 Sr34 2.624748 1_555
O71 Sr5 2.779921 1_655
O72 Sr37 2.383351 1_555
O72 Sr20 2.475508 1_555
O72 Sr2 2.704985 1_555
O73 Sr12 2.466822 1_556
O73 Sr13 2.476618 1_555
O73 Sr36 2.573361 1_555
O74 Sr27 2.484699 1_555
O74 Sr23 2.521531 1_555
O74 Sr29 2.601818 1_555
O74 Sr2 3.032154 1_555
O75 Sr26 2.435611 1_555
O75 Sr12 2.463016 1_456
O75 Sr19 2.597548 1_556
