# generated using pymatgen
data_MgH6(BrN)2
_symmetry_space_group_name_H-M   'P 1'
_cell_length_a   6.01208900
_cell_length_b   8.04678600
_cell_length_c   12.00607500
_cell_angle_alpha   90.00000000
_cell_angle_beta   90.00000000
_cell_angle_gamma   90.00000000
_symmetry_Int_Tables_number   1
_chemical_formula_structural   MgH6(BrN)2
_chemical_formula_sum   'Mg4 H24 Br8 N8'
_cell_volume   580.82981946
_cell_formula_units_Z   4
loop_
 _symmetry_equiv_pos_site_id
 _symmetry_equiv_pos_as_xyz
  1  'x, y, z'
loop_
 _atom_site_type_symbol
 _atom_site_label
 _atom_site_symmetry_multiplicity
 _atom_site_fract_x
 _atom_site_fract_y
 _atom_site_fract_z
 _atom_site_occupancy
  Mg  Mg0  1  0.50103900  0.75000000  0.49994500  1
  Mg  Mg1  1  0.00103900  0.75000000  0.00005500  1
  Mg  Mg2  1  0.49896100  0.25000000  0.50005500  1
  Mg  Mg3  1  0.99896100  0.25000000  0.99994500  1
  H  H0  1  0.29183600  0.75000000  0.70440700  1
  H  H1  1  0.79183600  0.75000000  0.79559300  1
  H  H2  1  0.70816400  0.25000000  0.29559300  1
  H  H3  1  0.20816400  0.25000000  0.20440700  1
  H  H4  1  0.13584500  0.85111500  0.61503200  1
  H  H5  1  0.63584500  0.64888500  0.88496800  1
  H  H6  1  0.86415500  0.35111500  0.38496800  1
  H  H7  1  0.36415500  0.14888500  0.11503200  1
  H  H8  1  0.86415500  0.14888500  0.38496800  1
  H  H9  1  0.36415500  0.35111500  0.11503200  1
  H  H10  1  0.13584500  0.64888500  0.61503200  1
  H  H11  1  0.63584500  0.85111500  0.88496800  1
  H  H12  1  0.91369200  0.75000000  0.39839200  1
  H  H13  1  0.41369200  0.75000000  0.10160800  1
  H  H14  1  0.08630800  0.25000000  0.60160800  1
  H  H15  1  0.58630800  0.25000000  0.89839200  1
  H  H16  1  0.73918600  0.85062200  0.31840100  1
  H  H17  1  0.23918600  0.64937800  0.18159900  1
  H  H18  1  0.26081400  0.35062200  0.68159900  1
  H  H19  1  0.76081400  0.14937800  0.81840100  1
  H  H20  1  0.26081400  0.14937800  0.68159900  1
  H  H21  1  0.76081400  0.35062200  0.81840100  1
  H  H22  1  0.73918600  0.64937800  0.31840100  1
  H  H23  1  0.23918600  0.85062200  0.18159900  1
  Br  Br0  1  0.22174400  0.99916800  0.88682600  1
  Br  Br1  1  0.72174400  0.50083200  0.61317400  1
  Br  Br2  1  0.77825600  0.49916800  0.11317400  1
  Br  Br3  1  0.27825600  0.00083200  0.38682600  1
  Br  Br4  1  0.77825600  0.00083200  0.11317400  1
  Br  Br5  1  0.27825600  0.49916800  0.38682600  1
  Br  Br6  1  0.22174400  0.50083200  0.88682600  1
  Br  Br7  1  0.72174400  0.99916800  0.61317400  1
  N  N0  1  0.23922100  0.75000000  0.62298400  1
  N  N1  1  0.73922100  0.75000000  0.87701600  1
  N  N2  1  0.76077900  0.25000000  0.37701600  1
  N  N3  1  0.26077900  0.25000000  0.12298400  1
  N  N4  1  0.75190100  0.75000000  0.37088000  1
  N  N5  1  0.25190100  0.75000000  0.12912000  1
  N  N6  1  0.24809900  0.25000000  0.62912000  1
  N  N7  1  0.74809900  0.25000000  0.87088000  1
loop_
_geom_bond_atom_site_label_1
_geom_bond_atom_site_label_2
_geom_bond_distance
_geom_bond_site_symmetry_2
Mg0 N0 2.158674 1_555
Mg0 N4 2.162367 1_555
Mg1 N1 2.158674 1_454
Mg1 N5 2.162367 1_555
Mg2 N2 2.158674 1_555
Mg2 N6 2.162367 1_555
Mg3 N3 2.158674 1_656
Mg3 N7 2.162367 1_555
H0 N0 1.027476 1_555
H1 N1 1.027476 1_555
H2 N2 1.027476 1_555
H3 N3 1.027476 1_555
H4 N0 1.028305 1_555
H5 N1 1.028305 1_555
H6 N2 1.028305 1_555
H7 N3 1.028305 1_555
H8 N2 1.028305 1_555
H9 N3 1.028305 1_555
H10 N0 1.028305 1_555
H11 N1 1.028305 1_555
H12 N4 1.027256 1_555
H13 N5 1.027256 1_555
H14 N6 1.027256 1_555
H15 N7 1.027256 1_555
H16 N4 1.028793 1_555
H17 N5 1.028793 1_555
H18 N6 1.028793 1_555
H19 N7 1.028793 1_555
H20 N6 1.028793 1_555
H21 N7 1.028793 1_555
H22 N4 1.028793 1_555
H23 N5 1.028793 1_555
Br0 Mg1 2.762020 1_556
Br0 Mg3 2.777112 1_465
Br1 Mg0 2.762020 1_555
Br1 Mg2 2.777112 1_555
Br2 Mg3 2.762020 1_554
Br2 Mg1 2.777112 1_655
Br3 Mg2 2.762020 1_555
Br3 Mg0 2.777112 1_545
Br4 Mg3 2.762020 1_554
Br4 Mg1 2.777112 1_645
Br5 Mg2 2.762020 1_555
Br5 Mg0 2.777112 1_555
Br6 Mg1 2.762020 1_556
Br6 Mg3 2.777112 1_455
Br7 Mg0 2.762020 1_555
Br7 Mg2 2.777112 1_565
