# generated using pymatgen
data_CuH4Pb2(ClO2)2
_symmetry_space_group_name_H-M   'P 1'
_cell_length_a   5.96630000
_cell_length_b   5.96630000
_cell_length_c   5.56247000
_cell_angle_alpha   90.00000000
_cell_angle_beta   90.00000000
_cell_angle_gamma   90.00000000
_symmetry_Int_Tables_number   1
_chemical_formula_structural   CuH4Pb2(ClO2)2
_chemical_formula_sum   'Cu1 H4 Pb2 Cl2 O4'
_cell_volume   198.00577437
_cell_formula_units_Z   1
loop_
 _symmetry_equiv_pos_site_id
 _symmetry_equiv_pos_as_xyz
  1  'x, y, z'
loop_
 _atom_site_type_symbol
 _atom_site_label
 _atom_site_symmetry_multiplicity
 _atom_site_fract_x
 _atom_site_fract_y
 _atom_site_fract_z
 _atom_site_occupancy
  Cu  Cu0  1  0.00000000  0.00000000  0.02558300  1
  H  H0  1  0.70680600  0.29319400  0.12103800  1
  H  H1  1  0.29319400  0.70680600  0.12103800  1
  H  H2  1  0.70680600  0.70680600  0.12103800  1
  H  H3  1  0.29319400  0.29319400  0.12103800  1
  Pb  Pb0  1  0.50000000  0.00000000  0.73001800  1
  Pb  Pb1  1  0.00000000  0.50000000  0.73001800  1
  Cl  Cl0  1  0.00000000  0.00000000  0.49023000  1
  Cl  Cl1  1  0.50000000  0.50000000  0.41851100  1
  O  O0  1  0.76638300  0.23361700  0.96832200  1
  O  O1  1  0.23361700  0.76638300  0.96832200  1
  O  O2  1  0.76638300  0.76638300  0.96832200  1
  O  O3  1  0.23361700  0.23361700  0.96832200  1
loop_
_geom_bond_atom_site_label_1
_geom_bond_atom_site_label_2
_geom_bond_distance
_geom_bond_site_symmetry_2
Cu0 O1 1.996740 1_544
Cu0 O2 1.996740 1_444
Cu0 O3 1.996740 1_554
Cu0 O0 1.996740 1_454
H0 O0 0.987071 1_554
H1 O1 0.987071 1_554
H2 O2 0.987071 1_554
H3 O3 0.987071 1_554
Cl0 Cu0 2.584585 1_555
O0 Pb1 2.495157 1_655
O0 Pb0 2.495157 1_555
O1 Pb0 2.495157 1_565
O1 Pb1 2.495157 1_555
O2 Pb0 2.495157 1_565
O2 Pb1 2.495157 1_655
O3 Pb0 2.495157 1_555
O3 Pb1 2.495157 1_555
