# generated using pymatgen
data_CsGdSiS4
_symmetry_space_group_name_H-M   'P 1'
_cell_length_a   6.44278800
_cell_length_b   6.76746200
_cell_length_c   17.98275800
_cell_angle_alpha   90.00000000
_cell_angle_beta   90.00000000
_cell_angle_gamma   90.00000000
_symmetry_Int_Tables_number   1
_chemical_formula_structural   CsGdSiS4
_chemical_formula_sum   'Cs4 Gd4 Si4 S16'
_cell_volume   784.07203934
_cell_formula_units_Z   4
loop_
 _symmetry_equiv_pos_site_id
 _symmetry_equiv_pos_as_xyz
  1  'x, y, z'
loop_
 _atom_site_type_symbol
 _atom_site_label
 _atom_site_symmetry_multiplicity
 _atom_site_fract_x
 _atom_site_fract_y
 _atom_site_fract_z
 _atom_site_occupancy
  Cs  Cs0  1  0.49928500  0.49281100  0.46726200  1
  Cs  Cs1  1  0.00071500  0.50718900  0.96726200  1
  Cs  Cs2  1  0.99928500  0.00718900  0.53273800  1
  Cs  Cs3  1  0.50071500  0.99281100  0.03273800  1
  Gd  Gd0  1  0.79175000  0.02103400  0.27189200  1
  Gd  Gd1  1  0.20825000  0.52103400  0.22810800  1
  Gd  Gd2  1  0.29175000  0.47896500  0.72810800  1
  Gd  Gd3  1  0.70825000  0.97896600  0.77189200  1
  Si  Si0  1  0.71011300  0.48301900  0.16746500  1
  Si  Si1  1  0.21011300  0.01698100  0.83253500  1
  Si  Si2  1  0.28988700  0.98301900  0.33253500  1
  Si  Si3  1  0.78988700  0.51698100  0.66746500  1
  S  S0  1  0.39375000  0.75408500  0.84413200  1
  S  S1  1  0.56947300  0.74716600  0.64667800  1
  S  S2  1  0.38975400  0.92821300  0.22127000  1
  S  S3  1  0.05178200  0.51199400  0.59665200  1
  S  S4  1  0.61024600  0.42821300  0.27873000  1
  S  S5  1  0.11024600  0.07178700  0.72127000  1
  S  S6  1  0.10625000  0.24591500  0.34413200  1
  S  S7  1  0.89375000  0.74591500  0.15586800  1
  S  S8  1  0.06947300  0.75283400  0.35332200  1
  S  S9  1  0.94821800  0.01199400  0.90334800  1
  S  S10  1  0.43052700  0.24716600  0.85332200  1
  S  S11  1  0.93052700  0.25283400  0.14667800  1
  S  S12  1  0.88975400  0.57178700  0.77873000  1
  S  S13  1  0.55178200  0.98800600  0.40334800  1
  S  S14  1  0.60625000  0.25408500  0.65586800  1
  S  S15  1  0.44821800  0.48800600  0.09665200  1
loop_
_geom_bond_atom_site_label_1
_geom_bond_atom_site_label_2
_geom_bond_distance
_geom_bond_site_symmetry_2
Cs0 S4 3.492349 1_555
Cs0 S13 3.558937 1_555
Cs0 S13 3.620243 1_545
Cs0 S1 3.684714 1_555
Cs0 S3 3.707216 1_555
Cs0 S6 3.755898 1_555
Cs0 S14 3.819467 1_555
Cs0 S8 3.868223 1_555
Cs1 S12 3.492349 1_455
Cs1 S9 3.558937 1_455
Cs1 S9 3.620243 1_465
Cs1 S11 3.684714 1_456
Cs1 S15 3.707216 1_556
Cs1 S0 3.755898 1_555
Cs1 S7 3.819467 1_456
Cs1 S10 3.868223 1_555
Cs2 S5 3.492349 1_655
Cs2 S3 3.558937 1_645
Cs2 S3 3.620243 1_655
Cs2 S8 3.684714 1_645
Cs2 S13 3.707216 1_545
Cs2 S14 3.755898 1_555
Cs2 S6 3.819467 1_655
Cs2 S1 3.868223 1_545
Cs3 S2 3.492349 1_555
Cs3 S15 3.558937 1_565
Cs3 S15 3.620243 1_555
Cs3 S10 3.684714 1_564
Cs3 S9 3.707216 1_564
Cs3 S7 3.755898 1_555
Cs3 S0 3.819467 1_554
Cs3 S11 3.868223 1_565
Gd0 S2 2.816247 1_545
Gd0 S13 2.833459 1_545
Gd0 S6 2.847703 1_655
Gd0 S7 2.872555 1_545
Gd0 S11 2.886238 1_555
Gd0 S8 2.939431 1_645
Gd0 S4 2.995956 1_555
Gd1 S4 2.816247 1_555
Gd1 S15 2.833459 1_555
Gd1 S7 2.847703 1_455
Gd1 S6 2.872555 1_555
Gd1 S8 2.886238 1_555
Gd1 S11 2.939431 1_455
Gd1 S2 2.995956 1_555
Gd2 S12 2.816248 1_455
Gd2 S3 2.833459 1_555
Gd2 S14 2.847699 1_555
Gd2 S0 2.872560 1_555
Gd2 S10 2.886234 1_555
Gd2 S1 2.939436 1_555
Gd2 S5 2.995950 1_555
Gd3 S5 2.816247 1_665
Gd3 S9 2.833459 1_565
Gd3 S0 2.847703 1_555
Gd3 S14 2.872555 1_565
Gd3 S1 2.886238 1_555
Gd3 S10 2.939431 1_565
Gd3 S12 2.995956 1_555
S0 Si1 2.146773 1_565
S1 Si3 2.140795 1_555
S2 Si2 2.134236 1_555
S3 Si3 2.114194 1_455
S4 Si0 2.134236 1_555
S5 Si1 2.134236 1_555
S6 Si2 2.146773 1_545
S7 Si0 2.146773 1_555
S8 Si2 2.140795 1_555
S9 Si1 2.114194 1_655
S10 Si1 2.140795 1_555
S11 Si0 2.140795 1_555
S12 Si3 2.134236 1_555
S13 Si2 2.114194 1_555
S14 Si3 2.146773 1_555
S15 Si0 2.114194 1_555
