# generated using pymatgen
data_AgP2H8SN7O2
_symmetry_space_group_name_H-M   'P 1'
_cell_length_a   9.10362500
_cell_length_b   10.30309700
_cell_length_c   11.97031608
_cell_angle_alpha   63.32819148
_cell_angle_beta   90.00000000
_cell_angle_gamma   90.00000000
_symmetry_Int_Tables_number   1
_chemical_formula_structural   AgP2H8SN7O2
_chemical_formula_sum   'Ag4 P8 H32 S4 N28 O8'
_cell_volume   1003.29168693
_cell_formula_units_Z   4
loop_
 _symmetry_equiv_pos_site_id
 _symmetry_equiv_pos_as_xyz
  1  'x, y, z'
loop_
 _atom_site_type_symbol
 _atom_site_label
 _atom_site_symmetry_multiplicity
 _atom_site_fract_x
 _atom_site_fract_y
 _atom_site_fract_z
 _atom_site_occupancy
  Ag  Ag0  1  0.80828700  0.31354600  0.21633300  1
  Ag  Ag1  1  0.69171300  0.31354600  0.71633300  1
  Ag  Ag2  1  0.19171300  0.68645400  0.78366700  1
  Ag  Ag3  1  0.30828700  0.68645400  0.28366700  1
  P  P0  1  0.10074800  0.27179600  0.05517200  1
  P  P1  1  0.39925200  0.27179600  0.55517200  1
  P  P2  1  0.89925200  0.72820400  0.94482800  1
  P  P3  1  0.60074800  0.72820400  0.44482800  1
  P  P4  1  0.00355000  0.32227900  0.78908900  1
  P  P5  1  0.49645000  0.32227900  0.28908900  1
  P  P6  1  0.99645000  0.67772100  0.21091100  1
  P  P7  1  0.50355000  0.67772100  0.71091100  1
  H  H0  1  0.28274400  0.39170800  0.11601600  1
  H  H1  1  0.21725600  0.39170800  0.61601600  1
  H  H2  1  0.71725600  0.60829200  0.88398400  1
  H  H3  1  0.78274400  0.60829200  0.38398400  1
  H  H4  1  0.11475800  0.47254000  0.09140900  1
  H  H5  1  0.38524200  0.47254000  0.59140900  1
  H  H6  1  0.88524200  0.52746000  0.90859100  1
  H  H7  1  0.61475800  0.52746000  0.40859100  1
  H  H8  1  0.03701900  0.54681700  0.62478300  1
  H  H9  1  0.46298100  0.54681700  0.12478300  1
  H  H10  1  0.96298100  0.45318300  0.37521700  1
  H  H11  1  0.53701900  0.45318300  0.87521700  1
  H  H12  1  0.73072200  0.68703500  0.62206300  1
  H  H13  1  0.76927800  0.68703500  0.12206300  1
  H  H14  1  0.26927800  0.31296500  0.37793700  1
  H  H15  1  0.23072200  0.31296500  0.87793700  1
  H  H16  1  0.04702300  0.17302800  0.70059600  1
  H  H17  1  0.45297700  0.17302800  0.20059600  1
  H  H18  1  0.95297700  0.82697200  0.29940400  1
  H  H19  1  0.54702300  0.82697200  0.79940400  1
  H  H20  1  0.04189200  0.07220600  0.86088600  1
  H  H21  1  0.45810800  0.07220600  0.36088600  1
  H  H22  1  0.95810800  0.92779400  0.13911400  1
  H  H23  1  0.54189200  0.92779400  0.63911400  1
  H  H24  1  0.19510600  0.04877000  0.09086300  1
  H  H25  1  0.30489400  0.04877000  0.59086300  1
  H  H26  1  0.80489400  0.95123000  0.90913700  1
  H  H27  1  0.69510600  0.95123000  0.40913700  1
  H  H28  1  0.20729900  0.07638600  0.22050600  1
  H  H29  1  0.29270100  0.07638600  0.72050600  1
  H  H30  1  0.79270100  0.92361400  0.77949400  1
  H  H31  1  0.70729900  0.92361400  0.27949400  1
  S  S0  1  0.80949700  0.22197600  0.99460700  1
  S  S1  1  0.69050300  0.22197600  0.49460700  1
  S  S2  1  0.19050300  0.77802400  0.00539300  1
  S  S3  1  0.30949700  0.77802400  0.50539300  1
  N  N0  1  0.92280600  0.27150300  0.07614700  1
  N  N1  1  0.57719400  0.27150300  0.57614700  1
  N  N2  1  0.07719400  0.72849700  0.92385300  1
  N  N3  1  0.42280600  0.72849700  0.42385300  1
  N  N4  1  0.84204600  0.33496100  0.84978400  1
  N  N5  1  0.65795400  0.33496100  0.34978400  1
  N  N6  1  0.15795400  0.66503900  0.15021600  1
  N  N7  1  0.34204600  0.66503900  0.65021600  1
  N  N8  1  0.12406900  0.31540300  0.90389100  1
  N  N9  1  0.37593100  0.31540300  0.40389100  1
  N  N10  1  0.87593100  0.68459700  0.09610900  1
  N  N11  1  0.62406900  0.68459700  0.59610900  1
  N  N12  1  0.16828300  0.37835100  0.10838900  1
  N  N13  1  0.33171700  0.37835100  0.60838900  1
  N  N14  1  0.83171700  0.62164900  0.89161100  1
  N  N15  1  0.66828300  0.62164900  0.39161100  1
  N  N16  1  0.04092200  0.43764400  0.65390400  1
  N  N17  1  0.45907800  0.43764400  0.15390400  1
  N  N18  1  0.95907800  0.56235600  0.34609600  1
  N  N19  1  0.54092200  0.56235600  0.84609600  1
  N  N20  1  0.01228400  0.16520700  0.78425800  1
  N  N21  1  0.48771600  0.16520700  0.28425800  1
  N  N22  1  0.98771600  0.83479300  0.21574200  1
  N  N23  1  0.51228400  0.83479300  0.71574200  1
  N  N24  1  0.20081500  0.12336400  0.12535400  1
  N  N25  1  0.29918500  0.12336400  0.62535400  1
  N  N26  1  0.79918500  0.87663600  0.87464600  1
  N  N27  1  0.70081500  0.87663600  0.37464600  1
  O  O0  1  0.84159700  0.07084600  0.02103200  1
  O  O1  1  0.65840300  0.07084600  0.52103200  1
  O  O2  1  0.15840300  0.92915400  0.97896800  1
  O  O3  1  0.34159700  0.92915400  0.47896800  1
  O  O4  1  0.66131600  0.24534700  0.02604600  1
  O  O5  1  0.83868400  0.24534700  0.52604600  1
  O  O6  1  0.33868400  0.75465300  0.97395400  1
  O  O7  1  0.16131600  0.75465300  0.47395400  1
loop_
_geom_bond_atom_site_label_1
_geom_bond_atom_site_label_2
_geom_bond_distance
_geom_bond_site_symmetry_2
Ag0 N0 2.177848 1_555
Ag0 N5 2.188597 1_555
Ag1 N1 2.177848 1_555
Ag1 N4 2.188597 1_555
Ag2 N2 2.177848 1_555
Ag2 N7 2.188597 1_555
Ag3 N3 2.177848 1_555
Ag3 N6 2.188597 1_555
H0 N12 1.060348 1_555
H1 N13 1.060348 1_555
H2 N14 1.060348 1_555
H3 N15 1.060348 1_555
H4 N12 1.021478 1_555
H5 N13 1.021478 1_555
H6 N14 1.021478 1_555
H7 N15 1.021478 1_555
H8 N16 1.017834 1_555
H9 N17 1.017834 1_555
H10 N18 1.017834 1_555
H11 N19 1.017834 1_555
H12 N11 1.023162 1_555
H13 N10 1.023162 1_555
H14 N9 1.023162 1_555
H15 N8 1.023162 1_555
H16 N20 1.018324 1_555
H17 N21 1.018324 1_555
H18 N22 1.018324 1_555
H19 N23 1.018324 1_555
H20 N20 1.021326 1_555
H21 N21 1.021326 1_555
H22 N22 1.021326 1_555
H23 N23 1.021326 1_555
H24 N24 1.024059 1_555
H25 N25 1.024059 1_555
H26 N26 1.024059 1_555
H27 N27 1.024059 1_555
H28 N24 1.019876 1_555
H29 N25 1.019876 1_555
H30 N26 1.019876 1_555
H31 N27 1.019876 1_555
N0 P0 1.639055 1_655
N0 S0 1.650533 1_554
N1 P1 1.639055 1_555
N1 S1 1.650533 1_555
N2 P2 1.639055 1_455
N2 S2 1.650533 1_556
N3 P3 1.639055 1_555
N3 S3 1.650533 1_555
N4 S0 1.623727 1_555
N4 P4 1.670885 1_655
N5 S1 1.623727 1_555
N5 P5 1.670885 1_555
N6 S2 1.623727 1_555
N6 P6 1.670885 1_455
N7 S3 1.623727 1_555
N7 P7 1.670885 1_555
N8 P0 1.672065 1_556
N8 P4 1.734891 1_555
N9 P1 1.672065 1_555
N9 P5 1.734891 1_555
N10 P2 1.672065 1_554
N10 P6 1.734891 1_555
N11 P3 1.672065 1_555
N11 P7 1.734891 1_555
N12 P0 1.617688 1_555
N13 P1 1.617688 1_555
N14 P2 1.617688 1_555
N15 P3 1.617688 1_555
N16 P4 1.555757 1_555
N17 P5 1.555757 1_555
N18 P6 1.555757 1_555
N19 P7 1.555757 1_555
N20 P4 1.647018 1_555
N21 P5 1.647018 1_555
N22 P6 1.647018 1_555
N23 P7 1.647018 1_555
N24 P0 1.649548 1_555
N25 P1 1.649548 1_555
N26 P2 1.649548 1_555
N27 P3 1.649548 1_555
O0 S0 1.472364 1_554
O1 S1 1.472364 1_555
O2 S2 1.472364 1_556
O3 S3 1.472364 1_555
O4 S0 1.449387 1_554
O5 S1 1.449387 1_555
O6 S2 1.449387 1_556
O7 S3 1.449387 1_555
