# generated using pymatgen
data_Nb20(O13F7)3
_symmetry_space_group_name_H-M   'P 1'
_cell_length_a   3.88634500
_cell_length_b   4.13265000
_cell_length_c   80.30905100
_cell_angle_alpha   90.00000000
_cell_angle_beta   90.00000000
_cell_angle_gamma   90.00000000
_symmetry_Int_Tables_number   1
_chemical_formula_structural   Nb20(O13F7)3
_chemical_formula_sum   'Nb20 O39 F21'
_cell_volume   1289.83593148
_cell_formula_units_Z   1
loop_
 _symmetry_equiv_pos_site_id
 _symmetry_equiv_pos_as_xyz
  1  'x, y, z'
loop_
 _atom_site_type_symbol
 _atom_site_label
 _atom_site_symmetry_multiplicity
 _atom_site_fract_x
 _atom_site_fract_y
 _atom_site_fract_z
 _atom_site_occupancy
  Nb  Nb0  1  0.00000000  0.00000000  0.00000000  1
  Nb  Nb1  1  0.00000000  0.00000000  0.05257300  1
  Nb  Nb2  1  0.00000000  0.00000000  0.10248900  1
  Nb  Nb3  1  0.00000000  0.00000000  0.15243200  1
  Nb  Nb4  1  0.00000000  0.00000000  0.20245500  1
  Nb  Nb5  1  0.00000000  0.00000000  0.25230000  1
  Nb  Nb6  1  0.00000000  0.00000000  0.30217100  1
  Nb  Nb7  1  0.00000000  0.00000000  0.35205600  1
  Nb  Nb8  1  0.00000000  0.00000000  0.40186100  1
  Nb  Nb9  1  0.00000000  0.00000000  0.45132500  1
  Nb  Nb10  1  0.00000000  0.00000000  0.50000000  1
  Nb  Nb11  1  0.00000000  0.00000000  0.54867500  1
  Nb  Nb12  1  0.00000000  0.00000000  0.59813900  1
  Nb  Nb13  1  0.00000000  0.00000000  0.64794400  1
  Nb  Nb14  1  0.00000000  0.00000000  0.69782900  1
  Nb  Nb15  1  0.00000000  0.00000000  0.74770000  1
  Nb  Nb16  1  0.00000000  0.00000000  0.79754500  1
  Nb  Nb17  1  0.00000000  0.00000000  0.84756800  1
  Nb  Nb18  1  0.00000000  0.00000000  0.89751100  1
  Nb  Nb19  1  0.00000000  0.00000000  0.94742700  1
  O  O0  1  0.00000000  0.00000000  0.07491200  1
  O  O1  1  0.00000000  0.00000000  0.12500000  1
  O  O2  1  0.00000000  0.00000000  0.17489100  1
  O  O3  1  0.50000000  0.00000000  0.14921900  1
  O  O4  1  0.00000000  0.00000000  0.22476300  1
  O  O5  1  0.50000000  0.00000000  0.24907100  1
  O  O6  1  0.00000000  0.00000000  0.27471800  1
  O  O7  1  0.50000000  0.00000000  0.29908800  1
  O  O8  1  0.00000000  0.00000000  0.32466900  1
  O  O9  1  0.50000000  0.00000000  0.34915700  1
  O  O10  1  0.00000000  0.00000000  0.37463500  1
  O  O11  1  0.50000000  0.00000000  0.39930500  1
  O  O12  1  0.00000000  0.00000000  0.42471500  1
  O  O13  1  0.50000000  0.00000000  0.44956800  1
  O  O14  1  0.00000000  0.00000000  0.47490000  1
  O  O15  1  0.50000000  0.00000000  0.50000000  1
  O  O16  1  0.00000000  0.00000000  0.52510000  1
  O  O17  1  0.00000000  0.00000000  0.57528500  1
  O  O18  1  0.50000000  0.00000000  0.55043200  1
  O  O19  1  0.50000000  0.00000000  0.60069500  1
  O  O20  1  0.00000000  0.00000000  0.62536500  1
  O  O21  1  0.00000000  0.00000000  0.67533100  1
  O  O22  1  0.50000000  0.00000000  0.65084300  1
  O  O23  1  0.00000000  0.00000000  0.72528200  1
  O  O24  1  0.50000000  0.00000000  0.70091200  1
  O  O25  1  0.50000000  0.00000000  0.75092900  1
  O  O26  1  0.00000000  0.00000000  0.77523700  1
  O  O27  1  0.00000000  0.00000000  0.82510900  1
  O  O28  1  0.50000000  0.00000000  0.85078100  1
  O  O29  1  0.00000000  0.00000000  0.87500000  1
  O  O30  1  0.00000000  0.00000000  0.92508800  1
  O  O31  1  0.50000000  0.00000000  0.95078200  1
  O  O32  1  0.00000000  0.50000000  0.00000000  1
  O  O33  1  0.50000000  0.00000000  0.00000000  1
  O  O34  1  0.50000000  0.00000000  0.04921800  1
  O  O35  1  0.50000000  0.00000000  0.09931000  1
  O  O36  1  0.50000000  0.00000000  0.19907900  1
  O  O37  1  0.50000000  0.00000000  0.80092100  1
  O  O38  1  0.50000000  0.00000000  0.90069000  1
  F  F0  1  0.00000000  0.00000000  0.97463400  1
  F  F1  1  0.00000000  0.50000000  0.05013100  1
  F  F2  1  0.00000000  0.50000000  0.10006900  1
  F  F3  1  0.00000000  0.50000000  0.14992800  1
  F  F4  1  0.00000000  0.50000000  0.19982800  1
  F  F5  1  0.00000000  0.50000000  0.24979300  1
  F  F6  1  0.00000000  0.50000000  0.29975800  1
  F  F7  1  0.00000000  0.50000000  0.34975900  1
  F  F8  1  0.00000000  0.50000000  0.44998200  1
  F  F9  1  0.00000000  0.50000000  0.39983900  1
  F  F10  1  0.00000000  0.50000000  0.50000000  1
  F  F11  1  0.00000000  0.50000000  0.55001800  1
  F  F12  1  0.00000000  0.50000000  0.60016100  1
  F  F13  1  0.00000000  0.50000000  0.65024100  1
  F  F14  1  0.00000000  0.50000000  0.70024200  1
  F  F15  1  0.00000000  0.50000000  0.75020700  1
  F  F16  1  0.00000000  0.50000000  0.80017200  1
  F  F17  1  0.00000000  0.50000000  0.85007200  1
  F  F18  1  0.00000000  0.50000000  0.89993100  1
  F  F19  1  0.00000000  0.50000000  0.94986900  1
  F  F20  1  0.00000000  0.00000000  0.02536600  1
loop_
_geom_bond_atom_site_label_1
_geom_bond_atom_site_label_2
_geom_bond_distance
_geom_bond_site_symmetry_2
Nb0 O33 1.943172 1_555
Nb0 O33 1.943172 1_455
Nb0 O32 2.066325 1_545
Nb0 O32 2.066325 1_555
Nb1 O0 1.794024 1_555
Nb1 O34 1.961763 1_455
Nb1 O34 1.961763 1_555
Nb2 O1 1.807837 1_555
Nb2 O35 1.959872 1_555
Nb2 O35 1.959872 1_455
Nb2 O0 2.214683 1_555
Nb3 O2 1.803661 1_555
Nb3 O3 1.960230 1_555
Nb3 O3 1.960230 1_455
Nb3 O1 2.203038 1_555
Nb4 O4 1.791534 1_555
Nb4 O36 1.961996 1_555
Nb4 O36 1.961996 1_455
Nb4 O2 2.213639 1_555
Nb5 O6 1.800368 1_555
Nb5 O5 1.960399 1_455
Nb5 O5 1.960399 1_555
Nb5 O4 2.211470 1_555
Nb6 O8 1.806793 1_555
Nb6 O7 1.958883 1_455
Nb6 O7 1.958883 1_555
Nb6 O6 2.204724 1_555
Nb7 O10 1.813298 1_555
Nb7 O9 1.957070 1_455
Nb7 O9 1.957070 1_555
Nb7 O8 2.199424 1_555
Nb8 O12 1.835383 1_555
Nb8 O11 1.953984 1_455
Nb8 O11 1.953984 1_555
Nb8 O10 2.186494 1_555
Nb9 O14 1.893286 1_555
Nb9 O13 1.948289 1_555
Nb9 O13 1.948289 1_455
Nb9 O12 2.137024 1_555
Nb10 O15 1.943172 1_455
Nb10 O15 1.943172 1_555
Nb10 O14 2.015757 1_555
Nb10 O16 2.015757 1_555
Nb11 O16 1.893286 1_555
Nb11 O18 1.948289 1_455
Nb11 O18 1.948289 1_555
Nb11 O17 2.137024 1_555
Nb12 O17 1.835383 1_555
Nb12 O19 1.953984 1_555
Nb12 O19 1.953984 1_455
Nb12 O20 2.186494 1_555
Nb13 O20 1.813298 1_555
Nb13 O22 1.957070 1_555
Nb13 O22 1.957070 1_455
Nb13 O21 2.199424 1_555
Nb14 O21 1.806793 1_555
Nb14 O24 1.958883 1_555
Nb14 O24 1.958883 1_455
Nb14 O23 2.204724 1_555
Nb15 O23 1.800368 1_555
Nb15 O25 1.960399 1_555
Nb15 O25 1.960399 1_455
Nb15 O26 2.211470 1_555
Nb16 O26 1.791534 1_555
Nb16 O37 1.961996 1_455
Nb16 O37 1.961996 1_555
Nb16 O27 2.213639 1_555
Nb17 O27 1.803661 1_555
Nb17 O28 1.960230 1_555
Nb17 O28 1.960230 1_455
Nb17 O29 2.203038 1_555
Nb18 O29 1.807837 1_555
Nb18 O38 1.959872 1_455
Nb18 O38 1.959872 1_555
Nb18 O30 2.214683 1_555
Nb19 O30 1.794024 1_555
Nb19 O31 1.961763 1_455
Nb19 O31 1.961763 1_555
F0 Nb0 2.037119 1_556
F0 Nb19 2.184968 1_555
F1 Nb1 2.075611 1_565
F1 Nb1 2.075611 1_555
F2 Nb2 2.075445 1_565
F2 Nb2 2.075445 1_555
F3 Nb3 2.076087 1_555
F3 Nb3 2.076087 1_565
F4 Nb4 2.077067 1_565
F4 Nb4 2.077067 1_555
F5 Nb5 2.076110 1_555
F5 Nb5 2.076110 1_565
F6 Nb6 2.075392 1_565
F6 Nb6 2.075392 1_555
F7 Nb7 2.074543 1_565
F7 Nb7 2.074543 1_555
F8 Nb9 2.069138 1_565
F8 Nb9 2.069138 1_555
F9 Nb8 2.072696 1_565
F9 Nb8 2.072696 1_555
F10 Nb10 2.066325 1_565
F10 Nb10 2.066325 1_555
F11 Nb11 2.069138 1_565
F11 Nb11 2.069138 1_555
F12 Nb12 2.072696 1_565
F12 Nb12 2.072696 1_555
F13 Nb13 2.074543 1_565
F13 Nb13 2.074543 1_555
F14 Nb14 2.075392 1_555
F14 Nb14 2.075392 1_565
F15 Nb15 2.076110 1_555
F15 Nb15 2.076110 1_565
F16 Nb16 2.077067 1_555
F16 Nb16 2.077067 1_565
F17 Nb17 2.076087 1_555
F17 Nb17 2.076087 1_565
F18 Nb18 2.075445 1_555
F18 Nb18 2.075445 1_565
F19 Nb19 2.075611 1_565
F19 Nb19 2.075611 1_555
F20 Nb0 2.037119 1_555
F20 Nb1 2.184968 1_555
