# generated using pymatgen
data_TaTi9Al3Zn23O48
_symmetry_space_group_name_H-M   'P 1'
_cell_length_a   6.01688400
_cell_length_b   6.05277219
_cell_length_c   29.52313894
_cell_angle_alpha   90.60583946
_cell_angle_beta   89.95970509
_cell_angle_gamma   119.70068163
_symmetry_Int_Tables_number   1
_chemical_formula_structural   TaTi9Al3Zn23O48
_chemical_formula_sum   'Ta1 Ti9 Al3 Zn23 O48'
_cell_volume   933.87969383
_cell_formula_units_Z   1
loop_
 _symmetry_equiv_pos_site_id
 _symmetry_equiv_pos_as_xyz
  1  'x, y, z'
loop_
 _atom_site_type_symbol
 _atom_site_label
 _atom_site_symmetry_multiplicity
 _atom_site_fract_x
 _atom_site_fract_y
 _atom_site_fract_z
 _atom_site_occupancy
  Ta  Ta0  1  0.99018800  0.49829500  0.56334300  1
  Ti  Ti0  1  0.16757000  0.83321700  0.89582600  1
  Ti  Ti1  1  0.66708400  0.83335500  0.89669000  1
  Ti  Ti2  1  0.83493800  0.16669900  0.72947200  1
  Ti  Ti3  1  0.33616000  0.16844200  0.73061900  1
  Ti  Ti4  1  0.34845900  0.66859000  0.47768700  1
  Ti  Ti5  1  0.15737800  0.83327900  0.39331600  1
  Ti  Ti6  1  0.84020200  0.16367500  0.23132000  1
  Ti  Ti7  1  0.49318900  0.50300200  0.06043000  1
  Ti  Ti8  1  0.66577500  0.33316700  0.14595500  1
  Al  Al0  1  0.66738200  0.83503000  0.39414100  1
  Al  Al1  1  0.33310200  0.16651200  0.22906200  1
  Al  Al2  1  0.99984000  0.49981800  0.06333700  1
  Zn  Zn0  1  0.00282600  0.98376800  0.00251100  1
  Zn  Zn1  1  0.67533300  0.35003000  0.95853300  1
  Zn  Zn2  1  0.16727500  0.33343100  0.89610600  1
  Zn  Zn3  1  0.32307700  0.66341000  0.97983900  1
  Zn  Zn4  1  0.34209900  0.68274300  0.78990800  1
  Zn  Zn5  1  0.83287500  0.66624300  0.72953700  1
  Zn  Zn6  1  0.99814700  0.99948100  0.81285400  1
  Zn  Zn7  1  0.65929600  0.31796000  0.83598500  1
  Zn  Zn8  1  0.02488000  0.01725300  0.62558600  1
  Zn  Zn9  1  0.49684300  0.99907800  0.56338900  1
  Zn  Zn10  1  0.65544500  0.33262900  0.64677500  1
  Zn  Zn11  1  0.49470400  0.49594300  0.56355900  1
  Zn  Zn12  1  0.32315000  0.65391100  0.66875200  1
  Zn  Zn13  1  0.67318800  0.34028400  0.45546100  1
  Zn  Zn14  1  0.16137100  0.33283600  0.39374300  1
  Zn  Zn15  1  0.33205100  0.68382500  0.29110500  1
  Zn  Zn16  1  0.98806500  0.99008900  0.49766700  1
  Zn  Zn17  1  0.83755100  0.66734500  0.23030600  1
  Zn  Zn18  1  0.00218000  0.00115700  0.31219600  1
  Zn  Zn19  1  0.66550300  0.31569500  0.33310000  1
  Zn  Zn20  1  0.00322100  0.01271500  0.12520000  1
  Zn  Zn21  1  0.49683600  0.99962000  0.06161700  1
  Zn  Zn22  1  0.33048100  0.65406500  0.16666800  1
  O  O0  1  0.02551400  0.52847600  0.93347100  1
  O  O1  1  0.49934000  0.53102800  0.93504900  1
  O  O2  1  0.34652800  0.69186000  0.85842400  1
  O  O3  1  0.49151900  0.98681500  0.93279300  1
  O  O4  1  0.69551600  0.86418000  0.76733400  1
  O  O5  1  0.83854100  0.67981700  0.85983300  1
  O  O6  1  0.98809300  0.97503000  0.93398800  1
  O  O7  1  0.83138800  0.13546100  0.85844400  1
  O  O8  1  0.16632100  0.86286200  0.76745400  1
  O  O9  1  0.01204900  0.02487800  0.69279900  1
  O  O10  1  0.15815400  0.32157900  0.76611500  1
  O  O11  1  0.30314600  0.13629500  0.85803200  1
  O  O12  1  0.37082400  0.18537200  0.60201600  1
  O  O13  1  0.50518600  0.01399100  0.69381300  1
  O  O14  1  0.65404700  0.30965900  0.76757800  1
  O  O15  1  0.49400700  0.47248100  0.69261900  1
  O  O16  1  0.85052100  0.19127500  0.59927700  1
  O  O17  1  0.68514000  0.34486200  0.52253400  1
  O  O18  1  0.84978500  0.66426800  0.60057800  1
  O  O19  1  0.96419000  0.46669800  0.69062600  1
  O  O20  1  0.03909200  0.53740800  0.43672500  1
  O  O21  1  0.16662400  0.36275600  0.51705000  1
  O  O22  1  0.31459600  0.65637700  0.60021300  1
  O  O23  1  0.16620000  0.80351300  0.51921400  1
  O  O24  1  0.50315900  0.53970000  0.43520300  1
  O  O25  1  0.34805900  0.68592000  0.35989100  1
  O  O26  1  0.49025900  0.96830500  0.43504100  1
  O  O27  1  0.62833700  0.81645900  0.51916700  1
  O  O28  1  0.68386700  0.86461900  0.26574700  1
  O  O29  1  0.83747700  0.67554600  0.35998900  1
  O  O30  1  0.98169600  0.97627700  0.43070800  1
  O  O31  1  0.82931800  0.12609400  0.35765500  1
  O  O32  1  0.17085700  0.87537100  0.26617600  1
  O  O33  1  0.01726100  0.02477000  0.19278700  1
  O  O34  1  0.16174400  0.32413100  0.26408400  1
  O  O35  1  0.31643000  0.13625200  0.35904200  1
  O  O36  1  0.36923200  0.20027200  0.10500800  1
  O  O37  1  0.51242300  0.03092300  0.18795800  1
  O  O38  1  0.50167900  0.46142500  0.18908600  1
  O  O39  1  0.65221200  0.31288700  0.26403100  1
  O  O40  1  0.83120900  0.20464300  0.10279800  1
  O  O41  1  0.68156400  0.35404100  0.02778000  1
  O  O42  1  0.96404600  0.46632800  0.18668900  1
  O  O43  1  0.82010100  0.63560700  0.10388600  1
  O  O44  1  0.17010200  0.34244700  0.02814500  1
  O  O45  1  0.31704800  0.64163900  0.09918800  1
  O  O46  1  0.16127700  0.79169000  0.02677400  1
  O  O47  1  0.64665700  0.80112200  0.02559900  1
loop_
_geom_bond_atom_site_label_1
_geom_bond_atom_site_label_2
_geom_bond_distance
_geom_bond_site_symmetry_2
Al0 O31 1.884430 1_565
Al0 O25 1.947721 1_555
Al0 O30 1.963200 1_555
Al0 O24 1.983736 1_555
Al0 O29 1.988179 1_555
Al0 O26 2.018432 1_555
Al1 O32 1.895681 1_545
Al1 O39 1.958346 1_555
Al1 O38 1.963874 1_555
Al1 O33 1.965257 1_555
Al1 O34 1.998666 1_555
Al1 O37 2.040799 1_555
Al2 O46 1.888948 1_655
Al2 O40 1.955705 1_555
Al2 O41 1.963846 1_555
Al2 O45 1.964696 1_655
Al2 O44 1.995202 1_655
Al2 O43 2.033814 1_555
O0 Ti0 1.961576 1_555
O0 Zn1 1.978152 1_455
O0 Zn3 2.068172 1_555
O0 Zn2 2.075368 1_555
O1 Ti1 1.965148 1_555
O1 Zn1 1.992214 1_555
O1 Zn3 2.081616 1_555
O1 Zn2 2.085778 1_555
O2 Ti0 2.000521 1_555
O2 Ti1 2.018804 1_555
O2 Zn4 2.022811 1_555
O2 Zn2 2.199601 1_555
O3 Ti0 2.010103 1_555
O3 Ti1 2.016071 1_555
O3 Zn1 2.047030 1_565
O3 Zn3 2.208556 1_555
O4 Ti2 1.955987 1_565
O4 Zn4 1.967596 1_555
O4 Zn6 2.072402 1_555
O4 Zn5 2.077319 1_555
O5 Ti1 2.009738 1_555
O5 Ti0 2.017719 1_655
O5 Zn7 2.020819 1_555
O5 Zn6 2.191618 1_555
O6 Ti1 2.005050 1_555
O6 Ti0 2.017101 1_655
O6 Zn0 2.024002 1_656
O6 Zn2 2.202525 1_665
O7 Ti1 1.961309 1_545
O7 Zn7 1.970254 1_555
O7 Zn6 2.070941 1_545
O7 Zn2 2.081303 1_655
O8 Ti3 1.953442 1_565
O8 Zn4 1.976234 1_555
O8 Zn5 2.074521 1_455
O8 Zn6 2.075589 1_455
O9 Ti2 1.982407 1_455
O9 Zn8 1.986723 1_555
O9 Ti3 2.026859 1_555
O9 Zn5 2.186294 1_445
O10 Ti2 2.001532 1_455
O10 Ti3 2.016463 1_555
O10 Zn4 2.016991 1_555
O10 Zn6 2.197024 1_445
O11 Ti0 1.958267 1_545
O11 Zn7 1.975612 1_555
O11 Zn2 2.071863 1_555
O11 Zn6 2.075256 1_445
O12 Zn8 1.940718 1_555
O12 Zn10 1.984711 1_555
O12 Zn9 1.991412 1_545
O12 Zn11 2.008441 1_555
O13 Ti3 2.002032 1_555
O13 Ti2 2.016014 1_555
O13 Zn12 2.024532 1_545
O13 Zn10 2.189193 1_555
O14 Ti3 1.985631 1_555
O14 Zn7 2.019563 1_555
O14 Ti2 2.027305 1_555
O14 Zn5 2.196750 1_555
O15 Ti3 1.964042 1_555
O15 Zn12 1.973669 1_555
O15 Zn10 2.068971 1_555
O15 Zn5 2.080182 1_555
O16 Ta0 1.943700 1_555
O16 Zn8 1.981627 1_655
O16 Zn9 2.128006 1_545
O16 Zn10 2.245792 1_555
O17 Zn13 1.980964 1_555
O17 Ta0 1.993291 1_555
O17 Zn11 2.151531 1_555
O17 Zn9 2.195588 1_545
O18 Ta0 1.935885 1_555
O18 Zn8 1.989235 1_665
O18 Zn11 2.149368 1_555
O18 Zn10 2.233065 1_555
O19 Ti2 1.964875 1_555
O19 Zn12 1.988514 1_655
O19 Zn10 2.067094 1_555
O19 Zn5 2.077922 1_555
O20 Zn13 1.996455 1_455
O20 Ti4 2.018933 1_555
O20 Ti5 2.034773 1_555
O20 Zn14 2.133777 1_555
O21 Ti4 2.002754 1_555
O21 Zn16 2.035162 1_445
O21 Ta0 2.122546 1_455
O21 Zn11 2.198972 1_555
O22 Ta0 2.010133 1_455
O22 Zn12 2.024578 1_555
O22 Zn11 2.075408 1_555
O22 Zn9 2.116385 1_555
O23 Zn16 2.011062 1_455
O23 Ti4 2.058402 1_555
O23 Ta0 2.083763 1_455
O23 Zn9 2.167340 1_555
O24 Ti4 1.935317 1_555
O24 Zn13 2.025090 1_555
O24 Zn14 2.171339 1_555
O25 Ti5 2.019773 1_555
O25 Zn15 2.032737 1_555
O25 Zn14 2.119596 1_555
O26 Ti4 2.029075 1_555
O26 Zn13 2.039782 1_565
O26 Ti5 2.134741 1_555
O27 Ti4 1.903355 1_555
O27 Zn16 1.987530 1_555
O27 Zn9 2.094501 1_555
O27 Zn11 2.152752 1_555
O28 Ti6 1.882740 1_565
O28 Zn15 1.989622 1_555
O28 Zn17 2.107604 1_555
O28 Zn18 2.154750 1_665
O29 Ti5 1.935527 1_655
O29 Zn19 2.043583 1_555
O29 Zn18 2.231295 1_665
O30 Zn16 1.977319 1_555
O30 Ti5 1.992477 1_655
O30 Zn14 2.180265 1_665
O31 Zn19 1.988358 1_555
O31 Zn14 2.046969 1_655
O31 Zn18 2.052033 1_655
O32 Zn15 1.989937 1_555
O32 Zn18 2.048788 1_565
O32 Zn17 2.049707 1_455
O33 Zn20 1.996260 1_555
O33 Ti6 2.000413 1_455
O33 Zn17 2.192580 1_445
O34 Ti6 1.934609 1_455
O34 Zn15 2.044526 1_555
O34 Zn18 2.226632 1_555
O35 Ti5 1.897755 1_545
O35 Zn19 1.983035 1_555
O35 Zn14 2.099703 1_555
O35 Zn18 2.145750 1_555
O36 Ti8 1.962722 1_555
O36 Zn20 2.007255 1_555
O36 Ti7 2.083564 1_555
O36 Zn21 2.143662 1_545
O37 Ti8 2.027201 1_555
O37 Zn22 2.071905 1_545
O37 Ti6 2.141394 1_555
O38 Ti8 1.983897 1_555
O38 Zn22 2.016470 1_555
O38 Zn17 2.143330 1_555
O39 Ti6 2.005007 1_555
O39 Zn19 2.040319 1_555
O39 Zn17 2.123835 1_555
O40 Ti8 1.990974 1_555
O40 Zn20 2.016625 1_655
O40 Zn21 2.136188 1_545
O41 Ti7 2.004872 1_555
O41 Zn1 2.044426 1_554
O41 Zn21 2.125167 1_545
O42 Ti8 1.966172 1_555
O42 Zn22 2.007848 1_655
O42 Ti6 2.084289 1_555
O42 Zn17 2.144996 1_555
O43 Ti8 2.029273 1_555
O43 Zn20 2.073266 1_665
O43 Ti7 2.139291 1_555
O44 Ti7 1.934664 1_555
O44 Zn0 2.024858 1_545
O44 Zn3 2.222620 1_554
O45 Zn22 1.993030 1_555
O45 Ti7 1.998990 1_555
O45 Zn21 2.195889 1_555
O46 Zn0 1.972469 1_555
O46 Zn21 2.043549 1_555
O46 Zn3 2.048198 1_554
O47 Ti7 1.884922 1_555
O47 Zn0 1.986341 1_655
O47 Zn21 2.105176 1_555
O47 Zn3 2.163853 1_554
