# generated using pymatgen
data_KHCO2
_symmetry_space_group_name_H-M   'P 1'
_cell_length_a   4.56885574
_cell_length_b   4.56885574
_cell_length_c   7.05183000
_cell_angle_alpha   90.00000000
_cell_angle_beta   90.00000000
_cell_angle_gamma   99.05399808
_symmetry_Int_Tables_number   1
_chemical_formula_structural   KHCO2
_chemical_formula_sum   'K2 H2 C2 O4'
_cell_volume   145.36894138
_cell_formula_units_Z   2
loop_
 _symmetry_equiv_pos_site_id
 _symmetry_equiv_pos_as_xyz
  1  'x, y, z'
loop_
 _atom_site_type_symbol
 _atom_site_label
 _atom_site_symmetry_multiplicity
 _atom_site_fract_x
 _atom_site_fract_y
 _atom_site_fract_z
 _atom_site_occupancy
  K  K0  1  0.00000000  0.00000000  0.50000000  1
  K  K1  1  0.00000000  0.00000000  0.00000000  1
  H  H0  1  0.44160200  0.55839800  0.25000000  1
  H  H1  1  0.55839800  0.44160200  0.75000000  1
  C  C0  1  0.60183600  0.39816400  0.25000000  1
  C  C1  1  0.39816400  0.60183600  0.75000000  1
  O  O0  1  0.49474000  0.12337600  0.25000000  1
  O  O1  1  0.12337600  0.49474000  0.75000000  1
  O  O2  1  0.50526000  0.87662400  0.75000000  1
  O  O3  1  0.87662400  0.50526000  0.25000000  1
loop_
_geom_bond_atom_site_label_1
_geom_bond_atom_site_label_2
_geom_bond_distance
_geom_bond_site_symmetry_2
K0 O3 2.852041 1_445
K0 O2 2.852041 1_445
K0 O1 2.852041 1_555
K0 O0 2.852041 1_555
K0 O3 3.027258 1_455
K0 O0 3.027258 1_455
K0 O1 3.027258 1_545
K0 O2 3.027258 1_545
K1 O3 2.852041 1_445
K1 O2 2.852041 1_444
K1 O0 2.852041 1_555
K1 O1 2.852041 1_554
K1 O3 3.027258 1_455
K1 O0 3.027258 1_455
K1 O2 3.027258 1_544
K1 O1 3.027258 1_544
C0 H0 1.113813 1_555
C0 O0 1.273686 1_555
C0 O3 1.273686 1_555
C1 H1 1.113813 1_555
C1 O1 1.273686 1_555
C1 O2 1.273686 1_555
