# generated using pymatgen
data_LaZr9O20
_symmetry_space_group_name_H-M   'P 1'
_cell_length_a   6.38098400
_cell_length_b   7.37237103
_cell_length_c   8.24310675
_cell_angle_alpha   102.98725451
_cell_angle_beta   97.43930298
_cell_angle_gamma   106.68909220
_symmetry_Int_Tables_number   1
_chemical_formula_structural   LaZr9O20
_chemical_formula_sum   'La1 Zr9 O20'
_cell_volume   354.03871287
_cell_formula_units_Z   1
loop_
 _symmetry_equiv_pos_site_id
 _symmetry_equiv_pos_as_xyz
  1  'x, y, z'
loop_
 _atom_site_type_symbol
 _atom_site_label
 _atom_site_symmetry_multiplicity
 _atom_site_fract_x
 _atom_site_fract_y
 _atom_site_fract_z
 _atom_site_occupancy
  La  La0  1  0.00000000  0.50000000  0.00000000  1
  Zr  Zr0  1  0.79810600  0.59974800  0.59719200  1
  Zr  Zr1  1  0.59935700  0.19839900  0.20065500  1
  Zr  Zr2  1  0.40064300  0.80160100  0.79934500  1
  Zr  Zr3  1  0.79846700  0.09762100  0.59704400  1
  Zr  Zr4  1  0.20189400  0.40025200  0.40280800  1
  Zr  Zr5  1  0.60033700  0.70131800  0.20028600  1
  Zr  Zr6  1  0.00000000  0.00000000  0.00000000  1
  Zr  Zr7  1  0.39966300  0.29868200  0.79971400  1
  Zr  Zr8  1  0.20153300  0.90237900  0.40295600  1
  O  O0  1  0.64466700  0.92576500  0.04823000  1
  O  O1  1  0.44267800  0.52479300  0.64559400  1
  O  O2  1  0.72880800  0.36409800  0.73342400  1
  O  O3  1  0.26251400  0.12626800  0.25051200  1
  O  O4  1  0.62768300  0.41880300  0.05648900  1
  O  O5  1  0.55692100  0.97979900  0.35230100  1
  O  O6  1  0.44307900  0.02020100  0.64769900  1
  O  O7  1  0.04810800  0.74022700  0.83977500  1
  O  O8  1  0.73748600  0.87373200  0.74948800  1
  O  O9  1  0.37231700  0.58119700  0.94351100  1
  O  O10  1  0.85638600  0.32795100  0.45371200  1
  O  O11  1  0.27119200  0.63590200  0.26657600  1
  O  O12  1  0.55732200  0.47520700  0.35440600  1
  O  O13  1  0.15006600  0.17421500  0.54439800  1
  O  O14  1  0.05279200  0.20406500  0.83717400  1
  O  O15  1  0.35533300  0.07423500  0.95177000  1
  O  O16  1  0.84993400  0.82578500  0.45560200  1
  O  O17  1  0.94720800  0.79593500  0.16282600  1
  O  O18  1  0.14361400  0.67204900  0.54628800  1
  O  O19  1  0.95189200  0.25977300  0.16022500  1
loop_
_geom_bond_atom_site_label_1
_geom_bond_atom_site_label_2
_geom_bond_distance
_geom_bond_site_symmetry_2
La0 O4 2.411281 1_455
La0 O9 2.411281 1_554
La0 O7 2.412322 1_554
La0 O19 2.412322 1_455
La0 O11 2.420113 1_555
La0 O2 2.420113 1_454
La0 O17 2.428575 1_455
La0 O14 2.428575 1_554
O0 Zr2 2.231936 1_554
O0 Zr1 2.234939 1_565
O0 Zr5 2.268106 1_555
O0 Zr6 2.284090 1_665
O1 Zr4 2.185522 1_555
O1 Zr2 2.254487 1_555
O1 Zr0 2.285142 1_555
O1 Zr7 2.290742 1_555
O2 Zr7 2.185447 1_555
O2 Zr3 2.226922 1_555
O2 Zr0 2.244785 1_555
O3 Zr1 2.177626 1_555
O3 Zr8 2.268245 1_545
O3 Zr4 2.289200 1_555
O3 Zr6 2.298123 1_555
O4 Zr1 2.200014 1_555
O4 Zr5 2.219502 1_555
O4 Zr7 2.236358 1_554
O5 Zr3 2.199632 1_565
O5 Zr1 2.230617 1_565
O5 Zr5 2.263244 1_555
O5 Zr8 2.291639 1_555
O6 Zr8 2.199632 1_545
O6 Zr2 2.230617 1_545
O6 Zr7 2.263244 1_555
O6 Zr3 2.291639 1_555
O7 Zr6 2.193661 1_566
O7 Zr0 2.215899 1_455
O7 Zr2 2.247987 1_555
O8 Zr2 2.177626 1_555
O8 Zr3 2.268245 1_565
O8 Zr0 2.289200 1_555
O8 Zr6 2.298123 1_666
O9 Zr2 2.200014 1_555
O9 Zr7 2.219502 1_555
O9 Zr5 2.236358 1_556
O10 Zr4 2.232920 1_655
O10 Zr0 2.242539 1_555
O10 Zr3 2.251752 1_555
O10 Zr1 2.296153 1_555
O11 Zr5 2.185447 1_555
O11 Zr8 2.226922 1_555
O11 Zr4 2.244785 1_555
O12 Zr0 2.185522 1_555
O12 Zr1 2.254487 1_555
O12 Zr4 2.285142 1_555
O12 Zr5 2.290742 1_555
O13 Zr4 2.214992 1_555
O13 Zr8 2.215963 1_545
O13 Zr3 2.274932 1_455
O13 Zr7 2.287477 1_555
O14 Zr7 2.206353 1_555
O14 Zr3 2.214968 1_455
O14 Zr6 2.216280 1_556
O15 Zr1 2.231936 1_556
O15 Zr2 2.234939 1_545
O15 Zr7 2.268106 1_555
O15 Zr6 2.284090 1_556
O16 Zr0 2.214992 1_555
O16 Zr3 2.215963 1_565
O16 Zr8 2.274932 1_655
O16 Zr5 2.287477 1_555
O17 Zr5 2.206353 1_555
O17 Zr8 2.214968 1_655
O17 Zr6 2.216280 1_665
O18 Zr0 2.232920 1_455
O18 Zr4 2.242539 1_555
O18 Zr8 2.251752 1_555
O18 Zr2 2.296153 1_555
O19 Zr6 2.193661 1_655
O19 Zr4 2.215899 1_655
O19 Zr1 2.247987 1_555
