# generated using pymatgen
data_Ba4Ta2TiZnO12
_symmetry_space_group_name_H-M   'P 1'
_cell_length_a   10.10342246
_cell_length_b   10.10342246
_cell_length_c   10.10342246
_cell_angle_alpha   132.09728127
_cell_angle_beta   132.09728127
_cell_angle_gamma   70.07542503
_symmetry_Int_Tables_number   1
_chemical_formula_structural   Ba4Ta2TiZnO12
_chemical_formula_sum   'Ba8 Ta4 Ti2 Zn2 O24'
_cell_volume   556.67058678
_cell_formula_units_Z   2
loop_
 _symmetry_equiv_pos_site_id
 _symmetry_equiv_pos_as_xyz
  1  'x, y, z'
loop_
 _atom_site_type_symbol
 _atom_site_label
 _atom_site_symmetry_multiplicity
 _atom_site_fract_x
 _atom_site_fract_y
 _atom_site_fract_z
 _atom_site_occupancy
  Ba  Ba0  1  0.37500000  0.88076000  0.00576000  1
  Ba  Ba1  1  0.87500000  0.88076000  0.50576000  1
  Ba  Ba2  1  0.87500000  0.36924000  0.99424000  1
  Ba  Ba3  1  0.37500000  0.36924000  0.49424000  1
  Ba  Ba4  1  0.11924000  0.62500000  0.99424000  1
  Ba  Ba5  1  0.63076000  0.62500000  0.50576000  1
  Ba  Ba6  1  0.11924000  0.12500000  0.49424000  1
  Ba  Ba7  1  0.63076000  0.12500000  0.00576000  1
  Ta  Ta0  1  0.25105900  0.25105900  0.00000000  1
  Ta  Ta1  1  0.74894100  0.74894100  0.00000000  1
  Ta  Ta2  1  0.49894100  0.99894100  0.50000000  1
  Ta  Ta3  1  0.00105900  0.50105900  0.50000000  1
  Ti  Ti0  1  0.25000000  0.75000000  0.50000000  1
  Ti  Ti1  1  0.50000000  0.50000000  0.00000000  1
  Zn  Zn0  1  0.75000000  0.25000000  0.50000000  1
  Zn  Zn1  1  0.00000000  0.00000000  0.00000000  1
  O  O0  1  0.61594900  0.11594900  0.50000000  1
  O  O1  1  0.13405100  0.13405100  0.00000000  1
  O  O2  1  0.01520900  0.25526700  0.75994200  1
  O  O3  1  0.49532400  0.25526700  0.24005800  1
  O  O4  1  0.74473300  0.50467600  0.75994200  1
  O  O5  1  0.25337400  0.50477700  0.25140300  1
  O  O6  1  0.49662600  0.74522300  0.24859700  1
  O  O7  1  0.00526700  0.74532400  0.74005800  1
  O  O8  1  0.61963600  0.61963600  0.00000000  1
  O  O9  1  0.13036400  0.63036400  0.50000000  1
  O  O10  1  0.36963600  0.86963600  0.50000000  1
  O  O11  1  0.86594900  0.86594900  0.00000000  1
  O  O12  1  0.99802800  0.74662600  0.25140300  1
  O  O13  1  0.25467600  0.99473300  0.25994200  1
  O  O14  1  0.49522300  0.74662600  0.74859700  1
  O  O15  1  0.73479100  0.99473300  0.74005800  1
  O  O16  1  0.74473300  0.98479100  0.24005800  1
  O  O17  1  0.25337400  0.00197200  0.74859700  1
  O  O18  1  0.49662600  0.24802800  0.75140300  1
  O  O19  1  0.00526700  0.26520900  0.25994200  1
  O  O20  1  0.38036400  0.38036400  0.00000000  1
  O  O21  1  0.88405100  0.38405100  0.50000000  1
  O  O22  1  0.25477700  0.50337400  0.75140300  1
  O  O23  1  0.75197200  0.50337400  0.24859700  1
loop_
_geom_bond_atom_site_label_1
_geom_bond_atom_site_label_2
_geom_bond_distance
_geom_bond_site_symmetry_2
Ba0 O16 2.854221 1_555
Ba0 O7 2.854224 1_554
Ba0 O1 2.870957 1_565
Ba0 O0 2.870957 1_565
Ba0 O22 2.907099 1_554
Ba0 O14 2.907099 1_554
Ba0 O8 2.935209 1_555
Ba0 O9 2.935209 1_554
Ba0 O13 2.943789 1_555
Ba0 O3 2.943794 1_565
Ba0 O6 2.953014 1_555
Ba0 O17 2.953023 1_564
Ba1 O16 2.854221 1_555
Ba1 O7 2.854230 1_655
Ba1 O1 2.870957 1_666
Ba1 O0 2.870957 1_565
Ba1 O12 2.907090 1_555
Ba1 O23 2.907096 1_555
Ba1 O9 2.935209 1_655
Ba1 O8 2.935209 1_555
Ba1 O2 2.943798 1_665
Ba1 O15 2.943798 1_555
Ba1 O6 2.953014 1_555
Ba1 O17 2.953017 1_665
Ba2 O19 2.854221 1_656
Ba2 O4 2.854230 1_555
Ba2 O1 2.870957 1_656
Ba2 O0 2.870957 1_555
Ba2 O23 2.907090 1_556
Ba2 O12 2.907096 1_556
Ba2 O9 2.935209 1_656
Ba2 O8 2.935209 1_556
Ba2 O2 2.943798 1_655
Ba2 O15 2.943798 1_545
Ba2 O5 2.953014 1_656
Ba2 O18 2.953017 1_555
Ba3 O19 2.854221 1_555
Ba3 O4 2.854224 1_555
Ba3 O0 2.870957 1_555
Ba3 O1 2.870957 1_555
Ba3 O14 2.907099 1_555
Ba3 O22 2.907099 1_555
Ba3 O8 2.935209 1_556
Ba3 O9 2.935209 1_555
Ba3 O3 2.943789 1_555
Ba3 O13 2.943794 1_545
Ba3 O5 2.953014 1_555
Ba3 O18 2.953023 1_555
Ba4 O2 2.854221 1_555
Ba4 O13 2.854224 1_556
Ba4 O11 2.870957 1_456
Ba4 O21 2.870957 1_455
Ba4 O5 2.907099 1_556
Ba4 O6 2.907099 1_556
Ba4 O10 2.935209 1_556
Ba4 O20 2.935209 1_556
Ba4 O7 2.943789 1_555
Ba4 O4 2.943794 1_455
Ba4 O22 2.953014 1_555
Ba4 O12 2.953023 1_456
Ba5 O15 2.854221 1_555
Ba5 O3 2.854224 1_555
Ba5 O11 2.870957 1_556
Ba5 O21 2.870957 1_555
Ba5 O6 2.907099 1_555
Ba5 O5 2.907099 1_555
Ba5 O10 2.935209 1_555
Ba5 O20 2.935209 1_555
Ba5 O4 2.943789 1_555
Ba5 O7 2.943794 1_655
Ba5 O14 2.953014 1_555
Ba5 O23 2.953023 1_555
Ba6 O2 2.854221 1_555
Ba6 O13 2.854230 1_545
Ba6 O11 2.870957 1_445
Ba6 O21 2.870957 1_455
Ba6 O17 2.907090 1_555
Ba6 O18 2.907096 1_555
Ba6 O20 2.935209 1_556
Ba6 O10 2.935209 1_545
Ba6 O19 2.943798 1_555
Ba6 O16 2.943798 1_445
Ba6 O22 2.953014 1_555
Ba6 O12 2.953017 1_445
Ba7 O15 2.854221 1_544
Ba7 O3 2.854230 1_555
Ba7 O11 2.870957 1_545
Ba7 O21 2.870957 1_555
Ba7 O18 2.907090 1_554
Ba7 O17 2.907096 1_554
Ba7 O10 2.935209 1_544
Ba7 O20 2.935209 1_555
Ba7 O19 2.943798 1_655
Ba7 O16 2.943798 1_545
Ba7 O14 2.953014 1_544
Ba7 O23 2.953017 1_555
O0 Ta2 1.935879 1_545
O0 Zn0 2.217853 1_555
O1 Ta0 1.935879 1_555
O1 Zn1 2.217853 1_555
O2 Ta0 1.970472 1_556
O2 Zn0 2.134133 1_455
O3 Ta0 1.970467 1_555
O3 Zn0 2.134137 1_555
O4 Ta1 1.970467 1_556
O4 Zn0 2.134137 1_555
O5 Ti0 2.040052 1_555
O5 Ta0 2.062662 1_555
O6 Ti1 2.040052 1_555
O6 Ta2 2.062662 1_555
O7 Ta3 1.970467 1_555
O7 Zn1 2.134137 1_566
O8 Ti1 1.979359 1_555
O8 Ta1 2.139331 1_555
O9 Ti0 1.979359 1_555
O9 Ta3 2.139331 1_555
O10 Ti0 1.979359 1_555
O10 Ta2 2.139331 1_555
O11 Ta1 1.935879 1_555
O11 Zn1 2.217853 1_665
O12 Ti0 2.040057 1_655
O12 Ta1 2.062658 1_555
O13 Ta2 1.970467 1_555
O13 Zn1 2.134137 1_565
O14 Ti0 2.040052 1_555
O14 Ta1 2.062662 1_556
O15 Ta2 1.970472 1_555
O15 Zn1 2.134133 1_666
O16 Ta1 1.970472 1_555
O16 Zn0 2.134133 1_565
O17 Ti0 2.040057 1_545
O17 Ta0 2.062658 1_556
O18 Ti1 2.040057 1_556
O18 Ta2 2.062658 1_545
O19 Ta3 1.970472 1_555
O19 Zn1 2.134133 1_555
O20 Ti1 1.979359 1_555
O20 Ta0 2.139331 1_555
O21 Ta3 1.935879 1_655
O21 Zn0 2.217853 1_555
O22 Ti1 2.040052 1_556
O22 Ta3 2.062662 1_555
O23 Ti1 2.040057 1_555
O23 Ta3 2.062658 1_655
