# generated using pymatgen
data_Yb3H8
_symmetry_space_group_name_H-M   'P 1'
_cell_length_a   6.60439487
_cell_length_b   6.60439487
_cell_length_c   9.38094983
_cell_angle_alpha   89.91748609
_cell_angle_beta   89.91748609
_cell_angle_gamma   119.92953315
_symmetry_Int_Tables_number   1
_chemical_formula_structural   Yb3H8
_chemical_formula_sum   'Yb9 H24'
_cell_volume   354.60891681
_cell_formula_units_Z   3
loop_
 _symmetry_equiv_pos_site_id
 _symmetry_equiv_pos_as_xyz
  1  'x, y, z'
loop_
 _atom_site_type_symbol
 _atom_site_label
 _atom_site_symmetry_multiplicity
 _atom_site_fract_x
 _atom_site_fract_y
 _atom_site_fract_z
 _atom_site_occupancy
  Yb  Yb0  1  0.00000000  0.00000000  0.00000000  1
  Yb  Yb1  1  0.63663300  0.36336700  0.00000000  1
  Yb  Yb2  1  0.36336700  0.63663300  0.00000000  1
  Yb  Yb3  1  0.66789500  0.99048200  0.66504100  1
  Yb  Yb4  1  0.99048200  0.66789500  0.66504100  1
  Yb  Yb5  1  0.33925300  0.33925300  0.67007800  1
  Yb  Yb6  1  0.33210500  0.00951800  0.33495900  1
  Yb  Yb7  1  0.00951800  0.33210500  0.33495900  1
  Yb  Yb8  1  0.66074700  0.66074700  0.32992200  1
  H  H0  1  0.99067800  0.99067800  0.24912200  1
  H  H1  1  0.00932200  0.00932200  0.75087800  1
  H  H2  1  0.67082900  0.31897600  0.75932000  1
  H  H3  1  0.31897600  0.67082900  0.75932000  1
  H  H4  1  0.32917100  0.68102400  0.24068000  1
  H  H5  1  0.68102400  0.32917100  0.24068000  1
  H  H6  1  0.66647600  0.99885400  0.41964800  1
  H  H7  1  0.99885400  0.66647600  0.41964800  1
  H  H8  1  0.33492300  0.33492300  0.42116500  1
  H  H9  1  0.33352400  0.00114600  0.58035200  1
  H  H10  1  0.00114600  0.33352400  0.58035200  1
  H  H11  1  0.66507700  0.66507700  0.57883500  1
  H  H12  1  0.67260500  0.01430300  0.96048900  1
  H  H13  1  0.01430300  0.67260500  0.96048900  1
  H  H14  1  0.31207000  0.31207000  0.90379000  1
  H  H15  1  0.32739500  0.98569700  0.03951100  1
  H  H16  1  0.98569700  0.32739500  0.03951100  1
  H  H17  1  0.68793000  0.68793000  0.09621000  1
  H  H18  1  0.67349000  0.01519500  0.05264400  1
  H  H19  1  0.01519500  0.67349000  0.05264400  1
  H  H20  1  0.31282900  0.31282900  0.13253000  1
  H  H21  1  0.32651000  0.98480500  0.94735600  1
  H  H22  1  0.98480500  0.32651000  0.94735600  1
  H  H23  1  0.68717100  0.68717100  0.86747000  1
loop_
_geom_bond_atom_site_label_1
_geom_bond_atom_site_label_2
_geom_bond_distance
_geom_bond_site_symmetry_2
H0 Yb8 2.307197 1_555
H0 Yb0 2.337636 1_665
H0 Yb7 2.339676 1_665
H0 Yb6 2.339676 1_665
H1 Yb5 2.307197 1_555
H1 Yb0 2.337636 1_556
H1 Yb3 2.339676 1_445
H1 Yb4 2.339676 1_445
H2 Yb1 2.302425 1_556
H2 Yb3 2.335157 1_545
H2 Yb4 2.384017 1_555
H2 Yb5 2.410782 1_555
H3 Yb2 2.302425 1_556
H3 Yb4 2.335157 1_455
H3 Yb3 2.384017 1_555
H3 Yb5 2.410782 1_555
H4 Yb2 2.302425 1_555
H4 Yb6 2.335157 1_565
H4 Yb7 2.384017 1_555
H4 Yb8 2.410782 1_555
H5 Yb1 2.302425 1_555
H5 Yb7 2.335157 1_655
H5 Yb6 2.384017 1_555
H5 Yb8 2.410782 1_555
H6 Yb3 2.302749 1_555
H6 Yb8 2.370098 1_555
H6 Yb7 2.371104 1_665
H6 Yb6 2.381783 1_565
H7 Yb4 2.302749 1_555
H7 Yb8 2.370098 1_555
H7 Yb6 2.371104 1_665
H7 Yb7 2.381783 1_655
H8 Yb7 2.288693 1_555
H8 Yb6 2.288693 1_555
H8 Yb8 2.315696 1_555
H8 Yb5 2.335298 1_555
H9 Yb6 2.302749 1_555
H9 Yb5 2.370098 1_555
H9 Yb4 2.371104 1_445
H9 Yb3 2.381783 1_545
H10 Yb7 2.302749 1_555
H10 Yb5 2.370098 1_555
H10 Yb3 2.371104 1_445
H10 Yb4 2.381783 1_455
H11 Yb4 2.288693 1_555
H11 Yb3 2.288693 1_555
H11 Yb5 2.315696 1_555
H11 Yb8 2.335298 1_555
H12 H18 0.864538 1_556
H12 Yb0 2.242239 1_656
H12 Yb2 2.332767 1_546
H12 Yb1 2.461143 1_556
H13 H19 0.864538 1_556
H13 Yb0 2.242239 1_566
H13 Yb1 2.332767 1_456
H13 Yb2 2.461143 1_556
H14 Yb1 2.192243 1_556
H14 Yb2 2.192243 1_556
H14 Yb5 2.199279 1_555
H14 Yb0 2.249617 1_556
H15 H21 0.864538 1_554
H15 Yb0 2.242239 1_565
H15 Yb1 2.332767 1_565
H15 Yb2 2.461143 1_555
H16 H22 0.864538 1_554
H16 Yb0 2.242239 1_655
H16 Yb2 2.332767 1_655
H16 Yb1 2.461143 1_555
H17 Yb2 2.192243 1_555
H17 Yb1 2.192243 1_555
H17 Yb8 2.199279 1_555
H17 Yb0 2.249617 1_665
H18 Yb0 2.262088 1_655
H18 Yb2 2.363549 1_545
H18 Yb1 2.479172 1_555
H19 Yb0 2.262088 1_565
H19 Yb1 2.363549 1_455
H19 Yb2 2.479172 1_555
H20 Yb1 2.347187 1_555
H20 Yb2 2.347187 1_555
H20 Yb0 2.416222 1_555
H21 Yb0 2.262088 1_566
H21 Yb1 2.363549 1_566
H21 Yb2 2.479172 1_556
H22 Yb0 2.262088 1_656
H22 Yb2 2.363549 1_656
H22 Yb1 2.479172 1_556
H23 Yb2 2.347187 1_556
H23 Yb1 2.347187 1_556
H23 Yb0 2.416222 1_666
