# generated using pymatgen
data_Ca10V5Fe15(BiO24)2
_symmetry_space_group_name_H-M   'P 1'
_cell_length_a   10.90077500
_cell_length_b   10.90036263
_cell_length_c   10.90518979
_cell_angle_alpha   109.24939368
_cell_angle_beta   109.59280546
_cell_angle_gamma   109.52195587
_symmetry_Int_Tables_number   1
_chemical_formula_structural   Ca10V5Fe15(BiO24)2
_chemical_formula_sum   'Ca10 V5 Fe15 Bi2 O48'
_cell_volume   998.09403835
_cell_formula_units_Z   1
loop_
 _symmetry_equiv_pos_site_id
 _symmetry_equiv_pos_as_xyz
  1  'x, y, z'
loop_
 _atom_site_type_symbol
 _atom_site_label
 _atom_site_symmetry_multiplicity
 _atom_site_fract_x
 _atom_site_fract_y
 _atom_site_fract_z
 _atom_site_occupancy
  Ca  Ca0  1  0.62552400  0.87168000  0.24777500  1
  Ca  Ca1  1  0.12505500  0.74567200  0.37331800  1
  Ca  Ca2  1  0.74983500  0.87507800  0.62515900  1
  Ca  Ca3  1  0.12435600  0.37935000  0.25178400  1
  Ca  Ca4  1  0.62385300  0.74749700  0.87563300  1
  Ca  Ca5  1  0.37614700  0.25250300  0.12436700  1
  Ca  Ca6  1  0.87564400  0.62065000  0.74821600  1
  Ca  Ca7  1  0.25016500  0.12492200  0.37484100  1
  Ca  Ca8  1  0.37447600  0.12832000  0.75222500  1
  Ca  Ca9  1  0.87494500  0.25432800  0.62668200  1
  V  V0  1  0.00000000  0.00000000  0.50000000  1
  V  V1  1  0.50000000  0.00000000  0.50000000  1
  V  V2  1  0.50000000  0.00000000  0.00000000  1
  V  V3  1  0.00000000  0.00000000  0.00000000  1
  V  V4  1  0.50000000  0.50000000  0.50000000  1
  Fe  Fe0  1  0.25083700  0.87715000  0.12626200  1
  Fe  Fe1  1  0.12473500  0.87512500  0.75140700  1
  Fe  Fe2  1  0.37364700  0.62578500  0.25125600  1
  Fe  Fe3  1  0.87454900  0.75139800  0.12678500  1
  Fe  Fe4  1  0.37431400  0.74909100  0.62346700  1
  Fe  Fe5  1  0.00000000  0.50000000  0.50000000  1
  Fe  Fe6  1  0.74966200  0.62703100  0.37705400  1
  Fe  Fe7  1  0.25033800  0.37296900  0.62294600  1
  Fe  Fe8  1  0.50000000  0.50000000  0.00000000  1
  Fe  Fe9  1  0.62635300  0.37421500  0.74874400  1
  Fe  Fe10  1  0.62568600  0.25090900  0.37653300  1
  Fe  Fe11  1  0.12545100  0.24860200  0.87321500  1
  Fe  Fe12  1  0.00000000  0.50000000  0.00000000  1
  Fe  Fe13  1  0.87526500  0.12487500  0.24859300  1
  Fe  Fe14  1  0.74916300  0.12285000  0.87373800  1
  Bi  Bi0  1  0.24331600  0.61390300  0.87337000  1
  Bi  Bi1  1  0.75668400  0.38609700  0.12663000  1
  O  O0  1  0.01839100  0.90680900  0.33010700  1
  O  O1  1  0.67146800  0.98334500  0.09504800  1
  O  O2  1  0.40761600  0.89131900  0.08018000  1
  O  O3  1  0.30894100  0.92415300  0.32801800  1
  O  O4  1  0.11234200  0.92345300  0.59643200  1
  O  O5  1  0.38996600  0.90725900  0.57870300  1
  O  O6  1  0.51854600  0.82987000  0.40722500  1
  O  O7  1  0.17808400  0.58051900  0.20189300  1
  O  O8  1  0.41802100  0.62303300  0.09765500  1
  O  O9  1  0.67868300  0.70535500  0.08138500  1
  O  O10  1  0.08127100  0.67997600  0.70269200  1
  O  O11  1  0.80833300  0.97997400  0.88533100  1
  O  O12  1  0.80896100  0.82954600  0.42472600  1
  O  O13  1  0.42474000  0.81217800  0.82821500  1
  O  O14  1  0.18011500  0.59852300  0.47784600  1
  O  O15  1  0.51814600  0.69006100  0.61311600  1
  O  O16  1  0.09820500  0.68160600  0.97876500  1
  O  O17  1  0.98197700  0.88938800  0.81083000  1
  O  O18  1  0.38951700  0.48270700  0.31186800  1
  O  O19  1  0.91516600  0.59510100  0.12241900  1
  O  O20  1  0.59634100  0.47556700  0.17987100  1
  O  O21  1  0.69022400  0.61564300  0.51999700  1
  O  O22  1  0.09736100  0.41754400  0.62208600  1
  O  O23  1  0.88956100  0.81225400  0.98347200  1
  O  O24  1  0.11043900  0.18774600  0.01652800  1
  O  O25  1  0.90263900  0.58245600  0.37791400  1
  O  O26  1  0.30977600  0.38435700  0.48000300  1
  O  O27  1  0.40365900  0.52443300  0.82012900  1
  O  O28  1  0.08483400  0.40489900  0.87758100  1
  O  O29  1  0.61048300  0.51729300  0.68813200  1
  O  O30  1  0.01802300  0.11061200  0.18917000  1
  O  O31  1  0.90179500  0.31839400  0.02123500  1
  O  O32  1  0.48185400  0.30993900  0.38688400  1
  O  O33  1  0.81988500  0.40147700  0.52215400  1
  O  O34  1  0.57526000  0.18782200  0.17178500  1
  O  O35  1  0.19103900  0.17045400  0.57527400  1
  O  O36  1  0.19166700  0.02002600  0.11466900  1
  O  O37  1  0.91872900  0.32002400  0.29730800  1
  O  O38  1  0.32131700  0.29464500  0.91861500  1
  O  O39  1  0.58197900  0.37696700  0.90234500  1
  O  O40  1  0.82191600  0.41948100  0.79810700  1
  O  O41  1  0.48145400  0.17013000  0.59277500  1
  O  O42  1  0.61003400  0.09274100  0.42129700  1
  O  O43  1  0.88765800  0.07654700  0.40356800  1
  O  O44  1  0.69105900  0.07584700  0.67198200  1
  O  O45  1  0.59238400  0.10868100  0.91982000  1
  O  O46  1  0.32853200  0.01665500  0.90495200  1
  O  O47  1  0.98160900  0.09319100  0.66989300  1
loop_
_geom_bond_atom_site_label_1
_geom_bond_atom_site_label_2
_geom_bond_distance
_geom_bond_site_symmetry_2
Ca0 O8 2.374018 1_555
Ca0 O1 2.448473 1_555
Ca0 O43 2.452795 1_565
Ca0 O6 2.473537 1_555
Ca0 O9 2.480614 1_555
Ca0 O12 2.557996 1_555
Ca0 O2 2.591282 1_555
Ca0 O42 2.625902 1_565
Ca1 O14 2.371174 1_555
Ca1 O19 2.397007 1_455
Ca1 O5 2.473781 1_555
Ca1 O0 2.490440 1_555
Ca1 O7 2.504185 1_555
Ca1 O25 2.510664 1_455
Ca1 O3 2.595867 1_555
Ca1 O4 2.644097 1_555
Ca2 O21 2.422465 1_555
Ca2 O44 2.424928 1_565
Ca2 O12 2.425405 1_555
Ca2 O11 2.433954 1_555
Ca2 O17 2.572788 1_555
Ca2 O6 2.574204 1_555
Ca2 O15 2.581063 1_555
Ca2 O47 2.582227 1_565
Ca3 O7 2.364211 1_555
Ca3 O37 2.382890 1_455
Ca3 O18 2.473871 1_555
Ca3 O30 2.504369 1_555
Ca3 O14 2.509121 1_555
Ca3 O31 2.525636 1_455
Ca3 O26 2.597175 1_555
Ca3 O24 2.638397 1_555
Ca4 O9 2.359325 1_556
Ca4 O13 2.446611 1_555
Ca4 O15 2.457445 1_555
Ca4 O23 2.464208 1_555
Ca4 O27 2.488870 1_555
Ca4 O29 2.582910 1_555
Ca4 O11 2.598387 1_555
Ca4 O1 2.612118 1_556
Ca5 O38 2.359325 1_554
Ca5 O34 2.446611 1_555
Ca5 O32 2.457445 1_555
Ca5 O24 2.464208 1_555
Ca5 O20 2.488870 1_555
Ca5 O18 2.582910 1_555
Ca5 O36 2.598387 1_555
Ca5 O46 2.612118 1_554
Ca6 O40 2.364211 1_555
Ca6 O10 2.382890 1_655
Ca6 O29 2.473871 1_555
Ca6 O17 2.504369 1_555
Ca6 O33 2.509121 1_555
Ca6 O16 2.525636 1_655
Ca6 O21 2.597175 1_555
Ca6 O23 2.638397 1_555
Ca7 O26 2.422465 1_555
Ca7 O3 2.424928 1_545
Ca7 O35 2.425405 1_555
Ca7 O36 2.433954 1_555
Ca7 O30 2.572788 1_555
Ca7 O41 2.574204 1_555
Ca7 O32 2.581063 1_555
Ca7 O0 2.582227 1_545
Ca8 O39 2.374018 1_555
Ca8 O46 2.448473 1_555
Ca8 O4 2.452795 1_545
Ca8 O41 2.473537 1_555
Ca8 O38 2.480614 1_555
Ca8 O35 2.557996 1_555
Ca8 O45 2.591282 1_555
Ca8 O5 2.625902 1_545
Ca9 O33 2.371174 1_555
Ca9 O28 2.397007 1_655
Ca9 O42 2.473781 1_555
Ca9 O47 2.490440 1_555
Ca9 O40 2.504185 1_555
Ca9 O22 2.510664 1_655
Ca9 O44 2.595867 1_555
Ca9 O43 2.644097 1_555
Fe0 O16 1.863632 1_554
Fe0 O36 1.898419 1_565
Fe0 O3 1.899929 1_555
Fe0 O2 1.909942 1_555
Fe1 O10 1.855842 1_555
Fe1 O46 1.905369 1_565
Fe1 O4 1.906158 1_555
Fe1 O17 1.907187 1_455
Fe2 O7 1.852025 1_555
Fe2 O8 1.886963 1_555
Fe2 O18 1.918994 1_555
Fe2 O6 1.921364 1_555
Fe3 O9 1.861900 1_555
Fe3 O19 1.888297 1_555
Fe3 O0 1.913385 1_655
Fe3 O23 1.921427 1_554
Fe4 O14 1.844367 1_555
Fe4 O15 1.905275 1_555
Fe4 O5 1.911568 1_555
Fe4 O13 1.916332 1_555
Fe5 O14 2.036319 1_555
Fe5 O33 2.036319 1_455
Fe5 O10 2.045790 1_555
Fe5 O37 2.045790 1_455
Fe5 O22 2.045890 1_555
Fe5 O25 2.045890 1_455
Fe6 O20 1.883528 1_555
Fe6 O25 1.884406 1_555
Fe6 O21 1.901666 1_555
Fe6 O12 1.904040 1_555
Fe7 O27 1.883528 1_555
Fe7 O22 1.884406 1_555
Fe7 O26 1.901666 1_555
Fe7 O35 1.904040 1_555
Fe8 O27 2.042364 1_554
Fe8 O20 2.042364 1_555
Fe8 O9 2.051567 1_555
Fe8 O38 2.051567 1_554
Fe8 O8 2.056400 1_555
Fe8 O39 2.056400 1_554
Fe9 O40 1.852025 1_555
Fe9 O39 1.886963 1_555
Fe9 O29 1.918994 1_555
Fe9 O41 1.921364 1_555
Fe10 O33 1.844367 1_555
Fe10 O32 1.905275 1_555
Fe10 O42 1.911568 1_555
Fe10 O34 1.916332 1_555
Fe11 O38 1.861900 1_555
Fe11 O28 1.888297 1_555
Fe11 O47 1.913385 1_455
Fe11 O24 1.921427 1_556
Fe12 O7 2.026548 1_555
Fe12 O40 2.026548 1_454
Fe12 O16 2.042188 1_554
Fe12 O31 2.042188 1_455
Fe12 O28 2.065959 1_554
Fe12 O19 2.065959 1_455
Fe13 O37 1.855842 1_555
Fe13 O1 1.905369 1_545
Fe13 O43 1.906158 1_555
Fe13 O30 1.907187 1_655
Fe14 O31 1.863632 1_556
Fe14 O11 1.898419 1_545
Fe14 O44 1.899929 1_555
Fe14 O45 1.909942 1_555
Bi0 O22 2.356802 1_555
Bi0 O28 2.380896 1_555
Bi0 O27 2.406190 1_555
Bi0 O16 2.409986 1_555
Bi0 O8 2.491565 1_556
Bi0 O2 2.571551 1_556
Bi0 O10 2.575352 1_555
Bi0 O13 2.706091 1_555
Bi1 O25 2.356802 1_555
Bi1 O19 2.380896 1_555
Bi1 O20 2.406190 1_555
Bi1 O31 2.409986 1_555
Bi1 O39 2.491565 1_554
Bi1 O45 2.571551 1_554
Bi1 O37 2.575352 1_555
Bi1 O34 2.706091 1_555
O0 V0 1.910211 1_565
O1 V2 1.911154 1_565
O2 V2 1.912677 1_565
O3 V1 1.935394 1_565
O4 V0 1.923420 1_565
O5 V1 1.910337 1_565
O6 V1 1.911593 1_565
O11 V3 1.933803 1_666
O12 V0 1.929933 1_665
O13 V2 1.921422 1_566
O15 V4 1.931391 1_555
O17 V3 1.917778 1_666
O18 V4 1.905589 1_555
O21 V4 1.924800 1_555
O23 V3 1.906467 1_666
O24 V3 1.906467 1_555
O26 V4 1.924800 1_555
O29 V4 1.905589 1_555
O30 V3 1.917778 1_555
O32 V4 1.931391 1_555
O34 V2 1.921422 1_555
O35 V0 1.929933 1_555
O36 V3 1.933803 1_555
O41 V1 1.911593 1_555
O42 V1 1.910337 1_555
O43 V0 1.923420 1_655
O44 V1 1.935394 1_555
O45 V2 1.912677 1_556
O46 V2 1.911154 1_556
O47 V0 1.910211 1_655
