# generated using pymatgen
data_Y5Bi3
_symmetry_space_group_name_H-M   'P 1'
_cell_length_a   8.27423150
_cell_length_b   9.49009268
_cell_length_c   12.10767039
_cell_angle_alpha   90.00000000
_cell_angle_beta   90.00000000
_cell_angle_gamma   90.00000000
_symmetry_Int_Tables_number   1
_chemical_formula_structural   Y5Bi3
_chemical_formula_sum   'Y20 Bi12'
_cell_volume   950.73331162
_cell_formula_units_Z   4
loop_
 _symmetry_equiv_pos_site_id
 _symmetry_equiv_pos_as_xyz
  1  'x, y, z'
loop_
 _atom_site_type_symbol
 _atom_site_label
 _atom_site_symmetry_multiplicity
 _atom_site_fract_x
 _atom_site_fract_y
 _atom_site_fract_z
 _atom_site_occupancy
  Y  Y0  1  0.68548936  0.75000000  0.78142284  1
  Y  Y1  1  0.85514059  0.75000000  0.28615381  1
  Y  Y2  1  0.31451064  0.25000000  0.21857716  1
  Y  Y3  1  0.80559411  0.06221366  0.55985034  1
  Y  Y4  1  0.14485941  0.25000000  0.71384619  1
  Y  Y5  1  0.69440589  0.56221366  0.05985034  1
  Y  Y6  1  0.02675049  0.75000000  0.98889579  1
  Y  Y7  1  0.97324951  0.25000000  0.01110421  1
  Y  Y8  1  0.69440589  0.93778634  0.05985034  1
  Y  Y9  1  0.64485941  0.25000000  0.78615381  1
  Y  Y10  1  0.80559411  0.43778634  0.55985034  1
  Y  Y11  1  0.52675049  0.75000000  0.51110421  1
  Y  Y12  1  0.81451064  0.25000000  0.28142284  1
  Y  Y13  1  0.30559411  0.06221366  0.94014966  1
  Y  Y14  1  0.30559411  0.43778634  0.94014966  1
  Y  Y15  1  0.19440589  0.56221366  0.44014966  1
  Y  Y16  1  0.19440589  0.93778634  0.44014966  1
  Y  Y17  1  0.18548936  0.75000000  0.71857716  1
  Y  Y18  1  0.47324951  0.25000000  0.48889579  1
  Y  Y19  1  0.35514059  0.75000000  0.21384619  1
  Bi  Bi0  1  0.08905418  0.25000000  0.45874551  1
  Bi  Bi1  1  0.56618258  0.50400354  0.32652519  1
  Bi  Bi2  1  0.06618258  0.99599646  0.17347481  1
  Bi  Bi3  1  0.93381742  0.00400354  0.82652519  1
  Bi  Bi4  1  0.43381742  0.00400354  0.67347481  1
  Bi  Bi5  1  0.41094582  0.75000000  0.95874551  1
  Bi  Bi6  1  0.58905418  0.25000000  0.04125449  1
  Bi  Bi7  1  0.93381742  0.49599646  0.82652519  1
  Bi  Bi8  1  0.91094582  0.75000000  0.54125449  1
  Bi  Bi9  1  0.56618258  0.99599646  0.32652519  1
  Bi  Bi10  1  0.06618258  0.50400354  0.17347481  1
  Bi  Bi11  1  0.43381742  0.49599646  0.67347481  1
loop_
_geom_bond_atom_site_label_1
_geom_bond_atom_site_label_2
_geom_bond_distance
_geom_bond_site_symmetry_2
Bi0 Y16 3.096701 1_545
Bi0 Y15 3.096701 1_555
Bi0 Y4 3.122999 1_555
Bi0 Y12 3.125666 1_455
Bi0 Y3 3.189892 1_455
Bi0 Y10 3.189892 1_455
Bi0 Y18 3.199813 1_555
Bi0 Y2 3.454819 1_555
Bi1 Y18 3.204178 1_555
Bi1 Y12 3.214139 1_555
Bi1 Y19 3.218779 1_555
Bi1 Y11 3.248216 1_555
Bi1 Y1 3.377186 1_555
Bi1 Y15 3.414761 1_555
Bi1 Y2 3.443137 1_555
Bi1 Y5 3.443255 1_555
Bi1 Y10 3.507108 1_555
Bi2 Y7 3.204178 1_465
Bi2 Y2 3.214139 1_565
Bi2 Y1 3.218779 1_455
Bi2 Y6 3.248216 1_554
Bi2 Y19 3.377186 1_555
Bi2 Y8 3.414761 1_455
Bi2 Y12 3.443137 1_465
Bi2 Y16 3.443255 1_555
Bi2 Y13 3.507108 1_564
Bi3 Y6 3.204178 1_645
Bi3 Y0 3.214139 1_545
Bi3 Y4 3.218779 1_655
Bi3 Y7 3.248216 1_556
Bi3 Y9 3.377186 1_555
Bi3 Y13 3.414761 1_655
Bi3 Y17 3.443137 1_645
Bi3 Y3 3.443255 1_555
Bi3 Y8 3.507108 1_546
Bi4 Y11 3.204178 1_545
Bi4 Y17 3.214139 1_545
Bi4 Y9 3.218779 1_555
Bi4 Y18 3.248216 1_555
Bi4 Y4 3.377186 1_555
Bi4 Y3 3.414761 1_555
Bi4 Y0 3.443137 1_545
Bi4 Y13 3.443255 1_555
Bi4 Y16 3.507108 1_545
Bi5 Y14 3.096701 1_555
Bi5 Y13 3.096701 1_565
Bi5 Y19 3.122999 1_556
Bi5 Y0 3.125666 1_555
Bi5 Y5 3.189892 1_556
Bi5 Y8 3.189892 1_556
Bi5 Y6 3.199813 1_555
Bi5 Y17 3.454819 1_555
Bi6 Y8 3.096701 1_545
Bi6 Y5 3.096701 1_555
Bi6 Y9 3.122999 1_554
Bi6 Y2 3.125666 1_555
Bi6 Y13 3.189892 1_554
Bi6 Y14 3.189892 1_554
Bi6 Y7 3.199813 1_555
Bi6 Y12 3.454819 1_555
Bi7 Y6 3.204178 1_655
Bi7 Y0 3.214139 1_555
Bi7 Y4 3.218779 1_655
Bi7 Y7 3.248216 1_556
Bi7 Y9 3.377186 1_555
Bi7 Y14 3.414761 1_655
Bi7 Y17 3.443137 1_655
Bi7 Y10 3.443255 1_555
Bi7 Y5 3.507108 1_556
Bi8 Y10 3.096701 1_555
Bi8 Y3 3.096701 1_565
Bi8 Y1 3.122999 1_555
Bi8 Y17 3.125666 1_655
Bi8 Y15 3.189892 1_655
Bi8 Y16 3.189892 1_655
Bi8 Y11 3.199813 1_555
Bi8 Y0 3.454819 1_555
Bi9 Y18 3.204178 1_565
Bi9 Y12 3.214139 1_565
Bi9 Y19 3.218779 1_555
Bi9 Y11 3.248216 1_555
Bi9 Y1 3.377186 1_555
Bi9 Y16 3.414761 1_555
Bi9 Y2 3.443137 1_565
Bi9 Y8 3.443255 1_555
Bi9 Y3 3.507108 1_565
Bi10 Y7 3.204178 1_455
Bi10 Y2 3.214139 1_555
Bi10 Y1 3.218779 1_455
Bi10 Y6 3.248216 1_554
Bi10 Y19 3.377186 1_555
Bi10 Y5 3.414761 1_455
Bi10 Y12 3.443137 1_455
Bi10 Y15 3.443255 1_555
Bi10 Y14 3.507108 1_554
Bi11 Y11 3.204178 1_555
Bi11 Y17 3.214139 1_555
Bi11 Y9 3.218779 1_555
Bi11 Y18 3.248216 1_555
Bi11 Y4 3.377186 1_555
Bi11 Y10 3.414761 1_555
Bi11 Y0 3.443137 1_555
Bi11 Y14 3.443255 1_555
Bi11 Y15 3.507108 1_555
