# generated using pymatgen
data_La8Mn9O27
_symmetry_space_group_name_H-M   'P 1'
_cell_length_a   16.54290658
_cell_length_b   9.52481093
_cell_length_c   16.52461643
_cell_angle_alpha   55.33485132
_cell_angle_beta   60.57893605
_cell_angle_gamma   30.27153719
_symmetry_Int_Tables_number   1
_chemical_formula_structural   La8Mn9O27
_chemical_formula_sum   'La16 Mn18 O54'
_cell_volume   1079.55759863
_cell_formula_units_Z   2
loop_
 _symmetry_equiv_pos_site_id
 _symmetry_equiv_pos_as_xyz
  1  'x, y, z'
loop_
 _atom_site_type_symbol
 _atom_site_label
 _atom_site_symmetry_multiplicity
 _atom_site_fract_x
 _atom_site_fract_y
 _atom_site_fract_z
 _atom_site_occupancy
  La  La0  1  0.00252160  0.23772264  0.08408442  1
  La  La1  1  0.00252160  0.25471256  0.41591558  1
  La  La2  1  0.99625031  0.25562453  0.75000000  1
  La  La3  1  0.32662389  0.26218183  0.08579920  1
  La  La4  1  0.00670911  0.74205449  0.58579920  1
  La  La5  1  0.32662389  0.25794551  0.41420080  1
  La  La6  1  0.00670911  0.73781817  0.91420080  1
  La  La7  1  0.33708269  0.74437547  0.25000000  1
  La  La8  1  0.67560881  0.23599671  0.08851084  1
  La  La9  1  0.33081140  0.74528744  0.58408442  1
  La  La10  1  0.67560881  0.23717786  0.41148916  1
  La  La11  1  0.33081140  0.76227736  0.91591558  1
  La  La12  1  0.66235800  0.25646350  0.75000000  1
  La  La13  1  0.67097600  0.74353650  0.25000000  1
  La  La14  1  0.65772519  0.76282214  0.58851084  1
  La  La15  1  0.65772519  0.76400329  0.91148916  1
  Mn  Mn0  1  0.00019060  0.99691724  0.00193406  1
  Mn  Mn1  1  0.00112718  0.50007039  0.16775826  1
  Mn  Mn2  1  0.33314240  0.00308276  0.99806594  1
  Mn  Mn3  1  0.00019060  0.50251098  0.49806594  1
  Mn  Mn4  1  0.00296472  0.49734029  0.83280242  1
  Mn  Mn5  1  0.00112718  0.99654807  0.33224174  1
  Mn  Mn6  1  0.33036828  0.50265971  0.16719758  1
  Mn  Mn7  1  0.66666700  0.00000000  0.00000000  1
  Mn  Mn8  1  0.00296472  0.99376554  0.66719758  1
  Mn  Mn9  1  0.33314240  0.49748902  0.50193406  1
  Mn  Mn10  1  0.33220582  0.49992961  0.83224174  1
  Mn  Mn11  1  0.33036828  0.00623446  0.33280242  1
  Mn  Mn12  1  0.66927823  0.49514259  0.16694059  1
  Mn  Mn13  1  0.33220582  0.00345193  0.66775826  1
  Mn  Mn14  1  0.66666700  0.50000000  0.50000000  1
  Mn  Mn15  1  0.66405577  0.50485741  0.83305941  1
  Mn  Mn16  1  0.66927823  0.99702372  0.33305941  1
  Mn  Mn17  1  0.66405577  0.00297628  0.66694059  1
  O  O0  1  0.03498846  0.19751781  0.25000000  1
  O  O1  1  0.14991089  0.30118862  0.06612672  1
  O  O2  1  0.03379732  0.20008983  0.58429754  1
  O  O3  1  0.19484533  0.21863146  0.23310083  1
  O  O4  1  0.15853936  0.27183316  0.40983017  1
  O  O5  1  0.15853936  0.75254775  0.09016983  1
  O  O6  1  0.03379732  0.19851922  0.91570246  1
  O  O7  1  0.18342211  0.25092229  0.56612672  1
  O  O8  1  0.37513474  0.18729789  0.25000000  1
  O  O9  1  0.13848767  0.30316744  0.73310083  1
  O  O10  1  0.19484533  0.69683256  0.26689917  1
  O  O11  1  0.48317521  0.30479520  0.06430393  1
  O  O12  1  0.14991089  0.74907771  0.43387328  1
  O  O13  1  0.29953668  0.80148078  0.08429754  1
  O  O14  1  0.17479364  0.24745225  0.90983017  1
  O  O15  1  0.36721507  0.19961673  0.57294598  1
  O  O16  1  0.51959333  0.24528831  0.23223717  1
  O  O17  1  0.17479364  0.72816684  0.59016983  1
  O  O18  1  0.48341715  0.30136359  0.39906574  1
  O  O19  1  0.13848767  0.78136854  0.76689917  1
  O  O20  1  0.29953668  0.79991017  0.41570246  1
  O  O21  1  0.48341715  0.74838597  0.10093426  1
  O  O22  1  0.36721507  0.19873806  0.92705402  1
  O  O23  1  0.52262148  0.25020070  0.56068698  1
  O  O24  1  0.68139459  0.22790762  0.25000000  1
  O  O25  1  0.18342211  0.69881138  0.93387328  1
  O  O26  1  0.49257140  0.30229670  0.73170429  1
  O  O27  1  0.51959333  0.69593070  0.26776283  1
  O  O28  1  0.81071152  0.31806614  0.06068698  1
  O  O29  1  0.29834554  0.80248219  0.75000000  1
  O  O30  1  0.48317521  0.74568018  0.43569607  1
  O  O31  1  0.62657221  0.81291082  0.08231887  1
  O  O32  1  0.51793345  0.25097905  0.89892074  1
  O  O33  1  0.70676079  0.19262745  0.58231887  1
  O  O34  1  0.84076260  0.28000990  0.23170429  1
  O  O35  1  0.51793345  0.69521959  0.60107926  1
  O  O36  1  0.81539955  0.30478041  0.39892074  1
  O  O37  1  0.49257140  0.71999010  0.76829571  1
  O  O38  1  0.62657221  0.80737255  0.41768113  1
  O  O39  1  0.81539955  0.74902095  0.10107926  1
  O  O40  1  0.70676079  0.18708918  0.91768113  1
  O  O41  1  0.85015879  0.25431982  0.56430393  1
  O  O42  1  0.52262148  0.68193386  0.93931302  1
  O  O43  1  0.81373967  0.30406930  0.73223717  1
  O  O44  1  0.84076260  0.69770330  0.26829571  1
  O  O45  1  0.65193841  0.77209238  0.75000000  1
  O  O46  1  0.81071152  0.74979930  0.43931302  1
  O  O47  1  0.96611793  0.80126194  0.07294598  1
  O  O48  1  0.84991685  0.25161403  0.89906574  1
  O  O49  1  0.84991685  0.69863641  0.60093426  1
  O  O50  1  0.81373967  0.75471169  0.76776283  1
  O  O51  1  0.96611793  0.80038327  0.42705402  1
  O  O52  1  0.85015879  0.69520480  0.93569607  1
  O  O53  1  0.95819826  0.81270211  0.75000000  1
loop_
_geom_bond_atom_site_label_1
_geom_bond_atom_site_label_2
_geom_bond_distance
_geom_bond_site_symmetry_2
La0 O34 2.473135 1_455
La0 O13 2.478536 1_545
La0 O52 2.509885 1_454
La0 O5 2.674246 1_545
La0 O28 2.734610 1_455
La0 O6 2.753722 1_554
La0 O0 2.801623 1_555
La0 O1 2.833643 1_555
La0 O39 2.835582 1_455
La0 O14 2.917588 1_554
La0 O10 3.035853 1_545
La0 O31 3.136542 1_455
La1 O44 2.473136 1_455
La1 O20 2.478536 1_545
La1 O41 2.509882 1_455
La1 O4 2.674238 1_555
La1 O46 2.734610 1_455
La1 O2 2.753727 1_555
La1 O0 2.801618 1_555
La1 O12 2.833651 1_545
La1 O36 2.835582 1_455
La1 O17 2.917587 1_545
La1 O3 3.035854 1_555
La1 O38 3.136542 1_455
La2 O48 2.474593 1_555
La2 O49 2.474596 1_555
La2 O29 2.519250 1_645
La2 O9 2.621227 1_655
La2 O19 2.621235 1_645
La2 O2 2.751791 1_655
La2 O6 2.751797 1_655
La2 O43 2.779419 1_555
La2 O50 2.779420 1_555
La2 O45 2.871305 1_555
La2 O25 3.081211 1_645
La2 O7 3.081211 1_655
La3 O3 2.459573 1_555
La3 O25 2.481722 1_554
La3 O31 2.501934 1_545
La3 O22 2.658768 1_554
La3 O5 2.702887 1_555
La3 O8 2.732051 1_555
La3 O1 2.776666 1_555
La3 O11 2.783155 1_555
La3 O21 2.838871 1_545
La3 O47 3.014528 1_455
La3 O27 3.092537 1_545
La3 O32 3.123075 1_554
La4 O9 2.459577 1_555
La4 O12 2.481720 1_555
La4 O33 2.501934 1_465
La4 O51 2.658773 1_455
La4 O17 2.702888 1_555
La4 O53 2.732046 1_455
La4 O7 2.776666 1_555
La4 O41 2.783147 1_465
La4 O49 2.838871 1_455
La4 O15 3.014528 1_555
La4 O50 3.092537 1_455
La4 O36 3.123075 1_465
La5 O10 2.459577 1_555
La5 O7 2.481720 1_555
La5 O38 2.501934 1_545
La5 O15 2.658773 1_555
La5 O4 2.702888 1_555
La5 O8 2.732046 1_555
La5 O12 2.776666 1_555
La5 O30 2.783139 1_545
La5 O18 2.838888 1_555
La5 O51 3.014528 1_455
La5 O16 3.092537 1_555
La5 O35 3.123075 1_545
La6 O19 2.459573 1_555
La6 O1 2.481722 1_556
La6 O40 2.501934 1_465
La6 O47 2.658768 1_456
La6 O14 2.702887 1_555
La6 O53 2.732051 1_455
La6 O25 2.776666 1_555
La6 O52 2.783139 1_455
La6 O48 2.838880 1_465
La6 O22 3.014528 1_555
La6 O43 3.092537 1_465
La6 O39 3.123075 1_456
La7 O18 2.474596 1_555
La7 O21 2.474602 1_555
La7 O0 2.519241 1_565
La7 O10 2.621227 1_555
La7 O3 2.621235 1_565
La7 O13 2.751788 1_555
La7 O20 2.751798 1_555
La7 O27 2.779419 1_555
La7 O16 2.779420 1_555
La7 O24 2.871305 1_555
La7 O1 3.081211 1_565
La7 O12 3.081211 1_555
La8 O47 2.435676 1_545
La8 O16 2.476329 1_555
La8 O42 2.484845 1_554
La8 O24 2.672180 1_555
La8 O28 2.723407 1_555
La8 O21 2.768681 1_555
La8 O39 2.784546 1_545
La8 O11 2.841327 1_555
La8 O40 2.846633 1_554
La8 O44 3.004868 1_545
La8 O48 3.078918 1_554
La8 O13 3.136797 1_555
La9 O26 2.473138 1_555
La9 O2 2.478528 1_565
La9 O30 2.509891 1_555
La9 O17 2.674238 1_555
La9 O23 2.734610 1_555
La9 O20 2.753719 1_555
La9 O29 2.801625 1_555
La9 O7 2.833651 1_565
La9 O35 2.835582 1_555
La9 O4 2.917587 1_565
La9 O19 3.035854 1_555
La9 O33 3.136542 1_555
La10 O51 2.435675 1_545
La10 O27 2.476323 1_555
La10 O23 2.484851 1_555
La10 O24 2.672191 1_555
La10 O46 2.723415 1_545
La10 O18 2.768680 1_555
La10 O36 2.784538 1_555
La10 O30 2.841328 1_555
La10 O33 2.846623 1_555
La10 O34 3.004868 1_555
La10 O49 3.078918 1_545
La10 O20 3.136797 1_555
La11 O37 2.473142 1_555
La11 O6 2.478527 1_565
La11 O11 2.509885 1_556
La11 O14 2.674246 1_565
La11 O42 2.734610 1_555
La11 O13 2.753729 1_556
La11 O29 2.801614 1_555
La11 O25 2.833643 1_555
La11 O32 2.835582 1_555
La11 O5 2.917588 1_556
La11 O9 3.035853 1_565
La11 O40 3.136542 1_555
La12 O35 2.461679 1_555
La12 O32 2.461685 1_555
La12 O53 2.467088 1_545
La12 O26 2.595632 1_555
La12 O37 2.595632 1_555
La12 O43 2.766058 1_555
La12 O50 2.766066 1_545
La12 O40 2.780709 1_555
La12 O33 2.780720 1_555
La13 O39 2.461677 1_555
La13 O36 2.461679 1_555
La13 O8 2.467096 1_565
La13 O44 2.595632 1_555
La13 O34 2.595632 1_555
La13 O16 2.766058 1_565
La13 O27 2.766074 1_555
La13 O38 2.780713 1_555
La13 O31 2.780718 1_555
La14 O15 2.435684 1_565
La14 O43 2.476323 1_555
La14 O46 2.484843 1_555
La14 O45 2.672183 1_555
La14 O23 2.723406 1_565
La14 O49 2.768680 1_555
La14 O35 2.784554 1_555
La14 O41 2.841328 1_555
La14 O38 2.846631 1_555
La14 O37 3.004868 1_555
La14 O18 3.078918 1_565
La14 O2 3.136797 1_655
La15 O22 2.435684 1_565
La15 O50 2.476320 1_555
La15 O28 2.484845 1_556
La15 O45 2.672188 1_555
La15 O42 2.723423 1_555
La15 O48 2.768681 1_555
La15 O32 2.784537 1_565
La15 O52 2.841327 1_555
La15 O31 2.846626 1_556
La15 O26 3.004868 1_565
La15 O21 3.078918 1_556
La15 O6 3.136797 1_655
Mn0 O5 1.940564 1_555
Mn0 O47 1.960758 1_455
Mn0 O25 1.982986 1_554
Mn0 O28 1.987855 1_465
Mn0 O6 1.994963 1_564
Mn0 O48 1.999594 1_464
Mn1 O3 1.972333 1_555
Mn1 O47 1.982105 1_455
Mn1 O44 1.985719 1_455
Mn1 O0 1.992427 1_555
Mn1 O1 1.992834 1_555
Mn1 O39 2.011595 1_455
Mn2 O14 1.940564 1_555
Mn2 O22 1.960758 1_555
Mn2 O1 1.982986 1_556
Mn2 O42 1.987855 1_545
Mn2 O13 1.994951 1_546
Mn2 O21 1.999605 1_546
Mn3 O4 1.940568 1_555
Mn3 O51 1.960750 1_455
Mn3 O7 1.982986 1_555
Mn3 O46 1.987854 1_455
Mn3 O2 1.994956 1_555
Mn3 O49 1.999598 1_455
Mn4 O14 1.946116 1_555
Mn4 O9 1.958699 1_555
Mn4 O53 1.980162 1_455
Mn4 O6 1.995303 1_555
Mn4 O50 2.004224 1_455
Mn4 O52 2.006600 1_455
Mn5 O10 1.972333 1_555
Mn5 O51 1.982112 1_455
Mn5 O34 1.985717 1_465
Mn5 O0 1.992434 1_565
Mn5 O12 1.992830 1_555
Mn5 O36 2.011595 1_465
Mn6 O5 1.946116 1_555
Mn6 O10 1.958699 1_555
Mn6 O8 1.980162 1_555
Mn6 O13 1.995314 1_555
Mn6 O16 2.004224 1_555
Mn6 O11 2.006600 1_555
Mn7 O40 1.965573 1_554
Mn7 O31 1.965586 1_545
Mn7 O11 1.972345 1_555
Mn7 O52 1.972345 1_544
Mn7 O39 1.973380 1_545
Mn7 O32 1.973391 1_554
Mn8 O17 1.946116 1_555
Mn8 O19 1.958695 1_555
Mn8 O53 1.980169 1_455
Mn8 O2 1.995311 1_565
Mn8 O43 2.004224 1_465
Mn8 O41 2.006597 1_465
Mn9 O17 1.940568 1_555
Mn9 O15 1.960750 1_555
Mn9 O12 1.982986 1_555
Mn9 O23 1.987854 1_555
Mn9 O20 1.994966 1_555
Mn9 O18 1.999598 1_555
Mn10 O19 1.972333 1_555
Mn10 O22 1.982105 1_555
Mn10 O26 1.985721 1_555
Mn10 O29 1.992437 1_555
Mn10 O25 1.992834 1_555
Mn10 O32 2.011595 1_555
Mn11 O4 1.946116 1_555
Mn11 O3 1.958695 1_555
Mn11 O8 1.980169 1_555
Mn11 O20 1.995298 1_545
Mn11 O27 2.004224 1_545
Mn11 O30 2.006607 1_545
Mn12 O24 1.953908 1_555
Mn12 O34 1.959393 1_555
Mn12 O28 1.979468 1_555
Mn12 O21 1.988256 1_555
Mn12 O27 1.989087 1_555
Mn12 O31 2.019369 1_555
Mn13 O9 1.972333 1_555
Mn13 O15 1.982112 1_555
Mn13 O37 1.985726 1_545
Mn13 O29 1.992422 1_545
Mn13 O7 1.992830 1_555
Mn13 O35 2.011595 1_545
Mn14 O38 1.965579 1_555
Mn14 O33 1.965589 1_555
Mn14 O30 1.972345 1_555
Mn14 O41 1.972345 1_555
Mn14 O36 1.973384 1_555
Mn14 O35 1.973384 1_555
Mn15 O45 1.953897 1_555
Mn15 O37 1.959393 1_555
Mn15 O42 1.979468 1_555
Mn15 O48 1.988256 1_555
Mn15 O43 1.989087 1_555
Mn15 O40 2.019379 1_555
Mn16 O24 1.953892 1_565
Mn16 O44 1.959393 1_555
Mn16 O46 1.979464 1_555
Mn16 O18 1.988256 1_565
Mn16 O16 1.989094 1_565
Mn16 O38 2.019377 1_555
Mn17 O45 1.953904 1_545
Mn17 O26 1.959393 1_555
Mn17 O23 1.979474 1_555
Mn17 O49 1.988256 1_545
Mn17 O50 1.989083 1_545
Mn17 O33 2.019364 1_555
