# generated using pymatgen
data_Mn4Si7
_symmetry_space_group_name_H-M   'P 1'
_cell_length_a   5.45652670
_cell_length_b   5.45652445
_cell_length_c   17.15003717
_cell_angle_alpha   90.00000000
_cell_angle_beta   90.00000000
_cell_angle_gamma   90.00099229
_symmetry_Int_Tables_number   1
_chemical_formula_structural   Mn4Si7
_chemical_formula_sum   'Mn16 Si28'
_cell_volume   510.61957031
_cell_formula_units_Z   4
loop_
 _symmetry_equiv_pos_site_id
 _symmetry_equiv_pos_as_xyz
  1  'x, y, z'
loop_
 _atom_site_type_symbol
 _atom_site_label
 _atom_site_symmetry_multiplicity
 _atom_site_fract_x
 _atom_site_fract_y
 _atom_site_fract_z
 _atom_site_occupancy
  Mn  Mn0  1  0.00000000  -0.00000000  0.24999910  1
  Mn  Mn1  1  0.00000000  0.50000000  0.80846666  1
  Mn  Mn2  1  0.50000000  -0.00000000  0.69153253  1
  Mn  Mn3  1  0.50000000  0.50000000  0.36979441  1
  Mn  Mn4  1  0.00000000  -0.00000000  0.00002020  1
  Mn  Mn5  1  0.50000000  0.50000000  0.13020729  1
  Mn  Mn6  1  0.50000000  -0.00000000  0.43497877  1
  Mn  Mn7  1  0.00000000  -0.00000000  0.74999983  1
  Mn  Mn8  1  0.50000000  -0.00000000  0.93501516  1
  Mn  Mn9  1  0.50000000  0.50000000  0.63017428  1
  Mn  Mn10  1  0.00000000  0.50000000  0.06502197  1
  Mn  Mn11  1  0.00000000  0.50000000  0.30846111  1
  Mn  Mn12  1  0.00000000  -0.00000000  0.49997853  1
  Mn  Mn13  1  0.50000000  -0.00000000  0.19153996  1
  Mn  Mn14  1  0.00000000  0.50000000  0.56498190  1
  Mn  Mn15  1  0.50000000  0.50000000  0.86982057  1
  Si  Si0  1  0.80271438  0.84438007  0.11343624  1
  Si  Si1  1  0.77144074  0.34608267  0.46048864  1
  Si  Si2  1  0.80266894  0.15560585  0.61343445  1
  Si  Si3  1  0.34607787  0.22860969  0.53948832  1
  Si  Si4  1  0.67766123  0.15901951  0.31714986  1
  Si  Si5  1  0.22861092  0.34608074  0.96051301  1
  Si  Si6  1  0.67765384  0.84097041  0.81716617  1
  Si  Si7  1  0.15903253  0.67764158  0.18283891  1
  Si  Si8  1  0.65391607  0.22854306  0.03951378  1
  Si  Si9  1  0.15560504  0.80267767  0.88657224  1
  Si  Si10  1  0.66579732  0.33421679  0.75000662  1
  Si  Si11  1  0.77138908  0.65391926  0.96051301  1
  Si  Si12  1  0.15902040  0.32233255  0.68284569  1
  Si  Si13  1  0.33422065  0.33420203  0.24999271  1
  Si  Si14  1  0.32233877  0.84098049  0.31714986  1
  Si  Si15  1  0.65392213  0.77139031  0.53948832  1
  Si  Si16  1  0.84096747  0.32235842  0.18283891  1
  Si  Si17  1  0.84438355  0.80269288  0.38655821  1
  Si  Si18  1  0.84439496  0.19732233  0.88657224  1
  Si  Si19  1  0.19728562  0.15561993  0.11343624  1
  Si  Si20  1  0.84097960  0.67766745  0.68284569  1
  Si  Si21  1  0.22855926  0.65391733  0.46048864  1
  Si  Si22  1  0.19733106  0.84439415  0.61343445  1
  Si  Si23  1  0.15561645  0.19730712  0.38655821  1
  Si  Si24  1  0.32234616  0.15902959  0.81716617  1
  Si  Si25  1  0.66577935  0.66579797  0.24999271  1
  Si  Si26  1  0.33420268  0.66578321  0.75000662  1
  Si  Si27  1  0.34608393  0.77145694  0.03951378  1
loop_
_geom_bond_atom_site_label_1
_geom_bond_atom_site_label_2
_geom_bond_distance
_geom_bond_site_symmetry_2
Mn0 Si14 2.274372 1_545
Mn0 Si4 2.274372 1_455
Mn0 Si16 2.274564 1_455
Mn0 Si7 2.274564 1_545
Mn0 Si13 2.578984 1_555
Mn0 Si25 2.578984 1_445
Mn0 Si23 2.713855 1_555
Mn0 Si17 2.713855 1_445
Mn0 Si0 2.713870 1_445
Mn0 Si19 2.713870 1_555
Mn1 Si10 2.269119 1_455
Mn1 Si26 2.269119 1_555
Mn1 Si18 2.289723 1_455
Mn1 Si9 2.289723 1_555
Mn1 Si12 2.516787 1_555
Mn1 Si20 2.516787 1_455
Mn1 Si6 2.564679 1_455
Mn1 Si24 2.564679 1_555
Mn2 Si10 2.269317 1_555
Mn2 Si26 2.269317 1_545
Mn2 Si22 2.289616 1_545
Mn2 Si2 2.289616 1_555
Mn2 Si24 2.516962 1_555
Mn2 Si6 2.516962 1_545
Mn2 Si20 2.564652 1_545
Mn2 Si12 2.564652 1_555
Mn3 Si4 2.284007 1_555
Mn3 Si14 2.284007 1_555
Mn3 Si21 2.306171 1_555
Mn3 Si1 2.306171 1_555
Mn3 Si13 2.420347 1_555
Mn3 Si25 2.420347 1_555
Mn3 Si17 2.518265 1_555
Mn3 Si23 2.518265 1_555
Mn4 Si8 2.362222 1_455
Mn4 Si27 2.362222 1_545
Mn4 Si5 2.362435 1_554
Mn4 Si11 2.362435 1_444
Mn4 Si19 2.379753 1_555
Mn4 Si0 2.379753 1_445
Mn4 Si18 2.380276 1_454
Mn4 Si9 2.380276 1_544
Mn5 Si7 2.283816 1_555
Mn5 Si16 2.283816 1_555
Mn5 Si8 2.306216 1_555
Mn5 Si27 2.306216 1_555
Mn5 Si25 2.420110 1_555
Mn5 Si13 2.420110 1_555
Mn5 Si19 2.518342 1_555
Mn5 Si0 2.518342 1_555
Mn6 Si17 2.319463 1_545
Mn6 Si23 2.319463 1_555
Mn6 Si3 2.339652 1_555
Mn6 Si15 2.339652 1_545
Mn6 Si4 2.403360 1_555
Mn6 Si14 2.403360 1_545
Mn6 Si1 2.439492 1_555
Mn6 Si21 2.439492 1_545
Mn7 Si12 2.274354 1_555
Mn7 Si20 2.274354 1_445
Mn7 Si6 2.274537 1_445
Mn7 Si24 2.274537 1_555
Mn7 Si10 2.579016 1_455
Mn7 Si26 2.579016 1_545
Mn7 Si22 2.713993 1_545
Mn7 Si2 2.713993 1_455
Mn7 Si18 2.714077 1_455
Mn7 Si9 2.714077 1_545
Mn8 Si18 2.319659 1_555
Mn8 Si9 2.319659 1_545
Mn8 Si27 2.339287 1_546
Mn8 Si8 2.339287 1_556
Mn8 Si6 2.403665 1_545
Mn8 Si24 2.403665 1_555
Mn8 Si11 2.439315 1_545
Mn8 Si5 2.439315 1_555
Mn9 Si20 2.284173 1_555
Mn9 Si12 2.284173 1_555
Mn9 Si15 2.305889 1_555
Mn9 Si3 2.305889 1_555
Mn9 Si26 2.420811 1_555
Mn9 Si10 2.420811 1_555
Mn9 Si2 2.518218 1_555
Mn9 Si22 2.518218 1_555
Mn10 Si0 2.319354 1_455
Mn10 Si19 2.319354 1_555
Mn10 Si5 2.339642 1_554
Mn10 Si11 2.339642 1_454
Mn10 Si16 2.403169 1_455
Mn10 Si7 2.403169 1_555
Mn10 Si27 2.439546 1_555
Mn10 Si8 2.439546 1_455
Mn11 Si13 2.269318 1_555
Mn11 Si25 2.269318 1_455
Mn11 Si23 2.289743 1_555
Mn11 Si17 2.289743 1_455
Mn11 Si16 2.516762 1_455
Mn11 Si7 2.516762 1_555
Mn11 Si14 2.564636 1_555
Mn11 Si4 2.564636 1_455
Mn12 Si1 2.362244 1_455
Mn12 Si21 2.362244 1_545
Mn12 Si15 2.362432 1_445
Mn12 Si3 2.362432 1_555
Mn12 Si23 2.379860 1_555
Mn12 Si17 2.379860 1_445
Mn12 Si22 2.380410 1_545
Mn12 Si2 2.380410 1_455
Mn13 Si13 2.269077 1_555
Mn13 Si25 2.269077 1_545
Mn13 Si19 2.289901 1_555
Mn13 Si0 2.289901 1_545
Mn13 Si4 2.516598 1_555
Mn13 Si14 2.516598 1_545
Mn13 Si7 2.564671 1_545
Mn13 Si16 2.564671 1_555
Mn14 Si2 2.319737 1_455
Mn14 Si22 2.319737 1_555
Mn14 Si1 2.339266 1_455
Mn14 Si21 2.339266 1_555
Mn14 Si12 2.403890 1_555
Mn14 Si20 2.403890 1_455
Mn14 Si15 2.439294 1_455
Mn14 Si3 2.439294 1_555
Mn15 Si6 2.283985 1_555
Mn15 Si24 2.283985 1_555
Mn15 Si5 2.305954 1_555
Mn15 Si11 2.305954 1_555
Mn15 Si26 2.420543 1_555
Mn15 Si10 2.420543 1_555
Mn15 Si9 2.518276 1_555
Mn15 Si18 2.518276 1_555
