# generated using pymatgen
data_Ba2NdRuO6
_symmetry_space_group_name_H-M   'P 1'
_cell_length_a   6.06019216
_cell_length_b   6.06019216
_cell_length_c   6.10259241
_cell_angle_alpha   59.98007311
_cell_angle_beta   59.98007311
_cell_angle_gamma   59.96048240
_symmetry_Int_Tables_number   1
_chemical_formula_structural   Ba2NdRuO6
_chemical_formula_sum   'Ba2 Nd1 Ru1 O6'
_cell_volume   158.38406724
_cell_formula_units_Z   1
loop_
 _symmetry_equiv_pos_site_id
 _symmetry_equiv_pos_as_xyz
  1  'x, y, z'
loop_
 _atom_site_type_symbol
 _atom_site_label
 _atom_site_symmetry_multiplicity
 _atom_site_fract_x
 _atom_site_fract_y
 _atom_site_fract_z
 _atom_site_occupancy
  Ba  Ba0  1  0.75140600  0.75140600  0.24607000  1
  Ba  Ba1  1  0.24859400  0.24859400  0.75393000  1
  Nd  Nd0  1  0.00000000  0.00000000  0.50000000  1
  Ru  Ru0  1  0.50000000  0.50000000  0.00000000  1
  O  O0  1  0.27035700  0.27035700  0.27461300  1
  O  O1  1  0.72964300  0.72964300  0.72538700  1
  O  O2  1  0.70773000  0.24492400  0.79477600  1
  O  O3  1  0.75507600  0.29227000  0.20522400  1
  O  O4  1  0.29227000  0.75507600  0.20522400  1
  O  O5  1  0.24492400  0.70773000  0.79477600  1
loop_
_geom_bond_atom_site_label_1
_geom_bond_atom_site_label_2
_geom_bond_distance
_geom_bond_site_symmetry_2
Ba0 O1 2.799330 1_555
Ba0 O2 2.880081 1_564
Ba0 O5 2.880081 1_654
Ba0 O3 2.903645 1_555
Ba0 O4 2.903645 1_555
Ba0 O0 3.046387 1_655
Ba0 O0 3.046387 1_565
Ba0 O4 3.171139 1_655
Ba0 O3 3.171139 1_565
Ba0 O5 3.216558 1_555
Ba0 O2 3.216558 1_555
Ba0 O1 3.314735 1_554
Ba1 O0 2.799330 1_555
Ba1 O4 2.880081 1_546
Ba1 O3 2.880081 1_456
Ba1 O2 2.903645 1_555
Ba1 O5 2.903645 1_555
Ba1 O1 3.046387 1_455
Ba1 O1 3.046387 1_545
Ba1 O5 3.171139 1_545
Ba1 O2 3.171139 1_455
Ba1 O4 3.216558 1_555
Ba1 O3 3.216558 1_555
Ba1 O0 3.314735 1_556
Nd0 O5 2.329752 1_545
Nd0 O3 2.329752 1_455
Nd0 O2 2.329752 1_455
Nd0 O4 2.329752 1_545
Nd0 O1 2.332049 1_445
Nd0 O0 2.332049 1_555
O0 Ru0 1.988418 1_555
O1 Ru0 1.988418 1_556
O2 Ru0 1.988482 1_556
O3 Ru0 1.988482 1_555
O4 Ru0 1.988482 1_555
O5 Ru0 1.988482 1_556
