# generated using pymatgen
data_Li6Mo2O7
_symmetry_space_group_name_H-M   'P 1'
_cell_length_a   5.97398900
_cell_length_b   6.17326600
_cell_length_c   8.51440200
_cell_angle_alpha   90.00000000
_cell_angle_beta   90.00000000
_cell_angle_gamma   90.00000000
_symmetry_Int_Tables_number   1
_chemical_formula_structural   Li6Mo2O7
_chemical_formula_sum   'Li12 Mo4 O14'
_cell_volume   314.00282871
_cell_formula_units_Z   2
loop_
 _symmetry_equiv_pos_site_id
 _symmetry_equiv_pos_as_xyz
  1  'x, y, z'
loop_
 _atom_site_type_symbol
 _atom_site_label
 _atom_site_symmetry_multiplicity
 _atom_site_fract_x
 _atom_site_fract_y
 _atom_site_fract_z
 _atom_site_occupancy
  Li  Li0  1  0.03655700  0.75000000  0.76934300  1
  Li  Li1  1  0.23655100  0.00000000  0.00000000  1
  Li  Li2  1  0.49729600  0.75000000  0.73578500  1
  Li  Li3  1  0.49729600  0.25000000  0.26421500  1
  Li  Li4  1  0.70953500  0.50000000  0.50000000  1
  Li  Li5  1  0.70953500  0.00000000  0.50000000  1
  Li  Li6  1  0.03655700  0.25000000  0.23065700  1
  Li  Li7  1  0.00188500  0.25000000  0.76936700  1
  Li  Li8  1  0.30347700  0.50000000  0.50000000  1
  Li  Li9  1  0.30347700  0.00000000  0.50000000  1
  Li  Li10  1  0.23655100  0.50000000  0.00000000  1
  Li  Li11  1  0.00188500  0.75000000  0.23063300  1
  Mo  Mo0  1  0.75144700  0.00000000  0.00000000  1
  Mo  Mo1  1  0.48006200  0.25000000  0.73779700  1
  Mo  Mo2  1  0.48006200  0.75000000  0.26220300  1
  Mo  Mo3  1  0.75144700  0.50000000  0.00000000  1
  O  O0  1  0.73631000  0.97993200  0.25684900  1
  O  O1  1  0.25921600  0.98479400  0.26714600  1
  O  O2  1  0.25921600  0.01520600  0.73285400  1
  O  O3  1  0.25921600  0.48479400  0.73285400  1
  O  O4  1  0.50490400  0.25000000  0.50572300  1
  O  O5  1  0.49149900  0.25000000  0.98711200  1
  O  O6  1  0.49149900  0.75000000  0.01288800  1
  O  O7  1  0.73631000  0.47993200  0.74315100  1
  O  O8  1  0.73631000  0.52006800  0.25684900  1
  O  O9  1  0.73631000  0.02006800  0.74315100  1
  O  O10  1  0.99573500  0.75000000  0.99632100  1
  O  O11  1  0.99573500  0.25000000  0.00367900  1
  O  O12  1  0.25921600  0.51520600  0.26714600  1
  O  O13  1  0.50490400  0.75000000  0.49427700  1
loop_
_geom_bond_atom_site_label_1
_geom_bond_atom_site_label_2
_geom_bond_distance
_geom_bond_site_symmetry_2
Li0 O10 1.947908 1_455
Li0 O2 2.132191 1_565
Li0 O3 2.132191 1_555
Li0 O9 2.458974 1_465
Li0 O7 2.458974 1_455
Li1 O11 2.110088 1_455
Li1 O10 2.110088 1_444
Li1 O5 2.171075 1_554
Li1 O6 2.171075 1_545
Li1 O2 2.280548 1_554
Li1 O1 2.280548 1_545
Li2 O13 2.056798 1_555
Li2 O2 2.168849 1_565
Li2 O3 2.168849 1_555
Li2 O9 2.195973 1_565
Li2 O7 2.195973 1_555
Li2 O6 2.359620 1_556
Li3 O4 2.056798 1_555
Li3 O12 2.168849 1_555
Li3 O1 2.168849 1_545
Li3 O8 2.195973 1_555
Li3 O0 2.195973 1_545
Li3 O5 2.359620 1_554
Li4 O4 1.969420 1_555
Li4 O13 1.969420 1_555
Li4 O8 2.080148 1_555
Li4 O7 2.080148 1_555
Li5 O4 1.969420 1_555
Li5 O13 1.969420 1_545
Li5 O9 2.080148 1_555
Li5 O0 2.080148 1_545
Li6 O11 1.947908 1_455
Li6 O12 2.132191 1_555
Li6 O1 2.132191 1_545
Li6 O8 2.458974 1_455
Li6 O0 2.458974 1_445
Li7 O11 1.995365 1_456
Li7 O3 2.135606 1_555
Li7 O2 2.135606 1_555
Li7 O7 2.140497 1_455
Li7 O9 2.140497 1_455
Li8 O4 1.957597 1_555
Li8 O13 1.957597 1_555
Li8 O12 2.002368 1_555
Li8 O3 2.002368 1_555
Li9 O4 1.957597 1_555
Li9 O13 1.957597 1_545
Li9 O2 2.002368 1_555
Li9 O1 2.002368 1_545
Li10 O11 2.110088 1_455
Li10 O10 2.110088 1_454
Li10 O5 2.171075 1_554
Li10 O6 2.171075 1_555
Li10 O12 2.280548 1_555
Li10 O3 2.280548 1_554
Li11 O10 1.995365 1_454
Li11 O1 2.135606 1_555
Li11 O12 2.135606 1_555
Li11 O0 2.140497 1_455
Li11 O8 2.140497 1_455
Mo0 O10 2.124283 1_544
Mo0 O11 2.124283 1_555
Mo0 O5 2.192133 1_554
Mo0 O6 2.192133 1_545
Mo0 O9 2.192288 1_554
Mo0 O0 2.192288 1_545
Mo1 O3 1.960434 1_555
Mo1 O2 1.960434 1_555
Mo1 O4 1.981537 1_555
Mo1 O7 2.088129 1_555
Mo1 O9 2.088129 1_555
Mo1 O5 2.123867 1_555
Mo2 O1 1.960434 1_555
Mo2 O12 1.960434 1_555
Mo2 O13 1.981537 1_555
Mo2 O0 2.088129 1_555
Mo2 O8 2.088129 1_555
Mo2 O6 2.123867 1_555
Mo3 O10 2.124283 1_554
Mo3 O11 2.124283 1_555
Mo3 O6 2.192133 1_555
Mo3 O5 2.192133 1_554
Mo3 O8 2.192288 1_555
Mo3 O7 2.192288 1_554
