# generated using pymatgen
data_Eu(ScSe2)2
_symmetry_space_group_name_H-M   'P 1'
_cell_length_a   3.78364300
_cell_length_b   11.48988900
_cell_length_c   13.68668000
_cell_angle_alpha   90.00000000
_cell_angle_beta   90.00000000
_cell_angle_gamma   90.00000000
_symmetry_Int_Tables_number   1
_chemical_formula_structural   Eu(ScSe2)2
_chemical_formula_sum   'Eu4 Sc8 Se16'
_cell_volume   595.00977291
_cell_formula_units_Z   4
loop_
 _symmetry_equiv_pos_site_id
 _symmetry_equiv_pos_as_xyz
  1  'x, y, z'
loop_
 _atom_site_type_symbol
 _atom_site_label
 _atom_site_symmetry_multiplicity
 _atom_site_fract_x
 _atom_site_fract_y
 _atom_site_fract_z
 _atom_site_occupancy
  Eu  Eu0  1  0.25000000  0.23829000  0.33167900  1
  Eu  Eu1  1  0.75000000  0.26171000  0.83167900  1
  Eu  Eu2  1  0.25000000  0.73829000  0.16832100  1
  Eu  Eu3  1  0.75000000  0.76171000  0.66832100  1
  Sc  Sc0  1  0.25000000  0.08351800  0.59677700  1
  Sc  Sc1  1  0.25000000  0.05884600  0.11060200  1
  Sc  Sc2  1  0.75000000  0.41648200  0.09677700  1
  Sc  Sc3  1  0.75000000  0.94115400  0.88939800  1
  Sc  Sc4  1  0.75000000  0.44115400  0.61060200  1
  Sc  Sc5  1  0.25000000  0.55884600  0.38939800  1
  Sc  Sc6  1  0.75000000  0.91648200  0.40322300  1
  Sc  Sc7  1  0.25000000  0.58351800  0.90322300  1
  Se  Se0  1  0.25000000  0.87116500  0.53101600  1
  Se  Se1  1  0.25000000  0.79556900  0.83744700  1
  Se  Se2  1  0.25000000  0.97197300  0.28357700  1
  Se  Se3  1  0.75000000  0.40534400  0.42332400  1
  Se  Se4  1  0.25000000  0.47197300  0.21642300  1
  Se  Se5  1  0.25000000  0.09465600  0.92332400  1
  Se  Se6  1  0.75000000  0.20443100  0.16255300  1
  Se  Se7  1  0.75000000  0.02802700  0.71642300  1
  Se  Se8  1  0.25000000  0.59465600  0.57667600  1
  Se  Se9  1  0.75000000  0.70443100  0.33744700  1
  Se  Se10  1  0.25000000  0.29556900  0.66255300  1
  Se  Se11  1  0.25000000  0.37116500  0.96898400  1
  Se  Se12  1  0.75000000  0.62883500  0.03101600  1
  Se  Se13  1  0.75000000  0.52802700  0.78357700  1
  Se  Se14  1  0.75000000  0.12883500  0.46898400  1
  Se  Se15  1  0.75000000  0.90534400  0.07667600  1
loop_
_geom_bond_atom_site_label_1
_geom_bond_atom_site_label_2
_geom_bond_distance
_geom_bond_site_symmetry_2
Eu0 Se14 2.948252 1_555
Eu0 Se14 2.948252 1_455
Eu0 Se3 2.972628 1_455
Eu0 Se3 2.972628 1_555
Eu0 Se6 3.014716 1_455
Eu0 Se6 3.014716 1_555
Eu0 Se4 3.114097 1_555
Eu0 Se2 3.129975 1_545
Eu1 Se11 2.948252 1_555
Eu1 Se11 2.948252 1_655
Eu1 Se5 2.972628 1_655
Eu1 Se5 2.972628 1_555
Eu1 Se10 3.014716 1_655
Eu1 Se10 3.014716 1_555
Eu1 Se7 3.114097 1_555
Eu1 Se13 3.129975 1_555
Eu2 Se12 2.948252 1_455
Eu2 Se12 2.948252 1_555
Eu2 Se15 2.972628 1_455
Eu2 Se15 2.972628 1_555
Eu2 Se9 3.014716 1_455
Eu2 Se9 3.014716 1_555
Eu2 Se2 3.114097 1_555
Eu2 Se4 3.129975 1_555
Eu3 Se0 2.948252 1_555
Eu3 Se0 2.948252 1_655
Eu3 Se8 2.972628 1_555
Eu3 Se8 2.972628 1_655
Eu3 Se1 3.014716 1_555
Eu3 Se1 3.014716 1_655
Eu3 Se13 3.114097 1_555
Eu3 Se7 3.129975 1_565
Sc0 Se7 2.582072 1_555
Sc0 Se7 2.582072 1_455
Sc0 Se10 2.597443 1_555
Sc0 Se0 2.600627 1_545
Sc0 Se14 2.628559 1_455
Sc0 Se14 2.628559 1_555
Sc1 Se2 2.569273 1_545
Sc1 Se5 2.596028 1_554
Sc1 Se6 2.623485 1_555
Sc1 Se6 2.623485 1_455
Sc1 Se15 2.627795 1_445
Sc1 Se15 2.627795 1_545
Sc2 Se4 2.582072 1_655
Sc2 Se4 2.582072 1_555
Sc2 Se6 2.597443 1_555
Sc2 Se12 2.600627 1_555
Sc2 Se11 2.628559 1_654
Sc2 Se11 2.628559 1_554
Sc3 Se7 2.569273 1_565
Sc3 Se15 2.596028 1_556
Sc3 Se1 2.623485 1_555
Sc3 Se1 2.623485 1_655
Sc3 Se5 2.627795 1_565
Sc3 Se5 2.627795 1_665
Sc4 Se13 2.569273 1_555
Sc4 Se3 2.596028 1_555
Sc4 Se10 2.623485 1_555
Sc4 Se10 2.623485 1_655
Sc4 Se8 2.627795 1_555
Sc4 Se8 2.627795 1_655
Sc5 Se4 2.569273 1_555
Sc5 Se8 2.596028 1_555
Sc5 Se9 2.623485 1_455
Sc5 Se9 2.623485 1_555
Sc5 Se3 2.627795 1_455
Sc5 Se3 2.627795 1_555
Sc6 Se2 2.582072 1_655
Sc6 Se2 2.582072 1_555
Sc6 Se9 2.597443 1_555
Sc6 Se14 2.600627 1_565
Sc6 Se0 2.628559 1_655
Sc6 Se0 2.628559 1_555
Sc7 Se13 2.582072 1_455
Sc7 Se13 2.582072 1_555
Sc7 Se1 2.597443 1_555
Sc7 Se11 2.600627 1_555
Sc7 Se12 2.628559 1_556
Sc7 Se12 2.628559 1_456
