# generated using pymatgen
data_KTeOF3
_symmetry_space_group_name_H-M   'P 1'
_cell_length_a   5.88834000
_cell_length_b   5.47863200
_cell_length_c   8.14459453
_cell_angle_alpha   71.75819409
_cell_angle_beta   90.00000000
_cell_angle_gamma   90.00000000
_symmetry_Int_Tables_number   1
_chemical_formula_structural   KTeOF3
_chemical_formula_sum   'K2 Te2 O2 F6'
_cell_volume   249.54047145
_cell_formula_units_Z   2
loop_
 _symmetry_equiv_pos_site_id
 _symmetry_equiv_pos_as_xyz
  1  'x, y, z'
loop_
 _atom_site_type_symbol
 _atom_site_label
 _atom_site_symmetry_multiplicity
 _atom_site_fract_x
 _atom_site_fract_y
 _atom_site_fract_z
 _atom_site_occupancy
  K  K0  1  0.59838600  0.32274200  0.30891100  1
  K  K1  1  0.09838600  0.67725800  0.69108900  1
  Te  Te0  1  0.11785500  0.85920100  0.20625300  1
  Te  Te1  1  0.61785500  0.14079900  0.79374700  1
  O  O0  1  0.21199100  0.58678800  0.38391000  1
  O  O1  1  0.71199100  0.41321200  0.61609000  1
  F  F0  1  0.15182400  0.65643300  0.03705700  1
  F  F1  1  0.29325600  0.20841700  0.81451800  1
  F  F2  1  0.79325600  0.79158300  0.18548200  1
  F  F3  1  0.49368800  0.95963400  0.62699600  1
  F  F4  1  0.99368800  0.04036600  0.37300400  1
  F  F5  1  0.65182400  0.34356700  0.96294300  1
loop_
_geom_bond_atom_site_label_1
_geom_bond_atom_site_label_2
_geom_bond_distance
_geom_bond_site_symmetry_2
K0 O1 2.780061 1_555
K0 O0 2.862807 1_555
K1 O0 2.780061 1_555
K1 O1 2.862807 1_455
O0 Te0 1.810068 1_555
O1 Te1 1.810068 1_555
F0 Te0 2.032598 1_555
F0 K1 2.801889 1_554
F1 Te1 1.964267 1_555
F1 K1 2.703408 1_555
F2 Te0 1.964267 1_655
F2 K0 2.703408 1_555
F3 Te1 2.051363 1_565
F3 K1 2.752869 1_555
F3 K0 2.796890 1_565
F4 Te0 2.051363 1_645
F4 K0 2.752869 1_555
F4 K1 2.796890 1_645
F5 Te1 2.032598 1_555
F5 K0 2.801889 1_556
