# generated using pymatgen
data_Zr2CoH5
_symmetry_space_group_name_H-M   'P 1'
_cell_length_a   6.93140200
_cell_length_b   6.93140200
_cell_length_c   5.69157400
_cell_angle_alpha   90.00000000
_cell_angle_beta   90.00000000
_cell_angle_gamma   90.00000000
_symmetry_Int_Tables_number   1
_chemical_formula_structural   Zr2CoH5
_chemical_formula_sum   'Zr8 Co4 H20'
_cell_volume   273.44788045
_cell_formula_units_Z   4
loop_
 _symmetry_equiv_pos_site_id
 _symmetry_equiv_pos_as_xyz
  1  'x, y, z'
loop_
 _atom_site_type_symbol
 _atom_site_label
 _atom_site_symmetry_multiplicity
 _atom_site_fract_x
 _atom_site_fract_y
 _atom_site_fract_z
 _atom_site_occupancy
  Zr  Zr0  1  0.66142200  0.33857800  0.25000000  1
  Zr  Zr1  1  0.66142200  0.66142200  0.75000000  1
  Zr  Zr2  1  0.33857800  0.33857800  0.75000000  1
  Zr  Zr3  1  0.33857800  0.66142200  0.25000000  1
  Zr  Zr4  1  0.83857800  0.16142200  0.75000000  1
  Zr  Zr5  1  0.83857800  0.83857800  0.25000000  1
  Zr  Zr6  1  0.16142200  0.16142200  0.25000000  1
  Zr  Zr7  1  0.16142200  0.83857800  0.75000000  1
  Co  Co0  1  0.50000000  0.00000000  0.49032100  1
  Co  Co1  1  0.50000000  0.00000000  0.99032100  1
  Co  Co2  1  0.00000000  0.50000000  0.50967900  1
  Co  Co3  1  0.00000000  0.50000000  0.00967900  1
  H  H0  1  0.00000000  0.00000000  0.50000000  1
  H  H1  1  0.00000000  0.00000000  0.00000000  1
  H  H2  1  0.50000000  0.50000000  0.00000000  1
  H  H3  1  0.50000000  0.50000000  0.50000000  1
  H  H4  1  0.28639800  0.91608600  0.42799700  1
  H  H5  1  0.28639800  0.08391400  0.92799700  1
  H  H6  1  0.71360200  0.91608600  0.92799700  1
  H  H7  1  0.71360200  0.08391400  0.42799700  1
  H  H8  1  0.41608600  0.78639800  0.92799700  1
  H  H9  1  0.41608600  0.21360200  0.42799700  1
  H  H10  1  0.58391400  0.78639800  0.42799700  1
  H  H11  1  0.58391400  0.21360200  0.92799700  1
  H  H12  1  0.21360200  0.58391400  0.57200300  1
  H  H13  1  0.21360200  0.41608600  0.07200300  1
  H  H14  1  0.78639800  0.58391400  0.07200300  1
  H  H15  1  0.78639800  0.41608600  0.57200300  1
  H  H16  1  0.08391400  0.71360200  0.07200300  1
  H  H17  1  0.08391400  0.28639800  0.57200300  1
  H  H18  1  0.91608600  0.71360200  0.57200300  1
  H  H19  1  0.91608600  0.28639800  0.07200300  1
loop_
_geom_bond_atom_site_label_1
_geom_bond_atom_site_label_2
_geom_bond_distance
_geom_bond_site_symmetry_2
Co0 H7 1.629784 1_555
Co0 H4 1.629784 1_545
Co0 H9 1.629784 1_555
Co0 H10 1.629784 1_545
Co1 H11 1.629784 1_555
Co1 H6 1.629784 1_545
Co1 H5 1.629784 1_555
Co1 H8 1.629784 1_545
Co2 H12 1.629784 1_555
Co2 H18 1.629784 1_455
Co2 H17 1.629784 1_555
Co2 H15 1.629784 1_455
Co3 H16 1.629784 1_555
Co3 H19 1.629784 1_455
Co3 H13 1.629784 1_555
Co3 H14 1.629784 1_455
H0 Zr6 2.128007 1_555
H0 Zr7 2.128007 1_545
H0 Zr4 2.128007 1_455
H0 Zr5 2.128007 1_445
H1 Zr6 2.128007 1_555
H1 Zr7 2.128007 1_544
H1 Zr4 2.128007 1_454
H1 Zr5 2.128007 1_445
H2 Zr1 2.128007 1_554
H2 Zr3 2.128007 1_555
H2 Zr0 2.128007 1_555
H2 Zr2 2.128007 1_554
H3 Zr1 2.128007 1_555
H3 Zr3 2.128007 1_555
H3 Zr0 2.128007 1_555
H3 Zr2 2.128007 1_555
H4 Zr3 2.067125 1_555
H4 Zr7 2.097101 1_555
H4 Zr6 2.160675 1_565
H5 Zr2 2.067125 1_555
H5 Zr6 2.097101 1_556
H5 Zr7 2.160675 1_545
H6 Zr1 2.067125 1_555
H6 Zr5 2.097101 1_556
H6 Zr4 2.160675 1_565
H7 Zr0 2.067125 1_555
H7 Zr4 2.097101 1_555
H7 Zr5 2.160675 1_545
H8 Zr7 2.067125 1_555
H8 Zr3 2.097101 1_556
H8 Zr1 2.160675 1_555
H9 Zr6 2.067125 1_555
H9 Zr2 2.097101 1_555
H9 Zr0 2.160675 1_555
H10 Zr5 2.067125 1_555
H10 Zr1 2.097101 1_555
H10 Zr3 2.160675 1_555
H11 Zr4 2.067125 1_555
H11 Zr0 2.097101 1_556
H11 Zr2 2.160675 1_555
H12 Zr7 2.067125 1_555
H12 Zr3 2.097101 1_555
H12 Zr2 2.160675 1_555
H13 Zr6 2.067125 1_555
H13 Zr2 2.097101 1_554
H13 Zr3 2.160675 1_555
H14 Zr5 2.067125 1_555
H14 Zr1 2.097101 1_554
H14 Zr0 2.160675 1_555
H15 Zr4 2.067125 1_555
H15 Zr0 2.097101 1_555
H15 Zr1 2.160675 1_555
H16 Zr3 2.067125 1_555
H16 Zr7 2.097101 1_554
H16 Zr5 2.160675 1_455
H17 Zr2 2.067125 1_555
H17 Zr6 2.097101 1_555
H17 Zr4 2.160675 1_455
H18 Zr1 2.067125 1_555
H18 Zr5 2.097101 1_555
H18 Zr7 2.160675 1_655
H19 Zr0 2.067125 1_555
H19 Zr4 2.097101 1_554
H19 Zr6 2.160675 1_655
