# generated using pymatgen
data_CuH12(IN)4
_symmetry_space_group_name_H-M   'P 1'
_cell_length_a   7.53999986
_cell_length_b   7.53999986
_cell_length_c   6.64450315
_cell_angle_alpha   73.50047478
_cell_angle_beta   73.50047478
_cell_angle_gamma   74.58986578
_symmetry_Int_Tables_number   1
_chemical_formula_structural   CuH12(IN)4
_chemical_formula_sum   'Cu1 H12 I4 N4'
_cell_volume   340.17194925
_cell_formula_units_Z   1
loop_
 _symmetry_equiv_pos_site_id
 _symmetry_equiv_pos_as_xyz
  1  'x, y, z'
loop_
 _atom_site_type_symbol
 _atom_site_label
 _atom_site_symmetry_multiplicity
 _atom_site_fract_x
 _atom_site_fract_y
 _atom_site_fract_z
 _atom_site_occupancy
  Cu  Cu0  1  0.50000000  0.50000000  0.00000000  1
  H  H0  1  0.51848000  0.26291600  0.36673400  1
  H  H1  1  0.26291600  0.51848000  0.36673400  1
  H  H2  1  0.48152000  0.73708400  0.63326600  1
  H  H3  1  0.73708400  0.48152000  0.63326600  1
  H  H4  1  0.50715400  0.14856900  0.19370500  1
  H  H5  1  0.14856900  0.50715400  0.19370500  1
  H  H6  1  0.49284600  0.85143100  0.80629500  1
  H  H7  1  0.85143100  0.49284600  0.80629500  1
  H  H8  1  0.70977400  0.19829300  0.18784700  1
  H  H9  1  0.19829300  0.70977400  0.18784700  1
  H  H10  1  0.29022600  0.80170700  0.81215300  1
  H  H11  1  0.80170700  0.29022600  0.81215300  1
  I  I0  1  0.08857700  0.08857700  0.28103700  1
  I  I1  1  0.91142300  0.91142300  0.71896300  1
  I  I2  1  0.29391300  0.29391300  0.78499100  1
  I  I3  1  0.70608700  0.70608700  0.21500900  1
  N  N0  1  0.56690100  0.25010100  0.20991200  1
  N  N1  1  0.25010100  0.56690100  0.20991200  1
  N  N2  1  0.43309900  0.74989900  0.79008800  1
  N  N3  1  0.74989900  0.43309900  0.79008800  1
loop_
_geom_bond_atom_site_label_1
_geom_bond_atom_site_label_2
_geom_bond_distance
_geom_bond_site_symmetry_2
Cu0 N1 2.037619 1_555
Cu0 N3 2.037619 1_554
Cu0 N0 2.037619 1_555
Cu0 N2 2.037619 1_554
Cu0 I3 3.267311 1_555
Cu0 I2 3.267311 1_554
H0 N0 1.025063 1_555
H1 N1 1.025063 1_555
H2 N2 1.025063 1_555
H3 N3 1.025063 1_555
H4 N0 1.028726 1_555
H5 N1 1.028726 1_555
H6 N2 1.028726 1_555
H7 N3 1.028726 1_555
H8 N0 1.026528 1_555
H9 N1 1.026528 1_555
H10 N2 1.026528 1_555
H11 N3 1.026528 1_555
I0 I2 3.336816 1_554
I1 I3 3.336816 1_556
