# generated using pymatgen
data_CrSb2H12(C2O)4
_symmetry_space_group_name_H-M   'P 1'
_cell_length_a   8.80034989
_cell_length_b   8.80034989
_cell_length_c   10.33900375
_cell_angle_alpha   69.41717400
_cell_angle_beta   69.41717400
_cell_angle_gamma   81.70636448
_symmetry_Int_Tables_number   1
_chemical_formula_structural   CrSb2H12(C2O)4
_chemical_formula_sum   'Cr2 Sb4 H24 C16 O8'
_cell_volume   701.55662502
_cell_formula_units_Z   2
loop_
 _symmetry_equiv_pos_site_id
 _symmetry_equiv_pos_as_xyz
  1  'x, y, z'
loop_
 _atom_site_type_symbol
 _atom_site_label
 _atom_site_symmetry_multiplicity
 _atom_site_fract_x
 _atom_site_fract_y
 _atom_site_fract_z
 _atom_site_occupancy
  Cr  Cr0  1  0.21137900  0.21137900  0.19126700  1
  Cr  Cr1  1  0.78862100  0.78862100  0.80873300  1
  Sb  Sb0  1  0.89798400  0.22236100  0.34296600  1
  Sb  Sb1  1  0.22236100  0.89798400  0.34296600  1
  Sb  Sb2  1  0.10201600  0.77763900  0.65703400  1
  Sb  Sb3  1  0.77763900  0.10201600  0.65703400  1
  H  H0  1  0.84686600  0.54591800  0.21153800  1
  H  H1  1  0.54591800  0.84686600  0.21153800  1
  H  H2  1  0.15313400  0.45408200  0.78846200  1
  H  H3  1  0.45408200  0.15313400  0.78846200  1
  H  H4  1  0.65430800  0.45138000  0.31399400  1
  H  H5  1  0.45138000  0.65430800  0.31399400  1
  H  H6  1  0.34569200  0.54862000  0.68600600  1
  H  H7  1  0.54862000  0.34569200  0.68600600  1
  H  H8  1  0.76897100  0.50183500  0.40538500  1
  H  H9  1  0.50183500  0.76897100  0.40538500  1
  H  H10  1  0.23102900  0.49816500  0.59461500  1
  H  H11  1  0.49816500  0.23102900  0.59461500  1
  H  H12  1  0.74487300  0.13729600  0.19095600  1
  H  H13  1  0.13729600  0.74487300  0.19095600  1
  H  H14  1  0.25512700  0.86270400  0.80904400  1
  H  H15  1  0.86270400  0.25512700  0.80904400  1
  H  H16  1  0.75279300  0.96552800  0.34618900  1
  H  H17  1  0.96552800  0.75279300  0.34618900  1
  H  H18  1  0.24720700  0.03447200  0.65381100  1
  H  H19  1  0.03447200  0.24720700  0.65381100  1
  H  H20  1  0.60364200  0.12444900  0.36827300  1
  H  H21  1  0.12444900  0.60364200  0.36827300  1
  H  H22  1  0.39635800  0.87555100  0.63172700  1
  H  H23  1  0.87555100  0.39635800  0.63172700  1
  C  C0  1  0.15246100  0.15246100  0.05549500  1
  C  C1  1  0.84753900  0.84753900  0.94450500  1
  C  C2  1  0.19517700  0.42727100  0.08306100  1
  C  C3  1  0.42727100  0.19517700  0.08306100  1
  C  C4  1  0.80482300  0.57272900  0.91693900  1
  C  C5  1  0.57272900  0.80482300  0.91693900  1
  C  C6  1  0.27253900  0.27253900  0.32319600  1
  C  C7  1  0.72746100  0.72746100  0.67680400  1
  C  C8  1  0.77682600  0.46003200  0.31509700  1
  C  C9  1  0.46003200  0.77682600  0.31509700  1
  C  C10  1  0.22317400  0.53996800  0.68490300  1
  C  C11  1  0.53996800  0.22317400  0.68490300  1
  C  C12  1  0.72847800  0.09656000  0.30799800  1
  C  C13  1  0.09656000  0.72847800  0.30799800  1
  C  C14  1  0.27152200  0.90344000  0.69200200  1
  C  C15  1  0.90344000  0.27152200  0.69200200  1
  O  O0  1  0.12332200  0.12332200  0.96477600  1
  O  O1  1  0.87667800  0.87667800  0.03522400  1
  O  O2  1  0.18460400  0.56388200  0.01284300  1
  O  O3  1  0.56388200  0.18460400  0.01284300  1
  O  O4  1  0.81539600  0.43611800  0.98715700  1
  O  O5  1  0.43611800  0.81539600  0.98715700  1
  O  O6  1  0.31620800  0.31620800  0.39953800  1
  O  O7  1  0.68379200  0.68379200  0.60046200  1
loop_
_geom_bond_atom_site_label_1
_geom_bond_atom_site_label_2
_geom_bond_distance
_geom_bond_site_symmetry_2
Cr0 Sb1 2.657812 1_545
Cr0 Sb0 2.657812 1_455
Cr1 Sb2 2.657812 1_655
Cr1 Sb3 2.657812 1_565
C0 O0 1.169810 1_554
C0 Cr0 1.899808 1_555
C1 O1 1.169810 1_556
C1 Cr1 1.899808 1_555
C2 O2 1.175839 1_555
C2 Cr0 1.849630 1_555
C3 O3 1.175839 1_555
C3 Cr0 1.849630 1_555
C4 O4 1.175839 1_555
C4 Cr1 1.849630 1_555
C5 O5 1.175839 1_555
C5 Cr1 1.849630 1_555
C6 O6 1.177937 1_555
C6 Cr0 1.885706 1_555
C7 O7 1.177937 1_555
C7 Cr1 1.885706 1_555
C8 H0 1.094966 1_555
C8 H8 1.095567 1_555
C8 H4 1.096077 1_555
C8 Sb0 2.177960 1_555
C9 H1 1.094966 1_555
C9 H9 1.095567 1_555
C9 H5 1.096077 1_555
C9 Sb1 2.177960 1_555
C10 H2 1.094966 1_555
C10 H10 1.095567 1_555
C10 H6 1.096077 1_555
C10 Sb2 2.177960 1_555
C11 H3 1.094966 1_555
C11 H11 1.095567 1_555
C11 H7 1.096077 1_555
C11 Sb3 2.177960 1_555
C12 H16 1.095208 1_545
C12 H12 1.095814 1_555
C12 H20 1.097222 1_555
C12 Sb0 2.172240 1_555
C13 H17 1.095208 1_455
C13 H13 1.095814 1_555
C13 H21 1.097222 1_555
C13 Sb1 2.172240 1_555
C14 H18 1.095208 1_565
C14 H14 1.095814 1_555
C14 H22 1.097222 1_555
C14 Sb2 2.172240 1_555
C15 H19 1.095208 1_655
C15 H15 1.095814 1_555
C15 H23 1.097222 1_555
C15 Sb3 2.172240 1_555
