# generated using pymatgen
data_VS2
_symmetry_space_group_name_H-M   'P 1'
_cell_length_a   5.10604800
_cell_length_b   5.16375335
_cell_length_c   47.15199408
_cell_angle_alpha   86.93111550
_cell_angle_beta   87.06042534
_cell_angle_gamma   60.91683643
_symmetry_Int_Tables_number   1
_chemical_formula_structural   VS2
_chemical_formula_sum   'V8 S16'
_cell_volume   1084.46215750
_cell_formula_units_Z   8
loop_
 _symmetry_equiv_pos_site_id
 _symmetry_equiv_pos_as_xyz
  1  'x, y, z'
loop_
 _atom_site_type_symbol
 _atom_site_label
 _atom_site_symmetry_multiplicity
 _atom_site_fract_x
 _atom_site_fract_y
 _atom_site_fract_z
 _atom_site_occupancy
  V  V0_0  1  0.24601400  0.24640450  0.25011550  1
  V  V0_1  1  0.24601400  0.24640450  0.75011550  1
  V  V0_2  1  0.24601400  0.74640450  0.25011550  1
  V  V0_3  1  0.24601400  0.74640450  0.75011550  1
  V  V0_4  1  0.74601400  0.24640450  0.25011550  1
  V  V0_5  1  0.74601400  0.24640450  0.75011550  1
  V  V0_6  1  0.74601400  0.74640450  0.25011550  1
  V  V0_7  1  0.74601400  0.74640450  0.75011550  1
  S  S0_0  1  0.47198950  0.23330900  0.09467100  1
  S  S0_1  1  0.47198950  0.23330900  0.59467100  1
  S  S0_2  1  0.47198950  0.73330900  0.09467100  1
  S  S0_3  1  0.47198950  0.73330900  0.59467100  1
  S  S0_4  1  0.97198950  0.23330900  0.09467100  1
  S  S0_5  1  0.97198950  0.23330900  0.59467100  1
  S  S0_6  1  0.97198950  0.73330900  0.09467100  1
  S  S0_7  1  0.97198950  0.73330900  0.59467100  1
  S  S1_0  1  0.03684400  0.28699100  0.40417500  1
  S  S1_1  1  0.03684400  0.28699100  0.90417500  1
  S  S1_2  1  0.03684400  0.78699100  0.40417500  1
  S  S1_3  1  0.03684400  0.78699100  0.90417500  1
  S  S1_4  1  0.53684400  0.28699100  0.40417500  1
  S  S1_5  1  0.53684400  0.28699100  0.90417500  1
  S  S1_6  1  0.53684400  0.78699100  0.40417500  1
  S  S1_7  1  0.53684400  0.78699100  0.90417500  1
loop_
_geom_bond_atom_site_label_1
_geom_bond_atom_site_label_2
_geom_bond_distance
_geom_bond_site_symmetry_2
V0_0 V0_4 2.553024 1_455
V0_0 V0_4 2.553024 1_555
V0_0 V0_2 2.581877 1_545
V0_0 V0_2 2.581877 1_555
V0_0 V0_6 2.603066 1_545
V0_0 V0_6 2.603066 1_455
V0_1 V0_5 2.553024 1_555
V0_1 V0_5 2.553024 1_455
V0_1 V0_3 2.581877 1_555
V0_1 V0_3 2.581877 1_545
V0_1 V0_7 2.603066 1_455
V0_1 V0_7 2.603066 1_545
V0_2 V0_6 2.553024 1_555
V0_2 V0_6 2.553024 1_455
V0_2 V0_4 2.603066 1_465
V0_2 V0_4 2.603066 1_555
V0_3 V0_7 2.553024 1_555
V0_3 V0_7 2.553024 1_455
V0_3 V0_5 2.603066 1_555
V0_3 V0_5 2.603066 1_465
V0_4 V0_6 2.581877 1_555
V0_4 V0_6 2.581877 1_545
V0_5 V0_7 2.581877 1_555
V0_5 V0_7 2.581877 1_545
S0_0 S0_4 2.553024 1_455
S0_0 S0_4 2.553024 1_555
S0_0 S0_2 2.581877 1_555
S0_0 S0_2 2.581877 1_545
S0_0 S0_6 2.603066 1_455
S0_0 S0_6 2.603066 1_545
S0_1 S0_5 2.553024 1_455
S0_1 S0_5 2.553024 1_555
S0_1 S0_3 2.581877 1_545
S0_1 S0_3 2.581877 1_555
S0_1 S0_7 2.603066 1_455
S0_1 S0_7 2.603066 1_545
S0_2 S0_6 2.553024 1_555
S0_2 S0_6 2.553024 1_455
S0_2 S0_4 2.603066 1_465
S0_2 S0_4 2.603066 1_555
S0_3 S0_7 2.553024 1_455
S0_3 S0_7 2.553024 1_555
S0_3 S0_5 2.603066 1_555
S0_3 S0_5 2.603066 1_465
S0_4 S0_6 2.581877 1_555
S0_4 S0_6 2.581877 1_545
S0_5 S0_7 2.581877 1_545
S0_5 S0_7 2.581877 1_555
S1_0 S1_4 2.553024 1_555
S1_0 S1_4 2.553024 1_455
S1_0 S1_2 2.581877 1_555
S1_0 S1_2 2.581877 1_545
S1_0 S1_6 2.603066 1_545
S1_0 S1_6 2.603066 1_455
S1_1 S1_5 2.553024 1_455
S1_1 S1_5 2.553024 1_555
S1_1 S1_3 2.581877 1_555
S1_1 S1_3 2.581877 1_545
S1_1 S1_7 2.603066 1_455
S1_1 S1_7 2.603066 1_545
S1_2 S1_6 2.553024 1_555
S1_2 S1_6 2.553024 1_455
S1_2 S1_4 2.603066 1_555
S1_2 S1_4 2.603066 1_465
S1_3 S1_7 2.553024 1_455
S1_3 S1_7 2.553024 1_555
S1_3 S1_5 2.603066 1_555
S1_3 S1_5 2.603066 1_465
S1_4 S1_6 2.581877 1_555
S1_4 S1_6 2.581877 1_545
S1_5 S1_7 2.581877 1_555
S1_5 S1_7 2.581877 1_545
