# generated using pymatgen
data_In11(SbO8)3
_symmetry_space_group_name_H-M   'P 1'
_cell_length_a   8.06903356
_cell_length_b   8.10192266
_cell_length_c   8.15466886
_cell_angle_alpha   71.06682827
_cell_angle_beta   72.12099357
_cell_angle_gamma   72.24559463
_symmetry_Int_Tables_number   1
_chemical_formula_structural   In11(SbO8)3
_chemical_formula_sum   'In11 Sb3 O24'
_cell_volume   467.26421207
_cell_formula_units_Z   1
loop_
 _symmetry_equiv_pos_site_id
 _symmetry_equiv_pos_as_xyz
  1  'x, y, z'
loop_
 _atom_site_type_symbol
 _atom_site_label
 _atom_site_symmetry_multiplicity
 _atom_site_fract_x
 _atom_site_fract_y
 _atom_site_fract_z
 _atom_site_occupancy
  In  In0  1  0.39168424  0.91640613  0.21980544  1
  In  In1  1  0.71358191  0.88861751  0.42826376  1
  In  In2  1  0.42215027  0.71979123  0.89120357  1
  In  In3  1  0.07216544  0.79014351  0.60833470  1
  In  In4  1  0.88714890  0.41797272  0.71491683  1
  In  In5  1  0.78214117  0.61452455  0.07585908  1
  In  In6  1  0.10766912  0.58075853  0.29124304  1
  In  In7  1  0.92207716  0.21247785  0.39179069  1
  In  In8  1  0.58943646  0.28398724  0.10659097  1
  In  In9  1  0.28889731  0.10766847  0.56191044  1
  In  In10  1  0.60766625  0.08246675  0.77857962  1
  Sb  Sb0  1  0.00233073  0.99936562  0.00262313  1
  Sb  Sb1  1  0.49947039  0.49403134  0.49941071  1
  Sb  Sb2  1  0.20816001  0.39675627  0.93584677  1
  O  O0  1  0.13054639  0.92336226  0.77986558  1
  O  O1  1  0.58304749  0.71691473  0.37894910  1
  O  O2  1  0.50160481  0.91339287  0.66922952  1
  O  O3  1  0.22160068  0.86449718  0.08841318  1
  O  O4  1  0.82534552  0.99490381  0.58583420  1
  O  O5  1  0.91636024  0.67047758  0.51218383  1
  O  O6  1  0.58188376  0.83794918  0.99656404  1
  O  O7  1  0.67486551  0.51087707  0.91434936  1
  O  O8  1  0.28033270  0.63357526  0.41558587  1
  O  O9  1  0.01280326  0.58160164  0.83489853  1
  O  O10  1  0.63671304  0.41772544  0.27618394  1
  O  O11  1  0.91657326  0.77394606  0.13339945  1
  O  O12  1  0.09030981  0.23521031  0.88040591  1
  O  O13  1  0.36435665  0.55770197  0.73732879  1
  O  O14  1  0.01451419  0.40485529  0.16043835  1
  O  O15  1  0.71614723  0.36069477  0.58941666  1
  O  O16  1  0.31378510  0.49759681  0.07742510  1
  O  O17  1  0.40383397  0.19148870  0.99163342  1
  O  O18  1  0.07853230  0.32702163  0.49522971  1
  O  O19  1  0.17333576  0.00315828  0.41288588  1
  O  O20  1  0.78568513  0.14034108  0.90867554  1
  O  O21  1  0.49985751  0.08195313  0.31437936  1
  O  O22  1  0.41504650  0.27267086  0.62045389  1
  O  O23  1  0.86833884  0.08311537  0.21988904  1
loop_
_geom_bond_atom_site_label_1
_geom_bond_atom_site_label_2
_geom_bond_distance
_geom_bond_site_symmetry_2
In0 O19 2.082506 1_565
In0 O6 2.124611 1_554
In0 O3 2.180765 1_555
In0 O21 2.225797 1_565
In0 O1 2.242322 1_555
In0 O17 2.401876 1_564
In0 O8 2.570579 1_555
In1 O5 2.099556 1_555
In1 O21 2.163803 1_565
In1 O1 2.173267 1_555
In1 O2 2.193167 1_555
In1 O23 2.255991 1_565
In1 O4 2.260319 1_555
In2 O2 2.050896 1_555
In2 O16 2.163806 1_556
In2 O7 2.232211 1_555
In2 O3 2.246769 1_556
In2 O6 2.298278 1_555
In2 O13 2.306231 1_555
In2 O0 2.655974 1_555
In3 O9 2.102876 1_555
In3 O19 2.111994 1_565
In3 O4 2.182681 1_455
In3 O5 2.230972 1_455
In3 O0 2.244514 1_555
In3 O8 2.296600 1_555
In4 O7 2.107866 1_555
In4 O18 2.145023 1_655
In4 O15 2.175408 1_555
In4 O5 2.198624 1_555
In4 O12 2.298329 1_655
In4 O9 2.452224 1_655
In4 O20 2.499779 1_555
In5 O6 2.098574 1_554
In5 O11 2.150674 1_555
In5 O10 2.204925 1_555
In5 O14 2.228969 1_655
In5 O7 2.247250 1_554
In5 O9 2.277738 1_654
In6 O16 2.135089 1_555
In6 O5 2.148312 1_455
In6 O8 2.159845 1_555
In6 O18 2.209974 1_555
In6 O11 2.218927 1_455
In6 O14 2.421977 1_555
In6 O3 2.598716 1_555
In7 O14 2.117006 1_655
In7 O4 2.119228 1_545
In7 O23 2.203487 1_555
In7 O19 2.223502 1_655
In7 O18 2.245630 1_655
In7 O15 2.279240 1_555
In7 O10 2.633696 1_555
In8 O21 2.059762 1_555
In8 O7 2.133334 1_554
In8 O10 2.186468 1_555
In8 O20 2.234392 1_554
In8 O17 2.384482 1_554
In8 O16 2.389357 1_555
In8 O23 2.575670 1_555
In9 O18 2.105994 1_555
In9 O2 2.137759 1_545
In9 O22 2.143269 1_555
In9 O19 2.215478 1_555
In9 O21 2.227634 1_555
In9 O0 2.251284 1_545
In10 O4 2.080243 1_545
In10 O17 2.204340 1_555
In10 O6 2.206079 1_545
In10 O22 2.221155 1_555
In10 O20 2.253439 1_555
In10 O2 2.319524 1_545
In10 O15 2.518905 1_555
O0 Sb0 1.983092 1_556
O1 Sb1 1.966072 1_555
O3 Sb0 1.974511 1_555
O8 Sb1 1.973204 1_555
O9 Sb2 1.990559 1_555
O10 Sb1 1.999296 1_555
O11 Sb0 2.001337 1_655
O12 Sb2 2.056392 1_555
O12 Sb0 2.074957 1_546
O13 Sb1 2.055864 1_555
O13 Sb2 2.071032 1_555
O14 Sb2 2.014549 1_554
O15 Sb1 1.970796 1_555
O16 Sb2 2.089924 1_554
O17 Sb2 1.953027 1_555
O20 Sb0 1.996044 1_646
O22 Sb1 1.959151 1_555
O23 Sb0 1.981143 1_645
