# generated using pymatgen
data_Nd4Si4N7ClO3
_symmetry_space_group_name_H-M   'P 1'
_cell_length_a   10.38019500
_cell_length_b   10.44396500
_cell_length_c   10.56950400
_cell_angle_alpha   90.00000000
_cell_angle_beta   90.00000000
_cell_angle_gamma   90.00000000
_symmetry_Int_Tables_number   1
_chemical_formula_structural   Nd4Si4N7ClO3
_chemical_formula_sum   'Nd16 Si16 N28 Cl4 O12'
_cell_volume   1145.84408534
_cell_formula_units_Z   4
loop_
 _symmetry_equiv_pos_site_id
 _symmetry_equiv_pos_as_xyz
  1  'x, y, z'
loop_
 _atom_site_type_symbol
 _atom_site_label
 _atom_site_symmetry_multiplicity
 _atom_site_fract_x
 _atom_site_fract_y
 _atom_site_fract_z
 _atom_site_occupancy
  Nd  Nd0  1  0.81717400  0.68785700  0.04432600  1
  Nd  Nd1  1  0.10732400  0.10822600  0.10210300  1
  Nd  Nd2  1  0.19223600  0.44884200  0.17806600  1
  Nd  Nd3  1  0.45419400  0.18429400  0.18915900  1
  Nd  Nd4  1  0.54580600  0.68429400  0.31084100  1
  Nd  Nd5  1  0.80776400  0.94884200  0.32193400  1
  Nd  Nd6  1  0.89267600  0.60822600  0.39789700  1
  Nd  Nd7  1  0.18282600  0.18785700  0.45567400  1
  Nd  Nd8  1  0.68282600  0.31214300  0.54432600  1
  Nd  Nd9  1  0.39267600  0.89177400  0.60210300  1
  Nd  Nd10  1  0.30776400  0.55115800  0.67806600  1
  Nd  Nd11  1  0.04580600  0.81570600  0.68915900  1
  Nd  Nd12  1  0.95419400  0.31570600  0.81084100  1
  Nd  Nd13  1  0.69223600  0.05115800  0.82193400  1
  Nd  Nd14  1  0.60732400  0.39177400  0.89789700  1
  Nd  Nd15  1  0.31717400  0.81214300  0.95567400  1
  Si  Si0  1  0.57139500  0.92957500  0.07042900  1
  Si  Si1  1  0.74629000  0.19825500  0.07633800  1
  Si  Si2  1  0.08079300  0.74179400  0.19555300  1
  Si  Si3  1  0.30394600  0.91854000  0.24377200  1
  Si  Si4  1  0.69605400  0.41854000  0.25622800  1
  Si  Si5  1  0.91920700  0.24179400  0.30444700  1
  Si  Si6  1  0.25371000  0.69825500  0.42366200  1
  Si  Si7  1  0.42860500  0.42957500  0.42957100  1
  Si  Si8  1  0.92860500  0.07042500  0.57042900  1
  Si  Si9  1  0.75371000  0.80174500  0.57633800  1
  Si  Si10  1  0.41920700  0.25820600  0.69555300  1
  Si  Si11  1  0.19605400  0.08146000  0.74377200  1
  Si  Si12  1  0.80394600  0.58146000  0.75622800  1
  Si  Si13  1  0.58079300  0.75820600  0.80444700  1
  Si  Si14  1  0.24629000  0.30174500  0.92366200  1
  Si  Si15  1  0.07139500  0.57042500  0.92957100  1
  N  N0  1  0.63257400  0.07933700  0.05297200  1
  N  N1  1  0.28657100  0.25806600  0.07508700  1
  N  N2  1  0.05041600  0.63232700  0.07833100  1
  N  N3  1  0.64937600  0.32542700  0.13146200  1
  N  N4  1  0.42067700  0.94628300  0.13306400  1
  N  N5  1  0.17410200  0.87011500  0.14995400  1
  N  N6  1  0.86982200  0.15104600  0.17633900  1
  N  N7  1  0.13017800  0.65104600  0.32366100  1
  N  N8  1  0.82589800  0.37011500  0.35004600  1
  N  N9  1  0.57932300  0.44628300  0.36693600  1
  N  N10  1  0.35062400  0.82542700  0.36853800  1
  N  N11  1  0.94958400  0.13232700  0.42166900  1
  N  N12  1  0.71342900  0.75806600  0.42491300  1
  N  N13  1  0.36742600  0.57933700  0.44702800  1
  N  N14  1  0.86742600  0.92066300  0.55297200  1
  N  N15  1  0.21342900  0.74193400  0.57508700  1
  N  N16  1  0.44958400  0.36767300  0.57833100  1
  N  N17  1  0.85062400  0.67457300  0.63146200  1
  N  N18  1  0.07932300  0.05371700  0.63306400  1
  N  N19  1  0.32589800  0.12988500  0.64995400  1
  N  N20  1  0.63017800  0.84895400  0.67633900  1
  N  N21  1  0.36982200  0.34895400  0.82366100  1
  N  N22  1  0.67410200  0.62988500  0.85004600  1
  N  N23  1  0.92067700  0.55371700  0.86693600  1
  N  N24  1  0.14937600  0.17457300  0.86853800  1
  N  N25  1  0.55041600  0.86767300  0.92166900  1
  N  N26  1  0.78657100  0.24193400  0.92491300  1
  N  N27  1  0.13257400  0.42066300  0.94702800  1
  Cl  Cl0  1  0.42382000  0.57881200  0.07269000  1
  Cl  Cl1  1  0.57618000  0.07881200  0.42731000  1
  Cl  Cl2  1  0.07618000  0.42118800  0.57269000  1
  Cl  Cl3  1  0.92382000  0.92118800  0.92731000  1
  O  O0  1  0.66510300  0.83558300  0.15859300  1
  O  O1  1  0.74005900  0.56740700  0.21029200  1
  O  O2  1  0.92968400  0.78609600  0.23591900  1
  O  O3  1  0.07031600  0.28609600  0.26408100  1
  O  O4  1  0.25994100  0.06740700  0.28970800  1
  O  O5  1  0.33489700  0.33558300  0.34140700  1
  O  O6  1  0.83489700  0.16441700  0.65859300  1
  O  O7  1  0.75994100  0.43259300  0.71029200  1
  O  O8  1  0.57031600  0.21390400  0.73591900  1
  O  O9  1  0.42968400  0.71390400  0.76408100  1
  O  O10  1  0.24005900  0.93259300  0.78970800  1
  O  O11  1  0.16510300  0.66441700  0.84140700  1
loop_
_geom_bond_atom_site_label_1
_geom_bond_atom_site_label_2
_geom_bond_distance
_geom_bond_site_symmetry_2
Nd0 O1 2.302259 1_555
Nd0 O0 2.516102 1_555
Nd0 O2 2.552924 1_555
Nd1 O3 2.555296 1_555
Nd1 O4 2.573572 1_555
Nd2 O3 2.305901 1_555
Nd2 O5 2.563723 1_555
Nd3 O5 2.572841 1_555
Nd3 O4 2.585636 1_555
Nd4 O0 2.572841 1_555
Nd4 O1 2.585636 1_555
Nd5 O2 2.305901 1_555
Nd5 O0 2.563723 1_555
Nd6 O2 2.555296 1_555
Nd6 O1 2.573572 1_555
Nd7 O4 2.302259 1_555
Nd7 O5 2.516102 1_555
Nd7 O3 2.552924 1_555
Nd8 O7 2.302259 1_555
Nd8 O6 2.516102 1_555
Nd8 O8 2.552924 1_555
Nd9 O9 2.555296 1_555
Nd9 O10 2.573572 1_555
Nd10 O9 2.305901 1_555
Nd10 O11 2.563723 1_555
Nd11 O11 2.572841 1_555
Nd11 O10 2.585636 1_555
Nd12 O6 2.572841 1_555
Nd12 O7 2.585636 1_555
Nd13 O8 2.305901 1_555
Nd13 O6 2.563723 1_555
Nd14 O8 2.555296 1_555
Nd14 O7 2.573572 1_555
Nd15 O10 2.302259 1_555
Nd15 O11 2.516102 1_555
Nd15 O9 2.552924 1_555
N0 Si0 1.698167 1_545
N0 Si1 1.731134 1_555
N0 Nd13 2.536396 1_554
N0 Nd3 2.588828 1_555
N1 Si14 1.715951 1_554
N1 Nd3 2.252723 1_555
N1 Nd1 2.447943 1_555
N1 Nd2 2.472539 1_555
N2 Si15 1.713936 1_554
N2 Si2 1.715097 1_555
N2 Nd0 2.515400 1_455
N2 Nd2 2.636402 1_555
N3 Si4 1.708646 1_555
N3 Si1 1.765087 1_555
N3 Nd3 2.578627 1_555
N3 Nd14 2.600961 1_554
N4 Si0 1.707725 1_555
N4 Si3 1.709195 1_555
N4 Nd15 2.575327 1_554
N4 Nd3 2.579082 1_565
N5 Si2 1.722349 1_555
N5 Si3 1.748043 1_555
N5 Nd15 2.605528 1_554
N5 Nd1 2.630697 1_565
N6 Si5 1.730454 1_555
N6 Si1 1.733356 1_555
N6 Nd1 2.625536 1_655
N6 Nd5 2.691249 1_545
N7 Si2 1.730454 1_555
N7 Si6 1.733356 1_555
N7 Nd6 2.625536 1_455
N7 Nd2 2.691249 1_555
N8 Si5 1.722349 1_555
N8 Si4 1.748043 1_555
N8 Nd8 2.605528 1_555
N8 Nd6 2.630697 1_555
N9 Si7 1.707725 1_555
N9 Si4 1.709195 1_555
N9 Nd8 2.575327 1_555
N9 Nd4 2.579082 1_555
N10 Si3 1.708646 1_555
N10 Si6 1.765087 1_555
N10 Nd4 2.578627 1_555
N10 Nd9 2.600961 1_555
N11 Si8 1.713936 1_555
N11 Si5 1.715097 1_555
N11 Nd7 2.515400 1_655
N11 Nd5 2.636402 1_545
N12 Si9 1.715951 1_555
N12 Nd4 2.252723 1_555
N12 Nd6 2.447943 1_555
N12 Nd5 2.472539 1_555
N13 Si7 1.698167 1_555
N13 Si6 1.731134 1_555
N13 Nd10 2.536396 1_555
N13 Nd4 2.588828 1_555
N14 Si8 1.698167 1_565
N14 Si9 1.731134 1_555
N14 Nd5 2.536396 1_555
N14 Nd11 2.588828 1_655
N15 Si6 1.715951 1_555
N15 Nd11 2.252723 1_555
N15 Nd9 2.447943 1_555
N15 Nd10 2.472539 1_555
N16 Si7 1.713936 1_555
N16 Si10 1.715097 1_555
N16 Nd8 2.515400 1_555
N16 Nd10 2.636402 1_555
N17 Si12 1.708646 1_555
N17 Si9 1.765087 1_555
N17 Nd11 2.578627 1_655
N17 Nd6 2.600961 1_555
N18 Si8 1.707725 1_455
N18 Si11 1.709195 1_555
N18 Nd7 2.575327 1_555
N18 Nd11 2.579082 1_545
N19 Si10 1.722349 1_555
N19 Si11 1.748043 1_555
N19 Nd7 2.605528 1_555
N19 Nd9 2.630697 1_545
N20 Si13 1.730454 1_555
N20 Si9 1.733356 1_555
N20 Nd9 2.625536 1_555
N20 Nd13 2.691249 1_565
N21 Si10 1.730454 1_555
N21 Si14 1.733356 1_555
N21 Nd14 2.625536 1_555
N21 Nd10 2.691249 1_555
N22 Si13 1.722349 1_555
N22 Si12 1.748043 1_555
N22 Nd0 2.605528 1_556
N22 Nd14 2.630697 1_555
N23 Si15 1.707725 1_655
N23 Si12 1.709195 1_555
N23 Nd0 2.575327 1_556
N23 Nd12 2.579082 1_555
N24 Si11 1.708646 1_555
N24 Si14 1.765087 1_555
N24 Nd12 2.578627 1_455
N24 Nd1 2.600961 1_556
N25 Si0 1.713936 1_556
N25 Si13 1.715097 1_555
N25 Nd15 2.515400 1_555
N25 Nd13 2.636402 1_565
N26 Si1 1.715951 1_556
N26 Nd12 2.252723 1_555
N26 Nd14 2.447943 1_555
N26 Nd13 2.472539 1_555
N27 Si15 1.698167 1_555
N27 Si14 1.731134 1_555
N27 Nd2 2.536396 1_556
N27 Nd12 2.588828 1_455
Cl0 Nd15 2.948495 1_554
Cl0 Nd2 2.976861 1_555
Cl0 Nd4 3.025389 1_555
Cl0 Nd14 3.295042 1_554
Cl1 Nd8 2.948495 1_555
Cl1 Nd5 2.976861 1_545
Cl1 Nd3 3.025389 1_555
Cl1 Nd9 3.295042 1_545
Cl2 Nd7 2.948495 1_555
Cl2 Nd10 2.976861 1_555
Cl2 Nd12 3.025389 1_455
Cl2 Nd6 3.295042 1_455
Cl3 Nd0 2.948495 1_556
Cl3 Nd13 2.976861 1_565
Cl3 Nd11 3.025389 1_655
Cl3 Nd1 3.295042 1_666
O0 Si0 1.666775 1_555
O1 Si4 1.691645 1_555
O2 Si2 1.690098 1_655
O3 Si5 1.690098 1_455
O4 Si3 1.691645 1_545
O5 Si7 1.666775 1_555
O6 Si8 1.666775 1_555
O7 Si12 1.691645 1_555
O8 Si10 1.690098 1_555
O9 Si13 1.690098 1_555
O10 Si11 1.691645 1_565
O11 Si15 1.666775 1_555
