# generated using pymatgen
data_Ti4(Fe2O5)3
_symmetry_space_group_name_H-M   'P 1'
_cell_length_a   5.21373900
_cell_length_b   5.52706068
_cell_length_c   21.41535622
_cell_angle_alpha   94.10799510
_cell_angle_beta   90.15075393
_cell_angle_gamma   118.08288810
_symmetry_Int_Tables_number   1
_chemical_formula_structural   Ti4(Fe2O5)3
_chemical_formula_sum   'Ti8 Fe12 O30'
_cell_volume   542.60147589
_cell_formula_units_Z   2
loop_
 _symmetry_equiv_pos_site_id
 _symmetry_equiv_pos_as_xyz
  1  'x, y, z'
loop_
 _atom_site_type_symbol
 _atom_site_label
 _atom_site_symmetry_multiplicity
 _atom_site_fract_x
 _atom_site_fract_y
 _atom_site_fract_z
 _atom_site_occupancy
  Ti  Ti0  1  0.76908500  0.57991900  0.96993900  1
  Ti  Ti1  1  0.10397400  0.21756400  0.73048600  1
  Ti  Ti2  1  0.08326600  0.18913300  0.87295900  1
  Ti  Ti3  1  0.98508900  0.98876500  0.57421200  1
  Ti  Ti4  1  0.60138000  0.19776900  0.37057400  1
  Ti  Ti5  1  0.29918800  0.59008800  0.47465100  1
  Ti  Ti6  1  0.20515000  0.39436800  0.17215400  1
  Ti  Ti7  1  0.92248500  0.82245200  0.12702200  1
  Fe  Fe0  1  0.49443300  0.99791100  0.92605200  1
  Fe  Fe1  1  0.39856100  0.80077000  0.77153400  1
  Fe  Fe2  1  0.79829200  0.60926300  0.82666600  1
  Fe  Fe3  1  0.69479200  0.39954700  0.52745600  1
  Fe  Fe4  1  0.70376000  0.39096900  0.67089000  1
  Fe  Fe5  1  0.40198000  0.79943600  0.62994100  1
  Fe  Fe6  1  0.30960200  0.61498500  0.33076900  1
  Fe  Fe7  1  0.00101400  0.99758400  0.42744700  1
  Fe  Fe8  1  0.89450500  0.78721900  0.27111800  1
  Fe  Fe9  1  0.60325000  0.19514600  0.22997200  1
  Fe  Fe10  1  0.49341100  0.99518700  0.06963600  1
  Fe  Fe11  1  0.20205500  0.40519100  0.02999200  1
  O  O0  1  0.03860600  0.82367300  0.91006600  1
  O  O1  1  0.66326000  0.90409100  0.84820300  1
  O  O2  1  0.56007000  0.75753500  0.98928200  1
  O  O3  1  0.05404600  0.42328500  0.81328400  1
  O  O4  1  0.97707500  0.31986300  0.94350100  1
  O  O5  1  0.70812500  0.05548600  0.71082800  1
  O  O6  1  0.50616600  0.36433300  0.88596400  1
  O  O7  1  0.23605500  0.11333400  0.64948800  1
  O  O8  1  0.11969000  0.97106400  0.78695800  1
  O  O9  1  0.70293700  0.64221100  0.61072800  1
  O  O10  1  0.55155300  0.48075500  0.74848600  1
  O  O11  1  0.23130200  0.22834400  0.51386300  1
  O  O12  1  0.12555400  0.55630700  0.69197300  1
  O  O13  1  0.83777500  0.31067500  0.44311200  1
  O  O14  1  0.75043500  0.15281800  0.59066300  1
  O  O15  1  0.28956200  0.82495300  0.41339200  1
  O  O16  1  0.16843100  0.71468500  0.54235600  1
  O  O17  1  0.86950900  0.44171700  0.31558100  1
  O  O18  1  0.69715600  0.76162100  0.49157300  1
  O  O19  1  0.43341900  0.50421700  0.24861400  1
  O  O20  1  0.35844400  0.36262600  0.38790000  1
  O  O21  1  0.88459500  0.04012600  0.21191000  1
  O  O22  1  0.74558400  0.90553900  0.34522200  1
  O  O23  1  0.48840900  0.64021500  0.11954500  1
  O  O24  1  0.30828200  0.95177200  0.29541000  1
  O  O25  1  0.01376400  0.69627300  0.04974600  1
  O  O26  1  0.95768800  0.57327500  0.18545400  1
  O  O27  1  0.48909000  0.24635700  0.00664200  1
  O  O28  1  0.33199600  0.10182000  0.15128500  1
  O  O29  1  0.93614700  0.15776600  0.09550200  1
loop_
_geom_bond_atom_site_label_1
_geom_bond_atom_site_label_2
_geom_bond_distance
_geom_bond_site_symmetry_2
Fe0 O1 2.033891 1_555
Fe0 O2 2.097416 1_555
Fe0 O0 2.118103 1_555
Fe0 O27 2.135817 1_566
Fe0 O6 2.230490 1_565
Fe0 O4 2.306986 1_565
Fe1 O1 2.009544 1_555
Fe1 O8 2.086969 1_555
Fe1 O5 2.100243 1_565
Fe1 O12 2.145084 1_555
Fe1 O3 2.264099 1_555
Fe1 O10 2.283340 1_555
Fe2 O10 1.980036 1_555
Fe2 O6 2.019959 1_555
Fe2 O3 2.041335 1_655
Fe2 O1 2.082759 1_555
Fe2 O0 2.109785 1_655
Fe2 O8 2.150843 1_655
Fe3 O13 2.069855 1_555
Fe3 O14 2.100216 1_555
Fe3 O9 2.141057 1_555
Fe3 O11 2.150269 1_555
Fe3 O18 2.189210 1_555
Fe3 O16 2.258398 1_655
Fe4 O9 1.962186 1_555
Fe4 O10 1.974076 1_555
Fe4 O12 1.979568 1_655
Fe4 O5 2.106434 1_555
Fe4 O14 2.173339 1_555
Fe4 O7 2.209390 1_555
Fe5 O12 2.022390 1_555
Fe5 O16 2.131977 1_555
Fe5 O9 2.149999 1_555
Fe5 O14 2.173840 1_565
Fe5 O5 2.249136 1_565
Fe5 O7 2.290093 1_565
Fe6 O20 2.021013 1_555
Fe6 O19 2.027489 1_555
Fe6 O17 2.042154 1_455
Fe6 O24 2.062132 1_555
Fe6 O15 2.075911 1_555
Fe6 O22 2.080858 1_555
Fe7 O22 2.086741 1_455
Fe7 O18 2.102235 1_455
Fe7 O15 2.139376 1_555
Fe7 O11 2.168293 1_565
Fe7 O20 2.230245 1_565
Fe7 O13 2.266356 1_465
Fe8 O24 1.957264 1_655
Fe8 O22 1.970994 1_555
Fe8 O21 1.971273 1_565
Fe8 O17 2.144091 1_555
Fe8 O19 2.191726 1_555
Fe8 O26 2.220672 1_555
Fe9 O21 2.043085 1_555
Fe9 O28 2.069268 1_555
Fe9 O24 2.114741 1_545
Fe9 O17 2.234499 1_555
Fe9 O19 2.278110 1_555
Fe9 O26 2.313063 1_555
Fe10 O27 2.011270 1_565
Fe10 O29 2.100400 1_565
Fe10 O28 2.107150 1_565
Fe10 O2 2.217296 1_554
Fe10 O25 2.273419 1_555
Fe10 O23 2.290136 1_555
Fe11 O29 2.064093 1_455
Fe11 O4 2.090855 1_454
Fe11 O27 2.106723 1_555
Fe11 O2 2.205933 1_554
Fe11 O25 2.263335 1_555
Fe11 O23 2.323026 1_555
O0 Ti0 1.976941 1_455
O0 Ti2 2.133989 1_565
O1 Ti2 2.045597 1_665
O2 Ti0 1.809474 1_555
O3 Ti2 1.937224 1_555
O3 Ti1 2.120589 1_555
O4 Ti2 1.826314 1_655
O4 Ti0 2.217334 1_555
O5 Ti1 1.854705 1_655
O6 Ti2 1.955695 1_555
O6 Ti0 2.162210 1_555
O7 Ti3 1.940767 1_445
O7 Ti1 2.012847 1_555
O8 Ti1 1.914713 1_565
O8 Ti2 2.186339 1_565
O9 Ti3 2.003049 1_555
O10 Ti1 2.104548 1_555
O11 Ti3 1.930055 1_445
O11 Ti5 2.098526 1_555
O12 Ti1 2.054662 1_555
O13 Ti4 1.857020 1_555
O13 Ti5 2.229946 1_655
O14 Ti3 1.855792 1_545
O15 Ti5 1.927080 1_555
O15 Ti4 2.203271 1_565
O16 Ti5 1.829057 1_555
O16 Ti3 2.211931 1_455
O17 Ti4 1.902827 1_555
O18 Ti5 1.852061 1_555
O18 Ti3 2.203412 1_555
O19 Ti6 1.906091 1_555
O20 Ti4 1.900740 1_555
O20 Ti5 2.271892 1_555
O21 Ti6 2.125328 1_655
O21 Ti7 2.168768 1_545
O22 Ti4 2.118640 1_565
O23 Ti6 1.906695 1_555
O23 Ti7 1.997714 1_555
O24 Ti4 2.119474 1_565
O25 Ti7 1.898102 1_455
O25 Ti0 2.005150 1_454
O26 Ti6 1.971361 1_655
O26 Ti7 1.994983 1_555
O27 Ti0 1.956417 1_554
O28 Ti7 1.997022 1_445
O28 Ti6 2.038720 1_555
O29 Ti7 1.987621 1_545
O29 Ti6 2.079740 1_655
