# generated using pymatgen
data_CsTa6PbCl18
_symmetry_space_group_name_H-M   'P 1'
_cell_length_a   9.43992760
_cell_length_b   9.43992760
_cell_length_c   17.58799200
_cell_angle_alpha   90.00000000
_cell_angle_beta   90.00000000
_cell_angle_gamma   119.99999722
_symmetry_Int_Tables_number   1
_chemical_formula_structural   CsTa6PbCl18
_chemical_formula_sum   'Cs2 Ta12 Pb2 Cl36'
_cell_volume   1357.32619471
_cell_formula_units_Z   2
loop_
 _symmetry_equiv_pos_site_id
 _symmetry_equiv_pos_as_xyz
  1  'x, y, z'
loop_
 _atom_site_type_symbol
 _atom_site_label
 _atom_site_symmetry_multiplicity
 _atom_site_fract_x
 _atom_site_fract_y
 _atom_site_fract_z
 _atom_site_occupancy
  Cs  Cs0  1  0.66666700  0.33333300  0.75000000  1
  Cs  Cs1  1  0.33333300  0.66666700  0.25000000  1
  Ta  Ta0  1  0.80843600  0.83489900  0.93188100  1
  Ta  Ta1  1  0.83489900  0.02646300  0.06811900  1
  Ta  Ta2  1  0.19156400  0.02646300  0.43188100  1
  Ta  Ta3  1  0.19156400  0.16510100  0.06811900  1
  Ta  Ta4  1  0.16510100  0.97353700  0.93188100  1
  Ta  Ta5  1  0.97353700  0.16510100  0.43188100  1
  Ta  Ta6  1  0.80843600  0.97353700  0.56811900  1
  Ta  Ta7  1  0.02646300  0.83489900  0.56811900  1
  Ta  Ta8  1  0.16510100  0.19156400  0.56811900  1
  Ta  Ta9  1  0.83489900  0.80843600  0.43188100  1
  Ta  Ta10  1  0.97353700  0.80843600  0.06811900  1
  Ta  Ta11  1  0.02646300  0.19156400  0.93188100  1
  Pb  Pb0  1  0.66666700  0.33333300  0.25000000  1
  Pb  Pb1  1  0.33333300  0.66666700  0.75000000  1
  Cl  Cl0  1  0.83790900  0.58336200  0.50012800  1
  Cl  Cl1  1  0.05396800  0.62392300  0.65508300  1
  Cl  Cl2  1  0.41663800  0.16209100  0.99987200  1
  Cl  Cl3  1  0.74545200  0.16209100  0.50012800  1
  Cl  Cl4  1  0.16209100  0.74545200  0.00012800  1
  Cl  Cl5  1  0.16209100  0.41663800  0.49987200  1
  Cl  Cl6  1  0.22386800  0.03025800  0.65949500  1
  Cl  Cl7  1  0.96974200  0.19361000  0.65949500  1
  Cl  Cl8  1  0.62392300  0.05396800  0.15508300  1
  Cl  Cl9  1  0.19361000  0.96974200  0.15949500  1
  Cl  Cl10  1  0.03025800  0.22386800  0.15949500  1
  Cl  Cl11  1  0.56995600  0.62392300  0.84491700  1
  Cl  Cl12  1  0.58336200  0.83790900  0.00012800  1
  Cl  Cl13  1  0.37607700  0.43004400  0.65508300  1
  Cl  Cl14  1  0.41663800  0.25454800  0.50012800  1
  Cl  Cl15  1  0.83790900  0.25454800  0.99987200  1
  Cl  Cl16  1  0.43004400  0.05396800  0.34491700  1
  Cl  Cl17  1  0.77613200  0.96974200  0.34050500  1
  Cl  Cl18  1  0.58336200  0.74545200  0.49987200  1
  Cl  Cl19  1  0.80639000  0.03025800  0.84050500  1
  Cl  Cl20  1  0.25454800  0.83790900  0.49987200  1
  Cl  Cl21  1  0.62392300  0.56995600  0.34491700  1
  Cl  Cl22  1  0.94603200  0.56995600  0.15508300  1
  Cl  Cl23  1  0.94603200  0.37607700  0.34491700  1
  Cl  Cl24  1  0.77613200  0.80639000  0.15949500  1
  Cl  Cl25  1  0.96974200  0.77613200  0.84050500  1
  Cl  Cl26  1  0.56995600  0.94603200  0.65508300  1
  Cl  Cl27  1  0.22386800  0.19361000  0.84050500  1
  Cl  Cl28  1  0.25454800  0.41663800  0.00012800  1
  Cl  Cl29  1  0.19361000  0.22386800  0.34050500  1
  Cl  Cl30  1  0.37607700  0.94603200  0.84491700  1
  Cl  Cl31  1  0.05396800  0.43004400  0.84491700  1
  Cl  Cl32  1  0.80639000  0.77613200  0.65949500  1
  Cl  Cl33  1  0.43004400  0.37607700  0.15508300  1
  Cl  Cl34  1  0.03025800  0.80639000  0.34050500  1
  Cl  Cl35  1  0.74545200  0.58336200  0.99987200  1
loop_
_geom_bond_atom_site_label_1
_geom_bond_atom_site_label_2
_geom_bond_distance
_geom_bond_site_symmetry_2
Cl0 Ta7 2.451517 1_655
Cl0 Ta9 2.452802 1_555
Cl1 Ta7 2.624962 1_555
Cl1 Pb1 2.973272 1_555
Cl1 Cs0 3.694533 1_455
Cl2 Ta4 2.451517 1_545
Cl2 Ta3 2.452802 1_556
Cl3 Ta6 2.451523 1_545
Cl3 Ta5 2.452811 1_555
Cl4 Ta10 2.451523 1_455
Cl4 Ta4 2.452811 1_554
Cl5 Ta5 2.451517 1_455
Cl5 Ta8 2.452802 1_555
Cl6 Ta7 2.453530 1_545
Cl6 Ta8 2.460487 1_555
Cl6 Cs0 4.028961 1_555
Cl7 Ta8 2.453530 1_655
Cl7 Ta6 2.460487 1_545
Cl7 Cs0 4.028955 1_555
Cl8 Ta1 2.624962 1_555
Cl8 Pb0 2.973272 1_555
Cl8 Cs1 3.694533 1_545
Cl9 Ta3 2.453530 1_565
Cl9 Ta10 2.460487 1_455
Cl9 Cs1 4.028955 1_555
Cl10 Ta1 2.453530 1_455
Cl10 Ta3 2.460487 1_555
Cl10 Cs1 4.028961 1_555
Cl11 Ta0 2.624958 1_555
Cl11 Pb1 2.973288 1_555
Cl11 Cs0 3.694532 1_555
Cl12 Ta1 2.451517 1_565
Cl12 Ta0 2.452802 1_554
Cl13 Ta8 2.624958 1_555
Cl13 Pb1 2.973288 1_555
Cl13 Cs0 3.694532 1_555
Cl14 Ta8 2.451515 1_555
Cl14 Ta2 2.452807 1_555
Cl15 Ta11 2.451523 1_655
Cl15 Ta1 2.452811 1_556
Cl16 Ta2 2.624954 1_555
Cl16 Pb0 2.973278 1_555
Cl16 Cs1 3.694532 1_545
Cl17 Ta5 2.453530 1_565
Cl17 Ta9 2.460487 1_555
Cl17 Cs1 4.028961 1_555
Cl18 Ta9 2.451515 1_555
Cl18 Ta6 2.452807 1_555
Cl19 Ta0 2.453530 1_545
Cl19 Ta11 2.460487 1_655
Cl19 Cs0 4.028955 1_555
Cl20 Ta2 2.451523 1_565
Cl20 Ta7 2.452811 1_555
Cl21 Ta9 2.624958 1_555
Cl21 Pb0 2.973288 1_555
Cl21 Cs1 3.694532 1_555
Cl22 Ta10 2.624954 1_555
Cl22 Pb0 2.973278 1_555
Cl22 Cs1 3.694532 1_655
Cl23 Ta5 2.624962 1_555
Cl23 Pb0 2.973272 1_555
Cl23 Cs1 3.694533 1_655
Cl24 Ta10 2.453530 1_555
Cl24 Ta1 2.460487 1_565
Cl24 Cs1 4.028963 1_555
Cl25 Ta4 2.453530 1_655
Cl25 Ta0 2.460487 1_555
Cl25 Cs0 4.028961 1_555
Cl26 Ta6 2.624954 1_555
Cl26 Pb1 2.973278 1_555
Cl26 Cs0 3.694532 1_565
Cl27 Ta11 2.453530 1_555
Cl27 Ta4 2.460487 1_545
Cl27 Cs0 4.028963 1_555
Cl28 Ta3 2.451515 1_555
Cl28 Ta11 2.452807 1_554
Cl29 Ta2 2.453530 1_555
Cl29 Ta5 2.460487 1_455
Cl29 Cs1 4.028963 1_555
Cl30 Ta4 2.624962 1_555
Cl30 Pb1 2.973272 1_555
Cl30 Cs0 3.694533 1_565
Cl31 Ta11 2.624954 1_555
Cl31 Pb1 2.973278 1_555
Cl31 Cs0 3.694532 1_455
Cl32 Ta6 2.453530 1_555
Cl32 Ta7 2.460487 1_655
Cl32 Cs0 4.028963 1_555
Cl33 Ta3 2.624958 1_555
Cl33 Pb0 2.973288 1_555
Cl33 Cs1 3.694532 1_555
Cl34 Ta9 2.453530 1_455
Cl34 Ta2 2.460487 1_565
Cl34 Cs1 4.028955 1_555
Cl35 Ta0 2.451515 1_555
Cl35 Ta10 2.452807 1_556
