# generated using pymatgen
data_Mn2CuO4
_symmetry_space_group_name_H-M   'P 1'
_cell_length_a   6.05905117
_cell_length_b   6.05905117
_cell_length_c   14.78408500
_cell_angle_alpha   90.00000000
_cell_angle_beta   90.00000000
_cell_angle_gamma   119.99999097
_symmetry_Int_Tables_number   1
_chemical_formula_structural   Mn2CuO4
_chemical_formula_sum   'Mn12 Cu6 O24'
_cell_volume   470.03950791
_cell_formula_units_Z   6
loop_
 _symmetry_equiv_pos_site_id
 _symmetry_equiv_pos_as_xyz
  1  'x, y, z'
loop_
 _atom_site_type_symbol
 _atom_site_label
 _atom_site_symmetry_multiplicity
 _atom_site_fract_x
 _atom_site_fract_y
 _atom_site_fract_z
 _atom_site_occupancy
  Mn  Mn0  1  0.00000000  0.00000000  0.00229400  1
  Mn  Mn1  1  0.16769400  0.83230600  0.79159500  1
  Mn  Mn2  1  0.66461200  0.83230600  0.79159500  1
  Mn  Mn3  1  0.66666700  0.33333300  0.66946500  1
  Mn  Mn4  1  0.16769400  0.33538800  0.79159500  1
  Mn  Mn5  1  0.83463400  0.16536600  0.45790100  1
  Mn  Mn6  1  0.33073100  0.16536600  0.45790100  1
  Mn  Mn7  1  0.83463400  0.66926900  0.45790100  1
  Mn  Mn8  1  0.49972900  0.50027100  0.12616400  1
  Mn  Mn9  1  0.00054100  0.50027100  0.12616400  1
  Mn  Mn10  1  0.66666700  0.33333300  0.29268800  1
  Mn  Mn11  1  0.49972900  0.99945900  0.12616400  1
  Cu  Cu0  1  0.66666700  0.33333300  0.91548500  1
  Cu  Cu1  1  0.33333300  0.66666700  0.58038300  1
  Cu  Cu2  1  0.33333300  0.66666700  0.95810100  1
  Cu  Cu3  1  0.00000000  0.00000000  0.24976100  1
  Cu  Cu4  1  0.00000000  0.00000000  0.62367900  1
  Cu  Cu5  1  0.33333300  0.66666700  0.33359200  1
  O  O0  1  0.48547700  0.97095400  0.86597900  1
  O  O1  1  0.02904600  0.51452300  0.86597900  1
  O  O2  1  0.33333300  0.66666700  0.71404100  1
  O  O3  1  0.15280100  0.30560200  0.53240800  1
  O  O4  1  0.84935100  0.15064900  0.71704900  1
  O  O5  1  0.48547700  0.51452300  0.86597900  1
  O  O6  1  0.00000000  0.00000000  0.86601000  1
  O  O7  1  0.69439800  0.84719900  0.53240800  1
  O  O8  1  0.30129700  0.15064900  0.71704900  1
  O  O9  1  0.00000000  0.00000000  0.38319500  1
  O  O10  1  0.81718300  0.63436700  0.20314900  1
  O  O11  1  0.51563700  0.48436300  0.38025900  1
  O  O12  1  0.84935100  0.69870300  0.71704900  1
  O  O13  1  0.15280100  0.84719900  0.53240800  1
  O  O14  1  0.66666700  0.33333300  0.53055100  1
  O  O15  1  0.36563300  0.18281700  0.20314900  1
  O  O16  1  0.96872500  0.48436300  0.38025900  1
  O  O17  1  0.66666700  0.33333300  0.04960400  1
  O  O18  1  0.81718300  0.18281700  0.20314900  1
  O  O19  1  0.51563700  0.03127500  0.38025900  1
  O  O20  1  0.18180700  0.81819300  0.05201000  1
  O  O21  1  0.33333300  0.66666700  0.20161300  1
  O  O22  1  0.63638500  0.81819300  0.05201000  1
  O  O23  1  0.18180700  0.36361500  0.05201000  1
loop_
_geom_bond_atom_site_label_1
_geom_bond_atom_site_label_2
_geom_bond_distance
_geom_bond_site_symmetry_2
Mn0 O6 2.014834 1_554
Mn0 O20 2.044665 1_545
Mn0 O23 2.044670 1_555
Mn0 O22 2.044670 1_445
Mn1 O1 2.001235 1_555
Mn1 O0 2.001235 1_555
Mn1 O12 2.007232 1_455
Mn1 O8 2.007232 1_565
Mn1 O6 2.075457 1_565
Mn1 O2 2.082388 1_555
Mn2 O0 2.001235 1_555
Mn2 O5 2.001235 1_555
Mn2 O12 2.007227 1_555
Mn2 O4 2.007231 1_565
Mn2 O6 2.075457 1_665
Mn2 O2 2.082393 1_555
Mn3 O4 2.042185 1_555
Mn3 O12 2.042195 1_555
Mn3 O8 2.042195 1_555
Mn3 O14 2.053716 1_555
Mn4 O1 2.001235 1_555
Mn4 O5 2.001235 1_555
Mn4 O8 2.007227 1_555
Mn4 O4 2.007231 1_455
Mn4 O6 2.075457 1_555
Mn4 O2 2.082393 1_555
Mn5 O3 2.003413 1_655
Mn5 O7 2.003413 1_545
Mn5 O19 2.035470 1_555
Mn5 O16 2.035470 1_555
Mn5 O9 2.057088 1_655
Mn5 O14 2.064190 1_555
Mn6 O3 2.003408 1_555
Mn6 O13 2.003413 1_545
Mn6 O19 2.035470 1_555
Mn6 O11 2.035470 1_555
Mn6 O9 2.057083 1_555
Mn6 O14 2.064199 1_555
Mn7 O7 2.003408 1_555
Mn7 O13 2.003413 1_655
Mn7 O16 2.035470 1_555
Mn7 O11 2.035470 1_555
Mn7 O9 2.057083 1_665
Mn7 O14 2.064199 1_555
Mn8 O22 2.000782 1_555
Mn8 O23 2.000782 1_555
Mn8 O10 2.022985 1_555
Mn8 O15 2.022985 1_555
Mn8 O21 2.072107 1_555
Mn8 O17 2.085771 1_555
Mn9 O23 2.000781 1_555
Mn9 O20 2.000782 1_555
Mn9 O10 2.022985 1_455
Mn9 O18 2.022985 1_455
Mn9 O21 2.072108 1_555
Mn9 O17 2.085762 1_455
Mn10 O16 2.046539 1_555
Mn10 O19 2.046539 1_555
Mn10 O11 2.046547 1_555
Mn10 O18 2.060938 1_555
Mn10 O10 2.060946 1_555
Mn10 O15 2.060946 1_555
Mn11 O22 2.000781 1_555
Mn11 O20 2.000782 1_555
Mn11 O15 2.022985 1_565
Mn11 O18 2.022985 1_565
Mn11 O21 2.072108 1_555
Mn11 O17 2.085762 1_565
Cu0 O17 1.982827 1_556
Cu0 O1 2.037502 1_655
Cu0 O0 2.037502 1_545
Cu0 O5 2.037507 1_555
Cu1 O2 1.976011 1_555
Cu1 O13 2.023017 1_555
Cu1 O7 2.023023 1_555
Cu1 O3 2.023023 1_555
Cu2 O1 2.098637 1_555
Cu2 O0 2.098637 1_555
Cu2 O5 2.098640 1_555
Cu2 O20 2.110991 1_556
Cu2 O22 2.110991 1_556
Cu2 O23 2.110991 1_556
Cu3 O9 1.972700 1_555
Cu3 O10 2.038588 1_445
Cu3 O15 2.038588 1_555
Cu3 O18 2.038593 1_455
Cu4 O13 2.095769 1_545
Cu4 O3 2.095769 1_555
Cu4 O7 2.095769 1_445
Cu4 O8 2.098813 1_555
Cu4 O12 2.098813 1_445
Cu4 O4 2.098817 1_455
Cu5 O21 1.951189 1_555
Cu5 O11 2.033803 1_555
Cu5 O19 2.033803 1_565
Cu5 O16 2.033803 1_455
