# generated using pymatgen
data_Ru5C14(SO7)2
_symmetry_space_group_name_H-M   'P 1'
_cell_length_a   14.70265400
_cell_length_b   8.87603800
_cell_length_c   20.66954836
_cell_angle_alpha   72.95733601
_cell_angle_beta   90.00000000
_cell_angle_gamma   90.00000000
_symmetry_Int_Tables_number   1
_chemical_formula_structural   Ru5C14(SO7)2
_chemical_formula_sum   'Ru20 C56 S8 O56'
_cell_volume   2578.95159983
_cell_formula_units_Z   4
loop_
 _symmetry_equiv_pos_site_id
 _symmetry_equiv_pos_as_xyz
  1  'x, y, z'
loop_
 _atom_site_type_symbol
 _atom_site_label
 _atom_site_symmetry_multiplicity
 _atom_site_fract_x
 _atom_site_fract_y
 _atom_site_fract_z
 _atom_site_occupancy
  Ru  Ru0  1  0.65398000  0.15641400  0.80757400  1
  Ru  Ru1  1  0.34602000  0.84358600  0.19242600  1
  Ru  Ru2  1  0.88231100  0.33263400  0.40045000  1
  Ru  Ru3  1  0.29954500  0.98627500  0.61093100  1
  Ru  Ru4  1  0.51687900  0.38170100  0.78289300  1
  Ru  Ru5  1  0.38231100  0.66736600  0.09955000  1
  Ru  Ru6  1  0.48312100  0.61829900  0.21710700  1
  Ru  Ru7  1  0.61768900  0.33263400  0.90045000  1
  Ru  Ru8  1  0.23570700  0.81709100  0.02121400  1
  Ru  Ru9  1  0.76429300  0.18290900  0.97878600  1
  Ru  Ru10  1  0.73570700  0.18290900  0.47878600  1
  Ru  Ru11  1  0.20045500  0.98627500  0.11093100  1
  Ru  Ru12  1  0.70045500  0.01372500  0.38906900  1
  Ru  Ru13  1  0.11768900  0.66736600  0.59955000  1
  Ru  Ru14  1  0.79954500  0.01372500  0.88906900  1
  Ru  Ru15  1  0.84602000  0.15641400  0.30757400  1
  Ru  Ru16  1  0.01687900  0.61829900  0.71710700  1
  Ru  Ru17  1  0.98312100  0.38170100  0.28289300  1
  Ru  Ru18  1  0.26429300  0.81709100  0.52121400  1
  Ru  Ru19  1  0.15398000  0.84358600  0.69242600  1
  C  C0  1  0.62605700  0.54949200  0.88583800  1
  C  C1  1  0.81023700  0.30461900  0.52197400  1
  C  C2  1  0.43478400  0.54141500  0.79136700  1
  C  C3  1  0.98959500  0.33071000  0.44912700  1
  C  C4  1  0.42606000  0.98378800  0.21433000  1
  C  C5  1  0.78299000  0.01019000  0.05723600  1
  C  C6  1  0.53163000  0.62855000  0.30174300  1
  C  C7  1  0.57394000  0.01621200  0.78567000  1
  C  C8  1  0.28334300  0.03688600  0.69561600  1
  C  C9  1  0.31014200  0.19808500  0.55565300  1
  C  C10  1  0.51040500  0.33071000  0.94912700  1
  C  C11  1  0.17712300  0.76591400  0.78515600  1
  C  C12  1  0.03163000  0.37145000  0.19825700  1
  C  C13  1  0.42743600  0.96312400  0.61506100  1
  C  C14  1  0.01040500  0.66929000  0.55087300  1
  C  C15  1  0.31023700  0.69538100  0.97802600  1
  C  C16  1  0.61409200  0.53172300  0.74325900  1
  C  C17  1  0.46837000  0.37145000  0.69825700  1
  C  C18  1  0.57256400  0.03687600  0.38493900  1
  C  C19  1  0.78334300  0.96311400  0.80438400  1
  C  C20  1  0.67712300  0.23408600  0.71484400  1
  C  C21  1  0.48959500  0.66929000  0.05087300  1
  C  C22  1  0.05301900  0.20325400  0.33943300  1
  C  C23  1  0.93478400  0.45858500  0.70863300  1
  C  C24  1  0.82287700  0.23408600  0.21484400  1
  C  C25  1  0.07394000  0.98378800  0.71433000  1
  C  C26  1  0.12605700  0.45050800  0.61416200  1
  C  C27  1  0.88590800  0.53172300  0.24325900  1
  C  C28  1  0.18976300  0.69538100  0.47802600  1
  C  C29  1  0.18985800  0.19808500  0.05565300  1
  C  C30  1  0.87394300  0.54949200  0.38583800  1
  C  C31  1  0.68976300  0.30461900  0.02197400  1
  C  C32  1  0.71665700  0.96311400  0.30438400  1
  C  C33  1  0.92743600  0.03687600  0.88493900  1
  C  C34  1  0.21665700  0.03688600  0.19561600  1
  C  C35  1  0.94698100  0.79674600  0.66056700  1
  C  C36  1  0.11409200  0.46827700  0.75674100  1
  C  C37  1  0.71701000  0.01019000  0.55723600  1
  C  C38  1  0.37583500  0.72563000  0.50572500  1
  C  C39  1  0.92606000  0.01621200  0.28567000  1
  C  C40  1  0.44698100  0.20325400  0.83943300  1
  C  C41  1  0.68985800  0.80191500  0.44434700  1
  C  C42  1  0.62416500  0.27437000  0.49427500  1
  C  C43  1  0.38590800  0.46827700  0.25674100  1
  C  C44  1  0.12416500  0.72563000  0.00572500  1
  C  C45  1  0.06521600  0.54141500  0.29136700  1
  C  C46  1  0.21701000  0.98981000  0.94276400  1
  C  C47  1  0.37394300  0.45050800  0.11416200  1
  C  C48  1  0.55301900  0.79674600  0.16056700  1
  C  C49  1  0.07256400  0.96312400  0.11506100  1
  C  C50  1  0.81014200  0.80191500  0.94434700  1
  C  C51  1  0.56521600  0.45858500  0.20863300  1
  C  C52  1  0.96837000  0.62855000  0.80174300  1
  C  C53  1  0.28299000  0.98981000  0.44276400  1
  C  C54  1  0.32287700  0.76591400  0.28515600  1
  C  C55  1  0.87583500  0.27437000  0.99427500  1
  S  S0  1  0.64441100  0.03996800  0.93430800  1
  S  S1  1  0.14441100  0.96003200  0.56569200  1
  S  S2  1  0.85558900  0.03996800  0.43430800  1
  S  S3  1  0.27314700  0.69498500  0.64621300  1
  S  S4  1  0.22685300  0.69498500  0.14621300  1
  S  S5  1  0.72685300  0.30501500  0.35378700  1
  S  S6  1  0.35558900  0.96003200  0.06569200  1
  S  S7  1  0.77314700  0.30501500  0.85378700  1
  O  O0  1  0.44087300  0.36350300  0.64686700  1
  O  O1  1  0.94484900  0.32896300  0.00281400  1
  O  O2  1  0.83058900  0.62231800  0.21797000  1
  O  O3  1  0.61330100  0.36061400  0.20240600  1
  O  O4  1  0.20600400  0.09598500  0.89506400  1
  O  O5  1  0.99419600  0.94603600  0.11657500  1
  O  O6  1  0.90543500  0.90190800  0.62761200  1
  O  O7  1  0.31057800  0.72281000  0.34342000  1
  O  O8  1  0.94486000  0.67055700  0.51907000  1
  O  O9  1  0.55912700  0.63649700  0.35313300  1
  O  O10  1  0.18509500  0.32676100  0.02071100  1
  O  O11  1  0.16941100  0.37768200  0.78203000  1
  O  O12  1  0.68942200  0.27719000  0.65658000  1
  O  O13  1  0.29399600  0.09598500  0.39506400  1
  O  O14  1  0.79399600  0.90401500  0.10493600  1
  O  O15  1  0.81490500  0.67323900  0.97928900  1
  O  O16  1  0.02482000  0.07143400  0.72912600  1
  O  O17  1  0.70600400  0.90401500  0.60493600  1
  O  O18  1  0.66941100  0.62231800  0.71797000  1
  O  O19  1  0.88669900  0.36061400  0.70240600  1
  O  O20  1  0.29585200  0.09322100  0.73932100  1
  O  O21  1  0.15626100  0.63794600  0.44008300  1
  O  O22  1  0.59456500  0.90190800  0.12761200  1
  O  O23  1  0.05515100  0.67103700  0.99718600  1
  O  O24  1  0.33058900  0.37768200  0.28203000  1
  O  O25  1  0.44484900  0.67103700  0.49718600  1
  O  O26  1  0.84373900  0.36205400  0.55991700  1
  O  O27  1  0.18942200  0.72281000  0.84342000  1
  O  O28  1  0.55515100  0.32896300  0.50281400  1
  O  O29  1  0.70414800  0.90677900  0.26067900  1
  O  O30  1  0.38669900  0.63938600  0.79759400  1
  O  O31  1  0.50580400  0.94603600  0.61657500  1
  O  O32  1  0.05514000  0.32944300  0.48093000  1
  O  O33  1  0.52482000  0.92856600  0.77087400  1
  O  O34  1  0.05912700  0.36350300  0.14686700  1
  O  O35  1  0.65626100  0.36205400  0.05991700  1
  O  O36  1  0.94087300  0.63649700  0.85313300  1
  O  O37  1  0.40543500  0.09809200  0.87238800  1
  O  O38  1  0.09456500  0.09809200  0.37238800  1
  O  O39  1  0.81057800  0.27719000  0.15658000  1
  O  O40  1  0.86614000  0.68479300  0.37704500  1
  O  O41  1  0.00580400  0.05396400  0.88342500  1
  O  O42  1  0.34373900  0.63794600  0.94008300  1
  O  O43  1  0.13386000  0.31520700  0.62295500  1
  O  O44  1  0.49419600  0.05396400  0.38342500  1
  O  O45  1  0.20414800  0.09322100  0.23932100  1
  O  O46  1  0.36614000  0.31520700  0.12295500  1
  O  O47  1  0.31490500  0.32676100  0.52071100  1
  O  O48  1  0.68509500  0.67323900  0.47928900  1
  O  O49  1  0.47518000  0.07143400  0.22912600  1
  O  O50  1  0.44486000  0.32944300  0.98093000  1
  O  O51  1  0.11330100  0.63938600  0.29759400  1
  O  O52  1  0.79585200  0.90677900  0.76067900  1
  O  O53  1  0.55514000  0.67055700  0.01907000  1
  O  O54  1  0.97518000  0.92856600  0.27087400  1
  O  O55  1  0.63386000  0.68479300  0.87704500  1
loop_
_geom_bond_atom_site_label_1
_geom_bond_atom_site_label_2
_geom_bond_distance
_geom_bond_site_symmetry_2
Ru0 S0 2.522498 1_555
Ru0 S7 2.541733 1_555
Ru1 S6 2.522498 1_555
Ru1 S4 2.541733 1_555
Ru2 S2 2.515276 1_555
Ru2 S5 2.520542 1_555
Ru3 S1 2.501741 1_555
Ru3 S3 2.502410 1_555
Ru5 S6 2.515276 1_555
Ru5 S4 2.520542 1_555
Ru7 S0 2.515276 1_555
Ru7 S7 2.520542 1_555
Ru8 S4 2.495109 1_555
Ru8 S6 2.499065 1_555
Ru9 S7 2.495109 1_555
Ru9 S0 2.499065 1_555
Ru10 S5 2.495109 1_555
Ru10 S2 2.499065 1_555
Ru11 S6 2.501741 1_555
Ru11 S4 2.502410 1_555
Ru12 S2 2.501741 1_555
Ru12 S5 2.502410 1_555
Ru13 S1 2.515276 1_555
Ru13 S3 2.520542 1_555
Ru14 S0 2.501741 1_555
Ru14 S7 2.502410 1_555
Ru15 S2 2.522498 1_555
Ru15 S5 2.541733 1_555
Ru18 S3 2.495109 1_555
Ru18 S1 2.499065 1_555
Ru19 S1 2.522498 1_555
Ru19 S3 2.541733 1_555
C0 O55 1.166406 1_555
C0 Ru7 1.862954 1_555
C1 O26 1.162731 1_555
C1 Ru10 1.931309 1_555
C2 O30 1.156799 1_555
C2 Ru4 1.908606 1_555
C3 O32 1.164730 1_655
C3 Ru2 1.868310 1_555
C4 O49 1.166087 1_565
C4 Ru1 1.862450 1_555
C5 O14 1.158342 1_545
C5 Ru9 1.896849 1_554
C6 O9 1.157852 1_555
C6 Ru6 1.915883 1_555
C7 O33 1.166087 1_545
C7 Ru0 1.862450 1_555
C8 O20 1.168203 1_555
C8 Ru3 1.945088 1_545
C9 O47 1.160807 1_555
C9 Ru3 1.898721 1_545
C10 O50 1.164730 1_555
C10 Ru7 1.868310 1_555
C11 O27 1.165896 1_555
C11 Ru19 1.868209 1_555
C12 O34 1.157852 1_555
C12 Ru17 1.915883 1_455
C13 O31 1.161382 1_555
C13 Ru3 1.890740 1_555
C14 O8 1.164730 1_455
C14 Ru13 1.868310 1_555
C15 O42 1.162731 1_555
C15 Ru8 1.931309 1_556
C16 O18 1.155413 1_555
C16 Ru4 1.961559 1_555
C17 O0 1.157852 1_555
C17 Ru4 1.915883 1_555
C18 O44 1.161382 1_555
C18 Ru12 1.890740 1_555
C19 O52 1.168203 1_555
C19 Ru14 1.945088 1_565
C20 O12 1.165896 1_555
C20 Ru0 1.868209 1_555
C21 O53 1.164730 1_555
C21 Ru5 1.868310 1_555
C22 O38 1.155720 1_555
C22 Ru17 1.961027 1_455
C23 O19 1.156799 1_555
C23 Ru16 1.908606 1_655
C24 O39 1.165896 1_555
C24 Ru15 1.868209 1_555
C25 O16 1.166087 1_565
C25 Ru19 1.862450 1_555
C26 O43 1.166406 1_555
C26 Ru13 1.862954 1_555
C27 O2 1.155413 1_555
C27 Ru17 1.961559 1_555
C28 O21 1.162731 1_555
C28 Ru18 1.931309 1_555
C29 O10 1.160807 1_555
C29 Ru11 1.898721 1_545
C30 O40 1.166406 1_555
C30 Ru2 1.862954 1_555
C31 O35 1.162731 1_555
C31 Ru9 1.931309 1_554
C32 O29 1.168203 1_555
C32 Ru12 1.945088 1_565
C33 O41 1.161382 1_655
C33 Ru14 1.890740 1_555
C34 O45 1.168203 1_555
C34 Ru11 1.945088 1_545
C35 O6 1.155720 1_555
C35 Ru16 1.961027 1_655
C36 O11 1.155413 1_555
C36 Ru16 1.961559 1_555
C37 O17 1.158342 1_545
C37 Ru10 1.896849 1_555
C38 O25 1.160037 1_555
C38 Ru18 1.898252 1_555
C39 O54 1.166087 1_545
C39 Ru15 1.862450 1_555
C40 O37 1.155720 1_555
C40 Ru4 1.961027 1_555
C41 O48 1.160807 1_555
C41 Ru12 1.898721 1_565
C42 O28 1.160037 1_555
C42 Ru10 1.898252 1_555
C43 O24 1.155413 1_555
C43 Ru6 1.961559 1_555
C44 O23 1.160037 1_554
C44 Ru8 1.898252 1_555
C45 O51 1.156799 1_555
C45 Ru17 1.908606 1_455
C46 O4 1.158342 1_565
C46 Ru8 1.896849 1_556
C47 O46 1.166406 1_555
C47 Ru5 1.862954 1_555
C48 O22 1.155720 1_555
C48 Ru6 1.961027 1_555
C49 O5 1.161382 1_455
C49 Ru11 1.890740 1_555
C50 O15 1.160807 1_555
C50 Ru14 1.898721 1_565
C51 O3 1.156799 1_555
C51 Ru6 1.908606 1_555
C52 O36 1.157852 1_555
C52 Ru16 1.915883 1_655
C53 O13 1.158342 1_565
C53 Ru18 1.896849 1_555
C54 O7 1.165896 1_555
C54 Ru1 1.868209 1_555
C55 O1 1.160037 1_556
C55 Ru9 1.898252 1_555
