# generated using pymatgen
data_K5Th(PS4)3
_symmetry_space_group_name_H-M   'P 1'
_cell_length_a   11.58655900
_cell_length_b   9.84923400
_cell_length_c   22.55143464
_cell_angle_alpha   64.22836780
_cell_angle_beta   90.00000000
_cell_angle_gamma   90.00000000
_symmetry_Int_Tables_number   1
_chemical_formula_structural   K5Th(PS4)3
_chemical_formula_sum   'K20 Th4 P12 S48'
_cell_volume   2317.56164403
_cell_formula_units_Z   4
loop_
 _symmetry_equiv_pos_site_id
 _symmetry_equiv_pos_as_xyz
  1  'x, y, z'
loop_
 _atom_site_type_symbol
 _atom_site_label
 _atom_site_symmetry_multiplicity
 _atom_site_fract_x
 _atom_site_fract_y
 _atom_site_fract_z
 _atom_site_occupancy
  K  K0  1  0.40789000  0.55739400  0.08362700  1
  K  K1  1  0.35937500  0.69875100  0.42073900  1
  K  K2  1  0.85937500  0.30124900  0.07926100  1
  K  K3  1  0.90382500  0.72142700  0.09723500  1
  K  K4  1  0.09211000  0.55739400  0.58362700  1
  K  K5  1  0.40382500  0.27857300  0.40276500  1
  K  K6  1  0.89214400  0.07908900  0.75028200  1
  K  K7  1  0.90789000  0.44260600  0.41637300  1
  K  K8  1  0.59617500  0.72142700  0.59723500  1
  K  K9  1  0.39214400  0.92091100  0.74971800  1
  K  K10  1  0.59211000  0.44260600  0.91637300  1
  K  K11  1  0.34413900  0.37254600  0.74194500  1
  K  K12  1  0.14062500  0.69875100  0.92073900  1
  K  K13  1  0.60785600  0.07908900  0.25028200  1
  K  K14  1  0.10785600  0.92091100  0.24971800  1
  K  K15  1  0.84413900  0.62745400  0.75805500  1
  K  K16  1  0.15586100  0.37254600  0.24194500  1
  K  K17  1  0.64062500  0.30124900  0.57926100  1
  K  K18  1  0.65586100  0.62745400  0.25805500  1
  K  K19  1  0.09617500  0.27857300  0.90276500  1
  Th  Th0  1  0.35169900  0.02578800  0.08135900  1
  Th  Th1  1  0.14830100  0.02578800  0.58135900  1
  Th  Th2  1  0.85169900  0.97421200  0.41864100  1
  Th  Th3  1  0.64830100  0.97421200  0.91864100  1
  P  P0  1  0.32890900  0.98876300  0.91893800  1
  P  P1  1  0.66899600  0.33467700  0.76249300  1
  P  P2  1  0.83100400  0.33467700  0.26249300  1
  P  P3  1  0.18940400  0.30004400  0.07913200  1
  P  P4  1  0.67109100  0.01123700  0.08106200  1
  P  P5  1  0.33100400  0.66532300  0.23750700  1
  P  P6  1  0.68940400  0.69995600  0.42086800  1
  P  P7  1  0.81059600  0.69995600  0.92086800  1
  P  P8  1  0.17109100  0.98876300  0.41893800  1
  P  P9  1  0.16899600  0.66532300  0.73750700  1
  P  P10  1  0.31059600  0.30004400  0.57913200  1
  P  P11  1  0.82890900  0.01123700  0.58106200  1
  S  S0  1  0.56865400  0.14519100  0.78170900  1
  S  S1  1  0.93568400  0.18050400  0.58040500  1
  S  S2  1  0.22952700  0.90411700  0.00263600  1
  S  S3  1  0.06309600  0.14295200  0.43159100  1
  S  S4  1  0.29736500  0.19667800  0.15915000  1
  S  S5  1  0.10209300  0.47494300  0.08075400  1
  S  S6  1  0.06865400  0.85480900  0.71829100  1
  S  S7  1  0.39790700  0.47494300  0.58075400  1
  S  S8  1  0.22800600  0.06626400  0.83940100  1
  S  S9  1  0.22310500  0.75017900  0.15569400  1
  S  S10  1  0.56431600  0.18050400  0.08040500  1
  S  S11  1  0.76256200  0.40416000  0.67891900  1
  S  S12  1  0.07614500  0.48934100  0.73828200  1
  S  S13  1  0.43134600  0.85480900  0.21829100  1
  S  S14  1  0.42385500  0.48934100  0.23828200  1
  S  S15  1  0.27047300  0.90411700  0.50263600  1
  S  S16  1  0.89790700  0.52505700  0.91924600  1
  S  S17  1  0.77047300  0.09588300  0.99736400  1
  S  S18  1  0.93134600  0.14519100  0.28170900  1
  S  S19  1  0.06431600  0.81949600  0.41959500  1
  S  S20  1  0.56309600  0.85704800  0.06840900  1
  S  S21  1  0.27199400  0.06626400  0.33940100  1
  S  S22  1  0.70263500  0.80332200  0.84085000  1
  S  S23  1  0.26256200  0.59584000  0.82108100  1
  S  S24  1  0.72800600  0.93373600  0.66059900  1
  S  S25  1  0.79736500  0.80332200  0.34085000  1
  S  S26  1  0.59511200  0.87610000  0.42166300  1
  S  S27  1  0.09511200  0.12390000  0.07833700  1
  S  S28  1  0.77689500  0.24982100  0.84430600  1
  S  S29  1  0.70277600  0.64214900  0.00090800  1
  S  S30  1  0.23743800  0.59584000  0.32108100  1
  S  S31  1  0.73743800  0.40416000  0.17891900  1
  S  S32  1  0.40488800  0.12390000  0.57833700  1
  S  S33  1  0.90488800  0.87610000  0.92166300  1
  S  S34  1  0.93690400  0.85704800  0.56840900  1
  S  S35  1  0.20263500  0.19667800  0.65915000  1
  S  S36  1  0.72310500  0.24982100  0.34430600  1
  S  S37  1  0.72952700  0.09588300  0.49736400  1
  S  S38  1  0.20277600  0.35785100  0.49909200  1
  S  S39  1  0.43690400  0.14295200  0.93159100  1
  S  S40  1  0.57614500  0.51065900  0.76171800  1
  S  S41  1  0.29722400  0.35785100  0.99909200  1
  S  S42  1  0.77199400  0.93373600  0.16059900  1
  S  S43  1  0.79722400  0.64214900  0.50090800  1
  S  S44  1  0.27689500  0.75017900  0.65569400  1
  S  S45  1  0.60209300  0.52505700  0.41924600  1
  S  S46  1  0.92385500  0.51065900  0.26171800  1
  S  S47  1  0.43568400  0.81949600  0.91959500  1
loop_
_geom_bond_atom_site_label_1
_geom_bond_atom_site_label_2
_geom_bond_distance
_geom_bond_site_symmetry_2
K0 S14 3.258019 1_555
K0 S20 3.343868 1_555
K0 S4 3.449811 1_555
K0 S47 3.485364 1_554
K0 S41 3.521228 1_554
K0 P3 3.614817 1_555
K0 S5 3.641872 1_555
K0 S9 3.676155 1_555
K0 S2 3.720889 1_555
K0 S29 3.807428 1_555
K1 S30 3.171006 1_555
K1 S26 3.247101 1_555
K1 S45 3.299506 1_555
K1 S7 3.341135 1_555
K1 S21 3.423219 1_565
K1 S15 3.436834 1_555
K1 S38 3.539621 1_555
K1 S19 3.616065 1_555
K2 S31 3.171006 1_555
K2 S27 3.247101 1_655
K2 S5 3.299506 1_655
K2 S16 3.341135 1_554
K2 S42 3.423219 1_545
K2 S17 3.436834 1_554
K2 S29 3.539621 1_555
K2 S10 3.616065 1_555
K3 S42 3.368381 1_555
K3 S46 3.380307 1_555
K3 S31 3.445152 1_555
K3 S5 3.477600 1_655
K3 S29 3.497143 1_555
K3 S33 3.571094 1_554
K3 S17 3.720069 1_564
K4 S12 3.258019 1_555
K4 S34 3.343868 1_455
K4 S35 3.449811 1_555
K4 S19 3.485364 1_555
K4 S38 3.521228 1_555
K4 P10 3.614817 1_555
K4 S7 3.641872 1_555
K4 S44 3.676155 1_555
K4 S15 3.720889 1_555
K4 S43 3.807428 1_455
K5 S21 3.368381 1_555
K5 S14 3.380307 1_555
K5 S30 3.445152 1_555
K5 S45 3.477600 1_555
K5 S38 3.497143 1_555
K5 S32 3.571094 1_555
K5 S15 3.720069 1_545
K6 S11 3.257993 1_555
K6 S6 3.311874 1_645
K6 S22 3.397965 1_545
K6 S28 3.493903 1_555
K6 S33 3.498159 1_545
K6 S24 3.503504 1_545
K6 S1 3.549796 1_555
K7 S46 3.258019 1_555
K7 S3 3.343868 1_655
K7 S25 3.449811 1_555
K7 S1 3.485364 1_555
K7 S43 3.521228 1_555
K7 P6 3.614817 1_555
K7 S45 3.641872 1_555
K7 S36 3.676155 1_555
K7 S37 3.720889 1_555
K7 S38 3.807428 1_655
K8 S24 3.368381 1_555
K8 S40 3.380307 1_555
K8 S11 3.445152 1_555
K8 S7 3.477600 1_555
K8 S43 3.497143 1_555
K8 S26 3.571094 1_555
K8 S37 3.720069 1_565
K9 S23 3.257993 1_555
K9 S0 3.311874 1_565
K9 S35 3.397965 1_565
K9 S44 3.493903 1_555
K9 S32 3.498159 1_565
K9 S8 3.503504 1_565
K9 S47 3.549796 1_555
K10 S40 3.258019 1_555
K10 S39 3.343868 1_555
K10 S22 3.449811 1_555
K10 S10 3.485364 1_556
K10 S29 3.521228 1_556
K10 P7 3.614817 1_555
K10 S16 3.641872 1_555
K10 S28 3.676155 1_555
K10 S17 3.720889 1_555
K10 S41 3.807428 1_555
K11 S40 3.130956 1_555
K11 S8 3.158444 1_555
K11 S0 3.292325 1_555
K11 S12 3.299894 1_555
K11 S7 3.381003 1_555
K11 S44 3.454469 1_555
K11 S35 3.462240 1_555
K11 S23 3.511137 1_555
K12 S23 3.171006 1_555
K12 S33 3.247101 1_455
K12 S16 3.299506 1_455
K12 S5 3.341135 1_556
K12 S8 3.423219 1_565
K12 S2 3.436834 1_556
K12 S41 3.539621 1_555
K12 S47 3.616065 1_555
K13 S31 3.257993 1_555
K13 S13 3.311874 1_545
K13 S25 3.397965 1_545
K13 S36 3.493903 1_555
K13 S26 3.498159 1_545
K13 S42 3.503504 1_545
K13 S10 3.549796 1_555
K14 S30 3.257993 1_555
K14 S18 3.311874 1_465
K14 S4 3.397965 1_565
K14 S9 3.493903 1_555
K14 S27 3.498159 1_565
K14 S21 3.503504 1_565
K14 S19 3.549796 1_555
K15 S12 3.130956 1_655
K15 S24 3.158444 1_555
K15 S6 3.292325 1_655
K15 S40 3.299894 1_555
K15 S16 3.381003 1_555
K15 S28 3.454469 1_555
K15 S22 3.462240 1_555
K15 S11 3.511137 1_555
K16 S46 3.130956 1_455
K16 S21 3.158444 1_555
K16 S18 3.292325 1_455
K16 S14 3.299894 1_555
K16 S5 3.381003 1_555
K16 S9 3.454469 1_555
K16 S4 3.462240 1_555
K16 S30 3.511137 1_555
K17 S11 3.171006 1_555
K17 S32 3.247101 1_555
K17 S7 3.299506 1_555
K17 S45 3.341135 1_555
K17 S24 3.423219 1_545
K17 S37 3.436834 1_555
K17 S43 3.539621 1_555
K17 S1 3.616065 1_555
K18 S14 3.130956 1_555
K18 S42 3.158444 1_555
K18 S13 3.292325 1_555
K18 S46 3.299894 1_555
K18 S45 3.381003 1_555
K18 S36 3.454469 1_555
K18 S25 3.462240 1_555
K18 S31 3.511137 1_555
K19 S8 3.368381 1_555
K19 S12 3.380307 1_555
K19 S23 3.445152 1_555
K19 S16 3.477600 1_455
K19 S41 3.497143 1_555
K19 S27 3.571094 1_556
K19 S2 3.720069 1_546
P0 S8 1.994039 1_565
P0 S2 2.053124 1_556
P0 S47 2.070913 1_555
P0 S39 2.080923 1_565
P1 S11 2.018463 1_555
P1 S40 2.033629 1_555
P1 S0 2.078280 1_555
P1 S28 2.079569 1_555
P2 S31 2.018463 1_555
P2 S46 2.033629 1_555
P2 S18 2.078280 1_555
P2 S36 2.079569 1_555
P3 S5 2.011705 1_555
P3 S27 2.056888 1_555
P3 S41 2.061372 1_554
P3 S4 2.063975 1_555
P4 S42 1.994039 1_545
P4 S17 2.053124 1_554
P4 S10 2.070913 1_555
P4 S20 2.080923 1_545
P5 S30 2.018463 1_555
P5 S14 2.033629 1_555
P5 S13 2.078280 1_555
P5 S9 2.079569 1_555
P6 S45 2.011705 1_555
P6 S26 2.056888 1_555
P6 S43 2.061372 1_555
P6 S25 2.063975 1_555
P7 S16 2.011705 1_555
P7 S33 2.056888 1_555
P7 S29 2.061372 1_556
P7 S22 2.063975 1_555
P8 S21 1.994039 1_565
P8 S15 2.053124 1_555
P8 S19 2.070913 1_555
P8 S3 2.080923 1_565
P9 S23 2.018463 1_555
P9 S12 2.033629 1_555
P9 S6 2.078280 1_555
P9 S44 2.079569 1_555
P10 S7 2.011705 1_555
P10 S32 2.056888 1_555
P10 S38 2.061372 1_555
P10 S35 2.063975 1_555
P11 S24 1.994039 1_545
P11 S37 2.053124 1_555
P11 S1 2.070913 1_555
P11 S34 2.080923 1_545
S0 Th3 2.949807 1_545
S1 Th1 2.891860 1_655
S2 Th0 2.905446 1_565
S3 Th2 3.044476 1_445
S3 Th1 3.213176 1_555
S4 Th0 2.978999 1_555
S6 Th1 2.949807 1_565
S9 Th0 2.905489 1_565
S10 Th0 2.891860 1_555
S13 Th0 2.949807 1_565
S15 Th1 2.905446 1_565
S17 Th3 2.905446 1_545
S18 Th2 2.949807 1_545
S19 Th2 2.891860 1_455
S20 Th0 3.044476 1_565
S20 Th3 3.213176 1_554
S22 Th3 2.978999 1_555
S25 Th2 2.978999 1_555
S26 Th2 3.117637 1_555
S27 Th0 3.117637 1_555
S28 Th3 2.905489 1_545
S29 Th3 3.043127 1_554
S32 Th1 3.117637 1_555
S33 Th3 3.117637 1_555
S34 Th1 3.044476 1_665
S34 Th2 3.213176 1_555
S35 Th1 2.978999 1_555
S36 Th2 2.905489 1_545
S37 Th2 2.905446 1_545
S38 Th1 3.043127 1_555
S39 Th3 3.044476 1_545
S39 Th0 3.213176 1_556
S41 Th0 3.043127 1_556
S43 Th2 3.043127 1_555
S44 Th1 2.905489 1_565
S47 Th3 2.891860 1_555
