# generated using pymatgen
data_LaP2H2O9
_symmetry_space_group_name_H-M   'P 1'
_cell_length_a   7.29206600
_cell_length_b   9.35608400
_cell_length_c   13.63076520
_cell_angle_alpha   75.29043483
_cell_angle_beta   90.00000000
_cell_angle_gamma   90.00000000
_symmetry_Int_Tables_number   1
_chemical_formula_structural   LaP2H2O9
_chemical_formula_sum   'La4 P8 H8 O36'
_cell_volume   899.48230083
_cell_formula_units_Z   4
loop_
 _symmetry_equiv_pos_site_id
 _symmetry_equiv_pos_as_xyz
  1  'x, y, z'
loop_
 _atom_site_type_symbol
 _atom_site_label
 _atom_site_symmetry_multiplicity
 _atom_site_fract_x
 _atom_site_fract_y
 _atom_site_fract_z
 _atom_site_occupancy
  La  La0  1  0.75469700  0.95569300  0.32825700  1
  La  La1  1  0.25469700  0.04430700  0.17174300  1
  La  La2  1  0.24530300  0.04430700  0.67174300  1
  La  La3  1  0.74530300  0.95569300  0.82825700  1
  P  P0  1  0.74266200  0.03235400  0.08145100  1
  P  P1  1  0.24266200  0.96764600  0.41854900  1
  P  P2  1  0.25733800  0.96764600  0.91854900  1
  P  P3  1  0.75733800  0.03235400  0.58145100  1
  P  P4  1  0.54460300  0.31821900  0.25647400  1
  P  P5  1  0.04460300  0.68178100  0.24352600  1
  P  P6  1  0.45539700  0.68178100  0.74352600  1
  P  P7  1  0.95539700  0.31821900  0.75647400  1
  H  H0  1  0.70926000  0.17926400  0.02585900  1
  H  H1  1  0.20926000  0.82073600  0.47414100  1
  H  H2  1  0.29074000  0.82073600  0.97414100  1
  H  H3  1  0.79074000  0.17926400  0.52585900  1
  H  H4  1  0.46314600  0.36388200  0.33702400  1
  H  H5  1  0.96314600  0.63611800  0.16297600  1
  H  H6  1  0.53685400  0.63611800  0.66297600  1
  H  H7  1  0.03685400  0.36388200  0.83702400  1
  O  O0  1  0.58267500  0.98574300  0.15875500  1
  O  O1  1  0.08267500  0.01425700  0.34124500  1
  O  O2  1  0.41732500  0.01425700  0.84124500  1
  O  O3  1  0.91732500  0.98574300  0.65875500  1
  O  O4  1  0.91634800  0.03286900  0.14715200  1
  O  O5  1  0.41634800  0.96713100  0.35284800  1
  O  O6  1  0.08365200  0.96713100  0.85284800  1
  O  O7  1  0.58365200  0.03286900  0.64715200  1
  O  O8  1  0.75601700  0.93888500  0.00502500  1
  O  O9  1  0.25601700  0.06111500  0.49497500  1
  O  O10  1  0.24398300  0.06111500  0.99497500  1
  O  O11  1  0.74398300  0.93888500  0.50502500  1
  O  O12  1  0.70922000  0.22065700  0.29039500  1
  O  O13  1  0.20922000  0.77934300  0.20960500  1
  O  O14  1  0.29078000  0.77934300  0.70960500  1
  O  O15  1  0.79078000  0.22065700  0.79039500  1
  O  O16  1  0.64352500  0.48090500  0.18965300  1
  O  O17  1  0.14352500  0.51909500  0.31034700  1
  O  O18  1  0.35647500  0.51909500  0.81034700  1
  O  O19  1  0.85647500  0.48090500  0.68965300  1
  O  O20  1  0.40040300  0.27188100  0.19172700  1
  O  O21  1  0.90040300  0.72811900  0.30827300  1
  O  O22  1  0.59959700  0.72811900  0.80827300  1
  O  O23  1  0.09959700  0.27188100  0.69172700  1
  O  O24  1  0.63650800  0.60967100  0.45925300  1
  O  O25  1  0.13650800  0.39032900  0.04074700  1
  O  O26  1  0.36349200  0.39032900  0.54074700  1
  O  O27  1  0.86349200  0.60967100  0.95925300  1
  O  O28  1  0.48532700  0.41559500  0.84752700  1
  O  O29  1  0.98532700  0.58440500  0.65247300  1
  O  O30  1  0.51467300  0.58440500  0.15247300  1
  O  O31  1  0.01467300  0.41559500  0.34752700  1
  O  O32  1  0.76622500  0.49872600  0.97438300  1
  O  O33  1  0.26622500  0.50127400  0.52561700  1
  O  O34  1  0.23377500  0.50127400  0.02561700  1
  O  O35  1  0.73377500  0.49872600  0.47438300  1
loop_
_geom_bond_atom_site_label_1
_geom_bond_atom_site_label_2
_geom_bond_distance
_geom_bond_site_symmetry_2
La0 O11 2.375714 1_555
La0 O12 2.423254 1_565
La0 O21 2.455838 1_555
La0 O1 2.469972 1_665
La0 O5 2.495879 1_555
La0 O0 2.580855 1_555
La0 O4 2.664516 1_565
La1 O10 2.375714 1_554
La1 O13 2.423254 1_545
La1 O20 2.455838 1_555
La1 O0 2.469972 1_545
La1 O4 2.495879 1_455
La1 O1 2.580855 1_555
La1 O5 2.664516 1_545
La2 O9 2.375714 1_555
La2 O14 2.423254 1_545
La2 O23 2.455838 1_555
La2 O3 2.469972 1_445
La2 O7 2.495879 1_555
La2 O2 2.580855 1_555
La2 O6 2.664516 1_545
La3 O8 2.375714 1_556
La3 O15 2.423254 1_565
La3 O22 2.455838 1_555
La3 O2 2.469972 1_565
La3 O6 2.495879 1_655
La3 O3 2.580855 1_555
La3 O7 2.664516 1_565
H0 P0 1.412037 1_555
H1 P1 1.412037 1_555
H2 P2 1.412037 1_555
H3 P3 1.412037 1_555
H4 P4 1.406796 1_555
H5 P5 1.406796 1_655
H6 P6 1.406796 1_555
H7 P7 1.406796 1_455
O0 P0 1.558258 1_565
O1 P1 1.558258 1_545
O2 P2 1.558258 1_545
O3 P3 1.558258 1_565
O4 P0 1.551880 1_555
O5 P1 1.551880 1_555
O6 P2 1.551880 1_555
O7 P3 1.551880 1_555
O8 P0 1.523850 1_565
O9 P1 1.523850 1_545
O10 P2 1.523850 1_545
O11 P3 1.523850 1_565
O12 P4 1.507849 1_555
O13 P5 1.507849 1_555
O14 P6 1.507849 1_555
O15 P7 1.507849 1_555
O16 O30 1.352098 1_555
O16 P4 1.721245 1_555
O17 O31 1.352098 1_555
O17 P5 1.721245 1_555
O18 O28 1.352098 1_555
O18 P6 1.721245 1_555
O19 O29 1.352098 1_555
O19 P7 1.721245 1_555
O20 P4 1.505607 1_555
O21 P5 1.505607 1_655
O22 P6 1.505607 1_555
O23 P7 1.505607 1_455
O24 O35 1.230593 1_555
O25 O34 1.230593 1_555
O26 O33 1.230593 1_555
O27 O32 1.230593 1_555
