# generated using pymatgen
data_NaAsH4O5
_symmetry_space_group_name_H-M   'P 1'
_cell_length_a   7.22273800
_cell_length_b   5.63177700
_cell_length_c   5.91831995
_cell_angle_alpha   87.49312461
_cell_angle_beta   90.00000000
_cell_angle_gamma   90.00000000
_symmetry_Int_Tables_number   1
_chemical_formula_structural   NaAsH4O5
_chemical_formula_sum   'Na2 As2 H8 O10'
_cell_volume   240.50821971
_cell_formula_units_Z   2
loop_
 _symmetry_equiv_pos_site_id
 _symmetry_equiv_pos_as_xyz
  1  'x, y, z'
loop_
 _atom_site_type_symbol
 _atom_site_label
 _atom_site_symmetry_multiplicity
 _atom_site_fract_x
 _atom_site_fract_y
 _atom_site_fract_z
 _atom_site_occupancy
  Na  Na0  1  0.50000000  0.00000000  0.00000000  1
  Na  Na1  1  0.00000000  0.00000000  0.00000000  1
  As  As0  1  0.25000000  0.31443400  0.47572900  1
  As  As1  1  0.75000000  0.68556600  0.52427100  1
  H  H0  1  0.55617100  0.26284100  0.58706700  1
  H  H1  1  0.05617100  0.73715900  0.41293300  1
  H  H2  1  0.44382900  0.73715900  0.41293300  1
  H  H3  1  0.94382900  0.26284100  0.58706700  1
  H  H4  1  0.25000000  0.66982900  0.80050400  1
  H  H5  1  0.75000000  0.33017100  0.19949600  1
  H  H6  1  0.25000000  0.55529200  0.04755800  1
  H  H7  1  0.75000000  0.44470800  0.95244200  1
  O  O0  1  0.43199000  0.19758500  0.64368600  1
  O  O1  1  0.93199000  0.80241500  0.35631400  1
  O  O2  1  0.56801000  0.80241500  0.35631400  1
  O  O3  1  0.06801000  0.19758500  0.64368600  1
  O  O4  1  0.25000000  0.22960100  0.20656700  1
  O  O5  1  0.75000000  0.77039900  0.79343300  1
  O  O6  1  0.25000000  0.61821800  0.49948500  1
  O  O7  1  0.75000000  0.38178200  0.50051500  1
  O  O8  1  0.25000000  0.70999800  0.96258000  1
  O  O9  1  0.75000000  0.29000200  0.03742000  1
loop_
_geom_bond_atom_site_label_1
_geom_bond_atom_site_label_2
_geom_bond_distance
_geom_bond_site_symmetry_2
Na0 O2 2.391903 1_545
Na0 O0 2.391903 1_554
Na0 O9 2.451247 1_555
Na0 O8 2.451247 1_544
Na0 O4 2.562298 1_555
Na0 O5 2.562298 1_544
Na1 O1 2.391903 1_445
Na1 O3 2.391903 1_554
Na1 O8 2.451247 1_544
Na1 O9 2.451247 1_455
Na1 O4 2.562298 1_555
Na1 O5 2.562298 1_444
As0 O4 1.682985 1_555
As0 O6 1.722729 1_555
As0 O3 1.758333 1_555
As0 O0 1.758333 1_555
As1 O5 1.682985 1_555
As1 O7 1.722729 1_555
As1 O2 1.758333 1_555
As1 O1 1.758333 1_555
H0 O0 1.020319 1_555
H0 O7 1.625118 1_555
H1 O1 1.020319 1_455
H1 O6 1.625118 1_555
H2 O2 1.020319 1_555
H2 O6 1.625118 1_555
H3 O3 1.020319 1_655
H3 O7 1.625118 1_555
H4 O8 0.995117 1_555
H5 O9 0.995117 1_555
H6 O8 0.986770 1_554
H7 O9 0.986770 1_556
