# generated using pymatgen
data_Bi2O3
_symmetry_space_group_name_H-M   'P 1'
_cell_length_a   6.90864600
_cell_length_b   7.65890500
_cell_length_c   8.16589967
_cell_angle_alpha   107.14477712
_cell_angle_beta   90.01253141
_cell_angle_gamma   110.94887608
_symmetry_Int_Tables_number   1
_chemical_formula_structural   Bi2O3
_chemical_formula_sum   'Bi8 O12'
_cell_volume   382.87784083
_cell_formula_units_Z   4
loop_
 _symmetry_equiv_pos_site_id
 _symmetry_equiv_pos_as_xyz
  1  'x, y, z'
loop_
 _atom_site_type_symbol
 _atom_site_label
 _atom_site_symmetry_multiplicity
 _atom_site_fract_x
 _atom_site_fract_y
 _atom_site_fract_z
 _atom_site_occupancy
  Bi  Bi0  1  0.80138500  0.91149200  0.88234100  1
  Bi  Bi1  1  0.17533300  0.07977000  0.62013000  1
  Bi  Bi2  1  0.03827500  0.52327300  0.48574200  1
  Bi  Bi3  1  0.58506800  0.91866800  0.40717400  1
  Bi  Bi4  1  0.81978900  0.44262300  0.93559200  1
  Bi  Bi5  1  0.28188500  0.96731200  0.08598600  1
  Bi  Bi6  1  0.55093400  0.50107600  0.55418600  1
  Bi  Bi7  1  0.36067800  0.49143400  0.05779900  1
  O  O0  1  0.39749700  0.60484900  0.34930900  1
  O  O1  1  0.81627000  0.85099600  0.58616600  1
  O  O2  1  0.38233000  0.88493200  0.66055300  1
  O  O3  1  0.47829500  0.35637200  0.77917400  1
  O  O4  1  0.47553500  0.96935600  0.84356500  1
  O  O5  1  0.16336900  0.30782200  0.50088900  1
  O  O6  1  0.62383200  0.76413000  0.11467100  1
  O  O7  1  0.70895000  0.33570500  0.37943800  1
  O  O8  1  0.16490200  0.64697500  0.01928500  1
  O  O9  1  0.88971800  0.56654600  0.72904700  1
  O  O10  1  0.26506500  0.94475400  0.36842600  1
  O  O11  1  0.95749100  0.22391400  0.89632700  1
loop_
_geom_bond_atom_site_label_1
_geom_bond_atom_site_label_2
_geom_bond_distance
_geom_bond_site_symmetry_2
Bi0 O11 2.212516 1_565
Bi0 O1 2.334111 1_555
Bi0 O4 2.481997 1_555
Bi0 O6 2.579001 1_556
Bi0 O9 2.849998 1_555
Bi1 O10 2.210000 1_545
Bi1 O5 2.260873 1_555
Bi1 O3 2.400320 1_555
Bi1 O1 2.430167 1_445
Bi1 O2 2.489383 1_545
Bi2 O5 2.150609 1_555
Bi2 O7 2.218218 1_455
Bi2 O9 2.228561 1_455
Bi2 O0 2.663350 1_555
Bi3 O0 2.186864 1_555
Bi3 O10 2.319573 1_555
Bi3 O6 2.395402 1_555
Bi3 O1 2.448251 1_555
Bi3 O2 2.523347 1_555
Bi4 O9 2.143640 1_555
Bi4 O11 2.153298 1_555
Bi4 O8 2.302528 1_656
Bi4 O3 2.453722 1_555
Bi5 O8 2.182485 1_555
Bi5 O10 2.362925 1_555
Bi5 O4 2.390256 1_554
Bi6 O7 2.180829 1_555
Bi6 O3 2.378800 1_555
Bi6 O0 2.437200 1_555
Bi6 O5 2.516992 1_555
Bi6 O9 2.550615 1_555
Bi6 O1 2.585561 1_555
Bi7 O6 2.143735 1_555
Bi7 O8 2.172623 1_555
Bi7 O0 2.260174 1_555
Bi7 O3 2.474111 1_554
O2 O4 1.482655 1_555
