# generated using pymatgen
data_BaCdP2O7
_symmetry_space_group_name_H-M   'P 1'
_cell_length_a   5.74054100
_cell_length_b   7.17602060
_cell_length_c   7.77479402
_cell_angle_alpha   101.58412970
_cell_angle_beta   89.41554269
_cell_angle_gamma   93.62084007
_symmetry_Int_Tables_number   1
_chemical_formula_structural   BaCdP2O7
_chemical_formula_sum   'Ba2 Cd2 P4 O14'
_cell_volume   313.12567374
_cell_formula_units_Z   2
loop_
 _symmetry_equiv_pos_site_id
 _symmetry_equiv_pos_as_xyz
  1  'x, y, z'
loop_
 _atom_site_type_symbol
 _atom_site_label
 _atom_site_symmetry_multiplicity
 _atom_site_fract_x
 _atom_site_fract_y
 _atom_site_fract_z
 _atom_site_occupancy
  Ba  Ba0  1  0.23700500  0.76447200  0.43849600  1
  Ba  Ba1  1  0.76299500  0.23552800  0.56150400  1
  Cd  Cd0  1  0.21086100  0.65255500  0.90098500  1
  Cd  Cd1  1  0.78913900  0.34744500  0.09901500  1
  P  P0  1  0.71882400  0.83150300  0.09546600  1
  P  P1  1  0.28117600  0.16849700  0.90453400  1
  P  P2  1  0.71957000  0.73345900  0.70324000  1
  P  P3  1  0.28043000  0.26654100  0.29676000  1
  O  O0  1  0.47404000  0.73916800  0.11894000  1
  O  O1  1  0.52596000  0.26083200  0.88106000  1
  O  O2  1  0.76841400  0.02659200  0.21067300  1
  O  O3  1  0.23158600  0.97340800  0.78932700  1
  O  O4  1  0.90770800  0.68728600  0.10792900  1
  O  O5  1  0.09229200  0.31271400  0.89207100  1
  O  O6  1  0.49140500  0.60646000  0.69035900  1
  O  O7  1  0.50859500  0.39354000  0.30964100  1
  O  O8  1  0.06742200  0.39084300  0.31379100  1
  O  O9  1  0.93257800  0.60915700  0.68620900  1
  O  O10  1  0.26714600  0.12807800  0.10442000  1
  O  O11  1  0.73285400  0.87192200  0.89558000  1
  O  O12  1  0.27070300  0.13849400  0.43150700  1
  O  O13  1  0.72929700  0.86150600  0.56849300  1
loop_
_geom_bond_atom_site_label_1
_geom_bond_atom_site_label_2
_geom_bond_distance
_geom_bond_site_symmetry_2
Ba0 O12 2.690158 1_565
Ba0 O8 2.778844 1_555
Ba0 O0 2.799680 1_555
Ba0 O3 2.837372 1_555
Ba0 O6 2.900377 1_555
Ba0 O9 2.924513 1_455
Ba0 O13 3.003307 1_555
Ba0 O4 3.143359 1_455
Ba0 O13 3.148712 1_455
Ba0 O7 3.152928 1_555
Ba1 O13 2.690158 1_545
Ba1 O9 2.778844 1_555
Ba1 O1 2.799680 1_555
Ba1 O2 2.837372 1_555
Ba1 O7 2.900377 1_555
Ba1 O8 2.924513 1_655
Ba1 O12 3.003307 1_555
Ba1 O5 3.143359 1_655
Ba1 O12 3.148712 1_655
Ba1 O6 3.152928 1_555
Cd0 O0 2.247431 1_556
Cd0 O6 2.276099 1_555
Cd0 O9 2.284747 1_455
Cd0 O4 2.348606 1_456
Cd0 O5 2.477660 1_555
Cd0 O3 2.614400 1_555
Cd1 O1 2.247431 1_554
Cd1 O7 2.276099 1_555
Cd1 O8 2.284747 1_655
Cd1 O5 2.348606 1_654
Cd1 O4 2.477660 1_555
Cd1 O2 2.614400 1_555
O0 P0 1.540339 1_555
O1 P1 1.540339 1_555
O2 P0 1.514757 1_545
O3 P1 1.514757 1_565
O4 P0 1.562135 1_555
O5 P1 1.562135 1_555
O6 P2 1.539931 1_555
O7 P3 1.539931 1_555
O8 P3 1.547710 1_555
O9 P2 1.547710 1_555
O10 P3 1.620288 1_555
O10 P1 1.637462 1_554
O11 P2 1.620288 1_555
O11 P0 1.637462 1_556
O12 P3 1.524434 1_555
O13 P2 1.524434 1_555
