# generated using pymatgen
data_K3Co(CN)6
_symmetry_space_group_name_H-M   'P 1'
_cell_length_a   8.34906400
_cell_length_b   10.36524700
_cell_length_c   26.71204400
_cell_angle_alpha   90.00000000
_cell_angle_beta   90.00000000
_cell_angle_gamma   90.00000000
_symmetry_Int_Tables_number   1
_chemical_formula_structural   K3Co(CN)6
_chemical_formula_sum   'K24 Co8 C48 N48'
_cell_volume   2311.66324155
_cell_formula_units_Z   8
loop_
 _symmetry_equiv_pos_site_id
 _symmetry_equiv_pos_as_xyz
  1  'x, y, z'
loop_
 _atom_site_type_symbol
 _atom_site_label
 _atom_site_symmetry_multiplicity
 _atom_site_fract_x
 _atom_site_fract_y
 _atom_site_fract_z
 _atom_site_occupancy
  K  K0  1  0.25367500  0.24381700  0.62838200  1
  K  K1  1  0.74846800  0.49915100  0.24951400  1
  K  K2  1  0.25367500  0.75618300  0.37161800  1
  K  K3  1  0.00982200  0.50000000  0.00000000  1
  K  K4  1  0.24846800  0.99915100  0.75048600  1
  K  K5  1  0.99270900  0.73561800  0.62853000  1
  K  K6  1  0.99482100  0.29114500  0.87278300  1
  K  K7  1  0.49270900  0.23561800  0.37147000  1
  K  K8  1  0.49482100  0.20885500  0.87278300  1
  K  K9  1  0.49270900  0.76438200  0.62853000  1
  K  K10  1  0.75367500  0.25618300  0.62838200  1
  K  K11  1  0.99270900  0.26438200  0.37147000  1
  K  K12  1  0.24846800  0.00084900  0.24951400  1
  K  K13  1  0.50345000  0.00000000  0.50000000  1
  K  K14  1  0.74846800  0.50084900  0.75048600  1
  K  K15  1  0.50982200  0.00000000  0.00000000  1
  K  K16  1  0.25607700  0.22641800  0.12515700  1
  K  K17  1  0.25607700  0.77358200  0.87484300  1
  K  K18  1  0.75607700  0.27358200  0.12515700  1
  K  K19  1  0.75607700  0.72641800  0.87484300  1
  K  K20  1  0.99482100  0.70885500  0.12721700  1
  K  K21  1  0.75367500  0.74381700  0.37161800  1
  K  K22  1  0.00345000  0.50000000  0.50000000  1
  K  K23  1  0.49482100  0.79114500  0.12721700  1
  Co  Co0  1  0.75028100  0.00061300  0.24950500  1
  Co  Co1  1  0.75028100  0.99938700  0.75049500  1
  Co  Co2  1  0.49985200  0.50000000  0.00000000  1
  Co  Co3  1  0.25028100  0.50061300  0.75049500  1
  Co  Co4  1  0.49641800  0.50000000  0.50000000  1
  Co  Co5  1  0.25028100  0.49938700  0.24950500  1
  Co  Co6  1  0.99641800  0.00000000  0.50000000  1
  Co  Co7  1  0.99985200  0.00000000  0.00000000  1
  C  C0  1  0.24417400  0.66564000  0.72214100  1
  C  C1  1  0.59779800  0.94826800  0.29629100  1
  C  C2  1  0.09779800  0.55173200  0.29629100  1
  C  C3  1  0.40788400  0.54862100  0.29747600  1
  C  C4  1  0.49874600  0.33236400  0.02876300  1
  C  C5  1  0.84405600  0.94980400  0.04701900  1
  C  C6  1  0.90788400  0.04862100  0.70252400  1
  C  C7  1  0.90493100  0.94839500  0.79738600  1
  C  C8  1  0.34271700  0.44769700  0.45204300  1
  C  C9  1  0.15482800  0.94874700  0.04732500  1
  C  C10  1  0.59071700  0.95170400  0.79774800  1
  C  C11  1  0.09071700  0.54829600  0.79774800  1
  C  C12  1  0.75536100  0.16520200  0.77774500  1
  C  C13  1  0.25536100  0.66520200  0.22225500  1
  C  C14  1  0.09071700  0.45170400  0.20225200  1
  C  C15  1  0.34271700  0.55230300  0.54795700  1
  C  C16  1  0.09779800  0.44826800  0.70370900  1
  C  C17  1  0.75536100  0.83479800  0.22225500  1
  C  C18  1  0.40788400  0.45137900  0.70252400  1
  C  C19  1  0.34405600  0.55019600  0.04701900  1
  C  C20  1  0.40493100  0.44839500  0.20261400  1
  C  C21  1  0.65350800  0.44948200  0.45376200  1
  C  C22  1  0.49874600  0.66763600  0.97123700  1
  C  C23  1  0.34405600  0.44980400  0.95298100  1
  C  C24  1  0.15350800  0.94948200  0.54623800  1
  C  C25  1  0.84271700  0.94769700  0.54795700  1
  C  C26  1  0.84271700  0.05230300  0.45204300  1
  C  C27  1  0.65482800  0.55125300  0.04732500  1
  C  C28  1  0.99874600  0.83236400  0.97123700  1
  C  C29  1  0.25536100  0.33479800  0.77774500  1
  C  C30  1  0.15350800  0.05051800  0.45376200  1
  C  C31  1  0.84405600  0.05019600  0.95298100  1
  C  C32  1  0.74417400  0.16564000  0.27785900  1
  C  C33  1  0.49987200  0.33301900  0.52904700  1
  C  C34  1  0.59779800  0.05173200  0.70370900  1
  C  C35  1  0.59071700  0.04829600  0.20225200  1
  C  C36  1  0.24417400  0.33436000  0.27785900  1
  C  C37  1  0.65350800  0.55051800  0.54623800  1
  C  C38  1  0.90493100  0.05160500  0.20261400  1
  C  C39  1  0.15482800  0.05125300  0.95267500  1
  C  C40  1  0.74417400  0.83436000  0.72214100  1
  C  C41  1  0.99987200  0.83301900  0.47095300  1
  C  C42  1  0.99987200  0.16698100  0.52904700  1
  C  C43  1  0.65482800  0.44874700  0.95267500  1
  C  C44  1  0.49987200  0.66698100  0.47095300  1
  C  C45  1  0.40493100  0.55160500  0.79738600  1
  C  C46  1  0.99874600  0.16763600  0.02876300  1
  C  C47  1  0.90788400  0.95137900  0.29747600  1
  N  N0  1  0.49792100  0.77008100  0.95223400  1
  N  N1  1  0.75118800  0.58271900  0.57523900  1
  N  N2  1  0.74879400  0.91918000  0.07714200  1
  N  N3  1  0.49837000  0.08357500  0.67524100  1
  N  N4  1  0.50096600  0.23021000  0.54771900  1
  N  N5  1  0.00364200  0.92194100  0.32769300  1
  N  N6  1  0.75829200  0.26803100  0.79608900  1
  N  N7  1  0.75118800  0.41728100  0.42476100  1
  N  N8  1  0.99792100  0.27008100  0.04776600  1
  N  N9  1  0.24879400  0.58082000  0.07714200  1
  N  N10  1  0.49837000  0.91642500  0.32475900  1
  N  N11  1  0.25829200  0.76803100  0.20391100  1
  N  N12  1  0.99332700  0.42153400  0.17264300  1
  N  N13  1  0.50096600  0.76979000  0.45228100  1
  N  N14  1  0.99837000  0.58357500  0.32475900  1
  N  N15  1  0.00676000  0.08206300  0.17480900  1
  N  N16  1  0.50364200  0.57805900  0.32769300  1
  N  N17  1  0.00096600  0.73021000  0.45228100  1
  N  N18  1  0.25107700  0.08382100  0.92316100  1
  N  N19  1  0.24879400  0.41918000  0.92285800  1
  N  N20  1  0.24026300  0.76896800  0.70431300  1
  N  N21  1  0.74695500  0.91416000  0.57752400  1
  N  N22  1  0.50676000  0.41793700  0.17480900  1
  N  N23  1  0.75107700  0.58382100  0.07683900  1
  N  N24  1  0.74026300  0.73103200  0.70431300  1
  N  N25  1  0.99332700  0.57846600  0.82735700  1
  N  N26  1  0.25107700  0.91617900  0.07683900  1
  N  N27  1  0.50364200  0.42194100  0.67230700  1
  N  N28  1  0.25118800  0.91728100  0.57523900  1
  N  N29  1  0.24026300  0.23103200  0.29568700  1
  N  N30  1  0.00096600  0.26979000  0.54771900  1
  N  N31  1  0.49332700  0.92153400  0.82735700  1
  N  N32  1  0.99837000  0.41642500  0.67524100  1
  N  N33  1  0.74879400  0.08082000  0.92285800  1
  N  N34  1  0.49792100  0.22991900  0.04776600  1
  N  N35  1  0.00364200  0.07805900  0.67230700  1
  N  N36  1  0.25829200  0.23196900  0.79608900  1
  N  N37  1  0.99792100  0.72991900  0.95223400  1
  N  N38  1  0.25118800  0.08271900  0.42476100  1
  N  N39  1  0.24695500  0.41416000  0.42247600  1
  N  N40  1  0.74026300  0.26896800  0.29568700  1
  N  N41  1  0.00676000  0.91793700  0.82519100  1
  N  N42  1  0.50676000  0.58206300  0.82519100  1
  N  N43  1  0.75107700  0.41617900  0.92316100  1
  N  N44  1  0.74695500  0.08584000  0.42247600  1
  N  N45  1  0.49332700  0.07846600  0.17264300  1
  N  N46  1  0.24695500  0.58584000  0.57752400  1
  N  N47  1  0.75829200  0.73196900  0.20391100  1
loop_
_geom_bond_atom_site_label_1
_geom_bond_atom_site_label_2
_geom_bond_distance
_geom_bond_site_symmetry_2
K0 N3 2.915346 1_555
K0 N35 2.947282 1_555
K0 N4 2.987521 1_555
K0 N27 3.023416 1_555
K0 N30 3.027657 1_555
K0 N32 3.051435 1_455
K1 N40 2.686716 1_555
K1 N47 2.704483 1_555
K1 N22 2.960272 1_555
K1 N12 3.007153 1_555
K1 N14 3.026369 1_555
K1 N16 3.034511 1_555
K2 N10 2.915346 1_555
K2 N5 2.947282 1_555
K2 N13 2.987521 1_555
K2 N16 3.023416 1_555
K2 N17 3.027657 1_555
K2 N14 3.051435 1_455
K3 N37 2.705060 1_454
K3 N8 2.705060 1_455
K4 N20 2.686716 1_555
K4 N36 2.704483 1_565
K4 N41 2.960272 1_555
K4 N31 3.007153 1_555
K4 N3 3.026369 1_565
K4 N35 3.034511 1_565
K5 N20 2.913624 1_655
K5 N24 2.922751 1_555
K5 N1 2.933302 1_555
K5 N46 2.961836 1_655
K5 N21 3.080767 1_555
K5 N28 3.198315 1_655
K6 N43 2.762591 1_555
K6 N19 2.836666 1_655
K6 N6 2.855556 1_555
K6 N36 3.067906 1_655
K6 N25 3.215889 1_555
K6 N33 3.280427 1_555
K6 N18 3.317590 1_655
K7 N40 2.913624 1_555
K7 N29 2.922751 1_555
K7 N38 2.933302 1_555
K7 N44 2.961836 1_555
K7 N39 3.080767 1_555
K7 N7 3.198315 1_555
K8 N18 2.762591 1_555
K8 N33 2.836666 1_555
K8 N36 2.855556 1_555
K8 N6 3.067906 1_555
K8 N31 3.215889 1_545
K8 N19 3.280427 1_555
K8 N43 3.317590 1_555
K9 N24 2.913624 1_555
K9 N20 2.922751 1_555
K9 N28 2.933302 1_555
K9 N21 2.961836 1_555
K9 N46 3.080767 1_555
K9 N1 3.198315 1_555
K10 N32 2.915346 1_555
K10 N27 2.947282 1_555
K10 N30 2.987521 1_655
K10 N35 3.023416 1_655
K10 N4 3.027657 1_555
K10 N3 3.051435 1_555
K11 N29 2.913624 1_655
K11 N40 2.922751 1_555
K11 N7 2.933302 1_555
K11 N39 2.961836 1_655
K11 N44 3.080767 1_555
K11 N38 3.198315 1_655
K12 N29 2.686716 1_555
K12 N11 2.704483 1_545
K12 N15 2.960272 1_555
K12 N45 3.007153 1_555
K12 N10 3.026369 1_545
K12 N5 3.034511 1_545
K13 N4 2.705382 1_555
K13 N13 2.705382 1_545
K13 N28 3.034841 1_545
K13 N38 3.034841 1_555
K13 N44 3.035329 1_555
K13 N21 3.035329 1_545
K14 N24 2.686716 1_555
K14 N6 2.704483 1_555
K14 N42 2.960272 1_555
K14 N25 3.007153 1_555
K14 N32 3.026369 1_555
K14 N27 3.034511 1_555
K15 N0 2.705060 1_544
K15 N34 2.705060 1_555
K16 N45 2.807916 1_555
K16 N15 2.886319 1_555
K16 N34 2.889979 1_555
K16 N8 3.020599 1_455
K16 N22 3.174963 1_555
K16 N12 3.242153 1_455
K17 N31 2.807916 1_555
K17 N41 2.886319 1_555
K17 N0 2.889979 1_555
K17 N37 3.020599 1_455
K17 N42 3.174963 1_555
K17 N25 3.242153 1_455
K18 N12 2.807916 1_555
K18 N22 2.886319 1_555
K18 N8 2.889979 1_555
K18 N34 3.020599 1_555
K18 N15 3.174963 1_655
K18 N45 3.242153 1_555
K19 N25 2.807916 1_555
K19 N42 2.886319 1_555
K19 N37 2.889979 1_555
K19 N0 3.020599 1_555
K19 N41 3.174963 1_655
K19 N31 3.242153 1_555
K20 N23 2.762591 1_555
K20 N9 2.836666 1_655
K20 N47 2.855556 1_555
K20 N11 3.067906 1_655
K20 N12 3.215889 1_555
K20 N2 3.280427 1_555
K20 N26 3.317590 1_655
K21 N14 2.915346 1_555
K21 N16 2.947282 1_555
K21 N17 2.987521 1_655
K21 N5 3.023416 1_655
K21 N13 3.027657 1_555
K21 N10 3.051435 1_555
K22 N30 2.705382 1_555
K22 N17 2.705382 1_555
K22 N1 3.034841 1_455
K22 N7 3.034841 1_455
K22 N39 3.035329 1_555
K22 N46 3.035329 1_555
K23 N26 2.762591 1_555
K23 N2 2.836666 1_555
K23 N11 2.855556 1_555
K23 N47 3.067906 1_555
K23 N45 3.215889 1_565
K23 N9 3.280427 1_555
K23 N23 3.317590 1_555
C0 N20 1.172578 1_555
C0 Co3 1.871419 1_555
C1 N10 1.173168 1_555
C1 Co0 1.864675 1_565
C2 N14 1.173168 1_455
C2 Co5 1.864675 1_555
C3 N16 1.176347 1_555
C3 Co5 1.906267 1_555
C4 N34 1.176978 1_555
C4 Co2 1.899898 1_555
C5 N2 1.175072 1_555
C5 Co7 1.881523 1_565
C6 N35 1.176347 1_655
C6 Co1 1.906267 1_545
C7 N41 1.172227 1_655
C7 Co1 1.874941 1_555
C8 N39 1.176373 1_555
C8 Co4 1.892538 1_555
C9 N26 1.175268 1_555
C9 Co7 1.885334 1_465
C10 N31 1.176648 1_555
C10 Co1 1.900598 1_555
C11 N25 1.176648 1_455
C11 Co3 1.900598 1_555
C12 N6 1.173344 1_555
C12 Co1 1.866981 1_545
C13 N11 1.173344 1_555
C13 Co5 1.866981 1_555
C14 N12 1.176648 1_455
C14 Co5 1.900598 1_555
C15 N46 1.176373 1_555
C15 Co4 1.892538 1_555
C16 N32 1.173168 1_455
C16 Co3 1.864675 1_555
C17 N47 1.173344 1_555
C17 Co0 1.866981 1_565
C18 N27 1.176347 1_555
C18 Co3 1.906267 1_555
C19 N9 1.175072 1_555
C19 Co2 1.881523 1_555
C20 N22 1.172227 1_555
C20 Co5 1.874941 1_555
C21 N7 1.173297 1_555
C21 Co4 1.876130 1_555
C22 N0 1.176978 1_555
C22 Co2 1.899898 1_556
C23 N19 1.175072 1_555
C23 Co2 1.881523 1_556
C24 N28 1.173297 1_555
C24 Co6 1.876130 1_465
C25 N21 1.176373 1_555
C25 Co6 1.892538 1_565
C26 N44 1.176373 1_555
C26 Co6 1.892538 1_555
C27 N23 1.175268 1_555
C27 Co2 1.885334 1_555
C28 N37 1.176978 1_555
C28 Co7 1.899898 1_566
C29 N36 1.173344 1_555
C29 Co3 1.866981 1_555
C30 N38 1.173297 1_555
C30 Co6 1.876130 1_455
C31 N33 1.175072 1_555
C31 Co7 1.881523 1_556
C32 N40 1.172578 1_555
C32 Co0 1.871419 1_555
C33 N4 1.176623 1_555
C33 Co4 1.896978 1_555
C34 N3 1.173168 1_555
C34 Co1 1.864675 1_545
C35 N45 1.176648 1_555
C35 Co0 1.900598 1_555
C36 N29 1.172578 1_555
C36 Co5 1.871419 1_555
C37 N1 1.173297 1_555
C37 Co4 1.876130 1_555
C38 N15 1.172227 1_655
C38 Co0 1.874941 1_555
C39 N18 1.175268 1_555
C39 Co7 1.885334 1_456
C40 N24 1.172578 1_555
C40 Co1 1.871419 1_555
C41 N17 1.176623 1_655
C41 Co6 1.896978 1_565
C42 N30 1.176623 1_655
C42 Co6 1.896978 1_555
C43 N43 1.175268 1_555
C43 Co2 1.885334 1_556
C44 N13 1.176623 1_555
C44 Co4 1.896978 1_555
C45 N42 1.172227 1_555
C45 Co3 1.874941 1_555
C46 N8 1.176978 1_555
C46 Co7 1.899898 1_555
C47 N5 1.176347 1_655
C47 Co0 1.906267 1_565
