# generated using pymatgen
data_Y5O4F7
_symmetry_space_group_name_H-M   'P 1'
_cell_length_a   8.85616600
_cell_length_b   6.78769700
_cell_length_c   8.22245259
_cell_angle_alpha   71.31372764
_cell_angle_beta   90.00000000
_cell_angle_gamma   90.00000000
_symmetry_Int_Tables_number   1
_chemical_formula_structural   Y5O4F7
_chemical_formula_sum   'Y10 O8 F14'
_cell_volume   468.22131675
_cell_formula_units_Z   2
loop_
 _symmetry_equiv_pos_site_id
 _symmetry_equiv_pos_as_xyz
  1  'x, y, z'
loop_
 _atom_site_type_symbol
 _atom_site_label
 _atom_site_symmetry_multiplicity
 _atom_site_fract_x
 _atom_site_fract_y
 _atom_site_fract_z
 _atom_site_occupancy
  Y  Y0  1  0.78184700  0.24788200  0.62732900  1
  Y  Y1  1  0.78254900  0.86663200  0.42110100  1
  Y  Y2  1  0.14988500  0.54972600  0.66697100  1
  Y  Y3  1  0.51615500  0.62236900  0.73398700  1
  Y  Y4  1  0.57712800  0.13913200  0.05405800  1
  Y  Y5  1  0.48384500  0.62236900  0.23398700  1
  Y  Y6  1  0.42287200  0.13913200  0.55405800  1
  Y  Y7  1  0.85011500  0.54972600  0.16697100  1
  Y  Y8  1  0.21745100  0.86663200  0.92110100  1
  Y  Y9  1  0.21815300  0.24788200  0.12732900  1
  O  O0  1  0.30332600  0.45395500  0.88513600  1
  O  O1  1  0.63955800  0.98215700  0.60372300  1
  O  O2  1  0.57101900  0.27062000  0.76925000  1
  O  O3  1  0.70497400  0.83447400  0.15127800  1
  O  O4  1  0.29502600  0.83447400  0.65127800  1
  O  O5  1  0.42898100  0.27062000  0.26925000  1
  O  O6  1  0.69667400  0.45395500  0.38513600  1
  O  O7  1  0.36044200  0.98215700  0.10372300  1
  F  F0  1  0.96833600  0.32074900  0.78191000  1
  F  F1  1  0.05961600  0.00459800  0.06940000  1
  F  F2  1  0.23598200  0.59469600  0.15969900  1
  F  F3  1  0.22235800  0.18368100  0.71791200  1
  F  F4  1  0.98535800  0.65572800  0.41642700  1
  F  F5  1  0.47175600  0.78046100  0.93029500  1
  F  F6  1  0.34351900  0.49314200  0.50132600  1
  F  F7  1  0.65648100  0.49314200  0.00132600  1
  F  F8  1  0.52824400  0.78046100  0.43029500  1
  F  F9  1  0.77764200  0.18368100  0.21791200  1
  F  F10  1  0.01464200  0.65572800  0.91642700  1
  F  F11  1  0.94038400  0.00459800  0.56940000  1
  F  F12  1  0.76401800  0.59469600  0.65969900  1
  F  F13  1  0.03166400  0.32074900  0.28191000  1
loop_
_geom_bond_atom_site_label_1
_geom_bond_atom_site_label_2
_geom_bond_distance
_geom_bond_site_symmetry_2
O0 Y9 2.169420 1_556
O0 Y2 2.177126 1_555
O0 Y3 2.343857 1_555
O1 Y6 2.169293 1_565
O1 Y0 2.259012 1_565
O1 Y1 2.286446 1_555
O1 Y3 2.574787 1_555
O2 Y4 2.223588 1_556
O2 Y0 2.233190 1_555
O2 Y3 2.361575 1_555
O2 Y6 2.580822 1_555
O3 Y4 2.266722 1_565
O3 Y7 2.290137 1_555
O3 Y5 2.396460 1_555
O3 Y1 2.398367 1_555
O4 Y6 2.266722 1_565
O4 Y2 2.290137 1_555
O4 Y3 2.396460 1_555
O4 Y8 2.398367 1_555
O5 Y6 2.223588 1_555
O5 Y9 2.233190 1_555
O5 Y5 2.361575 1_555
O5 Y4 2.580822 1_555
O6 Y0 2.169420 1_555
O6 Y7 2.177126 1_555
O6 Y5 2.343857 1_555
O7 Y4 2.169293 1_565
O7 Y9 2.259012 1_565
O7 Y8 2.286446 1_554
O7 Y5 2.574787 1_555
F0 Y2 2.225466 1_655
F0 Y0 2.233985 1_555
F1 Y8 2.247100 1_544
F1 Y9 2.330044 1_555
F2 Y8 2.227665 1_554
F2 Y5 2.302270 1_555
F2 Y9 2.457416 1_555
F3 Y8 2.262866 1_545
F3 Y6 2.306744 1_555
F3 Y2 2.468561 1_555
F4 Y1 2.304796 1_555
F4 Y2 2.436173 1_655
F4 Y7 2.665539 1_555
F5 Y3 2.240852 1_555
F5 Y8 2.322014 1_555
F5 Y5 2.383576 1_556
F6 Y2 2.297499 1_555
F6 Y6 2.405881 1_555
F6 Y5 2.431117 1_555
F6 Y3 2.800337 1_555
F7 Y7 2.297499 1_555
F7 Y4 2.405881 1_555
F7 Y3 2.431117 1_554
F7 Y5 2.800337 1_555
F8 Y5 2.240852 1_555
F8 Y1 2.322014 1_555
F8 Y3 2.383576 1_555
F9 Y1 2.262866 1_545
F9 Y4 2.306744 1_555
F9 Y7 2.468561 1_555
F10 Y8 2.304796 1_555
F10 Y7 2.436173 1_456
F10 Y2 2.665539 1_555
F11 Y1 2.247100 1_545
F11 Y0 2.330044 1_555
F12 Y1 2.227665 1_555
F12 Y3 2.302270 1_555
F12 Y0 2.457416 1_555
F13 Y7 2.225466 1_455
F13 Y9 2.233985 1_555
