# generated using pymatgen
data_H5IO6
_symmetry_space_group_name_H-M   'P 1'
_cell_length_a   5.09544900
_cell_length_b   5.31559124
_cell_length_c   18.98374792
_cell_angle_alpha   89.05244183
_cell_angle_beta   88.97468610
_cell_angle_gamma   69.67785336
_symmetry_Int_Tables_number   1
_chemical_formula_structural   H5IO6
_chemical_formula_sum   'H20 I4 O24'
_cell_volume   482.06922670
_cell_formula_units_Z   4
loop_
 _symmetry_equiv_pos_site_id
 _symmetry_equiv_pos_as_xyz
  1  'x, y, z'
loop_
 _atom_site_type_symbol
 _atom_site_label
 _atom_site_symmetry_multiplicity
 _atom_site_fract_x
 _atom_site_fract_y
 _atom_site_fract_z
 _atom_site_occupancy
  H  H0  1  0.17250700  0.15918600  0.49746000  1
  H  H1  1  0.66835900  0.66637100  0.00617800  1
  H  H2  1  0.82532400  0.84928900  0.50786200  1
  H  H3  1  0.33066200  0.34535600  0.00081100  1
  H  H4  1  0.97679100  0.73257500  0.39331200  1
  H  H5  1  0.54285300  0.78821500  0.88933200  1
  H  H6  1  0.50458300  0.35130000  0.43666700  1
  H  H7  1  0.99311500  0.83988200  0.06736000  1
  H  H8  1  0.50458400  0.66218000  0.56654800  1
  H  H9  1  0.99685900  0.18282700  0.93946500  1
  H  H10  1  0.76629100  0.00988500  0.28808300  1
  H  H11  1  0.30398100  0.53731800  0.24035800  1
  H  H12  1  0.26982400  0.77220600  0.74046100  1
  H  H13  1  0.77691100  0.29843700  0.76411300  1
  H  H14  1  0.46264900  0.12606300  0.13478600  1
  H  H15  1  0.04674000  0.37944500  0.63479100  1
  H  H16  1  0.25899500  0.01638700  0.27624400  1
  H  H17  1  0.88252100  0.54276400  0.19194400  1
  H  H18  1  0.58947800  0.97932300  0.68820100  1
  H  H19  1  0.08603700  0.49514000  0.82083200  1
  I  I0  1  0.96476000  0.20440300  0.37830800  1
  I  I1  1  0.45140500  0.66865600  0.12414700  1
  I  I2  1  0.04324000  0.83927300  0.62355700  1
  I  I3  1  0.54056100  0.31807300  0.87956900  1
  O  O0  1  0.23359700  0.20111800  0.44892100  1
  O  O1  1  0.71052100  0.72066800  0.05435100  1
  O  O2  1  0.77631300  0.80120000  0.55707200  1
  O  O3  1  0.27369900  0.30629700  0.95225200  1
  O  O4  1  0.93480100  0.88981000  0.42737100  1
  O  O5  1  0.42364900  0.37450200  0.08099700  1
  O  O6  1  0.07651500  0.13718300  0.58117000  1
  O  O7  1  0.57275000  0.62867100  0.92462600  1
  O  O8  1  0.66478800  0.41929800  0.43711200  1
  O  O9  1  0.13857700  0.92119900  0.07709100  1
  O  O10  1  0.34383700  0.59575400  0.56933400  1
  O  O11  1  0.84385800  0.10554200  0.93763600  1
  O  O12  1  0.68843000  0.18479300  0.31118100  1
  O  O13  1  0.19523300  0.64130400  0.20033100  1
  O  O14  1  0.29650400  0.86561500  0.69659600  1
  O  O15  1  0.79549600  0.38231400  0.80921500  1
  O  O16  1  0.01623100  0.49191900  0.33614300  1
  O  O17  1  0.48930100  0.97262000  0.17072300  1
  O  O18  1  0.01005900  0.53082400  0.67072100  1
  O  O19  1  0.51097400  0.02567900  0.83853400  1
  O  O20  1  0.24762300  0.93791900  0.32297300  1
  O  O21  1  0.75207800  0.44669700  0.18031800  1
  O  O22  1  0.74248800  0.05645500  0.68383700  1
  O  O23  1  0.24043600  0.56958500  0.82517200  1
loop_
_geom_bond_atom_site_label_1
_geom_bond_atom_site_label_2
_geom_bond_distance
_geom_bond_site_symmetry_2
H0 O0 1.013304 1_555
H0 O6 1.668539 1_555
H1 O1 1.012227 1_555
H2 O2 1.014157 1_555
H2 O4 1.653629 1_555
H3 O3 1.017296 1_554
H3 O5 1.627970 1_555
H4 O4 1.025229 1_555
H4 O16 1.647482 1_655
H5 O7 1.042338 1_555
H5 O19 1.540312 1_565
H6 O8 1.001191 1_555
H7 O9 1.000204 1_655
H8 O10 0.998538 1_555
H9 O11 1.000833 1_555
H10 O12 0.982412 1_555
H11 O13 0.989141 1_555
H12 O14 0.993782 1_555
H13 O15 0.992823 1_555
H14 O17 1.028157 1_545
H14 O5 1.614476 1_555
H15 O18 1.028004 1_555
H15 O6 1.618535 1_555
H16 O20 0.983349 1_545
H17 O21 0.997993 1_555
H18 O22 1.000713 1_565
H19 O23 1.000986 1_555
I0 O16 1.809889 1_655
I0 O8 1.911975 1_555
I0 O0 1.929261 1_655
I0 O20 1.940180 1_645
I0 O12 1.946240 1_555
I0 O4 1.951392 1_545
I1 O5 1.826464 1_555
I1 O21 1.907257 1_555
I1 O9 1.914651 1_555
I1 O17 1.923484 1_555
I1 O1 1.937547 1_555
I1 O13 1.968234 1_555
I2 O6 1.823016 1_565
I2 O18 1.912345 1_555
I2 O10 1.921376 1_555
I2 O22 1.934634 1_465
I2 O2 1.935181 1_455
I2 O14 1.950252 1_555
I3 O19 1.803401 1_555
I3 O11 1.920118 1_555
I3 O7 1.929816 1_555
I3 O3 1.935428 1_555
I3 O23 1.945039 1_555
I3 O15 1.954162 1_555
