# generated using pymatgen
data_Sm(GdS2)2
_symmetry_space_group_name_H-M   'P 1'
_cell_length_a   7.31370816
_cell_length_b   7.31370816
_cell_length_c   7.31370816
_cell_angle_alpha   109.37707667
_cell_angle_beta   109.37707667
_cell_angle_gamma   109.65967309
_symmetry_Int_Tables_number   1
_chemical_formula_structural   Sm(GdS2)2
_chemical_formula_sum   'Sm2 Gd4 S8'
_cell_volume   301.15318774
_cell_formula_units_Z   2
loop_
 _symmetry_equiv_pos_site_id
 _symmetry_equiv_pos_as_xyz
  1  'x, y, z'
loop_
 _atom_site_type_symbol
 _atom_site_label
 _atom_site_symmetry_multiplicity
 _atom_site_fract_x
 _atom_site_fract_y
 _atom_site_fract_z
 _atom_site_occupancy
  Sm  Sm0  1  0.00000000  0.00000000  0.00000000  1
  Sm  Sm1  1  0.25000000  0.75000000  0.50000000  1
  Gd  Gd0  1  0.12500000  0.50123900  0.87623900  1
  Gd  Gd1  1  0.49876100  0.37500000  0.62376100  1
  Gd  Gd2  1  0.62500000  0.24876100  0.12376100  1
  Gd  Gd3  1  0.75123900  0.87500000  0.37623900  1
  S  S0  1  0.87380400  0.62474700  0.10217000  1
  S  S1  1  0.87474700  0.62380400  0.60217000  1
  S  S2  1  0.02163500  0.27257700  0.39783000  1
  S  S3  1  0.22836500  0.12619600  0.75094300  1
  S  S4  1  0.52257700  0.77163500  0.89783000  1
  S  S5  1  0.37619600  0.97836500  0.25094300  1
  S  S6  1  0.37525300  0.47742300  0.24905700  1
  S  S7  1  0.72742300  0.12525300  0.74905700  1
loop_
_geom_bond_atom_site_label_1
_geom_bond_atom_site_label_2
_geom_bond_distance
_geom_bond_site_symmetry_2
Gd0 S7 2.830151 1_455
Gd0 S4 2.830153 1_555
Gd0 S6 2.834277 1_556
Gd0 S1 2.834277 1_455
Gd0 S5 3.010339 1_556
Gd0 S0 3.010344 1_456
Gd0 S3 3.020280 1_555
Gd0 S2 3.020287 1_555
Gd1 S1 2.830151 1_555
Gd1 S3 2.830155 1_555
Gd1 S5 2.834282 1_545
Gd1 S4 2.834283 1_555
Gd1 S2 3.010337 1_555
Gd1 S6 3.010344 1_555
Gd1 S7 3.020285 1_555
Gd1 S0 3.020285 1_556
Gd2 S0 2.830151 1_555
Gd2 S5 2.830155 1_545
Gd2 S3 2.834282 1_554
Gd2 S2 2.834283 1_655
Gd2 S4 3.010337 1_544
Gd2 S7 3.010344 1_554
Gd2 S1 3.020285 1_555
Gd2 S6 3.020285 1_555
Gd3 S6 2.830151 1_555
Gd3 S2 2.830153 1_665
Gd3 S0 2.834277 1_555
Gd3 S7 2.834277 1_565
Gd3 S3 3.010339 1_665
Gd3 S1 3.010344 1_555
Gd3 S5 3.020280 1_555
Gd3 S4 3.020287 1_554
S0 Sm1 2.845768 1_655
S0 Sm0 3.009408 1_665
S1 Sm0 2.845768 1_666
S1 Sm1 3.009408 1_655
S2 Sm0 2.845764 1_555
S2 Sm1 3.009408 1_555
S3 Sm1 2.845772 1_545
S3 Sm0 3.009404 1_556
S4 Sm1 2.845764 1_555
S4 Sm0 3.009408 1_666
S5 Sm0 2.845772 1_565
S5 Sm1 3.009404 1_555
S6 Sm1 2.845768 1_555
S6 Sm0 3.009408 1_555
S7 Sm0 2.845768 1_656
S7 Sm1 3.009408 1_545
