# generated using pymatgen
data_SnPO4
_symmetry_space_group_name_H-M   'P 1'
_cell_length_a   10.39924400
_cell_length_b   5.72679600
_cell_length_c   8.71009316
_cell_angle_alpha   52.21135900
_cell_angle_beta   90.00000000
_cell_angle_gamma   90.00000000
_symmetry_Int_Tables_number   1
_chemical_formula_structural   SnPO4
_chemical_formula_sum   'Sn4 P4 O16'
_cell_volume   409.93533353
_cell_formula_units_Z   4
loop_
 _symmetry_equiv_pos_site_id
 _symmetry_equiv_pos_as_xyz
  1  'x, y, z'
loop_
 _atom_site_type_symbol
 _atom_site_label
 _atom_site_symmetry_multiplicity
 _atom_site_fract_x
 _atom_site_fract_y
 _atom_site_fract_z
 _atom_site_occupancy
  Sn  Sn0  1  0.66119700  0.78839000  0.50412000  1
  Sn  Sn1  1  0.83880300  0.78839000  0.00412000  1
  Sn  Sn2  1  0.16119700  0.21161000  0.99588000  1
  Sn  Sn3  1  0.33880300  0.21161000  0.49588000  1
  P  P0  1  0.91785800  0.91164500  0.25513400  1
  P  P1  1  0.08214200  0.08835500  0.74486600  1
  P  P2  1  0.41785800  0.08835500  0.24486600  1
  P  P3  1  0.58214200  0.91164500  0.75513400  1
  O  O0  1  0.87679500  0.12999200  0.03367900  1
  O  O1  1  0.88555100  0.60109300  0.31072500  1
  O  O2  1  0.38555100  0.39890700  0.18927500  1
  O  O3  1  0.15664600  0.03877800  0.61188200  1
  O  O4  1  0.11444900  0.39890700  0.68927500  1
  O  O5  1  0.06317500  0.96681800  0.26549700  1
  O  O6  1  0.61444900  0.60109300  0.81072500  1
  O  O7  1  0.65664600  0.96122200  0.88811800  1
  O  O8  1  0.37679500  0.87000800  0.46632100  1
  O  O9  1  0.56317500  0.03318200  0.23450300  1
  O  O10  1  0.12320500  0.87000800  0.96632100  1
  O  O11  1  0.62320500  0.12999200  0.53367900  1
  O  O12  1  0.84335400  0.96122200  0.38811800  1
  O  O13  1  0.43682500  0.96681800  0.76549700  1
  O  O14  1  0.93682500  0.03318200  0.73450300  1
  O  O15  1  0.34335400  0.03877800  0.11188200  1
loop_
_geom_bond_atom_site_label_1
_geom_bond_atom_site_label_2
_geom_bond_distance
_geom_bond_site_symmetry_2
O0 P0 1.584523 1_545
O0 Sn1 2.160250 1_545
O1 P0 1.566828 1_555
O1 Sn1 2.237923 1_555
O2 P2 1.566828 1_555
O2 Sn3 2.237923 1_555
O3 P1 1.557430 1_555
O3 Sn3 2.088856 1_555
O4 P1 1.566828 1_555
O4 Sn2 2.237923 1_555
O5 P0 1.557761 1_455
O5 Sn2 2.117720 1_564
O6 P3 1.566828 1_555
O6 Sn0 2.237923 1_555
O7 P3 1.557430 1_555
O7 Sn1 2.088856 1_556
O8 P2 1.584523 1_565
O8 Sn3 2.160250 1_565
O9 P2 1.557761 1_555
O9 Sn0 2.117720 1_545
O10 P1 1.584523 1_565
O10 Sn2 2.160250 1_565
O11 P3 1.584523 1_545
O11 Sn0 2.160250 1_545
O12 P0 1.557430 1_555
O12 Sn0 2.088856 1_555
O13 P3 1.557761 1_555
O13 Sn3 2.117720 1_565
O14 P1 1.557761 1_655
O14 Sn1 2.117720 1_546
O15 P2 1.557430 1_555
O15 Sn2 2.088856 1_554
