# generated using pymatgen
data_Ca2Fe2Si5HO15
_symmetry_space_group_name_H-M   'P 1'
_cell_length_a   6.79028200
_cell_length_b   7.58885485
_cell_length_c   11.76799660
_cell_angle_alpha   104.40763909
_cell_angle_beta   91.81925732
_cell_angle_gamma   94.02199600
_symmetry_Int_Tables_number   1
_chemical_formula_structural   Ca2Fe2Si5HO15
_chemical_formula_sum   'Ca4 Fe4 Si10 H2 O30'
_cell_volume   585.13211690
_cell_formula_units_Z   2
loop_
 _symmetry_equiv_pos_site_id
 _symmetry_equiv_pos_as_xyz
  1  'x, y, z'
loop_
 _atom_site_type_symbol
 _atom_site_label
 _atom_site_symmetry_multiplicity
 _atom_site_fract_x
 _atom_site_fract_y
 _atom_site_fract_z
 _atom_site_occupancy
  Ca  Ca0  1  0.85968800  0.21920000  0.05831100  1
  Ca  Ca1  1  0.14031200  0.78080000  0.94168900  1
  Ca  Ca2  1  0.70079500  0.76208600  0.47760600  1
  Ca  Ca3  1  0.29920500  0.23791400  0.52239400  1
  Fe  Fe0  1  0.93964900  0.40571300  0.35545200  1
  Fe  Fe1  1  0.06035100  0.59428700  0.64454800  1
  Fe  Fe2  1  0.81438200  0.95386800  0.76457000  1
  Fe  Fe3  1  0.18561800  0.04613200  0.23543000  1
  Si  Si0  1  0.65860500  0.71448200  0.94622800  1
  Si  Si1  1  0.34139500  0.28551800  0.05377200  1
  Si  Si2  1  0.57503300  0.53969900  0.68557500  1
  Si  Si3  1  0.42496700  0.46030100  0.31442500  1
  Si  Si4  1  0.78901600  0.19434900  0.55410600  1
  Si  Si5  1  0.21098400  0.80565100  0.44589400  1
  Si  Si6  1  0.69083100  0.01231600  0.28543900  1
  Si  Si7  1  0.30916900  0.98768400  0.71456100  1
  Si  Si8  1  0.89258900  0.67426100  0.16401900  1
  Si  Si9  1  0.10741100  0.32573900  0.83598100  1
  H  H0  1  0.52216700  0.11429900  0.90513200  1
  H  H1  1  0.47783300  0.88570100  0.09486800  1
  O  O0  1  0.46478500  0.80321500  0.01105000  1
  O  O1  1  0.53521500  0.19678500  0.98895000  1
  O  O2  1  0.81655000  0.87079600  0.91922600  1
  O  O3  1  0.18345000  0.12920400  0.08077400  1
  O  O4  1  0.56689800  0.56668300  0.82798700  1
  O  O5  1  0.43310200  0.43331700  0.17201300  1
  O  O6  1  0.75184900  0.68391300  0.66012100  1
  O  O7  1  0.24815100  0.31608700  0.33987900  1
  O  O8  1  0.63685100  0.45393200  0.37880400  1
  O  O9  1  0.36314900  0.54606800  0.62119600  1
  O  O10  1  0.62662800  0.32361200  0.62743800  1
  O  O11  1  0.37337200  0.67638800  0.37256200  1
  O  O12  1  0.83812100  0.03180800  0.61530200  1
  O  O13  1  0.16187900  0.96819200  0.38469800  1
  O  O14  1  0.97293000  0.32110900  0.52433200  1
  O  O15  1  0.02707000  0.67889100  0.47566800  1
  O  O16  1  0.66241300  0.07398700  0.43008000  1
  O  O17  1  0.33758700  0.92601300  0.56992000  1
  O  O18  1  0.87588100  0.12805200  0.24421500  1
  O  O19  1  0.12411900  0.87194800  0.75578500  1
  O  O20  1  0.52035700  0.98261000  0.78144000  1
  O  O21  1  0.47964300  0.01739000  0.21856000  1
  O  O22  1  0.75114900  0.79698500  0.26355300  1
  O  O23  1  0.24885100  0.20301500  0.73644700  1
  O  O24  1  0.93888700  0.49033400  0.20044200  1
  O  O25  1  0.06111300  0.50966600  0.79955800  1
  O  O26  1  0.91862000  0.19486100  0.85822600  1
  O  O27  1  0.08138000  0.80513900  0.14177400  1
  O  O28  1  0.77207200  0.60856600  0.03253500  1
  O  O29  1  0.22792800  0.39143400  0.96746500  1
loop_
_geom_bond_atom_site_label_1
_geom_bond_atom_site_label_2
_geom_bond_distance
_geom_bond_site_symmetry_2
Ca0 O1 2.305146 1_554
Ca0 O24 2.322827 1_555
Ca0 O26 2.364774 1_554
Ca0 O3 2.373395 1_655
Ca0 O18 2.454611 1_555
Ca0 O2 2.731811 1_544
Ca1 O0 2.305146 1_556
Ca1 O25 2.322827 1_555
Ca1 O27 2.364774 1_556
Ca1 O2 2.373395 1_455
Ca1 O19 2.454611 1_555
Ca1 O3 2.731811 1_566
Ca2 O8 2.341276 1_555
Ca2 O15 2.345171 1_655
Ca2 O12 2.381327 1_565
Ca2 O6 2.387672 1_555
Ca2 O11 2.473192 1_555
Ca2 O16 2.592169 1_565
Ca2 O22 2.627976 1_555
Ca2 O17 2.956058 1_555
Ca3 O9 2.341276 1_555
Ca3 O14 2.345171 1_455
Ca3 O13 2.381327 1_545
Ca3 O7 2.387672 1_555
Ca3 O10 2.473192 1_555
Ca3 O17 2.592169 1_545
Ca3 O23 2.627976 1_555
Ca3 O16 2.956058 1_555
Fe0 O24 2.079130 1_555
Fe0 O8 2.127975 1_555
Fe0 O18 2.191904 1_555
Fe0 O15 2.228474 1_655
Fe0 O14 2.244948 1_555
Fe0 O7 2.246479 1_655
Fe1 O25 2.079130 1_555
Fe1 O9 2.127975 1_555
Fe1 O19 2.191904 1_555
Fe1 O14 2.228474 1_455
Fe1 O15 2.244948 1_555
Fe1 O6 2.246479 1_455
Fe2 O26 1.956080 1_565
Fe2 O12 1.995760 1_565
Fe2 O20 2.034148 1_555
Fe2 O2 2.068958 1_555
Fe2 O6 2.116557 1_555
Fe2 O19 2.232906 1_655
Fe3 O27 1.956080 1_545
Fe3 O13 1.995760 1_545
Fe3 O21 2.034148 1_555
Fe3 O3 2.068958 1_555
Fe3 O7 2.116557 1_555
Fe3 O18 2.232906 1_455
H0 O1 1.025684 1_555
H0 O20 1.546258 1_545
H1 O0 1.025684 1_555
H1 O21 1.546258 1_565
O0 Si0 1.643133 1_554
O1 Si1 1.643133 1_556
O2 Si0 1.639858 1_555
O3 Si1 1.639858 1_555
O4 Si0 1.628595 1_555
O4 Si2 1.640220 1_555
O5 Si1 1.628595 1_555
O5 Si3 1.640220 1_555
O6 Si2 1.652465 1_555
O7 Si3 1.652465 1_555
O8 Si3 1.614029 1_555
O9 Si2 1.614029 1_555
O10 Si4 1.647343 1_555
O10 Si2 1.678521 1_555
O11 Si5 1.647343 1_555
O11 Si3 1.678521 1_555
O12 Si4 1.623524 1_555
O13 Si5 1.623524 1_555
O14 Si4 1.623177 1_555
O15 Si5 1.623177 1_555
O16 Si6 1.670518 1_555
O16 Si4 1.688299 1_555
O17 Si7 1.670518 1_555
O17 Si5 1.688299 1_555
O18 Si6 1.637555 1_555
O19 Si7 1.637555 1_555
O20 Si7 1.621265 1_555
O21 Si6 1.621265 1_555
O22 Si6 1.671994 1_565
O22 Si8 1.678035 1_555
O23 Si7 1.671994 1_545
O23 Si9 1.678035 1_555
O24 Si8 1.606711 1_555
O25 Si9 1.606711 1_555
O26 Si9 1.634157 1_655
O27 Si8 1.634157 1_455
O28 Si0 1.647635 1_554
O28 Si8 1.670592 1_555
O29 Si1 1.647635 1_556
O29 Si9 1.670592 1_555
