# generated using pymatgen
data_SrLaTiMnO6
_symmetry_space_group_name_H-M   'P 1'
_cell_length_a   11.17962500
_cell_length_b   5.59358100
_cell_length_c   7.89121291
_cell_angle_alpha   89.49220859
_cell_angle_beta   90.00000000
_cell_angle_gamma   90.00000000
_symmetry_Int_Tables_number   1
_chemical_formula_structural   SrLaTiMnO6
_chemical_formula_sum   'Sr4 La4 Ti4 Mn4 O24'
_cell_volume   493.45081705
_cell_formula_units_Z   4
loop_
 _symmetry_equiv_pos_site_id
 _symmetry_equiv_pos_as_xyz
  1  'x, y, z'
loop_
 _atom_site_type_symbol
 _atom_site_label
 _atom_site_symmetry_multiplicity
 _atom_site_fract_x
 _atom_site_fract_y
 _atom_site_fract_z
 _atom_site_occupancy
  Sr  Sr0  1  0.37460200  0.75000000  0.50000000  1
  Sr  Sr1  1  0.62694100  0.25000000  0.00000000  1
  Sr  Sr2  1  0.37305900  0.75000000  0.00000000  1
  Sr  Sr3  1  0.62539800  0.25000000  0.50000000  1
  La  La0  1  0.87444600  0.75000000  0.50000000  1
  La  La1  1  0.12275500  0.25000000  0.00000000  1
  La  La2  1  0.87724500  0.75000000  0.00000000  1
  La  La3  1  0.12555400  0.25000000  0.50000000  1
  Ti  Ti0  1  0.37522800  0.24567500  0.74868200  1
  Ti  Ti1  1  0.62477200  0.75432500  0.25131800  1
  Ti  Ti2  1  0.37522800  0.25432500  0.25131800  1
  Ti  Ti3  1  0.62477200  0.74567500  0.74868200  1
  Mn  Mn0  1  0.87414500  0.25209900  0.75070500  1
  Mn  Mn1  1  0.12585500  0.74790100  0.24929500  1
  Mn  Mn2  1  0.87414500  0.24790100  0.24929500  1
  Mn  Mn3  1  0.12585500  0.75209900  0.75070500  1
  O  O0  1  0.48992500  0.98312800  0.22885200  1
  O  O1  1  0.39464800  0.25000000  0.50000000  1
  O  O2  1  0.73800400  0.48677500  0.72517500  1
  O  O3  1  0.51007500  0.48312800  0.22885200  1
  O  O4  1  0.48992500  0.51687200  0.77114800  1
  O  O5  1  0.60535200  0.75000000  0.50000000  1
  O  O6  1  0.65172200  0.75000000  0.00000000  1
  O  O7  1  0.98646800  0.96938000  0.22367900  1
  O  O8  1  0.76356900  0.96116700  0.72566200  1
  O  O9  1  0.73800400  0.01322500  0.27482500  1
  O  O10  1  0.51007500  0.01687200  0.77114800  1
  O  O11  1  0.85681100  0.25000000  0.00000000  1
  O  O12  1  0.90525000  0.25000000  0.50000000  1
  O  O13  1  0.23643100  0.46116700  0.72566200  1
  O  O14  1  0.01353200  0.46938000  0.22367900  1
  O  O15  1  0.98646800  0.53062000  0.77632100  1
  O  O16  1  0.76356900  0.53883300  0.27433800  1
  O  O17  1  0.09475000  0.75000000  0.50000000  1
  O  O18  1  0.14318900  0.75000000  0.00000000  1
  O  O19  1  0.26199600  0.98677500  0.72517500  1
  O  O20  1  0.23643100  0.03883300  0.27433800  1
  O  O21  1  0.01353200  0.03062000  0.77632100  1
  O  O22  1  0.34827800  0.25000000  0.00000000  1
  O  O23  1  0.26199600  0.51322500  0.27482500  1
loop_
_geom_bond_atom_site_label_1
_geom_bond_atom_site_label_2
_geom_bond_distance
_geom_bond_site_symmetry_2
La0 O17 2.462916 1_655
La0 O8 2.477911 1_555
La0 O16 2.477911 1_555
La0 O9 2.757833 1_565
La0 O2 2.757833 1_555
La0 O15 2.789521 1_555
La0 O7 2.789521 1_555
La0 O12 2.817913 1_555
La0 O12 2.817913 1_565
La0 O5 3.008370 1_555
La0 O21 3.113993 1_665
La0 O14 3.113993 1_655
La1 O14 2.480082 1_555
La1 O21 2.480082 1_554
La1 O22 2.521263 1_555
La1 O20 2.766144 1_555
La1 O13 2.766144 1_554
La1 O7 2.802107 1_445
La1 O15 2.802107 1_454
La1 O18 2.806105 1_545
La1 O18 2.806105 1_555
La1 O11 2.973154 1_455
La1 O23 3.057931 1_555
La1 O19 3.057931 1_544
La2 O7 2.480082 1_555
La2 O15 2.480082 1_554
La2 O6 2.521263 1_555
La2 O16 2.766144 1_555
La2 O8 2.766144 1_554
La2 O14 2.802107 1_655
La2 O21 2.802107 1_664
La2 O11 2.806105 1_565
La2 O11 2.806105 1_555
La2 O18 2.973154 1_655
La2 O9 3.057931 1_565
La2 O2 3.057931 1_554
La3 O12 2.462916 1_455
La3 O13 2.477911 1_555
La3 O20 2.477911 1_555
La3 O23 2.757833 1_555
La3 O19 2.757833 1_545
La3 O21 2.789521 1_555
La3 O14 2.789521 1_555
La3 O17 2.817913 1_545
La3 O17 2.817913 1_555
La3 O1 3.008370 1_555
La3 O15 3.113993 1_455
La3 O7 3.113993 1_445
Mn0 O11 1.976693 1_556
Mn0 O21 1.999870 1_655
Mn0 O12 2.008833 1_555
Mn0 O15 2.012571 1_555
Mn0 O2 2.018793 1_555
Mn0 O8 2.054559 1_545
Mn1 O18 1.976693 1_555
Mn1 O7 1.999870 1_455
Mn1 O17 2.008833 1_555
Mn1 O14 2.012571 1_555
Mn1 O23 2.018793 1_555
Mn1 O20 2.054559 1_565
Mn2 O11 1.976693 1_555
Mn2 O14 1.999870 1_655
Mn2 O12 2.008833 1_555
Mn2 O7 2.012571 1_545
Mn2 O9 2.018793 1_555
Mn2 O16 2.054559 1_555
Mn3 O18 1.976693 1_556
Mn3 O15 1.999870 1_455
Mn3 O17 2.008833 1_555
Mn3 O21 2.012571 1_565
Mn3 O19 2.018793 1_555
Mn3 O13 2.054559 1_555
O0 Ti1 1.984450 1_555
O0 Ti2 1.995391 1_565
O0 Sr2 2.590472 1_555
O0 Sr1 2.790752 1_565
O0 Sr0 2.809178 1_555
O0 Sr3 3.026063 1_565
O1 Ti0 1.974311 1_555
O1 Ti2 1.974311 1_555
O1 Sr3 2.579698 1_555
O1 Sr0 2.805755 1_555
O1 Sr0 2.805755 1_545
O2 Ti3 1.933616 1_555
O2 Sr3 2.556951 1_555
O2 Sr1 2.819242 1_556
O3 Ti2 1.984450 1_555
O3 Ti1 1.995391 1_555
O3 Sr1 2.590472 1_555
O3 Sr2 2.790752 1_555
O3 Sr3 2.809178 1_555
O3 Sr0 3.026063 1_555
O4 Ti3 1.984450 1_555
O4 Ti0 1.995391 1_555
O4 Sr2 2.590472 1_556
O4 Sr1 2.790752 1_556
O4 Sr0 2.809178 1_555
O4 Sr3 3.026063 1_555
O5 Ti3 1.974311 1_555
O5 Ti1 1.974311 1_555
O5 Sr0 2.579698 1_555
O5 Sr3 2.805755 1_555
O5 Sr3 2.805755 1_565
O6 Ti1 2.006317 1_555
O6 Ti3 2.006317 1_554
O6 Sr1 2.810479 1_565
O6 Sr1 2.810479 1_555
O6 Sr2 3.115348 1_555
O8 Ti3 1.972259 1_555
O8 Sr3 2.848923 1_565
O8 Sr1 3.113184 1_566
O9 Ti1 1.933616 1_545
O9 Sr3 2.556951 1_555
O9 Sr1 2.819242 1_555
O10 Ti0 1.984450 1_555
O10 Ti3 1.995391 1_545
O10 Sr1 2.590472 1_556
O10 Sr2 2.790752 1_546
O10 Sr3 2.809178 1_555
O10 Sr0 3.026063 1_545
O11 Sr1 2.569860 1_555
O12 Sr3 3.128640 1_555
O13 Ti0 1.972259 1_555
O13 Sr0 2.848923 1_555
O13 Sr2 3.113184 1_556
O16 Ti1 1.972259 1_555
O16 Sr3 2.848923 1_555
O16 Sr1 3.113184 1_555
O17 Sr0 3.128640 1_555
O18 Sr2 2.569860 1_555
O19 Ti0 1.933616 1_565
O19 Sr0 2.556951 1_555
O19 Sr2 2.819242 1_556
O20 Ti2 1.972259 1_555
O20 Sr0 2.848923 1_545
O20 Sr2 3.113184 1_545
O22 Ti2 2.006317 1_555
O22 Ti0 2.006317 1_554
O22 Sr2 2.810479 1_545
O22 Sr2 2.810479 1_555
O22 Sr1 3.115348 1_555
O23 Ti2 1.933616 1_555
O23 Sr0 2.556951 1_555
O23 Sr2 2.819242 1_555
