# generated using pymatgen
data_H5IO6
_symmetry_space_group_name_H-M   'P 1'
_cell_length_a   19.29823600
_cell_length_b   5.03167500
_cell_length_c   5.80042462
_cell_angle_alpha   57.73277983
_cell_angle_beta   90.00000000
_cell_angle_gamma   90.00000000
_symmetry_Int_Tables_number   1
_chemical_formula_structural   H5IO6
_chemical_formula_sum   'H20 I4 O24'
_cell_volume   476.25353936
_cell_formula_units_Z   4
loop_
 _symmetry_equiv_pos_site_id
 _symmetry_equiv_pos_as_xyz
  1  'x, y, z'
loop_
 _atom_site_type_symbol
 _atom_site_label
 _atom_site_symmetry_multiplicity
 _atom_site_fract_x
 _atom_site_fract_y
 _atom_site_fract_z
 _atom_site_occupancy
  H  H0  1  0.74515800  0.34396800  0.83823700  1
  H  H1  1  0.25484200  0.34396800  0.33823700  1
  H  H2  1  0.75517400  0.64982300  0.15983300  1
  H  H3  1  0.24482600  0.64982300  0.65983300  1
  H  H4  1  0.68543200  0.86654300  0.62616000  1
  H  H5  1  0.31456800  0.86654300  0.12616000  1
  H  H6  1  0.81417100  0.13764300  0.36962900  1
  H  H7  1  0.18582900  0.13764300  0.86962900  1
  H  H8  1  0.54340600  0.90922800  0.67546600  1
  H  H9  1  0.45659400  0.90922800  0.17546600  1
  H  H10  1  0.98493100  0.08872300  0.15823800  1
  H  H11  1  0.01506900  0.08872300  0.65823800  1
  H  H12  1  0.61394500  0.58103100  0.39521600  1
  H  H13  1  0.38605500  0.58103100  0.89521600  1
  H  H14  1  0.88327400  0.41445500  0.60928000  1
  H  H15  1  0.11672600  0.41445500  0.10928000  1
  H  H16  1  0.56934400  0.40132600  0.01358900  1
  H  H17  1  0.43065600  0.40132600  0.51358900  1
  H  H18  1  0.93182600  0.59043100  0.99168400  1
  H  H19  1  0.06817400  0.59043100  0.49168400  1
  I  I0  1  0.63200800  0.11712700  0.84457700  1
  I  I1  1  0.36799200  0.11712700  0.34457700  1
  I  I2  1  0.86818500  0.87894600  0.15778300  1
  I  I3  1  0.13181500  0.87894600  0.65778300  1
  O  O0  1  0.69648600  0.43472000  0.80035900  1
  O  O1  1  0.30351400  0.43472000  0.30035900  1
  O  O2  1  0.80390400  0.56071400  0.20049100  1
  O  O3  1  0.19609600  0.56071400  0.70049100  1
  O  O4  1  0.67447800  0.78722600  0.13849900  1
  O  O5  1  0.32552200  0.78722600  0.63849900  1
  O  O6  1  0.82440500  0.20300200  0.86346700  1
  O  O7  1  0.17559500  0.20300200  0.36346700  1
  O  O8  1  0.68174600  0.09139700  0.56848100  1
  O  O9  1  0.31825400  0.09139700  0.06848100  1
  O  O10  1  0.81804800  0.91240200  0.42748800  1
  O  O11  1  0.18195200  0.91240200  0.92748800  1
  O  O12  1  0.56203000  0.82271800  0.85948900  1
  O  O13  1  0.43797000  0.82271800  0.35948900  1
  O  O14  1  0.93806200  0.17650100  0.13429600  1
  O  O15  1  0.06193800  0.17650100  0.63429600  1
  O  O16  1  0.58032700  0.45766000  0.55149400  1
  O  O17  1  0.41967300  0.45766000  0.05149400  1
  O  O18  1  0.91801000  0.53668000  0.45549800  1
  O  O19  1  0.08199000  0.53668000  0.95549800  1
  O  O20  1  0.57368200  0.17209400  0.08546900  1
  O  O21  1  0.42631800  0.17209400  0.58546900  1
  O  O22  1  0.92858600  0.81909700  0.92260800  1
  O  O23  1  0.07141400  0.81909700  0.42260800  1
loop_
_geom_bond_atom_site_label_1
_geom_bond_atom_site_label_2
_geom_bond_distance
_geom_bond_site_symmetry_2
H0 O0 1.015834 1_555
H0 O6 1.659074 1_555
H1 O1 1.015834 1_555
H1 O7 1.659074 1_555
H2 O2 1.013956 1_555
H2 O4 1.681400 1_555
H3 O3 1.013956 1_555
H3 O5 1.681400 1_555
H4 O8 0.996433 1_565
H5 O9 0.996433 1_565
H6 O10 0.998282 1_545
H7 O11 0.998282 1_545
H8 O12 0.980772 1_555
H9 O13 0.980772 1_555
H10 O14 0.983345 1_555
H11 O15 0.983345 1_555
H12 O16 1.013472 1_555
H12 O4 1.734595 1_555
H13 O17 1.013472 1_556
H13 O5 1.734595 1_555
H14 O18 1.018582 1_555
H14 O6 1.709252 1_555
H15 O19 1.018582 1_554
H15 O7 1.709252 1_555
H16 O20 0.998873 1_555
H17 O21 0.998873 1_555
H18 O22 0.998017 1_555
H19 O23 0.998017 1_555
I0 O4 1.819909 1_546
I0 O20 1.925735 1_556
I0 O16 1.926255 1_555
I0 O8 1.929814 1_555
I0 O0 1.931359 1_555
I0 O12 1.972016 1_545
I1 O5 1.819909 1_545
I1 O21 1.925735 1_555
I1 O17 1.926255 1_555
I1 O9 1.929814 1_555
I1 O1 1.931359 1_555
I1 O13 1.972016 1_545
I2 O6 1.820640 1_564
I2 O10 1.921731 1_555
I2 O18 1.922783 1_555
I2 O2 1.934080 1_555
I2 O22 1.936185 1_554
I2 O14 1.964902 1_565
I3 O7 1.820640 1_565
I3 O11 1.921731 1_555
I3 O19 1.922783 1_555
I3 O3 1.934080 1_555
I3 O23 1.936185 1_555
I3 O15 1.964902 1_565
