# generated using pymatgen
data_Sr2CrClO4
_symmetry_space_group_name_H-M   'P 1'
_cell_length_a   6.60876401
_cell_length_b   7.55863500
_cell_length_c   11.56647001
_cell_angle_alpha   89.99930462
_cell_angle_beta   89.99612981
_cell_angle_gamma   90.00360736
_symmetry_Int_Tables_number   1
_chemical_formula_structural   Sr2CrClO4
_chemical_formula_sum   'Sr8 Cr4 Cl4 O16'
_cell_volume   577.78259136
_cell_formula_units_Z   4
loop_
 _symmetry_equiv_pos_site_id
 _symmetry_equiv_pos_as_xyz
  1  'x, y, z'
loop_
 _atom_site_type_symbol
 _atom_site_label
 _atom_site_symmetry_multiplicity
 _atom_site_fract_x
 _atom_site_fract_y
 _atom_site_fract_z
 _atom_site_occupancy
  Sr  Sr0  1  0.13660900  0.46556900  0.25000000  1
  Sr  Sr1  1  0.62274500  0.25000700  0.00000000  1
  Sr  Sr2  1  0.37723000  0.75000700  0.99999800  1
  Sr  Sr3  1  0.62280600  0.25001800  0.50000400  1
  Sr  Sr4  1  0.13660100  0.03445300  0.75001400  1
  Sr  Sr5  1  0.86335100  0.96557000  0.25000100  1
  Sr  Sr6  1  0.86336500  0.53445100  0.74998200  1
  Sr  Sr7  1  0.37722400  0.74999800  0.50000500  1
  Cr  Cr0  1  0.87475900  0.75001000  0.49998200  1
  Cr  Cr1  1  0.12522000  0.24998200  0.00001100  1
  Cr  Cr2  1  0.87476500  0.74998000  0.00002100  1
  Cr  Cr3  1  0.12531900  0.24992300  0.49997700  1
  Cl  Cl0  1  0.51493700  0.82239400  0.75000400  1
  Cl  Cl1  1  0.48501100  0.32239400  0.74999700  1
  Cl  Cl2  1  0.51494000  0.67762400  0.24999800  1
  Cl  Cl3  1  0.48500900  0.17761900  0.25000600  1
  O  O0  1  0.03334400  0.73130100  0.38133500  1
  O  O1  1  0.96676400  0.26873300  0.61863100  1
  O  O2  1  0.28404600  0.07613600  0.96714400  1
  O  O3  1  0.96663300  0.23130400  0.11865500  1
  O  O4  1  0.71597500  0.57613500  0.96714400  1
  O  O5  1  0.71597800  0.92387600  0.03285000  1
  O  O6  1  0.03332000  0.76872900  0.61862600  1
  O  O7  1  0.96672700  0.23125900  0.38134700  1
  O  O8  1  0.71593200  0.92386700  0.46712900  1
  O  O9  1  0.96664100  0.26871000  0.88137000  1
  O  O10  1  0.28402100  0.42385200  0.03287500  1
  O  O11  1  0.71593700  0.57616100  0.53285300  1
  O  O12  1  0.28405200  0.42386200  0.46715400  1
  O  O13  1  0.03333300  0.73126500  0.11867400  1
  O  O14  1  0.28410800  0.07607500  0.53286100  1
  O  O15  1  0.03329500  0.76873400  0.88135100  1
loop_
_geom_bond_atom_site_label_1
_geom_bond_atom_site_label_2
_geom_bond_distance
_geom_bond_site_symmetry_2
Cr0 O11 1.724171 1_555
Cr0 O8 1.724323 1_555
Cr0 O6 1.732473 1_655
Cr0 O0 1.732489 1_655
Cr1 O10 1.724228 1_555
Cr1 O2 1.724268 1_554
Cr1 O3 1.732437 1_455
Cr1 O9 1.732531 1_454
Cr2 O4 1.724073 1_554
Cr2 O5 1.724302 1_555
Cr2 O15 1.732494 1_654
Cr2 O13 1.732589 1_655
Cr3 O14 1.724198 1_555
Cr3 O12 1.724209 1_555
Cr3 O7 1.732435 1_455
Cr3 O1 1.732496 1_455
Cl0 Sr4 2.970082 1_565
Cl0 Sr2 3.080292 1_555
Cl0 Sr7 3.080498 1_555
Cl0 Sr6 3.168583 1_555
Cl1 Sr6 2.970004 1_555
Cl1 Sr3 3.080471 1_555
Cl1 Sr1 3.080578 1_556
Cl1 Sr4 3.168287 1_555
Cl2 Sr0 2.969868 1_555
Cl2 Sr7 3.080466 1_555
Cl2 Sr2 3.080493 1_554
Cl2 Sr5 3.168318 1_555
Cl3 Sr5 2.970074 1_545
Cl3 Sr1 3.080480 1_555
Cl3 Sr3 3.080655 1_555
Cl3 Sr0 3.168485 1_555
O0 Sr5 2.589534 1_455
O0 Sr0 2.609180 1_555
O0 Sr7 2.658793 1_555
O1 Sr4 2.589476 1_655
O1 Sr6 2.609438 1_555
O1 Sr3 2.658984 1_555
O2 Sr2 2.569148 1_545
O2 Sr1 2.623304 1_556
O2 Sr4 2.712261 1_555
O3 Sr0 2.589468 1_655
O3 Sr5 2.609200 1_545
O3 Sr1 2.658764 1_555
O4 Sr1 2.569130 1_556
O4 Sr2 2.623661 1_555
O4 Sr6 2.712366 1_555
O5 Sr1 2.569233 1_565
O5 Sr2 2.623566 1_554
O5 Sr5 2.712325 1_555
O6 Sr6 2.589435 1_455
O6 Sr4 2.609505 1_565
O6 Sr7 2.658506 1_555
O7 Sr0 2.589330 1_655
O7 Sr5 2.609183 1_545
O7 Sr3 2.658829 1_555
O8 Sr3 2.569248 1_565
O8 Sr7 2.623332 1_555
O8 Sr5 2.712066 1_555
O9 Sr4 2.589463 1_655
O9 Sr6 2.609633 1_555
O9 Sr1 2.658487 1_556
O10 Sr2 2.569329 1_554
O10 Sr1 2.623476 1_555
O10 Sr0 2.712051 1_555
O11 Sr3 2.569091 1_555
O11 Sr7 2.623377 1_555
O11 Sr6 2.712241 1_555
O12 Sr7 2.569109 1_555
O12 Sr3 2.623639 1_555
O12 Sr0 2.712541 1_555
O13 Sr5 2.589577 1_455
O13 Sr0 2.608954 1_555
O13 Sr2 2.658782 1_554
O14 Sr7 2.568663 1_545
O14 Sr3 2.623524 1_555
O14 Sr4 2.712472 1_555
O15 Sr6 2.589592 1_455
O15 Sr4 2.609094 1_565
O15 Sr2 2.658992 1_555
