# generated using pymatgen
data_Mn2CuO4
_symmetry_space_group_name_H-M   'P 1'
_cell_length_a   6.13410916
_cell_length_b   6.13410916
_cell_length_c   29.51957321
_cell_angle_alpha   87.44129941
_cell_angle_beta   87.44129941
_cell_angle_gamma   58.20523142
_symmetry_Int_Tables_number   1
_chemical_formula_structural   Mn2CuO4
_chemical_formula_sum   'Mn24 Cu12 O48'
_cell_volume   942.83162401
_cell_formula_units_Z   12
loop_
 _symmetry_equiv_pos_site_id
 _symmetry_equiv_pos_as_xyz
  1  'x, y, z'
loop_
 _atom_site_type_symbol
 _atom_site_label
 _atom_site_symmetry_multiplicity
 _atom_site_fract_x
 _atom_site_fract_y
 _atom_site_fract_z
 _atom_site_occupancy
  Mn  Mn0  1  0.00450100  0.00450100  0.00050500  1
  Mn  Mn1  1  0.83238400  0.33515900  0.89570300  1
  Mn  Mn2  1  0.33515900  0.83238400  0.89570300  1
  Mn  Mn3  1  0.66642200  0.66642200  0.97829600  1
  Mn  Mn4  1  0.16851600  0.66796500  0.72960200  1
  Mn  Mn5  1  0.00120200  0.00120200  0.81206900  1
  Mn  Mn6  1  0.99037000  0.99037000  0.62231400  1
  Mn  Mn7  1  0.33909400  0.33909400  0.83478200  1
  Mn  Mn8  1  0.66796500  0.16851600  0.72960200  1
  Mn  Mn9  1  0.49972900  0.99997200  0.56268000  1
  Mn  Mn10  1  0.67722200  0.67722200  0.66996900  1
  Mn  Mn11  1  0.99997200  0.49972900  0.56268000  1
  Mn  Mn12  1  0.32388800  0.32388800  0.45542200  1
  Mn  Mn13  1  0.83332400  0.33333200  0.39584500  1
  Mn  Mn14  1  0.65725600  0.65725600  0.28868200  1
  Mn  Mn15  1  0.33333200  0.83332400  0.39584500  1
  Mn  Mn16  1  0.00937400  0.00937400  0.50303700  1
  Mn  Mn17  1  0.16705000  0.66627300  0.22927200  1
  Mn  Mn18  1  0.34277500  0.34277500  0.33637900  1
  Mn  Mn19  1  0.66627300  0.16705000  0.22927200  1
  Mn  Mn20  1  0.98852200  0.98852200  0.12307900  1
  Mn  Mn21  1  0.49644200  0.99966200  0.06209900  1
  Mn  Mn22  1  0.67609600  0.67609600  0.16911800  1
  Mn  Mn23  1  0.99966200  0.49644200  0.06209900  1
  Cu  Cu0  1  0.32873600  0.32873600  0.95800800  1
  Cu  Cu1  1  0.66276900  0.66276900  0.79099300  1
  Cu  Cu2  1  0.83419600  0.83419600  0.89578800  1
  Cu  Cu3  1  0.16762000  0.16762000  0.72907600  1
  Cu  Cu4  1  0.33424200  0.33424200  0.64635000  1
  Cu  Cu5  1  0.49989200  0.49989200  0.56257900  1
  Cu  Cu6  1  0.66673200  0.66673200  0.47922100  1
  Cu  Cu7  1  0.83337000  0.83337000  0.39584300  1
  Cu  Cu8  1  0.00004900  0.00004900  0.31250400  1
  Cu  Cu9  1  0.16700200  0.16700200  0.22920100  1
  Cu  Cu10  1  0.33304600  0.33304600  0.14549800  1
  Cu  Cu11  1  0.49970100  0.49970100  0.06272900  1
  O  O0  1  0.50900200  0.50900200  0.93570600  1
  O  O1  1  0.65588400  0.65588400  0.85901300  1
  O  O2  1  0.96279800  0.50229800  0.93476300  1
  O  O3  1  0.84459200  0.84459200  0.76885200  1
  O  O4  1  0.16340400  0.70681200  0.85644400  1
  O  O5  1  0.50229800  0.96279800  0.93476300  1
  O  O6  1  0.01112600  0.01112600  0.93172100  1
  O  O7  1  0.70681200  0.16340400  0.85644400  1
  O  O8  1  0.98663500  0.98663500  0.69143300  1
  O  O9  1  0.29440100  0.83907900  0.76817300  1
  O  O10  1  0.83907900  0.29440100  0.76817300  1
  O  O11  1  0.15596300  0.15596300  0.85622300  1
  O  O12  1  0.17067600  0.17067600  0.59821600  1
  O  O13  1  0.49814700  0.04021800  0.69247700  1
  O  O14  1  0.04021800  0.49814700  0.69247700  1
  O  O15  1  0.34773300  0.34773300  0.76629800  1
  O  O16  1  0.31738000  0.31738000  0.52408800  1
  O  O17  1  0.62492000  0.17300800  0.59985600  1
  O  O18  1  0.50432100  0.50432100  0.43157900  1
  O  O19  1  0.17300800  0.62492000  0.59985600  1
  O  O20  1  0.49872700  0.49872700  0.69414600  1
  O  O21  1  0.82697700  0.37467700  0.52546200  1
  O  O22  1  0.37467700  0.82697700  0.52546200  1
  O  O23  1  0.65062500  0.65062500  0.35736000  1
  O  O24  1  0.68243800  0.68243800  0.60120500  1
  O  O25  1  0.95874300  0.50635600  0.43297100  1
  O  O26  1  0.50635600  0.95874300  0.43297100  1
  O  O27  1  0.82896200  0.82896200  0.52700600  1
  O  O28  1  0.83756900  0.83756900  0.26488600  1
  O  O29  1  0.16033700  0.70797400  0.35871300  1
  O  O30  1  0.70797400  0.16033700  0.35871300  1
  O  O31  1  0.01603900  0.01603900  0.43434200  1
  O  O32  1  0.98502600  0.98502600  0.19118000  1
  O  O33  1  0.29217400  0.83962400  0.26639500  1
  O  O34  1  0.83962400  0.29217400  0.26639500  1
  O  O35  1  0.16230900  0.16230900  0.36010100  1
  O  O36  1  0.49420700  0.04153400  0.19180800  1
  O  O37  1  0.16561200  0.16561200  0.09769800  1
  O  O38  1  0.34863300  0.34863300  0.26771900  1
  O  O39  1  0.04153400  0.49420700  0.19180800  1
  O  O40  1  0.31917900  0.31917900  0.02530000  1
  O  O41  1  0.62805000  0.16815100  0.09931500  1
  O  O42  1  0.16815100  0.62805000  0.09931500  1
  O  O43  1  0.49605800  0.49605800  0.19367100  1
  O  O44  1  0.82512600  0.37382300  0.02272500  1
  O  O45  1  0.67920700  0.67920700  0.09995500  1
  O  O46  1  0.37382300  0.82512600  0.02272500  1
  O  O47  1  0.81957700  0.81957700  0.02225500  1
loop_
_geom_bond_atom_site_label_1
_geom_bond_atom_site_label_2
_geom_bond_distance
_geom_bond_site_symmetry_2
Mn0 O6 2.028086 1_554
Mn0 O47 2.052207 1_445
Mn0 O46 2.052989 1_545
Mn0 O44 2.052989 1_455
Mn1 O1 1.971212 1_555
Mn1 O6 1.975428 1_655
Mn1 O2 2.018105 1_555
Mn1 O7 2.022440 1_555
Mn1 O11 2.028539 1_655
Mn1 O0 2.034888 1_555
Mn2 O1 1.971212 1_555
Mn2 O6 1.975428 1_565
Mn2 O5 2.018105 1_555
Mn2 O4 2.022440 1_555
Mn2 O11 2.028539 1_565
Mn2 O0 2.034888 1_555
Mn3 O5 1.987047 1_555
Mn3 O2 1.987047 1_555
Mn3 O44 1.987927 1_556
Mn3 O46 1.987927 1_556
Mn3 O47 2.144026 1_556
Mn3 O0 2.155202 1_555
Mn4 O15 1.970122 1_555
Mn4 O14 1.987031 1_555
Mn4 O8 1.988167 1_455
Mn4 O20 1.991968 1_555
Mn4 O9 2.008411 1_555
Mn4 O3 2.025446 1_455
Mn5 O10 1.981152 1_455
Mn5 O9 1.981152 1_545
Mn5 O7 1.994671 1_455
Mn5 O4 1.994671 1_545
Mn5 O3 2.159771 1_445
Mn5 O11 2.161458 1_555
Mn6 O12 2.025122 1_665
Mn6 O19 2.034656 1_655
Mn6 O17 2.034656 1_565
Mn6 O8 2.038710 1_555
Mn7 O15 2.019006 1_555
Mn7 O11 2.031548 1_555
Mn7 O7 2.040554 1_555
Mn7 O4 2.040554 1_555
Mn8 O15 1.970122 1_555
Mn8 O13 1.987031 1_555
Mn8 O8 1.988167 1_545
Mn8 O20 1.991968 1_555
Mn8 O10 2.008411 1_555
Mn8 O3 2.025446 1_545
Mn9 O12 1.988179 1_565
Mn9 O22 1.989637 1_555
Mn9 O17 1.989683 1_565
Mn9 O24 1.989716 1_555
Mn9 O16 1.990143 1_565
Mn9 O27 1.991060 1_555
Mn10 O20 2.007668 1_555
Mn10 O14 2.023766 1_655
Mn10 O13 2.023766 1_565
Mn10 O24 2.027796 1_555
Mn11 O12 1.988179 1_655
Mn11 O21 1.989637 1_555
Mn11 O19 1.989683 1_655
Mn11 O24 1.989716 1_555
Mn11 O16 1.990143 1_655
Mn11 O27 1.991060 1_555
Mn12 O18 2.024134 1_555
Mn12 O16 2.024626 1_555
Mn12 O26 2.033084 1_545
Mn12 O25 2.033084 1_455
Mn13 O23 1.988088 1_555
Mn13 O31 1.988291 1_655
Mn13 O30 1.989397 1_555
Mn13 O25 1.989721 1_555
Mn13 O18 1.990951 1_555
Mn13 O35 1.991026 1_655
Mn14 O28 2.022513 1_555
Mn14 O23 2.024958 1_555
Mn14 O34 2.031099 1_555
Mn14 O33 2.031099 1_555
Mn15 O23 1.988088 1_555
Mn15 O31 1.988291 1_565
Mn15 O29 1.989397 1_555
Mn15 O26 1.989721 1_555
Mn15 O18 1.990951 1_555
Mn15 O35 1.991026 1_565
Mn16 O27 2.025038 1_445
Mn16 O31 2.025454 1_555
Mn16 O22 2.033635 1_545
Mn16 O21 2.033635 1_455
Mn17 O32 1.987320 1_455
Mn17 O38 1.988380 1_555
Mn17 O43 1.988909 1_555
Mn17 O33 1.989944 1_555
Mn17 O28 1.991276 1_455
Mn17 O39 1.991593 1_555
Mn18 O35 2.023401 1_555
Mn18 O38 2.024577 1_555
Mn18 O29 2.032158 1_555
Mn18 O30 2.032158 1_555
Mn19 O32 1.987320 1_545
Mn19 O38 1.988380 1_555
Mn19 O43 1.988909 1_555
Mn19 O34 1.989944 1_555
Mn19 O28 1.991276 1_545
Mn19 O36 1.991593 1_555
Mn20 O37 2.004875 1_665
Mn20 O32 2.008746 1_555
Mn20 O41 2.024253 1_565
Mn20 O42 2.024253 1_655
Mn21 O40 1.968100 1_565
Mn21 O45 1.990770 1_555
Mn21 O41 1.996653 1_565
Mn21 O37 1.996766 1_565
Mn21 O46 2.025007 1_555
Mn21 O47 2.033007 1_555
Mn22 O43 2.026542 1_555
Mn22 O39 2.037215 1_655
Mn22 O36 2.037215 1_565
Mn22 O45 2.040230 1_555
Mn23 O40 1.968100 1_655
Mn23 O45 1.990770 1_555
Mn23 O42 1.996653 1_655
Mn23 O37 1.996766 1_655
Mn23 O44 2.025007 1_555
Mn23 O47 2.033007 1_555
Cu0 O40 1.983837 1_556
Cu0 O0 2.009314 1_555
Cu0 O5 2.048665 1_545
Cu0 O2 2.048665 1_455
Cu1 O1 2.005505 1_555
Cu1 O3 2.023786 1_555
Cu1 O10 2.055477 1_555
Cu1 O9 2.055477 1_555
Cu2 O7 2.060653 1_565
Cu2 O4 2.060653 1_655
Cu2 O5 2.066498 1_555
Cu2 O2 2.066498 1_555
Cu2 O6 2.219846 1_665
Cu2 O1 2.245871 1_555
Cu3 O14 2.024559 1_555
Cu3 O13 2.024559 1_555
Cu3 O10 2.054070 1_455
Cu3 O9 2.054070 1_545
Cu3 O15 2.269730 1_555
Cu3 O8 2.284477 1_445
Cu4 O17 2.021279 1_555
Cu4 O19 2.021279 1_555
Cu4 O13 2.027307 1_555
Cu4 O14 2.027307 1_555
Cu4 O12 2.312501 1_555
Cu4 O20 2.313802 1_555
Cu5 O21 2.017662 1_555
Cu5 O22 2.017662 1_555
Cu5 O19 2.019290 1_555
Cu5 O17 2.019290 1_555
Cu5 O16 2.312085 1_555
Cu5 O24 2.314535 1_555
Cu6 O21 2.021080 1_555
Cu6 O22 2.021080 1_555
Cu6 O26 2.021132 1_555
Cu6 O25 2.021132 1_555
Cu6 O18 2.293241 1_555
Cu6 O27 2.294464 1_555
Cu7 O30 2.017171 1_565
Cu7 O29 2.017171 1_655
Cu7 O26 2.017379 1_555
Cu7 O25 2.017379 1_555
Cu7 O31 2.313678 1_665
Cu7 O23 2.314135 1_555
Cu8 O34 2.018832 1_455
Cu8 O33 2.018832 1_545
Cu8 O30 2.020545 1_455
Cu8 O29 2.020545 1_545
Cu8 O35 2.291095 1_555
Cu8 O28 2.293364 1_445
Cu9 O34 2.020249 1_455
Cu9 O33 2.020249 1_545
Cu9 O39 2.022256 1_555
Cu9 O36 2.022256 1_555
Cu9 O32 2.299678 1_445
Cu9 O38 2.304289 1_555
Cu10 O39 2.020715 1_555
Cu10 O36 2.020715 1_555
Cu10 O42 2.032336 1_555
Cu10 O41 2.032336 1_555
Cu10 O43 2.308568 1_555
Cu10 O37 2.339030 1_555
Cu11 O42 2.028544 1_555
Cu11 O41 2.028544 1_555
Cu11 O46 2.054811 1_555
Cu11 O44 2.054811 1_555
Cu11 O45 2.264099 1_555
Cu11 O40 2.276794 1_555
