# generated using pymatgen
data_Mn17Nb31N48
_symmetry_space_group_name_H-M   'P 1'
_cell_length_a   5.33662404
_cell_length_b   5.33662404
_cell_length_c   40.37008800
_cell_angle_alpha   90.00000000
_cell_angle_beta   90.00000000
_cell_angle_gamma   120.00000049
_symmetry_Int_Tables_number   1
_chemical_formula_structural   Mn17Nb31N48
_chemical_formula_sum   'Mn17 Nb31 N48'
_cell_volume   995.68861677
_cell_formula_units_Z   1
loop_
 _symmetry_equiv_pos_site_id
 _symmetry_equiv_pos_as_xyz
  1  'x, y, z'
loop_
 _atom_site_type_symbol
 _atom_site_label
 _atom_site_symmetry_multiplicity
 _atom_site_fract_x
 _atom_site_fract_y
 _atom_site_fract_z
 _atom_site_occupancy
  Mn  Mn0  1  0.00000000  0.00000000  0.00000000  1
  Mn  Mn1  1  0.00000000  0.00000000  0.25117200  1
  Mn  Mn2  1  0.00000000  0.00000000  0.87402300  1
  Mn  Mn3  1  0.33333300  0.66666700  0.00000000  1
  Mn  Mn4  1  0.00000000  0.00000000  0.12597700  1
  Mn  Mn5  1  0.33333300  0.66666700  0.25076400  1
  Mn  Mn6  1  0.33333300  0.66666700  0.37456900  1
  Mn  Mn7  1  0.00000000  0.00000000  0.37451400  1
  Mn  Mn8  1  0.33333300  0.66666700  0.62543100  1
  Mn  Mn9  1  0.33333300  0.66666700  0.74923600  1
  Mn  Mn10  1  0.00000000  0.00000000  0.62548600  1
  Mn  Mn11  1  0.00000000  0.00000000  0.74882800  1
  Mn  Mn12  1  0.66666700  0.33333300  0.87437900  1
  Mn  Mn13  1  0.00000000  0.00000000  0.50000000  1
  Mn  Mn14  1  0.66666700  0.33333300  0.12562100  1
  Mn  Mn15  1  0.66666700  0.33333300  0.37437400  1
  Mn  Mn16  1  0.66666700  0.33333300  0.62562600  1
  Nb  Nb0  1  0.00016700  0.66905200  0.06303300  1
  Nb  Nb1  1  0.00314000  0.67047500  0.31371200  1
  Nb  Nb2  1  0.99986800  0.66906600  0.56363100  1
  Nb  Nb3  1  0.00018900  0.66921900  0.81193800  1
  Nb  Nb4  1  0.33094800  0.99983300  0.93696700  1
  Nb  Nb5  1  0.33078100  0.99981100  0.18806200  1
  Nb  Nb6  1  0.33093400  0.00013200  0.43636900  1
  Nb  Nb7  1  0.00016700  0.33111500  0.93696700  1
  Nb  Nb8  1  0.00018900  0.33097000  0.18806200  1
  Nb  Nb9  1  0.99986800  0.33080300  0.43636900  1
  Nb  Nb10  1  0.33333300  0.66666700  0.87432200  1
  Nb  Nb11  1  0.33333300  0.66666700  0.12567800  1
  Nb  Nb12  1  0.33333300  0.66666700  0.50000000  1
  Nb  Nb13  1  0.33094800  0.33111500  0.06303300  1
  Nb  Nb14  1  0.32952500  0.33266500  0.31371200  1
  Nb  Nb15  1  0.33093400  0.33080300  0.56363100  1
  Nb  Nb16  1  0.33078100  0.33097000  0.81193800  1
  Nb  Nb17  1  0.32952500  0.99686000  0.68628800  1
  Nb  Nb18  1  0.66888500  0.66905200  0.93696700  1
  Nb  Nb19  1  0.66919700  0.66906600  0.43636900  1
  Nb  Nb20  1  0.66903000  0.66921900  0.18806200  1
  Nb  Nb21  1  0.66733500  0.67047500  0.68628800  1
  Nb  Nb22  1  0.66666700  0.33333300  0.00000000  1
  Nb  Nb23  1  0.66666700  0.33333300  0.25113300  1
  Nb  Nb24  1  0.66666700  0.33333300  0.50000000  1
  Nb  Nb25  1  0.66666700  0.33333300  0.74886700  1
  Nb  Nb26  1  0.66888500  0.99983300  0.06303300  1
  Nb  Nb27  1  0.66733500  0.99686000  0.31371200  1
  Nb  Nb28  1  0.66919700  0.00013200  0.56363100  1
  Nb  Nb29  1  0.66903000  0.99981100  0.81193800  1
  Nb  Nb30  1  0.00314000  0.33266500  0.68628800  1
  N  N0  1  0.99655000  0.66502700  0.90427700  1
  N  N1  1  0.99861400  0.66073000  0.40429300  1
  N  N2  1  0.99639200  0.66392200  0.15536700  1
  N  N3  1  0.00239100  0.66640800  0.22046400  1
  N  N4  1  0.00196500  0.66617700  0.96959700  1
  N  N5  1  0.00083000  0.67186400  0.46922800  1
  N  N6  1  0.99929800  0.65979100  0.65422000  1
  N  N7  1  0.99915600  0.66753100  0.71913400  1
  N  N8  1  0.00239100  0.33598300  0.77953600  1
  N  N9  1  0.00083000  0.32896600  0.53077200  1
  N  N10  1  0.33497300  0.33152400  0.90427700  1
  N  N11  1  0.33607800  0.33247000  0.15536700  1
  N  N12  1  0.33927000  0.33788300  0.40429300  1
  N  N13  1  0.34020900  0.33950800  0.65422000  1
  N  N14  1  0.33382300  0.33578800  0.96959700  1
  N  N15  1  0.33359200  0.33598300  0.22046400  1
  N  N16  1  0.32813600  0.32896600  0.46922800  1
  N  N17  1  0.33246900  0.33162500  0.71913400  1
  N  N18  1  0.67103400  0.99917000  0.46922800  1
  N  N19  1  0.66847600  0.00345000  0.90427700  1
  N  N20  1  0.66753000  0.00360800  0.15536700  1
  N  N21  1  0.66211700  0.00138600  0.40429300  1
  N  N22  1  0.33382300  0.99803500  0.03040300  1
  N  N23  1  0.33246900  0.00084400  0.28086600  1
  N  N24  1  0.33497300  0.00345000  0.09572300  1
  N  N25  1  0.32813600  0.99917000  0.53077200  1
  N  N26  1  0.34020900  0.00070200  0.34578000  1
  N  N27  1  0.33359200  0.99760900  0.77953600  1
  N  N28  1  0.33927000  0.00138600  0.59570700  1
  N  N29  1  0.33607800  0.00360800  0.84463300  1
  N  N30  1  0.66421200  0.66617700  0.03040300  1
  N  N31  1  0.66847600  0.66502700  0.09572300  1
  N  N32  1  0.66837500  0.66753100  0.28086600  1
  N  N33  1  0.66049200  0.65979100  0.34578000  1
  N  N34  1  0.66401700  0.66640800  0.77953600  1
  N  N35  1  0.66211700  0.66073000  0.59570700  1
  N  N36  1  0.67103400  0.67186400  0.53077200  1
  N  N37  1  0.66753000  0.66392200  0.84463300  1
  N  N38  1  0.66401700  0.99760900  0.22046400  1
  N  N39  1  0.66421200  0.99803500  0.96959700  1
  N  N40  1  0.66837500  0.00084400  0.71913400  1
  N  N41  1  0.66049200  0.00070200  0.65422000  1
  N  N42  1  0.00196500  0.33578800  0.03040300  1
  N  N43  1  0.99655000  0.33152400  0.09572300  1
  N  N44  1  0.99929800  0.33950800  0.34578000  1
  N  N45  1  0.99915600  0.33162500  0.28086600  1
  N  N46  1  0.99861400  0.33788300  0.59570700  1
  N  N47  1  0.99639200  0.33247000  0.84463300  1
loop_
_geom_bond_atom_site_label_1
_geom_bond_atom_site_label_2
_geom_bond_distance
_geom_bond_site_symmetry_2
Mn0 N14 2.167702 1_554
Mn0 N30 2.167702 1_445
Mn0 N39 2.167702 1_444
Mn0 N42 2.167702 1_555
Mn0 N4 2.167702 1_544
Mn0 N22 2.167702 1_545
Mn1 N32 2.139401 1_445
Mn1 N23 2.139401 1_555
Mn1 N45 2.139401 1_455
Mn1 N15 2.174628 1_555
Mn1 N38 2.174628 1_445
Mn1 N3 2.174628 1_545
Mn2 N37 2.142495 1_445
Mn2 N29 2.142495 1_555
Mn2 N47 2.142495 1_455
Mn2 N0 2.157485 1_445
Mn2 N10 2.157487 1_555
Mn2 N19 2.157489 1_455
Mn3 N4 2.151515 1_554
Mn3 N22 2.151515 1_555
Mn3 N39 2.151517 1_554
Mn3 N42 2.151517 1_555
Mn3 N14 2.151519 1_554
Mn3 N30 2.151519 1_555
Mn4 N11 2.142495 1_555
Mn4 N2 2.142495 1_445
Mn4 N20 2.142495 1_455
Mn4 N24 2.157485 1_555
Mn4 N31 2.157487 1_445
Mn4 N43 2.157489 1_455
Mn5 N3 2.147782 1_555
Mn5 N38 2.147784 1_555
Mn5 N15 2.147786 1_555
Mn5 N23 2.159963 1_565
Mn5 N45 2.159965 1_455
Mn5 N32 2.159967 1_555
Mn6 N44 2.112914 1_455
Mn6 N26 2.112914 1_565
Mn6 N33 2.112914 1_555
Mn6 N1 2.138942 1_455
Mn6 N21 2.138946 1_565
Mn6 N12 2.138951 1_555
Mn7 N26 2.152925 1_555
Mn7 N33 2.152927 1_445
Mn7 N44 2.152929 1_455
Mn7 N21 2.170253 1_455
Mn7 N12 2.170255 1_555
Mn7 N1 2.170257 1_445
Mn8 N41 2.112914 1_565
Mn8 N6 2.112914 1_455
Mn8 N13 2.112914 1_555
Mn8 N28 2.138942 1_565
Mn8 N46 2.138946 1_455
Mn8 N35 2.138951 1_555
Mn9 N27 2.147782 1_555
Mn9 N8 2.147784 1_555
Mn9 N34 2.147786 1_555
Mn9 N7 2.159963 1_455
Mn9 N40 2.159965 1_565
Mn9 N17 2.159967 1_555
Mn10 N6 2.152925 1_445
Mn10 N13 2.152927 1_555
Mn10 N41 2.152929 1_455
Mn10 N46 2.170253 1_455
Mn10 N35 2.170255 1_445
Mn10 N28 2.170257 1_555
Mn11 N17 2.139401 1_555
Mn11 N7 2.139401 1_445
Mn11 N40 2.139401 1_455
Mn11 N34 2.174628 1_445
Mn11 N8 2.174628 1_555
Mn11 N27 2.174628 1_545
Mn12 N47 2.132233 1_555
Mn12 N29 2.132236 1_555
Mn12 N37 2.132238 1_555
Mn12 N19 2.138487 1_555
Mn12 N0 2.138491 1_555
Mn12 N10 2.138496 1_555
Mn13 N36 2.148835 1_445
Mn13 N16 2.148835 1_555
Mn13 N18 2.148835 1_445
Mn13 N9 2.148835 1_555
Mn13 N5 2.148835 1_545
Mn13 N25 2.148835 1_545
Mn14 N20 2.132233 1_555
Mn14 N2 2.132236 1_555
Mn14 N11 2.132238 1_555
Mn14 N43 2.138487 1_555
Mn14 N24 2.138491 1_555
Mn14 N31 2.138496 1_555
Mn15 N44 2.103846 1_555
Mn15 N26 2.103851 1_555
Mn15 N33 2.103855 1_555
Mn15 N1 2.134142 1_555
Mn15 N21 2.134142 1_555
Mn15 N12 2.134142 1_555
Mn16 N41 2.103846 1_555
Mn16 N6 2.103851 1_555
Mn16 N13 2.103855 1_555
Mn16 N28 2.134142 1_555
Mn16 N46 2.134142 1_555
Mn16 N35 2.134142 1_555
N0 Nb10 2.162626 1_655
N0 Nb18 2.199389 1_555
N0 Nb4 2.220391 1_655
N0 Nb7 2.225256 1_655
N1 Nb9 2.188304 1_555
N1 Nb19 2.201693 1_555
N1 Nb6 2.211433 1_665
N2 Nb11 2.154914 1_655
N2 Nb20 2.200990 1_555
N2 Nb8 2.221646 1_655
N2 Nb5 2.222826 1_655
N3 Nb23 2.172035 1_455
N3 Nb5 2.197700 1_555
N3 Nb8 2.212382 1_555
N3 Nb20 2.214246 1_455
N4 Nb22 2.164483 1_456
N4 Nb4 2.204985 1_555
N4 Nb7 2.217082 1_555
N4 Nb18 2.218628 1_455
N5 Nb12 2.177582 1_555
N5 Nb24 2.183005 1_455
N5 Nb6 2.201334 1_565
N5 Nb19 2.205821 1_455
N5 Nb9 2.250146 1_455
N6 Nb30 2.181699 1_655
N6 Nb17 2.201665 1_655
N6 Nb21 2.217803 1_555
N7 Nb25 2.146026 1_555
N7 Nb17 2.203832 1_655
N7 Nb21 2.218576 1_555
N7 Nb30 2.233892 1_655
N8 Nb25 2.172033 1_455
N8 Nb16 2.197700 1_555
N8 Nb3 2.212382 1_555
N8 Nb29 2.214246 1_445
N9 Nb12 2.177584 1_555
N9 Nb24 2.183003 1_455
N9 Nb15 2.201332 1_555
N9 Nb28 2.205819 1_455
N9 Nb2 2.250150 1_455
N10 Nb10 2.162626 1_555
N10 Nb4 2.199394 1_545
N10 Nb7 2.220389 1_555
N10 Nb18 2.225254 1_555
N11 Nb11 2.154918 1_555
N11 Nb5 2.200990 1_545
N11 Nb20 2.221646 1_555
N11 Nb8 2.222826 1_555
N12 Nb19 2.188308 1_555
N12 Nb6 2.201685 1_555
N12 Nb9 2.211437 1_455
N13 Nb21 2.181697 1_555
N13 Nb30 2.201663 1_555
N13 Nb17 2.217807 1_545
N14 Nb22 2.164485 1_556
N14 Nb7 2.204985 1_555
N14 Nb18 2.217082 1_555
N14 Nb4 2.218628 1_545
N15 Nb23 2.172037 1_555
N15 Nb8 2.197700 1_555
N15 Nb20 2.212382 1_555
N15 Nb5 2.214246 1_545
N16 Nb12 2.177586 1_555
N16 Nb24 2.183007 1_555
N16 Nb9 2.201336 1_455
N16 Nb6 2.205817 1_555
N16 Nb19 2.250148 1_555
N17 Nb25 2.146028 1_555
N17 Nb30 2.203832 1_555
N17 Nb17 2.218576 1_545
N17 Nb21 2.233892 1_555
N18 Nb12 2.177584 1_555
N18 Nb24 2.183003 1_565
N18 Nb19 2.201332 1_555
N18 Nb9 2.205819 1_565
N18 Nb6 2.250150 1_565
N19 Nb10 2.162626 1_545
N19 Nb7 2.199392 1_655
N19 Nb18 2.220393 1_545
N19 Nb4 2.225252 1_545
N20 Nb11 2.154916 1_545
N20 Nb8 2.200990 1_655
N20 Nb5 2.221646 1_545
N20 Nb20 2.222826 1_545
N21 Nb6 2.188312 1_555
N21 Nb9 2.201689 1_555
N21 Nb19 2.211428 1_545
N22 Nb22 2.164483 1_565
N22 Nb0 2.204985 1_555
N22 Nb26 2.217082 1_555
N22 Nb13 2.218628 1_565
N23 Nb23 2.146026 1_555
N23 Nb1 2.203832 1_545
N23 Nb14 2.218576 1_555
N23 Nb27 2.233892 1_545
N24 Nb11 2.162626 1_545
N24 Nb13 2.199389 1_555
N24 Nb0 2.220391 1_545
N24 Nb26 2.225256 1_545
N25 Nb12 2.177582 1_555
N25 Nb24 2.183005 1_565
N25 Nb2 2.201334 1_455
N25 Nb15 2.205821 1_565
N25 Nb28 2.250146 1_565
N26 Nb27 2.181699 1_545
N26 Nb1 2.201665 1_545
N26 Nb14 2.217803 1_555
N27 Nb25 2.172035 1_565
N27 Nb3 2.197700 1_555
N27 Nb29 2.212382 1_555
N27 Nb16 2.214246 1_565
N28 Nb28 2.188304 1_555
N28 Nb15 2.201693 1_555
N28 Nb2 2.211433 1_445
N29 Nb10 2.154914 1_545
N29 Nb16 2.200990 1_555
N29 Nb29 2.221646 1_545
N29 Nb3 2.222826 1_545
N30 Nb22 2.164485 1_555
N30 Nb26 2.204985 1_555
N30 Nb13 2.217082 1_555
N30 Nb0 2.218628 1_655
N31 Nb11 2.162626 1_555
N31 Nb0 2.199394 1_655
N31 Nb26 2.220389 1_555
N31 Nb13 2.225254 1_555
N32 Nb23 2.146028 1_555
N32 Nb27 2.203832 1_555
N32 Nb1 2.218576 1_655
N32 Nb14 2.233892 1_555
N33 Nb14 2.181697 1_555
N33 Nb27 2.201663 1_555
N33 Nb1 2.217807 1_655
N34 Nb25 2.172037 1_555
N34 Nb29 2.197700 1_555
N34 Nb16 2.212382 1_555
N34 Nb3 2.214246 1_655
N35 Nb15 2.188308 1_555
N35 Nb2 2.201685 1_555
N35 Nb28 2.211437 1_565
N36 Nb12 2.177586 1_555
N36 Nb24 2.183007 1_555
N36 Nb28 2.201336 1_565
N36 Nb2 2.205817 1_555
N36 Nb15 2.250148 1_555
N37 Nb10 2.154918 1_555
N37 Nb3 2.200990 1_655
N37 Nb16 2.221646 1_555
N37 Nb29 2.222826 1_555
N38 Nb23 2.172033 1_565
N38 Nb20 2.197700 1_555
N38 Nb5 2.212382 1_555
N38 Nb8 2.214246 1_665
N39 Nb22 2.164481 1_566
N39 Nb18 2.204985 1_555
N39 Nb4 2.217082 1_555
N39 Nb7 2.218628 1_665
N40 Nb25 2.146024 1_555
N40 Nb21 2.203832 1_545
N40 Nb30 2.218576 1_655
N40 Nb17 2.233892 1_545
N41 Nb17 2.181695 1_545
N41 Nb21 2.201668 1_545
N41 Nb30 2.217805 1_655
N42 Nb22 2.164481 1_455
N42 Nb13 2.204985 1_555
N42 Nb0 2.217082 1_555
N42 Nb26 2.218628 1_445
N43 Nb11 2.162626 1_655
N43 Nb26 2.199392 1_545
N43 Nb13 2.220393 1_655
N43 Nb0 2.225252 1_655
N44 Nb1 2.181695 1_655
N44 Nb14 2.201668 1_655
N44 Nb27 2.217805 1_545
N45 Nb23 2.146024 1_555
N45 Nb14 2.203832 1_655
N45 Nb27 2.218576 1_545
N45 Nb1 2.233892 1_655
N46 Nb2 2.188312 1_555
N46 Nb28 2.201689 1_555
N46 Nb15 2.211428 1_655
N47 Nb10 2.154916 1_655
N47 Nb29 2.200990 1_545
N47 Nb3 2.221646 1_655
N47 Nb16 2.222826 1_655
