# generated using pymatgen
data_BaCu(SeO3)2
_symmetry_space_group_name_H-M   'P 1'
_cell_length_a   5.38763200
_cell_length_b   9.06316000
_cell_length_c   13.57581900
_cell_angle_alpha   90.00000000
_cell_angle_beta   90.00000000
_cell_angle_gamma   90.00000000
_symmetry_Int_Tables_number   1
_chemical_formula_structural   BaCu(SeO3)2
_chemical_formula_sum   'Ba4 Cu4 Se8 O24'
_cell_volume   662.89327004
_cell_formula_units_Z   4
loop_
 _symmetry_equiv_pos_site_id
 _symmetry_equiv_pos_as_xyz
  1  'x, y, z'
loop_
 _atom_site_type_symbol
 _atom_site_label
 _atom_site_symmetry_multiplicity
 _atom_site_fract_x
 _atom_site_fract_y
 _atom_site_fract_z
 _atom_site_occupancy
  Ba  Ba0  1  0.00041400  0.75102400  0.29834500  1
  Ba  Ba1  1  0.99958600  0.25102400  0.20165500  1
  Ba  Ba2  1  0.00041400  0.75102400  0.70165500  1
  Ba  Ba3  1  0.99958600  0.25102400  0.79834500  1
  Cu  Cu0  1  0.54299200  0.04647200  0.63105600  1
  Cu  Cu1  1  0.45700800  0.54647200  0.86894400  1
  Cu  Cu2  1  0.45700800  0.54647200  0.13105600  1
  Cu  Cu3  1  0.54299200  0.04647200  0.36894400  1
  Se  Se0  1  0.52651300  0.23065400  0.00000000  1
  Se  Se1  1  0.50353000  0.91886900  0.85703300  1
  Se  Se2  1  0.50353000  0.91886900  0.14296700  1
  Se  Se3  1  0.08251000  0.16115600  0.50000000  1
  Se  Se4  1  0.47348700  0.73065400  0.50000000  1
  Se  Se5  1  0.49647000  0.41886900  0.35703300  1
  Se  Se6  1  0.49647000  0.41886900  0.64296700  1
  Se  Se7  1  0.91749000  0.66115600  0.00000000  1
  O  O0  1  0.20960300  0.96598100  0.82489600  1
  O  O1  1  0.68752700  0.00184500  0.23296900  1
  O  O2  1  0.20960300  0.96598100  0.17510400  1
  O  O3  1  0.31247300  0.50184500  0.26703100  1
  O  O4  1  0.45469700  0.33419700  0.89577100  1
  O  O5  1  0.59429600  0.60189800  0.00000000  1
  O  O6  1  0.40570400  0.10189800  0.50000000  1
  O  O7  1  0.84194900  0.22068600  0.00000000  1
  O  O8  1  0.15805100  0.72068600  0.50000000  1
  O  O9  1  0.79039700  0.46598100  0.32489600  1
  O  O10  1  0.02599600  0.57264600  0.89805500  1
  O  O11  1  0.02599600  0.57264600  0.10194500  1
  O  O12  1  0.46950800  0.23941800  0.68837900  1
  O  O13  1  0.79039700  0.46598100  0.67510400  1
  O  O14  1  0.68752700  0.00184500  0.76703100  1
  O  O15  1  0.53049200  0.73941800  0.18837900  1
  O  O16  1  0.97400400  0.07264600  0.60194500  1
  O  O17  1  0.45469700  0.33419700  0.10422900  1
  O  O18  1  0.46950800  0.23941800  0.31162100  1
  O  O19  1  0.31247300  0.50184500  0.73296900  1
  O  O20  1  0.53049200  0.73941800  0.81162100  1
  O  O21  1  0.97400400  0.07264600  0.39805500  1
  O  O22  1  0.54530300  0.83419700  0.60422900  1
  O  O23  1  0.54530300  0.83419700  0.39577100  1
loop_
_geom_bond_atom_site_label_1
_geom_bond_atom_site_label_2
_geom_bond_distance
_geom_bond_site_symmetry_2
Ba0 O2 2.804443 1_555
Ba0 O9 2.843257 1_455
Ba0 O3 2.847366 1_555
Ba0 O8 2.879501 1_555
Ba0 O23 2.886132 1_455
Ba0 O15 2.941019 1_455
Ba0 O1 2.965964 1_465
Ba0 O11 3.121173 1_555
Ba0 O21 3.217034 1_465
Ba0 O15 3.224239 1_555
Ba0 O23 3.306918 1_555
Ba1 O9 2.804443 1_555
Ba1 O2 2.843257 1_645
Ba1 O1 2.847366 1_555
Ba1 O7 2.879501 1_555
Ba1 O17 2.886132 1_655
Ba1 O18 2.941019 1_655
Ba1 O3 2.965964 1_655
Ba1 O21 3.121173 1_555
Ba1 O11 3.217034 1_655
Ba1 O18 3.224239 1_555
Ba1 O17 3.306918 1_555
Ba2 O0 2.804443 1_555
Ba2 O13 2.843257 1_455
Ba2 O19 2.847366 1_555
Ba2 O8 2.879501 1_555
Ba2 O22 2.886132 1_455
Ba2 O20 2.941019 1_455
Ba2 O14 2.965964 1_465
Ba2 O10 3.121173 1_555
Ba2 O16 3.217034 1_465
Ba2 O20 3.224239 1_555
Ba2 O22 3.306918 1_555
Ba3 O13 2.804443 1_555
Ba3 O0 2.843257 1_645
Ba3 O14 2.847366 1_555
Ba3 O7 2.879501 1_556
Ba3 O4 2.886132 1_655
Ba3 O12 2.941019 1_655
Ba3 O19 2.965964 1_655
Ba3 O16 3.121173 1_555
Ba3 O10 3.217034 1_655
Ba3 O12 3.224239 1_555
Ba3 O4 3.306918 1_555
Cu0 O12 1.954559 1_555
Cu0 O22 1.958091 1_545
Cu0 O6 1.991220 1_555
Cu0 O14 2.043912 1_555
Cu0 O16 2.367439 1_555
Cu1 O20 1.954559 1_555
Cu1 O4 1.958091 1_555
Cu1 O5 1.991220 1_556
Cu1 O19 2.043912 1_555
Cu1 O10 2.367439 1_555
Cu2 O15 1.954559 1_555
Cu2 O17 1.958091 1_555
Cu2 O5 1.991220 1_555
Cu2 O3 2.043912 1_555
Cu2 O11 2.367439 1_555
Cu3 O18 1.954559 1_555
Cu3 O23 1.958091 1_545
Cu3 O6 1.991220 1_555
Cu3 O1 2.043912 1_555
Cu3 O21 2.367439 1_555
O0 Se1 1.697161 1_555
O1 Se2 1.743890 1_545
O2 Se2 1.697161 1_555
O3 Se5 1.743890 1_555
O4 Se0 1.741424 1_556
O5 Se7 1.822194 1_555
O6 Se3 1.822194 1_555
O7 Se0 1.701853 1_555
O8 Se4 1.701853 1_555
O9 Se5 1.697161 1_555
O10 Se7 1.703132 1_456
O11 Se7 1.703132 1_455
O12 Se6 1.745375 1_555
O13 Se6 1.697161 1_555
O14 Se1 1.743890 1_545
O15 Se2 1.745375 1_555
O16 Se3 1.703132 1_655
O17 Se0 1.741424 1_555
O18 Se5 1.745375 1_555
O19 Se6 1.743890 1_555
O20 Se1 1.745375 1_555
O21 Se3 1.703132 1_655
O22 Se4 1.741424 1_555
O23 Se4 1.741424 1_555
