# generated using pymatgen
data_Co7(RuO6)2
_symmetry_space_group_name_H-M   'P 1'
_cell_length_a   5.96225700
_cell_length_b   5.97671424
_cell_length_c   13.00404313
_cell_angle_alpha   101.24326751
_cell_angle_beta   101.58439303
_cell_angle_gamma   92.36857877
_symmetry_Int_Tables_number   1
_chemical_formula_structural   Co7(RuO6)2
_chemical_formula_sum   'Co14 Ru4 O24'
_cell_volume   443.67898110
_cell_formula_units_Z   2
loop_
 _symmetry_equiv_pos_site_id
 _symmetry_equiv_pos_as_xyz
  1  'x, y, z'
loop_
 _atom_site_type_symbol
 _atom_site_label
 _atom_site_symmetry_multiplicity
 _atom_site_fract_x
 _atom_site_fract_y
 _atom_site_fract_z
 _atom_site_occupancy
  Co  Co0  1  0.05688800  0.29673500  0.59173700  1
  Co  Co1  1  0.16405700  0.15516500  0.83232500  1
  Co  Co2  1  0.49745800  0.51046000  0.49935600  1
  Co  Co3  1  0.37497100  0.61078900  0.24487900  1
  Co  Co4  1  0.15602200  0.17373700  0.33323400  1
  Co  Co5  1  0.83525900  0.83597700  0.16790300  1
  Co  Co6  1  0.70283900  0.96678300  0.91798800  1
  Co  Co7  1  0.83902300  0.33518200  0.16926100  1
  Co  Co8  1  0.51332000  0.49504000  0.00197500  1
  Co  Co9  1  0.29246500  0.06612900  0.09135200  1
  Co  Co10  1  0.83155200  0.83289000  0.66597400  1
  Co  Co11  1  0.60603000  0.37118500  0.74127600  1
  Co  Co12  1  0.33251600  0.83355000  0.66694400  1
  Co  Co13  1  0.96610500  0.70348600  0.41524400  1
  Ru  Ru0  1  0.50727500  0.00897900  0.49001200  1
  Ru  Ru1  1  0.65759200  0.16420700  0.34142200  1
  Ru  Ru2  1  0.15646800  0.65931200  0.84370200  1
  Ru  Ru3  1  0.00956300  0.50669000  0.99217500  1
  O  O0  1  0.09380000  0.06499600  0.67778100  1
  O  O1  1  0.73355200  0.28520700  0.50202200  1
  O  O2  1  0.58140100  0.06530400  0.64820400  1
  O  O3  1  0.41248300  0.39606200  0.34366000  1
  O  O4  1  0.27052500  0.25457900  0.48988300  1
  O  O5  1  0.05952900  0.10659700  0.17897300  1
  O  O6  1  0.06260700  0.56721000  0.15444700  1
  O  O7  1  0.77054700  0.27448800  0.01209600  1
  O  O8  1  0.91940100  0.38510500  0.32661600  1
  O  O9  1  0.77121800  0.73150300  0.00168500  1
  O  O10  1  0.62135100  0.56840900  0.16653300  1
  O  O11  1  0.60872800  0.10441900  0.18124300  1
  O  O12  1  0.38508100  0.40960700  0.83796700  1
  O  O13  1  0.38008900  0.92263400  0.83688600  1
  O  O14  1  0.26501400  0.74775700  0.00518400  1
  O  O15  1  0.08472300  0.60173100  0.68454000  1
  O  O16  1  0.23710600  0.26415400  0.98721900  1
  O  O17  1  0.94058800  0.91281800  0.83419600  1
  O  O18  1  0.92921900  0.38363600  0.83084800  1
  O  O19  1  0.72375000  0.75066500  0.49695800  1
  O  O20  1  0.56970700  0.60080400  0.65399200  1
  O  O21  1  0.38321200  0.93832400  0.32821100  1
  O  O22  1  0.28699200  0.74577500  0.49692600  1
  O  O23  1  0.91429200  0.95017700  0.33532900  1
loop_
_geom_bond_atom_site_label_1
_geom_bond_atom_site_label_2
_geom_bond_distance
_geom_bond_site_symmetry_2
Co0 O0 1.936328 1_555
Co0 O15 1.960492 1_555
Co0 O4 2.003560 1_555
Co0 O1 2.033885 1_455
Co1 O0 1.930202 1_555
Co1 O17 1.934179 1_445
Co1 O13 1.934799 1_545
Co1 O16 1.945193 1_555
Co1 O12 1.951054 1_555
Co1 O18 1.995719 1_455
Co2 O22 1.923778 1_555
Co2 O20 1.931393 1_555
Co2 O19 1.938208 1_555
Co2 O3 1.960372 1_555
Co2 O4 1.968064 1_555
Co2 O1 1.987556 1_555
Co3 O10 1.947112 1_555
Co3 O6 1.969807 1_555
Co3 O3 1.974413 1_555
Co3 O21 2.037719 1_555
Co4 O5 1.928633 1_555
Co4 O23 1.932372 1_445
Co4 O8 1.932508 1_455
Co4 O3 1.949531 1_555
Co4 O4 1.969663 1_555
Co4 O21 1.993986 1_545
Co5 O10 1.998862 1_555
Co5 O5 2.019377 1_665
Co5 O9 2.080940 1_555
Co5 O23 2.100016 1_555
Co5 O11 2.143150 1_565
Co5 O6 2.148019 1_655
Co6 O9 1.947877 1_556
Co6 O17 1.954937 1_555
Co6 O7 1.976200 1_566
Co6 O13 1.979734 1_555
Co7 O5 1.939058 1_655
Co7 O10 1.943953 1_555
Co7 O6 1.947255 1_655
Co7 O11 1.955767 1_555
Co7 O7 1.959298 1_555
Co7 O8 1.965220 1_555
Co8 O9 2.046098 1_555
Co8 O16 2.057956 1_554
Co8 O10 2.059996 1_555
Co8 O7 2.064143 1_555
Co8 O12 2.069340 1_554
Co8 O14 2.158689 1_555
Co9 O16 1.954784 1_554
Co9 O5 1.959969 1_555
Co9 O11 1.987261 1_555
Co9 O14 1.993053 1_545
Co10 O20 2.006163 1_555
Co10 O0 2.008492 1_665
Co10 O2 2.089349 1_565
Co10 O15 2.098001 1_655
Co10 O17 2.105219 1_555
Co10 O19 2.114400 1_555
Co11 O20 1.936979 1_555
Co11 O2 1.967793 1_555
Co11 O12 1.986657 1_555
Co11 O18 2.031818 1_555
Co12 O0 2.031344 1_565
Co12 O20 2.032302 1_555
Co12 O15 2.060327 1_555
Co12 O2 2.070494 1_565
Co12 O13 2.127129 1_555
Co12 O22 2.128846 1_555
Co13 O19 1.957075 1_555
Co13 O23 1.963535 1_555
Co13 O22 1.972734 1_655
Co13 O8 1.999720 1_555
O1 Ru1 2.023321 1_555
O1 Ru0 2.049596 1_555
O2 Ru0 1.973062 1_555
O3 Ru1 2.055611 1_555
O4 Ru0 2.078091 1_555
O6 Ru3 2.026978 1_554
O7 Ru3 2.036895 1_654
O8 Ru1 2.065488 1_555
O9 Ru3 2.000933 1_654
O11 Ru1 2.002192 1_555
O12 Ru2 2.063089 1_555
O13 Ru2 2.047138 1_555
O14 Ru3 2.011047 1_554
O14 Ru2 2.025087 1_554
O15 Ru2 1.984886 1_555
O16 Ru3 2.026620 1_555
O17 Ru2 2.034194 1_655
O18 Ru3 2.034004 1_655
O18 Ru2 2.048309 1_655
O19 Ru0 2.056649 1_565
O21 Ru1 2.035313 1_565
O21 Ru0 2.038432 1_565
O22 Ru0 2.034575 1_565
O23 Ru1 2.038649 1_565
