# generated using pymatgen
data_Sb5IO7
_symmetry_space_group_name_H-M   'P 1'
_cell_length_a   13.74180300
_cell_length_b   7.59129100
_cell_length_c   13.42666501
_cell_angle_alpha   63.58406567
_cell_angle_beta   90.00000000
_cell_angle_gamma   90.00000000
_symmetry_Int_Tables_number   1
_chemical_formula_structural   Sb5IO7
_chemical_formula_sum   'Sb20 I4 O28'
_cell_volume   1254.39932388
_cell_formula_units_Z   4
loop_
 _symmetry_equiv_pos_site_id
 _symmetry_equiv_pos_as_xyz
  1  'x, y, z'
loop_
 _atom_site_type_symbol
 _atom_site_label
 _atom_site_symmetry_multiplicity
 _atom_site_fract_x
 _atom_site_fract_y
 _atom_site_fract_z
 _atom_site_occupancy
  Sb  Sb0  1  0.49462000  0.13103500  0.48621000  1
  Sb  Sb1  1  0.70378400  0.88583600  0.15915400  1
  Sb  Sb2  1  0.25761200  0.34796100  0.75802400  1
  Sb  Sb3  1  0.52388600  0.64326400  0.55995300  1
  Sb  Sb4  1  0.24162300  0.56009700  0.45071000  1
  Sb  Sb5  1  0.24173500  0.52821500  0.96143200  1
  Sb  Sb6  1  0.29308000  0.40629300  0.23651700  1
  Sb  Sb7  1  0.75837700  0.56009700  0.95071000  1
  Sb  Sb8  1  0.75826500  0.52821500  0.46143200  1
  Sb  Sb9  1  0.74238800  0.34796100  0.25802400  1
  Sb  Sb10  1  0.08447600  0.14673500  0.26887000  1
  Sb  Sb11  1  0.70692000  0.40629300  0.73651700  1
  Sb  Sb12  1  0.00611200  0.52231100  0.60282400  1
  Sb  Sb13  1  0.91552400  0.14673500  0.76887000  1
  Sb  Sb14  1  0.47611400  0.64326400  0.05995300  1
  Sb  Sb15  1  0.99388800  0.52231100  0.10282400  1
  Sb  Sb16  1  0.29621600  0.88583600  0.65915400  1
  Sb  Sb17  1  0.99103700  0.44450400  0.87030400  1
  Sb  Sb18  1  0.00896300  0.44450400  0.37030400  1
  Sb  Sb19  1  0.50538000  0.13103500  0.98621000  1
  I  I0  1  0.95255800  0.94427500  0.20463400  1
  I  I1  1  0.49200500  0.01225300  0.72651900  1
  I  I2  1  0.50799500  0.01225300  0.22651900  1
  I  I3  1  0.04744200  0.94427500  0.70463400  1
  O  O0  1  0.37760900  0.48720000  0.01928200  1
  O  O1  1  0.97172400  0.15901800  0.90406900  1
  O  O2  1  0.87569600  0.46213200  0.21516200  1
  O  O3  1  0.09517000  0.43974000  0.50251300  1
  O  O4  1  0.68384500  0.33327400  0.03445200  1
  O  O5  1  0.73899700  0.32185400  0.41374500  1
  O  O6  1  0.58005600  0.91817500  0.48993400  1
  O  O7  1  0.40552000  0.58614300  0.20217100  1
  O  O8  1  0.41994400  0.91817500  0.98993400  1
  O  O9  1  0.74962600  0.77495800  0.33327300  1
  O  O10  1  0.67623100  0.61071900  0.18435200  1
  O  O11  1  0.59448000  0.58614300  0.70217100  1
  O  O12  1  0.25037400  0.77495800  0.83327300  1
  O  O13  1  0.32376900  0.61071900  0.68435200  1
  O  O14  1  0.38133600  0.95924700  0.51515200  1
  O  O15  1  0.12430400  0.46213200  0.71516200  1
  O  O16  1  0.21178400  0.52494200  0.31327700  1
  O  O17  1  0.09474600  0.45123300  0.97794100  1
  O  O18  1  0.02827600  0.15901800  0.40406900  1
  O  O19  1  0.79243800  0.54681600  0.60032800  1
  O  O20  1  0.78821600  0.52494200  0.81327700  1
  O  O21  1  0.90525400  0.45123300  0.47794100  1
  O  O22  1  0.90483000  0.43974000  0.00251300  1
  O  O23  1  0.62239100  0.48720000  0.51928200  1
  O  O24  1  0.26100300  0.32185400  0.91374500  1
  O  O25  1  0.61866400  0.95924700  0.01515200  1
  O  O26  1  0.20756200  0.54681600  0.10032800  1
  O  O27  1  0.31615500  0.33327400  0.53445200  1
loop_
_geom_bond_atom_site_label_1
_geom_bond_atom_site_label_2
_geom_bond_distance
_geom_bond_site_symmetry_2
I0 Sb10 2.751670 1_665
I1 Sb0 2.938756 1_555
I1 Sb16 3.122522 1_545
I2 Sb19 2.938756 1_554
I2 Sb1 3.122522 1_545
I3 Sb13 2.751670 1_465
O0 Sb5 1.992821 1_554
O0 Sb14 2.027251 1_555
O1 Sb13 2.012695 1_555
O1 Sb17 2.024487 1_555
O2 Sb9 1.998599 1_555
O2 Sb15 2.123340 1_555
O3 Sb12 2.110873 1_555
O3 Sb18 2.120997 1_555
O3 Sb4 2.191664 1_555
O4 Sb7 1.885592 1_554
O5 Sb8 1.956167 1_555
O5 Sb9 2.011034 1_555
O6 Sb0 1.979916 1_565
O6 Sb3 2.022177 1_555
O7 Sb6 1.975830 1_555
O7 Sb14 2.009629 1_555
O8 Sb19 1.979916 1_565
O8 Sb14 2.022177 1_556
O9 Sb8 1.901506 1_555
O9 Sb1 2.195434 1_555
O10 Sb1 1.997730 1_555
O10 Sb9 2.007011 1_555
O11 Sb11 1.975830 1_555
O11 Sb3 2.009629 1_555
O12 Sb5 1.901506 1_555
O12 Sb16 2.195434 1_555
O13 Sb16 1.997730 1_555
O13 Sb2 2.007011 1_555
O14 Sb0 1.955546 1_565
O14 Sb16 2.111479 1_555
O15 Sb2 1.998599 1_555
O15 Sb12 2.123340 1_555
O16 Sb6 1.986820 1_555
O16 Sb4 2.020527 1_555
O17 Sb17 2.046452 1_455
O17 Sb5 2.086950 1_555
O17 Sb15 2.414248 1_456
O18 Sb10 2.012695 1_555
O18 Sb18 2.024487 1_555
O19 Sb8 1.988130 1_555
O19 Sb11 2.031509 1_555
O20 Sb11 1.986820 1_555
O20 Sb7 2.020527 1_555
O21 Sb18 2.046452 1_655
O21 Sb8 2.086950 1_555
O21 Sb12 2.414248 1_655
O22 Sb15 2.110873 1_555
O22 Sb17 2.120997 1_554
O22 Sb7 2.191664 1_554
O23 Sb8 1.992821 1_555
O23 Sb3 2.027251 1_555
O24 Sb5 1.956167 1_555
O24 Sb2 2.011034 1_555
O25 Sb19 1.955546 1_564
O25 Sb1 2.111479 1_555
O26 Sb5 1.988130 1_554
O26 Sb6 2.031509 1_555
O27 Sb4 1.885592 1_555
