# generated using pymatgen
data_Ba2Tm(CuO2)4
_symmetry_space_group_name_H-M   'P 1'
_cell_length_a   13.69738671
_cell_length_b   13.69738671
_cell_length_c   3.83409006
_cell_angle_alpha   90.00000000
_cell_angle_beta   90.00000000
_cell_angle_gamma   163.83939080
_symmetry_Int_Tables_number   1
_chemical_formula_structural   Ba2Tm(CuO2)4
_chemical_formula_sum   'Ba2 Tm1 Cu4 O8'
_cell_volume   200.21613476
_cell_formula_units_Z   1
loop_
 _symmetry_equiv_pos_site_id
 _symmetry_equiv_pos_as_xyz
  1  'x, y, z'
loop_
 _atom_site_type_symbol
 _atom_site_label
 _atom_site_symmetry_multiplicity
 _atom_site_fract_x
 _atom_site_fract_y
 _atom_site_fract_z
 _atom_site_occupancy
  Ba  Ba0  1  0.63515606  0.36484394  0.50000000  1
  Ba  Ba1  1  0.36484394  0.63515606  0.50000000  1
  Tm  Tm0  1  0.50000000  0.50000000  0.50000000  1
  Cu  Cu0  1  0.06007389  0.93992611  -0.00000000  1
  Cu  Cu1  1  0.93992611  0.06007389  -0.00000000  1
  Cu  Cu2  1  0.21269987  0.78730013  0.00000000  1
  Cu  Cu3  1  0.78730013  0.21269987  -0.00000000  1
  O  O0  1  0.71813208  0.28186792  0.00000000  1
  O  O1  1  0.28186792  0.71813208  -0.00000000  1
  O  O2  1  0.55090995  0.44909005  0.00000000  1
  O  O3  1  0.44909005  0.55090995  -0.00000000  1
  O  O4  1  0.05110924  0.94889076  0.50000000  1
  O  O5  1  0.94889076  0.05110924  0.50000000  1
  O  O6  1  0.14515514  0.85484486  0.00000000  1
  O  O7  1  0.85484486  0.14515514  -0.00000000  1
loop_
_geom_bond_atom_site_label_1
_geom_bond_atom_site_label_2
_geom_bond_distance
_geom_bond_site_symmetry_2
Ba0 O6 2.730469 1_546
Ba0 O6 2.730469 1_545
Ba0 O6 2.730469 1_655
Ba0 O6 2.730469 1_656
Ba0 O0 2.956349 1_555
Ba0 O0 2.956349 1_556
Ba0 O2 2.982657 1_555
Ba0 O2 2.982657 1_556
Ba0 O4 2.983849 1_545
Ba0 O4 2.983849 1_655
Ba1 O7 2.730469 1_566
Ba1 O7 2.730469 1_565
Ba1 O7 2.730469 1_455
Ba1 O7 2.730469 1_456
Ba1 O1 2.956349 1_556
Ba1 O1 2.956349 1_555
Ba1 O3 2.982657 1_556
Ba1 O3 2.982657 1_555
Ba1 O5 2.983849 1_455
Ba1 O5 2.983849 1_565
Cu0 O4 1.932403 1_555
Cu0 O4 1.932403 1_554
Cu0 O2 1.941294 1_455
Cu0 O2 1.941294 1_565
Cu0 O6 2.307642 1_555
Cu1 O5 1.932403 1_555
Cu1 O5 1.932403 1_554
Cu1 O3 1.941294 1_545
Cu1 O3 1.941294 1_655
Cu1 O7 2.307642 1_555
Cu2 O6 1.832002 1_555
Cu2 O1 1.876031 1_555
Cu2 O0 1.930946 1_565
Cu2 O0 1.930946 1_455
Cu3 O7 1.832002 1_555
Cu3 O0 1.876031 1_555
Cu3 O1 1.930946 1_545
Cu3 O1 1.930946 1_655
O2 Tm0 2.362568 1_554
O2 Tm0 2.362568 1_555
O3 Tm0 2.362568 1_554
O3 Tm0 2.362568 1_555
O4 Tm0 2.372439 1_455
O4 Tm0 2.372439 1_565
O5 Tm0 2.372439 1_655
O5 Tm0 2.372439 1_545
