# generated using pymatgen
data_Cu4Mo5O17
_symmetry_space_group_name_H-M   'P 1'
_cell_length_a   6.85581400
_cell_length_b   9.64022077
_cell_length_c   11.09873911
_cell_angle_alpha   105.85593871
_cell_angle_beta   92.03034040
_cell_angle_gamma   110.06463617
_symmetry_Int_Tables_number   1
_chemical_formula_structural   Cu4Mo5O17
_chemical_formula_sum   'Cu8 Mo10 O34'
_cell_volume   655.98936630
_cell_formula_units_Z   2
loop_
 _symmetry_equiv_pos_site_id
 _symmetry_equiv_pos_as_xyz
  1  'x, y, z'
loop_
 _atom_site_type_symbol
 _atom_site_label
 _atom_site_symmetry_multiplicity
 _atom_site_fract_x
 _atom_site_fract_y
 _atom_site_fract_z
 _atom_site_occupancy
  Cu  Cu0  1  0.74593800  0.28786400  0.07471600  1
  Cu  Cu1  1  0.07608900  0.77649500  0.55499300  1
  Cu  Cu2  1  0.25406200  0.71213600  0.92528400  1
  Cu  Cu3  1  0.92391100  0.22350500  0.44500700  1
  Cu  Cu4  1  0.68576000  0.45352100  0.37500500  1
  Cu  Cu5  1  0.31424000  0.54647900  0.62499500  1
  Cu  Cu6  1  0.21345400  0.90329700  0.29931000  1
  Cu  Cu7  1  0.78654600  0.09670300  0.70069000  1
  Mo  Mo0  1  0.31736700  0.18817800  0.61109400  1
  Mo  Mo1  1  0.75746900  0.62251100  0.02720200  1
  Mo  Mo2  1  0.68263300  0.81182200  0.38890600  1
  Mo  Mo3  1  0.77503300  0.79204900  0.79986600  1
  Mo  Mo4  1  0.24253100  0.37748900  0.97279800  1
  Mo  Mo5  1  0.71878900  0.96164000  0.14861600  1
  Mo  Mo6  1  0.20624400  0.55701500  0.32885600  1
  Mo  Mo7  1  0.22496700  0.20795100  0.20013400  1
  Mo  Mo8  1  0.79375600  0.44298500  0.67114400  1
  Mo  Mo9  1  0.28121100  0.03836000  0.85138400  1
  O  O0  1  0.73516000  0.00911300  0.32914000  1
  O  O1  1  0.16148800  0.32891400  0.34816000  1
  O  O2  1  0.33837700  0.75031600  0.30439700  1
  O  O3  1  0.69943400  0.75004700  0.17826400  1
  O  O4  1  0.20348400  0.61826600  0.50142300  1
  O  O5  1  0.02472400  0.66299800  0.06428900  1
  O  O6  1  0.63964200  0.90528700  0.53963300  1
  O  O7  1  0.54863900  0.59892900  0.37063200  1
  O  O8  1  0.85879200  0.15270000  0.13087200  1
  O  O9  1  0.06440100  0.50248000  0.73107600  1
  O  O10  1  0.04683000  0.17079300  0.58604600  1
  O  O11  1  0.95317000  0.82920700  0.41395400  1
  O  O12  1  0.26484000  0.99088700  0.67086000  1
  O  O13  1  0.49684600  0.25232400  0.23688800  1
  O  O14  1  0.14120800  0.84730000  0.86912800  1
  O  O15  1  0.90218600  0.98788200  0.79081000  1
  O  O16  1  0.30056600  0.24995300  0.82173600  1
  O  O17  1  0.54548500  0.08449800  0.90302300  1
  O  O18  1  0.97527600  0.33700200  0.93571100  1
  O  O19  1  0.74395800  0.58135700  0.84343600  1
  O  O20  1  0.50315400  0.74767600  0.76311200  1
  O  O21  1  0.36035800  0.09471300  0.46036700  1
  O  O22  1  0.79651600  0.38173400  0.49857700  1
  O  O23  1  0.45451500  0.91550200  0.09697700  1
  O  O24  1  0.78308200  0.83614500  0.98949100  1
  O  O25  1  0.83851200  0.67108600  0.65184000  1
  O  O26  1  0.45136100  0.40107100  0.62936800  1
  O  O27  1  0.25604200  0.41864300  0.15656400  1
  O  O28  1  0.93559900  0.49752000  0.26892400  1
  O  O29  1  0.66162300  0.24968400  0.69560300  1
  O  O30  1  0.21691800  0.16385500  0.01050900  1
  O  O31  1  0.09781400  0.01211800  0.20919000  1
  O  O32  1  0.37624500  0.57091100  0.96239500  1
  O  O33  1  0.62375500  0.42908900  0.03760500  1
loop_
_geom_bond_atom_site_label_1
_geom_bond_atom_site_label_2
_geom_bond_distance
_geom_bond_site_symmetry_2
Cu0 O8 1.945833 1_555
Cu0 O33 1.946622 1_555
Cu0 O18 2.266465 1_554
Cu0 O17 2.299500 1_554
Cu0 O28 2.457504 1_555
Cu0 O13 2.535090 1_555
Cu1 O4 1.974438 1_555
Cu1 O11 2.013390 1_455
Cu1 O12 2.048044 1_555
Cu1 O25 2.103836 1_455
Cu2 O14 1.945833 1_555
Cu2 O32 1.946622 1_555
Cu2 O5 2.266465 1_556
Cu2 O23 2.299500 1_556
Cu2 O9 2.457504 1_555
Cu2 O20 2.535090 1_555
Cu3 O22 1.974438 1_555
Cu3 O10 2.013390 1_655
Cu3 O0 2.048044 1_555
Cu3 O1 2.103836 1_655
Cu4 O22 1.934400 1_555
Cu4 O7 1.946583 1_555
Cu4 O13 2.073699 1_555
Cu4 O28 2.101720 1_555
Cu5 O4 1.934400 1_555
Cu5 O26 1.946583 1_555
Cu5 O20 2.073699 1_555
Cu5 O9 2.101720 1_555
Cu6 O31 1.953808 1_565
Cu6 O2 1.954579 1_555
Cu6 O21 2.099879 1_565
Cu6 O11 2.257522 1_455
Cu7 O15 1.953808 1_545
Cu7 O29 1.954579 1_555
Cu7 O6 2.099879 1_545
Cu7 O10 2.257522 1_655
Mo0 O21 1.758052 1_555
Mo0 O10 1.808366 1_555
Mo0 O26 1.887538 1_555
Mo0 O12 2.103182 1_545
Mo0 O16 2.266909 1_555
Mo0 O29 2.319627 1_555
Mo1 O5 1.745561 1_655
Mo1 O33 1.811853 1_555
Mo1 O3 1.933242 1_555
Mo1 O19 1.960884 1_554
Mo1 O24 2.162303 1_554
Mo1 O32 2.524860 1_554
Mo2 O6 1.758052 1_555
Mo2 O11 1.808366 1_555
Mo2 O7 1.887538 1_555
Mo2 O0 2.103182 1_565
Mo2 O3 2.266909 1_555
Mo2 O2 2.319627 1_555
Mo3 O20 1.768438 1_555
Mo3 O15 1.820647 1_555
Mo3 O25 1.897459 1_555
Mo3 O24 2.024818 1_555
Mo3 O19 2.156794 1_555
Mo3 O14 2.428767 1_655
Mo4 O18 1.745561 1_455
Mo4 O32 1.811853 1_555
Mo4 O16 1.933242 1_555
Mo4 O27 1.960884 1_556
Mo4 O30 2.162303 1_556
Mo4 O33 2.524860 1_556
Mo5 O23 1.744463 1_555
Mo5 O8 1.830593 1_565
Mo5 O0 1.919421 1_565
Mo5 O24 2.007610 1_554
Mo5 O3 2.114433 1_555
Mo5 O31 2.504179 1_665
Mo6 O28 1.785529 1_455
Mo6 O4 1.846498 1_555
Mo6 O2 1.871462 1_555
Mo6 O27 2.125427 1_555
Mo6 O1 2.185072 1_555
Mo6 O7 2.249046 1_555
Mo7 O13 1.768438 1_555
Mo7 O31 1.820647 1_555
Mo7 O1 1.897459 1_555
Mo7 O30 2.024818 1_555
Mo7 O27 2.156794 1_555
Mo7 O8 2.428767 1_455
Mo8 O9 1.785529 1_655
Mo8 O22 1.846498 1_555
Mo8 O29 1.871462 1_555
Mo8 O19 2.125427 1_555
Mo8 O25 2.185072 1_555
Mo8 O26 2.249046 1_555
Mo9 O17 1.744463 1_555
Mo9 O14 1.830593 1_545
Mo9 O12 1.919421 1_545
Mo9 O30 2.007610 1_556
Mo9 O16 2.114433 1_555
Mo9 O15 2.504179 1_445
