# generated using pymatgen
data_BaIn4Ir
_symmetry_space_group_name_H-M   'P 1'
_cell_length_a   4.44414838
_cell_length_b   8.02250059
_cell_length_c   8.68945625
_cell_angle_alpha   90.00000000
_cell_angle_beta   90.00000000
_cell_angle_gamma   90.00000000
_symmetry_Int_Tables_number   1
_chemical_formula_structural   BaIn4Ir
_chemical_formula_sum   'Ba2 In8 Ir2'
_cell_volume   309.80677386
_cell_formula_units_Z   2
loop_
 _symmetry_equiv_pos_site_id
 _symmetry_equiv_pos_as_xyz
  1  'x, y, z'
loop_
 _atom_site_type_symbol
 _atom_site_label
 _atom_site_symmetry_multiplicity
 _atom_site_fract_x
 _atom_site_fract_y
 _atom_site_fract_z
 _atom_site_occupancy
  Ba  Ba0  1  0.00000000  0.60653276  0.25000000  1
  Ba  Ba1  1  0.00000000  0.39346724  0.75000000  1
  In  In0  1  0.50000000  0.94554667  0.25000000  1
  In  In1  1  0.50000000  0.05445333  0.75000000  1
  In  In2  1  0.50000000  0.70419533  0.57039750  1
  In  In3  1  0.50000000  0.29580467  0.42960250  1
  In  In4  1  0.00000000  -0.00000000  -0.00000000  1
  In  In5  1  0.50000000  0.70419533  0.92960250  1
  In  In6  1  0.50000000  0.29580467  0.07039750  1
  In  In7  1  0.00000000  -0.00000000  0.50000000  1
  Ir  Ir0  1  0.00000000  0.81800844  0.75000000  1
  Ir  Ir1  1  -0.00000000  0.18199156  0.25000000  1
loop_
_geom_bond_atom_site_label_1
_geom_bond_atom_site_label_2
_geom_bond_distance
_geom_bond_site_symmetry_2
Ba0 Ir1 3.405882 1_555
Ba0 In0 3.512064 1_455
Ba0 In0 3.512064 1_555
Ba0 In5 3.647271 1_554
Ba0 In5 3.647271 1_454
Ba0 In2 3.647271 1_455
Ba0 In2 3.647271 1_555
Ba0 In6 3.686105 1_455
Ba0 In3 3.686105 1_455
Ba0 In6 3.686105 1_555
Ba0 In3 3.686105 1_555
Ba0 In7 3.831871 1_565
Ba0 In4 3.831871 1_565
Ba1 Ir0 3.405882 1_555
Ba1 In1 3.512064 1_555
Ba1 In1 3.512064 1_455
Ba1 In6 3.647271 1_556
Ba1 In6 3.647271 1_456
Ba1 In3 3.647271 1_555
Ba1 In3 3.647271 1_455
Ba1 In5 3.686105 1_455
Ba1 In2 3.686105 1_455
Ba1 In5 3.686105 1_555
Ba1 In2 3.686105 1_555
Ba1 In7 3.831871 1_555
Ba1 In4 3.831871 1_556
In0 Ir1 2.921603 1_565
In0 Ir1 2.921603 1_665
In0 In6 3.214252 1_565
In0 In3 3.214252 1_565
In0 In5 3.391184 1_554
In0 In2 3.391184 1_555
In1 Ir0 2.921603 1_645
In1 Ir0 2.921603 1_545
In1 In5 3.214252 1_545
In1 In2 3.214252 1_545
In1 In6 3.391184 1_556
In1 In3 3.391184 1_555
In2 Ir0 2.864773 1_655
In2 Ir0 2.864773 1_555
In2 In5 3.121296 1_555
In2 In7 3.308078 1_565
In2 In7 3.308078 1_665
In2 In3 3.497288 1_555
In3 Ir1 2.864773 1_655
In3 Ir1 2.864773 1_555
In3 In6 3.121296 1_555
In3 In7 3.308078 1_555
In3 In7 3.308078 1_655
In4 Ir0 2.617412 1_544
In4 Ir1 2.617412 1_555
In4 In5 3.308078 1_544
In4 In6 3.308078 1_455
In4 In6 3.308078 1_555
In4 In5 3.308078 1_444
In5 Ir0 2.864773 1_655
In5 Ir0 2.864773 1_555
In5 In6 3.497288 1_556
In6 Ir1 2.864773 1_655
In6 Ir1 2.864773 1_555
In7 Ir0 2.617412 1_545
In7 Ir1 2.617412 1_555
