# generated using pymatgen
data_SrH4O3
_symmetry_space_group_name_H-M   'P 1'
_cell_length_a   3.80325900
_cell_length_b   5.78690440
_cell_length_c   7.18975231
_cell_angle_alpha   82.98054303
_cell_angle_beta   89.02859318
_cell_angle_gamma   82.06588739
_symmetry_Int_Tables_number   1
_chemical_formula_structural   SrH4O3
_chemical_formula_sum   'Sr2 H8 O6'
_cell_volume   155.55049013
_cell_formula_units_Z   2
loop_
 _symmetry_equiv_pos_site_id
 _symmetry_equiv_pos_as_xyz
  1  'x, y, z'
loop_
 _atom_site_type_symbol
 _atom_site_label
 _atom_site_symmetry_multiplicity
 _atom_site_fract_x
 _atom_site_fract_y
 _atom_site_fract_z
 _atom_site_occupancy
  Sr  Sr0  1  0.05082200  0.62065500  0.27758100  1
  Sr  Sr1  1  0.03869900  0.37049200  0.76459600  1
  H  H0  1  0.76822900  0.11472900  0.17321100  1
  H  H1  1  0.18943100  0.11069600  0.17985200  1
  H  H2  1  0.18381700  0.84271500  0.63694300  1
  H  H3  1  0.70768400  0.91550800  0.70382100  1
  H  H4  1  0.51631900  0.93586100  0.39047400  1
  H  H5  1  0.61483800  0.23990800  0.46233300  1
  H  H6  1  0.48662900  0.85411200  0.88498200  1
  H  H7  1  0.58722500  0.44617500  0.04101000  1
  O  O0  1  0.95971900  0.21675000  0.13066000  1
  O  O1  1  0.97328800  0.78794900  0.59000600  1
  O  O2  1  0.50020600  0.93054100  0.25578700  1
  O  O3  1  0.51931800  0.99634400  0.79491500  1
  O  O4  1  0.56267600  0.40077300  0.49354800  1
  O  O5  1  0.42401300  0.56519200  0.96550200  1
loop_
_geom_bond_atom_site_label_1
_geom_bond_atom_site_label_2
_geom_bond_distance
_geom_bond_site_symmetry_2
H0 O0 1.019584 1_555
H1 O0 1.036542 1_455
H1 O2 1.524652 1_545
H2 O1 0.980203 1_455
H3 O3 1.061823 1_555
H3 O1 1.465842 1_555
H4 O2 0.975836 1_555
H5 O4 0.977184 1_555
H6 O3 1.003745 1_555
H7 O5 0.977964 1_554
H7 Sr1 2.641804 1_654
O0 Sr1 2.698775 1_654
O0 Sr0 2.745647 1_655
O1 Sr0 2.549532 1_655
O1 Sr1 2.564583 1_655
O2 Sr0 2.555683 1_655
O2 Sr0 2.632468 1_555
O3 Sr1 2.623407 1_565
O3 Sr1 3.112582 1_665
O4 Sr0 2.599147 1_555
O4 Sr1 2.656063 1_655
O4 Sr0 2.747436 1_655
O4 Sr1 2.771461 1_555
O5 Sr1 2.535523 1_555
O5 Sr0 2.663517 1_556
O5 Sr1 2.894377 1_655
