# generated using pymatgen
data_Sr2La14Mg4(Ga4O15)3
_symmetry_space_group_name_H-M   'P 1'
_cell_length_a   5.58209353
_cell_length_b   5.62825325
_cell_length_c   44.86544285
_cell_angle_alpha   59.74110521
_cell_angle_beta   59.59781985
_cell_angle_gamma   59.69246124
_symmetry_Int_Tables_number   1
_chemical_formula_structural   Sr2La14Mg4(Ga4O15)3
_chemical_formula_sum   'Sr2 La14 Mg4 Ga12 O45'
_cell_volume   989.39334346
_cell_formula_units_Z   1
loop_
 _symmetry_equiv_pos_site_id
 _symmetry_equiv_pos_as_xyz
  1  'x, y, z'
loop_
 _atom_site_type_symbol
 _atom_site_label
 _atom_site_symmetry_multiplicity
 _atom_site_fract_x
 _atom_site_fract_y
 _atom_site_fract_z
 _atom_site_occupancy
  Sr  Sr0  1  0.24049300  0.74572400  0.09656000  1
  Sr  Sr1  1  0.23467900  0.74839600  0.22294700  1
  La  La0  1  0.74030100  0.28200000  0.02906400  1
  La  La1  1  0.73512600  0.28283700  0.15444200  1
  La  La2  1  0.25699400  0.69473300  0.34818100  1
  La  La3  1  0.73705600  0.27953500  0.28034800  1
  La  La4  1  0.25217700  0.74038300  0.46928000  1
  La  La5  1  0.75706600  0.24729100  0.40475600  1
  La  La6  1  0.25047200  0.74115500  0.59470300  1
  La  La7  1  0.74952800  0.25862000  0.53039000  1
  La  La8  1  0.25078300  0.74147500  0.71956200  1
  La  La9  1  0.74988500  0.25943900  0.65514200  1
  La  La10  1  0.24958600  0.74007400  0.84501000  1
  La  La11  1  0.75025300  0.25967300  0.78005400  1
  La  La12  1  0.25805200  0.73922500  0.96876500  1
  La  La13  1  0.75475200  0.26195000  0.90376000  1
  Mg  Mg0  1  0.52723100  0.97928900  0.99580200  1
  Mg  Mg1  1  0.52255400  0.98418000  0.12089400  1
  Mg  Mg2  1  0.52083000  0.98603700  0.24622300  1
  Mg  Mg3  1  0.97338600  0.53714300  0.31451500  1
  Ga  Ga0  1  0.97252100  0.53227600  0.06549700  1
  Ga  Ga1  1  0.50543600  0.99321600  0.37487200  1
  Ga  Ga2  1  0.97013100  0.53551200  0.19083700  1
  Ga  Ga3  1  0.00051200  0.50029900  0.56232100  1
  Ga  Ga4  1  0.49999700  0.99967700  0.50003900  1
  Ga  Ga5  1  0.50020600  0.00031000  0.62493400  1
  Ga  Ga6  1  0.99905200  0.49565600  0.43827400  1
  Ga  Ga7  1  0.00096700  0.50104800  0.81204800  1
  Ga  Ga8  1  0.50005800  0.00015200  0.74999600  1
  Ga  Ga9  1  0.99772700  0.49843700  0.93850700  1
  Ga  Ga10  1  0.50128200  0.99812600  0.87489600  1
  Ga  Ga11  1  0.00004900  0.50032900  0.68742100  1
  O  O0  1  0.29415000  0.69158100  0.02435100  1
  O  O1  1  0.21151900  0.29729100  0.09696300  1
  O  O2  1  0.29599200  0.69124600  0.15087600  1
  O  O3  1  0.80763100  0.67042900  0.02736200  1
  O  O4  1  0.20620500  0.30105500  0.22271900  1
  O  O5  1  0.71537600  0.28115700  0.10199500  1
  O  O6  1  0.75612100  0.85613700  0.07958300  1
  O  O7  1  0.28755000  0.70844800  0.27705900  1
  O  O8  1  0.80656600  0.66214000  0.15327200  1
  O  O9  1  0.21909800  0.29534300  0.34846200  1
  O  O10  1  0.71234700  0.28345100  0.22821600  1
  O  O11  1  0.25323100  0.17230200  0.41533200  1
  O  O12  1  0.75042200  0.86221000  0.20436200  1
  O  O13  1  0.28364000  0.70561800  0.39993800  1
  O  O14  1  0.77607800  0.67564100  0.27936700  1
  O  O15  1  0.21606400  0.30638200  0.47335600  1
  O  O16  1  0.73369300  0.26312000  0.35093900  1
  O  O17  1  0.25015200  0.16708600  0.54157800  1
  O  O18  1  0.73373100  0.84791500  0.33493600  1
  O  O19  1  0.28257400  0.71633900  0.52385500  1
  O  O20  1  0.78341900  0.68026100  0.40312300  1
  O  O21  1  0.21798500  0.30796900  0.59782100  1
  O  O22  1  0.71889500  0.28019200  0.47634200  1
  O  O23  1  0.25004200  0.16802400  0.66647800  1
  O  O24  1  0.74953300  0.83113700  0.45867300  1
  O  O25  1  0.28234800  0.71687400  0.64908200  1
  O  O26  1  0.78314900  0.69164000  0.52703000  1
  O  O27  1  0.21802900  0.30772700  0.72283600  1
  O  O28  1  0.71769500  0.28315700  0.60091800  1
  O  O29  1  0.24998900  0.16747700  0.79158300  1
  O  O30  1  0.75006200  0.83126900  0.58361200  1
  O  O31  1  0.28359800  0.71628600  0.77393500  1
  O  O32  1  0.78223000  0.69211800  0.65215100  1
  O  O33  1  0.21866100  0.30655600  0.84784600  1
  O  O34  1  0.71759300  0.28310800  0.72588600  1
  O  O35  1  0.24356600  0.17495400  0.91705100  1
  O  O36  1  0.75005700  0.83189000  0.70852300  1
  O  O37  1  0.28966600  0.71301400  0.89875300  1
  O  O38  1  0.78284000  0.69205400  0.77699400  1
  O  O39  1  0.20117100  0.30933600  0.97602700  1
  O  O40  1  0.71696400  0.28251700  0.85060700  1
  O  O41  1  0.75223700  0.83111400  0.83313200  1
  O  O42  1  0.78155300  0.69121500  0.90190500  1
  O  O43  1  0.69562900  0.28925800  0.97867500  1
  O  O44  1  0.76181100  0.83176700  0.95520600  1
loop_
_geom_bond_atom_site_label_1
_geom_bond_atom_site_label_2
_geom_bond_distance
_geom_bond_site_symmetry_2
La0 O6 2.324630 1_545
La0 O3 2.357637 1_555
La0 O43 2.375280 1_554
La0 O0 2.410092 1_555
La0 O39 2.477665 1_654
La0 O1 2.984450 1_555
La1 O12 2.296500 1_545
La1 O8 2.333307 1_555
La1 O2 2.378551 1_555
La1 O5 2.415608 1_555
La1 O1 2.606641 1_655
La1 O4 2.994719 1_555
La2 O9 2.355097 1_555
La2 O13 2.433142 1_555
La2 O20 2.547693 1_455
La2 O16 2.550188 1_555
La3 O14 2.324021 1_555
La3 O10 2.400329 1_555
La3 O18 2.429668 1_545
La3 O7 2.459187 1_555
La3 O4 2.590227 1_655
La4 O11 2.416206 1_565
La4 O15 2.459712 1_555
La4 O19 2.470992 1_555
La4 O26 2.604967 1_455
La4 O22 2.606572 1_555
La5 O24 2.371853 1_545
La5 O16 2.438280 1_555
La5 O20 2.477151 1_555
La5 O9 2.554699 1_655
La5 O13 2.611653 1_555
La6 O17 2.381030 1_565
La6 O21 2.464452 1_555
La6 O25 2.466065 1_555
La6 O32 2.596869 1_455
La6 O28 2.598243 1_555
La7 O30 2.387193 1_545
La7 O22 2.454806 1_555
La7 O26 2.461781 1_555
La7 O15 2.582767 1_655
La7 O19 2.598425 1_555
La8 O23 2.381869 1_565
La8 O27 2.465074 1_555
La8 O31 2.466207 1_555
La8 O38 2.595877 1_455
La8 O34 2.598421 1_555
La9 O36 2.391277 1_545
La9 O28 2.461603 1_555
La9 O32 2.463907 1_555
La9 O21 2.593656 1_655
La9 O25 2.597056 1_555
La10 O29 2.391890 1_565
La10 O37 2.455335 1_555
La10 O33 2.467658 1_555
La10 O42 2.585530 1_455
La10 O40 2.594584 1_555
La11 O41 2.387436 1_545
La11 O34 2.461295 1_555
La11 O38 2.461483 1_555
La11 O27 2.590360 1_655
La11 O31 2.592618 1_555
La12 O35 2.378921 1_565
La12 O39 2.436648 1_555
La12 O0 2.472269 1_556
La12 O43 2.509718 1_555
La12 O3 2.578677 1_456
La12 O44 2.824248 1_555
La12 O44 2.871351 1_455
La12 O42 2.959464 1_555
La12 O37 3.130371 1_555
La12 O43 3.130937 1_465
La12 O39 3.228552 1_565
La13 O44 2.356873 1_545
La13 O40 2.439493 1_555
La13 O42 2.452749 1_555
La13 O33 2.551167 1_655
La13 O37 2.568846 1_555
Mg0 O44 1.932416 1_555
Mg0 O43 2.022546 1_565
Mg0 O39 2.027711 1_565
Mg0 O0 2.074822 1_556
Mg0 O3 2.119680 1_556
Mg1 O6 1.899067 1_555
Mg1 O5 2.033469 1_565
Mg1 O1 2.040740 1_565
Mg1 O2 2.067518 1_555
Mg1 O8 2.164733 1_555
Mg2 O12 1.907089 1_555
Mg2 O7 2.025390 1_555
Mg2 O10 2.041240 1_565
Mg2 O4 2.046327 1_565
Mg2 O14 2.075424 1_555
Mg3 O18 1.923878 1_555
Mg3 O7 1.979861 1_655
Mg3 O14 1.989963 1_555
Mg3 O16 2.041803 1_555
Mg3 O9 2.048042 1_655
Ga0 O6 1.829500 1_555
Ga0 O1 1.940556 1_655
Ga0 O3 1.977357 1_555
Ga0 O0 2.009263 1_655
Ga0 O5 2.018788 1_555
Ga1 O18 1.901838 1_555
Ga1 O9 1.998345 1_565
Ga1 O16 2.002235 1_565
Ga1 O20 2.024597 1_555
Ga1 O11 2.029359 1_565
Ga1 O13 2.048540 1_555
Ga2 O12 1.829899 1_555
Ga2 O4 1.942777 1_655
Ga2 O8 1.967794 1_555
Ga2 O2 2.003995 1_655
Ga2 O10 2.028751 1_555
Ga3 O19 2.000765 1_555
Ga3 O28 2.008001 1_455
Ga3 O26 2.011498 1_455
Ga3 O21 2.018743 1_555
Ga3 O17 2.033186 1_555
Ga3 O30 2.037195 1_455
Ga4 O15 2.000352 1_565
Ga4 O26 2.006513 1_555
Ga4 O22 2.014094 1_565
Ga4 O19 2.020238 1_555
Ga4 O24 2.026969 1_555
Ga4 O17 2.029488 1_565
Ga5 O21 2.005863 1_555
Ga5 O32 2.008281 1_545
Ga5 O28 2.016698 1_555
Ga5 O25 2.019941 1_545
Ga5 O30 2.027005 1_545
Ga5 O23 2.030644 1_555
Ga6 O22 1.989129 1_555
Ga6 O13 1.989772 1_655
Ga6 O15 2.004294 1_655
Ga6 O20 2.005795 1_555
Ga6 O24 2.034661 1_555
Ga6 O11 2.046530 1_655
Ga7 O31 1.997834 1_555
Ga7 O38 2.006194 1_455
Ga7 O40 2.016571 1_455
Ga7 O29 2.027692 1_555
Ga7 O41 2.027820 1_455
Ga7 O33 2.028659 1_555
Ga8 O38 2.005390 1_545
Ga8 O27 2.006283 1_555
Ga8 O34 2.016685 1_555
Ga8 O31 2.017822 1_545
Ga8 O36 2.029886 1_545
Ga8 O29 2.030932 1_555
Ga9 O44 1.933800 1_555
Ga9 O35 2.008038 1_655
Ga9 O39 2.040953 1_655
Ga9 O37 2.041824 1_655
Ga9 O42 2.053925 1_555
Ga9 O43 2.065707 1_555
Ga10 O42 1.995390 1_555
Ga10 O37 2.004613 1_555
Ga10 O33 2.006428 1_565
Ga10 O40 2.014498 1_565
Ga10 O41 2.036246 1_555
Ga10 O35 2.082117 1_565
Ga11 O25 2.002371 1_555
Ga11 O34 2.006003 1_455
Ga11 O32 2.012168 1_455
Ga11 O27 2.017421 1_555
Ga11 O23 2.034217 1_555
Ga11 O36 2.034975 1_455
O1 Sr0 2.599917 1_555
O1 Sr0 3.034863 1_545
O2 Sr0 2.458401 1_555
O2 Sr1 3.239303 1_555
O4 Sr1 2.606899 1_555
O4 Sr1 3.028399 1_545
O5 Sr0 2.634247 1_555
O7 Sr1 2.477857 1_555
O8 Sr0 2.503661 1_655
O8 Sr1 3.172300 1_555
O10 Sr1 2.643024 1_555
O10 Sr1 2.963748 1_645
O12 Sr1 2.878741 1_555
O12 Sr1 2.899668 1_655
O14 Sr1 2.565787 1_655
