# generated using pymatgen
data_Ni3(BiO2)10
_symmetry_space_group_name_H-M   'P 1'
_cell_length_a   8.73550537
_cell_length_b   8.73550537
_cell_length_c   10.02650980
_cell_angle_alpha   55.03895401
_cell_angle_beta   55.03895401
_cell_angle_gamma   69.95607879
_symmetry_Int_Tables_number   1
_chemical_formula_structural   Ni3(BiO2)10
_chemical_formula_sum   'Ni3 Bi10 O20'
_cell_volume   513.76959682
_cell_formula_units_Z   1
loop_
 _symmetry_equiv_pos_site_id
 _symmetry_equiv_pos_as_xyz
  1  'x, y, z'
loop_
 _atom_site_type_symbol
 _atom_site_label
 _atom_site_symmetry_multiplicity
 _atom_site_fract_x
 _atom_site_fract_y
 _atom_site_fract_z
 _atom_site_occupancy
  Ni  Ni0  1  0.00041600  0.99958400  0.00000000  1
  Ni  Ni1  1  0.76394800  0.80909600  0.88487100  1
  Ni  Ni2  1  0.19090400  0.23605200  0.11512900  1
  Bi  Bi0  1  0.14113100  0.48901700  0.71115900  1
  Bi  Bi1  1  0.70606000  0.33065100  0.15853300  1
  Bi  Bi2  1  0.51098300  0.85886900  0.28884100  1
  Bi  Bi3  1  0.17831700  0.15553000  0.50125100  1
  Bi  Bi4  1  0.30310200  0.66330300  0.19171600  1
  Bi  Bi5  1  0.66934900  0.29394000  0.84146700  1
  Bi  Bi6  1  0.84447000  0.82168300  0.49874900  1
  Bi  Bi7  1  0.48826500  0.14030400  0.68064200  1
  Bi  Bi8  1  0.33669700  0.69689800  0.80828400  1
  Bi  Bi9  1  0.85969600  0.51173500  0.31935800  1
  O  O0  1  0.35434500  0.36947200  0.38185200  1
  O  O1  1  0.24332300  0.74696000  0.63456100  1
  O  O2  1  0.38795800  0.00110700  0.61204800  1
  O  O3  1  0.00860600  0.37378500  0.01595600  1
  O  O4  1  0.63504400  0.61334700  0.13761600  1
  O  O5  1  0.25304000  0.75667700  0.36543900  1
  O  O6  1  0.77742100  0.00923700  0.20743400  1
  O  O7  1  0.87866600  0.63244100  0.75710200  1
  O  O8  1  0.36755900  0.12133400  0.24289800  1
  O  O9  1  0.62621500  0.99139400  0.98404400  1
  O  O10  1  0.99076300  0.22257900  0.79256600  1
  O  O11  1  0.62290400  0.87816000  0.75993200  1
  O  O12  1  0.12184000  0.37709600  0.24006800  1
  O  O13  1  0.21379700  0.99353800  0.00398400  1
  O  O14  1  0.76755000  0.26490500  0.61085300  1
  O  O15  1  0.38665300  0.36495600  0.86238400  1
  O  O16  1  0.73509500  0.23245000  0.38914700  1
  O  O17  1  0.63052800  0.64565500  0.61814800  1
  O  O18  1  0.00646200  0.78620300  0.99601600  1
  O  O19  1  0.99889300  0.61204200  0.38795200  1
loop_
_geom_bond_atom_site_label_1
_geom_bond_atom_site_label_2
_geom_bond_distance
_geom_bond_site_symmetry_2
Ni0 O18 1.869299 1_554
Ni0 O13 1.869299 1_555
Ni0 O6 1.890157 1_465
Ni0 O10 1.890157 1_464
Ni1 O4 1.922844 1_556
Ni1 O11 1.960729 1_555
Ni1 O9 2.025477 1_555
Ni1 O7 2.181989 1_555
Ni2 O15 1.922844 1_554
Ni2 O12 1.960729 1_555
Ni2 O3 2.025477 1_555
Ni2 O8 2.181989 1_555
Bi0 O7 2.126174 1_455
Bi0 O3 2.216222 1_556
Bi0 O1 2.252509 1_555
Bi0 O10 2.549215 1_455
Bi0 O5 2.614016 1_555
Bi1 O16 2.096782 1_555
Bi1 O3 2.214922 1_655
Bi1 O4 2.243355 1_555
Bi1 O6 2.466796 1_555
Bi1 O0 2.615375 1_555
Bi2 O8 2.126174 1_565
Bi2 O9 2.216222 1_554
Bi2 O5 2.252509 1_555
Bi2 O6 2.549215 1_565
Bi2 O1 2.614016 1_555
Bi3 O0 2.141628 1_555
Bi3 O8 2.274384 1_555
Bi3 O2 2.308302 1_555
Bi3 O12 2.421717 1_555
Bi3 O10 2.716117 1_455
Bi4 O5 2.097930 1_555
Bi4 O19 2.224286 1_455
Bi4 O0 2.237302 1_555
Bi4 O13 2.527996 1_555
Bi4 O4 2.548355 1_555
Bi5 O14 2.096782 1_555
Bi5 O9 2.214922 1_545
Bi5 O15 2.243355 1_555
Bi5 O10 2.466796 1_555
Bi5 O17 2.615375 1_555
Bi6 O17 2.141628 1_555
Bi6 O7 2.274384 1_555
Bi6 O19 2.308302 1_555
Bi6 O11 2.421717 1_555
Bi6 O6 2.716117 1_565
Bi7 O11 2.097196 1_545
Bi7 O2 2.258042 1_555
Bi7 O16 2.260649 1_555
Bi7 O13 2.517579 1_546
Bi7 O14 2.572439 1_555
Bi8 O1 2.097930 1_555
Bi8 O2 2.224286 1_565
Bi8 O17 2.237302 1_555
Bi8 O18 2.527996 1_555
Bi8 O15 2.548355 1_555
Bi9 O12 2.097196 1_655
Bi9 O19 2.258042 1_555
Bi9 O14 2.260649 1_555
Bi9 O18 2.517579 1_654
Bi9 O16 2.572439 1_555
