# generated using pymatgen
data_CaB2(H2O3)2
_symmetry_space_group_name_H-M   'P 1'
_cell_length_a   7.03804848
_cell_length_b   7.03804848
_cell_length_c   4.42759006
_cell_angle_alpha   89.23664584
_cell_angle_beta   89.23664584
_cell_angle_gamma   87.89291382
_symmetry_Int_Tables_number   1
_chemical_formula_structural   CaB2(H2O3)2
_chemical_formula_sum   'Ca2 B4 H8 O12'
_cell_volume   219.13099113
_cell_formula_units_Z   2
loop_
 _symmetry_equiv_pos_site_id
 _symmetry_equiv_pos_as_xyz
  1  'x, y, z'
loop_
 _atom_site_type_symbol
 _atom_site_label
 _atom_site_symmetry_multiplicity
 _atom_site_fract_x
 _atom_site_fract_y
 _atom_site_fract_z
 _atom_site_occupancy
  Ca  Ca0  1  0.79216300  0.20783700  0.75000000  1
  Ca  Ca1  1  0.20783700  0.79216300  0.25000000  1
  B  B0  1  0.72345600  0.85869500  0.31107400  1
  B  B1  1  0.14130500  0.27654400  0.18892600  1
  B  B2  1  0.27654400  0.14130500  0.68892600  1
  B  B3  1  0.85869500  0.72345600  0.81107400  1
  H  H0  1  0.40932800  0.36029600  0.87042400  1
  H  H1  1  0.63970400  0.59067200  0.62957600  1
  H  H2  1  0.59067200  0.63970400  0.12957600  1
  H  H3  1  0.36029600  0.40932800  0.37042400  1
  H  H4  1  0.07151200  0.52219800  0.71617500  1
  H  H5  1  0.47780200  0.92848800  0.78382500  1
  H  H6  1  0.92848800  0.47780200  0.28382500  1
  H  H7  1  0.52219800  0.07151200  0.21617500  1
  O  O0  1  0.78382700  0.88142000  0.62415000  1
  O  O1  1  0.11858000  0.21617300  0.87585000  1
  O  O2  1  0.21617300  0.11858000  0.37585000  1
  O  O3  1  0.88142000  0.78382700  0.12415000  1
  O  O4  1  0.55900100  0.72496800  0.30162300  1
  O  O5  1  0.27503200  0.44099900  0.19837700  1
  O  O6  1  0.44099900  0.27503200  0.69837700  1
  O  O7  1  0.72496800  0.55900100  0.80162300  1
  O  O8  1  0.66049100  0.05340100  0.20167400  1
  O  O9  1  0.94659900  0.33950900  0.29832600  1
  O  O10  1  0.33950900  0.94659900  0.79832600  1
  O  O11  1  0.05340100  0.66049100  0.70167400  1
loop_
_geom_bond_atom_site_label_1
_geom_bond_atom_site_label_2
_geom_bond_distance
_geom_bond_site_symmetry_2
Ca0 O0 2.374149 1_545
Ca0 O1 2.374149 1_655
Ca0 O9 2.450774 1_555
Ca0 O8 2.450774 1_556
Ca0 O7 2.512066 1_555
Ca0 O6 2.512066 1_555
Ca0 O9 2.852818 1_556
Ca0 O8 2.852818 1_555
Ca1 O3 2.374149 1_455
Ca1 O2 2.374149 1_565
Ca1 O10 2.450774 1_554
Ca1 O11 2.450774 1_555
Ca1 O4 2.512066 1_555
Ca1 O5 2.512066 1_555
Ca1 O10 2.852818 1_555
Ca1 O11 2.852818 1_554
B0 O3 1.463776 1_555
B0 O0 1.467715 1_555
B0 O8 1.500747 1_565
B0 O4 1.519764 1_555
B1 O2 1.463776 1_555
B1 O1 1.467715 1_554
B1 O9 1.500747 1_455
B1 O5 1.519764 1_555
B2 O1 1.463776 1_555
B2 O2 1.467715 1_555
B2 O10 1.500747 1_545
B2 O6 1.519764 1_555
B3 O0 1.463776 1_555
B3 O3 1.467715 1_556
B3 O11 1.500747 1_655
B3 O7 1.519764 1_555
H0 O6 0.993924 1_555
H1 O7 0.993924 1_555
H2 O4 0.993924 1_555
H3 O5 0.993924 1_555
H4 O11 0.978334 1_555
H5 O10 0.978334 1_555
H6 O9 0.978334 1_555
H7 O8 0.978334 1_555
