# generated using pymatgen
data_SiO2
_symmetry_space_group_name_H-M   'P 1'
_cell_length_a   6.56997361
_cell_length_b   6.56997361
_cell_length_c   6.56997317
_cell_angle_alpha   112.87502521
_cell_angle_beta   112.87502521
_cell_angle_gamma   112.87503146
_symmetry_Int_Tables_number   1
_chemical_formula_structural   SiO2
_chemical_formula_sum   'Si6 O12'
_cell_volume   185.79120218
_cell_formula_units_Z   6
loop_
 _symmetry_equiv_pos_site_id
 _symmetry_equiv_pos_as_xyz
  1  'x, y, z'
loop_
 _atom_site_type_symbol
 _atom_site_label
 _atom_site_symmetry_multiplicity
 _atom_site_fract_x
 _atom_site_fract_y
 _atom_site_fract_z
 _atom_site_occupancy
  Si  Si0  1  0.57760600  0.75000000  0.92239400  1
  Si  Si1  1  0.42239400  0.25000000  0.07760600  1
  Si  Si2  1  0.07760600  0.42239400  0.25000000  1
  Si  Si3  1  0.75000000  0.92239400  0.57760600  1
  Si  Si4  1  0.92239400  0.57760600  0.75000000  1
  Si  Si5  1  0.25000000  0.07760600  0.42239400  1
  O  O0  1  0.00000000  0.00000000  0.50000000  1
  O  O1  1  0.00000000  0.50000000  0.00000000  1
  O  O2  1  0.62833700  0.87166300  0.75000000  1
  O  O3  1  0.50000000  0.00000000  0.50000000  1
  O  O4  1  0.50000000  0.00000000  0.00000000  1
  O  O5  1  0.75000000  0.62833700  0.87166300  1
  O  O6  1  0.87166300  0.75000000  0.62833700  1
  O  O7  1  0.37166300  0.12833700  0.25000000  1
  O  O8  1  0.25000000  0.37166300  0.12833700  1
  O  O9  1  0.00000000  0.50000000  0.50000000  1
  O  O10  1  0.12833700  0.25000000  0.37166300  1
  O  O11  1  0.50000000  0.50000000  0.00000000  1
loop_
_geom_bond_atom_site_label_1
_geom_bond_atom_site_label_2
_geom_bond_distance
_geom_bond_site_symmetry_2
O0 Si5 1.849278 1_555
O0 Si3 1.849278 1_445
O1 Si4 1.849278 1_454
O1 Si2 1.849278 1_555
O2 Si0 1.680195 1_555
O2 Si3 1.680195 1_555
O3 Si5 1.849278 1_555
O3 Si3 1.849278 1_545
O4 Si1 1.849278 1_555
O4 Si0 1.849278 1_544
O5 Si4 1.680195 1_555
O5 Si0 1.680195 1_555
O6 Si4 1.680195 1_555
O6 Si3 1.680195 1_555
O7 Si5 1.680195 1_555
O7 Si1 1.680195 1_555
O8 Si2 1.680195 1_555
O8 Si1 1.680195 1_555
O9 Si2 1.849278 1_555
O9 Si4 1.849278 1_455
O10 Si2 1.680195 1_555
O10 Si5 1.680195 1_555
O11 Si1 1.849278 1_555
O11 Si0 1.849278 1_554
