# generated using pymatgen
data_TaSe2
_symmetry_space_group_name_H-M   'P 1'
_cell_length_a   12.57244980
_cell_length_b   12.57244991
_cell_length_c   27.35353212
_cell_angle_alpha   90.00000000
_cell_angle_beta   90.00000000
_cell_angle_gamma   119.99999974
_symmetry_Int_Tables_number   1
_chemical_formula_structural   TaSe2
_chemical_formula_sum   'Ta52 Se104'
_cell_volume   3744.41409188
_cell_formula_units_Z   52
loop_
 _symmetry_equiv_pos_site_id
 _symmetry_equiv_pos_as_xyz
  1  'x, y, z'
loop_
 _atom_site_type_symbol
 _atom_site_label
 _atom_site_symmetry_multiplicity
 _atom_site_fract_x
 _atom_site_fract_y
 _atom_site_fract_z
 _atom_site_occupancy
  Ta  Ta0  1  0.46074411  0.84508313  0.25000000  1
  Ta  Ta1  1  0.71528472  0.78454815  0.99996383  1
  Ta  Ta2  1  0.84730171  0.36107879  0.99937150  1
  Ta  Ta3  1  0.15318910  0.61460788  0.75000000  1
  Ta  Ta4  1  0.15269829  0.63892121  0.49937150  1
  Ta  Ta5  1  0.92148847  0.69014766  0.75000000  1
  Ta  Ta6  1  0.78454815  0.06926343  0.49996383  1
  Ta  Ta7  1  0.63892121  0.48622292  0.99937150  1
  Ta  Ta8  1  0.15269829  0.63892121  0.00062850  1
  Ta  Ta9  1  0.36107879  0.51377708  0.00062850  1
  Ta  Ta10  1  0.93073657  0.71528472  0.49996383  1
  Ta  Ta11  1  0.84508313  0.38433901  0.75000000  1
  Ta  Ta12  1  0.07636589  0.30917409  0.75000000  1
  Ta  Ta13  1  0.93073657  0.71528472  0.00003617  1
  Ta  Ta14  1  0.48622292  0.84730171  0.49937150  1
  Ta  Ta15  1  0.61566099  0.46074411  0.75000000  1
  Ta  Ta16  1  0.21545185  0.93073657  0.99996383  1
  Ta  Ta17  1  0.63892121  0.48622292  0.50062850  1
  Ta  Ta18  1  0.23134081  0.92148847  0.25000000  1
  Ta  Ta19  1  0.53925589  0.15491687  0.75000000  1
  Ta  Ta20  1  0.06926343  0.28471528  0.99996383  1
  Ta  Ta21  1  0.78454815  0.06926343  0.00003617  1
  Ta  Ta22  1  0.30917409  0.23280820  0.25000000  1
  Ta  Ta23  1  0.92363411  0.69082591  0.25000000  1
  Ta  Ta24  1  0.21545185  0.93073657  0.50003617  1
  Ta  Ta25  1  0.76719180  0.07636589  0.25000000  1
  Ta  Ta26  1  0.00000000  0.00000000  0.50000000  1
  Ta  Ta27  1  0.23280820  0.92363411  0.75000000  1
  Ta  Ta28  1  0.84681090  0.38539212  0.25000000  1
  Ta  Ta29  1  0.84730171  0.36107879  0.50062850  1
  Ta  Ta30  1  0.38539212  0.53858122  0.75000000  1
  Ta  Ta31  1  0.00000000  0.00000000  0.25000000  1
  Ta  Ta32  1  0.76865919  0.07851153  0.75000000  1
  Ta  Ta33  1  0.15491687  0.61566099  0.25000000  1
  Ta  Ta34  1  0.53858122  0.15318910  0.25000000  1
  Ta  Ta35  1  0.28471528  0.21545185  0.00003617  1
  Ta  Ta36  1  0.38433901  0.53925589  0.25000000  1
  Ta  Ta37  1  0.61460788  0.46141878  0.25000000  1
  Ta  Ta38  1  0.51377708  0.15269829  0.50062850  1
  Ta  Ta39  1  0.00000000  0.00000000  0.75000000  1
  Ta  Ta40  1  0.06926343  0.28471528  0.50003617  1
  Ta  Ta41  1  0.51377708  0.15269829  0.99937150  1
  Ta  Ta42  1  0.07851153  0.30985234  0.25000000  1
  Ta  Ta43  1  0.36107879  0.51377708  0.49937150  1
  Ta  Ta44  1  0.30985234  0.23134081  0.75000000  1
  Ta  Ta45  1  0.71528472  0.78454815  0.50003617  1
  Ta  Ta46  1  0.28471528  0.21545185  0.49996383  1
  Ta  Ta47  1  0.00000000  0.00000000  0.00000000  1
  Ta  Ta48  1  0.46141878  0.84681090  0.75000000  1
  Ta  Ta49  1  0.48622292  0.84730171  0.00062850  1
  Ta  Ta50  1  0.69014766  0.76865919  0.25000000  1
  Ta  Ta51  1  0.69082591  0.76719180  0.75000000  1
  Se  Se0  1  0.19624459  0.48512174  0.44181379  1
  Se  Se1  1  0.87606169  0.82554922  0.93415504  1
  Se  Se2  1  0.28158843  0.79438354  0.68865208  1
  Se  Se3  1  0.71112285  0.19624459  0.55818621  1
  Se  Se4  1  0.10258496  0.74311943  0.31136422  1
  Se  Se5  1  0.80375541  0.51487826  0.94181379  1
  Se  Se6  1  0.58907281  0.02536590  0.81127790  1
  Se  Se7  1  0.56370691  0.58907281  0.18872210  1
  Se  Se8  1  0.19624459  0.48512174  0.05818621  1
  Se  Se9  1  0.56413510  0.59334776  0.55691171  1
  Se  Se10  1  0.97463410  0.56370691  0.68872210  1
  Se  Se11  1  0.33333300  0.66666700  0.31170349  1
  Se  Se12  1  0.33333300  0.66666700  0.55723969  1
  Se  Se13  1  0.94948753  0.12393831  0.93415504  1
  Se  Se14  1  0.56370691  0.58907281  0.31127790  1
  Se  Se15  1  0.71841157  0.20561646  0.31134792  1
  Se  Se16  1  0.17445078  0.05051247  0.56584496  1
  Se  Se17  1  0.05093207  0.87071483  0.81072879  1
  Se  Se18  1  0.05051247  0.87606169  0.43415504  1
  Se  Se19  1  0.18021725  0.05093207  0.18927121  1
  Se  Se20  1  0.12393831  0.17445078  0.06584496  1
  Se  Se21  1  0.40665224  0.97078734  0.55691171  1
  Se  Se22  1  0.66666700  0.33333300  0.68829651  1
  Se  Se23  1  0.66666700  0.33333300  0.81170349  1
  Se  Se24  1  0.02921266  0.43586490  0.94308829  1
  Se  Se25  1  0.59334776  0.02921266  0.44308829  1
  Se  Se26  1  0.48720490  0.28158843  0.18865208  1
  Se  Se27  1  0.20561646  0.48720490  0.68865208  1
  Se  Se28  1  0.48512174  0.28887715  0.94181379  1
  Se  Se29  1  0.05093207  0.87071483  0.68927121  1
  Se  Se30  1  0.17445078  0.05051247  0.93415504  1
  Se  Se31  1  0.43629309  0.41092719  0.81127790  1
  Se  Se32  1  0.02536590  0.43629309  0.31127790  1
  Se  Se33  1  0.33333300  0.66666700  0.94276031  1
  Se  Se34  1  0.89741504  0.25688057  0.68863578  1
  Se  Se35  1  0.28158843  0.79438354  0.81134792  1
  Se  Se36  1  0.97463410  0.56370691  0.81127790  1
  Se  Se37  1  0.56413510  0.59334776  0.94308829  1
  Se  Se38  1  0.02536590  0.43629309  0.18872210  1
  Se  Se39  1  0.64053447  0.89741504  0.18863578  1
  Se  Se40  1  0.58907281  0.02536590  0.68872210  1
  Se  Se41  1  0.80375541  0.51487826  0.55818621  1
  Se  Se42  1  0.71841157  0.20561646  0.18865208  1
  Se  Se43  1  0.87071483  0.81978275  0.31072879  1
  Se  Se44  1  0.87606169  0.82554922  0.56584496  1
  Se  Se45  1  0.51487826  0.71112285  0.44181379  1
  Se  Se46  1  0.79438354  0.51279510  0.31134792  1
  Se  Se47  1  0.74980174  0.64752396  0.43580618  1
  Se  Se48  1  0.40665224  0.97078734  0.94308829  1
  Se  Se49  1  0.59334776  0.02921266  0.05691171  1
  Se  Se50  1  0.81978275  0.94906793  0.68927121  1
  Se  Se51  1  0.12393831  0.17445078  0.43415504  1
  Se  Se52  1  0.51279510  0.71841157  0.81134792  1
  Se  Se53  1  0.66666700  0.33333300  0.44276031  1
  Se  Se54  1  0.48512174  0.28887715  0.55818621  1
  Se  Se55  1  0.51279510  0.71841157  0.68865208  1
  Se  Se56  1  0.43586490  0.40665224  0.05691171  1
  Se  Se57  1  0.79438354  0.51279510  0.18865208  1
  Se  Se58  1  0.35946553  0.10258496  0.68863578  1
  Se  Se59  1  0.25019826  0.35247604  0.56419382  1
  Se  Se60  1  0.05051247  0.87606169  0.06584496  1
  Se  Se61  1  0.10258496  0.74311943  0.18863578  1
  Se  Se62  1  0.10227778  0.74980174  0.93580618  1
  Se  Se63  1  0.64752396  0.89772222  0.93580618  1
  Se  Se64  1  0.20561646  0.48720490  0.81134792  1
  Se  Se65  1  0.97078734  0.56413510  0.44308829  1
  Se  Se66  1  0.02921266  0.43586490  0.55691171  1
  Se  Se67  1  0.48720490  0.28158843  0.31134792  1
  Se  Se68  1  0.89741504  0.25688057  0.81136422  1
  Se  Se69  1  0.97078734  0.56413510  0.05691171  1
  Se  Se70  1  0.82554922  0.94948753  0.06584496  1
  Se  Se71  1  0.82554922  0.94948753  0.43415504  1
  Se  Se72  1  0.43629309  0.41092719  0.68872210  1
  Se  Se73  1  0.12928517  0.18021725  0.68927121  1
  Se  Se74  1  0.35247604  0.10227778  0.43580618  1
  Se  Se75  1  0.74311943  0.64053447  0.81136422  1
  Se  Se76  1  0.18021725  0.05093207  0.31072879  1
  Se  Se77  1  0.81978275  0.94906793  0.81072879  1
  Se  Se78  1  0.89772222  0.25019826  0.06419382  1
  Se  Se79  1  0.12928517  0.18021725  0.81072879  1
  Se  Se80  1  0.51487826  0.71112285  0.05818621  1
  Se  Se81  1  0.33333300  0.66666700  0.18829651  1
  Se  Se82  1  0.25688057  0.35946553  0.31136422  1
  Se  Se83  1  0.74311943  0.64053447  0.68863578  1
  Se  Se84  1  0.71112285  0.19624459  0.94181379  1
  Se  Se85  1  0.64053447  0.89741504  0.31136422  1
  Se  Se86  1  0.66666700  0.33333300  0.05723969  1
  Se  Se87  1  0.94948753  0.12393831  0.56584496  1
  Se  Se88  1  0.94906793  0.12928517  0.31072879  1
  Se  Se89  1  0.41092719  0.97463410  0.18872210  1
  Se  Se90  1  0.64752396  0.89772222  0.56419382  1
  Se  Se91  1  0.10227778  0.74980174  0.56419382  1
  Se  Se92  1  0.25019826  0.35247604  0.93580618  1
  Se  Se93  1  0.89772222  0.25019826  0.43580618  1
  Se  Se94  1  0.35946553  0.10258496  0.81136422  1
  Se  Se95  1  0.41092719  0.97463410  0.31127790  1
  Se  Se96  1  0.28887715  0.80375541  0.05818621  1
  Se  Se97  1  0.87071483  0.81978275  0.18927121  1
  Se  Se98  1  0.74980174  0.64752396  0.06419382  1
  Se  Se99  1  0.43586490  0.40665224  0.44308829  1
  Se  Se100  1  0.94906793  0.12928517  0.18927121  1
  Se  Se101  1  0.35247604  0.10227778  0.06419382  1
  Se  Se102  1  0.28887715  0.80375541  0.44181379  1
  Se  Se103  1  0.25688057  0.35946553  0.18863578  1
loop_
_geom_bond_atom_site_label_1
_geom_bond_atom_site_label_2
_geom_bond_distance
_geom_bond_site_symmetry_2
Se0 Ta43 2.481261 1_555
Se0 Ta40 2.722309 1_555
Se0 Ta4 2.752468 1_555
Se1 Ta1 2.559299 1_555
Se1 Ta13 2.568027 1_556
Se1 Ta47 2.657973 1_666
Se2 Ta27 2.613290 1_555
Se2 Ta48 2.621426 1_555
Se2 Ta3 2.623326 1_555
Se3 Ta29 2.481261 1_555
Se3 Ta6 2.722309 1_555
Se3 Ta38 2.752468 1_555
Se4 Ta23 2.613877 1_455
Se4 Ta18 2.614708 1_555
Se4 Ta33 2.621557 1_555
Se5 Ta7 2.481261 1_555
Se5 Ta13 2.722309 1_556
Se5 Ta2 2.752468 1_555
Se6 Ta48 2.611881 1_545
Se6 Ta32 2.616335 1_555
Se6 Ta19 2.621993 1_555
Se7 Ta37 2.611881 1_555
Se7 Ta50 2.616335 1_555
Se7 Ta36 2.621994 1_555
Se8 Ta9 2.481261 1_555
Se8 Ta20 2.722309 1_554
Se8 Ta8 2.752468 1_555
Se9 Ta17 2.516849 1_555
Se9 Ta45 2.691096 1_555
Se9 Ta43 2.727910 1_555
Se10 Ta3 2.611881 1_655
Se10 Ta5 2.616335 1_555
Se10 Ta11 2.621994 1_555
Se11 Ta33 2.617842 1_555
Se11 Ta0 2.617844 1_555
Se11 Ta36 2.617851 1_555
Se12 Ta4 2.644349 1_555
Se12 Ta14 2.644353 1_555
Se12 Ta43 2.644359 1_555
Se13 Ta20 2.559299 1_655
Se13 Ta21 2.568027 1_556
Se13 Ta47 2.657973 1_656
Se14 Ta37 2.611881 1_555
Se14 Ta50 2.616335 1_555
Se14 Ta36 2.621994 1_555
Se15 Ta25 2.613290 1_555
Se15 Ta34 2.621426 1_555
Se15 Ta28 2.623326 1_555
Se16 Ta24 2.559299 1_545
Se16 Ta46 2.568027 1_555
Se16 Ta26 2.657973 1_555
Se17 Ta39 2.617690 1_565
Se17 Ta5 2.620508 1_455
Se17 Ta27 2.628571 1_555
Se18 Ta10 2.559299 1_455
Se18 Ta24 2.568027 1_555
Se18 Ta26 2.657973 1_565
Se19 Ta31 2.617690 1_555
Se19 Ta18 2.620508 1_545
Se19 Ta22 2.628571 1_555
Se20 Ta35 2.559299 1_555
Se20 Ta20 2.568027 1_554
Se20 Ta47 2.657973 1_555
Se21 Ta38 2.516849 1_565
Se21 Ta24 2.691096 1_555
Se21 Ta14 2.727910 1_555
Se22 Ta11 2.617842 1_555
Se22 Ta19 2.617844 1_555
Se22 Ta15 2.617851 1_555
Se23 Ta11 2.617842 1_555
Se23 Ta19 2.617844 1_555
Se23 Ta15 2.617851 1_555
Se24 Ta2 2.516849 1_455
Se24 Ta20 2.691096 1_555
Se24 Ta8 2.727910 1_556
Se25 Ta14 2.516849 1_545
Se25 Ta6 2.691096 1_555
Se25 Ta38 2.727910 1_555
Se26 Ta22 2.613290 1_555
Se26 Ta37 2.621426 1_555
Se26 Ta34 2.623326 1_555
Se27 Ta12 2.613290 1_555
Se27 Ta3 2.621426 1_555
Se27 Ta30 2.623326 1_555
Se28 Ta41 2.481261 1_555
Se28 Ta35 2.722309 1_556
Se28 Ta7 2.752468 1_555
Se29 Ta39 2.617690 1_565
Se29 Ta5 2.620508 1_455
Se29 Ta27 2.628571 1_555
Se30 Ta16 2.559299 1_545
Se30 Ta35 2.568027 1_556
Se30 Ta47 2.657973 1_556
Se31 Ta30 2.611881 1_555
Se31 Ta44 2.616335 1_555
Se31 Ta15 2.621994 1_555
Se32 Ta28 2.611881 1_455
Se32 Ta42 2.616335 1_555
Se32 Ta33 2.621994 1_555
Se33 Ta8 2.644349 1_556
Se33 Ta49 2.644353 1_556
Se33 Ta9 2.644359 1_556
Se34 Ta12 2.613877 1_655
Se34 Ta32 2.614708 1_555
Se34 Ta11 2.621557 1_555
Se35 Ta27 2.613290 1_555
Se35 Ta48 2.621426 1_555
Se35 Ta3 2.623326 1_555
Se36 Ta3 2.611881 1_655
Se36 Ta5 2.616335 1_555
Se36 Ta11 2.621994 1_555
Se37 Ta7 2.516849 1_555
Se37 Ta1 2.691096 1_555
Se37 Ta9 2.727910 1_556
Se38 Ta28 2.611881 1_455
Se38 Ta42 2.616335 1_555
Se38 Ta33 2.621994 1_555
Se39 Ta25 2.613877 1_565
Se39 Ta50 2.614708 1_555
Se39 Ta0 2.621557 1_555
Se40 Ta48 2.611881 1_545
Se40 Ta32 2.616335 1_555
Se40 Ta19 2.621993 1_555
Se41 Ta17 2.481261 1_555
Se41 Ta10 2.722309 1_555
Se41 Ta29 2.752468 1_555
Se42 Ta25 2.613290 1_555
Se42 Ta34 2.621426 1_555
Se42 Ta28 2.623326 1_555
Se43 Ta31 2.617690 1_665
Se43 Ta50 2.620509 1_555
Se43 Ta23 2.628571 1_555
Se44 Ta45 2.559299 1_555
Se44 Ta10 2.568027 1_555
Se44 Ta26 2.657973 1_665
Se45 Ta14 2.481261 1_555
Se45 Ta45 2.722309 1_555
Se45 Ta43 2.752468 1_555
Se46 Ta23 2.613290 1_555
Se46 Ta28 2.621426 1_555
Se46 Ta37 2.623326 1_555
Se47 Ta17 2.524448 1_555
Se47 Ta45 2.643952 1_555
Se47 Ta10 2.653737 1_555
Se48 Ta41 2.516849 1_565
Se48 Ta16 2.691096 1_555
Se48 Ta49 2.727910 1_556
Se49 Ta49 2.516849 1_545
Se49 Ta21 2.691096 1_555
Se49 Ta41 2.727910 1_554
Se50 Ta39 2.617690 1_665
Se50 Ta32 2.620508 1_565
Se50 Ta51 2.628571 1_555
Se51 Ta46 2.559299 1_555
Se51 Ta40 2.568027 1_555
Se51 Ta26 2.657973 1_555
Se52 Ta51 2.613290 1_555
Se52 Ta30 2.621426 1_555
Se52 Ta48 2.623326 1_555
Se53 Ta29 2.644349 1_555
Se53 Ta38 2.644353 1_555
Se53 Ta17 2.644359 1_555
Se54 Ta38 2.481261 1_555
Se54 Ta46 2.722309 1_555
Se54 Ta17 2.752468 1_555
Se55 Ta51 2.613290 1_555
Se55 Ta30 2.621426 1_555
Se55 Ta48 2.623326 1_555
Se56 Ta9 2.516849 1_555
Se56 Ta35 2.691096 1_555
Se56 Ta7 2.727910 1_554
Se57 Ta23 2.613290 1_555
Se57 Ta28 2.621426 1_555
Se57 Ta37 2.623326 1_555
Se58 Ta27 2.613877 1_545
Se58 Ta44 2.614708 1_555
Se58 Ta19 2.621557 1_555
Se59 Ta43 2.524448 1_555
Se59 Ta46 2.643952 1_555
Se59 Ta40 2.653737 1_555
Se60 Ta13 2.559299 1_455
Se60 Ta16 2.568027 1_554
Se60 Ta47 2.657973 1_565
Se61 Ta23 2.613877 1_455
Se61 Ta18 2.614708 1_555
Se61 Ta33 2.621557 1_555
Se62 Ta8 2.524448 1_556
Se62 Ta13 2.643952 1_456
Se62 Ta16 2.653737 1_555
Se63 Ta49 2.524448 1_556
Se63 Ta21 2.643952 1_566
Se63 Ta1 2.653737 1_555
Se64 Ta12 2.613290 1_555
Se64 Ta3 2.621426 1_555
Se64 Ta30 2.623326 1_555
Se65 Ta4 2.516849 1_655
Se65 Ta10 2.691096 1_555
Se65 Ta29 2.727910 1_555
Se66 Ta29 2.516849 1_455
Se66 Ta40 2.691096 1_555
Se66 Ta4 2.727910 1_555
Se67 Ta22 2.613290 1_555
Se67 Ta37 2.621426 1_555
Se67 Ta34 2.623326 1_555
Se68 Ta12 2.613877 1_655
Se68 Ta32 2.614708 1_555
Se68 Ta11 2.621557 1_555
Se69 Ta8 2.516849 1_655
Se69 Ta13 2.691096 1_555
Se69 Ta2 2.727910 1_554
Se70 Ta21 2.559299 1_565
Se70 Ta1 2.568027 1_554
Se70 Ta47 2.657973 1_665
Se71 Ta6 2.559299 1_565
Se71 Ta45 2.568027 1_555
Se71 Ta26 2.657973 1_665
Se72 Ta30 2.611881 1_555
Se72 Ta44 2.616335 1_555
Se72 Ta15 2.621994 1_555
Se73 Ta39 2.617690 1_555
Se73 Ta44 2.620509 1_555
Se73 Ta12 2.628571 1_555
Se74 Ta38 2.524448 1_555
Se74 Ta24 2.643952 1_545
Se74 Ta46 2.653737 1_555
Se75 Ta51 2.613877 1_555
Se75 Ta5 2.614708 1_555
Se75 Ta15 2.621557 1_555
Se76 Ta31 2.617690 1_555
Se76 Ta18 2.620508 1_545
Se76 Ta22 2.628571 1_555
Se77 Ta39 2.617690 1_665
Se77 Ta32 2.620508 1_565
Se77 Ta51 2.628571 1_555
Se78 Ta2 2.524448 1_554
Se78 Ta20 2.643952 1_654
Se78 Ta21 2.653737 1_555
Se79 Ta39 2.617690 1_555
Se79 Ta44 2.620509 1_555
Se79 Ta12 2.628571 1_555
Se80 Ta49 2.481261 1_555
Se80 Ta1 2.722309 1_554
Se80 Ta9 2.752468 1_555
Se81 Ta33 2.617842 1_555
Se81 Ta0 2.617844 1_555
Se81 Ta36 2.617851 1_555
Se82 Ta22 2.613877 1_555
Se82 Ta42 2.614708 1_555
Se82 Ta36 2.621557 1_555
Se83 Ta51 2.613877 1_555
Se83 Ta5 2.614708 1_555
Se83 Ta15 2.621557 1_555
Se84 Ta2 2.481261 1_555
Se84 Ta21 2.722309 1_556
Se84 Ta41 2.752468 1_555
Se85 Ta25 2.613877 1_565
Se85 Ta50 2.614708 1_555
Se85 Ta0 2.621557 1_555
Se86 Ta2 2.644349 1_554
Se86 Ta41 2.644353 1_554
Se86 Ta7 2.644359 1_554
Se87 Ta40 2.559299 1_655
Se87 Ta6 2.568027 1_555
Se87 Ta26 2.657973 1_655
Se88 Ta31 2.617690 1_655
Se88 Ta42 2.620508 1_655
Se88 Ta25 2.628571 1_555
Se89 Ta34 2.611881 1_565
Se89 Ta18 2.616335 1_555
Se89 Ta0 2.621993 1_555
Se90 Ta14 2.524448 1_555
Se90 Ta6 2.643952 1_565
Se90 Ta45 2.653737 1_555
Se91 Ta4 2.524448 1_555
Se91 Ta10 2.643952 1_455
Se91 Ta24 2.653737 1_555
Se92 Ta9 2.524448 1_556
Se92 Ta35 2.643952 1_556
Se92 Ta20 2.653737 1_555
Se93 Ta29 2.524448 1_555
Se93 Ta40 2.643952 1_655
Se93 Ta6 2.653737 1_555
Se94 Ta27 2.613877 1_545
Se94 Ta44 2.614708 1_555
Se94 Ta19 2.621557 1_555
Se95 Ta34 2.611881 1_565
Se95 Ta18 2.616335 1_555
Se95 Ta0 2.621993 1_555
Se96 Ta8 2.481261 1_555
Se96 Ta16 2.722309 1_554
Se96 Ta49 2.752468 1_555
Se97 Ta31 2.617690 1_665
Se97 Ta50 2.620509 1_555
Se97 Ta23 2.628571 1_555
Se98 Ta7 2.524448 1_554
Se98 Ta1 2.643952 1_554
Se98 Ta13 2.653737 1_555
Se99 Ta43 2.516849 1_555
Se99 Ta46 2.691096 1_555
Se99 Ta17 2.727910 1_555
Se100 Ta31 2.617690 1_655
Se100 Ta42 2.620508 1_655
Se100 Ta25 2.628571 1_555
Se101 Ta41 2.524448 1_554
Se101 Ta16 2.643952 1_544
Se101 Ta35 2.653737 1_555
Se102 Ta4 2.481261 1_555
Se102 Ta24 2.722309 1_555
Se102 Ta14 2.752468 1_555
Se103 Ta22 2.613877 1_555
Se103 Ta42 2.614708 1_555
Se103 Ta36 2.621557 1_555
