# generated using pymatgen
data_FeH2C4N4Cl6O
_symmetry_space_group_name_H-M   'P 1'
_cell_length_a   7.11246100
_cell_length_b   9.61827700
_cell_length_c   12.21731500
_cell_angle_alpha   90.00000000
_cell_angle_beta   90.00000000
_cell_angle_gamma   90.00000000
_symmetry_Int_Tables_number   1
_chemical_formula_structural   FeH2C4N4Cl6O
_chemical_formula_sum   'Fe2 H4 C8 N8 Cl12 O2'
_cell_volume   835.78187718
_cell_formula_units_Z   2
loop_
 _symmetry_equiv_pos_site_id
 _symmetry_equiv_pos_as_xyz
  1  'x, y, z'
loop_
 _atom_site_type_symbol
 _atom_site_label
 _atom_site_symmetry_multiplicity
 _atom_site_fract_x
 _atom_site_fract_y
 _atom_site_fract_z
 _atom_site_occupancy
  Fe  Fe0  1  0.00109500  0.00000000  0.00000000  1
  Fe  Fe1  1  0.00109500  0.50000000  0.50000000  1
  H  H0  1  0.53239100  0.53358300  0.05819200  1
  H  H1  1  0.53239100  0.46641700  0.94180800  1
  H  H2  1  0.53239100  0.96641700  0.55819200  1
  H  H3  1  0.53239100  0.03358300  0.44180800  1
  C  C0  1  0.49151300  0.76932700  0.82520800  1
  C  C1  1  0.49151300  0.23067300  0.17479200  1
  C  C2  1  0.49151300  0.73067300  0.32520800  1
  C  C3  1  0.49151300  0.26932700  0.67479200  1
  C  C4  1  0.05293800  0.63330000  0.16926000  1
  C  C5  1  0.05293800  0.36670000  0.83074000  1
  C  C6  1  0.05293800  0.86670000  0.66926000  1
  C  C7  1  0.05293800  0.13330000  0.33074000  1
  N  N0  1  0.91078300  0.57682700  0.14569300  1
  N  N1  1  0.91078300  0.42317300  0.85430700  1
  N  N2  1  0.91078300  0.92317300  0.64569300  1
  N  N3  1  0.91078300  0.07682700  0.35430700  1
  N  N4  1  0.50096400  0.78408600  0.92097500  1
  N  N5  1  0.50096400  0.21591400  0.07902500  1
  N  N6  1  0.50096400  0.71591400  0.42097500  1
  N  N7  1  0.50096400  0.28408600  0.57902500  1
  Cl  Cl0  1  0.99610400  0.21500200  0.08906100  1
  Cl  Cl1  1  0.99610400  0.78499800  0.91093900  1
  Cl  Cl2  1  0.99610400  0.28499800  0.58906100  1
  Cl  Cl3  1  0.99610400  0.71500200  0.41093900  1
  Cl  Cl4  1  0.23435700  0.91463800  0.12197800  1
  Cl  Cl5  1  0.23435700  0.08536200  0.87802200  1
  Cl  Cl6  1  0.23435700  0.58536200  0.62197800  1
  Cl  Cl7  1  0.23435700  0.41463800  0.37802200  1
  Cl  Cl8  1  0.76603600  0.92108700  0.11959400  1
  Cl  Cl9  1  0.76603600  0.07891300  0.88040600  1
  Cl  Cl10  1  0.76603600  0.57891300  0.61959400  1
  Cl  Cl11  1  0.76603600  0.42108700  0.38040600  1
  O  O0  1  0.61423600  0.50000000  0.00000000  1
  O  O1  1  0.61423600  0.00000000  0.50000000  1
loop_
_geom_bond_atom_site_label_1
_geom_bond_atom_site_label_2
_geom_bond_distance
_geom_bond_site_symmetry_2
H0 O0 0.973986 1_555
H1 O0 0.973986 1_556
H2 O1 0.973986 1_565
H3 O1 0.973986 1_555
C0 N4 1.180511 1_555
C1 N5 1.180511 1_555
C2 N6 1.180511 1_555
C3 N7 1.180511 1_555
C4 N0 1.183302 1_455
C5 N1 1.183302 1_455
C6 N2 1.183302 1_455
C7 N3 1.183302 1_455
Cl0 Fe0 2.337008 1_655
Cl1 Fe0 2.337008 1_666
Cl2 Fe1 2.337008 1_655
Cl3 Fe1 2.337008 1_655
Cl4 Fe0 2.376432 1_565
Cl5 Fe0 2.376432 1_556
Cl6 Fe1 2.376432 1_555
Cl7 Fe1 2.376432 1_555
Cl8 Fe0 2.346494 1_665
Cl9 Fe0 2.346494 1_656
Cl10 Fe1 2.346494 1_655
Cl11 Fe1 2.346494 1_655
