# generated using pymatgen
data_YbHO2
_symmetry_space_group_name_H-M   'P 1'
_cell_length_a   5.42459800
_cell_length_b   5.42459800
_cell_length_c   5.77551400
_cell_angle_alpha   90.00000000
_cell_angle_beta   90.00000000
_cell_angle_gamma   90.00000000
_symmetry_Int_Tables_number   1
_chemical_formula_structural   YbHO2
_chemical_formula_sum   'Yb4 H4 O8'
_cell_volume   169.95179659
_cell_formula_units_Z   4
loop_
 _symmetry_equiv_pos_site_id
 _symmetry_equiv_pos_as_xyz
  1  'x, y, z'
loop_
 _atom_site_type_symbol
 _atom_site_label
 _atom_site_symmetry_multiplicity
 _atom_site_fract_x
 _atom_site_fract_y
 _atom_site_fract_z
 _atom_site_occupancy
  Yb  Yb0  1  0.28825600  0.78825600  0.73475500  1
  Yb  Yb1  1  0.21174400  0.28825600  0.26524500  1
  Yb  Yb2  1  0.71174400  0.21174400  0.73475500  1
  Yb  Yb3  1  0.78825600  0.71174400  0.26524500  1
  H  H0  1  0.29481000  0.79481000  0.21489100  1
  H  H1  1  0.20519000  0.29481000  0.78510900  1
  H  H2  1  0.70519000  0.20519000  0.21489100  1
  H  H3  1  0.79481000  0.70519000  0.78510900  1
  O  O0  1  0.00000000  0.50000000  0.57113200  1
  O  O1  1  0.50000000  0.00000000  0.42886800  1
  O  O2  1  0.00000000  0.00000000  0.50000000  1
  O  O3  1  0.50000000  0.50000000  0.50000000  1
  O  O4  1  0.19090900  0.69090900  0.11577000  1
  O  O5  1  0.30909100  0.19090900  0.88423000  1
  O  O6  1  0.80909100  0.30909100  0.11577000  1
  O  O7  1  0.69090900  0.80909100  0.88423000  1
loop_
_geom_bond_atom_site_label_1
_geom_bond_atom_site_label_2
_geom_bond_distance
_geom_bond_site_symmetry_2
H0 O4 0.981359 1_555
H1 O5 0.981359 1_555
H2 O6 0.981359 1_555
H3 O7 0.981359 1_555
O0 Yb1 2.399948 1_555
O0 Yb3 2.399948 1_455
O0 Yb0 2.404825 1_555
O0 Yb2 2.404825 1_455
O1 Yb0 2.399948 1_545
O1 Yb2 2.399948 1_555
O1 Yb3 2.404825 1_545
O1 Yb1 2.404825 1_555
O2 Yb2 2.367001 1_455
O2 Yb1 2.367001 1_555
O2 Yb3 2.367001 1_445
O2 Yb0 2.367001 1_545
O3 Yb0 2.367001 1_555
O3 Yb1 2.367001 1_555
O3 Yb3 2.367001 1_555
O3 Yb2 2.367001 1_555
O4 Yb0 2.323826 1_554
O4 Yb1 2.351365 1_555
O4 Yb3 2.351365 1_455
O5 Yb1 2.323826 1_556
O5 Yb2 2.351365 1_555
O5 Yb0 2.351365 1_545
O6 Yb2 2.323826 1_554
O6 Yb1 2.351365 1_655
O6 Yb3 2.351365 1_555
O7 Yb3 2.323826 1_556
O7 Yb2 2.351365 1_565
O7 Yb0 2.351365 1_555
