# generated using pymatgen
data_Ba9(TaN6)2
_symmetry_space_group_name_H-M   'P 1'
_cell_length_a   8.17202400
_cell_length_b   9.79766982
_cell_length_c   12.90293551
_cell_angle_alpha   76.42709243
_cell_angle_beta   85.87703630
_cell_angle_gamma   87.87577885
_symmetry_Int_Tables_number   1
_chemical_formula_structural   Ba9(TaN6)2
_chemical_formula_sum   'Ba18 Ta4 N24'
_cell_volume   1001.42822031
_cell_formula_units_Z   2
loop_
 _symmetry_equiv_pos_site_id
 _symmetry_equiv_pos_as_xyz
  1  'x, y, z'
loop_
 _atom_site_type_symbol
 _atom_site_label
 _atom_site_symmetry_multiplicity
 _atom_site_fract_x
 _atom_site_fract_y
 _atom_site_fract_z
 _atom_site_occupancy
  Ba  Ba0  1  0.46803600  0.62110100  0.12732900  1
  Ba  Ba1  1  0.98890000  0.92939900  0.26766400  1
  Ba  Ba2  1  0.45722700  0.92448600  0.26444800  1
  Ba  Ba3  1  0.26577200  0.70150100  0.84831900  1
  Ba  Ba4  1  0.96135100  0.75137900  0.62551600  1
  Ba  Ba5  1  0.00836800  0.38149000  0.89171400  1
  Ba  Ba6  1  0.54277300  0.07551400  0.73555200  1
  Ba  Ba7  1  0.17287700  0.58435700  0.38050600  1
  Ba  Ba8  1  0.01110000  0.07060100  0.73233600  1
  Ba  Ba9  1  0.53196400  0.37889900  0.87267100  1
  Ba  Ba10  1  0.82712300  0.41564300  0.61949400  1
  Ba  Ba11  1  0.03864900  0.24862100  0.37448400  1
  Ba  Ba12  1  0.50222800  0.66707000  0.58072800  1
  Ba  Ba13  1  0.25657900  0.01472600  0.00185900  1
  Ba  Ba14  1  0.74342100  0.98527400  0.99814100  1
  Ba  Ba15  1  0.73422800  0.29849900  0.15168100  1
  Ba  Ba16  1  0.99163200  0.61851000  0.10828600  1
  Ba  Ba17  1  0.49777200  0.33293000  0.41927200  1
  Ta  Ta0  1  0.73060200  0.70215300  0.87840300  1
  Ta  Ta1  1  0.73062800  0.63637200  0.33861800  1
  Ta  Ta2  1  0.26937200  0.36362800  0.66138200  1
  Ta  Ta3  1  0.26939800  0.29784700  0.12159700  1
  N  N0  1  0.19617200  0.54800000  0.69295000  1
  N  N1  1  0.26226800  0.46784600  0.00435900  1
  N  N2  1  0.21428300  0.94621300  0.44769000  1
  N  N3  1  0.26105900  0.93726600  0.53458700  1
  N  N4  1  0.70926600  0.63634100  0.74501300  1
  N  N5  1  0.75353500  0.79177500  0.20939200  1
  N  N6  1  0.30282100  0.92438600  0.62262900  1
  N  N7  1  0.14810100  0.31957600  0.54634500  1
  N  N8  1  0.54273400  0.82768000  0.91208600  1
  N  N9  1  0.78473600  0.19782200  0.82032300  1
  N  N10  1  0.69717900  0.07561400  0.37737100  1
  N  N11  1  0.73773200  0.53215400  0.99564100  1
  N  N12  1  0.80382800  0.45200000  0.30705000  1
  N  N13  1  0.50393100  0.36831800  0.61959500  1
  N  N14  1  0.21526400  0.80217800  0.17967700  1
  N  N15  1  0.73894100  0.06273400  0.46541300  1
  N  N16  1  0.78571700  0.05378700  0.55231000  1
  N  N17  1  0.06201700  0.19699800  0.12718400  1
  N  N18  1  0.29073400  0.36365900  0.25498700  1
  N  N19  1  0.85189900  0.68042400  0.45365500  1
  N  N20  1  0.93798300  0.80300200  0.87281600  1
  N  N21  1  0.49606900  0.63168200  0.38040500  1
  N  N22  1  0.45726600  0.17232000  0.08791400  1
  N  N23  1  0.24646500  0.20822500  0.79060800  1
loop_
_geom_bond_atom_site_label_1
_geom_bond_atom_site_label_2
_geom_bond_distance
_geom_bond_site_symmetry_2
Ba0 N14 2.821500 1_555
Ba0 N11 2.918597 1_554
Ba0 N18 3.025284 1_555
Ba0 N1 3.047755 1_555
Ba0 N8 3.064607 1_554
Ba0 N5 3.291861 1_555
Ba0 N21 3.315786 1_555
Ba1 N14 2.540828 1_655
Ba1 N5 2.638003 1_555
Ba1 N17 2.871661 1_665
Ba1 N2 3.103626 1_655
Ba1 N10 3.154776 1_565
Ba1 N19 3.167269 1_555
Ba2 N14 2.764793 1_555
Ba2 N5 2.830453 1_555
Ba2 N22 2.913495 1_565
Ba2 N21 2.924974 1_555
Ba2 N2 3.017785 1_555
Ba2 N10 3.130375 1_565
Ba3 N1 2.669918 1_556
Ba3 N20 2.844754 1_455
Ba3 N0 2.871719 1_555
Ba3 N8 2.877612 1_555
Ba3 N6 3.205931 1_555
Ba4 N4 2.605993 1_555
Ba4 N19 2.693614 1_555
Ba4 N0 2.748262 1_655
Ba4 N3 3.099473 1_655
Ba4 N16 3.208909 1_565
Ba4 N2 3.276536 1_655
Ba4 N20 3.337190 1_555
Ba5 N1 2.876541 1_556
Ba5 N9 2.947972 1_455
Ba5 N23 2.966344 1_555
Ba5 N11 3.021457 1_455
Ba5 N0 3.041400 1_555
Ba5 N17 3.200885 1_556
Ba6 N9 2.764793 1_555
Ba6 N23 2.830453 1_555
Ba6 N8 2.913495 1_545
Ba6 N13 2.924974 1_555
Ba6 N16 3.017785 1_555
Ba6 N6 3.130375 1_545
Ba7 N21 2.698256 1_555
Ba7 N19 2.921478 1_455
Ba7 N14 2.952855 1_555
Ba7 N7 2.953127 1_555
Ba7 N18 3.080796 1_555
Ba8 N9 2.540828 1_455
Ba8 N23 2.638003 1_555
Ba8 N20 2.871661 1_445
Ba8 N16 3.103626 1_455
Ba8 N6 3.154776 1_545
Ba8 N7 3.167269 1_555
Ba9 N9 2.821500 1_555
Ba9 N1 2.918597 1_556
Ba9 N4 3.025284 1_555
Ba9 N11 3.047755 1_555
Ba9 N22 3.064607 1_556
Ba9 N23 3.291861 1_555
Ba9 N13 3.315786 1_555
Ba10 N13 2.698256 1_555
Ba10 N7 2.921478 1_655
Ba10 N9 2.952855 1_555
Ba10 N19 2.953127 1_555
Ba10 N4 3.080796 1_555
Ba11 N18 2.605993 1_555
Ba11 N7 2.693614 1_555
Ba11 N12 2.748262 1_455
Ba11 N15 3.099473 1_455
Ba11 N2 3.208909 1_545
Ba11 N16 3.276536 1_455
Ba11 N17 3.337190 1_555
Ba12 N21 2.691532 1_555
Ba12 N4 2.761343 1_555
Ba12 N13 2.851043 1_555
Ba12 N0 2.935271 1_555
Ba12 N6 3.084186 1_555
Ba12 N19 3.181853 1_555
Ba12 N3 3.207646 1_555
Ba13 N14 2.722676 1_545
Ba13 N22 2.749718 1_555
Ba13 N23 2.937020 1_554
Ba13 N17 3.017837 1_555
Ba13 N8 3.233853 1_544
Ba14 N9 2.722676 1_565
Ba14 N8 2.749718 1_555
Ba14 N5 2.937020 1_556
Ba14 N20 3.017837 1_555
Ba14 N22 3.233853 1_566
Ba15 N11 2.669918 1_554
Ba15 N17 2.844754 1_655
Ba15 N12 2.871719 1_555
Ba15 N22 2.877612 1_555
Ba15 N10 3.205931 1_555
Ba16 N11 2.876541 1_554
Ba16 N14 2.947972 1_655
Ba16 N5 2.966344 1_555
Ba16 N1 3.021457 1_655
Ba16 N12 3.041400 1_555
Ba16 N20 3.200885 1_554
Ba17 N13 2.691532 1_555
Ba17 N18 2.761343 1_555
Ba17 N21 2.851043 1_555
Ba17 N12 2.935271 1_555
Ba17 N10 3.084186 1_555
Ba17 N7 3.181853 1_555
Ba17 N15 3.207646 1_555
N0 Ta2 2.004269 1_555
N1 Ta3 1.972001 1_555
N2 N3 1.193300 1_555
N3 N6 1.186660 1_555
N4 Ta0 1.995199 1_555
N5 Ta1 1.979435 1_555
N7 Ta2 1.978772 1_555
N8 Ta0 2.018282 1_555
N10 N15 1.186660 1_555
N11 Ta0 1.972001 1_555
N12 Ta1 2.004269 1_555
N13 Ta2 1.952771 1_555
N15 N16 1.193300 1_555
N17 Ta3 1.981598 1_555
N18 Ta3 1.995199 1_555
N19 Ta1 1.978772 1_555
N20 Ta0 1.981598 1_555
N21 Ta1 1.952771 1_555
N22 Ta3 2.018282 1_555
N23 Ta2 1.979435 1_555
