# generated using pymatgen
data_B3C10N3
_symmetry_space_group_name_H-M   'P 1'
_cell_length_a   5.01278200
_cell_length_b   7.11313900
_cell_length_c   8.66358500
_cell_angle_alpha   90.00000000
_cell_angle_beta   90.00000000
_cell_angle_gamma   90.00000000
_symmetry_Int_Tables_number   1
_chemical_formula_structural   B3C10N3
_chemical_formula_sum   'B6 C20 N6'
_cell_volume   308.91411610
_cell_formula_units_Z   2
loop_
 _symmetry_equiv_pos_site_id
 _symmetry_equiv_pos_as_xyz
  1  'x, y, z'
loop_
 _atom_site_type_symbol
 _atom_site_label
 _atom_site_symmetry_multiplicity
 _atom_site_fract_x
 _atom_site_fract_y
 _atom_site_fract_z
 _atom_site_occupancy
  B  B0  1  0.50000000  0.25000000  0.65656600  1
  B  B1  1  0.50000000  0.75000000  0.34343400  1
  B  B2  1  0.50000000  0.75000000  0.00417200  1
  B  B3  1  0.00000000  0.25000000  0.49297700  1
  B  B4  1  0.50000000  0.25000000  0.99582800  1
  B  B5  1  0.00000000  0.75000000  0.50702300  1
  C  C0  1  0.74518600  0.75000000  0.59519500  1
  C  C1  1  0.00000000  0.25000000  0.99669000  1
  C  C2  1  0.75893400  0.75000000  0.08887100  1
  C  C3  1  0.75884600  0.75000000  0.25244100  1
  C  C4  1  0.00000000  0.75000000  0.00331000  1
  C  C5  1  0.24115400  0.25000000  0.74755900  1
  C  C6  1  0.00000000  0.25000000  0.66643800  1
  C  C7  1  0.00000000  0.25000000  0.16325600  1
  C  C8  1  0.24106600  0.75000000  0.08887100  1
  C  C9  1  0.74518600  0.25000000  0.40480500  1
  C  C10  1  0.25481400  0.25000000  0.40480500  1
  C  C11  1  0.25481400  0.75000000  0.59519500  1
  C  C12  1  0.50000000  0.75000000  0.83619800  1
  C  C13  1  0.24106600  0.25000000  0.91112900  1
  C  C14  1  0.00000000  0.75000000  0.33356200  1
  C  C15  1  0.24115400  0.75000000  0.25244100  1
  C  C16  1  0.50000000  0.25000000  0.16380200  1
  C  C17  1  0.75884600  0.25000000  0.74755900  1
  C  C18  1  0.00000000  0.75000000  0.83674400  1
  C  C19  1  0.75893400  0.25000000  0.91112900  1
  N  N0  1  0.74845500  0.75000000  0.75386400  1
  N  N1  1  0.50000000  0.75000000  0.51851100  1
  N  N2  1  0.50000000  0.25000000  0.48148900  1
  N  N3  1  0.25154500  0.25000000  0.24613600  1
  N  N4  1  0.25154500  0.75000000  0.75386400  1
  N  N5  1  0.74845500  0.25000000  0.24613600  1
loop_
_geom_bond_atom_site_label_1
_geom_bond_atom_site_label_2
_geom_bond_distance
_geom_bond_site_symmetry_2
B0 N2 1.516794 1_555
B0 C17 1.518244 1_555
B0 C5 1.518244 1_555
B1 N1 1.516794 1_555
B1 C3 1.518244 1_555
B1 C15 1.518244 1_555
B2 C12 1.455257 1_554
B2 C8 1.491043 1_555
B2 C2 1.491043 1_555
B3 C9 1.488316 1_455
B3 C10 1.488316 1_555
B3 C6 1.502794 1_555
B4 C16 1.455257 1_556
B4 C19 1.491043 1_555
B4 C13 1.491043 1_555
B5 C0 1.488316 1_455
B5 C11 1.488316 1_555
B5 C14 1.502794 1_555
C0 N0 1.374740 1_555
C0 N1 1.397129 1_555
C1 C19 1.417650 1_455
C1 C13 1.417650 1_555
C1 C7 1.443059 1_556
C2 C3 1.417103 1_555
C2 C4 1.417650 1_655
C4 C8 1.417650 1_555
C5 C6 1.398303 1_555
C7 N3 1.451051 1_555
C7 N5 1.451051 1_455
C9 N5 1.374740 1_555
C9 N2 1.397129 1_555
C10 N3 1.374740 1_555
C10 N2 1.397129 1_555
C11 N4 1.374740 1_555
C11 N1 1.397129 1_555
C12 N0 1.435254 1_555
C12 N4 1.435254 1_555
C13 C5 1.417103 1_555
C14 C15 1.398303 1_555
C14 C3 1.398303 1_455
C15 C8 1.417103 1_555
C16 N5 1.435254 1_555
C16 N3 1.435254 1_555
C17 C6 1.398303 1_655
C17 C19 1.417103 1_555
C18 C4 1.443059 1_556
C18 N4 1.451051 1_555
C18 N0 1.451051 1_455
