# generated using pymatgen
data_K2Cd2(SO4)3
_symmetry_space_group_name_H-M   'P 1'
_cell_length_a   10.37864900
_cell_length_b   10.41768300
_cell_length_c   10.48335300
_cell_angle_alpha   90.00000000
_cell_angle_beta   90.00000000
_cell_angle_gamma   90.00000000
_symmetry_Int_Tables_number   1
_chemical_formula_structural   K2Cd2(SO4)3
_chemical_formula_sum   'K8 Cd8 S12 O48'
_cell_volume   1133.47559193
_cell_formula_units_Z   4
loop_
 _symmetry_equiv_pos_site_id
 _symmetry_equiv_pos_as_xyz
  1  'x, y, z'
loop_
 _atom_site_type_symbol
 _atom_site_label
 _atom_site_symmetry_multiplicity
 _atom_site_fract_x
 _atom_site_fract_y
 _atom_site_fract_z
 _atom_site_occupancy
  K  K0  1  0.42010600  0.55612100  0.06257400  1
  K  K1  1  0.07989400  0.44387900  0.56257400  1
  K  K2  1  0.78629700  0.31251100  0.18852900  1
  K  K3  1  0.92010600  0.94387900  0.93742600  1
  K  K4  1  0.71370300  0.68748900  0.68852900  1
  K  K5  1  0.28629700  0.18748900  0.81147100  1
  K  K6  1  0.21370300  0.81251100  0.31147100  1
  K  K7  1  0.57989400  0.05612100  0.43742600  1
  Cd  Cd0  1  0.44462600  0.41593700  0.40656200  1
  Cd  Cd1  1  0.55537400  0.91593700  0.09343800  1
  Cd  Cd2  1  0.94462600  0.08406300  0.59343800  1
  Cd  Cd3  1  0.05537400  0.58406300  0.90656200  1
  Cd  Cd4  1  0.35382900  0.82352400  0.66315200  1
  Cd  Cd5  1  0.85382900  0.67647600  0.33684800  1
  Cd  Cd6  1  0.14617100  0.17647600  0.16315200  1
  Cd  Cd7  1  0.64617100  0.32352400  0.83684800  1
  S  S0  1  0.74793900  0.61852000  0.03261900  1
  S  S1  1  0.25206100  0.11852000  0.46738100  1
  S  S2  1  0.24793900  0.88148000  0.96738100  1
  S  S3  1  0.75206100  0.38148000  0.53261900  1
  S  S4  1  0.13537300  0.49746600  0.23965300  1
  S  S5  1  0.86462700  0.99746600  0.26034700  1
  S  S6  1  0.63537300  0.00253400  0.76034700  1
  S  S7  1  0.36462700  0.50253400  0.73965300  1
  S  S8  1  0.96530300  0.27616100  0.87909800  1
  S  S9  1  0.53469700  0.72383900  0.37909800  1
  S  S10  1  0.46530300  0.22383900  0.12090200  1
  S  S11  1  0.03469700  0.77616100  0.62090200  1
  O  O0  1  0.85189200  0.67430200  0.95013100  1
  O  O1  1  0.14810800  0.17430200  0.54986900  1
  O  O2  1  0.35189200  0.82569800  0.04986900  1
  O  O3  1  0.64810800  0.32569800  0.45013100  1
  O  O4  1  0.68350000  0.50936100  0.96750400  1
  O  O5  1  0.31650000  0.00936100  0.53249600  1
  O  O6  1  0.18350000  0.99063900  0.03249600  1
  O  O7  1  0.81650000  0.49063900  0.46750400  1
  O  O8  1  0.65008700  0.71832700  0.05987000  1
  O  O9  1  0.34991300  0.21832700  0.44013000  1
  O  O10  1  0.15008700  0.78167300  0.94013000  1
  O  O11  1  0.84991300  0.28167300  0.55987000  1
  O  O12  1  0.80652900  0.56967100  0.15406000  1
  O  O13  1  0.19347100  0.06967100  0.34594000  1
  O  O14  1  0.30652900  0.93032900  0.84594000  1
  O  O15  1  0.69347100  0.43032900  0.65406000  1
  O  O16  1  0.07622300  0.36799900  0.25716000  1
  O  O17  1  0.92377700  0.86799900  0.24284000  1
  O  O18  1  0.05922900  0.59246400  0.31566400  1
  O  O19  1  0.57622300  0.13200100  0.74284000  1
  O  O20  1  0.26970300  0.50016100  0.29002600  1
  O  O21  1  0.73029700  0.00016100  0.20997400  1
  O  O22  1  0.76970300  0.99983900  0.70997400  1
  O  O23  1  0.23029700  0.49983900  0.79002600  1
  O  O24  1  0.14167600  0.53668100  0.10322900  1
  O  O25  1  0.85832400  0.03668100  0.39677100  1
  O  O26  1  0.64167600  0.96331900  0.89677100  1
  O  O27  1  0.35832400  0.46331900  0.60322900  1
  O  O28  1  0.44546700  0.72030600  0.48918200  1
  O  O29  1  0.55453300  0.22030600  0.01081800  1
  O  O30  1  0.94546700  0.77969400  0.51081800  1
  O  O31  1  0.05453300  0.27969400  0.98918200  1
  O  O32  1  0.66827200  0.75547900  0.42399200  1
  O  O33  1  0.33172800  0.25547900  0.07600800  1
  O  O34  1  0.16827200  0.74452100  0.57600800  1
  O  O35  1  0.83172800  0.24452100  0.92399200  1
  O  O36  1  0.48964800  0.82496600  0.28877900  1
  O  O37  1  0.51035200  0.32496600  0.21122100  1
  O  O38  1  0.98964800  0.67503400  0.71122100  1
  O  O39  1  0.01035200  0.17503400  0.78877900  1
  O  O40  1  0.53499000  0.59533600  0.31562000  1
  O  O41  1  0.46501000  0.09533600  0.18438000  1
  O  O42  1  0.03499000  0.90466400  0.68438000  1
  O  O43  1  0.96501000  0.40466400  0.81562000  1
  O  O44  1  0.44077100  0.40753600  0.81566400  1
  O  O45  1  0.55922900  0.90753600  0.68433600  1
  O  O46  1  0.94077100  0.09246400  0.18433600  1
  O  O47  1  0.42377700  0.63200100  0.75716000  1
loop_
_geom_bond_atom_site_label_1
_geom_bond_atom_site_label_2
_geom_bond_distance
_geom_bond_site_symmetry_2
K0 O2 2.899291 1_555
K0 O20 2.908980 1_555
K0 O8 2.924640 1_555
K0 O24 2.928000 1_555
K0 O40 2.936965 1_555
K0 O4 2.950184 1_554
K0 O37 3.017380 1_555
K0 O44 3.023586 1_554
K0 O33 3.266581 1_555
K0 O47 3.298123 1_554
K1 O1 2.899291 1_555
K1 O23 2.908980 1_555
K1 O11 2.924640 1_455
K1 O27 2.928000 1_555
K1 O43 2.936965 1_455
K1 O7 2.950184 1_455
K1 O38 3.017380 1_455
K1 O18 3.023586 1_555
K1 O34 3.266581 1_555
K1 O16 3.298123 1_555
K2 O12 2.711414 1_555
K2 O46 2.797729 1_555
K2 O37 2.876727 1_555
K2 O35 2.900835 1_554
K2 O3 3.097897 1_555
K2 O16 3.147400 1_655
K2 O29 3.190519 1_555
K2 O4 3.273010 1_554
K2 O21 3.313098 1_555
K3 O0 2.899291 1_555
K3 O22 2.908980 1_555
K3 O10 2.924640 1_655
K3 O26 2.928000 1_555
K3 O42 2.936965 1_655
K3 O6 2.950184 1_656
K3 O39 3.017380 1_665
K3 O46 3.023586 1_566
K3 O35 3.266581 1_565
K3 O17 3.298123 1_556
K4 O15 2.711414 1_555
K4 O45 2.797729 1_555
K4 O38 2.876727 1_555
K4 O32 2.900835 1_555
K4 O0 3.097897 1_555
K4 O47 3.147400 1_555
K4 O30 3.190519 1_555
K4 O7 3.273010 1_555
K4 O22 3.313098 1_555
K5 O14 2.711414 1_545
K5 O44 2.797729 1_555
K5 O39 2.876727 1_555
K5 O33 2.900835 1_556
K5 O1 3.097897 1_555
K5 O19 3.147400 1_555
K5 O31 3.190519 1_555
K5 O6 3.273010 1_546
K5 O23 3.313098 1_555
K6 O13 2.711414 1_565
K6 O18 2.797729 1_555
K6 O36 2.876727 1_555
K6 O34 2.900835 1_555
K6 O2 3.097897 1_555
K6 O17 3.147400 1_455
K6 O28 3.190519 1_555
K6 O5 3.273010 1_565
K6 O20 3.313098 1_555
K7 O3 2.899291 1_555
K7 O21 2.908980 1_555
K7 O9 2.924640 1_555
K7 O25 2.928000 1_555
K7 O41 2.936965 1_555
K7 O5 2.950184 1_555
K7 O36 3.017380 1_545
K7 O45 3.023586 1_545
K7 O32 3.266581 1_545
K7 O19 3.298123 1_555
Cd0 O40 2.298123 1_555
Cd0 O27 2.301446 1_555
Cd0 O9 2.308269 1_555
Cd0 O3 2.356345 1_555
Cd0 O37 2.357345 1_555
Cd0 O20 2.357604 1_555
Cd1 O41 2.298123 1_565
Cd1 O26 2.301446 1_554
Cd1 O8 2.308269 1_555
Cd1 O2 2.356345 1_555
Cd1 O36 2.357345 1_555
Cd1 O21 2.357604 1_565
Cd2 O42 2.298123 1_645
Cd2 O25 2.301446 1_555
Cd2 O11 2.308269 1_555
Cd2 O1 2.356345 1_655
Cd2 O39 2.357345 1_655
Cd2 O22 2.357604 1_545
Cd3 O43 2.298123 1_455
Cd3 O24 2.301446 1_556
Cd3 O10 2.308269 1_555
Cd3 O0 2.356345 1_455
Cd3 O38 2.357345 1_455
Cd3 O23 2.357604 1_555
Cd4 O14 2.269570 1_555
Cd4 O34 2.284906 1_555
Cd4 O45 2.315119 1_555
Cd4 O28 2.320993 1_555
Cd4 O47 2.340769 1_555
Cd4 O5 2.402972 1_565
Cd5 O12 2.269570 1_555
Cd5 O32 2.284906 1_555
Cd5 O18 2.315119 1_655
Cd5 O30 2.320993 1_555
Cd5 O17 2.340769 1_555
Cd5 O7 2.402972 1_555
Cd6 O13 2.269570 1_555
Cd6 O33 2.284906 1_555
Cd6 O46 2.315119 1_455
Cd6 O31 2.320993 1_554
Cd6 O16 2.340769 1_555
Cd6 O6 2.402972 1_545
Cd7 O15 2.269570 1_555
Cd7 O35 2.284906 1_555
Cd7 O44 2.315119 1_555
Cd7 O29 2.320993 1_556
Cd7 O19 2.340769 1_555
Cd7 O4 2.402972 1_555
O0 S0 1.499834 1_556
O1 S1 1.499834 1_555
O2 S2 1.499834 1_554
O3 S3 1.499834 1_555
O4 S0 1.485410 1_556
O5 S1 1.485410 1_555
O6 S2 1.485410 1_554
O7 S3 1.485410 1_555
O8 S0 1.481248 1_555
O9 S1 1.481248 1_555
O10 S2 1.481248 1_555
O11 S3 1.481248 1_555
O12 S0 1.499849 1_555
O13 S1 1.499849 1_555
O14 S2 1.499849 1_555
O15 S3 1.499849 1_555
O16 S4 1.493208 1_555
O17 S5 1.493208 1_555
O18 S4 1.496304 1_555
O19 S6 1.493208 1_555
O20 S4 1.491089 1_555
O21 S5 1.491089 1_545
O22 S6 1.491089 1_565
O23 S7 1.491089 1_555
O24 S4 1.488823 1_555
O25 S5 1.488823 1_545
O26 S6 1.488823 1_565
O27 S7 1.488823 1_555
O28 S9 1.480142 1_555
O29 S10 1.480142 1_555
O30 S11 1.480142 1_655
O31 S8 1.480142 1_455
O32 S9 1.500684 1_555
O33 S10 1.500684 1_555
O34 S11 1.500684 1_555
O35 S8 1.500684 1_555
O36 S9 1.491643 1_555
O37 S10 1.491643 1_555
O38 S11 1.491643 1_655
O39 S8 1.491643 1_455
O40 S9 1.494984 1_555
O41 S10 1.494984 1_555
O42 S11 1.494984 1_555
O43 S8 1.494984 1_555
O44 S7 1.496304 1_555
O45 S6 1.496304 1_565
O46 S5 1.496304 1_545
O47 S7 1.493208 1_555
