# generated using pymatgen
data_SrLaNiRuO6
_symmetry_space_group_name_H-M   'P 1'
_cell_length_a   5.67450500
_cell_length_b   5.58916400
_cell_length_c   9.68074018
_cell_angle_alpha   54.75759224
_cell_angle_beta   90.00000000
_cell_angle_gamma   90.00000000
_symmetry_Int_Tables_number   1
_chemical_formula_structural   SrLaNiRuO6
_chemical_formula_sum   'Sr2 La2 Ni2 Ru2 O12'
_cell_volume   250.75842939
_cell_formula_units_Z   2
loop_
 _symmetry_equiv_pos_site_id
 _symmetry_equiv_pos_as_xyz
  1  'x, y, z'
loop_
 _atom_site_type_symbol
 _atom_site_label
 _atom_site_symmetry_multiplicity
 _atom_site_fract_x
 _atom_site_fract_y
 _atom_site_fract_z
 _atom_site_occupancy
  Sr  Sr0  1  0.21068900  0.75730200  0.25000800  1
  Sr  Sr1  1  0.78931100  0.75730200  0.75000800  1
  La  La0  1  0.70265700  0.23763100  0.25188000  1
  La  La1  1  0.29734300  0.23763100  0.75188000  1
  Ni  Ni0  1  0.24789900  0.99932400  0.50027300  1
  Ni  Ni1  1  0.75210100  0.99932400  0.00027300  1
  Ru  Ru0  1  0.24757400  0.49977400  0.00010200  1
  Ru  Ru1  1  0.75242600  0.49977400  0.50010200  1
  O  O0  1  0.23395700  0.65930000  0.75579600  1
  O  O1  1  0.04766200  0.82745800  0.95785000  1
  O  O2  1  0.03642000  0.25782900  0.54348900  1
  O  O3  1  0.96358000  0.25782900  0.04348900  1
  O  O4  1  0.95233800  0.82745800  0.45785000  1
  O  O5  1  0.76604300  0.65930000  0.25579600  1
  O  O6  1  0.72939200  0.32368600  0.74426000  1
  O  O7  1  0.53938100  0.18688200  0.53625300  1
  O  O8  1  0.52344500  0.75081400  0.96008800  1
  O  O9  1  0.47655500  0.75081400  0.46008800  1
  O  O10  1  0.46061900  0.18688200  0.03625300  1
  O  O11  1  0.27060800  0.32368600  0.24426000  1
loop_
_geom_bond_atom_site_label_1
_geom_bond_atom_site_label_2
_geom_bond_distance
_geom_bond_site_symmetry_2
La0 O5 2.405893 1_555
La0 O4 2.442004 1_545
La0 O3 2.451925 1_555
La0 O11 2.491283 1_555
La0 O9 2.604391 1_545
La0 O10 2.647165 1_555
La0 O7 2.759782 1_555
La0 O8 2.808895 1_554
La1 O0 2.405893 1_555
La1 O1 2.442004 1_545
La1 O2 2.451925 1_555
La1 O6 2.491283 1_555
La1 O8 2.604391 1_545
La1 O7 2.647165 1_555
La1 O10 2.759782 1_556
La1 O9 2.808895 1_555
Ni0 O11 2.064053 1_565
Ni0 O0 2.076430 1_555
Ni0 O4 2.087953 1_455
Ni0 O7 2.092224 1_565
Ni0 O9 2.094677 1_555
Ni0 O2 2.097675 1_565
Ni1 O6 2.064053 1_564
Ni1 O5 2.076430 1_555
Ni1 O1 2.087953 1_654
Ni1 O10 2.092224 1_565
Ni1 O8 2.094677 1_554
Ni1 O3 2.097675 1_565
O0 Ru0 1.990187 1_556
O0 Sr1 2.575658 1_455
O1 Ru0 1.985935 1_556
O1 Sr1 2.694785 1_455
O1 Sr0 2.780105 1_556
O2 Ru1 1.986599 1_455
O2 Sr1 2.708266 1_445
O2 Sr0 2.773029 1_555
O3 Ru0 1.986599 1_655
O3 Sr0 2.708266 1_645
O3 Sr1 2.773029 1_554
O4 Ru1 1.985935 1_555
O4 Sr0 2.694785 1_655
O4 Sr1 2.780105 1_555
O5 Ru1 1.990187 1_555
O5 Sr0 2.575658 1_655
O6 Ru1 1.971748 1_555
O6 Sr1 2.479504 1_555
O7 Ru1 1.983928 1_555
O7 Sr1 2.514812 1_545
O8 Ru0 1.985465 1_556
O8 Sr1 2.515613 1_555
O9 Ru1 1.985465 1_555
O9 Sr0 2.515613 1_555
O10 Ru0 1.983928 1_555
O10 Sr0 2.514812 1_545
O11 Ru0 1.971748 1_555
O11 Sr0 2.479504 1_555
