# generated using pymatgen
data_CaTiSiO5
_symmetry_space_group_name_H-M   'P 1'
_cell_length_a   8.71359115
_cell_length_b   6.58031870
_cell_length_c   7.04929317
_cell_angle_alpha   66.15928812
_cell_angle_beta   90.00000000
_cell_angle_gamma   90.00000000
_symmetry_Int_Tables_number   1
_chemical_formula_structural   CaTiSiO5
_chemical_formula_sum   'Ca4 Ti4 Si4 O20'
_cell_volume   369.70505951
_cell_formula_units_Z   4
loop_
 _symmetry_equiv_pos_site_id
 _symmetry_equiv_pos_as_xyz
  1  'x, y, z'
loop_
 _atom_site_type_symbol
 _atom_site_label
 _atom_site_symmetry_multiplicity
 _atom_site_fract_x
 _atom_site_fract_y
 _atom_site_fract_z
 _atom_site_occupancy
  Ca  Ca0  1  0.92009643  0.25038622  0.25255945  1
  Ca  Ca1  1  0.57990357  0.25038622  0.75255945  1
  Ca  Ca2  1  0.42009643  0.74961378  0.24744055  1
  Ca  Ca3  1  0.07990357  0.74961378  0.74744055  1
  Ti  Ti0  1  0.25059104  0.25022396  0.50155564  1
  Ti  Ti1  1  0.74940896  0.74977604  0.49844436  1
  Ti  Ti2  1  0.24940896  0.25022396  0.00155564  1
  Ti  Ti3  1  0.75059104  0.74977604  0.99844436  1
  Si  Si0  1  0.06872027  0.75038042  0.24939612  1
  Si  Si1  1  0.56872027  0.24961958  0.25060388  1
  Si  Si2  1  0.93127973  0.24961958  0.75060388  1
  Si  Si3  1  0.43127973  0.75038042  0.74939612  1
  O  O0  1  0.46217236  0.14861767  0.11768336  1
  O  O1  1  0.96217236  0.85138233  0.38231664  1
  O  O2  1  0.53782764  0.85138233  0.88231664  1
  O  O3  1  0.03782764  0.14861767  0.61768336  1
  O  O4  1  0.03732591  0.35091537  0.88373093  1
  O  O5  1  0.53732591  0.64908463  0.61626907  1
  O  O6  1  0.96267409  0.64908463  0.11626907  1
  O  O7  1  0.46267409  0.35091537  0.38373093  1
  O  O8  1  0.31509023  0.93594388  0.58987858  1
  O  O9  1  0.81509023  0.06405612  0.91012142  1
  O  O10  1  0.68490977  0.06405612  0.41012142  1
  O  O11  1  0.18490977  0.93594388  0.08987858  1
  O  O12  1  0.32025039  0.25036158  0.75061497  1
  O  O13  1  0.82025039  0.74963842  0.74938503  1
  O  O14  1  0.67974961  0.74963842  0.24938503  1
  O  O15  1  0.17974961  0.25036158  0.25061497  1
  O  O16  1  0.31533874  0.56496714  0.90991265  1
  O  O17  1  0.81533874  0.43503286  0.59008735  1
  O  O18  1  0.68466126  0.43503286  0.09008735  1
  O  O19  1  0.18466126  0.56496714  0.40991265  1
loop_
_geom_bond_atom_site_label_1
_geom_bond_atom_site_label_2
_geom_bond_distance
_geom_bond_site_symmetry_2
Ca0 O15 2.262554 1_655
Ca0 O10 2.415744 1_555
Ca0 O18 2.423157 1_555
Ca0 O6 2.430256 1_555
Ca0 O1 2.433781 1_545
Ca0 O3 2.594660 1_655
Ca0 O4 2.617359 1_654
Ca1 O12 2.262554 1_555
Ca1 O9 2.415744 1_555
Ca1 O17 2.423157 1_555
Ca1 O5 2.430256 1_555
Ca1 O2 2.433781 1_545
Ca1 O0 2.594660 1_556
Ca1 O7 2.617359 1_555
Ca2 O14 2.262554 1_555
Ca2 O11 2.415744 1_555
Ca2 O19 2.423157 1_555
Ca2 O7 2.430256 1_555
Ca2 O0 2.433781 1_565
Ca2 O2 2.594660 1_554
Ca2 O5 2.617359 1_555
Ca3 O13 2.262554 1_455
Ca3 O8 2.415744 1_555
Ca3 O16 2.423157 1_555
Ca3 O4 2.430256 1_555
Ca3 O3 2.433781 1_565
Ca3 O1 2.594660 1_455
Ca3 O6 2.617359 1_456
O0 Si1 1.638617 1_555
O0 Ti2 2.027752 1_555
O1 Si0 1.638617 1_655
O1 Ti1 2.027752 1_555
O2 Si3 1.638617 1_555
O2 Ti3 2.027752 1_555
O3 Si2 1.638617 1_455
O3 Ti0 2.027752 1_555
O4 Si2 1.638451 1_455
O4 Ti2 2.024629 1_556
O5 Si3 1.638451 1_555
O5 Ti1 2.024629 1_555
O6 Si0 1.638451 1_655
O6 Ti3 2.024629 1_554
O7 Si1 1.638451 1_555
O7 Ti0 2.024629 1_555
O8 Si3 1.634168 1_555
O8 Ti0 1.984820 1_565
O9 Si2 1.634168 1_555
O9 Ti3 1.984820 1_545
O10 Si1 1.634168 1_555
O10 Ti1 1.984820 1_545
O11 Si0 1.634168 1_555
O11 Ti2 1.984820 1_565
O12 Ti0 1.858002 1_555
O12 Ti2 1.873218 1_556
O13 Ti3 1.858002 1_555
O13 Ti1 1.873218 1_555
O14 Ti1 1.858002 1_555
O14 Ti3 1.873218 1_554
O15 Ti2 1.858002 1_555
O15 Ti0 1.873218 1_555
O16 Si3 1.635100 1_555
O16 Ti2 1.988785 1_556
O17 Si2 1.635100 1_555
O17 Ti1 1.988785 1_555
O18 Si1 1.635100 1_555
O18 Ti3 1.988785 1_554
O19 Si0 1.635100 1_555
O19 Ti0 1.988785 1_555
