# generated using pymatgen
data_Li2Ti3(BiO3)4
_symmetry_space_group_name_H-M   'P 1'
_cell_length_a   16.68345754
_cell_length_b   16.68345754
_cell_length_c   5.71900800
_cell_angle_alpha   90.00000000
_cell_angle_beta   90.00000000
_cell_angle_gamma   160.28982515
_symmetry_Int_Tables_number   1
_chemical_formula_structural   Li2Ti3(BiO3)4
_chemical_formula_sum   'Li4 Ti6 Bi8 O24'
_cell_volume   536.85970371
_cell_formula_units_Z   2
loop_
 _symmetry_equiv_pos_site_id
 _symmetry_equiv_pos_as_xyz
  1  'x, y, z'
loop_
 _atom_site_type_symbol
 _atom_site_label
 _atom_site_symmetry_multiplicity
 _atom_site_fract_x
 _atom_site_fract_y
 _atom_site_fract_z
 _atom_site_occupancy
  Li  Li0  1  0.92664400  0.56377700  0.22887100  1
  Li  Li1  1  0.56377700  0.92664400  0.77112900  1
  Li  Li2  1  0.42664400  0.06377700  0.27112900  1
  Li  Li3  1  0.06377700  0.42664400  0.72887100  1
  Ti  Ti0  1  0.36590500  0.60278300  0.97988100  1
  Ti  Ti1  1  0.01173100  0.01173100  0.50000000  1
  Ti  Ti2  1  0.60278300  0.36590500  0.02011900  1
  Ti  Ti3  1  0.10278300  0.86590500  0.47988100  1
  Ti  Ti4  1  0.86590500  0.10278300  0.52011900  1
  Ti  Ti5  1  0.51173100  0.51173100  0.00000000  1
  Bi  Bi0  1  0.31934500  0.74321800  0.37283600  1
  Bi  Bi1  1  0.93220100  0.05724200  0.03032100  1
  Bi  Bi2  1  0.05724200  0.93220100  0.96967900  1
  Bi  Bi3  1  0.43220100  0.55724200  0.46967900  1
  Bi  Bi4  1  0.24321800  0.81934500  0.87283600  1
  Bi  Bi5  1  0.81934500  0.24321800  0.12716400  1
  Bi  Bi6  1  0.55724200  0.43220100  0.53032100  1
  Bi  Bi7  1  0.74321800  0.31934500  0.62716400  1
  O  O0  1  0.01188100  0.52926200  0.26139400  1
  O  O1  1  0.45620700  0.57145200  0.91933000  1
  O  O2  1  0.33862700  0.09211700  0.22087200  1
  O  O3  1  0.59211700  0.83862700  0.72087200  1
  O  O4  1  0.75388800  0.78007300  0.24797500  1
  O  O5  1  0.83862700  0.59211700  0.27912800  1
  O  O6  1  0.09211700  0.33862700  0.77912800  1
  O  O7  1  0.07145200  0.95620700  0.41933000  1
  O  O8  1  0.86027700  0.65090000  0.75835100  1
  O  O9  1  0.65090000  0.86027700  0.24164900  1
  O  O10  1  0.57145200  0.45620700  0.08067000  1
  O  O11  1  0.33006000  0.68241200  0.02498500  1
  O  O12  1  0.51188100  0.02926200  0.23860600  1
  O  O13  1  0.36027700  0.15090000  0.74164900  1
  O  O14  1  0.78007300  0.75388800  0.75202500  1
  O  O15  1  0.18241200  0.83006000  0.52498500  1
  O  O16  1  0.25388800  0.28007300  0.25202500  1
  O  O17  1  0.83006000  0.18241200  0.47501500  1
  O  O18  1  0.52926200  0.01188100  0.73860600  1
  O  O19  1  0.95620700  0.07145200  0.58067000  1
  O  O20  1  0.15090000  0.36027700  0.25835100  1
  O  O21  1  0.02926200  0.51188100  0.76139400  1
  O  O22  1  0.28007300  0.25388800  0.74797500  1
  O  O23  1  0.68241200  0.33006000  0.97501500  1
loop_
_geom_bond_atom_site_label_1
_geom_bond_atom_site_label_2
_geom_bond_distance
_geom_bond_site_symmetry_2
Li0 O5 1.941560 1_555
Li0 O0 1.982462 1_655
Li0 O23 2.000057 1_554
Li0 O15 2.262733 1_655
Li1 O3 1.941560 1_555
Li1 O18 1.982462 1_565
Li1 O11 2.000057 1_556
Li1 O17 2.262733 1_565
Li2 O2 1.941560 1_555
Li2 O12 1.982462 1_555
Li2 O15 2.000057 1_545
Li2 O23 2.262733 1_554
Li3 O6 1.941560 1_555
Li3 O21 1.982462 1_555
Li3 O17 2.000057 1_455
Li3 O11 2.262733 1_556
Bi0 O12 2.195282 1_565
Bi0 O0 2.232816 1_555
Bi0 O11 2.315185 1_555
Bi1 O9 2.290736 1_545
Bi1 O20 2.417004 1_655
Bi1 O4 2.425167 1_545
Bi1 O19 2.578904 1_554
Bi1 O16 2.581786 1_655
Bi1 O6 2.763722 1_654
Bi1 O1 2.823359 1_544
Bi2 O8 2.290736 1_455
Bi2 O13 2.417004 1_565
Bi2 O14 2.425167 1_455
Bi2 O7 2.578904 1_556
Bi2 O22 2.581786 1_565
Bi2 O2 2.763722 1_566
Bi2 O10 2.823359 1_456
Bi3 O20 2.290736 1_555
Bi3 O9 2.417004 1_555
Bi3 O16 2.425167 1_555
Bi3 O1 2.578904 1_555
Bi3 O4 2.581786 1_555
Bi3 O3 2.763722 1_555
Bi3 O19 2.823359 1_455
Bi4 O18 2.195282 1_565
Bi4 O21 2.232816 1_555
Bi4 O15 2.315185 1_555
Bi5 O0 2.195282 1_655
Bi5 O12 2.232816 1_555
Bi5 O17 2.315185 1_555
Bi6 O13 2.290736 1_555
Bi6 O8 2.417004 1_555
Bi6 O22 2.425167 1_555
Bi6 O10 2.578904 1_555
Bi6 O14 2.581786 1_555
Bi6 O5 2.763722 1_555
Bi6 O7 2.823359 1_545
Bi7 O21 2.195282 1_655
Bi7 O18 2.232816 1_555
Bi7 O23 2.315185 1_555
O1 Ti5 1.949721 1_556
O1 Ti0 2.036058 1_555
O2 Ti2 1.924266 1_555
O2 Ti3 1.989986 1_545
O3 Ti4 1.924266 1_565
O3 Ti0 1.989986 1_555
O4 Ti1 2.053397 1_665
O4 Ti5 2.078803 1_555
O5 Ti3 1.924266 1_655
O5 Ti2 1.989986 1_555
O6 Ti0 1.924266 1_555
O6 Ti4 1.989986 1_455
O7 Ti1 1.949721 1_565
O7 Ti3 2.036058 1_555
O8 Ti3 2.108875 1_655
O8 Ti2 2.201166 1_556
O9 Ti4 2.108875 1_565
O9 Ti0 2.201166 1_554
O10 Ti5 1.949721 1_555
O10 Ti2 2.036058 1_555
O11 Ti0 1.919601 1_554
O13 Ti2 2.108875 1_556
O13 Ti3 2.201166 1_545
O14 Ti1 2.053397 1_665
O14 Ti5 2.078803 1_556
O15 Ti3 1.919601 1_555
O16 Ti5 2.053397 1_555
O16 Ti1 2.078803 1_555
O17 Ti4 1.919601 1_555
O19 Ti1 1.949721 1_655
O19 Ti4 2.036058 1_555
O20 Ti0 2.108875 1_554
O20 Ti4 2.201166 1_455
O22 Ti5 2.053397 1_556
O22 Ti1 2.078803 1_555
O23 Ti2 1.919601 1_556
