# generated using pymatgen
data_UV2O8
_symmetry_space_group_name_H-M   'P 1'
_cell_length_a   6.32926100
_cell_length_b   10.65395000
_cell_length_c   11.23658400
_cell_angle_alpha   90.00000000
_cell_angle_beta   90.00000000
_cell_angle_gamma   90.00000000
_symmetry_Int_Tables_number   1
_chemical_formula_structural   UV2O8
_chemical_formula_sum   'U4 V8 O32'
_cell_volume   757.70117735
_cell_formula_units_Z   4
loop_
 _symmetry_equiv_pos_site_id
 _symmetry_equiv_pos_as_xyz
  1  'x, y, z'
loop_
 _atom_site_type_symbol
 _atom_site_label
 _atom_site_symmetry_multiplicity
 _atom_site_fract_x
 _atom_site_fract_y
 _atom_site_fract_z
 _atom_site_occupancy
  U  U0  1  0.39271300  0.62061400  0.25000000  1
  U  U1  1  0.60728700  0.37938600  0.75000000  1
  U  U2  1  0.89271300  0.87938600  0.25000000  1
  U  U3  1  0.10728700  0.12061400  0.75000000  1
  V  V0  1  0.81961700  0.81488800  0.60007300  1
  V  V1  1  0.68038300  0.31488800  0.10007300  1
  V  V2  1  0.68038300  0.31488800  0.39992700  1
  V  V3  1  0.81961700  0.81488800  0.89992700  1
  V  V4  1  0.31961800  0.68511200  0.89992700  1
  V  V5  1  0.31961800  0.68511200  0.60007300  1
  V  V6  1  0.18038300  0.18511200  0.39992700  1
  V  V7  1  0.18038300  0.18511200  0.10007300  1
  O  O0  1  0.14518700  0.03688800  0.13947800  1
  O  O1  1  0.05330500  0.72880800  0.94233700  1
  O  O2  1  0.69782000  0.24903300  0.25000000  1
  O  O3  1  0.19782000  0.25096700  0.25000000  1
  O  O4  1  0.64518700  0.46311200  0.36052200  1
  O  O5  1  0.94669500  0.27119200  0.44233700  1
  O  O6  1  0.65191300  0.73344700  0.25000000  1
  O  O7  1  0.44669500  0.22880800  0.44233700  1
  O  O8  1  0.83730800  0.87955000  0.41377300  1
  O  O9  1  0.83730800  0.87955000  0.08622700  1
  O  O10  1  0.55330500  0.77119200  0.94233700  1
  O  O11  1  0.15191300  0.76655300  0.25000000  1
  O  O12  1  0.85481300  0.96311200  0.86052200  1
  O  O13  1  0.66269200  0.37955000  0.91377300  1
  O  O14  1  0.16269200  0.12045000  0.91377300  1
  O  O15  1  0.35481300  0.53688800  0.86052200  1
  O  O16  1  0.35481300  0.53688800  0.63947800  1
  O  O17  1  0.80218000  0.74903300  0.75000000  1
  O  O18  1  0.34808700  0.26655300  0.75000000  1
  O  O19  1  0.64518700  0.46311200  0.13947800  1
  O  O20  1  0.30218000  0.75096700  0.75000000  1
  O  O21  1  0.16269200  0.12045000  0.58622700  1
  O  O22  1  0.33730800  0.62045000  0.08622700  1
  O  O23  1  0.85481300  0.96311200  0.63947800  1
  O  O24  1  0.44669500  0.22880800  0.05766300  1
  O  O25  1  0.94669500  0.27119200  0.05766300  1
  O  O26  1  0.05330500  0.72880800  0.55766300  1
  O  O27  1  0.33730800  0.62045000  0.41377300  1
  O  O28  1  0.84808700  0.23344700  0.75000000  1
  O  O29  1  0.14518700  0.03688800  0.36052200  1
  O  O30  1  0.66269200  0.37955000  0.58622700  1
  O  O31  1  0.55330500  0.77119200  0.55766300  1
loop_
_geom_bond_atom_site_label_1
_geom_bond_atom_site_label_2
_geom_bond_distance
_geom_bond_site_symmetry_2
O0 V7 1.655131 1_555
O0 U2 2.628984 1_445
O1 V3 1.804385 1_455
O1 V4 1.812442 1_555
O2 V2 1.828264 1_555
O2 V1 1.828264 1_555
O3 V6 1.828264 1_555
O3 V7 1.828264 1_555
O4 V2 1.655131 1_555
O4 U0 2.628984 1_555
O5 V6 1.804385 1_655
O5 V2 1.812436 1_555
O6 U0 2.033832 1_555
O6 U2 2.177229 1_555
O7 V2 1.804385 1_555
O7 V6 1.812436 1_555
O8 U2 1.873364 1_555
O8 V0 2.206660 1_555
O9 U2 1.873364 1_555
O9 V3 2.206660 1_554
O10 V4 1.804380 1_555
O10 V3 1.812436 1_555
O11 U2 2.033832 1_455
O11 U0 2.177229 1_555
O12 V3 1.655131 1_555
O12 U3 2.628984 1_665
O13 U1 1.873364 1_555
O13 V1 2.206660 1_556
O14 U3 1.873364 1_555
O14 V7 2.206660 1_556
O15 V4 1.655130 1_555
O15 U1 2.628984 1_555
O16 V5 1.655130 1_555
O16 U1 2.628984 1_555
O17 V0 1.828264 1_555
O17 V3 1.828264 1_555
O18 U1 2.033832 1_555
O18 U3 2.177229 1_555
O19 V1 1.655131 1_555
O19 U0 2.628984 1_555
O20 V5 1.828264 1_555
O20 V4 1.828264 1_555
O21 U3 1.873364 1_555
O21 V6 2.206660 1_555
O22 U0 1.873364 1_555
O22 V4 2.206660 1_554
O23 V0 1.655131 1_555
O23 U3 2.628984 1_665
O24 V1 1.804385 1_555
O24 V7 1.812436 1_555
O25 V7 1.804385 1_655
O25 V1 1.812436 1_555
O26 V0 1.804385 1_455
O26 V5 1.812442 1_555
O27 U0 1.873364 1_555
O27 V5 2.206660 1_555
O28 U3 2.033832 1_655
O28 U1 2.177229 1_555
O29 V6 1.655131 1_555
O29 U2 2.628984 1_445
O30 U1 1.873364 1_555
O30 V2 2.206660 1_555
O31 V5 1.804380 1_555
O31 V0 1.812436 1_555
