# generated using pymatgen
data_HgH12(ClO7)2
_symmetry_space_group_name_H-M   'P 1'
_cell_length_a   7.91242520
_cell_length_b   7.91242520
_cell_length_c   5.68832600
_cell_angle_alpha   90.00000000
_cell_angle_beta   90.00000000
_cell_angle_gamma   119.99999333
_symmetry_Int_Tables_number   1
_chemical_formula_structural   HgH12(ClO7)2
_chemical_formula_sum   'Hg1 H12 Cl2 O14'
_cell_volume   308.41420596
_cell_formula_units_Z   1
loop_
 _symmetry_equiv_pos_site_id
 _symmetry_equiv_pos_as_xyz
  1  'x, y, z'
loop_
 _atom_site_type_symbol
 _atom_site_label
 _atom_site_symmetry_multiplicity
 _atom_site_fract_x
 _atom_site_fract_y
 _atom_site_fract_z
 _atom_site_occupancy
  Hg  Hg0  1  0.00000000  0.00000000  0.00000000  1
  H  H0  1  0.34778200  0.27352600  0.26945300  1
  H  H1  1  0.92574400  0.65221800  0.26945300  1
  H  H2  1  0.72647400  0.07425600  0.26945300  1
  H  H3  1  0.34778200  0.07425600  0.26945300  1
  H  H4  1  0.72647400  0.65221800  0.26945300  1
  H  H5  1  0.92574400  0.27352600  0.26945300  1
  H  H6  1  0.65221800  0.72647400  0.73054700  1
  H  H7  1  0.07425600  0.34778200  0.73054700  1
  H  H8  1  0.27352600  0.92574400  0.73054700  1
  H  H9  1  0.65221800  0.92574400  0.73054700  1
  H  H10  1  0.27352600  0.34778200  0.73054700  1
  H  H11  1  0.07425600  0.72647400  0.73054700  1
  Cl  Cl0  1  0.66666700  0.33333300  0.80438300  1
  Cl  Cl1  1  0.33333300  0.66666700  0.19561700  1
  O  O0  1  0.26333400  0.13166700  0.27743500  1
  O  O1  1  0.86833300  0.73666600  0.27743500  1
  O  O2  1  0.86833300  0.13166700  0.27743500  1
  O  O3  1  0.73666600  0.86833300  0.72256500  1
  O  O4  1  0.13166700  0.26333400  0.72256500  1
  O  O5  1  0.13166700  0.86833300  0.72256500  1
  O  O6  1  0.86770200  0.43385100  0.71522500  1
  O  O7  1  0.56614900  0.13229800  0.71522500  1
  O  O8  1  0.56614900  0.43385100  0.71522500  1
  O  O9  1  0.13229800  0.56614900  0.28477500  1
  O  O10  1  0.43385100  0.86770200  0.28477500  1
  O  O11  1  0.43385100  0.56614900  0.28477500  1
  O  O12  1  0.66666700  0.33333300  0.05975700  1
  O  O13  1  0.33333300  0.66666700  0.94024300  1
loop_
_geom_bond_atom_site_label_1
_geom_bond_atom_site_label_2
_geom_bond_distance
_geom_bond_site_symmetry_2
Hg0 O5 2.397207 1_544
Hg0 O2 2.397207 1_455
Hg0 O0 2.397207 1_555
Hg0 O3 2.397207 1_444
Hg0 O4 2.397207 1_554
Hg0 O1 2.397207 1_445
H0 O0 0.978990 1_555
H1 O1 0.978990 1_555
H2 O2 0.978990 1_555
H3 O0 0.978990 1_555
H4 O1 0.978990 1_555
H5 O2 0.978990 1_555
H6 O3 0.978990 1_555
H7 O4 0.978990 1_555
H8 O5 0.978990 1_555
H9 O3 0.978990 1_555
H10 O4 0.978990 1_555
H11 O5 0.978990 1_555
Cl0 O12 1.452651 1_556
Cl0 O6 1.467956 1_555
Cl0 O7 1.467956 1_555
Cl0 O8 1.467962 1_555
Cl1 O13 1.452651 1_554
Cl1 O10 1.467956 1_555
Cl1 O9 1.467956 1_555
Cl1 O11 1.467962 1_555
