# generated using pymatgen
data_Rb2Hg(CN)4
_symmetry_space_group_name_H-M   'P 1'
_cell_length_a   16.74094099
_cell_length_b   16.74094099
_cell_length_c   16.74094107
_cell_angle_alpha   31.78691520
_cell_angle_beta   31.78691520
_cell_angle_gamma   31.78691782
_symmetry_Int_Tables_number   1
_chemical_formula_structural   Rb2Hg(CN)4
_chemical_formula_sum   'Rb8 Hg4 C16 N16'
_cell_volume   1156.31770794
_cell_formula_units_Z   4
loop_
 _symmetry_equiv_pos_site_id
 _symmetry_equiv_pos_as_xyz
  1  'x, y, z'
loop_
 _atom_site_type_symbol
 _atom_site_label
 _atom_site_symmetry_multiplicity
 _atom_site_fract_x
 _atom_site_fract_y
 _atom_site_fract_z
 _atom_site_occupancy
  Rb  Rb0  1  0.68628400  0.81371600  0.25000000  1
  Rb  Rb1  1  0.75000000  0.31371600  0.18628400  1
  Rb  Rb2  1  0.18628400  0.75000000  0.31371600  1
  Rb  Rb3  1  0.50000000  0.50000000  0.50000000  1
  Rb  Rb4  1  0.81371600  0.25000000  0.68628400  1
  Rb  Rb5  1  0.31371600  0.18628400  0.75000000  1
  Rb  Rb6  1  0.00000000  0.00000000  0.00000000  1
  Rb  Rb7  1  0.25000000  0.68628400  0.81371600  1
  Hg  Hg0  1  0.81223100  0.81223100  0.81223100  1
  Hg  Hg1  1  0.31223100  0.31223100  0.31223100  1
  Hg  Hg2  1  0.68776900  0.68776900  0.68776900  1
  Hg  Hg3  1  0.18776900  0.18776900  0.18776900  1
  C  C0  1  0.85840300  0.85840300  0.85840300  1
  C  C1  1  0.14159700  0.14159700  0.14159700  1
  C  C2  1  0.71162300  0.05335800  0.62623700  1
  C  C3  1  0.37376300  0.28837700  0.94664200  1
  C  C4  1  0.44664200  0.78837700  0.87376300  1
  C  C5  1  0.64159700  0.64159700  0.64159700  1
  C  C6  1  0.21162300  0.12623700  0.55335800  1
  C  C7  1  0.12623700  0.55335800  0.21162300  1
  C  C8  1  0.55335800  0.21162300  0.12623700  1
  C  C9  1  0.62623700  0.71162300  0.05335800  1
  C  C10  1  0.87376300  0.44664200  0.78837700  1
  C  C11  1  0.78837700  0.87376300  0.44664200  1
  C  C12  1  0.35840300  0.35840300  0.35840300  1
  C  C13  1  0.94664200  0.37376300  0.28837700  1
  C  C14  1  0.28837700  0.94664200  0.37376300  1
  C  C15  1  0.05335800  0.62623700  0.71162300  1
  N  N0  1  0.65036200  0.18208600  0.53318300  1
  N  N1  1  0.18208600  0.53318300  0.65036200  1
  N  N2  1  0.03318300  0.68208600  0.15036200  1
  N  N3  1  0.84963800  0.96681700  0.31791400  1
  N  N4  1  0.11692800  0.11692800  0.11692800  1
  N  N5  1  0.61692800  0.61692800  0.61692800  1
  N  N6  1  0.96681700  0.31791400  0.84963800  1
  N  N7  1  0.53318300  0.65036200  0.18208600  1
  N  N8  1  0.46681700  0.34963800  0.81791400  1
  N  N9  1  0.38307200  0.38307200  0.38307200  1
  N  N10  1  0.15036200  0.03318300  0.68208600  1
  N  N11  1  0.31791400  0.84963800  0.96681700  1
  N  N12  1  0.68208600  0.15036200  0.03318300  1
  N  N13  1  0.34963800  0.81791400  0.46681700  1
  N  N14  1  0.81791400  0.46681700  0.34963800  1
  N  N15  1  0.88307200  0.88307200  0.88307200  1
loop_
_geom_bond_atom_site_label_1
_geom_bond_atom_site_label_2
_geom_bond_distance
_geom_bond_site_symmetry_2
C0 N15 1.175374 1_555
C0 Hg0 2.199901 1_555
C1 N4 1.175374 1_555
C1 Hg3 2.199901 1_555
C2 N0 1.172290 1_555
C2 Hg0 2.194607 1_545
C3 N8 1.172290 1_555
C3 Hg3 2.194607 1_556
C4 N11 1.172290 1_555
C4 Hg2 2.194607 1_555
C5 N5 1.175374 1_555
C5 Hg2 2.199901 1_555
C6 N10 1.172290 1_555
C6 Hg1 2.194607 1_555
C7 N2 1.172290 1_555
C7 Hg1 2.194607 1_555
C8 N12 1.172290 1_555
C8 Hg1 2.194607 1_555
C9 N7 1.172290 1_555
C9 Hg0 2.194607 1_554
C10 N6 1.172290 1_555
C10 Hg2 2.194607 1_555
C11 N3 1.172290 1_555
C11 Hg2 2.194607 1_555
C12 N9 1.175374 1_555
C12 Hg1 2.199901 1_555
C13 N14 1.172290 1_555
C13 Hg3 2.194607 1_655
C14 N13 1.172290 1_555
C14 Hg3 2.194607 1_565
C15 N1 1.172290 1_555
C15 Hg0 2.194607 1_455
N0 Rb1 3.064194 1_555
N0 Rb3 3.089702 1_555
N0 Rb5 3.150532 1_555
N1 Rb5 3.064195 1_555
N1 Rb3 3.089702 1_555
N1 Rb2 3.150532 1_555
N2 Rb0 3.064195 1_455
N2 Rb6 3.089702 1_565
N2 Rb7 3.150532 1_554
N3 Rb1 3.064195 1_565
N3 Rb6 3.089702 1_665
N3 Rb2 3.150532 1_655
N4 Rb5 3.147894 1_554
N4 Rb2 3.147894 1_545
N4 Rb1 3.147894 1_455
N5 Rb0 3.147894 1_555
N5 Rb7 3.147894 1_555
N5 Rb4 3.147894 1_555
N6 Rb5 3.064195 1_655
N6 Rb6 3.089702 1_656
N6 Rb1 3.150532 1_556
N7 Rb2 3.064195 1_555
N7 Rb3 3.089702 1_555
N7 Rb1 3.150532 1_555
N8 Rb4 3.064195 1_555
N8 Rb3 3.089702 1_555
N8 Rb7 3.150532 1_555
N9 Rb5 3.147894 1_555
N9 Rb1 3.147894 1_555
N9 Rb2 3.147894 1_555
N10 Rb7 3.064195 1_545
N10 Rb6 3.089702 1_556
N10 Rb4 3.150532 1_455
N11 Rb2 3.064194 1_556
N11 Rb6 3.089702 1_566
N11 Rb5 3.150532 1_565
N12 Rb4 3.064194 1_554
N12 Rb6 3.089702 1_655
N12 Rb0 3.150532 1_545
N13 Rb7 3.064194 1_555
N13 Rb3 3.089702 1_555
N13 Rb0 3.150532 1_555
N14 Rb0 3.064195 1_555
N14 Rb3 3.089702 1_555
N14 Rb4 3.150532 1_555
N15 Rb0 3.147894 1_556
N15 Rb4 3.147894 1_565
N15 Rb7 3.147894 1_655
