# generated using pymatgen
data_P3Rh4
_symmetry_space_group_name_H-M   'P 1'
_cell_length_a   3.33608831
_cell_length_b   10.02385760
_cell_length_c   11.71152818
_cell_angle_alpha   90.00000000
_cell_angle_beta   90.00000000
_cell_angle_gamma   90.00000000
_symmetry_Int_Tables_number   1
_chemical_formula_structural   P3Rh4
_chemical_formula_sum   'P12 Rh16'
_cell_volume   391.63905548
_cell_formula_units_Z   4
loop_
 _symmetry_equiv_pos_site_id
 _symmetry_equiv_pos_as_xyz
  1  'x, y, z'
loop_
 _atom_site_type_symbol
 _atom_site_label
 _atom_site_symmetry_multiplicity
 _atom_site_fract_x
 _atom_site_fract_y
 _atom_site_fract_z
 _atom_site_occupancy
  P  P0  1  0.75000000  0.92044144  0.62992284  1
  P  P1  1  0.75000000  0.08025417  0.87266779  1
  P  P2  1  0.75000000  0.24136444  0.62294543  1
  P  P3  1  0.25000000  0.07955856  0.37007716  1
  P  P4  1  0.25000000  0.74136444  0.87705457  1
  P  P5  1  0.25000000  0.58025417  0.62733221  1
  P  P6  1  0.25000000  0.91974583  0.12733221  1
  P  P7  1  0.75000000  0.57955856  0.12992284  1
  P  P8  1  0.25000000  0.42044144  0.87007716  1
  P  P9  1  0.75000000  0.25863556  0.12294543  1
  P  P10  1  0.75000000  0.41974583  0.37266779  1
  P  P11  1  0.25000000  0.75863556  0.37705457  1
  Rh  Rh0  1  0.25000000  0.92856406  0.76851937  1
  Rh  Rh1  1  0.25000000  0.40305824  0.06431809  1
  Rh  Rh2  1  0.75000000  0.88320232  0.97137584  1
  Rh  Rh3  1  0.75000000  0.59694176  0.93568191  1
  Rh  Rh4  1  0.25000000  0.29262262  0.29771220  1
  Rh  Rh5  1  0.25000000  0.38320232  0.52862416  1
  Rh  Rh6  1  0.75000000  0.07143594  0.23148063  1
  Rh  Rh7  1  0.25000000  0.09694176  0.56431809  1
  Rh  Rh8  1  0.25000000  0.57143594  0.26851937  1
  Rh  Rh9  1  0.75000000  0.61679768  0.47137584  1
  Rh  Rh10  1  0.75000000  0.90305824  0.43568191  1
  Rh  Rh11  1  0.75000000  0.42856406  0.73148063  1
  Rh  Rh12  1  0.25000000  0.11679768  0.02862416  1
  Rh  Rh13  1  0.75000000  0.79262262  0.20228780  1
  Rh  Rh14  1  0.75000000  0.70737738  0.70228780  1
  Rh  Rh15  1  0.25000000  0.20737738  0.79771220  1
loop_
_geom_bond_atom_site_label_1
_geom_bond_atom_site_label_2
_geom_bond_distance
_geom_bond_site_symmetry_2
P0 Rh10 2.281522 1_555
P0 Rh14 2.297734 1_555
P0 Rh0 2.328885 1_555
P0 Rh0 2.328885 1_655
P0 Rh7 2.550063 1_565
P0 Rh7 2.550063 1_665
P1 Rh15 2.275244 1_555
P1 Rh15 2.275244 1_655
P1 Rh2 2.288642 1_545
P1 Rh12 2.500522 1_656
P1 Rh12 2.500522 1_556
P1 Rh0 2.565563 1_545
P1 Rh0 2.565563 1_645
P2 Rh11 2.266460 1_555
P2 Rh7 2.312913 1_555
P2 Rh7 2.312913 1_655
P2 Rh5 2.454389 1_555
P2 Rh5 2.454389 1_655
P2 Rh15 2.662286 1_555
P2 Rh15 2.662286 1_655
P3 Rh7 2.281522 1_555
P3 Rh4 2.297734 1_555
P3 Rh6 2.328885 1_555
P3 Rh6 2.328885 1_455
P3 Rh10 2.550063 1_545
P3 Rh10 2.550063 1_445
P4 Rh0 2.266460 1_555
P4 Rh3 2.312913 1_555
P4 Rh3 2.312913 1_455
P4 Rh2 2.454389 1_555
P4 Rh2 2.454389 1_455
P4 Rh14 2.662286 1_555
P4 Rh14 2.662286 1_455
P5 Rh14 2.275244 1_455
P5 Rh14 2.275244 1_555
P5 Rh5 2.288642 1_555
P5 Rh9 2.500522 1_455
P5 Rh9 2.500522 1_555
P5 Rh11 2.565563 1_455
P5 Rh11 2.565563 1_555
P6 Rh13 2.275244 1_555
P6 Rh13 2.275244 1_455
P6 Rh12 2.288642 1_565
P6 Rh2 2.500522 1_454
P6 Rh2 2.500522 1_554
P6 Rh6 2.565563 1_565
P6 Rh6 2.565563 1_465
P7 Rh3 2.281522 1_554
P7 Rh13 2.297734 1_555
P7 Rh8 2.328885 1_655
P7 Rh8 2.328885 1_555
P7 Rh1 2.550063 1_555
P7 Rh1 2.550063 1_655
P8 Rh1 2.281522 1_556
P8 Rh15 2.297734 1_555
P8 Rh11 2.328885 1_455
P8 Rh11 2.328885 1_555
P8 Rh3 2.550063 1_555
P8 Rh3 2.550063 1_455
P9 Rh6 2.266460 1_555
P9 Rh1 2.312913 1_655
P9 Rh1 2.312913 1_555
P9 Rh12 2.454389 1_655
P9 Rh12 2.454389 1_555
P9 Rh4 2.662286 1_555
P9 Rh4 2.662286 1_655
P10 Rh4 2.275244 1_555
P10 Rh4 2.275244 1_655
P10 Rh9 2.288642 1_555
P10 Rh5 2.500522 1_555
P10 Rh5 2.500522 1_655
P10 Rh8 2.565563 1_555
P10 Rh8 2.565563 1_655
P11 Rh8 2.266460 1_555
P11 Rh10 2.312913 1_455
P11 Rh10 2.312913 1_555
P11 Rh9 2.454389 1_555
P11 Rh9 2.454389 1_455
P11 Rh13 2.662286 1_455
P11 Rh13 2.662286 1_555
