# generated using pymatgen
data_ZnH3CNO3
_symmetry_space_group_name_H-M   'P 1'
_cell_length_a   9.35432940
_cell_length_b   5.32383188
_cell_length_c   7.49404576
_cell_angle_alpha   90.00000000
_cell_angle_beta   90.00000000
_cell_angle_gamma   90.00000000
_symmetry_Int_Tables_number   1
_chemical_formula_structural   ZnH3CNO3
_chemical_formula_sum   'Zn4 H12 C4 N4 O12'
_cell_volume   373.21005169
_cell_formula_units_Z   4
loop_
 _symmetry_equiv_pos_site_id
 _symmetry_equiv_pos_as_xyz
  1  'x, y, z'
loop_
 _atom_site_type_symbol
 _atom_site_label
 _atom_site_symmetry_multiplicity
 _atom_site_fract_x
 _atom_site_fract_y
 _atom_site_fract_z
 _atom_site_occupancy
  Zn  Zn0  1  0.64749785  0.25765156  0.32502499  1
  Zn  Zn1  1  0.35250215  0.75765156  0.67497501  1
  Zn  Zn2  1  0.85250215  0.75765156  0.82502499  1
  Zn  Zn3  1  0.14749785  0.25765156  0.17497501  1
  H  H0  1  0.88817753  0.05127417  0.54551112  1
  H  H1  1  0.11182247  0.55127417  0.45448888  1
  H  H2  1  0.61182247  0.55127417  0.04551112  1
  H  H3  1  0.38817753  0.05127417  0.95448888  1
  H  H4  1  0.03786946  0.95771068  0.64113393  1
  H  H5  1  0.96213054  0.45771068  0.35886607  1
  H  H6  1  0.46213054  0.45771068  0.14113393  1
  H  H7  1  0.53786946  0.95771068  0.85886607  1
  H  H8  1  0.94036695  0.18396958  0.73311196  1
  H  H9  1  0.05963305  0.68396958  0.26688804  1
  H  H10  1  0.55963305  0.68396958  0.23311196  1
  H  H11  1  0.44036695  0.18396958  0.76688804  1
  C  C0  1  0.88091928  0.01699838  0.14814092  1
  C  C1  1  0.11908072  0.51699838  0.85185908  1
  C  C2  1  0.61908072  0.51699838  0.64814092  1
  C  C3  1  0.38091928  0.01699838  0.35185908  1
  N  N0  1  0.93605125  0.01714308  0.66552867  1
  N  N1  1  0.06394875  0.51714308  0.33447133  1
  N  N2  1  0.56394875  0.51714308  0.16552867  1
  N  N3  1  0.43605125  0.01714308  0.83447133  1
  O  O0  1  0.51537970  0.98688773  0.38617577  1
  O  O1  1  0.48462030  0.48688773  0.61382423  1
  O  O2  1  0.98462030  0.48688773  0.88617577  1
  O  O3  1  0.01537970  0.98688773  0.11382423  1
  O  O4  1  0.84279808  0.14097610  0.28800802  1
  O  O5  1  0.15720192  0.64097610  0.71199198  1
  O  O6  1  0.65720192  0.64097610  0.78800802  1
  O  O7  1  0.34279808  0.14097610  0.21199198  1
  O  O8  1  0.71385708  0.42098772  0.54669705  1
  O  O9  1  0.28614292  0.92098772  0.45330295  1
  O  O10  1  0.78614292  0.92098772  0.04669705  1
  O  O11  1  0.21385708  0.42098772  0.95330295  1
loop_
_geom_bond_atom_site_label_1
_geom_bond_atom_site_label_2
_geom_bond_distance
_geom_bond_site_symmetry_2
H0 N0 1.021037 1_555
H1 N1 1.021037 1_555
H2 N2 1.021037 1_555
H3 N3 1.021037 1_555
H4 N0 1.020137 1_465
H5 N1 1.020137 1_655
H6 N2 1.020137 1_555
H7 N3 1.020137 1_565
H8 N0 1.023213 1_555
H9 N1 1.023213 1_555
H10 N2 1.023213 1_555
H11 N3 1.023213 1_555
C0 O10 1.274840 1_545
C0 O4 1.288981 1_555
C0 O3 1.293778 1_645
C1 O11 1.274840 1_555
C1 O5 1.288981 1_555
C1 O2 1.293778 1_455
C2 O8 1.274840 1_555
C2 O6 1.288981 1_555
C2 O1 1.293778 1_555
C3 O9 1.274840 1_545
C3 O7 1.288981 1_555
C3 O0 1.293778 1_545
N0 Zn2 1.986958 1_545
N1 Zn3 1.986958 1_555
N2 Zn0 1.986958 1_555
N3 Zn1 1.986958 1_545
O0 Zn0 1.953286 1_565
O1 Zn1 1.953286 1_555
O2 Zn2 1.953286 1_555
O3 Zn3 1.953286 1_565
O4 Zn0 1.949453 1_555
O5 Zn1 1.949453 1_555
O6 Zn2 1.949453 1_555
O7 Zn3 1.949453 1_555
O8 Zn0 1.975130 1_555
O9 Zn1 1.975130 1_555
O10 Zn2 1.975130 1_554
O11 Zn3 1.975130 1_556
