# generated using pymatgen
data_EuZn2
_symmetry_space_group_name_H-M   'P 1'
_cell_length_a   4.63899812
_cell_length_b   5.78780192
_cell_length_c   5.78780595
_cell_angle_alpha   80.86983458
_cell_angle_beta   66.37453509
_cell_angle_gamma   66.37453615
_symmetry_Int_Tables_number   1
_chemical_formula_structural   EuZn2
_chemical_formula_sum   'Eu2 Zn4'
_cell_volume   130.44179056
_cell_formula_units_Z   2
loop_
 _symmetry_equiv_pos_site_id
 _symmetry_equiv_pos_as_xyz
  1  'x, y, z'
loop_
 _atom_site_type_symbol
 _atom_site_label
 _atom_site_symmetry_multiplicity
 _atom_site_fract_x
 _atom_site_fract_y
 _atom_site_fract_z
 _atom_site_occupancy
  Eu  Eu0  1  0.55208917  0.69791083  0.19791083  1
  Eu  Eu1  1  0.44791083  0.30208917  0.80208917  1
  Zn  Zn0  1  0.83643586  0.72877951  0.59835078  1
  Zn  Zn1  1  0.16356414  0.27122049  0.40164922  1
  Zn  Zn2  1  0.83643586  0.09835078  0.22877951  1
  Zn  Zn3  1  0.16356414  0.90164922  0.77122049  1
loop_
_geom_bond_atom_site_label_1
_geom_bond_atom_site_label_2
_geom_bond_distance
_geom_bond_site_symmetry_2
Eu0 Zn2 3.148671 1_465
Eu0 Zn0 3.148671 1_455
Eu0 Zn2 3.148677 1_565
Eu0 Zn0 3.148679 1_555
Eu0 Zn2 3.183871 1_555
Eu0 Zn0 3.183873 1_554
Eu0 Zn1 3.224008 1_565
Eu0 Zn3 3.224010 1_555
Eu0 Zn1 3.417290 1_655
Eu0 Zn3 3.417290 1_654
Eu0 Zn1 3.417295 1_555
Eu0 Zn3 3.417297 1_554
Eu1 Zn3 3.148671 1_645
Eu1 Zn1 3.148671 1_655
Eu1 Zn3 3.148677 1_545
Eu1 Zn1 3.148679 1_555
Eu1 Zn3 3.183871 1_555
Eu1 Zn1 3.183873 1_556
Eu1 Zn0 3.224008 1_545
Eu1 Zn2 3.224010 1_555
Eu1 Zn0 3.417290 1_455
Eu1 Zn2 3.417290 1_456
Eu1 Zn0 3.417295 1_555
Eu1 Zn2 3.417297 1_556
Zn0 Zn1 2.638795 1_655
Zn0 Zn3 2.656457 1_655
Zn0 Zn3 2.656473 1_555
Zn0 Zn2 2.774650 1_565
Zn1 Zn2 2.656457 1_455
Zn1 Zn2 2.656473 1_555
Zn1 Zn3 2.774650 1_545
Zn2 Zn3 2.638797 1_644
