# generated using pymatgen
data_ZrCo3B2
_symmetry_space_group_name_H-M   'P 1'
_cell_length_a   5.67446578
_cell_length_b   5.67437524
_cell_length_c   5.67441527
_cell_angle_alpha   94.63603242
_cell_angle_beta   94.63827005
_cell_angle_gamma   94.63753647
_symmetry_Int_Tables_number   1
_chemical_formula_structural   ZrCo3B2
_chemical_formula_sum   'Zr3 Co9 B6'
_cell_volume   180.81297984
_cell_formula_units_Z   3
loop_
 _symmetry_equiv_pos_site_id
 _symmetry_equiv_pos_as_xyz
  1  'x, y, z'
loop_
 _atom_site_type_symbol
 _atom_site_label
 _atom_site_symmetry_multiplicity
 _atom_site_fract_x
 _atom_site_fract_y
 _atom_site_fract_z
 _atom_site_occupancy
  Zr  Zr0  1  0.32971164  0.32969827  0.32970006  1
  Zr  Zr1  1  0.67029056  0.67029808  0.67030126  1
  Zr  Zr2  1  0.99999399  0.99998815  0.00001608  1
  Co  Co0  1  0.69345768  0.69340335  0.19567830  1
  Co  Co1  1  0.30652043  0.30658211  0.80432535  1
  Co  Co2  1  0.30654216  0.80432635  0.30658341  1
  Co  Co3  1  0.19568970  0.69342530  0.69342990  1
  Co  Co4  1  0.69346690  0.19567912  0.69341753  1
  Co  Co5  1  0.00001070  -0.00000192  0.49999470  1
  Co  Co6  1  0.80431613  0.30658687  0.30655168  1
  Co  Co7  1  -0.00000010  0.49999997  0.00000812  1
  Co  Co8  1  0.49999294  -0.00000463  0.00001036  1
  B  B0  1  0.37499748  0.62497807  -0.00002160  1
  B  B1  1  -0.00000254  0.62499708  0.37500042  1
  B  B2  1  0.00000300  0.37501253  0.62499365  1
  B  B3  1  0.62499157  0.37501726  0.00000888  1
  B  B4  1  0.62500385  0.00001845  0.37501973  1
  B  B5  1  0.37501289  -0.00000544  0.62498416  1
loop_
_geom_bond_atom_site_label_1
_geom_bond_atom_site_label_2
_geom_bond_distance
_geom_bond_site_symmetry_2
Zr0 Zr2 2.966929 1_445
Zr0 Zr1 3.064920 1_555
Zr1 Zr2 2.966919 1_556
Co0 Zr1 2.720182 1_555
Co0 Zr2 2.723974 1_555
Co0 Zr1 2.965251 1_554
Co0 Zr0 2.986090 1_555
Co1 Zr0 2.720220 1_555
Co1 Zr2 2.724054 1_446
Co1 Zr0 2.965230 1_556
Co1 Zr1 2.986225 1_555
Co2 Zr0 2.720200 1_555
Co2 Zr2 2.723933 1_455
Co2 Zr0 2.965200 1_565
Co2 Zr1 2.986143 1_555
Co3 Zr1 2.720073 1_555
Co3 Zr2 2.724212 1_456
Co3 Zr1 2.965404 1_455
Co3 Zr0 2.986154 1_555
Co4 Zr1 2.720153 1_555
Co4 Zr2 2.724054 1_546
Co4 Zr1 2.965250 1_545
Co4 Zr0 2.986148 1_555
Co5 Zr0 2.820045 1_555
Co5 Zr1 2.820144 1_445
Co5 Zr2 2.837074 1_445
Co5 Zr2 2.837341 1_446
Co6 Zr0 2.720096 1_555
Co6 Zr2 2.724109 1_545
Co6 Zr0 2.965382 1_655
Co6 Zr1 2.986176 1_555
Co7 Zr0 2.820054 1_555
Co7 Zr1 2.820090 1_454
Co7 Zr2 2.837120 1_455
Co7 Zr2 2.837256 1_445
Co8 Zr0 2.820023 1_555
Co8 Zr1 2.820114 1_544
Co8 Zr2 2.837226 1_445
Co8 Zr2 2.837240 1_545
B0 Co3 2.024545 1_554
B0 Co2 2.024971 1_555
B0 Co1 2.034746 1_554
B0 Co0 2.035141 1_555
B0 B3 2.085549 1_555
B0 Co7 2.187919 1_555
B0 Co8 2.187983 1_565
B0 Zr1 2.624602 1_554
B0 Zr0 2.624667 1_555
B1 Co0 2.024483 1_455
B1 Co2 2.024556 1_555
B1 Co6 2.034862 1_455
B1 Co3 2.034973 1_555
B1 B2 2.085610 1_555
B1 Co7 2.187901 1_555
B1 Co5 2.187921 1_565
B1 Zr1 2.624763 1_455
B1 Zr0 2.624766 1_555
B2 Co1 2.024443 1_555
B2 Co4 2.024538 1_455
B2 Co3 2.034883 1_555
B2 Co6 2.035016 1_455
B2 Co7 2.188007 1_556
B2 Co5 2.188012 1_555
B2 Zr1 2.624710 1_455
B2 Zr0 2.624750 1_555
B3 Co6 2.024532 1_555
B3 Co4 2.024915 1_554
B3 Co0 2.034737 1_555
B3 Co1 2.035154 1_554
B3 Co7 2.187966 1_655
B3 Co8 2.188032 1_555
B3 Zr0 2.624611 1_555
B3 Zr1 2.624618 1_554
B4 Co6 2.024691 1_555
B4 Co0 2.024990 1_545
B4 Co4 2.034774 1_555
B4 Co2 2.035137 1_545
B4 B5 2.085571 1_555
B4 Co5 2.187951 1_655
B4 Co8 2.187972 1_555
B4 Zr0 2.624582 1_555
B4 Zr1 2.624663 1_545
B5 Co3 2.024685 1_545
B5 Co1 2.024926 1_555
B5 Co2 2.034810 1_545
B5 Co4 2.035080 1_555
B5 Co5 2.187936 1_555
B5 Co8 2.188033 1_556
B5 Zr1 2.624597 1_545
B5 Zr0 2.624608 1_555
