# generated using pymatgen
data_PbSeO3
_symmetry_space_group_name_H-M   'P 1'
_cell_length_a   8.07301543
_cell_length_b   8.84856559
_cell_length_c   9.18932098
_cell_angle_alpha   76.60234519
_cell_angle_beta   90.00000000
_cell_angle_gamma   90.00000000
_symmetry_Int_Tables_number   1
_chemical_formula_structural   PbSeO3
_chemical_formula_sum   'Pb8 Se8 O24'
_cell_volume   638.57087374
_cell_formula_units_Z   8
loop_
 _symmetry_equiv_pos_site_id
 _symmetry_equiv_pos_as_xyz
  1  'x, y, z'
loop_
 _atom_site_type_symbol
 _atom_site_label
 _atom_site_symmetry_multiplicity
 _atom_site_fract_x
 _atom_site_fract_y
 _atom_site_fract_z
 _atom_site_occupancy
  Pb  Pb0  1  0.81875634  0.27208029  0.60243160  1
  Pb  Pb1  1  0.83548186  0.82484561  0.00505781  1
  Pb  Pb2  1  0.33548186  0.67515439  0.99494219  1
  Pb  Pb3  1  0.16451814  0.17515439  0.99494219  1
  Pb  Pb4  1  0.31875634  0.22791971  0.39756840  1
  Pb  Pb5  1  0.68124366  0.77208029  0.60243160  1
  Pb  Pb6  1  0.66451814  0.32484561  0.00505781  1
  Pb  Pb7  1  0.18124366  0.72791971  0.39756840  1
  Se  Se0  1  0.89870524  0.05562566  0.32190253  1
  Se  Se1  1  0.50638655  0.05136725  0.79773973  1
  Se  Se2  1  0.99361345  0.55136725  0.79773973  1
  Se  Se3  1  0.00638655  0.44863275  0.20226027  1
  Se  Se4  1  0.10129476  0.94437434  0.67809747  1
  Se  Se5  1  0.60129476  0.55562566  0.32190253  1
  Se  Se6  1  0.49361345  0.94863275  0.20226027  1
  Se  Se7  1  0.39870524  0.44437434  0.67809747  1
  O  O0  1  0.34451117  0.63386932  0.65259156  1
  O  O1  1  0.17774911  0.37466594  0.13090316  1
  O  O2  1  0.55199061  0.10221440  0.61297619  1
  O  O3  1  0.88951342  0.95990372  0.66849565  1
  O  O4  1  0.94800939  0.60221440  0.61297619  1
  O  O5  1  0.94505164  0.35631228  0.84465798  1
  O  O6  1  0.11048658  0.04009628  0.33150435  1
  O  O7  1  0.37480320  0.37444755  0.86806849  1
  O  O8  1  0.05199061  0.39778560  0.38702381  1
  O  O9  1  0.87480320  0.12555245  0.13193151  1
  O  O10  1  0.38951342  0.54009628  0.33150435  1
  O  O11  1  0.05494836  0.64368772  0.15534202  1
  O  O12  1  0.15548883  0.13386932  0.65259156  1
  O  O13  1  0.65548883  0.36613068  0.34740844  1
  O  O14  1  0.44505164  0.14368772  0.15534202  1
  O  O15  1  0.61048658  0.45990372  0.66849565  1
  O  O16  1  0.55494836  0.85631228  0.84465798  1
  O  O17  1  0.12519680  0.87444755  0.86806849  1
  O  O18  1  0.67774911  0.12533406  0.86909684  1
  O  O19  1  0.82225089  0.62533406  0.86909684  1
  O  O20  1  0.32225089  0.87466594  0.13090316  1
  O  O21  1  0.44800939  0.89778560  0.38702381  1
  O  O22  1  0.84451117  0.86613068  0.34740844  1
  O  O23  1  0.62519680  0.62555245  0.13193151  1
loop_
_geom_bond_atom_site_label_1
_geom_bond_atom_site_label_2
_geom_bond_distance
_geom_bond_site_symmetry_2
O0 Se7 1.695802 1_555
O0 Pb7 2.649153 1_555
O1 Se3 1.723676 1_555
O1 Pb3 2.389796 1_554
O1 Pb4 2.740838 1_555
O2 Se1 1.693124 1_555
O2 Pb0 2.615172 1_555
O2 Pb4 2.771364 1_555
O3 Se4 1.715859 1_655
O3 Pb5 2.534806 1_555
O3 Pb0 2.747381 1_565
O4 Se2 1.693124 1_555
O4 Pb5 2.615172 1_555
O4 Pb7 2.771364 1_655
O5 Se2 1.724431 1_555
O5 Pb3 2.567098 1_655
O5 Pb6 2.681233 1_556
O5 Pb0 2.705274 1_555
O6 Se0 1.715859 1_455
O6 Pb4 2.534806 1_555
O6 Pb7 2.747381 1_545
O7 Se7 1.722501 1_555
O7 Pb3 2.529477 1_555
O7 Pb6 2.644163 1_556
O8 Se3 1.693124 1_555
O8 Pb4 2.615172 1_555
O8 Pb0 2.771364 1_455
O9 Se0 1.722501 1_555
O9 Pb6 2.529477 1_555
O9 Pb3 2.644163 1_654
O10 Se5 1.715859 1_555
O10 Pb7 2.534806 1_555
O10 Pb4 2.747381 1_555
O11 Se3 1.724431 1_555
O11 Pb1 2.567098 1_455
O11 Pb2 2.681233 1_554
O11 Pb7 2.705274 1_555
O12 Se4 1.695802 1_545
O12 Pb4 2.649153 1_555
O13 Se5 1.695802 1_555
O13 Pb0 2.649153 1_555
O14 Se6 1.724431 1_545
O14 Pb6 2.567098 1_555
O14 Pb3 2.681233 1_554
O14 Pb4 2.705274 1_555
O15 Se7 1.715859 1_555
O15 Pb0 2.534806 1_555
O15 Pb5 2.747381 1_555
O16 Se1 1.724431 1_565
O16 Pb2 2.567098 1_555
O16 Pb1 2.681233 1_556
O16 Pb5 2.705274 1_555
O17 Se4 1.722501 1_555
O17 Pb2 2.529477 1_555
O17 Pb1 2.644163 1_456
O18 Se1 1.723676 1_555
O18 Pb6 2.389796 1_556
O18 Pb0 2.740838 1_555
O19 Se2 1.723676 1_555
O19 Pb1 2.389796 1_556
O19 Pb5 2.740838 1_555
O20 Se6 1.723676 1_555
O20 Pb2 2.389796 1_554
O20 Pb7 2.740838 1_555
O21 Se6 1.693124 1_555
O21 Pb7 2.615172 1_555
O21 Pb5 2.771364 1_555
O22 Se0 1.695802 1_565
O22 Pb5 2.649153 1_555
O23 Se5 1.722501 1_555
O23 Pb1 2.529477 1_555
O23 Pb2 2.644163 1_554
