# generated using pymatgen
data_EuMgH4
_symmetry_space_group_name_H-M   'P 1'
_cell_length_a   6.84507859
_cell_length_b   6.84507859
_cell_length_c   5.56587542
_cell_angle_alpha   90.00139990
_cell_angle_beta   90.00139990
_cell_angle_gamma   32.75077896
_symmetry_Int_Tables_number   1
_chemical_formula_structural   EuMgH4
_chemical_formula_sum   'Eu2 Mg2 H8'
_cell_volume   141.08352731
_cell_formula_units_Z   2
loop_
 _symmetry_equiv_pos_site_id
 _symmetry_equiv_pos_as_xyz
  1  'x, y, z'
loop_
 _atom_site_type_symbol
 _atom_site_label
 _atom_site_symmetry_multiplicity
 _atom_site_fract_x
 _atom_site_fract_y
 _atom_site_fract_z
 _atom_site_occupancy
  Eu  Eu0  1  0.84841867  0.84841867  0.74662553  1
  Eu  Eu1  1  0.15157545  0.15157545  0.24662569  1
  Mg  Mg0  1  0.58298799  0.58298799  0.69518963  1
  Mg  Mg1  1  0.41701799  0.41701799  0.19518645  1
  H  H0  1  0.66635209  0.66635209  0.97344442  1
  H  H1  1  0.33365117  0.33365117  0.47342515  1
  H  H2  1  0.70257162  0.70257162  0.49555591  1
  H  H3  1  0.29742495  0.29742495  0.99554520  1
  H  H4  1  0.93313405  0.93313405  0.14745754  1
  H  H5  1  0.06685688  0.06685688  0.64747841  1
  H  H6  1  0.45514703  0.45514703  0.84272666  1
  H  H7  1  0.54486210  0.54486210  0.34273841  1
loop_
_geom_bond_atom_site_label_1
_geom_bond_atom_site_label_2
_geom_bond_distance
_geom_bond_site_symmetry_2
Eu0 H2 2.371173 1_555
Eu0 H6 2.444486 1_655
Eu0 H6 2.444486 1_565
Eu0 H1 2.464563 1_565
Eu0 H1 2.464563 1_655
Eu0 H3 2.468278 1_655
Eu0 H3 2.468278 1_565
Eu0 H4 2.493050 1_556
Eu0 H0 2.704214 1_555
Eu0 H5 2.921747 1_665
Eu1 H3 2.371292 1_554
Eu1 H7 2.444402 1_455
Eu1 H7 2.444402 1_545
Eu1 H0 2.464513 1_544
Eu1 H0 2.464513 1_454
Eu1 H2 2.468301 1_545
Eu1 H2 2.468301 1_455
Eu1 H5 2.493223 1_555
Eu1 H1 2.704212 1_555
Eu1 H4 2.921783 1_445
H0 Mg0 1.896694 1_555
H1 Mg1 1.896687 1_555
H2 Mg0 1.924017 1_555
H3 Mg1 1.924096 1_556
H4 Mg1 1.959495 1_655
H4 Mg1 1.959495 1_565
H5 Mg0 1.959502 1_455
H5 Mg0 1.959502 1_545
H6 Mg0 1.869224 1_555
H6 Mg1 2.024678 1_556
H7 Mg1 1.869260 1_555
H7 Mg0 2.024597 1_555
