# generated using pymatgen
data_NaPH3C2N3O4
_symmetry_space_group_name_H-M   'P 1'
_cell_length_a   12.66488900
_cell_length_b   7.26385300
_cell_length_c   9.46023321
_cell_angle_alpha   49.90078192
_cell_angle_beta   90.00000000
_cell_angle_gamma   90.00000000
_symmetry_Int_Tables_number   1
_chemical_formula_structural   NaPH3C2N3O4
_chemical_formula_sum   'Na4 P4 H12 C8 N12 O16'
_cell_volume   665.72072849
_cell_formula_units_Z   4
loop_
 _symmetry_equiv_pos_site_id
 _symmetry_equiv_pos_as_xyz
  1  'x, y, z'
loop_
 _atom_site_type_symbol
 _atom_site_label
 _atom_site_symmetry_multiplicity
 _atom_site_fract_x
 _atom_site_fract_y
 _atom_site_fract_z
 _atom_site_occupancy
  Na  Na0  1  0.96569700  0.30092100  0.38274700  1
  Na  Na1  1  0.53430300  0.30092100  0.88274700  1
  Na  Na2  1  0.03430300  0.69907900  0.61725300  1
  Na  Na3  1  0.46569700  0.69907900  0.11725300  1
  P  P0  1  0.57581300  0.84339400  0.39365300  1
  P  P1  1  0.92418700  0.84339400  0.89365300  1
  P  P2  1  0.42418700  0.15660600  0.60634700  1
  P  P3  1  0.07581300  0.15660600  0.10634700  1
  H  H0  1  0.71804500  0.79828400  0.13466200  1
  H  H1  1  0.78195500  0.79828400  0.63466200  1
  H  H2  1  0.28195500  0.20171600  0.86533800  1
  H  H3  1  0.21804500  0.20171600  0.36533800  1
  H  H4  1  0.59039100  0.17195900  0.39877200  1
  H  H5  1  0.90960900  0.17195900  0.89877200  1
  H  H6  1  0.40960900  0.82804100  0.60122800  1
  H  H7  1  0.09039100  0.82804100  0.10122800  1
  H  H8  1  0.76588600  0.67160300  0.68153200  1
  H  H9  1  0.73411400  0.67160300  0.18153200  1
  H  H10  1  0.23411400  0.32839700  0.31846800  1
  H  H11  1  0.26588600  0.32839700  0.81846800  1
  C  C0  1  0.80094500  0.72266300  0.43331200  1
  C  C1  1  0.69905500  0.72266300  0.93331200  1
  C  C2  1  0.19905500  0.27733700  0.56668800  1
  C  C3  1  0.30094500  0.27733700  0.06668800  1
  C  C4  1  0.73609100  0.11502900  0.33018600  1
  C  C5  1  0.76390900  0.11502900  0.83018600  1
  C  C6  1  0.26390900  0.88497100  0.66981400  1
  C  C7  1  0.23609100  0.88497100  0.16981400  1
  N  N0  1  0.69770200  0.73001600  0.40089300  1
  N  N1  1  0.80229800  0.73001600  0.90089300  1
  N  N2  1  0.30229800  0.26998400  0.59910700  1
  N  N3  1  0.19770200  0.26998400  0.09910700  1
  N  N4  1  0.63238000  0.07318400  0.37390500  1
  N  N5  1  0.86762000  0.07318400  0.87390500  1
  N  N6  1  0.36762000  0.92681600  0.62609500  1
  N  N7  1  0.13238000  0.92681600  0.12609500  1
  N  N8  1  0.77482500  0.96701700  0.28763000  1
  N  N9  1  0.72517500  0.96701700  0.78763000  1
  N  N10  1  0.22517500  0.03298300  0.71237000  1
  N  N11  1  0.27482500  0.03298300  0.21237000  1
  O  O0  1  0.52722600  0.93569900  0.21372600  1
  O  O1  1  0.97277400  0.93569900  0.71372600  1
  O  O2  1  0.47277400  0.06430100  0.78627400  1
  O  O3  1  0.02722600  0.06430100  0.28627400  1
  O  O4  1  0.48268800  0.32095900  0.42723900  1
  O  O5  1  0.01731200  0.32095900  0.92723900  1
  O  O6  1  0.51731200  0.67904100  0.57276100  1
  O  O7  1  0.98268800  0.67904100  0.07276100  1
  O  O8  1  0.87774900  0.59225300  0.50343500  1
  O  O9  1  0.62225100  0.59225300  0.00343500  1
  O  O10  1  0.12225100  0.40774700  0.49656500  1
  O  O11  1  0.37774900  0.40774700  0.99656500  1
  O  O12  1  0.79399000  0.26605700  0.31076300  1
  O  O13  1  0.70601000  0.26605700  0.81076300  1
  O  O14  1  0.20601000  0.73394300  0.68923700  1
  O  O15  1  0.29399000  0.73394300  0.18923700  1
loop_
_geom_bond_atom_site_label_1
_geom_bond_atom_site_label_2
_geom_bond_distance
_geom_bond_site_symmetry_2
Na0 O12 2.340757 1_555
Na0 O7 2.411200 1_555
Na0 O1 2.479755 1_545
Na0 O3 2.532813 1_655
Na0 O10 2.601749 1_655
Na1 O13 2.340757 1_555
Na1 O6 2.411200 1_555
Na1 O0 2.479755 1_546
Na1 O2 2.532813 1_555
Na1 O11 2.601749 1_555
Na2 O14 2.340757 1_555
Na2 O5 2.411200 1_555
Na2 O3 2.479755 1_565
Na2 O1 2.532813 1_455
Na2 O8 2.601749 1_455
Na3 O15 2.340757 1_555
Na3 O4 2.411200 1_555
Na3 O2 2.479755 1_564
Na3 O0 2.532813 1_555
Na3 O9 2.601749 1_555
H0 H9 0.747770 1_555
H1 H8 0.747770 1_555
H4 N4 1.034583 1_555
H5 N5 1.034583 1_555
H6 N6 1.034583 1_555
H7 N7 1.034583 1_555
H10 H3 0.747770 1_555
H11 H2 0.747770 1_555
C0 O8 1.214106 1_555
C0 N0 1.336236 1_555
C0 N8 1.417041 1_555
C1 O9 1.214106 1_556
C1 N1 1.336236 1_555
C1 N9 1.417041 1_555
C2 O10 1.214106 1_555
C2 N2 1.336236 1_555
C2 N10 1.417041 1_555
C3 O11 1.214106 1_554
C3 N3 1.336236 1_555
C3 N11 1.417041 1_555
C4 O12 1.230975 1_555
C4 N4 1.351574 1_555
C4 N8 1.454732 1_545
C5 O13 1.230975 1_555
C5 N5 1.351574 1_555
C5 N9 1.454732 1_545
C6 O14 1.230975 1_555
C6 N6 1.351574 1_555
C6 N10 1.454732 1_565
C7 O15 1.230975 1_555
C7 N7 1.351574 1_555
C7 N11 1.454732 1_565
N0 P0 1.730122 1_555
N1 P1 1.730122 1_555
N2 P2 1.730122 1_555
N3 P3 1.730122 1_555
N4 P0 1.712465 1_545
N5 P1 1.712465 1_545
N6 P2 1.712465 1_565
N7 P3 1.712465 1_565
O0 P0 1.501769 1_555
O1 P1 1.501769 1_555
O2 P2 1.501769 1_555
O3 P3 1.501769 1_555
O4 P2 1.496435 1_555
O5 P3 1.496435 1_556
O6 P0 1.496435 1_555
O7 P1 1.496435 1_554
