# generated using pymatgen
data_BaYb2CuO5
_symmetry_space_group_name_H-M   'P 1'
_cell_length_a   5.64826300
_cell_length_b   7.07063100
_cell_length_c   12.13152600
_cell_angle_alpha   90.00000000
_cell_angle_beta   90.00000000
_cell_angle_gamma   90.00000000
_symmetry_Int_Tables_number   1
_chemical_formula_structural   BaYb2CuO5
_chemical_formula_sum   'Ba4 Yb8 Cu4 O20'
_cell_volume   484.49412695
_cell_formula_units_Z   4
loop_
 _symmetry_equiv_pos_site_id
 _symmetry_equiv_pos_as_xyz
  1  'x, y, z'
loop_
 _atom_site_type_symbol
 _atom_site_label
 _atom_site_symmetry_multiplicity
 _atom_site_fract_x
 _atom_site_fract_y
 _atom_site_fract_z
 _atom_site_occupancy
  Ba  Ba0  1  0.25000000  0.56737800  0.39790200  1
  Ba  Ba1  1  0.75000000  0.43262200  0.60209800  1
  Ba  Ba2  1  0.75000000  0.06737800  0.10209800  1
  Ba  Ba3  1  0.25000000  0.93262200  0.89790200  1
  Yb  Yb0  1  0.25000000  0.10653000  0.57540300  1
  Yb  Yb1  1  0.75000000  0.89347000  0.42459700  1
  Yb  Yb2  1  0.75000000  0.60653000  0.92459700  1
  Yb  Yb3  1  0.25000000  0.39347000  0.07540300  1
  Yb  Yb4  1  0.25000000  0.38751800  0.79492100  1
  Yb  Yb5  1  0.75000000  0.61248200  0.20507900  1
  Yb  Yb6  1  0.75000000  0.88751800  0.70507900  1
  Yb  Yb7  1  0.25000000  0.11248200  0.29492100  1
  Cu  Cu0  1  0.25000000  0.78654100  0.15833200  1
  Cu  Cu1  1  0.75000000  0.21345900  0.84166800  1
  Cu  Cu2  1  0.75000000  0.28654100  0.34166800  1
  Cu  Cu3  1  0.25000000  0.71345900  0.65833200  1
  O  O0  1  0.25000000  0.43619100  0.60272500  1
  O  O1  1  0.75000000  0.56380900  0.39727500  1
  O  O2  1  0.75000000  0.93619100  0.89727500  1
  O  O3  1  0.25000000  0.06380900  0.10272500  1
  O  O4  1  0.01480200  0.84472200  0.26540700  1
  O  O5  1  0.51480200  0.15527800  0.73459300  1
  O  O6  1  0.98519800  0.34472200  0.23459300  1
  O  O7  1  0.48519800  0.65527800  0.76540700  1
  O  O8  1  0.98519800  0.15527800  0.73459300  1
  O  O9  1  0.48519800  0.84472200  0.26540700  1
  O  O10  1  0.01480200  0.65527800  0.76540700  1
  O  O11  1  0.51480200  0.34472200  0.23459300  1
  O  O12  1  0.47974800  0.67794400  0.06469700  1
  O  O13  1  0.97974800  0.32205600  0.93530300  1
  O  O14  1  0.52025200  0.17794400  0.43530300  1
  O  O15  1  0.02025200  0.82205600  0.56469700  1
  O  O16  1  0.97974800  0.17794400  0.43530300  1
  O  O17  1  0.47974800  0.82205600  0.56469700  1
  O  O18  1  0.02025200  0.67794400  0.06469700  1
  O  O19  1  0.52025200  0.32205600  0.93530300  1
loop_
_geom_bond_atom_site_label_1
_geom_bond_atom_site_label_2
_geom_bond_distance
_geom_bond_site_symmetry_2
Ba0 O0 2.652302 1_555
Ba0 O1 2.824254 1_455
Ba0 O1 2.824254 1_555
Ba0 O4 2.862506 1_555
Ba0 O9 2.862506 1_555
Ba0 O11 2.939492 1_555
Ba0 O6 2.939492 1_455
Ba0 O15 3.003510 1_555
Ba0 O17 3.003510 1_555
Ba0 O16 3.180871 1_455
Ba0 O14 3.180871 1_555
Ba1 O1 2.652302 1_555
Ba1 O0 2.824254 1_555
Ba1 O0 2.824254 1_655
Ba1 O5 2.862506 1_555
Ba1 O8 2.862506 1_555
Ba1 O7 2.939492 1_555
Ba1 O10 2.939492 1_655
Ba1 O14 3.003510 1_555
Ba1 O16 3.003510 1_555
Ba1 O15 3.180871 1_655
Ba1 O17 3.180871 1_555
Ba2 O2 2.652302 1_544
Ba2 O3 2.824254 1_655
Ba2 O3 2.824254 1_555
Ba2 O11 2.862506 1_555
Ba2 O6 2.862506 1_555
Ba2 O4 2.939492 1_645
Ba2 O9 2.939492 1_545
Ba2 O13 3.003510 1_554
Ba2 O19 3.003510 1_554
Ba2 O18 3.180871 1_645
Ba2 O12 3.180871 1_545
Ba3 O3 2.652302 1_566
Ba3 O2 2.824254 1_555
Ba3 O2 2.824254 1_455
Ba3 O10 2.862506 1_555
Ba3 O7 2.862506 1_555
Ba3 O5 2.939492 1_565
Ba3 O8 2.939492 1_465
Ba3 O18 3.003510 1_556
Ba3 O12 3.003510 1_556
Ba3 O19 3.180871 1_565
Ba3 O13 3.180871 1_465
Cu0 O18 1.887832 1_555
Cu0 O12 1.887832 1_555
Cu0 O4 1.902996 1_555
Cu0 O9 1.902996 1_555
Cu0 O3 2.073279 1_565
Cu1 O19 1.887832 1_555
Cu1 O13 1.887832 1_555
Cu1 O5 1.902996 1_555
Cu1 O8 1.902996 1_555
Cu1 O2 2.073279 1_545
Cu2 O14 1.887832 1_555
Cu2 O16 1.887832 1_555
Cu2 O11 1.902996 1_555
Cu2 O6 1.902996 1_555
Cu2 O1 2.073279 1_555
Cu3 O17 1.887832 1_555
Cu3 O15 1.887832 1_555
Cu3 O10 1.902996 1_555
Cu3 O7 1.902996 1_555
Cu3 O0 2.073279 1_555
O0 Yb0 2.354360 1_555
O0 Yb4 2.356892 1_555
O1 Yb1 2.354360 1_555
O1 Yb5 2.356892 1_555
O2 Yb2 2.354360 1_555
O2 Yb6 2.356892 1_555
O3 Yb3 2.354360 1_555
O3 Yb7 2.356892 1_555
O4 Yb5 2.338612 1_455
O4 Yb7 2.340371 1_565
O4 Yb1 2.466868 1_455
O5 Yb4 2.338612 1_555
O5 Yb6 2.340371 1_545
O5 Yb0 2.466868 1_555
O6 Yb7 2.338612 1_655
O6 Yb5 2.340371 1_555
O6 Yb3 2.466868 1_655
O7 Yb6 2.338612 1_555
O7 Yb4 2.340371 1_555
O7 Yb2 2.466868 1_555
O8 Yb4 2.338612 1_655
O8 Yb6 2.340371 1_545
O8 Yb0 2.466868 1_655
O9 Yb5 2.338612 1_555
O9 Yb7 2.340371 1_565
O9 Yb1 2.466868 1_555
O10 Yb6 2.338612 1_455
O10 Yb4 2.340371 1_555
O10 Yb2 2.466868 1_455
O11 Yb7 2.338612 1_555
O11 Yb5 2.340371 1_555
O11 Yb3 2.466868 1_555
O12 Yb5 2.333382 1_555
O12 Yb2 2.339607 1_554
O12 Yb3 2.397208 1_555
O13 Yb4 2.333382 1_655
O13 Yb3 2.339607 1_656
O13 Yb2 2.397208 1_555
O14 Yb7 2.333382 1_555
O14 Yb0 2.339607 1_555
O14 Yb1 2.397208 1_545
O15 Yb6 2.333382 1_455
O15 Yb1 2.339607 1_455
O15 Yb0 2.397208 1_565
O16 Yb7 2.333382 1_655
O16 Yb0 2.339607 1_655
O16 Yb1 2.397208 1_545
O17 Yb6 2.333382 1_555
O17 Yb1 2.339607 1_555
O17 Yb0 2.397208 1_565
O18 Yb5 2.333382 1_455
O18 Yb2 2.339607 1_454
O18 Yb3 2.397208 1_555
O19 Yb4 2.333382 1_555
O19 Yb3 2.339607 1_556
O19 Yb2 2.397208 1_555
