# generated using pymatgen
data_Mn3(P2O7)2
_symmetry_space_group_name_H-M   'P 1'
_cell_length_a   8.07117758
_cell_length_b   7.08445815
_cell_length_c   9.39182409
_cell_angle_alpha   70.02909737
_cell_angle_beta   90.00000000
_cell_angle_gamma   90.00000000
_symmetry_Int_Tables_number   1
_chemical_formula_structural   Mn3(P2O7)2
_chemical_formula_sum   'Mn6 P8 O28'
_cell_volume   504.73046522
_cell_formula_units_Z   2
loop_
 _symmetry_equiv_pos_site_id
 _symmetry_equiv_pos_as_xyz
  1  'x, y, z'
loop_
 _atom_site_type_symbol
 _atom_site_label
 _atom_site_symmetry_multiplicity
 _atom_site_fract_x
 _atom_site_fract_y
 _atom_site_fract_z
 _atom_site_occupancy
  Mn  Mn0  1  0.13053724  0.80589038  0.02636640  1
  Mn  Mn1  1  0.36946276  0.80589038  0.52636640  1
  Mn  Mn2  1  0.86946276  0.19410962  0.97363360  1
  Mn  Mn3  1  0.63053724  0.19410962  0.47363360  1
  Mn  Mn4  1  0.00000000  -0.00000000  0.50000000  1
  Mn  Mn5  1  0.50000000  -0.00000000  -0.00000000  1
  P  P0  1  0.46386086  0.59831943  0.29309355  1
  P  P1  1  0.28171815  0.10700036  0.69915113  1
  P  P2  1  0.21828185  0.10700036  0.19915113  1
  P  P3  1  0.71828185  0.89299964  0.30084887  1
  P  P4  1  0.03613914  0.59831943  0.79309355  1
  P  P5  1  0.78171815  0.89299964  0.80084887  1
  P  P6  1  0.53613914  0.40168057  0.70690645  1
  P  P7  1  0.96386086  0.40168057  0.20690645  1
  O  O0  1  0.61751511  0.86177228  0.87694069  1
  O  O1  1  0.90848487  0.98088029  0.88406937  1
  O  O2  1  0.39501700  0.72006380  0.13826466  1
  O  O3  1  0.35799643  0.62569587  0.41820677  1
  O  O4  1  0.35474012  0.31653626  0.69334272  1
  O  O5  1  0.85799643  0.37430413  0.08179323  1
  O  O6  1  0.72229438  0.00983639  0.12934382  1
  O  O7  1  0.00435997  0.37856281  0.81768416  1
  O  O8  1  0.40848487  0.01911971  0.61593063  1
  O  O9  1  0.99564003  0.62143719  0.18231584  1
  O  O10  1  0.14200357  0.62569587  0.91820677  1
  O  O11  1  0.85474012  0.68346374  0.80665728  1
  O  O12  1  0.88248489  0.86177228  0.37694069  1
  O  O13  1  0.38248489  0.13822772  0.12305931  1
  O  O14  1  0.11751511  0.13822772  0.62305931  1
  O  O15  1  0.27770562  0.99016361  0.87065618  1
  O  O16  1  0.50435997  0.62143719  0.68231584  1
  O  O17  1  0.14525988  0.31653626  0.19334272  1
  O  O18  1  0.64525988  0.68346374  0.30665728  1
  O  O19  1  0.89501700  0.27993620  0.36173534  1
  O  O20  1  0.49564003  0.37856281  0.31768416  1
  O  O21  1  0.09151513  0.01911971  0.11593063  1
  O  O22  1  0.64200357  0.37430413  0.58179323  1
  O  O23  1  0.59151513  0.98088029  0.38406937  1
  O  O24  1  0.22229438  0.99016361  0.37065618  1
  O  O25  1  0.10498300  0.72006380  0.63826466  1
  O  O26  1  0.77770562  0.00983639  0.62934382  1
  O  O27  1  0.60498300  0.27993620  0.86173534  1
loop_
_geom_bond_atom_site_label_1
_geom_bond_atom_site_label_2
_geom_bond_distance
_geom_bond_site_symmetry_2
Mn0 O10 1.885712 1_554
Mn0 O9 1.931543 1_455
Mn0 O15 1.987388 1_554
Mn0 O21 1.989148 1_565
Mn0 O1 2.324492 1_454
Mn0 O2 2.365259 1_555
Mn1 O3 1.885712 1_555
Mn1 O16 1.931543 1_555
Mn1 O24 1.987388 1_555
Mn1 O8 1.989148 1_565
Mn1 O23 2.324492 1_555
Mn1 O25 2.365259 1_555
Mn2 O5 1.885712 1_556
Mn2 O7 1.931543 1_655
Mn2 O6 1.987388 1_556
Mn2 O1 1.989148 1_545
Mn2 O21 2.324492 1_656
Mn2 O27 2.365259 1_555
Mn3 O22 1.885712 1_555
Mn3 O20 1.931543 1_555
Mn3 O26 1.987388 1_555
Mn3 O23 1.989148 1_545
Mn3 O8 2.324492 1_555
Mn3 O19 2.365259 1_555
Mn4 O12 1.991849 1_445
Mn4 O14 1.991849 1_555
Mn4 O19 2.139661 1_455
Mn4 O25 2.139661 1_545
Mn4 O26 2.181153 1_455
Mn4 O24 2.181153 1_545
Mn5 O13 1.991849 1_555
Mn5 O0 1.991849 1_544
Mn5 O27 2.139661 1_554
Mn5 O2 2.139661 1_545
Mn5 O6 2.181153 1_555
Mn5 O15 2.181153 1_544
O0 P5 1.485971 1_555
O1 P5 1.541994 1_555
O2 P0 1.520005 1_555
O3 P0 1.517925 1_555
O4 P1 1.580699 1_555
O4 P6 1.605045 1_555
O5 P7 1.517925 1_555
O6 P3 1.539464 1_545
O7 P4 1.515692 1_555
O8 P1 1.541994 1_555
O9 P7 1.515692 1_555
O10 P4 1.517925 1_555
O11 P5 1.580699 1_555
O11 P4 1.605045 1_655
O12 P3 1.485971 1_555
O13 P2 1.485971 1_555
O14 P1 1.485971 1_555
O15 P1 1.539464 1_565
O16 P6 1.515692 1_555
O17 P2 1.580699 1_555
O17 P7 1.605045 1_455
O18 P3 1.580699 1_555
O18 P0 1.605045 1_555
O19 P7 1.520005 1_555
O20 P0 1.515692 1_555
O21 P2 1.541994 1_555
O22 P6 1.517925 1_555
O23 P3 1.541994 1_555
O24 P2 1.539464 1_565
O25 P4 1.520005 1_555
O26 P5 1.539464 1_545
O27 P6 1.520005 1_555
