# generated using pymatgen
data_VAgTeO5
_symmetry_space_group_name_H-M   'P 1'
_cell_length_a   11.54341700
_cell_length_b   5.94779300
_cell_length_c   6.90056348
_cell_angle_alpha   77.30619350
_cell_angle_beta   90.00000000
_cell_angle_gamma   90.00000000
_symmetry_Int_Tables_number   1
_chemical_formula_structural   VAgTeO5
_chemical_formula_sum   'V4 Ag4 Te4 O20'
_cell_volume   462.19795024
_cell_formula_units_Z   4
loop_
 _symmetry_equiv_pos_site_id
 _symmetry_equiv_pos_as_xyz
  1  'x, y, z'
loop_
 _atom_site_type_symbol
 _atom_site_label
 _atom_site_symmetry_multiplicity
 _atom_site_fract_x
 _atom_site_fract_y
 _atom_site_fract_z
 _atom_site_occupancy
  V  V0  1  0.12069500  0.32070300  0.41175500  1
  V  V1  1  0.87930500  0.67929700  0.58824500  1
  V  V2  1  0.37930500  0.32070300  0.91175500  1
  V  V3  1  0.62069500  0.67929700  0.08824500  1
  Ag  Ag0  1  0.79149800  0.19822900  0.30950600  1
  Ag  Ag1  1  0.70850200  0.19822900  0.80950600  1
  Ag  Ag2  1  0.20850200  0.80177100  0.69049400  1
  Ag  Ag3  1  0.29149800  0.80177100  0.19049400  1
  Te  Te0  1  0.93945700  0.75948700  0.09721500  1
  Te  Te1  1  0.43945700  0.24051300  0.40278500  1
  Te  Te2  1  0.56054300  0.75948700  0.59721500  1
  Te  Te3  1  0.06054300  0.24051300  0.90278500  1
  O  O0  1  0.90790700  0.12369900  0.98730300  1
  O  O1  1  0.29726400  0.53139700  0.96802400  1
  O  O2  1  0.20763800  0.13593500  0.32545500  1
  O  O3  1  0.79236200  0.86406500  0.67454500  1
  O  O4  1  0.48378700  0.43852100  0.72005100  1
  O  O5  1  0.54759100  0.83465900  0.85828000  1
  O  O6  1  0.70763800  0.86406500  0.17454500  1
  O  O7  1  0.45240900  0.16534100  0.14172000  1
  O  O8  1  0.59209300  0.12369900  0.48730300  1
  O  O9  1  0.20273600  0.53139700  0.46802400  1
  O  O10  1  0.70273600  0.46860300  0.03197600  1
  O  O11  1  0.79726400  0.46860300  0.53197600  1
  O  O12  1  0.01621300  0.43852100  0.22005100  1
  O  O13  1  0.51621300  0.56147900  0.27994900  1
  O  O14  1  0.09209300  0.87630100  0.01269700  1
  O  O15  1  0.40790700  0.87630100  0.51269700  1
  O  O16  1  0.95240900  0.83465900  0.35828000  1
  O  O17  1  0.29236200  0.13593500  0.82545500  1
  O  O18  1  0.04759100  0.16534100  0.64172000  1
  O  O19  1  0.98378700  0.56147900  0.77994900  1
loop_
_geom_bond_atom_site_label_1
_geom_bond_atom_site_label_2
_geom_bond_distance
_geom_bond_site_symmetry_2
Ag0 O10 2.439279 1_555
Ag0 O11 2.456058 1_555
Ag0 O6 2.562852 1_545
Ag0 O8 2.600215 1_555
Ag0 O0 2.716389 1_554
Ag0 O16 2.814202 1_545
Ag0 O3 2.845233 1_545
Ag1 O11 2.439279 1_555
Ag1 O10 2.456058 1_556
Ag1 O3 2.562852 1_545
Ag1 O0 2.600215 1_555
Ag1 O8 2.716389 1_555
Ag1 O5 2.814202 1_545
Ag1 O6 2.845233 1_546
Ag2 O1 2.439279 1_555
Ag2 O9 2.456058 1_555
Ag2 O17 2.562852 1_565
Ag2 O15 2.600215 1_555
Ag2 O14 2.716389 1_556
Ag2 O18 2.814202 1_565
Ag2 O2 2.845233 1_565
Ag3 O9 2.439279 1_555
Ag3 O1 2.456058 1_554
Ag3 O2 2.562852 1_565
Ag3 O14 2.600215 1_555
Ag3 O15 2.716389 1_555
Ag3 O7 2.814202 1_565
Ag3 O17 2.845233 1_564
O0 Te3 1.936292 1_655
O0 Te0 2.162982 1_546
O1 V2 1.682827 1_555
O2 V0 1.690335 1_555
O3 V1 1.690335 1_555
O4 V2 1.813356 1_555
O4 Te2 2.106373 1_555
O5 V3 1.854662 1_556
O5 Te2 1.954899 1_555
O6 V3 1.690335 1_555
O7 V2 1.854662 1_554
O7 Te1 1.954899 1_555
O8 Te1 1.936292 1_555
O8 Te2 2.162982 1_545
O9 V0 1.682827 1_555
O10 V3 1.682827 1_555
O11 V1 1.682827 1_555
O12 V0 1.813356 1_555
O12 Te0 2.106373 1_455
O13 V3 1.813356 1_555
O13 Te1 2.106373 1_555
O14 Te0 1.936292 1_455
O14 Te3 2.162982 1_564
O15 Te2 1.936292 1_555
O15 Te1 2.162982 1_565
O16 V1 1.854662 1_555
O16 Te0 1.954899 1_555
O17 V2 1.690335 1_555
O18 V0 1.854662 1_555
O18 Te3 1.954899 1_555
O19 V1 1.813356 1_555
O19 Te3 2.106373 1_655
