# generated using pymatgen
data_RbCuPO4
_symmetry_space_group_name_H-M   'P 1'
_cell_length_a   5.31324900
_cell_length_b   9.06370100
_cell_length_c   9.38145800
_cell_angle_alpha   90.00000000
_cell_angle_beta   90.00000000
_cell_angle_gamma   90.00000000
_symmetry_Int_Tables_number   1
_chemical_formula_structural   RbCuPO4
_chemical_formula_sum   'Rb4 Cu4 P4 O16'
_cell_volume   451.78944250
_cell_formula_units_Z   4
loop_
 _symmetry_equiv_pos_site_id
 _symmetry_equiv_pos_as_xyz
  1  'x, y, z'
loop_
 _atom_site_type_symbol
 _atom_site_label
 _atom_site_symmetry_multiplicity
 _atom_site_fract_x
 _atom_site_fract_y
 _atom_site_fract_z
 _atom_site_occupancy
  Rb  Rb0  1  0.50995600  0.30492500  0.51227600  1
  Rb  Rb1  1  0.00995600  0.80492500  0.98772400  1
  Rb  Rb2  1  0.00995600  0.69507500  0.48772400  1
  Rb  Rb3  1  0.50995600  0.19507500  0.01227600  1
  Cu  Cu0  1  0.52954200  0.58547900  0.16816200  1
  Cu  Cu1  1  0.02954200  0.41452100  0.83183800  1
  Cu  Cu2  1  0.52954200  0.91452100  0.66816200  1
  Cu  Cu3  1  0.02954200  0.08547900  0.33183800  1
  P  P0  1  0.51893700  0.59144500  0.80884200  1
  P  P1  1  0.01893700  0.40855500  0.19115800  1
  P  P2  1  0.01893700  0.09144500  0.69115800  1
  P  P3  1  0.51893700  0.90855500  0.30884200  1
  O  O0  1  0.17280400  0.55268400  0.21093500  1
  O  O1  1  0.17280400  0.94731600  0.71093500  1
  O  O2  1  0.49305000  0.86302300  0.46699500  1
  O  O3  1  0.15402400  0.21792800  0.76943600  1
  O  O4  1  0.49305000  0.63697700  0.96699500  1
  O  O5  1  0.75396900  0.06142300  0.75679800  1
  O  O6  1  0.67280400  0.05268400  0.28906500  1
  O  O7  1  0.67280400  0.44731600  0.78906500  1
  O  O8  1  0.65402400  0.78207200  0.23056400  1
  O  O9  1  0.75396900  0.43857700  0.25679800  1
  O  O10  1  0.25396900  0.56142300  0.74320200  1
  O  O11  1  0.15402400  0.28207200  0.26943600  1
  O  O12  1  0.25396900  0.93857700  0.24320200  1
  O  O13  1  0.99305000  0.13697700  0.53300500  1
  O  O14  1  0.65402400  0.71792800  0.73056400  1
  O  O15  1  0.99305000  0.36302300  0.03300500  1
loop_
_geom_bond_atom_site_label_1
_geom_bond_atom_site_label_2
_geom_bond_distance
_geom_bond_site_symmetry_2
Cu0 O4 1.953749 1_554
Cu0 O0 1.960117 1_555
Cu0 O9 1.971340 1_555
Cu0 O8 1.988768 1_555
Cu1 O15 1.953749 1_456
Cu1 O7 1.960117 1_455
Cu1 O10 1.971340 1_555
Cu1 O3 1.988768 1_555
Cu2 O2 1.953749 1_555
Cu2 O1 1.960117 1_555
Cu2 O5 1.971340 1_565
Cu2 O14 1.988768 1_555
Cu3 O13 1.953749 1_455
Cu3 O6 1.960117 1_455
Cu3 O12 1.971340 1_545
Cu3 O11 1.988768 1_555
O0 P1 1.552197 1_555
O0 Rb2 3.026062 1_555
O0 Rb1 3.218783 1_554
O1 P2 1.552197 1_565
O1 Rb1 3.026062 1_555
O1 Rb2 3.218783 1_555
O2 P3 1.546161 1_555
O2 Rb2 2.990562 1_555
O2 Rb2 3.146108 1_655
O3 P2 1.539057 1_555
O3 Rb3 2.968086 1_556
O3 Rb0 3.165210 1_555
O4 P0 1.546161 1_555
O4 Rb1 2.990562 1_555
O4 Rb1 3.146108 1_655
O5 P2 1.560535 1_655
O5 Rb3 2.982080 1_556
O5 Rb0 3.437180 1_555
O5 Rb1 3.456604 1_645
O6 P3 1.552197 1_545
O6 Rb3 3.026062 1_555
O6 Rb0 3.218783 1_555
O7 P0 1.552197 1_555
O7 Rb0 3.026062 1_555
O7 Rb3 3.218783 1_556
O8 P3 1.539057 1_555
O8 Rb1 2.968086 1_654
O8 Rb2 3.165210 1_655
O9 P1 1.560535 1_655
O9 Rb0 2.982080 1_555
O9 Rb3 3.437180 1_555
O9 Rb2 3.456604 1_655
O10 P0 1.560535 1_555
O10 Rb2 2.982080 1_555
O10 Rb1 3.437180 1_555
O10 Rb0 3.456604 1_555
O11 P1 1.539057 1_555
O11 Rb0 2.968086 1_555
O11 Rb3 3.165210 1_555
O12 P3 1.560535 1_555
O12 Rb1 2.982080 1_554
O12 Rb2 3.437180 1_555
O12 Rb3 3.456604 1_565
O13 P2 1.546161 1_655
O13 Rb0 2.990562 1_555
O13 Rb0 3.146108 1_655
O14 P0 1.539057 1_555
O14 Rb2 2.968086 1_655
O14 Rb1 3.165210 1_655
O15 P1 1.546161 1_655
O15 Rb3 2.990562 1_555
O15 Rb3 3.146108 1_655
