# generated using pymatgen
data_K5(AsPb)3
_symmetry_space_group_name_H-M   'P 1'
_cell_length_a   6.60768526
_cell_length_b   12.25539267
_cell_length_c   19.57650566
_cell_angle_alpha   90.00000000
_cell_angle_beta   90.00000000
_cell_angle_gamma   90.00000000
_symmetry_Int_Tables_number   1
_chemical_formula_structural   K5(AsPb)3
_chemical_formula_sum   'K20 As12 Pb12'
_cell_volume   1585.30107260
_cell_formula_units_Z   4
loop_
 _symmetry_equiv_pos_site_id
 _symmetry_equiv_pos_as_xyz
  1  'x, y, z'
loop_
 _atom_site_type_symbol
 _atom_site_label
 _atom_site_symmetry_multiplicity
 _atom_site_fract_x
 _atom_site_fract_y
 _atom_site_fract_z
 _atom_site_occupancy
  K  K0  1  0.77119585  0.54497148  0.32101537  1
  K  K1  1  0.26047215  0.75000000  0.87759199  1
  K  K2  1  0.45275296  0.75000000  0.60119551  1
  K  K3  1  0.76047215  0.25000000  0.62240801  1
  K  K4  1  0.23952785  0.75000000  0.37759199  1
  K  K5  1  0.54724704  0.25000000  0.39880449  1
  K  K6  1  0.27119585  0.45502852  0.17898463  1
  K  K7  1  0.04724704  0.75000000  0.10119551  1
  K  K8  1  0.77119585  0.95502852  0.32101537  1
  K  K9  1  0.72880415  0.95502852  0.82101537  1
  K  K10  1  0.27119585  0.04497148  0.17898463  1
  K  K11  1  0.72880415  0.54497148  0.82101537  1
  K  K12  1  -0.00000000  0.00000000  -0.00000000  1
  K  K13  1  0.22880415  0.45502852  0.67898463  1
  K  K14  1  0.22880415  0.04497148  0.67898463  1
  K  K15  1  0.50000000  0.00000000  0.50000000  1
  K  K16  1  0.95275296  0.25000000  0.89880449  1
  K  K17  1  0.73952785  0.25000000  0.12240801  1
  K  K18  1  0.50000000  0.50000000  0.50000000  1
  K  K19  1  -0.00000000  0.50000000  -0.00000000  1
  As  As0  1  0.74115550  0.75000000  0.45571011  1
  As  As1  1  0.75884450  0.75000000  0.95571011  1
  As  As2  1  0.23478767  0.44561763  0.84777576  1
  As  As3  1  0.76521233  0.94561763  0.15222424  1
  As  As4  1  0.26521233  0.05438237  0.34777576  1
  As  As5  1  0.73478767  0.55438237  0.65222424  1
  As  As6  1  0.73478767  0.94561763  0.65222424  1
  As  As7  1  0.23478767  0.05438237  0.84777576  1
  As  As8  1  0.25884450  0.25000000  0.54428989  1
  As  As9  1  0.26521233  0.44561763  0.34777576  1
  As  As10  1  0.76521233  0.55438237  0.15222424  1
  As  As11  1  0.24115550  0.25000000  0.04428989  1
  Pb  Pb0  1  0.97871170  0.88188303  0.54383539  1
  Pb  Pb1  1  0.02128830  0.11811697  0.45616461  1
  Pb  Pb2  1  0.93908758  0.75000000  0.69314206  1
  Pb  Pb3  1  0.56091242  0.75000000  0.19314206  1
  Pb  Pb4  1  0.97871170  0.61811697  0.54383539  1
  Pb  Pb5  1  0.06091242  0.25000000  0.30685794  1
  Pb  Pb6  1  0.02128830  0.38188303  0.45616461  1
  Pb  Pb7  1  0.52128830  0.88188303  0.04383539  1
  Pb  Pb8  1  0.47871170  0.38188303  0.95616461  1
  Pb  Pb9  1  0.47871170  0.11811697  0.95616461  1
  Pb  Pb10  1  0.52128830  0.61811697  0.04383539  1
  Pb  Pb11  1  0.43908758  0.25000000  0.80685794  1
loop_
_geom_bond_atom_site_label_1
_geom_bond_atom_site_label_2
_geom_bond_distance
_geom_bond_site_symmetry_2
K0 Pb6 3.704822 1_655
K0 Pb3 3.809322 1_555
K0 Pb5 4.099968 1_655
K1 Pb10 4.021688 1_556
K1 Pb7 4.021688 1_556
K1 Pb2 4.189057 1_455
K2 Pb2 3.683321 1_555
K2 Pb4 3.699282 1_455
K2 Pb0 3.699282 1_455
K2 Pb2 3.841894 1_455
K2 Pb4 3.993930 1_555
K2 Pb0 3.993930 1_555
K3 Pb1 4.021688 1_655
K3 Pb6 4.021688 1_655
K3 Pb11 4.189057 1_555
K4 Pb0 4.021688 1_455
K4 Pb4 4.021688 1_455
K4 Pb3 4.189057 1_555
K5 Pb5 3.683321 1_555
K5 Pb1 3.699282 1_655
K5 Pb6 3.699282 1_655
K5 Pb5 3.841894 1_655
K5 Pb1 3.993930 1_555
K5 Pb6 3.993930 1_555
K6 Pb10 3.704822 1_555
K6 Pb5 3.809322 1_555
K6 Pb3 4.099968 1_555
K7 Pb3 3.683321 1_455
K7 Pb7 3.699282 1_555
K7 Pb10 3.699282 1_555
K7 Pb3 3.841894 1_555
K7 Pb10 3.993930 1_455
K7 Pb7 3.993930 1_455
K8 Pb1 3.704822 1_665
K8 Pb3 3.809322 1_555
K8 Pb5 4.099968 1_665
K9 Pb9 3.704822 1_565
K9 Pb2 3.809322 1_555
K9 Pb11 4.099968 1_565
K10 Pb7 3.704822 1_545
K10 Pb5 3.809322 1_555
K10 Pb3 4.099968 1_545
K11 Pb8 3.704822 1_555
K11 Pb2 3.809322 1_555
K11 Pb11 4.099968 1_555
K12 Pb9 3.582953 1_554
K12 Pb7 3.582953 1_445
K12 Pb7 3.833603 1_545
K12 Pb9 3.833603 1_454
K13 Pb4 3.704822 1_455
K13 Pb11 3.809322 1_555
K13 Pb2 4.099968 1_455
K14 Pb0 3.704822 1_445
K14 Pb11 3.809322 1_555
K14 Pb2 4.099968 1_445
K15 Pb0 3.582953 1_545
K15 Pb1 3.582953 1_555
K15 Pb1 3.833603 1_655
K15 Pb0 3.833603 1_445
K16 Pb11 3.683321 1_655
K16 Pb8 3.699282 1_555
K16 Pb9 3.699282 1_555
K16 Pb11 3.841894 1_555
K16 Pb9 3.993930 1_655
K16 Pb8 3.993930 1_655
K17 Pb9 4.021688 1_554
K17 Pb8 4.021688 1_554
K17 Pb5 4.189057 1_655
K18 Pb6 3.582953 1_555
K18 Pb4 3.582953 1_555
K18 Pb6 3.833603 1_655
K18 Pb4 3.833603 1_455
K19 Pb8 3.582953 1_554
K19 Pb10 3.582953 1_455
K19 Pb10 3.833603 1_555
K19 Pb8 3.833603 1_454
As0 Pb4 2.837704 1_555
As0 Pb0 2.837704 1_555
As0 K2 3.426841 1_555
As0 K18 3.560632 1_555
As0 K15 3.560632 1_565
As0 K4 3.630857 1_655
As0 K0 3.647750 1_555
As0 K8 3.647750 1_555
As0 K4 3.650377 1_555
As1 Pb10 2.837704 1_556
As1 Pb7 2.837704 1_556
As1 K7 3.426841 1_656
As1 K12 3.560632 1_666
As1 K19 3.560632 1_656
As1 K1 3.630857 1_555
As1 K11 3.647750 1_555
As1 K9 3.647750 1_555
As1 K1 3.650377 1_655
As2 Pb8 2.776738 1_555
As2 Pb11 2.865553 1_555
As2 K16 3.196609 1_455
As2 K13 3.306589 1_555
As2 K19 3.425136 1_556
As2 K11 3.523171 1_555
As2 K11 3.596559 1_455
As2 K1 3.779528 1_555
As3 Pb7 2.776738 1_555
As3 Pb3 2.865553 1_555
As3 K7 3.196609 1_655
As3 K8 3.306589 1_555
As3 K12 3.425136 1_665
As3 K10 3.523171 1_565
As3 K10 3.596559 1_665
As3 K17 3.779528 1_565
As4 Pb1 2.776738 1_555
As4 Pb5 2.865553 1_555
As4 K5 3.196609 1_555
As4 K10 3.306589 1_555
As4 K15 3.425136 1_555
As4 K8 3.523171 1_445
As4 K8 3.596559 1_545
As4 K4 3.779528 1_545
As5 Pb4 2.776738 1_555
As5 Pb2 2.865553 1_555
As5 K2 3.196609 1_555
As5 K11 3.306589 1_555
As5 K18 3.425136 1_555
As5 K13 3.523171 1_655
As5 K13 3.596559 1_555
As5 K3 3.779528 1_555
As6 Pb0 2.776738 1_555
As6 Pb2 2.865553 1_555
As6 K2 3.196609 1_555
As6 K9 3.306589 1_555
As6 K15 3.425136 1_565
As6 K14 3.523171 1_665
As6 K14 3.596559 1_565
As6 K3 3.779528 1_565
As7 Pb9 2.776738 1_555
As7 Pb11 2.865553 1_555
As7 K16 3.196609 1_455
As7 K14 3.306589 1_555
As7 K12 3.425136 1_556
As7 K9 3.523171 1_545
As7 K9 3.596559 1_445
As7 K1 3.779528 1_545
As8 Pb1 2.837704 1_555
As8 Pb6 2.837704 1_555
As8 K5 3.426841 1_555
As8 K15 3.560632 1_555
As8 K18 3.560632 1_555
As8 K3 3.630857 1_455
As8 K14 3.647750 1_555
As8 K13 3.647750 1_555
As8 K3 3.650377 1_555
As9 Pb6 2.776738 1_555
As9 Pb5 2.865553 1_555
As9 K5 3.196609 1_555
As9 K6 3.306589 1_555
As9 K18 3.425136 1_555
As9 K0 3.523171 1_455
As9 K0 3.596559 1_555
As9 K4 3.779528 1_555
As10 Pb10 2.776738 1_555
As10 Pb3 2.865553 1_555
As10 K7 3.196609 1_655
As10 K0 3.306589 1_555
As10 K19 3.425136 1_655
As10 K6 3.523171 1_555
As10 K6 3.596559 1_655
As10 K17 3.779528 1_555
As11 Pb9 2.837704 1_554
As11 Pb8 2.837704 1_554
As11 K16 3.426841 1_454
As11 K12 3.560632 1_555
As11 K19 3.560632 1_555
As11 K17 3.630857 1_555
As11 K10 3.647750 1_555
As11 K6 3.647750 1_555
As11 K17 3.650377 1_455
Pb0 Pb4 3.232557 1_555
Pb0 Pb2 3.350264 1_555
Pb0 Pb1 3.377370 1_665
Pb1 Pb6 3.232557 1_555
Pb1 Pb5 3.350264 1_555
Pb2 Pb4 3.350264 1_555
Pb3 Pb7 3.350264 1_555
Pb4 Pb6 3.377370 1_655
Pb5 Pb6 3.350264 1_555
Pb7 Pb9 3.377370 1_564
Pb8 Pb9 3.232557 1_555
Pb10 Pb7 3.232557 1_555
Pb10 Pb3 3.350264 1_555
Pb10 Pb8 3.377370 1_554
Pb11 Pb8 3.350264 1_555
Pb11 Pb9 3.350264 1_555
