# generated using pymatgen
data_YInNi
_symmetry_space_group_name_H-M   'P 1'
_cell_length_a   7.44407749
_cell_length_b   7.44407749
_cell_length_c   3.75720303
_cell_angle_alpha   90.00000000
_cell_angle_beta   90.00000000
_cell_angle_gamma   119.99999990
_symmetry_Int_Tables_number   1
_chemical_formula_structural   YInNi
_chemical_formula_sum   'Y3 In3 Ni3'
_cell_volume   180.30885958
_cell_formula_units_Z   3
loop_
 _symmetry_equiv_pos_site_id
 _symmetry_equiv_pos_as_xyz
  1  'x, y, z'
loop_
 _atom_site_type_symbol
 _atom_site_label
 _atom_site_symmetry_multiplicity
 _atom_site_fract_x
 _atom_site_fract_y
 _atom_site_fract_z
 _atom_site_occupancy
  Y  Y0  1  0.00000000  0.58919096  0.50000000  1
  Y  Y1  1  0.58919096  0.00000000  0.50000000  1
  Y  Y2  1  0.41080904  0.41080904  0.50000000  1
  In  In0  1  -0.00000000  0.25414556  0.00000000  1
  In  In1  1  0.25414556  -0.00000000  -0.00000000  1
  In  In2  1  0.74585444  0.74585444  0.00000000  1
  Ni  Ni0  1  0.00000000  0.00000000  0.50000000  1
  Ni  Ni1  1  0.66666700  0.33333300  -0.00000000  1
  Ni  Ni2  1  0.33333300  0.66666700  -0.00000000  1
loop_
_geom_bond_atom_site_label_1
_geom_bond_atom_site_label_2
_geom_bond_distance
_geom_bond_site_symmetry_2
In0 Ni0 2.666149 1_555
In0 Ni0 2.666149 1_554
In0 Ni1 2.822644 1_455
In0 Ni2 2.822649 1_555
In0 Y0 3.122451 1_554
In0 Y0 3.122451 1_555
In0 Y2 3.267223 1_555
In0 Y2 3.267223 1_554
In0 Y1 3.267223 1_454
In0 Y1 3.267223 1_455
In1 Ni0 2.666149 1_555
In1 Ni0 2.666149 1_554
In1 Ni2 2.822644 1_545
In1 Ni1 2.822649 1_555
In1 Y1 3.122451 1_554
In1 Y1 3.122451 1_555
In1 Y2 3.267223 1_555
In1 Y2 3.267223 1_554
In1 Y0 3.267223 1_545
In1 Y0 3.267223 1_544
In2 Ni0 2.666149 1_665
In2 Ni0 2.666149 1_664
In2 Ni2 2.822651 1_555
In2 Ni1 2.822651 1_555
In2 Y2 3.122451 1_554
In2 Y2 3.122451 1_555
In2 Y0 3.267223 1_655
In2 Y1 3.267223 1_565
In2 Y0 3.267223 1_654
In2 Y1 3.267223 1_564
Ni0 Y1 3.058094 1_455
Ni0 Y0 3.058094 1_545
Ni0 Y2 3.058094 1_555
Ni1 Y1 2.930496 1_555
Ni1 Y1 2.930496 1_554
Ni1 Y0 2.930498 1_654
Ni1 Y0 2.930498 1_655
Ni1 Y2 2.930502 1_554
Ni1 Y2 2.930502 1_555
Ni2 Y0 2.930496 1_554
Ni2 Y0 2.930496 1_555
Ni2 Y1 2.930498 1_565
Ni2 Y1 2.930498 1_564
Ni2 Y2 2.930502 1_555
Ni2 Y2 2.930502 1_554
