# generated using pymatgen
data_GdMn4(CuO4)3
_symmetry_space_group_name_H-M   'P 1'
_cell_length_a   6.37845948
_cell_length_b   6.45760973
_cell_length_c   6.45219118
_cell_angle_alpha   111.00517648
_cell_angle_beta   110.61174575
_cell_angle_gamma   107.00825482
_symmetry_Int_Tables_number   1
_chemical_formula_structural   GdMn4(CuO4)3
_chemical_formula_sum   'Gd1 Mn4 Cu3 O12'
_cell_volume   203.82505321
_cell_formula_units_Z   1
loop_
 _symmetry_equiv_pos_site_id
 _symmetry_equiv_pos_as_xyz
  1  'x, y, z'
loop_
 _atom_site_type_symbol
 _atom_site_label
 _atom_site_symmetry_multiplicity
 _atom_site_fract_x
 _atom_site_fract_y
 _atom_site_fract_z
 _atom_site_occupancy
  Gd  Gd0  1  0.00000100  0.99998700  0.99998400  1
  Mn  Mn0  1  0.00001900  0.00003300  0.50003200  1
  Mn  Mn1  1  0.50001300  0.00001600  0.00000100  1
  Mn  Mn2  1  0.50002700  0.50000100  0.50000600  1
  Mn  Mn3  1  0.99997100  0.50000400  0.00001600  1
  Cu  Cu0  1  0.49999400  0.00000800  0.50000400  1
  Cu  Cu1  1  0.50001300  0.50000300  0.00001700  1
  Cu  Cu2  1  0.00000100  0.50001000  0.50002000  1
  O  O0  1  0.53082800  0.83439800  0.70277200  1
  O  O1  1  0.17980400  0.31314000  0.48000700  1
  O  O2  1  0.82020900  0.68687400  0.51998600  1
  O  O3  1  0.69464600  0.87311300  0.17103700  1
  O  O4  1  0.30263600  0.47445100  0.17755600  1
  O  O5  1  0.13053200  0.83273500  0.30154100  1
  O  O6  1  0.69738900  0.52556300  0.82248400  1
  O  O7  1  0.30535500  0.12687400  0.82894800  1
  O  O8  1  0.18873900  0.70918000  0.86479700  1
  O  O9  1  0.81118000  0.29073600  0.13512600  1
  O  O10  1  0.86947500  0.16729800  0.69847300  1
  O  O11  1  0.46916800  0.16557500  0.29719300  1
loop_
_geom_bond_atom_site_label_1
_geom_bond_atom_site_label_2
_geom_bond_distance
_geom_bond_site_symmetry_2
Gd0 O11 2.528580 1_566
Gd0 O0 2.528613 1_455
Gd0 O5 2.556856 1_556
Gd0 O10 2.556914 1_465
Gd0 O8 2.573765 1_555
Gd0 O9 2.573840 1_466
Gd0 O2 2.578498 1_455
Gd0 O1 2.578664 1_566
Gd0 O6 2.625252 1_455
Gd0 O4 2.625381 1_566
Gd0 O7 2.628811 1_565
Gd0 O3 2.628883 1_456
Mn0 O10 1.945436 1_455
Mn0 O5 1.945565 1_545
Mn0 O7 1.969345 1_555
Mn0 O3 1.969624 1_445
Mn0 O1 2.086878 1_555
Mn0 O2 2.086927 1_445
Mn1 O9 1.911098 1_555
Mn1 O8 1.911754 1_544
Mn1 O7 1.925926 1_554
Mn1 O3 1.926019 1_545
Mn1 O11 1.943616 1_555
Mn1 O0 1.943782 1_544
Mn2 O4 1.931075 1_555
Mn2 O6 1.931139 1_555
Mn2 O2 1.976120 1_555
Mn2 O1 1.976252 1_555
Mn2 O0 1.989659 1_555
Mn2 O11 1.989717 1_555
Mn3 O6 1.956946 1_554
Mn3 O4 1.957363 1_655
Mn3 O5 1.977589 1_655
Mn3 O10 1.977643 1_554
Mn3 O9 2.160533 1_555
Mn3 O8 2.160676 1_654
Cu0 O5 1.937684 1_545
Cu0 O10 1.937781 1_555
Cu0 O0 1.959332 1_545
Cu0 O11 1.959334 1_555
Cu1 O3 1.985860 1_555
Cu1 O7 1.985943 1_554
Cu1 O6 1.988377 1_554
Cu1 O4 1.988409 1_555
Cu2 O8 1.894181 1_555
Cu2 O2 1.894727 1_455
Cu2 O9 1.894807 1_455
Cu2 O1 1.894830 1_555
