# generated using pymatgen
data_KNa6Al7Si9O32
_symmetry_space_group_name_H-M   'P 1'
_cell_length_a   8.52945600
_cell_length_b   10.12693113
_cell_length_c   10.14619448
_cell_angle_alpha   119.67393343
_cell_angle_beta   90.73349473
_cell_angle_gamma   90.61328497
_symmetry_Int_Tables_number   1
_chemical_formula_structural   KNa6Al7Si9O32
_chemical_formula_sum   'K1 Na6 Al7 Si9 O32'
_cell_volume   761.25724807
_cell_formula_units_Z   1
loop_
 _symmetry_equiv_pos_site_id
 _symmetry_equiv_pos_as_xyz
  1  'x, y, z'
loop_
 _atom_site_type_symbol
 _atom_site_label
 _atom_site_symmetry_multiplicity
 _atom_site_fract_x
 _atom_site_fract_y
 _atom_site_fract_z
 _atom_site_occupancy
  K  K0  1  0.46800100  0.01107400  0.00814100  1
  Na  Na0  1  0.50158000  0.43975700  0.42787800  1
  Na  Na1  1  0.48765800  0.57920300  0.04054200  1
  Na  Na2  1  0.00970400  0.46178700  0.02263200  1
  Na  Na3  1  0.98624700  0.98497900  0.45286800  1
  Na  Na4  1  0.50870700  0.97505100  0.54638300  1
  Na  Na5  1  0.99998400  0.58021400  0.55513200  1
  Al  Al0  1  0.68811400  0.10824000  0.34696600  1
  Al  Al1  1  0.15264500  0.33742700  0.66752300  1
  Al  Al2  1  0.18243200  0.77119000  0.08937000  1
  Al  Al3  1  0.72843500  0.65266900  0.32920900  1
  Al  Al4  1  0.18304100  0.31662400  0.22512600  1
  Al  Al5  1  0.18378400  0.91774600  0.67572400  1
  Al  Al6  1  0.80434300  0.90545800  0.67880200  1
  Si  Si0  1  0.30945400  0.11108300  0.35225700  1
  Si  Si1  1  0.31631000  0.65541400  0.76020200  1
  Si  Si2  1  0.68743300  0.64597800  0.76441200  1
  Si  Si3  1  0.85785800  0.32976100  0.67086100  1
  Si  Si4  1  0.81070700  0.76717300  0.09246200  1
  Si  Si5  1  0.32166400  0.24562800  0.88815400  1
  Si  Si6  1  0.68879100  0.23933300  0.89441600  1
  Si  Si7  1  0.24618000  0.66935300  0.33736400  1
  Si  Si8  1  0.82119100  0.32038700  0.22930700  1
  O  O0  1  0.31735000  0.24418200  0.30442900  1
  O  O1  1  0.68589900  0.24129700  0.28161600  1
  O  O2  1  0.49147800  0.07235300  0.37450500  1
  O  O3  1  0.50247800  0.61743700  0.70209800  1
  O  O4  1  0.21318500  0.50032600  0.65786900  1
  O  O5  1  0.77211100  0.48018100  0.67423200  1
  O  O6  1  0.78785100  0.17689000  0.52208900  1
  O  O7  1  0.21438700  0.16833200  0.50982300  1
  O  O8  1  0.31836500  0.71024300  0.94124900  1
  O  O9  1  0.68056000  0.71205100  0.94880500  1
  O  O10  1  0.79063100  0.32915300  0.82543700  1
  O  O11  1  0.98686400  0.73052600  0.02563900  1
  O  O12  1  0.23004600  0.35523000  0.83870500  1
  O  O13  1  0.22225300  0.96013900  0.21717000  1
  O  O14  1  0.78220200  0.94267800  0.21540500  1
  O  O15  1  0.32490600  0.06841900  0.75542000  1
  O  O16  1  0.67496300  0.05723900  0.78843800  1
  O  O17  1  0.77186800  0.65405700  0.16061200  1
  O  O18  1  0.50911300  0.30855000  0.92462800  1
  O  O19  1  0.21892900  0.65232300  0.17020400  1
  O  O20  1  0.24646700  0.26523100  0.04273200  1
  O  O21  1  0.77569200  0.29210700  0.05797300  1
  O  O22  1  0.53040400  0.57094200  0.28926000  1
  O  O23  1  0.43576200  0.70503800  0.39348500  1
  O  O24  1  0.74632300  0.83007400  0.48763400  1
  O  O25  1  0.18208800  0.82746300  0.47231000  1
  O  O26  1  0.18280100  0.51825800  0.33771400  1
  O  O27  1  0.82541500  0.50575400  0.34220400  1
  O  O28  1  0.99270800  0.25484200  0.22929500  1
  O  O29  1  0.99362100  0.97574900  0.70798900  1
  O  O30  1  0.78098700  0.75873000  0.72434500  1
  O  O31  1  0.25002900  0.78767500  0.73096000  1
loop_
_geom_bond_atom_site_label_1
_geom_bond_atom_site_label_2
_geom_bond_distance
_geom_bond_site_symmetry_2
K0 O8 3.036130 1_544
K0 O0 3.065680 1_555
K0 O16 3.069007 1_554
K0 O20 3.089485 1_555
K0 O15 3.132290 1_554
K0 O1 3.155778 1_555
K0 O31 3.156013 1_544
K0 O13 3.214269 1_545
K0 O9 3.340624 1_544
Na0 O0 2.321098 1_555
Na0 O22 2.378093 1_555
Na0 O1 2.426404 1_555
Na0 O3 2.453799 1_555
Na1 O18 2.398681 1_554
Na1 O8 2.487674 1_554
Na1 O9 2.571994 1_554
Na1 O19 2.584923 1_555
Na1 O22 2.587338 1_555
Na1 O17 2.627924 1_555
Na2 O19 2.479323 1_555
Na2 O12 2.513655 1_554
Na2 O10 2.547252 1_454
Na2 O17 2.706417 1_455
Na2 O11 2.715648 1_455
Na2 O21 2.760477 1_455
Na2 O20 2.925641 1_555
Na3 O25 2.394553 1_655
Na3 O6 2.425545 1_565
Na3 O7 2.529758 1_665
Na3 O29 2.636017 1_555
Na3 O24 2.696437 1_555
Na3 O14 2.805741 1_555
Na4 O2 2.394104 1_565
Na4 O24 2.417978 1_555
Na4 O15 2.445687 1_565
Na4 O23 2.451425 1_555
Na4 O16 2.568452 1_565
Na5 O27 2.394503 1_555
Na5 O4 2.421970 1_655
Na5 O26 2.535756 1_655
Na5 O30 2.605042 1_555
Na5 O5 2.737562 1_555
Na5 O31 2.870679 1_655
Al0 O14 1.754204 1_545
Al0 O6 1.757756 1_555
Al0 O2 1.767099 1_555
Al0 O1 1.772141 1_555
Al1 O7 1.760070 1_555
Al1 O4 1.772199 1_555
Al1 O12 1.772861 1_555
Al2 O13 1.725187 1_555
Al2 O11 1.750501 1_455
Al2 O8 1.767865 1_554
Al2 O19 1.788186 1_555
Al3 O24 1.721409 1_555
Al3 O17 1.761696 1_555
Al3 O27 1.770013 1_555
Al3 O22 1.822833 1_555
Al4 O28 1.742127 1_455
Al4 O20 1.751084 1_555
Al4 O0 1.754086 1_555
Al4 O26 1.779054 1_555
Al5 O29 1.710742 1_455
Al5 O31 1.762717 1_555
Al5 O15 1.773439 1_565
Al5 O25 1.796198 1_555
Al6 O29 1.719085 1_555
Al6 O24 1.758147 1_555
Al6 O30 1.771153 1_555
Al6 O16 1.786787 1_565
O0 Si0 1.644185 1_555
O1 Si8 1.634507 1_555
O2 Si0 1.645288 1_555
O3 Si2 1.660048 1_555
O3 Si1 1.682104 1_555
O4 Si1 1.628146 1_555
O5 Si2 1.643082 1_555
O5 Si3 1.682083 1_555
O6 Si3 1.635569 1_555
O7 Si0 1.635544 1_555
O8 Si1 1.634634 1_555
O9 Si2 1.647889 1_555
O9 Si4 1.675741 1_556
O10 Si6 1.643382 1_555
O10 Si3 1.679612 1_555
O11 Si4 1.625999 1_555
O12 Si5 1.629185 1_555
O13 Si0 1.625895 1_565
O14 Si4 1.611174 1_555
O15 Si5 1.626053 1_555
O16 Si6 1.612287 1_555
O17 Si4 1.637706 1_555
O18 Si6 1.660213 1_555
O18 Si5 1.681911 1_555
O19 Si7 1.630874 1_555
O20 Si5 1.621975 1_554
O21 Si6 1.634258 1_554
O21 Si8 1.655907 1_555
O22 O23 1.495824 1_555
O23 Si7 1.682198 1_555
O25 Si7 1.613850 1_555
O26 Si7 1.619032 1_555
O27 Si8 1.644910 1_555
O28 Si8 1.612921 1_555
O30 Si2 1.598185 1_555
O31 Si1 1.614624 1_555
