# generated using pymatgen
data_Yb(BiTe2)2
_symmetry_space_group_name_H-M   'P 1'
_cell_length_a   8.44923423
_cell_length_b   8.44923423
_cell_length_c   8.44923423
_cell_angle_alpha   108.72246006
_cell_angle_beta   108.72246006
_cell_angle_gamma   110.97934983
_symmetry_Int_Tables_number   1
_chemical_formula_structural   Yb(BiTe2)2
_chemical_formula_sum   'Yb2 Bi4 Te8'
_cell_volume   464.09165130
_cell_formula_units_Z   2
loop_
 _symmetry_equiv_pos_site_id
 _symmetry_equiv_pos_as_xyz
  1  'x, y, z'
loop_
 _atom_site_type_symbol
 _atom_site_label
 _atom_site_symmetry_multiplicity
 _atom_site_fract_x
 _atom_site_fract_y
 _atom_site_fract_z
 _atom_site_occupancy
  Yb  Yb0  1  0.00000000  0.00000000  0.00000000  1
  Yb  Yb1  1  0.25000000  0.75000000  0.50000000  1
  Bi  Bi0  1  0.12500000  0.40192250  0.77692250  1
  Bi  Bi1  1  0.59807750  0.37500000  0.72307750  1
  Bi  Bi2  1  0.62500000  0.34807750  0.22307750  1
  Bi  Bi3  1  0.65192250  0.87500000  0.27692250  1
  Te  Te0  1  0.93186186  0.64097332  0.68006725  1
  Te  Te1  1  0.31813814  0.49820539  0.20911046  1
  Te  Te2  1  0.96090507  0.25179461  0.31993275  1
  Te  Te3  1  0.28909493  0.10902668  0.79088954  1
  Te  Te4  1  0.35902668  0.03909493  0.29088954  1
  Te  Te5  1  0.50179461  0.71090507  0.81993275  1
  Te  Te6  1  0.89097332  0.68186186  0.18006725  1
  Te  Te7  1  0.74820539  0.06813814  0.70911046  1
loop_
_geom_bond_atom_site_label_1
_geom_bond_atom_site_label_2
_geom_bond_distance
_geom_bond_site_symmetry_2
Bi0 Te5 3.127278 1_555
Bi0 Te7 3.127278 1_455
Bi0 Te1 3.158513 1_556
Bi0 Te0 3.158520 1_455
Bi0 Te2 3.255755 1_455
Bi0 Te3 3.255763 1_555
Bi1 Te0 3.127282 1_555
Bi1 Te3 3.127282 1_555
Bi1 Te4 3.158512 1_555
Bi1 Te5 3.158513 1_555
Bi1 Te7 3.255755 1_555
Bi1 Te6 3.255756 1_556
Bi2 Te6 3.127282 1_555
Bi2 Te4 3.127282 1_555
Bi2 Te3 3.158512 1_554
Bi2 Te2 3.158513 1_555
Bi2 Te1 3.255755 1_555
Bi2 Te0 3.255756 1_555
Bi3 Te2 3.127278 1_565
Bi3 Te1 3.127278 1_555
Bi3 Te7 3.158513 1_565
Bi3 Te6 3.158520 1_555
Bi3 Te5 3.255755 1_554
Bi3 Te4 3.255763 1_565
Te0 Yb0 3.054005 1_666
Te0 Yb1 3.484375 1_655
Te1 Yb1 3.054010 1_555
Te1 Yb0 3.484376 1_555
Te2 Yb0 3.054010 1_655
Te2 Yb1 3.484376 1_655
Te3 Yb1 3.054004 1_545
Te3 Yb0 3.484375 1_556
Te4 Yb0 3.054004 1_555
Te4 Yb1 3.484375 1_545
Te5 Yb1 3.054010 1_555
Te5 Yb0 3.484376 1_666
Te6 Yb1 3.054005 1_655
Te6 Yb0 3.484375 1_665
Te7 Yb0 3.054010 1_656
Te7 Yb1 3.484376 1_545
