# generated using pymatgen
data_Pb(ClO2)2
_symmetry_space_group_name_H-M   'P 1'
_cell_length_a   7.15446275
_cell_length_b   7.15446275
_cell_length_c   6.11338800
_cell_angle_alpha   90.00000000
_cell_angle_beta   90.00000000
_cell_angle_gamma   129.35804315
_symmetry_Int_Tables_number   1
_chemical_formula_structural   Pb(ClO2)2
_chemical_formula_sum   'Pb2 Cl4 O8'
_cell_volume   241.95067093
_cell_formula_units_Z   2
loop_
 _symmetry_equiv_pos_site_id
 _symmetry_equiv_pos_as_xyz
  1  'x, y, z'
loop_
 _atom_site_type_symbol
 _atom_site_label
 _atom_site_symmetry_multiplicity
 _atom_site_fract_x
 _atom_site_fract_y
 _atom_site_fract_z
 _atom_site_occupancy
  Pb  Pb0  1  0.50000000  0.50000000  0.50000000  1
  Pb  Pb1  1  0.00000000  0.00000000  0.00000000  1
  Cl  Cl0  1  0.82527000  0.17473000  0.50000000  1
  Cl  Cl1  1  0.32527000  0.67473000  0.00000000  1
  Cl  Cl2  1  0.67473000  0.32527000  0.00000000  1
  Cl  Cl3  1  0.17473000  0.82527000  0.50000000  1
  O  O0  1  0.25896200  0.04756200  0.65122300  1
  O  O1  1  0.95243800  0.74103800  0.34877700  1
  O  O2  1  0.75896200  0.54756200  0.84877700  1
  O  O3  1  0.24103800  0.45243800  0.84877700  1
  O  O4  1  0.54756200  0.75896200  0.15122300  1
  O  O5  1  0.04756200  0.25896200  0.34877700  1
  O  O6  1  0.74103800  0.95243800  0.65122300  1
  O  O7  1  0.45243800  0.24103800  0.15122300  1
loop_
_geom_bond_atom_site_label_1
_geom_bond_atom_site_label_2
_geom_bond_distance
_geom_bond_site_symmetry_2
Cl0 O6 1.591088 1_545
Cl0 O5 1.591088 1_655
Cl1 O3 1.591088 1_554
Cl1 O4 1.591088 1_555
Cl2 O7 1.591088 1_555
Cl2 O2 1.591088 1_554
Cl3 O1 1.591088 1_455
Cl3 O0 1.591088 1_565
O0 Pb0 2.688207 1_555
O0 Pb1 2.700947 1_556
O1 Pb0 2.688207 1_555
O1 Pb1 2.700947 1_665
O2 Pb1 2.688207 1_666
O2 Pb0 2.700947 1_555
O3 Pb1 2.688207 1_556
O3 Pb0 2.700947 1_555
O4 Pb1 2.688207 1_665
O4 Pb0 2.700947 1_555
O5 Pb0 2.688207 1_555
O5 Pb1 2.700947 1_555
O6 Pb0 2.688207 1_555
O6 Pb1 2.700947 1_666
O7 Pb1 2.688207 1_555
O7 Pb0 2.700947 1_555
