# generated using pymatgen
data_Eu(DySe2)2
_symmetry_space_group_name_H-M   'P 1'
_cell_length_a   4.11498191
_cell_length_b   12.48620530
_cell_length_c   14.86321491
_cell_angle_alpha   90.00000000
_cell_angle_beta   90.00000000
_cell_angle_gamma   90.00000000
_symmetry_Int_Tables_number   1
_chemical_formula_structural   Eu(DySe2)2
_chemical_formula_sum   'Eu4 Dy8 Se16'
_cell_volume   763.67954647
_cell_formula_units_Z   4
loop_
 _symmetry_equiv_pos_site_id
 _symmetry_equiv_pos_as_xyz
  1  'x, y, z'
loop_
 _atom_site_type_symbol
 _atom_site_label
 _atom_site_symmetry_multiplicity
 _atom_site_fract_x
 _atom_site_fract_y
 _atom_site_fract_z
 _atom_site_occupancy
  Eu  Eu0  1  0.25000000  0.75785774  0.33591979  1
  Eu  Eu1  1  0.75000000  0.74214226  0.83591979  1
  Eu  Eu2  1  0.25000000  0.25785774  0.16408021  1
  Eu  Eu3  1  0.75000000  0.24214226  0.66408021  1
  Dy  Dy0  1  0.25000000  0.41798968  0.90150346  1
  Dy  Dy1  1  0.75000000  0.06583104  0.88913166  1
  Dy  Dy2  1  0.75000000  0.58201032  0.09849654  1
  Dy  Dy3  1  0.75000000  0.08201032  0.40150346  1
  Dy  Dy4  1  0.25000000  0.43416896  0.38913166  1
  Dy  Dy5  1  0.25000000  0.91798968  0.59849654  1
  Dy  Dy6  1  0.75000000  0.56583104  0.61086834  1
  Dy  Dy7  1  0.25000000  0.93416896  0.11086834  1
  Se  Se0  1  0.25000000  0.20733214  0.82361153  1
  Se  Se1  1  0.25000000  0.52418426  0.21558900  1
  Se  Se2  1  0.25000000  0.02418426  0.28441100  1
  Se  Se3  1  0.25000000  0.13227828  0.53009985  1
  Se  Se4  1  0.75000000  0.97581574  0.71558900  1
  Se  Se5  1  0.75000000  0.79266786  0.17638847  1
  Se  Se6  1  0.75000000  0.08966024  0.07870234  1
  Se  Se7  1  0.75000000  0.86772172  0.46990015  1
  Se  Se8  1  0.75000000  0.58966024  0.42129766  1
  Se  Se9  1  0.25000000  0.41033976  0.57870234  1
  Se  Se10  1  0.25000000  0.91033976  0.92129766  1
  Se  Se11  1  0.75000000  0.36772172  0.03009985  1
  Se  Se12  1  0.25000000  0.63227828  0.96990015  1
  Se  Se13  1  0.75000000  0.29266786  0.32361153  1
  Se  Se14  1  0.75000000  0.47581574  0.78441100  1
  Se  Se15  1  0.25000000  0.70733214  0.67638847  1
loop_
_geom_bond_atom_site_label_1
_geom_bond_atom_site_label_2
_geom_bond_distance
_geom_bond_site_symmetry_2
Eu0 Se5 3.169311 1_555
Eu0 Se5 3.169311 1_455
Eu0 Se7 3.175004 1_455
Eu0 Se7 3.175004 1_555
Eu0 Se8 3.202222 1_455
Eu0 Se8 3.202222 1_555
Eu0 Se2 3.412398 1_565
Eu0 Se1 3.422234 1_555
Eu1 Se15 3.169311 1_655
Eu1 Se15 3.169311 1_555
Eu1 Se12 3.175004 1_555
Eu1 Se12 3.175004 1_655
Eu1 Se10 3.202222 1_555
Eu1 Se10 3.202222 1_655
Eu1 Se14 3.412398 1_555
Eu1 Se4 3.422234 1_555
Eu2 Se13 3.169311 1_555
Eu2 Se13 3.169311 1_455
Eu2 Se11 3.175004 1_555
Eu2 Se11 3.175004 1_455
Eu2 Se6 3.202222 1_455
Eu2 Se6 3.202222 1_555
Eu2 Se1 3.412398 1_555
Eu2 Se2 3.422234 1_555
Eu3 Se0 3.169311 1_555
Eu3 Se0 3.169311 1_655
Eu3 Se3 3.175004 1_555
Eu3 Se3 3.175004 1_655
Eu3 Se9 3.202222 1_555
Eu3 Se9 3.202222 1_655
Eu3 Se4 3.412398 1_545
Eu3 Se14 3.422234 1_555
Dy0 Se14 2.789889 1_555
Dy0 Se14 2.789889 1_455
Dy0 Se12 2.862268 1_555
Dy0 Se0 2.873826 1_555
Dy0 Se11 2.877586 1_556
Dy0 Se11 2.877586 1_456
Dy1 Se4 2.813641 1_545
Dy1 Se6 2.833296 1_556
Dy1 Se10 2.869015 1_645
Dy1 Se10 2.869015 1_545
Dy1 Se0 2.881537 1_655
Dy1 Se0 2.881537 1_555
Dy2 Se1 2.789889 1_655
Dy2 Se1 2.789889 1_555
Dy2 Se11 2.862268 1_555
Dy2 Se5 2.873826 1_555
Dy2 Se12 2.877586 1_554
Dy2 Se12 2.877586 1_654
Dy3 Se2 2.789889 1_655
Dy3 Se2 2.789889 1_555
Dy3 Se7 2.862268 1_545
Dy3 Se13 2.873826 1_555
Dy3 Se3 2.877586 1_555
Dy3 Se3 2.877586 1_655
Dy4 Se1 2.813641 1_555
Dy4 Se9 2.833296 1_555
Dy4 Se8 2.869015 1_555
Dy4 Se8 2.869015 1_455
Dy4 Se13 2.881537 1_555
Dy4 Se13 2.881537 1_455
Dy5 Se4 2.789889 1_455
Dy5 Se4 2.789889 1_555
Dy5 Se3 2.862268 1_565
Dy5 Se15 2.873826 1_555
Dy5 Se7 2.877586 1_555
Dy5 Se7 2.877586 1_455
Dy6 Se14 2.813641 1_555
Dy6 Se8 2.833296 1_555
Dy6 Se9 2.869015 1_555
Dy6 Se9 2.869015 1_655
Dy6 Se15 2.881537 1_655
Dy6 Se15 2.881537 1_555
Dy7 Se2 2.813641 1_565
Dy7 Se10 2.833296 1_554
Dy7 Se6 2.869015 1_465
Dy7 Se6 2.869015 1_565
Dy7 Se5 2.881537 1_455
Dy7 Se5 2.881537 1_555
