# generated using pymatgen
data_KW5O13
_symmetry_space_group_name_H-M   'P 1'
_cell_length_a   7.49956663
_cell_length_b   7.50825299
_cell_length_c   39.21430644
_cell_angle_alpha   90.17074979
_cell_angle_beta   90.06077347
_cell_angle_gamma   119.84068593
_symmetry_Int_Tables_number   1
_chemical_formula_structural   KW5O13
_chemical_formula_sum   'K6 W30 O78'
_cell_volume   1915.32025010
_cell_formula_units_Z   6
loop_
 _symmetry_equiv_pos_site_id
 _symmetry_equiv_pos_as_xyz
  1  'x, y, z'
loop_
 _atom_site_type_symbol
 _atom_site_label
 _atom_site_symmetry_multiplicity
 _atom_site_fract_x
 _atom_site_fract_y
 _atom_site_fract_z
 _atom_site_occupancy
  K  K0  1  0.00003367  0.99530936  0.18889010  1
  K  K1  1  0.99963057  0.99972496  0.31379487  1
  K  K2  1  0.99848022  0.99639810  0.58262897  1
  K  K3  1  0.00012435  0.99869442  0.69791108  1
  K  K4  1  0.00025618  0.00070371  0.80409352  1
  K  K5  1  0.99948342  0.99985754  0.91632769  1
  W  W0  1  0.99729783  0.49870982  0.13659165  1
  W  W1  1  0.99965051  0.50140729  0.34549199  1
  W  W2  1  0.99729812  0.49601866  0.53678079  1
  W  W3  1  0.99959066  0.50014065  0.75302378  1
  W  W4  1  -0.00026204  0.50119811  0.94487621  1
  W  W5  1  0.49605053  0.00490579  0.05075962  1
  W  W6  1  0.50047705  0.99965200  0.25151559  1
  W  W7  1  0.49630478  0.00503159  0.45076841  1
  W  W8  1  0.50024095  0.99924362  0.65088866  1
  W  W9  1  0.49981898  0.00113948  0.85067890  1
  W  W10  1  0.50077264  0.99523724  0.15017546  1
  W  W11  1  0.50006446  0.00092419  0.35062516  1
  W  W12  1  0.49859177  0.99611278  0.55008014  1
  W  W13  1  0.49996093  0.99893719  0.75082200  1
  W  W14  1  0.50009834  0.00079900  0.95022150  1
  W  W15  1  0.49621686  0.49347317  0.15281172  1
  W  W16  1  0.49916520  0.50028709  0.34720681  1
  W  W17  1  0.49793472  0.49610853  0.55480573  1
  W  W18  1  0.49908925  0.49849607  0.75144544  1
  W  W19  1  0.49944825  0.50035269  0.94627260  1
  W  W20  1  0.50550043  0.50952559  0.04494906  1
  W  W21  1  0.50129514  0.50000209  0.25048410  1
  W  W22  1  0.50582275  0.51004514  0.44602529  1
  W  W23  1  0.50083353  0.49967030  0.65358072  1
  W  W24  1  0.50120524  0.50174632  0.84891534  1
  W  W25  1  0.00210855  0.49915088  0.06234826  1
  W  W26  1  0.00087145  0.49882781  0.25427345  1
  W  W27  1  0.00224117  0.49988322  0.46207548  1
  W  W28  1  0.00059224  0.49891303  0.65052484  1
  W  W29  1  0.00055604  0.49975844  0.85101775  1
  O  O0  1  0.21169388  0.78920094  0.14715386  1
  O  O1  1  0.20309836  0.78426807  0.34835170  1
  O  O2  1  0.18827230  0.77026617  0.54806656  1
  O  O3  1  0.21290215  0.79749273  0.75036387  1
  O  O4  1  0.20194808  0.78305229  0.94753967  1
  O  O5  1  0.20598718  0.77747508  0.05329261  1
  O  O6  1  0.21731807  0.79697352  0.24926199  1
  O  O7  1  0.20681129  0.77831970  0.45402180  1
  O  O8  1  0.20138321  0.78124179  0.65107453  1
  O  O9  1  0.21393461  0.79709842  0.84939760  1
  O  O10  1  0.23937239  0.43860065  0.06062221  1
  O  O11  1  0.20287660  0.41710739  0.25033162  1
  O  O12  1  0.23838857  0.43937173  0.46136937  1
  O  O13  1  0.21572548  0.41590809  0.64989181  1
  O  O14  1  0.20805374  0.42085864  0.84987449  1
  O  O15  1  0.49779819  0.99927684  0.09935713  1
  O  O16  1  0.50034476  0.00113855  0.29930571  1
  O  O17  1  0.49771381  0.99948418  0.50077912  1
  O  O18  1  0.50190292  0.99636314  0.19794989  1
  O  O19  1  0.49985967  0.00015349  0.70113362  1
  O  O20  1  0.49848437  0.00364574  0.40345089  1
  O  O21  1  0.50015915  0.99517511  0.59821668  1
  O  O22  1  0.50095184  0.00126915  0.89901480  1
  O  O23  1  0.49949900  0.99948161  0.79980662  1
  O  O24  1  0.22754816  0.42755501  0.14044047  1
  O  O25  1  0.21657237  0.42060004  0.34933651  1
  O  O26  1  0.22884344  0.43041442  0.54106423  1
  O  O27  1  0.20016164  0.41622296  0.75085750  1
  O  O28  1  0.21643415  0.41945132  0.94630027  1
  O  O29  1  0.57666508  0.78120661  0.14791653  1
  O  O30  1  0.57337489  0.78843103  0.35076184  1
  O  O31  1  0.58578500  0.77970653  0.54860664  1
  O  O32  1  0.57816903  0.78583896  0.75024700  1
  O  O33  1  0.57458082  0.78808366  0.94974148  1
  O  O34  1  0.57699497  0.78972994  0.05033917  1
  O  O35  1  0.57757848  0.78589837  0.24882073  1
  O  O36  1  0.57710344  0.79153078  0.45164802  1
  O  O37  1  0.57647128  0.78718280  0.65031883  1
  O  O38  1  0.57872134  0.78783073  0.84945925  1
  O  O39  1  0.49912397  0.50033091  0.99884756  1
  O  O40  1  0.50645541  0.50308706  0.19857360  1
  O  O41  1  0.49853126  0.49911928  0.30044684  1
  O  O42  1  0.50518105  0.50298358  0.60077039  1
  O  O43  1  0.49796977  0.49724806  0.70005859  1
  O  O44  1  0.49941752  0.50116589  0.40070443  1
  O  O45  1  0.50085851  0.50055700  0.80134383  1
  O  O46  1  0.50013074  0.50159766  0.89839931  1
  O  O47  1  0.41839767  0.20952660  0.14924529  1
  O  O48  1  0.42539665  0.21330215  0.35050733  1
  O  O49  1  0.40963277  0.21155732  0.55004570  1
  O  O50  1  0.42062789  0.21237713  0.75041179  1
  O  O51  1  0.42457004  0.21365687  0.94924988  1
  O  O52  1  0.42736903  0.22046174  0.05143982  1
  O  O53  1  0.42416979  0.21309165  0.24811376  1
  O  O54  1  0.42868888  0.22060147  0.45264015  1
  O  O55  1  0.42554819  0.21174341  0.64945773  1
  O  O56  1  0.42220276  0.21392791  0.84940827  1
  O  O57  1  0.79898736  0.58108465  0.25127897  1
  O  O58  1  0.76942906  0.56852264  0.05905013  1
  O  O59  1  0.77118712  0.57003219  0.45996483  1
  O  O60  1  0.78609686  0.58273956  0.65094073  1
  O  O61  1  0.79308595  0.57933586  0.85030531  1
  O  O62  1  0.49784582  0.00313979  0.00262885  1
  O  O63  1  0.76337436  0.56367570  0.13826521  1
  O  O64  1  0.78235948  0.58191251  0.34941544  1
  O  O65  1  0.76364376  0.55884682  0.53937731  1
  O  O66  1  0.79872206  0.58355820  0.75095354  1
  O  O67  1  0.78278552  0.58249715  0.94652092  1
  O  O68  1  0.78586329  0.20593596  0.14702376  1
  O  O69  1  0.79631804  0.21872897  0.34885758  1
  O  O70  1  0.80759953  0.22217417  0.54834231  1
  O  O71  1  0.78617948  0.20234465  0.75082635  1
  O  O72  1  0.79774579  0.21955505  0.94814340  1
  O  O73  1  0.79400487  0.22445344  0.05403110  1
  O  O74  1  0.78399362  0.20090497  0.24949787  1
  O  O75  1  0.79386344  0.22519068  0.45476372  1
  O  O76  1  0.79962937  0.21693558  0.65150908  1
  O  O77  1  0.78668485  0.20280375  0.84947006  1
loop_
_geom_bond_atom_site_label_1
_geom_bond_atom_site_label_2
_geom_bond_distance
_geom_bond_site_symmetry_2
K0 O47 3.138665 1_565
K0 O0 3.166733 1_555
K0 O29 3.184538 1_455
K0 O68 3.211521 1_465
K1 O1 3.040893 1_655
K1 O64 3.064509 1_555
K1 O69 3.066813 1_565
K1 O25 3.070474 1_665
K1 O48 3.117780 1_665
K1 O30 3.132713 1_555
K2 O49 2.968758 1_665
K2 O31 2.995548 1_555
K2 O2 3.023408 1_655
K2 O70 3.025749 1_565
K2 O26 3.270393 1_665
K2 O65 3.312661 1_555
K3 O60 3.270080 1_455
K3 O76 3.274279 1_465
K3 O8 3.279877 1_555
K3 O13 3.312714 1_565
K3 O37 3.323877 1_455
K3 O55 3.361589 1_565
K3 O3 3.386730 1_555
K3 O71 3.412899 1_465
K3 O27 3.415169 1_565
K3 O66 3.418088 1_455
K3 O50 3.418936 1_565
K3 O32 3.432262 1_455
K4 O77 3.231555 1_455
K4 O9 3.241802 1_545
K4 O56 3.265534 1_555
K4 O14 3.266668 1_555
K4 O38 3.273199 1_445
K4 O61 3.294767 1_445
K5 O67 2.969987 1_555
K5 O28 2.970953 1_665
K5 O4 2.986827 1_655
K5 O72 3.006985 1_565
K5 O51 3.048407 1_665
K5 O33 3.062407 1_555
O0 W10 1.941129 1_555
O0 W0 2.004278 1_455
O1 W1 1.903800 1_455
O1 W11 2.001871 1_565
O2 W2 1.882928 1_455
O2 W12 2.090285 1_555
O3 W13 1.918830 1_555
O3 W3 2.000479 1_455
O4 W4 1.895695 1_555
O4 W14 2.010996 1_565
O5 W25 1.912248 1_555
O5 W5 1.990644 1_565
O6 W6 1.901559 1_555
O6 W26 2.017863 1_555
O7 W27 1.907107 1_555
O7 W7 1.987821 1_565
O8 W28 1.893285 1_555
O8 W8 2.012919 1_555
O9 W9 1.917508 1_565
O9 W29 1.998655 1_555
O10 W20 1.895143 1_555
O10 W25 2.045133 1_555
O11 W26 1.902745 1_555
O11 W21 2.002458 1_555
O12 W22 1.900408 1_555
O12 W27 2.035785 1_555
O13 W23 1.910197 1_555
O13 W28 1.998189 1_555
O14 W29 1.921440 1_555
O14 W24 1.968563 1_555
O15 W5 1.906488 1_565
O15 W10 1.993397 1_555
O16 W6 1.874061 1_545
O16 W11 2.012465 1_555
O17 W12 1.933594 1_555
O17 W7 1.961831 1_565
O18 W10 1.873426 1_555
O18 W6 2.100714 1_555
O19 W13 1.948545 1_545
O19 W8 1.970323 1_545
O20 W7 1.855657 1_555
O20 W11 2.071669 1_555
O21 W12 1.887721 1_555
O21 W8 2.065625 1_555
O22 W9 1.895464 1_555
O22 W14 2.008060 1_555
O23 W13 1.920901 1_555
O23 W9 1.994914 1_565
O24 W15 1.882602 1_555
O24 W0 2.051334 1_455
O25 W16 1.896116 1_555
O25 W1 2.004913 1_455
O26 W17 1.900464 1_555
O26 W2 2.034045 1_455
O27 W3 1.899988 1_455
O27 W18 2.007374 1_555
O28 W19 1.894960 1_555
O28 W4 2.003384 1_555
O29 W15 1.942592 1_555
O29 W10 1.955432 1_555
O30 W11 1.928928 1_565
O30 W16 1.951797 1_555
O31 W17 1.906435 1_555
O31 W12 2.031728 1_555
O32 W18 1.932828 1_555
O32 W13 1.959142 1_555
O33 W14 1.936709 1_565
O33 W19 1.946743 1_555
O34 W20 1.906001 1_555
O34 W5 1.988669 1_565
O35 W21 1.928250 1_555
O35 W6 1.960593 1_555
O36 W22 1.916699 1_555
O36 W7 1.976107 1_565
O37 W8 1.941169 1_555
O37 W23 1.944572 1_555
O38 W24 1.925954 1_555
O38 W9 1.964745 1_565
O39 W20 1.808624 1_556
O39 W19 2.061695 1_555
O40 W15 1.795781 1_555
O40 W21 2.036025 1_555
O41 W16 1.833644 1_555
O41 W21 1.959382 1_555
O42 W17 1.803045 1_555
O42 W23 2.071240 1_555
O43 W23 1.822785 1_555
O43 W18 2.015083 1_555
O44 W22 1.777979 1_555
O44 W16 2.097859 1_555
O45 W24 1.865471 1_555
O45 W18 1.956725 1_555
O46 W19 1.877369 1_555
O46 W24 1.940506 1_555
O47 W15 1.914462 1_555
O47 W10 1.990261 1_545
O48 W11 1.935192 1_555
O48 W16 1.944548 1_555
O49 W17 1.904544 1_555
O49 W12 2.033659 1_545
O50 W18 1.924660 1_555
O50 W13 1.967599 1_545
O51 W19 1.939398 1_555
O51 W14 1.943637 1_555
O52 W5 1.927377 1_555
O52 W20 1.963827 1_555
O53 W21 1.934542 1_555
O53 W6 1.956342 1_545
O54 W7 1.923125 1_555
O54 W22 1.969106 1_555
O55 W8 1.937127 1_545
O55 W23 1.949729 1_555
O56 W24 1.935838 1_555
O56 W9 1.954424 1_555
O57 W26 1.902152 1_655
O57 W21 2.000766 1_555
O58 W20 1.882412 1_555
O58 W25 2.058512 1_655
O59 W22 1.888500 1_555
O59 W27 2.048192 1_655
O60 W23 1.910369 1_555
O60 W28 1.997907 1_655
O61 W29 1.924548 1_655
O61 W24 1.965825 1_555
O62 W5 1.887531 1_555
O62 W14 2.055300 1_554
O63 W15 1.889638 1_555
O63 W0 2.042436 1_555
O64 W16 1.896766 1_555
O64 W1 2.006199 1_555
O65 W17 1.904969 1_555
O65 W2 2.031304 1_555
O66 W3 1.899261 1_555
O66 W18 2.007417 1_555
O67 W19 1.895098 1_555
O67 W4 2.003105 1_655
O68 W10 1.929996 1_545
O68 W0 2.012898 1_555
O69 W1 1.904896 1_555
O69 W11 2.000143 1_555
O70 W2 1.884922 1_555
O70 W12 2.083884 1_545
O71 W13 1.917691 1_545
O71 W3 2.001398 1_555
O72 W4 1.896580 1_655
O72 W14 2.009896 1_555
O73 W25 1.894077 1_655
O73 W5 2.014772 1_555
O74 W6 1.901097 1_545
O74 W26 2.015019 1_655
O75 W27 1.888408 1_655
O75 W7 2.015826 1_555
O76 W28 1.892208 1_655
O76 W8 2.015164 1_545
O77 W9 1.918889 1_555
O77 W29 1.996881 1_655
