# generated using pymatgen
data_H7NO6
_symmetry_space_group_name_H-M   'P 1'
_cell_length_a   15.23077300
_cell_length_b   3.65103700
_cell_length_c   9.63917926
_cell_angle_alpha   87.64787849
_cell_angle_beta   90.00000000
_cell_angle_gamma   90.00000000
_symmetry_Int_Tables_number   1
_chemical_formula_structural   H7NO6
_chemical_formula_sum   'H28 N4 O24'
_cell_volume   535.56498817
_cell_formula_units_Z   4
loop_
 _symmetry_equiv_pos_site_id
 _symmetry_equiv_pos_as_xyz
  1  'x, y, z'
loop_
 _atom_site_type_symbol
 _atom_site_label
 _atom_site_symmetry_multiplicity
 _atom_site_fract_x
 _atom_site_fract_y
 _atom_site_fract_z
 _atom_site_occupancy
  H  H0  1  0.69653300  0.10187300  0.60073800  1
  H  H1  1  0.68258900  0.46676500  0.45351700  1
  H  H2  1  0.33181600  0.87073400  0.99709100  1
  H  H3  1  0.40983200  0.57669000  0.95197900  1
  H  H4  1  0.83181600  0.12926600  0.00290900  1
  H  H5  1  0.90983200  0.42331000  0.04802100  1
  H  H6  1  0.18258900  0.53323500  0.54648300  1
  H  H7  1  0.19653300  0.89812700  0.39926200  1
  H  H8  1  0.95404100  0.15140900  0.58682700  1
  H  H9  1  0.00459500  0.44205000  0.49175000  1
  H  H10  1  0.04425200  0.56284000  0.04383700  1
  H  H11  1  0.99535000  0.72991500  0.91084900  1
  H  H12  1  0.54425200  0.43716000  0.95616300  1
  H  H13  1  0.49535000  0.27008500  0.08915100  1
  H  H14  1  0.50459500  0.55795000  0.50825000  1
  H  H15  1  0.45404100  0.84859100  0.41317300  1
  H  H16  1  0.83429100  0.78655600  0.33077700  1
  H  H17  1  0.86981800  0.10354200  0.17410900  1
  H  H18  1  0.91829200  0.03136400  0.36938500  1
  H  H19  1  0.08293500  0.14200700  0.20397700  1
  H  H20  1  0.14190400  0.56491100  0.34346300  1
  H  H21  1  0.17672500  0.26460400  0.15586100  1
  H  H22  1  0.58293500  0.85799300  0.79602300  1
  H  H23  1  0.67672500  0.73539600  0.84413900  1
  H  H24  1  0.64190400  0.43508900  0.65653700  1
  H  H25  1  0.36981800  0.89645800  0.82589100  1
  H  H26  1  0.33429100  0.21344400  0.66922300  1
  H  H27  1  0.41829200  0.96863600  0.63061500  1
  N  N0  1  0.82975900  0.94326700  0.75247000  1
  N  N1  1  0.15947400  0.41712700  0.74921300  1
  N  N2  1  0.65947400  0.58287300  0.25078700  1
  N  N3  1  0.32975900  0.05673300  0.24753000  1
  O  O0  1  0.79477300  0.85298800  0.64023900  1
  O  O1  1  0.18543000  0.25686800  0.85564100  1
  O  O2  1  0.68543000  0.74313200  0.14435900  1
  O  O3  1  0.29477300  0.14701200  0.35976100  1
  O  O4  1  0.78363800  0.93351800  0.86477700  1
  O  O5  1  0.21399400  0.39230600  0.63577000  1
  O  O6  1  0.71399400  0.60769400  0.36423000  1
  O  O7  1  0.28363800  0.06648200  0.13522300  1
  O  O8  1  0.90891200  0.04260900  0.75719000  1
  O  O9  1  0.09123800  0.59454900  0.73275000  1
  O  O10  1  0.59123800  0.40545100  0.26725000  1
  O  O11  1  0.40891200  0.95739100  0.24281000  1
  O  O12  1  0.65055300  0.28329100  0.57419500  1
  O  O13  1  0.35494400  0.72436200  0.91878000  1
  O  O14  1  0.85494400  0.27563800  0.08122000  1
  O  O15  1  0.15055300  0.71670900  0.42580500  1
  O  O16  1  0.97685300  0.20151200  0.49189200  1
  O  O17  1  0.98860800  0.67269800  0.01033500  1
  O  O18  1  0.48860800  0.32730200  0.98966500  1
  O  O19  1  0.47685300  0.79848800  0.50810800  1
  O  O20  1  0.88850100  0.89614400  0.29260100  1
  O  O21  1  0.11834300  0.36041300  0.18399500  1
  O  O22  1  0.61834300  0.63958700  0.81600500  1
  O  O23  1  0.38850100  0.10385600  0.70739900  1
loop_
_geom_bond_atom_site_label_1
_geom_bond_atom_site_label_2
_geom_bond_distance
_geom_bond_site_symmetry_2
H0 O12 0.990309 1_555
H1 O6 1.094494 1_555
H1 O12 1.405690 1_555
H2 O13 1.006278 1_555
H2 O7 1.702986 1_566
H3 O13 1.038175 1_555
H3 O18 1.540595 1_555
H4 O14 1.006278 1_555
H4 O4 1.702986 1_544
H5 O14 1.038175 1_555
H5 O17 1.540595 1_555
H6 O5 1.094494 1_555
H6 O15 1.405690 1_555
H7 O15 0.990309 1_555
H8 O16 0.988858 1_555
H9 O16 0.974523 1_455
H10 O17 0.986301 1_455
H11 O17 0.978443 1_556
H12 O18 0.986301 1_555
H13 O18 0.978443 1_554
H14 O19 0.974523 1_555
H15 O19 0.988858 1_555
H16 O20 0.982411 1_555
H17 O14 1.096191 1_555
H17 O20 1.374010 1_545
H18 O20 1.013610 1_545
H18 O16 1.623609 1_555
H19 O21 0.975288 1_555
H20 O15 0.995286 1_555
H21 O21 0.997183 1_555
H22 O22 0.975288 1_555
H23 O22 0.997183 1_555
H24 O12 0.995286 1_555
H25 O13 1.096191 1_555
H25 O23 1.374010 1_565
H26 O23 0.982411 1_555
H27 O23 1.013610 1_565
H27 O19 1.623609 1_555
N0 O8 1.260300 1_565
N0 O0 1.261816 1_555
N0 O4 1.289752 1_555
N1 O1 1.225479 1_555
N1 O9 1.231452 1_555
N1 O5 1.378991 1_555
N2 O2 1.225479 1_555
N2 O10 1.231452 1_555
N2 O6 1.378991 1_555
N3 O11 1.260300 1_545
N3 O3 1.261816 1_555
N3 O7 1.289752 1_555
