# generated using pymatgen
data_Na(Ce2Se3)4
_symmetry_space_group_name_H-M   'P 1'
_cell_length_a   14.85498889
_cell_length_b   14.85498889
_cell_length_c   14.85498889
_cell_angle_alpha   145.00286577
_cell_angle_beta   145.00286577
_cell_angle_gamma   50.33025378
_symmetry_Int_Tables_number   1
_chemical_formula_structural   Na(Ce2Se3)4
_chemical_formula_sum   'Na2 Ce16 Se24'
_cell_volume   1072.95512993
_cell_formula_units_Z   2
loop_
 _symmetry_equiv_pos_site_id
 _symmetry_equiv_pos_as_xyz
  1  'x, y, z'
loop_
 _atom_site_type_symbol
 _atom_site_label
 _atom_site_symmetry_multiplicity
 _atom_site_fract_x
 _atom_site_fract_y
 _atom_site_fract_z
 _atom_site_occupancy
  Na  Na0  1  0.75000000  0.25000000  0.50000000  1
  Na  Na1  1  0.00000000  0.00000000  0.00000000  1
  Ce  Ce0  1  0.66952200  0.79239300  0.38107900  1
  Ce  Ce1  1  0.08334200  0.58334200  0.50000000  1
  Ce  Ce2  1  0.37500000  0.00400000  0.12900000  1
  Ce  Ce3  1  0.08047800  0.96155700  0.62287100  1
  Ce  Ce4  1  0.66665800  0.66665800  0.00000000  1
  Ce  Ce5  1  0.33868600  0.45760700  0.37712900  1
  Ce  Ce6  1  0.87500000  0.24600000  0.87100000  1
  Ce  Ce7  1  0.03844300  0.66131400  0.11892100  1
  Ce  Ce8  1  0.33334200  0.33334200  0.00000000  1
  Ce  Ce9  1  0.75400000  0.62500000  0.62900000  1
  Ce  Ce10  1  0.99600000  0.12500000  0.37100000  1
  Ce  Ce11  1  0.54239300  0.91952200  0.88107900  1
  Ce  Ce12  1  0.41665800  0.91665800  0.50000000  1
  Ce  Ce13  1  0.71155700  0.33047800  0.12287100  1
  Ce  Ce14  1  0.41131400  0.28844300  0.61892100  1
  Ce  Ce15  1  0.20760700  0.58868600  0.87712900  1
  Se  Se0  1  0.74146000  0.49171100  0.09928000  1
  Se  Se1  1  0.17769400  0.28261400  0.25484700  1
  Se  Se2  1  0.39243200  0.64218000  0.90072000  1
  Se  Se3  1  0.35756800  0.75828900  0.74974900  1
  Se  Se4  1  0.00854000  0.60782000  0.25025100  1
  Se  Se5  1  0.57230600  0.32715300  0.60492000  1
  Se  Se6  1  0.02776700  0.92284700  0.74515300  1
  Se  Se7  1  0.40668900  0.15622800  0.09533800  1
  Se  Se8  1  0.72223300  0.96738600  0.39508000  1
  Se  Se9  1  0.84377200  0.93911100  0.25046200  1
  Se  Se10  1  0.06088900  0.31135100  0.90466200  1
  Se  Se11  1  0.03261400  0.42769400  0.75484700  1
  Se  Se12  1  0.67284700  0.27776700  0.24515300  1
  Se  Se13  1  0.24171100  0.99146000  0.59928000  1
  Se  Se14  1  0.68864900  0.59331100  0.74953800  1
  Se  Se15  1  0.07715300  0.82230600  0.10492000  1
  Se  Se16  1  0.39218000  0.64243200  0.40072000  1
  Se  Se17  1  0.50828900  0.60756800  0.24974900  1
  Se  Se18  1  0.71738600  0.97223300  0.89508000  1
  Se  Se19  1  0.68911100  0.09377200  0.75046200  1
  Se  Se20  1  0.34331100  0.93864900  0.24953800  1
  Se  Se21  1  0.90622800  0.65668900  0.59533800  1
  Se  Se22  1  0.35782000  0.25854000  0.75025100  1
  Se  Se23  1  0.06135100  0.31088900  0.40466200  1
loop_
_geom_bond_atom_site_label_1
_geom_bond_atom_site_label_2
_geom_bond_distance
_geom_bond_site_symmetry_2
Na0 Se9 3.034558 1_545
Na0 Se14 3.034565 1_555
Na0 Se10 3.034565 1_655
Na0 Se7 3.034566 1_555
Na0 Se11 3.265235 1_655
Na0 Se8 3.265235 1_545
Na0 Se5 3.265235 1_555
Na0 Se12 3.265235 1_555
Na1 Se19 3.034558 1_454
Na1 Se23 3.034565 1_555
Na1 Se20 3.034565 1_545
Na1 Se21 3.034566 1_444
Na1 Se1 3.265235 1_555
Na1 Se15 3.265235 1_545
Na1 Se6 3.265235 1_544
Na1 Se18 3.265235 1_444
Ce0 Se8 2.976576 1_555
Ce0 Se19 3.006068 1_565
Ce0 Se17 3.007547 1_555
Ce0 Se0 3.036049 1_555
Ce0 Se21 3.111980 1_555
Ce0 Se20 3.165619 1_555
Ce0 Se6 3.188570 1_655
Ce0 Se2 3.218423 1_554
Ce1 Se6 2.982960 1_555
Ce1 Se1 2.982960 1_555
Ce1 Se0 3.016703 1_455
Ce1 Se2 3.016704 1_555
Ce1 Se21 3.167321 1_455
Ce1 Se23 3.167336 1_555
Ce1 Se3 3.173531 1_555
Ce1 Se4 3.173544 1_555
Ce2 Se8 3.010415 1_545
Ce2 Se6 3.010415 1_544
Ce2 Se20 3.030281 1_545
Ce2 Se7 3.030296 1_555
Ce2 Se5 3.166737 1_555
Ce2 Se1 3.166737 1_555
Ce2 Se3 3.202400 1_544
Ce2 Se2 3.202408 1_544
Ce3 Se6 2.976576 1_555
Ce3 Se10 3.006069 1_565
Ce3 Se13 3.007534 1_555
Ce3 Se4 3.036049 1_555
Ce3 Se9 3.111978 1_455
Ce3 Se7 3.165620 1_566
Ce3 Se8 3.188570 1_455
Ce3 Se3 3.218418 1_555
Ce4 Se8 2.982960 1_555
Ce4 Se5 2.982960 1_554
Ce4 Se4 3.016703 1_655
Ce4 Se3 3.016706 1_554
Ce4 Se9 3.167326 1_555
Ce4 Se14 3.167336 1_554
Ce4 Se2 3.173529 1_554
Ce4 Se0 3.173544 1_555
Ce5 Se1 2.976576 1_555
Ce5 Se7 3.006067 1_555
Ce5 Se16 3.007548 1_555
Ce5 Se3 3.036056 1_555
Ce5 Se14 3.111982 1_555
Ce5 Se10 3.165619 1_554
Ce5 Se5 3.188570 1_555
Ce5 Se4 3.218421 1_555
Ce6 Se5 3.010415 1_555
Ce6 Se1 3.010415 1_656
Ce6 Se10 3.030281 1_655
Ce6 Se19 3.030294 1_555
Ce6 Se8 3.166737 1_545
Ce6 Se6 3.166737 1_645
Ce6 Se4 3.202410 1_656
Ce6 Se0 3.202410 1_556
Ce7 Se15 2.976576 1_555
Ce7 Se14 3.006069 1_454
Ce7 Se4 3.007534 1_555
Ce7 Se16 3.036047 1_555
Ce7 Se10 3.111982 1_554
Ce7 Se9 3.165628 1_455
Ce7 Se11 3.188570 1_554
Ce7 Se13 3.218421 1_555
Ce8 Se11 2.982960 1_554
Ce8 Se12 2.982960 1_555
Ce8 Se13 3.016703 1_544
Ce8 Se16 3.016704 1_555
Ce8 Se7 3.167321 1_555
Ce8 Se10 3.167336 1_554
Ce8 Se17 3.173531 1_555
Ce8 Se22 3.173544 1_554
Ce9 Se18 3.010415 1_555
Ce9 Se12 3.010415 1_555
Ce9 Se14 3.030281 1_555
Ce9 Se21 3.030296 1_555
Ce9 Se15 3.166737 1_656
Ce9 Se11 3.166737 1_655
Ce9 Se17 3.202400 1_555
Ce9 Se16 3.202408 1_555
Ce10 Se11 3.010415 1_655
Ce10 Se15 3.010415 1_645
Ce10 Se23 3.030281 1_655
Ce10 Se9 3.030294 1_545
Ce10 Se18 3.166737 1_544
Ce10 Se12 3.166737 1_555
Ce10 Se22 3.202410 1_655
Ce10 Se13 3.202410 1_645
Ce11 Se18 2.976576 1_555
Ce11 Se9 3.006068 1_556
Ce11 Se3 3.007547 1_555
Ce11 Se13 3.036049 1_555
Ce11 Se7 3.111980 1_566
Ce11 Se14 3.165619 1_555
Ce11 Se12 3.188570 1_566
Ce11 Se16 3.218423 1_555
Ce12 Se15 2.982960 1_555
Ce12 Se18 2.982960 1_555
Ce12 Se22 3.016703 1_565
Ce12 Se17 3.016706 1_555
Ce12 Se19 3.167326 1_565
Ce12 Se20 3.167336 1_555
Ce12 Se16 3.173529 1_555
Ce12 Se13 3.173544 1_555
Ce13 Se12 2.976576 1_555
Ce13 Se23 3.006069 1_655
Ce13 Se0 3.007534 1_555
Ce13 Se22 3.036049 1_554
Ce13 Se19 3.111978 1_554
Ce13 Se21 3.165620 1_555
Ce13 Se18 3.188570 1_544
Ce13 Se17 3.218418 1_555
Ce14 Se5 2.976576 1_555
Ce14 Se20 3.006069 1_545
Ce14 Se22 3.007534 1_555
Ce14 Se2 3.036047 1_555
Ce14 Se23 3.111982 1_555
Ce14 Se19 3.165628 1_555
Ce14 Se1 3.188570 1_555
Ce14 Se0 3.218421 1_556
Ce15 Se11 2.976576 1_555
Ce15 Se21 3.006067 1_455
Ce15 Se2 3.007548 1_555
Ce15 Se17 3.036056 1_556
Ce15 Se20 3.111982 1_556
Ce15 Se23 3.165619 1_555
Ce15 Se15 3.188570 1_556
Ce15 Se22 3.218421 1_555
