# generated using pymatgen
data_SrLaMnRuO6
_symmetry_space_group_name_H-M   'P 1'
_cell_length_a   5.75514000
_cell_length_b   5.65948400
_cell_length_c   9.79794143
_cell_angle_alpha   54.85098035
_cell_angle_beta   90.00000000
_cell_angle_gamma   90.00000000
_symmetry_Int_Tables_number   1
_chemical_formula_structural   SrLaMnRuO6
_chemical_formula_sum   'Sr2 La2 Mn2 Ru2 O12'
_cell_volume   260.93898994
_cell_formula_units_Z   2
loop_
 _symmetry_equiv_pos_site_id
 _symmetry_equiv_pos_as_xyz
  1  'x, y, z'
loop_
 _atom_site_type_symbol
 _atom_site_label
 _atom_site_symmetry_multiplicity
 _atom_site_fract_x
 _atom_site_fract_y
 _atom_site_fract_z
 _atom_site_occupancy
  Sr  Sr0  1  0.28578100  0.74353900  0.25083400  1
  Sr  Sr1  1  0.71421900  0.74353900  0.75083400  1
  La  La0  1  0.79895900  0.25781600  0.25159400  1
  La  La1  1  0.20104100  0.25781600  0.75159400  1
  Mn  Mn0  1  0.25646700  0.99917800  0.50127600  1
  Mn  Mn1  1  0.74353300  0.99917800  0.00127600  1
  Ru  Ru0  1  0.25190000  0.50045800  0.00008600  1
  Ru  Ru1  1  0.74810000  0.50045800  0.50008600  1
  O  O0  1  0.22315600  0.19050500  0.24155000  1
  O  O1  1  0.02605100  0.33610100  0.45993600  1
  O  O2  1  0.04587900  0.74111500  0.03693000  1
  O  O3  1  0.97394900  0.33610100  0.95993600  1
  O  O4  1  0.95412100  0.74111500  0.53693000  1
  O  O5  1  0.77684400  0.19050500  0.74155000  1
  O  O6  1  0.73412800  0.83099700  0.25855900  1
  O  O7  1  0.55655700  0.25671700  0.45510900  1
  O  O8  1  0.54062300  0.64357400  0.04412600  1
  O  O9  1  0.44344300  0.25671700  0.95510900  1
  O  O10  1  0.45937700  0.64357400  0.54412600  1
  O  O11  1  0.26587200  0.83099700  0.75855900  1
loop_
_geom_bond_atom_site_label_1
_geom_bond_atom_site_label_2
_geom_bond_distance
_geom_bond_site_symmetry_2
La0 O6 2.406048 1_545
La0 O7 2.430657 1_555
La0 O8 2.449295 1_555
La0 O0 2.481528 1_655
La0 O1 2.666975 1_655
La0 O2 2.701968 1_655
La0 O4 2.784147 1_545
La0 O3 2.814053 1_554
La1 O11 2.406048 1_545
La1 O9 2.430657 1_555
La1 O10 2.449295 1_555
La1 O5 2.481528 1_455
La1 O3 2.666975 1_455
La1 O4 2.701968 1_455
La1 O2 2.784147 1_546
La1 O1 2.814053 1_555
Mn0 O11 2.121524 1_555
Mn0 O0 2.124243 1_565
Mn0 O7 2.133691 1_565
Mn0 O10 2.148810 1_555
Mn0 O1 2.160828 1_565
Mn0 O4 2.166887 1_455
Mn1 O6 2.121524 1_555
Mn1 O5 2.124243 1_564
Mn1 O9 2.133691 1_564
Mn1 O8 2.148810 1_555
Mn1 O3 2.160828 1_564
Mn1 O2 2.166887 1_655
O0 Ru0 1.980721 1_555
O0 Sr0 2.504415 1_545
O1 Ru1 2.000044 1_455
O1 Sr0 2.511856 1_555
O2 Ru0 1.989297 1_555
O2 Sr0 2.516346 1_555
O3 Ru0 2.000044 1_656
O3 Sr1 2.511856 1_555
O4 Ru1 1.989297 1_555
O4 Sr1 2.516346 1_555
O5 Ru1 1.980721 1_555
O5 Sr1 2.504415 1_545
O6 Ru1 2.002223 1_555
O6 Sr0 2.636627 1_555
O7 Ru1 2.003050 1_555
O7 Sr0 2.770553 1_555
O7 Sr1 2.822139 1_545
O8 Ru0 2.001425 1_555
O8 Sr1 2.775642 1_554
O8 Sr0 2.809331 1_555
O9 Ru0 2.003050 1_556
O9 Sr1 2.770553 1_555
O9 Sr0 2.822139 1_546
O10 Ru1 2.001425 1_555
O10 Sr0 2.775642 1_555
O10 Sr1 2.809331 1_555
O11 Ru0 2.002223 1_556
O11 Sr1 2.636627 1_555
