# generated using pymatgen
data_BiOs2(CO)6
_symmetry_space_group_name_H-M   'P 1'
_cell_length_a   9.33283725
_cell_length_b   9.33283725
_cell_length_c   12.51701440
_cell_angle_alpha   86.40526850
_cell_angle_beta   86.40526850
_cell_angle_gamma   86.62827801
_symmetry_Int_Tables_number   1
_chemical_formula_structural   BiOs2(CO)6
_chemical_formula_sum   'Bi4 Os8 C24 O24'
_cell_volume   1084.31947861
_cell_formula_units_Z   4
loop_
 _symmetry_equiv_pos_site_id
 _symmetry_equiv_pos_as_xyz
  1  'x, y, z'
loop_
 _atom_site_type_symbol
 _atom_site_label
 _atom_site_symmetry_multiplicity
 _atom_site_fract_x
 _atom_site_fract_y
 _atom_site_fract_z
 _atom_site_occupancy
  Bi  Bi0  1  0.79732800  0.98252300  0.28951900  1
  Bi  Bi1  1  0.98252300  0.79732800  0.78951900  1
  Bi  Bi2  1  0.20267200  0.01747700  0.71048100  1
  Bi  Bi3  1  0.01747700  0.20267200  0.21048100  1
  Os  Os0  1  0.76380900  0.17046500  0.08981300  1
  Os  Os1  1  0.57685300  0.21077500  0.28243800  1
  Os  Os2  1  0.78922500  0.42314700  0.21756200  1
  Os  Os3  1  0.23619100  0.82953500  0.91018700  1
  Os  Os4  1  0.17046500  0.76380900  0.58981300  1
  Os  Os5  1  0.21077500  0.57685300  0.78243800  1
  Os  Os6  1  0.42314700  0.78922500  0.71756200  1
  Os  Os7  1  0.82953500  0.23619100  0.41018700  1
  C  C0  1  0.56284900  0.64274000  0.76068100  1
  C  C1  1  0.98939800  0.71835800  0.54612500  1
  C  C2  1  0.60952800  0.27792100  0.02298200  1
  C  C3  1  0.81153000  0.50549900  0.07541600  1
  C  C4  1  0.50549900  0.81153000  0.57541600  1
  C  C5  1  0.64274000  0.56284900  0.26068100  1
  C  C6  1  0.47426800  0.06284900  0.22978600  1
  C  C7  1  0.52573200  0.93715100  0.77021400  1
  C  C8  1  0.72207900  0.39047200  0.47701800  1
  C  C9  1  0.43715000  0.35726000  0.23931900  1
  C  C10  1  0.18847000  0.49450100  0.92458400  1
  C  C11  1  0.27792100  0.60952800  0.52298200  1
  C  C12  1  0.39047200  0.72207900  0.97701800  1
  C  C13  1  0.28164200  0.01060200  0.95387500  1
  C  C14  1  0.06284900  0.47426800  0.72978600  1
  C  C15  1  0.71835800  0.98939800  0.04612500  1
  C  C16  1  0.19806500  0.89726900  0.47098800  1
  C  C17  1  0.89726900  0.19806500  0.97098800  1
  C  C18  1  0.49450100  0.18847000  0.42458400  1
  C  C19  1  0.80193500  0.10273100  0.52901200  1
  C  C20  1  0.10273100  0.80193500  0.02901200  1
  C  C21  1  0.93715100  0.52573200  0.27021400  1
  C  C22  1  0.01060200  0.28164200  0.45387500  1
  C  C23  1  0.35726000  0.43715100  0.73931900  1
  O  O0  1  0.40993300  0.97355700  0.19697900  1
  O  O1  1  0.02644300  0.59006700  0.30302100  1
  O  O2  1  0.83237600  0.56036200  0.98996900  1
  O  O3  1  0.59006700  0.02644300  0.80302100  1
  O  O4  1  0.34180900  0.51992500  0.47676500  1
  O  O5  1  0.43963800  0.16762400  0.51003100  1
  O  O6  1  0.56036200  0.83237600  0.48996900  1
  O  O7  1  0.69029400  0.87829100  0.01808500  1
  O  O8  1  0.97355700  0.40993300  0.69697900  1
  O  O9  1  0.30970600  0.12170900  0.98191500  1
  O  O10  1  0.16762400  0.43963800  0.01003100  1
  O  O11  1  0.34203100  0.43748700  0.21668400  1
  O  O12  1  0.02534300  0.78478600  0.10526300  1
  O  O13  1  0.97465700  0.21521400  0.89473700  1
  O  O14  1  0.21521400  0.97465700  0.39473700  1
  O  O15  1  0.87829100  0.69029400  0.51808500  1
  O  O16  1  0.65796900  0.56251300  0.78331600  1
  O  O17  1  0.78478600  0.02534300  0.60526300  1
  O  O18  1  0.65819100  0.48007500  0.52323500  1
  O  O19  1  0.56251300  0.65796900  0.28331600  1
  O  O20  1  0.12170900  0.30970600  0.48191500  1
  O  O21  1  0.48007500  0.65819100  0.02323500  1
  O  O22  1  0.51992500  0.34180900  0.97676500  1
  O  O23  1  0.43748700  0.34203100  0.71668400  1
loop_
_geom_bond_atom_site_label_1
_geom_bond_atom_site_label_2
_geom_bond_distance
_geom_bond_site_symmetry_2
Bi0 Os1 2.874600 1_565
Bi0 Os7 2.926684 1_565
Bi0 Os0 2.984427 1_565
Bi0 Bi3 3.067313 1_665
Bi1 Os5 2.874600 1_655
Bi1 Os3 2.926684 1_655
Bi1 Os4 2.984427 1_655
Bi1 Bi2 3.067313 1_665
Bi2 Os6 2.874600 1_545
Bi2 Os4 2.926684 1_545
Bi2 Os3 2.984427 1_545
Bi3 Os2 2.874600 1_455
Bi3 Os0 2.926684 1_455
Bi3 Os7 2.984427 1_455
C0 O16 1.164356 1_555
C0 Os6 1.909529 1_555
C1 O15 1.164538 1_555
C1 Os4 1.887833 1_655
C2 O22 1.161144 1_554
C2 Os0 1.911743 1_555
C3 O2 1.166574 1_554
C3 Os2 1.897538 1_555
C4 O6 1.166574 1_555
C4 Os6 1.897538 1_555
C5 O19 1.164356 1_555
C5 Os2 1.909529 1_555
C6 O0 1.164603 1_545
C6 Os1 1.898852 1_555
C7 O3 1.164603 1_565
C7 Os6 1.898852 1_555
C8 O18 1.161144 1_555
C8 Os7 1.911743 1_555
C9 O11 1.164349 1_555
C9 Os1 1.909535 1_555
C10 O10 1.166574 1_556
C10 Os5 1.897538 1_555
C11 O4 1.161144 1_555
C11 Os4 1.911743 1_555
C12 O21 1.161144 1_556
C12 Os3 1.911743 1_555
C13 O9 1.164538 1_555
C13 Os3 1.887833 1_545
C14 O8 1.164603 1_455
C14 Os5 1.898852 1_555
C15 O7 1.164538 1_555
C15 Os0 1.887833 1_565
C16 O14 1.168848 1_555
C16 Os4 1.894024 1_555
C17 O13 1.168848 1_555
C17 Os0 1.894024 1_556
C18 O5 1.166574 1_555
C18 Os1 1.897538 1_555
C19 O17 1.168848 1_555
C19 Os7 1.894024 1_555
C20 O12 1.168848 1_555
C20 Os3 1.894024 1_554
C21 O1 1.164603 1_655
C21 Os2 1.898852 1_555
C22 O20 1.164538 1_555
C22 Os7 1.887833 1_455
C23 O23 1.164356 1_555
C23 Os5 1.909529 1_555
