# generated using pymatgen
data_Ti5(B6O13)2
_symmetry_space_group_name_H-M   'P 1'
_cell_length_a   13.69260068
_cell_length_b   13.69260068
_cell_length_c   13.69260068
_cell_angle_alpha   131.26316177
_cell_angle_beta   131.26316177
_cell_angle_gamma   71.39530237
_symmetry_Int_Tables_number   1
_chemical_formula_structural   Ti5(B6O13)2
_chemical_formula_sum   'Ti20 B48 O104'
_cell_volume   1419.69426646
_cell_formula_units_Z   4
loop_
 _symmetry_equiv_pos_site_id
 _symmetry_equiv_pos_as_xyz
  1  'x, y, z'
loop_
 _atom_site_type_symbol
 _atom_site_label
 _atom_site_symmetry_multiplicity
 _atom_site_fract_x
 _atom_site_fract_y
 _atom_site_fract_z
 _atom_site_occupancy
  Ti  Ti0  1  0.75899900  0.09696300  0.02120500  1
  Ti  Ti1  1  0.84696300  0.32575800  0.83796400  1
  Ti  Ti2  1  0.17424200  0.65303700  0.16203600  1
  Ti  Ti3  1  0.90303700  0.92424200  0.66203600  1
  Ti  Ti4  1  0.76220600  0.42424200  0.02120500  1
  Ti  Ti5  1  0.48779400  0.00899900  0.16203600  1
  Ti  Ti6  1  0.25899900  0.23779400  0.66203600  1
  Ti  Ti7  1  0.49100100  0.01220600  0.83796400  1
  Ti  Ti8  1  0.25000000  0.25000000  0.00000000  1
  Ti  Ti9  1  0.26220600  0.24100100  0.33796400  1
  Ti  Ti10  1  0.07575800  0.73779400  0.97879500  1
  Ti  Ti11  1  0.98779400  0.82575800  0.47879500  1
  Ti  Ti12  1  0.40303700  0.74100100  0.97879500  1
  Ti  Ti13  1  0.50000000  0.00000000  0.50000000  1
  Ti  Ti14  1  0.34696300  0.50899900  0.52120500  1
  Ti  Ti15  1  0.00000000  0.50000000  0.50000000  1
  Ti  Ti16  1  0.99100100  0.15303700  0.47879500  1
  Ti  Ti17  1  0.57575800  0.59696300  0.33796400  1
  Ti  Ti18  1  0.67424200  0.51220600  0.52120500  1
  Ti  Ti19  1  0.75000000  0.75000000  0.00000000  1
  B  B0  1  0.28597900  0.94624300  0.48465500  1
  B  B1  1  0.21195900  0.52327900  0.82009400  1
  B  B2  1  0.36434200  0.69109100  0.14003600  1
  B  B3  1  0.19624300  0.03597900  0.98465500  1
  B  B4  1  0.77569400  0.63565800  0.32675000  1
  B  B5  1  0.19867500  0.71402100  0.66026400  1
  B  B6  1  0.88565800  0.52569400  0.82675000  1
  B  B7  1  0.69624300  0.71158800  0.16026400  1
  B  B8  1  0.05105500  0.19109100  0.32675000  1
  B  B9  1  0.64186500  0.45318500  0.67990600  1
  B  B10  1  0.46158800  0.80132500  0.51534500  1
  B  B11  1  0.04681500  0.85813500  0.32009400  1
  B  B12  1  0.05375700  0.53841200  0.33973600  1
  B  B13  1  0.78841200  0.80375700  0.83973600  1
  B  B14  1  0.10813500  0.79681500  0.82009400  1
  B  B15  1  0.28841200  0.44867500  0.98465500  1
  B  B16  1  0.60813500  0.78804100  0.31132000  1
  B  B17  1  0.03804100  0.35813500  0.81132000  1
  B  B18  1  0.53804100  0.72672100  0.67990600  1
  B  B19  1  0.78597900  0.30132500  0.33973600  1
  B  B20  1  0.14186500  0.46195900  0.18868000  1
  B  B21  1  0.19894500  0.02569400  0.64003600  1
  B  B22  1  0.71195900  0.89186500  0.68868000  1
  B  B23  1  0.77327900  0.96195900  0.32009400  1
  B  B24  1  0.96158800  0.44624300  0.66026400  1
  B  B25  1  0.70318500  0.39186500  0.17990600  1
  B  B26  1  0.80890900  0.13565800  0.85996400  1
  B  B27  1  0.38565800  0.55890900  0.35996400  1
  B  B28  1  0.69867500  0.03841200  0.48465500  1
  B  B29  1  0.69894500  0.05890900  0.17325000  1
  B  B30  1  0.27327900  0.95318500  0.81132000  1
  B  B31  1  0.47672100  0.29681500  0.68868000  1
  B  B32  1  0.97430600  0.61434200  0.17325000  1
  B  B33  1  0.97672100  0.28804100  0.17990600  1
  B  B34  1  0.96402100  0.94867500  0.16026400  1
  B  B35  1  0.05132500  0.21158800  0.01534500  1
  B  B36  1  0.47430600  0.30105500  0.35996400  1
  B  B37  1  0.20318500  0.02327900  0.31132000  1
  B  B38  1  0.55105500  0.22430600  0.85996400  1
  B  B39  1  0.30890900  0.44894500  0.67325000  1
  B  B40  1  0.86434200  0.72430600  0.67325000  1
  B  B41  1  0.55375700  0.21402100  0.51534500  1
  B  B42  1  0.54681500  0.22672100  0.18868000  1
  B  B43  1  0.44109100  0.80105500  0.82675000  1
  B  B44  1  0.27569400  0.94894500  0.14003600  1
  B  B45  1  0.55132500  0.53597900  0.83973600  1
  B  B46  1  0.94109100  0.11434200  0.64003600  1
  B  B47  1  0.46402100  0.30375700  0.01534500  1
  O  O0  1  0.58771500  0.11044800  0.85739000  1
  O  O1  1  0.35627900  0.33548000  0.67492200  1
  O  O2  1  0.39372100  0.91452000  0.82507800  1
  O  O3  1  0.44526700  0.26390000  0.21139000  1
  O  O4  1  0.66620000  0.00285600  0.33547000  1
  O  O5  1  0.89170700  0.75553500  0.81736300  1
  O  O6  1  0.21113000  0.74234500  0.79455700  1
  O  O7  1  0.08342700  0.55221200  0.79455700  1
  O  O8  1  0.98032500  0.00305800  0.64261000  1
  O  O9  1  0.49694200  0.51967500  0.35739000  1
  O  O10  1  0.26967500  0.41228500  0.52273400  1
  O  O11  1  0.08771500  0.23032500  0.47726600  1
  O  O12  1  0.08944200  0.56864300  0.17492200  1
  O  O13  1  0.80473300  0.51612300  0.31863300  1
  O  O14  1  0.16657300  0.46113000  0.96878500  1
  O  O15  1  0.38955200  0.91228500  0.14261000  1
  O  O16  1  0.53887000  0.50765500  0.70544300  1
  O  O17  1  0.71113000  0.91657300  0.46878500  1
  O  O18  1  0.05250900  0.23387700  0.78861000  1
  O  O19  1  0.82434400  0.14170700  0.63617200  1
  O  O20  1  0.92565600  0.10829300  0.86382800  1
  O  O21  1  0.81864300  0.83944200  0.67492200  1
  O  O22  1  0.48387700  0.80250900  0.28861000  1
  O  O23  1  0.03887000  0.33342700  0.03121500  1
  O  O24  1  0.66657300  0.69778800  0.70544300  1
  O  O25  1  0.58944200  0.41452000  0.52079900  1
  O  O26  1  0.24446500  0.06182800  0.13617200  1
  O  O27  1  0.49714400  0.83380000  0.66453000  1
  O  O28  1  0.01390000  0.30250900  0.31863300  1
  O  O29  1  0.75765500  0.28887000  0.20544300  1
  O  O30  1  0.76612300  0.55473300  0.81863300  1
  O  O31  1  0.36044800  0.33771500  0.35739000  1
  O  O32  1  0.85829300  0.49446500  0.68263700  1
  O  O33  1  0.16620000  0.83073000  0.66334400  1
  O  O34  1  0.08073000  0.91620000  0.16334400  1
  O  O35  1  0.66738500  0.33073000  0.66453000  1
  O  O36  1  0.42565600  0.56182800  0.81736300  1
  O  O37  1  0.44778800  0.24234500  0.53121500  1
  O  O38  1  0.08548000  0.91055800  0.47920100  1
  O  O39  1  0.48032500  0.83771500  0.97726600  1
  O  O40  1  0.85627900  0.18135700  0.02079900  1
  O  O41  1  0.25285600  0.41620000  0.83547000  1
  O  O42  1  0.35829300  0.67565600  0.36382800  1
  O  O43  1  0.16738500  0.50285600  0.33665600  1
  O  O44  1  0.40584700  0.90584700  0.50000000  1
  O  O45  1  0.59415300  0.09415300  0.50000000  1
  O  O46  1  0.66228500  0.01967500  0.02273400  1
  O  O47  1  0.50553500  0.18817200  0.36382800  1
  O  O48  1  0.94778800  0.41657300  0.20544300  1
  O  O49  1  0.94526700  0.73387700  0.18136700  1
  O  O50  1  0.88955200  0.74694200  0.47726600  1
  O  O51  1  0.55250900  0.76390000  0.81863300  1
  O  O52  1  0.76967500  0.24694200  0.85739000  1
  O  O53  1  0.99714400  0.33261500  0.66334400  1
  O  O54  1  0.16452000  0.14372100  0.32507800  1
  O  O55  1  0.43817200  0.25553500  0.86382800  1
  O  O56  1  0.99234500  0.96113000  0.29455700  1
  O  O57  1  0.58548000  0.10627900  0.17492200  1
  O  O58  1  0.99694200  0.63955200  0.97726600  1
  O  O59  1  0.74446500  0.60829300  0.18263700  1
  O  O60  1  0.58261500  0.74714400  0.16334400  1
  O  O61  1  0.58342700  0.78887000  0.53121500  1
  O  O62  1  0.93817200  0.07434400  0.18263700  1
  O  O63  1  0.08261500  0.91927000  0.83547000  1
  O  O64  1  0.75285600  0.91738500  0.83665600  1
  O  O65  1  0.08380000  0.24714400  0.16453000  1
  O  O66  1  0.49234500  0.19778800  0.03121500  1
  O  O67  1  0.80221200  0.83342700  0.29455700  1
  O  O68  1  0.51390000  0.19526700  0.71139000  1
  O  O69  1  0.25765500  0.05221200  0.46878500  1
  O  O70  1  0.26612300  0.44749100  0.21139000  1
  O  O71  1  0.00553500  0.64170700  0.31736300  1
  O  O72  1  0.98387700  0.69526700  0.68136700  1
  O  O73  1  0.30473300  0.98610000  0.28861000  1
  O  O74  1  0.34415300  0.34415300  0.00000000  1
  O  O75  1  0.89372100  0.06864300  0.47920100  1
  O  O76  1  0.39170700  0.57434400  0.13617200  1
  O  O77  1  0.58073000  0.41738500  0.16453000  1
  O  O78  1  0.30221200  0.00765500  0.96878500  1
  O  O79  1  0.86044800  0.50305800  0.02273400  1
  O  O80  1  0.23610000  0.05473300  0.78861000  1
  O  O81  1  0.65584700  0.65584700  0.00000000  1
  O  O82  1  0.25305800  0.73032500  0.14261000  1
  O  O83  1  0.66927000  0.33380000  0.33665600  1
  O  O84  1  0.69749100  0.01612300  0.71139000  1
  O  O85  1  0.73610000  0.94749100  0.18136700  1
  O  O86  1  0.75305800  0.61044800  0.52273400  1
  O  O87  1  0.84415300  0.84415300  0.00000000  1
  O  O88  1  0.16927000  0.83261500  0.33547000  1
  O  O89  1  0.58380000  0.41927000  0.83665600  1
  O  O90  1  0.16228500  0.13955200  0.64261000  1
  O  O91  1  0.81182800  0.17565600  0.31736300  1
  O  O92  1  0.66452000  0.33944200  0.02079900  1
  O  O93  1  0.43135700  0.60627900  0.52079900  1
  O  O94  1  0.93135700  0.41055800  0.82507800  1
  O  O95  1  0.90584700  0.40584700  0.50000000  1
  O  O96  1  0.31182800  0.99446500  0.63617200  1
  O  O97  1  0.09415300  0.59415300  0.50000000  1
  O  O98  1  0.66055800  0.68135700  0.32507800  1
  O  O99  1  0.16055800  0.83548000  0.97920100  1
  O  O100  1  0.19749100  0.48610000  0.68136700  1
  O  O101  1  0.31864300  0.64372100  0.97920100  1
  O  O102  1  0.15584700  0.15584700  0.00000000  1
  O  O103  1  0.32434400  0.68817200  0.68263700  1
loop_
_geom_bond_atom_site_label_1
_geom_bond_atom_site_label_2
_geom_bond_distance
_geom_bond_site_symmetry_2
B0 O44 1.470754 1_555
B0 O88 1.495217 1_555
B0 O96 1.496365 1_555
B0 O69 1.499557 1_565
B1 O100 1.482936 1_555
B1 O101 1.483299 1_555
B1 O41 1.495123 1_555
B1 O7 1.517467 1_555
B2 O82 1.461250 1_555
B2 O101 1.489737 1_554
B2 O76 1.493659 1_555
B2 O22 1.500823 1_555
B3 O102 1.470754 1_556
B3 O63 1.495217 1_545
B3 O26 1.496365 1_556
B3 O78 1.499557 1_555
B4 O50 1.461250 1_555
B4 O98 1.489731 1_555
B4 O59 1.493673 1_555
B4 O13 1.500823 1_555
B5 O97 1.470749 1_555
B5 O33 1.495224 1_555
B5 O103 1.496378 1_555
B5 O6 1.499549 1_555
B6 O58 1.461250 1_555
B6 O94 1.489731 1_555
B6 O32 1.493673 1_555
B6 O30 1.500823 1_555
B7 O81 1.470754 1_555
B7 O60 1.495210 1_555
B7 O59 1.496365 1_555
B7 O67 1.499557 1_555
B8 O11 1.461224 1_555
B8 O54 1.489743 1_555
B8 O62 1.493658 1_455
B8 O28 1.500824 1_555
B9 O30 1.482928 1_555
B9 O25 1.483299 1_555
B9 O35 1.495124 1_555
B9 O16 1.517467 1_555
B10 O44 1.470742 1_555
B10 O27 1.495230 1_555
B10 O42 1.496372 1_555
B10 O61 1.499555 1_555
B11 O49 1.482928 1_455
B11 O38 1.483299 1_555
B11 O88 1.495124 1_555
B11 O56 1.517467 1_455
B12 O97 1.470754 1_555
B12 O43 1.495210 1_555
B12 O71 1.496365 1_555
B12 O48 1.499557 1_455
B13 O87 1.470754 1_556
B13 O64 1.495210 1_555
B13 O5 1.496365 1_555
B13 O24 1.499557 1_555
B14 O72 1.482928 1_455
B14 O99 1.483299 1_555
B14 O63 1.495124 1_555
B14 O6 1.517467 1_555
B15 O74 1.470742 1_556
B15 O41 1.495230 1_555
B15 O76 1.496372 1_556
B15 O14 1.499555 1_555
B16 O22 1.482929 1_555
B16 O98 1.483299 1_555
B16 O60 1.495131 1_555
B16 O17 1.517467 1_555
B17 O18 1.482929 1_555
B17 O94 1.483299 1_455
B17 O53 1.495131 1_455
B17 O14 1.517467 1_555
B18 O51 1.482936 1_555
B18 O93 1.483299 1_555
B18 O27 1.495123 1_555
B18 O24 1.517467 1_555
B19 O95 1.470749 1_555
B19 O83 1.495224 1_555
B19 O91 1.496378 1_555
B19 O29 1.499549 1_555
B20 O70 1.482929 1_555
B20 O12 1.483299 1_555
B20 O43 1.495131 1_555
B20 O23 1.517467 1_555
B21 O90 1.461250 1_555
B21 O38 1.489737 1_545
B21 O96 1.493659 1_545
B21 O80 1.500830 1_555
B22 O84 1.482929 1_565
B22 O21 1.483299 1_555
B22 O64 1.495131 1_555
B22 O61 1.517467 1_555
B23 O85 1.482936 1_555
B23 O75 1.483299 1_565
B23 O4 1.495123 1_565
B23 O67 1.517467 1_555
B24 O95 1.470754 1_555
B24 O53 1.495210 1_555
B24 O32 1.496365 1_555
B24 O7 1.499557 1_655
B25 O13 1.482928 1_555
B25 O92 1.483299 1_555
B25 O77 1.495124 1_555
B25 O29 1.517467 1_555
B26 O52 1.461250 1_555
B26 O40 1.489737 1_556
B26 O20 1.493659 1_555
B26 O84 1.500823 1_555
B27 O9 1.461250 1_555
B27 O93 1.489737 1_555
B27 O42 1.493659 1_555
B27 O70 1.500823 1_555
B28 O45 1.470742 1_555
B28 O4 1.495230 1_555
B28 O19 1.496372 1_555
B28 O17 1.499555 1_545
B29 O46 1.461224 1_555
B29 O57 1.489743 1_555
B29 O91 1.493658 1_555
B29 O85 1.500824 1_545
B30 O80 1.482928 1_565
B30 O2 1.483299 1_555
B30 O33 1.495123 1_555
B30 O78 1.517467 1_565
B31 O68 1.482928 1_555
B31 O1 1.483299 1_555
B31 O89 1.495123 1_555
B31 O37 1.517467 1_555
B32 O79 1.461250 1_555
B32 O12 1.489731 1_655
B32 O71 1.493673 1_655
B32 O49 1.500823 1_555
B33 O28 1.482936 1_655
B33 O40 1.483299 1_555
B33 O65 1.495123 1_655
B33 O48 1.517467 1_555
B34 O87 1.470749 1_555
B34 O34 1.495224 1_655
B34 O62 1.496378 1_565
B34 O56 1.499549 1_555
B35 O102 1.470742 1_555
B35 O65 1.495230 1_555
B35 O20 1.496372 1_454
B35 O23 1.499555 1_555
B36 O31 1.461250 1_555
B36 O25 1.489737 1_555
B36 O47 1.493659 1_555
B36 O3 1.500830 1_555
B37 O73 1.482928 1_545
B37 O54 1.483299 1_555
B37 O34 1.495123 1_545
B37 O69 1.517467 1_555
B38 O0 1.461250 1_555
B38 O92 1.489737 1_556
B38 O55 1.493659 1_555
B38 O68 1.500830 1_555
B39 O10 1.461224 1_555
B39 O1 1.489743 1_555
B39 O36 1.493658 1_555
B39 O100 1.500824 1_555
B40 O86 1.461250 1_555
B40 O21 1.489731 1_555
B40 O5 1.493673 1_555
B40 O72 1.500823 1_555
B41 O45 1.470754 1_555
B41 O35 1.495217 1_555
B41 O47 1.496365 1_555
B41 O37 1.499557 1_555
B42 O3 1.482928 1_555
B42 O57 1.483299 1_555
B42 O83 1.495123 1_555
B42 O66 1.517467 1_555
B43 O39 1.461224 1_555
B43 O2 1.489743 1_555
B43 O103 1.493658 1_555
B43 O51 1.500824 1_555
B44 O15 1.461250 1_555
B44 O99 1.489737 1_554
B44 O26 1.493659 1_565
B44 O73 1.500830 1_555
B45 O81 1.470749 1_556
B45 O89 1.495224 1_555
B45 O36 1.496378 1_555
B45 O16 1.499549 1_555
B46 O8 1.461250 1_555
B46 O75 1.489737 1_555
B46 O19 1.493659 1_555
B46 O18 1.500823 1_655
B47 O74 1.470754 1_555
B47 O77 1.495217 1_555
B47 O55 1.496365 1_554
B47 O66 1.499557 1_555
O0 Ti7 1.958069 1_555
O0 Ti0 1.974049 1_556
O1 Ti6 2.027323 1_555
O2 Ti7 2.027323 1_565
O3 Ti8 2.225531 1_555
O4 Ti5 2.023477 1_555
O5 Ti10 2.065412 1_655
O6 Ti12 2.134429 1_555
O7 Ti10 2.134429 1_555
O8 Ti3 1.958069 1_545
O8 Ti11 1.974049 1_545
O9 Ti17 1.958069 1_555
O9 Ti18 1.974049 1_555
O10 Ti14 1.958080 1_555
O10 Ti9 1.974055 1_555
O11 Ti16 1.958080 1_455
O11 Ti6 1.974055 1_555
O12 Ti2 2.027323 1_555
O13 Ti15 2.225531 1_655
O14 Ti2 2.134429 1_556
O15 Ti5 1.958069 1_565
O15 Ti12 1.974049 1_554
O16 Ti14 2.134429 1_555
O17 Ti3 2.134429 1_555
O18 Ti8 2.225536 1_556
O19 Ti1 2.065412 1_555
O20 Ti3 2.065412 1_545
O21 Ti3 2.027323 1_555
O22 Ti13 2.225536 1_565
O23 Ti1 2.134429 1_454
O24 Ti18 2.134429 1_555
O25 Ti18 2.027323 1_555
O26 Ti9 2.065412 1_555
O27 Ti7 2.023477 1_565
O28 Ti15 2.225537 1_555
O29 Ti0 2.134429 1_555
O30 Ti19 2.225531 1_556
O31 Ti9 1.958069 1_555
O31 Ti14 1.974049 1_555
O32 Ti18 2.065412 1_555
O33 Ti11 2.023477 1_455
O34 Ti10 2.023477 1_554
O35 Ti1 2.023483 1_555
O36 Ti12 2.065412 1_555
O37 Ti9 2.134429 1_555
O38 Ti11 2.027323 1_455
O39 Ti12 1.958080 1_555
O39 Ti5 1.974055 1_566
O40 Ti0 2.027323 1_555
O41 Ti6 2.023477 1_555
O42 Ti2 2.065412 1_555
O43 Ti14 2.023483 1_555
O44 Ti13 2.093937 1_565
O45 Ti13 2.093937 1_555
O46 Ti0 1.958080 1_555
O46 Ti7 1.974055 1_554
O47 Ti5 2.065412 1_555
O48 Ti4 2.134429 1_555
O49 Ti19 2.225531 1_555
O50 Ti11 1.958058 1_555
O50 Ti3 1.974054 1_555
O51 Ti19 2.225537 1_556
O52 Ti1 1.958069 1_555
O52 Ti4 1.974049 1_556
O53 Ti16 2.023483 1_555
O54 Ti9 2.027323 1_555
O55 Ti6 2.065412 1_555
O56 Ti16 2.134429 1_565
O57 Ti5 2.027323 1_555
O58 Ti10 1.958058 1_655
O58 Ti2 1.974054 1_656
O59 Ti4 2.065412 1_555
O60 Ti12 2.023483 1_554
O61 Ti17 2.134429 1_555
O62 Ti0 2.065412 1_555
O63 Ti3 2.023483 1_455
O64 Ti0 2.023483 1_566
O65 Ti9 2.023477 1_555
O66 Ti7 2.134429 1_554
O67 Ti11 2.134429 1_555
O68 Ti13 2.225531 1_555
O69 Ti6 2.134429 1_555
O70 Ti8 2.225536 1_555
O71 Ti11 2.065412 1_455
O72 Ti15 2.225531 1_655
O73 Ti13 2.225531 1_565
O74 Ti8 2.093937 1_555
O75 Ti16 2.027323 1_555
O76 Ti17 2.065412 1_555
O77 Ti17 2.023483 1_555
O78 Ti5 2.134429 1_556
O79 Ti4 1.958058 1_555
O79 Ti1 1.974054 1_554
O80 Ti8 2.225531 1_556
O81 Ti19 2.093937 1_555
O82 Ti2 1.958069 1_555
O82 Ti10 1.974049 1_554
O83 Ti18 2.023477 1_555
O84 Ti13 2.225536 1_555
O85 Ti19 2.225537 1_555
O86 Ti18 1.958058 1_555
O86 Ti17 1.974054 1_555
O87 Ti19 2.093937 1_555
O88 Ti2 2.023483 1_555
O89 Ti4 2.023477 1_556
O90 Ti6 1.958069 1_555
O90 Ti16 1.974049 1_455
O91 Ti16 2.065412 1_555
O92 Ti4 2.027323 1_555
O93 Ti14 2.027323 1_555
O94 Ti1 2.027323 1_555
O95 Ti15 2.093937 1_655
O96 Ti7 2.065412 1_565
O97 Ti15 2.093937 1_555
O98 Ti17 2.027323 1_555
O99 Ti10 2.027323 1_555
O100 Ti15 2.225537 1_555
O101 Ti12 2.027323 1_555
O102 Ti8 2.093937 1_555
O103 Ti14 2.065412 1_555
