# generated using pymatgen
data_LiCr2(PO4)3
_symmetry_space_group_name_H-M   'P 1'
_cell_length_a   8.50931650
_cell_length_b   8.50931650
_cell_length_c   8.60979907
_cell_angle_alpha   60.99222324
_cell_angle_beta   60.99222324
_cell_angle_gamma   59.97923812
_symmetry_Int_Tables_number   1
_chemical_formula_structural   LiCr2(PO4)3
_chemical_formula_sum   'Li2 Cr4 P6 O24'
_cell_volume   447.24991024
_cell_formula_units_Z   2
loop_
 _symmetry_equiv_pos_site_id
 _symmetry_equiv_pos_as_xyz
  1  'x, y, z'
loop_
 _atom_site_type_symbol
 _atom_site_label
 _atom_site_symmetry_multiplicity
 _atom_site_fract_x
 _atom_site_fract_y
 _atom_site_fract_z
 _atom_site_occupancy
  Li  Li0  1  0.35421600  0.03111600  0.44436300  1
  Li  Li1  1  0.03111600  0.35421600  0.94436300  1
  Cr  Cr0  1  0.84912800  0.36023700  0.42445500  1
  Cr  Cr1  1  0.36023700  0.84912800  0.92445500  1
  Cr  Cr2  1  0.64869100  0.15061700  0.06872300  1
  Cr  Cr3  1  0.15061700  0.64869100  0.56872300  1
  P  P0  1  0.75147200  0.52879800  0.75711600  1
  P  P1  1  0.52879800  0.75147200  0.25711600  1
  P  P2  1  0.47375000  0.24890000  0.74069100  1
  P  P3  1  0.24890000  0.47375000  0.24069100  1
  P  P4  1  0.03837700  0.96140500  0.74692800  1
  P  P5  1  0.96140500  0.03837700  0.24692800  1
  O  O0  1  0.94532700  0.23466100  0.23393300  1
  O  O1  1  0.58639000  0.72267700  0.76206600  1
  O  O2  1  0.05725800  0.76838900  0.75038200  1
  O  O3  1  0.93860800  0.54627900  0.72076500  1
  O  O4  1  0.01127400  0.12110000  0.55983300  1
  O  O5  1  0.87928400  0.99914100  0.92351200  1
  O  O6  1  0.24128500  0.52186500  0.39569300  1
  O  O7  1  0.99914100  0.87928400  0.42351200  1
  O  O8  1  0.72267700  0.58639000  0.26206600  1
  O  O9  1  0.75778900  0.47969600  0.60613100  1
  O  O10  1  0.76838900  0.05725800  0.25038200  1
  O  O11  1  0.40704800  0.27496600  0.24141700  1
  O  O12  1  0.27496600  0.40704800  0.74141700  1
  O  O13  1  0.06104800  0.45382700  0.28763700  1
  O  O14  1  0.28292100  0.62873600  0.04828900  1
  O  O15  1  0.62873600  0.28292100  0.54828900  1
  O  O16  1  0.23466100  0.94532700  0.73393300  1
  O  O17  1  0.54627900  0.93860800  0.22076500  1
  O  O18  1  0.72678100  0.37026700  0.94966900  1
  O  O19  1  0.37026700  0.72678100  0.44966900  1
  O  O20  1  0.45382700  0.06104800  0.78763700  1
  O  O21  1  0.52186500  0.24128500  0.89569300  1
  O  O22  1  0.47969600  0.75778900  0.10613100  1
  O  O23  1  0.12110000  0.01127400  0.05983300  1
loop_
_geom_bond_atom_site_label_1
_geom_bond_atom_site_label_2
_geom_bond_distance
_geom_bond_site_symmetry_2
Li0 O17 2.031696 1_545
Li0 O11 2.053298 1_555
Li0 O16 2.074054 1_545
Li0 O4 2.404008 1_555
Li0 O19 2.502915 1_545
Li1 O3 2.031696 1_455
Li1 O12 2.053298 1_555
Li1 O0 2.074054 1_456
Li1 O23 2.404008 1_556
Li1 O18 2.502915 1_455
Cr0 O8 1.895661 1_555
Cr0 O9 1.912206 1_555
Cr0 O15 1.923986 1_555
Cr0 O13 1.934089 1_655
Cr0 O4 1.962923 1_655
Cr0 O0 2.006269 1_555
Cr1 O1 1.895661 1_555
Cr1 O22 1.912206 1_556
Cr1 O14 1.923986 1_556
Cr1 O20 1.934089 1_565
Cr1 O23 1.962923 1_566
Cr1 O16 2.006269 1_555
Cr2 O21 1.894912 1_554
Cr2 O10 1.909216 1_555
Cr2 O18 1.926066 1_554
Cr2 O5 1.930699 1_544
Cr2 O17 1.975851 1_545
Cr2 O11 1.985452 1_555
Cr3 O6 1.894912 1_555
Cr3 O2 1.909216 1_555
Cr3 O19 1.926066 1_555
Cr3 O7 1.930699 1_455
Cr3 O3 1.975851 1_455
Cr3 O12 1.985452 1_555
O0 P5 1.557529 1_555
O1 P0 1.545327 1_555
O2 P4 1.554833 1_555
O3 P0 1.537637 1_555
O4 P4 1.555102 1_545
O5 P4 1.513147 1_655
O6 P3 1.540234 1_555
O7 P5 1.513147 1_565
O8 P1 1.545327 1_555
O9 P0 1.517851 1_555
O10 P5 1.554833 1_555
O11 P3 1.546741 1_555
O12 P2 1.546741 1_555
O13 P3 1.524916 1_555
O14 P3 1.537964 1_555
O15 P2 1.537964 1_555
O16 P4 1.557529 1_555
O17 P1 1.537637 1_555
O18 P0 1.545686 1_555
O19 P1 1.545686 1_555
O20 P2 1.524916 1_555
O21 P2 1.540234 1_555
O22 P1 1.517851 1_555
O23 P5 1.555102 1_455
