# generated using pymatgen
data_K2Ta2(OF2)3
_symmetry_space_group_name_H-M   'P 1'
_cell_length_a   5.68397300
_cell_length_b   10.42909200
_cell_length_c   14.77338900
_cell_angle_alpha   90.00000000
_cell_angle_beta   90.00000000
_cell_angle_gamma   90.00000000
_symmetry_Int_Tables_number   1
_chemical_formula_structural   K2Ta2(OF2)3
_chemical_formula_sum   'K8 Ta8 O12 F24'
_cell_volume   875.74695979
_cell_formula_units_Z   4
loop_
 _symmetry_equiv_pos_site_id
 _symmetry_equiv_pos_as_xyz
  1  'x, y, z'
loop_
 _atom_site_type_symbol
 _atom_site_label
 _atom_site_symmetry_multiplicity
 _atom_site_fract_x
 _atom_site_fract_y
 _atom_site_fract_z
 _atom_site_occupancy
  K  K0  1  0.25000000  0.24276400  0.20929600  1
  K  K1  1  0.75000000  0.75723600  0.79070400  1
  K  K2  1  0.25000000  0.74276400  0.29070400  1
  K  K3  1  0.75000000  0.25723600  0.70929600  1
  K  K4  1  0.25000000  0.44268600  0.89873500  1
  K  K5  1  0.75000000  0.55731400  0.10126500  1
  K  K6  1  0.25000000  0.94268600  0.60126500  1
  K  K7  1  0.75000000  0.05731400  0.39873500  1
  Ta  Ta0  1  0.25000000  0.28289400  0.49150900  1
  Ta  Ta1  1  0.75000000  0.71710600  0.50849100  1
  Ta  Ta2  1  0.25000000  0.78289400  0.00849100  1
  Ta  Ta3  1  0.75000000  0.21710600  0.99150900  1
  Ta  Ta4  1  0.25000000  0.06572300  0.85253700  1
  Ta  Ta5  1  0.75000000  0.93427700  0.14746300  1
  Ta  Ta6  1  0.25000000  0.56572300  0.64746300  1
  Ta  Ta7  1  0.75000000  0.43427700  0.35253700  1
  O  O0  1  0.50087600  0.86746300  0.07187100  1
  O  O1  1  0.00087600  0.13253700  0.92812900  1
  O  O2  1  0.99912400  0.36746300  0.42812900  1
  O  O3  1  0.49912400  0.63253700  0.57187100  1
  O  O4  1  0.49912400  0.13253700  0.92812900  1
  O  O5  1  0.99912400  0.86746300  0.07187100  1
  O  O6  1  0.00087600  0.63253700  0.57187100  1
  O  O7  1  0.50087600  0.36746300  0.42812900  1
  O  O8  1  0.25000000  0.39703700  0.59416300  1
  O  O9  1  0.75000000  0.60296300  0.40583700  1
  O  O10  1  0.25000000  0.89703700  0.90583700  1
  O  O11  1  0.75000000  0.10296300  0.09416300  1
  F  F0  1  0.25000000  0.14756000  0.39526400  1
  F  F1  1  0.75000000  0.85244000  0.60473600  1
  F  F2  1  0.25000000  0.64756000  0.10473600  1
  F  F3  1  0.75000000  0.35244000  0.89526400  1
  F  F4  1  0.75000000  0.26700800  0.28549300  1
  F  F5  1  0.25000000  0.73299200  0.71450700  1
  F  F6  1  0.75000000  0.76700800  0.21450700  1
  F  F7  1  0.25000000  0.23299200  0.78549300  1
  F  F8  1  0.51469600  0.48696800  0.26045200  1
  F  F9  1  0.01469600  0.51303200  0.73954800  1
  F  F10  1  0.98530400  0.98696800  0.23954800  1
  F  F11  1  0.48530400  0.01303200  0.76045200  1
  F  F12  1  0.48530400  0.51303200  0.73954800  1
  F  F13  1  0.98530400  0.48696800  0.26045200  1
  F  F14  1  0.01469600  0.01303200  0.76045200  1
  F  F15  1  0.51469600  0.98696800  0.23954800  1
  F  F16  1  0.51624800  0.33263800  0.05230800  1
  F  F17  1  0.01624800  0.66736200  0.94769200  1
  F  F18  1  0.98375200  0.83263800  0.44769200  1
  F  F19  1  0.48375200  0.16736200  0.55230800  1
  F  F20  1  0.48375200  0.66736200  0.94769200  1
  F  F21  1  0.98375200  0.33263800  0.05230800  1
  F  F22  1  0.01624800  0.16736200  0.55230800  1
  F  F23  1  0.51624800  0.83263800  0.44769200  1
loop_
_geom_bond_atom_site_label_1
_geom_bond_atom_site_label_2
_geom_bond_distance
_geom_bond_site_symmetry_2
O0 Ta2 1.920419 1_555
O0 Ta5 1.933331 1_555
O1 Ta3 1.920419 1_455
O1 Ta4 1.933331 1_555
O2 Ta0 1.920419 1_655
O2 Ta7 1.933331 1_555
O3 Ta1 1.920419 1_555
O3 Ta6 1.933331 1_555
O4 Ta3 1.920419 1_555
O4 Ta4 1.933331 1_555
O5 Ta2 1.920419 1_655
O5 Ta5 1.933331 1_555
O6 Ta1 1.920419 1_455
O6 Ta6 1.933331 1_555
O7 Ta0 1.920419 1_555
O7 Ta7 1.933331 1_555
O8 Ta6 1.927424 1_555
O8 Ta0 1.927949 1_555
O9 Ta7 1.927424 1_555
O9 Ta1 1.927949 1_555
O10 Ta4 1.927424 1_565
O10 Ta2 1.927949 1_556
O11 Ta5 1.927424 1_545
O11 Ta3 1.927949 1_554
F0 Ta0 2.003442 1_555
F0 K0 2.921287 1_555
F0 K7 2.994218 1_555
F0 K7 2.994218 1_455
F1 Ta1 2.003442 1_555
F1 K1 2.921287 1_555
F1 K6 2.994218 1_655
F1 K6 2.994218 1_555
F2 Ta2 2.003442 1_555
F2 K2 2.921287 1_555
F2 K5 2.994218 1_555
F2 K5 2.994218 1_455
F3 Ta3 2.003442 1_555
F3 K3 2.921287 1_555
F3 K4 2.994218 1_555
F3 K4 2.994218 1_655
F4 Ta7 2.006036 1_555
F4 K7 2.753440 1_555
F4 K0 3.067245 1_655
F4 K0 3.067245 1_555
F5 Ta6 2.006036 1_555
F5 K6 2.753440 1_555
F5 K1 3.067245 1_455
F5 K1 3.067245 1_555
F6 Ta5 2.006036 1_555
F6 K5 2.753440 1_555
F6 K2 3.067245 1_655
F6 K2 3.067245 1_555
F7 Ta4 2.006036 1_555
F7 K4 2.753440 1_555
F7 K3 3.067245 1_455
F7 K3 3.067245 1_555
F8 Ta7 1.985317 1_555
F8 K5 2.803155 1_555
F8 K0 3.053043 1_555
F8 K2 3.095168 1_555
F9 Ta6 1.985317 1_555
F9 K4 2.803155 1_555
F9 K1 3.053043 1_455
F9 K3 3.095168 1_455
F10 Ta5 1.985317 1_555
F10 K7 2.803155 1_565
F10 K2 3.053043 1_655
F10 K0 3.095168 1_665
F11 Ta4 1.985317 1_555
F11 K6 2.803155 1_545
F11 K3 3.053043 1_555
F11 K1 3.095168 1_545
F12 Ta6 1.985317 1_555
F12 K4 2.803155 1_555
F12 K1 3.053043 1_555
F12 K3 3.095168 1_555
F13 Ta7 1.985317 1_555
F13 K5 2.803155 1_555
F13 K0 3.053043 1_655
F13 K2 3.095168 1_655
F14 Ta4 1.985317 1_555
F14 K6 2.803155 1_545
F14 K3 3.053043 1_455
F14 K1 3.095168 1_445
F15 Ta5 1.985317 1_555
F15 K7 2.803155 1_565
F15 K2 3.053043 1_555
F15 K0 3.095168 1_565
F16 Ta3 2.005949 1_554
F16 K5 2.789054 1_555
F16 K0 2.923637 1_555
F16 K4 2.958861 1_554
F17 Ta2 2.005949 1_556
F17 K4 2.789054 1_555
F17 K1 2.923637 1_455
F17 K5 2.958861 1_456
F18 Ta1 2.005949 1_555
F18 K7 2.789054 1_565
F18 K2 2.923637 1_655
F18 K6 2.958861 1_655
F19 Ta0 2.005949 1_555
F19 K6 2.789054 1_545
F19 K3 2.923637 1_555
F19 K7 2.958861 1_555
F20 Ta2 2.005949 1_556
F20 K4 2.789054 1_555
F20 K1 2.923637 1_555
F20 K5 2.958861 1_556
F21 Ta3 2.005949 1_554
F21 K5 2.789054 1_555
F21 K0 2.923637 1_655
F21 K4 2.958861 1_654
F22 Ta0 2.005949 1_555
F22 K6 2.789054 1_545
F22 K3 2.923637 1_455
F22 K7 2.958861 1_455
F23 Ta1 2.005949 1_555
F23 K7 2.789054 1_565
F23 K2 2.923637 1_555
F23 K6 2.958861 1_555
