# generated using pymatgen
data_Cs5Bi(MoO4)4
_symmetry_space_group_name_H-M   'P 1'
_cell_length_a   8.51353841
_cell_length_b   10.70632705
_cell_length_c   13.75972130
_cell_angle_alpha   83.81426803
_cell_angle_beta   71.87054906
_cell_angle_gamma   69.85760019
_symmetry_Int_Tables_number   1
_chemical_formula_structural   Cs5Bi(MoO4)4
_chemical_formula_sum   'Cs10 Bi2 Mo8 O32'
_cell_volume   1119.02003829
_cell_formula_units_Z   2
loop_
 _symmetry_equiv_pos_site_id
 _symmetry_equiv_pos_as_xyz
  1  'x, y, z'
loop_
 _atom_site_type_symbol
 _atom_site_label
 _atom_site_symmetry_multiplicity
 _atom_site_fract_x
 _atom_site_fract_y
 _atom_site_fract_z
 _atom_site_occupancy
  Cs  Cs0  1  0.43590500  0.54729500  0.37410400  1
  Cs  Cs1  1  0.83125300  0.43989700  0.11682200  1
  Cs  Cs2  1  0.17337300  0.55077100  0.87962200  1
  Cs  Cs3  1  0.19627100  0.94689300  0.37759900  1
  Cs  Cs4  1  0.05380500  0.04925600  0.12112800  1
  Cs  Cs5  1  0.56516800  0.74719000  0.87536200  1
  Cs  Cs6  1  0.94949600  0.94173000  0.88218900  1
  Cs  Cs7  1  0.80687900  0.04811900  0.62572500  1
  Cs  Cs8  1  0.43870800  0.24728000  0.12620500  1
  Cs  Cs9  1  0.57395400  0.44722100  0.62365600  1
  Bi  Bi0  1  0.80931200  0.74787100  0.38759300  1
  Bi  Bi1  1  0.19721500  0.24642200  0.61324700  1
  Mo  Mo0  1  0.35084600  0.14241800  0.85737400  1
  Mo  Mo1  1  0.40383800  0.85962400  0.62151300  1
  Mo  Mo2  1  0.02707800  0.36090300  0.37876900  1
  Mo  Mo3  1  0.20553700  0.64186500  0.14307300  1
  Mo  Mo4  1  0.98244500  0.63363000  0.62112600  1
  Mo  Mo5  1  0.60356500  0.13402000  0.37890200  1
  Mo  Mo6  1  0.79555800  0.35038800  0.85605200  1
  Mo  Mo7  1  0.65163200  0.85017900  0.14516200  1
  O  O0  1  0.13725700  0.51237200  0.11898600  1
  O  O1  1  0.79856500  0.24080900  0.96306900  1
  O  O2  1  0.57588000  0.89896000  0.64214900  1
  O  O3  1  0.22169800  0.39880200  0.35422500  1
  O  O4  1  0.48886400  0.77029600  0.50051200  1
  O  O5  1  0.05754800  0.73350400  0.26373800  1
  O  O6  1  0.99220200  0.27389300  0.50115700  1
  O  O7  1  0.43578200  0.09071100  0.35650500  1
  O  O8  1  0.67302700  0.24128100  0.27942200  1
  O  O9  1  0.84224600  0.51763100  0.38532100  1
  O  O10  1  0.22473400  0.01587100  0.61504700  1
  O  O11  1  0.86111400  0.48120700  0.88076200  1
  O  O12  1  0.42306100  0.56981100  0.15228300  1
  O  O13  1  0.25852800  0.01269000  0.88255600  1
  O  O14  1  0.42442000  0.91945900  0.15451700  1
  O  O15  1  0.20371700  0.75144800  0.03600600  1
  O  O16  1  0.79001100  0.59273200  0.64538900  1
  O  O17  1  0.24062800  0.25338500  0.96345000  1
  O  O18  1  0.76256500  0.73972100  0.03877100  1
  O  O19  1  0.67867100  0.76080100  0.26641700  1
  O  O20  1  0.95593800  0.74013700  0.71996000  1
  O  O21  1  0.57805800  0.42000700  0.84632600  1
  O  O22  1  0.74208500  0.98101600  0.12003400  1
  O  O23  1  0.33154400  0.75513400  0.72233700  1
  O  O24  1  0.32526700  0.23169400  0.73582900  1
  O  O25  1  0.57772300  0.07074000  0.84840300  1
  O  O26  1  0.16873000  0.47833400  0.61515600  1
  O  O27  1  0.01641100  0.72064400  0.49856600  1
  O  O28  1  0.78604900  0.98002300  0.38399100  1
  O  O29  1  0.05134400  0.25476700  0.28039300  1
  O  O30  1  0.94539200  0.25995500  0.73543300  1
  O  O31  1  0.51536500  0.22113800  0.50124800  1
loop_
_geom_bond_atom_site_label_1
_geom_bond_atom_site_label_2
_geom_bond_distance
_geom_bond_site_symmetry_2
Cs0 O3 2.885996 1_555
Cs0 O12 3.068705 1_555
Cs0 O4 3.324631 1_555
Cs0 O8 3.351814 1_555
Cs0 O27 3.383168 1_555
Cs0 O9 3.414262 1_555
Cs0 O19 3.508612 1_555
Cs0 O26 3.557233 1_555
Cs0 O31 3.674919 1_555
Cs1 O0 2.972435 1_655
Cs1 O12 3.164091 1_555
Cs1 O11 3.172457 1_554
Cs1 O18 3.186635 1_555
Cs1 O8 3.227061 1_555
Cs1 O1 3.292904 1_554
Cs1 O29 3.407417 1_655
Cs1 O17 3.482192 1_654
Cs2 O11 2.992876 1_455
Cs2 O21 3.142288 1_555
Cs2 O17 3.187416 1_555
Cs2 O0 3.205661 1_556
Cs2 O23 3.237184 1_555
Cs2 O15 3.322289 1_556
Cs2 O20 3.368946 1_455
Cs2 O18 3.526391 1_456
Cs3 O7 2.882828 1_565
Cs3 O14 3.061386 1_555
Cs3 O27 3.328992 1_555
Cs3 O28 3.360521 1_455
Cs3 O4 3.365894 1_555
Cs3 O29 3.384115 1_565
Cs3 O10 3.523457 1_565
Cs3 O5 3.584678 1_555
Cs3 O6 3.663481 1_465
Cs4 O22 2.989889 1_445
Cs4 O14 3.137281 1_545
Cs4 O13 3.195846 1_554
Cs4 O15 3.199802 1_545
Cs4 O29 3.259267 1_555
Cs4 O17 3.352291 1_554
Cs4 O8 3.385343 1_455
Cs4 O1 3.545204 1_454
Cs5 O11 3.097179 1_555
Cs5 O13 3.113533 1_565
Cs5 O15 3.170077 1_556
Cs5 O18 3.179069 1_556
Cs5 O23 3.293611 1_555
Cs5 O20 3.328739 1_555
Cs5 O16 3.404414 1_555
Cs5 O2 3.426690 1_555
Cs5 O25 3.478787 1_565
Cs5 O21 3.528702 1_555
Cs6 O13 2.980740 1_665
Cs6 O25 3.147740 1_565
Cs6 O1 3.191709 1_565
Cs6 O22 3.192829 1_556
Cs6 O20 3.244186 1_555
Cs6 O18 3.329372 1_556
Cs6 O23 3.380501 1_655
Cs6 O15 3.492695 1_656
Cs7 O2 2.877061 1_545
Cs7 O25 3.060596 1_555
Cs8 O22 3.106363 1_545
Cs8 O0 3.119762 1_555
Cs8 O1 3.168132 1_554
Cs8 O17 3.179007 1_554
Cs8 O29 3.299038 1_555
Cs8 O8 3.305780 1_555
Cs8 O3 3.363658 1_555
Cs8 O7 3.418644 1_555
Cs8 O12 3.462807 1_555
Cs8 O14 3.529143 1_545
Cs9 O16 2.883772 1_555
Cs9 O21 3.056254 1_555
Cs9 O31 3.343279 1_555
Cs9 O6 3.369263 1_555
Cs9 O26 3.387866 1_555
Cs9 O23 3.391996 1_555
Cs9 O9 3.539991 1_555
Cs9 O24 3.571118 1_555
Cs9 O4 3.624266 1_555
Bi0 O5 2.232829 1_655
Bi0 O19 2.243778 1_555
Bi0 O9 2.385600 1_555
Bi0 O28 2.420725 1_555
Bi0 O27 2.598236 1_655
Bi0 O4 2.627900 1_555
Bi1 O24 2.242078 1_555
Bi1 O30 2.244844 1_455
Bi1 O10 2.395920 1_555
Bi1 O26 2.412430 1_555
Bi1 O6 2.595310 1_455
Bi1 O31 2.602279 1_555
Mo0 O13 1.773547 1_555
Mo0 O17 1.782106 1_555
Mo0 O25 1.784973 1_555
Mo0 O24 1.869981 1_555
Mo1 O2 1.764288 1_555
Mo1 O23 1.778567 1_555
Mo1 O4 1.824005 1_555
Mo1 O10 1.851203 1_565
Mo2 O3 1.763316 1_555
Mo2 O29 1.778199 1_555
Mo2 O6 1.825690 1_455
Mo2 O9 1.850868 1_455
Mo3 O0 1.773081 1_555
Mo3 O15 1.782210 1_555
Mo3 O12 1.783755 1_555
Mo3 O5 1.872035 1_555
Mo4 O16 1.763337 1_555
Mo4 O20 1.779490 1_555
Mo4 O27 1.827266 1_655
Mo4 O26 1.848971 1_655
Mo5 O7 1.763882 1_555
Mo5 O8 1.779699 1_555
Mo5 O31 1.826783 1_555
Mo5 O28 1.848134 1_545
Mo6 O11 1.774210 1_555
Mo6 O1 1.782088 1_555
Mo6 O21 1.784496 1_555
Mo6 O30 1.870113 1_555
Mo7 O22 1.774148 1_555
Mo7 O18 1.782412 1_555
Mo7 O14 1.784942 1_555
Mo7 O19 1.869651 1_555
