# generated using pymatgen
data_Sr18Ni13O42
_symmetry_space_group_name_H-M   'P 1'
_cell_length_a   13.24127031
_cell_length_b   13.24127031
_cell_length_c   13.24126977
_cell_angle_alpha   41.93527304
_cell_angle_beta   41.93527304
_cell_angle_gamma   41.93527689
_symmetry_Int_Tables_number   1
_chemical_formula_structural   Sr18Ni13O42
_chemical_formula_sum   'Sr18 Ni13 O42'
_cell_volume   937.79057409
_cell_formula_units_Z   1
loop_
 _symmetry_equiv_pos_site_id
 _symmetry_equiv_pos_as_xyz
  1  'x, y, z'
loop_
 _atom_site_type_symbol
 _atom_site_label
 _atom_site_symmetry_multiplicity
 _atom_site_fract_x
 _atom_site_fract_y
 _atom_site_fract_z
 _atom_site_occupancy
  Sr  Sr0  1  0.72126800  0.00424900  0.36209900  1
  Sr  Sr1  1  0.00424900  0.36209900  0.72126800  1
  Sr  Sr2  1  0.41164900  0.08259600  0.75821400  1
  Sr  Sr3  1  0.36209900  0.72126800  0.00424900  1
  Sr  Sr4  1  0.75821400  0.41164900  0.08259600  1
  Sr  Sr5  1  0.79436500  0.13446500  0.48969000  1
  Sr  Sr6  1  0.08259600  0.75821400  0.41164900  1
  Sr  Sr7  1  0.13446500  0.48969000  0.79436500  1
  Sr  Sr8  1  0.49596500  0.21222100  0.87310900  1
  Sr  Sr9  1  0.48969000  0.79436500  0.13446500  1
  Sr  Sr10  1  0.87310900  0.49596500  0.21222100  1
  Sr  Sr11  1  0.92078600  0.24852500  0.57823600  1
  Sr  Sr12  1  0.21222100  0.87310900  0.49596500  1
  Sr  Sr13  1  0.24852500  0.57823600  0.92078600  1
  Sr  Sr14  1  0.63555000  0.28415100  0.99727500  1
  Sr  Sr15  1  0.57823600  0.92078600  0.24852500  1
  Sr  Sr16  1  0.99727500  0.63555000  0.28415100  1
  Sr  Sr17  1  0.28415100  0.99727500  0.63555000  1
  Ni  Ni0  1  0.99933700  0.99933700  0.99933700  1
  Ni  Ni1  1  0.06811300  0.06811300  0.06811300  1
  Ni  Ni2  1  0.21608500  0.21608500  0.21608500  1
  Ni  Ni3  1  0.28514600  0.28514600  0.28514600  1
  Ni  Ni4  1  0.35771500  0.35771500  0.35771500  1
  Ni  Ni5  1  0.43129700  0.43129700  0.43129700  1
  Ni  Ni6  1  0.50001600  0.50001600  0.50001600  1
  Ni  Ni7  1  0.56872100  0.56872100  0.56872100  1
  Ni  Ni8  1  0.64202900  0.64202900  0.64202900  1
  Ni  Ni9  1  0.71537100  0.71537100  0.71537100  1
  Ni  Ni10  1  0.78459700  0.78459700  0.78459700  1
  Ni  Ni11  1  0.85805400  0.85805400  0.85805400  1
  Ni  Ni12  1  0.93103100  0.93103100  0.93103100  1
  O  O0  1  0.36651200  0.02236800  0.18142700  1
  O  O1  1  0.02236800  0.18142700  0.36651200  1
  O  O2  1  0.18142700  0.36651200  0.02236800  1
  O  O3  1  0.25116500  0.09953400  0.40318800  1
  O  O4  1  0.40318800  0.25116500  0.09953400  1
  O  O5  1  0.09953400  0.40318800  0.25116500  1
  O  O6  1  0.47002000  0.15406300  0.32480400  1
  O  O7  1  0.15406300  0.32480400  0.47002000  1
  O  O8  1  0.32480400  0.47002000  0.15406300  1
  O  O9  1  0.18121500  0.04129700  0.87135800  1
  O  O10  1  0.87135800  0.18121500  0.04129700  1
  O  O11  1  0.55073100  0.24853000  0.40058800  1
  O  O12  1  0.24853000  0.40058800  0.55073100  1
  O  O13  1  0.93062000  0.09051400  0.26045900  1
  O  O14  1  0.40058800  0.55073100  0.24853000  1
  O  O15  1  0.09051400  0.26045900  0.93062000  1
  O  O16  1  0.04129700  0.87135800  0.18121500  1
  O  O17  1  0.45904000  0.31774400  0.62420600  1
  O  O18  1  0.62420600  0.45904000  0.31774400  1
  O  O19  1  0.31774400  0.62420600  0.45904000  1
  O  O20  1  0.26045900  0.93062000  0.09051400  1
  O  O21  1  0.74732300  0.05319200  0.89967400  1
  O  O22  1  0.67972800  0.37670000  0.54222500  1
  O  O23  1  0.37670000  0.54222500  0.67972800  1
  O  O24  1  0.54222500  0.67972800  0.37670000  1
  O  O25  1  0.95808200  0.12417800  0.81777700  1
  O  O26  1  0.89967400  0.74732300  0.05319200  1
  O  O27  1  0.59833700  0.44876000  0.75295700  1
  O  O28  1  0.05319200  0.89967400  0.74732300  1
  O  O29  1  0.75295700  0.59833700  0.44876000  1
  O  O30  1  0.44876000  0.75295700  0.59833700  1
  O  O31  1  0.12417800  0.81777700  0.95808200  1
  O  O32  1  0.81777700  0.95808200  0.12417800  1
  O  O33  1  0.67565400  0.53109100  0.84558400  1
  O  O34  1  0.84558400  0.67565400  0.53109100  1
  O  O35  1  0.53109100  0.84558400  0.67565400  1
  O  O36  1  0.90073100  0.60029800  0.74935500  1
  O  O37  1  0.60029800  0.74935500  0.90073100  1
  O  O38  1  0.74935500  0.90073100  0.60029800  1
  O  O39  1  0.82328000  0.65383100  0.96993300  1
  O  O40  1  0.96993300  0.82328000  0.65383100  1
  O  O41  1  0.65383100  0.96993300  0.82328000  1
loop_
_geom_bond_atom_site_label_1
_geom_bond_atom_site_label_2
_geom_bond_distance
_geom_bond_site_symmetry_2
Ni0 O16 1.870387 1_656
Ni0 O9 1.870387 1_665
Ni0 O10 1.870388 1_566
Ni0 O25 1.873065 1_565
Ni0 O32 1.873065 1_556
Ni0 O31 1.873065 1_655
Ni1 O13 1.819630 1_455
Ni1 O15 1.819630 1_554
Ni1 O20 1.819630 1_545
Ni1 O9 1.984097 1_554
Ni1 O16 1.984097 1_545
Ni1 O10 1.984097 1_455
Ni2 O2 1.883477 1_555
Ni2 O1 1.883477 1_555
Ni2 O0 1.883477 1_555
Ni2 O3 1.921582 1_555
Ni2 O4 1.921582 1_555
Ni2 O5 1.921582 1_555
Ni3 O7 1.875061 1_555
Ni3 O8 1.875061 1_555
Ni3 O6 1.875061 1_555
Ni3 O4 1.889323 1_555
Ni3 O3 1.889323 1_555
Ni3 O5 1.889323 1_555
Ni4 O12 2.093936 1_555
Ni4 O14 2.093936 1_555
Ni4 O11 2.093936 1_555
Ni4 O8 2.119215 1_555
Ni4 O7 2.119216 1_555
Ni4 O6 2.119216 1_555
Ni5 O14 1.826543 1_555
Ni5 O12 1.826543 1_555
Ni5 O11 1.826543 1_555
Ni5 O17 1.944370 1_555
Ni5 O18 1.944371 1_555
Ni5 O19 1.944371 1_555
Ni6 O23 1.865785 1_555
Ni6 O24 1.865785 1_555
Ni6 O22 1.865786 1_555
Ni6 O18 1.881370 1_555
Ni6 O17 1.881370 1_555
Ni6 O19 1.881370 1_555
Ni7 O27 1.832886 1_555
Ni7 O29 1.832886 1_555
Ni7 O30 1.832886 1_555
Ni7 O24 1.935981 1_555
Ni7 O23 1.935981 1_555
Ni7 O22 1.935981 1_555
Ni8 O29 2.094576 1_555
Ni8 O27 2.094576 1_555
Ni8 O30 2.094576 1_555
Ni8 O33 2.131327 1_555
Ni8 O34 2.131327 1_555
Ni8 O35 2.131327 1_555
Ni9 O34 1.871948 1_555
Ni9 O33 1.871948 1_555
Ni9 O35 1.871948 1_555
Ni9 O37 1.899288 1_555
Ni9 O38 1.899288 1_555
Ni9 O36 1.899288 1_555
Ni10 O39 1.873927 1_555
Ni10 O40 1.873927 1_555
Ni10 O41 1.873927 1_555
Ni10 O38 1.892407 1_555
Ni10 O37 1.892407 1_555
Ni10 O36 1.892407 1_555
Ni11 O26 2.099940 1_556
Ni11 O28 2.099940 1_655
Ni11 O21 2.099940 1_565
Ni11 O40 2.143986 1_555
Ni11 O39 2.143986 1_555
Ni11 O41 2.143986 1_555
Ni12 O28 1.831771 1_655
Ni12 O26 1.831771 1_556
Ni12 O21 1.831771 1_565
Ni12 O32 1.943097 1_556
Ni12 O25 1.943097 1_565
Ni12 O31 1.943098 1_655
O0 Sr9 2.473778 1_545
O0 Sr12 2.554876 1_545
O0 Sr8 2.579748 1_554
O0 Sr15 2.603005 1_545
O1 Sr5 2.473778 1_455
O1 Sr10 2.554876 1_455
O1 Sr12 2.579748 1_545
O1 Sr11 2.603005 1_455
O2 Sr7 2.473778 1_554
O2 Sr8 2.554876 1_554
O2 Sr10 2.579748 1_455
O2 Sr13 2.603005 1_554
O3 Sr17 2.532176 1_545
O3 Sr12 2.577185 1_545
O3 Sr11 2.697959 1_455
O3 Sr15 2.705077 1_545
O4 Sr14 2.532176 1_554
O4 Sr8 2.577184 1_554
O4 Sr15 2.697959 1_545
O4 Sr13 2.705077 1_554
O5 Sr16 2.532176 1_455
O5 Sr10 2.577185 1_455
O5 Sr13 2.697959 1_554
O5 Sr11 2.705077 1_455
O6 Sr0 2.532772 1_555
O6 Sr14 2.634374 1_554
O6 Sr17 2.669041 1_545
O6 Sr15 2.918545 1_545
O7 Sr1 2.532772 1_555
O7 Sr17 2.634374 1_545
O7 Sr16 2.669041 1_455
O7 Sr11 2.918545 1_455
O8 Sr3 2.532772 1_555
O8 Sr16 2.634374 1_455
O8 Sr14 2.669041 1_554
O8 Sr13 2.918544 1_554
O9 Sr2 2.513177 1_555
O9 Sr3 2.620317 1_546
O9 Sr1 2.654033 1_555
O9 Sr17 2.672250 1_545
O10 Sr4 2.513177 1_555
O10 Sr1 2.620317 1_654
O10 Sr0 2.654032 1_555
O10 Sr14 2.672250 1_554
O11 Sr0 2.386375 1_555
O11 Sr4 2.833590 1_555
O11 Sr2 2.865094 1_555
O12 Sr1 2.386375 1_555
O12 Sr2 2.833590 1_555
O12 Sr6 2.865095 1_555
O13 Sr5 2.392750 1_555
O13 Sr6 2.670666 1_645
O13 Sr4 2.737981 1_555
O13 Sr0 2.770139 1_555
O14 Sr3 2.386375 1_555
O14 Sr6 2.833590 1_555
O14 Sr4 2.865095 1_555
O15 Sr7 2.392750 1_555
O15 Sr4 2.670666 1_456
O15 Sr2 2.737981 1_555
O15 Sr1 2.770139 1_555
O16 Sr6 2.513177 1_555
O16 Sr0 2.620317 1_465
O16 Sr3 2.654033 1_555
O16 Sr16 2.672250 1_455
O17 Sr2 2.503500 1_555
O17 Sr7 2.719954 1_555
O17 Sr5 2.722100 1_555
O17 Sr8 2.753772 1_555
O18 Sr4 2.503500 1_555
O18 Sr5 2.719954 1_555
O18 Sr9 2.722100 1_555
O18 Sr10 2.753773 1_555
O19 Sr6 2.503500 1_555
O19 Sr9 2.719954 1_555
O19 Sr7 2.722100 1_555
O19 Sr12 2.753773 1_555
O20 Sr9 2.392750 1_555
O20 Sr2 2.670665 1_564
O20 Sr6 2.737981 1_555
O20 Sr3 2.770139 1_555
O21 Sr8 2.418255 1_555
O21 Sr15 2.797851 1_546
O21 Sr11 2.827766 1_555
O22 Sr11 2.509319 1_555
O22 Sr10 2.692052 1_555
O22 Sr5 2.753349 1_555
O22 Sr8 2.772444 1_555
O23 Sr13 2.509319 1_555
O23 Sr8 2.692053 1_555
O23 Sr7 2.753349 1_555
O23 Sr12 2.772444 1_555
O24 Sr15 2.509319 1_555
O24 Sr12 2.692053 1_555
O24 Sr9 2.753349 1_555
O24 Sr10 2.772444 1_555
O25 Sr11 2.523118 1_555
O25 Sr17 2.650596 1_645
O25 Sr14 2.702649 1_555
O25 Sr1 2.764948 1_655
O26 Sr10 2.418255 1_555
O26 Sr13 2.797851 1_654
O26 Sr15 2.827767 1_555
O27 Sr14 2.396288 1_555
O27 Sr13 2.805655 1_555
O27 Sr11 2.863442 1_555
O28 Sr12 2.418255 1_555
O28 Sr11 2.797851 1_465
O28 Sr13 2.827767 1_555
O29 Sr16 2.396288 1_555
O29 Sr11 2.805655 1_555
O29 Sr15 2.863442 1_555
O30 Sr17 2.396288 1_555
O30 Sr15 2.805655 1_555
O30 Sr13 2.863441 1_555
O31 Sr13 2.523118 1_555
O31 Sr16 2.650596 1_456
O31 Sr17 2.702649 1_555
O31 Sr3 2.764948 1_556
O32 Sr15 2.523118 1_555
O32 Sr14 2.650596 1_564
O32 Sr16 2.702649 1_555
O32 Sr0 2.764948 1_565
O33 Sr14 2.496609 1_555
O33 Sr1 2.643292 1_655
O33 Sr3 2.707664 1_556
O33 Sr4 2.948384 1_556
O34 Sr16 2.496608 1_555
O34 Sr0 2.643292 1_565
O34 Sr1 2.707664 1_655
O34 Sr6 2.948384 1_655
O35 Sr17 2.496609 1_555
O35 Sr3 2.643291 1_556
O35 Sr0 2.707664 1_565
O35 Sr2 2.948384 1_565
O36 Sr1 2.553391 1_655
O36 Sr7 2.603955 1_655
O36 Sr4 2.738057 1_556
O36 Sr6 2.779630 1_655
O37 Sr3 2.553391 1_556
O37 Sr9 2.603955 1_556
O37 Sr2 2.738057 1_565
O37 Sr4 2.779630 1_556
O38 Sr0 2.553391 1_565
O38 Sr5 2.603955 1_565
O38 Sr6 2.738057 1_655
O38 Sr2 2.779630 1_565
O39 Sr10 2.493434 1_556
O39 Sr7 2.654831 1_655
O39 Sr9 2.684269 1_556
O39 Sr4 2.886543 1_556
O40 Sr12 2.493434 1_655
O40 Sr5 2.654831 1_565
O40 Sr7 2.684269 1_655
O40 Sr6 2.886542 1_655
O41 Sr8 2.493434 1_565
O41 Sr9 2.654830 1_556
O41 Sr5 2.684269 1_565
O41 Sr2 2.886543 1_565
