# generated using pymatgen
data_Ba9(LaS6)2
_symmetry_space_group_name_H-M   'P 1'
_cell_length_a   7.80178730
_cell_length_b   7.80178730
_cell_length_c   14.81648761
_cell_angle_alpha   84.96640101
_cell_angle_beta   84.96640101
_cell_angle_gamma   119.99894255
_symmetry_Int_Tables_number   1
_chemical_formula_structural   Ba9(LaS6)2
_chemical_formula_sum   'Ba9 La2 S12'
_cell_volume   768.91297203
_cell_formula_units_Z   1
loop_
 _symmetry_equiv_pos_site_id
 _symmetry_equiv_pos_as_xyz
  1  'x, y, z'
loop_
 _atom_site_type_symbol
 _atom_site_label
 _atom_site_symmetry_multiplicity
 _atom_site_fract_x
 _atom_site_fract_y
 _atom_site_fract_z
 _atom_site_occupancy
  Ba  Ba0  1  0.24207000  0.24207000  0.24083500  1
  Ba  Ba1  1  0.50000000  0.50000000  0.50000000  1
  Ba  Ba2  1  0.59748400  0.91978300  0.24066900  1
  Ba  Ba3  1  0.83117200  0.16882800  0.50000000  1
  Ba  Ba4  1  0.08021700  0.40251600  0.75933100  1
  Ba  Ba5  1  0.16882800  0.83117200  0.50000000  1
  Ba  Ba6  1  0.40251600  0.08021700  0.75933100  1
  Ba  Ba7  1  0.91978300  0.59748400  0.24066900  1
  Ba  Ba8  1  0.75793000  0.75793000  0.75916500  1
  La  La0  1  0.33334600  0.66665400  0.00000000  1
  La  La1  1  0.66665400  0.33334600  0.00000000  1
  S  S0  1  0.96269200  0.33098400  0.11182600  1
  S  S1  1  0.21025000  0.54333700  0.36920600  1
  S  S2  1  0.33098400  0.96269200  0.11182600  1
  S  S3  1  0.45666300  0.78975000  0.63079400  1
  S  S4  1  0.54333700  0.21025000  0.36920600  1
  S  S5  1  0.66901600  0.03730800  0.88817400  1
  S  S6  1  0.59447300  0.59447300  0.11182800  1
  S  S7  1  0.78975000  0.45666300  0.63079400  1
  S  S8  1  0.87581700  0.87581700  0.37326000  1
  S  S9  1  0.03730800  0.66901600  0.88817400  1
  S  S10  1  0.12418300  0.12418300  0.62674000  1
  S  S11  1  0.40552700  0.40552700  0.88817200  1
loop_
_geom_bond_atom_site_label_1
_geom_bond_atom_site_label_2
_geom_bond_distance
_geom_bond_site_symmetry_2
Ba0 S6 3.060798 1_555
Ba0 S8 3.169738 1_445
Ba0 S4 3.238649 1_555
Ba0 S1 3.238649 1_555
Ba0 S0 3.300927 1_455
Ba0 S2 3.300927 1_545
Ba1 S10 3.192349 1_555
Ba1 S8 3.192349 1_555
Ba1 S3 3.224595 1_555
Ba1 S7 3.224595 1_555
Ba1 S1 3.224595 1_555
Ba1 S4 3.224595 1_555
Ba2 S2 3.059364 1_555
Ba2 S8 3.172950 1_555
Ba2 S4 3.242591 1_565
Ba2 S1 3.242850 1_555
Ba2 S6 3.299183 1_555
Ba2 S0 3.299232 1_565
Ba3 S7 3.206589 1_555
Ba3 S4 3.206589 1_555
Ba3 S10 3.210636 1_655
Ba3 S8 3.210636 1_545
Ba3 S1 3.224746 1_655
Ba3 S3 3.224746 1_545
Ba4 S9 3.059364 1_555
Ba4 S10 3.172950 1_555
Ba4 S7 3.242591 1_455
Ba4 S3 3.242850 1_555
Ba4 S11 3.299183 1_555
Ba4 S5 3.299232 1_455
Ba5 S3 3.206589 1_555
Ba5 S1 3.206589 1_555
Ba5 S10 3.210636 1_565
Ba5 S8 3.210636 1_455
Ba5 S4 3.224746 1_565
Ba5 S7 3.224746 1_455
Ba6 S5 3.059364 1_555
Ba6 S10 3.172950 1_555
Ba6 S3 3.242591 1_545
Ba6 S7 3.242850 1_555
Ba6 S11 3.299183 1_555
Ba6 S9 3.299232 1_545
Ba7 S0 3.059364 1_555
Ba7 S8 3.172950 1_555
Ba7 S1 3.242591 1_655
Ba7 S4 3.242850 1_555
Ba7 S6 3.299183 1_555
Ba7 S2 3.299232 1_655
Ba8 S11 3.060798 1_555
Ba8 S10 3.169738 1_665
Ba8 S7 3.238649 1_555
Ba8 S3 3.238649 1_555
Ba8 S5 3.300927 1_565
Ba8 S9 3.300927 1_655
La0 S2 2.964564 1_555
La0 S9 2.964564 1_554
La0 S6 2.964572 1_555
La0 S11 2.964572 1_554
La0 S5 2.964926 1_564
La0 S0 2.964926 1_455
La1 S5 2.964564 1_554
La1 S0 2.964564 1_555
La1 S6 2.964572 1_555
La1 S11 2.964572 1_554
La1 S9 2.964926 1_654
La1 S2 2.964926 1_545
