# generated using pymatgen
data_GaBr2
_symmetry_space_group_name_H-M   'P 1'
_cell_length_a   12.90607392
_cell_length_b   12.90607471
_cell_length_c   12.90607415
_cell_angle_alpha   115.13786480
_cell_angle_beta   115.13786861
_cell_angle_gamma   115.13786086
_symmetry_Int_Tables_number   1
_chemical_formula_structural   GaBr2
_chemical_formula_sum   'Ga12 Br24'
_cell_volume   1187.86207201
_cell_formula_units_Z   12
loop_
 _symmetry_equiv_pos_site_id
 _symmetry_equiv_pos_as_xyz
  1  'x, y, z'
loop_
 _atom_site_type_symbol
 _atom_site_label
 _atom_site_symmetry_multiplicity
 _atom_site_fract_x
 _atom_site_fract_y
 _atom_site_fract_z
 _atom_site_occupancy
  Ga  Ga0  1  0.58696252  0.35250510  0.77355990  1
  Ga  Ga1  1  0.63580646  0.80454328  0.41847173  1
  Ga  Ga2  1  0.77355990  0.58696252  0.35250510  1
  Ga  Ga3  1  0.85250510  0.08696252  0.27355990  1
  Ga  Ga4  1  0.35250510  0.77355990  0.58696252  1
  Ga  Ga5  1  0.91847173  0.30454328  0.13580646  1
  Ga  Ga6  1  0.13580646  0.91847173  0.30454328  1
  Ga  Ga7  1  0.27355990  0.85250510  0.08696252  1
  Ga  Ga8  1  0.08696252  0.27355990  0.85250510  1
  Ga  Ga9  1  0.41847173  0.63580646  0.80454328  1
  Ga  Ga10  1  0.80454328  0.41847173  0.63580646  1
  Ga  Ga11  1  0.30454328  0.13580646  0.91847173  1
  Br  Br0  1  0.56152219  0.58602221  0.38966033  1
  Br  Br1  1  0.58602221  0.38966033  0.56152219  1
  Br  Br2  1  0.97745723  0.44102659  0.37675356  1
  Br  Br3  1  0.87675356  0.94102659  0.47745723  1
  Br  Br4  1  0.08602221  0.06152219  0.88966033  1
  Br  Br5  1  0.64846956  0.70417580  0.00024742  1
  Br  Br6  1  0.42025106  0.69989523  0.16837383  1
  Br  Br7  1  0.14846956  0.50024742  0.20417580  1
  Br  Br8  1  0.66837383  0.19989523  0.92025106  1
  Br  Br9  1  0.94102659  0.47745723  0.87675356  1
  Br  Br10  1  0.38966033  0.56152219  0.58602221  1
  Br  Br11  1  0.00024742  0.64846956  0.70417580  1
  Br  Br12  1  0.69989523  0.16837383  0.42025106  1
  Br  Br13  1  0.44102659  0.37675356  0.97745723  1
  Br  Br14  1  0.47745723  0.87675356  0.94102659  1
  Br  Br15  1  0.19989523  0.92025106  0.66837383  1
  Br  Br16  1  0.50024742  0.20417580  0.14846956  1
  Br  Br17  1  0.88966033  0.08602221  0.06152219  1
  Br  Br18  1  0.92025106  0.66837383  0.19989523  1
  Br  Br19  1  0.16837383  0.42025106  0.69989523  1
  Br  Br20  1  0.06152219  0.88966033  0.08602221  1
  Br  Br21  1  0.37675356  0.97745723  0.44102659  1
  Br  Br22  1  0.70417580  0.00024742  0.64846956  1
  Br  Br23  1  0.20417580  0.14846956  0.50024742  1
loop_
_geom_bond_atom_site_label_1
_geom_bond_atom_site_label_2
_geom_bond_distance
_geom_bond_site_symmetry_2
Br0 Ga1 2.349515 1_555
Br0 Ga2 2.968258 1_555
Br1 Ga10 2.349515 1_555
Br1 Ga0 2.968258 1_555
Br2 Ga5 2.355450 1_555
Br3 Ga1 2.355450 1_555
Br4 Ga11 2.349515 1_555
Br4 Ga8 2.968258 1_555
Br5 Ga9 2.341107 1_554
Br6 Ga1 2.336038 1_555
Br7 Ga5 2.341108 1_455
Br8 Ga5 2.336038 1_556
Br9 Ga10 2.355450 1_555
Br10 Ga9 2.349515 1_555
Br10 Ga4 2.968258 1_555
Br11 Ga10 2.341108 1_455
Br12 Ga10 2.336039 1_555
Br13 Ga11 2.355450 1_555
Br14 Ga9 2.355450 1_555
Br15 Ga11 2.336039 1_565
Br16 Ga11 2.341107 1_554
Br17 Ga5 2.349515 1_555
Br17 Ga3 2.968258 1_555
Br18 Ga6 2.336039 1_655
Br19 Ga9 2.336039 1_555
Br20 Ga6 2.349515 1_555
Br20 Ga7 2.968258 1_555
Br21 Ga6 2.355450 1_555
Br22 Ga1 2.341108 1_545
Br23 Ga6 2.341108 1_545
