# generated using pymatgen
data_NiP2O7
_symmetry_space_group_name_H-M   'P 1'
_cell_length_a   6.38004900
_cell_length_b   9.60450087
_cell_length_c   10.80494890
_cell_angle_alpha   64.30793301
_cell_angle_beta   80.94067166
_cell_angle_gamma   74.41585303
_symmetry_Int_Tables_number   1
_chemical_formula_structural   NiP2O7
_chemical_formula_sum   'Ni4 P8 O28'
_cell_volume   574.06465017
_cell_formula_units_Z   4
loop_
 _symmetry_equiv_pos_site_id
 _symmetry_equiv_pos_as_xyz
  1  'x, y, z'
loop_
 _atom_site_type_symbol
 _atom_site_label
 _atom_site_symmetry_multiplicity
 _atom_site_fract_x
 _atom_site_fract_y
 _atom_site_fract_z
 _atom_site_occupancy
  Ni  Ni0  1  0.36908700  0.24848500  0.25301800  1
  Ni  Ni1  1  0.71133700  0.11737500  0.77608400  1
  Ni  Ni2  1  0.29408000  0.88599900  0.22571800  1
  Ni  Ni3  1  0.63747600  0.76320100  0.75063400  1
  P  P0  1  0.09661700  0.61109200  0.20909200  1
  P  P1  1  0.90003300  0.39778400  0.79113700  1
  P  P2  1  0.27590500  0.22994900  0.96827300  1
  P  P3  1  0.88389100  0.14626300  0.30686100  1
  P  P4  1  0.57934300  0.15262400  0.54383600  1
  P  P5  1  0.11620200  0.85523800  0.70423700  1
  P  P6  1  0.72365900  0.77861800  0.03203200  1
  P  P7  1  0.41496300  0.85217000  0.46507400  1
  O  O0  1  0.13909100  0.77165600  0.17436900  1
  O  O1  1  0.01667500  0.46327300  0.64928400  1
  O  O2  1  0.94200500  0.64441200  0.08825700  1
  O  O3  1  0.99176500  0.99069800  0.29347500  1
  O  O4  1  0.69200200  0.23837000  0.21375500  1
  O  O5  1  0.19636500  0.90800900  0.54338000  1
  O  O6  1  0.04600200  0.24532100  0.28567600  1
  O  O7  1  0.85175300  0.23755900  0.82956500  1
  O  O8  1  0.62631800  0.72546600  0.94487500  1
  O  O9  1  0.79236200  0.09182500  0.46434800  1
  O  O10  1  0.20826600  0.06911900  0.04932500  1
  O  O11  1  0.42574200  0.99263200  0.32049900  1
  O  O12  1  0.95375300  0.75079900  0.73149100  1
  O  O13  1  0.79348700  0.93858000  0.95204100  1
  O  O14  1  0.01429200  0.01114100  0.71801800  1
  O  O15  1  0.41491000  0.21078400  0.84555300  1
  O  O16  1  0.58393200  0.79142000  0.15583500  1
  O  O17  1  0.29499000  0.48233300  0.20688200  1
  O  O18  1  0.32040900  0.75845700  0.78626700  1
  O  O19  1  0.57301500  0.01051300  0.68854000  1
  O  O20  1  0.38645900  0.20631300  0.45758700  1
  O  O21  1  0.63091800  0.27221500  0.58883600  1
  O  O22  1  0.97881800  0.53874900  0.34971300  1
  O  O23  1  0.05786400  0.36296200  0.91064700  1
  O  O24  1  0.70570100  0.52906500  0.79417200  1
  O  O25  1  0.37400600  0.73097000  0.41832600  1
  O  O26  1  0.37171500  0.28073700  0.05573200  1
  O  O27  1  0.60538600  0.80357000  0.55371700  1
loop_
_geom_bond_atom_site_label_1
_geom_bond_atom_site_label_2
_geom_bond_distance
_geom_bond_site_symmetry_2
Ni0 O17 2.012311 1_555
Ni0 O26 2.014753 1_555
Ni0 O4 2.021595 1_555
Ni0 O6 2.041982 1_555
Ni0 O20 2.082973 1_555
Ni0 O11 2.180139 1_545
Ni1 O7 1.940599 1_555
Ni1 O13 1.958971 1_545
Ni1 O21 1.968835 1_555
Ni1 O15 2.042105 1_555
Ni1 O14 2.069827 1_655
Ni1 O19 2.078050 1_555
Ni2 O0 1.943260 1_555
Ni2 O10 1.982500 1_565
Ni2 O25 2.011853 1_555
Ni2 O16 2.016808 1_555
Ni2 O3 2.102119 1_455
Ni2 O11 2.108524 1_555
Ni3 O8 1.961762 1_555
Ni3 O12 1.972187 1_555
Ni3 O18 2.007858 1_555
Ni3 O24 2.022124 1_555
Ni3 O27 2.024475 1_555
Ni3 O19 2.107504 1_565
O0 P0 1.511038 1_555
O1 P1 1.534616 1_455
O2 P6 1.610555 1_555
O2 P0 1.629041 1_655
O3 P3 1.526600 1_565
O4 P3 1.525691 1_555
O5 P7 1.602667 1_555
O5 P5 1.623213 1_555
O6 P3 1.514141 1_455
O7 P1 1.515200 1_555
O8 P6 1.518064 1_556
O9 P4 1.602051 1_555
O9 P3 1.609239 1_555
O10 P2 1.550953 1_554
O11 P7 1.566428 1_555
O12 P5 1.540602 1_655
O13 P6 1.549524 1_556
O14 P5 1.525374 1_545
O15 P2 1.527162 1_555
O16 P6 1.519017 1_555
O17 P0 1.518831 1_555
O18 P5 1.531544 1_555
O19 P4 1.571161 1_555
O20 P4 1.500764 1_555
O21 P4 1.549741 1_555
O22 P0 1.536817 1_655
O23 P2 1.607209 1_555
O23 P1 1.627072 1_455
O24 P1 1.520266 1_555
O25 P7 1.547026 1_555
O26 P2 1.498802 1_554
O27 P7 1.511730 1_555
