# generated using pymatgen
data_Sr7SmFe4(MoO6)4
_symmetry_space_group_name_H-M   'P 1'
_cell_length_a   5.63251574
_cell_length_b   22.51364333
_cell_length_c   5.67798968
_cell_angle_alpha   119.39302727
_cell_angle_beta   119.53526730
_cell_angle_gamma   90.45155408
_symmetry_Int_Tables_number   1
_chemical_formula_structural   Sr7SmFe4(MoO6)4
_chemical_formula_sum   'Sr7 Sm1 Fe4 Mo4 O24'
_cell_volume   515.31958890
_cell_formula_units_Z   1
loop_
 _symmetry_equiv_pos_site_id
 _symmetry_equiv_pos_as_xyz
  1  'x, y, z'
loop_
 _atom_site_type_symbol
 _atom_site_label
 _atom_site_symmetry_multiplicity
 _atom_site_fract_x
 _atom_site_fract_y
 _atom_site_fract_z
 _atom_site_occupancy
  Sr  Sr0  1  0.25651800  0.19125800  0.50982100  1
  Sr  Sr1  1  0.24937400  0.43644600  0.49559300  1
  Sr  Sr2  1  0.25693200  0.69616900  0.52306900  1
  Sr  Sr3  1  0.23043600  0.92500900  0.46627700  1
  Sr  Sr4  1  0.75783800  0.31334600  0.50148000  1
  Sr  Sr5  1  0.75497200  0.06370300  0.50973800  1
  Sr  Sr6  1  0.74236400  0.56128000  0.49439800  1
  Sm  Sm0  1  0.76877600  0.81326500  0.50109000  1
  Fe  Fe0  1  0.99589100  0.24919700  0.99871000  1
  Fe  Fe1  1  0.00066800  0.49980700  0.99542100  1
  Fe  Fe2  1  0.99892700  0.75075700  0.00316200  1
  Fe  Fe3  1  0.49276800  0.87064000  0.99438100  1
  Mo  Mo0  1  0.99659500  0.99734100  0.99723200  1
  Mo  Mo1  1  0.50499000  0.12661900  0.00615200  1
  Mo  Mo2  1  0.50455200  0.37581900  0.99993000  1
  Mo  Mo3  1  0.49768500  0.62519500  0.99857900  1
  O  O0  1  0.25442200  0.05972800  0.50073800  1
  O  O1  1  0.26167800  0.31537900  0.50328900  1
  O  O2  1  0.25896100  0.56486400  0.51182200  1
  O  O3  1  0.18164300  0.81158200  0.50678000  1
  O  O4  1  0.20849100  0.17649100  0.99670900  1
  O  O5  1  0.21493800  0.43034200  0.00851300  1
  O  O6  1  0.21079200  0.67031600  0.99848400  1
  O  O7  1  0.18425300  0.92224300  0.99362200  1
  O  O8  1  0.28319500  0.04762400  0.00150300  1
  O  O9  1  0.30275200  0.30791100  0.00588400  1
  O  O10  1  0.30246500  0.55250600  0.99981700  1
  O  O11  1  0.34325300  0.80463500  0.06809100  1
  O  O12  1  0.76029800  0.18798400  0.50043800  1
  O  O13  1  0.75694500  0.44023500  0.50703400  1
  O  O14  1  0.74876700  0.68493900  0.47339600  1
  O  O15  1  0.76415500  0.93423200  0.50167100  1
  O  O16  1  0.70685800  0.20178500  0.00093500  1
  O  O17  1  0.71212900  0.44950700  0.01249400  1
  O  O18  1  0.68805700  0.69636100  0.99521400  1
  O  O19  1  0.70316400  0.95195600  0.99713500  1
  O  O20  1  0.80345500  0.07504100  0.00697600  1
  O  O21  1  0.79672700  0.32486100  0.99725200  1
  O  O22  1  0.78447900  0.57392400  0.99772600  1
  O  O23  1  0.75883800  0.81970200  0.91944400  1
loop_
_geom_bond_atom_site_label_1
_geom_bond_atom_site_label_2
_geom_bond_distance
_geom_bond_site_symmetry_2
Fe0 O16 1.948330 1_556
Fe0 O12 2.026560 1_555
Fe0 O4 2.034574 1_655
Fe0 O21 2.048198 1_555
Fe0 O1 2.053137 1_656
Fe0 O9 2.139644 1_656
Fe1 O13 1.984994 1_455
Fe1 O5 1.990807 1_556
Fe1 O17 2.041363 1_456
Fe1 O10 2.048211 1_555
Fe1 O22 2.072103 1_455
Fe1 O2 2.098645 1_556
Fe2 O11 2.046374 1_655
Fe2 O3 2.084206 1_655
Fe2 O18 2.098043 1_554
Fe2 O23 2.141868 1_554
Fe2 O14 2.154616 1_554
Fe2 O6 2.173163 1_654
Fe3 O23 1.979627 1_555
Fe3 O11 2.007701 1_556
Fe3 O3 2.017524 1_555
Fe3 O15 2.063881 1_556
Fe3 O7 2.097317 1_555
Fe3 O19 2.162308 1_555
Mo0 O19 1.935864 1_555
Mo0 O8 1.947738 1_666
Mo0 O7 1.997928 1_655
Mo0 O15 2.016079 1_555
Mo0 O0 2.046464 1_666
Mo0 O20 2.059352 1_566
Mo1 O12 2.009209 1_555
Mo1 O4 2.013192 1_554
Mo1 O20 2.050098 1_555
Mo1 O16 2.051714 1_555
Mo1 O0 2.055814 1_554
Mo1 O8 2.147250 1_555
Mo2 O9 1.921387 1_556
Mo2 O17 1.973659 1_556
Mo2 O21 2.015437 1_555
Mo2 O1 2.018853 1_555
Mo2 O5 2.054598 1_556
Mo2 O13 2.060997 1_556
Mo3 O6 1.915387 1_555
Mo3 O14 1.931079 1_556
Mo3 O18 1.934003 1_555
Mo3 O10 1.969210 1_555
Mo3 O2 1.978353 1_555
Mo3 O22 1.993356 1_555
O0 Sr5 2.794437 1_555
O0 Sr5 2.840018 1_455
O0 Sr0 2.936079 1_555
O0 Sr3 2.939499 1_545
O1 Sr1 2.748242 1_555
O1 Sr4 2.800358 1_555
O1 Sr0 2.812916 1_555
O1 Sr4 2.832764 1_455
O2 Sr6 2.773267 1_555
O2 Sr1 2.846281 1_555
O2 Sr6 2.861387 1_455
O2 Sr2 2.925577 1_555
O3 Sm0 2.310596 1_455
O3 Sr2 2.674789 1_555
O3 Sr3 2.697646 1_555
O4 Sr5 2.580823 1_455
O4 Sr0 2.634891 1_556
O4 Sr0 3.076442 1_555
O4 Sr4 3.117680 1_556
O5 Sr1 2.608234 1_555
O5 Sr4 2.645123 1_454
O5 Sr6 2.987480 1_555
O5 Sr1 3.080208 1_554
O6 Sr6 2.595237 1_455
O6 Sr2 2.609783 1_556
O7 Sm0 2.457435 1_455
O7 Sr3 2.534042 1_556
O7 Sr5 3.233253 1_566
O8 Sr5 2.630387 1_555
O8 Sr3 2.793954 1_544
O8 Sr5 3.098095 1_454
O8 Sr0 3.175468 1_555
O9 Sr0 2.627461 1_554
O9 Sr4 2.655091 1_555
O9 Sr1 3.022515 1_555
O9 Sr4 3.053045 1_454
O10 Sr6 2.579156 1_556
O10 Sr1 2.629449 1_555
O10 Sr6 3.141254 1_455
O11 Sm0 2.353915 1_555
O11 Sr2 2.618449 1_554
O11 Sr3 2.879070 1_555
O12 Sr0 2.768790 1_655
O12 Sr4 2.819614 1_555
O12 Sr5 2.824511 1_555
O12 Sr0 2.865038 1_555
O13 Sr6 2.761893 1_555
O13 Sr1 2.807199 1_655
O13 Sr1 2.827088 1_555
O13 Sr4 2.841461 1_555
O14 Sr2 2.731047 1_655
O14 Sm0 2.813486 1_555
O14 Sr6 2.845136 1_555
O14 Sr2 2.920485 1_555
O15 Sm0 2.722136 1_555
O15 Sr3 2.732974 1_655
O15 Sr5 2.893935 1_565
O15 Sr3 2.911046 1_555
O16 Sr0 2.575721 1_554
O16 Sr4 2.577862 1_555
O16 Sr5 3.124737 1_554
O16 Sr0 3.139140 1_655
O17 Sr6 2.573600 1_555
O17 Sr1 2.663224 1_554
O17 Sr1 3.064268 1_655
O17 Sr4 3.146489 1_554
O18 Sr2 2.579502 1_555
O18 Sm0 2.580139 1_556
O18 Sr6 3.132400 1_555
O19 Sr3 2.609595 1_555
O19 Sr5 2.617108 1_566
O20 Sr5 2.577241 1_554
O20 Sr0 2.624562 1_655
O20 Sr5 3.125967 1_555
O21 Sr1 2.574229 1_656
O21 Sr4 2.591176 1_555
O21 Sr0 3.057297 1_555
O21 Sr4 3.107719 1_556
O22 Sr6 2.614734 1_555
O22 Sr2 2.748416 1_656
O22 Sr1 3.084055 1_555
O22 Sr6 3.088161 1_556
O23 Sm0 2.336668 1_555
O23 Sr3 2.619311 1_656
O23 Sr2 2.872481 1_555
