# generated using pymatgen
data_FeTeS2N2Cl5
_symmetry_space_group_name_H-M   'P 1'
_cell_length_a   12.56750300
_cell_length_b   7.64162500
_cell_length_c   12.82016925
_cell_angle_alpha   82.60648670
_cell_angle_beta   90.00000000
_cell_angle_gamma   90.00000000
_symmetry_Int_Tables_number   1
_chemical_formula_structural   FeTeS2N2Cl5
_chemical_formula_sum   'Fe4 Te4 S8 N8 Cl20'
_cell_volume   1220.96311774
_cell_formula_units_Z   4
loop_
 _symmetry_equiv_pos_site_id
 _symmetry_equiv_pos_as_xyz
  1  'x, y, z'
loop_
 _atom_site_type_symbol
 _atom_site_label
 _atom_site_symmetry_multiplicity
 _atom_site_fract_x
 _atom_site_fract_y
 _atom_site_fract_z
 _atom_site_occupancy
  Fe  Fe0  1  0.14315000  0.27303600  0.46231600  1
  Fe  Fe1  1  0.64315000  0.72696400  0.03768400  1
  Fe  Fe2  1  0.85685000  0.72696400  0.53768400  1
  Fe  Fe3  1  0.35685000  0.27303600  0.96231600  1
  Te  Te0  1  0.06192300  0.86137100  0.26013500  1
  Te  Te1  1  0.56192300  0.13862900  0.23986500  1
  Te  Te2  1  0.93807700  0.13862900  0.73986500  1
  Te  Te3  1  0.43807700  0.86137100  0.76013500  1
  S  S0  1  0.01493300  0.37306500  0.83945700  1
  S  S1  1  0.30788200  0.70875900  0.58915700  1
  S  S2  1  0.51493300  0.62693500  0.66054300  1
  S  S3  1  0.19211800  0.70875900  0.08915700  1
  S  S4  1  0.48506700  0.37306500  0.33945700  1
  S  S5  1  0.69211800  0.29124100  0.41084300  1
  S  S6  1  0.80788200  0.29124100  0.91084300  1
  S  S7  1  0.98506700  0.62693500  0.16054300  1
  N  N0  1  0.08496900  0.60514600  0.08297100  1
  N  N1  1  0.41503100  0.60514600  0.58297100  1
  N  N2  1  0.69073800  0.16332300  0.32482300  1
  N  N3  1  0.58496900  0.39485400  0.41702900  1
  N  N4  1  0.19073800  0.83667700  0.17517700  1
  N  N5  1  0.80926200  0.16332300  0.82482300  1
  N  N6  1  0.91503100  0.39485400  0.91702900  1
  N  N7  1  0.30926200  0.83667700  0.67517700  1
  Cl  Cl0  1  0.00187000  0.87717100  0.84548000  1
  Cl  Cl1  1  0.76818500  0.94248400  0.60082600  1
  Cl  Cl2  1  0.73181500  0.94248400  0.10082600  1
  Cl  Cl3  1  0.83310900  0.73598600  0.36462100  1
  Cl  Cl4  1  0.99813000  0.12282900  0.15452000  1
  Cl  Cl5  1  0.49813000  0.87717100  0.34548000  1
  Cl  Cl6  1  0.33310900  0.26401400  0.13537900  1
  Cl  Cl7  1  0.97345600  0.24170300  0.43061800  1
  Cl  Cl8  1  0.29669700  0.52659900  0.87780600  1
  Cl  Cl9  1  0.47345600  0.75829700  0.06938200  1
  Cl  Cl10  1  0.26818500  0.05751600  0.89917400  1
  Cl  Cl11  1  0.52654400  0.24170300  0.93061800  1
  Cl  Cl12  1  0.02654400  0.75829700  0.56938200  1
  Cl  Cl13  1  0.16689100  0.26401400  0.63537900  1
  Cl  Cl14  1  0.23181500  0.05751600  0.39917400  1
  Cl  Cl15  1  0.20330300  0.52659900  0.37780600  1
  Cl  Cl16  1  0.50187000  0.12282900  0.65452000  1
  Cl  Cl17  1  0.66689100  0.73598600  0.86462100  1
  Cl  Cl18  1  0.79669700  0.47340100  0.62219400  1
  Cl  Cl19  1  0.70330300  0.47340100  0.12219400  1
loop_
_geom_bond_atom_site_label_1
_geom_bond_atom_site_label_2
_geom_bond_distance
_geom_bond_site_symmetry_2
S0 Te2 2.522137 1_455
S2 Te3 2.522137 1_555
S4 Te1 2.522137 1_555
S7 Te0 2.522137 1_655
N0 S3 1.569290 1_555
N0 S7 1.623474 1_455
N1 S1 1.569290 1_555
N1 S2 1.623474 1_555
N2 S5 1.565054 1_555
N2 Te1 1.973725 1_555
N3 S5 1.569290 1_555
N3 S4 1.623474 1_555
N4 S3 1.565054 1_555
N4 Te0 1.973725 1_555
N5 S6 1.565054 1_555
N5 Te2 1.973725 1_555
N6 S6 1.569290 1_555
N6 S0 1.623474 1_655
N7 S1 1.565054 1_555
N7 Te3 1.973725 1_555
Cl0 Te2 2.402435 1_465
Cl1 Fe2 2.225400 1_555
Cl2 Fe1 2.225400 1_555
Cl3 Fe2 2.230924 1_555
Cl4 Te0 2.402435 1_645
Cl5 Te1 2.402435 1_565
Cl6 Fe3 2.230924 1_554
Cl7 Fe0 2.189891 1_655
Cl8 Fe3 2.226984 1_555
Cl9 Fe1 2.189891 1_555
Cl10 Fe3 2.225400 1_555
Cl11 Fe3 2.189891 1_555
Cl12 Fe2 2.189891 1_455
Cl13 Fe0 2.230924 1_555
Cl14 Fe0 2.225400 1_555
Cl15 Fe0 2.226984 1_555
Cl16 Te3 2.402435 1_545
Cl17 Fe1 2.230924 1_556
Cl18 Fe2 2.226984 1_555
Cl19 Fe1 2.226984 1_555
