# generated using pymatgen
data_NaNd(SO4)2
_symmetry_space_group_name_H-M   'P 1'
_cell_length_a   6.38013200
_cell_length_b   7.02654215
_cell_length_c   7.21977182
_cell_angle_alpha   99.29153400
_cell_angle_beta   96.24330201
_cell_angle_gamma   90.96091066
_symmetry_Int_Tables_number   1
_chemical_formula_structural   NaNd(SO4)2
_chemical_formula_sum   'Na2 Nd2 S4 O16'
_cell_volume   317.32877290
_cell_formula_units_Z   2
loop_
 _symmetry_equiv_pos_site_id
 _symmetry_equiv_pos_as_xyz
  1  'x, y, z'
loop_
 _atom_site_type_symbol
 _atom_site_label
 _atom_site_symmetry_multiplicity
 _atom_site_fract_x
 _atom_site_fract_y
 _atom_site_fract_z
 _atom_site_occupancy
  Na  Na0  1  0.94419700  0.30603400  0.71227900  1
  Na  Na1  1  0.05580300  0.69396600  0.28772100  1
  Nd  Nd0  1  0.36307200  0.19516900  0.20489300  1
  Nd  Nd1  1  0.63692800  0.80483100  0.79510700  1
  S  S0  1  0.86909700  0.18233100  0.21381800  1
  S  S1  1  0.13090300  0.81766900  0.78618200  1
  S  S2  1  0.44117300  0.28617400  0.71518500  1
  S  S3  1  0.55882700  0.71382600  0.28481500  1
  O  O0  1  0.59262400  0.45556600  0.74750000  1
  O  O1  1  0.40737600  0.54443400  0.25250000  1
  O  O2  1  0.29363300  0.28887600  0.54037900  1
  O  O3  1  0.70636700  0.71112400  0.45962100  1
  O  O4  1  0.75502900  0.25666900  0.37703400  1
  O  O5  1  0.24497100  0.74333100  0.62296600  1
  O  O6  1  0.99961900  0.33738900  0.15707900  1
  O  O7  1  0.00038100  0.66261100  0.84292100  1
  O  O8  1  0.98124100  0.97089800  0.74956500  1
  O  O9  1  0.01875900  0.02910200  0.25043500  1
  O  O10  1  0.30169700  0.89528700  0.94270400  1
  O  O11  1  0.69830300  0.10471300  0.05729600  1
  O  O12  1  0.68511700  0.70670800  0.12260500  1
  O  O13  1  0.31488300  0.29329200  0.87739500  1
  O  O14  1  0.43383600  0.89041000  0.30930200  1
  O  O15  1  0.56616400  0.10959000  0.69069800  1
loop_
_geom_bond_atom_site_label_1
_geom_bond_atom_site_label_2
_geom_bond_distance
_geom_bond_site_symmetry_2
Na0 O8 2.425523 1_545
Na0 O0 2.513338 1_555
Na0 O7 2.535528 1_655
Na0 O13 2.539846 1_655
Na0 O4 2.552401 1_555
Na0 O2 2.662284 1_655
Na0 O15 2.735687 1_555
Na1 O9 2.425523 1_565
Na1 O1 2.513338 1_555
Na1 O6 2.535528 1_455
Na1 O12 2.539846 1_455
Na1 O5 2.552401 1_555
Na1 O3 2.662284 1_455
Na1 O14 2.735687 1_555
Nd0 O14 2.416056 1_545
Nd0 O1 2.429812 1_555
Nd0 O2 2.494940 1_555
Nd0 O11 2.537058 1_555
Nd0 O9 2.547645 1_555
Nd0 O6 2.551471 1_455
Nd0 O13 2.556557 1_554
Nd0 O10 2.588374 1_544
Nd0 O4 2.664464 1_555
Nd1 O15 2.416056 1_565
Nd1 O0 2.429812 1_555
Nd1 O3 2.494940 1_555
Nd1 O10 2.537058 1_555
Nd1 O8 2.547645 1_555
Nd1 O7 2.551471 1_655
Nd1 O12 2.556557 1_556
Nd1 O11 2.588374 1_566
Nd1 O5 2.664464 1_555
O0 S2 1.492487 1_555
O1 S3 1.492487 1_555
O2 S2 1.493047 1_555
O3 S3 1.493047 1_555
O4 S0 1.480401 1_555
O5 S1 1.480401 1_555
O6 S0 1.495400 1_555
O7 S1 1.495400 1_555
O8 S1 1.487401 1_655
O9 S0 1.487401 1_455
O10 S1 1.508344 1_555
O11 S0 1.508344 1_555
O12 S3 1.486919 1_555
O13 S2 1.486919 1_555
O14 S3 1.483151 1_555
O15 S2 1.483151 1_555
