# generated using pymatgen
data_Cu2SiTe3
_symmetry_space_group_name_H-M   'P 1'
_cell_length_a   7.25440423
_cell_length_b   7.25440423
_cell_length_c   7.24582500
_cell_angle_alpha   80.65588644
_cell_angle_beta   80.65588644
_cell_angle_gamma   120.24562366
_symmetry_Int_Tables_number   1
_chemical_formula_structural   Cu2SiTe3
_chemical_formula_sum   'Cu4 Si2 Te6'
_cell_volume   311.42485581
_cell_formula_units_Z   2
loop_
 _symmetry_equiv_pos_site_id
 _symmetry_equiv_pos_as_xyz
  1  'x, y, z'
loop_
 _atom_site_type_symbol
 _atom_site_label
 _atom_site_symmetry_multiplicity
 _atom_site_fract_x
 _atom_site_fract_y
 _atom_site_fract_z
 _atom_site_occupancy
  Cu  Cu0  1  0.16371045  0.99153312  0.00442442  1
  Cu  Cu1  1  0.83875590  0.34001349  0.00238829  1
  Cu  Cu2  1  0.99153312  0.16371045  0.50442442  1
  Cu  Cu3  1  0.34001349  0.83875590  0.50238829  1
  Si  Si0  1  0.51506869  0.68238989  0.98594905  1
  Si  Si1  1  0.68238989  0.51506869  0.48594905  1
  Te  Te0  1  0.54318112  0.37254169  0.87128182  1
  Te  Te1  1  0.88356022  0.05052698  0.87845737  1
  Te  Te2  1  0.05052698  0.88356022  0.37845737  1
  Te  Te3  1  0.21587448  0.70890197  0.87393605  1
  Te  Te4  1  0.37254169  0.54318112  0.37128182  1
  Te  Te5  1  0.70890197  0.21587448  0.37393605  1
loop_
_geom_bond_atom_site_label_1
_geom_bond_atom_site_label_2
_geom_bond_distance
_geom_bond_site_symmetry_2
Cu0 Te1 2.549178 1_464
Cu0 Te3 2.556547 1_554
Cu0 Te2 2.563769 1_555
Cu0 Te0 2.599025 1_564
Cu1 Te5 2.545728 1_555
Cu1 Te3 2.549705 1_654
Cu1 Te1 2.554891 1_554
Cu1 Te0 2.579574 1_554
Cu2 Te2 2.549178 1_645
Cu2 Te5 2.556547 1_555
Cu2 Te1 2.563769 1_555
Cu2 Te4 2.599025 1_655
Cu3 Te3 2.545728 1_555
Cu3 Te5 2.549705 1_565
Cu3 Te2 2.554891 1_555
Cu3 Te4 2.579574 1_555
Si0 Te1 2.518174 1_565
Si0 Te3 2.519641 1_555
Si0 Te0 2.607220 1_555
Si0 Te4 2.641877 1_556
Si1 Te2 2.518174 1_655
Si1 Te5 2.519641 1_555
Si1 Te4 2.607220 1_555
Si1 Te0 2.641877 1_555
