# generated using pymatgen
data_FeGe2
_symmetry_space_group_name_H-M   'P 1'
_cell_length_a   6.57891592
_cell_length_b   6.57891490
_cell_length_c   8.17020091
_cell_angle_alpha   90.00000000
_cell_angle_beta   90.00000000
_cell_angle_gamma   104.97646595
_symmetry_Int_Tables_number   1
_chemical_formula_structural   FeGe2
_chemical_formula_sum   'Fe8 Ge16'
_cell_volume   341.61181104
_cell_formula_units_Z   8
loop_
 _symmetry_equiv_pos_site_id
 _symmetry_equiv_pos_as_xyz
  1  'x, y, z'
loop_
 _atom_site_type_symbol
 _atom_site_label
 _atom_site_symmetry_multiplicity
 _atom_site_fract_x
 _atom_site_fract_y
 _atom_site_fract_z
 _atom_site_occupancy
  Fe  Fe0  1  0.69715365  0.69715365  0.68762141  1
  Fe  Fe1  1  0.30284635  0.30284635  0.31237859  1
  Fe  Fe2  1  0.28178233  0.71821767  0.50000000  1
  Fe  Fe3  1  0.78178233  0.21821767  0.00000000  1
  Fe  Fe4  1  0.19715365  0.19715365  0.81237859  1
  Fe  Fe5  1  0.71821767  0.28178233  0.50000000  1
  Fe  Fe6  1  0.21821767  0.78178233  0.00000000  1
  Fe  Fe7  1  0.80284635  0.80284635  0.18762141  1
  Ge  Ge0  1  0.35529938  0.10063455  0.54386510  1
  Ge  Ge1  1  0.91294304  0.16638079  0.26869361  1
  Ge  Ge2  1  0.10063455  0.35529938  0.54386510  1
  Ge  Ge3  1  0.41294304  0.66638079  0.23130639  1
  Ge  Ge4  1  0.83361921  0.08705696  0.73130639  1
  Ge  Ge5  1  0.89936545  0.64470062  0.45613490  1
  Ge  Ge6  1  0.64470062  0.89936545  0.45613490  1
  Ge  Ge7  1  0.60063455  0.85529938  0.95613490  1
  Ge  Ge8  1  0.33361921  0.58705696  0.76869361  1
  Ge  Ge9  1  0.66638079  0.41294304  0.23130639  1
  Ge  Ge10  1  0.39936545  0.14470062  0.04386510  1
  Ge  Ge11  1  0.08705696  0.83361921  0.73130639  1
  Ge  Ge12  1  0.58705696  0.33361921  0.76869361  1
  Ge  Ge13  1  0.16638079  0.91294304  0.26869361  1
  Ge  Ge14  1  0.14470062  0.39936545  0.04386510  1
  Ge  Ge15  1  0.85529938  0.60063455  0.95613490  1
loop_
_geom_bond_atom_site_label_1
_geom_bond_atom_site_label_2
_geom_bond_distance
_geom_bond_site_symmetry_2
Fe0 Ge6 2.388122 1_555
Fe0 Ge5 2.388122 1_555
Fe0 Ge12 2.405844 1_555
Fe0 Ge8 2.405844 1_555
Fe0 Ge4 2.514576 1_565
Fe0 Ge11 2.514577 1_655
Fe0 Ge7 2.576812 1_555
Fe0 Ge15 2.576812 1_555
Fe1 Ge0 2.388122 1_555
Fe1 Ge2 2.388122 1_555
Fe1 Ge3 2.405844 1_555
Fe1 Ge9 2.405844 1_555
Fe1 Ge13 2.514576 1_545
Fe1 Ge1 2.514577 1_455
Fe1 Ge10 2.576812 1_555
Fe1 Ge14 2.576812 1_555
Fe2 Ge2 2.403902 1_555
Fe2 Ge6 2.403902 1_555
Fe2 Ge8 2.415003 1_555
Fe2 Ge3 2.415003 1_555
Fe2 Ge0 2.462346 1_565
Fe2 Ge5 2.462346 1_455
Fe2 Ge13 2.508325 1_555
Fe2 Ge11 2.508325 1_555
Fe3 Ge7 2.403902 1_544
Fe3 Ge14 2.403902 1_655
Fe3 Ge4 2.415003 1_554
Fe3 Ge1 2.415003 1_555
Fe3 Ge15 2.462346 1_554
Fe3 Ge10 2.462346 1_555
Fe3 Ge9 2.508325 1_555
Fe3 Ge12 2.508325 1_554
Fe4 Ge14 2.388122 1_556
Fe4 Ge10 2.388122 1_556
Fe4 Ge11 2.405844 1_545
Fe4 Ge4 2.405844 1_455
Fe4 Ge8 2.514576 1_555
Fe4 Ge12 2.514577 1_555
Fe4 Ge2 2.576812 1_555
Fe4 Ge0 2.576812 1_555
Fe5 Ge5 2.403902 1_555
Fe5 Ge0 2.403902 1_555
Fe5 Ge9 2.415003 1_555
Fe5 Ge12 2.415003 1_555
Fe5 Ge6 2.462346 1_545
Fe5 Ge2 2.462346 1_655
Fe5 Ge4 2.508325 1_555
Fe5 Ge1 2.508325 1_555
Fe6 Ge10 2.403902 1_565
Fe6 Ge15 2.403902 1_454
Fe6 Ge13 2.415003 1_555
Fe6 Ge11 2.415003 1_554
Fe6 Ge14 2.462346 1_555
Fe6 Ge7 2.462346 1_554
Fe6 Ge8 2.508325 1_554
Fe6 Ge3 2.508325 1_555
Fe7 Ge15 2.388122 1_554
Fe7 Ge7 2.388122 1_554
Fe7 Ge1 2.405844 1_565
Fe7 Ge13 2.405844 1_655
Fe7 Ge9 2.514576 1_555
Fe7 Ge3 2.514577 1_555
Fe7 Ge5 2.576812 1_555
Fe7 Ge6 2.576812 1_555
Ge0 Ge12 2.615429 1_555
Ge0 Ge11 2.635004 1_545
Ge0 Ge2 2.657979 1_555
Ge0 Ge6 2.682370 1_545
Ge0 Ge13 2.707530 1_545
Ge1 Ge9 2.591476 1_555
Ge1 Ge14 2.615429 1_655
Ge1 Ge6 2.635004 1_545
Ge1 Ge13 2.645171 1_645
Ge1 Ge2 2.707530 1_655
Ge2 Ge8 2.615429 1_555
Ge2 Ge4 2.635004 1_455
Ge2 Ge5 2.682370 1_455
Ge3 Ge6 2.615429 1_555
Ge3 Ge9 2.645171 1_555
Ge3 Ge7 2.707530 1_554
Ge4 Ge7 2.615429 1_545
Ge4 Ge6 2.707530 1_545
Ge5 Ge9 2.615429 1_555
Ge5 Ge6 2.657979 1_555
Ge7 Ge8 2.635004 1_555
Ge10 Ge13 2.615429 1_545
Ge10 Ge9 2.635004 1_555
Ge10 Ge14 2.657979 1_555
Ge10 Ge7 2.682370 1_544
Ge10 Ge12 2.707530 1_554
Ge11 Ge8 2.591476 1_555
Ge11 Ge15 2.615429 1_455
Ge11 Ge4 2.645171 1_465
Ge11 Ge5 2.707530 1_455
Ge12 Ge4 2.591476 1_555
Ge12 Ge15 2.635004 1_555
Ge12 Ge8 2.645171 1_555
Ge13 Ge3 2.591476 1_555
Ge13 Ge5 2.635004 1_455
Ge14 Ge3 2.635004 1_555
Ge14 Ge15 2.682370 1_454
Ge14 Ge8 2.707530 1_554
Ge15 Ge7 2.657979 1_555
Ge15 Ge9 2.707530 1_556
