# generated using pymatgen
data_Ba24In19N11
_symmetry_space_group_name_H-M   'P 1'
_cell_length_a   10.82763023
_cell_length_b   10.82763023
_cell_length_c   18.59667707
_cell_angle_alpha   73.46624074
_cell_angle_beta   73.46624074
_cell_angle_gamma   59.00078762
_symmetry_Int_Tables_number   1
_chemical_formula_structural   Ba24In19N11
_chemical_formula_sum   'Ba24 In19 N11'
_cell_volume   1766.11475298
_cell_formula_units_Z   1
loop_
 _symmetry_equiv_pos_site_id
 _symmetry_equiv_pos_as_xyz
  1  'x, y, z'
loop_
 _atom_site_type_symbol
 _atom_site_label
 _atom_site_symmetry_multiplicity
 _atom_site_fract_x
 _atom_site_fract_y
 _atom_site_fract_z
 _atom_site_occupancy
  Ba  Ba0  1  0.45489500  0.09277300  0.34941400  1
  Ba  Ba1  1  0.77534700  0.77534700  0.02734100  1
  Ba  Ba2  1  0.77682700  0.41612900  0.02664700  1
  Ba  Ba3  1  0.09277300  0.45489500  0.34941400  1
  Ba  Ba4  1  0.95130900  0.59635600  0.84720400  1
  Ba  Ba5  1  0.40552000  0.40552000  0.15821900  1
  Ba  Ba6  1  0.07944500  0.72051600  0.47586800  1
  Ba  Ba7  1  0.27316300  0.27316300  0.52915000  1
  Ba  Ba8  1  0.09514700  0.09514700  0.34959900  1
  Ba  Ba9  1  0.41612900  0.77682700  0.02664700  1
  Ba  Ba10  1  0.27478600  0.91804800  0.52827000  1
  Ba  Ba11  1  0.41282600  0.02111800  0.15942800  1
  Ba  Ba12  1  0.59635600  0.95130900  0.84720400  1
  Ba  Ba13  1  0.72051600  0.07944500  0.47586800  1
  Ba  Ba14  1  0.59902000  0.21638400  0.96332400  1
  Ba  Ba15  1  0.89903800  0.89903800  0.65244000  1
  Ba  Ba16  1  0.59888400  0.59888400  0.84568100  1
  Ba  Ba17  1  0.91804800  0.27478600  0.52827000  1
  Ba  Ba18  1  0.72140700  0.72140700  0.47436000  1
  Ba  Ba19  1  0.02111800  0.41282600  0.15942800  1
  Ba  Ba20  1  0.90153000  0.54339200  0.65272800  1
  Ba  Ba21  1  0.21638400  0.59902000  0.96332400  1
  Ba  Ba22  1  0.21952800  0.21952800  0.96342800  1
  Ba  Ba23  1  0.54339200  0.90153000  0.65272800  1
  In  In0  1  0.75798800  0.04798100  0.15093100  1
  In  In1  1  0.90283400  0.90283400  0.29670600  1
  In  In2  1  0.00272700  0.00272700  0.99557000  1
  In  In3  1  0.74726100  0.25289600  0.24980900  1
  In  In4  1  0.04798100  0.75798800  0.15093100  1
  In  In5  1  0.05483600  0.05483600  0.14833500  1
  In  In6  1  0.25289600  0.74726100  0.24980900  1
  In  In7  1  0.25779700  0.54511300  0.65292100  1
  In  In8  1  0.44759100  0.44759100  0.35186900  1
  In  In9  1  0.45543400  0.73445500  0.34847400  1
  In  In10  1  0.40192800  0.40192800  0.79477400  1
  In  In11  1  0.54511300  0.25779700  0.65292100  1
  In  In12  1  0.59849300  0.59849300  0.19782400  1
  In  In13  1  0.73445500  0.45543400  0.34847400  1
  In  In14  1  0.54388700  0.54388700  0.65228100  1
  In  In15  1  0.95051600  0.95051600  0.84907200  1
  In  In16  1  0.95015900  0.24644000  0.85107800  1
  In  In17  1  0.09351600  0.09351600  0.71475700  1
  In  In18  1  0.24644000  0.95015900  0.85107800  1
  N  N0  1  0.47587600  0.47587600  0.00773100  1
  N  N1  1  0.80843100  0.80843100  0.56288800  1
  N  N2  1  0.99876600  0.99876600  0.49937200  1
  N  N3  1  0.18769900  0.18769900  0.43764400  1
  N  N4  1  0.25504200  0.25504200  0.22866200  1
  N  N5  1  0.99776000  0.49624000  0.49927500  1
  N  N6  1  0.49624000  0.99776000  0.49927500  1
  N  N7  1  0.68489200  0.68489200  0.94093500  1
  N  N8  1  0.74715100  0.74715100  0.75227000  1
  N  N9  1  0.47930500  0.03449900  0.00902700  1
  N  N10  1  0.03449900  0.47930500  0.00902700  1
loop_
_geom_bond_atom_site_label_1
_geom_bond_atom_site_label_2
_geom_bond_distance
_geom_bond_site_symmetry_2
Ba0 N3 2.704392 1_555
Ba0 N6 2.762163 1_545
Ba0 N4 3.068571 1_555
Ba0 In8 3.814823 1_555
Ba0 In9 3.881740 1_545
Ba0 In1 4.108654 1_545
Ba0 In3 4.116590 1_555
Ba0 In0 4.136981 1_555
Ba1 N7 2.698159 1_554
Ba1 N9 3.012825 1_565
Ba1 N10 3.012825 1_655
Ba1 In12 3.775124 1_555
Ba1 In15 3.838380 1_554
Ba1 In2 4.130320 1_664
Ba1 In0 4.132335 1_565
Ba1 In4 4.132335 1_655
Ba2 N7 2.698009 1_554
Ba2 N0 3.084176 1_555
Ba2 N10 3.110818 1_655
Ba2 In12 3.729972 1_555
Ba2 In16 3.732707 1_554
Ba2 In2 3.967748 1_654
Ba2 In3 4.012637 1_555
Ba2 In5 4.024253 1_655
Ba2 In0 4.074138 1_555
Ba3 N3 2.704392 1_555
Ba3 N5 2.762163 1_455
Ba3 N4 3.068571 1_555
Ba3 In8 3.814823 1_555
Ba3 In13 3.881740 1_455
Ba3 In1 4.108654 1_455
Ba3 In6 4.116590 1_555
Ba3 In4 4.136981 1_555
Ba4 N7 2.742146 1_555
Ba4 N8 2.744463 1_555
Ba4 N10 3.109669 1_656
Ba4 In16 3.775286 1_555
Ba4 In15 3.840318 1_555
Ba4 In7 4.098124 1_655
Ba4 In10 4.131450 1_655
Ba5 N0 2.676495 1_555
Ba5 N4 2.707452 1_555
Ba5 In0 3.788933 1_555
Ba5 In4 3.788933 1_555
Ba5 In3 3.874320 1_555
Ba5 In6 3.874320 1_555
Ba5 In8 3.932571 1_555
Ba5 In12 3.939890 1_555
Ba6 N1 2.726280 1_455
Ba6 N2 2.802195 1_455
Ba6 N5 2.874080 1_455
Ba6 In7 3.802556 1_555
Ba6 In1 3.827424 1_455
Ba6 In8 4.056218 1_555
Ba6 In6 4.081393 1_555
Ba6 In9 4.141135 1_555
Ba7 N3 2.698706 1_555
Ba7 N6 2.791948 1_545
Ba7 N5 2.791948 1_455
Ba7 In8 3.819611 1_555
Ba7 In17 3.966848 1_555
Ba7 In11 4.138974 1_555
Ba7 In7 4.138974 1_555
Ba8 N3 2.755281 1_555
Ba8 N2 2.783697 1_445
Ba8 N4 3.115758 1_555
Ba8 In9 3.844214 1_545
Ba8 In13 3.844214 1_455
Ba8 In3 4.012133 1_455
Ba8 In6 4.012133 1_545
Ba8 In1 4.054283 1_445
Ba8 In5 4.055333 1_555
Ba9 N7 2.698009 1_554
Ba9 N0 3.084176 1_555
Ba9 N9 3.110818 1_565
Ba9 In12 3.729972 1_555
Ba9 In18 3.732707 1_554
Ba9 In2 3.967748 1_564
Ba9 In6 4.012637 1_555
Ba9 In5 4.024253 1_565
Ba9 In4 4.074138 1_555
Ba10 N3 2.742641 1_565
Ba10 N6 2.813574 1_555
Ba10 N2 2.817965 1_455
Ba10 In9 3.874639 1_555
Ba10 In17 3.940070 1_565
Ba10 In14 4.070499 1_555
Ba10 In7 4.111894 1_555
Ba11 N9 2.663268 1_555
Ba11 N4 2.671824 1_555
Ba11 In5 3.762343 1_555
Ba11 In0 3.851533 1_555
Ba11 In12 3.869471 1_545
Ba11 In6 3.925826 1_545
Ba11 In9 3.929880 1_545
Ba12 N7 2.742146 1_555
Ba12 N8 2.744463 1_555
Ba12 N9 3.109669 1_566
Ba12 In18 3.775286 1_555
Ba12 In15 3.840318 1_555
Ba12 In11 4.098124 1_565
Ba12 In10 4.131450 1_565
Ba13 N1 2.726280 1_545
Ba13 N2 2.802195 1_545
Ba13 N6 2.874080 1_545
Ba13 In11 3.802556 1_555
Ba13 In1 3.827424 1_545
Ba13 In8 4.056218 1_555
Ba13 In3 4.081393 1_555
Ba13 In13 4.141135 1_555
Ba14 N0 2.681261 1_556
Ba14 N9 2.707550 1_556
Ba14 In10 3.771213 1_555
Ba14 In15 3.857403 1_545
Ba14 In0 3.876078 1_556
Ba14 In2 3.886496 1_655
Ba14 In16 3.910141 1_555
Ba15 N1 2.747659 1_555
Ba15 N2 2.852545 1_555
Ba15 N8 2.857675 1_555
Ba15 In7 3.800239 1_655
Ba15 In11 3.800239 1_565
Ba15 In15 4.078352 1_555
Ba15 In17 4.190049 1_665
Ba16 N7 2.764693 1_555
Ba16 N8 2.766283 1_555
Ba16 N0 3.144496 1_556
Ba16 In16 3.753383 1_555
Ba16 In18 3.753383 1_555
Ba16 In14 4.055608 1_555
Ba16 In10 4.120024 1_555
Ba17 N3 2.742641 1_655
Ba17 N5 2.813574 1_555
Ba17 N2 2.817965 1_545
Ba17 In13 3.874639 1_555
Ba17 In17 3.940070 1_655
Ba17 In14 4.070499 1_555
Ba17 In11 4.111894 1_555
Ba18 N1 2.677033 1_555
Ba18 N5 2.782793 1_555
Ba18 N6 2.782793 1_555
Ba18 In14 3.860433 1_555
Ba18 In1 3.901290 1_555
Ba18 In9 4.126016 1_555
Ba18 In13 4.126016 1_555
Ba19 N10 2.663268 1_555
Ba19 N4 2.671824 1_555
Ba19 In5 3.762343 1_555
Ba19 In4 3.851533 1_555
Ba19 In12 3.869471 1_455
Ba19 In3 3.925826 1_455
Ba19 In13 3.929880 1_455
Ba20 N1 2.700524 1_555
Ba20 N8 2.802314 1_555
Ba20 N5 2.842348 1_555
Ba20 In7 3.868183 1_655
Ba20 In14 3.872041 1_555
Ba20 In16 4.102774 1_555
Ba20 In17 4.137147 1_655
Ba21 N0 2.681261 1_556
Ba21 N10 2.707550 1_556
Ba21 In10 3.771213 1_555
Ba21 In15 3.857403 1_455
Ba21 In4 3.876078 1_556
Ba21 In2 3.886496 1_565
Ba21 In18 3.910141 1_555
Ba22 N10 2.688972 1_556
Ba22 N9 2.688972 1_556
Ba22 In5 3.805196 1_556
Ba22 In10 3.821594 1_555
Ba22 In18 3.899150 1_545
Ba22 In16 3.899150 1_455
Ba22 In2 3.931552 1_555
Ba23 N1 2.700524 1_555
Ba23 N8 2.802314 1_555
Ba23 N6 2.842348 1_555
Ba23 In11 3.868183 1_565
Ba23 In14 3.872041 1_555
Ba23 In18 4.102774 1_555
Ba23 In17 4.137147 1_565
In0 In4 3.092395 1_645
In0 In1 3.120072 1_545
In0 In3 3.201965 1_555
In0 In5 3.239452 1_655
In0 In2 3.274206 1_654
In1 In4 3.120072 1_655
In1 In6 3.216027 1_655
In1 In3 3.216027 1_565
In1 In5 3.263666 1_665
In2 In4 3.274206 1_546
In2 In5 3.295457 1_556
In3 In8 3.209513 1_555
In3 In5 3.258964 1_655
In4 In6 3.201965 1_555
In4 In5 3.239452 1_565
In5 In6 3.258964 1_545
In6 In9 3.166595 1_555
In6 In8 3.209513 1_555
In8 In9 3.133021 1_555
In10 In7 3.053075 1_555
In10 In11 3.053075 1_555
In10 In14 3.089385 1_555
In11 In7 3.063849 1_555
In11 In14 3.087502 1_555
In12 In9 3.153425 1_555
In12 In13 3.153425 1_555
In12 In6 3.185970 1_555
In12 In3 3.185970 1_555
In12 In8 3.311756 1_555
In13 In9 2.975393 1_555
In13 In8 3.133021 1_555
In13 In3 3.166595 1_555
In14 In7 3.087502 1_555
In15 In17 3.016760 1_665
In15 In2 3.184930 1_665
In15 In16 3.212976 1_565
In15 In18 3.212976 1_655
In16 In17 3.013295 1_655
In16 In2 3.129757 1_655
In16 In18 3.159449 1_645
In17 In18 3.013295 1_545
In18 In2 3.129757 1_565
