# generated using pymatgen
data_Ca5Yb3Ti5Mn3O24
_symmetry_space_group_name_H-M   'P 1'
_cell_length_a   5.34502900
_cell_length_b   5.45036031
_cell_length_c   15.18827918
_cell_angle_alpha   89.86231655
_cell_angle_beta   89.96816121
_cell_angle_gamma   89.96024251
_symmetry_Int_Tables_number   1
_chemical_formula_structural   Ca5Yb3Ti5Mn3O24
_chemical_formula_sum   'Ca5 Yb3 Ti5 Mn3 O24'
_cell_volume   442.46856902
_cell_formula_units_Z   1
loop_
 _symmetry_equiv_pos_site_id
 _symmetry_equiv_pos_as_xyz
  1  'x, y, z'
loop_
 _atom_site_type_symbol
 _atom_site_label
 _atom_site_symmetry_multiplicity
 _atom_site_fract_x
 _atom_site_fract_y
 _atom_site_fract_z
 _atom_site_occupancy
  Ca  Ca0  1  0.98611200  0.04096500  0.37962800  1
  Ca  Ca1  1  0.98894400  0.04634300  0.86969100  1
  Ca  Ca2  1  0.50873500  0.54378400  0.37996400  1
  Ca  Ca3  1  0.48684700  0.45721800  0.12349000  1
  Ca  Ca4  1  0.01159000  0.95723700  0.12406100  1
  Yb  Yb0  1  0.51252100  0.55063500  0.86936800  1
  Yb  Yb1  1  0.49089000  0.44641500  0.62697000  1
  Yb  Yb2  1  0.01284600  0.94853700  0.62672200  1
  Ti  Ti0  1  0.99758500  0.50140000  0.99641600  1
  Ti  Ti1  1  0.99463100  0.49963000  0.25085600  1
  Ti  Ti2  1  0.99846000  0.49638900  0.50350000  1
  Ti  Ti3  1  0.49689000  0.99901000  0.25163400  1
  Ti  Ti4  1  0.50081700  0.00158800  0.99706300  1
  Mn  Mn0  1  0.99902000  0.49988500  0.74905800  1
  Mn  Mn1  1  0.49644200  0.99749500  0.74734300  1
  Mn  Mn2  1  0.49648300  0.99670600  0.50422500  1
  O  O0  1  0.92047400  0.52142400  0.12388000  1
  O  O1  1  0.92170600  0.51777000  0.62786600  1
  O  O2  1  0.79198300  0.79127100  0.27262100  1
  O  O3  1  0.78548600  0.78765800  0.48379000  1
  O  O4  1  0.78967400  0.78615200  0.77021500  1
  O  O5  1  0.78973600  0.79075700  0.97518700  1
  O  O6  1  0.70884500  0.29031400  0.77013900  1
  O  O7  1  0.70947300  0.29168500  0.27271600  1
  O  O8  1  0.70895300  0.28394900  0.48409000  1
  O  O9  1  0.70700800  0.29459500  0.97515500  1
  O  O10  1  0.58045800  0.02122300  0.12403200  1
  O  O11  1  0.58996700  0.02175500  0.62611400  1
  O  O12  1  0.42189800  0.98025400  0.87005800  1
  O  O13  1  0.42065200  0.98169000  0.37932600  1
  O  O14  1  0.29194300  0.71162300  0.01706300  1
  O  O15  1  0.29176300  0.71225500  0.22991600  1
  O  O16  1  0.29086200  0.71476000  0.52550800  1
  O  O17  1  0.29194300  0.71043700  0.72556300  1
  O  O18  1  0.20871600  0.21152800  0.01818700  1
  O  O19  1  0.21012000  0.21151100  0.22946900  1
  O  O20  1  0.21606700  0.20940500  0.52584600  1
  O  O21  1  0.21228100  0.21127400  0.72451000  1
  O  O22  1  0.07753700  0.48067000  0.37802200  1
  O  O23  1  0.08364200  0.48280300  0.87073700  1
loop_
_geom_bond_atom_site_label_1
_geom_bond_atom_site_label_2
_geom_bond_distance
_geom_bond_site_symmetry_2
Ca0 O13 2.344772 1_645
Ca0 O3 2.355539 1_545
Ca0 O2 2.363194 1_545
Ca0 O22 2.446258 1_655
Ca0 O8 2.543732 1_555
Ca0 O7 2.584512 1_555
Ca0 O20 2.701834 1_655
Ca0 O19 2.736303 1_655
Ca1 O4 2.332908 1_545
Ca1 O12 2.341779 1_645
Ca1 O5 2.372993 1_545
Ca1 O23 2.432552 1_655
Ca1 O6 2.507171 1_555
Ca1 O9 2.583102 1_555
Ca1 O21 2.661651 1_655
Ca1 O18 2.700270 1_656
Ca2 O22 2.330745 1_555
Ca2 O8 2.375081 1_555
Ca2 O7 2.387322 1_555
Ca2 O13 2.432415 1_555
Ca2 O3 2.541075 1_555
Ca2 O2 2.599845 1_555
Ca2 O16 2.667709 1_555
Ca2 O15 2.715365 1_555
Ca3 O0 2.344271 1_555
Ca3 O14 2.368527 1_555
Ca3 O15 2.374712 1_555
Ca3 O10 2.428091 1_555
Ca3 O19 2.561619 1_555
Ca3 O18 2.564548 1_555
Ca3 O9 2.692843 1_554
Ca3 O7 2.712673 1_555
Ca4 O10 2.330414 1_465
Ca4 O18 2.367771 1_565
Ca4 O19 2.371581 1_565
Ca4 O0 2.425090 1_455
Ca4 O15 2.569033 1_555
Ca4 O14 2.585252 1_555
Ca4 O2 2.697407 1_455
Ca4 O5 2.712301 1_454
Mn0 O1 1.889013 1_555
Mn0 O23 1.904927 1_655
Mn0 O4 1.946619 1_555
Mn0 O6 1.952679 1_555
Mn0 O17 1.973716 1_655
Mn0 O21 1.978041 1_655
Mn1 O12 1.907834 1_555
Mn1 O11 1.911940 1_565
Mn1 O17 1.938385 1_555
Mn1 O21 1.944475 1_565
Mn1 O4 1.974905 1_555
Mn1 O6 1.990354 1_565
Mn2 O16 1.916621 1_555
Mn2 O20 1.922797 1_565
Mn2 O11 1.922994 1_565
Mn2 O13 1.941968 1_555
Mn2 O3 1.944080 1_555
Mn2 O8 1.958075 1_565
O0 Ti1 1.972358 1_555
O0 Ti0 1.982370 1_554
O1 Ti2 1.936487 1_555
O1 Yb1 2.335654 1_555
O1 Yb2 2.398192 1_655
O2 Ti1 1.951644 1_555
O2 Ti3 1.966662 1_555
O3 Ti2 1.975164 1_555
O3 Yb2 2.640457 1_655
O4 Yb0 2.470036 1_555
O4 Yb2 2.635410 1_655
O5 Ti4 1.953060 1_565
O5 Ti0 1.954727 1_555
O5 Yb0 2.550862 1_555
O6 Yb0 2.322095 1_555
O6 Yb1 2.608064 1_555
O7 Ti1 1.928190 1_555
O7 Ti3 1.985852 1_545
O8 Ti2 1.956205 1_555
O8 Yb1 2.618578 1_555
O9 Ti0 1.947244 1_555
O9 Ti4 1.968554 1_555
O9 Yb0 2.366160 1_555
O10 Ti4 1.978259 1_554
O10 Ti3 1.992038 1_545
O11 Yb2 2.295005 1_645
O11 Yb1 2.374066 1_555
O12 Ti4 1.978509 1_565
O12 Yb0 2.390871 1_555
O13 Ti3 1.983586 1_555
O14 Ti4 1.958616 1_564
O14 Ti0 1.972661 1_454
O14 Yb0 2.682744 1_554
O15 Ti3 1.938786 1_555
O15 Ti1 1.991656 1_455
O16 Ti2 1.993999 1_455
O16 Yb1 2.376097 1_555
O16 Yb2 2.489809 1_555
O17 Yb1 2.334605 1_555
O17 Yb2 2.480652 1_555
O17 Yb0 2.628962 1_555
O18 Ti4 1.961783 1_554
O18 Ti0 1.968347 1_454
O19 Ti3 1.949479 1_545
O19 Ti1 1.974254 1_455
O20 Ti2 1.977374 1_455
O20 Yb2 2.353448 1_545
O20 Yb1 2.490012 1_555
O21 Yb2 2.325295 1_545
O21 Yb1 2.458852 1_555
O22 Ti2 1.953940 1_455
O22 Ti1 1.984290 1_455
O23 Ti0 1.966073 1_455
O23 Yb0 2.322319 1_555
