# generated using pymatgen
data_LiP(HO)2
_symmetry_space_group_name_H-M   'P 1'
_cell_length_a   5.48890654
_cell_length_b   5.48890654
_cell_length_c   6.58948908
_cell_angle_alpha   73.85855869
_cell_angle_beta   73.85855869
_cell_angle_gamma   60.27548247
_symmetry_Int_Tables_number   1
_chemical_formula_structural   LiP(HO)2
_chemical_formula_sum   'Li2 P2 H4 O4'
_cell_volume   163.25516409
_cell_formula_units_Z   2
loop_
 _symmetry_equiv_pos_site_id
 _symmetry_equiv_pos_as_xyz
  1  'x, y, z'
loop_
 _atom_site_type_symbol
 _atom_site_label
 _atom_site_symmetry_multiplicity
 _atom_site_fract_x
 _atom_site_fract_y
 _atom_site_fract_z
 _atom_site_occupancy
  Li  Li0  1  0.74970500  0.25029500  0.00000000  1
  Li  Li1  1  0.25029500  0.74970500  0.00000000  1
  P  P0  1  0.81045800  0.81045800  0.72560600  1
  P  P1  1  0.18954200  0.18954200  0.27439400  1
  H  H0  1  0.04669000  0.64308800  0.58435300  1
  H  H1  1  0.64308800  0.04669000  0.58435300  1
  H  H2  1  0.95331000  0.35691200  0.41564700  1
  H  H3  1  0.35691200  0.95331000  0.41564700  1
  O  O0  1  0.91683700  0.91683700  0.85570000  1
  O  O1  1  0.08316300  0.08316300  0.14430000  1
  O  O2  1  0.64362100  0.64362100  0.84291100  1
  O  O3  1  0.35637900  0.35637900  0.15708900  1
loop_
_geom_bond_atom_site_label_1
_geom_bond_atom_site_label_2
_geom_bond_distance
_geom_bond_site_symmetry_2
Li0 O0 1.978225 1_544
Li0 O1 1.978225 1_655
Li0 O3 1.979259 1_555
Li0 O2 1.979259 1_554
Li1 O0 1.978225 1_454
Li1 O1 1.978225 1_565
Li1 O3 1.979259 1_555
Li1 O2 1.979259 1_554
H0 P0 1.419421 1_455
H1 P0 1.419421 1_545
H2 P1 1.419421 1_655
H3 P1 1.419421 1_565
O0 P0 1.520364 1_555
O1 P1 1.520364 1_555
O2 P0 1.522875 1_555
O3 P1 1.522875 1_555
