# generated using pymatgen
data_PuGa6
_symmetry_space_group_name_H-M   'P 1'
_cell_length_a   5.89351700
_cell_length_b   5.89351700
_cell_length_c   7.68764900
_cell_angle_alpha   90.00000000
_cell_angle_beta   90.00000000
_cell_angle_gamma   90.00000000
_symmetry_Int_Tables_number   1
_chemical_formula_structural   PuGa6
_chemical_formula_sum   'Pu2 Ga12'
_cell_volume   267.01928426
_cell_formula_units_Z   2
loop_
 _symmetry_equiv_pos_site_id
 _symmetry_equiv_pos_as_xyz
  1  'x, y, z'
loop_
 _atom_site_type_symbol
 _atom_site_label
 _atom_site_symmetry_multiplicity
 _atom_site_fract_x
 _atom_site_fract_y
 _atom_site_fract_z
 _atom_site_occupancy
  Pu  Pu0  1  0.00000000  0.50000000  0.00000000  1
  Pu  Pu1  1  0.50000000  0.00000000  0.00000000  1
  Ga  Ga0  1  0.81607500  0.31607500  0.34989500  1
  Ga  Ga1  1  0.81607500  0.68392500  0.65010500  1
  Ga  Ga2  1  0.18392500  0.68392500  0.34989500  1
  Ga  Ga3  1  0.68392500  0.18392500  0.65010500  1
  Ga  Ga4  1  0.31607500  0.81607500  0.65010500  1
  Ga  Ga5  1  0.50000000  0.50000000  0.15698800  1
  Ga  Ga6  1  0.00000000  0.00000000  0.15698800  1
  Ga  Ga7  1  0.18392500  0.31607500  0.65010500  1
  Ga  Ga8  1  0.31607500  0.18392500  0.34989500  1
  Ga  Ga9  1  0.00000000  0.00000000  0.84301200  1
  Ga  Ga10  1  0.68392500  0.81607500  0.34989500  1
  Ga  Ga11  1  0.50000000  0.50000000  0.84301200  1
loop_
_geom_bond_atom_site_label_1
_geom_bond_atom_site_label_2
_geom_bond_distance
_geom_bond_site_symmetry_2
Ga0 Ga3 2.557262 1_555
Ga0 Ga6 2.616156 1_655
Ga0 Ga5 2.616156 1_555
Ga0 Pu0 3.096023 1_655
Ga1 Ga10 2.557262 1_555
Ga1 Ga9 2.616156 1_665
Ga1 Ga11 2.616156 1_555
Ga1 Pu0 3.096023 1_656
Ga2 Ga4 2.557262 1_555
Ga2 Ga6 2.616156 1_565
Ga2 Ga5 2.616156 1_555
Ga2 Pu0 3.096023 1_555
Ga3 Ga9 2.616156 1_655
Ga3 Pu1 3.096023 1_556
Ga4 Ga9 2.616156 1_565
Ga4 Pu1 3.096023 1_566
Ga5 Ga8 2.616156 1_555
Ga5 Pu0 3.184324 1_655
Ga5 Pu0 3.184324 1_555
Ga5 Pu1 3.184324 1_555
Ga5 Pu1 3.184324 1_565
Ga6 Ga9 2.413737 1_554
Ga6 Ga8 2.616156 1_555
Ga6 Pu0 3.184324 1_545
Ga6 Pu0 3.184324 1_555
Ga6 Pu1 3.184324 1_455
Ga6 Pu1 3.184324 1_555
Ga7 Ga8 2.557262 1_555
Ga7 Ga9 2.616156 1_555
Ga7 Pu0 3.096023 1_556
Ga8 Pu1 3.096023 1_555
Ga9 Pu0 3.184324 1_556
Ga9 Pu1 3.184324 1_556
Ga9 Pu0 3.184324 1_546
Ga9 Pu1 3.184324 1_456
Ga10 Ga6 2.616156 1_665
Ga10 Ga5 2.616156 1_555
Ga10 Pu1 3.096023 1_565
Ga11 Ga5 2.413737 1_556
Ga11 Ga7 2.616156 1_555
Ga11 Ga3 2.616156 1_555
Ga11 Ga4 2.616156 1_555
Ga11 Pu0 3.184324 1_556
Ga11 Pu0 3.184324 1_656
Ga11 Pu1 3.184324 1_556
Ga11 Pu1 3.184324 1_566
