# generated using pymatgen
data_La5C2Cl9
_symmetry_space_group_name_H-M   'P 1'
_cell_length_a   8.68967079
_cell_length_b   8.73424867
_cell_length_c   12.00864818
_cell_angle_alpha   84.85177325
_cell_angle_beta   85.60690272
_cell_angle_gamma   61.32490772
_symmetry_Int_Tables_number   1
_chemical_formula_structural   La5C2Cl9
_chemical_formula_sum   'La10 C4 Cl18'
_cell_volume   795.83412465
_cell_formula_units_Z   2
loop_
 _symmetry_equiv_pos_site_id
 _symmetry_equiv_pos_as_xyz
  1  'x, y, z'
loop_
 _atom_site_type_symbol
 _atom_site_label
 _atom_site_symmetry_multiplicity
 _atom_site_fract_x
 _atom_site_fract_y
 _atom_site_fract_z
 _atom_site_occupancy
  La  La0  1  0.87274498  0.73197288  0.72929683  1
  La  La1  1  0.12725502  0.26802712  0.27070317  1
  La  La2  1  0.20583559  0.68143382  0.49281446  1
  La  La3  1  0.39050413  0.40051231  0.78283023  1
  La  La4  1  0.79416441  0.31856618  0.50718554  1
  La  La5  1  0.89605862  0.29737267  0.99298483  1
  La  La6  1  0.60949587  0.59948769  0.21716977  1
  La  La7  1  0.76654979  0.08049387  0.25763737  1
  La  La8  1  0.23345021  0.91950613  0.74236263  1
  La  La9  1  0.10394138  0.70262733  0.00701517  1
  C  C0  1  0.85569508  0.30507325  0.18822115  1
  C  C1  1  0.82647540  0.31472710  0.31055386  1
  C  C2  1  0.17352460  0.68527290  0.68944614  1
  C  C3  1  0.14430492  0.69492675  0.81177885  1
  Cl  Cl0  1  0.48715473  0.98705281  0.23069344  1
  Cl  Cl1  1  0.51284527  0.01294719  0.76930656  1
  Cl  Cl2  1  0.78033836  0.03964165  0.02164087  1
  Cl  Cl3  1  0.54115965  0.67625446  0.44890475  1
  Cl  Cl4  1  0.45884035  0.32374554  0.55109525  1
  Cl  Cl5  1  0.21966164  0.96035835  0.97835913  1
  Cl  Cl6  1  0.39173341  0.41682414  0.27587727  1
  Cl  Cl7  1  0.08115261  0.33738288  0.76938404  1
  Cl  Cl8  1  0.17367557  0.05189466  0.50550929  1
  Cl  Cl9  1  0.50000000  0.50000000  -0.00000000  1
  Cl  Cl10  1  0.84178012  0.12700793  0.74269351  1
  Cl  Cl11  1  0.15821988  0.87299207  0.25730649  1
  Cl  Cl12  1  0.82632443  0.94810534  0.49449071  1
  Cl  Cl13  1  0.60826659  0.58317586  0.72412273  1
  Cl  Cl14  1  0.78490928  0.66937797  0.96802418  1
  Cl  Cl15  1  0.00000000  0.50000000  0.50000000  1
  Cl  Cl16  1  0.91884739  0.66261712  0.23061596  1
  Cl  Cl17  1  0.21509072  0.33062203  0.03197582  1
loop_
_geom_bond_atom_site_label_1
_geom_bond_atom_site_label_2
_geom_bond_distance
_geom_bond_site_symmetry_2
C0 C1 1.474527 1_555
C0 La5 2.346065 1_554
C0 La6 2.465211 1_555
C0 La7 2.491669 1_555
C0 La1 2.494408 1_655
C1 La4 2.357798 1_555
C1 La1 2.459063 1_655
C1 La7 2.483320 1_555
C1 La6 2.514268 1_555
C2 C3 1.474527 1_555
C2 La2 2.357798 1_555
C2 La0 2.459063 1_455
C2 La8 2.483320 1_555
C2 La3 2.514268 1_555
C3 La9 2.346065 1_556
C3 La3 2.465211 1_555
C3 La8 2.491669 1_555
C3 La0 2.494408 1_455
Cl0 La1 2.941088 1_565
Cl0 La7 2.955426 1_565
Cl0 La6 3.038748 1_555
Cl1 La0 2.941088 1_545
Cl1 La8 2.955426 1_545
Cl1 La3 3.038748 1_555
Cl2 La5 2.859601 1_554
Cl2 La7 2.874309 1_555
Cl2 La9 2.945557 1_645
Cl3 La6 2.871567 1_555
Cl3 La4 2.887095 1_555
Cl3 La2 2.900524 1_555
Cl4 La3 2.871567 1_555
Cl4 La2 2.887095 1_555
Cl4 La4 2.900524 1_555
Cl5 La9 2.859601 1_556
Cl5 La8 2.874309 1_555
Cl5 La5 2.945557 1_465
Cl6 La6 3.018976 1_555
Cl6 La1 3.142859 1_555
Cl6 La7 3.179585 1_555
Cl6 La2 3.404491 1_555
Cl7 La3 3.010193 1_555
Cl7 La0 3.038977 1_455
Cl7 La5 3.102977 1_455
Cl7 La8 3.269448 1_545
Cl8 La8 2.959143 1_545
Cl8 La4 2.987947 1_455
Cl8 La2 3.128143 1_545
Cl8 La1 3.188299 1_555
Cl9 La9 3.020092 1_555
Cl9 La5 3.020092 1_554
Cl9 La3 3.168898 1_554
Cl9 La6 3.168898 1_555
Cl10 La8 2.991310 1_645
Cl10 La4 3.103959 1_555
Cl10 La0 3.347403 1_545
Cl10 La3 3.499089 1_555
Cl10 La5 3.628223 1_555
Cl11 La7 2.991310 1_465
Cl11 La2 3.103959 1_555
Cl11 La1 3.347403 1_565
Cl11 La6 3.499089 1_555
Cl11 La9 3.628223 1_555
Cl12 La7 2.959143 1_565
Cl12 La2 2.987947 1_655
Cl12 La4 3.128143 1_565
Cl12 La0 3.188299 1_555
Cl13 La3 3.018976 1_555
Cl13 La0 3.142859 1_555
Cl13 La8 3.179585 1_555
Cl13 La4 3.404491 1_555
Cl14 La5 2.904787 1_555
Cl14 La0 2.980595 1_555
Cl14 La9 2.997505 1_656
Cl14 La6 3.393243 1_556
Cl15 La2 2.896535 1_555
Cl15 La4 2.896535 1_455
Cl15 La1 3.360735 1_555
Cl15 La0 3.360735 1_455
Cl16 La6 3.010193 1_555
Cl16 La1 3.038977 1_655
Cl16 La9 3.102977 1_655
Cl16 La7 3.269448 1_565
Cl17 La9 2.904787 1_555
Cl17 La1 2.980595 1_555
Cl17 La5 2.997505 1_454
Cl17 La3 3.393243 1_554
