# generated using pymatgen
data_Mg2PO4F
_symmetry_space_group_name_H-M   'P 1'
_cell_length_a   12.81013700
_cell_length_b   9.75317300
_cell_length_c   12.05428849
_cell_angle_alpha   71.77055823
_cell_angle_beta   90.00000000
_cell_angle_gamma   90.00000000
_symmetry_Int_Tables_number   1
_chemical_formula_structural   Mg2PO4F
_chemical_formula_sum   'Mg32 P16 O64 F16'
_cell_volume   1430.46973981
_cell_formula_units_Z   16
loop_
 _symmetry_equiv_pos_site_id
 _symmetry_equiv_pos_as_xyz
  1  'x, y, z'
loop_
 _atom_site_type_symbol
 _atom_site_label
 _atom_site_symmetry_multiplicity
 _atom_site_fract_x
 _atom_site_fract_y
 _atom_site_fract_z
 _atom_site_occupancy
  Mg  Mg0  1  0.25570300  0.70666800  0.30663400  1
  Mg  Mg1  1  0.75570300  0.29333200  0.19336600  1
  Mg  Mg2  1  0.74429700  0.29333200  0.69336600  1
  Mg  Mg3  1  0.24429700  0.70666800  0.80663400  1
  Mg  Mg4  1  0.26722400  0.30545200  0.18716400  1
  Mg  Mg5  1  0.76722400  0.69454800  0.31283600  1
  Mg  Mg6  1  0.73277600  0.69454800  0.81283600  1
  Mg  Mg7  1  0.23277600  0.30545200  0.68716400  1
  Mg  Mg8  1  0.49497400  0.79026300  0.19217300  1
  Mg  Mg9  1  0.99497400  0.20973700  0.30782700  1
  Mg  Mg10  1  0.50502600  0.20973700  0.80782700  1
  Mg  Mg11  1  0.00502600  0.79026300  0.69217300  1
  Mg  Mg12  1  0.48132600  0.19186100  0.30917100  1
  Mg  Mg13  1  0.98132600  0.80813900  0.19082900  1
  Mg  Mg14  1  0.51867400  0.80813900  0.69082900  1
  Mg  Mg15  1  0.01867400  0.19186100  0.80917100  1
  Mg  Mg16  1  0.32288200  0.96385500  0.89398300  1
  Mg  Mg17  1  0.82288200  0.03614500  0.60601700  1
  Mg  Mg18  1  0.67711800  0.03614500  0.10601700  1
  Mg  Mg19  1  0.17711800  0.96385500  0.39398300  1
  Mg  Mg20  1  0.31848900  0.04630100  0.58076600  1
  Mg  Mg21  1  0.81848900  0.95369900  0.91923400  1
  Mg  Mg22  1  0.68151100  0.95369900  0.41923400  1
  Mg  Mg23  1  0.18151100  0.04630100  0.08076600  1
  Mg  Mg24  1  0.07112400  0.55060300  0.08719400  1
  Mg  Mg25  1  0.93002100  0.53507300  0.59938900  1
  Mg  Mg26  1  0.56997900  0.53507300  0.09938900  1
  Mg  Mg27  1  0.06997900  0.46492700  0.40061100  1
  Mg  Mg28  1  0.42887600  0.55060300  0.58719400  1
  Mg  Mg29  1  0.92887600  0.44939700  0.91280600  1
  Mg  Mg30  1  0.57112400  0.44939700  0.41280600  1
  Mg  Mg31  1  0.43002100  0.46492700  0.90061100  1
  P  P0  1  0.32309500  0.62100900  0.07581600  1
  P  P1  1  0.82309500  0.37899100  0.42418400  1
  P  P2  1  0.67690500  0.37899100  0.92418400  1
  P  P3  1  0.17690500  0.62100900  0.57581600  1
  P  P4  1  0.32524800  0.38226100  0.42487400  1
  P  P5  1  0.82524800  0.61773900  0.07512600  1
  P  P6  1  0.67475200  0.61773900  0.57512600  1
  P  P7  1  0.17475200  0.38226100  0.92487400  1
  P  P8  1  0.42792900  0.87945800  0.42405400  1
  P  P9  1  0.92792900  0.12054200  0.07594600  1
  P  P10  1  0.57207100  0.12054200  0.57594600  1
  P  P11  1  0.07207100  0.87945800  0.92405400  1
  P  P12  1  0.42335900  0.11655800  0.07403200  1
  P  P13  1  0.92335900  0.88344200  0.42596800  1
  P  P14  1  0.57664100  0.88344200  0.92596800  1
  P  P15  1  0.07664100  0.11655800  0.57403200  1
  O  O0  1  0.08264200  0.47174700  0.94891900  1
  O  O1  1  0.79811800  0.26063400  0.54077000  1
  O  O2  1  0.70188200  0.26063400  0.04077000  1
  O  O3  1  0.20188200  0.73936600  0.45923000  1
  O  O4  1  0.29867100  0.26220600  0.54081900  1
  O  O5  1  0.79867100  0.73779400  0.95918100  1
  O  O6  1  0.70132900  0.73779400  0.45918100  1
  O  O7  1  0.20132900  0.26220600  0.04081900  1
  O  O8  1  0.44745500  0.76800800  0.54679000  1
  O  O9  1  0.94745500  0.23199200  0.95321000  1
  O  O10  1  0.55254500  0.23199200  0.45321000  1
  O  O11  1  0.05254500  0.76800800  0.04679000  1
  O  O12  1  0.45306700  0.24147000  0.96341600  1
  O  O13  1  0.95306700  0.75853000  0.53658400  1
  O  O14  1  0.54693300  0.75853000  0.03658400  1
  O  O15  1  0.04693300  0.24147000  0.46341600  1
  O  O16  1  0.33676900  0.98175800  0.43252100  1
  O  O17  1  0.83676900  0.01824200  0.06747900  1
  O  O18  1  0.66323100  0.01824200  0.56747900  1
  O  O19  1  0.16323100  0.98175800  0.93252100  1
  O  O20  1  0.33382300  0.02626500  0.04497400  1
  O  O21  1  0.83382300  0.97373500  0.45502600  1
  O  O22  1  0.66617700  0.97373500  0.95502600  1
  O  O23  1  0.16617700  0.02626500  0.54497400  1
  O  O24  1  0.41299500  0.52066200  0.05986700  1
  O  O25  1  0.91299500  0.47933800  0.44013300  1
  O  O26  1  0.58700500  0.47933800  0.94013300  1
  O  O27  1  0.08700500  0.52066200  0.55986700  1
  O  O28  1  0.41735800  0.47174700  0.44891900  1
  O  O29  1  0.91735800  0.52825300  0.05108100  1
  O  O30  1  0.58264200  0.52825300  0.55108100  1
  O  O31  1  0.29811800  0.73936600  0.95923000  1
  O  O32  1  0.27326800  0.51968200  0.61835500  1
  O  O33  1  0.77326800  0.48031800  0.88164500  1
  O  O34  1  0.72673200  0.48031800  0.38164500  1
  O  O35  1  0.22673200  0.51968200  0.11835500  1
  O  O36  1  0.26898200  0.48379900  0.88178500  1
  O  O37  1  0.76898200  0.51620100  0.61821500  1
  O  O38  1  0.73101800  0.51620100  0.11821500  1
  O  O39  1  0.23101800  0.48379900  0.38178500  1
  O  O40  1  0.47475700  0.02172000  0.61639100  1
  O  O41  1  0.97475700  0.97828000  0.88360900  1
  O  O42  1  0.52524300  0.97828000  0.38360900  1
  O  O43  1  0.02524300  0.02172000  0.11639100  1
  O  O44  1  0.48293400  0.98572100  0.87952600  1
  O  O45  1  0.98293400  0.01427900  0.62047400  1
  O  O46  1  0.51706600  0.01427900  0.12047400  1
  O  O47  1  0.01706600  0.98572100  0.37952600  1
  O  O48  1  0.11037600  0.17896200  0.67283200  1
  O  O49  1  0.61037600  0.82103800  0.82716800  1
  O  O50  1  0.88962400  0.82103800  0.32716800  1
  O  O51  1  0.38962400  0.17896200  0.17283200  1
  O  O52  1  0.09503800  0.79848300  0.83540700  1
  O  O53  1  0.59503800  0.20151700  0.66459300  1
  O  O54  1  0.90496200  0.20151700  0.16459300  1
  O  O55  1  0.40496200  0.79848300  0.33540700  1
  O  O56  1  0.14414100  0.31354000  0.82930100  1
  O  O57  1  0.64414100  0.68646000  0.67069900  1
  O  O58  1  0.34869100  0.69374400  0.16974300  1
  O  O59  1  0.35585900  0.31354000  0.32930100  1
  O  O60  1  0.15130900  0.69374400  0.66974300  1
  O  O61  1  0.65130900  0.30625600  0.83025700  1
  O  O62  1  0.84869100  0.30625600  0.33025700  1
  O  O63  1  0.85585900  0.68646000  0.17069900  1
  F  F0  1  0.04955700  0.41405600  0.24527000  1
  F  F1  1  0.54955700  0.58594400  0.25473000  1
  F  F2  1  0.95044300  0.58594400  0.75473000  1
  F  F3  1  0.45044300  0.41405600  0.74527000  1
  F  F4  1  0.08448700  0.66859100  0.28316900  1
  F  F5  1  0.58448700  0.33140900  0.21683100  1
  F  F6  1  0.91551300  0.33140900  0.71683100  1
  F  F7  1  0.41551300  0.66859100  0.78316900  1
  F  F8  1  0.16176000  0.16927300  0.27862900  1
  F  F9  1  0.66176000  0.83072700  0.22137100  1
  F  F10  1  0.83824000  0.83072700  0.72137100  1
  F  F11  1  0.33824000  0.16927300  0.77862900  1
  F  F12  1  0.20190500  0.91126200  0.24068600  1
  F  F13  1  0.70190500  0.08873800  0.25931400  1
  F  F14  1  0.79809500  0.08873800  0.75931400  1
  F  F15  1  0.29809500  0.91126200  0.74068600  1
loop_
_geom_bond_atom_site_label_1
_geom_bond_atom_site_label_2
_geom_bond_distance
_geom_bond_site_symmetry_2
Mg0 O58 2.070715 1_555
Mg0 O3 2.080286 1_555
Mg0 O39 2.100844 1_555
Mg0 O55 2.184574 1_555
Mg1 O62 2.070715 1_555
Mg1 O2 2.080286 1_555
Mg1 O38 2.100844 1_555
Mg1 O54 2.184574 1_555
Mg2 O61 2.070715 1_555
Mg2 O1 2.080286 1_555
Mg2 O37 2.100844 1_555
Mg2 O53 2.184574 1_555
Mg3 O60 2.070715 1_555
Mg3 O31 2.080286 1_555
Mg3 O36 2.100844 1_555
Mg3 O52 2.184574 1_555
Mg4 O51 2.035597 1_555
Mg4 O35 2.058747 1_555
Mg4 O59 2.077397 1_555
Mg4 O7 2.113756 1_555
Mg5 O50 2.035597 1_555
Mg5 O34 2.058747 1_555
Mg5 O63 2.077397 1_555
Mg5 O6 2.113756 1_555
Mg6 O49 2.035597 1_555
Mg6 O33 2.058747 1_555
Mg6 O57 2.077397 1_555
Mg6 O5 2.113756 1_555
Mg7 O48 2.035597 1_555
Mg7 O32 2.058747 1_555
Mg7 O56 2.077397 1_555
Mg7 O4 2.113756 1_555
Mg8 O55 2.098496 1_555
Mg8 O46 2.102209 1_565
Mg8 O14 2.102269 1_555
Mg8 O58 2.151752 1_555
Mg9 O54 2.098496 1_555
Mg9 O47 2.102209 1_645
Mg9 O15 2.102269 1_655
Mg9 O62 2.151752 1_555
Mg10 O53 2.098496 1_555
Mg10 O44 2.102209 1_545
Mg10 O12 2.102269 1_555
Mg10 O61 2.151752 1_555
Mg11 O52 2.098496 1_555
Mg11 O45 2.102209 1_465
Mg11 O13 2.102269 1_455
Mg11 O60 2.151752 1_555
Mg12 O51 2.055756 1_555
Mg12 O59 2.056864 1_555
Mg12 O42 2.071591 1_545
Mg12 O10 2.103667 1_555
Mg13 O50 2.055756 1_555
Mg13 O63 2.056864 1_555
Mg13 O43 2.071591 1_665
Mg13 O11 2.103667 1_655
Mg14 O49 2.055756 1_555
Mg14 O57 2.056864 1_555
Mg14 O40 2.071591 1_565
Mg14 O8 2.103667 1_555
Mg15 O48 2.055756 1_555
Mg15 O56 2.056864 1_555
Mg15 O41 2.071591 1_445
Mg15 O9 2.103667 1_455
Mg16 O44 2.063075 1_555
Mg16 O20 2.096669 1_566
Mg16 O31 2.106101 1_555
Mg16 O19 2.116527 1_555
Mg17 O45 2.063075 1_555
Mg17 O21 2.096669 1_545
Mg17 O1 2.106101 1_555
Mg17 O18 2.116527 1_555
Mg18 O46 2.063075 1_555
Mg18 O22 2.096669 1_544
Mg18 O2 2.106101 1_555
Mg18 O17 2.116527 1_555
Mg19 O47 2.063075 1_555
Mg19 O23 2.096669 1_565
Mg19 O3 2.106101 1_555
Mg19 O16 2.116527 1_555
Mg20 O23 2.020896 1_555
Mg20 O4 2.023893 1_555
Mg20 O40 2.045663 1_555
Mg20 O16 2.085240 1_545
Mg21 O22 2.020896 1_555
Mg21 O5 2.023893 1_555
Mg21 O41 2.045663 1_555
Mg21 O17 2.085240 1_566
Mg22 O21 2.020896 1_555
Mg22 O6 2.023893 1_555
Mg22 O42 2.045663 1_555
Mg22 O18 2.085240 1_565
Mg23 O20 2.020896 1_555
Mg23 O7 2.023893 1_555
Mg23 O43 2.045663 1_555
Mg23 O19 2.085240 1_544
Mg24 O35 2.033385 1_555
Mg24 O11 2.035629 1_555
Mg24 O29 2.043613 1_455
Mg24 O0 2.047819 1_554
Mg25 O37 2.077241 1_555
Mg25 O27 2.081510 1_655
Mg25 O13 2.092334 1_555
Mg25 O25 2.163624 1_555
Mg26 O38 2.077241 1_555
Mg26 O24 2.081510 1_555
Mg26 O14 2.092334 1_555
Mg26 O26 2.163624 1_554
Mg27 O39 2.077241 1_555
Mg27 O25 2.081510 1_455
Mg27 O15 2.092334 1_555
Mg27 O27 2.163624 1_555
Mg28 O32 2.033385 1_555
Mg28 O8 2.035629 1_555
Mg28 O30 2.043613 1_555
Mg28 O28 2.047819 1_555
Mg29 O33 2.033385 1_555
Mg29 O9 2.035629 1_555
Mg29 O0 2.043613 1_655
Mg29 O29 2.047819 1_556
Mg30 O34 2.033385 1_555
Mg30 O10 2.035629 1_555
Mg30 O28 2.043613 1_555
Mg30 O30 2.047819 1_555
Mg31 O36 2.077241 1_555
Mg31 O26 2.081510 1_555
Mg31 O12 2.092334 1_555
Mg31 O24 2.163624 1_556
O0 P7 1.547990 1_555
O1 P1 1.547571 1_555
O2 P2 1.547571 1_554
O3 P3 1.547571 1_555
O4 P4 1.554497 1_555
O5 P5 1.554497 1_556
O6 P6 1.554497 1_555
O7 P7 1.554497 1_554
O8 P8 1.557838 1_555
O9 P9 1.557838 1_556
O10 P10 1.557838 1_555
O11 P11 1.557838 1_554
O12 P12 1.546177 1_556
O13 P13 1.546177 1_555
O14 P14 1.546177 1_554
O15 P15 1.546177 1_555
O16 P8 1.559912 1_555
O17 P9 1.559912 1_555
O18 P10 1.559912 1_555
O19 P11 1.559912 1_555
O20 P12 1.551371 1_555
O21 P13 1.551371 1_555
O22 P14 1.551371 1_555
O23 P15 1.551371 1_555
O24 P0 1.561664 1_555
O25 P1 1.561664 1_555
O26 P2 1.561664 1_555
O27 P3 1.561664 1_555
O28 P4 1.547990 1_555
O29 P5 1.547990 1_555
O30 P6 1.547990 1_555
O31 P0 1.547571 1_556
O32 P3 1.564081 1_555
O33 P2 1.564081 1_555
O34 P1 1.564081 1_555
O35 P0 1.564081 1_555
O36 P7 1.544598 1_555
O37 P6 1.544598 1_555
O38 P5 1.544598 1_555
O39 P4 1.544598 1_555
O40 P10 1.557784 1_555
O41 P11 1.557784 1_655
O42 P8 1.557784 1_555
O43 P9 1.557784 1_455
O44 P14 1.549215 1_555
O45 P15 1.549215 1_655
O46 P12 1.549215 1_555
O47 P13 1.549215 1_455
O48 P15 1.558556 1_555
O49 P14 1.558556 1_555
O50 P13 1.558556 1_555
O51 P12 1.558556 1_555
O52 P11 1.542770 1_555
O53 P10 1.542770 1_555
O54 P9 1.542770 1_555
O55 P8 1.542770 1_555
O56 P7 1.553498 1_555
O57 P6 1.553498 1_555
O58 P0 1.547643 1_555
O59 P4 1.553498 1_555
O60 P3 1.547643 1_555
O61 P2 1.547643 1_555
O62 P1 1.547643 1_555
O63 P5 1.553498 1_555
F0 Mg24 1.973107 1_555
F0 Mg9 2.021996 1_455
F0 Mg27 2.098147 1_555
F1 Mg30 1.973107 1_555
F1 Mg8 2.021996 1_555
F1 Mg26 2.098147 1_555
F2 Mg29 1.973107 1_555
F2 Mg11 2.021996 1_655
F2 Mg25 2.098147 1_555
F3 Mg28 1.973107 1_555
F3 Mg10 2.021996 1_555
F3 Mg31 2.098147 1_555
F4 Mg13 1.972295 1_455
F4 Mg27 2.055480 1_555
F4 Mg0 2.257036 1_555
F5 Mg12 1.972295 1_555
F5 Mg26 2.055480 1_555
F5 Mg1 2.257036 1_555
F6 Mg15 1.972295 1_655
F6 Mg25 2.055480 1_555
F6 Mg2 2.257036 1_555
F7 Mg14 1.972295 1_555
F7 Mg31 2.055480 1_555
F7 Mg3 2.257036 1_555
F8 Mg4 1.971980 1_555
F8 Mg19 2.059900 1_545
F8 Mg9 2.220672 1_455
F9 Mg5 1.971980 1_555
F9 Mg18 2.059900 1_565
F9 Mg8 2.220672 1_555
F10 Mg6 1.971980 1_555
F10 Mg17 2.059900 1_565
F10 Mg11 2.220672 1_655
F11 Mg7 1.971980 1_555
F11 Mg16 2.059900 1_545
F11 Mg10 2.220672 1_555
F12 Mg23 1.982559 1_565
F12 Mg0 2.023913 1_555
F12 Mg19 2.090850 1_555
F13 Mg22 1.982559 1_545
F13 Mg1 2.023913 1_555
F13 Mg18 2.090850 1_555
F14 Mg21 1.982559 1_545
F14 Mg2 2.023913 1_555
F14 Mg17 2.090850 1_555
F15 Mg20 1.982559 1_565
F15 Mg3 2.023913 1_555
F15 Mg16 2.090850 1_555
