# generated using pymatgen
data_CeCr2Si2C
_symmetry_space_group_name_H-M   'P 1'
_cell_length_a   3.98559300
_cell_length_b   3.98559300
_cell_length_c   5.26171600
_cell_angle_alpha   90.00000000
_cell_angle_beta   90.00000000
_cell_angle_gamma   90.00000000
_symmetry_Int_Tables_number   1
_chemical_formula_structural   CeCr2Si2C
_chemical_formula_sum   'Ce1 Cr2 Si2 C1'
_cell_volume   83.58210379
_cell_formula_units_Z   1
loop_
 _symmetry_equiv_pos_site_id
 _symmetry_equiv_pos_as_xyz
  1  'x, y, z'
loop_
 _atom_site_type_symbol
 _atom_site_label
 _atom_site_symmetry_multiplicity
 _atom_site_fract_x
 _atom_site_fract_y
 _atom_site_fract_z
 _atom_site_occupancy
  Ce  Ce0  1  0.00000000  0.00000000  0.00000000  1
  Cr  Cr0  1  0.00000000  0.50000000  0.50000000  1
  Cr  Cr1  1  0.50000000  0.00000000  0.50000000  1
  Si  Si0  1  0.50000000  0.50000000  0.77139900  1
  Si  Si1  1  0.50000000  0.50000000  0.22860100  1
  C  C0  1  0.00000000  0.00000000  0.50000000  1
loop_
_geom_bond_atom_site_label_1
_geom_bond_atom_site_label_2
_geom_bond_distance
_geom_bond_site_symmetry_2
Ce0 Si0 3.064194 1_454
Ce0 Si0 3.064194 1_554
Ce0 Si1 3.064194 1_455
Ce0 Si0 3.064194 1_544
Ce0 Si1 3.064194 1_545
Ce0 Si1 3.064194 1_555
Ce0 Si1 3.064194 1_445
Ce0 Si0 3.064194 1_444
Cr0 Si0 2.451630 1_455
Cr0 Si1 2.451630 1_455
Cr0 Si0 2.451630 1_555
Cr0 Si1 2.451630 1_555
Cr1 Si0 2.451630 1_555
Cr1 Si0 2.451630 1_545
Cr1 Si1 2.451630 1_545
Cr1 Si1 2.451630 1_555
Si0 Si1 2.405667 1_556
C0 Cr1 1.992797 1_455
C0 Cr1 1.992797 1_555
C0 Cr0 1.992797 1_545
C0 Cr0 1.992797 1_555
C0 Ce0 2.630858 1_556
C0 Ce0 2.630858 1_555
