# generated using pymatgen
data_Si2H2O3
_symmetry_space_group_name_H-M   'P 1'
_cell_length_a   8.28494200
_cell_length_b   10.67743413
_cell_length_c   12.39661040
_cell_angle_alpha   86.56999617
_cell_angle_beta   107.50413074
_cell_angle_gamma   110.24944476
_symmetry_Int_Tables_number   1
_chemical_formula_structural   Si2H2O3
_chemical_formula_sum   'Si20 H20 O30'
_cell_volume   980.00808912
_cell_formula_units_Z   10
loop_
 _symmetry_equiv_pos_site_id
 _symmetry_equiv_pos_as_xyz
  1  'x, y, z'
loop_
 _atom_site_type_symbol
 _atom_site_label
 _atom_site_symmetry_multiplicity
 _atom_site_fract_x
 _atom_site_fract_y
 _atom_site_fract_z
 _atom_site_occupancy
  Si  Si0  1  0.85731100  0.13649800  0.12131200  1
  Si  Si1  1  0.08222800  0.36892000  0.38994000  1
  Si  Si2  1  0.21156100  0.88233700  0.93173900  1
  Si  Si3  1  0.87618000  0.59460300  0.52256400  1
  Si  Si4  1  0.99907400  0.92313800  0.24627700  1
  Si  Si5  1  0.28568100  0.58455200  0.25130700  1
  Si  Si6  1  0.96966000  0.07820000  0.74963600  1
  Si  Si7  1  0.66472600  0.41484300  0.73098900  1
  Si  Si8  1  0.43735500  0.98586500  0.20015900  1
  Si  Si9  1  0.68680500  0.49677100  0.31967900  1
  Si  Si10  1  0.57631500  0.00049700  0.80264100  1
  Si  Si11  1  0.30479900  0.49951000  0.69966000  1
  Si  Si12  1  0.62687400  0.20749500  0.45617400  1
  Si  Si13  1  0.47102800  0.26697700  0.05910600  1
  Si  Si14  1  0.36325700  0.78389800  0.54413500  1
  Si  Si15  1  0.52167800  0.70642400  0.95884600  1
  Si  Si16  1  0.21787500  0.08305900  0.49136000  1
  Si  Si17  1  0.16378200  0.41261000  0.01348100  1
  Si  Si18  1  0.77015300  0.85857600  0.52988800  1
  Si  Si19  1  0.87779300  0.64138600  0.96615100  1
  H  H0  1  0.97618800  0.96551300  0.92462700  1
  H  H1  1  0.58358000  0.53578700  0.56515400  1
  H  H2  1  0.23381000  0.82391700  0.26575300  1
  H  H3  1  0.59485700  0.66205400  0.21774700  1
  H  H4  1  0.24889300  0.12336200  0.15398700  1
  H  H5  1  0.41027800  0.32758400  0.30345900  1
  H  H6  1  0.69713300  0.81681200  0.83408200  1
  H  H7  1  0.56601900  0.69164000  0.67826700  1
  H  H8  1  0.03433900  0.18287800  0.00883500  1
  H  H9  1  0.33214600  0.31155400  0.46493200  1
  H  H10  1  0.82006800  0.25418300  0.25173700  1
  H  H11  1  0.20303400  0.78184800  0.76124200  1
  H  H12  1  0.84318400  0.96989400  0.46021800  1
  H  H13  1  0.92925800  0.54244400  0.04309900  1
  H  H14  1  0.98236000  0.85238500  0.70641100  1
  H  H15  1  0.94467800  0.65053200  0.80241700  1
  H  H16  1  0.69535600  0.05424700  0.36505500  1
  H  H17  1  0.79260800  0.48729800  0.16321500  1
  H  H18  1  0.33021200  0.96057800  0.62920300  1
  H  H19  1  0.25535800  0.53250200  0.87446600  1
  O  O0  1  0.00951500  0.05320600  0.15314200  1
  O  O1  1  0.26215000  0.46297100  0.34841700  1
  O  O2  1  0.06452100  0.99999500  0.88243700  1
  O  O3  1  0.68118100  0.49857800  0.59409500  1
  O  O4  1  0.23846900  0.91687400  0.24679500  1
  O  O5  1  0.54126900  0.58478400  0.25890100  1
  O  O6  1  0.76938300  0.04555100  0.76886800  1
  O  O7  1  0.48570600  0.44903700  0.73481600  1
  O  O8  1  0.37078500  0.13105900  0.14876600  1
  O  O9  1  0.53828700  0.34780900  0.34569300  1
  O  O10  1  0.61225800  0.83659600  0.86509100  1
  O  O11  1  0.43535900  0.66117500  0.64140500  1
  O  O12  1  0.42437400  0.13976100  0.46917000  1
  O  O13  1  0.33083300  0.34301900  0.05769400  1
  O  O14  1  0.56590300  0.84674200  0.51840800  1
  O  O15  1  0.69166200  0.64414200  0.98079000  1
  O  O16  1  0.98756200  0.24737200  0.03040700  1
  O  O17  1  0.20790100  0.26194900  0.46560600  1
  O  O18  1  0.04234200  0.78389600  0.98590100  1
  O  O19  1  0.79035000  0.72219300  0.49638700  1
  O  O20  1  0.93699100  0.25011100  0.25154400  1
  O  O21  1  0.11317200  0.79152700  0.79394900  1
  O  O22  1  0.07258700  0.01479400  0.36742700  1
  O  O23  1  0.18331600  0.48933300  0.13241200  1
  O  O24  1  0.88907300  0.89557000  0.66901800  1
  O  O25  1  0.83652300  0.59603000  0.82739600  1
  O  O26  1  0.59971400  0.09341400  0.33655200  1
  O  O27  1  0.71202700  0.43296200  0.20431000  1
  O  O28  1  0.41028300  0.90465500  0.66453200  1
  O  O29  1  0.35299000  0.58952600  0.83887200  1
loop_
_geom_bond_atom_site_label_1
_geom_bond_atom_site_label_2
_geom_bond_distance
_geom_bond_site_symmetry_2
H0 O2 0.982533 1_655
H1 O3 0.985513 1_555
H2 O4 0.996437 1_555
H3 O5 0.985096 1_555
H4 O8 1.005986 1_555
H5 O9 0.983101 1_555
H6 O10 0.980818 1_555
H7 O11 0.981289 1_555
H8 O16 0.982359 1_455
H9 O17 0.983582 1_555
H10 O20 0.985311 1_555
H11 O21 0.984488 1_555
H12 Si18 1.489453 1_555
H13 Si19 1.467773 1_554
H14 O24 1.015102 1_555
H14 O21 1.571639 1_655
H15 O25 1.010867 1_555
H15 O21 1.685424 1_655
H16 O26 0.985344 1_555
H17 O27 0.971049 1_555
H18 O28 1.027894 1_555
H19 O29 1.030211 1_555
O0 Si0 1.723876 1_455
O0 Si4 1.747652 1_445
O1 Si1 1.690844 1_555
O1 Si5 1.717984 1_555
O2 Si6 1.880601 1_465
O2 Si2 1.988838 1_555
O3 Si7 1.889731 1_555
O3 Si3 2.013440 1_555
O4 Si8 1.809379 1_555
O4 Si4 2.005592 1_455
O5 Si9 1.748659 1_555
O5 Si5 2.090285 1_555
O6 Si6 1.661086 1_555
O6 Si10 1.676720 1_555
O7 Si7 1.659696 1_555
O7 Si11 1.692595 1_555
O8 Si8 1.837340 1_545
O8 Si13 1.886593 1_555
O9 Si9 1.723491 1_555
O9 Si12 2.137749 1_555
O10 Si15 1.858811 1_555
O10 Si10 1.952077 1_565
O11 Si14 1.856710 1_555
O11 Si11 1.923400 1_555
O12 Si12 1.634759 1_555
O12 Si16 1.707438 1_555
O13 Si13 1.627119 1_555
O13 Si17 1.724771 1_555
O14 Si18 1.615250 1_555
O14 Si14 1.699228 1_555
O15 Si19 1.616235 1_555
O15 Si15 1.701693 1_555
O16 Si0 1.877103 1_555
O16 Si17 1.909266 1_655
O17 Si1 1.837390 1_555
O17 Si16 1.943606 1_555
O18 Si19 1.625335 1_455
O18 Si2 1.727103 1_555
O19 Si18 1.613658 1_555
O19 Si3 1.716331 1_555
O20 Si0 1.884859 1_555
O20 Si1 1.990615 1_655
O21 Si2 1.826421 1_555
O22 Si16 1.659751 1_555
O22 Si4 1.672511 1_445
O23 Si5 1.660061 1_555
O23 Si17 1.667389 1_555
O24 Si18 1.700407 1_555
O24 Si6 2.043944 1_565
O25 Si19 1.715057 1_555
O25 Si7 2.131717 1_555
O26 Si12 1.886552 1_555
O26 Si8 1.944702 1_545
O27 Si9 1.717035 1_555
O28 Si14 1.890667 1_555
O28 Si10 1.920724 1_565
O29 Si15 1.867451 1_555
O29 Si11 1.892035 1_555
