# generated using pymatgen
data_Bi5(S2Cl)3
_symmetry_space_group_name_H-M   'P 1'
_cell_length_a   12.21951900
_cell_length_b   12.23483905
_cell_length_c   12.31528535
_cell_angle_alpha   109.65654300
_cell_angle_beta   109.32511714
_cell_angle_gamma   108.77118212
_symmetry_Int_Tables_number   1
_chemical_formula_structural   Bi5(S2Cl)3
_chemical_formula_sum   'Bi20 S24 Cl12'
_cell_volume   1428.71964768
_cell_formula_units_Z   4
loop_
 _symmetry_equiv_pos_site_id
 _symmetry_equiv_pos_as_xyz
  1  'x, y, z'
loop_
 _atom_site_type_symbol
 _atom_site_label
 _atom_site_symmetry_multiplicity
 _atom_site_fract_x
 _atom_site_fract_y
 _atom_site_fract_z
 _atom_site_occupancy
  Bi  Bi0  1  0.02376400  0.89588100  0.31233400  1
  Bi  Bi1  1  0.69218100  0.95211900  0.10387300  1
  Bi  Bi2  1  0.51649000  0.95077400  0.68516700  1
  Bi  Bi3  1  0.66559400  0.77280000  0.35471000  1
  Bi  Bi4  1  0.22258900  0.62981900  0.36822700  1
  Bi  Bi5  1  0.10560600  0.70131600  0.96895600  1
  Bi  Bi6  1  0.30121300  0.46377400  0.03967500  1
  Bi  Bi7  1  0.69696400  0.70963600  0.70014600  1
  Bi  Bi8  1  0.37107900  0.61253400  0.76558700  1
  Bi  Bi9  1  0.02451300  0.33226000  0.44243000  1
  Bi  Bi10  1  0.99207700  0.68155800  0.56996900  1
  Bi  Bi11  1  0.62911200  0.35305200  0.21953900  1
  Bi  Bi12  1  0.29094400  0.30195400  0.27012600  1
  Bi  Bi13  1  0.68970300  0.58560500  0.00959600  1
  Bi  Bi14  1  0.84800500  0.29429000  0.02727300  1
  Bi  Bi15  1  0.79711500  0.39443200  0.63673800  1
  Bi  Bi16  1  0.34352500  0.24242500  0.63307000  1
  Bi  Bi17  1  0.40742700  0.97062100  0.31045200  1
  Bi  Bi18  1  0.31262500  0.01387400  0.89661500  1
  Bi  Bi19  1  0.95704600  0.09904500  0.65558400  1
  S  S0  1  0.16657000  0.92295700  0.16364900  1
  S  S1  1  0.33247000  0.94628100  0.47692400  1
  S  S2  1  0.86355600  0.98912400  0.38617300  1
  S  S3  1  0.07760500  0.84029800  0.83499000  1
  S  S4  1  0.33111300  0.70580300  0.20364900  1
  S  S5  1  0.84726000  0.83802500  0.07732300  1
  S  S6  1  0.52616200  0.67598900  0.04173400  1
  S  S7  1  0.28797800  0.79262800  0.66114900  1
  S  S8  1  0.51151500  0.74087200  0.52227100  1
  S  S9  1  0.84584700  0.84722800  0.59824800  1
  S  S10  1  0.60128600  0.83912700  0.84699600  1
  S  S11  1  0.15003300  0.39854600  0.15269800  1
  S  S12  1  0.78439400  0.64523500  0.27185900  1
  S  S13  1  0.04203100  0.52359400  0.66046600  1
  S  S14  1  0.47713300  0.48547500  0.26050100  1
  S  S15  1  0.26642300  0.47644900  0.48309100  1
  S  S16  1  0.73802500  0.52657000  0.51136100  1
  S  S17  1  0.52866900  0.51331400  0.73320700  1
  S  S18  1  0.96038400  0.47155900  0.32972900  1
  S  S19  1  0.21239500  0.35149000  0.71326700  1
  S  S20  1  0.84529900  0.60358300  0.84176300  1
  S  S21  1  0.40259700  0.15540300  0.15651600  1
  S  S22  1  0.15973600  0.15426400  0.39468400  1
  S  S23  1  0.62901400  0.14647700  0.02086600  1
  Cl  Cl0  1  0.99122700  0.60600500  0.13436000  1
  Cl  Cl1  1  0.38962000  0.86447400  0.99828000  1
  Cl  Cl2  1  0.49455400  0.26324600  0.47750400  1
  Cl  Cl3  1  0.72994200  0.21905400  0.35298800  1
  Cl  Cl4  1  0.47571300  0.34073400  0.96313700  1
  Cl  Cl5  1  0.16309300  0.17268600  0.91794600  1
  Cl  Cl6  1  0.67343800  0.28867800  0.81715700  1
  Cl  Cl7  1  0.92997900  0.15355800  0.16230200  1
  Cl  Cl8  1  0.00167100  0.38107400  0.84747400  1
  Cl  Cl9  1  0.15109900  0.01982000  0.62730300  1
  Cl  Cl10  1  0.69271400  0.05768600  0.54146600  1
  Cl  Cl11  1  0.83188300  0.08492900  0.84690200  1
loop_
_geom_bond_atom_site_label_1
_geom_bond_atom_site_label_2
_geom_bond_distance
_geom_bond_site_symmetry_2
Bi0 S5 2.652745 1_455
Bi0 S22 2.670252 1_565
Bi0 S2 2.806859 1_455
Bi0 S0 2.942557 1_555
Bi0 S12 3.231407 1_455
Bi1 S10 2.626139 1_554
Bi1 S5 2.729827 1_555
Bi1 Cl7 2.801691 1_565
Bi1 S6 2.989488 1_555
Bi1 S23 3.096740 1_565
Bi1 Cl1 3.136582 1_554
Bi1 S2 3.192079 1_555
Bi2 S8 2.641247 1_555
Bi2 S7 2.686904 1_555
Bi2 S1 2.765001 1_555
Bi2 S10 2.878738 1_555
Bi2 Cl11 3.187966 1_565
Bi3 S12 2.636567 1_555
Bi3 S9 2.678723 1_555
Bi3 S2 2.752445 1_555
Bi3 S14 3.047110 1_555
Bi3 S6 3.231950 1_555
Bi4 S11 2.759168 1_555
Bi4 S15 2.782119 1_555
Bi4 S18 2.936667 1_455
Bi4 S8 2.942014 1_555
Bi4 S4 2.997333 1_555
Bi4 S7 3.139006 1_555
Bi4 Cl0 3.144662 1_455
Bi4 S1 3.250193 1_555
Bi5 S0 2.607855 1_556
Bi5 S20 2.644899 1_455
Bi5 S3 2.760189 1_555
Bi5 Cl0 3.145804 1_456
Bi5 S4 3.236466 1_556
Bi5 Cl8 3.286200 1_555
Bi6 S14 2.713861 1_555
Bi6 S11 2.736303 1_555
Bi6 S4 2.787911 1_555
Bi6 Cl5 2.940181 1_554
Bi6 S6 3.100667 1_555
Bi6 Cl4 3.184781 1_554
Bi6 Cl8 3.208583 1_554
Bi7 S10 2.794900 1_555
Bi7 S8 2.813355 1_555
Bi7 S17 2.863118 1_555
Bi7 S16 2.943763 1_555
Bi7 S9 2.946129 1_555
Bi7 S20 2.992422 1_555
Bi8 S17 2.651023 1_555
Bi8 S10 2.801515 1_555
Bi8 S19 2.859816 1_555
Bi8 S15 2.880829 1_555
Bi8 S6 2.961579 1_556
Bi8 S7 3.165858 1_555
Bi9 S15 2.677840 1_555
Bi9 S18 2.678838 1_455
Bi9 S13 2.793598 1_555
Bi9 Cl7 2.945965 1_455
Bi9 Cl3 3.037934 1_455
Bi9 S22 3.148982 1_555
Bi9 S19 3.241528 1_555
Bi10 S13 2.666079 1_655
Bi10 S16 2.749843 1_555
Bi10 S3 2.772764 1_655
Bi10 S18 2.998660 1_555
Bi10 S7 3.050453 1_655
Bi10 S9 3.112971 1_555
Bi11 S21 2.668172 1_555
Bi11 S23 2.865323 1_555
Bi11 S14 2.887027 1_555
Bi11 Cl3 2.946060 1_555
Bi11 S16 3.012832 1_555
Bi11 Cl4 3.014584 1_554
Bi11 S12 3.173416 1_555
Bi12 S11 2.695204 1_555
Bi12 S14 2.702174 1_555
Bi12 S21 2.860777 1_555
Bi12 S15 2.948078 1_555
Bi12 S22 3.133174 1_555
Bi12 Cl2 3.209903 1_555
Bi13 S6 2.650352 1_555
Bi13 S5 2.705115 1_555
Bi13 S12 2.775057 1_555
Bi13 S17 2.943086 1_554
Bi13 Cl4 2.992552 1_554
Bi14 S23 2.662196 1_555
Bi14 Cl11 2.663080 1_554
Bi14 Cl6 2.717302 1_554
Bi14 Cl7 2.944014 1_555
Bi14 S11 3.083093 1_655
Bi14 S18 3.118793 1_555
Bi14 Cl0 3.184356 1_555
Bi15 S20 2.640018 1_555
Bi15 S16 2.685497 1_555
Bi15 S13 2.757904 1_655
Bi15 Cl8 3.043811 1_655
Bi15 Cl2 3.058678 1_555
Bi15 Cl3 3.068019 1_555
Bi16 S22 2.602462 1_555
Bi16 S19 2.619241 1_555
Bi16 S17 2.863855 1_555
Bi16 Cl9 2.930771 1_555
Bi16 Cl2 3.083359 1_555
Bi17 S1 2.570754 1_555
Bi17 S0 2.633476 1_555
Bi17 S4 2.733848 1_555
Bi17 Cl2 3.053827 1_565
Bi17 Cl10 3.223115 1_565
Bi18 S3 2.623255 1_545
Bi18 S21 2.677496 1_556
Bi18 Cl1 2.767806 1_545
Bi18 Cl5 3.072836 1_555
Bi18 S7 3.073023 1_545
Bi18 S23 3.209069 1_556
Bi18 Cl9 3.289874 1_555
Bi19 S9 2.654100 1_545
Bi19 S2 2.760916 1_545
Bi19 Cl10 2.851203 1_555
Bi19 Cl9 2.912444 1_655
Bi19 Cl5 2.964468 1_655
Bi19 Cl8 3.199796 1_655
Bi19 Cl11 3.226323 1_555
Bi19 S19 3.261082 1_655
