# generated using pymatgen
data_Li2Cr(PO4)2
_symmetry_space_group_name_H-M   'P 1'
_cell_length_a   17.43711500
_cell_length_b   4.88428700
_cell_length_c   6.59633722
_cell_angle_alpha   85.48475803
_cell_angle_beta   90.00000000
_cell_angle_gamma   90.00000000
_symmetry_Int_Tables_number   1
_chemical_formula_structural   Li2Cr(PO4)2
_chemical_formula_sum   'Li8 Cr4 P8 O32'
_cell_volume   560.05244250
_cell_formula_units_Z   4
loop_
 _symmetry_equiv_pos_site_id
 _symmetry_equiv_pos_as_xyz
  1  'x, y, z'
loop_
 _atom_site_type_symbol
 _atom_site_label
 _atom_site_symmetry_multiplicity
 _atom_site_fract_x
 _atom_site_fract_y
 _atom_site_fract_z
 _atom_site_occupancy
  Li  Li0  1  0.87985100  0.46641100  0.25767300  1
  Li  Li1  1  0.61765100  0.96520900  0.73519400  1
  Li  Li2  1  0.94570600  0.98766400  0.04287300  1
  Li  Li3  1  0.44570600  0.01233600  0.95712700  1
  Li  Li4  1  0.69637800  0.44523700  0.93560300  1
  Li  Li5  1  0.37985100  0.53358900  0.74232700  1
  Li  Li6  1  0.11765100  0.03479100  0.26480600  1
  Li  Li7  1  0.19637800  0.55476300  0.06439700  1
  Cr  Cr0  1  0.37052600  0.53856200  0.26818700  1
  Cr  Cr1  1  0.12841400  0.05110900  0.75832700  1
  Cr  Cr2  1  0.87052600  0.46143800  0.73181300  1
  Cr  Cr3  1  0.62841400  0.94889100  0.24167300  1
  P  P0  1  0.78656800  0.92583800  0.96884900  1
  P  P1  1  0.71476500  0.42558700  0.46723400  1
  P  P2  1  0.03604500  0.51983400  0.97214300  1
  P  P3  1  0.28656800  0.07416200  0.03115100  1
  P  P4  1  0.96508100  0.97759800  0.52911000  1
  P  P5  1  0.46508100  0.02240200  0.47089000  1
  P  P6  1  0.21476500  0.57441300  0.53276600  1
  P  P7  1  0.53604500  0.48016600  0.02785700  1
  O  O0  1  0.94093000  0.11685700  0.32193200  1
  O  O1  1  0.06126000  0.83175100  0.96023700  1
  O  O2  1  0.19784700  0.12297500  0.99726800  1
  O  O3  1  0.69162200  0.28229100  0.27251900  1
  O  O4  1  0.67580800  0.30598100  0.66196400  1
  O  O5  1  0.56717500  0.61918400  0.21408900  1
  O  O6  1  0.80340300  0.39806300  0.49030700  1
  O  O7  1  0.56644000  0.61999200  0.83022600  1
  O  O8  1  0.56126000  0.16824900  0.03976300  1
  O  O9  1  0.44600200  0.47612100  0.03300900  1
  O  O10  1  0.94600200  0.52387900  0.96699100  1
  O  O11  1  0.93623200  0.67375500  0.53870400  1
  O  O12  1  0.43156400  0.88108600  0.28718400  1
  O  O13  1  0.06717500  0.38081600  0.78591100  1
  O  O14  1  0.93156400  0.11891400  0.71281600  1
  O  O15  1  0.30443700  0.22430100  0.22418100  1
  O  O16  1  0.80443700  0.77569900  0.77581900  1
  O  O17  1  0.19258900  0.26257400  0.56454300  1
  O  O18  1  0.17580800  0.69401900  0.33803600  1
  O  O19  1  0.69258900  0.73742600  0.43545700  1
  O  O20  1  0.83451600  0.81822900  0.14992100  1
  O  O21  1  0.69784700  0.87702500  0.00273200  1
  O  O22  1  0.80170900  0.24246200  0.92742300  1
  O  O23  1  0.06644000  0.38000800  0.16977400  1
  O  O24  1  0.05420900  0.96795500  0.53878700  1
  O  O25  1  0.19162200  0.71770900  0.72748100  1
  O  O26  1  0.30170900  0.75753800  0.07257700  1
  O  O27  1  0.30340300  0.60193700  0.50969300  1
  O  O28  1  0.55420900  0.03204500  0.46121300  1
  O  O29  1  0.33451600  0.18177100  0.85007900  1
  O  O30  1  0.44093000  0.88314300  0.67806800  1
  O  O31  1  0.43623200  0.32624500  0.46129600  1
loop_
_geom_bond_atom_site_label_1
_geom_bond_atom_site_label_2
_geom_bond_distance
_geom_bond_site_symmetry_2
Li0 O20 1.972467 1_555
Li0 O0 2.028543 1_555
Li0 O6 2.040233 1_555
Li0 O10 2.236321 1_554
Li0 O11 2.392534 1_555
Li1 O7 1.966469 1_555
Li1 O4 1.976221 1_565
Li1 O28 2.122188 1_565
Li1 O21 2.266217 1_556
Li1 O8 2.510038 1_566
Li2 O0 1.994098 1_565
Li2 O20 2.202396 1_555
Li2 O14 2.234296 1_564
Li2 O1 2.236591 1_654
Li2 O10 2.358070 1_554
Li3 O30 1.994098 1_545
Li3 O29 2.202396 1_555
Li3 O12 2.234296 1_546
Li3 O8 2.236591 1_556
Li3 O9 2.358070 1_556
Li4 O4 2.010637 1_555
Li4 O22 2.089400 1_555
Li4 O21 2.188961 1_556
Li4 O3 2.302372 1_556
Li4 O7 2.500380 1_555
Li5 O29 1.972467 1_555
Li5 O30 2.028543 1_555
Li5 O27 2.040233 1_555
Li5 O9 2.236321 1_556
Li5 O31 2.392534 1_555
Li6 O23 1.966469 1_555
Li6 O18 1.976221 1_545
Li6 O24 2.122188 1_545
Li6 O2 2.266217 1_554
Li6 O1 2.510038 1_544
Li7 O18 2.010637 1_555
Li7 O26 2.089400 1_555
Li7 O2 2.188961 1_554
Li7 O25 2.302372 1_554
Li7 O23 2.500380 1_555
Cr0 O31 1.950051 1_555
Cr0 O15 1.959206 1_555
Cr0 O12 1.995090 1_555
Cr0 O26 2.007850 1_555
Cr0 O27 2.020196 1_555
Cr0 O9 2.075127 1_555
Cr1 O17 1.935226 1_555
Cr1 O13 1.952650 1_555
Cr1 O25 1.989998 1_545
Cr1 O24 2.007227 1_545
Cr1 O1 2.016998 1_545
Cr1 O2 2.039692 1_555
Cr2 O11 1.950051 1_555
Cr2 O16 1.959206 1_555
Cr2 O14 1.995090 1_555
Cr2 O22 2.007850 1_555
Cr2 O6 2.020196 1_555
Cr2 O10 2.075127 1_555
Cr3 O19 1.935226 1_555
Cr3 O5 1.952650 1_555
Cr3 O3 1.989998 1_565
Cr3 O28 2.007227 1_565
Cr3 O8 2.016998 1_565
Cr3 O21 2.039692 1_555
O0 P4 1.536644 1_545
O1 P2 1.581668 1_555
O2 P3 1.578523 1_556
O3 P1 1.563312 1_555
O4 P1 1.527916 1_555
O5 P7 1.547939 1_555
O6 P1 1.557840 1_555
O7 P7 1.518757 1_556
O8 P7 1.581668 1_555
O9 P7 1.570549 1_555
O10 P2 1.570549 1_655
O11 P4 1.563552 1_555
O12 P5 1.555025 1_565
O13 P2 1.547939 1_555
O14 P4 1.555025 1_545
O15 P3 1.550203 1_555
O16 P0 1.550203 1_555
O17 P6 1.569415 1_555
O18 P6 1.527916 1_555
O19 P1 1.569415 1_555
O20 P0 1.517579 1_554
O21 P0 1.578523 1_554
O22 P0 1.571447 1_545
O23 P2 1.518757 1_554
O24 P4 1.556006 1_455
O25 P6 1.563312 1_555
O26 P3 1.571447 1_565
O27 P6 1.557840 1_555
O28 P5 1.556006 1_555
O29 P3 1.517579 1_556
O30 P5 1.536644 1_565
O31 P5 1.563552 1_555
