# generated using pymatgen
data_Te21(Mo3I11)2
_symmetry_space_group_name_H-M   'P 1'
_cell_length_a   11.03154000
_cell_length_b   13.18145690
_cell_length_c   17.96267603
_cell_angle_alpha   83.53816775
_cell_angle_beta   80.52681477
_cell_angle_gamma   71.23833774
_symmetry_Int_Tables_number   1
_chemical_formula_structural   Te21(Mo3I11)2
_chemical_formula_sum   'Te21 Mo6 I22'
_cell_volume   2434.49515519
_cell_formula_units_Z   1
loop_
 _symmetry_equiv_pos_site_id
 _symmetry_equiv_pos_as_xyz
  1  'x, y, z'
loop_
 _atom_site_type_symbol
 _atom_site_label
 _atom_site_symmetry_multiplicity
 _atom_site_fract_x
 _atom_site_fract_y
 _atom_site_fract_z
 _atom_site_occupancy
  Te  Te0  1  0.82608400  0.99495000  0.65956700  1
  Te  Te1  1  0.53666400  0.15274700  0.60236600  1
  Te  Te2  1  0.97827500  0.82203700  0.89696400  1
  Te  Te3  1  0.33304200  0.32531900  0.20896300  1
  Te  Te4  1  0.39326300  0.16990700  0.38107200  1
  Te  Te5  1  0.97638500  0.93732200  0.52075000  1
  Te  Te6  1  0.16129700  0.53903500  0.61021900  1
  Te  Te7  1  0.85575900  0.56894200  0.04558700  1
  Te  Te8  1  0.29908500  0.20856000  0.53728200  1
  Te  Te9  1  0.35147100  0.18142300  0.05017000  1
  Te  Te10  1  0.65460500  0.80114500  0.94713000  1
  Te  Te11  1  0.70130400  0.82221400  0.45831800  1
  Te  Te12  1  0.15029800  0.42529900  0.93985100  1
  Te  Te13  1  0.87298700  0.42901000  0.41455100  1
  Te  Te14  1  0.04129200  0.12847400  0.48847400  1
  Te  Te15  1  0.64004700  0.82322700  0.61510600  1
  Te  Te16  1  0.60918400  0.68318700  0.80903600  1
  Te  Te17  1  0.99843300  0.16921900  0.07350300  1
  Te  Te18  1  0.45083900  0.85816500  0.37873500  1
  Te  Te19  1  0.66350500  0.37061000  0.40646000  1
  Te  Te20  1  0.19086400  0.94617200  0.35880600  1
  Mo  Mo0  1  0.83742600  0.74233600  0.82465200  1
  Mo  Mo1  1  0.19006000  0.38007900  0.09162300  1
  Mo  Mo2  1  0.29626100  0.02565200  0.45762700  1
  Mo  Mo3  1  0.70764100  0.98665300  0.53946500  1
  Mo  Mo4  1  0.80849800  0.59885100  0.89247900  1
  Mo  Mo5  1  0.14912000  0.23806700  0.15153000  1
  I  I0  1  0.07163400  0.69640200  0.72341100  1
  I  I1  1  0.71364800  0.08717400  0.39942500  1
  I  I2  1  0.22580400  0.60321200  0.96108600  1
  I  I3  1  0.42055600  0.32704300  0.86088400  1
  I  I4  1  0.46526200  0.55738700  0.38037100  1
  I  I5  1  0.57056800  0.16052500  0.15595000  1
  I  I6  1  0.12199100  0.95731700  0.12593400  1
  I  I7  1  0.10366500  0.53263900  0.20147600  1
  I  I8  1  0.08143100  0.63567500  0.47683800  1
  I  I9  1  0.19082200  0.20705800  0.70255200  1
  I  I10  1  0.13260600  0.17718300  0.91975200  1
  I  I11  1  0.86764000  0.79322300  0.07390000  1
  I  I12  1  0.75287800  0.82622700  0.27989500  1
  I  I13  1  0.90271500  0.40562000  0.56616600  1
  I  I14  1  0.91456100  0.44124000  0.79781800  1
  I  I15  1  0.84908900  0.03791000  0.86126100  1
  I  I16  1  0.39691200  0.89737800  0.91421800  1
  I  I17  1  0.59362200  0.54887400  0.70243800  1
  I  I18  1  0.58034200  0.65781700  0.12884300  1
  I  I19  1  0.77282400  0.38861000  0.02441400  1
  I  I20  1  0.32217100  0.92322000  0.59359100  1
  I  I21  1  0.91077100  0.25546300  0.23792100  1
loop_
_geom_bond_atom_site_label_1
_geom_bond_atom_site_label_2
_geom_bond_distance
_geom_bond_site_symmetry_2
Te0 Te5 2.792678 1_555
Te1 Te8 2.889913 1_555
Te4 Te8 2.869496 1_555
Te11 Te15 2.786530 1_555
Te11 Te18 3.194961 1_555
Te13 Te19 2.689623 1_555
Te14 Te5 2.809377 1_445
Te18 Te20 2.793427 1_555
Mo0 Mo4 2.214724 1_555
Mo0 Te2 2.688246 1_555
Mo0 Te10 2.725101 1_555
Mo0 Te16 2.927575 1_555
Mo1 Mo5 2.190091 1_555
Mo1 Te3 2.733320 1_555
Mo1 Te9 2.754099 1_555
Mo1 Te12 2.799949 1_554
Mo2 Te4 2.624441 1_555
Mo2 Te14 2.694261 1_555
Mo2 Te18 2.697614 1_545
Mo2 Te20 2.735308 1_545
Mo2 Te8 2.949670 1_555
Mo3 Te1 2.612738 1_565
Mo3 Te15 2.661513 1_555
Mo3 Te0 2.728784 1_555
Mo3 Te11 2.769466 1_555
Mo3 Te5 2.793943 1_555
Mo4 Te16 2.730259 1_555
Mo4 Te10 2.843376 1_555
Mo4 Te7 2.843717 1_556
Mo5 Te9 2.598336 1_555
Mo5 Te17 2.752253 1_455
Mo5 Te3 2.993459 1_555
I0 Mo0 2.836202 1_455
I0 Te6 2.895289 1_555
I1 Mo3 2.709087 1_545
I1 Te4 3.407752 1_555
I2 Te12 2.810962 1_555
I3 Te12 3.019201 1_555
I4 Te19 2.770896 1_555
I5 Te3 2.911030 1_555
I5 Te9 3.239388 1_555
I6 Te17 2.815690 1_465
I7 Mo1 2.808429 1_555
I7 Te3 3.077359 1_555
I8 Te6 2.724908 1_555
I9 Te8 3.012438 1_555
I10 Te17 2.918621 1_456
I10 Te12 3.400643 1_555
I11 Te7 3.102490 1_555
I11 Te2 3.238006 1_554
I12 Te11 3.158988 1_555
I12 Te18 3.427822 1_555
I13 Te13 2.767586 1_555
I14 Mo4 2.674510 1_555
I15 Te2 2.796565 1_545
I16 Te10 2.846858 1_555
I17 Te16 2.810175 1_555
I18 Te7 3.073941 1_555
I19 Te7 2.889458 1_555
I19 Te17 3.294445 1_555
I19 Mo4 3.516761 1_554
I20 Mo2 2.666228 1_565
I20 Te15 3.397292 1_555
I21 Mo5 2.779094 1_655
I21 Te17 3.171503 1_555
