# generated using pymatgen
data_SbRu2C6Cl7O6
_symmetry_space_group_name_H-M   'P 1'
_cell_length_a   12.11108100
_cell_length_b   9.39527300
_cell_length_c   17.09306751
_cell_angle_alpha   79.77938877
_cell_angle_beta   90.00000000
_cell_angle_gamma   90.00000000
_symmetry_Int_Tables_number   1
_chemical_formula_structural   SbRu2C6Cl7O6
_chemical_formula_sum   'Sb4 Ru8 C24 Cl28 O24'
_cell_volume   1914.10432285
_cell_formula_units_Z   4
loop_
 _symmetry_equiv_pos_site_id
 _symmetry_equiv_pos_as_xyz
  1  'x, y, z'
loop_
 _atom_site_type_symbol
 _atom_site_label
 _atom_site_symmetry_multiplicity
 _atom_site_fract_x
 _atom_site_fract_y
 _atom_site_fract_z
 _atom_site_occupancy
  Sb  Sb0  1  0.85978500  0.63633600  0.37701400  1
  Sb  Sb1  1  0.35978500  0.36366400  0.12298600  1
  Sb  Sb2  1  0.14021500  0.36366400  0.62298600  1
  Sb  Sb3  1  0.64021500  0.63633600  0.87701400  1
  Ru  Ru0  1  0.53747900  0.86750000  0.08941700  1
  Ru  Ru1  1  0.96252100  0.86750000  0.58941700  1
  Ru  Ru2  1  0.46252100  0.13250000  0.91058300  1
  Ru  Ru3  1  0.53729000  0.19392300  0.47335800  1
  Ru  Ru4  1  0.03747900  0.13250000  0.41058300  1
  Ru  Ru5  1  0.46271000  0.80607700  0.52664200  1
  Ru  Ru6  1  0.96271000  0.19392300  0.97335800  1
  Ru  Ru7  1  0.03729000  0.80607700  0.02664200  1
  C  C0  1  0.36519500  0.85307100  0.60696600  1
  C  C1  1  0.96952900  0.19962800  0.30964900  1
  C  C2  1  0.35940500  0.68874100  0.48437900  1
  C  C3  1  0.34353600  0.26535800  0.89028800  1
  C  C4  1  0.84353600  0.73464200  0.60971200  1
  C  C5  1  0.15646400  0.26535800  0.39028800  1
  C  C6  1  0.48294800  0.35834700  0.40295800  1
  C  C7  1  0.64059500  0.31125900  0.51562100  1
  C  C8  1  0.63480500  0.14692900  0.39303400  1
  C  C9  1  0.38393600  0.98540200  0.86913400  1
  C  C10  1  0.51705200  0.64165300  0.59704200  1
  C  C11  1  0.46952900  0.80037200  0.19035100  1
  C  C12  1  0.88393600  0.01459800  0.63086600  1
  C  C13  1  0.98294800  0.64165300  0.09704200  1
  C  C14  1  0.86519500  0.14692900  0.89303400  1
  C  C15  1  0.85940500  0.31125900  0.01562100  1
  C  C16  1  0.03047100  0.80037200  0.69035100  1
  C  C17  1  0.14059500  0.68874100  0.98437900  1
  C  C18  1  0.53047100  0.19962800  0.80964900  1
  C  C19  1  0.65646400  0.73464200  0.10971200  1
  C  C20  1  0.11606400  0.98540200  0.36913400  1
  C  C21  1  0.13480500  0.85307100  0.10696600  1
  C  C22  1  0.01705200  0.35834700  0.90295800  1
  C  C23  1  0.61606400  0.01459800  0.13086600  1
  Cl  Cl0  1  0.05991300  0.69231900  0.52605700  1
  Cl  Cl1  1  0.40200200  0.02292100  0.43092600  1
  Cl  Cl2  1  0.25216000  0.51726200  0.68850400  1
  Cl  Cl3  1  0.90340000  0.75244000  0.93047500  1
  Cl  Cl4  1  0.59660000  0.75244000  0.43047500  1
  Cl  Cl5  1  0.17383000  0.15539600  0.72520000  1
  Cl  Cl6  1  0.24784000  0.51726200  0.18850400  1
  Cl  Cl7  1  0.96965200  0.40741200  0.68506500  1
  Cl  Cl8  1  0.46965200  0.59258800  0.81493500  1
  Cl  Cl9  1  0.09660000  0.24756000  0.06952500  1
  Cl  Cl10  1  0.82617000  0.84460400  0.27480000  1
  Cl  Cl11  1  0.55991300  0.30768100  0.97394300  1
  Cl  Cl12  1  0.67383000  0.84460400  0.77480000  1
  Cl  Cl13  1  0.03034800  0.59258800  0.31493500  1
  Cl  Cl14  1  0.94008700  0.30768100  0.47394300  1
  Cl  Cl15  1  0.75216000  0.48273800  0.81149600  1
  Cl  Cl16  1  0.61526600  0.96119400  0.95646800  1
  Cl  Cl17  1  0.44008700  0.69231900  0.02605700  1
  Cl  Cl18  1  0.74784000  0.48273800  0.31149600  1
  Cl  Cl19  1  0.11526600  0.03880600  0.54353200  1
  Cl  Cl20  1  0.40340000  0.24756000  0.56952500  1
  Cl  Cl21  1  0.38473400  0.03880600  0.04353200  1
  Cl  Cl22  1  0.88473400  0.96119400  0.45646800  1
  Cl  Cl23  1  0.09799800  0.02292100  0.93092600  1
  Cl  Cl24  1  0.59799800  0.97707900  0.56907400  1
  Cl  Cl25  1  0.90200200  0.97707900  0.06907400  1
  Cl  Cl26  1  0.53034800  0.40741200  0.18506500  1
  Cl  Cl27  1  0.32617000  0.15539600  0.22520000  1
  O  O0  1  0.27129900  0.34608800  0.88216400  1
  O  O1  1  0.22870100  0.34608800  0.38216400  1
  O  O2  1  0.29890500  0.61568700  0.45764800  1
  O  O3  1  0.07150400  0.76380300  0.75122600  1
  O  O4  1  0.33442700  0.89971200  0.84354900  1
  O  O5  1  0.95204600  0.54040400  0.13925500  1
  O  O6  1  0.70109500  0.38431300  0.54235200  1
  O  O7  1  0.68912600  0.12217500  0.34182100  1
  O  O8  1  0.57150400  0.23619700  0.74877400  1
  O  O9  1  0.45204600  0.45959600  0.36074500  1
  O  O10  1  0.79890500  0.38431300  0.04235200  1
  O  O11  1  0.54795400  0.54040400  0.63925500  1
  O  O12  1  0.20109500  0.61568700  0.95764800  1
  O  O13  1  0.04795400  0.45959600  0.86074500  1
  O  O14  1  0.92849600  0.23619700  0.24877400  1
  O  O15  1  0.18912600  0.87782500  0.15817900  1
  O  O16  1  0.31087400  0.87782500  0.65817900  1
  O  O17  1  0.77129900  0.65391200  0.61783600  1
  O  O18  1  0.42849600  0.76380300  0.25122600  1
  O  O19  1  0.66557300  0.10028800  0.15645100  1
  O  O20  1  0.81087400  0.12217500  0.84182100  1
  O  O21  1  0.16557300  0.89971200  0.34354900  1
  O  O22  1  0.72870100  0.65391200  0.11783600  1
  O  O23  1  0.83442700  0.10028800  0.65645100  1
loop_
_geom_bond_atom_site_label_1
_geom_bond_atom_site_label_2
_geom_bond_distance
_geom_bond_site_symmetry_2
C0 O16 1.151284 1_555
C0 Ru5 1.920922 1_555
C1 O14 1.149287 1_555
C1 Ru4 1.914530 1_655
C2 O2 1.152405 1_555
C2 Ru5 1.893441 1_555
C3 O0 1.150040 1_555
C3 Ru2 1.897724 1_555
C4 O17 1.150040 1_555
C4 Ru1 1.897724 1_555
C5 O1 1.150040 1_555
C5 Ru4 1.897724 1_555
C6 O9 1.149791 1_555
C6 Ru3 1.899457 1_555
C7 O6 1.152405 1_555
C7 Ru3 1.893441 1_555
C8 O7 1.151284 1_555
C8 Ru3 1.920922 1_555
C9 O4 1.150602 1_555
C9 Ru2 1.914487 1_565
C10 O11 1.149791 1_555
C10 Ru5 1.899457 1_555
C11 O18 1.149287 1_555
C11 Ru0 1.914530 1_555
C12 O23 1.150602 1_555
C12 Ru1 1.914487 1_545
C13 O5 1.149791 1_555
C13 Ru7 1.899457 1_655
C14 O20 1.151284 1_555
C14 Ru6 1.920922 1_555
C15 O10 1.152405 1_555
C15 Ru6 1.893441 1_554
C16 O3 1.149287 1_555
C16 Ru1 1.914530 1_455
C17 O12 1.152405 1_555
C17 Ru7 1.893441 1_556
C18 O8 1.149287 1_555
C18 Ru2 1.914530 1_555
C19 O22 1.150040 1_555
C19 Ru0 1.897724 1_555
C20 O21 1.150602 1_555
C20 Ru4 1.914487 1_565
C21 O15 1.151284 1_555
C21 Ru7 1.920922 1_555
C22 O13 1.149791 1_555
C22 Ru6 1.899457 1_455
C23 O19 1.150602 1_555
C23 Ru0 1.914487 1_545
Cl0 Ru1 2.430158 1_455
Cl1 Ru5 2.486983 1_545
Cl1 Ru3 2.491065 1_555
Cl2 Sb2 2.397574 1_555
Cl3 Ru7 2.424746 1_656
Cl4 Ru5 2.424746 1_555
Cl5 Sb2 2.415339 1_555
Cl6 Sb1 2.397574 1_555
Cl7 Sb2 2.390988 1_655
Cl8 Sb3 2.390988 1_555
Cl9 Ru6 2.424746 1_454
Cl10 Sb0 2.415339 1_555
Cl11 Ru2 2.430158 1_555
Cl12 Sb3 2.415339 1_555
Cl13 Sb0 2.390988 1_455
Cl14 Ru4 2.430158 1_655
Cl15 Sb3 2.397574 1_555
Cl16 Ru0 2.473214 1_556
Cl16 Ru2 2.485904 1_565
Cl17 Ru0 2.430158 1_555
Cl18 Sb0 2.397574 1_555
Cl19 Ru4 2.473214 1_555
Cl19 Ru1 2.485904 1_445
Cl20 Ru3 2.424746 1_555
Cl21 Ru2 2.473214 1_554
Cl21 Ru0 2.485904 1_545
Cl22 Ru1 2.473214 1_555
Cl22 Ru4 2.485904 1_665
Cl23 Ru7 2.486983 1_546
Cl23 Ru6 2.491065 1_455
Cl24 Ru3 2.486983 1_565
Cl24 Ru5 2.491065 1_555
Cl25 Ru6 2.486983 1_564
Cl25 Ru7 2.491065 1_655
Cl26 Sb1 2.390988 1_555
Cl27 Sb1 2.415339 1_555
