# generated using pymatgen
data_Na3Li3In2F12
_symmetry_space_group_name_H-M   'P 1'
_cell_length_a   11.16822204
_cell_length_b   11.16822204
_cell_length_c   11.16822204
_cell_angle_alpha   109.47122063
_cell_angle_beta   109.47122063
_cell_angle_gamma   109.47122063
_symmetry_Int_Tables_number   1
_chemical_formula_structural   Na3Li3In2F12
_chemical_formula_sum   'Na12 Li12 In8 F48'
_cell_volume   1072.33437552
_cell_formula_units_Z   4
loop_
 _symmetry_equiv_pos_site_id
 _symmetry_equiv_pos_as_xyz
  1  'x, y, z'
loop_
 _atom_site_type_symbol
 _atom_site_label
 _atom_site_symmetry_multiplicity
 _atom_site_fract_x
 _atom_site_fract_y
 _atom_site_fract_z
 _atom_site_occupancy
  Na  Na0  1  0.25000000  0.87500000  0.62500000  1
  Na  Na1  1  0.87500000  0.62500000  0.25000000  1
  Na  Na2  1  0.62500000  0.87500000  0.75000000  1
  Na  Na3  1  0.87500000  0.75000000  0.62500000  1
  Na  Na4  1  0.62500000  0.25000000  0.87500000  1
  Na  Na5  1  0.75000000  0.62500000  0.87500000  1
  Na  Na6  1  0.75000000  0.12500000  0.37500000  1
  Na  Na7  1  0.12500000  0.37500000  0.75000000  1
  Na  Na8  1  0.37500000  0.12500000  0.25000000  1
  Na  Na9  1  0.12500000  0.25000000  0.37500000  1
  Na  Na10  1  0.37500000  0.75000000  0.12500000  1
  Na  Na11  1  0.25000000  0.37500000  0.12500000  1
  Li  Li0  1  0.87500000  0.12500000  0.75000000  1
  Li  Li1  1  0.12500000  0.87500000  0.25000000  1
  Li  Li2  1  0.25000000  0.62500000  0.37500000  1
  Li  Li3  1  0.12500000  0.75000000  0.87500000  1
  Li  Li4  1  0.75000000  0.87500000  0.12500000  1
  Li  Li5  1  0.37500000  0.25000000  0.62500000  1
  Li  Li6  1  0.62500000  0.75000000  0.37500000  1
  Li  Li7  1  0.87500000  0.25000000  0.12500000  1
  Li  Li8  1  0.25000000  0.12500000  0.87500000  1
  Li  Li9  1  0.75000000  0.37500000  0.62500000  1
  Li  Li10  1  0.37500000  0.62500000  0.75000000  1
  Li  Li11  1  0.62500000  0.37500000  0.25000000  1
  In  In0  1  0.50000000  0.50000000  0.50000000  1
  In  In1  1  0.50000000  0.50000000  0.00000000  1
  In  In2  1  0.50000000  0.00000000  0.50000000  1
  In  In3  1  0.00000000  0.50000000  0.50000000  1
  In  In4  1  0.50000000  0.00000000  0.00000000  1
  In  In5  1  0.00000000  0.00000000  0.50000000  1
  In  In6  1  0.00000000  0.50000000  0.00000000  1
  In  In7  1  0.00000000  0.00000000  0.00000000  1
  F  F0  1  0.52313200  0.62218400  0.70469700  1
  F  F1  1  0.87781600  0.40094800  0.08251300  1
  F  F2  1  0.79530300  0.41748700  0.81843500  1
  F  F3  1  0.97686800  0.68156500  0.09905200  1
  F  F4  1  0.97686800  0.79530300  0.87781600  1
  F  F5  1  0.68156500  0.09905200  0.97686800  1
  F  F6  1  0.41748700  0.09905200  0.62218400  1
  F  F7  1  0.09905200  0.97686800  0.68156500  1
  F  F8  1  0.08251300  0.70469700  0.68156500  1
  F  F9  1  0.40094800  0.81843500  0.52313200  1
  F  F10  1  0.81843500  0.52313200  0.40094800  1
  F  F11  1  0.87781600  0.97686800  0.79530300  1
  F  F12  1  0.09905200  0.62218400  0.41748700  1
  F  F13  1  0.68156500  0.08251300  0.70469700  1
  F  F14  1  0.79530300  0.87781600  0.97686800  1
  F  F15  1  0.62218400  0.41748700  0.09905200  1
  F  F16  1  0.70469700  0.68156500  0.08251300  1
  F  F17  1  0.08251300  0.87781600  0.40094800  1
  F  F18  1  0.41748700  0.81843500  0.79530300  1
  F  F19  1  0.81843500  0.79530300  0.41748700  1
  F  F20  1  0.62218400  0.70469700  0.52313200  1
  F  F21  1  0.70469700  0.52313200  0.62218400  1
  F  F22  1  0.40094800  0.08251300  0.87781600  1
  F  F23  1  0.52313200  0.40094800  0.81843500  1
  F  F24  1  0.47686800  0.37781600  0.29530300  1
  F  F25  1  0.12218400  0.59905200  0.91748700  1
  F  F26  1  0.20469700  0.58251300  0.18156500  1
  F  F27  1  0.02313200  0.31843500  0.90094800  1
  F  F28  1  0.02313200  0.20469700  0.12218400  1
  F  F29  1  0.31843500  0.90094800  0.02313200  1
  F  F30  1  0.58251300  0.90094800  0.37781600  1
  F  F31  1  0.90094800  0.02313200  0.31843500  1
  F  F32  1  0.91748700  0.29530300  0.31843500  1
  F  F33  1  0.59905200  0.18156500  0.47686800  1
  F  F34  1  0.18156500  0.47686800  0.59905200  1
  F  F35  1  0.12218400  0.02313200  0.20469700  1
  F  F36  1  0.90094800  0.37781600  0.58251300  1
  F  F37  1  0.31843500  0.91748700  0.29530300  1
  F  F38  1  0.20469700  0.12218400  0.02313200  1
  F  F39  1  0.37781600  0.58251300  0.90094800  1
  F  F40  1  0.29530300  0.31843500  0.91748700  1
  F  F41  1  0.91748700  0.12218400  0.59905200  1
  F  F42  1  0.58251300  0.18156500  0.20469700  1
  F  F43  1  0.18156500  0.20469700  0.58251300  1
  F  F44  1  0.37781600  0.29530300  0.47686800  1
  F  F45  1  0.29530300  0.47686800  0.37781600  1
  F  F46  1  0.59905200  0.91748700  0.12218400  1
  F  F47  1  0.47686800  0.59905200  0.18156500  1
loop_
_geom_bond_atom_site_label_1
_geom_bond_atom_site_label_2
_geom_bond_distance
_geom_bond_site_symmetry_2
F0 Li10 1.891038 1_555
F0 In0 2.108699 1_555
F0 Na2 2.458632 1_555
F0 Na5 2.594707 1_555
F1 Li7 1.891038 1_555
F1 In6 2.108699 1_655
F1 Na4 2.458632 1_554
F1 Na1 2.594707 1_555
F2 Li9 1.891038 1_555
F2 In6 2.108699 1_656
F2 Na5 2.458632 1_555
F2 Na4 2.594707 1_555
F3 Li1 1.891038 1_655
F3 In6 2.108699 1_655
F3 Na1 2.458632 1_555
F3 Na5 2.594707 1_554
F4 Li3 1.891038 1_655
F4 In7 2.108699 1_666
F4 Na3 2.458632 1_555
F4 Na5 2.594707 1_555
F5 Li7 1.891038 1_556
F5 In4 2.108699 1_556
F5 Na4 2.458632 1_555
F5 Na2 2.594707 1_545
F6 Li5 1.891038 1_555
F6 In2 2.108699 1_555
F6 Na4 2.458632 1_555
F6 Na0 2.594707 1_545
F7 Li8 1.891038 1_565
F7 In5 2.108699 1_565
F7 Na0 2.458632 1_555
F7 Na3 2.594707 1_455
F8 Li3 1.891038 1_555
F8 In3 2.108699 1_555
F8 Na3 2.458632 1_455
F8 Na0 2.594707 1_555
F9 Li2 1.891038 1_555
F9 In2 2.108699 1_565
F9 Na0 2.458632 1_555
F9 Na2 2.594707 1_555
F10 Li11 1.891038 1_555
F10 In3 2.108699 1_655
F10 Na1 2.458632 1_555
F10 Na3 2.594707 1_555
F11 Li0 1.891038 1_565
F11 In7 2.108699 1_666
F11 Na2 2.458632 1_555
F11 Na3 2.594707 1_555
F12 Li2 1.891038 1_555
F12 In3 2.108699 1_555
F12 Na0 2.458632 1_555
F12 Na1 2.594707 1_455
F13 Li0 1.891038 1_555
F13 In2 2.108699 1_555
F13 Na2 2.458632 1_545
F13 Na4 2.594707 1_555
F14 Li4 1.891038 1_556
F14 In7 2.108699 1_666
F14 Na5 2.458632 1_555
F14 Na2 2.594707 1_555
F15 Li11 1.891038 1_555
F15 In1 2.108699 1_555
F15 Na1 2.458632 1_555
F15 Na4 2.594707 1_554
F16 Li4 1.891038 1_555
F16 In1 2.108699 1_555
F16 Na5 2.458632 1_554
F16 Na1 2.594707 1_555
F17 Li1 1.891038 1_555
F17 In5 2.108699 1_565
F17 Na1 2.458632 1_455
F17 Na0 2.594707 1_555
F18 Li10 1.891038 1_555
F18 In4 2.108699 1_566
F18 Na2 2.458632 1_555
F18 Na0 2.594707 1_555
F19 Li6 1.891038 1_555
F19 In5 2.108699 1_665
F19 Na3 2.458632 1_555
F19 Na1 2.594707 1_555
F20 Li6 1.891038 1_555
F20 In0 2.108699 1_555
F20 Na3 2.458632 1_555
F20 Na2 2.594707 1_555
F21 Li9 1.891038 1_555
F21 In0 2.108699 1_555
F21 Na5 2.458632 1_555
F21 Na3 2.594707 1_555
F22 Li8 1.891038 1_555
F22 In4 2.108699 1_556
F22 Na0 2.458632 1_545
F22 Na4 2.594707 1_555
F23 Li5 1.891038 1_555
F23 In1 2.108699 1_556
F23 Na4 2.458632 1_555
F23 Na5 2.594707 1_555
F24 Li11 1.891038 1_555
F24 In0 2.108699 1_555
F24 Na8 2.458632 1_555
F24 Na11 2.594707 1_555
F25 Li3 1.891038 1_555
F25 In6 2.108699 1_556
F25 Na10 2.458632 1_556
F25 Na7 2.594707 1_555
F26 Li2 1.891038 1_555
F26 In6 2.108699 1_555
F26 Na11 2.458632 1_555
F26 Na10 2.594707 1_555
F27 Li0 1.891038 1_455
F27 In6 2.108699 1_556
F27 Na7 2.458632 1_555
F27 Na11 2.594707 1_556
F28 Li7 1.891038 1_455
F28 In7 2.108699 1_555
F28 Na9 2.458632 1_555
F28 Na11 2.594707 1_555
F29 Li3 1.891038 1_554
F29 In4 2.108699 1_565
F29 Na10 2.458632 1_555
F29 Na8 2.594707 1_565
F30 Li6 1.891038 1_555
F30 In2 2.108699 1_565
F30 Na10 2.458632 1_555
F30 Na6 2.594707 1_565
F31 Li4 1.891038 1_545
F31 In5 2.108699 1_655
F31 Na6 2.458632 1_555
F31 Na9 2.594707 1_655
F32 Li7 1.891038 1_555
F32 In3 2.108699 1_655
F32 Na9 2.458632 1_655
F32 Na6 2.594707 1_555
F33 Li9 1.891038 1_555
F33 In2 2.108699 1_555
F33 Na6 2.458632 1_555
F33 Na8 2.594707 1_555
F34 Li10 1.891038 1_555
F34 In3 2.108699 1_555
F34 Na7 2.458632 1_555
F34 Na9 2.594707 1_555
F35 Li1 1.891038 1_545
F35 In7 2.108699 1_555
F35 Na8 2.458632 1_555
F35 Na9 2.594707 1_555
F36 Li9 1.891038 1_555
F36 In3 2.108699 1_655
F36 Na6 2.458632 1_555
F36 Na7 2.594707 1_655
F37 Li1 1.891038 1_555
F37 In2 2.108699 1_565
F37 Na8 2.458632 1_565
F37 Na10 2.594707 1_555
F38 Li8 1.891038 1_554
F38 In7 2.108699 1_555
F38 Na11 2.458632 1_555
F38 Na8 2.594707 1_555
F39 Li10 1.891038 1_555
F39 In1 2.108699 1_556
F39 Na7 2.458632 1_555
F39 Na10 2.594707 1_556
F40 Li8 1.891038 1_555
F40 In1 2.108699 1_556
F40 Na11 2.458632 1_556
F40 Na7 2.594707 1_555
F41 Li0 1.891038 1_555
F41 In5 2.108699 1_655
F41 Na7 2.458632 1_655
F41 Na6 2.594707 1_555
F42 Li11 1.891038 1_555
F42 In4 2.108699 1_555
F42 Na8 2.458632 1_555
F42 Na6 2.594707 1_555
F43 Li5 1.891038 1_555
F43 In5 2.108699 1_555
F43 Na9 2.458632 1_555
F43 Na7 2.594707 1_555
F44 Li5 1.891038 1_555
F44 In0 2.108699 1_555
F44 Na9 2.458632 1_555
F44 Na8 2.594707 1_555
F45 Li2 1.891038 1_555
F45 In0 2.108699 1_555
F45 Na11 2.458632 1_555
F45 Na9 2.594707 1_555
F46 Li4 1.891038 1_555
F46 In4 2.108699 1_565
F46 Na6 2.458632 1_565
F46 Na10 2.594707 1_555
F47 Li6 1.891038 1_555
F47 In1 2.108699 1_555
F47 Na10 2.458632 1_555
F47 Na11 2.594707 1_555
