# generated using pymatgen
data_Fe24N11
_symmetry_space_group_name_H-M   'P 1'
_cell_length_a   6.96163995
_cell_length_b   6.96163995
_cell_length_c   14.15973502
_cell_angle_alpha   89.95777340
_cell_angle_beta   89.95777340
_cell_angle_gamma   103.42870027
_symmetry_Int_Tables_number   1
_chemical_formula_structural   Fe24N11
_chemical_formula_sum   'Fe48 N22'
_cell_volume   667.48090131
_cell_formula_units_Z   2
loop_
 _symmetry_equiv_pos_site_id
 _symmetry_equiv_pos_as_xyz
  1  'x, y, z'
loop_
 _atom_site_type_symbol
 _atom_site_label
 _atom_site_symmetry_multiplicity
 _atom_site_fract_x
 _atom_site_fract_y
 _atom_site_fract_z
 _atom_site_occupancy
  Fe  Fe0  1  0.18365600  0.06203500  0.97224400  1
  Fe  Fe1  1  0.19101400  0.06481300  0.63825700  1
  Fe  Fe2  1  0.19373200  0.06870100  0.30373500  1
  Fe  Fe3  1  0.68800400  0.06626800  0.86108900  1
  Fe  Fe4  1  0.56485700  0.18641600  0.69426600  1
  Fe  Fe5  1  0.68536900  0.06229700  0.52724200  1
  Fe  Fe6  1  0.56498400  0.18561100  0.35904000  1
  Fe  Fe7  1  0.68603800  0.06701100  0.19814800  1
  Fe  Fe8  1  0.56610300  0.18976700  0.02987300  1
  Fe  Fe9  1  0.43703400  0.31829900  0.85976300  1
  Fe  Fe10  1  0.43555300  0.31426100  0.52737900  1
  Fe  Fe11  1  0.44944900  0.31280500  0.19519900  1
  Fe  Fe12  1  0.68573900  0.56444700  0.97262100  1
  Fe  Fe13  1  0.06870100  0.19373200  0.80373500  1
  Fe  Fe14  1  0.68170100  0.56296600  0.64023700  1
  Fe  Fe15  1  0.06203500  0.18365600  0.47224400  1
  Fe  Fe16  1  0.68719500  0.55055100  0.30480100  1
  Fe  Fe17  1  0.06481300  0.19101400  0.13825700  1
  Fe  Fe18  1  0.93770300  0.31463100  0.97275800  1
  Fe  Fe19  1  0.81358400  0.43514300  0.80573400  1
  Fe  Fe20  1  0.93373200  0.31199600  0.63891100  1
  Fe  Fe21  1  0.81023300  0.43389700  0.47012700  1
  Fe  Fe22  1  0.93298900  0.31396200  0.30185200  1
  Fe  Fe23  1  0.81438900  0.43501600  0.14096000  1
  Fe  Fe24  1  0.06701100  0.68603800  0.69814800  1
  Fe  Fe25  1  0.18561100  0.56498400  0.85904000  1
  Fe  Fe26  1  0.18976700  0.56610300  0.52987300  1
  Fe  Fe27  1  0.06626800  0.68800400  0.36108900  1
  Fe  Fe28  1  0.18641600  0.56485700  0.19426600  1
  Fe  Fe29  1  0.06229700  0.68536900  0.02724200  1
  Fe  Fe30  1  0.93518700  0.80898600  0.86174300  1
  Fe  Fe31  1  0.93796500  0.81634400  0.52775600  1
  Fe  Fe32  1  0.31280500  0.44944900  0.69519900  1
  Fe  Fe33  1  0.31829900  0.43703400  0.35976300  1
  Fe  Fe34  1  0.93129900  0.80626800  0.19626500  1
  Fe  Fe35  1  0.31426100  0.43555300  0.02737900  1
  Fe  Fe36  1  0.55055100  0.68719500  0.80480100  1
  Fe  Fe37  1  0.56444700  0.68573900  0.47262100  1
  Fe  Fe38  1  0.56296600  0.68170100  0.14023700  1
  Fe  Fe39  1  0.43389700  0.81023300  0.97012700  1
  Fe  Fe40  1  0.31396200  0.93298900  0.80185200  1
  Fe  Fe41  1  0.43501600  0.81438900  0.64096000  1
  Fe  Fe42  1  0.31463100  0.93770300  0.47275800  1
  Fe  Fe43  1  0.31199600  0.93373200  0.13891100  1
  Fe  Fe44  1  0.43514300  0.81358400  0.30573400  1
  Fe  Fe45  1  0.80626800  0.93129900  0.69626500  1
  Fe  Fe46  1  0.80898600  0.93518700  0.36174300  1
  Fe  Fe47  1  0.81634400  0.93796500  0.02775600  1
  N  N0  1  0.31921800  0.18377600  0.74847900  1
  N  N1  1  0.31807600  0.18358900  0.41617900  1
  N  N2  1  0.31847900  0.17804400  0.08222900  1
  N  N3  1  0.67900000  0.31961500  0.91784700  1
  N  N4  1  0.82106500  0.17893500  0.75000000  1
  N  N5  1  0.68038500  0.32100000  0.58215300  1
  N  N6  1  0.81546400  0.18079500  0.08722600  1
  N  N7  1  0.81920500  0.18453600  0.41277400  1
  N  N8  1  0.81622400  0.68078200  0.75152100  1
  N  N9  1  0.81641100  0.68192400  0.08382100  1
  N  N10  1  0.82195600  0.68152100  0.41777100  1
  N  N11  1  0.18358900  0.31807600  0.91617900  1
  N  N12  1  0.17804400  0.31847900  0.58222900  1
  N  N13  1  0.18377600  0.31921800  0.24847900  1
  N  N14  1  0.31961500  0.67900000  0.41784700  1
  N  N15  1  0.32100000  0.68038500  0.08215300  1
  N  N16  1  0.18453600  0.81920500  0.91277400  1
  N  N17  1  0.18079500  0.81546400  0.58722600  1
  N  N18  1  0.17893500  0.82106500  0.25000000  1
  N  N19  1  0.68152100  0.82195600  0.91777100  1
  N  N20  1  0.68192400  0.81641100  0.58382100  1
  N  N21  1  0.68078200  0.81622400  0.25152100  1
loop_
_geom_bond_atom_site_label_1
_geom_bond_atom_site_label_2
_geom_bond_distance
_geom_bond_site_symmetry_2
Fe0 N16 1.890452 1_545
Fe0 N2 1.900128 1_556
Fe0 N11 1.950822 1_555
Fe1 N17 1.866823 1_545
Fe1 N0 1.891804 1_555
Fe1 N12 1.956568 1_555
Fe2 N18 1.865775 1_545
Fe2 N1 1.899049 1_555
Fe2 N13 1.926850 1_555
Fe3 N19 1.871163 1_545
Fe3 N4 1.898985 1_555
Fe3 N3 1.952912 1_555
Fe4 N0 1.870115 1_555
Fe4 N5 1.921126 1_555
Fe4 N4 1.962652 1_555
Fe5 N20 1.884528 1_545
Fe5 N7 1.961340 1_555
Fe5 N5 1.969870 1_555
Fe6 N1 1.896327 1_555
Fe6 N7 1.928540 1_555
Fe7 N6 1.889640 1_555
Fe7 N21 1.894456 1_545
Fe8 N2 1.860286 1_555
Fe8 N3 1.901874 1_554
Fe8 N6 1.931150 1_555
Fe9 N3 1.873199 1_555
Fe9 N0 1.918348 1_555
Fe9 N11 1.935942 1_555
Fe10 N5 1.863782 1_555
Fe10 N1 1.906329 1_555
Fe10 N12 1.959647 1_555
Fe11 N2 1.969091 1_555
Fe11 N13 2.007044 1_555
Fe12 N3 1.863782 1_555
Fe12 N9 1.906329 1_556
Fe12 N19 1.959647 1_555
Fe13 N4 1.865775 1_455
Fe13 N11 1.899049 1_555
Fe13 N0 1.926850 1_555
Fe14 N5 1.873199 1_555
Fe14 N8 1.918348 1_555
Fe14 N20 1.935942 1_555
Fe15 N7 1.890452 1_455
Fe15 N12 1.900128 1_555
Fe15 N1 1.950822 1_555
Fe16 N10 1.969091 1_555
Fe16 N21 2.007044 1_555
Fe17 N6 1.866823 1_455
Fe17 N13 1.891804 1_555
Fe17 N2 1.956568 1_555
Fe18 N11 1.884528 1_655
Fe18 N6 1.961340 1_556
Fe18 N3 1.969870 1_555
Fe19 N8 1.870115 1_555
Fe19 N3 1.921126 1_555
Fe19 N4 1.962652 1_555
Fe20 N12 1.871163 1_655
Fe20 N4 1.898985 1_555
Fe20 N5 1.952912 1_555
Fe21 N10 1.860286 1_555
Fe21 N5 1.901874 1_555
Fe21 N7 1.931150 1_555
Fe22 N7 1.889640 1_555
Fe22 N13 1.894456 1_655
Fe23 N9 1.896327 1_555
Fe23 N6 1.928540 1_555
Fe24 N17 1.889640 1_555
Fe24 N8 1.894456 1_455
Fe25 N11 1.896327 1_555
Fe25 N16 1.928540 1_555
Fe26 N12 1.860286 1_555
Fe26 N14 1.901874 1_555
Fe26 N17 1.931150 1_555
Fe27 N10 1.871163 1_455
Fe27 N18 1.898985 1_555
Fe27 N14 1.952912 1_555
Fe28 N13 1.870115 1_555
Fe28 N15 1.921126 1_555
Fe28 N18 1.962652 1_555
Fe29 N9 1.884528 1_455
Fe29 N16 1.961340 1_554
Fe29 N15 1.969870 1_555
Fe30 N16 1.866823 1_655
Fe30 N8 1.891804 1_555
Fe30 N19 1.956568 1_555
Fe31 N17 1.890452 1_655
Fe31 N10 1.900128 1_555
Fe31 N20 1.950822 1_555
Fe32 N12 1.969091 1_555
Fe32 N0 2.007044 1_555
Fe33 N14 1.873199 1_555
Fe33 N13 1.918348 1_555
Fe33 N1 1.935942 1_555
Fe34 N18 1.865775 1_655
Fe34 N9 1.899049 1_555
Fe34 N21 1.926850 1_555
Fe35 N15 1.863782 1_555
Fe35 N11 1.906329 1_554
Fe35 N2 1.959647 1_555
Fe36 N19 1.969091 1_555
Fe36 N8 2.007044 1_555
Fe37 N14 1.863782 1_555
Fe37 N20 1.906329 1_555
Fe37 N10 1.959647 1_555
Fe38 N15 1.873199 1_555
Fe38 N21 1.918348 1_555
Fe38 N9 1.935942 1_555
Fe39 N19 1.860286 1_555
Fe39 N15 1.901874 1_556
Fe39 N16 1.931150 1_555
Fe40 N16 1.889640 1_555
Fe40 N0 1.894456 1_565
Fe41 N20 1.896327 1_555
Fe41 N17 1.928540 1_555
Fe42 N1 1.884528 1_565
Fe42 N17 1.961340 1_555
Fe42 N14 1.969870 1_555
Fe43 N2 1.871163 1_565
Fe43 N18 1.898985 1_555
Fe43 N15 1.952912 1_555
Fe44 N21 1.870115 1_555
Fe44 N14 1.921126 1_555
Fe44 N18 1.962652 1_555
Fe45 N4 1.865775 1_565
Fe45 N20 1.899049 1_555
Fe45 N8 1.926850 1_555
Fe46 N7 1.866823 1_565
Fe46 N21 1.891804 1_555
Fe46 N10 1.956568 1_555
Fe47 N6 1.890452 1_565
Fe47 N19 1.900128 1_554
Fe47 N9 1.950822 1_555
