# generated using pymatgen
data_Yb3Ti3O14
_symmetry_space_group_name_H-M   'P 1'
_cell_length_a   6.87795760
_cell_length_b   6.87795760
_cell_length_c   6.64844311
_cell_angle_alpha   65.06342975
_cell_angle_beta   65.06342975
_cell_angle_gamma   63.71019126
_symmetry_Int_Tables_number   1
_chemical_formula_structural   Yb3Ti3O14
_chemical_formula_sum   'Yb3 Ti3 O14'
_cell_volume   244.79040703
_cell_formula_units_Z   1
loop_
 _symmetry_equiv_pos_site_id
 _symmetry_equiv_pos_as_xyz
  1  'x, y, z'
loop_
 _atom_site_type_symbol
 _atom_site_label
 _atom_site_symmetry_multiplicity
 _atom_site_fract_x
 _atom_site_fract_y
 _atom_site_fract_z
 _atom_site_occupancy
  Yb  Yb0  1  0.00000000  0.50000000  0.50000000  1
  Yb  Yb1  1  0.50000000  0.00000000  0.50000000  1
  Yb  Yb2  1  0.50000000  0.50000000  0.50000000  1
  Ti  Ti0  1  0.00000000  0.50000000  0.00000000  1
  Ti  Ti1  1  0.50000000  0.00000000  0.00000000  1
  Ti  Ti2  1  0.00000000  0.00000000  0.50000000  1
  O  O0  1  0.92168800  0.32193500  0.32301900  1
  O  O1  1  0.32193500  0.92168800  0.32301900  1
  O  O2  1  0.63300100  0.15554700  0.09650400  1
  O  O3  1  0.15554700  0.63300100  0.09650400  1
  O  O4  1  0.10409800  0.10409800  0.66366400  1
  O  O5  1  0.72048000  0.72048000  0.09512000  1
  O  O6  1  0.89590200  0.89590200  0.33633600  1
  O  O7  1  0.37911900  0.37911900  0.32093700  1
  O  O8  1  0.67806500  0.07831200  0.67698100  1
  O  O9  1  0.07831200  0.67806500  0.67698100  1
  O  O10  1  0.27952000  0.27952000  0.90488000  1
  O  O11  1  0.62088100  0.62088100  0.67906300  1
  O  O12  1  0.84445300  0.36699900  0.90349600  1
  O  O13  1  0.36699900  0.84445300  0.90349600  1
loop_
_geom_bond_atom_site_label_1
_geom_bond_atom_site_label_2
_geom_bond_distance
_geom_bond_site_symmetry_2
O0 Ti0 1.947625 1_655
O0 Ti2 1.964314 1_655
O0 Yb0 2.347016 1_655
O0 Yb2 2.547037 1_555
O1 Ti1 1.947625 1_565
O1 Ti2 1.964314 1_565
O1 Yb1 2.347016 1_565
O1 Yb2 2.547037 1_555
O2 Ti1 2.081749 1_555
O2 Yb1 2.356994 1_555
O3 Ti0 2.081749 1_555
O3 Yb0 2.356994 1_555
O4 Ti2 1.994294 1_555
O4 Yb0 2.354320 1_555
O4 Yb1 2.354320 1_555
O5 Ti1 1.896464 1_565
O5 Ti0 1.896464 1_655
O5 Yb2 2.645386 1_555
O6 Ti2 1.994294 1_665
O6 Yb0 2.354320 1_655
O6 Yb1 2.354320 1_565
O7 Yb2 2.254181 1_555
O7 Yb0 2.281332 1_555
O7 Yb1 2.281332 1_555
O8 Ti1 1.947625 1_556
O8 Ti2 1.964314 1_655
O8 Yb1 2.347016 1_555
O8 Yb2 2.547037 1_555
O9 Ti0 1.947625 1_556
O9 Ti2 1.964314 1_565
O9 Yb0 2.347016 1_555
O9 Yb2 2.547037 1_555
O10 Ti0 1.896464 1_556
O10 Ti1 1.896464 1_556
O10 Yb2 2.645386 1_555
O11 Yb2 2.254181 1_555
O11 Yb1 2.281332 1_565
O11 Yb0 2.281332 1_655
O12 Ti0 2.081749 1_656
O12 Yb0 2.356994 1_655
O13 Ti1 2.081749 1_566
O13 Yb1 2.356994 1_565
