# generated using pymatgen
data_Gd5AgS8
_symmetry_space_group_name_H-M   'P 1'
_cell_length_a   7.25055779
_cell_length_b   7.25055779
_cell_length_c   7.25055779
_cell_angle_alpha   109.53375892
_cell_angle_beta   109.53375892
_cell_angle_gamma   109.34621633
_symmetry_Int_Tables_number   1
_chemical_formula_structural   Gd5AgS8
_chemical_formula_sum   'Gd5 Ag1 S8'
_cell_volume   293.42074409
_cell_formula_units_Z   1
loop_
 _symmetry_equiv_pos_site_id
 _symmetry_equiv_pos_as_xyz
  1  'x, y, z'
loop_
 _atom_site_type_symbol
 _atom_site_label
 _atom_site_symmetry_multiplicity
 _atom_site_fract_x
 _atom_site_fract_y
 _atom_site_fract_z
 _atom_site_occupancy
  Gd  Gd0  1  0.63336700  0.74762100  0.61895800  1
  Gd  Gd1  1  0.98559000  0.36663300  0.11425400  1
  Gd  Gd2  1  0.12866300  0.01440900  0.38104200  1
  Gd  Gd3  1  0.25237900  0.87133700  0.88574600  1
  Gd  Gd4  1  0.50000000  0.50000000  0.00000000  1
  Ag  Ag0  1  0.75000000  0.25000000  0.50000000  1
  S  S0  1  0.37839500  0.26943100  0.24968000  1
  S  S1  1  0.36052900  0.75101400  0.24150100  1
  S  S2  1  0.73056900  0.98024900  0.10896500  1
  S  S3  1  0.87128500  0.62160500  0.89103500  1
  S  S4  1  0.50951300  0.11902800  0.75849900  1
  S  S5  1  0.88097200  0.63947100  0.39048500  1
  S  S6  1  0.24898600  0.49048700  0.60951500  1
  S  S7  1  0.01975100  0.12871500  0.75032000  1
loop_
_geom_bond_atom_site_label_1
_geom_bond_atom_site_label_2
_geom_bond_distance
_geom_bond_site_symmetry_2
Gd0 S6 2.755402 1_555
Gd0 S3 2.770578 1_555
Gd0 S7 2.778037 1_665
Gd0 S1 2.803701 1_555
Gd0 S5 2.938520 1_555
Gd0 S0 2.973703 1_555
Gd0 S4 3.077278 1_565
Gd0 S2 3.081366 1_556
Gd1 S1 2.755406 1_655
Gd1 S7 2.770587 1_654
Gd1 S2 2.778038 1_545
Gd1 S5 2.803696 1_555
Gd1 S4 2.938515 1_554
Gd1 S3 2.973706 1_554
Gd1 S6 3.077279 1_655
Gd1 S0 3.081366 1_655
Gd2 S5 2.755402 1_445
Gd2 S2 2.770581 1_445
Gd2 S0 2.778037 1_555
Gd2 S4 2.803701 1_555
Gd2 S6 2.938520 1_555
Gd2 S7 2.973703 1_555
Gd2 S1 3.077278 1_545
Gd2 S3 3.081364 1_444
Gd3 S4 2.755402 1_565
Gd3 S0 2.770583 1_566
Gd3 S3 2.778032 1_455
Gd3 S6 2.803701 1_555
Gd3 S1 2.938520 1_556
Gd3 S2 2.973703 1_556
Gd3 S5 3.077278 1_455
Gd3 S7 3.081359 1_565
Gd4 S5 2.770096 1_555
Gd4 S1 2.770096 1_555
Gd4 S4 2.770096 1_554
Gd4 S6 2.770096 1_554
Gd4 S2 2.994000 1_555
Gd4 S0 2.994003 1_555
Gd4 S7 2.994003 1_554
Gd4 S3 2.994007 1_554
Ag0 S2 2.779520 1_545
Ag0 S3 2.779521 1_555
Ag0 S7 2.779526 1_655
Ag0 S0 2.779526 1_555
Ag0 S4 3.119873 1_555
Ag0 S6 3.119873 1_655
Ag0 S1 3.119873 1_545
Ag0 S5 3.119873 1_555
