# generated using pymatgen
data_Ag2Te
_symmetry_space_group_name_H-M   'P 1'
_cell_length_a   4.71827700
_cell_length_b   4.76607798
_cell_length_c   27.19236146
_cell_angle_alpha   92.53564589
_cell_angle_beta   91.95569654
_cell_angle_gamma   118.41828620
_symmetry_Int_Tables_number   1
_chemical_formula_structural   Ag2Te
_chemical_formula_sum   'Ag14 Te7'
_cell_volume   536.21890897
_cell_formula_units_Z   7
loop_
 _symmetry_equiv_pos_site_id
 _symmetry_equiv_pos_as_xyz
  1  'x, y, z'
loop_
 _atom_site_type_symbol
 _atom_site_label
 _atom_site_symmetry_multiplicity
 _atom_site_fract_x
 _atom_site_fract_y
 _atom_site_fract_z
 _atom_site_occupancy
  Ag  Ag0  1  0.78083600  0.56480000  0.80084200  1
  Ag  Ag1  1  0.99840400  0.99634500  0.88616100  1
  Ag  Ag2  1  0.22777000  0.47531300  0.74436400  1
  Ag  Ag3  1  0.25680200  0.49142500  0.63959700  1
  Ag  Ag4  1  0.58807100  0.12380900  0.60831200  1
  Ag  Ag5  1  0.40853900  0.13865200  0.50827100  1
  Ag  Ag6  1  0.80456000  0.66491600  0.45215100  1
  Ag  Ag7  1  0.76477100  0.52480000  0.25683500  1
  Ag  Ag8  1  0.12297600  0.22748700  0.32958100  1
  Ag  Ag9  1  0.06329000  0.12525700  0.10161800  1
  Ag  Ag10  1  0.09457600  0.18660200  0.21750800  1
  Ag  Ag11  1  0.42019000  0.83827700  0.18372000  1
  Ag  Ag12  1  0.38037500  0.75791600  0.05404400  1
  Ag  Ag13  1  0.70217300  0.39989600  0.02241800  1
  Te  Te0  1  0.02550800  0.04305900  0.99376900  1
  Te  Te1  1  0.31443800  0.61843200  0.85941000  1
  Te  Te2  1  0.55810600  0.13725600  0.71273200  1
  Te  Te3  1  0.88962200  0.74810000  0.57119000  1
  Te  Te4  1  0.12525200  0.30922700  0.42966600  1
  Te  Te5  1  0.43902900  0.87203300  0.29448600  1
  Te  Te6  1  0.74214000  0.48325600  0.14360900  1
loop_
_geom_bond_atom_site_label_1
_geom_bond_atom_site_label_2
_geom_bond_distance
_geom_bond_site_symmetry_2
Ag0 Ag2 2.821216 1_555
Ag0 Ag2 2.829574 1_655
Ag0 Te1 2.831644 1_655
Ag0 Ag1 2.841170 1_555
Ag0 Te1 2.860580 1_555
Ag0 Te2 2.890502 1_555
Ag1 Te1 2.756842 1_665
Ag1 Te1 2.894671 1_555
Ag1 Te1 2.917409 1_655
Ag1 Te0 2.918526 1_665
Ag2 Te2 2.850305 1_555
Ag2 Te2 2.857558 1_455
Ag2 Ag3 2.859485 1_555
Ag2 Te2 2.962043 1_565
Ag2 Te1 3.142864 1_555
Ag3 Ag4 2.843344 1_565
Ag3 Ag4 2.858707 1_455
Ag3 Ag4 2.966815 1_555
Ag3 Te3 3.155429 1_455
Ag3 Te2 3.248226 1_565
Ag3 Te3 3.312947 1_555
Ag3 Te2 3.348656 1_555
Ag3 Te3 3.516769 1_445
Ag4 Ag5 2.835427 1_555
Ag4 Te2 2.847167 1_555
Ag4 Te3 2.868938 1_555
Ag4 Te3 2.934765 1_545
Ag4 Te3 3.013618 1_445
Ag5 Te4 2.830061 1_555
Ag5 Ag6 2.860737 1_555
Ag5 Te3 2.935399 1_445
Ag5 Ag6 2.970152 1_445
Ag5 Te3 3.088108 1_555
Ag6 Te4 2.810703 1_665
Ag6 Te4 2.819593 1_655
Ag6 Te4 2.850193 1_555
Ag6 Te3 3.231477 1_555
Ag7 Te5 2.919675 1_655
Ag7 Te5 2.920217 1_555
Ag7 Te5 2.987910 1_545
Ag7 Te6 3.071420 1_555
Ag8 Te4 2.731102 1_555
Ag8 Te5 2.891915 1_545
Ag8 Te5 2.927062 1_555
Ag8 Te5 2.939017 1_445
Ag9 Te0 2.929504 1_554
Ag9 Te6 2.974985 1_555
Ag9 Te6 2.986250 1_455
Ag9 Te6 2.996092 1_445
Ag10 Ag11 2.889562 1_545
Ag10 Ag11 2.891808 1_445
Ag10 Ag7 2.916560 1_555
Ag10 Ag7 2.917479 1_455
Ag10 Ag11 2.942505 1_555
Ag10 Ag8 3.039423 1_555
Ag10 Ag7 3.042095 1_445
Ag10 Ag9 3.143844 1_555
Ag10 Te6 3.326174 1_455
Ag10 Te5 3.411067 1_545
Ag10 Te5 3.435738 1_555
Ag10 Te6 3.451186 1_445
Ag10 Te6 3.454152 1_555
Ag10 Te5 3.535825 1_445
Ag11 Te6 2.955317 1_455
Ag11 Te6 2.959133 1_555
Ag11 Te6 2.985290 1_565
Ag11 Te5 3.005179 1_555
Ag12 Ag13 2.882182 1_565
Ag12 Ag13 2.894147 1_455
Ag12 Ag13 2.895130 1_555
Ag12 Ag9 3.031062 1_555
Ag12 Ag9 3.044147 1_665
Ag12 Ag9 3.066243 1_565
Ag12 Te0 3.084217 1_564
Ag12 Te0 3.224742 1_664
Ag12 Te0 3.314634 1_554
Ag13 Te0 2.858683 1_664
Ag13 Te0 2.870092 1_554
Ag13 Te0 2.874049 1_654
Ag13 Te6 3.289978 1_555
