# generated using pymatgen
data_Sr5P3O12F
_symmetry_space_group_name_H-M   'P 1'
_cell_length_a   9.84985778
_cell_length_b   9.84985778
_cell_length_c   7.35915200
_cell_angle_alpha   90.00000000
_cell_angle_beta   90.00000000
_cell_angle_gamma   119.99999854
_symmetry_Int_Tables_number   1
_chemical_formula_structural   Sr5P3O12F
_chemical_formula_sum   'Sr10 P6 O24 F2'
_cell_volume   618.32717123
_cell_formula_units_Z   2
loop_
 _symmetry_equiv_pos_site_id
 _symmetry_equiv_pos_as_xyz
  1  'x, y, z'
loop_
 _atom_site_type_symbol
 _atom_site_label
 _atom_site_symmetry_multiplicity
 _atom_site_fract_x
 _atom_site_fract_y
 _atom_site_fract_z
 _atom_site_occupancy
  Sr  Sr0  1  0.66666700  0.33333300  0.49956100  1
  Sr  Sr1  1  0.33333300  0.66666700  0.99956100  1
  Sr  Sr2  1  0.33333300  0.66666700  0.50043900  1
  Sr  Sr3  1  0.66666700  0.33333300  0.00043900  1
  Sr  Sr4  1  0.75808000  0.01136000  0.75000000  1
  Sr  Sr5  1  0.74671900  0.75808000  0.25000000  1
  Sr  Sr6  1  0.01136000  0.25328100  0.25000000  1
  Sr  Sr7  1  0.98864000  0.74671900  0.75000000  1
  Sr  Sr8  1  0.25328100  0.24192000  0.75000000  1
  Sr  Sr9  1  0.24192000  0.98864000  0.25000000  1
  P  P0  1  0.03117000  0.39910200  0.75000000  1
  P  P1  1  0.63206800  0.03117000  0.25000000  1
  P  P2  1  0.39910200  0.36793200  0.25000000  1
  P  P3  1  0.60089800  0.63206800  0.75000000  1
  P  P4  1  0.36793200  0.96883000  0.75000000  1
  P  P5  1  0.96883000  0.60089800  0.25000000  1
  O  O0  1  0.11872900  0.58201400  0.75000000  1
  O  O1  1  0.53671500  0.11872900  0.25000000  1
  O  O2  1  0.58201400  0.46328500  0.25000000  1
  O  O3  1  0.41798600  0.53671500  0.75000000  1
  O  O4  1  0.46328500  0.88127100  0.75000000  1
  O  O5  1  0.88127100  0.41798600  0.25000000  1
  O  O6  1  0.34422600  0.26066200  0.42113600  1
  O  O7  1  0.08356400  0.34422600  0.92113600  1
  O  O8  1  0.26066200  0.91643600  0.92113600  1
  O  O9  1  0.73933800  0.08356400  0.42113600  1
  O  O10  1  0.91643600  0.65577400  0.42113600  1
  O  O11  1  0.65577400  0.73933800  0.92113600  1
  O  O12  1  0.65577400  0.73933800  0.57886400  1
  O  O13  1  0.91643600  0.65577400  0.07886400  1
  O  O14  1  0.73933800  0.08356400  0.07886400  1
  O  O15  1  0.26066200  0.91643600  0.57886400  1
  O  O16  1  0.08356400  0.34422600  0.57886400  1
  O  O17  1  0.34422600  0.26066200  0.07886400  1
  O  O18  1  0.14975300  0.66975200  0.25000000  1
  O  O19  1  0.48000100  0.14975300  0.75000000  1
  O  O20  1  0.66975200  0.51999900  0.75000000  1
  O  O21  1  0.33024800  0.48000100  0.25000000  1
  O  O22  1  0.51999900  0.85024700  0.25000000  1
  O  O23  1  0.85024700  0.33024800  0.75000000  1
  F  F0  1  0.00000000  0.00000000  0.75000000  1
  F  F1  1  0.00000000  0.00000000  0.25000000  1
loop_
_geom_bond_atom_site_label_1
_geom_bond_atom_site_label_2
_geom_bond_distance
_geom_bond_site_symmetry_2
O0 P0 1.560753 1_555
O0 Sr7 2.520432 1_455
O0 Sr1 2.602669 1_555
O0 Sr2 2.602669 1_555
O1 P1 1.560753 1_555
O1 Sr9 2.520441 1_545
O1 Sr3 2.602670 1_555
O1 Sr0 2.602670 1_555
O2 P2 1.560753 1_555
O2 Sr5 2.520440 1_555
O2 Sr0 2.602675 1_555
O2 Sr3 2.602675 1_555
O3 P3 1.560753 1_555
O3 Sr8 2.520440 1_555
O3 Sr1 2.602675 1_555
O3 Sr2 2.602675 1_555
O4 P4 1.560753 1_555
O4 Sr4 2.520441 1_565
O4 Sr1 2.602670 1_555
O4 Sr2 2.602670 1_555
O5 P5 1.560753 1_555
O5 Sr6 2.520432 1_655
O5 Sr3 2.602669 1_555
O5 Sr0 2.602669 1_555
O6 P2 1.556782 1_555
O6 Sr8 2.555061 1_555
O6 Sr9 2.660948 1_545
O6 Sr0 2.942626 1_555
O7 P0 1.556782 1_555
O7 Sr6 2.555062 1_556
O7 Sr8 2.660956 1_555
O7 Sr1 2.942623 1_555
O8 P4 1.556782 1_555
O8 Sr9 2.555064 1_556
O8 Sr7 2.660949 1_455
O8 Sr1 2.942617 1_555
O9 P1 1.556782 1_555
O9 Sr4 2.555064 1_555
O9 Sr6 2.660949 1_655
O9 Sr0 2.942617 1_555
O10 P5 1.556782 1_555
O10 Sr7 2.555062 1_555
O10 Sr5 2.660956 1_555
O10 Sr0 2.942623 1_555
O11 P3 1.556782 1_555
O11 Sr5 2.555061 1_556
O11 Sr4 2.660948 1_565
O11 Sr1 2.942626 1_555
O12 P3 1.556782 1_555
O12 Sr5 2.555061 1_555
O12 Sr4 2.660948 1_565
O12 Sr2 2.942626 1_555
O13 P5 1.556782 1_555
O13 Sr7 2.555062 1_554
O13 Sr5 2.660956 1_555
O13 Sr3 2.942623 1_555
O14 P1 1.556782 1_555
O14 Sr4 2.555064 1_554
O14 Sr6 2.660949 1_655
O14 Sr3 2.942617 1_555
O15 P4 1.556782 1_555
O15 Sr9 2.555064 1_555
O15 Sr7 2.660949 1_455
O15 Sr2 2.942617 1_555
O16 P0 1.556782 1_555
O16 Sr6 2.555062 1_555
O16 Sr8 2.660956 1_555
O16 Sr2 2.942623 1_555
O17 P2 1.556782 1_555
O17 Sr8 2.555061 1_554
O17 Sr9 2.660948 1_545
O17 Sr3 2.942626 1_555
O18 P5 1.557920 1_455
O18 Sr2 2.592741 1_555
O18 Sr1 2.592741 1_554
O18 Sr9 2.799741 1_555
O19 P4 1.557920 1_545
O19 Sr0 2.592745 1_555
O19 Sr3 2.592745 1_556
O19 Sr8 2.799731 1_555
O20 P3 1.557920 1_555
O20 Sr0 2.592748 1_555
O20 Sr3 2.592748 1_556
O20 Sr7 2.799738 1_555
O21 P2 1.557920 1_555
O21 Sr2 2.592748 1_555
O21 Sr1 2.592748 1_554
O21 Sr6 2.799738 1_555
O22 P1 1.557920 1_565
O22 Sr2 2.592745 1_555
O22 Sr1 2.592745 1_554
O22 Sr5 2.799731 1_555
O23 P0 1.557920 1_655
O23 Sr3 2.592741 1_556
O23 Sr0 2.592741 1_555
O23 Sr4 2.799741 1_555
F0 Sr4 2.440749 1_455
F0 Sr8 2.440755 1_555
F0 Sr7 2.440759 1_445
F1 Sr9 2.440749 1_545
F1 Sr5 2.440755 1_445
F1 Sr6 2.440759 1_555
