# generated using pymatgen
data_Hf8MnTe6
_symmetry_space_group_name_H-M   'P 1'
_cell_length_a   3.74896700
_cell_length_b   7.69958000
_cell_length_c   26.09395700
_cell_angle_alpha   90.00000000
_cell_angle_beta   90.00000000
_cell_angle_gamma   90.00000000
_symmetry_Int_Tables_number   1
_chemical_formula_structural   Hf8MnTe6
_chemical_formula_sum   'Hf16 Mn2 Te12'
_cell_volume   753.21436777
_cell_formula_units_Z   2
loop_
 _symmetry_equiv_pos_site_id
 _symmetry_equiv_pos_as_xyz
  1  'x, y, z'
loop_
 _atom_site_type_symbol
 _atom_site_label
 _atom_site_symmetry_multiplicity
 _atom_site_fract_x
 _atom_site_fract_y
 _atom_site_fract_z
 _atom_site_occupancy
  Hf  Hf0  1  0.00000000  0.42778400  0.00000000  1
  Hf  Hf1  1  0.50000000  0.44099800  0.30151800  1
  Hf  Hf2  1  0.00000000  0.55305800  0.59892100  1
  Hf  Hf3  1  0.50000000  0.44694200  0.90107900  1
  Hf  Hf4  1  0.50000000  0.23724900  0.56723800  1
  Hf  Hf5  1  0.50000000  0.57221600  0.50000000  1
  Hf  Hf6  1  0.00000000  0.96195000  0.50000000  1
  Hf  Hf7  1  0.00000000  0.76275100  0.93276200  1
  Hf  Hf8  1  0.50000000  0.03805000  0.00000000  1
  Hf  Hf9  1  0.50000000  0.23724900  0.43276200  1
  Hf  Hf10  1  0.00000000  0.55900200  0.80151800  1
  Hf  Hf11  1  0.50000000  0.44694200  0.09892100  1
  Hf  Hf12  1  0.00000000  0.76275100  0.06723800  1
  Hf  Hf13  1  0.00000000  0.55900200  0.19848200  1
  Hf  Hf14  1  0.00000000  0.55305800  0.40107900  1
  Hf  Hf15  1  0.50000000  0.44099800  0.69848200  1
  Mn  Mn0  1  0.50000000  0.68112700  0.00000000  1
  Mn  Mn1  1  0.00000000  0.31887300  0.50000000  1
  Te  Te0  1  0.00000000  0.19913400  0.34363800  1
  Te  Te1  1  0.50000000  0.27858000  0.79791300  1
  Te  Te2  1  0.50000000  0.80086600  0.84363800  1
  Te  Te3  1  0.00000000  0.72142000  0.29791300  1
  Te  Te4  1  0.50000000  0.84846800  0.58153700  1
  Te  Te5  1  0.50000000  0.27858000  0.20208700  1
  Te  Te6  1  0.50000000  0.84846800  0.41846300  1
  Te  Te7  1  0.00000000  0.72142000  0.70208700  1
  Te  Te8  1  0.00000000  0.19913400  0.65636200  1
  Te  Te9  1  0.50000000  0.80086600  0.15636200  1
  Te  Te10  1  0.00000000  0.15153200  0.91846300  1
  Te  Te11  1  0.00000000  0.15153200  0.08153700  1
loop_
_geom_bond_atom_site_label_1
_geom_bond_atom_site_label_2
_geom_bond_distance
_geom_bond_site_symmetry_2
Hf0 Mn0 2.705303 1_455
Hf0 Mn0 2.705303 1_555
Hf0 Te10 3.008490 1_554
Hf0 Te11 3.008490 1_555
Hf1 Te3 2.860837 1_555
Hf1 Te3 2.860837 1_655
Hf1 Te0 2.861755 1_555
Hf1 Te0 2.861755 1_655
Hf1 Te5 2.880201 1_555
Hf2 Te4 2.982106 1_455
Hf2 Te4 2.982106 1_555
Hf2 Te7 2.987867 1_555
Hf2 Te8 3.110076 1_555
Hf2 Mn1 3.148661 1_555
Hf3 Te10 2.982106 1_555
Hf3 Te10 2.982106 1_655
Hf3 Te1 2.987867 1_555
Hf3 Te2 3.110076 1_555
Hf3 Mn0 3.148661 1_556
Hf4 Mn1 2.643285 1_555
Hf4 Mn1 2.643285 1_655
Hf4 Te8 3.001369 1_655
Hf4 Te8 3.001369 1_555
Hf4 Te4 3.016614 1_545
Hf5 Mn1 2.705303 1_555
Hf5 Mn1 2.705303 1_655
Hf5 Te4 3.008490 1_555
Hf5 Te6 3.008490 1_555
Hf6 Mn1 2.748157 1_565
Hf6 Te4 2.967142 1_555
Hf6 Te4 2.967142 1_455
Hf6 Te6 2.967142 1_455
Hf6 Te6 2.967142 1_555
Hf7 Mn0 2.643285 1_556
Hf7 Mn0 2.643285 1_456
Hf7 Te2 3.001369 1_555
Hf7 Te2 3.001369 1_455
Hf7 Te10 3.016614 1_565
Hf8 Mn0 2.748157 1_545
Hf8 Te10 2.967142 1_654
Hf8 Te10 2.967142 1_554
Hf8 Te11 2.967142 1_555
Hf8 Te11 2.967142 1_655
Hf9 Mn1 2.643285 1_555
Hf9 Mn1 2.643285 1_655
Hf9 Te0 3.001369 1_555
Hf9 Te0 3.001369 1_655
Hf9 Te6 3.016614 1_545
Hf10 Te1 2.860837 1_455
Hf10 Te1 2.860837 1_555
Hf10 Te2 2.861755 1_555
Hf10 Te2 2.861755 1_455
Hf10 Te7 2.880201 1_555
Hf11 Te11 2.982106 1_555
Hf11 Te11 2.982106 1_655
Hf11 Te5 2.987867 1_555
Hf11 Te9 3.110076 1_555
Hf11 Mn0 3.148661 1_555
Hf12 Mn0 2.643285 1_455
Hf12 Mn0 2.643285 1_555
Hf12 Te9 3.001369 1_555
Hf12 Te9 3.001369 1_455
Hf12 Te11 3.016614 1_565
Hf13 Te5 2.860837 1_455
Hf13 Te5 2.860837 1_555
Hf13 Te9 2.861755 1_455
Hf13 Te9 2.861755 1_555
Hf13 Te3 2.880201 1_555
Hf14 Te6 2.982106 1_555
Hf14 Te6 2.982106 1_455
Hf14 Te3 2.987867 1_555
Hf14 Te0 3.110076 1_555
Hf14 Mn1 3.148661 1_555
Hf15 Te7 2.860837 1_555
Hf15 Te7 2.860837 1_655
Hf15 Te8 2.861755 1_655
Hf15 Te8 2.861755 1_555
Hf15 Te1 2.880201 1_555
