# generated using pymatgen
data_Np3Se3O13
_symmetry_space_group_name_H-M   'P 1'
_cell_length_a   10.78558700
_cell_length_b   12.14274900
_cell_length_c   18.02809400
_cell_angle_alpha   90.00000000
_cell_angle_beta   90.00000000
_cell_angle_gamma   90.00000000
_symmetry_Int_Tables_number   1
_chemical_formula_structural   Np3Se3O13
_chemical_formula_sum   'Np24 Se24 O104'
_cell_volume   2361.07954144
_cell_formula_units_Z   8
loop_
 _symmetry_equiv_pos_site_id
 _symmetry_equiv_pos_as_xyz
  1  'x, y, z'
loop_
 _atom_site_type_symbol
 _atom_site_label
 _atom_site_symmetry_multiplicity
 _atom_site_fract_x
 _atom_site_fract_y
 _atom_site_fract_z
 _atom_site_occupancy
  Np  Np0  1  0.75089800  0.58737200  0.57770400  1
  Np  Np1  1  0.98987100  0.42894600  0.26118500  1
  Np  Np2  1  0.01012900  0.57105400  0.73881500  1
  Np  Np3  1  0.99386700  0.16389900  0.40136800  1
  Np  Np4  1  0.74910200  0.41262800  0.07770400  1
  Np  Np5  1  0.24910200  0.41262800  0.42229600  1
  Np  Np6  1  0.48987100  0.42894600  0.23881500  1
  Np  Np7  1  0.51012900  0.57105400  0.76118500  1
  Np  Np8  1  0.49386700  0.16389900  0.09863200  1
  Np  Np9  1  0.00613300  0.83610100  0.59863200  1
  Np  Np10  1  0.25089800  0.58737200  0.92229600  1
  Np  Np11  1  0.25089800  0.91262800  0.42229600  1
  Np  Np12  1  0.98987100  0.07105400  0.76118500  1
  Np  Np13  1  0.01012900  0.92894600  0.23881500  1
  Np  Np14  1  0.99386700  0.33610100  0.90136800  1
  Np  Np15  1  0.48987100  0.07105400  0.73881500  1
  Np  Np16  1  0.50613300  0.83610100  0.90136800  1
  Np  Np17  1  0.49386700  0.33610100  0.59863200  1
  Np  Np18  1  0.75089800  0.91262800  0.07770400  1
  Np  Np19  1  0.51012900  0.92894600  0.26118500  1
  Np  Np20  1  0.24910200  0.08737200  0.92229600  1
  Np  Np21  1  0.74910200  0.08737200  0.57770400  1
  Np  Np22  1  0.50613300  0.66389900  0.40136800  1
  Np  Np23  1  0.00613300  0.66389900  0.09863200  1
  Se  Se0  1  0.52675800  0.66022700  0.05344400  1
  Se  Se1  1  0.27544700  0.96239200  0.10689100  1
  Se  Se2  1  0.97324200  0.16022700  0.05344400  1
  Se  Se3  1  0.77544700  0.53760800  0.89310900  1
  Se  Se4  1  0.77544700  0.96239200  0.39310900  1
  Se  Se5  1  0.20430600  0.30300600  0.76749700  1
  Se  Se6  1  0.70430600  0.19699400  0.23250300  1
  Se  Se7  1  0.47324200  0.33977300  0.94655600  1
  Se  Se8  1  0.22455300  0.46239200  0.10689100  1
  Se  Se9  1  0.29569400  0.69699400  0.26749700  1
  Se  Se10  1  0.02675800  0.83977300  0.94655600  1
  Se  Se11  1  0.52675800  0.83977300  0.55344400  1
  Se  Se12  1  0.47324200  0.16022700  0.44655600  1
  Se  Se13  1  0.79569400  0.80300600  0.73250300  1
  Se  Se14  1  0.29569400  0.80300600  0.76749700  1
  Se  Se15  1  0.70430600  0.30300600  0.73250300  1
  Se  Se16  1  0.97324200  0.33977300  0.55344400  1
  Se  Se17  1  0.22455300  0.03760800  0.60689100  1
  Se  Se18  1  0.27544700  0.53760800  0.60689100  1
  Se  Se19  1  0.02675800  0.66022700  0.44655600  1
  Se  Se20  1  0.72455300  0.46239200  0.39310900  1
  Se  Se21  1  0.79569400  0.69699400  0.23250300  1
  Se  Se22  1  0.20430600  0.19699400  0.26749700  1
  Se  Se23  1  0.72455300  0.03760800  0.89310900  1
  O  O0  1  0.29373200  0.07898300  0.05068700  1
  O  O1  1  0.18905000  0.25325600  0.85997000  1
  O  O2  1  0.63453100  0.20322200  0.78385000  1
  O  O3  1  0.13453100  0.29677800  0.21615000  1
  O  O4  1  0.89381300  0.48843400  0.83458500  1
  O  O5  1  0.91435500  0.22435900  0.84507400  1
  O  O6  1  0.90495600  0.55069700  0.05811000  1
  O  O7  1  0.58564500  0.72435900  0.84507400  1
  O  O8  1  0.10618700  0.51156600  0.16541500  1
  O  O9  1  0.36556700  0.43378900  0.97552700  1
  O  O10  1  0.58564500  0.77564100  0.34507400  1
  O  O11  1  0.14756500  0.00371300  0.15436700  1
  O  O12  1  0.37311600  0.11777900  0.81165000  1
  O  O13  1  0.40152700  0.28565900  0.46806800  1
  O  O14  1  0.07469500  0.17329900  0.97672100  1
  O  O15  1  0.92141200  0.89124600  0.71813000  1
  O  O16  1  0.85243500  0.50371300  0.34563300  1
  O  O17  1  0.79373200  0.42101700  0.94931300  1
  O  O18  1  0.36556700  0.06621100  0.47552700  1
  O  O19  1  0.59847300  0.71434100  0.53193200  1
  O  O20  1  0.88424700  0.97709200  0.17021300  1
  O  O21  1  0.36546900  0.79677800  0.21615000  1
  O  O22  1  0.40495600  0.94930300  0.94189000  1
  O  O23  1  0.64756500  0.00371300  0.34563300  1
  O  O24  1  0.57469500  0.32670100  0.02327900  1
  O  O25  1  0.14756500  0.49628700  0.65436700  1
  O  O26  1  0.09504400  0.44930300  0.94189000  1
  O  O27  1  0.90495600  0.94930300  0.55811000  1
  O  O28  1  0.10618700  0.98843400  0.66541500  1
  O  O29  1  0.29373200  0.42101700  0.55068700  1
  O  O30  1  0.20626800  0.57898300  0.05068700  1
  O  O31  1  0.62688400  0.61777900  0.68835000  1
  O  O32  1  0.20626800  0.92101700  0.55068700  1
  O  O33  1  0.39381300  0.01156600  0.16541500  1
  O  O34  1  0.57858800  0.39124600  0.71813000  1
  O  O35  1  0.59847300  0.78565900  0.03193200  1
  O  O36  1  0.09847300  0.71434100  0.96806800  1
  O  O37  1  0.38424700  0.97709200  0.32978700  1
  O  O38  1  0.70626800  0.92101700  0.94931300  1
  O  O39  1  0.63443300  0.56621100  0.02447300  1
  O  O40  1  0.81095000  0.74674400  0.14003000  1
  O  O41  1  0.35243500  0.99628700  0.65436700  1
  O  O42  1  0.87311600  0.38222100  0.18835000  1
  O  O43  1  0.57858800  0.10875400  0.21813000  1
  O  O44  1  0.40495600  0.55069700  0.44189000  1
  O  O45  1  0.92141200  0.60875400  0.21813000  1
  O  O46  1  0.13443300  0.93378900  0.97552700  1
  O  O47  1  0.13443300  0.56621100  0.47552700  1
  O  O48  1  0.81095000  0.75325600  0.64003000  1
  O  O49  1  0.57469500  0.17329900  0.52327900  1
  O  O50  1  0.31095000  0.74674400  0.35997000  1
  O  O51  1  0.38424700  0.52290800  0.82978700  1
  O  O52  1  0.60618700  0.98843400  0.83458500  1
  O  O53  1  0.18905000  0.24674400  0.35997000  1
  O  O54  1  0.42530500  0.67329900  0.97672100  1
  O  O55  1  0.90152700  0.21434100  0.53193200  1
  O  O56  1  0.86556700  0.43378900  0.52447300  1
  O  O57  1  0.36546900  0.70322200  0.71615000  1
  O  O58  1  0.09504400  0.05069700  0.44189000  1
  O  O59  1  0.87311600  0.11777900  0.68835000  1
  O  O60  1  0.92530500  0.82670100  0.02327900  1
  O  O61  1  0.64756500  0.49628700  0.84563300  1
  O  O62  1  0.11575300  0.47709200  0.32978700  1
  O  O63  1  0.59504400  0.44930300  0.55811000  1
  O  O64  1  0.63443300  0.93378900  0.52447300  1
  O  O65  1  0.41435500  0.27564100  0.15492600  1
  O  O66  1  0.89381300  0.01156600  0.33458500  1
  O  O67  1  0.13453100  0.20322200  0.71615000  1
  O  O68  1  0.12688400  0.88222100  0.31165000  1
  O  O69  1  0.42530500  0.82670100  0.47672100  1
  O  O70  1  0.92530500  0.67329900  0.52327900  1
  O  O71  1  0.59504400  0.05069700  0.05811000  1
  O  O72  1  0.63453100  0.29677800  0.28385000  1
  O  O73  1  0.35243500  0.50371300  0.15436700  1
  O  O74  1  0.31095000  0.75325600  0.85997000  1
  O  O75  1  0.12688400  0.61777900  0.81165000  1
  O  O76  1  0.42141200  0.89124600  0.78187000  1
  O  O77  1  0.40152700  0.21434100  0.96806800  1
  O  O78  1  0.62688400  0.88222100  0.18835000  1
  O  O79  1  0.90152700  0.28565900  0.03193200  1
  O  O80  1  0.07858800  0.10875400  0.28187000  1
  O  O81  1  0.08564500  0.77564100  0.15492600  1
  O  O82  1  0.60618700  0.51156600  0.33458500  1
  O  O83  1  0.68905000  0.25325600  0.64003000  1
  O  O84  1  0.37311600  0.38222100  0.31165000  1
  O  O85  1  0.79373200  0.07898300  0.44931300  1
  O  O86  1  0.42141200  0.60875400  0.28187000  1
  O  O87  1  0.70626800  0.57898300  0.44931300  1
  O  O88  1  0.61575300  0.47709200  0.17021300  1
  O  O89  1  0.08564500  0.72435900  0.65492600  1
  O  O90  1  0.07469500  0.32670100  0.47672100  1
  O  O91  1  0.39381300  0.48843400  0.66541500  1
  O  O92  1  0.07858800  0.39124600  0.78187000  1
  O  O93  1  0.88424700  0.52290800  0.67021300  1
  O  O94  1  0.86556700  0.06621100  0.02447300  1
  O  O95  1  0.85243500  0.99628700  0.84563300  1
  O  O96  1  0.09847300  0.78565900  0.46806800  1
  O  O97  1  0.11575300  0.02290800  0.82978700  1
  O  O98  1  0.68905000  0.24674400  0.14003000  1
  O  O99  1  0.91435500  0.27564100  0.34507400  1
  O  O100  1  0.86546900  0.79677800  0.28385000  1
  O  O101  1  0.61575300  0.02290800  0.67021300  1
  O  O102  1  0.86546900  0.70322200  0.78385000  1
  O  O103  1  0.41435500  0.22435900  0.65492600  1
loop_
_geom_bond_atom_site_label_1
_geom_bond_atom_site_label_2
_geom_bond_distance
_geom_bond_site_symmetry_2
Np0 O93 2.337244 1_555
Np0 O70 2.364285 1_555
Np0 O87 2.366361 1_555
Np0 O48 2.395701 1_555
Np0 O19 2.400133 1_555
Np0 O63 2.400258 1_555
Np0 O31 2.429892 1_555
Np0 O56 2.434844 1_555
Np1 O42 1.905739 1_555
Np1 O62 1.927369 1_655
Np1 O16 2.310703 1_555
Np1 O8 2.358244 1_655
Np1 O3 2.381004 1_655
Np1 O45 2.432026 1_555
Np1 O99 2.532975 1_555
Np2 O75 1.905739 1_555
Np2 O93 1.927369 1_455
Np2 O25 2.310703 1_555
Np2 O4 2.358244 1_455
Np2 O102 2.381004 1_455
Np2 O92 2.432026 1_555
Np2 O89 2.532975 1_555
Np3 O99 1.899072 1_555
Np3 O58 1.901051 1_655
Np3 O80 2.434019 1_655
Np3 O53 2.449629 1_655
Np3 O66 2.456753 1_555
Np3 O85 2.543570 1_555
Np3 O90 2.552142 1_655
Np3 O55 2.628218 1_555
Np4 O88 2.337244 1_555
Np4 O24 2.364285 1_555
Np4 O17 2.366361 1_554
Np4 O98 2.395701 1_555
Np4 O79 2.400133 1_555
Np4 O6 2.400258 1_555
Np4 O42 2.429892 1_555
Np4 O39 2.434844 1_555
Np5 O62 2.337244 1_555
Np5 O90 2.364285 1_555
Np5 O29 2.366361 1_555
Np5 O53 2.395701 1_555
Np5 O13 2.400133 1_555
Np5 O44 2.400258 1_555
Np5 O84 2.429892 1_555
Np5 O47 2.434844 1_555
Np6 O84 1.905739 1_555
Np6 O88 1.927369 1_555
Np6 O73 2.310703 1_555
Np6 O82 2.358244 1_555
Np6 O72 2.381004 1_555
Np6 O86 2.432026 1_555
Np6 O65 2.532975 1_555
Np7 O31 1.905739 1_555
Np7 O51 1.927369 1_555
Np7 O61 2.310703 1_555
Np7 O91 2.358244 1_555
Np7 O57 2.381004 1_555
Np7 O34 2.432026 1_555
Np7 O7 2.532975 1_555
Np8 O65 1.899072 1_555
Np8 O71 1.901051 1_555
Np8 O43 2.434019 1_555
Np8 O98 2.449629 1_555
Np8 O33 2.456753 1_555
Np8 O0 2.543570 1_555
Np8 O24 2.552142 1_555
Np8 O77 2.628218 1_554
Np9 O89 1.899072 1_555
Np9 O27 1.901051 1_455
Np9 O15 2.434019 1_455
Np9 O48 2.449629 1_455
Np9 O28 2.456753 1_555
Np9 O32 2.543570 1_555
Np9 O70 2.552142 1_455
Np9 O96 2.628218 1_555
Np10 O51 2.337244 1_555
Np10 O54 2.364285 1_555
Np10 O30 2.366361 1_556
Np10 O74 2.395701 1_555
Np10 O36 2.400133 1_555
Np10 O26 2.400258 1_555
Np10 O75 2.429892 1_555
Np10 O9 2.434844 1_555
Np11 O37 2.337244 1_555
Np11 O69 2.364285 1_555
Np11 O32 2.366361 1_555
Np11 O50 2.395701 1_555
Np11 O96 2.400133 1_555
Np11 O58 2.400258 1_565
Np11 O68 2.429892 1_555
Np11 O18 2.434844 1_565
Np12 O59 1.905739 1_555
Np12 O97 1.927369 1_655
Np12 O95 2.310703 1_545
Np12 O28 2.358244 1_645
Np12 O67 2.381004 1_655
Np12 O15 2.432026 1_545
Np12 O5 2.532975 1_555
Np13 O68 1.905739 1_555
Np13 O20 1.927369 1_455
Np13 O11 2.310703 1_565
Np13 O66 2.358244 1_465
Np13 O100 2.381004 1_455
Np13 O80 2.432026 1_565
Np13 O81 2.532975 1_555
Np14 O5 1.899072 1_555
Np14 O26 1.901051 1_655
Np14 O92 2.434019 1_655
Np14 O1 2.449629 1_655
Np14 O4 2.456753 1_555
Np14 O17 2.543570 1_555
Np14 O14 2.552142 1_655
Np14 O79 2.628218 1_556
Np15 O12 1.905739 1_555
Np15 O101 1.927369 1_555
Np15 O41 2.310703 1_545
Np15 O52 2.358244 1_545
Np15 O2 2.381004 1_555
Np15 O76 2.432026 1_545
Np15 O103 2.532975 1_555
Np16 O7 1.899072 1_555
Np16 O22 1.901051 1_555
Np16 O76 2.434019 1_555
Np16 O74 2.449629 1_555
Np16 O52 2.456753 1_555
Np16 O38 2.543570 1_555
Np16 O54 2.552142 1_555
Np16 O35 2.628218 1_556
Np17 O103 1.899072 1_555
Np17 O63 1.901051 1_555
Np17 O34 2.434019 1_555
Np17 O83 2.449629 1_555
Np17 O91 2.456753 1_555
Np17 O29 2.543570 1_555
Np17 O49 2.552142 1_555
Np17 O13 2.628218 1_555
Np18 O20 2.337244 1_555
Np18 O60 2.364285 1_555
Np18 O38 2.366361 1_554
Np18 O40 2.395701 1_555
Np18 O35 2.400133 1_555
Np18 O71 2.400258 1_565
Np18 O78 2.429892 1_555
Np18 O94 2.434844 1_565
Np19 O78 1.905739 1_555
Np19 O37 1.927369 1_555
Np19 O23 2.310703 1_565
Np19 O33 2.358244 1_565
Np19 O21 2.381004 1_555
Np19 O43 2.432026 1_565
Np19 O10 2.532975 1_555
Np20 O97 2.337244 1_555
Np20 O14 2.364285 1_555
Np20 O0 2.366361 1_556
Np20 O1 2.395701 1_555
Np20 O77 2.400133 1_555
Np20 O22 2.400258 1_545
Np20 O12 2.429892 1_555
Np20 O46 2.434844 1_545
Np21 O101 2.337244 1_555
Np21 O49 2.364285 1_555
Np21 O85 2.366361 1_555
Np21 O83 2.395701 1_555
Np21 O55 2.400133 1_555
Np21 O27 2.400258 1_545
Np21 O59 2.429892 1_555
Np21 O64 2.434844 1_545
Np22 O10 1.899072 1_555
Np22 O44 1.901051 1_555
Np22 O86 2.434019 1_555
Np22 O50 2.449629 1_555
Np22 O82 2.456753 1_555
Np22 O87 2.543570 1_555
Np22 O69 2.552142 1_555
Np22 O19 2.628218 1_555
Np23 O81 1.899072 1_555
Np23 O6 1.901051 1_455
Np23 O45 2.434019 1_455
Np23 O40 2.449629 1_455
Np23 O8 2.456753 1_555
Np23 O30 2.543570 1_555
Np23 O60 2.552142 1_455
Np23 O36 2.628218 1_554
O0 Se1 1.752107 1_545
O1 Se5 1.780808 1_555
O2 Se15 1.700398 1_555
O3 Se22 1.700398 1_555
O4 Se3 1.760554 1_555
O8 Se8 1.760554 1_555
O9 Se7 1.710197 1_555
O11 Se1 1.699041 1_545
O13 Se12 1.751711 1_555
O14 Se2 1.770789 1_456
O15 Se13 1.747508 1_555
O16 Se20 1.699041 1_555
O17 Se3 1.752107 1_555
O18 Se12 1.710197 1_555
O19 Se11 1.751711 1_555
O21 Se9 1.700398 1_555
O23 Se4 1.699041 1_545
O24 Se7 1.770789 1_554
O25 Se18 1.699041 1_555
O28 Se17 1.760554 1_565
O29 Se18 1.752107 1_555
O30 Se8 1.752107 1_555
O32 Se17 1.752107 1_565
O33 Se1 1.760554 1_545
O34 Se15 1.747508 1_555
O35 Se0 1.751711 1_555
O36 Se10 1.751711 1_555
O38 Se23 1.752107 1_565
O39 Se0 1.710197 1_555
O40 Se21 1.780808 1_555
O41 Se17 1.699041 1_565
O43 Se6 1.747508 1_555
O45 Se21 1.747508 1_555
O46 Se10 1.710197 1_555
O47 Se19 1.710197 1_555
O48 Se13 1.780808 1_555
O49 Se12 1.770789 1_555
O50 Se9 1.780808 1_555
O52 Se23 1.760554 1_565
O53 Se22 1.780808 1_555
O54 Se0 1.770789 1_556
O55 Se16 1.751711 1_555
O56 Se16 1.710197 1_555
O57 Se14 1.700398 1_555
O60 Se10 1.770789 1_654
O61 Se3 1.699041 1_555
O64 Se11 1.710197 1_555
O66 Se4 1.760554 1_545
O67 Se5 1.700398 1_555
O69 Se11 1.770789 1_555
O70 Se19 1.770789 1_655
O72 Se6 1.700398 1_555
O73 Se8 1.699041 1_555
O74 Se14 1.780808 1_555
O76 Se14 1.747508 1_555
O77 Se7 1.751711 1_555
O79 Se2 1.751711 1_555
O80 Se22 1.747508 1_555
O82 Se20 1.760554 1_555
O83 Se15 1.780808 1_555
O85 Se4 1.752107 1_545
O86 Se9 1.747508 1_555
O87 Se20 1.752107 1_555
O90 Se16 1.770789 1_455
O91 Se18 1.760554 1_555
O92 Se5 1.747508 1_555
O94 Se2 1.710197 1_555
O95 Se23 1.699041 1_565
O96 Se19 1.751711 1_555
O98 Se6 1.780808 1_555
O100 Se21 1.700398 1_555
O102 Se13 1.700398 1_555
