# generated using pymatgen
data_KIrO3
_symmetry_space_group_name_H-M   'P 1'
_cell_length_a   9.48725516
_cell_length_b   9.48725516
_cell_length_c   9.48725516
_cell_angle_alpha   90.00000000
_cell_angle_beta   90.00000000
_cell_angle_gamma   90.00000000
_symmetry_Int_Tables_number   1
_chemical_formula_structural   KIrO3
_chemical_formula_sum   'K12 Ir12 O36'
_cell_volume   853.92896178
_cell_formula_units_Z   12
loop_
 _symmetry_equiv_pos_site_id
 _symmetry_equiv_pos_as_xyz
  1  'x, y, z'
loop_
 _atom_site_type_symbol
 _atom_site_label
 _atom_site_symmetry_multiplicity
 _atom_site_fract_x
 _atom_site_fract_y
 _atom_site_fract_z
 _atom_site_occupancy
  K  K0  1  0.34546280  0.34546280  0.34546280  1
  K  K1  1  0.84546280  0.15453720  0.84546280  1
  K  K2  1  0.65453720  0.65453720  0.34546280  1
  K  K3  1  0.84546280  0.84546280  0.15453720  1
  K  K4  1  0.15453720  0.15453720  0.15453720  1
  K  K5  1  0.34546280  0.65453720  0.65453720  1
  K  K6  1  0.25000000  0.25000000  0.75000000  1
  K  K7  1  0.65453720  0.34546280  0.65453720  1
  K  K8  1  0.75000000  0.75000000  0.75000000  1
  K  K9  1  0.15453720  0.84546280  0.84546280  1
  K  K10  1  0.75000000  0.25000000  0.25000000  1
  K  K11  1  0.25000000  0.75000000  0.25000000  1
  Ir  Ir0  1  -0.00000000  0.34151992  0.50000000  1
  Ir  Ir1  1  0.50000000  0.84151992  -0.00000000  1
  Ir  Ir2  1  0.84151992  0.00000000  0.50000000  1
  Ir  Ir3  1  -0.00000000  0.50000000  0.15848008  1
  Ir  Ir4  1  -0.00000000  0.50000000  0.84151992  1
  Ir  Ir5  1  0.50000000  0.00000000  0.34151992  1
  Ir  Ir6  1  -0.00000000  0.65848008  0.50000000  1
  Ir  Ir7  1  0.50000000  0.00000000  0.65848008  1
  Ir  Ir8  1  0.34151992  0.50000000  -0.00000000  1
  Ir  Ir9  1  0.15848008  0.00000000  0.50000000  1
  Ir  Ir10  1  0.65848008  0.50000000  -0.00000000  1
  Ir  Ir11  1  0.50000000  0.15848008  -0.00000000  1
  O  O0  1  0.99637465  0.65347933  0.29577951  1
  O  O1  1  0.50362535  0.15347933  0.79577951  1
  O  O2  1  0.29577951  0.00362535  0.34652067  1
  O  O3  1  0.84652067  0.20422049  0.50362535  1
  O  O4  1  0.13850462  0.50000000  0.50000000  1
  O  O5  1  0.49637465  0.84652067  0.79577951  1
  O  O6  1  0.50000000  0.50000000  0.86149538  1
  O  O7  1  0.50000000  0.50000000  0.13850462  1
  O  O8  1  0.50362535  0.84652067  0.20422049  1
  O  O9  1  0.20422049  0.50362535  0.84652067  1
  O  O10  1  0.00362535  0.34652067  0.29577951  1
  O  O11  1  0.49637465  0.15347933  0.20422049  1
  O  O12  1  0.79577951  0.49637465  0.84652067  1
  O  O13  1  0.65347933  0.70422049  0.00362535  1
  O  O14  1  0.70422049  0.99637465  0.34652067  1
  O  O15  1  0.15347933  0.20422049  0.49637465  1
  O  O16  1  0.70422049  0.00362535  0.65347933  1
  O  O17  1  0.79577951  0.50362535  0.15347933  1
  O  O18  1  0.50000000  0.13850462  0.50000000  1
  O  O19  1  0.36149538  0.00000000  -0.00000000  1
  O  O20  1  -0.00000000  0.00000000  0.36149538  1
  O  O21  1  0.50000000  0.86149538  0.50000000  1
  O  O22  1  0.99637465  0.34652067  0.70422049  1
  O  O23  1  -0.00000000  0.36149538  -0.00000000  1
  O  O24  1  -0.00000000  0.00000000  0.63850462  1
  O  O25  1  0.84652067  0.79577951  0.49637465  1
  O  O26  1  0.34652067  0.70422049  0.99637465  1
  O  O27  1  0.15347933  0.79577951  0.50362535  1
  O  O28  1  0.20422049  0.49637465  0.15347933  1
  O  O29  1  -0.00000000  0.63850462  -0.00000000  1
  O  O30  1  0.34652067  0.29577951  0.00362535  1
  O  O31  1  0.86149538  0.50000000  0.50000000  1
  O  O32  1  0.65347933  0.29577951  0.99637465  1
  O  O33  1  0.29577951  0.99637465  0.65347933  1
  O  O34  1  0.00362535  0.65347933  0.70422049  1
  O  O35  1  0.63850462  0.00000000  -0.00000000  1
loop_
_geom_bond_atom_site_label_1
_geom_bond_atom_site_label_2
_geom_bond_distance
_geom_bond_site_symmetry_2
K0 O28 2.676372 1_555
K0 O11 2.676372 1_555
K0 O15 2.676372 1_555
K0 O18 2.855572 1_555
K0 O7 2.855572 1_555
K0 O4 2.855572 1_555
K1 O16 2.676372 1_555
K1 O32 2.676372 1_555
K1 O22 2.676372 1_555
K1 O24 2.855572 1_655
K1 O35 2.855572 1_556
K1 O23 2.855572 1_656
K2 O17 2.676372 1_555
K2 O8 2.676372 1_555
K2 O25 2.676372 1_555
K2 O7 2.855572 1_555
K2 O31 2.855572 1_555
K2 O21 2.855572 1_555
K3 O13 2.676372 1_555
K3 O0 2.676372 1_555
K3 O14 2.676372 1_555
K3 O35 2.855572 1_565
K3 O29 2.855572 1_655
K3 O20 2.855572 1_665
K4 O10 2.676372 1_555
K4 O2 2.676372 1_555
K4 O30 2.676372 1_555
K4 O20 2.855572 1_555
K4 O19 2.855572 1_555
K4 O23 2.855572 1_555
K5 O27 2.676372 1_555
K5 O9 2.676372 1_555
K5 O5 2.676372 1_555
K5 O4 2.855572 1_555
K5 O6 2.855572 1_555
K5 O21 2.855572 1_555
K6 O22 2.610941 1_455
K6 O9 2.610941 1_555
K6 O15 2.610941 1_555
K6 O33 2.610941 1_545
K6 O1 2.610941 1_555
K6 O30 2.610941 1_556
K7 O1 2.676372 1_555
K7 O3 2.676372 1_555
K7 O12 2.676372 1_555
K7 O18 2.855572 1_555
K7 O6 2.855572 1_555
K7 O31 2.855572 1_555
K8 O12 2.610941 1_555
K8 O25 2.610941 1_555
K8 O5 2.610941 1_555
K8 O13 2.610941 1_556
K8 O16 2.610941 1_565
K8 O34 2.610941 1_655
K9 O34 2.676372 1_555
K9 O33 2.676372 1_555
K9 O26 2.676372 1_555
K9 O24 2.855572 1_565
K9 O29 2.855572 1_556
K9 O19 2.855572 1_566
K10 O11 2.610941 1_555
K10 O32 2.610941 1_554
K10 O3 2.610941 1_555
K10 O17 2.610941 1_555
K10 O14 2.610941 1_545
K10 O10 2.610941 1_655
K11 O8 2.610941 1_555
K11 O27 2.610941 1_555
K11 O0 2.610941 1_455
K11 O28 2.610941 1_555
K11 O26 2.610941 1_554
K11 O2 2.610941 1_565
Ir0 O10 1.938378 1_555
Ir0 O22 1.938378 1_455
Ir0 O3 1.954010 1_455
Ir0 O15 1.954010 1_555
Ir0 O4 1.996824 1_555
Ir0 O31 1.996824 1_455
Ir1 O5 1.938378 1_554
Ir1 O8 1.938378 1_555
Ir1 O26 1.954010 1_554
Ir1 O13 1.954010 1_555
Ir1 O19 1.996824 1_565
Ir1 O35 1.996824 1_565
Ir2 O25 1.938378 1_545
Ir2 O3 1.938378 1_555
Ir2 O14 1.954010 1_545
Ir2 O16 1.954010 1_555
Ir2 O20 1.996824 1_655
Ir2 O24 1.996824 1_655
Ir3 O17 1.938378 1_455
Ir3 O28 1.938378 1_555
Ir3 O10 1.954010 1_555
Ir3 O0 1.954010 1_455
Ir3 O29 1.996824 1_555
Ir3 O23 1.996824 1_555
Ir4 O12 1.938378 1_455
Ir4 O9 1.938378 1_555
Ir4 O22 1.954010 1_455
Ir4 O34 1.954010 1_555
Ir4 O29 1.996824 1_556
Ir4 O23 1.996824 1_556
Ir5 O14 1.938378 1_545
Ir5 O2 1.938378 1_555
Ir5 O11 1.954010 1_555
Ir5 O8 1.954010 1_545
Ir5 O18 1.996824 1_555
Ir5 O21 1.996824 1_545
Ir6 O34 1.938378 1_555
Ir6 O0 1.938378 1_455
Ir6 O27 1.954010 1_555
Ir6 O25 1.954010 1_455
Ir6 O31 1.996824 1_455
Ir6 O4 1.996824 1_555
Ir7 O33 1.938378 1_545
Ir7 O16 1.938378 1_555
Ir7 O1 1.954010 1_555
Ir7 O5 1.954010 1_545
Ir7 O21 1.996824 1_545
Ir7 O18 1.996824 1_555
Ir8 O30 1.938378 1_555
Ir8 O26 1.938378 1_554
Ir8 O28 1.954010 1_555
Ir8 O9 1.954010 1_554
Ir8 O6 1.996824 1_554
Ir8 O7 1.996824 1_555
Ir9 O27 1.938378 1_545
Ir9 O15 1.938378 1_555
Ir9 O2 1.954010 1_555
Ir9 O33 1.954010 1_545
Ir9 O20 1.996824 1_555
Ir9 O24 1.996824 1_555
Ir10 O13 1.938378 1_555
Ir10 O32 1.938378 1_554
Ir10 O17 1.954010 1_555
Ir10 O12 1.954010 1_554
Ir10 O6 1.996824 1_554
Ir10 O7 1.996824 1_555
Ir11 O1 1.938378 1_554
Ir11 O11 1.938378 1_555
Ir11 O30 1.954010 1_555
Ir11 O32 1.954010 1_554
Ir11 O35 1.996824 1_555
Ir11 O19 1.996824 1_555
