# generated using pymatgen
data_B2IrCl
_symmetry_space_group_name_H-M   'P 1'
_cell_length_a   4.03081837
_cell_length_b   4.03081837
_cell_length_c   4.03081837
_cell_angle_alpha   60.00000000
_cell_angle_beta   60.00000000
_cell_angle_gamma   60.00000000
_symmetry_Int_Tables_number   1
_chemical_formula_structural   B2IrCl
_chemical_formula_sum   'B2 Ir1 Cl1'
_cell_volume   46.30892379
_cell_formula_units_Z   1
loop_
 _symmetry_equiv_pos_site_id
 _symmetry_equiv_pos_as_xyz
  1  'x, y, z'
loop_
 _atom_site_type_symbol
 _atom_site_label
 _atom_site_symmetry_multiplicity
 _atom_site_fract_x
 _atom_site_fract_y
 _atom_site_fract_z
 _atom_site_occupancy
  B  B0  1  0.75000000  0.75000000  0.75000000  1
  B  B1  1  0.25000000  0.25000000  0.25000000  1
  Ir  Ir0  1  0.50000000  0.50000000  0.50000000  1
  Cl  Cl0  1  0.00000000  0.00000000  0.00000000  1
loop_
_geom_bond_atom_site_label_1
_geom_bond_atom_site_label_2
_geom_bond_distance
_geom_bond_site_symmetry_2
B0 Ir0 2.468362 1_556
B0 Ir0 2.468362 1_655
B0 Ir0 2.468362 1_565
B0 Cl0 2.468362 1_656
B0 Cl0 2.468362 1_566
B0 Cl0 2.468362 1_666
B0 Cl0 2.468362 1_665
B0 Ir0 2.468362 1_555
B1 Ir0 2.468362 1_554
B1 Ir0 2.468362 1_455
B1 Cl0 2.468362 1_555
B1 Cl0 2.468362 1_556
B1 Ir0 2.468362 1_545
B1 Cl0 2.468362 1_655
B1 Ir0 2.468362 1_555
B1 Cl0 2.468362 1_565
Cl0 Ir0 2.850219 1_455
Cl0 Ir0 2.850219 1_454
Cl0 Ir0 2.850219 1_545
Cl0 Ir0 2.850219 1_544
Cl0 Ir0 2.850219 1_445
Cl0 Ir0 2.850219 1_554
