# generated using pymatgen
data_Tl8Cu4F11
_symmetry_space_group_name_H-M   'P 1'
_cell_length_a   5.16661300
_cell_length_b   12.48787907
_cell_length_c   15.09138141
_cell_angle_alpha   91.57253760
_cell_angle_beta   93.58154013
_cell_angle_gamma   101.69339254
_symmetry_Int_Tables_number   1
_chemical_formula_structural   Tl8Cu4F11
_chemical_formula_sum   'Tl16 Cu8 F22'
_cell_volume   950.82485798
_cell_formula_units_Z   2
loop_
 _symmetry_equiv_pos_site_id
 _symmetry_equiv_pos_as_xyz
  1  'x, y, z'
loop_
 _atom_site_type_symbol
 _atom_site_label
 _atom_site_symmetry_multiplicity
 _atom_site_fract_x
 _atom_site_fract_y
 _atom_site_fract_z
 _atom_site_occupancy
  Tl  Tl0  1  0.30546900  0.17585900  0.99946800  1
  Tl  Tl1  1  0.79812400  0.43060600  0.29650100  1
  Tl  Tl2  1  0.02534700  0.72656200  0.53473900  1
  Tl  Tl3  1  0.14195500  0.99621200  0.78777200  1
  Tl  Tl4  1  0.28564900  0.04070400  0.40146300  1
  Tl  Tl5  1  0.64779400  0.35459200  0.65741700  1
  Tl  Tl6  1  0.91687400  0.55112900  0.87250200  1
  Tl  Tl7  1  0.15361600  0.89399800  0.06083800  1
  Tl  Tl8  1  0.79917300  0.18212700  0.81435300  1
  Tl  Tl9  1  0.17370700  0.40193900  0.09409100  1
  Tl  Tl10  1  0.44110200  0.65878500  0.33338300  1
  Tl  Tl11  1  0.61269000  0.93510600  0.59911500  1
  Tl  Tl12  1  0.70788700  0.07340900  0.20989800  1
  Tl  Tl13  1  0.95927400  0.26198100  0.47331800  1
  Tl  Tl14  1  0.35635800  0.61060000  0.70600400  1
  Tl  Tl15  1  0.53499200  0.69340100  0.05704800  1
  Cu  Cu0  1  0.20553100  0.10049800  0.64088400  1
  Cu  Cu1  1  0.36775800  0.39170700  0.88048400  1
  Cu  Cu2  1  0.01001800  0.68969300  0.19404400  1
  Cu  Cu3  1  0.79676000  0.86632100  0.30967200  1
  Cu  Cu4  1  0.86117000  0.00117100  0.93397200  1
  Cu  Cu5  1  0.78301000  0.79318100  0.82680400  1
  Cu  Cu6  1  0.25334600  0.23653600  0.23515200  1
  Cu  Cu7  1  0.48082700  0.50360100  0.50578200  1
  F  F0  1  0.08893000  0.82615800  0.25315700  1
  F  F1  1  0.03535500  0.69541300  0.98589100  1
  F  F2  1  0.21741800  0.10559900  0.16937100  1
  F  F3  1  0.50485900  0.36027400  0.48434100  1
  F  F4  1  0.94265100  0.73578600  0.73388400  1
  F  F5  1  0.61044400  0.82824700  0.92628300  1
  F  F6  1  0.09520300  0.97640800  0.53761300  1
  F  F7  1  0.33490800  0.25748400  0.82202900  1
  F  F8  1  0.91429200  0.54952600  0.14605100  1
  F  F9  1  0.97781700  0.64398700  0.38296700  1
  F  F10  1  0.56519400  0.13343000  0.55263000  1
  F  F11  1  0.92870600  0.35478000  0.94157400  1
  F  F12  1  0.04481500  0.50182900  0.59054700  1
  F  F13  1  0.75853200  0.28494800  0.17035600  1
  F  F14  1  0.13350000  0.25311600  0.62676900  1
  F  F15  1  0.42763300  0.53187400  0.93154900  1
  F  F16  1  0.60862900  0.86338500  0.17275700  1
  F  F17  1  0.58068000  0.89583300  0.39790600  1
  F  F18  1  0.26811200  0.36498700  0.30065200  1
  F  F19  1  0.50311100  0.65264300  0.52764400  1
  F  F20  1  0.59000400  0.94768100  0.76876600  1
  F  F21  1  0.62577600  0.04189200  0.02755700  1
loop_
_geom_bond_atom_site_label_1
_geom_bond_atom_site_label_2
_geom_bond_distance
_geom_bond_site_symmetry_2
Cu0 F14 2.028822 1_555
Cu0 F6 2.133912 1_545
Cu0 F10 2.329287 1_555
Cu1 F7 1.844278 1_555
Cu1 F15 1.852063 1_555
Cu1 F11 2.463514 1_455
Cu2 F8 1.835157 1_455
Cu2 F0 1.858951 1_555
Cu3 F17 1.865700 1_555
Cu3 F0 1.924037 1_655
Cu3 F16 2.223946 1_555
Cu4 F21 2.039178 1_556
Cu4 F5 2.277792 1_545
Cu4 Tl8 2.985458 1_555
Cu5 F4 1.867997 1_555
Cu5 F5 1.878805 1_555
Cu5 F20 2.499506 1_555
Cu6 F18 1.846604 1_555
Cu6 F2 1.859691 1_555
Cu7 F3 1.840379 1_555
Cu7 F19 1.860358 1_555
Cu7 F12 2.655741 1_555
F1 Tl6 2.408780 1_455
F1 Tl7 2.635916 1_556
F1 Tl15 2.738434 1_556
F2 Tl12 2.681400 1_555
F2 Tl12 2.692893 1_455
F3 Tl5 2.676403 1_555
F5 Tl15 2.625727 1_556
F6 Tl4 2.420230 1_565
F6 Tl11 2.671420 1_455
F7 Tl8 2.731040 1_455
F7 Tl8 2.756150 1_555
F8 Tl9 2.619428 1_655
F8 Tl1 2.777556 1_555
F9 Tl2 2.463180 1_655
F9 Tl10 2.524985 1_655
F10 Tl11 2.646947 1_545
F10 Tl13 2.690778 1_555
F10 Tl4 2.719689 1_555
F11 Tl9 2.550753 1_656
F11 Tl6 2.701040 1_555
F11 Tl8 2.794651 1_555
F12 Tl14 2.470899 1_555
F12 Tl5 2.727350 1_455
F13 Tl1 2.566128 1_555
F13 Tl9 2.681562 1_655
F13 Tl12 2.688652 1_555
F14 Tl13 2.445288 1_455
F14 Tl5 2.707333 1_555
F15 Tl15 2.677514 1_556
F16 Tl12 2.606569 1_565
F16 Tl15 2.661993 1_555
F17 Tl4 2.592697 1_565
F18 Tl1 2.699766 1_555
F18 Tl1 2.713331 1_455
F19 Tl2 2.663210 1_655
F20 Tl3 2.539764 1_555
F20 Tl11 2.572209 1_555
F21 Tl0 2.605902 1_554
F21 Tl12 2.763003 1_555
