# generated using pymatgen
data_NaCrF6
_symmetry_space_group_name_H-M   'P 1'
_cell_length_a   5.80407637
_cell_length_b   7.56544225
_cell_length_c   9.33492214
_cell_angle_alpha   90.00000000
_cell_angle_beta   90.00000000
_cell_angle_gamma   90.00000000
_symmetry_Int_Tables_number   1
_chemical_formula_structural   NaCrF6
_chemical_formula_sum   'Na4 Cr4 F24'
_cell_volume   409.90020800
_cell_formula_units_Z   4
loop_
 _symmetry_equiv_pos_site_id
 _symmetry_equiv_pos_as_xyz
  1  'x, y, z'
loop_
 _atom_site_type_symbol
 _atom_site_label
 _atom_site_symmetry_multiplicity
 _atom_site_fract_x
 _atom_site_fract_y
 _atom_site_fract_z
 _atom_site_occupancy
  Na  Na0  1  0.25000000  0.16509652  0.50153547  1
  Na  Na1  1  0.75000000  0.66509652  0.99846453  1
  Na  Na2  1  0.75000000  0.83490348  0.49846453  1
  Na  Na3  1  0.25000000  0.33490348  0.00153547  1
  Cr  Cr0  1  0.75000000  0.11554842  0.77106459  1
  Cr  Cr1  1  0.75000000  0.38445158  0.27106459  1
  Cr  Cr2  1  0.25000000  0.61554842  0.72893541  1
  Cr  Cr3  1  0.25000000  0.88445158  0.22893541  1
  F  F0  1  0.03471160  0.95139603  0.35832623  1
  F  F1  1  0.75000000  0.17689515  0.19514365  1
  F  F2  1  0.03471160  0.54860397  0.85832623  1
  F  F3  1  0.46850879  0.82706327  0.10526972  1
  F  F4  1  0.25000000  0.82310485  0.80485635  1
  F  F5  1  0.96528840  0.04860397  0.64167377  1
  F  F6  1  0.03149121  0.82706327  0.10526972  1
  F  F7  1  0.75000000  0.89662428  0.83661747  1
  F  F8  1  0.75000000  0.60337572  0.33661747  1
  F  F9  1  0.53149121  0.32706327  0.39473028  1
  F  F10  1  0.46528840  0.54860397  0.85832623  1
  F  F11  1  0.25000000  0.39662428  0.66338253  1
  F  F12  1  0.96528840  0.45139603  0.14167377  1
  F  F13  1  0.53149121  0.17293673  0.89473028  1
  F  F14  1  0.53471160  0.45139603  0.14167377  1
  F  F15  1  0.53471160  0.04860397  0.64167377  1
  F  F16  1  0.25000000  0.67689515  0.30485635  1
  F  F17  1  0.46850879  0.67293673  0.60526972  1
  F  F18  1  0.46528840  0.95139603  0.35832623  1
  F  F19  1  0.03149121  0.67293673  0.60526972  1
  F  F20  1  0.96850879  0.17293673  0.89473028  1
  F  F21  1  0.75000000  0.32310485  0.69514365  1
  F  F22  1  0.25000000  0.10337572  0.16338253  1
  F  F23  1  0.96850879  0.32706327  0.39473028  1
loop_
_geom_bond_atom_site_label_1
_geom_bond_atom_site_label_2
_geom_bond_distance
_geom_bond_site_symmetry_2
Cr0 F21 1.722783 1_555
Cr0 F7 1.765687 1_545
Cr0 F13 1.769068 1_555
Cr0 F20 1.769068 1_555
Cr0 F5 1.810191 1_555
Cr0 F15 1.810191 1_555
Cr1 F1 1.722783 1_555
Cr1 F8 1.765687 1_555
Cr1 F9 1.769068 1_555
Cr1 F23 1.769068 1_555
Cr1 F12 1.810191 1_555
Cr1 F14 1.810191 1_555
Cr2 F4 1.722783 1_555
Cr2 F11 1.765687 1_555
Cr2 F17 1.769068 1_555
Cr2 F19 1.769068 1_555
Cr2 F10 1.810191 1_555
Cr2 F2 1.810191 1_555
Cr3 F16 1.722783 1_555
Cr3 F22 1.765687 1_565
Cr3 F6 1.769068 1_555
Cr3 F3 1.769068 1_555
Cr3 F18 1.810191 1_555
Cr3 F0 1.810191 1_555
F0 Na2 2.284463 1_455
F0 Na0 2.441799 1_565
F2 Na1 2.284463 1_455
F2 Na3 2.441799 1_556
F3 Na1 2.272624 1_554
F5 Na0 2.284463 1_655
F5 Na2 2.441799 1_545
F6 Na1 2.272624 1_454
F7 Na1 2.313167 1_555
F8 Na2 2.313167 1_555
F9 Na0 2.272624 1_555
F10 Na1 2.284463 1_555
F10 Na3 2.441799 1_556
F11 Na0 2.313167 1_555
F12 Na3 2.284463 1_655
F12 Na1 2.441799 1_554
F13 Na3 2.272624 1_556
F14 Na3 2.284463 1_555
F14 Na1 2.441799 1_554
F15 Na0 2.284463 1_555
F15 Na2 2.441799 1_545
F17 Na2 2.272624 1_555
F18 Na2 2.284463 1_555
F18 Na0 2.441799 1_565
F19 Na2 2.272624 1_455
F20 Na3 2.272624 1_656
F22 Na3 2.313167 1_555
F23 Na0 2.272624 1_655
