# generated using pymatgen
data_Cs3Nb2S11
_symmetry_space_group_name_H-M   'P 1'
_cell_length_a   8.28360336
_cell_length_b   12.22276814
_cell_length_c   19.91874016
_cell_angle_alpha   77.13485565
_cell_angle_beta   90.00000000
_cell_angle_gamma   90.00000000
_symmetry_Int_Tables_number   1
_chemical_formula_structural   Cs3Nb2S11
_chemical_formula_sum   'Cs12 Nb8 S44'
_cell_volume   1966.11715351
_cell_formula_units_Z   4
loop_
 _symmetry_equiv_pos_site_id
 _symmetry_equiv_pos_as_xyz
  1  'x, y, z'
loop_
 _atom_site_type_symbol
 _atom_site_label
 _atom_site_symmetry_multiplicity
 _atom_site_fract_x
 _atom_site_fract_y
 _atom_site_fract_z
 _atom_site_occupancy
  Cs  Cs0  1  0.31967875  0.99467594  0.83770504  1
  Cs  Cs1  1  0.68032125  0.00532406  0.16229496  1
  Cs  Cs2  1  0.65861310  0.46112688  0.14125661  1
  Cs  Cs3  1  0.18623220  0.77125893  0.11669733  1
  Cs  Cs4  1  0.15861310  0.53887312  0.35874339  1
  Cs  Cs5  1  0.81967875  0.00532406  0.66229496  1
  Cs  Cs6  1  0.81376780  0.22874107  0.88330267  1
  Cs  Cs7  1  0.68623220  0.22874107  0.38330267  1
  Cs  Cs8  1  0.34138690  0.53887312  0.85874339  1
  Cs  Cs9  1  0.18032125  0.99467594  0.33770504  1
  Cs  Cs10  1  0.31376780  0.77125893  0.61669733  1
  Cs  Cs11  1  0.84138690  0.46112688  0.64125661  1
  Nb  Nb0  1  0.85788630  0.71022457  0.84155327  1
  Nb  Nb1  1  0.35788630  0.28977543  0.65844673  1
  Nb  Nb2  1  0.72424925  0.80595093  0.99479288  1
  Nb  Nb3  1  0.27575075  0.19404907  0.00520712  1
  Nb  Nb4  1  0.64211370  0.71022457  0.34155327  1
  Nb  Nb5  1  0.14211370  0.28977543  0.15844673  1
  Nb  Nb6  1  0.22424925  0.19404907  0.50520712  1
  Nb  Nb7  1  0.77575075  0.80595093  0.49479288  1
  S  S0  1  0.52443380  0.91530930  0.45550675  1
  S  S1  1  0.37336027  0.36356571  0.03931784  1
  S  S2  1  0.12663973  0.36356571  0.53931784  1
  S  S3  1  0.62133481  0.00143386  0.98675021  1
  S  S4  1  0.98999436  0.74795190  0.95162920  1
  S  S5  1  0.88968360  0.79334815  0.28354397  1
  S  S6  1  0.27988656  0.47434036  0.67967841  1
  S  S7  1  0.77539194  0.88975246  0.34268868  1
  S  S8  1  0.44838136  0.75132642  0.97000978  1
  S  S9  1  0.43474906  0.76513206  0.27043152  1
  S  S10  1  0.57712868  0.51853547  0.40639408  1
  S  S11  1  0.56525094  0.23486794  0.72956848  1
  S  S12  1  0.37866519  0.99856614  0.01324979  1
  S  S13  1  0.55161864  0.24867358  0.02999022  1
  S  S14  1  0.92287132  0.51853547  0.90639408  1
  S  S15  1  0.51000564  0.74795190  0.45162920  1
  S  S16  1  0.42287132  0.48146453  0.59360592  1
  S  S17  1  0.24352486  0.25077396  0.89172123  1
  S  S18  1  0.02443380  0.08469070  0.04449325  1
  S  S19  1  0.07712868  0.48146453  0.09360592  1
  S  S20  1  0.01000564  0.25204810  0.04837080  1
  S  S21  1  0.77988656  0.52565964  0.82032159  1
  S  S22  1  0.47556620  0.08469070  0.54449325  1
  S  S23  1  0.72011344  0.52565964  0.32032159  1
  S  S24  1  0.87866519  0.00143386  0.48675021  1
  S  S25  1  0.11031640  0.20665185  0.71645603  1
  S  S26  1  0.72460806  0.88975246  0.84268868  1
  S  S27  1  0.62663973  0.63643429  0.96068216  1
  S  S28  1  0.61031640  0.79334815  0.78354397  1
  S  S29  1  0.38968360  0.20665185  0.21645603  1
  S  S30  1  0.27539194  0.11024754  0.15731132  1
  S  S31  1  0.87336027  0.63643429  0.46068216  1
  S  S32  1  0.06525094  0.76513206  0.77043152  1
  S  S33  1  0.74352486  0.74922604  0.60827877  1
  S  S34  1  0.05161864  0.75132642  0.47000978  1
  S  S35  1  0.48999436  0.25204810  0.54837080  1
  S  S36  1  0.12133481  0.99856614  0.51324979  1
  S  S37  1  0.22460806  0.11024754  0.65731132  1
  S  S38  1  0.97556620  0.91530930  0.95550675  1
  S  S39  1  0.94838136  0.24867358  0.52999022  1
  S  S40  1  0.75647514  0.74922604  0.10827877  1
  S  S41  1  0.93474906  0.23486794  0.22956848  1
  S  S42  1  0.25647514  0.25077396  0.39172123  1
  S  S43  1  0.22011344  0.47434036  0.17967841  1
loop_
_geom_bond_atom_site_label_1
_geom_bond_atom_site_label_2
_geom_bond_distance
_geom_bond_site_symmetry_2
Cs0 S12 3.541394 1_556
Cs0 S25 3.573088 1_565
Cs0 S26 3.584551 1_555
Cs0 S17 3.585203 1_565
Cs0 S37 3.642325 1_565
Cs0 S8 3.665802 1_555
Cs0 S38 3.682199 1_455
Cs0 S28 3.767982 1_555
Cs0 S11 3.818448 1_565
Cs0 S3 3.895349 1_565
Cs0 S32 3.972838 1_555
Cs1 S3 3.541394 1_554
Cs1 S5 3.573088 1_545
Cs1 S30 3.584551 1_555
Cs1 S40 3.585203 1_545
Cs1 S7 3.642325 1_545
Cs1 S13 3.665802 1_555
Cs1 S18 3.682199 1_655
Cs1 S29 3.767982 1_555
Cs1 S9 3.818448 1_545
Cs1 S12 3.895349 1_545
Cs1 S41 3.972838 1_555
Cs2 S1 3.493782 1_555
Cs2 S40 3.529678 1_555
Cs2 S19 3.588372 1_655
Cs2 S41 3.715942 1_555
Cs2 S43 3.723016 1_555
Cs2 S27 3.763843 1_554
Cs2 S29 3.847872 1_555
Cs2 S23 3.854375 1_555
Cs2 S13 3.873437 1_555
Cs3 S12 3.457821 1_555
Cs3 S40 3.576857 1_455
Cs3 S43 3.577146 1_555
Cs3 S9 3.676738 1_555
Cs3 S8 3.691752 1_554
Cs3 S38 3.733177 1_454
Cs3 S4 3.735145 1_454
Cs3 S19 3.781568 1_555
Cs3 S18 4.010959 1_565
Cs3 S5 4.189467 1_455
Cs4 S31 3.493782 1_455
Cs4 S42 3.529678 1_555
Cs4 S10 3.588372 1_555
Cs4 S9 3.715942 1_555
Cs4 S23 3.723016 1_455
Cs4 S2 3.763843 1_555
Cs4 S5 3.847872 1_455
Cs4 S43 3.854375 1_555
Cs4 S34 3.873437 1_555
Cs5 S24 3.541394 1_555
Cs5 S28 3.573088 1_545
Cs5 S37 3.584551 1_655
Cs5 S33 3.585203 1_545
Cs5 S26 3.642325 1_545
Cs5 S39 3.665802 1_555
Cs5 S22 3.682199 1_555
Cs5 S25 3.767982 1_655
Cs5 S32 3.818448 1_645
Cs5 S36 3.895349 1_645
Cs5 S11 3.972838 1_555
Cs6 S3 3.457821 1_555
Cs6 S17 3.576857 1_655
Cs6 S21 3.577146 1_555
Cs6 S11 3.676738 1_555
Cs6 S13 3.691752 1_556
Cs6 S18 3.733177 1_656
Cs6 S20 3.735145 1_656
Cs6 S14 3.781568 1_555
Cs6 S38 4.010959 1_545
Cs6 S25 4.189467 1_655
Cs7 S24 3.457821 1_555
Cs7 S42 3.576857 1_555
Cs7 S23 3.577146 1_555
Cs7 S41 3.676738 1_555
Cs7 S39 3.691752 1_555
Cs7 S22 3.733177 1_555
Cs7 S35 3.735145 1_555
Cs7 S10 3.781568 1_555
Cs7 S0 4.010959 1_545
Cs7 S29 4.189467 1_555
Cs8 S27 3.493782 1_555
Cs8 S17 3.529678 1_555
Cs8 S14 3.588372 1_455
Cs8 S32 3.715942 1_555
Cs8 S21 3.723016 1_555
Cs8 S1 3.763843 1_556
Cs8 S28 3.847872 1_555
Cs8 S6 3.854375 1_555
Cs8 S8 3.873437 1_555
Cs9 S36 3.541394 1_555
Cs9 S29 3.573088 1_565
Cs9 S7 3.584551 1_455
Cs9 S42 3.585203 1_565
Cs9 S30 3.642325 1_565
Cs9 S34 3.665802 1_555
Cs9 S0 3.682199 1_555
Cs9 S5 3.767982 1_455
Cs9 S41 3.818448 1_465
Cs9 S24 3.895349 1_465
Cs9 S9 3.972838 1_555
Cs10 S36 3.457821 1_555
Cs10 S33 3.576857 1_555
Cs10 S6 3.577146 1_555
Cs10 S32 3.676738 1_555
Cs10 S34 3.691752 1_555
Cs10 S0 3.733177 1_555
Cs10 S15 3.735145 1_555
Cs10 S16 3.781568 1_555
Cs10 S22 4.010959 1_565
Cs10 S28 4.189467 1_555
Cs11 S2 3.493782 1_655
Cs11 S33 3.529678 1_555
Cs11 S16 3.588372 1_555
Cs11 S11 3.715942 1_555
Cs11 S6 3.723016 1_655
Cs11 S31 3.763843 1_555
Cs11 S25 3.847872 1_655
Cs11 S21 3.854375 1_555
Cs11 S39 3.873437 1_555
Nb0 S32 2.232604 1_655
Nb0 S28 2.459726 1_555
Nb0 S26 2.461007 1_555
Nb0 S14 2.469786 1_555
Nb0 S21 2.471887 1_555
Nb0 S4 2.582213 1_555
Nb0 S27 3.026617 1_555
Nb1 S11 2.232604 1_555
Nb1 S25 2.459726 1_555
Nb1 S37 2.461007 1_555
Nb1 S16 2.469786 1_555
Nb1 S6 2.471887 1_555
Nb1 S35 2.582213 1_555
Nb1 S2 3.026617 1_555
Nb2 S40 2.227977 1_556
Nb2 S27 2.456693 1_555
Nb2 S8 2.461358 1_555
Nb2 S38 2.503430 1_555
Nb2 S3 2.508172 1_565
Nb2 S4 2.521707 1_555
Nb2 S26 2.974299 1_555
Nb3 S17 2.227977 1_554
Nb3 S1 2.456693 1_555
Nb3 S13 2.461358 1_555
Nb3 S18 2.503430 1_555
Nb3 S12 2.508172 1_545
Nb3 S20 2.521707 1_555
Nb3 S30 2.974299 1_555
Nb4 S9 2.232604 1_555
Nb4 S5 2.459726 1_555
Nb4 S7 2.461007 1_555
Nb4 S10 2.469786 1_555
Nb4 S23 2.471887 1_555
Nb4 S15 2.582213 1_555
Nb4 S31 3.026617 1_555
Nb5 S41 2.232604 1_455
Nb5 S29 2.459726 1_555
Nb5 S30 2.461007 1_555
Nb5 S19 2.469786 1_555
Nb5 S43 2.471887 1_555
Nb5 S20 2.582213 1_555
Nb5 S1 3.026617 1_555
Nb6 S42 2.227977 1_555
Nb6 S2 2.456693 1_555
Nb6 S39 2.461358 1_455
Nb6 S22 2.503430 1_555
Nb6 S36 2.508172 1_545
Nb6 S35 2.521707 1_555
Nb6 S37 2.974299 1_555
Nb7 S33 2.227977 1_555
Nb7 S31 2.456693 1_555
Nb7 S34 2.461358 1_655
Nb7 S0 2.503430 1_555
Nb7 S24 2.508172 1_565
Nb7 S15 2.521707 1_555
Nb7 S7 2.974299 1_555
S0 S15 2.067599 1_555
S1 S13 2.074410 1_555
S2 S39 2.074410 1_455
S5 S7 2.071437 1_555
S10 S23 2.069621 1_555
S14 S21 2.069621 1_555
S16 S6 2.069621 1_555
S18 S20 2.067599 1_555
S19 S43 2.069621 1_555
S22 S35 2.067599 1_555
S25 S37 2.071437 1_555
S26 S28 2.071437 1_555
S27 S8 2.074410 1_555
S29 S30 2.071437 1_555
S31 S34 2.074410 1_655
S38 S4 2.067599 1_555
