# generated using pymatgen
data_As4Pb8Cl6O11
_symmetry_space_group_name_H-M   'P 1'
_cell_length_a   11.44672200
_cell_length_b   6.77606700
_cell_length_c   35.19397392
_cell_angle_alpha   85.97714308
_cell_angle_beta   90.00000000
_cell_angle_gamma   90.00000000
_symmetry_Int_Tables_number   1
_chemical_formula_structural   As4Pb8Cl6O11
_chemical_formula_sum   'As16 Pb32 Cl24 O44'
_cell_volume   2723.05099803
_cell_formula_units_Z   4
loop_
 _symmetry_equiv_pos_site_id
 _symmetry_equiv_pos_as_xyz
  1  'x, y, z'
loop_
 _atom_site_type_symbol
 _atom_site_label
 _atom_site_symmetry_multiplicity
 _atom_site_fract_x
 _atom_site_fract_y
 _atom_site_fract_z
 _atom_site_occupancy
  As  As0  1  0.37715300  0.30129200  0.84612400  1
  As  As1  1  0.62851900  0.27610100  0.44562700  1
  As  As2  1  0.12001300  0.26614000  0.44331800  1
  As  As3  1  0.62001300  0.73386000  0.05668200  1
  As  As4  1  0.37207600  0.68291100  0.65273900  1
  As  As5  1  0.37148100  0.72389900  0.55437300  1
  As  As6  1  0.87207600  0.31708900  0.84726100  1
  As  As7  1  0.37998700  0.26614000  0.94331800  1
  As  As8  1  0.87715300  0.69870800  0.65387600  1
  As  As9  1  0.12792400  0.68291100  0.15273900  1
  As  As10  1  0.87148100  0.27610100  0.94562700  1
  As  As11  1  0.12851900  0.72389900  0.05437300  1
  As  As12  1  0.12284700  0.30129200  0.34612400  1
  As  As13  1  0.87998700  0.73386000  0.55668200  1
  As  As14  1  0.62792400  0.31708900  0.34726100  1
  As  As15  1  0.62284700  0.69870800  0.15387600  1
  Pb  Pb0  1  0.87043900  0.79839500  0.99171900  1
  Pb  Pb1  1  0.62804500  0.19478900  0.01434200  1
  Pb  Pb2  1  0.62027200  0.71532100  0.71048400  1
  Pb  Pb3  1  0.38200500  0.83870200  0.82055400  1
  Pb  Pb4  1  0.63577500  0.98521500  0.91142100  1
  Pb  Pb5  1  0.86422500  0.98521500  0.41142100  1
  Pb  Pb6  1  0.92095200  0.06270500  0.09580100  1
  Pb  Pb7  1  0.12956100  0.20160500  0.00828100  1
  Pb  Pb8  1  0.38253600  0.17378400  0.66998700  1
  Pb  Pb9  1  0.37195500  0.80521100  0.98565800  1
  Pb  Pb10  1  0.87195500  0.19478900  0.51434200  1
  Pb  Pb11  1  0.42095200  0.93729500  0.40419900  1
  Pb  Pb12  1  0.87107300  0.28408700  0.28770500  1
  Pb  Pb13  1  0.61746400  0.82621600  0.33001300  1
  Pb  Pb14  1  0.88253600  0.82621600  0.83001300  1
  Pb  Pb15  1  0.11746400  0.17378400  0.16998700  1
  Pb  Pb16  1  0.11799500  0.83870200  0.32055400  1
  Pb  Pb17  1  0.12892700  0.71591300  0.71229500  1
  Pb  Pb18  1  0.07904800  0.93729500  0.90419900  1
  Pb  Pb19  1  0.36422500  0.01478500  0.08857900  1
  Pb  Pb20  1  0.12027200  0.28467900  0.78951600  1
  Pb  Pb21  1  0.13577500  0.01478500  0.58857900  1
  Pb  Pb22  1  0.37972800  0.28467900  0.28951600  1
  Pb  Pb23  1  0.87972800  0.71532100  0.21048400  1
  Pb  Pb24  1  0.88200500  0.16129800  0.67944600  1
  Pb  Pb25  1  0.61799500  0.16129800  0.17944600  1
  Pb  Pb26  1  0.62956100  0.79839500  0.49171900  1
  Pb  Pb27  1  0.37043900  0.20160500  0.50828100  1
  Pb  Pb28  1  0.62892700  0.28408700  0.78770500  1
  Pb  Pb29  1  0.12804500  0.80521100  0.48565800  1
  Pb  Pb30  1  0.57904800  0.06270500  0.59580100  1
  Pb  Pb31  1  0.37107300  0.71591300  0.21229500  1
  Cl  Cl0  1  0.12633300  0.62540400  0.96407400  1
  Cl  Cl1  1  0.87010300  0.64477900  0.31901100  1
  Cl  Cl2  1  0.13905500  0.35993900  0.54159100  1
  Cl  Cl3  1  0.12989700  0.35522100  0.68098900  1
  Cl  Cl4  1  0.62989700  0.64477900  0.81901100  1
  Cl  Cl5  1  0.11985500  0.52837100  0.24829900  1
  Cl  Cl6  1  0.11441600  0.72650600  0.39359700  1
  Cl  Cl7  1  0.86564000  0.34557300  0.18211400  1
  Cl  Cl8  1  0.36094500  0.35993900  0.04159100  1
  Cl  Cl9  1  0.37010300  0.35522100  0.18098900  1
  Cl  Cl10  1  0.87366700  0.37459600  0.03592600  1
  Cl  Cl11  1  0.88014500  0.47162900  0.75170100  1
  Cl  Cl12  1  0.63905500  0.64006100  0.95840900  1
  Cl  Cl13  1  0.86094500  0.64006100  0.45840900  1
  Cl  Cl14  1  0.38558400  0.72650600  0.89359700  1
  Cl  Cl15  1  0.13436000  0.65442700  0.81788600  1
  Cl  Cl16  1  0.88558400  0.27349400  0.60640300  1
  Cl  Cl17  1  0.38014500  0.52837100  0.74829900  1
  Cl  Cl18  1  0.61441600  0.27349400  0.10640300  1
  Cl  Cl19  1  0.37366700  0.62540400  0.46407400  1
  Cl  Cl20  1  0.62633300  0.37459600  0.53592600  1
  Cl  Cl21  1  0.63436000  0.34557300  0.68211400  1
  Cl  Cl22  1  0.36564000  0.65442700  0.31788600  1
  Cl  Cl23  1  0.61985500  0.47162900  0.25170100  1
  O  O0  1  0.00187400  0.83391900  0.16283100  1
  O  O1  1  0.99864900  0.09889200  0.45726100  1
  O  O2  1  0.86861200  0.81111000  0.60561600  1
  O  O3  1  0.50292800  0.85364300  0.16851500  1
  O  O4  1  0.58567700  0.79296500  0.38967900  1
  O  O5  1  0.73029800  0.90003600  0.03689000  1
  O  O6  1  0.75640200  0.10422800  0.96191500  1
  O  O7  1  0.49002300  0.89655900  0.54334400  1
  O  O8  1  0.91432300  0.79296500  0.88967900  1
  O  O9  1  0.49812600  0.83391900  0.66283100  1
  O  O10  1  0.76970200  0.90003600  0.53689000  1
  O  O11  1  0.84360800  0.21643100  0.89595100  1
  O  O12  1  0.23348200  0.14389900  0.32674000  1
  O  O13  1  0.49707200  0.14635700  0.83148500  1
  O  O14  1  0.73425700  0.15463500  0.32849800  1
  O  O15  1  0.13138800  0.18889000  0.39438400  1
  O  O16  1  0.99002300  0.10344100  0.95665600  1
  O  O17  1  0.00292800  0.14635700  0.33148500  1
  O  O18  1  0.50997700  0.10344100  0.45665600  1
  O  O19  1  0.24359800  0.89577200  0.03808500  1
  O  O20  1  0.99707200  0.85364300  0.66851500  1
  O  O21  1  0.15639200  0.78356900  0.10404900  1
  O  O22  1  0.26574300  0.84536500  0.67150200  1
  O  O23  1  0.76651800  0.85610100  0.67326000  1
  O  O24  1  0.74359800  0.10422800  0.46191500  1
  O  O25  1  0.23029800  0.09996400  0.46311000  1
  O  O26  1  0.99812600  0.16608100  0.83716900  1
  O  O27  1  0.63138800  0.81111000  0.10561600  1
  O  O28  1  0.26651800  0.14389900  0.82674000  1
  O  O29  1  0.00997700  0.89655900  0.04334400  1
  O  O30  1  0.76574300  0.15463500  0.82849800  1
  O  O31  1  0.08567700  0.20703500  0.11032100  1
  O  O32  1  0.25640200  0.89577200  0.53808500  1
  O  O33  1  0.00135100  0.90110800  0.54273900  1
  O  O34  1  0.41432300  0.20703500  0.61032100  1
  O  O35  1  0.65639200  0.21643100  0.39595100  1
  O  O36  1  0.26970200  0.09996400  0.96311000  1
  O  O37  1  0.73348200  0.85610100  0.17326000  1
  O  O38  1  0.50135100  0.09889200  0.95726100  1
  O  O39  1  0.50187400  0.16608100  0.33716900  1
  O  O40  1  0.49864900  0.90110800  0.04273900  1
  O  O41  1  0.23425700  0.84536500  0.17150200  1
  O  O42  1  0.34360800  0.78356900  0.60404900  1
  O  O43  1  0.36861200  0.18889000  0.89438400  1
loop_
_geom_bond_atom_site_label_1
_geom_bond_atom_site_label_2
_geom_bond_distance
_geom_bond_site_symmetry_2
As0 O43 1.814641 1_555
As0 O28 1.818985 1_555
As0 O13 1.824215 1_555
As1 O18 1.815755 1_555
As1 O24 1.823869 1_555
As1 O35 1.849594 1_555
As2 O25 1.799090 1_555
As2 O1 1.837670 1_455
As2 O15 1.839389 1_555
As3 O5 1.799090 1_555
As3 O40 1.837670 1_555
As3 O27 1.839389 1_555
As4 O22 1.797580 1_555
As4 O9 1.818243 1_555
As4 O42 1.828611 1_555
As5 O7 1.815755 1_555
As5 O32 1.823869 1_555
As5 O42 1.849594 1_555
As6 O30 1.797580 1_555
As6 O26 1.818243 1_555
As6 O11 1.828611 1_555
As7 O36 1.799090 1_555
As7 O38 1.837670 1_555
As7 O43 1.839389 1_555
As8 O2 1.814641 1_555
As8 O23 1.818985 1_555
As8 O20 1.824215 1_555
As9 O41 1.797580 1_555
As9 O0 1.818243 1_555
As9 O21 1.828611 1_555
As10 O16 1.815755 1_555
As10 O6 1.823869 1_555
As10 O11 1.849594 1_555
As11 O29 1.815755 1_555
As11 O19 1.823869 1_555
As11 O21 1.849594 1_555
As12 O15 1.814641 1_555
As12 O12 1.818985 1_555
As12 O17 1.824215 1_555
As13 O10 1.799090 1_555
As13 O33 1.837670 1_655
As13 O2 1.839389 1_555
As14 O14 1.797580 1_555
As14 O39 1.818243 1_555
As14 O35 1.828611 1_555
As15 O27 1.814641 1_555
As15 O37 1.818985 1_555
As15 O3 1.824215 1_555
Cl0 Pb18 2.928310 1_555
Cl0 Pb7 3.168859 1_556
Cl0 Pb9 3.177461 1_555
Cl1 Pb12 2.750522 1_555
Cl1 Pb16 3.129112 1_655
Cl1 Pb13 3.176670 1_555
Cl2 Pb21 2.768280 1_555
Cl2 Pb27 3.117191 1_555
Cl3 Pb17 2.750522 1_555
Cl3 Pb24 3.129112 1_455
Cl3 Pb8 3.176670 1_555
Cl4 Pb28 2.750522 1_555
Cl4 Pb3 3.129112 1_555
Cl4 Pb14 3.176670 1_555
Cl6 Pb16 2.629411 1_555
Cl7 Pb23 2.766066 1_555
Cl7 Pb25 3.101625 1_555
Cl7 Pb15 3.148973 1_655
Cl8 Pb19 2.768280 1_555
Cl8 Pb7 3.117191 1_555
Cl9 Pb31 2.750522 1_555
Cl9 Pb25 3.129112 1_555
Cl9 Pb15 3.176670 1_555
Cl10 Pb6 2.928310 1_555
Cl10 Pb0 3.168859 1_554
Cl10 Pb1 3.177461 1_555
Cl12 Pb4 2.768280 1_555
Cl12 Pb0 3.117191 1_555
Cl13 Pb5 2.768280 1_555
Cl13 Pb26 3.117191 1_555
Cl14 Pb3 2.629411 1_555
Cl15 Pb20 2.766066 1_555
Cl15 Pb3 3.101625 1_555
Cl15 Pb14 3.148973 1_455
Cl16 Pb24 2.629411 1_555
Cl18 Pb25 2.629411 1_555
Cl19 Pb11 2.928310 1_555
Cl19 Pb27 3.168859 1_555
Cl19 Pb29 3.177461 1_555
Cl20 Pb30 2.928310 1_555
Cl20 Pb26 3.168859 1_555
Cl20 Pb10 3.177461 1_555
Cl21 Pb2 2.766066 1_555
Cl21 Pb24 3.101625 1_555
Cl21 Pb8 3.148973 1_555
Cl22 Pb22 2.766066 1_555
Cl22 Pb16 3.101625 1_555
Cl22 Pb13 3.148973 1_555
O0 Pb23 2.285663 1_455
O1 Pb5 2.395422 1_545
O1 Pb10 2.596976 1_555
O1 Pb29 2.621775 1_645
O3 Pb31 2.306790 1_555
O3 Pb25 2.518197 1_565
O4 Pb13 2.127507 1_555
O4 Pb11 2.200697 1_555
O5 Pb0 2.393445 1_554
O5 Pb1 2.401333 1_565
O6 Pb4 2.432286 1_545
O6 Pb1 2.469539 1_556
O6 Pb0 2.606491 1_545
O7 Pb30 2.450690 1_565
O7 Pb26 2.542502 1_555
O7 Pb27 2.703916 1_565
O8 Pb14 2.127507 1_555
O8 Pb18 2.200697 1_655
O9 Pb2 2.285663 1_555
O10 Pb26 2.393445 1_555
O10 Pb10 2.401333 1_565
O12 Pb22 2.292009 1_555
O12 Pb16 2.476870 1_545
O13 Pb28 2.306790 1_555
O13 Pb3 2.518197 1_545
O14 Pb12 2.259765 1_555
O14 Pb13 2.593423 1_545
O16 Pb18 2.450690 1_645
O16 Pb7 2.542502 1_656
O16 Pb0 2.703916 1_545
O17 Pb12 2.306790 1_455
O17 Pb16 2.518197 1_545
O18 Pb11 2.450690 1_545
O18 Pb27 2.542502 1_555
O18 Pb26 2.703916 1_545
O19 Pb19 2.432286 1_565
O19 Pb9 2.469539 1_554
O19 Pb7 2.606491 1_565
O20 Pb17 2.306790 1_655
O20 Pb24 2.518197 1_565
O22 Pb17 2.259765 1_555
O22 Pb8 2.593423 1_565
O23 Pb2 2.292009 1_555
O23 Pb24 2.476870 1_565
O24 Pb5 2.432286 1_545
O24 Pb10 2.469539 1_555
O24 Pb26 2.606491 1_545
O25 Pb27 2.393445 1_555
O25 Pb29 2.401333 1_545
O26 Pb20 2.285663 1_655
O28 Pb20 2.292009 1_555
O28 Pb3 2.476870 1_545
O29 Pb6 2.450690 1_465
O29 Pb0 2.542502 1_454
O29 Pb7 2.703916 1_565
O30 Pb28 2.259765 1_555
O30 Pb14 2.593423 1_545
O31 Pb15 2.127507 1_555
O31 Pb6 2.200697 1_455
O32 Pb21 2.432286 1_565
O32 Pb29 2.469539 1_555
O32 Pb27 2.606491 1_565
O33 Pb21 2.395422 1_565
O33 Pb29 2.596976 1_555
O33 Pb10 2.621775 1_465
O34 Pb8 2.127507 1_555
O34 Pb30 2.200697 1_555
O36 Pb7 2.393445 1_556
O36 Pb9 2.401333 1_545
O37 Pb23 2.292009 1_555
O37 Pb25 2.476870 1_565
O38 Pb4 2.395422 1_545
O38 Pb1 2.596976 1_556
O38 Pb9 2.621775 1_545
O39 Pb22 2.285663 1_555
O40 Pb19 2.395422 1_565
O40 Pb9 2.596976 1_554
O40 Pb1 2.621775 1_565
O41 Pb31 2.259765 1_555
O41 Pb15 2.593423 1_565
