# generated using pymatgen
data_Sr2CoWO6
_symmetry_space_group_name_H-M   'P 1'
_cell_length_a   5.67886800
_cell_length_b   5.72288500
_cell_length_c   9.82342574
_cell_angle_alpha   54.27482776
_cell_angle_beta   90.00000000
_cell_angle_gamma   90.00000000
_symmetry_Int_Tables_number   1
_chemical_formula_structural   Sr2CoWO6
_chemical_formula_sum   'Sr4 Co2 W2 O12'
_cell_volume   259.18107778
_cell_formula_units_Z   2
loop_
 _symmetry_equiv_pos_site_id
 _symmetry_equiv_pos_as_xyz
  1  'x, y, z'
loop_
 _atom_site_type_symbol
 _atom_site_label
 _atom_site_symmetry_multiplicity
 _atom_site_fract_x
 _atom_site_fract_y
 _atom_site_fract_z
 _atom_site_occupancy
  Sr  Sr0  1  0.00875400  0.24475700  0.75138200  1
  Sr  Sr1  1  0.49124600  0.24475700  0.25138200  1
  Sr  Sr2  1  0.50875400  0.75524300  0.74861800  1
  Sr  Sr3  1  0.99124600  0.75524300  0.24861800  1
  Co  Co0  1  0.00000000  0.00000000  0.50000000  1
  Co  Co1  1  0.50000000  0.00000000  0.00000000  1
  W  W0  1  0.00000000  0.50000000  0.00000000  1
  W  W1  1  0.50000000  0.50000000  0.50000000  1
  O  O0  1  0.49612100  0.31772600  0.74218900  1
  O  O1  1  0.26850500  0.22094700  0.53128900  1
  O  O2  1  0.25093600  0.76154000  0.96796800  1
  O  O3  1  0.24906400  0.76154000  0.46796800  1
  O  O4  1  0.23149500  0.22094700  0.03128900  1
  O  O5  1  0.00387900  0.31772600  0.24218900  1
  O  O6  1  0.99612100  0.68227400  0.75781100  1
  O  O7  1  0.76850500  0.77905300  0.96871100  1
  O  O8  1  0.75093600  0.23846000  0.53203200  1
  O  O9  1  0.74906400  0.23846000  0.03203200  1
  O  O10  1  0.73149500  0.77905300  0.46871100  1
  O  O11  1  0.50387900  0.68227400  0.25781100  1
loop_
_geom_bond_atom_site_label_1
_geom_bond_atom_site_label_2
_geom_bond_distance
_geom_bond_site_symmetry_2
Co0 O5 2.083987 1_555
Co0 O6 2.083987 1_445
Co0 O3 2.112667 1_545
Co0 O8 2.112667 1_455
Co0 O1 2.114760 1_555
Co0 O10 2.114760 1_445
Co1 O0 2.083987 1_554
Co1 O11 2.083987 1_545
Co1 O9 2.112667 1_555
Co1 O2 2.112667 1_544
Co1 O4 2.114760 1_555
Co1 O7 2.114760 1_544
O0 W1 1.962315 1_555
O0 Sr2 2.542265 1_555
O0 Sr0 2.792602 1_555
O0 Sr0 2.934866 1_655
O0 Sr2 3.183371 1_545
O1 W1 1.949326 1_555
O1 Sr2 2.622550 1_545
O1 Sr0 2.685710 1_555
O1 Sr1 2.956618 1_555
O1 Sr3 3.102253 1_455
O2 W0 1.954489 1_556
O2 Sr2 2.622716 1_555
O2 Sr0 2.682295 1_565
O2 Sr1 2.957153 1_556
O2 Sr3 3.108198 1_456
O3 W1 1.954489 1_555
O3 Sr3 2.622716 1_455
O3 Sr1 2.682295 1_565
O3 Sr0 2.957153 1_555
O3 Sr2 3.108198 1_555
O4 W0 1.949326 1_555
O4 Sr3 2.622550 1_445
O4 Sr1 2.685710 1_555
O4 Sr0 2.956618 1_554
O4 Sr2 3.102253 1_554
O5 W0 1.962315 1_555
O5 Sr3 2.542265 1_455
O5 Sr1 2.792602 1_555
O5 Sr1 2.934866 1_455
O5 Sr3 3.183371 1_445
O6 W0 1.962315 1_656
O6 Sr0 2.542265 1_655
O6 Sr2 2.792602 1_555
O6 Sr2 2.934866 1_655
O6 Sr0 3.183371 1_665
O7 W0 1.949326 1_656
O7 Sr0 2.622550 1_665
O7 Sr2 2.685710 1_555
O7 Sr3 2.956618 1_556
O7 Sr1 3.102253 1_556
O8 W1 1.954489 1_555
O8 Sr0 2.622716 1_655
O8 Sr2 2.682295 1_545
O8 Sr3 2.957153 1_555
O8 Sr1 3.108198 1_555
O9 W0 1.954489 1_655
O9 Sr1 2.622716 1_555
O9 Sr3 2.682295 1_545
O9 Sr2 2.957153 1_554
O9 Sr0 3.108198 1_654
O10 W1 1.949326 1_555
O10 Sr1 2.622550 1_565
O10 Sr3 2.685710 1_555
O10 Sr2 2.956618 1_555
O10 Sr0 3.102253 1_655
O11 W1 1.962315 1_555
O11 Sr1 2.542265 1_555
O11 Sr3 2.792602 1_555
O11 Sr3 2.934866 1_455
O11 Sr1 3.183371 1_565
