# generated using pymatgen
data_TcSnSe
_symmetry_space_group_name_H-M   'P 1'
_cell_length_a   4.61688685
_cell_length_b   4.61688685
_cell_length_c   4.61688685
_cell_angle_alpha   60.00000000
_cell_angle_beta   60.00000000
_cell_angle_gamma   60.00000000
_symmetry_Int_Tables_number   1
_chemical_formula_structural   TcSnSe
_chemical_formula_sum   'Tc1 Sn1 Se1'
_cell_volume   69.58773413
_cell_formula_units_Z   1
loop_
 _symmetry_equiv_pos_site_id
 _symmetry_equiv_pos_as_xyz
  1  'x, y, z'
loop_
 _atom_site_type_symbol
 _atom_site_label
 _atom_site_symmetry_multiplicity
 _atom_site_fract_x
 _atom_site_fract_y
 _atom_site_fract_z
 _atom_site_occupancy
  Tc  Tc0  1  0.00000000  0.00000000  0.00000000  1
  Sn  Sn0  1  0.75000000  0.75000000  0.75000000  1
  Se  Se0  1  0.50000000  0.50000000  0.50000000  1
loop_
_geom_bond_atom_site_label_1
_geom_bond_atom_site_label_2
_geom_bond_distance
_geom_bond_site_symmetry_2
Sn0 Tc0 2.827254 1_566
Sn0 Tc0 2.827254 1_656
Sn0 Tc0 2.827254 1_666
Sn0 Tc0 2.827254 1_665
Se0 Sn0 2.827254 1_545
Se0 Sn0 2.827254 1_555
Se0 Sn0 2.827254 1_455
Se0 Sn0 2.827254 1_554
Se0 Tc0 3.264632 1_556
Se0 Tc0 3.264632 1_566
Se0 Tc0 3.264632 1_565
Se0 Tc0 3.264632 1_655
Se0 Tc0 3.264632 1_656
Se0 Tc0 3.264632 1_665
