# generated using pymatgen
data_CaCeC2O6F
_symmetry_space_group_name_H-M   'P 1'
_cell_length_a   7.23610382
_cell_length_b   7.24391666
_cell_length_c   18.84357020
_cell_angle_alpha   79.08190479
_cell_angle_beta   79.16354451
_cell_angle_gamma   60.10679949
_symmetry_Int_Tables_number   1
_chemical_formula_structural   CaCeC2O6F
_chemical_formula_sum   'Ca6 Ce6 C12 O36 F6'
_cell_volume   835.72499941
_cell_formula_units_Z   6
loop_
 _symmetry_equiv_pos_site_id
 _symmetry_equiv_pos_as_xyz
  1  'x, y, z'
loop_
 _atom_site_type_symbol
 _atom_site_label
 _atom_site_symmetry_multiplicity
 _atom_site_fract_x
 _atom_site_fract_y
 _atom_site_fract_z
 _atom_site_occupancy
  Ca  Ca0  1  0.84197659  0.31332674  0.50013175  1
  Ca  Ca1  1  0.65604379  0.18565815  0.99979895  1
  Ca  Ca2  1  0.15802341  0.68667326  0.49986825  1
  Ca  Ca3  1  0.50000000  -0.00000000  0.50000000  1
  Ca  Ca4  1  0.34395621  0.81434185  0.00020105  1
  Ca  Ca5  1  0.00000000  0.50000000  0.00000000  1
  Ce  Ce0  1  0.92583241  0.40953654  0.25029618  1
  Ce  Ce1  1  0.41506254  0.90771576  0.75010606  1
  Ce  Ce2  1  0.58493746  0.09228424  0.24989394  1
  Ce  Ce3  1  0.24154041  0.75060341  0.24988401  1
  Ce  Ce4  1  0.75845959  0.24939659  0.75011599  1
  Ce  Ce5  1  0.07416759  0.59046346  0.74970382  1
  C  C0  1  0.91953388  0.83554272  0.11451992  1
  C  C1  1  0.74857718  0.96505047  0.61825921  1
  C  C2  1  0.33165027  0.53446706  0.88177978  1
  C  C3  1  0.13034949  0.33565945  0.61450774  1
  C  C4  1  0.70028937  0.91490900  0.88622443  1
  C  C5  1  0.25142282  0.03494953  0.38174079  1
  C  C6  1  0.08046612  0.16445728  0.88548008  1
  C  C7  1  0.86965051  0.66434055  0.38549226  1
  C  C8  1  0.49810606  0.41555765  0.38637876  1
  C  C9  1  0.50189394  0.58444235  0.61362124  1
  C  C10  1  0.66834973  0.46553294  0.11822022  1
  C  C11  1  0.29971063  0.08509100  0.11377557  1
  O  O0  1  0.17318505  0.05409080  0.32263595  1
  O  O1  1  0.73651707  0.01053076  0.12013392  1
  O  O2  1  0.61609025  0.48093611  0.05430612  1
  O  O3  1  0.55102259  0.44707314  0.17733261  1
  O  O4  1  0.56550848  0.96877806  0.62219386  1
  O  O5  1  0.31402509  0.17812481  0.04796019  1
  O  O6  1  0.01535797  0.78656637  0.04969422  1
  O  O7  1  0.44897741  0.55292686  0.82266739  1
  O  O8  1  0.62211307  0.33050478  0.32927157  1
  O  O9  1  0.84795306  0.98063922  0.55435703  1
  O  O10  1  0.71824801  0.82941243  0.82909656  1
  O  O11  1  0.86788126  0.48880012  0.37991906  1
  O  O12  1  0.45954452  0.67844168  0.54787109  1
  O  O13  1  0.88895396  0.78398314  0.32695967  1
  O  O14  1  0.30389404  0.90063199  0.12089505  1
  O  O15  1  0.38390975  0.51906389  0.94569388  1
  O  O16  1  0.99896385  0.28465464  0.82703539  1
  O  O17  1  0.15204694  0.01936078  0.44564297  1
  O  O18  1  0.98464203  0.21343363  0.95030578  1
  O  O19  1  0.26348293  0.98946924  0.87986608  1
  O  O20  1  0.43449152  0.03122194  0.37780614  1
  O  O21  1  0.69610596  0.09936801  0.87910495  1
  O  O22  1  0.54045548  0.32155832  0.45212891  1
  O  O23  1  0.00103615  0.71534536  0.17296461  1
  O  O24  1  0.37788693  0.66949522  0.67072843  1
  O  O25  1  0.14842207  0.28578825  0.54969661  1
  O  O26  1  0.28175199  0.17058757  0.17090344  1
  O  O27  1  0.84401595  0.46877525  0.12225076  1
  O  O28  1  0.67459742  0.39982853  0.62081200  1
  O  O29  1  0.68597491  0.82187519  0.95203981  1
  O  O30  1  0.15598405  0.53122475  0.87774924  1
  O  O31  1  0.82681495  0.94590920  0.67736405  1
  O  O32  1  0.85157793  0.71421175  0.45030339  1
  O  O33  1  0.32540258  0.60017147  0.37918800  1
  O  O34  1  0.13211874  0.51119988  0.62008094  1
  O  O35  1  0.11104604  0.21601686  0.67304033  1
  F  F0  1  0.75625772  0.59120930  0.72606926  1
  F  F1  1  0.24374228  0.40879070  0.27393074  1
  F  F2  1  0.92517163  0.09194372  0.22610284  1
  F  F3  1  0.07482837  0.90805628  0.77389716  1
  F  F4  1  0.41501422  0.24919526  0.74992765  1
  F  F5  1  0.58498578  0.75080474  0.25007235  1
loop_
_geom_bond_atom_site_label_1
_geom_bond_atom_site_label_2
_geom_bond_distance
_geom_bond_site_symmetry_2
Ca0 O11 2.401929 1_555
Ca0 O28 2.403858 1_555
Ca0 O17 2.413012 1_655
Ca0 O9 2.415318 1_545
Ca0 O25 2.469116 1_655
Ca0 O22 2.484784 1_555
Ca0 O12 2.851718 1_555
Ca0 O32 2.909160 1_555
Ca1 O21 2.399422 1_555
Ca1 O1 2.400136 1_556
Ca1 O2 2.412034 1_556
Ca1 O15 2.414904 1_555
Ca1 O18 2.477100 1_555
Ca1 O5 2.494586 1_556
Ca1 O29 2.838548 1_545
Ca1 O6 2.898124 1_646
Ca2 O34 2.401929 1_555
Ca2 O33 2.403858 1_555
Ca2 O9 2.413012 1_455
Ca2 O17 2.415318 1_565
Ca2 O32 2.469116 1_455
Ca2 O12 2.484784 1_555
Ca2 O22 2.851718 1_555
Ca2 O25 2.909160 1_555
Ca3 O20 2.384103 1_555
Ca3 O4 2.384103 1_545
Ca3 O22 2.471776 1_555
Ca3 O12 2.471776 1_545
Ca3 O32 2.494762 1_545
Ca3 O25 2.494762 1_555
Ca3 O17 2.823399 1_555
Ca3 O9 2.823399 1_545
Ca4 O14 2.399422 1_555
Ca4 O19 2.400136 1_554
Ca4 O15 2.412034 1_554
Ca4 O2 2.414904 1_555
Ca4 O6 2.477100 1_555
Ca4 O29 2.494586 1_554
Ca4 O5 2.838548 1_565
Ca4 O18 2.898124 1_464
Ca5 O27 2.389839 1_455
Ca5 O30 2.389839 1_554
Ca5 O29 2.471750 1_454
Ca5 O5 2.471750 1_555
Ca5 O6 2.490757 1_555
Ca5 O18 2.490757 1_454
Ca5 O15 2.836113 1_554
Ca5 O2 2.836113 1_455
Ce0 F1 2.421214 1_655
Ce0 F2 2.431004 1_555
Ce0 F5 2.473246 1_555
Ce0 O27 2.499616 1_555
Ce0 O11 2.525421 1_555
Ce0 O0 2.585656 1_655
Ce0 O26 2.637407 1_655
Ce0 O23 2.647174 1_655
Ce0 O8 2.659721 1_555
Ce1 F3 2.416947 1_555
Ce1 F0 2.426519 1_555
Ce1 F4 2.472840 1_565
Ce1 O4 2.505976 1_555
Ce1 O19 2.534784 1_555
Ce1 O7 2.588688 1_555
Ce1 O24 2.622842 1_555
Ce1 O35 2.647938 1_565
Ce1 O10 2.649156 1_555
Ce2 F2 2.416947 1_555
Ce2 F1 2.426519 1_555
Ce2 F5 2.472840 1_545
Ce2 O20 2.505976 1_555
Ce2 O1 2.534784 1_555
Ce2 O3 2.588688 1_555
Ce2 O8 2.622842 1_555
Ce2 O13 2.647938 1_545
Ce2 O26 2.649156 1_555
Ce3 F1 2.423807 1_555
Ce3 F2 2.424723 1_465
Ce3 F5 2.486603 1_555
Ce3 O14 2.523554 1_555
Ce3 O33 2.526564 1_555
Ce3 O23 2.593561 1_555
Ce3 O0 2.599997 1_565
Ce3 O3 2.607310 1_555
Ce3 O13 2.608075 1_455
Ce4 F0 2.423807 1_555
Ce4 F3 2.424723 1_645
Ce4 F4 2.486603 1_555
Ce4 O21 2.523554 1_555
Ce4 O28 2.526564 1_555
Ce4 O16 2.593561 1_555
Ce4 O31 2.599997 1_545
Ce4 O7 2.607310 1_555
Ce4 O35 2.608075 1_655
Ce5 F0 2.421214 1_455
Ce5 F3 2.431004 1_555
Ce5 F4 2.473246 1_555
Ce5 O30 2.499616 1_555
Ce5 O34 2.525421 1_555
Ce5 O31 2.585656 1_455
Ce5 O10 2.637407 1_455
Ce5 O16 2.647174 1_455
Ce5 O24 2.659721 1_555
C0 O23 1.299209 1_655
C0 O1 1.302562 1_565
C0 O6 1.303578 1_655
C1 O31 1.296345 1_555
C1 O9 1.297558 1_555
C1 O4 1.299708 1_555
C2 O7 1.296366 1_555
C2 O15 1.297785 1_555
C2 O30 1.299558 1_555
C3 O35 1.299154 1_555
C3 O34 1.302106 1_555
C3 O25 1.303498 1_555
C4 O10 1.295772 1_555
C4 O21 1.302944 1_565
C4 O29 1.306776 1_555
C5 O0 1.296345 1_555
C5 O17 1.297558 1_555
C5 O20 1.299708 1_555
C6 O16 1.299209 1_455
C6 O19 1.302562 1_545
C6 O18 1.303578 1_455
C7 O13 1.299154 1_555
C7 O11 1.302106 1_555
C7 O32 1.303498 1_555
C8 O8 1.296068 1_555
C8 O33 1.302967 1_555
C8 O22 1.306827 1_555
C9 O24 1.296068 1_555
C9 O28 1.302967 1_555
C9 O12 1.306827 1_555
C10 O3 1.296366 1_555
C10 O2 1.297785 1_555
C10 O27 1.299558 1_555
C11 O26 1.295772 1_555
C11 O14 1.302944 1_545
C11 O5 1.306776 1_555
