# generated using pymatgen
data_Mn3Al2(SiO4)3
_symmetry_space_group_name_H-M   'P 1'
_cell_length_a   10.16977962
_cell_length_b   10.16977962
_cell_length_c   10.16977962
_cell_angle_alpha   109.47122063
_cell_angle_beta   109.47122063
_cell_angle_gamma   109.47122063
_symmetry_Int_Tables_number   1
_chemical_formula_structural   Mn3Al2(SiO4)3
_chemical_formula_sum   'Mn12 Al8 Si12 O48'
_cell_volume   809.67873710
_cell_formula_units_Z   4
loop_
 _symmetry_equiv_pos_site_id
 _symmetry_equiv_pos_as_xyz
  1  'x, y, z'
loop_
 _atom_site_type_symbol
 _atom_site_label
 _atom_site_symmetry_multiplicity
 _atom_site_fract_x
 _atom_site_fract_y
 _atom_site_fract_z
 _atom_site_occupancy
  Mn  Mn0  1  0.37500000  0.12500000  0.25000000  1
  Mn  Mn1  1  0.75000000  0.12500000  0.37500000  1
  Mn  Mn2  1  0.25000000  0.37500000  0.12500000  1
  Mn  Mn3  1  0.37500000  0.75000000  0.12500000  1
  Mn  Mn4  1  0.12500000  0.37500000  0.75000000  1
  Mn  Mn5  1  0.12500000  0.25000000  0.37500000  1
  Mn  Mn6  1  0.62500000  0.25000000  0.87500000  1
  Mn  Mn7  1  0.25000000  0.87500000  0.62500000  1
  Mn  Mn8  1  0.62500000  0.87500000  0.75000000  1
  Mn  Mn9  1  0.87500000  0.62500000  0.25000000  1
  Mn  Mn10  1  0.87500000  0.75000000  0.62500000  1
  Mn  Mn11  1  0.75000000  0.62500000  0.87500000  1
  Al  Al0  1  0.50000000  0.00000000  0.00000000  1
  Al  Al1  1  0.50000000  0.50000000  0.50000000  1
  Al  Al2  1  0.50000000  0.00000000  0.50000000  1
  Al  Al3  1  0.00000000  0.00000000  0.50000000  1
  Al  Al4  1  0.00000000  0.00000000  0.00000000  1
  Al  Al5  1  0.00000000  0.50000000  0.50000000  1
  Al  Al6  1  0.50000000  0.50000000  0.00000000  1
  Al  Al7  1  0.00000000  0.50000000  0.00000000  1
  Si  Si0  1  0.62500000  0.37500000  0.25000000  1
  Si  Si1  1  0.87500000  0.12500000  0.75000000  1
  Si  Si2  1  0.25000000  0.62500000  0.37500000  1
  Si  Si3  1  0.62500000  0.75000000  0.37500000  1
  Si  Si4  1  0.37500000  0.25000000  0.62500000  1
  Si  Si5  1  0.37500000  0.62500000  0.75000000  1
  Si  Si6  1  0.25000000  0.12500000  0.87500000  1
  Si  Si7  1  0.12500000  0.87500000  0.25000000  1
  Si  Si8  1  0.75000000  0.37500000  0.62500000  1
  Si  Si9  1  0.87500000  0.25000000  0.12500000  1
  Si  Si10  1  0.75000000  0.87500000  0.12500000  1
  Si  Si11  1  0.12500000  0.75000000  0.87500000  1
  O  O0  1  0.58215000  0.89506000  0.38269800  1
  O  O1  1  0.38269800  0.58215000  0.89506000  1
  O  O2  1  0.30054700  0.31290900  0.91785000  1
  O  O3  1  0.48763800  0.60494000  0.18709100  1
  O  O4  1  0.31290900  0.89506000  0.01236200  1
  O  O5  1  0.11730200  0.01236200  0.19945300  1
  O  O6  1  0.38269800  0.30054700  0.48763800  1
  O  O7  1  0.89506000  0.38269800  0.58215000  1
  O  O8  1  0.18709100  0.19945300  0.58215000  1
  O  O9  1  0.48763800  0.38269800  0.30054700  1
  O  O10  1  0.89506000  0.01236200  0.31290900  1
  O  O11  1  0.60494000  0.91785000  0.11730200  1
  O  O12  1  0.91785000  0.11730200  0.60494000  1
  O  O13  1  0.30054700  0.48763800  0.38269800  1
  O  O14  1  0.58215000  0.18709100  0.19945300  1
  O  O15  1  0.19945300  0.58215000  0.18709100  1
  O  O16  1  0.01236200  0.31290900  0.89506000  1
  O  O17  1  0.91785000  0.30054700  0.31290900  1
  O  O18  1  0.01236200  0.19945300  0.11730200  1
  O  O19  1  0.81290900  0.80054700  0.41785000  1
  O  O20  1  0.18709100  0.48763800  0.60494000  1
  O  O21  1  0.60494000  0.18709100  0.48763800  1
  O  O22  1  0.19945300  0.11730200  0.01236200  1
  O  O23  1  0.11730200  0.60494000  0.91785000  1
  O  O24  1  0.41785000  0.10494000  0.61730200  1
  O  O25  1  0.61730200  0.41785000  0.10494000  1
  O  O26  1  0.69945300  0.68709100  0.08215000  1
  O  O27  1  0.51236200  0.39506000  0.81290900  1
  O  O28  1  0.68709100  0.10494000  0.98763800  1
  O  O29  1  0.88269800  0.98763800  0.80054700  1
  O  O30  1  0.61730200  0.69945300  0.51236200  1
  O  O31  1  0.10494000  0.61730200  0.41785000  1
  O  O32  1  0.88269800  0.39506000  0.08215000  1
  O  O33  1  0.80054700  0.88269800  0.98763800  1
  O  O34  1  0.39506000  0.81290900  0.51236200  1
  O  O35  1  0.68709100  0.08215000  0.69945300  1
  O  O36  1  0.81290900  0.51236200  0.39506000  1
  O  O37  1  0.98763800  0.80054700  0.88269800  1
  O  O38  1  0.08215000  0.69945300  0.68709100  1
  O  O39  1  0.98763800  0.68709100  0.10494000  1
  O  O40  1  0.80054700  0.41785000  0.81290900  1
  O  O41  1  0.41785000  0.81290900  0.80054700  1
  O  O42  1  0.69945300  0.51236200  0.61730200  1
  O  O43  1  0.08215000  0.88269800  0.39506000  1
  O  O44  1  0.39506000  0.08215000  0.88269800  1
  O  O45  1  0.10494000  0.98763800  0.68709100  1
  O  O46  1  0.51236200  0.61730200  0.69945300  1
  O  O47  1  0.31290900  0.91785000  0.30054700  1
loop_
_geom_bond_atom_site_label_1
_geom_bond_atom_site_label_2
_geom_bond_distance
_geom_bond_site_symmetry_2
Mn0 O47 2.269924 1_545
Mn0 O14 2.269924 1_555
Mn0 O5 2.269933 1_555
Mn0 O9 2.269933 1_555
Mn0 O21 2.436851 1_555
Mn0 O4 2.436851 1_545
Mn0 O6 2.436851 1_555
Mn0 O22 2.436851 1_555
Mn1 O7 2.269930 1_555
Mn1 O11 2.269930 1_545
Mn1 O10 2.269933 1_555
Mn1 O21 2.269933 1_555
Mn1 O12 2.436855 1_555
Mn1 O0 2.436855 1_545
Mn1 O14 2.436857 1_555
Mn1 O17 2.436857 1_555
Mn2 O2 2.269924 1_554
Mn2 O15 2.269924 1_555
Mn2 O22 2.269933 1_555
Mn2 O13 2.269933 1_555
Mn2 O18 2.436851 1_555
Mn2 O3 2.436851 1_555
Mn2 O9 2.436851 1_555
Mn2 O16 2.436851 1_554
Mn3 O23 2.269930 1_554
Mn3 O0 2.269930 1_555
Mn3 O3 2.269933 1_555
Mn3 O4 2.269933 1_555
Mn3 O1 2.436855 1_554
Mn3 O11 2.436855 1_555
Mn3 O47 2.436857 1_555
Mn3 O15 2.436857 1_555
Mn4 O1 2.269930 1_555
Mn4 O12 2.269930 1_455
Mn4 O20 2.269933 1_555
Mn4 O16 2.269933 1_555
Mn4 O7 2.436855 1_455
Mn4 O23 2.436855 1_555
Mn4 O2 2.436857 1_555
Mn4 O8 2.436857 1_555
Mn5 O17 2.269924 1_455
Mn5 O8 2.269924 1_555
Mn5 O6 2.269933 1_555
Mn5 O18 2.269933 1_555
Mn5 O5 2.436851 1_555
Mn5 O20 2.436851 1_555
Mn5 O10 2.436851 1_455
Mn5 O13 2.436851 1_555
Mn6 O32 2.269930 1_556
Mn6 O24 2.269930 1_555
Mn6 O28 2.269933 1_555
Mn6 O27 2.269933 1_555
Mn6 O44 2.436855 1_555
Mn6 O25 2.436855 1_556
Mn6 O35 2.436857 1_555
Mn6 O40 2.436857 1_555
Mn7 O44 2.269930 1_565
Mn7 O31 2.269930 1_555
Mn7 O45 2.269933 1_555
Mn7 O34 2.269933 1_555
Mn7 O43 2.436855 1_555
Mn7 O24 2.436855 1_565
Mn7 O41 2.436857 1_555
Mn7 O38 2.436857 1_555
Mn8 O35 2.269924 1_565
Mn8 O41 2.269924 1_555
Mn8 O29 2.269933 1_555
Mn8 O46 2.269933 1_555
Mn8 O30 2.436851 1_555
Mn8 O33 2.436851 1_555
Mn8 O34 2.436851 1_555
Mn8 O28 2.436851 1_565
Mn9 O25 2.269930 1_555
Mn9 O43 2.269930 1_655
Mn9 O39 2.269933 1_555
Mn9 O36 2.269933 1_555
Mn9 O32 2.436855 1_555
Mn9 O31 2.436855 1_655
Mn9 O26 2.436857 1_555
Mn9 O19 2.436857 1_555
Mn10 O38 2.269924 1_655
Mn10 O19 2.269924 1_555
Mn10 O30 2.269933 1_555
Mn10 O37 2.269933 1_555
Mn10 O42 2.436851 1_555
Mn10 O36 2.436851 1_555
Mn10 O45 2.436851 1_655
Mn10 O29 2.436851 1_555
Mn11 O26 2.269924 1_556
Mn11 O40 2.269924 1_555
Mn11 O42 2.269933 1_555
Mn11 O33 2.269933 1_555
Mn11 O27 2.436851 1_555
Mn11 O46 2.436851 1_555
Mn11 O39 2.436851 1_556
Mn11 O37 2.436851 1_555
Al0 O11 1.915750 1_545
Al0 O44 1.915750 1_554
Al0 O28 1.915758 1_554
Al0 O4 1.915758 1_545
Al0 O41 1.915761 1_544
Al0 O14 1.915761 1_555
Al1 O13 1.915758 1_555
Al1 O42 1.915758 1_555
Al1 O30 1.915758 1_555
Al1 O46 1.915758 1_555
Al1 O9 1.915758 1_555
Al1 O6 1.915758 1_555
Al2 O0 1.915750 1_545
Al2 O24 1.915750 1_555
Al2 O21 1.915758 1_555
Al2 O34 1.915758 1_545
Al2 O35 1.915761 1_555
Al2 O47 1.915761 1_545
Al3 O12 1.915750 1_455
Al3 O43 1.915750 1_545
Al3 O45 1.915758 1_545
Al3 O10 1.915758 1_455
Al3 O19 1.915761 1_445
Al3 O8 1.915761 1_555
Al4 O22 1.915758 1_555
Al4 O37 1.915758 1_444
Al4 O5 1.915758 1_555
Al4 O29 1.915758 1_444
Al4 O33 1.915758 1_444
Al4 O18 1.915758 1_555
Al5 O7 1.915750 1_455
Al5 O31 1.915750 1_555
Al5 O36 1.915758 1_455
Al5 O20 1.915758 1_555
Al5 O38 1.915761 1_555
Al5 O17 1.915761 1_455
Al6 O1 1.915750 1_554
Al6 O25 1.915750 1_555
Al6 O27 1.915758 1_554
Al6 O3 1.915758 1_555
Al6 O26 1.915761 1_555
Al6 O2 1.915761 1_554
Al7 O23 1.915750 1_554
Al7 O32 1.915750 1_455
Al7 O39 1.915758 1_455
Al7 O16 1.915758 1_554
Al7 O40 1.915761 1_454
Al7 O15 1.915761 1_555
O0 Si3 1.657304 1_555
O1 Si5 1.657304 1_555
O2 Si6 1.657295 1_555
O3 Si3 1.657298 1_555
O4 Si11 1.657298 1_554
O5 Si7 1.657298 1_545
O6 Si4 1.657298 1_555
O7 Si8 1.657304 1_555
O8 Si4 1.657295 1_555
O9 Si0 1.657298 1_555
O10 Si10 1.657298 1_545
O11 Si10 1.657304 1_555
O12 Si1 1.657304 1_555
O13 Si2 1.657298 1_555
O14 Si0 1.657295 1_555
O15 Si2 1.657295 1_555
O16 Si1 1.657298 1_455
O17 Si9 1.657295 1_555
O18 Si9 1.657298 1_455
O19 Si3 1.657295 1_555
O20 Si5 1.657298 1_555
O21 Si8 1.657298 1_555
O22 Si6 1.657298 1_554
O23 Si11 1.657304 1_555
O24 Si4 1.657304 1_555
O25 Si0 1.657304 1_555
O26 Si10 1.657295 1_555
O27 Si4 1.657298 1_555
O28 Si9 1.657298 1_556
O29 Si1 1.657298 1_565
O30 Si3 1.657298 1_555
O31 Si2 1.657304 1_555
O32 Si9 1.657304 1_555
O33 Si10 1.657298 1_556
O34 Si2 1.657298 1_555
O35 Si1 1.657295 1_555
O36 Si0 1.657298 1_555
O37 Si11 1.657298 1_655
O38 Si11 1.657295 1_555
O39 Si7 1.657298 1_655
O40 Si8 1.657295 1_555
O41 Si5 1.657295 1_555
O42 Si8 1.657298 1_555
O43 Si7 1.657304 1_555
O44 Si6 1.657304 1_555
O45 Si6 1.657298 1_565
O46 Si5 1.657298 1_555
O47 Si7 1.657295 1_555
