# generated using pymatgen
data_SrLaMnMoO6
_symmetry_space_group_name_H-M   'P 1'
_cell_length_a   5.69560728
_cell_length_b   5.83798600
_cell_length_c   8.16240780
_cell_angle_alpha   89.99995991
_cell_angle_beta   89.45849112
_cell_angle_gamma   90.00029800
_symmetry_Int_Tables_number   1
_chemical_formula_structural   SrLaMnMoO6
_chemical_formula_sum   'Sr2 La2 Mn2 Mo2 O12'
_cell_volume   271.39508469
_cell_formula_units_Z   2
loop_
 _symmetry_equiv_pos_site_id
 _symmetry_equiv_pos_as_xyz
  1  'x, y, z'
loop_
 _atom_site_type_symbol
 _atom_site_label
 _atom_site_symmetry_multiplicity
 _atom_site_fract_x
 _atom_site_fract_y
 _atom_site_fract_z
 _atom_site_occupancy
  Sr  Sr0  1  0.99340300  0.03929000  0.24704100  1
  Sr  Sr1  1  0.49341900  0.46070600  0.74704000  1
  La  La0  1  0.50831300  0.55073500  0.24870200  1
  La  La1  1  0.00829400  0.94925700  0.74870200  1
  Mn  Mn0  1  0.00138300  0.49630700  0.49833700  1
  Mn  Mn1  1  0.50125000  0.00371200  0.99837700  1
  Mo  Mo0  1  0.00019700  0.49620200  0.99913400  1
  Mo  Mo1  1  0.50021000  0.00379900  0.49913300  1
  O  O0  1  0.10132500  0.47124300  0.24079600  1
  O  O1  1  0.60131700  0.02875300  0.74079700  1
  O  O2  1  0.22312300  0.19109500  0.54565700  1
  O  O3  1  0.72312200  0.30889600  0.04565400  1
  O  O4  1  0.18991400  0.20663200  0.94633100  1
  O  O5  1  0.68992500  0.29337000  0.44633600  1
  O  O6  1  0.29116400  0.72819700  0.55153800  1
  O  O7  1  0.79115300  0.77180200  0.05153000  1
  O  O8  1  0.26954600  0.69493500  0.96302600  1
  O  O9  1  0.76954600  0.80506500  0.46303200  1
  O  O10  1  0.42169600  0.96387900  0.25942100  1
  O  O11  1  0.92170100  0.53612400  0.75942100  1
loop_
_geom_bond_atom_site_label_1
_geom_bond_atom_site_label_2
_geom_bond_distance
_geom_bond_site_symmetry_2
La0 O0 2.365517 1_555
La0 O5 2.441581 1_555
La0 O10 2.463257 1_555
La0 O3 2.489727 1_555
La0 O7 2.608043 1_555
La0 O9 2.743738 1_555
La0 O8 2.838193 1_554
La0 O6 2.942002 1_555
La1 O1 2.365465 1_465
La1 O4 2.441604 1_565
La1 O11 2.463161 1_455
La1 O2 2.489754 1_565
La1 O6 2.608097 1_555
La1 O8 2.743748 1_555
La1 O9 2.838083 1_455
La1 O7 2.941909 1_456
Mn0 O0 2.177584 1_555
Mn0 O5 2.178270 1_455
Mn0 O6 2.181484 1_555
Mn0 O11 2.187053 1_455
Mn0 O2 2.219989 1_555
Mn0 O9 2.254540 1_455
Mn1 O4 2.177733 1_555
Mn1 O1 2.178060 1_555
Mn1 O7 2.182013 1_546
Mn1 O10 2.186600 1_546
Mn1 O3 2.220214 1_556
Mn1 O8 2.254224 1_545
Mo0 O8 1.943668 1_555
Mo0 O3 1.954224 1_456
Mo0 O11 2.024638 1_455
Mo0 O7 2.044413 1_456
Mo0 O4 2.049971 1_555
Mo0 O0 2.065283 1_556
Mo1 O9 1.943615 1_545
Mo1 O2 1.954262 1_555
Mo1 O10 2.024652 1_545
Mo1 O6 2.044434 1_545
Mo1 O5 2.049950 1_555
Mo1 O1 2.065262 1_555
O0 Sr0 2.595953 1_455
O1 Sr1 2.595927 1_555
O2 Sr1 2.756317 1_555
O2 Sr0 2.915240 1_455
O3 Sr0 2.756279 1_555
O3 Sr1 2.915194 1_554
O4 Sr1 2.789496 1_555
O4 Sr0 2.860043 1_456
O5 Sr0 2.789450 1_555
O5 Sr1 2.859983 1_555
O6 Sr1 2.519301 1_555
O7 Sr0 2.519318 1_565
O8 Sr1 2.561502 1_555
O9 Sr0 2.561464 1_565
O10 Sr0 2.481797 1_465
O11 Sr1 2.481739 1_555
