# generated using pymatgen
data_SrTeO3
_symmetry_space_group_name_H-M   'P 1'
_cell_length_a   5.99365100
_cell_length_b   14.59121092
_cell_length_c   26.70280780
_cell_angle_alpha   93.78794742
_cell_angle_beta   96.31558572
_cell_angle_gamma   101.83785509
_symmetry_Int_Tables_number   1
_chemical_formula_structural   SrTeO3
_chemical_formula_sum   'Sr24 Te24 O72'
_cell_volume   2262.29766754
_cell_formula_units_Z   24
loop_
 _symmetry_equiv_pos_site_id
 _symmetry_equiv_pos_as_xyz
  1  'x, y, z'
loop_
 _atom_site_type_symbol
 _atom_site_label
 _atom_site_symmetry_multiplicity
 _atom_site_fract_x
 _atom_site_fract_y
 _atom_site_fract_z
 _atom_site_occupancy
  Sr  Sr0  1  0.71992900  0.56413000  0.44498200  1
  Sr  Sr1  1  0.21220400  0.93637000  0.05499500  1
  Sr  Sr2  1  0.87598400  0.32762700  0.92359900  1
  Sr  Sr3  1  0.76908800  0.34608300  0.63715600  1
  Sr  Sr4  1  0.12390600  0.53864500  0.21083600  1
  Sr  Sr5  1  0.28066700  0.15291900  0.86130000  1
  Sr  Sr6  1  0.71619800  0.84644000  0.13891300  1
  Sr  Sr7  1  0.63583400  0.44344700  0.30250700  1
  Sr  Sr8  1  0.87399200  0.96271900  0.29000600  1
  Sr  Sr9  1  0.12654900  0.67261600  0.07705700  1
  Sr  Sr10  1  0.22926400  0.65405500  0.36235800  1
  Sr  Sr11  1  0.96693100  0.75053200  0.74981300  1
  Sr  Sr12  1  0.50125500  0.50000100  0.99993100  1
  Sr  Sr13  1  0.36594700  0.55711100  0.69768300  1
  Sr  Sr14  1  0.12253800  0.17100500  0.57677900  1
  Sr  Sr15  1  0.61047800  0.94428500  0.80297400  1
  Sr  Sr16  1  0.87879500  0.82796400  0.42398000  1
  Sr  Sr17  1  0.28106600  0.43559800  0.55513500  1
  Sr  Sr18  1  0.49784100  0.00041800  0.49968100  1
  Sr  Sr19  1  0.87808100  0.46160600  0.78938000  1
  Sr  Sr20  1  0.03361700  0.24902800  0.24970300  1
  Sr  Sr21  1  0.12417400  0.03991000  0.71033100  1
  Sr  Sr22  1  0.39024500  0.05715000  0.19720700  1
  Sr  Sr23  1  0.78702000  0.06427600  0.94478000  1
  Te  Te0  1  0.12936900  0.40536100  0.38427900  1
  Te  Te1  1  0.72245400  0.68604000  0.29278600  1
  Te  Te2  1  0.63884600  0.29705800  0.49962000  1
  Te  Te3  1  0.83899900  0.09431200  0.11518000  1
  Te  Te4  1  0.34252400  0.20353900  0.00039000  1
  Te  Te5  1  0.53548000  0.84300000  0.67304000  1
  Te  Te6  1  0.36148700  0.70364000  0.50047300  1
  Te  Te7  1  0.97860300  0.88441000  0.57359800  1
  Te  Te8  1  0.24376200  0.81515000  0.20834000  1
  Te  Te9  1  0.01929400  0.11593800  0.42605000  1
  Te  Te10  1  0.15879100  0.90572900  0.88495700  1
  Te  Te11  1  0.39697400  0.41300500  0.86070700  1
  Te  Te12  1  0.75425300  0.18596600  0.79237400  1
  Te  Te13  1  0.66016900  0.79690700  0.99977800  1
  Te  Te14  1  0.02250600  0.61441900  0.92676100  1
  Te  Te15  1  0.86982800  0.59434000  0.61585100  1
  Te  Te16  1  0.61895100  0.08531400  0.64034500  1
  Te  Te17  1  0.27891500  0.31392500  0.70781400  1
  Te  Te18  1  0.60245100  0.58677100  0.13945400  1
  Te  Te19  1  0.98091600  0.38402800  0.07365000  1
  Te  Te20  1  0.48577500  0.34170300  0.17331200  1
  Te  Te21  1  0.51373700  0.65850300  0.82728700  1
  Te  Te22  1  0.37840000  0.91343700  0.35959600  1
  Te  Te23  1  0.46436900  0.15849200  0.32690300  1
  O  O0  1  0.03910700  0.89813000  0.21438400  1
  O  O1  1  0.52578000  0.70206600  0.44366700  1
  O  O2  1  0.90130900  0.66441400  0.15551300  1
  O  O3  1  0.27295900  0.89716600  0.55450200  1
  O  O4  1  0.80075900  0.67566100  0.36268100  1
  O  O5  1  0.56223200  0.33664900  0.82663700  1
  O  O6  1  0.42705700  0.60467200  0.28709300  1
  O  O7  1  0.06709000  0.69683100  0.46502600  1
  O  O8  1  0.01210000  0.00148000  0.61222800  1
  O  O9  1  0.23910800  0.07493700  0.00873000  1
  O  O10  1  0.47305600  0.29587400  0.55622600  1
  O  O11  1  0.58073600  0.83391200  0.34443600  1
  O  O12  1  0.57290800  0.99787200  0.11058200  1
  O  O13  1  0.00314300  0.36665900  0.31736600  1
  O  O14  1  0.89582200  0.49822500  0.88755700  1
  O  O15  1  0.34489200  0.21906800  0.18580800  1
  O  O16  1  0.99340400  0.99983300  0.38700900  1
  O  O17  1  0.44010600  0.28098700  0.31274000  1
  O  O18  1  0.40979200  0.48543000  0.37612100  1
  O  O19  1  0.34106000  0.88240500  0.42585600  1
  O  O20  1  0.19582900  0.32297000  0.63790200  1
  O  O21  1  0.42729800  0.00098000  0.88865200  1
  O  O22  1  0.89320900  0.16224800  0.67408800  1
  O  O23  1  0.04836300  0.01502700  0.12399600  1
  O  O24  1  0.80664900  0.90078500  0.51226900  1
  O  O25  1  0.96083500  0.10370800  0.78680500  1
  O  O26  1  0.10669600  0.50094700  0.11229300  1
  O  O27  1  0.90070500  0.59713000  0.98877000  1
  O  O28  1  0.12266800  0.20059300  0.94293800  1
  O  O29  1  0.89153500  0.59351000  0.27433200  1
  O  O30  1  0.65718300  0.11731100  0.57417200  1
  O  O31  1  0.81484500  0.13280100  0.18216600  1
  O  O32  1  0.44071300  0.66449600  0.17372100  1
  O  O33  1  0.72064900  0.10093500  0.44299100  1
  O  O34  1  0.32401800  0.60068000  0.94345100  1
  O  O35  1  0.68070900  0.39772700  0.05531100  1
  O  O36  1  0.26179000  0.82498800  0.13836000  1
  O  O37  1  0.76740100  0.92558400  0.99214900  1
  O  O38  1  0.58993100  0.51328700  0.62418600  1
  O  O39  1  0.57736800  0.39278000  0.71280800  1
  O  O40  1  0.03715800  0.49880600  0.60992900  1
  O  O41  1  0.96001700  0.50026300  0.38912900  1
  O  O42  1  0.17866600  0.86384600  0.81844500  1
  O  O43  1  0.66718800  0.59526000  0.78159400  1
  O  O44  1  0.47481200  0.09391700  0.77304300  1
  O  O45  1  0.46724100  0.38039400  0.92670000  1
  O  O46  1  0.21992000  0.62733600  0.78819200  1
  O  O47  1  0.88004000  0.79758500  0.05672900  1
  O  O48  1  0.10537600  0.40088300  0.01207900  1
  O  O49  1  0.60195300  0.19842700  0.96706700  1
  O  O50  1  0.20319700  0.09675900  0.28081200  1
  O  O51  1  0.77896100  0.37048600  0.21264300  1
  O  O52  1  0.30693500  0.87184300  0.71149200  1
  O  O53  1  0.93166300  0.30162700  0.53509100  1
  O  O54  1  0.11607700  0.40805400  0.72700400  1
  O  O55  1  0.10063200  0.33309700  0.84452400  1
  O  O56  1  0.65439000  0.42615600  0.49325500  1
  O  O57  1  0.99852300  0.63152500  0.68273400  1
  O  O58  1  0.79436400  0.90488400  0.71980900  1
  O  O59  1  0.34833400  0.57538200  0.50914700  1
  O  O60  1  0.53201500  0.62008400  0.07351600  1
  O  O61  1  0.10479300  0.83492200  0.32639600  1
  O  O62  1  0.56309100  0.72017900  0.68555200  1
  O  O63  1  0.33457500  0.40523700  0.21934100  1
  O  O64  1  0.64815600  0.78045800  0.81311400  1
  O  O65  1  0.95230900  0.98667500  0.87627400  1
  O  O66  1  0.68922800  0.12704400  0.28818300  1
  O  O67  1  0.73133200  0.17430800  0.86208800  1
  O  O68  1  0.52603300  0.90591300  0.22659700  1
  O  O69  1  0.41720400  0.16479900  0.65584600  1
  O  O70  1  0.18692000  0.09951500  0.48790100  1
  O  O71  1  0.40478400  0.80240300  0.03441600  1
loop_
_geom_bond_atom_site_label_1
_geom_bond_atom_site_label_2
_geom_bond_distance
_geom_bond_site_symmetry_2
O0 Te8 1.903612 1_555
O0 Sr8 2.552665 1_455
O0 Sr6 2.591942 1_455
O0 Sr22 2.893603 1_565
O1 Te6 1.898530 1_555
O1 Sr0 2.523365 1_555
O1 Sr10 2.608169 1_555
O1 Sr16 2.627806 1_555
O2 Te18 1.900041 1_555
O2 Sr9 2.610544 1_655
O2 Sr4 2.873871 1_655
O2 Sr6 3.120587 1_555
O3 Te7 1.866289 1_455
O3 Sr18 2.474223 1_565
O4 Te1 1.897477 1_555
O4 Sr16 2.600211 1_555
O4 Sr10 2.651865 1_655
O4 Sr0 2.845366 1_555
O5 Te11 1.888686 1_555
O5 Sr19 2.671283 1_555
O5 Sr2 3.054964 1_555
O5 Sr5 3.115601 1_555
O6 Te1 1.903124 1_555
O6 Sr4 2.566045 1_555
O6 Sr10 2.578214 1_555
O6 Sr7 2.914061 1_555
O7 Te6 1.888782 1_555
O7 Sr0 2.515993 1_455
O7 Sr16 2.650843 1_455
O7 Sr10 3.075620 1_555
O8 Te7 1.898209 1_445
O8 Sr21 2.625322 1_555
O8 Sr14 2.688532 1_555
O9 Te4 1.887664 1_555
O9 Sr1 2.424921 1_545
O9 Sr23 3.009393 1_454
O10 Te2 1.897188 1_555
O10 Sr17 2.538600 1_555
O10 Sr3 2.601723 1_555
O10 Sr14 2.617226 1_555
O11 Te22 1.898511 1_555
O11 Sr16 2.638881 1_555
O11 Sr8 2.881291 1_555
O11 Sr10 3.110213 1_555
O12 Te3 1.884701 1_565
O12 Sr1 2.450407 1_555
O12 Sr6 2.654926 1_555
O12 Sr22 2.824651 1_565
O13 Te0 1.864883 1_555
O13 Sr20 2.456684 1_555
O13 Sr7 2.671719 1_455
O14 Te14 1.899817 1_655
O14 Sr19 2.626761 1_555
O14 Sr2 2.712370 1_555
O15 Te20 1.883411 1_555
O15 Sr22 2.467515 1_555
O15 Sr20 2.742130 1_555
O16 Te9 1.898449 1_665
O16 Sr8 2.600517 1_555
O16 Sr16 2.739520 1_555
O17 Te23 1.882194 1_555
O17 Sr7 2.466831 1_555
O17 Sr20 2.741266 1_555
O18 Te0 1.883047 1_555
O18 Sr0 2.499668 1_555
O18 Sr7 2.615740 1_555
O18 Sr10 2.912711 1_555
O19 Te22 1.880699 1_555
O19 Sr18 2.492859 1_565
O19 Sr16 2.715006 1_455
O20 Te17 1.898818 1_555
O20 Sr14 2.595766 1_555
O20 Sr3 2.645701 1_455
O20 Sr17 2.868820 1_555
O21 Te10 1.886951 1_545
O21 Sr23 2.457035 1_555
O21 Sr5 2.663255 1_555
O21 Sr15 2.792704 1_545
O22 Te16 1.886136 1_555
O22 Sr21 2.643250 1_655
O22 Sr14 3.068391 1_655
O22 Sr3 3.118973 1_555
O23 Te3 1.880164 1_455
O23 Sr1 2.501503 1_545
O23 Sr22 2.615650 1_555
O23 Sr6 2.909974 1_445
O24 Te7 1.892777 1_555
O24 Sr18 2.585319 1_565
O24 Sr16 2.637407 1_555
O25 Te12 1.903273 1_555
O25 Sr5 2.560259 1_655
O25 Sr21 2.560786 1_655
O25 Sr15 2.887071 1_545
O26 Te19 1.900550 1_455
O26 Sr4 2.638768 1_555
O26 Sr9 2.717998 1_555
O27 Te14 1.893116 1_655
O27 Sr12 2.578768 1_555
O27 Sr9 2.635609 1_656
O28 Te4 1.901347 1_556
O28 Sr23 2.529583 1_455
O28 Sr5 2.580121 1_555
O28 Sr2 2.640345 1_455
O29 Te1 1.917289 1_555
O29 Sr4 2.500614 1_655
O29 Sr7 2.608395 1_555
O29 Sr10 2.889311 1_655
O30 Te16 1.883343 1_555
O30 Sr18 2.498652 1_555
O30 Sr14 2.729775 1_655
O31 Te3 1.869079 1_555
O31 Sr20 2.451741 1_655
O31 Sr22 2.643333 1_555
O32 Te18 1.890054 1_555
O32 Sr4 2.680250 1_555
O32 Sr9 3.047113 1_555
O32 Sr6 3.082747 1_555
O33 Te9 1.867360 1_655
O33 Sr18 2.482043 1_555
O34 Te14 1.867586 1_555
O34 Sr12 2.478231 1_555
O35 Te19 1.866550 1_555
O35 Sr12 2.484127 1_554
O36 Te8 1.896756 1_555
O36 Sr9 2.601445 1_555
O36 Sr6 2.675212 1_555
O36 Sr1 2.866297 1_555
O37 Te13 1.887863 1_555
O37 Sr23 2.445887 1_565
O37 Sr1 2.959252 1_656
O38 Te15 1.888250 1_555
O38 Sr17 2.494737 1_555
O38 Sr13 2.613218 1_555
O38 Sr3 2.886150 1_555
O39 Te17 1.903765 1_555
O39 Sr3 2.552581 1_555
O39 Sr19 2.571589 1_555
O39 Sr13 2.963148 1_555
O40 Te15 1.885026 1_455
O40 Sr17 2.444187 1_555
O40 Sr3 2.660455 1_455
O40 Sr13 2.851484 1_555
O41 Te0 1.883207 1_655
O41 Sr0 2.449952 1_555
O41 Sr10 2.670367 1_655
O41 Sr7 2.812440 1_555
O42 Te10 1.864148 1_555
O42 Sr11 2.435149 1_455
O42 Sr15 2.701785 1_555
O43 Te21 1.905916 1_555
O43 Sr19 2.539937 1_555
O43 Sr13 2.668921 1_555
O43 Sr11 2.828475 1_555
O44 Te12 1.915938 1_555
O44 Sr21 2.492756 1_555
O44 Sr15 2.623509 1_545
O44 Sr5 2.897514 1_555
O45 Te11 1.881187 1_555
O45 Sr12 2.495315 1_555
O45 Sr2 2.722423 1_555
O46 Te21 1.897921 1_555
O46 Sr11 2.756928 1_455
O46 Sr19 2.835171 1_455
O46 Sr13 2.857140 1_555
O47 Te13 1.897684 1_554
O47 Sr1 2.538716 1_655
O47 Sr6 2.615947 1_555
O47 Sr9 2.619595 1_655
O48 Te19 1.888933 1_455
O48 Sr12 2.578808 1_554
O48 Sr2 2.638888 1_454
O49 Te4 1.886361 1_556
O49 Sr23 2.509624 1_555
O49 Sr2 2.652733 1_555
O49 Sr5 3.186960 1_555
O50 Te23 1.904644 1_555
O50 Sr8 2.522980 1_445
O50 Sr22 2.687173 1_555
O50 Sr20 2.764797 1_555
O51 Te20 1.897428 1_555
O51 Sr20 2.731109 1_655
O51 Sr7 2.849123 1_555
O51 Sr4 2.872880 1_655
O52 Te5 1.896488 1_555
O52 Sr11 2.747962 1_455
O52 Sr15 2.878660 1_555
O52 Sr21 2.884331 1_565
O53 Te2 1.886712 1_555
O53 Sr17 2.535535 1_655
O53 Sr14 2.659952 1_655
O53 Sr3 3.067280 1_555
O54 Te17 1.915346 1_555
O54 Sr19 2.495540 1_455
O54 Sr13 2.594761 1_555
O54 Sr3 2.956867 1_455
O55 Te11 1.901541 1_555
O55 Sr2 2.623270 1_455
O55 Sr19 2.902140 1_455
O55 Sr5 3.080580 1_555
O56 Te2 1.886706 1_555
O56 Sr0 2.449228 1_555
O56 Sr17 2.943787 1_555
O57 Te15 1.864459 1_555
O57 Sr11 2.461317 1_555
O57 Sr13 2.651968 1_655
O58 Te5 1.905904 1_555
O58 Sr21 2.536015 1_665
O58 Sr15 2.665840 1_555
O58 Sr11 2.792107 1_555
O59 Te6 1.887567 1_555
O59 Sr17 2.435790 1_555
O59 Sr0 2.979185 1_555
O60 Te18 1.883721 1_555
O60 Sr12 2.509550 1_554
O60 Sr9 2.703276 1_555
O61 Te22 1.887546 1_555
O61 Sr8 2.708696 1_455
O61 Sr16 3.064348 1_455
O61 Sr10 3.070573 1_555
O62 Te5 1.881300 1_555
O62 Sr13 2.488982 1_555
O62 Sr11 2.746872 1_555
O63 Te20 1.905404 1_555
O63 Sr4 2.537496 1_555
O63 Sr7 2.654079 1_555
O63 Sr20 2.825829 1_555
O64 Te21 1.877950 1_555
O64 Sr15 2.476296 1_555
O64 Sr11 2.766520 1_555
O65 Te10 1.884976 1_655
O65 Sr23 2.489008 1_565
O65 Sr15 2.617085 1_555
O65 Sr5 2.873984 1_665
O66 Te23 1.895668 1_555
O66 Sr20 2.772262 1_655
O66 Sr8 2.840892 1_545
O66 Sr22 2.849204 1_555
O67 Te12 1.897822 1_555
O67 Sr2 2.619087 1_555
O67 Sr5 2.652300 1_555
O67 Sr23 2.844451 1_555
O68 Te8 1.915153 1_555
O68 Sr8 2.496370 1_555
O68 Sr22 2.640664 1_565
O68 Sr6 2.873818 1_555
O69 Te16 1.897543 1_555
O69 Sr14 2.618307 1_555
O69 Sr21 2.849820 1_555
O69 Sr3 3.132281 1_555
O70 Te9 1.892246 1_555
O70 Sr18 2.588283 1_555
O70 Sr14 2.628511 1_555
O71 Te13 1.885997 1_554
O71 Sr1 2.525595 1_555
O71 Sr9 2.659089 1_555
O71 Sr6 3.131776 1_555
