# generated using pymatgen
data_U2(Al3Co)3
_symmetry_space_group_name_H-M   'P 1'
_cell_length_a   7.43769942
_cell_length_b   7.43769942
_cell_length_c   9.19891900
_cell_angle_alpha   90.00000000
_cell_angle_beta   90.00000000
_cell_angle_gamma   119.24765260
_symmetry_Int_Tables_number   1
_chemical_formula_structural   U2(Al3Co)3
_chemical_formula_sum   'U4 Al18 Co6'
_cell_volume   444.00458372
_cell_formula_units_Z   2
loop_
 _symmetry_equiv_pos_site_id
 _symmetry_equiv_pos_as_xyz
  1  'x, y, z'
loop_
 _atom_site_type_symbol
 _atom_site_label
 _atom_site_symmetry_multiplicity
 _atom_site_fract_x
 _atom_site_fract_y
 _atom_site_fract_z
 _atom_site_occupancy
  U  U0  1  0.67411300  0.99486900  0.25000000  1
  U  U1  1  0.32588700  0.00513100  0.75000000  1
  U  U2  1  0.99486900  0.67411300  0.25000000  1
  U  U3  1  0.00513100  0.32588700  0.75000000  1
  Al  Al0  1  0.33323300  0.33323300  0.95242800  1
  Al  Al1  1  0.33635500  0.99959100  0.42719900  1
  Al  Al2  1  0.00040900  0.66364500  0.92719900  1
  Al  Al3  1  0.44324200  0.65904500  0.75000000  1
  Al  Al4  1  0.66364500  0.00040900  0.57280100  1
  Al  Al5  1  0.55675800  0.34095500  0.25000000  1
  Al  Al6  1  0.66676700  0.66676700  0.04757200  1
  Al  Al7  1  0.33635500  0.99959100  0.07280100  1
  Al  Al8  1  0.99959100  0.33635500  0.42719900  1
  Al  Al9  1  0.00040900  0.66364500  0.57280100  1
  Al  Al10  1  0.66364500  0.00040900  0.92719900  1
  Al  Al11  1  0.12630100  0.12630100  0.25000000  1
  Al  Al12  1  0.34095500  0.55675800  0.25000000  1
  Al  Al13  1  0.99959100  0.33635500  0.07280100  1
  Al  Al14  1  0.33323300  0.33323300  0.54757200  1
  Al  Al15  1  0.66676700  0.66676700  0.45242800  1
  Al  Al16  1  0.65904500  0.44324200  0.75000000  1
  Al  Al17  1  0.87369900  0.87369900  0.75000000  1
  Co  Co0  1  0.32668500  0.67331500  0.50000000  1
  Co  Co1  1  0.32668500  0.67331500  0.00000000  1
  Co  Co2  1  0.00000000  0.00000000  0.00000000  1
  Co  Co3  1  0.67331500  0.32668500  0.00000000  1
  Co  Co4  1  0.67331500  0.32668500  0.50000000  1
  Co  Co5  1  0.00000000  0.00000000  0.50000000  1
loop_
_geom_bond_atom_site_label_1
_geom_bond_atom_site_label_2
_geom_bond_distance
_geom_bond_site_symmetry_2
Al0 Co2 2.544531 1_556
Al0 Co3 2.590802 1_556
Al0 Co1 2.590802 1_556
Al0 U3 3.048830 1_555
Al0 U1 3.048830 1_555
Al1 Co0 2.484388 1_555
Al1 Co4 2.586548 1_565
Al1 Co5 2.591230 1_565
Al1 U1 2.971254 1_565
Al1 U2 2.993344 1_455
Al1 U0 3.009208 1_555
Al2 Co1 2.484388 1_556
Al2 Co3 2.586548 1_456
Al2 Co2 2.591230 1_566
Al2 U2 2.971254 1_456
Al2 U1 2.993344 1_565
Al2 U3 3.009208 1_555
Al3 Co1 2.478200 1_556
Al3 Co0 2.478200 1_555
Al3 U3 2.977937 1_555
Al3 U1 3.095687 1_565
Al4 Co4 2.484388 1_555
Al4 Co0 2.586548 1_545
Al4 Co5 2.591230 1_655
Al4 U0 2.971254 1_545
Al4 U3 2.993344 1_655
Al4 U1 3.009208 1_555
Al5 Co4 2.478200 1_555
Al5 Co3 2.478200 1_555
Al5 U2 2.977937 1_555
Al5 U0 3.095687 1_545
Al6 Co2 2.544531 1_665
Al6 Co3 2.590802 1_555
Al6 Co1 2.590802 1_555
Al6 U0 3.048830 1_555
Al6 U2 3.048830 1_555
Al7 Co1 2.484388 1_555
Al7 Co3 2.586548 1_565
Al7 Co2 2.591230 1_565
Al7 U1 2.971254 1_564
Al7 U2 2.993344 1_455
Al7 U0 3.009208 1_555
Al8 Co4 2.484388 1_555
Al8 Co0 2.586548 1_655
Al8 Co5 2.591230 1_655
Al8 U3 2.971254 1_655
Al8 U0 2.993344 1_545
Al8 U2 3.009208 1_555
Al9 Co0 2.484388 1_555
Al9 Co4 2.586548 1_455
Al9 Co5 2.591230 1_565
Al9 U2 2.971254 1_455
Al9 U1 2.993344 1_565
Al9 U3 3.009208 1_555
Al10 Co3 2.484388 1_556
Al10 Co1 2.586548 1_546
Al10 Co2 2.591230 1_656
Al10 U0 2.971254 1_546
Al10 U3 2.993344 1_655
Al10 U1 3.009208 1_555
Al11 Co5 2.488243 1_555
Al11 Co2 2.488243 1_555
Al11 U2 3.009036 1_445
Al11 U0 3.009036 1_445
Al12 Co0 2.478200 1_555
Al12 Co1 2.478200 1_555
Al12 U0 2.977937 1_555
Al12 U2 3.095687 1_455
Al13 Co3 2.484388 1_555
Al13 Co1 2.586548 1_655
Al13 Co2 2.591230 1_655
Al13 U3 2.971254 1_654
Al13 U0 2.993344 1_545
Al13 U2 3.009208 1_555
Al14 Co5 2.544531 1_555
Al14 Co0 2.590802 1_555
Al14 Co4 2.590802 1_555
Al14 U1 3.048830 1_555
Al14 U3 3.048830 1_555
Al15 Co5 2.544531 1_665
Al15 Co0 2.590802 1_555
Al15 Co4 2.590802 1_555
Al15 U2 3.048830 1_555
Al15 U0 3.048830 1_555
Al16 Co3 2.478200 1_556
Al16 Co4 2.478200 1_555
Al16 U1 2.977937 1_555
Al16 U3 3.095687 1_655
Al17 Co2 2.488243 1_666
Al17 Co5 2.488243 1_665
Al17 U1 3.009036 1_665
Al17 U3 3.009036 1_665
