# generated using pymatgen
data_Ce5NiGe2
_symmetry_space_group_name_H-M   'P 1'
_cell_length_a   11.44441900
_cell_length_b   11.44441900
_cell_length_c   6.11573100
_cell_angle_alpha   90.00000000
_cell_angle_beta   90.00000000
_cell_angle_gamma   90.00000000
_symmetry_Int_Tables_number   1
_chemical_formula_structural   Ce5NiGe2
_chemical_formula_sum   'Ce20 Ni4 Ge8'
_cell_volume   801.00619353
_cell_formula_units_Z   4
loop_
 _symmetry_equiv_pos_site_id
 _symmetry_equiv_pos_as_xyz
  1  'x, y, z'
loop_
 _atom_site_type_symbol
 _atom_site_label
 _atom_site_symmetry_multiplicity
 _atom_site_fract_x
 _atom_site_fract_y
 _atom_site_fract_z
 _atom_site_occupancy
  Ce  Ce0  1  0.57956800  0.21164400  0.17035800  1
  Ce  Ce1  1  0.28835600  0.07956800  0.17035800  1
  Ce  Ce2  1  0.57956800  0.78835600  0.67035800  1
  Ce  Ce3  1  0.42043200  0.78835600  0.17035800  1
  Ce  Ce4  1  0.92043200  0.28835600  0.82964200  1
  Ce  Ce5  1  0.21164400  0.42043200  0.82964200  1
  Ce  Ce6  1  0.07956800  0.71164400  0.82964200  1
  Ce  Ce7  1  0.21164400  0.57956800  0.32964200  1
  Ce  Ce8  1  0.00000000  0.00000000  0.50000000  1
  Ce  Ce9  1  0.71164400  0.07956800  0.67035800  1
  Ce  Ce10  1  0.50000000  0.50000000  0.50000000  1
  Ce  Ce11  1  0.71164400  0.92043200  0.17035800  1
  Ce  Ce12  1  0.28835600  0.92043200  0.67035800  1
  Ce  Ce13  1  0.07956800  0.28835600  0.32964200  1
  Ce  Ce14  1  0.78835600  0.42043200  0.32964200  1
  Ce  Ce15  1  0.78835600  0.57956800  0.82964200  1
  Ce  Ce16  1  0.42043200  0.21164400  0.67035800  1
  Ce  Ce17  1  0.50000000  0.50000000  0.00000000  1
  Ce  Ce18  1  0.92043200  0.71164400  0.32964200  1
  Ce  Ce19  1  0.00000000  0.00000000  0.00000000  1
  Ni  Ni0  1  0.50000000  0.00000000  0.92954700  1
  Ni  Ni1  1  0.00000000  0.50000000  0.57045300  1
  Ni  Ni2  1  0.50000000  0.00000000  0.42954700  1
  Ni  Ni3  1  0.00000000  0.50000000  0.07045300  1
  Ge  Ge0  1  0.16311200  0.83688800  0.25000000  1
  Ge  Ge1  1  0.16311200  0.16311200  0.75000000  1
  Ge  Ge2  1  0.33688800  0.66311200  0.75000000  1
  Ge  Ge3  1  0.33688800  0.33688800  0.25000000  1
  Ge  Ge4  1  0.66311200  0.33688800  0.75000000  1
  Ge  Ge5  1  0.83688800  0.83688800  0.75000000  1
  Ge  Ge6  1  0.83688800  0.16311200  0.25000000  1
  Ge  Ge7  1  0.66311200  0.66311200  0.25000000  1
loop_
_geom_bond_atom_site_label_1
_geom_bond_atom_site_label_2
_geom_bond_distance
_geom_bond_site_symmetry_2
Ce0 Ni0 2.977404 1_554
Ce0 Ni2 3.034571 1_555
Ce0 Ge6 3.036122 1_555
Ce0 Ge4 3.094773 1_554
Ce0 Ge3 3.163113 1_555
Ce1 Ni0 2.977404 1_554
Ce1 Ni2 3.034571 1_555
Ce1 Ge3 3.036122 1_555
Ce1 Ge1 3.094773 1_554
Ce1 Ge0 3.163113 1_545
Ce2 Ni2 2.977404 1_565
Ce2 Ni0 3.034571 1_565
Ce2 Ge5 3.036122 1_555
Ce2 Ge7 3.094773 1_555
Ce2 Ge2 3.163113 1_555
Ce3 Ni0 2.977404 1_564
Ce3 Ni2 3.034571 1_565
Ce3 Ge0 3.036122 1_555
Ce3 Ge2 3.094773 1_554
Ce3 Ge7 3.163113 1_555
Ce4 Ni3 2.977404 1_656
Ce4 Ni1 3.034571 1_655
Ce4 Ge4 3.036122 1_555
Ce4 Ge6 3.094773 1_556
Ce4 Ge1 3.163113 1_655
Ce5 Ni3 2.977404 1_556
Ce5 Ni1 3.034571 1_555
Ce5 Ge1 3.036122 1_555
Ce5 Ge3 3.094773 1_556
Ce5 Ge2 3.163113 1_555
Ce6 Ni3 2.977404 1_556
Ce6 Ni1 3.034571 1_555
Ce6 Ge2 3.036122 1_555
Ce6 Ge0 3.094773 1_556
Ce6 Ge5 3.163113 1_455
Ce7 Ni1 2.977404 1_555
Ce7 Ni3 3.034571 1_555
Ce7 Ge0 3.036122 1_555
Ce7 Ge2 3.094773 1_555
Ce7 Ge3 3.163113 1_555
Ce8 Ge1 3.050727 1_555
Ce8 Ge5 3.050727 1_445
Ce8 Ge0 3.050727 1_545
Ce8 Ge6 3.050727 1_455
Ce9 Ni2 2.977404 1_555
Ce9 Ni0 3.034571 1_555
Ce9 Ge4 3.036122 1_555
Ce9 Ge6 3.094773 1_555
Ce9 Ge5 3.163113 1_545
Ce10 Ge3 3.050727 1_555
Ce10 Ge2 3.050727 1_555
Ce10 Ge4 3.050727 1_555
Ce10 Ge7 3.050727 1_555
Ce11 Ni0 2.977404 1_564
Ce11 Ni2 3.034571 1_565
Ce11 Ge7 3.036122 1_555
Ce11 Ge5 3.094773 1_554
Ce11 Ge6 3.163113 1_565
Ce12 Ni2 2.977404 1_565
Ce12 Ni0 3.034571 1_565
Ce12 Ge2 3.036122 1_555
Ce12 Ge0 3.094773 1_555
Ce12 Ge1 3.163113 1_565
Ce13 Ni1 2.977404 1_555
Ce13 Ni3 3.034571 1_555
Ce13 Ge3 3.036122 1_555
Ce13 Ge1 3.094773 1_555
Ce13 Ge6 3.163113 1_455
Ce14 Ni1 2.977404 1_655
Ce14 Ni3 3.034571 1_655
Ce14 Ge6 3.036122 1_555
Ce14 Ge4 3.094773 1_555
Ce14 Ge7 3.163113 1_555
Ce15 Ni3 2.977404 1_656
Ce15 Ni1 3.034571 1_655
Ce15 Ge5 3.036122 1_555
Ce15 Ge7 3.094773 1_556
Ce15 Ge4 3.163113 1_555
Ce16 Ni2 2.977404 1_555
Ce16 Ni0 3.034571 1_555
Ce16 Ge1 3.036122 1_555
Ce16 Ge3 3.094773 1_555
Ce16 Ge4 3.163113 1_555
Ce17 Ge3 3.050727 1_555
Ce17 Ge2 3.050727 1_554
Ce17 Ge4 3.050727 1_554
Ce17 Ge7 3.050727 1_555
Ce18 Ni1 2.977404 1_655
Ce18 Ni3 3.034571 1_655
Ce18 Ge7 3.036122 1_555
Ce18 Ge5 3.094773 1_555
Ce18 Ge0 3.163113 1_655
Ce19 Ge5 3.050727 1_444
Ce19 Ge0 3.050727 1_545
Ce19 Ge1 3.050727 1_554
Ce19 Ge6 3.050727 1_455
