# generated using pymatgen
data_BaYbAl2SiN5O2
_symmetry_space_group_name_H-M   'P 1'
_cell_length_a   6.55192955
_cell_length_b   6.55192955
_cell_length_c   8.92239831
_cell_angle_alpha   84.98767608
_cell_angle_beta   84.98767608
_cell_angle_gamma   122.33698424
_symmetry_Int_Tables_number   1
_chemical_formula_structural   BaYbAl2SiN5O2
_chemical_formula_sum   'Ba2 Yb2 Al4 Si2 N10 O4'
_cell_volume   318.26322442
_cell_formula_units_Z   2
loop_
 _symmetry_equiv_pos_site_id
 _symmetry_equiv_pos_as_xyz
  1  'x, y, z'
loop_
 _atom_site_type_symbol
 _atom_site_label
 _atom_site_symmetry_multiplicity
 _atom_site_fract_x
 _atom_site_fract_y
 _atom_site_fract_z
 _atom_site_occupancy
  Ba  Ba0  1  0.66789800  0.39738000  0.82021900  1
  Ba  Ba1  1  0.39738000  0.66789800  0.32021900  1
  Yb  Yb0  1  0.71158400  0.29007700  0.20691600  1
  Yb  Yb1  1  0.29007700  0.71158400  0.70691600  1
  Al  Al0  1  0.34860900  0.16488000  0.52543900  1
  Al  Al1  1  0.80132300  0.14156600  0.56689500  1
  Al  Al2  1  0.16488000  0.34860900  0.02543900  1
  Al  Al3  1  0.14156600  0.80132300  0.06689500  1
  Si  Si0  1  0.87130200  0.63508500  0.45639200  1
  Si  Si1  1  0.63508500  0.87130200  0.95639200  1
  N  N0  1  0.99817800  0.00770500  0.96509600  1
  N  N1  1  0.48923200  0.98940200  0.05228500  1
  N  N2  1  0.49587000  0.56401600  0.00854400  1
  N  N3  1  0.02519800  0.51934600  0.98456600  1
  N  N4  1  0.98940200  0.48923200  0.55228500  1
  N  N5  1  0.01446200  0.91380900  0.83165800  1
  N  N6  1  0.56401600  0.49587000  0.50854400  1
  N  N7  1  0.00770500  0.99817800  0.46509600  1
  N  N8  1  0.51934600  0.02519800  0.48456600  1
  N  N9  1  0.91380900  0.01446200  0.33165800  1
  O  O0  1  0.24064300  0.05447700  0.73721600  1
  O  O1  1  0.67860400  0.97933900  0.76627300  1
  O  O2  1  0.05447700  0.24064300  0.23721600  1
  O  O3  1  0.97933900  0.67860400  0.26627300  1
loop_
_geom_bond_atom_site_label_1
_geom_bond_atom_site_label_2
_geom_bond_distance
_geom_bond_site_symmetry_2
Ba0 N2 2.567473 1_556
Ba0 N3 2.659404 1_655
Ba0 O0 2.712411 1_555
Ba0 N4 2.833181 1_555
Ba0 N1 2.839830 1_546
Ba0 O1 2.858074 1_545
Ba0 N5 2.914908 1_655
Ba0 N6 3.016627 1_555
Ba1 N6 2.567473 1_555
Ba1 N8 2.659404 1_565
Ba1 O2 2.712411 1_555
Ba1 N1 2.833181 1_555
Ba1 N4 2.839830 1_455
Ba1 O3 2.858074 1_455
Ba1 N9 2.914908 1_565
Ba1 N2 3.016627 1_555
Al0 N8 1.817752 1_555
Al0 N6 1.830011 1_555
Al0 O0 1.890571 1_555
Al0 N7 2.043223 1_545
Al1 N8 1.833640 1_555
Al1 O1 1.856402 1_545
Al1 N4 1.908244 1_555
Al1 N7 2.197623 1_645
Al2 N3 1.817752 1_554
Al2 N2 1.830011 1_555
Al2 O2 1.890571 1_555
Al2 N0 2.043223 1_454
Al3 N3 1.833640 1_554
Al3 O3 1.856402 1_455
Al3 N1 1.908244 1_555
Al3 N0 2.197623 1_464
N0 N5 1.408319 1_645
N0 Si1 2.057698 1_545
N1 Si1 1.734317 1_554
N1 Yb0 2.379636 1_565
N2 Si1 1.702792 1_554
N3 Yb0 2.424732 1_456
N3 Yb1 2.664653 1_555
N4 Si0 1.734317 1_555
N4 Yb1 2.379636 1_655
N5 O0 1.393031 1_565
N6 Si0 1.702792 1_555
N7 N9 1.408319 1_465
N7 Si0 2.057698 1_455
N8 Yb1 2.424732 1_545
N8 Yb0 2.664653 1_555
N9 O2 1.393031 1_655
O0 Yb1 2.468708 1_545
O1 Si1 1.717438 1_555
O1 Yb1 2.336373 1_555
O2 Yb0 2.468708 1_455
O3 Si0 1.717438 1_555
O3 Yb0 2.336373 1_555
