# generated using pymatgen
data_LiSn2P3O10
_symmetry_space_group_name_H-M   'P 1'
_cell_length_a   9.21871700
_cell_length_b   5.07929600
_cell_length_c   10.05103779
_cell_angle_alpha   85.36606560
_cell_angle_beta   90.00000000
_cell_angle_gamma   90.00000000
_symmetry_Int_Tables_number   1
_chemical_formula_structural   LiSn2P3O10
_chemical_formula_sum   'Li2 Sn4 P6 O20'
_cell_volume   469.09733540
_cell_formula_units_Z   2
loop_
 _symmetry_equiv_pos_site_id
 _symmetry_equiv_pos_as_xyz
  1  'x, y, z'
loop_
 _atom_site_type_symbol
 _atom_site_label
 _atom_site_symmetry_multiplicity
 _atom_site_fract_x
 _atom_site_fract_y
 _atom_site_fract_z
 _atom_site_occupancy
  Li  Li0  1  0.00000000  0.00000000  0.00000000  1
  Li  Li1  1  0.50000000  0.00000000  0.00000000  1
  Sn  Sn0  1  0.44213900  0.02738400  0.67361700  1
  Sn  Sn1  1  0.55786100  0.97261600  0.32638300  1
  Sn  Sn2  1  0.94213900  0.97261600  0.32638300  1
  Sn  Sn3  1  0.05786100  0.02738400  0.67361700  1
  P  P0  1  0.75000000  0.70806200  0.83695700  1
  P  P1  1  0.75000000  0.44070500  0.56779300  1
  P  P2  1  0.25000000  0.55929500  0.43220700  1
  P  P3  1  0.75000000  0.58238500  0.12368700  1
  P  P4  1  0.25000000  0.29193800  0.16304300  1
  P  P5  1  0.25000000  0.41761500  0.87631300  1
  O  O0  1  0.11105000  0.72136600  0.44413700  1
  O  O1  1  0.11091300  0.24984700  0.86210000  1
  O  O2  1  0.38895000  0.72136600  0.44413700  1
  O  O3  1  0.25000000  0.49535900  0.03262200  1
  O  O4  1  0.75000000  0.50464100  0.96737800  1
  O  O5  1  0.61105000  0.27863400  0.55586300  1
  O  O6  1  0.88895000  0.27863400  0.55586300  1
  O  O7  1  0.75000000  0.31925000  0.20404000  1
  O  O8  1  0.38912700  0.13020100  0.16374400  1
  O  O9  1  0.25000000  0.49493400  0.27243500  1
  O  O10  1  0.38908700  0.24984700  0.86210000  1
  O  O11  1  0.88912700  0.86979900  0.83625600  1
  O  O12  1  0.75000000  0.70153800  0.48240300  1
  O  O13  1  0.25000000  0.29846200  0.51759700  1
  O  O14  1  0.61091300  0.75015300  0.13790000  1
  O  O15  1  0.25000000  0.68075000  0.79596000  1
  O  O16  1  0.61087300  0.86979900  0.83625600  1
  O  O17  1  0.11087300  0.13020100  0.16374400  1
  O  O18  1  0.75000000  0.50506600  0.72756500  1
  O  O19  1  0.88908700  0.75015300  0.13790000  1
loop_
_geom_bond_atom_site_label_1
_geom_bond_atom_site_label_2
_geom_bond_distance
_geom_bond_site_symmetry_2
Li0 O1 2.071915 1_554
Li0 O19 2.071915 1_445
Li0 O17 2.089634 1_555
Li0 O11 2.089634 1_444
Li1 O14 2.071915 1_545
Li1 O10 2.071915 1_554
Li1 O8 2.089634 1_555
Li1 O16 2.089634 1_544
O0 P2 1.532581 1_555
O0 Sn2 2.282554 1_455
O1 P5 1.552505 1_555
O1 Sn3 2.334697 1_555
O2 P2 1.532581 1_555
O2 Sn1 2.282554 1_555
O3 P4 1.602217 1_555
O3 P5 1.650585 1_554
O4 P0 1.602217 1_555
O4 P3 1.650585 1_556
O5 P1 1.532581 1_555
O5 Sn0 2.282554 1_555
O6 P1 1.532581 1_555
O6 Sn3 2.282554 1_655
O7 P3 1.504724 1_555
O7 Sn2 2.720221 1_545
O7 Sn1 2.720221 1_545
O8 P4 1.522821 1_555
O8 Sn1 2.349699 1_545
O9 P4 1.566909 1_555
O9 P2 1.664490 1_555
O10 P5 1.552505 1_555
O10 Sn0 2.334697 1_555
O11 P0 1.522821 1_555
O11 Sn3 2.349699 1_665
O12 P1 1.519245 1_555
O12 Sn2 2.672730 1_555
O12 Sn1 2.672730 1_555
O13 P2 1.519245 1_555
O13 Sn0 2.672730 1_555
O13 Sn3 2.672730 1_555
O14 P3 1.552505 1_555
O14 Sn1 2.334697 1_555
O15 P5 1.504724 1_555
O15 Sn0 2.720221 1_565
O15 Sn3 2.720221 1_565
O16 P0 1.522821 1_555
O16 Sn0 2.349699 1_565
O17 P4 1.522821 1_555
O17 Sn2 2.349699 1_445
O18 P0 1.566909 1_555
O18 P1 1.664490 1_555
O19 P3 1.552505 1_555
O19 Sn2 2.334697 1_555
