# generated using pymatgen
data_Ba3HoUFeO9
_symmetry_space_group_name_H-M   'P 1'
_cell_length_a   5.99373631
_cell_length_b   5.99373631
_cell_length_c   17.32650500
_cell_angle_alpha   90.00000000
_cell_angle_beta   90.00000000
_cell_angle_gamma   120.00000345
_symmetry_Int_Tables_number   1
_chemical_formula_structural   Ba3HoUFeO9
_chemical_formula_sum   'Ba6 Ho2 U2 Fe2 O18'
_cell_volume   539.05968141
_cell_formula_units_Z   2
loop_
 _symmetry_equiv_pos_site_id
 _symmetry_equiv_pos_as_xyz
  1  'x, y, z'
loop_
 _atom_site_type_symbol
 _atom_site_label
 _atom_site_symmetry_multiplicity
 _atom_site_fract_x
 _atom_site_fract_y
 _atom_site_fract_z
 _atom_site_occupancy
  Ba  Ba0  1  0.66666700  0.33333300  0.05184600  1
  Ba  Ba1  1  0.33333300  0.66666700  0.44611500  1
  Ba  Ba2  1  0.33333300  0.66666700  0.18190500  1
  Ba  Ba3  1  0.00000000  0.00000000  0.30414200  1
  Ba  Ba4  1  0.66666700  0.33333300  0.81532800  1
  Ba  Ba5  1  0.33333300  0.66666700  0.94462400  1
  Ho  Ho0  1  0.00000000  0.00000000  0.65803700  1
  Ho  Ho1  1  0.66666700  0.33333300  0.61486600  1
  U  U0  1  0.00000000  0.00000000  0.99877900  1
  U  U1  1  0.66666700  0.33333300  0.36230300  1
  Fe  Fe0  1  0.33333300  0.66666700  0.64576400  1
  Fe  Fe1  1  0.00000000  0.00000000  0.49749100  1
  O  O0  1  0.16515400  0.83484600  0.06764000  1
  O  O1  1  0.98971000  0.49485500  0.29533900  1
  O  O2  1  0.50514500  0.01029000  0.29533900  1
  O  O3  1  0.16515400  0.33030800  0.06764000  1
  O  O4  1  0.69174000  0.84587000  0.57351700  1
  O  O5  1  0.83872000  0.16128000  0.43098700  1
  O  O6  1  0.66969200  0.83484600  0.06764000  1
  O  O7  1  0.50514500  0.49485500  0.29533900  1
  O  O8  1  0.15413000  0.30826000  0.57351700  1
  O  O9  1  0.83872000  0.67744100  0.43098700  1
  O  O10  1  0.33041600  0.16520800  0.93058700  1
  O  O11  1  0.50482800  0.49517200  0.69486200  1
  O  O12  1  0.15413000  0.84587000  0.57351700  1
  O  O13  1  0.32255900  0.16128000  0.43098700  1
  O  O14  1  0.83479200  0.66958400  0.93058700  1
  O  O15  1  0.50482800  0.00965600  0.69486200  1
  O  O16  1  0.83479200  0.16520800  0.93058700  1
  O  O17  1  0.99034400  0.49517200  0.69486200  1
loop_
_geom_bond_atom_site_label_1
_geom_bond_atom_site_label_2
_geom_bond_distance
_geom_bond_site_symmetry_2
Ba0 O16 2.731399 1_554
Ba0 O14 2.731402 1_554
Ba0 O10 2.731402 1_554
Ba0 O3 3.009374 1_655
Ba0 O6 3.009374 1_545
Ba0 O0 3.009377 1_655
Ba0 O0 3.009377 1_545
Ba0 O3 3.009380 1_555
Ba0 O6 3.009380 1_555
Ba1 O12 2.886832 1_555
Ba1 O8 2.886835 1_555
Ba1 O4 2.886835 1_555
Ba1 O5 3.008829 1_455
Ba1 O5 3.008829 1_565
Ba1 O13 3.008829 1_555
Ba1 O9 3.008829 1_555
Ba1 O9 3.008829 1_455
Ba1 O13 3.008829 1_565
Ba1 O1 3.163252 1_455
Ba1 O2 3.163252 1_565
Ba1 O7 3.163255 1_555
Ba2 O0 2.639692 1_555
Ba2 O6 2.639696 1_555
Ba2 O3 2.639696 1_555
Ba2 O1 2.654105 1_455
Ba2 O2 2.654105 1_565
Ba2 O7 2.654109 1_555
Ba3 O13 2.762892 1_555
Ba3 O9 2.762892 1_445
Ba3 O5 2.762895 1_455
Ba3 O7 3.001222 1_555
Ba3 O7 3.001222 1_445
Ba3 O1 3.001222 1_445
Ba3 O2 3.001222 1_555
Ba3 O1 3.001222 1_455
Ba3 O2 3.001222 1_455
Ba4 O16 2.652265 1_555
Ba4 O14 2.652269 1_555
Ba4 O10 2.652269 1_555
Ba4 O15 2.679446 1_555
Ba4 O17 2.679446 1_555
Ba4 O11 2.679450 1_555
Ba5 O0 2.755239 1_556
Ba5 O3 2.755242 1_556
Ba5 O6 2.755242 1_556
Ba5 O10 3.006756 1_565
Ba5 O14 3.006756 1_455
Ba5 O16 3.006759 1_455
Ba5 O16 3.006759 1_565
Ba5 O14 3.006762 1_555
Ba5 O10 3.006762 1_555
Ho0 O8 2.169072 1_555
Ho0 O4 2.169072 1_445
Ho0 O12 2.169072 1_545
Ho0 O11 3.064447 1_555
Ho0 O11 3.064447 1_445
Ho0 O15 3.064447 1_555
Ho0 O17 3.064447 1_445
Ho0 O17 3.064447 1_455
Ho0 O15 3.064447 1_455
Ho1 O17 2.178058 1_555
Ho1 O15 2.178058 1_555
Ho1 O11 2.178062 1_555
Ho1 O4 3.084058 1_545
Ho1 O8 3.084058 1_655
Ho1 O12 3.084061 1_545
Ho1 O12 3.084061 1_655
Ho1 O8 3.084064 1_555
Ho1 O4 3.084064 1_555
Fe0 O17 1.973164 1_455
Fe0 O15 1.973164 1_565
Fe0 O11 1.973169 1_555
Fe0 O12 2.242324 1_555
Fe0 O8 2.242328 1_555
Fe0 O4 2.242328 1_555
Fe1 O13 2.032508 1_555
Fe1 O9 2.032508 1_445
Fe1 O5 2.032512 1_455
Fe1 O4 2.072556 1_445
Fe1 O8 2.072556 1_555
Fe1 O12 2.072556 1_545
O0 U0 2.088823 1_564
O1 U1 2.039102 1_555
O2 U1 2.039102 1_555
O3 U0 2.088823 1_554
O5 U1 2.146299 1_555
O6 U0 2.088823 1_664
O7 U1 2.039107 1_555
O9 U1 2.146307 1_555
O10 U0 2.082685 1_555
O13 U1 2.146307 1_555
O14 U0 2.082685 1_665
O16 U0 2.082685 1_655
