# generated using pymatgen
data_Na7In4P9O32
_symmetry_space_group_name_H-M   'P 1'
_cell_length_a   14.49174800
_cell_length_b   14.49174800
_cell_length_c   6.70941300
_cell_angle_alpha   90.00000000
_cell_angle_beta   90.00000000
_cell_angle_gamma   90.00000000
_symmetry_Int_Tables_number   1
_chemical_formula_structural   Na7In4P9O32
_chemical_formula_sum   'Na14 In8 P18 O64'
_cell_volume   1409.04892392
_cell_formula_units_Z   2
loop_
 _symmetry_equiv_pos_site_id
 _symmetry_equiv_pos_as_xyz
  1  'x, y, z'
loop_
 _atom_site_type_symbol
 _atom_site_label
 _atom_site_symmetry_multiplicity
 _atom_site_fract_x
 _atom_site_fract_y
 _atom_site_fract_z
 _atom_site_occupancy
  Na  Na0  1  0.59084400  0.75900700  0.63584600  1
  Na  Na1  1  0.40915600  0.24099300  0.63584600  1
  Na  Na2  1  0.24099300  0.59084400  0.36415400  1
  Na  Na3  1  0.75900700  0.40915600  0.36415400  1
  Na  Na4  1  0.74099300  0.90915600  0.13584600  1
  Na  Na5  1  0.90915600  0.25900700  0.86415400  1
  Na  Na6  1  0.09084400  0.74099300  0.86415400  1
  Na  Na7  1  0.25900700  0.09084400  0.13584600  1
  Na  Na8  1  0.00000000  0.50000000  0.13356400  1
  Na  Na9  1  0.50000000  0.00000000  0.86643600  1
  Na  Na10  1  0.50000000  0.00000000  0.36643600  1
  Na  Na11  1  0.00000000  0.50000000  0.63356400  1
  Na  Na12  1  0.00000000  0.00000000  0.00000000  1
  Na  Na13  1  0.50000000  0.50000000  0.50000000  1
  In  In0  1  0.87949800  0.80413500  0.61176700  1
  In  In1  1  0.12050200  0.19586500  0.61176700  1
  In  In2  1  0.19586500  0.87949800  0.38823300  1
  In  In3  1  0.80413500  0.12050200  0.38823300  1
  In  In4  1  0.69586500  0.62050200  0.11176700  1
  In  In5  1  0.62050200  0.30413500  0.88823300  1
  In  In6  1  0.37949800  0.69586500  0.88823300  1
  In  In7  1  0.30413500  0.37949800  0.11176700  1
  P  P0  1  0.74843500  0.60479400  0.62646100  1
  P  P1  1  0.25156500  0.39520600  0.62646100  1
  P  P2  1  0.39520600  0.74843500  0.37353900  1
  P  P3  1  0.60479400  0.25156500  0.37353900  1
  P  P4  1  0.89520600  0.75156500  0.12646100  1
  P  P5  1  0.75156500  0.10479400  0.87353900  1
  P  P6  1  0.24843500  0.89520600  0.87353900  1
  P  P7  1  0.10479400  0.24843500  0.12646100  1
  P  P8  1  0.80451800  0.44038200  0.87870100  1
  P  P9  1  0.19548200  0.55961800  0.87870100  1
  P  P10  1  0.55961800  0.80451800  0.12129900  1
  P  P11  1  0.44038200  0.19548200  0.12129900  1
  P  P12  1  0.05961800  0.69548200  0.37870100  1
  P  P13  1  0.69548200  0.94038200  0.62129900  1
  P  P14  1  0.30451800  0.05961800  0.62129900  1
  P  P15  1  0.94038200  0.30451800  0.37870100  1
  P  P16  1  0.00000000  0.00000000  0.50000000  1
  P  P17  1  0.50000000  0.50000000  0.00000000  1
  O  O0  1  0.83846900  0.65827300  0.60957400  1
  O  O1  1  0.16153100  0.34172700  0.60957400  1
  O  O2  1  0.34172700  0.83846900  0.39042600  1
  O  O3  1  0.65827300  0.16153100  0.39042600  1
  O  O4  1  0.84172700  0.66153100  0.10957400  1
  O  O5  1  0.66153100  0.15827300  0.89042600  1
  O  O6  1  0.33846900  0.84172700  0.89042600  1
  O  O7  1  0.15827300  0.33846900  0.10957400  1
  O  O8  1  0.69463600  0.59219900  0.43174400  1
  O  O9  1  0.30536400  0.40780100  0.43174400  1
  O  O10  1  0.40780100  0.69463600  0.56825600  1
  O  O11  1  0.59219900  0.30536400  0.56825600  1
  O  O12  1  0.90780100  0.80536400  0.93174400  1
  O  O13  1  0.80536400  0.09219900  0.06825600  1
  O  O14  1  0.19463600  0.90780100  0.06825600  1
  O  O15  1  0.09219900  0.19463600  0.93174400  1
  O  O16  1  0.68283800  0.63940000  0.78982900  1
  O  O17  1  0.31716200  0.36060000  0.78982900  1
  O  O18  1  0.36060000  0.68283800  0.21017100  1
  O  O19  1  0.63940000  0.31716200  0.21017100  1
  O  O20  1  0.86060000  0.81716200  0.28982900  1
  O  O21  1  0.81716200  0.13940000  0.71017100  1
  O  O22  1  0.18283800  0.86060000  0.71017100  1
  O  O23  1  0.13940000  0.18283800  0.28982900  1
  O  O24  1  0.77659500  0.49821900  0.67774200  1
  O  O25  1  0.76251100  0.34406500  0.83874600  1
  O  O26  1  0.22340500  0.50178100  0.67774200  1
  O  O27  1  0.49821900  0.22340500  0.32225800  1
  O  O28  1  0.00178100  0.72340500  0.17774200  1
  O  O29  1  0.72340500  0.99821900  0.82225800  1
  O  O30  1  0.27659500  0.00178100  0.82225800  1
  O  O31  1  0.99821900  0.27659500  0.17774200  1
  O  O32  1  0.75979600  0.48666000  0.05969700  1
  O  O33  1  0.24020400  0.51334000  0.05969700  1
  O  O34  1  0.51334000  0.75979600  0.94030300  1
  O  O35  1  0.48666000  0.24020400  0.94030300  1
  O  O36  1  0.01334000  0.74020400  0.55969700  1
  O  O37  1  0.74020400  0.98666000  0.44030300  1
  O  O38  1  0.25979600  0.01334000  0.44030300  1
  O  O39  1  0.98666000  0.25979600  0.55969700  1
  O  O40  1  0.43786700  0.44232300  0.14296900  1
  O  O41  1  0.44232300  0.56213300  0.85703100  1
  O  O42  1  0.55767700  0.43786700  0.85703100  1
  O  O43  1  0.56213300  0.55767700  0.14296900  1
  O  O44  1  0.93786700  0.05767700  0.35703100  1
  O  O45  1  0.06213300  0.94232300  0.35703100  1
  O  O46  1  0.05767700  0.06213300  0.64296900  1
  O  O47  1  0.94232300  0.93786700  0.64296900  1
  O  O48  1  0.93397600  0.40870200  0.38501400  1
  O  O49  1  0.40870200  0.06602400  0.61498600  1
  O  O50  1  0.59129800  0.93397600  0.61498600  1
  O  O51  1  0.06602400  0.59129800  0.38501400  1
  O  O52  1  0.43397600  0.09129800  0.11498600  1
  O  O53  1  0.56602400  0.90870200  0.11498600  1
  O  O54  1  0.09129800  0.56602400  0.88501400  1
  O  O55  1  0.90870200  0.43397600  0.88501400  1
  O  O56  1  0.84406500  0.26251100  0.33874600  1
  O  O57  1  0.26251100  0.15593500  0.66125400  1
  O  O58  1  0.73748900  0.84406500  0.66125400  1
  O  O59  1  0.15593500  0.73748900  0.33874600  1
  O  O60  1  0.34406500  0.23748900  0.16125400  1
  O  O61  1  0.65593500  0.76251100  0.16125400  1
  O  O62  1  0.23748900  0.65593500  0.83874600  1
  O  O63  1  0.50178100  0.77659500  0.32225800  1
loop_
_geom_bond_atom_site_label_1
_geom_bond_atom_site_label_2
_geom_bond_distance
_geom_bond_site_symmetry_2
Na0 O34 2.331175 1_555
Na0 O16 2.418480 1_555
Na0 O58 2.462659 1_555
Na0 O63 2.481450 1_555
Na0 O50 2.539475 1_555
Na0 O10 2.848195 1_555
Na1 O35 2.331175 1_555
Na1 O17 2.418480 1_555
Na1 O57 2.462659 1_555
Na1 O27 2.481450 1_555
Na1 O49 2.539475 1_555
Na1 O11 2.848195 1_555
Na2 O33 2.331175 1_555
Na2 O18 2.418480 1_555
Na2 O59 2.462659 1_555
Na2 O26 2.481450 1_555
Na2 O51 2.539475 1_555
Na2 O9 2.848195 1_555
Na3 O32 2.331175 1_555
Na3 O19 2.418480 1_555
Na3 O56 2.462659 1_555
Na3 O24 2.481450 1_555
Na3 O48 2.539475 1_555
Na3 O8 2.848195 1_555
Na4 O37 2.331175 1_555
Na4 O20 2.418480 1_555
Na4 O61 2.462659 1_555
Na4 O29 2.481450 1_554
Na4 O53 2.539475 1_555
Na4 O13 2.848195 1_565
Na5 O39 2.331175 1_555
Na5 O21 2.418480 1_555
Na5 O25 2.462659 1_555
Na5 O31 2.481450 1_556
Na5 O55 2.539475 1_555
Na5 O15 2.848195 1_655
Na6 O36 2.331175 1_555
Na6 O22 2.418480 1_555
Na6 O62 2.462659 1_555
Na6 O28 2.481450 1_556
Na6 O54 2.539475 1_555
Na6 O12 2.848195 1_455
Na7 O38 2.331175 1_555
Na7 O23 2.418480 1_555
Na7 O60 2.462659 1_555
Na7 O30 2.481450 1_554
Na7 O52 2.539475 1_555
Na7 O14 2.848195 1_545
Na8 O55 2.333871 1_454
Na8 O54 2.333871 1_554
Na8 O51 2.347813 1_555
Na8 O48 2.347813 1_455
Na9 O53 2.333871 1_546
Na9 O52 2.333871 1_556
Na9 O50 2.347813 1_545
Na9 O49 2.347813 1_555
Na10 O49 2.333871 1_555
Na10 O50 2.333871 1_545
Na10 O53 2.347813 1_545
Na10 O52 2.347813 1_555
Na11 O51 2.333871 1_555
Na11 O48 2.333871 1_455
Na11 O55 2.347813 1_455
Na11 O54 2.347813 1_555
Na12 O45 2.692145 1_545
Na12 O47 2.692145 1_444
Na12 O46 2.692145 1_554
Na12 O44 2.692145 1_455
Na13 O42 2.692145 1_555
Na13 O43 2.692145 1_555
Na13 O40 2.692145 1_555
Na13 O41 2.692145 1_555
In0 O47 2.151423 1_555
In0 O58 2.163395 1_555
In0 O36 2.177721 1_655
In0 O20 2.185476 1_555
In0 O12 2.185760 1_555
In0 O0 2.195877 1_555
In1 O46 2.151423 1_555
In1 O57 2.163395 1_555
In1 O39 2.177721 1_455
In1 O23 2.185476 1_555
In1 O15 2.185760 1_555
In1 O1 2.195877 1_555
In2 O45 2.151423 1_555
In2 O59 2.163395 1_555
In2 O38 2.177721 1_565
In2 O22 2.185476 1_555
In2 O14 2.185760 1_555
In2 O2 2.195877 1_555
In3 O44 2.151423 1_555
In3 O56 2.163395 1_555
In3 O37 2.177721 1_545
In3 O21 2.185476 1_555
In3 O13 2.185760 1_555
In3 O3 2.195877 1_555
In4 O43 2.151423 1_555
In4 O61 2.163395 1_555
In4 O32 2.177721 1_555
In4 O16 2.185476 1_554
In4 O8 2.185760 1_555
In4 O4 2.195877 1_555
In5 O42 2.151423 1_555
In5 O25 2.163395 1_555
In5 O35 2.177721 1_555
In5 O19 2.185476 1_556
In5 O11 2.185760 1_555
In5 O5 2.195877 1_555
In6 O41 2.151423 1_555
In6 O62 2.163395 1_555
In6 O34 2.177721 1_555
In6 O18 2.185476 1_556
In6 O10 2.185760 1_555
In6 O6 2.195877 1_555
In7 O40 2.151423 1_555
In7 O60 2.163395 1_555
In7 O33 2.177721 1_555
In7 O17 2.185476 1_554
In7 O9 2.185760 1_555
In7 O7 2.195877 1_555
O0 P0 1.521789 1_555
O1 P1 1.521789 1_555
O2 P2 1.521789 1_555
O3 P3 1.521789 1_555
O4 P4 1.521789 1_555
O5 P5 1.521789 1_555
O6 P6 1.521789 1_555
O7 P7 1.521789 1_555
O8 P0 1.532297 1_555
O9 P1 1.532297 1_555
O10 P2 1.532297 1_555
O11 P3 1.532297 1_555
O12 P4 1.532297 1_556
O13 P5 1.532297 1_554
O14 P6 1.532297 1_554
O15 P7 1.532297 1_556
O16 P0 1.535127 1_555
O17 P1 1.535127 1_555
O18 P2 1.535127 1_555
O19 P3 1.535127 1_555
O20 P4 1.535127 1_555
O21 P5 1.535127 1_555
O22 P6 1.535127 1_555
O23 P7 1.535127 1_555
O24 P0 1.634095 1_555
O24 P8 1.638357 1_555
O25 P8 1.546192 1_555
O26 P1 1.634095 1_555
O26 P9 1.638357 1_555
O27 P3 1.634095 1_555
O27 P11 1.638357 1_555
O28 P4 1.634095 1_455
O28 P12 1.638357 1_555
O29 P5 1.634095 1_565
O29 P13 1.638357 1_555
O30 P6 1.634095 1_545
O30 P14 1.638357 1_555
O31 P7 1.634095 1_655
O31 P15 1.638357 1_555
O32 P8 1.531181 1_554
O33 P9 1.531181 1_554
O34 P10 1.531181 1_556
O35 P11 1.531181 1_556
O36 P12 1.531181 1_555
O37 P13 1.531181 1_555
O38 P14 1.531181 1_555
O39 P15 1.531181 1_555
O40 P17 1.558690 1_555
O41 P17 1.558690 1_556
O42 P17 1.558690 1_556
O43 P17 1.558690 1_555
O44 P16 1.558690 1_655
O45 P16 1.558690 1_565
O46 P16 1.558690 1_555
O47 P16 1.558690 1_665
O48 P15 1.513253 1_555
O49 P14 1.513253 1_555
O50 P13 1.513253 1_555
O51 P12 1.513253 1_555
O52 P11 1.513253 1_555
O53 P10 1.513253 1_555
O54 P9 1.513253 1_555
O55 P8 1.513253 1_555
O56 P15 1.546192 1_555
O57 P14 1.546192 1_555
O58 P13 1.546192 1_555
O59 P12 1.546192 1_555
O60 P11 1.546192 1_555
O61 P10 1.546192 1_555
O62 P9 1.546192 1_555
O63 P2 1.634095 1_555
O63 P10 1.638357 1_555
