# generated using pymatgen
data_Rb5NO5
_symmetry_space_group_name_H-M   'P 1'
_cell_length_a   40.52563200
_cell_length_b   8.54540600
_cell_length_c   10.97278666
_cell_angle_alpha   78.30687729
_cell_angle_beta   90.00000000
_cell_angle_gamma   90.00000000
_symmetry_Int_Tables_number   1
_chemical_formula_structural   Rb5NO5
_chemical_formula_sum   'Rb40 N8 O40'
_cell_volume   3721.10347427
_cell_formula_units_Z   8
loop_
 _symmetry_equiv_pos_site_id
 _symmetry_equiv_pos_as_xyz
  1  'x, y, z'
loop_
 _atom_site_type_symbol
 _atom_site_label
 _atom_site_symmetry_multiplicity
 _atom_site_fract_x
 _atom_site_fract_y
 _atom_site_fract_z
 _atom_site_occupancy
  Rb  Rb0_0  1  0.11056900  0.01238900  0.00990600  1
  Rb  Rb0_1  1  0.11056900  0.01238900  0.50990600  1
  Rb  Rb0_2  1  0.11056900  0.51238900  0.00990600  1
  Rb  Rb0_3  1  0.11056900  0.51238900  0.50990600  1
  Rb  Rb0_4  1  0.61056900  0.01238900  0.00990600  1
  Rb  Rb0_5  1  0.61056900  0.01238900  0.50990600  1
  Rb  Rb0_6  1  0.61056900  0.51238900  0.00990600  1
  Rb  Rb0_7  1  0.61056900  0.51238900  0.50990600  1
  Rb  Rb1_0  1  0.00000000  0.49964750  0.49912600  1
  Rb  Rb1_1  1  0.00000000  0.49964750  0.99912600  1
  Rb  Rb1_2  1  0.00000000  0.99964750  0.49912600  1
  Rb  Rb1_3  1  0.00000000  0.99964750  0.99912600  1
  Rb  Rb1_4  1  0.50000000  0.49964750  0.49912600  1
  Rb  Rb1_5  1  0.50000000  0.49964750  0.99912600  1
  Rb  Rb1_6  1  0.50000000  0.99964750  0.49912600  1
  Rb  Rb1_7  1  0.50000000  0.99964750  0.99912600  1
  Rb  Rb2_0  1  0.38943100  0.01238900  0.00990600  1
  Rb  Rb2_1  1  0.38943100  0.01238900  0.50990600  1
  Rb  Rb2_2  1  0.38943100  0.51238900  0.00990600  1
  Rb  Rb2_3  1  0.38943100  0.51238900  0.50990600  1
  Rb  Rb2_4  1  0.88943100  0.01238900  0.00990600  1
  Rb  Rb2_5  1  0.88943100  0.01238900  0.50990600  1
  Rb  Rb2_6  1  0.88943100  0.51238900  0.00990600  1
  Rb  Rb2_7  1  0.88943100  0.51238900  0.50990600  1
  Rb  Rb3_0  1  0.19606150  0.02943050  0.03998650  1
  Rb  Rb3_1  1  0.19606150  0.02943050  0.53998650  1
  Rb  Rb3_2  1  0.19606150  0.52943050  0.03998650  1
  Rb  Rb3_3  1  0.19606150  0.52943050  0.53998650  1
  Rb  Rb3_4  1  0.69606150  0.02943050  0.03998650  1
  Rb  Rb3_5  1  0.69606150  0.02943050  0.53998650  1
  Rb  Rb3_6  1  0.69606150  0.52943050  0.03998650  1
  Rb  Rb3_7  1  0.69606150  0.52943050  0.53998650  1
  Rb  Rb4_0  1  0.30393850  0.02943050  0.03998650  1
  Rb  Rb4_1  1  0.30393850  0.02943050  0.53998650  1
  Rb  Rb4_2  1  0.30393850  0.52943050  0.03998650  1
  Rb  Rb4_3  1  0.30393850  0.52943050  0.53998650  1
  Rb  Rb4_4  1  0.80393850  0.02943050  0.03998650  1
  Rb  Rb4_5  1  0.80393850  0.02943050  0.53998650  1
  Rb  Rb4_6  1  0.80393850  0.52943050  0.03998650  1
  Rb  Rb4_7  1  0.80393850  0.52943050  0.53998650  1
  N  N0_0  1  0.25000000  0.37515600  0.33490150  1
  N  N0_1  1  0.25000000  0.37515600  0.83490150  1
  N  N0_2  1  0.25000000  0.87515600  0.33490150  1
  N  N0_3  1  0.25000000  0.87515600  0.83490150  1
  N  N0_4  1  0.75000000  0.37515600  0.33490150  1
  N  N0_5  1  0.75000000  0.37515600  0.83490150  1
  N  N0_6  1  0.75000000  0.87515600  0.33490150  1
  N  N0_7  1  0.75000000  0.87515600  0.83490150  1
  O  O0_0  1  0.25000000  0.04337250  0.30052350  1
  O  O0_1  1  0.25000000  0.04337250  0.80052350  1
  O  O0_2  1  0.25000000  0.54337250  0.30052350  1
  O  O0_3  1  0.25000000  0.54337250  0.80052350  1
  O  O0_4  1  0.75000000  0.04337250  0.30052350  1
  O  O0_5  1  0.75000000  0.04337250  0.80052350  1
  O  O0_6  1  0.75000000  0.54337250  0.30052350  1
  O  O0_7  1  0.75000000  0.54337250  0.80052350  1
  O  O1_0  1  0.25000000  0.33555700  0.44954600  1
  O  O1_1  1  0.25000000  0.33555700  0.94954600  1
  O  O1_2  1  0.25000000  0.83555700  0.44954600  1
  O  O1_3  1  0.25000000  0.83555700  0.94954600  1
  O  O1_4  1  0.75000000  0.33555700  0.44954600  1
  O  O1_5  1  0.75000000  0.33555700  0.94954600  1
  O  O1_6  1  0.75000000  0.83555700  0.44954600  1
  O  O1_7  1  0.75000000  0.83555700  0.94954600  1
  O  O2_0  1  0.25000000  0.09991950  0.17285250  1
  O  O2_1  1  0.25000000  0.09991950  0.67285250  1
  O  O2_2  1  0.25000000  0.59991950  0.17285250  1
  O  O2_3  1  0.25000000  0.59991950  0.67285250  1
  O  O2_4  1  0.75000000  0.09991950  0.17285250  1
  O  O2_5  1  0.75000000  0.09991950  0.67285250  1
  O  O2_6  1  0.75000000  0.59991950  0.17285250  1
  O  O2_7  1  0.75000000  0.59991950  0.67285250  1
  O  O3_0  1  0.35568100  0.25510450  0.04638300  1
  O  O3_1  1  0.35568100  0.25510450  0.54638300  1
  O  O3_2  1  0.35568100  0.75510450  0.04638300  1
  O  O3_3  1  0.35568100  0.75510450  0.54638300  1
  O  O3_4  1  0.85568100  0.25510450  0.04638300  1
  O  O3_5  1  0.85568100  0.25510450  0.54638300  1
  O  O3_6  1  0.85568100  0.75510450  0.04638300  1
  O  O3_7  1  0.85568100  0.75510450  0.54638300  1
  O  O4_0  1  0.14431900  0.25510450  0.04638300  1
  O  O4_1  1  0.14431900  0.25510450  0.54638300  1
  O  O4_2  1  0.14431900  0.75510450  0.04638300  1
  O  O4_3  1  0.14431900  0.75510450  0.54638300  1
  O  O4_4  1  0.64431900  0.25510450  0.04638300  1
  O  O4_5  1  0.64431900  0.25510450  0.54638300  1
  O  O4_6  1  0.64431900  0.75510450  0.04638300  1
  O  O4_7  1  0.64431900  0.75510450  0.54638300  1
loop_
_geom_bond_atom_site_label_1
_geom_bond_atom_site_label_2
_geom_bond_distance
_geom_bond_site_symmetry_2
Rb0_0 Rb1_3 4.484344 1_544
Rb0_1 Rb1_2 4.484344 1_545
Rb0_2 Rb1_1 4.484344 1_554
Rb0_3 Rb1_0 4.484344 1_555
Rb0_4 Rb1_7 4.484344 1_544
Rb0_5 Rb1_6 4.484344 1_545
Rb0_6 Rb1_5 4.484344 1_554
Rb0_7 Rb1_4 4.484344 1_555
Rb1_0 Rb1_2 4.272703 1_555
Rb1_0 Rb1_2 4.272703 1_545
Rb1_0 Rb2_7 4.484344 1_455
Rb1_1 Rb1_3 4.272703 1_545
Rb1_1 Rb1_3 4.272703 1_555
Rb1_1 Rb2_6 4.484344 1_456
Rb1_2 Rb2_5 4.484344 1_465
Rb1_3 Rb2_4 4.484344 1_466
Rb1_4 Rb1_6 4.272703 1_555
Rb1_4 Rb1_6 4.272703 1_545
Rb1_4 Rb2_3 4.484344 1_555
Rb1_5 Rb1_7 4.272703 1_555
Rb1_5 Rb1_7 4.272703 1_545
Rb1_5 Rb2_2 4.484344 1_556
Rb1_6 Rb2_1 4.484344 1_565
Rb1_7 Rb2_0 4.484344 1_566
N0_0 O1_0 1.234686 1_555
N0_0 O0_2 1.410264 1_555
N0_1 O1_1 1.234686 1_555
N0_1 O0_3 1.410264 1_555
N0_2 O1_2 1.234686 1_555
N0_2 O0_0 1.410264 1_565
N0_3 O1_3 1.234686 1_555
N0_3 O0_1 1.410264 1_565
N0_4 O1_4 1.234686 1_555
N0_4 O0_6 1.410264 1_555
N0_5 O1_5 1.234686 1_555
N0_5 O0_7 1.410264 1_555
N0_6 O1_6 1.234686 1_555
N0_6 O0_4 1.410264 1_565
N0_7 O1_7 1.234686 1_555
N0_7 O0_5 1.410264 1_565
O0_0 O2_0 1.386235 1_555
O0_0 Rb3_1 3.401409 1_555
O0_0 Rb4_1 3.401409 1_555
O0_1 O2_1 1.386235 1_555
O0_1 Rb3_0 3.401409 1_556
O0_1 Rb4_0 3.401409 1_556
O0_2 O2_2 1.386235 1_555
O0_2 Rb3_3 3.401409 1_555
O0_2 Rb4_3 3.401409 1_555
O0_3 O2_3 1.386235 1_555
O0_3 Rb3_2 3.401409 1_556
O0_3 Rb4_2 3.401409 1_556
O0_4 O2_4 1.386235 1_555
O0_4 Rb3_5 3.401409 1_555
O0_4 Rb4_5 3.401409 1_555
O0_5 O2_5 1.386235 1_555
O0_5 Rb3_4 3.401409 1_556
O0_5 Rb4_4 3.401409 1_556
O0_6 O2_6 1.386235 1_555
O0_6 Rb3_7 3.401409 1_555
O0_6 Rb4_7 3.401409 1_555
O0_7 O2_7 1.386235 1_555
O0_7 Rb3_6 3.401409 1_556
O0_7 Rb4_6 3.401409 1_556
O1_0 Rb3_3 3.028881 1_555
O1_0 Rb4_3 3.028881 1_555
O1_0 Rb3_1 3.399117 1_555
O1_0 Rb4_1 3.399117 1_555
O1_1 Rb3_2 3.028881 1_556
O1_1 Rb4_2 3.028881 1_556
O1_1 Rb3_0 3.399117 1_556
O1_1 Rb4_0 3.399117 1_556
O1_2 Rb3_1 3.028881 1_565
O1_2 Rb4_1 3.028881 1_565
O1_2 Rb3_3 3.399117 1_555
O1_2 Rb4_3 3.399117 1_555
O1_3 Rb3_0 3.028881 1_566
O1_3 Rb4_0 3.028881 1_566
O1_3 Rb3_2 3.399117 1_556
O1_3 Rb4_2 3.399117 1_556
O1_4 Rb3_7 3.028881 1_555
O1_4 Rb4_7 3.028881 1_555
O1_4 Rb3_5 3.399117 1_555
O1_4 Rb4_5 3.399117 1_555
O1_5 Rb3_6 3.028881 1_556
O1_5 Rb4_6 3.028881 1_556
O1_5 Rb3_4 3.399117 1_556
O1_5 Rb4_4 3.399117 1_556
O1_6 Rb3_5 3.028881 1_565
O1_6 Rb4_5 3.028881 1_565
O1_6 Rb3_7 3.399117 1_555
O1_6 Rb4_7 3.399117 1_555
O1_7 Rb3_4 3.028881 1_566
O1_7 Rb4_4 3.028881 1_566
O1_7 Rb3_6 3.399117 1_556
O1_7 Rb4_6 3.399117 1_556
O2_0 Rb3_0 2.760873 1_555
O2_0 Rb4_0 2.760873 1_555
O2_1 Rb3_1 2.760873 1_555
O2_1 Rb4_1 2.760873 1_555
O2_2 Rb3_2 2.760873 1_555
O2_2 Rb4_2 2.760873 1_555
O2_3 Rb3_3 2.760873 1_555
O2_3 Rb4_3 2.760873 1_555
O2_4 Rb3_4 2.760873 1_555
O2_4 Rb4_4 2.760873 1_555
O2_5 Rb3_5 2.760873 1_555
O2_5 Rb4_5 2.760873 1_555
O2_6 Rb3_6 2.760873 1_555
O2_6 Rb4_6 2.760873 1_555
O2_7 Rb3_7 2.760873 1_555
O2_7 Rb4_7 2.760873 1_555
O3_0 Rb2_2 2.551090 1_555
O3_0 Rb2_0 2.582502 1_555
O3_0 Rb4_0 2.859334 1_555
O3_0 Rb4_2 3.135381 1_555
O3_1 Rb2_3 2.551090 1_555
O3_1 Rb2_1 2.582502 1_555
O3_1 Rb4_1 2.859334 1_555
O3_1 Rb4_3 3.135381 1_555
O3_2 Rb2_0 2.551090 1_565
O3_2 Rb2_2 2.582502 1_555
O3_2 Rb4_2 2.859334 1_555
O3_2 Rb4_0 3.135381 1_565
O3_3 Rb2_1 2.551090 1_565
O3_3 Rb2_3 2.582502 1_555
O3_3 Rb4_3 2.859334 1_555
O3_3 Rb4_1 3.135381 1_565
O3_4 Rb2_6 2.551090 1_555
O3_4 Rb2_4 2.582502 1_555
O3_4 Rb4_4 2.859334 1_555
O3_4 Rb4_6 3.135381 1_555
O3_5 Rb2_7 2.551090 1_555
O3_5 Rb2_5 2.582502 1_555
O3_5 Rb4_5 2.859334 1_555
O3_5 Rb4_7 3.135381 1_555
O3_6 Rb2_4 2.551090 1_565
O3_6 Rb2_6 2.582502 1_555
O3_6 Rb4_6 2.859334 1_555
O3_6 Rb4_4 3.135381 1_565
O3_7 Rb2_5 2.551090 1_565
O3_7 Rb2_7 2.582502 1_555
O3_7 Rb4_7 2.859334 1_555
O3_7 Rb4_5 3.135381 1_565
O4_0 Rb0_2 2.551090 1_555
O4_0 Rb0_0 2.582502 1_555
O4_0 Rb3_0 2.859334 1_555
O4_0 Rb3_2 3.135381 1_555
O4_1 Rb0_3 2.551090 1_555
O4_1 Rb0_1 2.582502 1_555
O4_1 Rb3_1 2.859334 1_555
O4_1 Rb3_3 3.135381 1_555
O4_2 Rb0_0 2.551090 1_565
O4_2 Rb0_2 2.582502 1_555
O4_2 Rb3_2 2.859334 1_555
O4_2 Rb3_0 3.135381 1_565
O4_3 Rb0_1 2.551090 1_565
O4_3 Rb0_3 2.582502 1_555
O4_3 Rb3_3 2.859334 1_555
O4_3 Rb3_1 3.135381 1_565
O4_4 Rb0_6 2.551090 1_555
O4_4 Rb0_4 2.582502 1_555
O4_4 Rb3_4 2.859334 1_555
O4_4 Rb3_6 3.135381 1_555
O4_5 Rb0_7 2.551090 1_555
O4_5 Rb0_5 2.582502 1_555
O4_5 Rb3_5 2.859334 1_555
O4_5 Rb3_7 3.135381 1_555
O4_6 Rb0_4 2.551090 1_565
O4_6 Rb0_6 2.582502 1_555
O4_6 Rb3_6 2.859334 1_555
O4_6 Rb3_4 3.135381 1_565
O4_7 Rb0_5 2.551090 1_565
O4_7 Rb0_7 2.582502 1_555
O4_7 Rb3_7 2.859334 1_555
O4_7 Rb3_5 3.135381 1_565
