# generated using pymatgen
data_GaSi4H30C10Cl
_symmetry_space_group_name_H-M   'P 1'
_cell_length_a   14.42584600
_cell_length_b   9.30316900
_cell_length_c   15.88040538
_cell_angle_alpha   89.37646461
_cell_angle_beta   90.00000000
_cell_angle_gamma   90.00000000
_symmetry_Int_Tables_number   1
_chemical_formula_structural   GaSi4H30C10Cl
_chemical_formula_sum   'Ga4 Si16 H120 C40 Cl4'
_cell_volume   2131.12080264
_cell_formula_units_Z   4
loop_
 _symmetry_equiv_pos_site_id
 _symmetry_equiv_pos_as_xyz
  1  'x, y, z'
loop_
 _atom_site_type_symbol
 _atom_site_label
 _atom_site_symmetry_multiplicity
 _atom_site_fract_x
 _atom_site_fract_y
 _atom_site_fract_z
 _atom_site_occupancy
  Ga  Ga0  1  0.91161600  0.10430200  0.04471600  1
  Ga  Ga1  1  0.41161600  0.39569800  0.45528400  1
  Ga  Ga2  1  0.08838400  0.89569800  0.95528400  1
  Ga  Ga3  1  0.58838400  0.60430200  0.54471600  1
  Si  Si0  1  0.66289500  0.37379800  0.74274300  1
  Si  Si1  1  0.80048400  0.33175400  0.53027500  1
  Si  Si2  1  0.71784200  0.49358800  0.61853100  1
  Si  Si3  1  0.78215800  0.99358800  0.11853100  1
  Si  Si4  1  0.19951600  0.66824600  0.46972500  1
  Si  Si5  1  0.33710500  0.62620200  0.25725700  1
  Si  Si6  1  0.18493100  0.30810000  0.34349500  1
  Si  Si7  1  0.16289500  0.12620200  0.75725700  1
  Si  Si8  1  0.69951600  0.83175400  0.03027500  1
  Si  Si9  1  0.68493100  0.19190000  0.15650500  1
  Si  Si10  1  0.30048400  0.16824600  0.96972500  1
  Si  Si11  1  0.81506900  0.69190000  0.65650500  1
  Si  Si12  1  0.28215800  0.50641200  0.38146900  1
  Si  Si13  1  0.21784200  0.00641200  0.88146900  1
  Si  Si14  1  0.31506900  0.80810000  0.84349500  1
  Si  Si15  1  0.83710500  0.87379800  0.24274300  1
  H  H0  1  0.40766300  0.62247700  0.92116100  1
  H  H1  1  0.73590900  0.61317700  0.94760100  1
  H  H2  1  0.69401600  0.33191100  0.02128600  1
  H  H3  1  0.30745200  0.09593600  0.67135100  1
  H  H4  1  0.55081500  0.86531300  0.58448500  1
  H  H5  1  0.00581600  0.32153800  0.98835500  1
  H  H6  1  0.53224300  0.23958000  0.67625400  1
  H  H7  1  0.19213100  0.76401500  0.22338400  1
  H  H8  1  0.03224300  0.26042000  0.82374600  1
  H  H9  1  0.50581600  0.17846200  0.51164500  1
  H  H10  1  0.76132600  0.75952200  0.36814500  1
  H  H11  1  0.29243200  0.58243900  0.76307900  1
  H  H12  1  0.86793000  0.17569900  0.64418400  1
  H  H13  1  0.05552200  0.68027200  0.38150800  1
  H  H14  1  0.59645000  0.21474500  0.02126500  1
  H  H15  1  0.47335000  0.46771900  0.22798000  1
  H  H16  1  0.26132600  0.74047800  0.13185500  1
  H  H17  1  0.89203000  0.58244100  0.78339500  1
  H  H18  1  0.63459000  0.13209100  0.68064500  1
  H  H19  1  0.06543200  0.05565200  0.63433100  1
  H  H20  1  0.60238000  0.85630500  0.90073800  1
  H  H21  1  0.80540600  0.61975500  0.04003100  1
  H  H22  1  0.28194600  0.22027000  0.22422300  1
  H  H23  1  0.69213100  0.73598500  0.27661600  1
  H  H24  1  0.89762000  0.35630500  0.40073800  1
  H  H25  1  0.13459000  0.36790900  0.81935500  1
  H  H26  1  0.13207000  0.82430100  0.35581600  1
  H  H27  1  0.73867400  0.25952200  0.86814500  1
  H  H28  1  0.06680400  0.34351200  0.72718300  1
  H  H29  1  0.43456800  0.55565200  0.13433100  1
  H  H30  1  0.61515400  0.86146800  0.48861600  1
  H  H31  1  0.54112700  0.05158800  0.19119100  1
  H  H32  1  0.80271900  0.47854300  0.39706700  1
  H  H33  1  0.97335000  0.03228100  0.27202000  1
  H  H34  1  0.40146800  0.98331900  0.03955300  1
  H  H35  1  0.96066600  0.72311200  0.73955200  1
  H  H36  1  0.69728100  0.97854300  0.89706700  1
  H  H37  1  0.19254800  0.59593600  0.17135100  1
  H  H38  1  0.99418400  0.67846200  0.01164500  1
  H  H39  1  0.39203000  0.91755900  0.71660500  1
  H  H40  1  0.93319600  0.65648800  0.27281700  1
  H  H41  1  0.59853200  0.01668100  0.96044700  1
  H  H42  1  0.40355000  0.78525500  0.97873500  1
  H  H43  1  0.88484600  0.36146800  0.98861600  1
  H  H44  1  0.56543200  0.44434800  0.86566900  1
  H  H45  1  0.36793000  0.32430100  0.85581600  1
  H  H46  1  0.30786900  0.26401500  0.72338400  1
  H  H47  1  0.30271900  0.02145700  0.10293300  1
  H  H48  1  0.19401600  0.16808900  0.47871400  1
  H  H49  1  0.60797000  0.08244100  0.28339500  1
  H  H50  1  0.39762000  0.14369500  0.09926200  1
  H  H51  1  0.12743600  0.90463500  0.67501400  1
  H  H52  1  0.80786900  0.23598500  0.77661600  1
  H  H53  1  0.56401600  0.66893800  0.05085500  1
  H  H54  1  0.02665000  0.96771900  0.72798000  1
  H  H55  1  0.66613700  0.22997700  0.45117600  1
  H  H56  1  0.44447800  0.18027200  0.88150800  1
  H  H57  1  0.80745200  0.40406400  0.82864900  1
  H  H58  1  0.96775700  0.73958000  0.17625400  1
  H  H59  1  0.55552200  0.81972800  0.11849200  1
  H  H60  1  0.53933400  0.22311200  0.23955200  1
  H  H61  1  0.93456800  0.94434800  0.36566900  1
  H  H62  1  0.09853200  0.48331900  0.53955300  1
  H  H63  1  0.90146800  0.51668100  0.46044700  1
  H  H64  1  0.81020100  0.37234600  0.18047000  1
  H  H65  1  0.31020100  0.12765400  0.31953000  1
  H  H66  1  0.43319600  0.84351200  0.22718300  1
  H  H67  1  0.23867400  0.24047800  0.63185500  1
  H  H68  1  0.83386300  0.72997700  0.95117600  1
  H  H69  1  0.49418400  0.82153800  0.48835500  1
  H  H70  1  0.30598400  0.66808900  0.97871400  1
  H  H71  1  0.36541000  0.86790900  0.31935500  1
  H  H72  1  0.52665000  0.53228100  0.77202000  1
  H  H73  1  0.86541000  0.63209100  0.18064500  1
  H  H74  1  0.68979900  0.87234600  0.68047000  1
  H  H75  1  0.16613700  0.27002300  0.04882400  1
  H  H76  1  0.71805400  0.77973000  0.77577700  1
  H  H77  1  0.09233700  0.12247700  0.42116100  1
  H  H78  1  0.43598400  0.33106200  0.94914500  1
  H  H79  1  0.90766300  0.87752300  0.57883900  1
  H  H80  1  0.33386300  0.77002300  0.54882400  1
  H  H81  1  0.03933400  0.27688800  0.26044800  1
  H  H82  1  0.76409100  0.11317700  0.44760100  1
  H  H83  1  0.70756800  0.41756100  0.23692100  1
  H  H84  1  0.05081500  0.63468700  0.91551500  1
  H  H85  1  0.62743600  0.59536500  0.82498600  1
  H  H86  1  0.80598400  0.83191100  0.52128600  1
  H  H87  1  0.10238000  0.64369500  0.59926200  1
  H  H88  1  0.46775700  0.76042000  0.32374600  1
  H  H89  1  0.87256400  0.09536500  0.32498600  1
  H  H90  1  0.09645000  0.28525500  0.47873500  1
  H  H91  1  0.69254800  0.90406400  0.32864900  1
  H  H92  1  0.90355000  0.71474500  0.52126500  1
  H  H93  1  0.20756800  0.08243900  0.26307900  1
  H  H94  1  0.94918500  0.36531300  0.08448500  1
  H  H95  1  0.10797000  0.41755900  0.21660500  1
  H  H96  1  0.93598400  0.16893800  0.55085500  1
  H  H97  1  0.18979900  0.62765400  0.81953000  1
  H  H98  1  0.56680400  0.15648800  0.77281700  1
  H  H99  1  0.19728100  0.52145700  0.60293300  1
  H  H100  1  0.44918500  0.13468700  0.41551500  1
  H  H101  1  0.79243200  0.91756100  0.73692100  1
  H  H102  1  0.46066600  0.77688800  0.76044800  1
  H  H103  1  0.38484600  0.13853200  0.51138400  1
  H  H104  1  0.19459400  0.38024500  0.95996900  1
  H  H105  1  0.63207000  0.67569900  0.14418400  1
  H  H106  1  0.94447800  0.31972800  0.61849200  1
  H  H107  1  0.45887300  0.94841200  0.80880900  1
  H  H108  1  0.95887300  0.55158800  0.69119100  1
  H  H109  1  0.26409100  0.38682300  0.05239900  1
  H  H110  1  0.06401600  0.83106200  0.44914500  1
  H  H111  1  0.21805400  0.72027000  0.72422300  1
  H  H112  1  0.37256400  0.40463500  0.17501400  1
  H  H113  1  0.30540600  0.88024500  0.45996900  1
  H  H114  1  0.23590900  0.88682300  0.55239900  1
  H  H115  1  0.11515400  0.63853200  0.01138400  1
  H  H116  1  0.78194600  0.27973000  0.27577700  1
  H  H117  1  0.04112700  0.44841200  0.30880900  1
  H  H118  1  0.59233700  0.37752300  0.07883900  1
  H  H119  1  0.69459400  0.11975500  0.54003100  1
  C  C0  1  0.60391200  0.74098000  0.09201300  1
  C  C1  1  0.63756500  0.28737300  0.06023500  1
  C  C2  1  0.39608800  0.25902000  0.90798700  1
  C  C3  1  0.05860100  0.69081300  0.97572000  1
  C  C4  1  0.75279300  0.32787400  0.21821700  1
  C  C5  1  0.24720700  0.67212600  0.78178300  1
  C  C6  1  0.91134400  0.99844900  0.30721100  1
  C  C7  1  0.76373600  0.31296500  0.81008600  1
  C  C8  1  0.41134400  0.50155100  0.19278900  1
  C  C9  1  0.10391200  0.75902000  0.40798700  1
  C  C10  1  0.08865600  0.00155100  0.69278900  1
  C  C11  1  0.23626400  0.68703500  0.18991400  1
  C  C12  1  0.85548400  0.43033000  0.43859300  1
  C  C13  1  0.44139900  0.19081300  0.47572000  1
  C  C14  1  0.90758000  0.71037300  0.21516300  1
  C  C15  1  0.72370400  0.18518700  0.48829400  1
  C  C16  1  0.77629600  0.68518700  0.98829400  1
  C  C17  1  0.58408000  0.13101600  0.22379600  1
  C  C18  1  0.25279300  0.17212600  0.28178300  1
  C  C19  1  0.91592000  0.63101600  0.72379600  1
  C  C20  1  0.26373600  0.18703500  0.68991400  1
  C  C21  1  0.89608800  0.24098000  0.59201300  1
  C  C22  1  0.09242000  0.28962700  0.78483700  1
  C  C23  1  0.59242000  0.21037300  0.71516300  1
  C  C24  1  0.55860100  0.80918700  0.52428000  1
  C  C25  1  0.14451600  0.56967000  0.56140700  1
  C  C26  1  0.73626400  0.81296500  0.31008600  1
  C  C27  1  0.35548400  0.06967000  0.06140700  1
  C  C28  1  0.74720700  0.82787400  0.71821700  1
  C  C29  1  0.41592000  0.86898400  0.77620400  1
  C  C30  1  0.64451600  0.93033000  0.93859300  1
  C  C31  1  0.13756500  0.21262700  0.43976500  1
  C  C32  1  0.27629600  0.81481300  0.51170600  1
  C  C33  1  0.86243500  0.78737300  0.56023500  1
  C  C34  1  0.94139900  0.30918700  0.02428000  1
  C  C35  1  0.22370400  0.31481300  0.01170600  1
  C  C36  1  0.08408000  0.36898400  0.27620400  1
  C  C37  1  0.40758000  0.78962700  0.28483700  1
  C  C38  1  0.36243500  0.71262700  0.93976500  1
  C  C39  1  0.58865600  0.49844900  0.80721100  1
  Cl  Cl0  1  0.06123100  0.00444400  0.09326400  1
  Cl  Cl1  1  0.93876900  0.99555600  0.90673600  1
  Cl  Cl2  1  0.43876900  0.50444400  0.59326400  1
  Cl  Cl3  1  0.56123100  0.49555600  0.40673600  1
loop_
_geom_bond_atom_site_label_1
_geom_bond_atom_site_label_2
_geom_bond_distance
_geom_bond_site_symmetry_2
Ga0 Si3 2.428249 1_545
Ga1 Si12 2.428249 1_555
Ga2 Si13 2.428249 1_565
Ga3 Si2 2.428249 1_555
Si0 Si2 2.390253 1_555
Si1 Si2 2.387106 1_555
Si3 Si8 2.387106 1_555
Si3 Si9 2.399766 1_565
Si10 Si13 2.387106 1_555
Si11 Si2 2.399766 1_555
Si12 Si4 2.387106 1_555
Si12 Si5 2.390253 1_555
Si12 Si6 2.399766 1_555
Si13 Si7 2.390253 1_555
Si13 Si14 2.399766 1_545
Si15 Si3 2.390253 1_555
C0 H59 1.098877 1_555
C0 H105 1.099679 1_555
C0 H53 1.103253 1_555
C0 Si8 1.886392 1_555
C1 H14 1.095631 1_555
C1 H2 1.100840 1_555
C1 H118 1.105331 1_555
C1 Si9 1.887720 1_555
C2 H56 1.098877 1_555
C2 H45 1.099679 1_555
C2 H78 1.103253 1_555
C2 Si10 1.886392 1_555
C3 H38 1.095807 1_456
C3 H84 1.100095 1_555
C3 H115 1.103133 1_556
C3 Ga2 1.977269 1_555
C4 H116 1.097315 1_555
C4 H64 1.100431 1_555
C4 H83 1.102468 1_555
C4 Si9 1.883077 1_555
C5 H111 1.097315 1_555
C5 H97 1.100431 1_555
C5 H11 1.102468 1_555
C5 Si14 1.883077 1_555
C6 H33 1.098934 1_565
C6 H89 1.100506 1_565
C6 H61 1.103269 1_555
C6 Si15 1.888307 1_555
C7 H57 1.099235 1_555
C7 H52 1.099549 1_555
C7 H27 1.103638 1_555
C7 Si0 1.888652 1_555
C8 H15 1.098934 1_555
C8 H112 1.100506 1_555
C8 H29 1.103269 1_555
C8 Si5 1.888307 1_555
C9 H13 1.098877 1_555
C9 H26 1.099679 1_555
C9 H110 1.103253 1_555
C9 Si4 1.886392 1_555
C10 H54 1.098934 1_545
C10 H51 1.100506 1_545
C10 H19 1.103269 1_555
C10 Si7 1.888307 1_555
C11 H37 1.099235 1_555
C11 H7 1.099549 1_555
C11 H16 1.103638 1_555
C11 Si5 1.888652 1_555
C12 H32 1.099551 1_555
C12 H63 1.100867 1_555
C12 H24 1.101878 1_555
C12 Si1 1.887129 1_555
C13 H9 1.095807 1_555
C13 H100 1.100095 1_555
C13 H103 1.103133 1_555
C13 Ga1 1.977269 1_555
C14 H58 1.097985 1_555
C14 H73 1.099828 1_555
C14 H40 1.102785 1_555
C14 Si15 1.884529 1_555
C15 H55 1.097900 1_555
C15 H119 1.100473 1_555
C15 H82 1.102389 1_555
C15 Si1 1.884221 1_555
C16 H68 1.097900 1_555
C16 H21 1.100473 1_556
C16 H1 1.102389 1_555
C16 Si8 1.884221 1_556
C17 H31 1.098358 1_555
C17 H49 1.099753 1_555
C17 H60 1.103640 1_555
C17 Si9 1.888437 1_555
C18 H22 1.097315 1_555
C18 H65 1.100431 1_555
C18 H93 1.102468 1_555
C18 Si6 1.883077 1_555
C19 H108 1.098358 1_555
C19 H17 1.099753 1_555
C19 H35 1.103640 1_555
C19 Si11 1.888437 1_555
C20 H3 1.099235 1_555
C20 H46 1.099549 1_555
C20 H67 1.103638 1_555
C20 Si7 1.888652 1_555
C21 H106 1.098877 1_555
C21 H12 1.099679 1_555
C21 H96 1.103253 1_555
C21 Si1 1.886392 1_555
C22 H8 1.097985 1_555
C22 H25 1.099828 1_555
C22 H28 1.102785 1_555
C22 Si7 1.884529 1_555
C23 H6 1.097985 1_555
C23 H18 1.099828 1_555
C23 H98 1.102785 1_555
C23 Si0 1.884529 1_555
C24 H69 1.095807 1_555
C24 H4 1.100095 1_555
C24 H30 1.103133 1_555
C24 Ga3 1.977269 1_555
C25 H99 1.099551 1_555
C25 H62 1.100867 1_555
C25 H87 1.101878 1_555
C25 Si4 1.887129 1_555
C26 H91 1.099235 1_555
C26 H23 1.099549 1_555
C26 H10 1.103638 1_555
C26 Si15 1.888652 1_555
C27 H47 1.099551 1_555
C27 H34 1.100867 1_545
C27 H50 1.101878 1_555
C27 Si10 1.887129 1_554
C28 H76 1.097315 1_555
C28 H74 1.100431 1_555
C28 H101 1.102468 1_555
C28 Si11 1.883077 1_555
C29 H107 1.098358 1_555
C29 H39 1.099753 1_555
C29 H102 1.103640 1_555
C29 Si14 1.888437 1_555
C30 H36 1.099551 1_555
C30 H41 1.100867 1_565
C30 H20 1.101878 1_555
C30 Si8 1.887129 1_556
C31 H90 1.095631 1_555
C31 H48 1.100840 1_555
C31 H77 1.105331 1_555
C31 Si6 1.887720 1_555
C32 H80 1.097900 1_555
C32 H113 1.100473 1_555
C32 H114 1.102389 1_555
C32 Si4 1.884221 1_555
C33 H92 1.095631 1_555
C33 H86 1.100840 1_555
C33 H79 1.105331 1_555
C33 Si11 1.887720 1_555
C34 H5 1.095807 1_654
C34 H94 1.100095 1_555
C34 H43 1.103133 1_554
C34 Ga0 1.977269 1_555
C35 H75 1.097900 1_555
C35 H104 1.100473 1_554
C35 H109 1.102389 1_555
C35 Si10 1.884221 1_554
C36 H117 1.098358 1_555
C36 H95 1.099753 1_555
C36 H81 1.103640 1_555
C36 Si6 1.888437 1_555
C37 H88 1.097985 1_555
C37 H71 1.099828 1_555
C37 H66 1.102785 1_555
C37 Si5 1.884529 1_555
C38 H42 1.095631 1_555
C38 H70 1.100840 1_555
C38 H0 1.105331 1_555
C38 Si14 1.887720 1_555
C39 H72 1.098934 1_555
C39 H85 1.100506 1_555
C39 H44 1.103269 1_555
C39 Si0 1.888307 1_555
Cl0 Ga2 2.454882 1_544
Cl0 Ga0 2.469855 1_455
Cl1 Ga0 2.454882 1_566
Cl1 Ga2 2.469855 1_655
Cl2 Ga1 2.454882 1_555
Cl2 Ga3 2.469855 1_555
Cl3 Ga3 2.454882 1_555
Cl3 Ga1 2.469855 1_555
