# generated using pymatgen
data_LiEuPS4
_symmetry_space_group_name_H-M   'P 1'
_cell_length_a   11.56031095
_cell_length_b   11.56031083
_cell_length_c   12.92306576
_cell_angle_alpha   116.56894158
_cell_angle_beta   116.56894129
_cell_angle_gamma   90.00000334
_symmetry_Int_Tables_number   1
_chemical_formula_structural   LiEuPS4
_chemical_formula_sum   'Li8 Eu8 P8 S32'
_cell_volume   1337.64501732
_cell_formula_units_Z   8
loop_
 _symmetry_equiv_pos_site_id
 _symmetry_equiv_pos_as_xyz
  1  'x, y, z'
loop_
 _atom_site_type_symbol
 _atom_site_label
 _atom_site_symmetry_multiplicity
 _atom_site_fract_x
 _atom_site_fract_y
 _atom_site_fract_z
 _atom_site_occupancy
  Eu  Eu0  1  0.62500000  0.87500000  0.25000000  1
  Eu  Eu1  1  0.12500000  0.37500000  0.25000000  1
  Eu  Eu2  1  0.12500000  0.87500000  0.25000000  1
  Eu  Eu3  1  0.62500000  0.37500000  0.25000000  1
  Eu  Eu4  1  0.37500000  0.62500000  0.75000000  1
  Eu  Eu5  1  0.87500000  0.12500000  0.75000000  1
  Eu  Eu6  1  0.87500000  0.62500000  0.75000000  1
  Eu  Eu7  1  0.37500000  0.12500000  0.75000000  1
  Li  Li0  1  0.75000000  0.53345670  1.00000000  1
  Li  Li1  1  0.53345670  0.25000000  0.50000000  1
  Li  Li2  1  0.96654330  0.75000000  0.50000000  1
  Li  Li3  1  0.25000000  0.46654330  0.00000000  1
  Li  Li4  1  0.25000000  0.96654330  0.00000000  1
  Li  Li5  1  0.03345670  0.25000000  0.50000000  1
  Li  Li6  1  0.46654330  0.75000000  0.50000000  1
  Li  Li7  1  0.75000000  0.03345670  1.00000000  1
  P  P0  1  0.75000000  0.28467157  0.00000000  1
  P  P1  1  0.25000000  0.71532843  1.00000000  1
  P  P2  1  0.78467157  0.25000000  0.50000000  1
  P  P3  1  0.28467157  0.25000000  0.50000000  1
  P  P4  1  0.75000000  0.78467157  0.00000000  1
  P  P5  1  0.71532843  0.75000000  0.50000000  1
  P  P6  1  0.21532843  0.75000000  0.50000000  1
  P  P7  1  0.25000000  0.21532843  1.00000000  1
  S  S0  1  0.73147876  0.66232122  0.33007353  1
  S  S1  1  0.10386895  0.11836106  0.00485284  1
  S  S2  1  0.11836106  0.90098389  0.50485284  1
  S  S3  1  0.90140523  0.83767878  0.66992647  1
  S  S4  1  0.38649179  0.10386895  0.50485284  1
  S  S5  1  0.61836106  0.60386895  0.50485284  1
  S  S6  1  0.61350821  0.89613105  0.49514716  1
  S  S7  1  0.38163894  0.39613105  0.49514716  1
  S  S8  1  0.09901611  0.61350821  0.99514716  1
  S  S9  1  0.39613105  0.11350821  0.99514716  1
  S  S10  1  0.59901611  0.38163894  0.99514716  1
  S  S11  1  0.33767878  0.40140523  0.16992647  1
  S  S12  1  0.88649179  0.40098389  0.50485284  1
  S  S13  1  0.83767878  0.76852124  0.16992647  1
  S  S14  1  0.26852124  0.33767878  0.66992647  1
  S  S15  1  0.23147876  0.66775231  0.33007353  1
  S  S16  1  0.33224769  0.90140523  0.16992647  1
  S  S17  1  0.90098389  0.38649179  0.00485284  1
  S  S18  1  0.40140523  0.83224769  0.66992647  1
  S  S19  1  0.89613105  0.88163894  0.99514716  1
  S  S20  1  0.88163894  0.09901611  0.49514716  1
  S  S21  1  0.16232122  0.23147876  0.83007353  1
  S  S22  1  0.83224769  0.26852124  0.16992647  1
  S  S23  1  0.09859477  0.16232122  0.33007353  1
  S  S24  1  0.60386895  0.88649179  0.00485284  1
  S  S25  1  0.66775231  0.09859477  0.83007353  1
  S  S26  1  0.59859477  0.16775231  0.33007353  1
  S  S27  1  0.40098389  0.61836106  0.00485284  1
  S  S28  1  0.16775231  0.73147876  0.83007353  1
  S  S29  1  0.66232122  0.59859477  0.83007353  1
  S  S30  1  0.76852124  0.33224769  0.66992647  1
  S  S31  1  0.11350821  0.59901611  0.49514716  1
loop_
_geom_bond_atom_site_label_1
_geom_bond_atom_site_label_2
_geom_bond_distance
_geom_bond_site_symmetry_2
Eu0 S26 3.125270 1_565
Eu0 S16 3.125271 1_555
Eu0 S0 3.125271 1_555
Eu0 S13 3.125271 1_555
Eu0 S27 3.130189 1_555
Eu0 S20 3.130189 1_565
Eu0 S6 3.130189 1_555
Eu0 S24 3.130189 1_555
Eu1 S15 3.125270 1_555
Eu1 S22 3.125270 1_455
Eu1 S23 3.125270 1_555
Eu1 S11 3.125270 1_555
Eu1 S1 3.130189 1_555
Eu1 S7 3.130189 1_555
Eu1 S31 3.130189 1_555
Eu1 S17 3.130189 1_455
Eu2 S13 3.066661 1_455
Eu2 S23 3.066661 1_565
Eu2 S16 3.066661 1_555
Eu2 S15 3.066661 1_555
Eu2 S4 3.206909 1_565
Eu2 S2 3.206909 1_555
Eu2 S19 3.206909 1_454
Eu2 S8 3.206909 1_554
Eu3 S0 3.066661 1_555
Eu3 S26 3.066661 1_555
Eu3 S11 3.066661 1_555
Eu3 S22 3.066661 1_555
Eu3 S9 3.206909 1_554
Eu3 S5 3.206909 1_555
Eu3 S10 3.206909 1_554
Eu3 S12 3.206909 1_555
Eu4 S14 3.066661 1_555
Eu4 S18 3.066661 1_555
Eu4 S29 3.066661 1_555
Eu4 S28 3.066661 1_555
Eu4 S24 3.206909 1_556
Eu4 S7 3.206909 1_555
Eu4 S27 3.206909 1_556
Eu4 S31 3.206909 1_555
Eu5 S21 3.066661 1_655
Eu5 S3 3.066661 1_545
Eu5 S25 3.066661 1_555
Eu5 S30 3.066661 1_555
Eu5 S6 3.206909 1_545
Eu5 S20 3.206909 1_555
Eu5 S1 3.206909 1_656
Eu5 S17 3.206909 1_556
Eu6 S30 3.125270 1_555
Eu6 S28 3.125270 1_655
Eu6 S3 3.125270 1_555
Eu6 S29 3.125270 1_555
Eu6 S19 3.130189 1_555
Eu6 S5 3.130189 1_555
Eu6 S12 3.130189 1_555
Eu6 S8 3.130189 1_655
Eu7 S18 3.125270 1_545
Eu7 S25 3.125271 1_555
Eu7 S14 3.125271 1_555
Eu7 S21 3.125271 1_555
Eu7 S10 3.130189 1_555
Eu7 S2 3.130189 1_545
Eu7 S4 3.130189 1_555
Eu7 S9 3.130189 1_555
Li0 S13 2.429982 1_556
Li0 S29 2.429983 1_555
Li0 S10 2.436039 1_555
Li0 S17 2.436039 1_556
Li1 S30 2.429983 1_555
Li1 S26 2.429983 1_555
Li1 S4 2.436039 1_555
Li1 S7 2.436039 1_555
Li2 S0 2.429983 1_555
Li2 S3 2.429983 1_555
Li2 S2 2.436039 1_655
Li2 S31 2.436039 1_655
Li3 S21 2.429982 1_554
Li3 S11 2.429983 1_555
Li3 S27 2.436039 1_555
Li3 S8 2.436039 1_554
Li4 S28 2.429982 1_554
Li4 S16 2.429983 1_555
Li4 S9 2.436039 1_564
Li4 S1 2.436039 1_565
Li5 S14 2.429983 1_555
Li5 S23 2.429983 1_555
Li5 S20 2.436039 1_455
Li5 S12 2.436039 1_455
Li6 S15 2.429983 1_555
Li6 S18 2.429983 1_555
Li6 S6 2.436039 1_555
Li6 S5 2.436039 1_555
Li7 S22 2.429982 1_556
Li7 S25 2.429983 1_555
Li7 S24 2.436039 1_546
Li7 S19 2.436039 1_545
P0 S25 2.064018 1_554
P0 S22 2.064018 1_555
P0 S17 2.066876 1_555
P0 S10 2.066876 1_554
P1 S16 2.064018 1_556
P1 S28 2.064018 1_555
P1 S8 2.066876 1_555
P1 S27 2.066876 1_556
P2 S26 2.064018 1_555
P2 S30 2.064018 1_555
P2 S12 2.066876 1_555
P2 S20 2.066876 1_555
P3 S23 2.064018 1_555
P3 S14 2.064018 1_555
P3 S7 2.066876 1_555
P3 S4 2.066876 1_555
P4 S29 2.064018 1_554
P4 S13 2.064018 1_555
P4 S19 2.066876 1_554
P4 S24 2.066876 1_555
P5 S3 2.064018 1_555
P5 S0 2.064018 1_555
P5 S5 2.066876 1_555
P5 S6 2.066876 1_555
P6 S18 2.064018 1_555
P6 S15 2.064018 1_555
P6 S31 2.066876 1_555
P6 S2 2.066876 1_555
P7 S11 2.064018 1_556
P7 S21 2.064018 1_555
P7 S1 2.066876 1_556
P7 S9 2.066876 1_555
