# generated using pymatgen
data_Ca4MgB4H6(CO9)2
_symmetry_space_group_name_H-M   'P 1'
_cell_length_a   9.96588739
_cell_length_b   9.96588739
_cell_length_c   4.52442074
_cell_angle_alpha   79.23569119
_cell_angle_beta   79.23569119
_cell_angle_gamma   51.82980457
_symmetry_Int_Tables_number   1
_chemical_formula_structural   Ca4MgB4H6(CO9)2
_chemical_formula_sum   'Ca4 Mg1 B4 H6 C2 O18'
_cell_volume   345.57727744
_cell_formula_units_Z   1
loop_
 _symmetry_equiv_pos_site_id
 _symmetry_equiv_pos_as_xyz
  1  'x, y, z'
loop_
 _atom_site_type_symbol
 _atom_site_label
 _atom_site_symmetry_multiplicity
 _atom_site_fract_x
 _atom_site_fract_y
 _atom_site_fract_z
 _atom_site_occupancy
  Ca  Ca0  1  0.92520000  0.38658200  0.84145200  1
  Ca  Ca1  1  0.38658200  0.92520000  0.84145200  1
  Ca  Ca2  1  0.07480000  0.61341800  0.15854800  1
  Ca  Ca3  1  0.61341800  0.07480000  0.15854800  1
  Mg  Mg0  1  0.00000000  0.00000000  0.00000000  1
  B  B0  1  0.77582000  0.22418000  0.50000000  1
  B  B1  1  0.22418000  0.77582000  0.50000000  1
  B  B2  1  0.09682300  0.09682300  0.38141800  1
  B  B3  1  0.90317700  0.90317700  0.61858200  1
  H  H0  1  0.61947400  0.39330800  0.79448000  1
  H  H1  1  0.39330800  0.61947400  0.79448000  1
  H  H2  1  0.38052600  0.60669200  0.20552000  1
  H  H3  1  0.60669200  0.38052600  0.20552000  1
  H  H4  1  0.21337400  0.21337400  0.30087500  1
  H  H5  1  0.78662600  0.78662600  0.69912500  1
  C  C0  1  0.30499900  0.30499900  0.75133500  1
  C  C1  1  0.69500100  0.69500100  0.24866500  1
  O  O0  1  0.10109800  0.10109800  0.68943700  1
  O  O1  1  0.89890200  0.89890200  0.31056300  1
  O  O2  1  0.91980400  0.19175700  0.27981100  1
  O  O3  1  0.19175700  0.91980400  0.27981100  1
  O  O4  1  0.08019600  0.80824300  0.72018900  1
  O  O5  1  0.80824300  0.08019600  0.72018900  1
  O  O6  1  0.72307500  0.36525500  0.67394000  1
  O  O7  1  0.36525500  0.72307500  0.67394000  1
  O  O8  1  0.27692500  0.63474500  0.32606000  1
  O  O9  1  0.63474500  0.27692500  0.32606000  1
  O  O10  1  0.84605100  0.58480200  0.35085200  1
  O  O11  1  0.58480200  0.84605100  0.35085200  1
  O  O12  1  0.15394900  0.41519800  0.64914800  1
  O  O13  1  0.41519800  0.15394900  0.64914800  1
  O  O14  1  0.17509500  0.17509500  0.17586700  1
  O  O15  1  0.82490500  0.82490500  0.82413300  1
  O  O16  1  0.34342100  0.34342100  0.96470000  1
  O  O17  1  0.65657900  0.65658000  0.03530000  1
loop_
_geom_bond_atom_site_label_1
_geom_bond_atom_site_label_2
_geom_bond_distance
_geom_bond_site_symmetry_2
Ca0 O0 2.399319 1_655
Ca0 O6 2.415952 1_555
Ca0 O12 2.450568 1_655
Ca0 O17 2.505442 1_556
Ca0 O2 2.521321 1_556
Ca0 O10 2.557674 1_555
Ca0 O14 2.581149 1_656
Ca0 O10 2.988650 1_556
Ca1 O0 2.399319 1_565
Ca1 O7 2.415952 1_555
Ca1 O13 2.450568 1_565
Ca1 O17 2.505434 1_556
Ca1 O3 2.521321 1_556
Ca1 O11 2.557674 1_555
Ca1 O14 2.581149 1_566
Ca1 O11 2.988650 1_556
Ca2 O1 2.399319 1_455
Ca2 O8 2.415952 1_555
Ca2 O10 2.450568 1_455
Ca2 O16 2.505437 1_554
Ca2 O4 2.521321 1_554
Ca2 O12 2.557674 1_555
Ca2 O15 2.581149 1_454
Ca2 O12 2.988650 1_554
Ca3 O1 2.399319 1_545
Ca3 O9 2.415952 1_555
Ca3 O11 2.450568 1_545
Ca3 O16 2.505437 1_554
Ca3 O5 2.521321 1_554
Ca3 O13 2.557674 1_555
Ca3 O15 2.581149 1_544
Ca3 O13 2.988650 1_554
Mg0 O1 2.049791 1_445
Mg0 O0 2.049791 1_554
Mg0 O3 2.128726 1_545
Mg0 O2 2.128726 1_455
Mg0 O4 2.128726 1_544
Mg0 O5 2.128726 1_454
B0 O5 1.472780 1_555
B0 O2 1.472780 1_555
B0 O9 1.489173 1_555
B0 O6 1.489173 1_555
B1 O4 1.472780 1_555
B1 O3 1.472780 1_555
B1 O8 1.489173 1_555
B1 O7 1.489173 1_555
B2 O0 1.411514 1_555
B2 O14 1.513925 1_555
B2 O2 1.515317 1_455
B2 O3 1.515317 1_545
B3 O1 1.411514 1_555
B3 O15 1.513925 1_555
B3 O4 1.515317 1_655
B3 O5 1.515317 1_565
H0 O6 0.965114 1_555
H1 O7 0.965114 1_555
H2 O8 0.965114 1_555
H3 O9 0.965114 1_555
H4 O14 0.975714 1_555
H5 O15 0.975714 1_555
C0 O16 1.297119 1_555
C0 O12 1.308766 1_555
C0 O13 1.308766 1_555
C1 O17 1.297113 1_555
C1 O10 1.308766 1_555
C1 O11 1.308766 1_555
