# generated using pymatgen
data_NdPb4F11
_symmetry_space_group_name_H-M   'P 1'
_cell_length_a   4.13800461
_cell_length_b   4.13800461
_cell_length_c   17.64880758
_cell_angle_alpha   83.54632014
_cell_angle_beta   83.54632014
_cell_angle_gamma   61.39162823
_symmetry_Int_Tables_number   1
_chemical_formula_structural   NdPb4F11
_chemical_formula_sum   'Nd1 Pb4 F11'
_cell_volume   263.03073906
_cell_formula_units_Z   1
loop_
 _symmetry_equiv_pos_site_id
 _symmetry_equiv_pos_as_xyz
  1  'x, y, z'
loop_
 _atom_site_type_symbol
 _atom_site_label
 _atom_site_symmetry_multiplicity
 _atom_site_fract_x
 _atom_site_fract_y
 _atom_site_fract_z
 _atom_site_occupancy
  Nd  Nd0  1  0.60558300  0.60558300  0.19004100  1
  Pb  Pb0  1  0.04595900  0.04595900  0.99955600  1
  Pb  Pb1  1  0.43870100  0.43870100  0.79935600  1
  Pb  Pb2  1  0.81843100  0.81843100  0.59768600  1
  Pb  Pb3  1  0.20833800  0.20833800  0.39389300  1
  F  F0  1  0.39226600  0.39226600  0.94476800  1
  F  F1  1  0.08701500  0.08701500  0.85403500  1
  F  F2  1  0.16898800  0.16898800  0.54795600  1
  F  F3  1  0.78893600  0.78893600  0.74847300  1
  F  F4  1  0.46978100  0.46978100  0.64963000  1
  F  F5  1  0.56273700  0.56273700  0.33233800  1
  F  F6  1  0.85618900  0.85618900  0.44445200  1
  F  F7  1  0.94816400  0.94816400  0.18682400  1
  F  F8  1  0.25385900  0.25385900  0.25730200  1
  F  F9  1  0.32317400  0.32317400  0.11835100  1
  F  F10  1  0.68388000  0.68388000  0.05133900  1
loop_
_geom_bond_atom_site_label_1
_geom_bond_atom_site_label_2
_geom_bond_distance
_geom_bond_site_symmetry_2
F0 Pb0 2.526983 1_555
F0 Pb1 2.544334 1_555
F0 Pb0 2.621041 1_655
F0 Pb0 2.621041 1_565
F1 Pb0 2.546609 1_555
F1 Pb1 2.561962 1_555
F1 Pb1 2.602625 1_545
F1 Pb1 2.602625 1_455
F2 Pb2 2.534076 1_445
F2 Pb2 2.570502 1_455
F2 Pb2 2.570502 1_545
F2 Pb3 2.696753 1_555
F3 Pb1 2.536437 1_555
F3 Pb1 2.579668 1_565
F3 Pb1 2.579668 1_655
F3 Pb2 2.641982 1_555
F4 Pb2 2.530197 1_555
F4 Pb2 2.592443 1_545
F4 Pb2 2.592443 1_455
F4 Pb1 2.622757 1_555
F5 Nd0 2.489935 1_555
F5 Pb3 2.612417 1_555
F5 Pb3 2.647682 1_565
F5 Pb3 2.647682 1_655
F6 Pb3 2.547923 1_665
F6 Pb3 2.571154 1_655
F6 Pb3 2.571154 1_565
F6 Pb2 2.682535 1_555
F7 Nd0 2.395193 1_655
F7 Nd0 2.395193 1_565
F7 Nd0 2.431192 1_555
F8 Pb3 2.390001 1_555
F8 Nd0 2.626313 1_555
F8 Nd0 2.704102 1_455
F8 Nd0 2.704102 1_545
F9 Nd0 2.510917 1_555
F9 Nd0 2.819314 1_545
F9 Nd0 2.819314 1_455
F10 Nd0 2.438488 1_555
F10 Pb0 2.548567 1_654
F10 Pb0 2.548567 1_564
F10 Pb0 2.618983 1_664
