# generated using pymatgen
data_Co(Bi5O8)5
_symmetry_space_group_name_H-M   'P 1'
_cell_length_a   8.97603890
_cell_length_b   8.97603853
_cell_length_c   53.84457858
_cell_angle_alpha   109.48157051
_cell_angle_beta   109.46903305
_cell_angle_gamma   109.47182109
_symmetry_Int_Tables_number   1
_chemical_formula_structural   Co(Bi5O8)5
_chemical_formula_sum   'Co3 Bi75 O120'
_cell_volume   3339.20088091
_cell_formula_units_Z   3
loop_
 _symmetry_equiv_pos_site_id
 _symmetry_equiv_pos_as_xyz
  1  'x, y, z'
loop_
 _atom_site_type_symbol
 _atom_site_label
 _atom_site_symmetry_multiplicity
 _atom_site_fract_x
 _atom_site_fract_y
 _atom_site_fract_z
 _atom_site_occupancy
  Co  Co0  1  0.99976600  0.99977341  0.33332749  1
  Co  Co1  1  -0.00011267  -0.00011267  0.16666700  1
  Co  Co2  1  -0.00019351  -0.00020093  0.00000551  1
  Bi  Bi0  1  0.16622880  0.86530453  0.94550558  1
  Bi  Bi1  1  0.13830446  0.30441002  0.96818124  1
  Bi  Bi2  1  0.19487060  0.50335210  0.88967966  1
  Bi  Bi3  1  0.30975105  0.80786873  0.85732641  1
  Bi  Bi4  1  0.16597166  0.85872285  0.77768676  1
  Bi  Bi5  1  0.50419628  0.69800471  0.97298215  1
  Bi  Bi6  1  0.00049296  0.00046600  0.83343740  1
  Bi  Bi7  1  0.33643010  0.19624936  0.91757799  1
  Bi  Bi8  1  0.14172780  0.30750501  0.80132110  1
  Bi  Bi9  1  0.19256078  0.50044199  0.72238159  1
  Bi  Bi10  1  0.69920112  0.83702897  0.91809329  1
  Bi  Bi11  1  0.30785423  0.80742992  0.69030808  1
  Bi  Bi12  1  0.50174383  0.33588992  0.86602523  1
  Bi  Bi13  1  0.16615445  0.85827323  0.61095241  1
  Bi  Bi14  1  0.67032623  0.16541773  0.97757446  1
  Bi  Bi15  1  0.49966340  0.69184151  0.80560632  1
  Bi  Bi16  1  0.00006195  0.00006195  0.66666700  1
  Bi  Bi17  1  0.33438034  0.19255473  0.75008749  1
  Bi  Bi18  1  0.14174049  0.30791650  0.63453507  1
  Bi  Bi19  1  0.83644100  0.50559478  0.94989314  1
  Bi  Bi20  1  0.86142660  0.66806052  0.86164805  1
  Bi  Bi21  1  0.69220255  0.83385314  0.74993093  1
  Bi  Bi22  1  0.19260032  0.49984913  0.55564624  1
  Bi  Bi23  1  0.16527212  0.85679061  0.44365334  1
  Bi  Bi24  1  0.50070407  0.33452806  0.69879793  1
  Bi  Bi25  1  0.30653427  0.80599700  0.52332699  1
  Bi  Bi26  1  0.80709875  0.14148815  0.88499849  1
  Bi  Bi27  1  0.49955042  0.69222851  0.63899721  1
  Bi  Bi28  1  0.66603709  0.16657436  0.81000701  1
  Bi  Bi29  1  0.99983963  0.99986659  0.49989560  1
  Bi  Bi30  1  0.33426557  0.19261499  0.58340207  1
  Bi  Bi31  1  0.13974055  0.30559445  0.46730877  1
  Bi  Bi32  1  0.83428012  0.49985556  0.78223451  1
  Bi  Bi33  1  0.85824722  0.66556914  0.69433679  1
  Bi  Bi34  1  0.19227104  0.49319531  0.38782742  1
  Bi  Bi35  1  0.69203180  0.83385741  0.58324651  1
  Bi  Bi36  1  0.29996899  0.80487749  0.35575854  1
  Bi  Bi37  1  0.49957842  0.33380122  0.53201190  1
  Bi  Bi38  1  0.16595672  0.86304783  0.27810596  1
  Bi  Bi39  1  0.80752647  0.14184514  0.71799035  1
  Bi  Bi40  1  0.66557943  0.16600374  0.64302492  1
  Bi  Bi41  1  0.49817025  0.69153633  0.47168495  1
  Bi  Bi42  1  0.32846922  0.19064137  0.41523971  1
  Bi  Bi43  1  0.13665784  0.30305336  0.30088483  1
  Bi  Bi44  1  0.83390103  0.49958237  0.61534265  1
  Bi  Bi45  1  0.85820160  0.66602349  0.52772668  1
  Bi  Bi46  1  0.19487219  0.49743405  0.22192106  1
  Bi  Bi47  1  0.69077945  0.83096019  0.41575501  1
  Bi  Bi48  1  0.49532460  0.32921904  0.36515276  1
  Bi  Bi49  1  0.30274290  0.80545711  0.18946394  1
  Bi  Bi50  1  0.16590966  0.86334781  0.11141294  1
  Bi  Bi51  1  0.80645051  0.14087507  0.55109949  1
  Bi  Bi52  1  0.66391029  0.16579261  0.47600659  1
  Bi  Bi53  1  0.50305111  0.69839543  0.30585909  1
  Bi  Bi54  1  0.33123139  0.19462079  0.24950712  1
  Bi  Bi55  1  0.83149718  0.49710778  0.44833451  1
  Bi  Bi56  1  0.13694137  0.30280599  0.13428743  1
  Bi  Bi57  1  0.19441004  0.49731893  0.05522704  1
  Bi  Bi58  1  0.86011180  0.66630338  0.36035085  1
  Bi  Bi59  1  0.69769236  0.83434735  0.25054611  1
  Bi  Bi60  1  0.49707940  0.33121478  0.19904557  1
  Bi  Bi61  1  0.30359824  0.80680906  0.02309264  1
  Bi  Bi62  1  0.80623396  0.13708018  0.38343986  1
  Bi  Bi63  1  0.66825521  0.16504438  0.31024136  1
  Bi  Bi64  1  0.50293570  0.69725858  0.13905905  1
  Bi  Bi65  1  0.33106872  0.19441372  0.08278689  1
  Bi  Bi66  1  0.83367868  0.50254646  0.28267331  1
  Bi  Bi67  1  0.86290626  0.66858338  0.19427495  1
  Bi  Bi68  1  0.69758006  0.83419066  0.08382688  1
  Bi  Bi69  1  0.49774439  0.33134887  0.03244817  1
  Bi  Bi70  1  0.80556611  0.13673186  0.21712932  1
  Bi  Bi71  1  0.66867146  0.16595725  0.14386906  1
  Bi  Bi72  1  0.83395391  0.50278816  0.11620368  1
  Bi  Bi73  1  0.86323889  0.66789457  0.02747391  1
  Bi  Bi74  1  0.80650858  0.13764079  0.05066069  1
  O  O0  1  0.25812394  0.64625128  0.97946377  1
  O  O1  1  0.12377910  0.76298047  0.89749759  1
  O  O2  1  0.00068719  0.62610129  0.83390090  1
  O  O3  1  0.00283084  0.00307238  0.93557358  1
  O  O4  1  0.23976630  0.36226934  0.93727117  1
  O  O5  1  0.00017980  0.24062877  0.83349032  1
  O  O6  1  0.00151401  0.00031469  0.87352952  1
  O  O7  1  0.39405043  0.74835693  0.93733901  1
  O  O8  1  0.25603204  0.64070305  0.81321595  1
  O  O9  1  0.38435540  0.12695829  0.96200040  1
  O  O10  1  0.12328437  0.76306624  0.72973173  1
  O  O11  1  0.36103398  0.61597019  0.87328406  1
  O  O12  1  0.37685407  0.37687781  0.89664752  1
  O  O13  1  0.00011664  0.00020661  0.77077801  1
  O  O14  1  -0.00001117  0.62508148  0.66664279  1
  O  O15  1  0.24128456  0.00199232  0.83348598  1
  O  O16  1  0.62300740  0.39392334  0.95836524  1
  O  O17  1  0.23744289  0.36060427  0.76929528  1
  O  O18  1  0.79867436  0.79729925  0.96633881  1
  O  O19  1  0.99985852  0.23938749  0.66667761  1
  O  O20  1  0.99990947  0.99998037  0.70653107  1
  O  O21  1  0.38574011  0.74543420  0.77053791  1
  O  O22  1  0.64100784  0.87901986  0.87712535  1
  O  O23  1  0.25489546  0.64003717  0.64615717  1
  O  O24  1  0.61631709  0.23812782  0.89378337  1
  O  O25  1  0.37794167  0.12317724  0.79387670  1
  O  O26  1  0.74871633  0.62287983  0.89916712  1
  O  O27  1  0.12220677  0.76251267  0.56279509  1
  O  O28  1  0.36008364  0.61500438  0.70619619  1
  O  O29  1  0.37485769  0.37485104  0.72917373  1
  O  O30  1  -0.00019334  0.99981331  0.60415927  1
  O  O31  1  0.99722849  0.62275023  0.49948223  1
  O  O32  1  0.23932382  0.99979486  0.66665639  1
  O  O33  1  0.62244281  0.38506929  0.79094613  1
  O  O34  1  0.23697709  0.35968696  0.60241315  1
  O  O35  1  0.87631412  0.25869789  0.94103117  1
  O  O36  1  0.76020842  0.76013454  0.79340474  1
  O  O37  1  0.00107446  0.24036670  0.49984702  1
  O  O38  1  0.99970411  0.99977800  0.53992826  1
  O  O39  1  0.62585688  0.00033514  0.83385077  1
  O  O40  1  0.38467584  0.74489397  0.60360127  1
  O  O41  1  0.76264213  0.37896770  0.85413868  1
  O  O42  1  0.63995006  0.87710892  0.70918022  1
  O  O43  1  0.25413764  0.63781207  0.47919532  1
  O  O44  1  0.61568238  0.23789349  0.72682274  1
  O  O45  1  0.37782924  0.12290850  0.62713781  1
  O  O46  1  0.74520604  0.62249616  0.73091985  1
  O  O47  1  0.12432489  0.77001839  0.39599499  1
  O  O48  1  0.35991505  0.61467948  0.53945630  1
  O  O49  1  0.37554055  0.37545057  0.56255599  1
  O  O50  1  0.99699269  0.99696895  0.43668548  1
  O  O51  1  0.99908463  0.60689064  0.33276898  1
  O  O52  1  0.23968487  0.99923589  0.49984268  1
  O  O53  1  0.62202957  0.38487071  0.62415378  1
  O  O54  1  0.22787911  0.35371561  0.43416688  1
  O  O55  1  0.87755310  0.25521941  0.77347791  1
  O  O56  1  0.76079597  0.76072507  0.62680293  1
  O  O57  1  0.00020059  0.20256750  0.33327654  1
  O  O58  1  0.99926641  0.00064152  0.36699419  1
  O  O59  1  0.62522674  0.00013409  0.66669121  1
  O  O60  1  0.37799692  0.73879555  0.43583641  1
  O  O61  1  0.76309213  0.37795043  0.68717583  1
  O  O62  1  0.63939051  0.87676403  0.54238687  1
  O  O63  1  0.25624676  0.64330942  0.31211591  1
  O  O64  1  0.37626382  0.12132760  0.46004894  1
  O  O65  1  0.61435195  0.23668564  0.55985509  1
  O  O66  1  0.74483261  0.62167123  0.56403772  1
  O  O67  1  0.35495587  0.61235297  0.37133260  1
  O  O68  1  0.12483992  0.76892829  0.23035234  1
  O  O69  1  0.38962891  0.38938738  0.39775942  1
  O  O70  1  -0.00011550  -0.00022691  0.26815231  1
  O  O71  1  0.00022274  0.60929054  0.16670234  1
  O  O72  1  0.20201297  0.99837205  0.33335279  1
  O  O73  1  0.61626573  0.37825372  0.45620765  1
  O  O74  1  0.23059561  0.35556299  0.26879143  1
  O  O75  1  0.87695704  0.25474593  0.60651026  1
  O  O76  1  0.75913559  0.76033491  0.45980348  1
  O  O77  1  0.99990835  0.20150004  0.16661940  1
  O  O78  1  -0.00002498  0.00009070  0.20025398  1
  O  O79  1  0.62269387  0.99727976  0.49943210  1
  O  O80  1  0.38548827  0.74212521  0.26936488  1
  O  O81  1  0.76140735  0.37673633  0.52011705  1
  O  O82  1  0.64373189  0.87281595  0.37496776  1
  O  O83  1  0.25780954  0.64411467  0.14584200  1
  O  O84  1  0.38239125  0.12500464  0.29474038  1
  O  O85  1  0.61251289  0.23012913  0.39230283  1
  O  O86  1  0.73864433  0.61614129  0.39606283  1
  O  O87  1  0.12593590  0.76929897  0.06396812  1
  O  O88  1  0.35598009  0.61378173  0.20511832  1
  O  O89  1  0.39080599  0.39088394  0.23176615  1
  O  O90  1  0.00284158  0.61023011  0.00048987  1
  O  O91  1  0.00028505  0.00020711  0.10156685  1
  O  O92  1  0.20178565  0.00019396  0.16671460  1
  O  O93  1  0.61684359  0.38589834  0.29028024  1
  O  O94  1  0.23123377  0.35653947  0.10239544  1
  O  O95  1  0.87542959  0.25361886  0.43955063  1
  O  O96  1  0.79692831  0.79702787  0.29947671  1
  O  O97  1  0.99825331  0.20189423  0.99998021  1
  O  O98  1  0.00016559  0.00006602  0.03385629  1
  O  O99  1  0.60729087  -0.00009765  0.33284313  1
  O  O100  1  0.38681427  0.74272590  0.10298066  1
  O  O101  1  0.76947067  0.38134333  0.35387023  1
  O  O102  1  0.64394013  0.87502542  0.20954007  1
  O  O103  1  0.38307380  0.12527217  0.12821568  1
  O  O104  1  0.61335244  0.23045320  0.22589961  1
  O  O105  1  0.74216482  0.61685912  0.23093756  1
  O  O106  1  0.35656035  0.61394696  0.03859262  1
  O  O107  1  0.39086122  0.39097262  0.06518169  1
  O  O108  1  0.20290627  0.00053936  0.00005646  1
  O  O109  1  0.61778703  0.38670174  0.12379393  1
  O  O110  1  0.87426002  0.25693314  0.27375571  1
  O  O111  1  0.79856881  0.79845312  0.13308002  1
  O  O112  1  0.60907847  0.00001067  0.16663166  1
  O  O113  1  0.76906065  0.38275552  0.18749100  1
  O  O114  1  0.64421491  0.87516016  0.04305276  1
  O  O115  1  0.61439888  0.23172576  0.05957729  1
  O  O116  1  0.74281443  0.61784705  0.06454157  1
  O  O117  1  0.87505553  0.25795477  0.10743339  1
  O  O118  1  0.61027477  0.00246876  0.00056402  1
  O  O119  1  0.77061397  0.38355130  0.02121709  1
loop_
_geom_bond_atom_site_label_1
_geom_bond_atom_site_label_2
_geom_bond_distance
_geom_bond_site_symmetry_2
Co0 O58 1.811694 1_565
Co0 O72 1.819159 1_655
Co0 O57 1.819910 1_665
Co0 O96 1.820810 1_555
Co1 O78 1.807606 1_555
Co1 O111 1.807607 1_445
Co1 O77 1.810477 1_455
Co1 O92 1.810477 1_555
Co2 O18 1.811694 1_444
Co2 O97 1.819159 1_454
Co2 O108 1.819910 1_555
Co2 O98 1.820810 1_555
Bi0 O9 2.126513 1_565
Bi0 O3 2.256930 1_565
Bi0 O1 2.279768 1_555
Bi0 O108 2.630627 1_566
Bi0 O7 2.683225 1_555
Bi1 O35 2.121471 1_455
Bi1 O3 2.256943 1_555
Bi1 O4 2.267328 1_555
Bi1 O0 2.657396 1_555
Bi1 O97 2.659544 1_455
Bi2 O11 2.119797 1_555
Bi2 O7 2.274705 1_555
Bi2 O12 2.282474 1_555
Bi2 O1 2.555675 1_555
Bi2 O5 2.595741 1_555
Bi3 O8 2.121849 1_555
Bi3 O11 2.273606 1_555
Bi3 O2 2.286090 1_555
Bi3 O22 2.559728 1_555
Bi3 O15 2.596470 1_565
Bi4 O25 2.125515 1_565
Bi4 O13 2.274617 1_565
Bi4 O10 2.278978 1_555
Bi4 O15 2.574311 1_565
Bi4 O21 2.579921 1_555
Bi5 O7 2.115815 1_555
Bi5 O0 2.270270 1_555
Bi5 O118 2.279529 1_566
Bi5 O4 2.595491 1_555
Bi5 O18 2.679810 1_555
Bi6 O5 2.155702 1_555
Bi6 O15 2.155949 1_555
Bi6 O6 2.156162 1_555
Bi6 O36 2.156213 1_445
Bi7 O4 2.125852 1_555
Bi7 O12 2.264868 1_555
Bi7 O16 2.276072 1_555
Bi7 O6 2.587620 1_555
Bi7 O9 2.603434 1_555
Bi8 O55 2.123604 1_455
Bi8 O13 2.274205 1_555
Bi8 O17 2.280721 1_555
Bi8 O5 2.574294 1_555
Bi8 O8 2.578039 1_555
Bi9 O28 2.125665 1_555
Bi9 O29 2.277704 1_555
Bi9 O21 2.285475 1_555
Bi9 O10 2.572802 1_555
Bi9 O19 2.574970 1_455
Bi10 O26 2.120341 1_555
Bi10 O3 2.276249 1_665
Bi10 O22 2.280056 1_555
Bi10 O11 2.623277 1_555
Bi10 O18 2.637576 1_555
Bi11 O23 2.126750 1_555
Bi11 O14 2.277124 1_555
Bi11 O28 2.278818 1_555
Bi11 O42 2.573619 1_555
Bi11 O32 2.575706 1_555
Bi12 O24 2.124483 1_555
Bi12 O12 2.283239 1_555
Bi12 O26 2.285682 1_555
Bi12 O41 2.569790 1_555
Bi12 O15 2.571694 1_555
Bi13 O45 2.125665 1_565
Bi13 O30 2.277710 1_555
Bi13 O27 2.285519 1_555
Bi13 O40 2.572811 1_555
Bi13 O32 2.574970 1_555
Bi14 O119 2.124150 1_556
Bi14 O118 2.255874 1_556
Bi14 O9 2.278719 1_555
Bi14 O97 2.636978 1_555
Bi14 O16 2.675834 1_555
Bi15 O21 2.118785 1_555
Bi15 O8 2.283504 1_555
Bi15 O39 2.283692 1_565
Bi15 O17 2.567496 1_555
Bi15 O36 2.571734 1_555
Bi16 O20 2.147165 1_445
Bi16 O56 2.147165 1_445
Bi16 O32 2.148614 1_545
Bi16 O19 2.148614 1_455
Bi17 O17 2.129881 1_555
Bi17 O29 2.276617 1_555
Bi17 O33 2.281512 1_555
Bi17 O25 2.574317 1_555
Bi17 O20 2.577648 1_445
Bi18 O75 2.127503 1_455
Bi18 O30 2.278473 1_545
Bi18 O34 2.279261 1_555
Bi18 O23 2.573650 1_555
Bi18 O19 2.579277 1_455
Bi19 O16 2.119053 1_555
Bi19 O90 2.276121 1_656
Bi19 O35 2.281320 1_555
Bi19 O24 2.610704 1_555
Bi19 O18 2.645781 1_555
Bi20 O1 2.129030 1_655
Bi20 O2 2.262732 1_655
Bi20 O41 2.282644 1_555
Bi20 O6 2.564315 1_665
Bi20 O26 2.627645 1_555
Bi21 O46 2.122362 1_555
Bi21 O42 2.277917 1_555
Bi21 O13 2.278392 1_665
Bi21 O28 2.573333 1_555
Bi21 O36 2.576797 1_555
Bi22 O48 2.125515 1_555
Bi22 O49 2.274623 1_555
Bi22 O40 2.278985 1_555
Bi22 O37 2.574311 1_555
Bi22 O27 2.579927 1_555
Bi23 O64 2.119797 1_565
Bi23 O47 2.274668 1_555
Bi23 O50 2.282475 1_455
Bi23 O60 2.555672 1_555
Bi23 O52 2.595741 1_555
Bi24 O44 2.127503 1_555
Bi24 O29 2.278460 1_555
Bi24 O46 2.279262 1_555
Bi24 O61 2.573650 1_555
Bi24 O32 2.579245 1_545
Bi25 O43 2.129718 1_555
Bi25 O48 2.280093 1_555
Bi25 O31 2.287519 1_455
Bi25 O52 2.572668 1_555
Bi25 O62 2.576675 1_555
Bi26 O22 2.126884 1_545
Bi26 O39 2.269003 1_555
Bi26 O24 2.272740 1_555
Bi26 O6 2.589028 1_655
Bi26 O35 2.606343 1_555
Bi27 O40 2.129550 1_555
Bi27 O59 2.277236 1_565
Bi27 O23 2.278070 1_555
Bi27 O34 2.576427 1_555
Bi27 O56 2.577275 1_555
Bi28 O41 2.129718 1_555
Bi28 O25 2.280101 1_555
Bi28 O39 2.287490 1_555
Bi28 O5 2.572656 1_655
Bi28 O33 2.576695 1_555
Bi29 O52 2.155702 1_655
Bi29 O37 2.155949 1_665
Bi29 O76 2.156162 1_555
Bi29 O38 2.156213 1_555
Bi30 O34 2.122359 1_555
Bi30 O53 2.277957 1_555
Bi30 O49 2.278382 1_555
Bi30 O45 2.573360 1_555
Bi30 O38 2.576797 1_445
Bi31 O95 2.124483 1_455
Bi31 O50 2.283259 1_445
Bi31 O54 2.285682 1_555
Bi31 O43 2.569790 1_555
Bi31 O37 2.571677 1_555
Bi32 O33 2.123192 1_555
Bi32 O55 2.279281 1_555
Bi32 O2 2.292021 1_655
Bi32 O44 2.573551 1_555
Bi32 O36 2.574270 1_555
Bi33 O10 2.129515 1_655
Bi33 O14 2.277236 1_655
Bi33 O61 2.278084 1_555
Bi33 O46 2.576408 1_555
Bi33 O20 2.577275 1_555
Bi34 O67 2.126512 1_555
Bi34 O69 2.256929 1_555
Bi34 O60 2.279805 1_555
Bi34 O57 2.630628 1_555
Bi34 O47 2.683227 1_555
Bi35 O66 2.129897 1_555
Bi35 O30 2.276591 1_655
Bi35 O62 2.281541 1_555
Bi35 O48 2.574356 1_555
Bi35 O56 2.577647 1_555
Bi36 O63 2.124150 1_555
Bi36 O51 2.255857 1_455
Bi36 O67 2.278708 1_555
Bi36 O72 2.636987 1_555
Bi36 O82 2.675846 1_555
Bi37 O65 2.123604 1_555
Bi37 O49 2.274237 1_555
Bi37 O66 2.280722 1_555
Bi37 O52 2.574311 1_545
Bi37 O81 2.578039 1_555
Bi38 O84 2.120170 1_565
Bi38 O70 2.267444 1_565
Bi38 O68 2.274207 1_555
Bi38 O80 2.643104 1_555
Bi38 O72 2.667450 1_555
Bi39 O42 2.126921 1_545
Bi39 O59 2.276208 1_555
Bi39 O44 2.279674 1_555
Bi39 O20 2.576114 1_545
Bi39 O55 2.578914 1_555
Bi40 O61 2.126750 1_555
Bi40 O59 2.277135 1_555
Bi40 O45 2.278799 1_555
Bi40 O53 2.573610 1_555
Bi40 O19 2.575730 1_555
Bi41 O60 2.129001 1_555
Bi41 O79 2.262731 1_555
Bi41 O43 2.282642 1_555
Bi41 O76 2.564315 1_555
Bi41 O54 2.627610 1_555
Bi42 O54 2.120359 1_555
Bi42 O69 2.276232 1_555
Bi42 O73 2.280045 1_555
Bi42 O64 2.623288 1_555
Bi42 O58 2.637576 1_455
Bi43 O110 2.122680 1_455
Bi43 O70 2.270130 1_555
Bi43 O74 2.273518 1_555
Bi43 O63 2.644897 1_555
Bi43 O57 2.663179 1_555
Bi44 O53 2.126919 1_555
Bi44 O14 2.276251 1_655
Bi44 O75 2.279667 1_555
Bi44 O56 2.576125 1_555
Bi44 O65 2.578908 1_555
Bi45 O27 2.118793 1_655
Bi45 O81 2.283488 1_555
Bi45 O31 2.283691 1_555
Bi45 O66 2.567480 1_555
Bi45 O38 2.571734 1_555
Bi46 O88 2.120364 1_555
Bi46 O80 2.261856 1_555
Bi46 O89 2.264255 1_555
Bi46 O68 2.648309 1_555
Bi46 O77 2.671446 1_455
Bi47 O86 2.125832 1_555
Bi47 O50 2.264884 1_555
Bi47 O82 2.276083 1_555
Bi47 O76 2.587620 1_555
Bi47 O67 2.603423 1_555
Bi48 O85 2.121470 1_555
Bi48 O69 2.256921 1_555
Bi48 O86 2.267328 1_555
Bi48 O101 2.657396 1_555
Bi48 O72 2.659559 1_545
Bi49 O83 2.118281 1_555
Bi49 O71 2.265075 1_555
Bi49 O88 2.268440 1_555
Bi49 O102 2.646866 1_555
Bi49 O92 2.668571 1_565
Bi50 O103 2.120364 1_565
Bi50 O87 2.261900 1_555
Bi50 O91 2.264263 1_565
Bi50 O100 2.648318 1_555
Bi50 O92 2.671445 1_565
Bi51 O62 2.123210 1_545
Bi51 O65 2.279270 1_555
Bi51 O79 2.292065 1_545
Bi51 O75 2.573506 1_555
Bi51 O38 2.574276 1_545
Bi52 O81 2.121849 1_555
Bi52 O64 2.273617 1_555
Bi52 O79 2.286107 1_545
Bi52 O73 2.559716 1_555
Bi52 O37 2.596459 1_655
Bi53 O80 2.130090 1_555
Bi53 O99 2.256899 1_565
Bi53 O63 2.268037 1_555
Bi53 O74 2.658259 1_555
Bi53 O96 2.666540 1_555
Bi54 O74 2.115604 1_555
Bi54 O89 2.266464 1_555
Bi54 O93 2.267059 1_555
Bi54 O84 2.644660 1_555
Bi54 O78 2.667694 1_555
Bi55 O73 2.126903 1_555
Bi55 O31 2.269004 1_555
Bi55 O95 2.272736 1_555
Bi55 O76 2.589023 1_555
Bi55 O85 2.606305 1_555
Bi56 O117 2.119827 1_455
Bi56 O91 2.265482 1_555
Bi56 O94 2.268678 1_555
Bi56 O83 2.648130 1_555
Bi56 O77 2.666116 1_455
Bi57 O106 2.120170 1_555
Bi57 O107 2.267454 1_555
Bi57 O100 2.274214 1_555
Bi57 O87 2.643110 1_555
Bi57 O97 2.667450 1_454
Bi58 O47 2.115844 1_655
Bi58 O101 2.270272 1_555
Bi58 O51 2.279529 1_555
Bi58 O86 2.595525 1_555
Bi58 O58 2.679810 1_565
Bi59 O105 2.123864 1_555
Bi59 O70 2.263383 1_665
Bi59 O102 2.277328 1_555
Bi59 O88 2.651580 1_555
Bi59 O96 2.658993 1_555
Bi60 O104 2.119827 1_555
Bi60 O89 2.265470 1_555
Bi60 O105 2.268678 1_555
Bi60 O113 2.648130 1_555
Bi60 O92 2.666083 1_555
Bi61 O0 2.114865 1_554
Bi61 O90 2.254837 1_555
Bi61 O106 2.273157 1_555
Bi61 O114 2.645444 1_555
Bi61 O108 2.668049 1_565
Bi62 O82 2.119034 1_545
Bi62 O99 2.276119 1_555
Bi62 O85 2.281324 1_555
Bi62 O95 2.610743 1_555
Bi62 O58 2.645787 1_555
Bi63 O101 2.114865 1_555
Bi63 O99 2.254809 1_555
Bi63 O84 2.273165 1_555
Bi63 O93 2.645464 1_555
Bi63 O57 2.668037 1_655
Bi64 O100 2.118831 1_555
Bi64 O112 2.266429 1_565
Bi64 O83 2.270293 1_555
Bi64 O94 2.643722 1_555
Bi64 O111 2.669821 1_555
Bi65 O94 2.123862 1_555
Bi65 O107 2.263376 1_555
Bi65 O109 2.277368 1_555
Bi65 O103 2.651607 1_555
Bi65 O98 2.658993 1_555
Bi66 O93 2.123924 1_555
Bi66 O51 2.252921 1_555
Bi66 O110 2.273665 1_555
Bi66 O104 2.644050 1_555
Bi66 O96 2.664473 1_555
Bi67 O68 2.118794 1_655
Bi67 O71 2.266429 1_655
Bi67 O113 2.270307 1_555
Bi67 O105 2.643703 1_555
Bi67 O78 2.669821 1_665
Bi68 O116 2.115621 1_555
Bi68 O91 2.266440 1_665
Bi68 O114 2.267088 1_555
Bi68 O106 2.644699 1_555
Bi68 O111 2.667694 1_555
Bi69 O115 2.122680 1_555
Bi69 O107 2.270164 1_555
Bi69 O116 2.273519 1_555
Bi69 O119 2.644897 1_555
Bi69 O108 2.663197 1_555
Bi70 O102 2.117167 1_545
Bi70 O112 2.268127 1_555
Bi70 O104 2.270064 1_555
Bi70 O110 2.636257 1_555
Bi70 O78 2.667494 1_655
Bi71 O113 2.118281 1_555
Bi71 O112 2.265086 1_555
Bi71 O103 2.268422 1_555
Bi71 O109 2.646857 1_555
Bi71 O77 2.668592 1_555
Bi72 O109 2.117164 1_555
Bi72 O71 2.268169 1_655
Bi72 O117 2.270057 1_555
Bi72 O115 2.636251 1_555
Bi72 O111 2.667510 1_555
Bi73 O87 2.130097 1_655
Bi73 O90 2.256899 1_655
Bi73 O119 2.268020 1_555
Bi73 O116 2.658243 1_555
Bi73 O98 2.666539 1_665
Bi74 O114 2.123940 1_545
Bi74 O118 2.252965 1_555
Bi74 O115 2.273653 1_555
Bi74 O117 2.644005 1_555
Bi74 O98 2.664482 1_655
