# generated using pymatgen
data_Na6MgAl4Si13O36
_symmetry_space_group_name_H-M   'P 1'
_cell_length_a   14.33091954
_cell_length_b   14.33091954
_cell_length_c   5.29615283
_cell_angle_alpha   86.55106051
_cell_angle_beta   86.55106051
_cell_angle_gamma   35.17009881
_symmetry_Int_Tables_number   1
_chemical_formula_structural   Na6MgAl4Si13O36
_chemical_formula_sum   'Na6 Mg1 Al4 Si13 O36'
_cell_volume   625.27192607
_cell_formula_units_Z   1
loop_
 _symmetry_equiv_pos_site_id
 _symmetry_equiv_pos_as_xyz
  1  'x, y, z'
loop_
 _atom_site_type_symbol
 _atom_site_label
 _atom_site_symmetry_multiplicity
 _atom_site_fract_x
 _atom_site_fract_y
 _atom_site_fract_z
 _atom_site_occupancy
  Na  Na0  1  0.03589200  0.96410800  0.50000000  1
  Na  Na1  1  0.36478900  0.30097300  0.83475600  1
  Na  Na2  1  0.69902700  0.63521100  0.16524400  1
  Na  Na3  1  0.29665400  0.03456600  0.66897600  1
  Na  Na4  1  0.63586800  0.36413200  0.00000000  1
  Na  Na5  1  0.96543400  0.70334600  0.33102400  1
  Mg  Mg0  1  0.23812700  0.76187300  0.00000000  1
  Al  Al0  1  0.09371900  0.23886200  0.16620100  1
  Al  Al1  1  0.56969600  0.09623300  0.33271700  1
  Al  Al2  1  0.76113800  0.90628100  0.83379900  1
  Al  Al3  1  0.90376700  0.43030400  0.66728300  1
  Si  Si0  1  0.14704700  0.66078400  0.70777400  1
  Si  Si1  1  0.00266000  0.52478700  0.95284300  1
  Si  Si2  1  0.47521300  0.99734000  0.04715700  1
  Si  Si3  1  0.33921600  0.85295300  0.29222600  1
  Si  Si4  1  0.80633300  0.33140400  0.38058200  1
  Si  Si5  1  0.33224100  0.47415500  0.22083200  1
  Si  Si6  1  0.42907800  0.57092200  0.50000000  1
  Si  Si7  1  0.66859600  0.19366700  0.61941800  1
  Si  Si8  1  0.18881100  0.33789000  0.45169900  1
  Si  Si9  1  0.66211000  0.81118900  0.54830100  1
  Si  Si10  1  0.52584500  0.66775900  0.77916800  1
  Si  Si11  1  0.99429700  0.14739300  0.87747000  1
  Si  Si12  1  0.85260700  0.00570300  0.12253000  1
  O  O0  1  0.10946000  0.45850000  0.69014800  1
  O  O1  1  0.23468100  0.69290000  0.66508900  1
  O  O2  1  0.44385100  0.78446500  0.02486000  1
  O  O3  1  0.28207900  0.14140700  0.02900800  1
  O  O4  1  0.14309700  0.95701800  0.85140600  1
  O  O5  1  0.55210000  0.04106000  0.02653300  1
  O  O6  1  0.21553500  0.55614900  0.97514000  1
  O  O7  1  0.03419600  0.22832400  0.86149200  1
  O  O8  1  0.77020300  0.13262000  0.35425100  1
  O  O9  1  0.30710000  0.76531900  0.33491100  1
  O  O10  1  0.12514100  0.44449200  0.18909700  1
  O  O11  1  0.19245000  0.04747100  0.30248500  1
  O  O12  1  0.61158900  0.47291400  0.35765000  1
  O  O13  1  0.04298200  0.85690300  0.14859400  1
  O  O14  1  0.47482000  0.28190200  0.19435600  1
  O  O15  1  0.88318300  0.37585000  0.36193000  1
  O  O16  1  0.54150000  0.89054000  0.30985200  1
  O  O17  1  0.38699400  0.54069800  0.22360000  1
  O  O18  1  0.62415000  0.11681700  0.63807000  1
  O  O19  1  0.46375300  0.77619500  0.52177400  1
  O  O20  1  0.10971600  0.29575800  0.46918800  1
  O  O21  1  0.52708600  0.38841100  0.64235000  1
  O  O22  1  0.95252900  0.80755000  0.69751500  1
  O  O23  1  0.38228300  0.19198400  0.47103100  1
  O  O24  1  0.80801600  0.61771700  0.52896900  1
  O  O25  1  0.86738000  0.22979700  0.64574900  1
  O  O26  1  0.70424200  0.89028400  0.53081200  1
  O  O27  1  0.22380500  0.53624700  0.47822600  1
  O  O28  1  0.95894000  0.44790000  0.97346700  1
  O  O29  1  0.78863000  0.11282200  0.85817500  1
  O  O30  1  0.45930200  0.61300600  0.77640000  1
  O  O31  1  0.85859300  0.71792100  0.97099200  1
  O  O32  1  0.71809800  0.52518000  0.80564400  1
  O  O33  1  0.55550800  0.87485900  0.81090300  1
  O  O34  1  0.77167600  0.96580400  0.13850800  1
  O  O35  1  0.88717800  0.21137000  0.14182500  1
loop_
_geom_bond_atom_site_label_1
_geom_bond_atom_site_label_2
_geom_bond_distance
_geom_bond_site_symmetry_2
Na0 O9 2.403127 1_555
Na0 O1 2.403127 1_555
Na0 O13 2.429082 1_555
Na0 O4 2.429082 1_555
Na0 O8 2.453936 1_465
Na0 O25 2.453936 1_465
Na0 O29 2.833355 1_465
Na0 O35 2.833355 1_465
Na1 O5 2.374359 1_556
Na1 O18 2.386010 1_555
Na1 O0 2.386656 1_555
Na1 O14 2.404656 1_556
Na1 O6 2.418395 1_555
Na1 O23 2.424239 1_555
Na1 O27 2.751650 1_555
Na1 O10 2.772648 1_556
Na2 O28 2.374359 1_554
Na2 O15 2.386010 1_555
Na2 O16 2.386656 1_555
Na2 O32 2.404656 1_554
Na2 O2 2.418395 1_555
Na2 O24 2.424239 1_555
Na2 O19 2.751650 1_555
Na2 O33 2.772648 1_554
Na3 O19 2.383004 1_545
Na3 O7 2.387740 1_555
Na3 O20 2.403690 1_555
Na3 O3 2.409213 1_556
Na3 O33 2.410867 1_545
Na3 O11 2.426057 1_555
Na3 O16 2.831732 1_545
Na3 O2 2.855407 1_546
Na4 O21 2.351265 1_554
Na4 O12 2.351265 1_555
Na4 O29 2.359039 1_554
Na4 O35 2.359039 1_555
Na4 O17 2.371399 1_555
Na4 O30 2.371399 1_554
Na4 O25 2.734428 1_554
Na4 O8 2.734428 1_555
Na5 O27 2.383004 1_655
Na5 O34 2.387740 1_555
Na5 O26 2.403690 1_555
Na5 O31 2.409213 1_554
Na5 O10 2.410867 1_655
Na5 O22 2.426057 1_555
Na5 O0 2.831732 1_655
Na5 O6 2.855407 1_654
Mg0 O4 1.983057 1_554
Mg0 O13 1.983057 1_555
Mg0 O9 2.104022 1_555
Mg0 O1 2.104022 1_554
Mg0 O30 2.190304 1_554
Mg0 O17 2.190304 1_555
Al0 O3 1.867531 1_555
Al0 O11 1.893646 1_555
Al0 O7 1.939153 1_554
Al0 O20 1.949263 1_555
Al0 O28 2.038714 1_454
Al0 O15 2.053450 1_455
Al1 O14 1.853678 1_555
Al1 O23 1.868680 1_555
Al1 O5 1.961575 1_555
Al1 O18 1.974063 1_555
Al1 O34 1.989437 1_545
Al1 O26 2.023956 1_545
Al2 O31 1.867531 1_555
Al2 O22 1.893646 1_555
Al2 O34 1.939153 1_556
Al2 O26 1.949263 1_555
Al2 O5 2.038714 1_566
Al2 O18 2.053450 1_565
Al3 O32 1.853678 1_555
Al3 O24 1.868680 1_555
Al3 O28 1.961575 1_555
Al3 O15 1.974063 1_555
Al3 O7 1.989437 1_655
Al3 O20 2.023956 1_655
O0 Si1 1.645109 1_555
O0 Si8 1.658889 1_555
O1 Si0 1.654836 1_555
O1 Si6 1.873611 1_555
O2 Si3 1.650010 1_555
O2 Si10 1.654105 1_554
O3 Si2 1.611896 1_545
O4 Si11 1.583691 1_465
O5 Si2 1.650622 1_545
O6 Si0 1.650010 1_555
O6 Si5 1.654105 1_556
O7 Si11 1.657063 1_455
O8 Si7 1.636155 1_555
O8 Si12 1.670760 1_555
O9 Si3 1.654836 1_555
O9 Si6 1.873611 1_555
O10 Si8 1.648878 1_555
O10 Si1 1.661189 1_554
O11 Si3 1.617539 1_545
O12 Si4 1.635340 1_555
O12 Si6 1.807304 1_555
O13 Si12 1.583691 1_465
O14 Si5 1.610543 1_555
O15 Si4 1.659700 1_555
O16 Si2 1.645109 1_555
O16 Si9 1.658889 1_555
O17 Si5 1.658828 1_555
O17 Si6 1.817637 1_555
O18 Si7 1.659700 1_555
O19 Si10 1.641750 1_555
O19 Si3 1.662457 1_555
O20 Si8 1.660581 1_555
O21 Si7 1.635340 1_555
O21 Si6 1.807304 1_555
O22 Si0 1.617539 1_655
O23 Si8 1.612532 1_555
O24 Si9 1.612532 1_555
O25 Si4 1.636155 1_555
O25 Si11 1.670760 1_555
O26 Si9 1.660581 1_555
O27 Si5 1.641750 1_555
O27 Si0 1.662457 1_555
O28 Si1 1.650622 1_655
O29 Si7 1.651502 1_555
O29 Si12 1.658964 1_556
O30 Si10 1.658828 1_555
O30 Si6 1.817637 1_555
O31 Si1 1.611896 1_655
O32 Si10 1.610543 1_555
O33 Si9 1.648878 1_555
O33 Si2 1.661189 1_556
O34 Si12 1.657063 1_565
O35 Si4 1.651502 1_555
O35 Si11 1.658964 1_554
