# generated using pymatgen
data_K3Th2Cu3S7
_symmetry_space_group_name_H-M   'P 1'
_cell_length_a   7.41559368
_cell_length_b   7.41559368
_cell_length_c   24.75949000
_cell_angle_alpha   90.00000000
_cell_angle_beta   90.00000000
_cell_angle_gamma   148.16258105
_symmetry_Int_Tables_number   1
_chemical_formula_structural   K3Th2Cu3S7
_chemical_formula_sum   'K6 Th4 Cu6 S14'
_cell_volume   718.23215937
_cell_formula_units_Z   2
loop_
 _symmetry_equiv_pos_site_id
 _symmetry_equiv_pos_as_xyz
  1  'x, y, z'
loop_
 _atom_site_type_symbol
 _atom_site_label
 _atom_site_symmetry_multiplicity
 _atom_site_fract_x
 _atom_site_fract_y
 _atom_site_fract_z
 _atom_site_occupancy
  K  K0  1  0.04617000  0.95383000  0.06223400  1
  K  K1  1  0.04617000  0.95383000  0.43776600  1
  K  K2  1  0.95383000  0.04617000  0.56223400  1
  K  K3  1  0.56913800  0.43086200  0.25000000  1
  K  K4  1  0.95383000  0.04617000  0.93776600  1
  K  K5  1  0.43086200  0.56913800  0.75000000  1
  Th  Th0  1  0.30921400  0.69078600  0.35806800  1
  Th  Th1  1  0.69078600  0.30921400  0.64193200  1
  Th  Th2  1  0.69078600  0.30921400  0.85806800  1
  Th  Th3  1  0.30921400  0.69078600  0.14193200  1
  Cu  Cu0  1  0.76327500  0.23672500  0.46235800  1
  Cu  Cu1  1  0.76327500  0.23672500  0.03764200  1
  Cu  Cu2  1  0.84059000  0.15941000  0.25000000  1
  Cu  Cu3  1  0.23672500  0.76327500  0.96235800  1
  Cu  Cu4  1  0.15941000  0.84059000  0.75000000  1
  Cu  Cu5  1  0.23672500  0.76327500  0.53764200  1
  S  S0  1  0.75123000  0.24877000  0.75000000  1
  S  S1  1  0.35740500  0.64259500  0.03255500  1
  S  S2  1  0.93338900  0.06661100  0.32736600  1
  S  S3  1  0.68248900  0.31751100  0.38000400  1
  S  S4  1  0.68248900  0.31751100  0.11999600  1
  S  S5  1  0.31751100  0.68248900  0.61999600  1
  S  S6  1  0.24877000  0.75123000  0.25000000  1
  S  S7  1  0.31751100  0.68248900  0.88000400  1
  S  S8  1  0.06661100  0.93338900  0.82736600  1
  S  S9  1  0.06661100  0.93338900  0.67263400  1
  S  S10  1  0.64259500  0.35740500  0.96744500  1
  S  S11  1  0.93338900  0.06661100  0.17263400  1
  S  S12  1  0.64259500  0.35740500  0.53255500  1
  S  S13  1  0.35740500  0.64259500  0.46744500  1
loop_
_geom_bond_atom_site_label_1
_geom_bond_atom_site_label_2
_geom_bond_distance
_geom_bond_site_symmetry_2
K0 S4 3.156291 1_565
K0 S4 3.156291 1_455
K0 S11 3.171610 1_465
K0 S10 3.396489 1_564
K0 S10 3.396489 1_454
K0 S1 3.453250 1_565
K0 S1 3.453250 1_455
K1 S3 3.156291 1_565
K1 S3 3.156291 1_455
K1 S2 3.171610 1_465
K1 S12 3.396489 1_565
K1 S12 3.396489 1_455
K1 S13 3.453250 1_565
K1 S13 3.453250 1_455
K2 S5 3.156291 1_655
K2 S5 3.156291 1_545
K2 S9 3.171610 1_645
K2 S13 3.396489 1_655
K2 S13 3.396489 1_545
K2 S12 3.453250 1_655
K2 S12 3.453250 1_545
K3 S6 3.271168 1_545
K3 S6 3.271168 1_655
K3 S2 3.399202 1_455
K3 S2 3.399202 1_565
K3 S11 3.399202 1_455
K3 S11 3.399202 1_565
K3 S3 3.602010 1_555
K3 S4 3.602010 1_555
K4 S7 3.156291 1_655
K4 S7 3.156291 1_545
K4 S8 3.171610 1_645
K4 S1 3.396489 1_656
K4 S1 3.396489 1_546
K4 S10 3.453250 1_655
K4 S10 3.453250 1_545
K5 S0 3.271168 1_455
K5 S0 3.271168 1_565
K5 S8 3.399202 1_545
K5 S8 3.399202 1_655
K5 S9 3.399202 1_545
K5 S9 3.399202 1_655
K5 S5 3.602010 1_555
K5 S7 3.602010 1_555
Cu0 S3 2.342066 1_555
Cu0 S13 2.440282 1_655
Cu0 S13 2.440282 1_545
Cu0 S12 2.446076 1_555
Cu1 S4 2.342066 1_555
Cu1 S1 2.440282 1_545
Cu1 S1 2.440282 1_655
Cu1 S10 2.446076 1_554
Cu2 S2 2.328317 1_555
Cu2 S11 2.328317 1_555
Cu2 S6 2.419036 1_545
Cu2 S6 2.419036 1_655
Cu3 S7 2.342066 1_555
Cu3 S10 2.440282 1_565
Cu3 S10 2.440282 1_455
Cu3 S1 2.446076 1_556
Cu4 S8 2.328317 1_555
Cu4 S9 2.328317 1_555
Cu4 S0 2.419036 1_455
Cu4 S0 2.419036 1_565
Cu5 S5 2.342066 1_555
Cu5 S12 2.440282 1_455
Cu5 S12 2.440282 1_565
Cu5 S13 2.446076 1_555
S0 Th2 2.811156 1_555
S0 Th1 2.811156 1_555
S1 Th3 2.793979 1_555
S2 Th0 2.801995 1_545
S2 Th0 2.801995 1_655
S3 Th0 2.774608 1_655
S3 Th0 2.774608 1_545
S4 Th3 2.774608 1_655
S4 Th3 2.774608 1_545
S5 Th1 2.774608 1_565
S5 Th1 2.774608 1_455
S6 Th3 2.811156 1_555
S6 Th0 2.811156 1_555
S7 Th2 2.774608 1_565
S7 Th2 2.774608 1_455
S8 Th2 2.801995 1_455
S8 Th2 2.801995 1_565
S9 Th1 2.801995 1_455
S9 Th1 2.801995 1_565
S10 Th2 2.793979 1_555
S11 Th3 2.801995 1_545
S11 Th3 2.801995 1_655
S12 Th1 2.793979 1_555
S13 Th0 2.793979 1_555
