# generated using pymatgen
data_Nd2Pb5F16
_symmetry_space_group_name_H-M   'P 1'
_cell_length_a   4.21885019
_cell_length_b   4.21885019
_cell_length_c   24.80019806
_cell_angle_alpha   85.73351489
_cell_angle_beta   85.73351489
_cell_angle_gamma   58.33613465
_symmetry_Int_Tables_number   1
_chemical_formula_structural   Nd2Pb5F16
_chemical_formula_sum   'Nd2 Pb5 F16'
_cell_volume   374.33768635
_cell_formula_units_Z   1
loop_
 _symmetry_equiv_pos_site_id
 _symmetry_equiv_pos_as_xyz
  1  'x, y, z'
loop_
 _atom_site_type_symbol
 _atom_site_label
 _atom_site_symmetry_multiplicity
 _atom_site_fract_x
 _atom_site_fract_y
 _atom_site_fract_z
 _atom_site_occupancy
  Nd  Nd0  1  0.05325600  0.05325600  0.30800900  1
  Nd  Nd1  1  0.64400700  0.64400700  0.15985500  1
  Pb  Pb0  1  0.03461000  0.03461000  0.01662100  1
  Pb  Pb1  1  0.42968200  0.42968200  0.87193800  1
  Pb  Pb2  1  0.81052400  0.81052400  0.73150100  1
  Pb  Pb3  1  0.67662100  0.67662100  0.45023100  1
  Pb  Pb4  1  0.30636500  0.30636500  0.58742000  1
  F  F0  1  0.77635100  0.77635100  0.83416200  1
  F  F1  1  0.08447500  0.08447500  0.90704900  1
  F  F2  1  0.18250300  0.18250300  0.69881100  1
  F  F3  1  0.48686200  0.48686200  0.76996500  1
  F  F4  1  0.65995500  0.65995500  0.62276600  1
  F  F5  1  0.01565100  0.01565100  0.54994600  1
  F  F6  1  0.02220300  0.02220300  0.40690400  1
  F  F7  1  0.34377000  0.34377000  0.48042400  1
  F  F8  1  0.67820100  0.67820100  0.25385600  1
  F  F9  1  0.37238300  0.37238300  0.30970900  1
  F  F10  1  0.70219000  0.70219000  0.35372600  1
  F  F11  1  0.00075400  0.00075400  0.11521300  1
  F  F12  1  0.01735200  0.01735200  0.21471500  1
  F  F13  1  0.32535500  0.32535500  0.15874700  1
  F  F14  1  0.37576600  0.37576600  0.98292500  1
  F  F15  1  0.68630000  0.68630000  0.05979600  1
loop_
_geom_bond_atom_site_label_1
_geom_bond_atom_site_label_2
_geom_bond_distance
_geom_bond_site_symmetry_2
F0 Pb2 2.536995 1_555
F0 Pb1 2.561647 1_655
F0 Pb1 2.561647 1_565
F0 Pb1 2.644567 1_555
F1 Pb1 2.540846 1_545
F1 Pb1 2.540846 1_455
F1 Pb1 2.617196 1_555
F1 Pb0 2.710934 1_556
F2 Pb2 2.430023 1_455
F2 Pb2 2.430023 1_545
F2 Pb2 2.791022 1_445
F3 Pb2 2.491775 1_555
F3 Pb1 2.528147 1_555
F3 Pb2 2.652708 1_455
F3 Pb2 2.652708 1_545
F4 Pb4 2.449218 1_655
F4 Pb4 2.449218 1_565
F5 Pb4 2.406383 1_555
F5 Pb4 2.687928 1_545
F5 Pb4 2.687928 1_455
F6 Nd0 2.443778 1_555
F6 Pb3 2.623940 1_545
F6 Pb3 2.623940 1_455
F6 Pb3 2.677935 1_445
F7 Pb3 2.502372 1_555
F7 Pb3 2.542088 1_545
F7 Pb3 2.542088 1_455
F7 Pb4 2.644337 1_555
F8 Nd1 2.366061 1_555
F8 Nd0 2.582286 1_655
F8 Nd0 2.582286 1_565
F9 Nd0 2.355214 1_555
F9 Nd0 2.448646 1_655
F9 Nd0 2.448646 1_565
F10 Pb3 2.384691 1_555
F10 Nd0 2.632362 1_565
F10 Nd0 2.632362 1_655
F10 Nd0 2.734244 1_665
F11 Pb0 2.436558 1_555
F11 Nd1 2.601269 1_455
F11 Nd1 2.601269 1_545
F11 Nd1 2.763780 1_445
F12 Nd0 2.351068 1_555
F12 Nd1 2.594858 1_455
F12 Nd1 2.594858 1_545
F13 Nd1 2.350248 1_555
F13 Nd1 2.451021 1_455
F13 Nd1 2.451021 1_545
F14 Pb0 2.542128 1_566
F14 Pb0 2.542128 1_656
F14 Pb0 2.580380 1_556
F14 Pb1 2.747315 1_555
F15 Nd1 2.474489 1_555
F15 Pb0 2.612900 1_565
F15 Pb0 2.612900 1_655
F15 Pb0 2.695175 1_665
