# generated using pymatgen
data_Ba(Cu5P2)2
_symmetry_space_group_name_H-M   'P 1'
_cell_length_a   11.83688601
_cell_length_b   11.83688601
_cell_length_c   9.54776865
_cell_angle_alpha   87.48596264
_cell_angle_beta   87.48596264
_cell_angle_gamma   18.90899970
_symmetry_Int_Tables_number   1
_chemical_formula_structural   Ba(Cu5P2)2
_chemical_formula_sum   'Ba2 Cu20 P8'
_cell_volume   433.09233370
_cell_formula_units_Z   2
loop_
 _symmetry_equiv_pos_site_id
 _symmetry_equiv_pos_as_xyz
  1  'x, y, z'
loop_
 _atom_site_type_symbol
 _atom_site_label
 _atom_site_symmetry_multiplicity
 _atom_site_fract_x
 _atom_site_fract_y
 _atom_site_fract_z
 _atom_site_occupancy
  Ba  Ba0  1  0.85672400  0.85672400  0.78262800  1
  Ba  Ba1  1  0.14327600  0.14327600  0.21737200  1
  Cu  Cu0  1  0.84911100  0.84911100  0.14764600  1
  Cu  Cu1  1  0.04877800  0.04877800  0.92755100  1
  Cu  Cu2  1  0.72336400  0.72336400  0.43167500  1
  Cu  Cu3  1  0.95122200  0.95122200  0.07244900  1
  Cu  Cu4  1  0.71266000  0.71266000  0.69845200  1
  Cu  Cu5  1  0.83338100  0.83338100  0.42761100  1
  Cu  Cu6  1  0.27663600  0.27663600  0.56832500  1
  Cu  Cu7  1  0.41416300  0.41416300  0.27241300  1
  Cu  Cu8  1  0.47399200  0.47399200  0.88210300  1
  Cu  Cu9  1  0.05712200  0.05712200  0.54794700  1
  Cu  Cu10  1  0.28629800  0.28629800  0.03516200  1
  Cu  Cu11  1  0.15088900  0.15088900  0.85235400  1
  Cu  Cu12  1  0.16661900  0.16661900  0.57238900  1
  Cu  Cu13  1  0.28734000  0.28734000  0.30154800  1
  Cu  Cu14  1  0.53347100  0.53347100  0.38172700  1
  Cu  Cu15  1  0.52600800  0.52600800  0.11789700  1
  Cu  Cu16  1  0.58583700  0.58583700  0.72758700  1
  Cu  Cu17  1  0.46652900  0.46652900  0.61827300  1
  Cu  Cu18  1  0.94287800  0.94287800  0.45205300  1
  Cu  Cu19  1  0.71370200  0.71370200  0.96483800  1
  P  P0  1  0.39241900  0.39241900  0.03669000  1
  P  P1  1  0.37769200  0.37769200  0.50182100  1
  P  P2  1  0.24674500  0.24674500  0.80957600  1
  P  P3  1  0.62230800  0.62230800  0.49817900  1
  P  P4  1  0.60758100  0.60758100  0.96331000  1
  P  P5  1  0.00784300  0.00784300  0.26615200  1
  P  P6  1  0.75325500  0.75325500  0.19042400  1
  P  P7  1  0.99215700  0.99215700  0.73384800  1
loop_
_geom_bond_atom_site_label_1
_geom_bond_atom_site_label_2
_geom_bond_distance
_geom_bond_site_symmetry_2
Ba0 P7 3.176211 1_555
Ba0 P2 3.222414 1_655
Ba0 P2 3.222414 1_565
Ba0 P0 3.246443 1_656
Ba0 P0 3.246443 1_566
Ba0 P1 3.330435 1_655
Ba0 P1 3.330435 1_565
Ba1 P5 3.176211 1_555
Ba1 P6 3.222414 1_455
Ba1 P6 3.222414 1_545
Ba1 P4 3.246443 1_454
Ba1 P4 3.246443 1_544
Ba1 P3 3.330435 1_455
Ba1 P3 3.330435 1_545
Cu0 P6 2.257467 1_555
Cu0 P0 2.414625 1_655
Cu0 P0 2.414625 1_565
Cu1 P7 2.320809 1_445
Cu1 P4 2.413398 1_545
Cu1 P4 2.413398 1_455
Cu2 P6 2.376958 1_555
Cu2 P3 2.416391 1_555
Cu3 P5 2.320809 1_665
Cu3 P0 2.413398 1_565
Cu3 P0 2.413398 1_655
Cu4 P2 2.369590 1_565
Cu4 P2 2.369590 1_655
Cu4 P3 2.909798 1_555
Cu5 P1 2.327781 1_565
Cu5 P1 2.327781 1_655
Cu6 P2 2.376958 1_555
Cu6 P1 2.416391 1_555
Cu7 P1 2.314522 1_555
Cu7 P0 2.329119 1_555
Cu8 P0 2.357347 1_556
Cu8 P7 2.431213 1_545
Cu8 P7 2.431213 1_455
Cu9 P7 2.283079 1_445
Cu9 P3 2.501853 1_545
Cu9 P3 2.501853 1_455
Cu10 P2 2.380987 1_554
Cu10 P0 2.478850 1_555
Cu10 P6 2.543975 1_455
Cu10 P6 2.543975 1_545
Cu11 P2 2.257467 1_555
Cu11 P4 2.414625 1_455
Cu11 P4 2.414625 1_545
Cu12 P3 2.327781 1_545
Cu12 P3 2.327781 1_455
Cu13 P6 2.369590 1_545
Cu13 P6 2.369590 1_455
Cu13 P1 2.909798 1_555
Cu14 P5 2.327054 1_565
Cu14 P5 2.327054 1_655
Cu14 P3 2.396889 1_555
Cu15 P4 2.357347 1_554
Cu15 P5 2.431213 1_565
Cu15 P5 2.431213 1_655
Cu16 P3 2.314522 1_555
Cu16 P4 2.329119 1_555
Cu17 P7 2.327054 1_455
Cu17 P7 2.327054 1_545
Cu17 P1 2.396889 1_555
Cu18 P5 2.283079 1_665
Cu18 P1 2.501853 1_565
Cu18 P1 2.501853 1_655
Cu19 P6 2.380987 1_556
Cu19 P4 2.478850 1_555
Cu19 P2 2.543975 1_565
Cu19 P2 2.543975 1_655
