# generated using pymatgen
data_Sm3(Bi7Te12)2
_symmetry_space_group_name_H-M   'P 1'
_cell_length_a   8.26865300
_cell_length_b   8.41531368
_cell_length_c   21.17199867
_cell_angle_alpha   97.17945568
_cell_angle_beta   97.11362679
_cell_angle_gamma   109.04763203
_symmetry_Int_Tables_number   1
_chemical_formula_structural   Sm3(Bi7Te12)2
_chemical_formula_sum   'Sm3 Bi14 Te24'
_cell_volume   1360.18452698
_cell_formula_units_Z   1
loop_
 _symmetry_equiv_pos_site_id
 _symmetry_equiv_pos_as_xyz
  1  'x, y, z'
loop_
 _atom_site_type_symbol
 _atom_site_label
 _atom_site_symmetry_multiplicity
 _atom_site_fract_x
 _atom_site_fract_y
 _atom_site_fract_z
 _atom_site_occupancy
  Sm  Sm0  1  0.16354400  0.78534900  0.96090700  1
  Sm  Sm1  1  0.46635800  0.83060900  0.80053600  1
  Sm  Sm2  1  0.53192400  0.28902200  0.07734300  1
  Bi  Bi0  1  0.47181900  0.12225800  0.61914300  1
  Bi  Bi1  1  0.49345800  0.38506700  0.86509300  1
  Bi  Bi2  1  0.83103100  0.44518500  0.28832600  1
  Bi  Bi3  1  0.86011100  0.60173900  0.74216500  1
  Bi  Bi4  1  0.82674200  0.71601300  0.54197100  1
  Bi  Bi5  1  0.04594000  0.15570000  0.69892400  1
  Bi  Bi6  1  0.96509600  0.21062300  0.91551300  1
  Bi  Bi7  1  0.10868400  0.51769500  0.12896500  1
  Bi  Bi8  1  0.18824400  0.91255500  0.41795300  1
  Bi  Bi9  1  0.20153000  0.06418300  0.22202800  1
  Bi  Bi10  1  0.37550000  0.48576500  0.37580700  1
  Bi  Bi11  1  0.29499000  0.56606600  0.57316900  1
  Bi  Bi12  1  0.69713700  0.83635200  0.04396400  1
  Bi  Bi13  1  0.64953000  0.88631000  0.25945900  1
  Te  Te0  1  0.18607300  0.04012100  0.83486100  1
  Te  Te1  1  0.15804700  0.53373200  0.83545500  1
  Te  Te2  1  0.53823900  0.03012900  0.95266600  1
  Te  Te3  1  0.50859600  0.38359800  0.50200000  1
  Te  Te4  1  0.43907900  0.45060000  0.71749500  1
  Te  Te5  1  0.50470600  0.86643800  0.50897900  1
  Te  Te6  1  0.71103700  0.84116700  0.67311500  1
  Te  Te7  1  0.81974000  0.67984700  0.16399400  1
  Te  Te8  1  0.78305400  0.76382700  0.88041000  1
  Te  Te9  1  0.70546100  0.20129700  0.79016400  1
  Te  Te10  1  0.03805000  0.55470700  0.45370300  1
  Te  Te11  1  0.74356100  0.73699400  0.37520600  1
  Te  Te12  1  0.83585800  0.21220100  0.16160700  1
  Te  Te13  1  0.01880100  0.15851200  0.33060800  1
  Te  Te14  1  0.87668800  0.37173800  0.62349000  1
  Te  Te15  1  0.10462700  0.10051400  0.55160800  1
  Te  Te16  1  0.21305300  0.83146000  0.67476300  1
  Te  Te17  1  0.39259700  0.89399900  0.11643800  1
  Te  Te18  1  0.09802700  0.09332400  0.03836000  1
  Te  Te19  1  0.37076800  0.51490000  0.99813200  1
  Te  Te20  1  0.21138300  0.70438500  0.29165000  1
  Te  Te21  1  0.40965800  0.41628800  0.20409100  1
  Te  Te22  1  0.51090700  0.15921200  0.33048700  1
  Te  Te23  1  0.85868400  0.48385400  0.00111800  1
loop_
_geom_bond_atom_site_label_1
_geom_bond_atom_site_label_2
_geom_bond_distance
_geom_bond_site_symmetry_2
Sm0 Te18 3.126279 1_566
Sm0 Te2 3.151307 1_565
Sm0 Te1 3.168884 1_555
Sm0 Te23 3.226967 1_456
Sm0 Te8 3.325431 1_455
Sm0 Te19 3.375815 1_555
Sm0 Te17 3.440752 1_556
Sm0 Te0 3.611872 1_565
Sm1 Te9 3.152977 1_565
Sm1 Te1 3.171519 1_555
Sm1 Te16 3.179778 1_555
Sm1 Te8 3.183437 1_555
Sm1 Te2 3.327056 1_565
Sm1 Te4 3.375517 1_555
Sm1 Te0 3.431006 1_565
Sm1 Te6 3.559970 1_555
Sm2 Te21 3.167107 1_555
Sm2 Te19 3.177726 1_554
Sm2 Te12 3.186656 1_555
Sm2 Te2 3.223048 1_554
Sm2 Te18 3.366834 1_555
Sm2 Te23 3.382697 1_555
Sm2 Te17 3.389276 1_545
Sm2 Te7 3.485393 1_555
Bi0 Te5 3.071269 1_545
Bi0 Te15 3.129395 1_555
Bi0 Te16 3.143264 1_545
Bi0 Te14 3.303229 1_555
Bi0 Te4 3.351675 1_555
Bi0 Te3 3.491993 1_555
Bi1 Te0 3.100501 1_555
Bi1 Te9 3.134677 1_555
Bi1 Te4 3.242867 1_555
Bi1 Te8 3.250556 1_555
Bi1 Te19 3.289177 1_555
Bi1 Te1 3.417680 1_555
Bi2 Te12 3.131516 1_555
Bi2 Te20 3.175379 1_655
Bi2 Te11 3.208829 1_555
Bi2 Te22 3.249489 1_555
Bi2 Te13 3.416455 1_655
Bi2 Te7 3.492345 1_555
Bi2 Te10 3.566275 1_655
Bi2 Te21 3.630271 1_555
Bi3 Te14 3.020107 1_555
Bi3 Te6 3.102791 1_555
Bi3 Te1 3.208630 1_655
Bi3 Te4 3.240969 1_555
Bi3 Te8 3.296156 1_555
Bi3 Te16 3.511272 1_655
Bi3 Te9 3.519799 1_555
Bi4 Te3 3.084710 1_555
Bi4 Te10 3.179720 1_655
Bi4 Te6 3.212264 1_555
Bi4 Te15 3.264518 1_665
Bi4 Te5 3.337866 1_555
Bi4 Te11 3.550217 1_555
Bi5 Te6 3.074506 1_445
Bi5 Te14 3.106017 1_455
Bi5 Te15 3.215440 1_555
Bi5 Te4 3.324836 1_555
Bi5 Te0 3.343829 1_555
Bi5 Te16 3.450119 1_545
Bi6 Te18 3.096636 1_656
Bi6 Te23 3.165411 1_556
Bi6 Te9 3.175692 1_555
Bi6 Te0 3.191340 1_655
Bi6 Te1 3.435400 1_655
Bi6 Te8 3.505075 1_545
Bi6 Te19 3.562176 1_655
Bi6 Te2 3.587549 1_555
Bi7 Te12 3.036559 1_455
Bi7 Te23 3.117396 1_455
Bi7 Te21 3.193211 1_555
Bi7 Te7 3.230179 1_455
Bi7 Te17 3.334875 1_555
Bi7 Te20 3.479252 1_555
Bi8 Te20 3.070957 1_555
Bi8 Te10 3.089541 1_555
Bi8 Te5 3.211338 1_555
Bi8 Te15 3.326706 1_565
Bi8 Te11 3.437658 1_455
Bi8 Te13 3.445969 1_565
Bi9 Te21 3.000076 1_555
Bi9 Te22 3.034362 1_555
Bi9 Te13 3.063453 1_555
Bi9 Te17 3.331072 1_545
Bi9 Te20 3.548791 1_545
Bi10 Te11 3.090086 1_555
Bi10 Te3 3.090656 1_555
Bi10 Te20 3.201716 1_555
Bi10 Te13 3.246474 1_555
Bi10 Te22 3.367679 1_555
Bi11 Te10 3.065364 1_555
Bi11 Te3 3.098204 1_555
Bi11 Te5 3.134440 1_555
Bi11 Te16 3.197087 1_555
Bi11 Te4 3.506689 1_555
Bi12 Te19 3.077717 1_554
Bi12 Te2 3.111120 1_564
Bi12 Te7 3.207861 1_555
Bi12 Te17 3.240225 1_555
Bi12 Te18 3.340846 1_665
Bi13 Te11 3.020643 1_555
Bi13 Te22 3.182967 1_565
Bi13 Te13 3.205074 1_665
Bi13 Te7 3.241537 1_555
Bi13 Te17 3.497437 1_555
Bi13 Te20 3.631220 1_555
