# generated using pymatgen
data_La3Ni2B2N3
_symmetry_space_group_name_H-M   'P 1'
_cell_length_a   10.31581579
_cell_length_b   10.31581579
_cell_length_c   10.31581579
_cell_angle_alpha   158.95865097
_cell_angle_beta   158.95865097
_cell_angle_gamma   29.92913957
_symmetry_Int_Tables_number   1
_chemical_formula_structural   La3Ni2B2N3
_chemical_formula_sum   'La3 Ni2 B2 N3'
_cell_volume   141.43009249
_cell_formula_units_Z   1
loop_
 _symmetry_equiv_pos_site_id
 _symmetry_equiv_pos_as_xyz
  1  'x, y, z'
loop_
 _atom_site_type_symbol
 _atom_site_label
 _atom_site_symmetry_multiplicity
 _atom_site_fract_x
 _atom_site_fract_y
 _atom_site_fract_z
 _atom_site_occupancy
  La  La0  1  0.63036700  0.63036700  0.00000000  1
  La  La1  1  0.36963300  0.36963300  0.00000000  1
  La  La2  1  0.00000000  0.00000000  0.00000000  1
  Ni  Ni0  1  0.75000000  0.25000000  0.50000000  1
  Ni  Ni1  1  0.25000000  0.75000000  0.50000000  1
  B  B0  1  0.80012300  0.80012300  0.00000000  1
  B  B1  1  0.19987700  0.19987700  0.00000000  1
  N  N0  1  0.87272600  0.87272600  0.00000000  1
  N  N1  1  0.50000000  0.50000000  0.00000000  1
  N  N2  1  0.12727400  0.12727400  0.00000000  1
loop_
_geom_bond_atom_site_label_1
_geom_bond_atom_site_label_2
_geom_bond_distance
_geom_bond_site_symmetry_2
La0 N1 2.598465 1_555
La0 N2 2.664481 1_565
La0 N2 2.664481 1_655
La0 N2 2.664481 1_554
La0 N2 2.664481 1_666
La1 N1 2.598465 1_555
La1 N0 2.664481 1_455
La1 N0 2.664481 1_556
La1 N0 2.664481 1_545
La1 N0 2.664481 1_444
La2 N0 2.536816 1_445
La2 N2 2.536816 1_555
La2 N1 2.663767 1_444
La2 N1 2.663767 1_545
La2 N1 2.663767 1_455
La2 N1 2.663767 1_556
B0 N0 1.447117 1_555
B0 Ni1 2.132117 1_554
B0 Ni0 2.132117 1_554
B0 Ni1 2.132117 1_655
B0 Ni0 2.132117 1_565
B1 N2 1.447117 1_555
B1 Ni1 2.132117 1_544
B1 Ni0 2.132117 1_555
B1 Ni0 2.132117 1_454
B1 Ni1 2.132117 1_555
