# generated using pymatgen
data_La3Ga4Cl
_symmetry_space_group_name_H-M   'P 1'
_cell_length_a   8.13036509
_cell_length_b   8.13036527
_cell_length_c   8.13036550
_cell_angle_alpha   90.87041645
_cell_angle_beta   119.49873972
_cell_angle_gamma   119.49874278
_symmetry_Int_Tables_number   1
_chemical_formula_structural   La3Ga4Cl
_chemical_formula_sum   'La6 Ga8 Cl2'
_cell_volume   382.85910660
_cell_formula_units_Z   2
loop_
 _symmetry_equiv_pos_site_id
 _symmetry_equiv_pos_as_xyz
  1  'x, y, z'
loop_
 _atom_site_type_symbol
 _atom_site_label
 _atom_site_symmetry_multiplicity
 _atom_site_fract_x
 _atom_site_fract_y
 _atom_site_fract_z
 _atom_site_occupancy
  La  La0  1  0.82117249  0.16058625  0.66058625  1
  La  La1  1  0.50000000  0.66058625  0.83941375  1
  La  La2  1  0.50000000  0.33941375  0.16058625  1
  La  La3  1  -0.00000000  0.25000000  0.25000000  1
  La  La4  1  0.17882751  0.83941375  0.33941375  1
  La  La5  1  -0.00000000  0.75000000  0.75000000  1
  Ga  Ga0  1  0.78500359  0.44266517  0.94266517  1
  Ga  Ga1  1  0.50000000  0.34233843  0.55733483  1
  Ga  Ga2  1  0.78500359  0.84233843  0.34233843  1
  Ga  Ga3  1  0.50000000  0.94266517  0.15766157  1
  Ga  Ga4  1  0.50000000  0.05733483  0.84233843  1
  Ga  Ga5  1  0.21499641  0.55733483  0.05733483  1
  Ga  Ga6  1  0.50000000  0.65766157  0.44266517  1
  Ga  Ga7  1  0.21499641  0.15766157  0.65766157  1
  Cl  Cl0  1  -0.00000000  -0.00000000  -0.00000000  1
  Cl  Cl1  1  -0.00000000  0.50000000  0.50000000  1
loop_
_geom_bond_atom_site_label_1
_geom_bond_atom_site_label_2
_geom_bond_distance
_geom_bond_site_symmetry_2
Ga0 Ga4 2.600269 1_555
Ga0 Ga1 2.600269 1_555
Ga0 Ga5 2.741228 1_656
Ga0 La5 3.204210 1_655
Ga0 La3 3.204210 1_656
Ga0 La4 3.225438 1_656
Ga0 La2 3.374306 1_556
Ga0 La1 3.374306 1_555
Ga0 La0 3.431388 1_555
Ga1 Ga7 2.600269 1_555
Ga1 Ga6 2.741228 1_555
Ga1 La5 3.204210 1_655
Ga1 La3 3.204210 1_555
Ga1 La2 3.225437 1_555
Ga1 La0 3.374306 1_555
Ga1 La4 3.374307 1_545
Ga1 La1 3.431388 1_555
Ga2 Ga6 2.600269 1_555
Ga2 Ga3 2.600269 1_555
Ga2 Ga7 2.741228 1_665
Ga2 La3 3.204210 1_665
Ga2 La5 3.204210 1_655
Ga2 La4 3.225437 1_655
Ga2 La2 3.374307 1_555
Ga2 La1 3.374307 1_554
Ga2 La0 3.431388 1_565
Ga3 Ga5 2.600269 1_555
Ga3 Ga4 2.741228 1_564
Ga3 La3 3.204210 1_665
Ga3 La5 3.204210 1_554
Ga3 La2 3.225437 1_565
Ga3 La4 3.374306 1_555
Ga3 La0 3.374307 1_565
Ga3 La1 3.431388 1_554
Ga4 Ga7 2.600269 1_555
Ga4 La5 3.204210 1_545
Ga4 La3 3.204210 1_656
Ga4 La1 3.225437 1_545
Ga4 La0 3.374306 1_555
Ga4 La4 3.374307 1_545
Ga4 La2 3.431388 1_556
Ga5 Ga6 2.600269 1_555
Ga5 La3 3.204210 1_555
Ga5 La5 3.204210 1_554
Ga5 La0 3.225438 1_454
Ga5 La1 3.374306 1_554
Ga5 La2 3.374306 1_555
Ga5 La4 3.431388 1_555
Ga6 La3 3.204210 1_555
Ga6 La5 3.204210 1_655
Ga6 La1 3.225437 1_555
Ga6 La4 3.374306 1_555
Ga6 La0 3.374307 1_565
Ga6 La2 3.431388 1_555
Ga7 La5 3.204210 1_545
Ga7 La3 3.204210 1_555
Ga7 La0 3.225437 1_455
Ga7 La1 3.374307 1_555
Ga7 La2 3.374307 1_556
Ga7 La4 3.431388 1_545
Cl0 La3 2.852601 1_555
Cl0 La5 2.852601 1_544
Cl0 La1 3.075938 1_444
Cl0 La2 3.075938 1_555
Cl0 La0 3.075938 1_454
Cl0 La4 3.075938 1_545
Cl1 La3 2.852601 1_555
Cl1 La5 2.852601 1_555
Cl1 La4 3.075938 1_555
Cl1 La0 3.075938 1_455
Cl1 La1 3.075938 1_555
Cl1 La2 3.075938 1_455
