# generated using pymatgen
data_PH9AuC3S3Cl
_symmetry_space_group_name_H-M   'P 1'
_cell_length_a   6.73761800
_cell_length_b   15.83363000
_cell_length_c   18.68921200
_cell_angle_alpha   90.00000000
_cell_angle_beta   90.00000000
_cell_angle_gamma   90.00000000
_symmetry_Int_Tables_number   1
_chemical_formula_structural   PH9AuC3S3Cl
_chemical_formula_sum   'P8 H72 Au8 C24 S24 Cl8'
_cell_volume   1993.78290013
_cell_formula_units_Z   8
loop_
 _symmetry_equiv_pos_site_id
 _symmetry_equiv_pos_as_xyz
  1  'x, y, z'
loop_
 _atom_site_type_symbol
 _atom_site_label
 _atom_site_symmetry_multiplicity
 _atom_site_fract_x
 _atom_site_fract_y
 _atom_site_fract_z
 _atom_site_occupancy
  P  P0  1  0.27664300  0.61825400  0.64507200  1
  P  P1  1  0.77664300  0.61825400  0.85492800  1
  P  P2  1  0.22335700  0.11825400  0.64507200  1
  P  P3  1  0.77664300  0.88174600  0.35492800  1
  P  P4  1  0.22335700  0.38174600  0.14507200  1
  P  P5  1  0.72335700  0.11825400  0.85492800  1
  P  P6  1  0.27664300  0.88174600  0.14507200  1
  P  P7  1  0.72335700  0.38174600  0.35492800  1
  H  H0  1  0.56317200  0.96249300  0.92613200  1
  H  H1  1  0.59543900  0.64975900  0.29509800  1
  H  H2  1  0.31498900  0.27309900  0.94300900  1
  H  H3  1  0.59543900  0.85024100  0.79509800  1
  H  H4  1  0.42049700  0.72231200  0.06447400  1
  H  H5  1  0.79198600  0.26782300  0.74378700  1
  H  H6  1  0.68563300  0.07542000  0.41178400  1
  H  H7  1  0.84021400  0.68573700  0.31814400  1
  H  H8  1  0.71726500  0.93583500  0.00136500  1
  H  H9  1  0.78273500  0.43583500  0.00136500  1
  H  H10  1  0.03424000  0.69835900  0.99099700  1
  H  H11  1  0.40456100  0.35024100  0.70490200  1
  H  H12  1  0.65978600  0.31426300  0.81814400  1
  H  H13  1  0.18563300  0.42458000  0.58821600  1
  H  H14  1  0.81436700  0.92458000  0.91178400  1
  H  H15  1  0.31436700  0.92458000  0.58821600  1
  H  H16  1  0.06317200  0.53750700  0.07386800  1
  H  H17  1  0.56317200  0.53750700  0.42613200  1
  H  H18  1  0.06317200  0.96249300  0.57386800  1
  H  H19  1  0.78273500  0.06416500  0.50136500  1
  H  H20  1  0.40456100  0.14975900  0.20490200  1
  H  H21  1  0.20801400  0.76782300  0.75621300  1
  H  H22  1  0.34021400  0.81426300  0.68185600  1
  H  H23  1  0.21726500  0.56416500  0.99863500  1
  H  H24  1  0.57950300  0.27768800  0.93552600  1
  H  H25  1  0.84021400  0.81426300  0.81814400  1
  H  H26  1  0.46576000  0.30164100  0.49099700  1
  H  H27  1  0.43682800  0.03750700  0.07386800  1
  H  H28  1  0.68501100  0.77309900  0.55699100  1
  H  H29  1  0.15978600  0.18573800  0.18185600  1
  H  H30  1  0.93682800  0.46249300  0.92613200  1
  H  H31  1  0.81436700  0.57542000  0.41178400  1
  H  H32  1  0.28273500  0.43583500  0.49863500  1
  H  H33  1  0.31436700  0.57542000  0.08821600  1
  H  H34  1  0.65978600  0.18573800  0.31814400  1
  H  H35  1  0.09543900  0.85024100  0.70490200  1
  H  H36  1  0.07950300  0.27768800  0.56447400  1
  H  H37  1  0.03424000  0.80164100  0.49099700  1
  H  H38  1  0.29198600  0.23217700  0.25621300  1
  H  H39  1  0.31498900  0.22690100  0.44300900  1
  H  H40  1  0.09543900  0.64975900  0.20490200  1
  H  H41  1  0.53424000  0.69835900  0.50900300  1
  H  H42  1  0.81498900  0.22690100  0.05699100  1
  H  H43  1  0.21726500  0.93583500  0.49863500  1
  H  H44  1  0.42049700  0.77768800  0.56447400  1
  H  H45  1  0.70801400  0.76782300  0.74378700  1
  H  H46  1  0.20801400  0.73217700  0.25621300  1
  H  H47  1  0.96576000  0.19835900  0.50900300  1
  H  H48  1  0.92049700  0.77768800  0.93552600  1
  H  H49  1  0.46576000  0.19835900  0.99099700  1
  H  H50  1  0.07950300  0.22231200  0.06447400  1
  H  H51  1  0.57950300  0.22231200  0.43552600  1
  H  H52  1  0.96576000  0.30164100  0.00900300  1
  H  H53  1  0.28273500  0.06416500  0.99863500  1
  H  H54  1  0.43682800  0.46249300  0.57386800  1
  H  H55  1  0.18501100  0.72690100  0.44300900  1
  H  H56  1  0.90456100  0.14975900  0.29509800  1
  H  H57  1  0.18501100  0.77309900  0.94300900  1
  H  H58  1  0.81498900  0.27309900  0.55699100  1
  H  H59  1  0.93682800  0.03750700  0.42613200  1
  H  H60  1  0.90456100  0.35024100  0.79509800  1
  H  H61  1  0.68563300  0.42458000  0.91178400  1
  H  H62  1  0.70801400  0.73217700  0.24378700  1
  H  H63  1  0.34021400  0.68573700  0.18185600  1
  H  H64  1  0.92049700  0.72231200  0.43552600  1
  H  H65  1  0.71726500  0.56416500  0.50136500  1
  H  H66  1  0.53424000  0.80164100  0.00900300  1
  H  H67  1  0.79198600  0.23217700  0.24378700  1
  H  H68  1  0.68501100  0.72690100  0.05699100  1
  H  H69  1  0.29198600  0.26782300  0.75621300  1
  H  H70  1  0.15978600  0.31426300  0.68185600  1
  H  H71  1  0.18563300  0.07542000  0.08821600  1
  Au  Au0  1  0.72334600  0.46766500  0.25781200  1
  Au  Au1  1  0.77665400  0.53233500  0.75781200  1
  Au  Au2  1  0.22334600  0.03233500  0.74218800  1
  Au  Au3  1  0.27665400  0.96766500  0.24218800  1
  Au  Au4  1  0.77665400  0.96766500  0.25781200  1
  Au  Au5  1  0.27665400  0.53233500  0.74218800  1
  Au  Au6  1  0.72334600  0.03233500  0.75781200  1
  Au  Au7  1  0.22334600  0.46766500  0.24218800  1
  C  C0  1  0.30488300  0.29532600  0.70258800  1
  C  C1  1  0.19511700  0.70467400  0.20258800  1
  C  C2  1  0.54819100  0.76439100  0.05822500  1
  C  C3  1  0.21536600  0.96123300  0.55343500  1
  C  C4  1  0.45180900  0.23560900  0.94177500  1
  C  C5  1  0.78463400  0.46123300  0.94656500  1
  C  C6  1  0.69511700  0.79532600  0.79741200  1
  C  C7  1  0.80488300  0.29532600  0.79741200  1
  C  C8  1  0.28463400  0.03876700  0.05343500  1
  C  C9  1  0.04819100  0.76439100  0.44177500  1
  C  C10  1  0.30488300  0.20467400  0.20258800  1
  C  C11  1  0.28463400  0.46123300  0.55343500  1
  C  C12  1  0.95180900  0.26439100  0.05822500  1
  C  C13  1  0.19511700  0.79532600  0.70258800  1
  C  C14  1  0.04819100  0.73560900  0.94177500  1
  C  C15  1  0.80488300  0.20467400  0.29741200  1
  C  C16  1  0.71536600  0.53876700  0.44656500  1
  C  C17  1  0.54819100  0.73560900  0.55822500  1
  C  C18  1  0.71536600  0.96123300  0.94656500  1
  C  C19  1  0.45180900  0.26439100  0.44177500  1
  C  C20  1  0.78463400  0.03876700  0.44656500  1
  C  C21  1  0.95180900  0.23560900  0.55822500  1
  C  C22  1  0.69511700  0.70467400  0.29741200  1
  C  C23  1  0.21536600  0.53876700  0.05343500  1
  S  S0  1  0.92353800  0.27897800  0.35780100  1
  S  S1  1  0.92353800  0.22102200  0.85780100  1
  S  S2  1  0.43410500  0.16613600  0.86466500  1
  S  S3  1  0.68812700  0.93179100  0.45392200  1
  S  S4  1  0.43410500  0.33386400  0.36466500  1
  S  S5  1  0.56589500  0.83386400  0.13533500  1
  S  S6  1  0.68812700  0.56820900  0.95392200  1
  S  S7  1  0.42353800  0.27897800  0.14219900  1
  S  S8  1  0.31187300  0.06820900  0.54607800  1
  S  S9  1  0.93410500  0.33386400  0.13533500  1
  S  S10  1  0.42353800  0.22102200  0.64219900  1
  S  S11  1  0.57646200  0.77897800  0.35780100  1
  S  S12  1  0.57646200  0.72102200  0.85780100  1
  S  S13  1  0.07646200  0.77897800  0.14219900  1
  S  S14  1  0.93410500  0.16613600  0.63533500  1
  S  S15  1  0.81187300  0.43179100  0.45392200  1
  S  S16  1  0.06589500  0.66613600  0.86466500  1
  S  S17  1  0.81187300  0.06820900  0.95392200  1
  S  S18  1  0.31187300  0.43179100  0.04607800  1
  S  S19  1  0.07646200  0.72102200  0.64219900  1
  S  S20  1  0.18812700  0.56820900  0.54607800  1
  S  S21  1  0.18812700  0.93179100  0.04607800  1
  S  S22  1  0.06589500  0.83386400  0.36466500  1
  S  S23  1  0.56589500  0.66613600  0.63533500  1
  Cl  Cl0  1  0.28322000  0.44163100  0.84120100  1
  Cl  Cl1  1  0.28322000  0.05836900  0.34120100  1
  Cl  Cl2  1  0.21678000  0.94163100  0.84120100  1
  Cl  Cl3  1  0.78322000  0.05836900  0.15879900  1
  Cl  Cl4  1  0.71678000  0.55836900  0.15879900  1
  Cl  Cl5  1  0.21678000  0.55836900  0.34120100  1
  Cl  Cl6  1  0.71678000  0.94163100  0.65879900  1
  Cl  Cl7  1  0.78322000  0.44163100  0.65879900  1
loop_
_geom_bond_atom_site_label_1
_geom_bond_atom_site_label_2
_geom_bond_distance
_geom_bond_site_symmetry_2
P0 S23 2.099046 1_555
P0 S20 2.099169 1_555
P0 S19 2.114176 1_555
P1 S16 2.099046 1_655
P1 S6 2.099169 1_555
P1 S12 2.114176 1_555
P2 S14 2.099046 1_455
P2 S8 2.099169 1_555
P2 S10 2.114176 1_555
P3 S22 2.099046 1_655
P3 S3 2.099169 1_555
P3 S11 2.114176 1_555
P4 S9 2.099046 1_455
P4 S18 2.099169 1_555
P4 S7 2.114176 1_555
P5 S2 2.099046 1_555
P5 S17 2.099169 1_555
P5 S1 2.114176 1_555
P6 S5 2.099046 1_555
P6 S21 2.099169 1_555
P6 S13 2.114176 1_555
P7 S4 2.099046 1_555
P7 S15 2.099169 1_555
P7 S0 2.114176 1_555
Au0 P7 2.268263 1_555
Au0 Cl4 2.342821 1_555
Au1 P1 2.268263 1_555
Au1 Cl7 2.342821 1_555
Au2 P2 2.268263 1_555
Au2 Cl2 2.342821 1_545
Au3 P6 2.268263 1_555
Au3 Cl1 2.342821 1_565
Au4 P3 2.268263 1_555
Au4 Cl3 2.342821 1_565
Au5 P0 2.268263 1_555
Au5 Cl0 2.342821 1_555
Au6 P5 2.268263 1_555
Au6 Cl6 2.342821 1_545
Au7 P4 2.268263 1_555
Au7 Cl5 2.342821 1_555
C0 H70 1.093504 1_555
C0 H69 1.096180 1_555
C0 H11 1.099520 1_555
C0 S10 1.815784 1_555
C1 H63 1.093504 1_555
C1 H46 1.096180 1_555
C1 H40 1.099520 1_555
C1 S13 1.815784 1_555
C2 H4 1.094420 1_555
C2 H68 1.096671 1_555
C2 H66 1.096794 1_555
C2 S5 1.816891 1_555
C3 H18 1.094406 1_555
C3 H15 1.097395 1_555
C3 H43 1.100365 1_555
C3 S8 1.819539 1_565
C4 H24 1.094420 1_555
C4 H2 1.096671 1_555
C4 H49 1.096794 1_555
C4 S2 1.816891 1_555
C5 H30 1.094406 1_555
C5 H61 1.097395 1_555
C5 H9 1.100365 1_556
C5 S6 1.819539 1_555
C6 H25 1.093504 1_555
C6 H45 1.096180 1_555
C6 H3 1.099520 1_555
C6 S12 1.815784 1_555
C7 H12 1.093504 1_555
C7 H5 1.096180 1_555
C7 H60 1.099520 1_555
C7 S1 1.815784 1_555
C8 H27 1.094406 1_555
C8 H71 1.097395 1_555
C8 H53 1.100365 1_554
C8 S21 1.819539 1_545
C9 H64 1.094420 1_455
C9 H55 1.096671 1_555
C9 H37 1.096794 1_555
C9 S22 1.816891 1_555
C10 H29 1.093500 1_555
C10 H38 1.096180 1_555
C10 H20 1.099520 1_555
C10 S7 1.815784 1_555
C11 H54 1.094406 1_555
C11 H13 1.097395 1_555
C11 H32 1.100365 1_555
C11 S20 1.819539 1_555
C12 H50 1.094420 1_655
C12 H42 1.096671 1_555
C12 H52 1.096794 1_555
C12 S9 1.816891 1_555
C13 H22 1.093504 1_555
C13 H21 1.096180 1_555
C13 H35 1.099520 1_555
C13 S19 1.815784 1_555
C14 H48 1.094420 1_455
C14 H57 1.096671 1_555
C14 H10 1.096794 1_555
C14 S16 1.816891 1_555
C15 H34 1.093500 1_555
C15 H67 1.096180 1_555
C15 H56 1.099520 1_555
C15 S0 1.815784 1_555
C16 H17 1.094406 1_555
C16 H31 1.097395 1_555
C16 H65 1.100365 1_555
C16 S15 1.819539 1_555
C17 H44 1.094420 1_555
C17 H28 1.096671 1_555
C17 H41 1.096794 1_555
C17 S23 1.816891 1_555
C18 H0 1.094406 1_555
C18 H14 1.097395 1_555
C18 H8 1.100365 1_556
C18 S17 1.819539 1_565
C19 H51 1.094420 1_555
C19 H39 1.096671 1_555
C19 H26 1.096794 1_555
C19 S4 1.816891 1_555
C20 H59 1.094406 1_555
C20 H6 1.097395 1_555
C20 H19 1.100365 1_555
C20 S3 1.819539 1_545
C21 H36 1.094420 1_655
C21 H58 1.096671 1_555
C21 H47 1.096794 1_555
C21 S14 1.816891 1_555
C22 H7 1.093504 1_555
C22 H62 1.096180 1_555
C22 H1 1.099520 1_555
C22 S11 1.815784 1_555
C23 H16 1.094406 1_555
C23 H33 1.097395 1_555
C23 H23 1.100365 1_554
C23 S18 1.819539 1_555
