# generated using pymatgen
data_FeHO2
_symmetry_space_group_name_H-M   'P 1'
_cell_length_a   3.06492200
_cell_length_b   7.66803816
_cell_length_c   7.66790990
_cell_angle_alpha   87.71176954
_cell_angle_beta   78.47343774
_cell_angle_gamma   78.47130320
_symmetry_Int_Tables_number   1
_chemical_formula_structural   FeHO2
_chemical_formula_sum   'Fe4 H4 O8'
_cell_volume   173.01381556
_cell_formula_units_Z   4
loop_
 _symmetry_equiv_pos_site_id
 _symmetry_equiv_pos_as_xyz
  1  'x, y, z'
loop_
 _atom_site_type_symbol
 _atom_site_label
 _atom_site_symmetry_multiplicity
 _atom_site_fract_x
 _atom_site_fract_y
 _atom_site_fract_z
 _atom_site_occupancy
  Fe  Fe0  1  0.64739200  0.20515200  0.50004300  1
  Fe  Fe1  1  0.35260800  0.79484700  0.49995600  1
  Fe  Fe2  1  0.14744500  0.49995400  0.20515300  1
  Fe  Fe3  1  0.85255500  0.50004500  0.79484600  1
  H  H0  1  0.16281900  0.75560100  0.91877300  1
  H  H1  1  0.83718000  0.24440000  0.08122900  1
  H  H2  1  0.91841100  0.91877200  0.24439200  1
  H  H3  1  0.08158800  0.08123000  0.75560800  1
  O  O0  1  0.21157000  0.62967000  0.94725800  1
  O  O1  1  0.78842900  0.37033000  0.05274300  1
  O  O2  1  0.84114700  0.94726000  0.37032600  1
  O  O3  1  0.15885300  0.05274000  0.62967400  1
  O  O4  1  0.16922100  0.29728400  0.36427300  1
  O  O5  1  0.83078000  0.70271600  0.63572700  1
  O  O6  1  0.46645900  0.36427900  0.70271800  1
  O  O7  1  0.53354200  0.63572000  0.29728100  1
loop_
_geom_bond_atom_site_label_1
_geom_bond_atom_site_label_2
_geom_bond_distance
_geom_bond_site_symmetry_2
Fe0 O6 1.936009 1_555
Fe0 O4 1.966713 1_555
Fe0 O4 1.966821 1_655
Fe0 O3 2.146581 1_555
Fe0 O3 2.146831 1_655
Fe0 O2 2.168919 1_545
Fe1 O7 1.936009 1_555
Fe1 O5 1.966719 1_555
Fe1 O5 1.966817 1_455
Fe1 O2 2.146584 1_555
Fe1 O2 2.146829 1_455
Fe1 O3 2.168929 1_565
Fe2 O4 1.935970 1_555
Fe2 O7 1.966642 1_455
Fe2 O7 1.966831 1_555
Fe2 O1 2.146610 1_555
Fe2 O1 2.146714 1_455
Fe2 O0 2.168941 1_554
Fe3 O5 1.935972 1_555
Fe3 O6 1.966644 1_655
Fe3 O6 1.966828 1_555
Fe3 O0 2.146621 1_555
Fe3 O0 2.146726 1_655
Fe3 O1 2.168951 1_556
H0 O0 0.970066 1_555
H1 O1 0.970061 1_555
H2 O2 0.970081 1_555
H3 O3 0.970084 1_555
