# generated using pymatgen
data_Ag7P3S11
_symmetry_space_group_name_H-M   'P 1'
_cell_length_a   12.64332998
_cell_length_b   12.64332998
_cell_length_c   24.87109545
_cell_angle_alpha   69.91515238
_cell_angle_beta   69.91515238
_cell_angle_gamma   29.51248923
_symmetry_Int_Tables_number   1
_chemical_formula_structural   Ag7P3S11
_chemical_formula_sum   'Ag28 P12 S44'
_cell_volume   1830.84507348
_cell_formula_units_Z   4
loop_
 _symmetry_equiv_pos_site_id
 _symmetry_equiv_pos_as_xyz
  1  'x, y, z'
loop_
 _atom_site_type_symbol
 _atom_site_label
 _atom_site_symmetry_multiplicity
 _atom_site_fract_x
 _atom_site_fract_y
 _atom_site_fract_z
 _atom_site_occupancy
  Ag  Ag0  1  0.83191900  0.21369600  0.31337300  1
  Ag  Ag1  1  0.82052600  0.39938800  0.09943700  1
  Ag  Ag2  1  0.78630400  0.16808100  0.18662700  1
  Ag  Ag3  1  0.81790100  0.70108400  0.93281700  1
  Ag  Ag4  1  0.70108400  0.81790100  0.43281700  1
  Ag  Ag5  1  0.17415200  0.64505900  0.31812700  1
  Ag  Ag6  1  0.26736200  0.91502200  0.89372500  1
  Ag  Ag7  1  0.64505900  0.17415200  0.81812700  1
  Ag  Ag8  1  0.55047700  0.10763800  0.68572400  1
  Ag  Ag9  1  0.18209900  0.29891600  0.06718300  1
  Ag  Ag10  1  0.21369600  0.83191900  0.81337300  1
  Ag  Ag11  1  0.91502200  0.26736200  0.39372500  1
  Ag  Ag12  1  0.17947400  0.60061200  0.90056300  1
  Ag  Ag13  1  0.44952300  0.89236200  0.31427600  1
  Ag  Ag14  1  0.35494100  0.82584800  0.18187300  1
  Ag  Ag15  1  0.16808100  0.78630400  0.68662700  1
  Ag  Ag16  1  0.44142200  0.05124000  0.85487400  1
  Ag  Ag17  1  0.10763800  0.55047700  0.18572400  1
  Ag  Ag18  1  0.29891600  0.18209900  0.56718300  1
  Ag  Ag19  1  0.55857800  0.94876000  0.14512600  1
  Ag  Ag20  1  0.60061200  0.17947400  0.40056300  1
  Ag  Ag21  1  0.08497800  0.73263800  0.60627500  1
  Ag  Ag22  1  0.39938800  0.82052600  0.59943700  1
  Ag  Ag23  1  0.89236200  0.44952300  0.81427600  1
  Ag  Ag24  1  0.73263800  0.08497800  0.10627500  1
  Ag  Ag25  1  0.82584800  0.35494100  0.68187300  1
  Ag  Ag26  1  0.05124000  0.44142200  0.35487400  1
  Ag  Ag27  1  0.94876000  0.55857800  0.64512600  1
  P  P0  1  0.31039200  0.71035100  0.39431600  1
  P  P1  1  0.37313800  0.96129200  0.72104100  1
  P  P2  1  0.67199000  0.04456800  0.98204500  1
  P  P3  1  0.28964900  0.68960800  0.10568400  1
  P  P4  1  0.71035100  0.31039200  0.89431600  1
  P  P5  1  0.04456800  0.67199000  0.48204500  1
  P  P6  1  0.32801000  0.95543200  0.01795500  1
  P  P7  1  0.03870800  0.62686200  0.77895900  1
  P  P8  1  0.68960800  0.28964900  0.60568400  1
  P  P9  1  0.62686200  0.03870800  0.27895900  1
  P  P10  1  0.96129200  0.37313800  0.22104100  1
  P  P11  1  0.95543200  0.32801000  0.51795500  1
  S  S0  1  0.14788900  0.51075300  0.70357500  1
  S  S1  1  0.48924700  0.85211100  0.79642500  1
  S  S2  1  0.05923400  0.45958800  0.84794400  1
  S  S3  1  0.07138900  0.82933900  0.46222700  1
  S  S4  1  0.94076600  0.54041200  0.15205600  1
  S  S5  1  0.80465100  0.21706500  0.81550100  1
  S  S6  1  0.48313400  0.18925200  0.05783800  1
  S  S7  1  0.21706500  0.80465100  0.31550100  1
  S  S8  1  0.71507100  0.93396000  0.49249400  1
  S  S9  1  0.86772400  0.29999500  0.90913400  1
  S  S10  1  0.49208900  0.17998400  0.92309100  1
  S  S11  1  0.51075300  0.14788900  0.20357500  1
  S  S12  1  0.78293500  0.19534900  0.68449900  1
  S  S13  1  0.70000500  0.13227600  0.59086600  1
  S  S14  1  0.17066100  0.92861100  0.03777300  1
  S  S15  1  0.93396000  0.71507100  0.99249400  1
  S  S16  1  0.62023200  0.39257000  0.09054200  1
  S  S17  1  0.39257000  0.62023200  0.59054200  1
  S  S18  1  0.81074800  0.51686600  0.44216200  1
  S  S19  1  0.51686600  0.81074800  0.94216200  1
  S  S20  1  0.18925200  0.48313400  0.55783800  1
  S  S21  1  0.28596100  0.04707400  0.22114900  1
  S  S22  1  0.29999500  0.86772400  0.40913400  1
  S  S23  1  0.92861100  0.17066100  0.53777300  1
  S  S24  1  0.77665100  0.40656400  0.21031600  1
  S  S25  1  0.28492900  0.06604000  0.50750600  1
  S  S26  1  0.54041200  0.94076600  0.65205600  1
  S  S27  1  0.71403900  0.95292600  0.77885100  1
  S  S28  1  0.13227600  0.70000500  0.09086600  1
  S  S29  1  0.22334900  0.59343600  0.78968400  1
  S  S30  1  0.85211100  0.48924700  0.29642500  1
  S  S31  1  0.04707400  0.28596100  0.72114900  1
  S  S32  1  0.50791100  0.82001600  0.07690900  1
  S  S33  1  0.06604000  0.28492900  0.00750600  1
  S  S34  1  0.40656400  0.77665100  0.71031600  1
  S  S35  1  0.60743000  0.37976800  0.40945800  1
  S  S36  1  0.95292600  0.71403900  0.27885100  1
  S  S37  1  0.82933900  0.07138900  0.96222700  1
  S  S38  1  0.45958800  0.05923400  0.34794400  1
  S  S39  1  0.17998400  0.49208900  0.42309100  1
  S  S40  1  0.82001600  0.50791100  0.57690900  1
  S  S41  1  0.59343600  0.22334900  0.28968400  1
  S  S42  1  0.37976800  0.60743000  0.90945800  1
  S  S43  1  0.19534900  0.78293500  0.18449900  1
loop_
_geom_bond_atom_site_label_1
_geom_bond_atom_site_label_2
_geom_bond_distance
_geom_bond_site_symmetry_2
Ag0 S35 2.567222 1_555
Ag0 S7 2.572620 1_645
Ag0 S24 2.641185 1_555
Ag0 S41 3.159717 1_555
Ag1 S33 2.556746 1_655
Ag1 S24 2.637108 1_555
Ag1 S32 2.666106 1_555
Ag1 S16 2.692055 1_555
Ag2 S16 2.567222 1_555
Ag2 S43 2.572620 1_645
Ag2 S41 2.641185 1_555
Ag2 S24 3.159717 1_555
Ag3 S15 2.552483 1_555
Ag3 S2 2.622302 1_655
Ag3 S19 2.625173 1_555
Ag3 S33 3.088149 1_656
Ag4 S8 2.552483 1_555
Ag4 S38 2.622302 1_565
Ag4 S18 2.625173 1_555
Ag4 S25 3.088149 1_565
Ag5 S7 2.482065 1_555
Ag5 S36 2.565913 1_455
Ag5 S39 2.641460 1_555
Ag5 S41 2.801976 1_555
Ag6 S9 2.552359 1_465
Ag6 S42 2.648433 1_555
Ag6 S1 2.671044 1_555
Ag6 S19 2.724218 1_555
Ag7 S5 2.482065 1_555
Ag7 S27 2.565913 1_545
Ag7 S10 2.641460 1_555
Ag7 S29 2.801976 1_555
Ag8 S27 2.569997 1_545
Ag8 S13 2.587270 1_555
Ag8 S26 2.631079 1_545
Ag8 S0 2.632749 1_555
Ag9 S33 2.552483 1_555
Ag9 S4 2.622302 1_455
Ag9 S6 2.625173 1_555
Ag9 S15 3.088149 1_454
Ag10 S42 2.567222 1_555
Ag10 S5 2.572620 1_465
Ag10 S34 2.641185 1_555
Ag10 S29 3.159717 1_555
Ag11 S22 2.552359 1_645
Ag11 S35 2.648433 1_555
Ag11 S30 2.671044 1_555
Ag11 S18 2.724218 1_555
Ag12 S15 2.556746 1_455
Ag12 S29 2.637108 1_555
Ag12 S10 2.666106 1_555
Ag12 S42 2.692055 1_555
Ag13 S21 2.569997 1_565
Ag13 S22 2.587270 1_555
Ag13 S38 2.631079 1_565
Ag13 S30 2.632749 1_555
Ag14 S43 2.482065 1_555
Ag14 S21 2.565913 1_565
Ag14 S32 2.641460 1_555
Ag14 S24 2.801976 1_555
Ag15 S17 2.567222 1_555
Ag15 S12 2.572620 1_465
Ag15 S29 2.641185 1_555
Ag15 S34 3.159717 1_555
Ag16 S2 2.563973 1_555
Ag16 S27 2.584875 1_545
Ag16 S19 2.590124 1_545
Ag16 S1 2.842141 1_545
Ag17 S36 2.569997 1_455
Ag17 S28 2.587270 1_555
Ag17 S4 2.631079 1_455
Ag17 S11 2.632749 1_555
Ag18 S25 2.552483 1_555
Ag18 S26 2.622302 1_545
Ag18 S20 2.625173 1_555
Ag18 S8 3.088149 1_545
Ag19 S4 2.563973 1_555
Ag19 S21 2.584875 1_565
Ag19 S6 2.590124 1_565
Ag19 S11 2.842141 1_565
Ag20 S8 2.556746 1_545
Ag20 S41 2.637108 1_555
Ag20 S39 2.666106 1_555
Ag20 S35 2.692055 1_555
Ag21 S13 2.552359 1_465
Ag21 S17 2.648433 1_555
Ag21 S0 2.671044 1_555
Ag21 S20 2.724218 1_555
Ag22 S25 2.556746 1_565
Ag22 S34 2.637108 1_555
Ag22 S40 2.666106 1_555
Ag22 S17 2.692055 1_555
Ag23 S31 2.569997 1_655
Ag23 S9 2.587270 1_555
Ag23 S2 2.631079 1_655
Ag23 S1 2.632749 1_555
Ag24 S28 2.552359 1_645
Ag24 S16 2.648433 1_555
Ag24 S11 2.671044 1_555
Ag24 S6 2.724218 1_555
Ag25 S12 2.482065 1_555
Ag25 S31 2.565913 1_655
Ag25 S40 2.641460 1_555
Ag25 S34 2.801976 1_555
Ag26 S38 2.563973 1_555
Ag26 S36 2.584875 1_455
Ag26 S18 2.590124 1_455
Ag26 S30 2.842141 1_455
Ag27 S26 2.563973 1_555
Ag27 S31 2.584875 1_655
Ag27 S20 2.590124 1_655
Ag27 S0 2.842141 1_655
P0 S22 2.031555 1_555
P0 S7 2.047220 1_555
P0 S35 2.070125 1_555
P0 S3 2.138856 1_555
P1 S1 2.039981 1_555
P1 S34 2.081502 1_555
P1 S26 2.083800 1_555
P1 S31 2.095651 1_565
P2 S10 2.010774 1_555
P2 S15 2.055425 1_545
P2 S6 2.067790 1_556
P2 S37 2.168321 1_555
P3 S28 2.031555 1_555
P3 S43 2.047220 1_555
P3 S16 2.070125 1_555
P3 S14 2.138856 1_555
P4 S9 2.031555 1_555
P4 S5 2.047220 1_555
P4 S42 2.070125 1_555
P4 S37 2.138856 1_555
P5 S39 2.010774 1_555
P5 S8 2.055425 1_455
P5 S20 2.067790 1_555
P5 S3 2.168321 1_555
P6 S32 2.010774 1_555
P6 S33 2.055425 1_565
P6 S19 2.067790 1_554
P6 S14 2.168321 1_555
P7 S0 2.039981 1_555
P7 S29 2.081502 1_555
P7 S2 2.083800 1_555
P7 S27 2.095651 1_455
P8 S13 2.031555 1_555
P8 S12 2.047220 1_555
P8 S17 2.070125 1_555
P8 S23 2.138856 1_555
P9 S11 2.039981 1_555
P9 S41 2.081502 1_555
P9 S38 2.083800 1_555
P9 S36 2.095651 1_545
P10 S30 2.039981 1_555
P10 S24 2.081502 1_555
P10 S4 2.083800 1_555
P10 S21 2.095651 1_655
P11 S40 2.010774 1_555
P11 S25 2.055425 1_655
P11 S18 2.067790 1_555
P11 S23 2.168321 1_555
