# generated using pymatgen
data_CsMg4Al9(SiO4)9
_symmetry_space_group_name_H-M   'P 1'
_cell_length_a   9.52043300
_cell_length_b   9.86174774
_cell_length_c   9.88766913
_cell_angle_alpha   119.65971729
_cell_angle_beta   89.99868461
_cell_angle_gamma   90.02218220
_symmetry_Int_Tables_number   1
_chemical_formula_structural   CsMg4Al9(SiO4)9
_chemical_formula_sum   'Cs1 Mg4 Al9 Si9 O36'
_cell_volume   806.70375027
_cell_formula_units_Z   1
loop_
 _symmetry_equiv_pos_site_id
 _symmetry_equiv_pos_as_xyz
  1  'x, y, z'
loop_
 _atom_site_type_symbol
 _atom_site_label
 _atom_site_symmetry_multiplicity
 _atom_site_fract_x
 _atom_site_fract_y
 _atom_site_fract_z
 _atom_site_occupancy
  Cs  Cs0  1  0.24318200  0.99998500  0.99331200  1
  Mg  Mg0  1  0.75245200  0.66696800  0.33233700  1
  Mg  Mg1  1  0.24756100  0.66707700  0.33235400  1
  Mg  Mg2  1  0.75239500  0.33473800  0.67662100  1
  Mg  Mg3  1  0.24724800  0.33485300  0.67752300  1
  Al  Al0  1  0.75074000  0.49748100  0.99776500  1
  Al  Al1  1  0.24929800  0.49755100  0.99807400  1
  Al  Al2  1  0.75146000  0.50169100  0.50272700  1
  Al  Al3  1  0.24852800  0.50158900  0.50305600  1
  Al  Al4  1  0.74904300  0.00111700  0.50230100  1
  Al  Al5  1  0.25093900  0.00124600  0.50330700  1
  Al  Al6  1  0.99962700  0.63103600  0.89334300  1
  Al  Al7  1  0.99934000  0.11489800  0.73705000  1
  Al  Al8  1  0.50052800  0.25964000  0.89204700  1
  Si  Si0  1  0.50024300  0.73139900  0.10447800  1
  Si  Si1  1  0.00030900  0.89659500  0.27021000  1
  Si  Si2  1  0.00029500  0.37840500  0.11311300  1
  Si  Si3  1  0.49978000  0.37325500  0.26924700  1
  Si  Si4  1  0.49979000  0.88553500  0.62132900  1
  Si  Si5  1  0.99984600  0.26858900  0.37765700  1
  Si  Si6  1  0.00075700  0.73515900  0.62132500  1
  Si  Si7  1  0.50005100  0.10231700  0.36789500  1
  Si  Si8  1  0.50024900  0.62384400  0.73360800  1
  O  O0  1  0.00461700  0.78583600  0.08631000  1
  O  O1  1  0.49751800  0.92186200  0.21931400  1
  O  O2  1  0.64203700  0.65589200  0.13641900  1
  O  O3  1  0.35816500  0.65594500  0.13626800  1
  O  O4  1  0.85823500  0.48738500  0.14318600  1
  O  O5  1  0.14203000  0.48852600  0.14414900  1
  O  O6  1  0.14208300  0.86634800  0.34908300  1
  O  O7  1  0.85819400  0.86582900  0.34818300  1
  O  O8  1  0.49532600  0.30106600  0.08576900  1
  O  O9  1  0.00268000  0.30913700  0.23522300  1
  O  O10  1  0.64057800  0.85633600  0.51132100  1
  O  O11  1  0.35934000  0.85542600  0.51032400  1
  O  O12  1  0.64059400  0.48288700  0.35018200  1
  O  O13  1  0.35936300  0.48312600  0.35099900  1
  O  O14  1  0.49738000  0.22790400  0.30637800  1
  O  O15  1  0.85952200  0.65135200  0.51004300  1
  O  O16  1  0.14098100  0.65037000  0.50846000  1
  O  O17  1  0.00497100  0.91843900  0.68584200  1
  O  O18  1  0.00261100  0.08070600  0.30924800  1
  O  O19  1  0.85684900  0.34456800  0.48174200  1
  O  O20  1  0.14324700  0.34431600  0.48177600  1
  O  O21  1  0.49733600  0.76485800  0.69129100  1
  O  O22  1  0.64182400  0.51811900  0.65567800  1
  O  O23  1  0.35822200  0.51814200  0.65598800  1
  O  O24  1  0.64048400  0.13046700  0.47304600  1
  O  O25  1  0.35911600  0.13003500  0.47267200  1
  O  O26  1  0.00519500  0.69705500  0.76054200  1
  O  O27  1  0.49754700  0.69908200  0.92346400  1
  O  O28  1  0.14951100  0.14217500  0.65032900  1
  O  O29  1  0.85065100  0.14203600  0.64921000  1
  O  O30  1  0.85190200  0.51579700  0.86214300  1
  O  O31  1  0.14884000  0.51714200  0.86274400  1
  O  O32  1  0.64588300  0.34798800  0.86267600  1
  O  O33  1  0.35350500  0.34706000  0.86333100  1
  O  O34  1  0.49503500  0.05836000  0.76625400  1
  O  O35  1  0.00497000  0.23346100  0.93973200  1
loop_
_geom_bond_atom_site_label_1
_geom_bond_atom_site_label_2
_geom_bond_distance
_geom_bond_site_symmetry_2
Cs0 O35 3.454955 1_565
Cs0 O0 3.518844 1_556
Cs0 O34 3.521190 1_565
Cs0 O26 3.541968 1_555
Cs0 O17 3.551307 1_555
Cs0 O8 3.566855 1_566
Cs0 O9 3.612046 1_566
Cs0 O27 3.622744 1_555
Cs0 O1 3.627099 1_556
Cs0 O18 3.630134 1_566
Cs0 O21 3.646940 1_555
Cs0 O14 3.687961 1_566
Mg0 O4 2.090877 1_555
Mg0 O15 2.101952 1_555
Mg0 O10 2.117654 1_555
Mg0 O7 2.139713 1_555
Mg0 O2 2.158744 1_555
Mg0 O12 2.185466 1_555
Mg1 O5 2.080542 1_555
Mg1 O16 2.091055 1_555
Mg1 O11 2.107807 1_555
Mg1 O6 2.139495 1_555
Mg1 O3 2.160850 1_555
Mg1 O13 2.188679 1_555
Mg2 O29 2.012847 1_555
Mg2 O32 2.047383 1_555
Mg2 O30 2.051285 1_555
Mg2 O22 2.189442 1_555
Mg2 O19 2.212684 1_555
Mg2 O24 2.286980 1_555
Mg3 O28 2.010386 1_555
Mg3 O33 2.047996 1_555
Mg3 O31 2.050936 1_555
Mg3 O23 2.192770 1_555
Mg3 O20 2.216774 1_555
Mg3 O25 2.295491 1_555
Al0 O30 1.731465 1_555
Al0 O32 1.733255 1_555
Al0 O4 1.807367 1_556
Al0 O2 1.809028 1_556
Al1 O31 1.731647 1_555
Al1 O33 1.733787 1_555
Al1 O5 1.806670 1_556
Al1 O3 1.807685 1_556
Al2 O19 1.770235 1_555
Al2 O15 1.770637 1_555
Al2 O12 1.773856 1_555
Al2 O22 1.777762 1_555
Al3 O16 1.768496 1_555
Al3 O20 1.769267 1_555
Al3 O13 1.770937 1_555
Al3 O23 1.777496 1_555
Al4 O29 1.725752 1_555
Al4 O24 1.773493 1_555
Al4 O7 1.780704 1_545
Al4 O10 1.799379 1_545
Al5 O28 1.725892 1_555
Al5 O25 1.773492 1_555
Al5 O6 1.777765 1_545
Al5 O11 1.799374 1_545
Al6 O26 1.731176 1_655
Al6 O30 1.736804 1_555
Al6 O31 1.742418 1_655
Al6 O0 1.757960 1_656
Al7 O17 1.744158 1_645
Al7 O29 1.749357 1_555
Al7 O35 1.751315 1_655
Al7 O28 1.754868 1_655
Al8 O32 1.734338 1_555
Al8 O33 1.739625 1_555
Al8 O34 1.745378 1_555
Al8 O8 1.750395 1_556
O0 Si1 1.592320 1_555
O1 Si0 1.645365 1_555
O1 Si7 1.654792 1_565
O2 Si0 1.646239 1_555
O3 Si0 1.647068 1_555
O4 Si2 1.660566 1_655
O5 Si2 1.662353 1_555
O6 Si1 1.658188 1_555
O7 Si1 1.657767 1_655
O8 Si3 1.587951 1_555
O9 Si5 1.643592 1_455
O9 Si2 1.655658 1_555
O10 Si4 1.659179 1_555
O11 Si4 1.660729 1_555
O12 Si3 1.658070 1_555
O13 Si3 1.657947 1_555
O14 Si7 1.627920 1_555
O14 Si3 1.646452 1_555
O15 Si6 1.673607 1_655
O16 Si6 1.674529 1_555
O17 Si6 1.591941 1_555
O18 Si5 1.628176 1_455
O18 Si1 1.659047 1_545
O19 Si5 1.646671 1_555
O20 Si5 1.649187 1_455
O21 Si8 1.638791 1_555
O21 Si4 1.646249 1_555
O22 Si8 1.644221 1_555
O23 Si8 1.646555 1_555
O24 Si7 1.630854 1_555
O25 Si7 1.633491 1_555
O26 Si6 1.596802 1_555
O27 Si8 1.642162 1_555
O27 Si0 1.655625 1_556
O34 Si4 1.594746 1_545
O35 Si2 1.599667 1_556
