# generated using pymatgen
data_KCu(CN)2
_symmetry_space_group_name_H-M   'P 1'
_cell_length_a   7.75034700
_cell_length_b   7.43426800
_cell_length_c   7.67344715
_cell_angle_alpha   80.13030091
_cell_angle_beta   90.00000000
_cell_angle_gamma   90.00000000
_symmetry_Int_Tables_number   1
_chemical_formula_structural   KCu(CN)2
_chemical_formula_sum   'K4 Cu4 C8 N8'
_cell_volume   435.58640802
_cell_formula_units_Z   4
loop_
 _symmetry_equiv_pos_site_id
 _symmetry_equiv_pos_as_xyz
  1  'x, y, z'
loop_
 _atom_site_type_symbol
 _atom_site_label
 _atom_site_symmetry_multiplicity
 _atom_site_fract_x
 _atom_site_fract_y
 _atom_site_fract_z
 _atom_site_occupancy
  K  K0  1  0.42376700  0.81865200  0.31031500  1
  K  K1  1  0.92376700  0.68134800  0.68968500  1
  K  K2  1  0.57623300  0.18134800  0.68968500  1
  K  K3  1  0.07623300  0.31865200  0.31031500  1
  Cu  Cu0  1  0.88105300  0.91659700  0.10083300  1
  Cu  Cu1  1  0.38105300  0.58340300  0.89916700  1
  Cu  Cu2  1  0.11894700  0.08340300  0.89916700  1
  Cu  Cu3  1  0.61894700  0.41659700  0.10083300  1
  C  C0  1  0.08424200  0.78797800  0.04933300  1
  C  C1  1  0.58424200  0.71202200  0.95066700  1
  C  C2  1  0.41575800  0.28797800  0.04933300  1
  C  C3  1  0.69612400  0.46041100  0.32524000  1
  C  C4  1  0.19612400  0.03958900  0.67476000  1
  C  C5  1  0.30387600  0.53958900  0.67476000  1
  C  C6  1  0.80387600  0.96041100  0.32524000  1
  C  C7  1  0.91575800  0.21202200  0.95066700  1
  N  N0  1  0.24957100  0.52026200  0.53556400  1
  N  N1  1  0.25042900  0.02026200  0.53556400  1
  N  N2  1  0.75042900  0.47973800  0.46443600  1
  N  N3  1  0.18671700  0.67346700  0.03329100  1
  N  N4  1  0.31328300  0.17346700  0.03329100  1
  N  N5  1  0.81328300  0.32653300  0.96670900  1
  N  N6  1  0.74957100  0.97973800  0.46443600  1
  N  N7  1  0.68671700  0.82653300  0.96670900  1
loop_
_geom_bond_atom_site_label_1
_geom_bond_atom_site_label_2
_geom_bond_distance
_geom_bond_site_symmetry_2
K0 N1 2.815470 1_565
K0 N0 2.901152 1_555
K0 N6 3.113583 1_555
K0 N3 3.137776 1_555
K0 N4 3.207435 1_565
K0 N7 3.324998 1_554
K1 N2 2.815470 1_555
K1 N6 2.901152 1_555
K1 N0 3.113583 1_655
K1 N7 3.137776 1_555
K1 N5 3.207435 1_555
K1 N3 3.324998 1_656
K2 N6 2.815470 1_545
K2 N2 2.901152 1_555
K2 N1 3.113583 1_555
K2 N5 3.137776 1_555
K2 N7 3.207435 1_545
K2 N4 3.324998 1_556
K3 N0 2.815470 1_555
K3 N1 2.901152 1_555
K3 N2 3.113583 1_455
K3 N4 3.137776 1_555
K3 N3 3.207435 1_555
K3 N5 3.324998 1_454
Cu0 N7 2.003082 1_554
Cu1 N3 2.003082 1_556
Cu2 N4 2.003082 1_556
Cu3 N5 2.003082 1_554
C0 N3 1.185993 1_555
C0 Cu0 1.918320 1_455
C0 Cu2 2.314333 1_564
C0 K1 3.246755 1_454
C0 K0 3.338196 1_555
C1 N7 1.185993 1_555
C1 Cu1 1.918320 1_555
C1 Cu3 2.314333 1_556
C1 K0 3.246755 1_556
C1 K1 3.338196 1_555
C2 N4 1.185993 1_555
C2 Cu3 1.918320 1_555
C2 Cu1 2.314333 1_554
C2 K2 3.246755 1_554
C2 K3 3.338196 1_555
C3 N2 1.179519 1_555
C3 Cu3 1.902987 1_555
C3 K3 3.137503 1_655
C3 K2 3.316509 1_555
C3 K0 3.384854 1_555
C4 N1 1.179519 1_555
C4 Cu2 1.902987 1_555
C4 K2 3.137503 1_555
C4 K3 3.316509 1_555
C4 K1 3.384854 1_445
C5 N0 1.179519 1_555
C5 Cu1 1.902987 1_555
C5 K1 3.137503 1_455
C5 K0 3.316509 1_555
C5 K2 3.384854 1_555
C6 N6 1.179519 1_555
C6 Cu0 1.902987 1_555
C6 K0 3.137503 1_555
C6 K1 3.316509 1_555
C6 K3 3.384854 1_665
C7 N5 1.185993 1_555
C7 Cu2 1.918320 1_655
C7 Cu0 2.314333 1_546
C7 K3 3.246755 1_656
C7 K2 3.338196 1_555
