# generated using pymatgen
data_V2Bi8O17
_symmetry_space_group_name_H-M   'P 1'
_cell_length_a   4.18629034
_cell_length_b   4.18629034
_cell_length_c   32.17732774
_cell_angle_alpha   85.75988679
_cell_angle_beta   85.75988679
_cell_angle_gamma   52.71044703
_symmetry_Int_Tables_number   1
_chemical_formula_structural   V2Bi8O17
_chemical_formula_sum   'V2 Bi8 O17'
_cell_volume   447.10673111
_cell_formula_units_Z   1
loop_
 _symmetry_equiv_pos_site_id
 _symmetry_equiv_pos_as_xyz
  1  'x, y, z'
loop_
 _atom_site_type_symbol
 _atom_site_label
 _atom_site_symmetry_multiplicity
 _atom_site_fract_x
 _atom_site_fract_y
 _atom_site_fract_z
 _atom_site_occupancy
  V  V0  1  0.70493300  0.70493300  0.60951000  1
  V  V1  1  0.30952500  0.30952500  0.78633700  1
  Bi  Bi0  1  0.00507600  0.00507600  0.97470300  1
  Bi  Bi1  1  0.36399400  0.36399400  0.09105900  1
  Bi  Bi2  1  0.59291500  0.59291500  0.19364700  1
  Bi  Bi3  1  0.94742000  0.94742000  0.30877200  1
  Bi  Bi4  1  0.19382000  0.19382000  0.40968200  1
  Bi  Bi5  1  0.53784200  0.53784200  0.52271400  1
  Bi  Bi6  1  0.14363200  0.14363200  0.69847000  1
  Bi  Bi7  1  0.75539800  0.75539800  0.87471100  1
  O  O0  1  0.60694900  0.60694900  0.12461400  1
  O  O1  1  0.95985600  0.95985600  0.05614900  1
  O  O2  1  0.26820300  0.26820300  0.19262500  1
  O  O3  1  0.19513500  0.19513500  0.34138100  1
  O  O4  1  0.54525900  0.54525900  0.27421400  1
  O  O5  1  0.87061800  0.87061800  0.40760100  1
  O  O6  1  0.79939500  0.79939500  0.55573100  1
  O  O7  1  0.15506000  0.15506000  0.49062300  1
  O  O8  1  0.18243800  0.18243800  0.62269100  1
  O  O9  1  0.49229500  0.49229500  0.59646300  1
  O  O10  1  0.40456000  0.40456000  0.73171100  1
  O  O11  1  0.76941300  0.76941300  0.66801400  1
  O  O12  1  0.78683100  0.78683100  0.80012000  1
  O  O13  1  0.09718100  0.09718100  0.77413900  1
  O  O14  1  0.01486100  0.01486100  0.90601300  1
  O  O15  1  0.37482700  0.37482700  0.84372700  1
  O  O16  1  0.68136800  0.68136800  0.97218400  1
loop_
_geom_bond_atom_site_label_1
_geom_bond_atom_site_label_2
_geom_bond_distance
_geom_bond_site_symmetry_2
Bi0 O14 2.205417 1_555
Bi0 O16 2.278586 1_455
Bi0 O16 2.278586 1_545
Bi0 O16 2.436590 1_445
Bi0 O1 2.614673 1_446
Bi1 O0 2.193829 1_555
Bi1 O1 2.258216 1_545
Bi1 O1 2.258216 1_455
Bi2 O0 2.215096 1_555
Bi2 O2 2.275335 1_655
Bi2 O2 2.275335 1_565
Bi2 O2 2.439029 1_555
Bi2 O4 2.587579 1_555
Bi3 O3 2.208294 1_665
Bi3 O4 2.257078 1_565
Bi3 O4 2.257078 1_655
Bi3 O3 2.794537 1_655
Bi3 O3 2.794537 1_565
Bi4 O3 2.196952 1_555
Bi4 O5 2.280999 1_545
Bi4 O5 2.280999 1_455
Bi4 O5 2.431208 1_445
Bi4 O7 2.596693 1_555
Bi5 O7 2.267945 1_655
Bi5 O7 2.267945 1_565
Bi5 O6 2.307199 1_555
Bi5 O9 2.369450 1_555
Bi5 O6 2.732956 1_545
Bi5 O6 2.732956 1_455
Bi6 O11 2.269813 1_455
Bi6 O11 2.269813 1_545
Bi6 O10 2.306873 1_555
Bi6 O13 2.431008 1_555
Bi6 O8 2.431715 1_555
Bi6 O10 2.738294 1_455
Bi6 O10 2.738294 1_545
Bi7 O15 2.259019 1_565
Bi7 O15 2.259019 1_655
Bi7 O14 2.264330 1_665
Bi7 O12 2.392253 1_555
Bi7 O14 2.724861 1_565
Bi7 O14 2.724861 1_655
O6 V0 1.815038 1_555
O8 V0 1.910591 1_545
O8 V0 1.910591 1_455
O9 V0 1.682761 1_555
O10 V1 1.841496 1_555
O11 V0 1.981946 1_555
O12 V1 1.914947 1_655
O12 V1 1.914947 1_565
O13 V1 1.671863 1_555
O15 V1 1.949220 1_555
