# generated using pymatgen
data_ScU8S17
_symmetry_space_group_name_H-M   'P 1'
_cell_length_a   7.94842365
_cell_length_b   7.94842289
_cell_length_c   10.59112641
_cell_angle_alpha   80.32156815
_cell_angle_beta   80.32156810
_cell_angle_gamma   64.74383444
_symmetry_Int_Tables_number   1
_chemical_formula_structural   ScU8S17
_chemical_formula_sum   'Sc1 U8 S17'
_cell_volume   593.04846681
_cell_formula_units_Z   1
loop_
 _symmetry_equiv_pos_site_id
 _symmetry_equiv_pos_as_xyz
  1  'x, y, z'
loop_
 _atom_site_type_symbol
 _atom_site_label
 _atom_site_symmetry_multiplicity
 _atom_site_fract_x
 _atom_site_fract_y
 _atom_site_fract_z
 _atom_site_occupancy
  Sc  Sc0  1  0.00000000  -0.00000000  -0.00000000  1
  U  U0  1  0.79513395  0.79513395  0.46053354  1
  U  U1  1  0.20486605  0.20486605  0.53946646  1
  U  U2  1  0.69910000  0.18490685  0.70050058  1
  U  U3  1  0.18490685  0.69910000  0.70050058  1
  U  U4  1  0.81509315  0.30090000  0.29949942  1
  U  U5  1  0.67962482  0.67962482  0.98308909  1
  U  U6  1  0.32037518  0.32037518  0.01691091  1
  U  U7  1  0.30090000  0.81509315  0.29949942  1
  S  S0  1  0.48048924  0.48048924  0.16839087  1
  S  S1  1  0.69474611  0.69474611  0.24882423  1
  S  S2  1  0.56900152  0.17506437  0.46672223  1
  S  S3  1  0.05844349  0.66967922  0.96633916  1
  S  S4  1  0.20785399  0.20785399  0.27662275  1
  S  S5  1  0.43099848  0.82493563  0.53327777  1
  S  S6  1  0.51951076  0.51951076  0.83160913  1
  S  S7  1  0.66967922  0.05844349  0.96633916  1
  S  S8  1  0.93955271  0.93955271  0.23504957  1
  S  S9  1  0.06044729  0.06044729  0.76495043  1
  S  S10  1  0.30525389  0.30525389  0.75117577  1
  S  S11  1  0.33032078  0.94155651  0.03366084  1
  S  S12  1  0.82493563  0.43099848  0.53327777  1
  S  S13  1  0.94155651  0.33032078  0.03366084  1
  S  S14  1  0.17506437  0.56900152  0.46672223  1
  S  S15  1  0.00000000  -0.00000000  0.50000000  1
  S  S16  1  0.79214601  0.79214601  0.72337725  1
loop_
_geom_bond_atom_site_label_1
_geom_bond_atom_site_label_2
_geom_bond_distance
_geom_bond_site_symmetry_2
S0 U7 2.893923 1_555
S0 U4 2.893924 1_555
S0 U6 2.927175 1_555
S0 U5 2.985152 1_554
S1 U0 2.836805 1_555
S1 U4 2.838174 1_555
S1 U7 2.838174 1_555
S1 U5 2.861771 1_554
S2 U0 2.783807 1_545
S2 U1 2.784463 1_555
S2 U4 2.805751 1_555
S2 U2 2.863729 1_555
S3 Sc0 2.540584 1_566
S3 U6 2.696708 1_556
S3 U3 2.831943 1_555
S3 U5 2.953965 1_455
S4 U1 2.776104 1_555
S4 U7 2.861333 1_545
S4 U4 2.861334 1_455
S4 U6 2.862524 1_555
S5 U1 2.783807 1_565
S5 U0 2.784463 1_555
S5 U3 2.805751 1_555
S5 U7 2.863729 1_555
S6 U2 2.893923 1_555
S6 U3 2.893924 1_555
S6 U5 2.927175 1_555
S6 U6 2.985152 1_556
S7 Sc0 2.540584 1_656
S7 U6 2.696709 1_556
S7 U2 2.831943 1_555
S7 U5 2.953964 1_545
S8 Sc0 2.460010 1_665
S8 U0 2.760336 1_555
S8 U4 2.775131 1_565
S8 U7 2.775131 1_655
S9 Sc0 2.460010 1_556
S9 U1 2.760336 1_555
S9 U3 2.775131 1_545
S9 U2 2.775131 1_455
S10 U1 2.836805 1_555
S10 U3 2.838174 1_555
S10 U2 2.838174 1_555
S10 U6 2.861771 1_556
S11 Sc0 2.540584 1_565
S11 U5 2.696709 1_554
S11 U7 2.831943 1_555
S11 U6 2.953964 1_565
S12 U1 2.783807 1_655
S12 U0 2.784463 1_555
S12 U2 2.805751 1_555
S12 U4 2.863728 1_555
S13 Sc0 2.540584 1_655
S13 U5 2.696708 1_554
S13 U4 2.831943 1_555
S13 U6 2.953965 1_655
S14 U0 2.783807 1_455
S14 U1 2.784463 1_555
S14 U7 2.805751 1_555
S14 U3 2.863728 1_555
S15 U1 2.863254 1_555
S15 U0 2.863254 1_445
S15 U4 2.954952 1_455
S15 U3 2.954952 1_545
S15 U7 2.954952 1_545
S15 U2 2.954952 1_455
S16 U0 2.776104 1_555
S16 U2 2.861333 1_565
S16 U3 2.861334 1_655
S16 U5 2.862524 1_555
