# generated using pymatgen
data_Na2CdH4(SO5)2
_symmetry_space_group_name_H-M   'P 1'
_cell_length_a   13.20658600
_cell_length_b   5.64887100
_cell_length_c   5.97151904
_cell_angle_alpha   73.99723228
_cell_angle_beta   90.00000000
_cell_angle_gamma   90.00000000
_symmetry_Int_Tables_number   1
_chemical_formula_structural   Na2CdH4(SO5)2
_chemical_formula_sum   'Na4 Cd2 H8 S4 O20'
_cell_volume   428.22563587
_cell_formula_units_Z   2
loop_
 _symmetry_equiv_pos_site_id
 _symmetry_equiv_pos_as_xyz
  1  'x, y, z'
loop_
 _atom_site_type_symbol
 _atom_site_label
 _atom_site_symmetry_multiplicity
 _atom_site_fract_x
 _atom_site_fract_y
 _atom_site_fract_z
 _atom_site_occupancy
  Na  Na0  1  0.61747100  0.23621600  0.57900600  1
  Na  Na1  1  0.11747100  0.26378400  0.42099400  1
  Na  Na2  1  0.38252900  0.76378400  0.42099400  1
  Na  Na3  1  0.88252900  0.73621600  0.57900600  1
  Cd  Cd0  1  0.50000000  0.50000000  0.00000000  1
  Cd  Cd1  1  0.00000000  0.00000000  0.00000000  1
  H  H0  1  0.70988500  0.48234100  0.90528800  1
  H  H1  1  0.20988500  0.01765900  0.09471200  1
  H  H2  1  0.29011500  0.51765900  0.09471200  1
  H  H3  1  0.79011500  0.98234100  0.90528800  1
  H  H4  1  0.65958700  0.67545800  0.68587400  1
  H  H5  1  0.15958700  0.82454200  0.31412600  1
  H  H6  1  0.34041300  0.32454200  0.31412600  1
  H  H7  1  0.84041300  0.17545800  0.68587400  1
  S  S0  1  0.61839000  0.91874900  0.23813000  1
  S  S1  1  0.11839000  0.58125100  0.76187000  1
  S  S2  1  0.38161000  0.08125100  0.76187000  1
  S  S3  1  0.88161000  0.41874900  0.23813000  1
  O  O0  1  0.66721000  0.97455100  0.00645900  1
  O  O1  1  0.16721000  0.52544900  0.99354100  1
  O  O2  1  0.33279000  0.02544900  0.99354100  1
  O  O3  1  0.83279000  0.47455100  0.00645900  1
  O  O4  1  0.56131400  0.67815600  0.28731000  1
  O  O5  1  0.06131400  0.82184400  0.71269000  1
  O  O6  1  0.43868600  0.32184400  0.71269000  1
  O  O7  1  0.93868600  0.17815600  0.28731000  1
  O  O8  1  0.54265100  0.11654100  0.24644600  1
  O  O9  1  0.04265100  0.38345900  0.75355400  1
  O  O10  1  0.45734900  0.88345900  0.75355400  1
  O  O11  1  0.95734900  0.61654100  0.24644600  1
  O  O12  1  0.69265700  0.90405400  0.42864100  1
  O  O13  1  0.19265700  0.59594600  0.57135900  1
  O  O14  1  0.30734300  0.09594600  0.57135900  1
  O  O15  1  0.80734300  0.40405400  0.42864100  1
  O  O16  1  0.64867000  0.51385200  0.80281500  1
  O  O17  1  0.14867000  0.98614800  0.19718500  1
  O  O18  1  0.35133000  0.48614800  0.19718500  1
  O  O19  1  0.85133000  0.01385200  0.80281500  1
loop_
_geom_bond_atom_site_label_1
_geom_bond_atom_site_label_2
_geom_bond_distance
_geom_bond_site_symmetry_2
Na0 O16 2.360359 1_555
Na0 O8 2.473330 1_555
Na0 O12 2.498354 1_545
Na0 O6 2.580529 1_555
Na0 O0 2.655468 1_546
Na0 O4 2.723754 1_555
Na0 O15 2.742919 1_555
Na0 O10 2.895481 1_545
Na1 O17 2.360359 1_545
Na1 O9 2.473330 1_555
Na1 O13 2.498354 1_555
Na1 O7 2.580529 1_455
Na1 O1 2.655468 1_554
Na1 O5 2.723754 1_545
Na1 O14 2.742919 1_555
Na1 O11 2.895481 1_455
Na2 O18 2.360359 1_555
Na2 O10 2.473330 1_555
Na2 O14 2.498354 1_565
Na2 O4 2.580529 1_555
Na2 O2 2.655468 1_564
Na2 O6 2.723754 1_555
Na2 O13 2.742919 1_555
Na2 O8 2.895481 1_565
Na3 O19 2.360359 1_565
Na3 O11 2.473330 1_555
Na3 O15 2.498354 1_555
Na3 O5 2.580529 1_655
Na3 O3 2.655468 1_556
Na3 O7 2.723754 1_565
Na3 O12 2.742919 1_555
Na3 O9 2.895481 1_655
Cd0 O18 2.279659 1_555
Cd0 O16 2.279659 1_554
Cd0 O10 2.327542 1_554
Cd0 O8 2.327542 1_555
Cd0 O4 2.358823 1_555
Cd0 O6 2.358823 1_554
Cd1 O17 2.279659 1_545
Cd1 O19 2.279659 1_454
Cd1 O9 2.327542 1_554
Cd1 O11 2.327542 1_445
Cd1 O7 2.358823 1_455
Cd1 O5 2.358823 1_544
H0 O16 0.999825 1_555
H0 O3 1.728266 1_556
H1 O17 0.999825 1_545
H1 O2 1.728266 1_554
H2 O18 0.999825 1_555
H2 O1 1.728266 1_554
H3 O19 0.999825 1_565
H3 O0 1.728266 1_556
H4 O16 0.995145 1_555
H5 O17 0.995145 1_555
H6 O18 0.995145 1_555
H7 O19 0.995145 1_555
O0 S0 1.479355 1_555
O1 S1 1.479355 1_555
O2 S2 1.479355 1_555
O3 S3 1.479355 1_555
O4 S0 1.510449 1_555
O5 S1 1.510449 1_555
O6 S2 1.510449 1_555
O7 S3 1.510449 1_555
O8 S0 1.510605 1_545
O9 S1 1.510605 1_555
O10 S2 1.510605 1_565
O11 S3 1.510605 1_555
O12 S0 1.486957 1_555
O13 S1 1.486957 1_555
O14 S2 1.486957 1_555
O15 S3 1.486957 1_555
