# generated using pymatgen
data_BaBi4O7
_symmetry_space_group_name_H-M   'P 1'
_cell_length_a   7.79204953
_cell_length_b   7.79204953
_cell_length_c   8.76390975
_cell_angle_alpha   80.99372222
_cell_angle_beta   80.99372222
_cell_angle_gamma   33.29463520
_symmetry_Int_Tables_number   1
_chemical_formula_structural   BaBi4O7
_chemical_formula_sum   'Ba1 Bi4 O7'
_cell_volume   288.17340860
_cell_formula_units_Z   1
loop_
 _symmetry_equiv_pos_site_id
 _symmetry_equiv_pos_as_xyz
  1  'x, y, z'
loop_
 _atom_site_type_symbol
 _atom_site_label
 _atom_site_symmetry_multiplicity
 _atom_site_fract_x
 _atom_site_fract_y
 _atom_site_fract_z
 _atom_site_occupancy
  Ba  Ba0  1  0.48023100  0.48023100  0.29847900  1
  Bi  Bi0  1  0.39673200  0.39673200  0.92920600  1
  Bi  Bi1  1  0.87746400  0.87746400  0.62236800  1
  Bi  Bi2  1  0.14268600  0.14268600  0.54276400  1
  Bi  Bi3  1  0.74342500  0.74342500  0.23913300  1
  O  O0  1  0.40237900  0.40237900  0.66894500  1
  O  O1  1  0.01179700  0.01179700  0.48005500  1
  O  O2  1  0.65273800  0.65273800  0.46405100  1
  O  O3  1  0.86926800  0.86926800  0.30454000  1
  O  O4  1  0.21772000  0.21772000  0.31320700  1
  O  O5  1  0.51748900  0.51748900  0.00594200  1
  O  O6  1  0.90464800  0.90464800  0.85423900  1
loop_
_geom_bond_atom_site_label_1
_geom_bond_atom_site_label_2
_geom_bond_distance
_geom_bond_site_symmetry_2
Ba0 O5 2.533044 1_555
Ba0 O3 2.775244 1_455
Ba0 O3 2.775244 1_545
Ba0 O1 2.825333 1_655
Ba0 O1 2.825333 1_565
Ba0 O2 3.156116 1_555
Ba0 O0 3.264837 1_555
Bi0 O5 2.024686 1_556
Bi0 O0 2.268653 1_555
Bi0 O6 2.324489 1_545
Bi0 O6 2.324489 1_455
Bi1 O6 2.136278 1_555
Bi1 O1 2.181966 1_665
Bi1 O0 2.310332 1_655
Bi1 O0 2.310332 1_565
Bi1 O3 2.808007 1_555
Bi2 O1 2.114773 1_555
Bi2 O4 2.136822 1_555
Bi2 O2 2.334002 1_455
Bi2 O2 2.334002 1_545
Bi3 O3 2.052072 1_555
Bi3 O2 2.201524 1_555
Bi3 O4 2.338871 1_655
Bi3 O4 2.338871 1_565
