# generated using pymatgen
data_TbCuPbSe3
_symmetry_space_group_name_H-M   'P 1'
_cell_length_a   4.06965800
_cell_length_b   10.67910300
_cell_length_c   13.64011200
_cell_angle_alpha   90.00000000
_cell_angle_beta   90.00000000
_cell_angle_gamma   90.00000000
_symmetry_Int_Tables_number   1
_chemical_formula_structural   TbCuPbSe3
_chemical_formula_sum   'Tb4 Cu4 Pb4 Se12'
_cell_volume   592.80331804
_cell_formula_units_Z   4
loop_
 _symmetry_equiv_pos_site_id
 _symmetry_equiv_pos_as_xyz
  1  'x, y, z'
loop_
 _atom_site_type_symbol
 _atom_site_label
 _atom_site_symmetry_multiplicity
 _atom_site_fract_x
 _atom_site_fract_y
 _atom_site_fract_z
 _atom_site_occupancy
  Tb  Tb0  1  0.25000000  0.48629700  0.74172000  1
  Tb  Tb1  1  0.75000000  0.01370300  0.24172000  1
  Tb  Tb2  1  0.25000000  0.98629700  0.75828000  1
  Tb  Tb3  1  0.75000000  0.51370300  0.25828000  1
  Cu  Cu0  1  0.75000000  0.74177400  0.78060900  1
  Cu  Cu1  1  0.25000000  0.75822600  0.28060900  1
  Cu  Cu2  1  0.75000000  0.24177400  0.71939100  1
  Cu  Cu3  1  0.25000000  0.25822600  0.21939100  1
  Pb  Pb0  1  0.25000000  0.72488800  0.99591900  1
  Pb  Pb1  1  0.75000000  0.27511200  0.00408100  1
  Pb  Pb2  1  0.75000000  0.77511200  0.49591900  1
  Pb  Pb3  1  0.25000000  0.22488800  0.50408100  1
  Se  Se0  1  0.25000000  0.44843400  0.11442600  1
  Se  Se1  1  0.75000000  0.41668900  0.60426600  1
  Se  Se2  1  0.25000000  0.08331100  0.10426600  1
  Se  Se3  1  0.75000000  0.55156600  0.88557400  1
  Se  Se4  1  0.25000000  0.94843400  0.38557400  1
  Se  Se5  1  0.25000000  0.58331100  0.39573400  1
  Se  Se6  1  0.75000000  0.76020400  0.17163200  1
  Se  Se7  1  0.75000000  0.05156600  0.61442600  1
  Se  Se8  1  0.75000000  0.91668900  0.89573400  1
  Se  Se9  1  0.75000000  0.26020400  0.32836800  1
  Se  Se10  1  0.25000000  0.23979600  0.82836800  1
  Se  Se11  1  0.25000000  0.73979600  0.67163200  1
loop_
_geom_bond_atom_site_label_1
_geom_bond_atom_site_label_2
_geom_bond_distance
_geom_bond_site_symmetry_2
Cu0 Se8 2.440303 1_555
Cu0 Se3 2.485124 1_555
Cu0 Se11 2.520027 1_555
Cu0 Se11 2.520027 1_655
Cu1 Se5 2.440303 1_555
Cu1 Se4 2.485124 1_555
Cu1 Se6 2.520027 1_455
Cu1 Se6 2.520027 1_555
Cu2 Se1 2.440303 1_555
Cu2 Se7 2.485124 1_555
Cu2 Se10 2.520027 1_655
Cu2 Se10 2.520027 1_555
Cu3 Se2 2.440303 1_555
Cu3 Se0 2.485124 1_555
Cu3 Se9 2.520027 1_555
Cu3 Se9 2.520027 1_455
Pb0 Se3 3.135575 1_455
Pb0 Se3 3.135575 1_555
Pb0 Se6 3.166568 1_456
Pb0 Se6 3.166568 1_556
Pb0 Se8 3.194265 1_555
Pb0 Se8 3.194265 1_455
Pb0 Se0 3.365838 1_556
Pb1 Se0 3.135575 1_655
Pb1 Se0 3.135575 1_555
Pb1 Se10 3.166568 1_554
Pb1 Se10 3.166568 1_654
Pb1 Se2 3.194265 1_555
Pb1 Se2 3.194265 1_655
Pb1 Se3 3.365838 1_554
Pb2 Se4 3.135575 1_555
Pb2 Se4 3.135575 1_655
Pb2 Se11 3.166568 1_655
Pb2 Se11 3.166568 1_555
Pb2 Se5 3.194265 1_555
Pb2 Se5 3.194265 1_655
Pb2 Se7 3.365838 1_565
Pb3 Se7 3.135575 1_555
Pb3 Se7 3.135575 1_455
Pb3 Se9 3.166568 1_455
Pb3 Se9 3.166568 1_555
Pb3 Se1 3.194265 1_455
Pb3 Se1 3.194265 1_555
Pb3 Se4 3.365838 1_545
Se0 Tb3 2.911448 1_455
Se0 Tb3 2.911448 1_555
Se1 Tb0 2.865014 1_555
Se1 Tb0 2.865014 1_655
Se2 Tb1 2.865014 1_455
Se2 Tb1 2.865014 1_555
Se3 Tb0 2.911448 1_655
Se3 Tb0 2.911448 1_555
Se4 Tb1 2.911448 1_565
Se4 Tb1 2.911448 1_465
Se5 Tb3 2.865014 1_455
Se5 Tb3 2.865014 1_555
Se6 Tb1 2.870987 1_565
Se6 Tb3 2.885557 1_555
Se7 Tb2 2.911448 1_545
Se7 Tb2 2.911448 1_645
Se8 Tb2 2.865014 1_655
Se8 Tb2 2.865014 1_555
Se9 Tb3 2.870987 1_555
Se9 Tb1 2.885557 1_555
Se10 Tb2 2.870987 1_545
Se10 Tb0 2.885557 1_555
Se11 Tb0 2.870987 1_555
Se11 Tb2 2.885557 1_555
