# generated using pymatgen
data_Rb2TaCuS4
_symmetry_space_group_name_H-M   'P 1'
_cell_length_a   13.99435844
_cell_length_b   12.48279445
_cell_length_c   7.46811421
_cell_angle_alpha   85.15391598
_cell_angle_beta   62.72271190
_cell_angle_gamma   32.12337211
_symmetry_Int_Tables_number   1
_chemical_formula_structural   Rb2TaCuS4
_chemical_formula_sum   'Rb4 Ta2 Cu2 S8'
_cell_volume   472.46751423
_cell_formula_units_Z   2
loop_
 _symmetry_equiv_pos_site_id
 _symmetry_equiv_pos_as_xyz
  1  'x, y, z'
loop_
 _atom_site_type_symbol
 _atom_site_label
 _atom_site_symmetry_multiplicity
 _atom_site_fract_x
 _atom_site_fract_y
 _atom_site_fract_z
 _atom_site_occupancy
  Rb  Rb0  1  0.67194500  0.68171800  0.33199800  1
  Rb  Rb1  1  0.33025300  0.31298900  0.67134000  1
  Rb  Rb2  1  0.57633700  0.56850900  0.91865700  1
  Rb  Rb3  1  0.92115500  0.93634500  0.57593800  1
  Ta  Ta0  1  0.50099000  0.50180700  0.49399600  1
  Ta  Ta1  1  0.75587600  0.74619700  0.74079300  1
  Cu  Cu0  1  0.99765000  0.99825700  0.00169200  1
  Cu  Cu1  1  0.25448200  0.24374300  0.24229200  1
  S  S0  1  0.94341200  0.66556100  0.36621500  1
  S  S1  1  0.03953300  0.35154700  0.65690900  1
  S  S2  1  0.22477600  0.88391700  0.58916400  1
  S  S3  1  0.29269300  0.59901300  0.90050800  1
  S  S4  1  0.59515300  0.29835600  0.22093500  1
  S  S5  1  0.89793500  0.20703200  0.29381400  1
  S  S6  1  0.36107400  0.02876600  0.95228000  1
  S  S7  1  0.65925400  0.95136100  0.02884500  1
loop_
_geom_bond_atom_site_label_1
_geom_bond_atom_site_label_2
_geom_bond_distance
_geom_bond_site_symmetry_2
Rb0 S6 3.485444 1_565
Rb0 S2 3.502741 1_555
Rb0 S1 3.539622 1_565
Rb0 S1 3.562952 1_654
Rb0 S5 3.593222 1_555
Rb0 S6 3.630080 1_654
Rb0 S0 3.757890 1_555
Rb0 S7 3.815090 1_555
Rb1 S0 3.444457 1_545
Rb1 S4 3.552139 1_555
Rb1 S7 3.560248 1_456
Rb1 S7 3.578442 1_545
Rb1 S3 3.603064 1_555
Rb1 S0 3.654989 1_456
Rb1 S1 3.724488 1_555
Rb1 S6 3.762363 1_555
Rb2 S5 3.507309 1_555
Rb2 S6 3.518690 1_565
Rb2 S1 3.566308 1_655
Rb2 S2 3.566640 1_556
Rb2 S5 3.568215 1_466
Rb2 S2 3.628308 1_645
Rb2 S3 3.720742 1_555
Rb2 S4 3.780492 1_556
Rb3 S3 3.503158 1_565
Rb3 S7 3.534027 1_556
Rb3 S0 3.555210 1_555
Rb3 S3 3.560076 1_654
Rb3 S4 3.582063 1_655
Rb3 S4 3.612746 1_566
Rb3 S5 3.677888 1_565
Rb3 S2 3.762395 1_655
Cu0 S4 2.298666 1_565
Cu0 S3 2.319187 1_654
Cu0 S5 2.347077 1_565
Cu0 S2 2.390504 1_654
Cu1 S6 2.314670 1_554
Cu1 S7 2.374255 1_545
Cu1 S1 2.399445 1_555
Cu1 S0 2.416128 1_455
S0 Ta1 2.235681 1_555
S1 Ta1 2.353204 1_455
S2 Ta0 2.241201 1_555
S3 Ta0 2.388704 1_555
S4 Ta0 2.255700 1_555
S5 Ta0 2.308260 1_555
S6 Ta1 2.322806 1_545
S7 Ta1 2.326800 1_554
