# generated using pymatgen
data_EuSO4
_symmetry_space_group_name_H-M   'P 1'
_cell_length_a   5.34108868
_cell_length_b   6.86572642
_cell_length_c   8.34071998
_cell_angle_alpha   90.00000000
_cell_angle_beta   90.00000000
_cell_angle_gamma   90.00000000
_symmetry_Int_Tables_number   1
_chemical_formula_structural   EuSO4
_chemical_formula_sum   'Eu4 S4 O16'
_cell_volume   305.85798553
_cell_formula_units_Z   4
loop_
 _symmetry_equiv_pos_site_id
 _symmetry_equiv_pos_as_xyz
  1  'x, y, z'
loop_
 _atom_site_type_symbol
 _atom_site_label
 _atom_site_symmetry_multiplicity
 _atom_site_fract_x
 _atom_site_fract_y
 _atom_site_fract_z
 _atom_site_occupancy
  Eu  Eu0  1  0.25000000  0.34337198  0.68396706  1
  Eu  Eu1  1  0.75000000  0.84337198  0.81603294  1
  Eu  Eu2  1  0.75000000  0.65662802  0.31603294  1
  Eu  Eu3  1  0.25000000  0.15662802  0.18396706  1
  S  S0  1  0.75000000  0.18436162  0.43695525  1
  S  S1  1  0.25000000  0.68436162  0.06304475  1
  S  S2  1  0.25000000  0.81563838  0.56304475  1
  S  S3  1  0.75000000  0.31563838  0.93695525  1
  O  O0  1  0.52494077  0.31065556  0.42163573  1
  O  O1  1  0.25000000  0.90915549  0.40598178  1
  O  O2  1  0.97505923  0.18934444  0.92163573  1
  O  O3  1  0.02494077  0.81065556  0.07836427  1
  O  O4  1  0.47505923  0.81065556  0.07836427  1
  O  O5  1  0.97505923  0.31065556  0.42163573  1
  O  O6  1  0.25000000  0.59084451  0.90598178  1
  O  O7  1  0.75000000  0.40915549  0.09401822  1
  O  O8  1  0.25000000  0.95787864  0.69529867  1
  O  O9  1  0.75000000  0.04212136  0.30470133  1
  O  O10  1  0.02494077  0.68934444  0.57836427  1
  O  O11  1  0.25000000  0.54212136  0.19529867  1
  O  O12  1  0.47505923  0.68934444  0.57836427  1
  O  O13  1  0.75000000  0.45787864  0.80470133  1
  O  O14  1  0.75000000  0.09084451  0.59401822  1
  O  O15  1  0.52494077  0.18934444  0.92163573  1
loop_
_geom_bond_atom_site_label_1
_geom_bond_atom_site_label_2
_geom_bond_distance
_geom_bond_site_symmetry_2
Eu0 O6 2.513144 1_555
Eu0 O0 2.644689 1_555
Eu0 O5 2.644689 1_455
Eu0 O8 2.648379 1_545
Eu0 O15 2.684100 1_555
Eu0 O2 2.684100 1_455
Eu0 O10 2.804116 1_555
Eu0 O12 2.804116 1_555
Eu0 O13 2.960396 1_455
Eu0 O13 2.960396 1_555
Eu1 O14 2.513144 1_565
Eu1 O4 2.644689 1_556
Eu1 O3 2.644689 1_656
Eu1 O13 2.648379 1_555
Eu1 O12 2.684100 1_555
Eu1 O10 2.684100 1_655
Eu1 O2 2.804116 1_565
Eu1 O15 2.804116 1_565
Eu1 O8 2.960396 1_555
Eu1 O8 2.960396 1_655
Eu2 O7 2.513144 1_555
Eu2 O10 2.644689 1_655
Eu2 O12 2.644689 1_555
Eu2 O9 2.648379 1_565
Eu2 O3 2.684100 1_655
Eu2 O4 2.684100 1_555
Eu2 O5 2.804116 1_555
Eu2 O0 2.804116 1_555
Eu2 O11 2.960396 1_655
Eu2 O11 2.960396 1_555
Eu3 O1 2.513144 1_545
Eu3 O15 2.644689 1_554
Eu3 O2 2.644689 1_454
Eu3 O11 2.648379 1_555
Eu3 O0 2.684100 1_555
Eu3 O5 2.684100 1_455
Eu3 O4 2.804116 1_545
Eu3 O3 2.804116 1_545
Eu3 O9 2.960396 1_455
Eu3 O9 2.960396 1_555
O0 S0 1.487663 1_555
O1 S2 1.458901 1_555
O2 S3 1.487663 1_555
O3 S1 1.487663 1_555
O4 S1 1.487663 1_555
O5 S0 1.487663 1_555
O6 S1 1.458901 1_556
O7 S3 1.458901 1_554
O8 S2 1.473271 1_555
O9 S0 1.473271 1_555
O10 S2 1.487663 1_555
O11 S1 1.473271 1_555
O12 S2 1.487663 1_555
O13 S3 1.473271 1_555
O14 S0 1.458901 1_555
O15 S3 1.487663 1_555
