# generated using pymatgen
data_InCo3(CO)12
_symmetry_space_group_name_H-M   'P 1'
_cell_length_a   6.87290900
_cell_length_b   16.71896100
_cell_length_c   19.60039491
_cell_angle_alpha   62.15711862
_cell_angle_beta   90.00000000
_cell_angle_gamma   90.00000000
_symmetry_Int_Tables_number   1
_chemical_formula_structural   InCo3(CO)12
_chemical_formula_sum   'In4 Co12 C48 O48'
_cell_volume   1991.50209534
_cell_formula_units_Z   4
loop_
 _symmetry_equiv_pos_site_id
 _symmetry_equiv_pos_as_xyz
  1  'x, y, z'
loop_
 _atom_site_type_symbol
 _atom_site_label
 _atom_site_symmetry_multiplicity
 _atom_site_fract_x
 _atom_site_fract_y
 _atom_site_fract_z
 _atom_site_occupancy
  In  In0  1  0.85746200  0.22949300  0.78252200  1
  In  In1  1  0.35746200  0.77050700  0.71747800  1
  In  In2  1  0.64253800  0.22949300  0.28252200  1
  In  In3  1  0.14253800  0.77050700  0.21747800  1
  Co  Co0  1  0.28005500  0.93593400  0.14322700  1
  Co  Co1  1  0.68856500  0.32490000  0.13232100  1
  Co  Co2  1  0.81143500  0.32490000  0.63232100  1
  Co  Co3  1  0.49227700  0.30812200  0.35911300  1
  Co  Co4  1  0.21994500  0.93593400  0.64322700  1
  Co  Co5  1  0.50772300  0.69187800  0.64088700  1
  Co  Co6  1  0.18856500  0.67510000  0.36767900  1
  Co  Co7  1  0.31143500  0.67510000  0.86767900  1
  Co  Co8  1  0.71994500  0.06406600  0.85677300  1
  Co  Co9  1  0.99227700  0.69187800  0.14088700  1
  Co  Co10  1  0.78005500  0.06406600  0.35677300  1
  Co  Co11  1  0.00772300  0.30812200  0.85911300  1
  C  C0  1  0.56886600  0.67827000  0.86430600  1
  C  C1  1  0.30050700  0.76842100  0.37259900  1
  C  C2  1  0.55860200  0.59732000  0.73191000  1
  C  C3  1  0.99432500  0.11862200  0.30789200  1
  C  C4  1  0.76510200  0.06730000  0.94492400  1
  C  C5  1  0.29304800  0.59436100  0.96570800  1
  C  C6  1  0.83624100  0.38216700  0.16906700  1
  C  C7  1  0.19949300  0.76842100  0.87259900  1
  C  C8  1  0.63951800  0.95096600  0.89385800  1
  C  C9  1  0.93113400  0.67827000  0.36430600  1
  C  C10  1  0.61031100  0.64805400  0.58288900  1
  C  C11  1  0.50567500  0.11862200  0.80789200  1
  C  C12  1  0.80050700  0.23157900  0.12740100  1
  C  C13  1  0.05860200  0.40268000  0.76809000  1
  C  C14  1  0.94139800  0.59732000  0.23191000  1
  C  C15  1  0.08698200  0.94900800  0.19612600  1
  C  C16  1  0.86048200  0.95096600  0.39385800  1
  C  C17  1  0.76289500  0.29956700  0.88909300  1
  C  C18  1  0.73489800  0.06730000  0.44492400  1
  C  C19  1  0.84700000  0.79005100  0.10166300  1
  C  C20  1  0.91301800  0.05099200  0.80387400  1
  C  C21  1  0.66375900  0.38216700  0.66906700  1
  C  C22  1  0.23489800  0.93270000  0.05507600  1
  C  C23  1  0.26510200  0.93270000  0.55507600  1
  C  C24  1  0.23710500  0.70043300  0.11090700  1
  C  C25  1  0.69949300  0.23157900  0.62740100  1
  C  C26  1  0.11031100  0.35194600  0.91711100  1
  C  C27  1  0.88968900  0.64805400  0.08288900  1
  C  C28  1  0.34700000  0.20994900  0.39833700  1
  C  C29  1  0.16375900  0.61783300  0.83093300  1
  C  C30  1  0.43113400  0.32173000  0.13569400  1
  C  C31  1  0.65300000  0.79005100  0.60166300  1
  C  C32  1  0.73710500  0.29956700  0.38909300  1
  C  C33  1  0.33624100  0.61783300  0.33093300  1
  C  C34  1  0.79304800  0.40563900  0.53429200  1
  C  C35  1  0.49432500  0.88137800  0.19210800  1
  C  C36  1  0.20695200  0.59436100  0.46570800  1
  C  C37  1  0.36048200  0.04903400  0.10614200  1
  C  C38  1  0.00567500  0.88137800  0.69210800  1
  C  C39  1  0.38968900  0.35194600  0.41711100  1
  C  C40  1  0.13951800  0.04903400  0.60614200  1
  C  C41  1  0.41301800  0.94900800  0.69612600  1
  C  C42  1  0.26289500  0.70043300  0.61090700  1
  C  C43  1  0.58698200  0.05099200  0.30387400  1
  C  C44  1  0.15300000  0.20994900  0.89833700  1
  C  C45  1  0.44139800  0.40268000  0.26809000  1
  C  C46  1  0.70695200  0.40563900  0.03429200  1
  C  C47  1  0.06886600  0.32173000  0.63569400  1
  O  O0  1  0.36085200  0.15087900  0.77610700  1
  O  O1  1  0.68042800  0.62033700  0.54459100  1
  O  O2  1  0.75324500  0.85281600  0.57023400  1
  O  O3  1  0.91004800  0.87689600  0.41647400  1
  O  O4  1  0.90889700  0.53216000  0.28857400  1
  O  O5  1  0.28895400  0.93318500  0.49632600  1
  O  O6  1  0.24675500  0.14718400  0.42976600  1
  O  O7  1  0.23796400  0.32179600  0.63289200  1
  O  O8  1  0.39494300  0.70440700  0.08808000  1
  O  O9  1  0.46599700  0.03624800  0.26966700  1
  O  O10  1  0.87699000  0.17507800  0.11908800  1
  O  O11  1  0.09110300  0.46784000  0.71142600  1
  O  O12  1  0.59110300  0.53216000  0.78857400  1
  O  O13  1  0.25324500  0.14718400  0.92976600  1
  O  O14  1  0.60505700  0.29559300  0.91192000  1
  O  O15  1  0.21104600  0.93318500  0.99632600  1
  O  O16  1  0.89494300  0.29559300  0.41192000  1
  O  O17  1  0.12301000  0.82492200  0.88091200  1
  O  O18  1  0.73796400  0.67820400  0.86710800  1
  O  O19  1  0.96599700  0.96375200  0.23033300  1
  O  O20  1  0.58995200  0.87689600  0.91647400  1
  O  O21  1  0.40889700  0.46784000  0.21142600  1
  O  O22  1  0.93689600  0.42304200  0.18946600  1
  O  O23  1  0.56310400  0.42304200  0.68946600  1
  O  O24  1  0.86085200  0.84912100  0.72389300  1
  O  O25  1  0.78174500  0.45828900  0.46997500  1
  O  O26  1  0.74675500  0.85281600  0.07023400  1
  O  O27  1  0.41004800  0.12310400  0.08352600  1
  O  O28  1  0.26203600  0.32179600  0.13289200  1
  O  O29  1  0.71104600  0.06681500  0.50367400  1
  O  O30  1  0.10505700  0.70440700  0.58808000  1
  O  O31  1  0.81957200  0.62033700  0.04459100  1
  O  O32  1  0.53400300  0.96375200  0.73033300  1
  O  O33  1  0.37699000  0.82492200  0.38091200  1
  O  O34  1  0.28174500  0.54171100  0.03002500  1
  O  O35  1  0.63914800  0.84912100  0.22389300  1
  O  O36  1  0.03400300  0.03624800  0.76966700  1
  O  O37  1  0.08995200  0.12310400  0.58352600  1
  O  O38  1  0.78895400  0.06681500  0.00367400  1
  O  O39  1  0.31957200  0.37966300  0.45540900  1
  O  O40  1  0.18042800  0.37966300  0.95540900  1
  O  O41  1  0.71825500  0.45828900  0.96997500  1
  O  O42  1  0.13914800  0.15087900  0.27610700  1
  O  O43  1  0.43689600  0.57695800  0.31053400  1
  O  O44  1  0.62301000  0.17507800  0.61908800  1
  O  O45  1  0.06310400  0.57695800  0.81053400  1
  O  O46  1  0.21825500  0.54171100  0.53002500  1
  O  O47  1  0.76203600  0.67820400  0.36710800  1
loop_
_geom_bond_atom_site_label_1
_geom_bond_atom_site_label_2
_geom_bond_distance
_geom_bond_site_symmetry_2
Co0 In3 2.626960 1_555
Co1 In2 2.631549 1_555
Co2 In0 2.631549 1_555
Co3 In2 2.625217 1_555
Co4 In1 2.626960 1_555
Co5 In1 2.625217 1_555
Co6 In3 2.631549 1_555
Co7 In1 2.631549 1_555
Co8 In0 2.626960 1_555
Co9 In3 2.625217 1_655
Co10 In2 2.626960 1_555
Co11 In0 2.625217 1_455
C0 O18 1.163468 1_555
C0 Co7 1.770404 1_555
C0 In1 2.936986 1_555
C1 O33 1.157144 1_555
C1 Co6 1.782158 1_555
C2 O12 1.157593 1_555
C2 Co5 1.780428 1_555
C3 O42 1.164416 1_655
C3 Co10 1.761340 1_555
C3 In2 2.944153 1_555
C4 O38 1.159406 1_556
C4 Co8 1.780950 1_555
C5 O34 1.154790 1_556
C5 Co7 1.762727 1_555
C6 O22 1.166486 1_555
C6 Co1 1.763443 1_555
C6 In2 2.816171 1_555
C7 O17 1.157144 1_555
C7 Co7 1.782158 1_555
C8 O20 1.154707 1_555
C8 Co8 1.767930 1_565
C9 O47 1.163468 1_555
C9 Co6 1.770404 1_655
C9 In3 2.936986 1_655
C10 O1 1.155590 1_555
C10 Co5 1.761894 1_555
C11 O0 1.164416 1_555
C11 Co8 1.761340 1_555
C11 In0 2.944153 1_555
C12 O10 1.157144 1_555
C12 Co1 1.782158 1_555
C13 O11 1.157593 1_555
C13 Co11 1.780428 1_555
C14 O4 1.157593 1_555
C14 Co9 1.780428 1_555
C15 O19 1.164517 1_455
C15 Co0 1.759368 1_555
C15 In3 2.839125 1_555
C16 O3 1.154707 1_555
C16 Co10 1.767930 1_565
C17 O14 1.163458 1_555
C17 Co11 1.765973 1_655
C17 In0 2.905882 1_555
C18 O29 1.159406 1_555
C18 Co10 1.780950 1_555
C19 O26 1.162543 1_555
C19 Co9 1.761627 1_555
C19 In3 2.948338 1_655
C20 O36 1.164517 1_655
C20 Co8 1.759368 1_555
C20 In0 2.839125 1_555
C21 O23 1.166486 1_555
C21 Co2 1.763443 1_555
C21 In0 2.816171 1_555
C22 O15 1.159406 1_554
C22 Co0 1.780950 1_555
C23 O5 1.159406 1_555
C23 Co4 1.780950 1_555
C24 O8 1.163458 1_555
C24 Co9 1.765973 1_455
C24 In3 2.905882 1_555
C25 O44 1.157144 1_555
C25 Co2 1.782158 1_555
C26 O40 1.155590 1_555
C26 Co11 1.761894 1_555
C27 O31 1.155590 1_555
C27 Co9 1.761894 1_555
C28 O6 1.162543 1_555
C28 Co3 1.761627 1_555
C28 In2 2.948338 1_555
C29 O45 1.166486 1_555
C29 Co7 1.763443 1_555
C29 In1 2.816171 1_555
C30 O28 1.163468 1_555
C30 Co1 1.770404 1_555
C30 In2 2.936986 1_555
C31 O2 1.162543 1_555
C31 Co5 1.761627 1_555
C31 In1 2.948338 1_555
C32 O16 1.163458 1_555
C32 Co3 1.765973 1_555
C32 In2 2.905882 1_555
C33 O43 1.166486 1_555
C33 Co6 1.763443 1_555
C33 In3 2.816171 1_555
C34 O25 1.154790 1_555
C34 Co2 1.762727 1_555
C35 O35 1.164416 1_555
C35 Co0 1.761340 1_555
C35 In3 2.944153 1_555
C36 O46 1.154790 1_555
C36 Co6 1.762727 1_555
C37 O27 1.154707 1_555
C37 Co0 1.767930 1_545
C38 O24 1.164416 1_455
C38 Co4 1.761340 1_555
C38 In1 2.944153 1_555
C39 O39 1.155590 1_555
C39 Co3 1.761894 1_555
C40 O37 1.154707 1_555
C40 Co4 1.767930 1_545
C41 O32 1.164517 1_555
C41 Co4 1.759368 1_555
C41 In1 2.839125 1_555
C42 O30 1.163458 1_555
C42 Co5 1.765973 1_555
C42 In1 2.905882 1_555
C43 O9 1.164517 1_555
C43 Co10 1.759368 1_555
C43 In2 2.839125 1_555
C44 O13 1.162543 1_555
C44 Co11 1.761627 1_555
C44 In0 2.948338 1_455
C45 O21 1.157593 1_555
C45 Co3 1.780428 1_555
C46 O41 1.154790 1_554
C46 Co1 1.762727 1_555
C47 O7 1.163468 1_555
C47 Co2 1.770404 1_455
C47 In0 2.936986 1_455
