# generated using pymatgen
data_Rh2O3
_symmetry_space_group_name_H-M   'P 1'
_cell_length_a   5.16383549
_cell_length_b   5.45186020
_cell_length_c   14.75820022
_cell_angle_alpha   89.99988639
_cell_angle_beta   90.00004483
_cell_angle_gamma   89.99997548
_symmetry_Int_Tables_number   1
_chemical_formula_structural   Rh2O3
_chemical_formula_sum   'Rh16 O24'
_cell_volume   415.48036728
_cell_formula_units_Z   8
loop_
 _symmetry_equiv_pos_site_id
 _symmetry_equiv_pos_as_xyz
  1  'x, y, z'
loop_
 _atom_site_type_symbol
 _atom_site_label
 _atom_site_symmetry_multiplicity
 _atom_site_fract_x
 _atom_site_fract_y
 _atom_site_fract_z
 _atom_site_occupancy
  Rh  Rh0  1  0.49920981  0.68124875  0.07562003  1
  Rh  Rh1  1  0.00079175  0.31875914  0.57561130  1
  Rh  Rh2  1  0.50069555  0.24781651  0.67839943  1
  Rh  Rh3  1  0.49930383  0.74782935  0.82158666  1
  Rh  Rh4  1  0.99931221  0.75216744  0.17841462  1
  Rh  Rh5  1  0.00069086  0.25218084  0.32159948  1
  Rh  Rh6  1  0.50069228  0.25218104  0.17841239  1
  Rh  Rh7  1  0.49931194  0.75216976  0.32159772  1
  Rh  Rh8  1  0.99920617  0.81875479  0.92438489  1
  Rh  Rh9  1  0.49920456  0.81875299  0.57561001  1
  Rh  Rh10  1  0.99920703  0.68125212  0.42438451  1
  Rh  Rh11  1  0.50078933  0.18124670  0.42438402  1
  Rh  Rh12  1  0.99930437  0.74782970  0.67840097  1
  Rh  Rh13  1  0.00069655  0.24781586  0.82158898  1
  Rh  Rh14  1  0.00078845  0.18124192  0.07562182  1
  Rh  Rh15  1  0.50078944  0.31876074  0.92438343  1
  O  O0  1  0.80085989  0.46901621  0.12442920  1
  O  O1  1  0.15073089  0.84234681  0.05219073  1
  O  O2  1  0.64269123  0.11342526  0.29724500  1
  O  O3  1  0.30085782  0.46901517  0.37557785  1
  O  O4  1  0.35731956  0.88659671  0.70275380  1
  O  O5  1  0.30085597  0.03098641  0.87556761  1
  O  O6  1  0.15073429  0.65764988  0.55218327  1
  O  O7  1  0.34925534  0.15763888  0.55218102  1
  O  O8  1  0.14268986  0.11342616  0.20276682  1
  O  O9  1  0.65073619  0.84234922  0.44781175  1
  O  O10  1  0.69914754  0.53099065  0.62442962  1
  O  O11  1  0.19914633  0.53098784  0.87556174  1
  O  O12  1  0.14268456  0.38657329  0.70275501  1
  O  O13  1  0.84926073  0.15763899  0.94781738  1
  O  O14  1  0.65072867  0.65764917  0.94781360  1
  O  O15  1  0.34925836  0.34236023  0.05218713  1
  O  O16  1  0.84925427  0.34235999  0.44781457  1
  O  O17  1  0.35732172  0.61340565  0.20276491  1
  O  O18  1  0.64268261  0.38656799  0.79723452  1
  O  O19  1  0.80085707  0.03099042  0.62442512  1
  O  O20  1  0.69914805  0.96901273  0.12443607  1
  O  O21  1  0.19914758  0.96901141  0.37557265  1
  O  O22  1  0.85732258  0.88659275  0.79723538  1
  O  O23  1  0.85731576  0.61340051  0.29724500  1
loop_
_geom_bond_atom_site_label_1
_geom_bond_atom_site_label_2
_geom_bond_distance
_geom_bond_site_symmetry_2
O0 Rh14 2.011507 1_655
O0 Rh4 2.016918 1_555
O0 Rh0 2.069785 1_555
O0 Rh6 2.105888 1_555
O1 Rh0 2.032018 1_555
O1 Rh14 2.032915 1_565
O1 Rh8 2.046084 1_454
O1 Rh4 2.079242 1_455
O2 Rh5 2.029521 1_655
O2 Rh6 2.045868 1_555
O2 Rh11 2.048004 1_555
O2 Rh7 2.134556 1_545
O3 Rh11 2.011481 1_555
O3 Rh7 2.016904 1_555
O3 Rh10 2.069791 1_455
O3 Rh5 2.105857 1_555
O4 Rh12 2.029614 1_455
O4 Rh3 2.045868 1_555
O4 Rh9 2.048059 1_555
O4 Rh2 2.134375 1_565
O5 Rh15 2.011565 1_555
O5 Rh3 2.016904 1_545
O5 Rh8 2.069824 1_445
O5 Rh13 2.105812 1_555
O6 Rh9 2.031985 1_555
O6 Rh1 2.032886 1_555
O6 Rh10 2.045995 1_455
O6 Rh12 2.079184 1_455
O7 Rh1 2.032003 1_555
O7 Rh9 2.032876 1_545
O7 Rh11 2.045988 1_555
O7 Rh2 2.079210 1_555
O8 Rh6 2.029533 1_555
O8 Rh5 2.045870 1_555
O8 Rh14 2.048076 1_555
O8 Rh4 2.134569 1_445
O9 Rh10 2.031974 1_555
O9 Rh11 2.032926 1_565
O9 Rh9 2.045996 1_555
O9 Rh7 2.079123 1_555
O10 Rh9 2.011556 1_555
O10 Rh2 2.016920 1_555
O10 Rh1 2.069808 1_655
O10 Rh12 2.105793 1_555
O11 Rh8 2.011590 1_455
O11 Rh13 2.016924 1_555
O11 Rh15 2.069806 1_555
O11 Rh3 2.105823 1_555
O12 Rh2 2.029580 1_555
O12 Rh13 2.045870 1_555
O12 Rh1 2.048042 1_555
O12 Rh12 2.134565 1_455
O13 Rh15 2.032050 1_555
O13 Rh8 2.032871 1_545
O13 Rh14 2.046074 1_656
O13 Rh13 2.079332 1_655
O14 Rh8 2.032029 1_555
O14 Rh15 2.032874 1_555
O14 Rh0 2.046084 1_556
O14 Rh3 2.079294 1_555
O15 Rh14 2.032039 1_555
O15 Rh0 2.032905 1_555
O15 Rh15 2.046071 1_554
O15 Rh6 2.079288 1_555
O16 Rh11 2.031994 1_555
O16 Rh10 2.032918 1_555
O16 Rh1 2.045988 1_655
O16 Rh5 2.079162 1_655
O17 Rh4 2.029568 1_455
O17 Rh7 2.045874 1_555
O17 Rh0 2.048078 1_555
O17 Rh6 2.134385 1_555
O18 Rh13 2.029581 1_655
O18 Rh2 2.045872 1_555
O18 Rh15 2.048106 1_555
O18 Rh3 2.134584 1_555
O19 Rh1 2.011532 1_655
O19 Rh12 2.016885 1_545
O19 Rh9 2.069842 1_545
O19 Rh2 2.105788 1_555
O20 Rh0 2.011534 1_555
O20 Rh6 2.016945 1_565
O20 Rh14 2.069765 1_665
O20 Rh4 2.105878 1_555
O21 Rh10 2.011497 1_455
O21 Rh5 2.016931 1_565
O21 Rh11 2.069775 1_565
O21 Rh7 2.105850 1_555
O22 Rh3 2.029619 1_555
O22 Rh12 2.045878 1_555
O22 Rh8 2.048126 1_555
O22 Rh13 2.134387 1_665
O23 Rh7 2.029564 1_555
O23 Rh4 2.045859 1_555
O23 Rh10 2.048020 1_555
O23 Rh5 2.134372 1_655
