# generated using pymatgen
data_Na2Sr3As4
_symmetry_space_group_name_H-M   'P 1'
_cell_length_a   9.34155800
_cell_length_b   9.64551300
_cell_length_c   13.86755231
_cell_angle_alpha   56.93830115
_cell_angle_beta   90.00000000
_cell_angle_gamma   90.00000000
_symmetry_Int_Tables_number   1
_chemical_formula_structural   Na2Sr3As4
_chemical_formula_sum   'Na8 Sr12 As16'
_cell_volume   1047.20521001
_cell_formula_units_Z   4
loop_
 _symmetry_equiv_pos_site_id
 _symmetry_equiv_pos_as_xyz
  1  'x, y, z'
loop_
 _atom_site_type_symbol
 _atom_site_label
 _atom_site_symmetry_multiplicity
 _atom_site_fract_x
 _atom_site_fract_y
 _atom_site_fract_z
 _atom_site_occupancy
  Na  Na0  1  0.92953800  0.24613100  0.21725100  1
  Na  Na1  1  0.70884100  0.84396800  0.86008200  1
  Na  Na2  1  0.79115900  0.84396800  0.36008200  1
  Na  Na3  1  0.57046200  0.24613100  0.71725100  1
  Na  Na4  1  0.42953800  0.75386900  0.28274900  1
  Na  Na5  1  0.20884100  0.15603200  0.63991800  1
  Na  Na6  1  0.29115900  0.15603200  0.13991800  1
  Na  Na7  1  0.07046200  0.75386900  0.78274900  1
  Sr  Sr0  1  0.05437300  0.27019300  0.94082100  1
  Sr  Sr1  1  0.96869500  0.42483000  0.64702800  1
  Sr  Sr2  1  0.82383000  0.10285600  0.56954400  1
  Sr  Sr3  1  0.67617000  0.10285600  0.06954400  1
  Sr  Sr4  1  0.44562700  0.27019300  0.44082100  1
  Sr  Sr5  1  0.53130500  0.42483000  0.14702800  1
  Sr  Sr6  1  0.46869500  0.57517000  0.85297200  1
  Sr  Sr7  1  0.55437300  0.72980700  0.55917900  1
  Sr  Sr8  1  0.32383000  0.89714400  0.93045600  1
  Sr  Sr9  1  0.17617000  0.89714400  0.43045600  1
  Sr  Sr10  1  0.03130500  0.57517000  0.35297200  1
  Sr  Sr11  1  0.94562700  0.72980700  0.05917900  1
  As  As0  1  0.02009800  0.96234200  0.19118400  1
  As  As1  1  0.88884400  0.76764400  0.60223100  1
  As  As2  1  0.77947100  0.48019800  0.97342400  1
  As  As3  1  0.77473800  0.51125900  0.78123700  1
  As  As4  1  0.72526200  0.51125900  0.28123700  1
  As  As5  1  0.72052900  0.48019800  0.47342400  1
  As  As6  1  0.61115600  0.76764400  0.10223100  1
  As  As7  1  0.47990200  0.96234200  0.69118400  1
  As  As8  1  0.52009800  0.03765800  0.30881600  1
  As  As9  1  0.38884400  0.23235600  0.89776900  1
  As  As10  1  0.27947100  0.51980200  0.52657600  1
  As  As11  1  0.27473800  0.48874100  0.71876300  1
  As  As12  1  0.22526200  0.48874100  0.21876300  1
  As  As13  1  0.11115600  0.23235600  0.39776900  1
  As  As14  1  0.22052900  0.51980200  0.02657600  1
  As  As15  1  0.97990200  0.03765800  0.80881600  1
loop_
_geom_bond_atom_site_label_1
_geom_bond_atom_site_label_2
_geom_bond_distance
_geom_bond_site_symmetry_2
As0 Na2 2.906118 1_455
As0 Na6 2.993036 1_565
As0 Na0 3.068993 1_465
As0 Sr0 3.118573 1_564
As0 Sr10 3.138338 1_555
As0 Sr9 3.354742 1_555
As0 Sr3 3.536967 1_465
As0 Sr11 3.653154 1_455
As1 As3 2.591519 1_555
As1 Na7 2.966464 1_655
As1 Sr2 3.070731 1_565
As1 Sr1 3.103997 1_555
As1 Na2 3.154941 1_555
As1 Sr7 3.238788 1_555
As1 Sr9 3.345504 1_655
As2 As3 2.514677 1_555
As2 Na1 3.033123 1_555
As2 Sr5 3.170581 1_556
As2 Na0 3.188455 1_556
As2 Sr6 3.223035 1_555
As2 Sr3 3.265226 1_556
As2 Sr0 3.449845 1_655
As2 Sr11 3.569863 1_556
As3 Sr1 3.022345 1_555
As3 Sr6 3.195643 1_555
As3 Sr7 3.328871 1_555
As3 Sr0 3.393138 1_655
As4 As5 2.514677 1_555
As4 As6 2.591519 1_555
As4 Sr5 3.022345 1_555
As4 Sr10 3.195643 1_655
As4 Sr11 3.328871 1_555
As4 Sr4 3.393138 1_555
As5 Na2 3.033123 1_555
As5 Sr1 3.170581 1_555
As5 Na3 3.188455 1_555
As5 Sr10 3.223035 1_655
As5 Sr2 3.265226 1_555
As5 Sr4 3.449845 1_555
As5 Sr7 3.569863 1_555
As6 Na4 2.966464 1_555
As6 Sr3 3.070731 1_565
As6 Sr5 3.103997 1_555
As6 Na1 3.154941 1_554
As6 Sr11 3.238788 1_555
As6 Sr8 3.345504 1_554
As7 Na1 2.906118 1_555
As7 Na5 2.993036 1_565
As7 Na3 3.068993 1_565
As7 Sr4 3.118573 1_565
As7 Sr6 3.138338 1_555
As7 Sr8 3.354742 1_555
As7 Sr2 3.536967 1_565
As7 Sr7 3.653154 1_555
As8 Na6 2.906118 1_555
As8 Na2 2.993036 1_545
As8 Na4 3.068993 1_545
As8 Sr7 3.118573 1_545
As8 Sr5 3.138338 1_555
As8 Sr3 3.354742 1_555
As8 Sr9 3.536967 1_545
As8 Sr4 3.653154 1_555
As9 Na3 2.966464 1_555
As9 Sr8 3.070731 1_545
As9 Sr6 3.103997 1_555
As9 Na6 3.154941 1_556
As9 Sr0 3.238788 1_555
As9 Sr3 3.345504 1_556
As10 As11 2.514677 1_555
As10 Na5 3.033123 1_555
As10 Sr10 3.170581 1_555
As10 Na4 3.188455 1_555
As10 Sr1 3.223035 1_455
As10 Sr9 3.265226 1_555
As10 Sr7 3.449845 1_555
As10 Sr4 3.569863 1_555
As11 As9 2.591519 1_555
As11 Sr6 3.022345 1_555
As11 Sr1 3.195643 1_455
As11 Sr0 3.328871 1_555
As11 Sr7 3.393138 1_555
As12 As14 2.514677 1_555
As12 As13 2.591519 1_555
As12 Sr10 3.022345 1_555
As12 Sr5 3.195643 1_555
As12 Sr4 3.328871 1_555
As12 Sr11 3.393138 1_455
As13 Na0 2.966464 1_455
As13 Sr9 3.070731 1_545
As13 Sr10 3.103997 1_555
As13 Na5 3.154941 1_555
As13 Sr4 3.238788 1_555
As13 Sr2 3.345504 1_455
As14 Na6 3.033123 1_555
As14 Sr6 3.170581 1_554
As14 Na7 3.188455 1_554
As14 Sr5 3.223035 1_555
As14 Sr8 3.265226 1_554
As14 Sr11 3.449845 1_455
As14 Sr0 3.569863 1_554
As15 Na5 2.906118 1_655
As15 Na1 2.993036 1_545
As15 Na7 3.068993 1_645
As15 Sr11 3.118573 1_546
As15 Sr1 3.138338 1_555
As15 Sr2 3.354742 1_555
As15 Sr8 3.536967 1_645
As15 Sr0 3.653154 1_655
