# generated using pymatgen
data_Sm2Pd2Pb
_symmetry_space_group_name_H-M   'P 1'
_cell_length_a   7.92686721
_cell_length_b   7.92686721
_cell_length_c   3.73312684
_cell_angle_alpha   90.00000000
_cell_angle_beta   90.00000000
_cell_angle_gamma   90.00000000
_symmetry_Int_Tables_number   1
_chemical_formula_structural   Sm2Pd2Pb
_chemical_formula_sum   'Sm4 Pd4 Pb2'
_cell_volume   234.57186033
_cell_formula_units_Z   2
loop_
 _symmetry_equiv_pos_site_id
 _symmetry_equiv_pos_as_xyz
  1  'x, y, z'
loop_
 _atom_site_type_symbol
 _atom_site_label
 _atom_site_symmetry_multiplicity
 _atom_site_fract_x
 _atom_site_fract_y
 _atom_site_fract_z
 _atom_site_occupancy
  Sm  Sm0  1  0.32507431  0.82507431  0.50000000  1
  Sm  Sm1  1  0.67492569  0.17492569  0.50000000  1
  Sm  Sm2  1  0.82507431  0.67492569  0.50000000  1
  Sm  Sm3  1  0.17492569  0.32507431  0.50000000  1
  Pd  Pd0  1  0.12365036  0.62365036  0.00000000  1
  Pd  Pd1  1  0.37634964  0.12365036  0.00000000  1
  Pd  Pd2  1  0.87634964  0.37634964  -0.00000000  1
  Pd  Pd3  1  0.62365036  0.87634964  -0.00000000  1
  Pb  Pb0  1  0.00000000  -0.00000000  0.00000000  1
  Pb  Pb1  1  0.50000000  0.50000000  0.00000000  1
loop_
_geom_bond_atom_site_label_1
_geom_bond_atom_site_label_2
_geom_bond_distance
_geom_bond_site_symmetry_2
Pd0 Pd2 2.772311 1_455
Pd0 Sm0 2.929626 1_554
Pd0 Sm0 2.929626 1_555
Pd0 Sm3 3.041525 1_554
Pd0 Sm3 3.041525 1_555
Pd0 Sm2 3.041525 1_455
Pd0 Sm2 3.041525 1_454
Pd1 Pd3 2.772311 1_545
Pd1 Sm3 2.929626 1_554
Pd1 Sm3 2.929626 1_555
Pd1 Sm1 3.041525 1_555
Pd1 Sm0 3.041525 1_545
Pd1 Sm1 3.041525 1_554
Pd1 Sm0 3.041525 1_544
Pd2 Sm1 2.929626 1_555
Pd2 Sm1 2.929626 1_554
Pd2 Sm3 3.041525 1_655
Pd2 Sm3 3.041525 1_654
Pd2 Sm2 3.041525 1_555
Pd2 Sm2 3.041525 1_554
Pd3 Sm2 2.929626 1_555
Pd3 Sm2 2.929626 1_554
Pd3 Sm0 3.041525 1_554
Pd3 Sm0 3.041525 1_555
Pd3 Sm1 3.041525 1_565
Pd3 Sm1 3.041525 1_564
Pb0 Pd1 3.140165 1_555
Pb0 Pd2 3.140165 1_455
Pb0 Pd3 3.140165 1_445
Pb0 Pd0 3.140165 1_545
Pb0 Sm0 3.470844 1_545
Pb0 Sm0 3.470844 1_544
Pb0 Sm1 3.470844 1_455
Pb0 Sm1 3.470844 1_454
Pb0 Sm2 3.470844 1_445
Pb0 Sm3 3.470844 1_554
Pb0 Sm3 3.470844 1_555
Pb0 Sm2 3.470844 1_444
Pb1 Pd1 3.140165 1_555
Pb1 Pd3 3.140165 1_555
Pb1 Pd0 3.140165 1_555
Pb1 Pd2 3.140165 1_555
Pb1 Sm1 3.470844 1_554
Pb1 Sm0 3.470844 1_554
Pb1 Sm2 3.470844 1_555
Pb1 Sm2 3.470844 1_554
Pb1 Sm1 3.470844 1_555
Pb1 Sm3 3.470844 1_554
Pb1 Sm3 3.470844 1_555
Pb1 Sm0 3.470844 1_555
