# generated using pymatgen
data_KAgCO3
_symmetry_space_group_name_H-M   'P 1'
_cell_length_a   5.91303600
_cell_length_b   5.98339409
_cell_length_c   11.02022749
_cell_angle_alpha   105.66668286
_cell_angle_beta   104.42069844
_cell_angle_gamma   90.14087930
_symmetry_Int_Tables_number   1
_chemical_formula_structural   KAgCO3
_chemical_formula_sum   'K4 Ag4 C4 O12'
_cell_volume   362.56557752
_cell_formula_units_Z   4
loop_
 _symmetry_equiv_pos_site_id
 _symmetry_equiv_pos_as_xyz
  1  'x, y, z'
loop_
 _atom_site_type_symbol
 _atom_site_label
 _atom_site_symmetry_multiplicity
 _atom_site_fract_x
 _atom_site_fract_y
 _atom_site_fract_z
 _atom_site_occupancy
  K  K0  1  0.42693500  0.67870100  0.35727500  1
  K  K1  1  0.56835300  0.32299400  0.64220800  1
  K  K2  1  0.07003000  0.81993700  0.64081200  1
  K  K3  1  0.92896200  0.18266600  0.35948200  1
  Ag  Ag0  1  0.35181500  0.76195100  0.99629000  1
  Ag  Ag1  1  0.14945600  0.24430400  0.00004300  1
  Ag  Ag2  1  0.64973700  0.24107600  0.00246900  1
  Ag  Ag3  1  0.84953600  0.73785100  0.99757800  1
  C  C0  1  0.87606500  0.62554200  0.24903700  1
  C  C1  1  0.12110700  0.37506200  0.75135200  1
  C  C2  1  0.37583300  0.12565900  0.24886200  1
  C  C3  1  0.62147100  0.87521200  0.75056900  1
  O  O0  1  0.56410000  0.81384100  0.62508600  1
  O  O1  1  0.74011400  0.75348300  0.18643300  1
  O  O2  1  0.45421100  0.25629400  0.18745100  1
  O  O3  1  0.95199200  0.43467900  0.18556600  1
  O  O4  1  0.06143300  0.31140700  0.62579900  1
  O  O5  1  0.54119600  0.74755500  0.81289600  1
  O  O6  1  0.43187700  0.18638300  0.37433400  1
  O  O7  1  0.04248800  0.56504200  0.81409300  1
  O  O8  1  0.26074500  0.25027800  0.81447800  1
  O  O9  1  0.76023600  0.06386600  0.81442900  1
  O  O10  1  0.93548700  0.68763600  0.37461600  1
  O  O11  1  0.24028200  0.93521300  0.18409000  1
loop_
_geom_bond_atom_site_label_1
_geom_bond_atom_site_label_2
_geom_bond_distance
_geom_bond_site_symmetry_2
K0 O2 2.741192 1_555
K0 O0 2.745485 1_555
K0 O11 2.785226 1_555
K0 O10 2.959015 1_455
K0 O10 2.964694 1_555
K0 O6 2.991988 1_565
K0 O6 3.001718 1_555
K0 O1 3.059672 1_555
K0 O3 3.072486 1_455
K1 O6 2.746063 1_555
K1 O5 2.754808 1_555
K1 O9 2.796198 1_555
K1 O4 2.957087 1_555
K1 O4 2.965646 1_655
K1 O0 2.993174 1_555
K1 O0 3.000663 1_545
K1 O8 3.043673 1_555
K1 O7 3.065761 1_655
K2 O10 2.728647 1_455
K2 O7 2.779520 1_555
K2 O8 2.795328 1_565
K2 O0 2.952753 1_455
K2 O0 2.969098 1_555
K2 O4 2.989438 1_565
K2 O4 3.001893 1_555
K2 O5 3.060029 1_555
K2 O9 3.065477 1_465
K3 O4 2.729731 1_655
K3 O3 2.766848 1_555
K3 O1 2.785416 1_545
K3 O6 2.936968 1_655
K3 O10 2.980342 1_555
K3 O6 2.984063 1_555
K3 O10 3.011090 1_545
K3 O2 3.078162 1_555
K3 O11 3.091419 1_645
Ag0 O11 2.305935 1_556
Ag0 O7 2.376477 1_555
Ag0 O5 2.525813 1_555
Ag0 O1 2.706782 1_556
Ag1 O8 2.307778 1_554
Ag1 O2 2.362937 1_555
Ag1 O3 2.603577 1_455
Ag1 O9 2.663973 1_454
Ag2 O9 2.310083 1_554
Ag2 O3 2.353461 1_555
Ag2 O2 2.564140 1_555
Ag2 O8 2.697100 1_554
Ag3 O1 2.307541 1_556
Ag3 O5 2.384499 1_555
Ag3 O7 2.546609 1_655
Ag3 O11 2.695904 1_656
C0 O10 1.286922 1_555
C0 O1 1.311585 1_555
C0 O3 1.312448 1_555
C1 O4 1.286676 1_555
C1 O8 1.311723 1_555
C1 O7 1.313214 1_555
C2 O6 1.285930 1_555
C2 O11 1.312130 1_545
C2 O2 1.312971 1_555
C3 O0 1.285956 1_555
C3 O9 1.312056 1_565
C3 O5 1.313187 1_555
