# generated using pymatgen
data_YbCo(BO2)5
_symmetry_space_group_name_H-M   'P 1'
_cell_length_a   7.47541100
_cell_length_b   8.71945400
_cell_length_c   12.45279185
_cell_angle_alpha   49.25721079
_cell_angle_beta   90.00000000
_cell_angle_gamma   90.00000000
_symmetry_Int_Tables_number   1
_chemical_formula_structural   YbCo(BO2)5
_chemical_formula_sum   'Yb4 Co4 B20 O40'
_cell_volume   614.97587232
_cell_formula_units_Z   4
loop_
 _symmetry_equiv_pos_site_id
 _symmetry_equiv_pos_as_xyz
  1  'x, y, z'
loop_
 _atom_site_type_symbol
 _atom_site_label
 _atom_site_symmetry_multiplicity
 _atom_site_fract_x
 _atom_site_fract_y
 _atom_site_fract_z
 _atom_site_occupancy
  Yb  Yb0  1  0.68378300  0.04590800  0.26548900  1
  Yb  Yb1  1  0.18378300  0.95409200  0.23451100  1
  Yb  Yb2  1  0.81621700  0.04590800  0.76548900  1
  Yb  Yb3  1  0.31621700  0.95409200  0.73451100  1
  Co  Co0  1  0.90524200  0.54176100  0.36590800  1
  Co  Co1  1  0.59475800  0.54176100  0.86590800  1
  Co  Co2  1  0.40524200  0.45823900  0.13409200  1
  Co  Co3  1  0.09475800  0.45823900  0.63409200  1
  B  B0  1  0.18724700  0.51898500  0.91156200  1
  B  B1  1  0.09950400  0.15815700  0.50795000  1
  B  B2  1  0.96455500  0.27445200  0.94551600  1
  B  B3  1  0.46455500  0.72554800  0.55448400  1
  B  B4  1  0.42814000  0.34183500  0.74542200  1
  B  B5  1  0.82174000  0.91529400  0.10269800  1
  B  B6  1  0.67826000  0.91529400  0.60269800  1
  B  B7  1  0.57186000  0.65816500  0.25457800  1
  B  B8  1  0.59950400  0.84184300  0.99205000  1
  B  B9  1  0.03544500  0.72554800  0.05448400  1
  B  B10  1  0.90049600  0.84184300  0.49205000  1
  B  B11  1  0.81275300  0.48101500  0.08843800  1
  B  B12  1  0.31275300  0.51898500  0.41156200  1
  B  B13  1  0.07186000  0.34183500  0.24542200  1
  B  B14  1  0.17826000  0.08470600  0.89730200  1
  B  B15  1  0.53544500  0.27445200  0.44551600  1
  B  B16  1  0.92814000  0.65816500  0.75457800  1
  B  B17  1  0.32174000  0.08470600  0.39730200  1
  B  B18  1  0.68724700  0.48101500  0.58843800  1
  B  B19  1  0.40049600  0.15815700  0.00795000  1
  O  O0  1  0.84297700  0.45468600  0.86267000  1
  O  O1  1  0.22510000  0.03122800  0.51736900  1
  O  O2  1  0.79099800  0.79776600  0.73269900  1
  O  O3  1  0.39201100  0.90835700  0.42322000  1
  O  O4  1  0.12076500  0.32834800  0.98951100  1
  O  O5  1  0.52869800  0.75698300  0.65435300  1
  O  O6  1  0.14662600  0.56042000  0.43917600  1
  O  O7  1  0.96640200  0.67823900  0.62786600  1
  O  O8  1  0.03359800  0.32176100  0.37213400  1
  O  O9  1  0.60798900  0.09164300  0.57678000  1
  O  O10  1  0.40377900  0.68464200  0.29987600  1
  O  O11  1  0.59622100  0.31535800  0.70012400  1
  O  O12  1  0.34297700  0.54531400  0.63733000  1
  O  O13  1  0.53359800  0.67823900  0.12786600  1
  O  O14  1  0.27490000  0.03122800  0.01736900  1
  O  O15  1  0.85337400  0.43958000  0.56082400  1
  O  O16  1  0.77490000  0.96877200  0.48263100  1
  O  O17  1  0.64662600  0.43958000  0.06082400  1
  O  O18  1  0.62076500  0.67165200  0.51048900  1
  O  O19  1  0.97130200  0.75698300  0.15435300  1
  O  O20  1  0.95032200  0.87690700  0.37586500  1
  O  O21  1  0.90377900  0.31535800  0.20012400  1
  O  O22  1  0.54967800  0.87690700  0.87586500  1
  O  O23  1  0.45032200  0.12309300  0.12413500  1
  O  O24  1  0.46640200  0.32176100  0.87213400  1
  O  O25  1  0.70900200  0.79776600  0.23269900  1
  O  O26  1  0.29099800  0.20223400  0.76730100  1
  O  O27  1  0.09622100  0.68464200  0.79987600  1
  O  O28  1  0.20900200  0.20223400  0.26730100  1
  O  O29  1  0.37923500  0.32834800  0.48951100  1
  O  O30  1  0.35337400  0.56042000  0.93917600  1
  O  O31  1  0.04967800  0.12309300  0.62413500  1
  O  O32  1  0.65702300  0.45468600  0.36267000  1
  O  O33  1  0.87923500  0.67165200  0.01048900  1
  O  O34  1  0.10798900  0.90835700  0.92322000  1
  O  O35  1  0.72510000  0.96877200  0.98263100  1
  O  O36  1  0.89201100  0.09164300  0.07678000  1
  O  O37  1  0.47130200  0.24301700  0.34564700  1
  O  O38  1  0.15702300  0.54531400  0.13733000  1
  O  O39  1  0.02869800  0.24301700  0.84564700  1
loop_
_geom_bond_atom_site_label_1
_geom_bond_atom_site_label_2
_geom_bond_distance
_geom_bond_site_symmetry_2
Co0 O15 2.003197 1_555
Co0 O32 2.015209 1_555
Co0 O19 2.062166 1_555
Co0 O6 2.075744 1_655
Co0 O8 2.100557 1_655
Co0 O25 2.247905 1_555
Co1 O17 2.003197 1_556
Co1 O0 2.015209 1_555
Co1 O5 2.062166 1_555
Co1 O30 2.075744 1_555
Co1 O24 2.100557 1_555
Co1 O2 2.247905 1_555
Co2 O30 2.003197 1_554
Co2 O38 2.015209 1_555
Co2 O37 2.062166 1_555
Co2 O17 2.075744 1_555
Co2 O13 2.100557 1_555
Co2 O28 2.247905 1_555
Co3 O6 2.003197 1_555
Co3 O12 2.015209 1_555
Co3 O39 2.062166 1_555
Co3 O15 2.075744 1_455
Co3 O7 2.100557 1_455
Co3 O26 2.247905 1_555
B0 O4 1.358720 1_555
B0 O27 1.364347 1_555
B0 O30 1.397564 1_555
B1 O31 1.322160 1_555
B1 O1 1.396677 1_555
B1 O8 1.410264 1_555
B2 O36 1.451115 1_556
B2 O4 1.490193 1_655
B2 O0 1.497912 1_555
B2 O39 1.515475 1_655
B3 O3 1.451115 1_555
B3 O18 1.490193 1_555
B3 O12 1.497912 1_555
B3 O5 1.515475 1_555
B4 O11 1.456094 1_555
B4 O26 1.474460 1_555
B4 O24 1.497249 1_555
B4 O12 1.499213 1_555
B5 O35 1.436938 1_554
B5 O36 1.448005 1_565
B5 O25 1.488507 1_555
B5 O19 1.552481 1_555
B6 O16 1.436938 1_555
B6 O9 1.448005 1_565
B6 O2 1.488507 1_555
B6 O5 1.552481 1_555
B7 O10 1.456094 1_555
B7 O25 1.474460 1_555
B7 O13 1.497249 1_555
B7 O32 1.499213 1_555
B8 O22 1.322160 1_555
B8 O35 1.396677 1_555
B8 O13 1.410264 1_556
B9 O34 1.451115 1_554
B9 O33 1.490193 1_455
B9 O38 1.497912 1_555
B9 O19 1.515475 1_455
B10 O20 1.322160 1_555
B10 O16 1.396677 1_555
B10 O7 1.410264 1_555
B11 O33 1.358720 1_555
B11 O21 1.364347 1_555
B11 O17 1.397564 1_555
B12 O29 1.358720 1_555
B12 O10 1.364347 1_555
B12 O6 1.397564 1_555
B13 O21 1.456094 1_455
B13 O28 1.474460 1_555
B13 O8 1.497249 1_555
B13 O38 1.499213 1_555
B14 O14 1.436938 1_556
B14 O34 1.448005 1_545
B14 O26 1.488507 1_555
B14 O39 1.552481 1_555
B15 O9 1.451115 1_555
B15 O29 1.490193 1_555
B15 O32 1.497912 1_555
B15 O37 1.515475 1_555
B16 O27 1.456094 1_655
B16 O2 1.474460 1_555
B16 O7 1.497249 1_555
B16 O0 1.499213 1_555
B17 O1 1.436938 1_555
B17 O3 1.448005 1_545
B17 O28 1.488507 1_555
B17 O37 1.552481 1_555
B18 O18 1.358720 1_555
B18 O11 1.364347 1_555
B18 O15 1.397564 1_555
B19 O23 1.322160 1_555
B19 O14 1.396677 1_555
B19 O24 1.410264 1_554
O1 Yb3 2.419521 1_545
O2 Yb2 2.457019 1_565
O3 Yb1 2.623171 1_555
O3 Yb0 2.641726 1_565
O4 Yb1 2.680162 1_546
O5 Yb3 2.951712 1_555
O6 Yb1 2.633603 1_555
O9 Yb2 2.623171 1_555
O9 Yb3 2.641726 1_545
O10 Yb1 2.527997 1_555
O11 Yb2 2.527997 1_555
O14 Yb1 2.419521 1_545
O15 Yb2 2.633603 1_555
O16 Yb0 2.419521 1_565
O17 Yb0 2.633603 1_555
O18 Yb0 2.680162 1_565
O19 Yb1 2.951712 1_655
O20 Yb1 2.247405 1_655
O20 Yb0 2.320959 1_565
O21 Yb0 2.527997 1_555
O22 Yb3 2.247405 1_555
O22 Yb2 2.320959 1_565
O23 Yb0 2.247405 1_555
O23 Yb1 2.320959 1_545
O25 Yb0 2.457019 1_565
O26 Yb3 2.457019 1_545
O27 Yb3 2.527997 1_555
O28 Yb1 2.457019 1_545
O29 Yb3 2.680162 1_545
O30 Yb3 2.633603 1_555
O31 Yb2 2.247405 1_455
O31 Yb3 2.320959 1_545
O33 Yb2 2.680162 1_564
O34 Yb3 2.623171 1_555
O34 Yb2 2.641726 1_465
O35 Yb2 2.419521 1_565
O36 Yb0 2.623171 1_555
O36 Yb1 2.641726 1_645
O37 Yb0 2.951712 1_555
O39 Yb2 2.951712 1_455
