# generated using pymatgen
data_Te2Pd3
_symmetry_space_group_name_H-M   'P 1'
_cell_length_a   3.89741014
_cell_length_b   6.67286037
_cell_length_c   7.98481739
_cell_angle_alpha   90.00000000
_cell_angle_beta   90.00000000
_cell_angle_gamma   106.97979929
_symmetry_Int_Tables_number   1
_chemical_formula_structural   Te2Pd3
_chemical_formula_sum   'Te4 Pd6'
_cell_volume   198.60777020
_cell_formula_units_Z   2
loop_
 _symmetry_equiv_pos_site_id
 _symmetry_equiv_pos_as_xyz
  1  'x, y, z'
loop_
 _atom_site_type_symbol
 _atom_site_label
 _atom_site_symmetry_multiplicity
 _atom_site_fract_x
 _atom_site_fract_y
 _atom_site_fract_z
 _atom_site_occupancy
  Te  Te0  1  -0.00000000  -0.00000000  -0.00000000  1
  Te  Te1  1  -0.00000000  -0.00000000  0.50000000  1
  Te  Te2  1  0.25895407  0.51790714  0.75000000  1
  Te  Te3  1  0.74104593  0.48209286  0.25000000  1
  Pd  Pd0  1  0.46668293  0.93336786  0.75000000  1
  Pd  Pd1  1  0.53331707  0.06663214  0.25000000  1
  Pd  Pd2  1  0.33675602  0.67351104  0.06835368  1
  Pd  Pd3  1  0.66324398  0.32648896  0.93164632  1
  Pd  Pd4  1  0.66324398  0.32648896  0.56835368  1
  Pd  Pd5  1  0.33675602  0.67351104  0.43164632  1
loop_
_geom_bond_atom_site_label_1
_geom_bond_atom_site_label_2
_geom_bond_distance
_geom_bond_site_symmetry_2
Pd0 Te2 2.651460 1_555
Pd0 Te0 2.821897 1_566
Pd0 Te1 2.821897 1_565
Pd0 Te0 2.821902 1_666
Pd0 Te1 2.821902 1_665
Pd0 Pd3 2.897969 1_565
Pd0 Pd4 2.897969 1_565
Pd0 Pd2 3.035133 1_556
Pd0 Pd5 3.035133 1_555
Pd1 Te3 2.651460 1_555
Pd1 Te0 2.821897 1_655
Pd1 Te1 2.821897 1_655
Pd1 Te0 2.821902 1_555
Pd1 Te1 2.821902 1_555
Pd1 Pd5 2.897969 1_545
Pd1 Pd2 2.897969 1_545
Pd1 Pd4 3.035133 1_555
Pd1 Pd3 3.035133 1_554
Pd2 Te3 2.719100 1_555
Pd2 Te3 2.719105 1_455
Pd2 Te2 2.729086 1_554
Pd2 Pd5 2.900825 1_555
Pd2 Te0 2.904635 1_665
Pd2 Te0 2.904638 1_565
Pd2 Pd3 3.145445 1_554
Pd2 Pd3 3.145450 1_454
Pd3 Te2 2.719100 1_555
Pd3 Te2 2.719105 1_655
Pd3 Te3 2.729086 1_556
Pd3 Pd4 2.900825 1_555
Pd3 Te0 2.904635 1_556
Pd3 Te0 2.904638 1_656
Pd4 Te2 2.719100 1_555
Pd4 Te2 2.719105 1_655
Pd4 Te3 2.729086 1_555
Pd4 Te1 2.904635 1_555
Pd4 Te1 2.904638 1_655
Pd4 Pd5 3.145445 1_555
Pd4 Pd5 3.145450 1_655
Pd5 Te3 2.719100 1_555
Pd5 Te3 2.719105 1_455
Pd5 Te2 2.729086 1_555
Pd5 Te1 2.904635 1_665
Pd5 Te1 2.904638 1_565
