# generated using pymatgen
data_Gd(SiPt)2
_symmetry_space_group_name_H-M   'P 1'
_cell_length_a   4.19386290
_cell_length_b   4.19389641
_cell_length_c   9.85008488
_cell_angle_alpha   89.99992934
_cell_angle_beta   90.00079581
_cell_angle_gamma   90.00040876
_symmetry_Int_Tables_number   1
_chemical_formula_structural   Gd(SiPt)2
_chemical_formula_sum   'Gd2 Si4 Pt4'
_cell_volume   173.24946453
_cell_formula_units_Z   2
loop_
 _symmetry_equiv_pos_site_id
 _symmetry_equiv_pos_as_xyz
  1  'x, y, z'
loop_
 _atom_site_type_symbol
 _atom_site_label
 _atom_site_symmetry_multiplicity
 _atom_site_fract_x
 _atom_site_fract_y
 _atom_site_fract_z
 _atom_site_occupancy
  Gd  Gd0  1  0.25000626  0.24999931  0.74548457  1
  Gd  Gd1  1  0.75000551  0.75000072  0.25450845  1
  Si  Si0  1  0.25000671  0.24999989  0.13329617  1
  Si  Si1  1  0.74998199  0.25000111  0.49995629  1
  Si  Si2  1  0.75000814  0.74999945  0.86675439  1
  Si  Si3  1  0.25000278  0.74999984  0.49995671  1
  Pt  Pt0  1  0.24996088  0.25000071  0.37645202  1
  Pt  Pt1  1  0.25001001  0.75000057  0.00006148  1
  Pt  Pt2  1  0.75000651  0.75000244  0.62348985  1
  Pt  Pt3  1  0.75001219  0.24999796  0.00004008  1
loop_
_geom_bond_atom_site_label_1
_geom_bond_atom_site_label_2
_geom_bond_distance
_geom_bond_site_symmetry_2
Gd0 Si2 3.197045 1_555
Gd0 Si2 3.197054 1_445
Gd0 Si2 3.197062 1_545
Gd0 Si2 3.197076 1_455
Gd0 Pt2 3.199705 1_445
Gd0 Pt2 3.199740 1_455
Gd0 Pt2 3.199743 1_555
Gd0 Pt2 3.199748 1_545
Gd0 Si1 3.200915 1_555
Gd0 Si3 3.200967 1_555
Gd0 Si3 3.200968 1_545
Gd0 Si1 3.201004 1_455
Gd0 Pt3 3.268654 1_556
Gd0 Pt3 3.268667 1_456
Gd0 Pt1 3.268828 1_546
Gd0 Pt1 3.268839 1_556
Gd1 Si0 3.196827 1_555
Gd1 Si0 3.196840 1_565
Gd1 Si0 3.196848 1_665
Gd1 Si0 3.196875 1_655
Gd1 Pt0 3.199402 1_665
Gd1 Pt0 3.199420 1_655
Gd1 Pt0 3.199667 1_555
Gd1 Pt0 3.199689 1_565
Gd1 Si3 3.200334 1_655
Gd1 Si1 3.200369 1_555
Gd1 Si1 3.200375 1_565
Gd1 Si3 3.200393 1_555
Gd1 Pt1 3.267806 1_555
Gd1 Pt1 3.267875 1_655
Gd1 Pt3 3.268004 1_565
Gd1 Pt3 3.268023 1_555
Pt0 Si0 2.395106 1_555
Pt0 Si1 2.424203 1_455
Pt0 Si3 2.424280 1_555
Pt0 Si3 2.424283 1_545
Pt0 Si1 2.424327 1_555
Pt1 Si0 2.473764 1_565
Pt1 Si0 2.473766 1_555
Pt1 Si2 2.474121 1_454
Pt1 Si2 2.474138 1_554
Pt2 Si2 2.396176 1_555
Pt2 Si3 2.424407 1_555
Pt2 Si3 2.424409 1_655
Pt2 Si1 2.424418 1_565
Pt2 Si1 2.424430 1_555
Pt3 Si0 2.473828 1_655
Pt3 Si0 2.473898 1_555
Pt3 Si2 2.474028 1_544
Pt3 Si2 2.474036 1_554
