# generated using pymatgen
data_Mg7VFeMo15O56
_symmetry_space_group_name_H-M   'P 1'
_cell_length_a   8.51046900
_cell_length_b   9.24221527
_cell_length_c   16.23581805
_cell_angle_alpha   90.06383794
_cell_angle_beta   96.82993149
_cell_angle_gamma   90.17532425
_symmetry_Int_Tables_number   1
_chemical_formula_structural   Mg7VFeMo15O56
_chemical_formula_sum   'Mg7 V1 Fe1 Mo15 O56'
_cell_volume   1267.96797497
_cell_formula_units_Z   1
loop_
 _symmetry_equiv_pos_site_id
 _symmetry_equiv_pos_as_xyz
  1  'x, y, z'
loop_
 _atom_site_type_symbol
 _atom_site_label
 _atom_site_symmetry_multiplicity
 _atom_site_fract_x
 _atom_site_fract_y
 _atom_site_fract_z
 _atom_site_occupancy
  Mg  Mg0  1  0.59268000  0.50689800  0.59360900  1
  Mg  Mg1  1  0.34077900  0.99207000  0.84517300  1
  Mg  Mg2  1  0.09266400  0.50002700  0.09634300  1
  Mg  Mg3  1  0.15721000  0.00693000  0.65586300  1
  Mg  Mg4  1  0.84577100  0.99671200  0.33914300  1
  Mg  Mg5  1  0.90689500  0.49293800  0.90713100  1
  Mg  Mg6  1  0.40769800  0.49354600  0.40502600  1
  V  V0  1  0.03623200  0.13977800  0.17194500  1
  Fe  Fe0  1  0.66381600  0.00837900  0.15774300  1
  Mo  Mo0  1  0.74339000  0.11782700  0.94745400  1
  Mo  Mo1  1  0.53823700  0.13890700  0.67271100  1
  Mo  Mo2  1  0.50444700  0.61854500  0.80296500  1
  Mo  Mo3  1  0.24530700  0.11876000  0.44583400  1
  Mo  Mo4  1  0.21178000  0.63936100  0.57683700  1
  Mo  Mo5  1  0.28760700  0.36108700  0.92347100  1
  Mo  Mo6  1  0.00419300  0.61858000  0.30271100  1
  Mo  Mo7  1  0.99546700  0.38120500  0.69719300  1
  Mo  Mo8  1  0.96140900  0.86106100  0.82816100  1
  Mo  Mo9  1  0.71197900  0.64171300  0.07873400  1
  Mo  Mo10  1  0.78900000  0.36032800  0.42305100  1
  Mo  Mo11  1  0.75400000  0.88211700  0.55073700  1
  Mo  Mo12  1  0.49945900  0.37782100  0.19647300  1
  Mo  Mo13  1  0.46037700  0.86109100  0.32570300  1
  Mo  Mo14  1  0.25692600  0.88580800  0.05697900  1
  O  O0  1  0.89299500  0.99034500  0.90954200  1
  O  O1  1  0.79280700  0.29934100  0.93036600  1
  O  O2  1  0.69789500  0.16504700  0.74784600  1
  O  O3  1  0.69615000  0.57116600  0.84797200  1
  O  O4  1  0.49354300  0.30931100  0.62725400  1
  O  O5  1  0.55313900  0.07189600  0.90082700  1
  O  O6  1  0.49272800  0.59383600  0.69391100  1
  O  O7  1  0.39535000  0.99114100  0.40627400  1
  O  O8  1  0.45700500  0.79917700  0.82394800  1
  O  O9  1  0.37394400  0.57347100  0.52340400  1
  O  O10  1  0.44737600  0.33591700  0.99855900  1
  O  O11  1  0.37616100  0.07263300  0.72624700  1
  O  O12  1  0.29389000  0.29983300  0.42619000  1
  O  O13  1  0.35497300  0.49113400  0.84248600  1
  O  O14  1  0.18273300  0.15959700  0.24707300  1
  O  O15  1  0.25802000  0.09295500  0.55482700  1
  O  O16  1  0.19720900  0.57234800  0.34628400  1
  O  O17  1  0.25638800  0.80977800  0.62281300  1
  O  O18  1  0.24332800  0.19116100  0.87704500  1
  O  O19  1  0.24591900  0.91037900  0.94758800  1
  O  O20  1  0.14520800  0.50900300  0.65785400  1
  O  O21  1  0.99793500  0.30208900  0.12486400  1
  O  O22  1  0.05266200  0.07168900  0.40285500  1
  O  O23  1  0.98897000  0.59490300  0.19344300  1
  O  O24  1  0.12367500  0.92724000  0.77486100  1
  O  O25  1  0.05222700  0.66410700  0.50172200  1
  O  O26  1  0.12544300  0.42907300  0.97605600  1
  O  O27  1  0.04290800  0.20035700  0.67649400  1
  O  O28  1  0.95628600  0.79879900  0.32386000  1
  O  O29  1  0.87287700  0.57778000  0.02528100  1
  O  O30  1  0.94791600  0.33546700  0.49862200  1
  O  O31  1  0.86889300  0.06766100  0.22021300  1
  O  O32  1  0.00664700  0.40618600  0.80624300  1
  O  O33  1  0.94586000  0.92855600  0.59624800  1
  O  O34  1  0.00581000  0.69072800  0.87335500  1
  O  O35  1  0.85446700  0.49128500  0.34235200  1
  O  O36  1  0.74436400  0.08908500  0.05604600  1
  O  O37  1  0.75365200  0.81329700  0.12678400  1
  O  O38  1  0.74348600  0.19036100  0.37673800  1
  O  O39  1  0.80357600  0.42822000  0.65262300  1
  O  O40  1  0.74228100  0.90747900  0.44160900  1
  O  O41  1  0.80233600  0.83574200  0.75277300  1
  O  O42  1  0.64513000  0.50895900  0.15771600  1
  O  O43  1  0.70631500  0.70129700  0.57209700  1
  O  O44  1  0.62257800  0.92890300  0.27081600  1
  O  O45  1  0.55283400  0.66671300  0.00397900  1
  O  O46  1  0.62580700  0.42748700  0.47524600  1
  O  O47  1  0.55464800  0.19666000  0.17640400  1
  O  O48  1  0.60535200  0.00873700  0.59162200  1
  O  O49  1  0.50917000  0.40395300  0.30478200  1
  O  O50  1  0.45424200  0.93415100  0.10122200  1
  O  O51  1  0.50791000  0.69116800  0.37058000  1
  O  O52  1  0.30902600  0.42285800  0.15133000  1
  O  O53  1  0.30140600  0.83387300  0.25115200  1
  O  O54  1  0.20809500  0.70382700  0.07634600  1
  O  O55  1  0.11112900  0.01034700  0.09436700  1
loop_
_geom_bond_atom_site_label_1
_geom_bond_atom_site_label_2
_geom_bond_distance
_geom_bond_site_symmetry_2
Mg0 O39 2.066084 1_555
Mg0 O6 2.086122 1_555
Mg0 O43 2.087198 1_555
Mg0 O46 2.106688 1_555
Mg0 O4 2.108893 1_555
Mg0 O9 2.155702 1_555
Mg1 O5 2.056451 1_565
Mg1 O19 2.074848 1_555
Mg1 O8 2.089466 1_555
Mg1 O18 2.109656 1_565
Mg1 O11 2.124480 1_565
Mg1 O24 2.136834 1_555
Mg2 O21 2.071876 1_455
Mg2 O52 2.077185 1_555
Mg2 O23 2.089395 1_455
Mg2 O26 2.109443 1_554
Mg2 O54 2.164295 1_555
Mg2 O29 2.200695 1_455
Mg3 O33 2.067166 1_445
Mg3 O27 2.083537 1_555
Mg3 O15 2.095846 1_555
Mg3 O17 2.106048 1_545
Mg3 O24 2.118885 1_545
Mg3 O11 2.152171 1_555
Mg4 O22 2.051376 1_665
Mg4 O31 2.071130 1_565
Mg4 O28 2.087344 1_555
Mg4 O38 2.113527 1_565
Mg4 O40 2.137897 1_555
Mg4 O44 2.172879 1_555
Mg5 O3 2.064416 1_555
Mg5 O1 2.089138 1_555
Mg5 O32 2.092502 1_655
Mg5 O34 2.110363 1_655
Mg5 O29 2.123329 1_556
Mg5 O26 2.138510 1_655
Mg6 O16 2.062079 1_555
Mg6 O12 2.081202 1_555
Mg6 O49 2.101421 1_555
Mg6 O9 2.109874 1_555
Mg6 O51 2.117141 1_555
Mg6 O46 2.150162 1_555
Fe0 O31 1.986670 1_555
Fe0 O36 2.005330 1_555
Fe0 O47 2.014622 1_555
Fe0 O50 2.023784 1_545
Fe0 O37 2.045917 1_545
Fe0 O44 2.046378 1_545
Mo0 O5 1.754539 1_555
Mo0 O1 1.758587 1_555
Mo0 O36 1.782320 1_556
Mo0 O0 1.892643 1_545
Mo1 O2 1.730841 1_555
Mo1 O4 1.763292 1_555
Mo1 O11 1.820563 1_555
Mo1 O48 1.920006 1_555
Mo2 O8 1.761159 1_555
Mo2 O3 1.763228 1_555
Mo2 O6 1.775954 1_555
Mo2 O13 1.898223 1_555
Mo3 O22 1.756985 1_555
Mo3 O12 1.761149 1_555
Mo3 O15 1.776400 1_555
Mo3 O7 1.907061 1_545
Mo4 O25 1.729764 1_555
Mo4 O17 1.763055 1_555
Mo4 O9 1.821218 1_555
Mo4 O20 1.918162 1_555
Mo5 O10 1.731321 1_555
Mo5 O18 1.761475 1_555
Mo5 O26 1.820091 1_555
Mo5 O13 1.918530 1_555
Mo6 O28 1.759150 1_455
Mo6 O16 1.763503 1_555
Mo6 O23 1.776580 1_455
Mo6 O35 1.899896 1_455
Mo7 O39 1.761641 1_555
Mo7 O27 1.762044 1_655
Mo7 O32 1.776506 1_655
Mo7 O20 1.900814 1_655
Mo8 O41 1.728857 1_555
Mo8 O34 1.760607 1_655
Mo8 O24 1.819413 1_655
Mo8 O0 1.922557 1_555
Mo9 O45 1.724074 1_555
Mo9 O37 1.782468 1_555
Mo9 O29 1.806598 1_555
Mo9 O42 1.909500 1_555
Mo10 O30 1.730661 1_555
Mo10 O38 1.762794 1_555
Mo10 O46 1.821082 1_555
Mo10 O35 1.914424 1_555
Mo11 O33 1.761913 1_555
Mo11 O43 1.763068 1_555
Mo11 O40 1.778523 1_555
Mo11 O48 1.901989 1_565
Mo12 O52 1.749091 1_555
Mo12 O49 1.766861 1_555
Mo12 O47 1.780491 1_555
Mo12 O42 1.892060 1_555
Mo13 O53 1.722346 1_555
Mo13 O51 1.759891 1_555
Mo13 O44 1.838741 1_555
Mo13 O7 1.906546 1_555
Mo14 O54 1.768719 1_555
Mo14 O19 1.782180 1_554
Mo14 O50 1.800914 1_555
Mo14 O55 1.849117 1_565
O14 V0 1.646894 1_555
O21 V0 1.699166 1_655
O31 V0 1.829576 1_655
O55 V0 1.901568 1_555
