# generated using pymatgen
data_K3Ta2S11
_symmetry_space_group_name_H-M   'P 1'
_cell_length_a   7.89774079
_cell_length_b   12.28604607
_cell_length_c   18.30422161
_cell_angle_alpha   100.33341319
_cell_angle_beta   102.45561469
_cell_angle_gamma   90.02053622
_symmetry_Int_Tables_number   1
_chemical_formula_structural   K3Ta2S11
_chemical_formula_sum   'K12 Ta8 S44'
_cell_volume   1704.75286262
_cell_formula_units_Z   4
loop_
 _symmetry_equiv_pos_site_id
 _symmetry_equiv_pos_as_xyz
  1  'x, y, z'
loop_
 _atom_site_type_symbol
 _atom_site_label
 _atom_site_symmetry_multiplicity
 _atom_site_fract_x
 _atom_site_fract_y
 _atom_site_fract_z
 _atom_site_occupancy
  K  K0  1  0.29953134  0.90311291  0.93478619  1
  K  K1  1  0.10935396  0.17004146  0.76215954  1
  K  K2  1  0.05539435  0.25679219  0.41809726  1
  K  K3  1  0.36238634  0.59494577  0.06534024  1
  K  K4  1  0.70609954  0.09554781  0.06533167  1
  K  K5  1  0.34675039  0.32858102  0.23826235  1
  K  K6  1  0.64015662  0.40329703  0.93473410  1
  K  K7  1  0.89314360  0.82874114  0.23782878  1
  K  K8  1  0.63718075  0.24220399  0.58216054  1
  K  K9  1  0.94663377  0.74263325  0.58199062  1
  K  K10  1  0.65538605  0.67010122  0.76215702  1
  K  K11  1  0.36401691  0.75675396  0.41801993  1
  Ta  Ta0  1  0.38443886  0.92739656  0.16507791  1
  Ta  Ta1  1  0.10440505  0.41934295  0.64422100  1
  Ta  Ta2  1  0.46062703  0.07960939  0.35585179  1
  Ta  Ta3  1  0.61950360  0.07170053  0.83496124  1
  Ta  Ta4  1  0.54153891  0.91923478  0.64434183  1
  Ta  Ta5  1  0.78351549  0.42719551  0.16517930  1
  Ta  Ta6  1  0.21823097  0.57147102  0.83498875  1
  Ta  Ta7  1  0.89677974  0.58004153  0.35574045  1
  S  S0  1  0.47057110  0.64432514  0.90816622  1
  S  S1  1  0.82370117  0.50190811  0.63251685  1
  S  S2  1  0.17769192  0.49770105  0.36778068  1
  S  S3  1  0.05430262  0.24158312  0.59332503  1
  S  S4  1  0.02866921  0.56762761  0.92364714  1
  S  S5  1  0.97316030  0.43076763  0.07656197  1
  S  S6  1  0.54003870  0.74146057  0.59348641  1
  S  S7  1  0.57432793  0.09438778  0.24007811  1
  S  S8  1  0.10685846  0.93191744  0.07614835  1
  S  S9  1  0.06860025  0.72772137  0.79156060  1
  S  S10  1  0.19139506  0.99715036  0.36737786  1
  S  S11  1  0.21817656  0.64515596  0.72017084  1
  S  S12  1  0.40569537  0.99705907  0.53195756  1
  S  S13  1  0.82125607  0.94800668  0.73482403  1
  S  S14  1  0.53172225  0.35371444  0.09197613  1
  S  S15  1  0.46164746  0.25737798  0.40682357  1
  S  S16  1  0.24808994  0.94564259  0.67068165  1
  S  S17  1  0.84914484  0.57760547  0.10176969  1
  S  S18  1  0.66815211  0.59442116  0.23961238  1
  S  S19  1  0.56314904  0.85389133  0.09195086  1
  S  S20  1  0.15216734  0.42068094  0.89806164  1
  S  S21  1  0.59537427  0.00162142  0.46819798  1
  S  S22  1  0.78368456  0.35420021  0.28023598  1
  S  S23  1  0.89789013  0.06831077  0.92346543  1
  S  S24  1  0.33323172  0.40444374  0.76016041  1
  S  S25  1  0.08581334  0.55126108  0.26524747  1
  S  S26  1  0.18146008  0.05110098  0.26502655  1
  S  S27  1  0.93375194  0.27151621  0.20910900  1
  S  S28  1  0.49798589  0.85374418  0.27999934  1
  S  S29  1  0.42413414  0.44590893  0.67024149  1
  S  S30  1  0.91583366  0.44801168  0.73490719  1
  S  S31  1  0.74880686  0.92131596  0.89825165  1
  S  S32  1  0.44070899  0.14486928  0.90814695  1
  S  S33  1  0.75451900  0.05296133  0.33021403  1
  S  S34  1  0.94626976  0.75791753  0.40640853  1
  S  S35  1  0.27678735  0.77150826  0.20847947  1
  S  S36  1  0.42936883  0.90453510  0.76054312  1
  S  S37  1  0.12717889  0.49733804  0.53188185  1
  S  S38  1  0.50421179  0.14496372  0.72008341  1
  S  S39  1  0.57703523  0.55344629  0.32962091  1
  S  S40  1  0.87387413  0.50238393  0.46817289  1
  S  S41  1  0.72559877  0.22762523  0.79115989  1
  S  S42  1  0.25720413  0.07842422  0.10188019  1
  S  S43  1  0.81055957  0.00174206  0.63235916  1
loop_
_geom_bond_atom_site_label_1
_geom_bond_atom_site_label_2
_geom_bond_distance
_geom_bond_site_symmetry_2
K0 S8 3.241352 1_556
K0 S9 3.278832 1_555
K0 S19 3.319278 1_556
K0 S32 3.324899 1_565
K0 S0 3.449994 1_555
K0 S42 3.490522 1_566
K0 S36 3.557347 1_555
K0 S23 3.754496 1_465
K0 S31 3.763514 1_555
K1 S41 3.244819 1_455
K1 S16 3.277597 1_545
K1 S3 3.302613 1_555
K1 S43 3.362231 1_455
K1 S38 3.371148 1_555
K1 S32 3.371231 1_555
K1 S24 3.388713 1_555
K1 S13 3.447293 1_445
K1 S20 3.559947 1_555
K2 S3 3.247984 1_555
K2 S15 3.259311 1_555
K2 S37 3.267201 1_555
K2 S22 3.339797 1_455
K2 S33 3.377457 1_455
K2 S10 3.400243 1_545
K2 S40 3.402572 1_455
K2 S2 3.449830 1_555
K3 S4 3.244096 1_554
K3 S35 3.279252 1_555
K3 S14 3.324187 1_555
K3 S0 3.325815 1_554
K3 S19 3.461215 1_555
K3 S20 3.488329 1_554
K3 S18 3.562532 1_555
K3 S5 3.738578 1_455
K3 S17 3.770197 1_555
K4 S23 3.245732 1_554
K4 S27 3.278351 1_555
K4 S32 3.326161 1_554
K4 S19 3.328793 1_545
K4 S14 3.454420 1_555
K4 S31 3.485099 1_544
K4 S7 3.573031 1_555
K4 S8 3.738398 1_645
K4 S42 3.759485 1_555
K5 S27 3.244790 1_455
K5 S39 3.280819 1_555
K5 S15 3.296884 1_555
K5 S2 3.364613 1_555
K5 S22 3.371370 1_555
K5 S14 3.373866 1_555
K5 S7 3.394513 1_555
K5 S25 3.454589 1_555
K5 S42 3.558428 1_555
K6 S5 3.241915 1_556
K6 S41 3.278914 1_555
K6 S0 3.322354 1_555
K6 S14 3.328719 1_556
K6 S32 3.451149 1_555
K6 S17 3.482841 1_556
K6 S24 3.572360 1_555
K6 S4 3.734099 1_655
K6 S20 3.779640 1_555
K7 S35 3.245243 1_655
K7 S33 3.282777 1_565
K7 S34 3.295435 1_555
K7 S10 3.358491 1_655
K7 S19 3.363385 1_555
K7 S28 3.374121 1_555
K7 S18 3.391382 1_555
K7 S26 3.451785 1_665
K7 S17 3.565446 1_555
K8 S15 3.248461 1_555
K8 S3 3.256461 1_655
K8 S21 3.269159 1_555
K8 S38 3.335919 1_555
K8 S29 3.379311 1_555
K8 S12 3.396549 1_545
K8 S1 3.399444 1_555
K8 S43 3.446931 1_555
K9 S34 3.252216 1_555
K9 S6 3.263236 1_555
K9 S40 3.264873 1_555
K9 S11 3.343567 1_655
K9 S16 3.376479 1_655
K9 S43 3.393530 1_565
K9 S37 3.395949 1_655
K9 S1 3.451331 1_555
K10 S9 3.247304 1_655
K10 S29 3.280479 1_555
K10 S6 3.299829 1_555
K10 S1 3.357328 1_555
K10 S0 3.370392 1_555
K10 S11 3.373066 1_555
K10 S36 3.390366 1_555
K10 S30 3.447235 1_555
K10 S31 3.566971 1_555
K11 S6 3.251779 1_555
K11 S34 3.260234 1_455
K11 S12 3.266298 1_555
K11 S28 3.339776 1_555
K11 S39 3.378618 1_555
K11 S2 3.391727 1_555
K11 S21 3.393210 1_565
K11 S10 3.446903 1_555
S0 Ta6 2.232520 1_555
S1 S30 2.082731 1_555
S1 Ta1 2.421646 1_655
S2 S25 2.082750 1_555
S2 Ta7 2.421719 1_455
S3 Ta1 2.214639 1_555
S4 Ta6 2.439792 1_555
S5 Ta5 2.439228 1_555
S6 Ta4 2.214263 1_555
S7 Ta2 2.507770 1_555
S7 Ta0 2.538165 1_545
S8 Ta0 2.439662 1_555
S9 Ta6 2.420232 1_555
S10 S26 2.082666 1_565
S10 Ta2 2.420904 1_565
S11 S9 2.079247 1_555
S11 Ta6 2.432835 1_555
S11 Ta1 2.917661 1_555
S12 S21 2.094486 1_565
S12 Ta4 2.459937 1_555
S13 S43 2.082439 1_565
S13 Ta4 2.441184 1_555
S13 Ta3 2.910380 1_565
S14 Ta5 2.231656 1_555
S15 Ta2 2.215046 1_555
S16 S36 2.071967 1_555
S16 Ta4 2.476960 1_555
S17 S5 2.079521 1_555
S17 Ta5 2.461500 1_555
S18 S39 2.072286 1_555
S18 Ta7 2.507824 1_555
S18 Ta5 2.537736 1_555
S19 Ta0 2.231928 1_555
S20 S4 2.079680 1_555
S20 Ta6 2.462465 1_555
S21 Ta2 2.458253 1_555
S22 S27 2.079341 1_555
S22 Ta5 2.432283 1_555
S22 Ta7 2.914927 1_555
S23 S31 2.079893 1_545
S23 Ta3 2.438837 1_555
S24 S29 2.072241 1_555
S24 Ta1 2.507666 1_555
S24 Ta6 2.538043 1_555
S25 Ta7 2.440196 1_455
S25 Ta5 2.913386 1_455
S26 Ta2 2.440703 1_555
S26 Ta0 2.914807 1_545
S27 Ta5 2.419629 1_555
S28 S35 2.079470 1_555
S28 Ta0 2.432627 1_555
S28 Ta2 2.917262 1_565
S29 Ta1 2.476800 1_555
S30 Ta1 2.440176 1_655
S30 Ta6 2.910965 1_655
S31 Ta3 2.461218 1_565
S32 Ta3 2.231924 1_555
S33 S7 2.072507 1_555
S33 Ta2 2.475909 1_555
S34 Ta7 2.214667 1_555
S35 Ta0 2.420371 1_555
S36 Ta4 2.508374 1_555
S36 Ta3 2.537774 1_565
S37 S40 2.094173 1_455
S37 Ta1 2.458699 1_555
S38 S41 2.079563 1_555
S38 Ta3 2.431983 1_555
S38 Ta4 2.915097 1_545
S39 Ta7 2.476862 1_555
S40 Ta7 2.458303 1_555
S41 Ta3 2.419597 1_555
S42 S8 2.079609 1_545
S42 Ta0 2.461882 1_545
S43 Ta4 2.422617 1_545
