# generated using pymatgen
data_Na21In5O15
_symmetry_space_group_name_H-M   'P 1'
_cell_length_a   9.70596982
_cell_length_b   9.70596982
_cell_length_c   9.69549398
_cell_angle_alpha   70.11670768
_cell_angle_beta   70.11670768
_cell_angle_gamma   108.54368888
_symmetry_Int_Tables_number   1
_chemical_formula_structural   Na21In5O15
_chemical_formula_sum   'Na21 In5 O15'
_cell_volume   703.91409886
_cell_formula_units_Z   1
loop_
 _symmetry_equiv_pos_site_id
 _symmetry_equiv_pos_as_xyz
  1  'x, y, z'
loop_
 _atom_site_type_symbol
 _atom_site_label
 _atom_site_symmetry_multiplicity
 _atom_site_fract_x
 _atom_site_fract_y
 _atom_site_fract_z
 _atom_site_occupancy
  Na  Na0  1  0.44092500  0.44092500  0.27215800  1
  Na  Na1  1  0.57088500  0.77635000  0.98795200  1
  Na  Na2  1  0.21330400  0.21330400  0.21863600  1
  Na  Na3  1  0.26847700  0.54563800  0.01598700  1
  Na  Na4  1  0.99990100  0.30229900  0.43809100  1
  Na  Na5  1  0.45717000  0.75426300  0.52168600  1
  Na  Na6  1  0.21586700  0.43313200  0.56767900  1
  Na  Na7  1  0.77496300  0.98058100  0.45567500  1
  Na  Na8  1  0.22355900  0.78543400  0.78805600  1
  Na  Na9  1  0.55390900  0.00728800  0.71952600  1
  Na  Na10  1  0.25987000  0.71928400  0.27947100  1
  Na  Na11  1  0.00728800  0.55390900  0.71952600  1
  Na  Na12  1  0.71928400  0.25987000  0.27947100  1
  Na  Na13  1  0.78543400  0.22355900  0.78805600  1
  Na  Na14  1  0.77635000  0.57088500  0.98795200  1
  Na  Na15  1  0.43313200  0.21586700  0.56767900  1
  Na  Na16  1  0.98058100  0.77496300  0.45567500  1
  Na  Na17  1  0.54563800  0.26847700  0.01598700  1
  Na  Na18  1  0.75426300  0.45717000  0.52168600  1
  Na  Na19  1  0.30229900  0.99990100  0.43809100  1
  Na  Na20  1  0.47328500  0.47328500  0.77473900  1
  In  In0  1  0.99230700  0.99230700  0.69823300  1
  In  In1  1  0.99133300  0.99133300  0.99828200  1
  In  In2  1  0.00764100  0.29526300  0.99254800  1
  In  In3  1  0.29526300  0.00764100  0.99254800  1
  In  In4  1  0.69738600  0.69738600  0.28393600  1
  O  O0  1  0.79321300  0.02505300  0.69382900  1
  O  O1  1  0.47666300  0.47666300  0.01988400  1
  O  O2  1  0.20899100  0.20899100  0.48801800  1
  O  O3  1  0.32986600  0.80498500  0.98752700  1
  O  O4  1  0.46192900  0.66761300  0.31474000  1
  O  O5  1  0.49305100  0.00224200  0.52149400  1
  O  O6  1  0.99298300  0.26433600  0.22219500  1
  O  O7  1  0.22404100  0.52478900  0.78583300  1
  O  O8  1  0.80498500  0.32986600  0.98752700  1
  O  O9  1  0.00224200  0.49305100  0.52149400  1
  O  O10  1  0.66761300  0.46192900  0.31474000  1
  O  O11  1  0.02505300  0.79321300  0.69382900  1
  O  O12  1  0.26433600  0.99298300  0.22219500  1
  O  O13  1  0.52478900  0.22404100  0.78583300  1
  O  O14  1  0.70523100  0.70523100  0.49653200  1
loop_
_geom_bond_atom_site_label_1
_geom_bond_atom_site_label_2
_geom_bond_distance
_geom_bond_site_symmetry_2
Na0 O2 2.209678 1_555
Na0 O1 2.234374 1_555
Na0 O4 2.332990 1_555
Na0 O10 2.332990 1_555
Na1 O3 2.443157 1_555
Na1 O0 2.536573 1_565
Na1 O1 2.626008 1_556
Na1 O4 2.647113 1_556
Na2 O6 2.335497 1_455
Na2 O12 2.335497 1_545
Na2 O1 2.433968 1_555
Na2 O2 2.583622 1_555
Na3 O3 2.286753 1_554
Na3 O1 2.329761 1_555
Na3 O7 2.472377 1_554
Na3 O6 2.570722 1_455
Na4 O9 2.255286 1_655
Na4 O6 2.264143 1_555
Na4 O0 2.461295 1_555
Na4 O2 2.590775 1_655
Na5 O5 2.318987 1_565
Na5 O7 2.369026 1_555
Na5 O4 2.417595 1_555
Na5 O14 2.547782 1_555
Na6 O4 2.379062 1_555
Na6 O9 2.461560 1_555
Na6 O2 2.533664 1_555
Na6 O7 2.573048 1_555
Na7 O14 2.388402 1_555
Na7 O6 2.445676 1_565
Na7 O0 2.541023 1_565
Na7 O5 2.684738 1_565
Na8 O11 2.407358 1_555
Na8 O5 2.480065 1_565
Na8 O3 2.514625 1_555
Na8 O7 2.538698 1_555
Na9 O0 2.192955 1_555
Na9 O5 2.203358 1_555
Na9 O3 2.303500 1_545
Na9 O13 2.468549 1_555
Na10 O4 2.275915 1_555
Na10 O9 2.364755 1_555
Na10 O3 2.428249 1_554
Na10 O12 2.504846 1_555
Na11 O11 2.192955 1_555
Na11 O9 2.203358 1_555
Na11 O8 2.303500 1_455
Na11 O7 2.468549 1_555
Na12 O10 2.275915 1_555
Na12 O5 2.364755 1_555
Na12 O8 2.428249 1_554
Na12 O6 2.504846 1_555
Na13 O0 2.407358 1_555
Na13 O9 2.480065 1_655
Na13 O8 2.514625 1_555
Na13 O13 2.538698 1_555
Na14 O8 2.443157 1_555
Na14 O11 2.536573 1_655
Na14 O1 2.626008 1_556
Na14 O10 2.647113 1_556
Na15 O10 2.379062 1_555
Na15 O5 2.461560 1_555
Na15 O2 2.533664 1_555
Na15 O13 2.573048 1_555
Na16 O14 2.388402 1_555
Na16 O12 2.445676 1_655
Na16 O11 2.541023 1_655
Na16 O9 2.684738 1_655
Na17 O8 2.286753 1_554
Na17 O1 2.329761 1_555
Na17 O13 2.472377 1_554
Na17 O12 2.570722 1_545
Na18 O9 2.318987 1_655
Na18 O13 2.369026 1_555
Na18 O10 2.417595 1_555
Na18 O14 2.547782 1_555
Na19 O5 2.255286 1_565
Na19 O12 2.264143 1_555
Na19 O11 2.461295 1_555
Na19 O2 2.590775 1_565
Na20 O1 2.399306 1_556
Na20 O14 2.434613 1_555
Na20 O13 2.596642 1_555
Na20 O7 2.596642 1_555
In0 O11 2.067500 1_655
In0 O0 2.067500 1_565
In0 O2 2.086992 1_665
In0 In1 2.902707 1_555
In1 In4 2.832517 1_556
In1 In2 2.883701 1_665
In1 In3 2.883701 1_665
In2 O6 2.090592 1_456
In2 O8 2.111481 1_455
In2 O7 2.124780 1_555
In3 O12 2.090592 1_546
In3 O3 2.111481 1_545
In3 O13 2.124780 1_555
In4 O10 2.110082 1_555
In4 O4 2.110082 1_555
In4 O14 2.114253 1_555
