# generated using pymatgen
data_Tb2YbS4
_symmetry_space_group_name_H-M   'P 1'
_cell_length_a   7.23858603
_cell_length_b   7.23858603
_cell_length_c   7.23858603
_cell_angle_alpha   109.42118269
_cell_angle_beta   109.42118269
_cell_angle_gamma   109.57134293
_symmetry_Int_Tables_number   1
_chemical_formula_structural   Tb2YbS4
_chemical_formula_sum   'Tb4 Yb2 S8'
_cell_volume   291.97007141
_cell_formula_units_Z   2
loop_
 _symmetry_equiv_pos_site_id
 _symmetry_equiv_pos_as_xyz
  1  'x, y, z'
loop_
 _atom_site_type_symbol
 _atom_site_label
 _atom_site_symmetry_multiplicity
 _atom_site_fract_x
 _atom_site_fract_y
 _atom_site_fract_z
 _atom_site_occupancy
  Tb  Tb0  1  0.12500000  0.50276100  0.87776100  1
  Tb  Tb1  1  0.49723900  0.37500000  0.62223900  1
  Tb  Tb2  1  0.62500000  0.24723900  0.12223900  1
  Tb  Tb3  1  0.75276100  0.87500000  0.37776100  1
  Yb  Yb0  1  0.00000000  0.00000000  0.00000000  1
  Yb  Yb1  1  0.25000000  0.75000000  0.50000000  1
  S  S0  1  0.87127500  0.62057600  0.10424200  1
  S  S1  1  0.87057600  0.62127500  0.60424200  1
  S  S2  1  0.37872500  0.98296700  0.24930100  1
  S  S3  1  0.01703300  0.26633400  0.39575800  1
  S  S4  1  0.23296700  0.12872500  0.74930100  1
  S  S5  1  0.51633400  0.76703300  0.89575800  1
  S  S6  1  0.37942400  0.48366600  0.25069900  1
  S  S7  1  0.73366600  0.12942400  0.75069900  1
loop_
_geom_bond_atom_site_label_1
_geom_bond_atom_site_label_2
_geom_bond_distance
_geom_bond_site_symmetry_2
S0 Tb2 2.767498 1_555
S0 Tb3 2.794784 1_555
S0 Yb1 2.805646 1_655
S0 Tb0 2.984960 1_654
S0 Tb1 3.005428 1_554
S0 Yb0 3.018618 1_665
S1 Tb1 2.767498 1_555
S1 Tb0 2.794784 1_655
S1 Yb0 2.805646 1_666
S1 Tb3 2.984960 1_555
S1 Tb2 3.005428 1_555
S1 Yb1 3.018618 1_655
S2 Tb2 2.767498 1_565
S2 Tb1 2.794784 1_565
S2 Yb0 2.805646 1_565
S2 Tb0 2.984960 1_554
S2 Tb3 3.005428 1_555
S2 Yb1 3.018618 1_555
S3 Tb3 2.767498 1_445
S3 Tb2 2.794784 1_455
S3 Yb0 2.805646 1_555
S3 Tb1 2.984960 1_555
S3 Tb0 3.005428 1_555
S3 Yb1 3.018618 1_555
S4 Tb1 2.767498 1_555
S4 Tb2 2.794784 1_556
S4 Yb1 2.805646 1_545
S4 Tb3 2.984960 1_445
S4 Tb0 3.005428 1_555
S4 Yb0 3.018618 1_556
S5 Tb0 2.767498 1_555
S5 Tb1 2.794784 1_555
S5 Yb1 2.805646 1_555
S5 Tb2 2.984960 1_566
S5 Tb3 3.005428 1_556
S5 Yb0 3.018618 1_666
S6 Tb3 2.767498 1_555
S6 Tb0 2.794784 1_554
S6 Yb1 2.805646 1_555
S6 Tb1 2.984960 1_555
S6 Tb2 3.005428 1_555
S6 Yb0 3.018618 1_555
S7 Tb0 2.767498 1_655
S7 Tb3 2.794784 1_545
S7 Yb0 2.805646 1_656
S7 Tb2 2.984960 1_556
S7 Tb1 3.005428 1_555
S7 Yb1 3.018618 1_545
