# generated using pymatgen
data_Na4CO4
_symmetry_space_group_name_H-M   'P 1'
_cell_length_a   4.68931072
_cell_length_b   4.68931072
_cell_length_c   5.09111147
_cell_angle_alpha   86.38617134
_cell_angle_beta   86.38617134
_cell_angle_gamma   94.39671575
_symmetry_Int_Tables_number   1
_chemical_formula_structural   Na4CO4
_chemical_formula_sum   'Na4 C1 O4'
_cell_volume   111.14089762
_cell_formula_units_Z   1
loop_
 _symmetry_equiv_pos_site_id
 _symmetry_equiv_pos_as_xyz
  1  'x, y, z'
loop_
 _atom_site_type_symbol
 _atom_site_label
 _atom_site_symmetry_multiplicity
 _atom_site_fract_x
 _atom_site_fract_y
 _atom_site_fract_z
 _atom_site_occupancy
  Na  Na0  1  0.32374600  0.32374600  0.35145500  1
  Na  Na1  1  0.26915300  0.68771000  0.82292500  1
  Na  Na2  1  0.68771000  0.26915300  0.82292500  1
  Na  Na3  1  0.76521600  0.76521600  0.22617300  1
  C  C0  1  0.99069100  0.99069100  0.57855100  1
  O  O0  1  0.15930200  0.15930200  0.75556200  1
  O  O1  1  0.17806800  0.83771900  0.41352100  1
  O  O2  1  0.83771900  0.17806800  0.41352100  1
  O  O3  1  0.78980400  0.78980400  0.74583600  1
loop_
_geom_bond_atom_site_label_1
_geom_bond_atom_site_label_2
_geom_bond_distance
_geom_bond_site_symmetry_2
Na0 O0 2.220545 1_555
Na0 O1 2.324702 1_545
Na0 O2 2.324702 1_455
Na0 O1 2.587801 1_555
Na0 O2 2.587801 1_555
Na1 O1 2.234977 1_555
Na1 O0 2.318355 1_565
Na1 O3 2.385044 1_455
Na1 O3 2.453657 1_555
Na1 O0 2.540964 1_555
Na2 O2 2.234977 1_555
Na2 O0 2.318355 1_655
Na2 O3 2.385044 1_545
Na2 O3 2.453657 1_555
Na2 O0 2.540964 1_555
Na3 O2 2.223994 1_565
Na3 O1 2.223994 1_655
Na3 O3 2.435915 1_554
C0 O1 1.439476 1_655
C0 O2 1.439476 1_565
C0 O0 1.465006 1_665
C0 O3 1.470309 1_555
