# generated using pymatgen
data_Cd7Te7Cl8O17
_symmetry_space_group_name_H-M   'P 1'
_cell_length_a   6.81130800
_cell_length_b   14.79659500
_cell_length_c   28.55554100
_cell_angle_alpha   90.00000000
_cell_angle_beta   90.00000000
_cell_angle_gamma   90.00000000
_symmetry_Int_Tables_number   1
_chemical_formula_structural   Cd7Te7Cl8O17
_chemical_formula_sum   'Cd28 Te28 Cl32 O68'
_cell_volume   2877.94638140
_cell_formula_units_Z   4
loop_
 _symmetry_equiv_pos_site_id
 _symmetry_equiv_pos_as_xyz
  1  'x, y, z'
loop_
 _atom_site_type_symbol
 _atom_site_label
 _atom_site_symmetry_multiplicity
 _atom_site_fract_x
 _atom_site_fract_y
 _atom_site_fract_z
 _atom_site_occupancy
  Cd  Cd0  1  0.38910600  0.41010700  0.08225800  1
  Cd  Cd1  1  0.09477300  0.88934100  0.14949200  1
  Cd  Cd2  1  0.10372800  0.92693800  0.01001000  1
  Cd  Cd3  1  0.36256600  0.07810600  0.30811500  1
  Cd  Cd4  1  0.36256600  0.42189400  0.80811500  1
  Cd  Cd5  1  0.09623200  0.90135100  0.73389600  1
  Cd  Cd6  1  0.90376800  0.09864900  0.23389600  1
  Cd  Cd7  1  0.90376800  0.40135100  0.73389600  1
  Cd  Cd8  1  0.38276300  0.07389300  0.44466300  1
  Cd  Cd9  1  0.90522700  0.11065900  0.64949200  1
  Cd  Cd10  1  0.63743400  0.92189400  0.80811500  1
  Cd  Cd11  1  0.89627200  0.42693800  0.01001000  1
  Cd  Cd12  1  0.61089400  0.91010700  0.08225800  1
  Cd  Cd13  1  0.86342100  0.43338200  0.87099100  1
  Cd  Cd14  1  0.10372800  0.57306200  0.51001000  1
  Cd  Cd15  1  0.63743400  0.57810600  0.30811500  1
  Cd  Cd16  1  0.61723700  0.57389300  0.44466300  1
  Cd  Cd17  1  0.86342100  0.06661800  0.37099100  1
  Cd  Cd18  1  0.38276300  0.42610700  0.94466300  1
  Cd  Cd19  1  0.89627200  0.07306200  0.51001000  1
  Cd  Cd20  1  0.38910600  0.08989300  0.58225800  1
  Cd  Cd21  1  0.09477300  0.61065900  0.64949200  1
  Cd  Cd22  1  0.61723700  0.92610700  0.94466300  1
  Cd  Cd23  1  0.13657900  0.93338200  0.87099100  1
  Cd  Cd24  1  0.13657900  0.56661800  0.37099100  1
  Cd  Cd25  1  0.09623200  0.59864900  0.23389600  1
  Cd  Cd26  1  0.90522700  0.38934100  0.14949200  1
  Cd  Cd27  1  0.61089400  0.58989300  0.58225800  1
  Te  Te0  1  0.04102700  0.88123800  0.43380200  1
  Te  Te1  1  0.02634600  0.60445800  0.78521600  1
  Te  Te2  1  0.42439800  0.40707900  0.23541500  1
  Te  Te3  1  0.57804200  0.88859800  0.51859700  1
  Te  Te4  1  0.95897300  0.11876200  0.93380200  1
  Te  Te5  1  0.97365400  0.39554200  0.28521600  1
  Te  Te6  1  0.57560200  0.90707900  0.23541500  1
  Te  Te7  1  0.96420100  0.09560800  0.09919900  1
  Te  Te8  1  0.95897300  0.38123800  0.43380200  1
  Te  Te9  1  0.42815500  0.08131800  0.15184200  1
  Te  Te10  1  0.42195800  0.11140200  0.01859700  1
  Te  Te11  1  0.42195800  0.38859800  0.51859700  1
  Te  Te12  1  0.48975800  0.38043200  0.38142000  1
  Te  Te13  1  0.02634600  0.89554200  0.28521600  1
  Te  Te14  1  0.97365400  0.10445800  0.78521600  1
  Te  Te15  1  0.57184500  0.58131800  0.15184200  1
  Te  Te16  1  0.57184500  0.91868200  0.65184200  1
  Te  Te17  1  0.48975800  0.11956800  0.88142000  1
  Te  Te18  1  0.51024200  0.88043200  0.38142000  1
  Te  Te19  1  0.03579900  0.90439200  0.59919900  1
  Te  Te20  1  0.03579900  0.59560800  0.09919900  1
  Te  Te21  1  0.04102700  0.61876200  0.93380200  1
  Te  Te22  1  0.51024200  0.61956800  0.88142000  1
  Te  Te23  1  0.57560200  0.59292100  0.73541500  1
  Te  Te24  1  0.57804200  0.61140200  0.01859700  1
  Te  Te25  1  0.96420100  0.40439200  0.59919900  1
  Te  Te26  1  0.42815500  0.41868200  0.65184200  1
  Te  Te27  1  0.42439800  0.09292100  0.73541500  1
  Cl  Cl0  1  0.21400500  0.31299300  0.00672700  1
  Cl  Cl1  1  0.21631100  0.30726000  0.74933100  1
  Cl  Cl2  1  0.78599500  0.81299300  0.00672700  1
  Cl  Cl3  1  0.22126400  0.29606300  0.13559200  1
  Cl  Cl4  1  0.71825000  0.18996700  0.56750700  1
  Cl  Cl5  1  0.26283200  0.74394300  0.19079600  1
  Cl  Cl6  1  0.18933100  0.32226500  0.87911800  1
  Cl  Cl7  1  0.21631100  0.19274000  0.24933100  1
  Cl  Cl8  1  0.73716800  0.24394300  0.19079600  1
  Cl  Cl9  1  0.71590800  0.33789500  0.94166000  1
  Cl  Cl10  1  0.28409200  0.83789500  0.94166000  1
  Cl  Cl11  1  0.78368900  0.69274000  0.24933100  1
  Cl  Cl12  1  0.78599500  0.68700700  0.50672700  1
  Cl  Cl13  1  0.31025600  0.67712800  0.31193200  1
  Cl  Cl14  1  0.28175000  0.68996700  0.56750700  1
  Cl  Cl15  1  0.77873600  0.79606300  0.13559200  1
  Cl  Cl16  1  0.71590800  0.16210500  0.44166000  1
  Cl  Cl17  1  0.22126400  0.20393700  0.63559200  1
  Cl  Cl18  1  0.68974400  0.17712800  0.31193200  1
  Cl  Cl19  1  0.68974400  0.32287200  0.81193200  1
  Cl  Cl20  1  0.81066900  0.82226500  0.87911800  1
  Cl  Cl21  1  0.26283200  0.75605700  0.69079600  1
  Cl  Cl22  1  0.18933100  0.17773500  0.37911800  1
  Cl  Cl23  1  0.81066900  0.67773500  0.37911800  1
  Cl  Cl24  1  0.77873600  0.70393700  0.63559200  1
  Cl  Cl25  1  0.78368900  0.80726000  0.74933100  1
  Cl  Cl26  1  0.31025600  0.82287200  0.81193200  1
  Cl  Cl27  1  0.28409200  0.66210500  0.44166000  1
  Cl  Cl28  1  0.71825000  0.31003300  0.06750700  1
  Cl  Cl29  1  0.28175000  0.81003300  0.06750700  1
  Cl  Cl30  1  0.21400500  0.18700700  0.50672700  1
  Cl  Cl31  1  0.73716800  0.25605700  0.69079600  1
  O  O0  1  0.50059300  0.98832800  0.01815000  1
  O  O1  1  0.21206700  0.62177600  0.87750000  1
  O  O2  1  0.83743200  0.58543400  0.99937800  1
  O  O3  1  0.53152100  0.11567500  0.94869000  1
  O  O4  1  0.96711700  0.98132200  0.80592500  1
  O  O5  1  0.39853000  0.95353400  0.15076700  1
  O  O6  1  0.96125800  0.92652300  0.22262900  1
  O  O7  1  0.78793300  0.12177600  0.87750000  1
  O  O8  1  0.39840000  0.96558000  0.72332600  1
  O  O9  1  0.05120100  0.43314300  0.66008500  1
  O  O10  1  0.39853000  0.54646600  0.65076700  1
  O  O11  1  0.16256800  0.41456600  0.49937800  1
  O  O12  1  0.49940700  0.01167200  0.51815000  1
  O  O13  1  0.27949200  0.09706500  0.79456300  1
  O  O14  1  0.49217600  0.50845900  0.37356600  1
  O  O15  1  0.94879900  0.93314300  0.66008500  1
  O  O16  1  0.49940700  0.48832800  0.01815000  1
  O  O17  1  0.65746300  0.43037400  0.27279100  1
  O  O18  1  0.96711700  0.51867800  0.30592500  1
  O  O19  1  0.95755600  0.52649600  0.57832300  1
  O  O20  1  0.34253700  0.93037400  0.27279100  1
  O  O21  1  0.60160000  0.03442000  0.22332600  1
  O  O22  1  0.60147000  0.45353400  0.15076700  1
  O  O23  1  0.34253700  0.56962600  0.77279100  1
  O  O24  1  0.91061500  0.99507900  0.94718100  1
  O  O25  1  0.66494500  0.43305100  0.61341300  1
  O  O26  1  0.91061500  0.50492100  0.44718100  1
  O  O27  1  0.94879900  0.56685700  0.16008500  1
  O  O28  1  0.03874200  0.42652300  0.22262900  1
  O  O29  1  0.60160000  0.46558000  0.72332600  1
  O  O30  1  0.49217600  0.99154100  0.87356600  1
  O  O31  1  0.04244400  0.02649600  0.57832300  1
  O  O32  1  0.50782400  0.49154100  0.87356600  1
  O  O33  1  0.50782400  0.00845900  0.37356600  1
  O  O34  1  0.46847900  0.61567500  0.94869000  1
  O  O35  1  0.72050800  0.90293500  0.29456300  1
  O  O36  1  0.65746300  0.06962600  0.77279100  1
  O  O37  1  0.33505500  0.56694900  0.11341300  1
  O  O38  1  0.66494500  0.06694900  0.11341300  1
  O  O39  1  0.60147000  0.04646600  0.65076700  1
  O  O40  1  0.08938500  0.49507900  0.94718100  1
  O  O41  1  0.03874200  0.07347700  0.72262900  1
  O  O42  1  0.16256800  0.08543400  0.99937800  1
  O  O43  1  0.78793300  0.37822400  0.37750000  1
  O  O44  1  0.39840000  0.53442000  0.22332600  1
  O  O45  1  0.21206700  0.87822400  0.37750000  1
  O  O46  1  0.82829000  0.58737400  0.89340800  1
  O  O47  1  0.28925500  0.40586400  0.58814900  1
  O  O48  1  0.17171000  0.41262600  0.39340800  1
  O  O49  1  0.71074500  0.59413600  0.08814900  1
  O  O50  1  0.33505500  0.93305100  0.61341300  1
  O  O51  1  0.53152100  0.38432500  0.44869000  1
  O  O52  1  0.27949200  0.40293500  0.29456300  1
  O  O53  1  0.46847900  0.88432500  0.44869000  1
  O  O54  1  0.05120100  0.06685700  0.16008500  1
  O  O55  1  0.04244400  0.47350400  0.07832300  1
  O  O56  1  0.72050800  0.59706500  0.79456300  1
  O  O57  1  0.28925500  0.09413600  0.08814900  1
  O  O58  1  0.03288300  0.01867800  0.30592500  1
  O  O59  1  0.83743200  0.91456600  0.49937800  1
  O  O60  1  0.82829000  0.91262600  0.39340800  1
  O  O61  1  0.50059300  0.51167200  0.51815000  1
  O  O62  1  0.96125800  0.57347700  0.72262900  1
  O  O63  1  0.03288300  0.48132200  0.80592500  1
  O  O64  1  0.71074500  0.90586400  0.58814900  1
  O  O65  1  0.17171000  0.08737400  0.89340800  1
  O  O66  1  0.08938500  0.00492100  0.44718100  1
  O  O67  1  0.95755600  0.97350400  0.07832300  1
loop_
_geom_bond_atom_site_label_1
_geom_bond_atom_site_label_2
_geom_bond_distance
_geom_bond_site_symmetry_2
Cd0 O16 2.292437 1_555
Cd0 O37 2.512527 1_555
Cd0 O22 2.516416 1_555
Cd0 O55 2.543216 1_555
Cd0 Cl3 2.544398 1_555
Cd0 Cl28 2.719592 1_555
Cd0 Cl0 2.852930 1_555
Cd1 O5 2.276885 1_555
Cd1 O6 2.343375 1_455
Cd1 O67 2.560172 1_455
Cd1 Cl15 2.587718 1_455
Cd1 O54 2.660597 1_565
Cd1 Cl5 2.707391 1_555
Cd1 Cl29 2.912026 1_555
Cd2 O67 2.295931 1_455
Cd2 O42 2.398492 1_564
Cd2 O24 2.442454 1_454
Cd2 Cl10 2.656041 1_554
Cd2 Cl29 2.675481 1_555
Cd2 Cl2 2.745003 1_455
Cd3 O33 2.352453 1_555
Cd3 O20 2.411301 1_545
Cd3 O58 2.412412 1_555
Cd3 Cl7 2.585960 1_555
Cd3 Cl18 2.669254 1_555
Cd3 Cl22 2.770623 1_555
Cd4 O32 2.352453 1_555
Cd4 O23 2.411301 1_555
Cd4 O63 2.412412 1_555
Cd4 Cl1 2.585960 1_555
Cd4 Cl19 2.669254 1_555
Cd4 Cl6 2.770623 1_555
Cd5 O8 2.286991 1_555
Cd5 O15 2.381635 1_455
Cd5 O4 2.530642 1_455
Cd5 Cl25 2.581562 1_455
Cd5 O41 2.596814 1_565
Cd5 Cl21 2.724757 1_555
Cd5 Cl26 2.905023 1_555
Cd6 O21 2.286991 1_555
Cd6 O54 2.381635 1_655
Cd6 O58 2.530642 1_655
Cd6 Cl7 2.581562 1_655
Cd6 O6 2.596814 1_545
Cd6 Cl8 2.724757 1_555
Cd6 Cl18 2.905023 1_555
Cd7 O29 2.286991 1_555
Cd7 O9 2.381635 1_655
Cd7 O63 2.530642 1_655
Cd7 Cl1 2.581562 1_655
Cd7 O62 2.596814 1_555
Cd7 Cl31 2.724757 1_555
Cd7 Cl19 2.905023 1_555
Cd8 O66 2.244961 1_555
Cd8 O33 2.405159 1_555
Cd8 O12 2.425362 1_555
Cd8 Cl16 2.619170 1_555
Cd8 Cl30 2.695086 1_555
Cd8 Cl22 2.756790 1_555
Cd9 O39 2.276885 1_555
Cd9 O41 2.343375 1_655
Cd9 O31 2.560172 1_655
Cd9 Cl17 2.587718 1_655
Cd9 O15 2.660597 1_545
Cd9 Cl31 2.707391 1_555
Cd9 Cl4 2.912026 1_555
Cd10 O30 2.352453 1_555
Cd10 O36 2.411301 1_565
Cd10 O4 2.412412 1_555
Cd10 Cl25 2.585960 1_555
Cd10 Cl26 2.669254 1_555
Cd10 Cl20 2.770623 1_555
Cd11 O55 2.295931 1_655
Cd11 O2 2.398492 1_554
Cd11 O40 2.442454 1_654
Cd11 Cl9 2.656041 1_554
Cd11 Cl28 2.675481 1_555
Cd11 Cl0 2.745003 1_655
Cd12 O0 2.292437 1_555
Cd12 O38 2.512527 1_565
Cd12 O5 2.516416 1_555
Cd12 O67 2.543216 1_555
Cd12 Cl15 2.544398 1_555
Cd12 Cl29 2.719592 1_555
Cd12 Cl2 2.852930 1_555
Cd13 O63 2.299485 1_655
Cd13 O46 2.378833 1_555
Cd13 O32 2.571466 1_555
Cd13 Cl19 2.630086 1_555
Cd13 Cl9 2.660463 1_555
Cd13 Cl6 2.772171 1_655
Cd13 O40 2.817037 1_655
Cd14 O19 2.295931 1_455
Cd14 O11 2.398492 1_555
Cd14 O26 2.442454 1_455
Cd14 Cl27 2.656041 1_555
Cd14 Cl14 2.675481 1_555
Cd14 Cl12 2.745003 1_455
Cd15 O14 2.352453 1_555
Cd15 O17 2.411301 1_555
Cd15 O18 2.412412 1_555
Cd15 Cl11 2.585960 1_555
Cd15 Cl13 2.669254 1_555
Cd15 Cl23 2.770623 1_555
Cd16 O26 2.244961 1_555
Cd16 O14 2.405159 1_555
Cd16 O61 2.425362 1_555
Cd16 Cl27 2.619170 1_555
Cd16 Cl12 2.695086 1_555
Cd16 Cl23 2.756790 1_555
Cd17 O58 2.299485 1_655
Cd17 O60 2.378833 1_545
Cd17 O33 2.571466 1_555
Cd17 Cl18 2.630086 1_555
Cd17 Cl16 2.660463 1_555
Cd17 Cl22 2.772171 1_655
Cd17 O66 2.817037 1_655
Cd18 O40 2.244961 1_555
Cd18 O32 2.405159 1_555
Cd18 O16 2.425362 1_556
Cd18 Cl9 2.619170 1_555
Cd18 Cl0 2.695086 1_556
Cd18 Cl6 2.756790 1_555
Cd19 O31 2.295931 1_655
Cd19 O59 2.398492 1_545
Cd19 O66 2.442454 1_655
Cd19 Cl16 2.656041 1_555
Cd19 Cl4 2.675481 1_555
Cd19 Cl30 2.745003 1_655
Cd20 O12 2.292437 1_555
Cd20 O50 2.512527 1_545
Cd20 O39 2.516416 1_555
Cd20 O31 2.543216 1_555
Cd20 Cl17 2.544398 1_555
Cd20 Cl4 2.719592 1_555
Cd20 Cl30 2.852930 1_555
Cd21 O10 2.276885 1_555
Cd21 O62 2.343375 1_455
Cd21 O19 2.560172 1_455
Cd21 Cl24 2.587718 1_455
Cd21 O9 2.660597 1_555
Cd21 Cl21 2.707391 1_555
Cd21 Cl14 2.912026 1_555
Cd22 O24 2.244961 1_555
Cd22 O30 2.405159 1_555
Cd22 O0 2.425362 1_556
Cd22 Cl10 2.619170 1_555
Cd22 Cl2 2.695086 1_556
Cd22 Cl20 2.756790 1_555
Cd23 O4 2.299485 1_455
Cd23 O65 2.378833 1_565
Cd23 O30 2.571466 1_555
Cd23 Cl26 2.630086 1_555
Cd23 Cl10 2.660463 1_555
Cd23 Cl20 2.772171 1_455
Cd23 O24 2.817037 1_455
Cd24 O18 2.299485 1_455
Cd24 O48 2.378833 1_555
Cd24 O14 2.571466 1_555
Cd24 Cl13 2.630086 1_555
Cd24 Cl27 2.660463 1_555
Cd24 Cl23 2.772171 1_455
Cd24 O26 2.817037 1_455
Cd25 O44 2.286991 1_555
Cd25 O27 2.381635 1_455
Cd25 O18 2.530642 1_455
Cd25 Cl11 2.581562 1_455
Cd25 O28 2.596814 1_555
Cd25 Cl5 2.724757 1_555
Cd25 Cl13 2.905023 1_555
Cd26 O22 2.276885 1_555
Cd26 O28 2.343375 1_655
Cd26 O55 2.560172 1_655
Cd26 Cl3 2.587718 1_655
Cd26 O27 2.660597 1_555
Cd26 Cl8 2.707391 1_555
Cd26 Cl28 2.912026 1_555
Cd27 O61 2.292437 1_555
Cd27 O25 2.512527 1_555
Cd27 O10 2.516416 1_555
Cd27 O19 2.543216 1_555
Cd27 Cl24 2.544398 1_555
Cd27 Cl14 2.719592 1_555
Cd27 Cl12 2.852930 1_555
O0 Te10 1.898251 1_565
O1 Te21 1.985960 1_555
O1 Te22 2.034307 1_555
O2 Te24 1.889540 1_556
O2 Te21 2.381750 1_655
O3 Te17 1.942733 1_555
O3 Te10 2.132101 1_556
O4 Te14 1.916076 1_565
O5 Te9 1.901753 1_565
O6 Te13 1.897575 1_655
O6 Te6 2.667634 1_555
O7 Te4 1.985960 1_555
O7 Te17 2.034307 1_555
O8 Te27 1.923743 1_565
O8 Te16 2.458450 1_555
O9 Te25 1.885465 1_455
O9 Te26 2.587180 1_555
O10 Te26 1.901753 1_555
O11 Te11 1.889540 1_555
O11 Te8 2.381750 1_455
O12 Te3 1.898251 1_545
O13 Te27 1.957207 1_555
O13 Te14 2.103033 1_455
O14 Te12 1.907665 1_555
O15 Te19 1.885465 1_655
O15 Te16 2.587180 1_555
O16 Te24 1.898251 1_555
O17 Te2 1.943709 1_555
O17 Te5 2.242728 1_555
O18 Te5 1.916076 1_555
O19 Te25 1.903067 1_555
O20 Te6 1.943709 1_555
O20 Te13 2.242728 1_555
O21 Te6 1.923743 1_545
O21 Te9 2.458450 1_555
O22 Te15 1.901753 1_555
O23 Te23 1.943709 1_555
O23 Te1 2.242728 1_555
O24 Te4 1.898333 1_565
O25 Te26 1.962317 1_555
O25 Te25 2.121164 1_555
O26 Te8 1.898333 1_555
O27 Te20 1.885465 1_655
O27 Te15 2.587180 1_555
O28 Te5 1.897575 1_455
O28 Te2 2.667634 1_555
O29 Te23 1.923743 1_555
O29 Te26 2.458450 1_555
O30 Te17 1.907665 1_565
O31 Te19 1.903067 1_545
O32 Te22 1.907665 1_555
O33 Te18 1.907665 1_545
O34 Te22 1.942733 1_555
O34 Te24 2.132101 1_556
O35 Te6 1.957207 1_555
O35 Te13 2.103033 1_655
O36 Te27 1.943709 1_555
O36 Te14 2.242728 1_555
O37 Te15 1.962317 1_555
O37 Te20 2.121164 1_555
O38 Te9 1.962317 1_555
O38 Te7 2.121164 1_555
O39 Te16 1.901753 1_545
O40 Te21 1.898333 1_555
O41 Te14 1.897575 1_455
O41 Te27 2.667634 1_555
O42 Te10 1.889540 1_556
O42 Te4 2.381750 1_455
O43 Te8 1.985960 1_555
O43 Te12 2.034307 1_555
O44 Te2 1.923743 1_555
O44 Te15 2.458450 1_555
O45 Te0 1.985960 1_555
O45 Te18 2.034307 1_555
O46 Te21 1.909411 1_655
O46 Te22 2.244340 1_555
O47 Te26 2.058895 1_555
O47 Te11 2.197008 1_555
O47 Te25 2.236521 1_455
O48 Te8 1.909411 1_455
O48 Te12 2.244340 1_555
O49 Te15 2.058895 1_555
O49 Te24 2.197008 1_555
O49 Te20 2.236521 1_655
O50 Te16 1.962317 1_555
O50 Te19 2.121164 1_555
O51 Te12 1.942733 1_555
O51 Te11 2.132101 1_555
O52 Te2 1.957207 1_555
O52 Te5 2.103033 1_455
O53 Te18 1.942733 1_555
O53 Te3 2.132101 1_555
O54 Te7 1.885465 1_455
O54 Te9 2.587180 1_555
O55 Te20 1.903067 1_555
O56 Te23 1.957207 1_555
O56 Te1 2.103033 1_655
O57 Te9 2.058895 1_555
O57 Te10 2.197008 1_555
O57 Te7 2.236521 1_455
O58 Te13 1.916076 1_545
O59 Te3 1.889540 1_555
O59 Te0 2.381750 1_655
O60 Te0 1.909411 1_655
O60 Te18 2.244340 1_555
O61 Te11 1.898251 1_555
O62 Te1 1.897575 1_655
O62 Te23 2.667634 1_555
O63 Te1 1.916076 1_555
O64 Te16 2.058895 1_555
O64 Te3 2.197008 1_555
O64 Te19 2.236521 1_655
O65 Te4 1.909411 1_455
O65 Te17 2.244340 1_555
O66 Te0 1.898333 1_545
O67 Te7 1.903067 1_565
