# generated using pymatgen
data_Rb2U2O7
_symmetry_space_group_name_H-M   'P 1'
_cell_length_a   6.92738716
_cell_length_b   7.42828834
_cell_length_c   7.99701206
_cell_angle_alpha   105.69458713
_cell_angle_beta   89.69465168
_cell_angle_gamma   99.13481621
_symmetry_Int_Tables_number   1
_chemical_formula_structural   Rb2U2O7
_chemical_formula_sum   'Rb4 U4 O14'
_cell_volume   390.84200223
_cell_formula_units_Z   2
loop_
 _symmetry_equiv_pos_site_id
 _symmetry_equiv_pos_as_xyz
  1  'x, y, z'
loop_
 _atom_site_type_symbol
 _atom_site_label
 _atom_site_symmetry_multiplicity
 _atom_site_fract_x
 _atom_site_fract_y
 _atom_site_fract_z
 _atom_site_occupancy
  Rb  Rb0  1  0.23968624  0.48678822  0.62563967  1
  Rb  Rb1  1  0.26292160  0.48889158  0.11813910  1
  Rb  Rb2  1  0.76031376  0.51321178  0.37436033  1
  Rb  Rb3  1  0.73707840  0.51110842  0.88186090  1
  U  U0  1  0.03190987  0.99426008  0.24550808  1
  U  U1  1  0.96809013  0.00573992  0.75449192  1
  U  U2  1  0.50000000  0.00000000  0.00000000  1
  U  U3  1  0.50000000  0.00000000  0.50000000  1
  O  O0  1  0.06633796  0.25699632  0.31119363  1
  O  O1  1  0.18962603  0.01732471  0.55729818  1
  O  O2  1  0.00780454  0.26872821  0.82135741  1
  O  O3  1  0.18937330  0.01873081  0.95853554  1
  O  O4  1  0.55721945  0.26617698  0.07920898  1
  O  O5  1  0.44278055  0.73382302  0.92079102  1
  O  O6  1  0.36845240  0.98503630  0.24636474  1
  O  O7  1  0.55323717  0.26651885  0.55523091  1
  O  O8  1  0.44676283  0.73348115  0.44476909  1
  O  O9  1  0.81037397  0.98267529  0.44270182  1
  O  O10  1  0.63154760  0.01496370  0.75363526  1
  O  O11  1  0.93366204  0.74300368  0.68880637  1
  O  O12  1  0.81062670  0.98126919  0.04146446  1
  O  O13  1  0.99219546  0.73127179  0.17864259  1
loop_
_geom_bond_atom_site_label_1
_geom_bond_atom_site_label_2
_geom_bond_distance
_geom_bond_site_symmetry_2
O0 U0 1.854928 1_545
O0 Rb0 2.781762 1_555
O0 Rb1 2.806578 1_555
O0 Rb2 3.020138 1_455
O1 U1 2.203429 1_455
O1 U3 2.212424 1_555
O1 U0 2.679275 1_545
O2 U1 1.855734 1_455
O2 Rb3 2.753938 1_455
O2 Rb0 2.858755 1_555
O2 Rb1 2.908244 1_556
O3 U2 2.210729 1_556
O3 U1 2.217253 1_455
O3 U0 2.574030 1_546
O4 U2 1.882567 1_555
O4 Rb1 2.788511 1_555
O4 Rb2 2.791106 1_555
O4 Rb3 2.857645 1_554
O5 U2 1.882567 1_566
O5 Rb3 2.788511 1_555
O5 Rb0 2.791106 1_555
O5 Rb1 2.857645 1_556
O6 U2 2.188969 1_565
O6 U3 2.196008 1_565
O6 U0 2.343315 1_555
O7 U3 1.883465 1_555
O7 Rb2 2.843457 1_555
O7 Rb0 2.886039 1_555
O7 Rb3 2.911878 1_555
O8 U3 1.883465 1_565
O8 Rb0 2.843457 1_555
O8 Rb2 2.886039 1_555
O8 Rb1 2.911878 1_555
O9 U0 2.203429 1_655
O9 U3 2.212424 1_565
O9 U1 2.679275 1_565
O10 U2 2.188969 1_556
O10 U3 2.196008 1_555
O10 U1 2.343315 1_555
O11 U1 1.854928 1_565
O11 Rb2 2.781762 1_555
O11 Rb3 2.806578 1_555
O11 Rb0 3.020138 1_655
O12 U2 2.210729 1_565
O12 U0 2.217253 1_655
O12 U1 2.574030 1_564
O13 U0 1.855734 1_655
O13 Rb1 2.753938 1_655
O13 Rb2 2.858755 1_555
O13 Rb3 2.908244 1_554
