# generated using pymatgen
data_In7Cu10
_symmetry_space_group_name_H-M   'P 1'
_cell_length_a   6.69709635
_cell_length_b   9.10077067
_cell_length_c   9.10077120
_cell_angle_alpha   81.28439588
_cell_angle_beta   89.31263065
_cell_angle_gamma   89.31263769
_symmetry_Int_Tables_number   1
_chemical_formula_structural   In7Cu10
_chemical_formula_sum   'In14 Cu20'
_cell_volume   548.20690616
_cell_formula_units_Z   2
loop_
 _symmetry_equiv_pos_site_id
 _symmetry_equiv_pos_as_xyz
  1  'x, y, z'
loop_
 _atom_site_type_symbol
 _atom_site_label
 _atom_site_symmetry_multiplicity
 _atom_site_fract_x
 _atom_site_fract_y
 _atom_site_fract_z
 _atom_site_occupancy
  In  In0  1  0.38560140  0.87999948  0.43113542  1
  In  In1  1  0.28257755  0.46475098  0.46475098  1
  In  In2  1  0.19678440  0.15714218  0.70530906  1
  In  In3  1  0.61439860  0.12000052  0.56886458  1
  In  In4  1  0.06541116  0.76305390  0.76305390  1
  In  In5  1  0.80321560  0.29469094  0.84285782  1
  In  In6  1  0.49924204  0.83414407  0.83414407  1
  In  In7  1  0.80321560  0.84285782  0.29469094  1
  In  In8  1  0.61439860  0.56886458  0.12000052  1
  In  In9  1  0.50075796  0.16585593  0.16585593  1
  In  In10  1  0.19678440  0.70530906  0.15714218  1
  In  In11  1  0.71742245  0.53524902  0.53524902  1
  In  In12  1  0.93458884  0.23694610  0.23694610  1
  In  In13  1  0.38560140  0.43113542  0.87999948  1
  Cu  Cu0  1  0.84765394  0.78242704  0.00424772  1
  Cu  Cu1  1  0.93982002  0.29303234  0.51796385  1
  Cu  Cu2  1  0.50000000  0.88822814  0.11177186  1
  Cu  Cu3  1  0.27530112  0.18176279  0.40803317  1
  Cu  Cu4  1  0.15234606  0.21757296  0.99575228  1
  Cu  Cu5  1  0.93982002  0.51796385  0.29303234  1
  Cu  Cu6  1  0.72469888  0.59196683  0.81823721  1
  Cu  Cu7  1  0.50000000  0.11177186  0.88822814  1
  Cu  Cu8  1  0.06017998  0.70696766  0.48203615  1
  Cu  Cu9  1  0.15234606  0.99575228  0.21757296  1
  Cu  Cu10  1  0.72469888  0.81823721  0.59196683  1
  Cu  Cu11  1  0.83314000  0.04891752  0.04891752  1
  Cu  Cu12  1  -0.00000000  -0.00000000  0.50000000  1
  Cu  Cu13  1  0.60826316  0.35071727  0.35071727  1
  Cu  Cu14  1  0.27530112  0.40803317  0.18176279  1
  Cu  Cu15  1  0.84765394  0.00424772  0.78242704  1
  Cu  Cu16  1  0.06017998  0.48203615  0.70696766  1
  Cu  Cu17  1  0.16686000  0.95108248  0.95108248  1
  Cu  Cu18  1  -0.00000000  0.50000000  -0.00000000  1
  Cu  Cu19  1  0.39173684  0.64928273  0.64928273  1
loop_
_geom_bond_atom_site_label_1
_geom_bond_atom_site_label_2
_geom_bond_distance
_geom_bond_site_symmetry_2
In0 In7 3.082126 1_555
In0 In3 3.105766 1_565
In1 In11 3.085218 1_555
In1 In2 3.333331 1_555
In1 In10 3.333331 1_555
In2 In3 3.082126 1_555
In4 In6 3.081493 1_555
In10 In8 3.082126 1_555
In11 In7 3.333331 1_555
In11 In5 3.333331 1_555
In12 In9 3.081493 1_555
In13 In5 3.082126 1_555
In13 In8 3.105766 1_556
Cu0 Cu11 2.519690 1_565
Cu0 In8 2.596223 1_555
Cu0 Cu15 2.629744 1_564
Cu0 Cu17 2.643641 1_654
Cu0 In4 2.647716 1_654
Cu0 Cu2 2.735440 1_555
Cu0 Cu6 2.739554 1_554
Cu0 Cu18 2.759559 1_655
Cu0 In10 2.763774 1_655
Cu0 In7 2.792060 1_555
Cu0 In6 2.811063 1_554
Cu1 In2 2.603513 1_655
Cu1 Cu5 2.666624 1_555
Cu1 In11 2.668895 1_555
Cu1 In12 2.683404 1_555
Cu1 Cu3 2.696802 1_655
Cu1 In3 2.698347 1_555
Cu1 Cu13 2.708089 1_555
Cu1 Cu12 2.721369 1_655
Cu1 Cu16 2.744135 1_655
Cu1 In1 2.788557 1_655
Cu1 In5 3.086755 1_555
Cu2 In10 2.630210 1_555
Cu2 In7 2.630210 1_555
Cu2 In9 2.646393 1_565
Cu2 In6 2.646393 1_554
Cu2 Cu7 2.650171 1_564
Cu2 Cu9 2.735440 1_555
Cu2 In8 2.986979 1_555
Cu2 In0 2.986979 1_555
Cu3 In9 2.677684 1_555
Cu3 In1 2.703339 1_555
Cu3 In3 2.723127 1_555
Cu3 In2 2.726003 1_555
Cu3 Cu9 2.739554 1_545
Cu3 In12 2.775580 1_455
Cu3 In0 2.812825 1_545
Cu4 In13 2.596223 1_555
Cu4 Cu9 2.629744 1_546
Cu4 In12 2.647716 1_456
Cu4 Cu7 2.735440 1_555
Cu4 In5 2.763774 1_455
Cu4 In2 2.792060 1_555
Cu4 In9 2.811063 1_556
Cu5 In10 2.603513 1_655
Cu5 In11 2.668895 1_555
Cu5 In12 2.683403 1_555
Cu5 In8 2.698347 1_555
Cu5 Cu8 2.744135 1_655
Cu5 In1 2.788557 1_655
Cu5 In7 3.086755 1_555
Cu6 In6 2.677684 1_555
Cu6 In11 2.703340 1_555
Cu6 In13 2.723126 1_555
Cu6 In5 2.726003 1_555
Cu6 In4 2.775579 1_655
Cu6 In8 2.812825 1_556
Cu7 In5 2.630210 1_555
Cu7 In2 2.630210 1_555
Cu7 In6 2.646393 1_545
Cu7 In9 2.646393 1_556
Cu7 In13 2.986979 1_555
Cu7 In3 2.986979 1_555
Cu8 In7 2.603513 1_455
Cu8 In1 2.668895 1_555
Cu8 In4 2.683404 1_555
Cu8 In0 2.698347 1_555
Cu8 In11 2.788557 1_455
Cu8 In10 3.086755 1_555
Cu9 In0 2.596223 1_555
Cu9 In12 2.647716 1_465
Cu9 In7 2.763774 1_455
Cu9 In10 2.792060 1_555
Cu9 In9 2.811063 1_565
Cu10 Cu12 2.540215 1_665
Cu10 In6 2.677684 1_555
Cu10 Cu6 2.682496 1_555
Cu10 Cu8 2.696802 1_655
Cu10 In11 2.703339 1_555
Cu10 In0 2.723127 1_555
Cu10 Cu19 2.723967 1_555
Cu10 In7 2.726003 1_555
Cu10 Cu15 2.739554 1_565
Cu10 In4 2.775580 1_655
Cu10 In3 2.812825 1_565
Cu11 Cu15 2.519690 1_554
Cu11 Cu17 2.593323 1_644
Cu11 Cu4 2.643641 1_654
Cu11 Cu9 2.643642 1_645
Cu11 Cu2 2.690286 1_545
Cu11 Cu7 2.690286 1_554
Cu11 In12 2.694673 1_555
Cu11 In7 2.699433 1_545
Cu11 In5 2.699433 1_554
Cu11 In9 2.729429 1_555
Cu12 Cu3 2.540215 1_555
Cu12 Cu8 2.721369 1_545
Cu12 Cu15 2.759559 1_455
Cu12 Cu9 2.759559 1_545
Cu12 In2 2.861354 1_555
Cu12 In7 2.861354 1_445
Cu12 In0 2.890540 1_545
Cu12 In3 2.890540 1_455
Cu12 In4 3.001852 1_545
Cu12 In12 3.001852 1_455
Cu13 In3 2.662413 1_555
Cu13 In8 2.662413 1_555
Cu13 In11 2.662464 1_555
Cu13 In9 2.663659 1_555
Cu13 In1 2.670060 1_555
Cu13 In12 2.671436 1_555
Cu13 Cu5 2.708089 1_555
Cu13 Cu3 2.723967 1_555
Cu13 Cu14 2.723967 1_555
Cu14 Cu18 2.540216 1_555
Cu14 In9 2.677684 1_555
Cu14 Cu3 2.682496 1_555
Cu14 Cu5 2.696802 1_455
Cu14 In1 2.703340 1_555
Cu14 In8 2.723126 1_555
Cu14 In10 2.726003 1_555
Cu14 Cu4 2.739554 1_554
Cu14 In12 2.775579 1_455
Cu14 In13 2.812825 1_554
Cu15 In3 2.596223 1_555
Cu15 Cu17 2.643642 1_645
Cu15 In4 2.647716 1_645
Cu15 Cu7 2.735440 1_555
Cu15 In2 2.763774 1_655
Cu15 In5 2.792060 1_555
Cu15 In6 2.811063 1_545
Cu16 In5 2.603513 1_455
Cu16 Cu8 2.666624 1_555
Cu16 In1 2.668895 1_555
Cu16 In4 2.683403 1_555
Cu16 Cu6 2.696802 1_455
Cu16 In13 2.698347 1_555
Cu16 Cu19 2.708089 1_555
Cu16 Cu18 2.721370 1_556
Cu16 In11 2.788557 1_455
Cu16 In2 3.086755 1_555
Cu17 Cu4 2.519690 1_565
Cu17 Cu9 2.519690 1_556
Cu17 Cu7 2.690286 1_565
Cu17 Cu2 2.690286 1_556
Cu17 In4 2.694673 1_555
Cu17 In2 2.699433 1_565
Cu17 In10 2.699433 1_556
Cu17 In6 2.729429 1_555
Cu18 Cu6 2.540216 1_454
Cu18 Cu5 2.721370 1_455
Cu18 Cu4 2.759559 1_554
Cu18 In10 2.861354 1_555
Cu18 In5 2.861354 1_454
Cu18 In8 2.890540 1_455
Cu18 In13 2.890540 1_554
Cu18 In12 3.001852 1_455
Cu18 In4 3.001852 1_554
Cu19 In0 2.662413 1_555
Cu19 In13 2.662413 1_555
Cu19 In1 2.662464 1_555
Cu19 In6 2.663659 1_555
Cu19 In11 2.670060 1_555
Cu19 In4 2.671436 1_555
Cu19 Cu8 2.708089 1_555
Cu19 Cu6 2.723967 1_555
