# generated using pymatgen
data_MnH12C2(NCl2)2
_symmetry_space_group_name_H-M   'P 1'
_cell_length_a   9.94482989
_cell_length_b   9.94482989
_cell_length_c   7.17686300
_cell_angle_alpha   90.00000000
_cell_angle_beta   90.00000000
_cell_angle_gamma   136.57702643
_symmetry_Int_Tables_number   1
_chemical_formula_structural   MnH12C2(NCl2)2
_chemical_formula_sum   'Mn2 H24 C4 N4 Cl8'
_cell_volume   487.89402407
_cell_formula_units_Z   2
loop_
 _symmetry_equiv_pos_site_id
 _symmetry_equiv_pos_as_xyz
  1  'x, y, z'
loop_
 _atom_site_type_symbol
 _atom_site_label
 _atom_site_symmetry_multiplicity
 _atom_site_fract_x
 _atom_site_fract_y
 _atom_site_fract_z
 _atom_site_occupancy
  Mn  Mn0  1  0.50000000  0.50000000  0.50000000  1
  Mn  Mn1  1  0.00000000  0.00000000  0.00000000  1
  H  H0  1  0.88678200  0.11321800  0.32773400  1
  H  H1  1  0.11321800  0.88678200  0.67226600  1
  H  H2  1  0.61321800  0.38678200  0.82773400  1
  H  H3  1  0.38678200  0.61321800  0.17226600  1
  H  H4  1  0.80209400  0.97459400  0.52220300  1
  H  H5  1  0.97459400  0.80209400  0.47779700  1
  H  H6  1  0.47459400  0.30209400  0.02220300  1
  H  H7  1  0.30209400  0.47459400  0.97779700  1
  H  H8  1  0.19790600  0.02540600  0.47779700  1
  H  H9  1  0.02540600  0.19790600  0.52220300  1
  H  H10  1  0.52540600  0.69790600  0.97779700  1
  H  H11  1  0.69790600  0.52540600  0.02220300  1
  H  H12  1  0.80942800  0.19057200  0.69403100  1
  H  H13  1  0.19057200  0.80942800  0.30596900  1
  H  H14  1  0.69057200  0.30942800  0.19403100  1
  H  H15  1  0.30942800  0.69057200  0.80596900  1
  H  H16  1  0.66060000  0.09745000  0.49038900  1
  H  H17  1  0.09745000  0.66060000  0.50961100  1
  H  H18  1  0.59745000  0.16060000  0.99038900  1
  H  H19  1  0.16060000  0.59745000  0.00961100  1
  H  H20  1  0.33940000  0.90255000  0.50961100  1
  H  H21  1  0.90255000  0.33940000  0.49038900  1
  H  H22  1  0.40255000  0.83940000  0.00961100  1
  H  H23  1  0.83940000  0.40255000  0.99038900  1
  C  C0  1  0.80925700  0.19074300  0.54139700  1
  C  C1  1  0.19074300  0.80925700  0.45860300  1
  C  C2  1  0.69074300  0.30925700  0.04139700  1
  C  C3  1  0.30925700  0.69074300  0.95860300  1
  N  N0  1  0.88539200  0.11460800  0.47412800  1
  N  N1  1  0.11460800  0.88539200  0.52587200  1
  N  N2  1  0.61460800  0.38539200  0.97412800  1
  N  N3  1  0.38539200  0.61460800  0.02587200  1
  Cl  Cl0  1  0.23679100  0.26320900  0.75000000  1
  Cl  Cl1  1  0.26320900  0.23679100  0.25000000  1
  Cl  Cl2  1  0.76320900  0.73679100  0.25000000  1
  Cl  Cl3  1  0.73679100  0.76320900  0.75000000  1
  Cl  Cl4  1  0.62592600  0.37407400  0.53741700  1
  Cl  Cl5  1  0.37407400  0.62592600  0.46258300  1
  Cl  Cl6  1  0.87407400  0.12592600  0.03741700  1
  Cl  Cl7  1  0.12592600  0.87407400  0.96258300  1
loop_
_geom_bond_atom_site_label_1
_geom_bond_atom_site_label_2
_geom_bond_distance
_geom_bond_site_symmetry_2
H0 N0 1.050964 1_555
H1 N1 1.050964 1_555
H2 N2 1.050964 1_555
H3 N3 1.050964 1_555
H4 N0 1.033721 1_565
H5 N1 1.033721 1_655
H6 N2 1.033721 1_554
H7 N3 1.033721 1_556
H8 N1 1.033721 1_545
H9 N0 1.033721 1_455
H10 N3 1.033721 1_556
H11 N2 1.033721 1_554
C0 H16 1.089943 1_555
C0 H21 1.089943 1_555
C0 H12 1.095438 1_555
C0 N0 1.487403 1_555
C1 H17 1.089943 1_555
C1 H20 1.089943 1_555
C1 H13 1.095438 1_555
C1 N1 1.487403 1_555
C2 H18 1.089943 1_554
C2 H23 1.089943 1_554
C2 H14 1.095438 1_555
C2 N2 1.487403 1_554
C3 H19 1.089943 1_556
C3 H22 1.089943 1_556
C3 H15 1.095438 1_555
C3 N3 1.487403 1_556
Cl0 Mn1 2.581163 1_556
Cl0 Mn0 2.581163 1_555
Cl1 Mn1 2.581163 1_555
Cl1 Mn0 2.581163 1_555
Cl2 Mn0 2.581163 1_555
Cl2 Mn1 2.581163 1_665
Cl3 Mn0 2.581163 1_555
Cl3 Mn1 2.581163 1_666
Cl4 H2 2.096757 1_555
Cl4 Mn0 2.342387 1_555
Cl5 H3 2.096757 1_555
Cl5 Mn0 2.342387 1_555
Cl6 H0 2.096757 1_555
Cl6 Mn1 2.342387 1_655
Cl7 H1 2.096757 1_555
Cl7 Mn1 2.342387 1_566
