# generated using pymatgen
data_BaNaIn2(PO4)3
_symmetry_space_group_name_H-M   'P 1'
_cell_length_a   10.29542600
_cell_length_b   10.29542600
_cell_length_c   10.29542600
_cell_angle_alpha   90.00000000
_cell_angle_beta   90.00000000
_cell_angle_gamma   90.00000000
_symmetry_Int_Tables_number   1
_chemical_formula_structural   BaNaIn2(PO4)3
_chemical_formula_sum   'Ba4 Na4 In8 P12 O48'
_cell_volume   1091.27187940
_cell_formula_units_Z   4
loop_
 _symmetry_equiv_pos_site_id
 _symmetry_equiv_pos_as_xyz
  1  'x, y, z'
loop_
 _atom_site_type_symbol
 _atom_site_label
 _atom_site_symmetry_multiplicity
 _atom_site_fract_x
 _atom_site_fract_y
 _atom_site_fract_z
 _atom_site_occupancy
  Ba  Ba0  1  0.19417100  0.30582900  0.69417100  1
  Ba  Ba1  1  0.30582900  0.69417100  0.19417100  1
  Ba  Ba2  1  0.69417100  0.19417100  0.30582900  1
  Ba  Ba3  1  0.80582900  0.80582900  0.80582900  1
  Na  Na0  1  0.07441100  0.07441100  0.07441100  1
  Na  Na1  1  0.42558900  0.92558900  0.57441100  1
  Na  Na2  1  0.57441100  0.42558900  0.92558900  1
  Na  Na3  1  0.92558900  0.57441100  0.42558900  1
  In  In0  1  0.08985000  0.91015000  0.41015000  1
  In  In1  1  0.16920100  0.66920100  0.83079900  1
  In  In2  1  0.33079900  0.33079900  0.33079900  1
  In  In3  1  0.41015000  0.08985000  0.91015000  1
  In  In4  1  0.58985000  0.58985000  0.58985000  1
  In  In5  1  0.66920100  0.83079900  0.16920100  1
  In  In6  1  0.83079900  0.16920100  0.66920100  1
  In  In7  1  0.91015000  0.41015000  0.08985000  1
  P  P0  1  0.01356700  0.22406900  0.37306800  1
  P  P1  1  0.12693200  0.98643300  0.72406900  1
  P  P2  1  0.22406900  0.37306800  0.01356700  1
  P  P3  1  0.27593100  0.62693200  0.51356700  1
  P  P4  1  0.37306800  0.01356700  0.22406900  1
  P  P5  1  0.48643300  0.77593100  0.87306800  1
  P  P6  1  0.51356700  0.27593100  0.62693200  1
  P  P7  1  0.62693200  0.51356700  0.27593100  1
  P  P8  1  0.72406900  0.12693200  0.98643300  1
  P  P9  1  0.77593100  0.87306800  0.48643300  1
  P  P10  1  0.87306800  0.48643300  0.77593100  1
  P  P11  1  0.98643300  0.72406900  0.12693200  1
  O  O0  1  0.02588100  0.08607100  0.31062900  1
  O  O1  1  0.01477600  0.08544300  0.71975800  1
  O  O2  1  0.04710100  0.81804300  0.22565300  1
  O  O3  1  0.07719600  0.85165300  0.77126300  1
  O  O4  1  0.08607100  0.31062900  0.02588100  1
  O  O5  1  0.08544300  0.71975800  0.01477600  1
  O  O6  1  0.14834700  0.27126300  0.42280400  1
  O  O7  1  0.18195700  0.72565300  0.45289900  1
  O  O8  1  0.21975800  0.48522400  0.91455700  1
  O  O9  1  0.18937100  0.97411900  0.58607100  1
  O  O10  1  0.22565300  0.04710100  0.81804300  1
  O  O11  1  0.22873700  0.57719600  0.64834700  1
  O  O12  1  0.27126300  0.42280400  0.14834700  1
  O  O13  1  0.27434700  0.95289900  0.31804300  1
  O  O14  1  0.31062900  0.02588100  0.08607100  1
  O  O15  1  0.28024200  0.51477600  0.41455700  1
  O  O16  1  0.31804300  0.27434700  0.95289900  1
  O  O17  1  0.35165300  0.72873700  0.92280400  1
  O  O18  1  0.41455700  0.28024200  0.51477600  1
  O  O19  1  0.41392900  0.68937100  0.52588100  1
  O  O20  1  0.42280400  0.14834700  0.27126300  1
  O  O21  1  0.45289900  0.18195700  0.72565300  1
  O  O22  1  0.48522400  0.91455700  0.21975800  1
  O  O23  1  0.47411900  0.91392900  0.81062900  1
  O  O24  1  0.52588100  0.41392900  0.68937100  1
  O  O25  1  0.51477600  0.41455700  0.28024200  1
  O  O26  1  0.54710100  0.68195700  0.77434700  1
  O  O27  1  0.57719600  0.64834700  0.22873700  1
  O  O28  1  0.58607100  0.18937100  0.97411900  1
  O  O29  1  0.58544300  0.78024200  0.98522400  1
  O  O30  1  0.64834700  0.22873700  0.57719600  1
  O  O31  1  0.68195700  0.77434700  0.54710100  1
  O  O32  1  0.71975800  0.01477600  0.08544300  1
  O  O33  1  0.68937100  0.52588100  0.41392900  1
  O  O34  1  0.72565300  0.45289900  0.18195700  1
  O  O35  1  0.72873700  0.92280400  0.35165300  1
  O  O36  1  0.77126300  0.07719600  0.85165300  1
  O  O37  1  0.77434700  0.54710100  0.68195700  1
  O  O38  1  0.81062900  0.47411900  0.91392900  1
  O  O39  1  0.78024200  0.98522400  0.58544300  1
  O  O40  1  0.81804300  0.22565300  0.04710100  1
  O  O41  1  0.85165300  0.77126300  0.07719600  1
  O  O42  1  0.91455700  0.21975800  0.48522400  1
  O  O43  1  0.91392900  0.81062900  0.47411900  1
  O  O44  1  0.92280400  0.35165300  0.72873700  1
  O  O45  1  0.95289900  0.31804300  0.27434700  1
  O  O46  1  0.98522400  0.58544300  0.78024200  1
  O  O47  1  0.97411900  0.58607100  0.18937100  1
loop_
_geom_bond_atom_site_label_1
_geom_bond_atom_site_label_2
_geom_bond_distance
_geom_bond_site_symmetry_2
Ba0 O44 2.855653 1_455
Ba0 O11 2.855653 1_555
Ba0 O6 2.855653 1_555
Ba0 O18 2.937486 1_555
Ba0 O1 2.937486 1_555
Ba0 O8 2.937486 1_555
Ba0 O21 2.971003 1_555
Ba0 O10 2.971003 1_555
Ba0 O16 2.971003 1_555
Ba1 O27 2.855653 1_555
Ba1 O17 2.855653 1_554
Ba1 O12 2.855653 1_555
Ba1 O22 2.937486 1_555
Ba1 O15 2.937486 1_555
Ba1 O5 2.937486 1_555
Ba1 O7 2.971003 1_555
Ba1 O2 2.971003 1_555
Ba1 O13 2.971003 1_555
Ba2 O35 2.855653 1_545
Ba2 O20 2.855653 1_555
Ba2 O30 2.855653 1_555
Ba2 O25 2.937486 1_555
Ba2 O32 2.937486 1_555
Ba2 O42 2.937486 1_555
Ba2 O34 2.971003 1_555
Ba2 O40 2.971003 1_555
Ba2 O45 2.971003 1_555
Ba3 O36 2.855653 1_565
Ba3 O41 2.855653 1_556
Ba3 O3 2.855653 1_655
Ba3 O46 2.937486 1_555
Ba3 O29 2.937486 1_555
Ba3 O39 2.937486 1_555
Ba3 O37 2.971003 1_555
Ba3 O26 2.971003 1_555
Ba3 O31 2.971003 1_555
Na0 O0 2.485659 1_555
Na0 O4 2.485659 1_555
Na0 O14 2.485659 1_555
Na1 O9 2.485659 1_555
Na1 O19 2.485659 1_555
Na1 O23 2.485659 1_555
Na2 O28 2.485659 1_555
Na2 O24 2.485659 1_555
Na2 O38 2.485659 1_555
Na3 O47 2.485659 1_555
Na3 O43 2.485659 1_555
Na3 O33 2.485659 1_555
In0 O7 2.168167 1_555
In0 O2 2.168167 1_555
In0 O13 2.168167 1_555
In0 O43 2.182646 1_455
In0 O9 2.182646 1_555
In0 O0 2.182646 1_565
In1 O5 2.145280 1_556
In1 O46 2.145280 1_455
In1 O8 2.145280 1_555
In1 O3 2.191214 1_555
In1 O11 2.191214 1_555
In1 O17 2.191214 1_555
In2 O15 2.145280 1_555
In2 O25 2.145280 1_555
In2 O18 2.145280 1_555
In2 O6 2.191214 1_555
In2 O12 2.191214 1_555
In2 O20 2.191214 1_555
In3 O16 2.168167 1_555
In3 O21 2.168167 1_555
In3 O10 2.168167 1_555
In3 O23 2.182646 1_545
In3 O28 2.182646 1_555
In3 O14 2.182646 1_556
In4 O26 2.168167 1_555
In4 O31 2.168167 1_555
In4 O37 2.168167 1_555
In4 O19 2.182646 1_555
In4 O33 2.182646 1_555
In4 O24 2.182646 1_555
In5 O32 2.145280 1_565
In5 O29 2.145280 1_554
In5 O22 2.145280 1_555
In5 O41 2.191214 1_555
In5 O35 2.191214 1_555
In5 O27 2.191214 1_555
In6 O1 2.145280 1_655
In6 O39 2.145280 1_545
In6 O42 2.145280 1_555
In6 O36 2.191214 1_555
In6 O44 2.191214 1_555
In6 O30 2.191214 1_555
In7 O45 2.168167 1_555
In7 O40 2.168167 1_555
In7 O34 2.168167 1_555
In7 O38 2.182646 1_554
In7 O47 2.182646 1_555
In7 O4 2.182646 1_655
O0 P0 1.564556 1_555
O1 P1 1.540897 1_545
O2 P11 1.535971 1_455
O3 P1 1.556844 1_555
O4 P2 1.564556 1_555
O5 P11 1.540897 1_455
O6 P0 1.556844 1_555
O7 P3 1.535971 1_555
O8 P2 1.540897 1_556
O9 P1 1.564556 1_555
O10 P1 1.535971 1_545
O11 P3 1.556844 1_555
O12 P2 1.556844 1_555
O13 P4 1.535971 1_565
O14 P4 1.564556 1_555
O15 P3 1.540897 1_555
O16 P2 1.535971 1_556
O17 P5 1.556844 1_555
O18 P6 1.540897 1_555
O19 P3 1.564556 1_555
O20 P4 1.556844 1_555
O21 P6 1.535971 1_555
O22 P4 1.540897 1_565
O23 P5 1.564556 1_555
O24 P6 1.564556 1_555
O25 P7 1.540897 1_555
O26 P5 1.535971 1_555
O27 P7 1.556844 1_555
O28 P8 1.564556 1_555
O29 P5 1.540897 1_555
O30 P6 1.556844 1_555
O31 P9 1.535971 1_555
O32 P8 1.540897 1_554
O33 P7 1.564556 1_555
O34 P7 1.535971 1_555
O35 P9 1.556844 1_555
O36 P8 1.556844 1_555
O37 P10 1.535971 1_555
O38 P10 1.564556 1_555
O39 P9 1.540897 1_555
O40 P8 1.535971 1_554
O41 P11 1.556844 1_555
O42 P0 1.540897 1_655
O43 P9 1.564556 1_555
O44 P10 1.556844 1_555
O45 P0 1.535971 1_655
O46 P10 1.540897 1_555
O47 P11 1.564556 1_555
