# generated using pymatgen
data_V3H6CNO7
_symmetry_space_group_name_H-M   'P 1'
_cell_length_a   6.73487600
_cell_length_b   10.45251000
_cell_length_c   15.46215892
_cell_angle_alpha   51.24930250
_cell_angle_beta   90.00000000
_cell_angle_gamma   90.00000000
_symmetry_Int_Tables_number   1
_chemical_formula_structural   V3H6CNO7
_chemical_formula_sum   'V12 H24 C4 N4 O28'
_cell_volume   848.88012356
_cell_formula_units_Z   4
loop_
 _symmetry_equiv_pos_site_id
 _symmetry_equiv_pos_as_xyz
  1  'x, y, z'
loop_
 _atom_site_type_symbol
 _atom_site_label
 _atom_site_symmetry_multiplicity
 _atom_site_fract_x
 _atom_site_fract_y
 _atom_site_fract_z
 _atom_site_occupancy
  V  V0  1  0.74248000  0.58769300  0.89951300  1
  V  V1  1  0.74517500  0.33903000  0.68662500  1
  V  V2  1  0.75482500  0.33903000  0.18662500  1
  V  V3  1  0.24517500  0.66097000  0.81337500  1
  V  V4  1  0.96710100  0.58530200  0.69612900  1
  V  V5  1  0.25482500  0.66097000  0.31337500  1
  V  V6  1  0.46710100  0.41469800  0.80387100  1
  V  V7  1  0.24248000  0.41230700  0.60048700  1
  V  V8  1  0.03289900  0.41469800  0.30387100  1
  V  V9  1  0.53289900  0.58530200  0.19612900  1
  V  V10  1  0.75752000  0.58769300  0.39951300  1
  V  V11  1  0.25752000  0.41230700  0.10048700  1
  H  H0  1  0.52208900  0.11489900  0.07932300  1
  H  H1  1  0.91900300  0.91820700  0.67093000  1
  H  H2  1  0.28160200  0.94033200  0.50064200  1
  H  H3  1  0.07227900  0.03290100  0.87702600  1
  H  H4  1  0.08099700  0.08179300  0.32907000  1
  H  H5  1  0.92772100  0.96709900  0.12297400  1
  H  H6  1  0.41900300  0.08179300  0.82907000  1
  H  H7  1  0.97791100  0.11489900  0.57932300  1
  H  H8  1  0.16312800  0.94957300  0.30988800  1
  H  H9  1  0.83687200  0.05042700  0.69011200  1
  H  H10  1  0.58099700  0.91820700  0.17093000  1
  H  H11  1  0.78160200  0.05966800  0.99935800  1
  H  H12  1  0.61751100  0.18278600  0.53327400  1
  H  H13  1  0.42772100  0.03290100  0.37702600  1
  H  H14  1  0.71839800  0.05966800  0.49935800  1
  H  H15  1  0.57227900  0.96709900  0.62297400  1
  H  H16  1  0.88248900  0.18278600  0.03327400  1
  H  H17  1  0.66312800  0.05042700  0.19011200  1
  H  H18  1  0.02208900  0.88510100  0.42067700  1
  H  H19  1  0.33687200  0.94957300  0.80988800  1
  H  H20  1  0.11751100  0.81721400  0.96672600  1
  H  H21  1  0.38248900  0.81721400  0.46672600  1
  H  H22  1  0.21839800  0.94033200  0.00064200  1
  H  H23  1  0.47791100  0.88510100  0.92067700  1
  C  C0  1  0.81977500  0.06321600  0.06668000  1
  C  C1  1  0.18022500  0.93678400  0.93332000  1
  C  C2  1  0.31977500  0.93678400  0.43332000  1
  C  C3  1  0.68022500  0.06321600  0.56668000  1
  N  N0  1  0.36450800  0.96492900  0.86925300  1
  N  N1  1  0.63549200  0.03507100  0.13074700  1
  N  N2  1  0.86450800  0.03507100  0.63074700  1
  N  N3  1  0.13549200  0.96492900  0.36925300  1
  O  O0  1  0.75580100  0.43282000  0.26375900  1
  O  O1  1  0.48203600  0.44070600  0.15186400  1
  O  O2  1  0.54867700  0.62311100  0.31033400  1
  O  O3  1  0.77135300  0.13728800  0.76981900  1
  O  O4  1  0.72864700  0.13728800  0.26981900  1
  O  O5  1  0.21957200  0.58607700  0.96351900  1
  O  O6  1  0.74419900  0.43282000  0.76375900  1
  O  O7  1  0.98203600  0.55929400  0.34813600  1
  O  O8  1  0.91556500  0.76989200  0.58005900  1
  O  O9  1  0.22864700  0.86271200  0.23018100  1
  O  O10  1  0.21198200  0.24973000  0.60844300  1
  O  O11  1  0.45132300  0.37688900  0.68966600  1
  O  O12  1  0.51796400  0.55929400  0.84813600  1
  O  O13  1  0.28801800  0.24973000  0.10844300  1
  O  O14  1  0.71198200  0.75027000  0.89155700  1
  O  O15  1  0.28042800  0.58607700  0.46351900  1
  O  O16  1  0.24419900  0.56718000  0.73624100  1
  O  O17  1  0.25580100  0.56718000  0.23624100  1
  O  O18  1  0.78801800  0.75027000  0.39155700  1
  O  O19  1  0.01796400  0.44070600  0.65186400  1
  O  O20  1  0.95132300  0.62311100  0.81033400  1
  O  O21  1  0.08443500  0.23010800  0.41994100  1
  O  O22  1  0.41556500  0.23010800  0.91994100  1
  O  O23  1  0.78042800  0.41392300  0.03648100  1
  O  O24  1  0.58443500  0.76989200  0.08005900  1
  O  O25  1  0.27135300  0.86271200  0.73018100  1
  O  O26  1  0.71957200  0.41392300  0.53648100  1
  O  O27  1  0.04867700  0.37688900  0.18966600  1
loop_
_geom_bond_atom_site_label_1
_geom_bond_atom_site_label_2
_geom_bond_distance
_geom_bond_site_symmetry_2
H0 N1 1.039816 1_555
H1 N2 1.030896 1_565
H4 N3 1.030896 1_545
H6 N0 1.030896 1_545
H7 N2 1.039816 1_555
H8 N3 1.042788 1_555
H9 N2 1.042788 1_555
H10 N1 1.030896 1_565
H17 N1 1.042788 1_555
H18 N3 1.039816 1_555
H19 N0 1.042788 1_555
H23 N0 1.039816 1_555
C0 H16 1.095016 1_555
C0 H11 1.095153 1_554
C0 H5 1.095804 1_545
C0 N1 1.497806 1_555
C1 H20 1.095016 1_555
C1 H22 1.095153 1_556
C1 H3 1.095804 1_565
C1 N0 1.497806 1_555
C2 H21 1.095016 1_555
C2 H2 1.095153 1_555
C2 H13 1.095804 1_565
C2 N3 1.497806 1_555
C3 H12 1.095016 1_555
C3 H14 1.095153 1_555
C3 H15 1.095804 1_545
C3 N2 1.497806 1_555
O0 V8 1.938107 1_655
O0 V9 1.949608 1_555
O0 V2 1.961439 1_555
O1 V11 1.816809 1_555
O1 V2 2.019550 1_555
O1 V9 2.040853 1_555
O2 V10 1.837852 1_555
O2 V5 2.024541 1_555
O2 V9 2.039449 1_555
O3 V1 1.654298 1_555
O4 V2 1.654298 1_555
O5 V11 1.741849 1_556
O5 V3 1.938311 1_555
O6 V6 1.938107 1_555
O6 V4 1.949608 1_555
O6 V1 1.961439 1_555
O7 V10 1.816809 1_555
O7 V5 2.019550 1_655
O7 V8 2.040853 1_655
O8 V4 1.652033 1_555
O9 V5 1.654298 1_555
O10 V7 1.638100 1_555
O11 V7 1.837852 1_555
O11 V1 2.024541 1_555
O11 V6 2.039449 1_555
O12 V0 1.816809 1_555
O12 V3 2.019550 1_555
O12 V6 2.040853 1_555
O13 V11 1.638100 1_555
O14 V0 1.638100 1_555
O15 V7 1.741849 1_555
O15 V5 1.938311 1_555
O16 V4 1.938107 1_455
O16 V6 1.949608 1_555
O16 V3 1.961439 1_555
O17 V9 1.938107 1_555
O17 V8 1.949608 1_555
O17 V5 1.961439 1_555
O18 V10 1.638100 1_555
O19 V7 1.816809 1_555
O19 V1 2.019550 1_455
O19 V4 2.040853 1_455
O20 V0 1.837852 1_555
O20 V3 2.024541 1_655
O20 V4 2.039449 1_555
O21 V8 1.652033 1_555
O22 V6 1.652033 1_555
O23 V0 1.741849 1_554
O23 V2 1.938311 1_555
O24 V9 1.652033 1_555
O25 V3 1.654298 1_555
O26 V10 1.741849 1_555
O26 V1 1.938311 1_555
O27 V11 1.837852 1_555
O27 V2 2.024541 1_455
O27 V8 2.039449 1_555
