# generated using pymatgen
data_SiO2
_symmetry_space_group_name_H-M   'P 1'
_cell_length_a   14.29050876
_cell_length_b   7.16483369
_cell_length_c   9.05788454
_cell_angle_alpha   90.00000000
_cell_angle_beta   90.00000000
_cell_angle_gamma   90.00000000
_symmetry_Int_Tables_number   1
_chemical_formula_structural   SiO2
_chemical_formula_sum   'Si16 O32'
_cell_volume   927.42881453
_cell_formula_units_Z   16
loop_
 _symmetry_equiv_pos_site_id
 _symmetry_equiv_pos_as_xyz
  1  'x, y, z'
loop_
 _atom_site_type_symbol
 _atom_site_label
 _atom_site_symmetry_multiplicity
 _atom_site_fract_x
 _atom_site_fract_y
 _atom_site_fract_z
 _atom_site_occupancy
  Si  Si0  1  0.14043887  0.21577293  0.34246433  1
  Si  Si1  1  0.64043887  0.78422707  0.65753567  1
  Si  Si2  1  0.85956113  0.21577293  0.65753567  1
  Si  Si3  1  0.35956113  0.78422707  0.34246433  1
  Si  Si4  1  0.85956113  0.78422707  0.65753567  1
  Si  Si5  1  0.35956113  0.21577293  0.34246433  1
  Si  Si6  1  0.14043887  0.78422707  0.34246433  1
  Si  Si7  1  0.64043887  0.21577293  0.65753567  1
  Si  Si8  1  0.14229214  0.50000000  0.59733036  1
  Si  Si9  1  0.64229214  0.50000000  0.40266964  1
  Si  Si10  1  0.85770786  0.50000000  0.40266964  1
  Si  Si11  1  0.35770786  0.50000000  0.59733036  1
  Si  Si12  1  0.02100537  0.50000000  0.17265432  1
  Si  Si13  1  0.52100537  0.50000000  0.82734568  1
  Si  Si14  1  0.97899463  0.50000000  0.82734568  1
  Si  Si15  1  0.47899463  0.50000000  0.17265432  1
  O  O0  1  0.07994360  0.31509607  0.21480988  1
  O  O1  1  0.57994360  0.68490393  0.78519012  1
  O  O2  1  0.92005640  0.31509607  0.78519012  1
  O  O3  1  0.42005640  0.68490393  0.21480988  1
  O  O4  1  0.92005640  0.68490393  0.78519012  1
  O  O5  1  0.42005640  0.31509607  0.21480988  1
  O  O6  1  0.07994360  0.68490393  0.21480988  1
  O  O7  1  0.57994360  0.31509607  0.78519012  1
  O  O8  1  0.11112581  0.00000000  0.35462358  1
  O  O9  1  0.61112581  0.00000000  0.64537642  1
  O  O10  1  0.88887419  0.00000000  0.64537642  1
  O  O11  1  0.38887419  0.00000000  0.35462358  1
  O  O12  1  0.12087098  0.31567958  0.49965735  1
  O  O13  1  0.62087098  0.68432042  0.50034265  1
  O  O14  1  0.87912902  0.31567958  0.50034265  1
  O  O15  1  0.37912902  0.68432042  0.49965735  1
  O  O16  1  0.87912902  0.68432042  0.50034265  1
  O  O17  1  0.37912902  0.31567958  0.49965735  1
  O  O18  1  0.12087098  0.68432042  0.49965735  1
  O  O19  1  0.62087098  0.31567958  0.50034265  1
  O  O20  1  0.25000000  0.23469454  0.30090615  1
  O  O21  1  0.75000000  0.76530546  0.69909385  1
  O  O22  1  0.75000000  0.23469454  0.69909385  1
  O  O23  1  0.25000000  0.76530546  0.30090615  1
  O  O24  1  0.07714866  0.50000000  0.74041419  1
  O  O25  1  0.57714866  0.50000000  0.25958581  1
  O  O26  1  0.92285134  0.50000000  0.25958581  1
  O  O27  1  0.42285134  0.50000000  0.74041419  1
  O  O28  1  0.25000000  0.50000000  0.64987726  1
  O  O29  1  0.75000000  0.50000000  0.35012274  1
  O  O30  1  -0.00000000  0.50000000  0.00000000  1
  O  O31  1  0.50000000  0.50000000  0.00000000  1
loop_
_geom_bond_atom_site_label_1
_geom_bond_atom_site_label_2
_geom_bond_distance
_geom_bond_site_symmetry_2
O0 Si0 1.609590 1_555
O0 Si12 1.615645 1_555
O1 Si1 1.609590 1_555
O1 Si13 1.615645 1_555
O2 Si2 1.609590 1_555
O2 Si14 1.615645 1_555
O3 Si3 1.609590 1_555
O3 Si15 1.615645 1_555
O4 Si4 1.609590 1_555
O4 Si14 1.615645 1_555
O5 Si5 1.609590 1_555
O5 Si15 1.615645 1_555
O6 Si6 1.609590 1_555
O6 Si12 1.615645 1_555
O7 Si7 1.609590 1_555
O7 Si13 1.615645 1_555
O8 Si6 1.605507 1_545
O8 Si0 1.605507 1_555
O9 Si1 1.605507 1_545
O9 Si7 1.605507 1_555
O10 Si4 1.605507 1_545
O10 Si2 1.605507 1_555
O11 Si3 1.605507 1_545
O11 Si5 1.605507 1_555
O12 Si0 1.617991 1_555
O12 Si8 1.618788 1_555
O13 Si1 1.617991 1_555
O13 Si9 1.618788 1_555
O14 Si2 1.617991 1_555
O14 Si10 1.618788 1_555
O15 Si3 1.617991 1_555
O15 Si11 1.618788 1_555
O16 Si4 1.617991 1_555
O16 Si10 1.618788 1_555
O17 Si5 1.617991 1_555
O17 Si11 1.618788 1_555
O18 Si6 1.617991 1_555
O18 Si8 1.618788 1_555
O19 Si7 1.617991 1_555
O19 Si9 1.618788 1_555
O20 Si5 1.615997 1_555
O20 Si0 1.615997 1_555
O21 Si4 1.615997 1_555
O21 Si1 1.615997 1_555
O22 Si7 1.615997 1_555
O22 Si2 1.615997 1_555
O23 Si6 1.615997 1_555
O23 Si3 1.615997 1_555
O24 Si8 1.595728 1_555
O24 Si14 1.608574 1_455
O25 Si9 1.595728 1_555
O25 Si15 1.608574 1_555
O26 Si10 1.595728 1_555
O26 Si12 1.608574 1_655
O27 Si11 1.595728 1_555
O27 Si13 1.608574 1_555
O28 Si11 1.611111 1_555
O28 Si8 1.611111 1_555
O29 Si9 1.611111 1_555
O29 Si10 1.611111 1_555
O30 Si12 1.592431 1_555
O30 Si14 1.592431 1_454
O31 Si15 1.592431 1_555
O31 Si13 1.592431 1_554
