# generated using pymatgen
data_PH3O4
_symmetry_space_group_name_H-M   'P 1'
_cell_length_a   4.95982100
_cell_length_b   5.89602000
_cell_length_c   11.10336888
_cell_angle_alpha   83.35760772
_cell_angle_beta   90.00000000
_cell_angle_gamma   90.00000000
_symmetry_Int_Tables_number   1
_chemical_formula_structural   PH3O4
_chemical_formula_sum   'P4 H12 O16'
_cell_volume   322.51852820
_cell_formula_units_Z   4
loop_
 _symmetry_equiv_pos_site_id
 _symmetry_equiv_pos_as_xyz
  1  'x, y, z'
loop_
 _atom_site_type_symbol
 _atom_site_label
 _atom_site_symmetry_multiplicity
 _atom_site_fract_x
 _atom_site_fract_y
 _atom_site_fract_z
 _atom_site_occupancy
  P  P0  1  0.78579100  0.79635400  0.64057300  1
  P  P1  1  0.28579100  0.20364600  0.85942700  1
  P  P2  1  0.21420900  0.20364600  0.35942700  1
  P  P3  1  0.71420900  0.79635400  0.14057300  1
  H  H0  1  0.45484000  0.76272000  0.51028100  1
  H  H1  1  0.95484000  0.23728000  0.98971900  1
  H  H2  1  0.54516000  0.23728000  0.48971900  1
  H  H3  1  0.04516000  0.76272000  0.01028100  1
  H  H4  1  0.94451700  0.14168500  0.67342700  1
  H  H5  1  0.44451700  0.85831500  0.82657300  1
  H  H6  1  0.05548300  0.85831500  0.32657300  1
  H  H7  1  0.55548300  0.14168500  0.17342700  1
  H  H8  1  0.10295500  0.53374300  0.68191200  1
  H  H9  1  0.60295500  0.46625700  0.81808800  1
  H  H10  1  0.89704500  0.46625700  0.31808800  1
  H  H11  1  0.39704500  0.53374300  0.18191200  1
  O  O0  1  0.64805000  0.72885200  0.52202400  1
  O  O1  1  0.14805000  0.27114800  0.97797600  1
  O  O2  1  0.35195000  0.27114800  0.47797600  1
  O  O3  1  0.85195000  0.72885200  0.02202400  1
  O  O4  1  0.81346300  0.06220200  0.61967200  1
  O  O5  1  0.31346300  0.93779800  0.88032800  1
  O  O6  1  0.18653700  0.93779800  0.38032800  1
  O  O7  1  0.68653700  0.06220200  0.11967200  1
  O  O8  1  0.63300300  0.71291400  0.75562000  1
  O  O9  1  0.13300300  0.28708600  0.74438000  1
  O  O10  1  0.36699700  0.28708600  0.24438000  1
  O  O11  1  0.86699700  0.71291400  0.25562000  1
  O  O12  1  0.07532600  0.69374300  0.63657600  1
  O  O13  1  0.57532600  0.30625700  0.86342400  1
  O  O14  1  0.92467400  0.30625700  0.36342400  1
  O  O15  1  0.42467400  0.69374300  0.13657600  1
loop_
_geom_bond_atom_site_label_1
_geom_bond_atom_site_label_2
_geom_bond_distance
_geom_bond_site_symmetry_2
H0 O0 0.984462 1_555
H1 O1 0.984462 1_655
H2 O2 0.984462 1_555
H3 O3 0.984462 1_455
H4 O4 1.031056 1_555
H4 O9 1.544604 1_655
H5 O5 1.031056 1_555
H5 O8 1.544604 1_555
H6 O6 1.031056 1_555
H6 O11 1.544604 1_455
H7 O7 1.031056 1_555
H7 O10 1.544604 1_555
H8 O12 1.025791 1_555
H8 O9 1.544316 1_555
H9 O13 1.025791 1_555
H9 O8 1.544316 1_555
H10 O14 1.025791 1_555
H10 O11 1.544316 1_555
H11 O15 1.025791 1_555
H11 O10 1.544316 1_555
O0 P0 1.574466 1_555
O1 P1 1.574466 1_555
O2 P2 1.574466 1_555
O3 P3 1.574466 1_555
O4 P0 1.563785 1_545
O5 P1 1.563785 1_565
O6 P2 1.563785 1_565
O7 P3 1.563785 1_545
O8 P0 1.517458 1_555
O9 P1 1.517458 1_555
O10 P2 1.517458 1_555
O11 P3 1.517458 1_555
O12 P0 1.560903 1_455
O13 P1 1.560903 1_555
O14 P2 1.560903 1_655
O15 P3 1.560903 1_555
