# generated using pymatgen
data_SiO2
_symmetry_space_group_name_H-M   'P 1'
_cell_length_a   8.71701700
_cell_length_b   14.84844500
_cell_length_c   19.15093000
_cell_angle_alpha   90.00000000
_cell_angle_beta   90.00000000
_cell_angle_gamma   90.00000000
_symmetry_Int_Tables_number   1
_chemical_formula_structural   SiO2
_chemical_formula_sum   'Si36 O72'
_cell_volume   2478.78429816
_cell_formula_units_Z   36
loop_
 _symmetry_equiv_pos_site_id
 _symmetry_equiv_pos_as_xyz
  1  'x, y, z'
loop_
 _atom_site_type_symbol
 _atom_site_label
 _atom_site_symmetry_multiplicity
 _atom_site_fract_x
 _atom_site_fract_y
 _atom_site_fract_z
 _atom_site_occupancy
  Si  Si0  1  0.79565900  0.63157100  0.64867100  1
  Si  Si1  1  0.70434100  0.13157100  0.35132900  1
  Si  Si2  1  0.79565900  0.36842900  0.85132900  1
  Si  Si3  1  0.70434100  0.86842900  0.14867100  1
  Si  Si4  1  0.20434100  0.36842900  0.35132900  1
  Si  Si5  1  0.29565900  0.86842900  0.64867100  1
  Si  Si6  1  0.20434100  0.63157100  0.14867100  1
  Si  Si7  1  0.29565900  0.13157100  0.85132900  1
  Si  Si8  1  0.58043100  0.49232200  0.60109200  1
  Si  Si9  1  0.91956900  0.99232200  0.39890800  1
  Si  Si10  1  0.58043100  0.50767800  0.89890800  1
  Si  Si11  1  0.91956900  0.00767800  0.10109200  1
  Si  Si12  1  0.41956900  0.50767800  0.39890800  1
  Si  Si13  1  0.08043100  0.00767800  0.60109200  1
  Si  Si14  1  0.41956900  0.49232200  0.10109200  1
  Si  Si15  1  0.08043100  0.99232200  0.89890800  1
  Si  Si16  1  0.40947500  0.21906800  0.41003200  1
  Si  Si17  1  0.09052500  0.71906800  0.58996800  1
  Si  Si18  1  0.40947500  0.78093200  0.08996800  1
  Si  Si19  1  0.09052500  0.28093200  0.91003200  1
  Si  Si20  1  0.59052500  0.78093200  0.58996800  1
  Si  Si21  1  0.90947500  0.28093200  0.41003200  1
  Si  Si22  1  0.59052500  0.21906800  0.91003200  1
  Si  Si23  1  0.90947500  0.71906800  0.08996800  1
  Si  Si24  1  0.62110100  0.37083500  0.47455700  1
  Si  Si25  1  0.87889900  0.87083500  0.52544300  1
  Si  Si26  1  0.62110100  0.62916500  0.02544300  1
  Si  Si27  1  0.87889900  0.12916500  0.97455700  1
  Si  Si28  1  0.37889900  0.62916500  0.52544300  1
  Si  Si29  1  0.12110100  0.12916500  0.47455700  1
  Si  Si30  1  0.37889900  0.37083500  0.97455700  1
  Si  Si31  1  0.12110100  0.87083500  0.02544300  1
  Si  Si32  1  0.82798200  0.00000000  0.25000000  1
  Si  Si33  1  0.67201800  0.50000000  0.75000000  1
  Si  Si34  1  0.17201800  0.00000000  0.75000000  1
  Si  Si35  1  0.32798200  0.50000000  0.25000000  1
  O  O0  1  0.72814900  0.55990000  0.59096500  1
  O  O1  1  0.77185100  0.05990000  0.40903500  1
  O  O2  1  0.72814900  0.44010000  0.90903500  1
  O  O3  1  0.77185100  0.94010000  0.09096500  1
  O  O4  1  0.27185100  0.44010000  0.40903500  1
  O  O5  1  0.22814900  0.94010000  0.59096500  1
  O  O6  1  0.27185100  0.55990000  0.09096500  1
  O  O7  1  0.22814900  0.05990000  0.90903500  1
  O  O8  1  0.60699700  0.40081300  0.55632900  1
  O  O9  1  0.89300300  0.90081300  0.44367100  1
  O  O10  1  0.60699700  0.59918700  0.94367100  1
  O  O11  1  0.89300300  0.09918700  0.05632900  1
  O  O12  1  0.39300300  0.59918700  0.44367100  1
  O  O13  1  0.10699700  0.09918700  0.55632900  1
  O  O14  1  0.39300300  0.40081300  0.05632900  1
  O  O15  1  0.10699700  0.90081300  0.94367100  1
  O  O16  1  0.50642000  0.28648100  0.46039000  1
  O  O17  1  0.99358000  0.78648100  0.53961000  1
  O  O18  1  0.50642000  0.71351900  0.03961000  1
  O  O19  1  0.99358000  0.21351900  0.96039000  1
  O  O20  1  0.49358000  0.71351900  0.53961000  1
  O  O21  1  0.00642000  0.21351900  0.46039000  1
  O  O22  1  0.49358000  0.28648100  0.96039000  1
  O  O23  1  0.00642000  0.78648100  0.03961000  1
  O  O24  1  0.30754000  0.27658900  0.35391900  1
  O  O25  1  0.19246000  0.77658900  0.64608100  1
  O  O26  1  0.30754000  0.72341100  0.14608100  1
  O  O27  1  0.19246000  0.22341100  0.85391900  1
  O  O28  1  0.69246000  0.72341100  0.64608100  1
  O  O29  1  0.80754000  0.22341100  0.35391900  1
  O  O30  1  0.69246000  0.27658900  0.85391900  1
  O  O31  1  0.80754000  0.77658900  0.14608100  1
  O  O32  1  0.77977300  0.58470200  0.72565100  1
  O  O33  1  0.72022700  0.08470200  0.27434900  1
  O  O34  1  0.77977300  0.41529800  0.77434900  1
  O  O35  1  0.72022700  0.91529800  0.22565100  1
  O  O36  1  0.22022700  0.41529800  0.27434900  1
  O  O37  1  0.27977300  0.91529800  0.72565100  1
  O  O38  1  0.22022700  0.58470200  0.22565100  1
  O  O39  1  0.27977300  0.08470200  0.77434900  1
  O  O40  1  0.56444900  0.46879400  0.68429600  1
  O  O41  1  0.93555100  0.96879400  0.31570400  1
  O  O42  1  0.56444900  0.53120600  0.81570400  1
  O  O43  1  0.93555100  0.03120600  0.18429600  1
  O  O44  1  0.43555100  0.53120600  0.31570400  1
  O  O45  1  0.06444900  0.03120600  0.68429600  1
  O  O46  1  0.43555100  0.46879400  0.18429600  1
  O  O47  1  0.06444900  0.96879400  0.81570400  1
  O  O48  1  0.57459200  0.45612800  0.42476400  1
  O  O49  1  0.92540800  0.95612800  0.57523600  1
  O  O50  1  0.57459200  0.54387200  0.07523600  1
  O  O51  1  0.92540800  0.04387200  0.92476400  1
  O  O52  1  0.42540800  0.54387200  0.57523600  1
  O  O53  1  0.07459200  0.04387200  0.42476400  1
  O  O54  1  0.42540800  0.45612800  0.92476400  1
  O  O55  1  0.07459200  0.95612800  0.07523600  1
  O  O56  1  0.97385600  0.65350500  0.63261500  1
  O  O57  1  0.52614400  0.15350500  0.36738500  1
  O  O58  1  0.97385600  0.34649500  0.86738500  1
  O  O59  1  0.52614400  0.84649500  0.13261500  1
  O  O60  1  0.02614400  0.34649500  0.36738500  1
  O  O61  1  0.47385600  0.84649500  0.63261500  1
  O  O62  1  0.02614400  0.65350500  0.13261500  1
  O  O63  1  0.47385600  0.15350500  0.86738500  1
  O  O64  1  0.29697800  0.15784700  0.45817500  1
  O  O65  1  0.20302200  0.65784700  0.54182500  1
  O  O66  1  0.29697800  0.84215300  0.04182500  1
  O  O67  1  0.20302200  0.34215300  0.95817500  1
  O  O68  1  0.70302200  0.84215300  0.54182500  1
  O  O69  1  0.79697800  0.34215300  0.45817500  1
  O  O70  1  0.70302200  0.15784700  0.95817500  1
  O  O71  1  0.79697800  0.65784700  0.04182500  1
loop_
_geom_bond_atom_site_label_1
_geom_bond_atom_site_label_2
_geom_bond_distance
_geom_bond_site_symmetry_2
O0 Si0 1.643211 1_555
O0 Si8 1.643944 1_555
O1 Si1 1.643211 1_555
O1 Si9 1.643944 1_545
O2 Si2 1.643211 1_555
O2 Si10 1.643944 1_555
O3 Si3 1.643211 1_555
O3 Si11 1.643944 1_565
O4 Si4 1.643211 1_555
O4 Si12 1.643944 1_555
O5 Si5 1.643211 1_555
O5 Si13 1.643944 1_565
O6 Si6 1.643211 1_555
O6 Si14 1.643944 1_555
O7 Si7 1.643211 1_555
O7 Si15 1.643944 1_545
O8 Si8 1.623193 1_555
O8 Si24 1.632679 1_555
O9 Si9 1.623193 1_555
O9 Si25 1.632679 1_555
O10 Si10 1.623193 1_555
O10 Si26 1.632679 1_556
O11 Si11 1.623193 1_555
O11 Si27 1.632679 1_554
O12 Si12 1.623193 1_555
O12 Si28 1.632679 1_555
O13 Si13 1.623193 1_555
O13 Si29 1.632679 1_555
O14 Si14 1.623193 1_555
O14 Si30 1.632679 1_554
O15 Si15 1.623193 1_555
O15 Si31 1.632679 1_556
O16 Si24 1.625356 1_555
O16 Si16 1.626707 1_555
O17 Si25 1.625356 1_555
O17 Si17 1.626707 1_655
O18 Si26 1.625356 1_555
O18 Si18 1.626707 1_555
O19 Si27 1.625356 1_555
O19 Si19 1.626707 1_655
O20 Si28 1.625356 1_555
O20 Si20 1.626707 1_555
O21 Si29 1.625356 1_555
O21 Si21 1.626707 1_455
O22 Si30 1.625356 1_555
O22 Si22 1.626707 1_555
O23 Si31 1.625356 1_555
O23 Si23 1.626707 1_455
O24 Si4 1.634425 1_555
O24 Si16 1.635187 1_555
O25 Si5 1.634425 1_555
O25 Si17 1.635187 1_555
O26 Si6 1.634425 1_555
O26 Si18 1.635187 1_555
O27 Si7 1.634425 1_555
O27 Si19 1.635187 1_555
O28 Si0 1.634425 1_555
O28 Si20 1.635187 1_555
O29 Si1 1.634425 1_555
O29 Si21 1.635187 1_555
O30 Si2 1.634425 1_555
O30 Si22 1.635187 1_555
O31 Si3 1.634425 1_555
O31 Si23 1.635187 1_555
O32 Si0 1.636116 1_555
O32 Si33 1.637535 1_555
O33 Si1 1.636116 1_555
O33 Si32 1.637535 1_555
O34 Si2 1.636116 1_555
O34 Si33 1.637535 1_555
O35 Si3 1.636116 1_555
O35 Si32 1.637535 1_565
O36 Si4 1.636116 1_555
O36 Si35 1.637535 1_555
O37 Si5 1.636116 1_555
O37 Si34 1.637535 1_565
O38 Si6 1.636116 1_555
O38 Si35 1.637535 1_555
O39 Si7 1.636116 1_555
O39 Si34 1.637535 1_555
O40 Si33 1.636230 1_555
O40 Si8 1.637220 1_555
O41 Si32 1.636230 1_565
O41 Si9 1.637220 1_555
O42 Si33 1.636230 1_555
O42 Si10 1.637220 1_555
O43 Si32 1.636230 1_555
O43 Si11 1.637220 1_555
O44 Si35 1.636230 1_555
O44 Si12 1.637220 1_555
O45 Si34 1.636230 1_555
O45 Si13 1.637220 1_555
O46 Si35 1.636230 1_555
O46 Si14 1.637220 1_555
O47 Si34 1.636230 1_565
O47 Si15 1.637220 1_555
O48 Si12 1.630092 1_555
O48 Si24 1.636345 1_555
O49 Si13 1.630092 1_665
O49 Si25 1.636345 1_555
O50 Si14 1.630092 1_555
O50 Si26 1.636345 1_555
O51 Si15 1.630092 1_645
O51 Si27 1.636345 1_555
O52 Si8 1.630092 1_555
O52 Si28 1.636345 1_555
O53 Si9 1.630092 1_445
O53 Si29 1.636345 1_555
O54 Si10 1.630092 1_555
O54 Si30 1.636345 1_555
O55 Si11 1.630092 1_465
O55 Si31 1.636345 1_555
O56 Si0 1.616634 1_555
O56 Si17 1.627595 1_655
O57 Si1 1.616634 1_555
O57 Si16 1.627595 1_555
O58 Si2 1.616634 1_555
O58 Si19 1.627595 1_655
O59 Si3 1.616634 1_555
O59 Si18 1.627595 1_555
O60 Si4 1.616634 1_555
O60 Si21 1.627595 1_455
O61 Si5 1.616634 1_555
O61 Si20 1.627595 1_555
O62 Si6 1.616634 1_555
O62 Si23 1.627595 1_455
O63 Si7 1.616634 1_555
O63 Si22 1.627595 1_555
O64 Si29 1.621810 1_555
O64 Si16 1.624208 1_555
O65 Si28 1.621810 1_555
O65 Si17 1.624208 1_555
O66 Si31 1.621810 1_555
O66 Si18 1.624208 1_555
O67 Si30 1.621810 1_555
O67 Si19 1.624208 1_555
O68 Si25 1.621810 1_555
O68 Si20 1.624208 1_555
O69 Si24 1.621810 1_555
O69 Si21 1.624208 1_555
O70 Si27 1.621810 1_555
O70 Si22 1.624208 1_555
O71 Si26 1.621810 1_555
O71 Si23 1.624208 1_555
