# generated using pymatgen
data_K4In3Ge20
_symmetry_space_group_name_H-M   'P 1'
_cell_length_a   11.17120977
_cell_length_b   11.17236207
_cell_length_c   11.17653817
_cell_angle_alpha   90.02452403
_cell_angle_beta   89.99413329
_cell_angle_gamma   90.02501206
_symmetry_Int_Tables_number   1
_chemical_formula_structural   K4In3Ge20
_chemical_formula_sum   'K8 In6 Ge40'
_cell_volume   1394.93005305
_cell_formula_units_Z   2
loop_
 _symmetry_equiv_pos_site_id
 _symmetry_equiv_pos_as_xyz
  1  'x, y, z'
loop_
 _atom_site_type_symbol
 _atom_site_label
 _atom_site_symmetry_multiplicity
 _atom_site_fract_x
 _atom_site_fract_y
 _atom_site_fract_z
 _atom_site_occupancy
  K  K0  1  0.75005870  0.50009931  0.99991592  1
  K  K1  1  0.50003630  0.49998365  0.50000734  1
  K  K2  1  0.25009369  0.50004361  0.99994644  1
  K  K3  1  0.50001210  -0.00001087  0.25008223  1
  K  K4  1  -0.00002494  0.74999674  0.49992948  1
  K  K5  1  0.99999357  -0.00003001  0.99993352  1
  K  K6  1  0.49994015  0.00002034  0.74994591  1
  K  K7  1  -0.00004170  0.24999411  0.49994958  1
  In  In0  1  0.00012316  0.49996010  0.25012180  1
  In  In1  1  0.25020075  0.00009129  0.50011962  1
  In  In2  1  0.49996375  0.74997193  -0.00006303  1
  In  In3  1  0.50003043  0.24987039  -0.00004335  1
  In  In4  1  0.99995820  0.50010211  0.75009974  1
  In  In5  1  0.75015212  0.99999578  0.50004616  1
  Ge  Ge0  1  0.18327444  0.81665501  0.18335498  1
  Ge  Ge1  1  0.29964811  0.11451567  0.99998288  1
  Ge  Ge2  1  0.81684030  0.18312380  0.18322506  1
  Ge  Ge3  1  0.18327830  0.18323161  0.18330937  1
  Ge  Ge4  1  0.68315692  0.31660716  0.68330758  1
  Ge  Ge5  1  0.99990055  0.29976640  0.88563320  1
  Ge  Ge6  1  0.31674285  0.68311952  0.68326579  1
  Ge  Ge7  1  0.61423959  0.79960506  0.49990322  1
  Ge  Ge8  1  0.70018799  0.88570900  -0.00009900  1
  Ge  Ge9  1  0.49998506  0.38559938  0.20026126  1
  Ge  Ge10  1  0.18338764  0.81665129  0.81692563  1
  Ge  Ge11  1  0.38556989  0.20032597  0.50007540  1
  Ge  Ge12  1  0.61433368  0.20014218  0.49989445  1
  Ge  Ge13  1  0.81678898  0.81682914  0.18328605  1
  Ge  Ge14  1  0.68320291  0.68319405  0.31678085  1
  Ge  Ge15  1  -0.00003612  0.70020204  0.11426087  1
  Ge  Ge16  1  0.70023330  0.11435603  0.99997256  1
  Ge  Ge17  1  0.11439834  0.00007767  0.70011665  1
  Ge  Ge18  1  0.81669055  0.18312478  0.81674421  1
  Ge  Ge19  1  0.38569188  0.79989704  0.50005004  1
  Ge  Ge20  1  0.31677861  0.68328595  0.31669391  1
  Ge  Ge21  1  0.18328936  0.18324116  0.81679135  1
  Ge  Ge22  1  0.11439547  0.00009583  0.29981950  1
  Ge  Ge23  1  0.79965650  0.50008047  0.38562403  1
  Ge  Ge24  1  0.31687937  0.31674403  0.31668160  1
  Ge  Ge25  1  0.20013579  0.50003108  0.61453655  1
  Ge  Ge26  1  0.81691436  0.81661808  0.81683560  1
  Ge  Ge27  1  0.31691914  0.31686462  0.68307271  1
  Ge  Ge28  1  0.68320910  0.31679309  0.31684840  1
  Ge  Ge29  1  0.88559879  -0.00008648  0.29976328  1
  Ge  Ge30  1  0.00004501  0.70023382  0.88548332  1
  Ge  Ge31  1  0.49993396  0.61458991  0.79968280  1
  Ge  Ge32  1  0.29981705  0.88545165  -0.00002772  1
  Ge  Ge33  1  0.50007752  0.38537965  0.79987753  1
  Ge  Ge34  1  0.00006317  0.29977259  0.11435938  1
  Ge  Ge35  1  0.68295292  0.68332222  0.68317392  1
  Ge  Ge36  1  0.49980339  0.61446994  0.20036539  1
  Ge  Ge37  1  0.88558590  0.00010612  0.70020078  1
  Ge  Ge38  1  0.20014247  0.50016051  0.38564793  1
  Ge  Ge39  1  0.79979068  0.50002447  0.61432733  1
loop_
_geom_bond_atom_site_label_1
_geom_bond_atom_site_label_2
_geom_bond_distance
_geom_bond_site_symmetry_2
In0 K4 3.948690 1_555
In0 K7 3.949980 1_555
In0 K2 3.951513 1_554
In0 K0 3.952901 1_454
In1 K6 3.947333 1_555
In1 K3 3.949165 1_555
In1 K4 3.951490 1_545
In1 K7 3.951834 1_555
In2 K2 3.947368 1_554
In2 K0 3.950429 1_554
In2 K3 3.951203 1_565
In2 K6 3.951922 1_564
In3 K6 3.948820 1_554
In3 K0 3.950992 1_554
In3 K2 3.951554 1_554
In3 K3 3.951665 1_555
In4 K0 3.948112 1_555
In4 K2 3.950623 1_655
In4 K7 3.951959 1_655
In4 K4 3.952124 1_655
In5 K7 3.947417 1_665
In5 K4 3.949278 1_655
In5 K6 3.951241 1_565
In5 K3 3.951584 1_565
Ge0 Ge15 2.545528 1_555
Ge0 Ge22 2.546688 1_565
Ge0 Ge32 2.546861 1_555
Ge0 Ge20 2.582580 1_555
Ge0 K5 3.549277 1_464
Ge1 Ge21 2.544409 1_555
Ge1 Ge3 2.544910 1_556
Ge1 Ge32 2.559188 1_546
Ge1 In3 2.700894 1_556
Ge1 K5 3.583265 1_455
Ge1 K6 3.801367 1_555
Ge1 K3 3.803612 1_556
Ge2 Ge34 2.545296 1_655
Ge2 Ge29 2.545607 1_555
Ge2 Ge28 2.586258 1_555
Ge2 K5 3.545321 1_554
Ge3 Ge34 2.545937 1_555
Ge3 K5 3.546619 1_454
Ge4 K1 3.547858 1_555
Ge5 In4 2.703174 1_555
Ge5 K5 3.585294 1_555
Ge5 K0 3.799094 1_555
Ge5 K2 3.800483 1_655
Ge6 K1 3.545897 1_555
Ge7 In5 2.704567 1_555
Ge7 K1 3.581833 1_555
Ge7 K3 3.800655 1_565
Ge7 K6 3.801350 1_565
Ge8 In2 2.701825 1_555
Ge8 K5 3.583708 1_564
Ge8 K6 3.800853 1_564
Ge8 K3 3.800981 1_565
Ge9 In3 2.703412 1_555
Ge9 K1 3.585080 1_555
Ge9 K2 3.800922 1_554
Ge9 K0 3.801671 1_554
Ge10 Ge32 2.542890 1_556
Ge10 Ge30 2.544011 1_555
Ge10 Ge17 2.549879 1_565
Ge10 Ge6 2.583827 1_555
Ge10 K5 3.546110 1_465
Ge11 Ge27 2.542600 1_555
Ge11 Ge24 2.546633 1_555
Ge11 Ge12 2.555571 1_555
Ge11 In1 2.699722 1_555
Ge11 K1 3.583258 1_555
Ge11 K3 3.800964 1_555
Ge11 K6 3.801081 1_555
Ge12 Ge28 2.544991 1_555
Ge12 Ge4 2.546283 1_555
Ge12 In5 2.702816 1_545
Ge12 K1 3.585545 1_555
Ge12 K3 3.797351 1_555
Ge12 K6 3.800598 1_555
Ge13 Ge29 2.542864 1_565
Ge13 Ge15 2.545858 1_655
Ge13 Ge8 2.548054 1_555
Ge13 Ge14 2.584902 1_555
Ge13 K5 3.545944 1_564
Ge14 Ge7 2.544051 1_555
Ge14 Ge23 2.544337 1_555
Ge14 Ge36 2.545256 1_555
Ge14 K1 3.545333 1_555
Ge15 Ge30 2.556941 1_554
Ge15 In0 2.704362 1_555
Ge15 K5 3.585104 1_464
Ge15 K0 3.797091 1_454
Ge15 K2 3.800430 1_554
Ge16 Ge18 2.544891 1_555
Ge16 Ge2 2.545646 1_556
Ge16 Ge8 2.554527 1_546
Ge16 In3 2.701327 1_556
Ge16 K5 3.584775 1_555
Ge16 K6 3.800370 1_555
Ge16 K3 3.801164 1_556
Ge17 Ge21 2.544979 1_555
Ge17 Ge37 2.556112 1_455
Ge17 In1 2.701348 1_555
Ge17 K5 3.586243 1_455
Ge17 K4 3.799789 1_545
Ge17 K7 3.800597 1_555
Ge18 Ge37 2.543401 1_555
Ge18 Ge5 2.545008 1_555
Ge18 Ge4 2.584132 1_555
Ge18 K5 3.546888 1_555
Ge19 Ge20 2.546908 1_555
Ge19 Ge6 2.547489 1_555
Ge19 Ge7 2.553158 1_555
Ge19 In1 2.701205 1_565
Ge19 K1 3.586483 1_555
Ge19 K6 3.797568 1_565
Ge19 K3 3.799439 1_565
Ge20 Ge36 2.542026 1_555
Ge20 Ge38 2.544868 1_555
Ge20 K1 3.548348 1_555
Ge21 Ge5 2.546578 1_455
Ge21 Ge27 2.586554 1_555
Ge21 K5 3.546014 1_455
Ge22 Ge3 2.544576 1_555
Ge22 Ge29 2.555936 1_455
Ge22 In1 2.704427 1_555
Ge22 K5 3.587197 1_454
Ge22 K7 3.798632 1_555
Ge22 K4 3.800673 1_545
Ge23 Ge28 2.544192 1_555
Ge23 Ge39 2.556112 1_555
Ge23 In0 2.703334 1_655
Ge23 K1 3.582829 1_555
Ge23 K4 3.798429 1_655
Ge23 K7 3.802031 1_655
Ge24 Ge9 2.543208 1_555
Ge24 Ge38 2.548485 1_555
Ge24 Ge3 2.582856 1_555
Ge24 K1 3.545330 1_555
Ge25 Ge6 2.543161 1_555
Ge25 Ge27 2.545663 1_555
Ge25 Ge38 2.558183 1_555
Ge25 In4 2.701041 1_455
Ge25 K1 3.586337 1_555
Ge25 K7 3.799551 1_555
Ge25 K4 3.801172 1_555
Ge26 Ge30 2.543259 1_655
Ge26 Ge8 2.545868 1_556
Ge26 Ge37 2.547745 1_565
Ge26 Ge35 2.585657 1_555
Ge26 K5 3.544083 1_565
Ge27 Ge33 2.544615 1_555
Ge27 K1 3.543385 1_555
Ge28 Ge9 2.545814 1_555
Ge28 K1 3.544829 1_555
Ge29 In5 2.701765 1_545
Ge29 K5 3.586338 1_554
Ge29 K7 3.799541 1_655
Ge29 K4 3.800354 1_645
Ge30 In4 2.699274 1_455
Ge30 K5 3.584240 1_465
Ge30 K0 3.798747 1_455
Ge30 K2 3.801368 1_555
Ge31 Ge35 2.542520 1_555
Ge31 Ge6 2.543611 1_555
Ge31 Ge33 2.560823 1_555
Ge31 In2 2.700774 1_556
Ge31 K1 3.585227 1_555
Ge31 K2 3.799393 1_555
Ge31 K0 3.802474 1_555
Ge32 In2 2.700590 1_555
Ge32 K5 3.585963 1_464
Ge32 K6 3.800593 1_564
Ge32 K3 3.801167 1_565
Ge33 Ge4 2.543750 1_555
Ge33 In3 2.701022 1_556
Ge33 K1 3.588275 1_555
Ge33 K0 3.799410 1_555
Ge33 K2 3.799909 1_555
Ge34 Ge5 2.556368 1_454
Ge34 In0 2.702164 1_555
Ge34 K5 3.584836 1_454
Ge34 K2 3.799934 1_554
Ge34 K0 3.801829 1_454
Ge35 Ge7 2.544831 1_555
Ge35 Ge39 2.547591 1_555
Ge35 K1 3.543392 1_555
Ge36 Ge9 2.557026 1_555
Ge36 In2 2.704211 1_555
Ge36 K1 3.585423 1_555
Ge36 K2 3.798585 1_554
Ge36 K0 3.803538 1_554
Ge37 In5 2.700753 1_545
Ge37 K5 3.585622 1_555
Ge37 K7 3.799689 1_655
Ge37 K4 3.801114 1_645
Ge38 In0 2.699601 1_555
Ge38 K1 3.585836 1_555
Ge38 K4 3.797969 1_555
Ge38 K7 3.800236 1_555
Ge39 Ge4 2.547565 1_555
Ge39 In4 2.702517 1_555
Ge39 K1 3.584222 1_555
Ge39 K4 3.799004 1_655
Ge39 K7 3.799926 1_655
