# generated using pymatgen
data_Nd2Cu2O5
_symmetry_space_group_name_H-M   'P 1'
_cell_length_a   7.13425496
_cell_length_b   7.13425496
_cell_length_c   27.29127980
_cell_angle_alpha   77.57407522
_cell_angle_beta   77.57407522
_cell_angle_gamma   30.16705116
_symmetry_Int_Tables_number   1
_chemical_formula_structural   Nd2Cu2O5
_chemical_formula_sum   'Nd12 Cu12 O30'
_cell_volume   680.48015228
_cell_formula_units_Z   6
loop_
 _symmetry_equiv_pos_site_id
 _symmetry_equiv_pos_as_xyz
  1  'x, y, z'
loop_
 _atom_site_type_symbol
 _atom_site_label
 _atom_site_symmetry_multiplicity
 _atom_site_fract_x
 _atom_site_fract_y
 _atom_site_fract_z
 _atom_site_occupancy
  Nd  Nd0  1  0.57479700  0.11835500  0.63554400  1
  Nd  Nd1  1  0.09547800  0.65792500  0.40184500  1
  Nd  Nd2  1  0.42520300  0.88164500  0.36445600  1
  Nd  Nd3  1  0.88164500  0.42520300  0.86445600  1
  Nd  Nd4  1  0.11835500  0.57479700  0.13554400  1
  Nd  Nd5  1  0.88462200  0.39169800  0.73158000  1
  Nd  Nd6  1  0.11537800  0.60830200  0.26842000  1
  Nd  Nd7  1  0.90452200  0.34207500  0.59815500  1
  Nd  Nd8  1  0.60830200  0.11537800  0.76842000  1
  Nd  Nd9  1  0.34207500  0.90452200  0.09815500  1
  Nd  Nd10  1  0.39169800  0.88462200  0.23158000  1
  Nd  Nd11  1  0.65792500  0.09547800  0.90184500  1
  Cu  Cu0  1  0.24844300  0.73946500  0.68091000  1
  Cu  Cu1  1  0.26104500  0.72351500  0.53880200  1
  Cu  Cu2  1  0.27648500  0.73895500  0.96119800  1
  Cu  Cu3  1  0.29164700  0.08114500  0.46986200  1
  Cu  Cu4  1  0.91885500  0.70835300  0.03013800  1
  Cu  Cu5  1  0.26053500  0.75155700  0.81909000  1
  Cu  Cu6  1  0.72351500  0.26104500  0.03880200  1
  Cu  Cu7  1  0.73895500  0.27648500  0.46119800  1
  Cu  Cu8  1  0.75155700  0.26053500  0.31909000  1
  Cu  Cu9  1  0.70835300  0.91885500  0.53013800  1
  Cu  Cu10  1  0.08114500  0.29164700  0.96986200  1
  Cu  Cu11  1  0.73946500  0.24844300  0.18091000  1
  O  O0  1  0.25104700  0.75834500  0.31965500  1
  O  O1  1  0.38696100  0.95702600  0.66505400  1
  O  O2  1  0.75834500  0.25104700  0.81965500  1
  O  O3  1  0.27956900  0.81475400  0.46179100  1
  O  O4  1  0.74619700  0.25380300  0.25000000  1
  O  O5  1  0.71942600  0.25895800  0.11068600  1
  O  O6  1  0.87900700  0.45789900  0.03876200  1
  O  O7  1  0.74895300  0.24165500  0.68034500  1
  O  O8  1  0.00237200  0.58410400  0.58990400  1
  O  O9  1  0.04383800  0.58524200  0.70911600  1
  O  O10  1  0.24165500  0.74895300  0.18034500  1
  O  O11  1  0.04297400  0.61303900  0.83494600  1
  O  O12  1  0.25895800  0.71942600  0.61068600  1
  O  O13  1  0.28057400  0.74104200  0.88931400  1
  O  O14  1  0.41475800  0.95616200  0.79088400  1
  O  O15  1  0.18524600  0.72043100  0.03820900  1
  O  O16  1  0.99762800  0.41589600  0.41009600  1
  O  O17  1  0.25380300  0.74619700  0.75000000  1
  O  O18  1  0.58410400  0.00237200  0.08990400  1
  O  O19  1  0.72043100  0.18524600  0.53820900  1
  O  O20  1  0.81475400  0.27956900  0.96179100  1
  O  O21  1  0.58524200  0.04383800  0.20911600  1
  O  O22  1  0.95702600  0.38696100  0.16505500  1
  O  O23  1  0.45789900  0.87900700  0.53876200  1
  O  O24  1  0.54210100  0.12099300  0.46123800  1
  O  O25  1  0.12099300  0.54210100  0.96123800  1
  O  O26  1  0.95616200  0.41475800  0.29088400  1
  O  O27  1  0.74104200  0.28057400  0.38931400  1
  O  O28  1  0.41589600  0.99762800  0.91009600  1
  O  O29  1  0.61303900  0.04297400  0.33494600  1
loop_
_geom_bond_atom_site_label_1
_geom_bond_atom_site_label_2
_geom_bond_distance
_geom_bond_site_symmetry_2
Nd0 O1 2.360656 1_545
Nd0 O8 2.384942 1_645
Nd0 O8 2.492839 1_555
Nd0 O12 2.573775 1_555
Nd0 O7 2.611310 1_555
Nd0 O9 2.695037 1_555
Nd0 O9 2.700541 1_645
Nd0 O19 2.736368 1_555
Nd0 O12 2.787447 1_645
Nd1 O16 2.317066 1_455
Nd1 O24 2.428821 1_555
Nd1 O24 2.475054 1_465
Nd1 O0 2.527524 1_555
Nd1 O27 2.557225 1_465
Nd1 O27 2.618267 1_555
Nd1 O29 2.631186 1_465
Nd1 O29 2.958048 1_555
Nd1 O3 3.147466 1_555
Nd2 O29 2.360656 1_565
Nd2 O16 2.384942 1_465
Nd2 O16 2.492839 1_555
Nd2 O27 2.573775 1_555
Nd2 O0 2.611310 1_555
Nd2 O26 2.695037 1_555
Nd2 O26 2.700541 1_465
Nd2 O3 2.736368 1_555
Nd2 O27 2.787447 1_465
Nd3 O11 2.360656 1_655
Nd3 O28 2.384942 1_645
Nd3 O28 2.492839 1_555
Nd3 O13 2.573775 1_555
Nd3 O2 2.611310 1_555
Nd3 O14 2.695037 1_555
Nd3 O14 2.700541 1_645
Nd3 O20 2.736368 1_555
Nd3 O13 2.787447 1_645
Nd4 O22 2.360659 1_455
Nd4 O18 2.384942 1_465
Nd4 O18 2.492839 1_555
Nd4 O5 2.573775 1_555
Nd4 O10 2.611310 1_555
Nd4 O21 2.695037 1_555
Nd4 O21 2.700541 1_465
Nd4 O15 2.736368 1_555
Nd4 O5 2.787447 1_465
Nd5 O9 2.370801 1_655
Nd5 O1 2.482450 1_645
Nd5 O14 2.593901 1_645
Nd5 O17 2.606810 1_555
Nd5 O17 2.645350 1_645
Nd5 O1 2.651598 1_555
Nd5 O7 2.656299 1_555
Nd5 O2 2.681303 1_555
Nd5 O14 2.683579 1_555
Nd6 O26 2.370801 1_455
Nd6 O29 2.482450 1_465
Nd6 O21 2.593901 1_465
Nd6 O4 2.606810 1_555
Nd6 O4 2.645350 1_465
Nd6 O29 2.651598 1_555
Nd6 O0 2.656299 1_555
Nd6 O10 2.681303 1_555
Nd6 O21 2.683579 1_555
Nd7 O8 2.317066 1_655
Nd7 O23 2.428821 1_555
Nd7 O23 2.475054 1_645
Nd7 O7 2.527524 1_555
Nd7 O12 2.557225 1_645
Nd7 O12 2.618267 1_555
Nd7 O1 2.631186 1_645
Nd7 O1 2.958048 1_555
Nd7 O19 3.147466 1_555
Nd8 O14 2.370801 1_545
Nd8 O11 2.482450 1_645
Nd8 O9 2.593901 1_645
Nd8 O17 2.606810 1_555
Nd8 O17 2.645350 1_645
Nd8 O11 2.651598 1_555
Nd8 O2 2.656299 1_555
Nd8 O7 2.681303 1_555
Nd8 O9 2.683579 1_555
Nd9 O18 2.317066 1_565
Nd9 O6 2.428821 1_555
Nd9 O6 2.475054 1_465
Nd9 O10 2.527524 1_555
Nd9 O5 2.557225 1_465
Nd9 O5 2.618267 1_555
Nd9 O22 2.631206 1_465
Nd9 O22 2.958066 1_555
Nd9 O15 3.147466 1_555
Nd10 O21 2.370801 1_565
Nd10 O22 2.482431 1_465
Nd10 O26 2.593901 1_465
Nd10 O4 2.606810 1_555
Nd10 O4 2.645350 1_465
Nd10 O22 2.651580 1_555
Nd10 O10 2.656299 1_555
Nd10 O0 2.681303 1_555
Nd10 O26 2.683579 1_555
Nd11 O28 2.317066 1_545
Nd11 O25 2.428821 1_555
Nd11 O25 2.475054 1_645
Nd11 O2 2.527524 1_555
Nd11 O13 2.557225 1_645
Nd11 O13 2.618267 1_555
Nd11 O11 2.631186 1_645
Nd11 O11 2.958048 1_555
Nd11 O20 3.147466 1_555
Cu0 O7 1.853529 1_555
Cu0 O7 1.859767 1_465
Cu0 O17 1.905850 1_555
Cu0 O12 1.933015 1_555
Cu0 O1 2.398356 1_555
Cu0 O9 2.421344 1_555
Cu1 O19 1.931317 1_555
Cu1 O19 1.939669 1_465
Cu1 O12 1.952769 1_555
Cu1 O3 2.073376 1_555
Cu1 O23 2.428094 1_555
Cu2 O20 1.931317 1_555
Cu2 O20 1.939669 1_465
Cu2 O13 1.952769 1_555
Cu2 O15 2.073376 1_556
Cu2 O25 2.428094 1_555
Cu3 O23 1.964045 1_545
Cu3 O16 1.974298 1_455
Cu3 O24 1.999358 1_555
Cu3 O3 2.034536 1_545
Cu4 O25 1.964045 1_654
Cu4 O18 1.974298 1_565
Cu4 O6 1.999358 1_555
Cu4 O15 2.034536 1_655
Cu5 O2 1.853529 1_555
Cu5 O2 1.859767 1_465
Cu5 O17 1.905850 1_555
Cu5 O13 1.933015 1_555
Cu5 O11 2.398356 1_555
Cu5 O14 2.421344 1_555
Cu6 O15 1.931317 1_555
Cu6 O15 1.939669 1_645
Cu6 O5 1.952769 1_555
Cu6 O20 2.073376 1_554
Cu6 O6 2.428094 1_555
Cu7 O3 1.931317 1_555
Cu7 O3 1.939669 1_645
Cu7 O27 1.952769 1_555
Cu7 O19 2.073376 1_555
Cu7 O24 2.428094 1_555
Cu8 O0 1.853529 1_555
Cu8 O0 1.859767 1_645
Cu8 O4 1.905850 1_555
Cu8 O27 1.933015 1_555
Cu8 O29 2.398356 1_555
Cu8 O26 2.421344 1_555
Cu9 O24 1.964045 1_565
Cu9 O8 1.974298 1_655
Cu9 O23 1.999358 1_555
Cu9 O19 2.034536 1_565
Cu10 O6 1.964045 1_456
Cu10 O28 1.974298 1_545
Cu10 O25 1.999358 1_555
Cu10 O20 2.034536 1_455
Cu11 O10 1.853529 1_555
Cu11 O10 1.859767 1_645
Cu11 O4 1.905850 1_555
Cu11 O5 1.933015 1_555
Cu11 O22 2.398358 1_555
Cu11 O21 2.421344 1_555
