# generated using pymatgen
data_Sn16P15
_symmetry_space_group_name_H-M   'P 1'
_cell_length_a   4.66332300
_cell_length_b   5.41320248
_cell_length_c   36.85791950
_cell_angle_alpha   89.53295859
_cell_angle_beta   93.55274757
_cell_angle_gamma   107.07619444
_symmetry_Int_Tables_number   1
_chemical_formula_structural   Sn16P15
_chemical_formula_sum   'Sn16 P15'
_cell_volume   887.64721701
_cell_formula_units_Z   1
loop_
 _symmetry_equiv_pos_site_id
 _symmetry_equiv_pos_as_xyz
  1  'x, y, z'
loop_
 _atom_site_type_symbol
 _atom_site_label
 _atom_site_symmetry_multiplicity
 _atom_site_fract_x
 _atom_site_fract_y
 _atom_site_fract_z
 _atom_site_occupancy
  Sn  Sn0  1  0.23001800  0.63756900  0.94213600  1
  Sn  Sn1  1  0.07945400  0.74939300  0.83804100  1
  Sn  Sn2  1  0.97674900  0.95025300  0.68842600  1
  Sn  Sn3  1  0.95332700  0.00384100  0.55614400  1
  Sn  Sn4  1  0.75259400  0.16089000  0.47578000  1
  Sn  Sn5  1  0.53062200  0.22443400  0.34408400  1
  Sn  Sn6  1  0.52625800  0.47367000  0.18501500  1
  Sn  Sn7  1  0.27917600  0.51794500  0.04489500  1
  Sn  Sn8  1  0.62405400  0.31440300  0.95821600  1
  Sn  Sn9  1  0.40051500  0.33918500  0.80833100  1
  Sn  Sn10  1  0.35277000  0.55825900  0.69424000  1
  Sn  Sn11  1  0.26980100  0.60055100  0.54018200  1
  Sn  Sn12  1  0.92756900  0.72417900  0.43905500  1
  Sn  Sn13  1  0.91484900  0.89997400  0.33473400  1
  Sn  Sn14  1  0.90103700  0.11001700  0.18596800  1
  Sn  Sn15  1  0.66279500  0.18765300  0.05064700  1
  P  P0  1  0.85890100  0.33578700  0.77126900  1
  P  P1  1  0.70505100  0.92655900  0.62113600  1
  P  P2  1  0.99833600  0.53947500  0.37581400  1
  P  P3  1  0.68440200  0.01538200  0.11683700  1
  P  P4  1  0.48366100  0.57584000  0.25554300  1
  P  P5  1  0.35627600  0.54062900  0.62191600  1
  P  P6  1  0.39662500  0.03740700  0.89833600  1
  P  P7  1  0.77305900  0.31539900  0.71397400  1
  P  P8  1  0.67581600  0.06105100  0.85284200  1
  P  P9  1  0.31451700  0.50535400  0.47133100  1
  P  P10  1  0.50124200  0.24122600  0.59249900  1
  P  P11  1  0.76606400  0.34292100  0.28162500  1
  P  P12  1  0.45795200  0.62253200  0.11397400  1
  P  P13  1  0.60575800  0.84527700  0.99917100  1
  P  P14  1  0.83950200  0.96719500  0.25959300  1
loop_
_geom_bond_atom_site_label_1
_geom_bond_atom_site_label_2
_geom_bond_distance
_geom_bond_site_symmetry_2
Sn0 Sn8 2.919581 1_555
Sn0 Sn8 2.946898 1_455
Sn12 Sn4 3.067322 1_565
Sn12 Sn4 3.225533 1_555
Sn13 Sn5 2.889402 1_565
Sn13 Sn5 2.893895 1_665
Sn15 Sn7 2.875279 1_555
Sn15 Sn7 2.924876 1_655
P0 P7 2.122523 1_555
P0 Sn9 2.611725 1_555
P0 Sn9 2.791265 1_655
P1 P5 2.240510 1_555
P1 P10 2.390804 1_565
P1 Sn2 2.700613 1_555
P1 Sn3 2.701241 1_565
P2 Sn5 2.562258 1_555
P2 Sn13 2.564621 1_555
P2 Sn12 2.620866 1_555
P3 Sn15 2.611356 1_555
P3 Sn14 2.678389 1_555
P4 Sn6 2.693470 1_555
P5 Sn10 2.669431 1_555
P5 Sn11 3.041972 1_555
P6 P8 2.166192 1_555
P6 Sn0 2.646770 1_545
P6 Sn8 2.659721 1_555
P6 Sn1 2.802150 1_545
P7 Sn2 2.634346 1_545
P7 Sn10 2.723910 1_555
P7 Sn10 2.776059 1_655
P8 Sn9 2.727708 1_555
P8 Sn1 2.819483 1_545
P8 Sn1 2.948570 1_645
P9 Sn11 2.626594 1_555
P9 Sn12 2.653438 1_455
P9 Sn4 2.747571 1_455
P9 Sn12 3.066129 1_555
P9 Sn4 3.141318 1_555
P10 P5 2.241053 1_555
P10 Sn3 2.766012 1_455
P10 Sn11 3.095224 1_555
P10 Sn3 3.140152 1_555
P11 P4 2.246481 1_555
P11 P14 2.320311 1_545
P11 Sn5 2.606180 1_555
P12 P3 2.078366 1_565
P12 Sn7 2.642246 1_555
P12 Sn6 2.760422 1_555
P13 Sn15 2.609726 1_566
P13 Sn7 2.642703 1_556
P13 Sn0 2.679292 1_555
P13 Sn8 2.925930 1_565
P14 P4 2.274592 1_555
P14 Sn13 2.804332 1_555
P14 Sn14 2.824191 1_565
