# generated using pymatgen
data_VH5Se2NO7
_symmetry_space_group_name_H-M   'P 1'
_cell_length_a   10.67105200
_cell_length_b   4.05603900
_cell_length_c   8.06411751
_cell_angle_alpha   81.45545312
_cell_angle_beta   90.00000000
_cell_angle_gamma   90.00000000
_symmetry_Int_Tables_number   1
_chemical_formula_structural   VH5Se2NO7
_chemical_formula_sum   'V2 H10 Se4 N2 O14'
_cell_volume   345.15873281
_cell_formula_units_Z   2
loop_
 _symmetry_equiv_pos_site_id
 _symmetry_equiv_pos_as_xyz
  1  'x, y, z'
loop_
 _atom_site_type_symbol
 _atom_site_label
 _atom_site_symmetry_multiplicity
 _atom_site_fract_x
 _atom_site_fract_y
 _atom_site_fract_z
 _atom_site_occupancy
  V  V0  1  0.75000000  0.43235800  0.54562600  1
  V  V1  1  0.25000000  0.56764200  0.45437400  1
  H  H0  1  0.00000000  0.50000000  0.00000000  1
  H  H1  1  0.50000000  0.50000000  0.00000000  1
  H  H2  1  0.17058800  0.97815600  0.98898700  1
  H  H3  1  0.67058800  0.02184400  0.01101300  1
  H  H4  1  0.82941200  0.02184400  0.01101300  1
  H  H5  1  0.32941200  0.97815600  0.98898700  1
  H  H6  1  0.25000000  0.31227400  0.89773400  1
  H  H7  1  0.75000000  0.68772600  0.10226600  1
  H  H8  1  0.25000000  0.22655600  0.10807800  1
  H  H9  1  0.75000000  0.77344400  0.89192200  1
  Se  Se0  1  0.00978200  0.70174400  0.68996400  1
  Se  Se1  1  0.50978200  0.29825600  0.31003600  1
  Se  Se2  1  0.99021800  0.29825600  0.31003600  1
  Se  Se3  1  0.49021800  0.70174400  0.68996400  1
  N  N0  1  0.25000000  0.12361300  0.99777900  1
  N  N1  1  0.75000000  0.87638700  0.00222100  1
  O  O0  1  0.11695200  0.41826400  0.62963900  1
  O  O1  1  0.61695200  0.58173600  0.37036100  1
  O  O2  1  0.88304800  0.58173600  0.37036100  1
  O  O3  1  0.38304800  0.41826400  0.62963900  1
  O  O4  1  0.87583300  0.45694800  0.72938300  1
  O  O5  1  0.37583300  0.54305200  0.27061700  1
  O  O6  1  0.12416700  0.54305200  0.27061700  1
  O  O7  1  0.62416700  0.45694800  0.72938300  1
  O  O8  1  0.05459800  0.70015000  0.89773500  1
  O  O9  1  0.55459800  0.29985000  0.10226500  1
  O  O10  1  0.94540200  0.29985000  0.10226500  1
  O  O11  1  0.44540200  0.70015000  0.89773500  1
  O  O12  1  0.75000000  0.02108000  0.53857900  1
  O  O13  1  0.25000000  0.97892000  0.46142100  1
loop_
_geom_bond_atom_site_label_1
_geom_bond_atom_site_label_2
_geom_bond_distance
_geom_bond_site_symmetry_2
H0 O10 1.216404 1_455
H0 O8 1.216404 1_554
H1 O9 1.216404 1_555
H1 O11 1.216404 1_554
H2 N0 1.040978 1_565
H3 N1 1.040978 1_545
H4 N1 1.040978 1_545
H5 N0 1.040978 1_565
H6 N0 1.026153 1_555
H7 N1 1.026153 1_555
H8 N0 1.037230 1_554
H9 N1 1.037230 1_556
O0 Se0 1.741487 1_555
O0 V1 2.031240 1_555
O1 Se1 1.741487 1_555
O1 V0 2.031240 1_555
O2 Se2 1.741487 1_555
O2 V0 2.031240 1_555
O3 Se3 1.741487 1_555
O3 V1 2.031240 1_555
O4 Se0 1.742478 1_655
O4 V0 2.013142 1_555
O5 Se1 1.742478 1_555
O5 V1 2.013142 1_555
O6 Se2 1.742478 1_455
O6 V1 2.013142 1_555
O7 Se3 1.742478 1_555
O7 V0 2.013142 1_555
O8 Se0 1.741493 1_555
O9 Se1 1.741493 1_555
O10 Se2 1.741493 1_555
O11 Se3 1.741493 1_555
O12 V0 1.677545 1_555
O12 V0 2.380100 1_545
O13 V1 1.677545 1_555
O13 V1 2.380100 1_565
