# generated using pymatgen
data_PrZnRh
_symmetry_space_group_name_H-M   'P 1'
_cell_length_a   4.01893210
_cell_length_b   7.31334143
_cell_length_c   16.51123617
_cell_angle_alpha   90.00000000
_cell_angle_beta   90.00000000
_cell_angle_gamma   90.00000000
_symmetry_Int_Tables_number   1
_chemical_formula_structural   PrZnRh
_chemical_formula_sum   'Pr8 Zn8 Rh8'
_cell_volume   485.29532493
_cell_formula_units_Z   8
loop_
 _symmetry_equiv_pos_site_id
 _symmetry_equiv_pos_as_xyz
  1  'x, y, z'
loop_
 _atom_site_type_symbol
 _atom_site_label
 _atom_site_symmetry_multiplicity
 _atom_site_fract_x
 _atom_site_fract_y
 _atom_site_fract_z
 _atom_site_occupancy
  Pr  Pr0  1  0.75000000  0.45306793  0.21671613  1
  Pr  Pr1  1  0.75000000  0.95306793  0.28328387  1
  Pr  Pr2  1  0.75000000  0.83142473  0.06045400  1
  Pr  Pr3  1  0.25000000  0.04693207  0.71671613  1
  Pr  Pr4  1  0.25000000  0.16857527  0.93954600  1
  Pr  Pr5  1  0.25000000  0.54693207  0.78328387  1
  Pr  Pr6  1  0.75000000  0.33142473  0.43954600  1
  Pr  Pr7  1  0.25000000  0.66857527  0.56045400  1
  Zn  Zn0  1  0.25000000  0.99798134  0.44012610  1
  Zn  Zn1  1  0.75000000  0.50201866  0.94012610  1
  Zn  Zn2  1  0.75000000  0.00201866  0.55987390  1
  Zn  Zn3  1  0.25000000  0.62689951  0.35025805  1
  Zn  Zn4  1  0.75000000  0.37310049  0.64974195  1
  Zn  Zn5  1  0.75000000  0.87310049  0.85025805  1
  Zn  Zn6  1  0.25000000  0.49798134  0.05987390  1
  Zn  Zn7  1  0.25000000  0.12689951  0.14974195  1
  Rh  Rh0  1  0.25000000  0.24027418  0.56565526  1
  Rh  Rh1  1  0.75000000  0.25972582  0.06565526  1
  Rh  Rh2  1  0.25000000  0.24813828  0.31457661  1
  Rh  Rh3  1  0.75000000  0.25186172  0.81457661  1
  Rh  Rh4  1  0.25000000  0.74027418  0.93434474  1
  Rh  Rh5  1  0.75000000  0.75186172  0.68542339  1
  Rh  Rh6  1  0.75000000  0.75972582  0.43434474  1
  Rh  Rh7  1  0.25000000  0.74813828  0.18542339  1
loop_
_geom_bond_atom_site_label_1
_geom_bond_atom_site_label_2
_geom_bond_distance
_geom_bond_site_symmetry_2
Pr0 Rh1 2.867119 1_555
Pr0 Rh2 2.982435 1_655
Pr0 Rh2 2.982435 1_555
Pr0 Rh7 2.993604 1_555
Pr0 Rh7 2.993604 1_655
Pr0 Zn3 3.242823 1_655
Pr0 Zn3 3.242823 1_555
Pr0 Zn6 3.294265 1_555
Pr0 Zn6 3.294265 1_655
Pr0 Zn7 3.309207 1_555
Pr0 Zn7 3.309207 1_655
Pr1 Rh6 2.867119 1_555
Pr1 Rh7 2.982435 1_555
Pr1 Rh7 2.982435 1_655
Pr1 Rh2 2.993604 1_565
Pr1 Rh2 2.993604 1_665
Pr1 Zn7 3.242823 1_565
Pr1 Zn7 3.242823 1_665
Pr1 Zn0 3.294265 1_655
Pr1 Zn0 3.294265 1_555
Pr1 Zn3 3.309207 1_655
Pr1 Zn3 3.309207 1_555
Pr2 Rh7 2.943905 1_555
Pr2 Rh7 2.943905 1_655
Pr2 Rh4 2.969506 1_654
Pr2 Rh4 2.969506 1_554
Pr2 Zn1 3.122626 1_554
Pr2 Rh1 3.133489 1_565
Pr2 Zn6 3.159865 1_555
Pr2 Zn6 3.159865 1_655
Pr2 Zn7 3.298621 1_665
Pr2 Zn7 3.298621 1_565
Pr3 Rh0 2.867119 1_555
Pr3 Rh3 2.982435 1_455
Pr3 Rh3 2.982435 1_555
Pr3 Rh5 2.993604 1_445
Pr3 Rh5 2.993604 1_545
Pr3 Zn5 3.242823 1_545
Pr3 Zn5 3.242823 1_445
Pr3 Zn2 3.294265 1_555
Pr3 Zn2 3.294265 1_455
Pr3 Zn4 3.309207 1_555
Pr3 Zn4 3.309207 1_455
Pr4 Rh3 2.943905 1_455
Pr4 Rh3 2.943905 1_555
Pr4 Rh1 2.969506 1_456
Pr4 Rh1 2.969506 1_556
Pr4 Zn6 3.122626 1_556
Pr4 Rh4 3.133489 1_545
Pr4 Zn1 3.159865 1_455
Pr4 Zn1 3.159865 1_555
Pr4 Zn5 3.298621 1_445
Pr4 Zn5 3.298621 1_545
Pr5 Rh4 2.867119 1_555
Pr5 Rh5 2.982435 1_455
Pr5 Rh5 2.982435 1_555
Pr5 Rh3 2.993604 1_555
Pr5 Rh3 2.993604 1_455
Pr5 Zn4 3.242823 1_455
Pr5 Zn4 3.242823 1_555
Pr5 Zn1 3.294265 1_455
Pr5 Zn1 3.294265 1_555
Pr5 Zn5 3.309207 1_455
Pr5 Zn5 3.309207 1_555
Pr6 Rh2 2.943905 1_555
Pr6 Rh2 2.943905 1_655
Pr6 Rh0 2.969506 1_555
Pr6 Rh0 2.969506 1_655
Pr6 Zn2 3.122626 1_555
Pr6 Rh6 3.133489 1_555
Pr6 Zn0 3.159865 1_645
Pr6 Zn0 3.159865 1_545
Pr6 Zn3 3.298621 1_555
Pr6 Zn3 3.298621 1_655
Pr7 Rh5 2.943905 1_455
Pr7 Rh5 2.943905 1_555
Pr7 Rh6 2.969506 1_455
Pr7 Rh6 2.969506 1_555
Pr7 Zn0 3.122626 1_555
Pr7 Rh0 3.133489 1_555
Pr7 Zn2 3.159865 1_565
Pr7 Zn2 3.159865 1_465
Pr7 Zn4 3.298621 1_555
Pr7 Zn4 3.298621 1_455
Zn0 Zn2 2.819234 1_565
Zn0 Zn2 2.819234 1_465
Zn0 Zn3 3.093013 1_555
Zn1 Zn6 2.819234 1_656
Zn1 Zn6 2.819234 1_556
Zn1 Zn5 3.093013 1_555
Zn2 Zn4 3.093013 1_555
Zn6 Zn7 3.093013 1_555
Rh0 Zn4 2.628529 1_455
Rh0 Zn4 2.628529 1_555
Rh0 Zn2 2.661424 1_555
Rh0 Zn2 2.661424 1_455
Rh0 Zn0 2.726852 1_545
Rh1 Zn7 2.628529 1_555
Rh1 Zn7 2.628529 1_655
Rh1 Zn6 2.661424 1_555
Rh1 Zn6 2.661424 1_655
Rh1 Zn1 2.726852 1_554
Rh2 Zn0 2.764822 1_545
Rh2 Zn3 2.831969 1_555
Rh2 Zn7 2.862412 1_555
Rh3 Zn1 2.764822 1_555
Rh3 Zn5 2.831969 1_545
Rh3 Zn4 2.862412 1_555
Rh4 Zn5 2.628529 1_455
Rh4 Zn5 2.628529 1_555
Rh4 Zn1 2.661424 1_455
Rh4 Zn1 2.661424 1_555
Rh4 Zn6 2.726852 1_556
Rh5 Zn2 2.764822 1_565
Rh5 Zn4 2.831969 1_555
Rh5 Zn5 2.862412 1_555
Rh6 Zn3 2.628529 1_555
Rh6 Zn3 2.628529 1_655
Rh6 Zn0 2.661424 1_555
Rh6 Zn0 2.661424 1_655
Rh6 Zn2 2.726852 1_565
Rh7 Zn6 2.764822 1_555
Rh7 Zn7 2.831969 1_565
Rh7 Zn3 2.862412 1_555
