# generated using pymatgen
data_CsNa2Ge17
_symmetry_space_group_name_H-M   'P 1'
_cell_length_a   10.99493124
_cell_length_b   10.99493297
_cell_length_c   10.99492926
_cell_angle_alpha   60.00187934
_cell_angle_beta   60.00189119
_cell_angle_gamma   60.00188823
_symmetry_Int_Tables_number   1
_chemical_formula_structural   CsNa2Ge17
_chemical_formula_sum   'Cs2 Na4 Ge34'
_cell_volume   939.89884888
_cell_formula_units_Z   2
loop_
 _symmetry_equiv_pos_site_id
 _symmetry_equiv_pos_as_xyz
  1  'x, y, z'
loop_
 _atom_site_type_symbol
 _atom_site_label
 _atom_site_symmetry_multiplicity
 _atom_site_fract_x
 _atom_site_fract_y
 _atom_site_fract_z
 _atom_site_occupancy
  Cs  Cs0  1  0.00000002  0.00000011  0.00000002  1
  Cs  Cs1  1  0.24999992  0.24999973  0.24999995  1
  Na  Na0  1  0.12499992  0.62499997  0.62500011  1
  Na  Na1  1  0.62500005  0.12499997  0.62500005  1
  Na  Na2  1  0.62500000  0.62499998  0.12500003  1
  Na  Na3  1  0.62499999  0.62500006  0.62500000  1
  Ge  Ge0  1  0.50000001  0.50000005  0.50000005  1
  Ge  Ge1  1  0.75000003  0.75000004  0.74999991  1
  Ge  Ge2  1  0.77763380  0.40745521  0.40745518  1
  Ge  Ge3  1  0.40745512  0.77763367  0.40745512  1
  Ge  Ge4  1  0.40745507  0.40745517  0.77763371  1
  Ge  Ge5  1  0.40745663  0.40745682  0.40745703  1
  Ge  Ge6  1  0.47236622  0.84254498  0.84254484  1
  Ge  Ge7  1  0.84254500  0.47236629  0.84254483  1
  Ge  Ge8  1  0.84254496  0.84254484  0.47236644  1
  Ge  Ge9  1  0.84254327  0.84254309  0.84254312  1
  Ge  Ge10  1  0.85954128  0.25494307  0.25494338  1
  Ge  Ge11  1  0.25494523  0.85953884  0.63057291  1
  Ge  Ge12  1  0.25494517  0.63057277  0.85953904  1
  Ge  Ge13  1  0.63056820  0.25494498  0.25494485  1
  Ge  Ge14  1  0.25494318  0.25494336  0.85954136  1
  Ge  Ge15  1  0.85953906  0.63057271  0.25494531  1
  Ge  Ge16  1  0.63057288  0.85953898  0.25494519  1
  Ge  Ge17  1  0.25494504  0.25494513  0.63056795  1
  Ge  Ge18  1  0.25494323  0.85954119  0.25494338  1
  Ge  Ge19  1  0.63057273  0.25494527  0.85953894  1
  Ge  Ge20  1  0.85953885  0.25494539  0.63057271  1
  Ge  Ge21  1  0.25494494  0.63056811  0.25494502  1
  Ge  Ge22  1  0.39045879  0.99505678  0.99505658  1
  Ge  Ge23  1  0.99505476  0.39046106  0.61942720  1
  Ge  Ge24  1  0.99505491  0.61942713  0.39046085  1
  Ge  Ge25  1  0.61943191  0.99505500  0.99505495  1
  Ge  Ge26  1  0.99505670  0.99505669  0.39045862  1
  Ge  Ge27  1  0.39046101  0.61942714  0.99505472  1
  Ge  Ge28  1  0.61942701  0.39046116  0.99505483  1
  Ge  Ge29  1  0.99505488  0.99505486  0.61943204  1
  Ge  Ge30  1  0.99505691  0.39045876  0.99505655  1
  Ge  Ge31  1  0.61942707  0.99505491  0.39046102  1
  Ge  Ge32  1  0.39046115  0.99505469  0.61942728  1
  Ge  Ge33  1  0.99505508  0.61943199  0.99505489  1
loop_
_geom_bond_atom_site_label_1
_geom_bond_atom_site_label_2
_geom_bond_distance
_geom_bond_site_symmetry_2
Cs0 Ge10 4.159211 1_455
Cs0 Ge18 4.159212 1_545
Cs0 Ge14 4.159212 1_554
Cs0 Ge16 4.159280 1_445
Cs0 Ge11 4.159280 1_544
Cs0 Ge19 4.159281 1_454
Cs0 Ge20 4.159281 1_454
Cs0 Ge12 4.159282 1_544
Cs0 Ge15 4.159282 1_445
Cs0 Ge13 4.159342 1_455
Cs0 Ge21 4.159343 1_545
Cs0 Ge17 4.159344 1_554
Cs0 Ge29 4.239384 1_444
Cs0 Ge25 4.239385 1_444
Cs0 Ge33 4.239386 1_444
Cs0 Ge26 4.239413 1_445
Cs0 Ge22 4.239415 1_544
Cs0 Ge30 4.239416 1_454
Cs0 Ge23 4.239549 1_454
Cs0 Ge24 4.239549 1_445
Cs0 Ge32 4.239550 1_544
Cs0 Ge31 4.239550 1_445
Cs0 Ge27 4.239551 1_544
Cs0 Ge28 4.239552 1_454
Cs0 Ge9 4.240564 1_444
Cs0 Ge7 4.240685 1_454
Cs0 Ge6 4.240685 1_544
Cs0 Ge8 4.240686 1_445
Cs1 Ge30 4.159210 1_454
Cs1 Ge22 4.159211 1_544
Cs1 Ge26 4.159211 1_445
Cs1 Ge31 4.159279 1_545
Cs1 Ge32 4.159281 1_545
Cs1 Ge28 4.159281 1_554
Cs1 Ge24 4.159282 1_455
Cs1 Ge23 4.159282 1_455
Cs1 Ge27 4.159282 1_554
Cs1 Ge25 4.159342 1_544
Cs1 Ge29 4.159343 1_445
Cs1 Ge33 4.159343 1_454
Cs1 Ge17 4.239385 1_555
Cs1 Ge13 4.239387 1_555
Cs1 Ge21 4.239389 1_555
Cs1 Ge14 4.239412 1_554
Cs1 Ge18 4.239413 1_545
Cs1 Ge10 4.239414 1_455
Cs1 Ge11 4.239550 1_545
Cs1 Ge16 4.239550 1_545
Cs1 Ge19 4.239550 1_554
Cs1 Ge20 4.239550 1_455
Cs1 Ge12 4.239550 1_554
Cs1 Ge15 4.239550 1_455
Cs1 Ge5 4.240566 1_555
Cs1 Ge3 4.240684 1_545
Cs1 Ge4 4.240685 1_554
Cs1 Ge2 4.240685 1_455
Ge0 Ge5 2.492336 1_555
Ge0 Ge4 2.492466 1_555
Ge0 Ge3 2.492466 1_555
Ge0 Ge2 2.492468 1_555
Ge0 Na3 3.366448 1_555
Ge0 Na2 3.366576 1_555
Ge0 Na0 3.366577 1_555
Ge0 Na1 3.366577 1_555
Ge1 Ge9 2.492334 1_555
Ge1 Ge8 2.492464 1_555
Ge1 Ge7 2.492468 1_555
Ge1 Ge6 2.492468 1_555
Ge1 Na3 3.366448 1_555
Ge1 Na0 3.366576 1_655
Ge1 Na1 3.366576 1_565
Ge1 Na2 3.366577 1_556
Ge2 Ge20 2.495298 1_555
Ge2 Na3 3.457133 1_555
Ge2 Na2 3.457158 1_555
Ge2 Na1 3.457160 1_555
Ge3 Na3 3.457134 1_555
Ge3 Na2 3.457158 1_555
Ge3 Na0 3.457159 1_555
Ge4 Na3 3.457135 1_555
Ge4 Na0 3.457157 1_555
Ge4 Na1 3.457159 1_555
Ge5 Na0 3.457169 1_555
Ge5 Na1 3.457170 1_555
Ge5 Na2 3.457172 1_555
Ge6 Na3 3.457134 1_555
Ge6 Na1 3.457158 1_565
Ge6 Na2 3.457159 1_556
Ge7 Na3 3.457134 1_555
Ge7 Na0 3.457156 1_655
Ge7 Na2 3.457159 1_556
Ge8 Na3 3.457135 1_555
Ge8 Na0 3.457156 1_655
Ge8 Na1 3.457158 1_565
Ge9 Na0 3.457169 1_655
Ge9 Na1 3.457169 1_565
Ge9 Na2 3.457170 1_556
Ge10 Ge2 2.495266 1_555
Ge10 Ge26 2.512045 1_545
Ge10 Ge30 2.512050 1_554
Ge10 Ge13 2.517525 1_555
Ge10 Na1 3.553249 1_555
Ge10 Na2 3.553251 1_555
Ge11 Ge3 2.495301 1_555
Ge11 Ge32 2.511956 1_555
Ge11 Ge29 2.512046 1_455
Ge11 Ge12 2.517538 1_555
Ge11 Na0 3.553114 1_555
Ge11 Na3 3.553211 1_555
Ge12 Ge4 2.495301 1_555
Ge12 Ge27 2.511953 1_555
Ge12 Ge33 2.512044 1_455
Ge12 Na0 3.553113 1_555
Ge12 Na3 3.553212 1_555
Ge13 Ge5 2.495309 1_555
Ge13 Ge28 2.512044 1_554
Ge13 Ge31 2.512045 1_545
Ge13 Na2 3.553192 1_555
Ge13 Na1 3.553192 1_555
Ge14 Ge4 2.495263 1_555
Ge14 Ge30 2.512045 1_455
Ge14 Ge22 2.512047 1_545
Ge14 Ge17 2.517526 1_555
Ge14 Na0 3.553249 1_555
Ge14 Na1 3.553251 1_555
Ge15 Ge2 2.495299 1_555
Ge15 Ge24 2.511952 1_555
Ge15 Ge33 2.512046 1_554
Ge15 Ge16 2.517540 1_555
Ge15 Na2 3.553115 1_555
Ge15 Na3 3.553211 1_555
Ge16 Ge3 2.495302 1_555
Ge16 Ge31 2.511954 1_555
Ge16 Ge25 2.512045 1_554
Ge16 Na2 3.553114 1_555
Ge16 Na3 3.553211 1_555
Ge17 Ge5 2.495302 1_555
Ge17 Ge23 2.512045 1_455
Ge17 Ge32 2.512047 1_545
Ge17 Na0 3.553191 1_555
Ge17 Na1 3.553192 1_555
Ge18 Ge3 2.495262 1_555
Ge18 Ge26 2.512047 1_455
Ge18 Ge22 2.512049 1_554
Ge18 Ge21 2.517525 1_555
Ge18 Na0 3.553249 1_555
Ge18 Na2 3.553250 1_555
Ge19 Ge4 2.495300 1_555
Ge19 Ge28 2.511955 1_555
Ge19 Ge25 2.512046 1_545
Ge19 Ge20 2.517539 1_555
Ge19 Na1 3.553113 1_555
Ge19 Na3 3.553212 1_555
Ge20 Ge23 2.511955 1_555
Ge20 Ge29 2.512048 1_545
Ge20 Na1 3.553113 1_555
Ge20 Na3 3.553211 1_555
Ge21 Ge5 2.495306 1_555
Ge21 Ge24 2.512044 1_455
Ge21 Ge27 2.512046 1_554
Ge21 Na0 3.553192 1_555
Ge21 Na2 3.553192 1_555
Ge22 Ge6 2.495262 1_555
Ge22 Ge25 2.517525 1_555
Ge22 Na1 3.553248 1_565
Ge22 Na2 3.553251 1_556
Ge23 Ge7 2.495300 1_555
Ge23 Ge24 2.517539 1_555
Ge23 Na0 3.553114 1_655
Ge23 Na3 3.553212 1_555
Ge24 Ge8 2.495303 1_555
Ge24 Na0 3.553115 1_655
Ge24 Na3 3.553213 1_555
Ge25 Ge9 2.495307 1_555
Ge25 Na1 3.553190 1_565
Ge25 Na2 3.553192 1_556
Ge26 Ge8 2.495261 1_555
Ge26 Ge29 2.517526 1_555
Ge26 Na1 3.553250 1_565
Ge26 Na0 3.553250 1_655
Ge27 Ge6 2.495302 1_555
Ge27 Ge28 2.517537 1_555
Ge27 Na2 3.553115 1_556
Ge27 Na3 3.553210 1_555
Ge28 Ge7 2.495303 1_555
Ge28 Na2 3.553114 1_556
Ge28 Na3 3.553211 1_555
Ge29 Ge9 2.495303 1_555
Ge29 Na1 3.553190 1_565
Ge29 Na0 3.553191 1_655
Ge30 Ge7 2.495262 1_555
Ge30 Ge33 2.517526 1_555
Ge30 Na0 3.553247 1_655
Ge30 Na2 3.553252 1_556
Ge31 Ge8 2.495303 1_555
Ge31 Ge32 2.517538 1_555
Ge31 Na1 3.553114 1_565
Ge31 Na3 3.553212 1_555
Ge32 Ge6 2.495298 1_555
Ge32 Na1 3.553114 1_565
Ge32 Na3 3.553211 1_555
Ge33 Ge9 2.495304 1_555
Ge33 Na0 3.553189 1_655
Ge33 Na2 3.553193 1_556
