# generated using pymatgen
data_Ti20H2N17
_symmetry_space_group_name_H-M   'P 1'
_cell_length_a   7.93829528
_cell_length_b   7.93829528
_cell_length_c   16.88928656
_cell_angle_alpha   74.51932580
_cell_angle_beta   74.51932580
_cell_angle_gamma   21.72673289
_symmetry_Int_Tables_number   1
_chemical_formula_structural   Ti20H2N17
_chemical_formula_sum   'Ti20 H2 N17'
_cell_volume   379.15416265
_cell_formula_units_Z   1
loop_
 _symmetry_equiv_pos_site_id
 _symmetry_equiv_pos_as_xyz
  1  'x, y, z'
loop_
 _atom_site_type_symbol
 _atom_site_label
 _atom_site_symmetry_multiplicity
 _atom_site_fract_x
 _atom_site_fract_y
 _atom_site_fract_z
 _atom_site_occupancy
  Ti  Ti0  1  0.30037444  0.30037444  0.92337709  1
  Ti  Ti1  1  0.89564575  0.89564575  0.02637365  1
  Ti  Ti2  1  0.49962677  0.49962677  0.12849844  1
  Ti  Ti3  1  0.10015818  0.10015818  0.22190081  1
  Ti  Ti4  1  0.70326946  0.70326946  0.32415926  1
  Ti  Ti5  1  0.49654603  0.49654603  0.37666790  1
  Ti  Ti6  1  0.09932218  0.09932218  0.47568626  1
  Ti  Ti7  1  0.29917072  0.29917072  0.42653463  1
  Ti  Ti8  1  0.70082928  0.70082928  0.57346537  1
  Ti  Ti9  1  0.90067782  0.90067782  0.52431374  1
  Ti  Ti10  1  0.50345397  0.50345397  0.62333210  1
  Ti  Ti11  1  0.29673054  0.29673054  0.67584074  1
  Ti  Ti12  1  0.09984130  0.09984130  0.72671740  1
  Ti  Ti13  1  0.89984182  0.89984182  0.77809919  1
  Ti  Ti14  1  0.50037323  0.50037323  0.87150156  1
  Ti  Ti15  1  0.69978978  0.69978978  0.82506188  1
  Ti  Ti16  1  0.10435425  0.10435425  0.97362635  1
  Ti  Ti17  1  0.69962556  0.69962556  0.07662291  1
  Ti  Ti18  1  0.30021022  0.30021022  0.17493812  1
  Ti  Ti19  1  0.90015870  0.90015870  0.27328260  1
  H  H0  1  0.10034307  0.10034307  0.35013269  1
  H  H1  1  0.89965693  0.89965693  0.64986731  1
  N  N0  1  0.09979925  0.09979925  0.59955416  1
  N  N1  1  0.70002241  0.70002241  0.69935553  1
  N  N2  1  0.30032094  0.30032094  0.79902014  1
  N  N3  1  0.90074008  0.90074008  0.90047591  1
  N  N4  1  0.09925992  0.09925992  0.09952409  1
  N  N5  1  0.69967906  0.69967906  0.20097986  1
  N  N6  1  0.90055870  0.90055870  0.14889307  1
  N  N7  1  0.29997759  0.29997759  0.30064447  1
  N  N8  1  0.49986363  0.49986363  0.25062553  1
  N  N9  1  0.90020075  0.90020075  0.40044584  1
  N  N10  1  0.70001503  0.70001503  0.44975531  1
  N  N11  1  0.29998497  0.29998497  0.55024469  1
  N  N12  1  0.50000000  0.50000000  0.50000000  1
  N  N13  1  0.50013637  0.50013637  0.74937447  1
  N  N14  1  0.09944130  0.09944130  0.85110693  1
  N  N15  1  0.69924774  0.69924774  0.95061478  1
  N  N16  1  0.30075226  0.30075226  0.04938522  1
loop_
_geom_bond_atom_site_label_1
_geom_bond_atom_site_label_2
_geom_bond_distance
_geom_bond_site_symmetry_2
H0 Ti6 2.116239 1_555
H0 Ti4 2.150258 1_455
H0 Ti4 2.150258 1_545
H0 Ti5 2.159675 1_545
H0 Ti5 2.159675 1_455
H0 Ti3 2.166530 1_555
H1 Ti9 2.116239 1_555
H1 Ti11 2.150258 1_565
H1 Ti11 2.150258 1_655
H1 Ti10 2.159675 1_565
H1 Ti10 2.159675 1_655
H1 Ti13 2.166530 1_555
N0 Ti10 2.080474 1_545
N0 Ti10 2.080474 1_455
N0 Ti6 2.094074 1_555
N0 Ti8 2.129947 1_455
N0 Ti8 2.129947 1_545
N0 Ti12 2.147875 1_555
N1 Ti11 2.084289 1_565
N1 Ti11 2.084289 1_655
N1 Ti12 2.121196 1_655
N1 Ti12 2.121196 1_565
N1 Ti15 2.122108 1_555
N1 Ti8 2.122810 1_555
N2 Ti11 2.096320 1_555
N2 Ti0 2.100527 1_555
N2 Ti13 2.114959 1_545
N2 Ti13 2.114959 1_455
N2 Ti15 2.124634 1_545
N2 Ti15 2.124634 1_455
N3 Ti13 2.070706 1_555
N3 Ti1 2.106123 1_556
N3 Ti14 2.116109 1_565
N3 Ti14 2.116109 1_655
N3 Ti0 2.123176 1_655
N3 Ti0 2.123176 1_565
N4 Ti3 2.070706 1_555
N4 Ti16 2.106123 1_554
N4 Ti2 2.116109 1_545
N4 Ti2 2.116109 1_455
N4 Ti17 2.123176 1_455
N4 Ti17 2.123176 1_545
N5 Ti4 2.096320 1_555
N5 Ti17 2.100527 1_555
N5 Ti3 2.114959 1_565
N5 Ti3 2.114959 1_655
N5 Ti18 2.124634 1_565
N5 Ti18 2.124634 1_655
N6 Ti1 2.091385 1_555
N6 Ti19 2.099164 1_555
N6 Ti2 2.110405 1_655
N6 Ti2 2.110405 1_565
N6 Ti18 2.122694 1_655
N6 Ti18 2.122694 1_565
N7 Ti4 2.084289 1_545
N7 Ti4 2.084289 1_455
N7 Ti19 2.121196 1_455
N7 Ti19 2.121196 1_545
N7 Ti18 2.122108 1_555
N7 Ti7 2.122810 1_555
N8 Ti2 2.063646 1_555
N8 Ti5 2.115293 1_555
N8 Ti19 2.116180 1_455
N8 Ti19 2.116180 1_545
N8 Ti3 2.122921 1_655
N8 Ti3 2.122921 1_565
N9 Ti5 2.080474 1_655
N9 Ti5 2.080474 1_565
N9 Ti9 2.094074 1_555
N9 Ti7 2.129947 1_655
N9 Ti7 2.129947 1_565
N9 Ti19 2.147875 1_555
N10 Ti8 2.092861 1_555
N10 Ti4 2.108002 1_555
N10 Ti7 2.110171 1_655
N10 Ti7 2.110171 1_565
N10 Ti6 2.126342 1_655
N10 Ti6 2.126342 1_565
N11 Ti7 2.092861 1_555
N11 Ti11 2.108002 1_555
N11 Ti8 2.110171 1_455
N11 Ti8 2.110171 1_545
N11 Ti9 2.126342 1_455
N11 Ti9 2.126342 1_545
N12 Ti10 2.098268 1_555
N12 Ti5 2.098268 1_555
N12 Ti9 2.111772 1_545
N12 Ti6 2.111772 1_565
N12 Ti6 2.111772 1_655
N12 Ti9 2.111772 1_455
N13 Ti14 2.063646 1_555
N13 Ti10 2.115293 1_555
N13 Ti12 2.116180 1_565
N13 Ti12 2.116180 1_655
N13 Ti13 2.122921 1_455
N13 Ti13 2.122921 1_545
N14 Ti16 2.091385 1_555
N14 Ti12 2.099164 1_555
N14 Ti14 2.110405 1_545
N14 Ti14 2.110405 1_455
N14 Ti15 2.122694 1_545
N14 Ti15 2.122694 1_455
N15 Ti16 2.065429 1_565
N15 Ti16 2.065429 1_655
N15 Ti15 2.118218 1_555
N15 Ti17 2.129796 1_556
N15 Ti0 2.131176 1_565
N15 Ti0 2.131176 1_655
N16 Ti1 2.065429 1_545
N16 Ti1 2.065429 1_455
N16 Ti18 2.118218 1_555
N16 Ti0 2.129796 1_554
N16 Ti17 2.131176 1_455
N16 Ti17 2.131176 1_545
