# generated using pymatgen
data_Sr(Ni5P3)2
_symmetry_space_group_name_H-M   'P 1'
_cell_length_a   6.45135200
_cell_length_b   8.70320000
_cell_length_c   15.96422300
_cell_angle_alpha   90.00000000
_cell_angle_beta   90.00000000
_cell_angle_gamma   90.00000000
_symmetry_Int_Tables_number   1
_chemical_formula_structural   Sr(Ni5P3)2
_chemical_formula_sum   'Sr4 Ni40 P24'
_cell_volume   896.34972185
_cell_formula_units_Z   4
loop_
 _symmetry_equiv_pos_site_id
 _symmetry_equiv_pos_as_xyz
  1  'x, y, z'
loop_
 _atom_site_type_symbol
 _atom_site_label
 _atom_site_symmetry_multiplicity
 _atom_site_fract_x
 _atom_site_fract_y
 _atom_site_fract_z
 _atom_site_occupancy
  Sr  Sr0  1  0.25000000  0.48374300  0.75073700  1
  Sr  Sr1  1  0.25000000  0.01625700  0.25073700  1
  Sr  Sr2  1  0.75000000  0.51625700  0.24926300  1
  Sr  Sr3  1  0.75000000  0.98374300  0.74926300  1
  Ni  Ni0  1  0.25000000  0.39374900  0.29426600  1
  Ni  Ni1  1  0.94775100  0.04672200  0.42440300  1
  Ni  Ni2  1  0.25000000  0.86684500  0.70732000  1
  Ni  Ni3  1  0.75000000  0.19252000  0.96051300  1
  Ni  Ni4  1  0.05224900  0.54672200  0.07559700  1
  Ni  Ni5  1  0.99888400  0.73400700  0.91601100  1
  Ni  Ni6  1  0.45016600  0.48519100  0.42339900  1
  Ni  Ni7  1  0.54983400  0.98519100  0.07660100  1
  Ni  Ni8  1  0.75000000  0.36684500  0.79268000  1
  Ni  Ni9  1  0.95016600  0.98519100  0.07660100  1
  Ni  Ni10  1  0.25000000  0.27798500  0.94837300  1
  Ni  Ni11  1  0.25000000  0.63315500  0.20732000  1
  Ni  Ni12  1  0.75000000  0.13315500  0.29268000  1
  Ni  Ni13  1  0.75000000  0.30748000  0.46051300  1
  Ni  Ni14  1  0.25000000  0.22201500  0.44837300  1
  Ni  Ni15  1  0.00111600  0.26599300  0.08398900  1
  Ni  Ni16  1  0.94775100  0.45327800  0.92440300  1
  Ni  Ni17  1  0.99888400  0.76599300  0.41601100  1
  Ni  Ni18  1  0.25000000  0.69252000  0.53948700  1
  Ni  Ni19  1  0.00111600  0.23400700  0.58398900  1
  Ni  Ni20  1  0.55224900  0.04672200  0.42440300  1
  Ni  Ni21  1  0.25000000  0.10625100  0.79426600  1
  Ni  Ni22  1  0.05224900  0.95327800  0.57559700  1
  Ni  Ni23  1  0.50111600  0.76599300  0.41601100  1
  Ni  Ni24  1  0.44775100  0.95327800  0.57559700  1
  Ni  Ni25  1  0.50111600  0.73400700  0.91601100  1
  Ni  Ni26  1  0.44775100  0.54672200  0.07559700  1
  Ni  Ni27  1  0.75000000  0.89374900  0.20573400  1
  Ni  Ni28  1  0.49888400  0.26599300  0.08398900  1
  Ni  Ni29  1  0.55224900  0.45327800  0.92440300  1
  Ni  Ni30  1  0.75000000  0.72201500  0.05162700  1
  Ni  Ni31  1  0.04983400  0.48519100  0.42339900  1
  Ni  Ni32  1  0.75000000  0.77798500  0.55162700  1
  Ni  Ni33  1  0.45016600  0.01480900  0.92339900  1
  Ni  Ni34  1  0.54983400  0.51480900  0.57660100  1
  Ni  Ni35  1  0.95016600  0.51480900  0.57660100  1
  Ni  Ni36  1  0.04983400  0.01480900  0.92339900  1
  Ni  Ni37  1  0.75000000  0.60625100  0.70573400  1
  Ni  Ni38  1  0.49888400  0.23400700  0.58398900  1
  Ni  Ni39  1  0.25000000  0.80748000  0.03948700  1
  P  P0  1  0.25000000  0.94110200  0.45732300  1
  P  P1  1  0.25000000  0.11415700  0.65853500  1
  P  P2  1  0.75000000  0.05889800  0.54267700  1
  P  P3  1  0.75000000  0.58077700  0.45894500  1
  P  P4  1  0.50758900  0.23387300  0.85477800  1
  P  P5  1  0.25000000  0.64517900  0.34361700  1
  P  P6  1  0.99241100  0.23387300  0.85477800  1
  P  P7  1  0.00758900  0.73387300  0.64522200  1
  P  P8  1  0.49241100  0.76612700  0.14522200  1
  P  P9  1  0.25000000  0.55889800  0.95732300  1
  P  P10  1  0.75000000  0.91922300  0.95894500  1
  P  P11  1  0.75000000  0.35482100  0.65638300  1
  P  P12  1  0.25000000  0.41922300  0.54105500  1
  P  P13  1  0.49241100  0.73387300  0.64522200  1
  P  P14  1  0.75000000  0.14517900  0.15638300  1
  P  P15  1  0.25000000  0.38584300  0.15853500  1
  P  P16  1  0.99241100  0.26612700  0.35477800  1
  P  P17  1  0.75000000  0.88584300  0.34146500  1
  P  P18  1  0.50758900  0.26612700  0.35477800  1
  P  P19  1  0.75000000  0.61415700  0.84146500  1
  P  P20  1  0.25000000  0.08077700  0.04105500  1
  P  P21  1  0.00758900  0.76612700  0.14522200  1
  P  P22  1  0.75000000  0.44110200  0.04267700  1
  P  P23  1  0.25000000  0.85482100  0.84361700  1
loop_
_geom_bond_atom_site_label_1
_geom_bond_atom_site_label_2
_geom_bond_distance
_geom_bond_site_symmetry_2
Ni0 P15 2.167932 1_555
Ni0 P18 2.220017 1_555
Ni0 P16 2.220017 1_455
Ni0 P5 2.325753 1_555
Ni0 Sr1 3.358076 1_555
Ni0 Sr2 3.472455 1_455
Ni0 Sr2 3.472455 1_555
Ni1 P0 2.218862 1_645
Ni1 P16 2.228172 1_555
Ni1 P2 2.281209 1_555
Ni1 P17 2.311083 1_545
Ni1 Sr1 3.399839 1_655
Ni2 P23 2.178391 1_555
Ni2 P13 2.183526 1_555
Ni2 P7 2.183526 1_555
Ni2 P1 2.288974 1_565
Ni2 Sr0 3.405494 1_555
Ni2 Sr3 3.447957 1_555
Ni2 Sr3 3.447957 1_455
Ni3 P6 2.329059 1_555
Ni3 P4 2.329059 1_555
Ni3 P10 2.378690 1_545
Ni3 P22 2.530034 1_556
Ni4 P22 2.218862 1_455
Ni4 P21 2.228172 1_555
Ni4 P9 2.281209 1_554
Ni4 P15 2.311083 1_555
Ni4 Sr2 3.399839 1_455
Ni5 P23 2.250729 1_655
Ni5 P19 2.254407 1_555
Ni5 P9 2.319932 1_655
Ni5 P10 2.376197 1_555
Ni6 P3 2.180764 1_555
Ni6 P18 2.229861 1_555
Ni6 P5 2.286606 1_555
Ni6 P12 2.350564 1_555
Ni6 Sr2 3.397477 1_555
Ni7 P20 2.180764 1_565
Ni7 P8 2.229861 1_555
Ni7 P14 2.286606 1_565
Ni7 P10 2.350564 1_554
Ni7 Sr1 3.397477 1_565
Ni8 P11 2.178391 1_555
Ni8 P6 2.183526 1_555
Ni8 P4 2.183526 1_555
Ni8 P19 2.288974 1_555
Ni8 Sr3 3.405494 1_545
Ni8 Sr0 3.447957 1_655
Ni8 Sr0 3.447957 1_555
Ni9 P20 2.180764 1_665
Ni9 P21 2.229861 1_655
Ni9 P14 2.286606 1_565
Ni9 P10 2.350564 1_554
Ni9 Sr1 3.397477 1_665
Ni10 P20 2.266060 1_556
Ni10 P4 2.267490 1_555
Ni10 P6 2.267490 1_455
Ni10 P9 2.449014 1_555
Ni11 P5 2.178391 1_555
Ni11 P8 2.183526 1_555
Ni11 P21 2.183526 1_555
Ni11 P15 2.288974 1_555
Ni11 Sr1 3.405494 1_565
Ni11 Sr2 3.447957 1_555
Ni11 Sr2 3.447957 1_455
Ni12 P14 2.178391 1_555
Ni12 P16 2.183526 1_555
Ni12 P18 2.183526 1_555
Ni12 P17 2.288974 1_545
Ni12 Sr2 3.405494 1_555
Ni12 Sr1 3.447957 1_555
Ni12 Sr1 3.447957 1_655
Ni13 P16 2.329059 1_555
Ni13 P18 2.329059 1_555
Ni13 P3 2.378690 1_555
Ni13 P2 2.530034 1_555
Ni14 P12 2.266060 1_555
Ni14 P18 2.267490 1_555
Ni14 P16 2.267490 1_455
Ni14 P0 2.449014 1_545
Ni15 P14 2.250729 1_455
Ni15 P15 2.254407 1_555
Ni15 P22 2.319932 1_455
Ni15 P20 2.376197 1_555
Ni16 P9 2.218862 1_655
Ni16 P6 2.228172 1_555
Ni16 P22 2.281209 1_556
Ni16 P19 2.311083 1_555
Ni16 Sr0 3.399839 1_655
Ni17 P5 2.250729 1_655
Ni17 P17 2.254407 1_555
Ni17 P0 2.319932 1_655
Ni17 P3 2.376197 1_555
Ni18 P13 2.329059 1_555
Ni18 P7 2.329059 1_555
Ni18 P12 2.378690 1_555
Ni18 P0 2.530034 1_555
Ni19 P11 2.250729 1_455
Ni19 P1 2.254407 1_555
Ni19 P2 2.319932 1_455
Ni19 P12 2.376197 1_555
Ni20 P0 2.218862 1_545
Ni20 P18 2.228172 1_555
Ni20 P2 2.281209 1_555
Ni20 P17 2.311083 1_545
Ni20 Sr1 3.399839 1_555
Ni21 P1 2.167932 1_555
Ni21 P4 2.220017 1_555
Ni21 P6 2.220017 1_455
Ni21 P23 2.325753 1_545
Ni21 Sr0 3.358076 1_555
Ni21 Sr3 3.472455 1_545
Ni21 Sr3 3.472455 1_445
Ni22 P2 2.218862 1_465
Ni22 P7 2.228172 1_555
Ni22 P0 2.281209 1_555
Ni22 P1 2.311083 1_565
Ni22 Sr3 3.399839 1_455
Ni23 P5 2.250729 1_555
Ni23 P17 2.254407 1_555
Ni23 P0 2.319932 1_555
Ni23 P3 2.376197 1_555
Ni24 P2 2.218862 1_565
Ni24 P13 2.228172 1_555
Ni24 P0 2.281209 1_555
Ni24 P1 2.311083 1_565
Ni24 Sr3 3.399839 1_555
Ni25 P23 2.250729 1_555
Ni25 P19 2.254407 1_555
Ni25 P9 2.319932 1_555
Ni25 P10 2.376197 1_555
Ni26 P22 2.218862 1_555
Ni26 P8 2.228172 1_555
Ni26 P9 2.281209 1_554
Ni26 P15 2.311083 1_555
Ni26 Sr2 3.399839 1_555
Ni27 P17 2.167932 1_555
Ni27 P21 2.220017 1_655
Ni27 P8 2.220017 1_555
Ni27 P14 2.325753 1_565
Ni27 Sr2 3.358076 1_555
Ni27 Sr1 3.472455 1_565
Ni27 Sr1 3.472455 1_665
Ni28 P14 2.250729 1_555
Ni28 P15 2.254407 1_555
Ni28 P22 2.319932 1_555
Ni28 P20 2.376197 1_555
Ni29 P9 2.218862 1_555
Ni29 P4 2.228172 1_555
Ni29 P22 2.281209 1_556
Ni29 P19 2.311083 1_555
Ni29 Sr0 3.399839 1_555
Ni30 P10 2.266060 1_554
Ni30 P21 2.267490 1_655
Ni30 P8 2.267490 1_555
Ni30 P22 2.449014 1_555
Ni31 P3 2.180764 1_455
Ni31 P16 2.229861 1_455
Ni31 P5 2.286606 1_555
Ni31 P12 2.350564 1_555
Ni31 Sr2 3.397477 1_455
Ni32 P3 2.266060 1_555
Ni32 P7 2.267490 1_655
Ni32 P13 2.267490 1_555
Ni32 P2 2.449014 1_565
Ni33 P10 2.180764 1_545
Ni33 P4 2.229861 1_555
Ni33 P23 2.286606 1_545
Ni33 P20 2.350564 1_556
Ni33 Sr3 3.397477 1_545
Ni34 P12 2.180764 1_555
Ni34 P13 2.229861 1_555
Ni34 P11 2.286606 1_555
Ni34 P3 2.350564 1_555
Ni34 Sr0 3.397477 1_555
Ni35 P12 2.180764 1_655
Ni35 P7 2.229861 1_655
Ni35 P11 2.286606 1_555
Ni35 P3 2.350564 1_555
Ni35 Sr0 3.397477 1_655
Ni36 P10 2.180764 1_445
Ni36 P6 2.229861 1_455
Ni36 P23 2.286606 1_545
Ni36 P20 2.350564 1_556
Ni36 Sr3 3.397477 1_445
Ni37 P19 2.167932 1_555
Ni37 P7 2.220017 1_655
Ni37 P13 2.220017 1_555
Ni37 P11 2.325753 1_555
Ni37 Sr3 3.358076 1_555
Ni37 Sr0 3.472455 1_555
Ni37 Sr0 3.472455 1_655
Ni38 P11 2.250729 1_555
Ni38 P1 2.254407 1_555
Ni38 P2 2.319932 1_555
Ni38 P12 2.376197 1_555
Ni39 P8 2.329059 1_555
Ni39 P21 2.329059 1_555
Ni39 P20 2.378690 1_565
Ni39 P9 2.530034 1_554
P0 Sr1 3.362222 1_565
P1 Sr0 3.537369 1_555
P2 Sr3 3.362222 1_545
P3 Sr2 3.394182 1_555
P4 Sr3 3.165781 1_545
P4 Sr0 3.201477 1_555
P5 Sr1 3.553683 1_565
P6 Sr3 3.165781 1_545
P6 Sr0 3.201477 1_655
P7 Sr0 3.165781 1_555
P7 Sr3 3.201477 1_455
P8 Sr1 3.165781 1_565
P8 Sr2 3.201477 1_555
P9 Sr0 3.362222 1_555
P10 Sr3 3.394182 1_555
P11 Sr3 3.553683 1_545
P12 Sr0 3.394182 1_555
P13 Sr0 3.165781 1_555
P13 Sr3 3.201477 1_555
P14 Sr2 3.553683 1_555
P15 Sr1 3.537369 1_555
P16 Sr2 3.165781 1_555
P16 Sr1 3.201477 1_655
P17 Sr2 3.537369 1_555
P18 Sr2 3.165781 1_555
P18 Sr1 3.201477 1_555
P19 Sr3 3.537369 1_555
P20 Sr1 3.394182 1_555
P21 Sr1 3.165781 1_565
P21 Sr2 3.201477 1_455
P22 Sr2 3.362222 1_555
P23 Sr0 3.553683 1_555
