# generated using pymatgen
data_CdPbO3
_symmetry_space_group_name_H-M   'P 1'
_cell_length_a   9.08582675
_cell_length_b   9.08583667
_cell_length_c   9.08583095
_cell_angle_alpha   110.51172590
_cell_angle_beta   109.89825175
_cell_angle_gamma   108.01415580
_symmetry_Int_Tables_number   1
_chemical_formula_structural   CdPbO3
_chemical_formula_sum   'Cd8 Pb8 O24'
_cell_volume   577.09681584
_cell_formula_units_Z   8
loop_
 _symmetry_equiv_pos_site_id
 _symmetry_equiv_pos_as_xyz
  1  'x, y, z'
loop_
 _atom_site_type_symbol
 _atom_site_label
 _atom_site_symmetry_multiplicity
 _atom_site_fract_x
 _atom_site_fract_y
 _atom_site_fract_z
 _atom_site_occupancy
  Cd  Cd0  1  0.21698361  0.25000121  0.46698335  1
  Cd  Cd1  1  0.49999997  0.00000019  0.50000004  1
  Cd  Cd2  1  0.28301721  0.74999767  0.03301712  1
  Cd  Cd3  1  0.50000011  0.50000009  0.00000005  1
  Cd  Cd4  1  0.71698263  0.25000223  0.96698270  1
  Cd  Cd5  1  0.00000015  -0.00000000  0.00000005  1
  Cd  Cd6  1  0.78301642  0.74999868  0.53301660  1
  Cd  Cd7  1  -0.00000003  0.50000000  0.50000014  1
  Pb  Pb0  1  0.75000031  0.03566115  0.28566109  1
  Pb  Pb1  1  0.03251760  0.78251802  0.25000028  1
  Pb  Pb2  1  0.53251724  0.28251718  0.24999987  1
  Pb  Pb3  1  0.25000003  0.46433892  0.21433918  1
  Pb  Pb4  1  0.75000002  0.53566114  0.78566085  1
  Pb  Pb5  1  0.96748242  0.21748205  0.74999955  1
  Pb  Pb6  1  0.46748262  0.71748280  0.75000006  1
  Pb  Pb7  1  0.24999981  0.96433896  0.71433901  1
  O  O0  1  0.24687585  0.51616665  0.46511043  1
  O  O1  1  0.49819932  0.04450421  0.26673552  1
  O  O2  1  0.27776882  0.23146353  0.23326450  1
  O  O3  1  0.25312350  0.71823400  0.26929020  1
  O  O4  1  0.73615680  0.96462386  0.49080329  1
  O  O5  1  0.52617959  0.53537607  0.27153320  1
  O  O6  1  0.76384371  0.25464738  0.22846780  1
  O  O7  1  0.99819870  0.73146366  0.45369446  1
  O  O8  1  0.05105647  0.01616687  0.76929124  1
  O  O9  1  0.44894425  0.21823516  0.96511070  1
  O  O10  1  0.22223131  0.45549552  0.95369490  1
  O  O11  1  0.02617959  0.75464653  0.99080353  1
  O  O12  1  0.97382036  0.24535338  0.00919641  1
  O  O13  1  0.77776879  0.54450452  0.04630507  1
  O  O14  1  0.55105565  0.78176482  0.03488933  1
  O  O15  1  0.94894359  0.98383314  0.23070874  1
  O  O16  1  0.23615628  0.74535262  0.77153225  1
  O  O17  1  0.00180129  0.26853628  0.54630558  1
  O  O18  1  0.47382032  0.46462387  0.72846680  1
  O  O19  1  0.26384323  0.03537625  0.50919671  1
  O  O20  1  0.74687650  0.28176603  0.73070976  1
  O  O21  1  0.72223118  0.76853638  0.76673551  1
  O  O22  1  0.50180061  0.95549569  0.73326450  1
  O  O23  1  0.75312419  0.48383329  0.53488960  1
loop_
_geom_bond_atom_site_label_1
_geom_bond_atom_site_label_2
_geom_bond_distance
_geom_bond_site_symmetry_2
Cd0 O18 2.248883 1_555
Cd0 O19 2.248903 1_555
Cd0 O2 2.334088 1_555
Cd0 O17 2.334089 1_555
Cd0 O0 2.355451 1_555
Cd0 O15 2.355463 1_445
Cd1 O1 2.288385 1_555
Cd1 O22 2.288386 1_545
Cd1 O19 2.289982 1_555
Cd1 O4 2.289984 1_545
Cd1 O20 2.338013 1_555
Cd1 O3 2.338015 1_545
Cd2 O11 2.248903 1_554
Cd2 O16 2.248906 1_554
Cd2 O10 2.334072 1_554
Cd2 O1 2.334098 1_565
Cd2 O14 2.355448 1_555
Cd2 O3 2.355448 1_555
Cd3 O13 2.288382 1_555
Cd3 O10 2.288383 1_554
Cd3 O18 2.289985 1_554
Cd3 O5 2.289985 1_555
Cd3 O14 2.338009 1_555
Cd3 O9 2.338010 1_554
Cd4 O12 2.248903 1_556
Cd4 O6 2.248907 1_556
Cd4 O13 2.334072 1_556
Cd4 O22 2.334098 1_545
Cd4 O9 2.355448 1_555
Cd4 O20 2.355448 1_555
Cd5 O2 2.288380 1_555
Cd5 O21 2.288381 1_444
Cd5 O11 2.289985 1_544
Cd5 O12 2.289986 1_455
Cd5 O15 2.338010 1_445
Cd5 O8 2.338010 1_554
Cd6 O5 2.248883 1_555
Cd6 O4 2.248904 1_555
Cd6 O7 2.334088 1_555
Cd6 O21 2.334089 1_555
Cd6 O23 2.355451 1_555
Cd6 O8 2.355464 1_665
Cd7 O17 2.288390 1_555
Cd7 O7 2.288390 1_455
Cd7 O16 2.289973 1_555
Cd7 O6 2.289973 1_455
Cd7 O23 2.338010 1_455
Cd7 O0 2.338012 1_555
O0 Pb3 2.171254 1_555
O0 Pb6 2.223986 1_555
O1 Pb2 2.154673 1_555
O1 Pb0 2.264008 1_555
O2 Pb2 2.154670 1_555
O2 Pb3 2.264010 1_555
O3 Pb3 2.171256 1_555
O3 Pb1 2.223989 1_555
O4 Pb0 2.204296 1_565
O4 Pb5 2.257045 1_565
O5 Pb3 2.204294 1_555
O5 Pb2 2.257054 1_555
O6 Pb0 2.204299 1_555
O6 Pb2 2.257052 1_555
O7 Pb1 2.154671 1_655
O7 Pb7 2.264006 1_655
O8 Pb7 2.171254 1_545
O8 Pb5 2.223988 1_455
O9 Pb7 2.171257 1_545
O9 Pb2 2.223987 1_556
O10 Pb5 2.154671 1_455
O10 Pb3 2.264009 1_556
O11 Pb4 2.204292 1_455
O11 Pb1 2.257052 1_556
O12 Pb3 2.204293 1_655
O12 Pb5 2.257053 1_554
O13 Pb1 2.154671 1_655
O13 Pb4 2.264009 1_554
O14 Pb0 2.171258 1_565
O14 Pb6 2.223988 1_554
O15 Pb0 2.171254 1_565
O15 Pb1 2.223987 1_655
O16 Pb7 2.204300 1_555
O16 Pb6 2.257051 1_555
O17 Pb5 2.154669 1_455
O17 Pb0 2.264005 1_455
O18 Pb4 2.204295 1_555
O18 Pb6 2.257054 1_555
O19 Pb7 2.204297 1_545
O19 Pb1 2.257046 1_545
O20 Pb4 2.171256 1_555
O20 Pb5 2.223989 1_555
O21 Pb6 2.154671 1_555
O21 Pb4 2.264009 1_555
O22 Pb6 2.154672 1_555
O22 Pb7 2.264007 1_555
O23 Pb4 2.171254 1_555
O23 Pb2 2.223987 1_555
