# generated using pymatgen
data_V2Ni(H4O5)2
_symmetry_space_group_name_H-M   'P 1'
_cell_length_a   8.41989094
_cell_length_b   8.41989094
_cell_length_c   7.03579863
_cell_angle_alpha   72.13366892
_cell_angle_beta   72.13366892
_cell_angle_gamma   76.63979061
_symmetry_Int_Tables_number   1
_chemical_formula_structural   V2Ni(H4O5)2
_chemical_formula_sum   'V4 Ni2 H16 O20'
_cell_volume   446.65725987
_cell_formula_units_Z   2
loop_
 _symmetry_equiv_pos_site_id
 _symmetry_equiv_pos_as_xyz
  1  'x, y, z'
loop_
 _atom_site_type_symbol
 _atom_site_label
 _atom_site_symmetry_multiplicity
 _atom_site_fract_x
 _atom_site_fract_y
 _atom_site_fract_z
 _atom_site_occupancy
  V  V0  1  0.86034200  0.92656800  0.19993400  1
  V  V1  1  0.07343200  0.13965800  0.30006600  1
  V  V2  1  0.13965800  0.07343200  0.80006600  1
  V  V3  1  0.92656800  0.86034200  0.69993400  1
  Ni  Ni0  1  0.00000000  0.50000000  0.50000000  1
  Ni  Ni1  1  0.50000000  0.00000000  0.00000000  1
  H  H0  1  0.41084000  0.36570400  0.33769700  1
  H  H1  1  0.63429600  0.58916000  0.16230300  1
  H  H2  1  0.58916000  0.63429600  0.66230300  1
  H  H3  1  0.36570400  0.41084000  0.83769700  1
  H  H4  1  0.73481500  0.66385900  0.34464000  1
  H  H5  1  0.33614100  0.26518500  0.15536000  1
  H  H6  1  0.26518500  0.33614100  0.65536000  1
  H  H7  1  0.66385900  0.73481500  0.84464000  1
  H  H8  1  0.53911800  0.16437500  0.58148900  1
  H  H9  1  0.83562500  0.46088200  0.91851100  1
  H  H10  1  0.46088200  0.83562500  0.41851100  1
  H  H11  1  0.16437500  0.53911800  0.08148900  1
  H  H12  1  0.31967800  0.49403900  0.79107600  1
  H  H13  1  0.50596100  0.68032200  0.70892400  1
  H  H14  1  0.68032200  0.50596100  0.20892400  1
  H  H15  1  0.49403900  0.31967800  0.29107600  1
  O  O0  1  0.90039800  0.97799800  0.42718800  1
  O  O1  1  0.02200200  0.09960200  0.07281200  1
  O  O2  1  0.09960200  0.02200200  0.57281200  1
  O  O3  1  0.97799800  0.90039800  0.92718800  1
  O  O4  1  0.99821700  0.33822100  0.31316900  1
  O  O5  1  0.66177900  0.00178300  0.18683100  1
  O  O6  1  0.00178300  0.66177900  0.68683100  1
  O  O7  1  0.33822100  0.99821700  0.81316900  1
  O  O8  1  0.16117700  0.30647600  0.65225100  1
  O  O9  1  0.69352400  0.83882300  0.84774900  1
  O  O10  1  0.83882300  0.69352400  0.34774900  1
  O  O11  1  0.30647600  0.16117700  0.15225100  1
  O  O12  1  0.62561400  0.17304700  0.79701100  1
  O  O13  1  0.82695300  0.37438600  0.70298900  1
  O  O14  1  0.37438600  0.82695300  0.20298900  1
  O  O15  1  0.17304700  0.62561400  0.29701100  1
  O  O16  1  0.42176600  0.74794800  0.38492100  1
  O  O17  1  0.25205200  0.57823400  0.11507900  1
  O  O18  1  0.57823400  0.25205200  0.61507900  1
  O  O19  1  0.74794800  0.42176600  0.88492100  1
loop_
_geom_bond_atom_site_label_1
_geom_bond_atom_site_label_2
_geom_bond_distance
_geom_bond_site_symmetry_2
Ni0 O15 1.946742 1_555
Ni0 O13 1.946742 1_455
Ni0 O8 2.107921 1_555
Ni0 O10 2.107921 1_455
Ni0 O6 2.168842 1_555
Ni0 O4 2.168842 1_455
Ni1 O14 1.946742 1_545
Ni1 O12 1.946742 1_554
Ni1 O11 2.107921 1_555
Ni1 O9 2.107921 1_544
Ni1 O5 2.168842 1_555
Ni1 O7 2.168842 1_544
H0 H15 0.748369 1_555
H1 H14 0.748369 1_555
H4 O10 0.972613 1_555
H5 O11 0.972613 1_555
H6 O8 0.972613 1_555
H7 O9 0.972613 1_555
H8 O18 0.988174 1_555
H9 O19 0.988174 1_555
H10 O16 0.988174 1_555
H11 O17 0.988174 1_555
H12 H3 0.748369 1_555
H13 H2 0.748369 1_555
O0 V0 1.918598 1_555
O0 V3 1.924722 1_555
O0 V1 2.035992 1_665
O1 V1 1.918598 1_555
O1 V2 1.924722 1_554
O1 V0 2.035992 1_445
O2 V2 1.918598 1_555
O2 V1 1.924722 1_555
O2 V3 2.035992 1_445
O3 V3 1.918598 1_555
O3 V0 1.924722 1_556
O3 V2 2.035992 1_665
O4 V1 1.665586 1_655
O5 V0 1.665586 1_545
O6 V3 1.665586 1_455
O7 V2 1.665586 1_565
O8 V2 1.939381 1_555
O9 V3 1.939381 1_555
O10 V0 1.939381 1_555
O11 V1 1.939381 1_555
O12 O18 1.381437 1_555
O13 O19 1.381437 1_555
O14 O16 1.381437 1_555
O15 O17 1.381437 1_555
