# generated using pymatgen
data_PPbW
_symmetry_space_group_name_H-M   'P 1'
_cell_length_a   4.67701497
_cell_length_b   4.67701497
_cell_length_c   4.67701497
_cell_angle_alpha   60.00000000
_cell_angle_beta   60.00000000
_cell_angle_gamma   60.00000000
_symmetry_Int_Tables_number   1
_chemical_formula_structural   PPbW
_chemical_formula_sum   'P1 Pb1 W1'
_cell_volume   72.34212833
_cell_formula_units_Z   1
loop_
 _symmetry_equiv_pos_site_id
 _symmetry_equiv_pos_as_xyz
  1  'x, y, z'
loop_
 _atom_site_type_symbol
 _atom_site_label
 _atom_site_symmetry_multiplicity
 _atom_site_fract_x
 _atom_site_fract_y
 _atom_site_fract_z
 _atom_site_occupancy
  P  P0  1  0.75000000  0.75000000  0.75000000  1
  Pb  Pb0  1  0.50000000  0.50000000  0.50000000  1
  W  W0  1  0.25000000  0.25000000  0.25000000  1
loop_
_geom_bond_atom_site_label_1
_geom_bond_atom_site_label_2
_geom_bond_distance
_geom_bond_site_symmetry_2
P0 Pb0 2.864075 1_556
P0 Pb0 2.864075 1_655
P0 Pb0 2.864075 1_565
P0 Pb0 2.864075 1_555
P0 W0 3.307149 1_556
P0 W0 3.307149 1_656
P0 W0 3.307149 1_566
P0 W0 3.307149 1_565
P0 W0 3.307149 1_655
P0 W0 3.307149 1_665
Pb0 W0 2.864075 1_555
Pb0 W0 2.864075 1_565
Pb0 W0 2.864075 1_655
Pb0 W0 2.864075 1_556
