# generated using pymatgen
data_NaHCN2
_symmetry_space_group_name_H-M   'P 1'
_cell_length_a   3.57692500
_cell_length_b   6.51462800
_cell_length_c   10.49068000
_cell_angle_alpha   90.00000000
_cell_angle_beta   90.00000000
_cell_angle_gamma   90.00000000
_symmetry_Int_Tables_number   1
_chemical_formula_structural   NaHCN2
_chemical_formula_sum   'Na4 H4 C4 N8'
_cell_volume   244.45734770
_cell_formula_units_Z   4
loop_
 _symmetry_equiv_pos_site_id
 _symmetry_equiv_pos_as_xyz
  1  'x, y, z'
loop_
 _atom_site_type_symbol
 _atom_site_label
 _atom_site_symmetry_multiplicity
 _atom_site_fract_x
 _atom_site_fract_y
 _atom_site_fract_z
 _atom_site_occupancy
  Na  Na0  1  0.23799300  0.50000000  0.25000000  1
  Na  Na1  1  0.76200700  0.00000000  0.75000000  1
  Na  Na2  1  0.76200700  0.50000000  0.75000000  1
  Na  Na3  1  0.23799300  0.00000000  0.25000000  1
  H  H0  1  0.16067700  0.75000000  0.91651400  1
  H  H1  1  0.83932300  0.25000000  0.08348600  1
  H  H2  1  0.16067700  0.25000000  0.58348600  1
  H  H3  1  0.83932300  0.75000000  0.41651400  1
  C  C0  1  0.79101200  0.75000000  0.04660300  1
  C  C1  1  0.20898800  0.25000000  0.95339700  1
  C  C2  1  0.79101200  0.25000000  0.45339700  1
  C  C3  1  0.20898800  0.75000000  0.54660300  1
  N  N0  1  0.69619700  0.75000000  0.15663400  1
  N  N1  1  0.30380300  0.25000000  0.84336600  1
  N  N2  1  0.69619700  0.25000000  0.34336600  1
  N  N3  1  0.30380300  0.75000000  0.65663400  1
  N  N4  1  0.87575700  0.75000000  0.92815700  1
  N  N5  1  0.12424300  0.25000000  0.07184300  1
  N  N6  1  0.87575700  0.25000000  0.57184300  1
  N  N7  1  0.12424300  0.75000000  0.42815700  1
loop_
_geom_bond_atom_site_label_1
_geom_bond_atom_site_label_2
_geom_bond_distance
_geom_bond_site_symmetry_2
H0 N4 1.026431 1_455
H1 N5 1.026431 1_655
H2 N6 1.026431 1_455
H3 N7 1.026431 1_655
C0 N0 1.203091 1_555
C0 N4 1.279019 1_554
C1 N1 1.203091 1_555
C1 N5 1.279019 1_556
C2 N2 1.203091 1_555
C2 N6 1.279019 1_555
C3 N3 1.203091 1_555
C3 N7 1.279019 1_555
N0 Na0 2.509599 1_555
N0 Na3 2.509599 1_565
N0 Na0 2.714331 1_655
N0 Na3 2.714331 1_665
N1 Na1 2.509599 1_555
N1 Na2 2.509599 1_555
N1 Na1 2.714331 1_455
N1 Na2 2.714331 1_455
N2 Na0 2.509599 1_555
N2 Na3 2.509599 1_555
N2 Na3 2.714331 1_655
N2 Na0 2.714331 1_655
N3 Na1 2.509599 1_565
N3 Na2 2.509599 1_555
N3 Na1 2.714331 1_465
N3 Na2 2.714331 1_455
N4 Na2 2.512208 1_555
N4 Na1 2.512208 1_565
N5 Na3 2.512208 1_555
N5 Na0 2.512208 1_555
N6 Na2 2.512208 1_555
N6 Na1 2.512208 1_555
N7 Na3 2.512208 1_565
N7 Na0 2.512208 1_555
