# generated using pymatgen
data_NaV3H6(SO7)2
_symmetry_space_group_name_H-M   'P 1'
_cell_length_a   7.41448673
_cell_length_b   12.18172020
_cell_length_c   7.41361906
_cell_angle_alpha   72.28173196
_cell_angle_beta   59.98908246
_cell_angle_gamma   72.27991977
_symmetry_Int_Tables_number   1
_chemical_formula_structural   NaV3H6(SO7)2
_chemical_formula_sum   'Na2 V6 H12 S4 O28'
_cell_volume   542.85079655
_cell_formula_units_Z   2
loop_
 _symmetry_equiv_pos_site_id
 _symmetry_equiv_pos_as_xyz
  1  'x, y, z'
loop_
 _atom_site_type_symbol
 _atom_site_label
 _atom_site_symmetry_multiplicity
 _atom_site_fract_x
 _atom_site_fract_y
 _atom_site_fract_z
 _atom_site_occupancy
  Na  Na0  1  0.00001100  0.99999200  0.99996400  1
  Na  Na1  1  0.49999800  0.49998500  0.50004200  1
  V  V0  1  0.75000100  0.24999000  0.25004500  1
  V  V1  1  0.74996600  0.24998400  0.75003600  1
  V  V2  1  0.24999700  0.24998300  0.74998900  1
  V  V3  1  0.25001900  0.75000000  0.75002400  1
  V  V4  1  0.24997700  0.74999300  0.25002300  1
  V  V5  1  0.75001000  0.74999300  0.24998200  1
  H  H0  1  0.55710700  0.15795200  0.14245400  1
  H  H1  1  0.05709800  0.65794100  0.64253500  1
  H  H2  1  0.14246600  0.15788200  0.55717600  1
  H  H3  1  0.64250200  0.65795400  0.05706300  1
  H  H4  1  0.14249700  0.15800100  0.14245700  1
  H  H5  1  0.64249200  0.65794100  0.64249700  1
  H  H6  1  0.94283500  0.34205000  0.35759400  1
  H  H7  1  0.44286700  0.84207000  0.85750200  1
  H  H8  1  0.35754300  0.34212200  0.94275100  1
  H  H9  1  0.85751000  0.84205200  0.44287500  1
  H  H10  1  0.35755500  0.34200200  0.35754200  1
  H  H11  1  0.85756900  0.84205800  0.85750400  1
  S  S0  1  0.15496900  0.53514300  0.15497200  1
  S  S1  1  0.65495500  0.03518900  0.65493600  1
  S  S2  1  0.34503000  0.96486700  0.34501500  1
  S  S3  1  0.84504600  0.46480700  0.84505700  1
  O  O0  1  0.19812500  0.40566400  0.19817600  1
  O  O1  1  0.69811700  0.90571600  0.69810900  1
  O  O2  1  0.30186900  0.09435500  0.30180800  1
  O  O3  1  0.80188200  0.59428900  0.80187500  1
  O  O4  1  0.25049700  0.57829800  0.92081200  1
  O  O5  1  0.75044500  0.07837200  0.42080100  1
  O  O6  1  0.25040500  0.57830700  0.25046300  1
  O  O7  1  0.75040400  0.07834000  0.75041800  1
  O  O8  1  0.92083900  0.57830000  0.25048500  1
  O  O9  1  0.42084200  0.07834800  0.75043500  1
  O  O10  1  0.24952600  0.92170700  0.57917700  1
  O  O11  1  0.74957500  0.42161300  0.07919600  1
  O  O12  1  0.24958900  0.92168800  0.24954600  1
  O  O13  1  0.74959000  0.42163700  0.74959700  1
  O  O14  1  0.57916000  0.92169800  0.24949900  1
  O  O15  1  0.07916200  0.42163100  0.74955200  1
  O  O16  1  0.81956400  0.30232300  0.43907500  1
  O  O17  1  0.31959400  0.80233500  0.93902100  1
  O  O18  1  0.43902700  0.30241500  0.81943700  1
  O  O19  1  0.93902900  0.80231300  0.31958900  1
  O  O20  1  0.43905000  0.30225200  0.43902500  1
  O  O21  1  0.93904600  0.80231300  0.93901800  1
  O  O22  1  0.68043500  0.19763600  0.06098400  1
  O  O23  1  0.18041500  0.69764200  0.56102100  1
  O  O24  1  0.06095900  0.19754000  0.68055800  1
  O  O25  1  0.56097600  0.69765800  0.18039700  1
  O  O26  1  0.06096100  0.19770700  0.06099900  1
  O  O27  1  0.56099400  0.69765600  0.56099100  1
loop_
_geom_bond_atom_site_label_1
_geom_bond_atom_site_label_2
_geom_bond_distance
_geom_bond_site_symmetry_2
Na0 O24 2.779500 1_565
Na0 O22 2.780973 1_466
Na0 O17 2.781104 1_555
Na0 O19 2.781370 1_456
Na0 O21 2.781449 1_455
Na0 O26 2.782150 1_566
Na0 O10 3.004546 1_555
Na0 O14 3.005337 1_456
Na0 O5 3.005369 1_466
Na0 O9 3.005551 1_565
Na0 O7 3.005614 1_465
Na0 O12 3.005687 1_556
Na1 O18 2.779634 1_555
Na1 O16 2.781080 1_555
Na1 O23 2.781103 1_555
Na1 O25 2.781397 1_555
Na1 O27 2.781482 1_555
Na1 O20 2.782286 1_555
Na1 O4 3.004594 1_555
Na1 O11 3.005381 1_555
Na1 O8 3.005390 1_555
Na1 O15 3.005571 1_555
Na1 O13 3.005577 1_555
Na1 O6 3.005748 1_555
H0 O22 0.986681 1_555
H1 O23 0.986739 1_555
H2 O24 0.986699 1_555
H3 O25 0.986753 1_555
H4 O26 0.986680 1_555
H5 O27 0.986750 1_555
H6 O16 0.986662 1_555
H7 O17 0.986731 1_555
H8 O18 0.986660 1_555
H9 O19 0.986729 1_555
H10 O20 0.986652 1_555
H11 O21 0.986719 1_555
O0 S0 1.476677 1_555
O1 S1 1.476609 1_565
O2 S2 1.476780 1_545
O3 S3 1.476712 1_555
O4 S0 1.494271 1_556
O4 V3 2.089515 1_555
O5 S1 1.494168 1_555
O5 V0 2.088609 1_555
O6 S0 1.494165 1_555
O6 V4 2.089479 1_555
O7 S1 1.494088 1_555
O7 V1 2.089075 1_555
O8 S0 1.494233 1_655
O8 V5 2.089525 1_555
O9 S1 1.494133 1_555
O9 V2 2.088984 1_555
O10 S2 1.494292 1_555
O10 V3 2.089697 1_555
O11 S3 1.494211 1_554
O11 V0 2.088867 1_555
O12 S2 1.494179 1_555
O12 V4 2.089595 1_555
O13 S3 1.494145 1_555
O13 V1 2.089196 1_555
O14 S2 1.494253 1_555
O14 V5 2.089691 1_555
O15 S3 1.494181 1_455
O15 V2 2.089091 1_555
O16 V1 2.025591 1_555
O16 V0 2.025669 1_555
O17 V3 2.025522 1_555
O17 V4 2.025840 1_556
O18 V2 2.025919 1_555
O18 V1 2.026046 1_555
O19 V4 2.025777 1_655
O19 V5 2.025843 1_555
O20 V0 2.025321 1_555
O20 V2 2.025404 1_555
O21 V5 2.025488 1_556
O21 V3 2.025568 1_655
O22 V1 2.025617 1_554
O22 V0 2.026049 1_555
O23 V3 2.025881 1_555
O23 V4 2.025907 1_555
O24 V2 2.025967 1_555
O24 V1 2.026295 1_455
O25 V5 2.025941 1_555
O25 V4 2.026034 1_555
O26 V0 2.025520 1_455
O26 V2 2.025630 1_554
O27 V3 2.025709 1_555
O27 V5 2.025725 1_555
