# generated using pymatgen
data_Al2Si(O2F)2
_symmetry_space_group_name_H-M   'P 1'
_cell_length_a   4.70801500
_cell_length_b   8.49746300
_cell_length_c   8.88879200
_cell_angle_alpha   90.00000000
_cell_angle_beta   90.00000000
_cell_angle_gamma   90.00000000
_symmetry_Int_Tables_number   1
_chemical_formula_structural   Al2Si(O2F)2
_chemical_formula_sum   'Al8 Si4 O16 F8'
_cell_volume   355.60664176
_cell_formula_units_Z   4
loop_
 _symmetry_equiv_pos_site_id
 _symmetry_equiv_pos_as_xyz
  1  'x, y, z'
loop_
 _atom_site_type_symbol
 _atom_site_label
 _atom_site_symmetry_multiplicity
 _atom_site_fract_x
 _atom_site_fract_y
 _atom_site_fract_z
 _atom_site_occupancy
  Al  Al0  1  0.09716000  0.91675800  0.13049400  1
  Al  Al1  1  0.59716000  0.08324200  0.36950600  1
  Al  Al2  1  0.90284000  0.41675800  0.86950600  1
  Al  Al3  1  0.40284000  0.58324200  0.63049400  1
  Al  Al4  1  0.59716000  0.41675800  0.36950600  1
  Al  Al5  1  0.09716000  0.58324200  0.13049400  1
  Al  Al6  1  0.40284000  0.91675800  0.63049400  1
  Al  Al7  1  0.90284000  0.08324200  0.86950600  1
  Si  Si0  1  0.60365500  0.75000000  0.93994800  1
  Si  Si1  1  0.10365500  0.25000000  0.56005200  1
  Si  Si2  1  0.39634500  0.25000000  0.06005200  1
  Si  Si3  1  0.89634500  0.75000000  0.43994800  1
  O  O0  1  0.45992700  0.25000000  0.24404200  1
  O  O1  1  0.79157600  0.59285300  0.98851700  1
  O  O2  1  0.70842400  0.90714700  0.48851700  1
  O  O3  1  0.20842400  0.09285300  0.01148300  1
  O  O4  1  0.95992700  0.75000000  0.25595800  1
  O  O5  1  0.29157600  0.40714700  0.51148300  1
  O  O6  1  0.04007300  0.25000000  0.74404200  1
  O  O7  1  0.54007300  0.75000000  0.75595800  1
  O  O8  1  0.70842400  0.59285300  0.48851700  1
  O  O9  1  0.20842400  0.40714700  0.01148300  1
  O  O10  1  0.29157600  0.09285300  0.51148300  1
  O  O11  1  0.79157600  0.90714700  0.98851700  1
  O  O12  1  0.20126300  0.75000000  0.53269700  1
  O  O13  1  0.70126300  0.25000000  0.96730300  1
  O  O14  1  0.79873700  0.25000000  0.46730300  1
  O  O15  1  0.29873700  0.75000000  0.03269700  1
  F  F0  1  0.09866700  0.94432200  0.75239500  1
  F  F1  1  0.59866700  0.05567800  0.74760500  1
  F  F2  1  0.59866700  0.44432200  0.74760500  1
  F  F3  1  0.40133300  0.55567800  0.25239500  1
  F  F4  1  0.90133300  0.05567800  0.24760500  1
  F  F5  1  0.40133300  0.94432200  0.25239500  1
  F  F6  1  0.09866700  0.55567800  0.75239500  1
  F  F7  1  0.90133300  0.44432200  0.24760500  1
loop_
_geom_bond_atom_site_label_1
_geom_bond_atom_site_label_2
_geom_bond_distance
_geom_bond_site_symmetry_2
Al0 F5 1.810999 1_555
Al0 F4 1.824044 1_465
Al0 O3 1.905931 1_565
Al0 O15 1.914230 1_555
Al0 O4 1.915491 1_455
Al0 O11 1.915506 1_454
Al1 F4 1.810999 1_555
Al1 F5 1.824044 1_545
Al1 O2 1.905931 1_545
Al1 O14 1.914230 1_555
Al1 O0 1.915491 1_555
Al1 O10 1.915506 1_555
Al2 F2 1.810999 1_555
Al2 F6 1.824044 1_655
Al2 O1 1.905931 1_555
Al2 O13 1.914230 1_555
Al2 O6 1.915491 1_655
Al2 O9 1.915506 1_656
Al3 F6 1.810999 1_555
Al3 F2 1.824044 1_555
Al3 O5 1.905931 1_555
Al3 O12 1.914230 1_555
Al3 O7 1.915491 1_555
Al3 O8 1.915506 1_555
Al4 F7 1.810999 1_555
Al4 F3 1.824044 1_555
Al4 O8 1.905931 1_555
Al4 O14 1.914230 1_555
Al4 O0 1.915491 1_555
Al4 O5 1.915506 1_555
Al5 F3 1.810999 1_555
Al5 F7 1.824044 1_455
Al5 O9 1.905931 1_555
Al5 O15 1.914230 1_555
Al5 O4 1.915491 1_455
Al5 O1 1.915506 1_454
Al6 F0 1.810999 1_555
Al6 F1 1.824044 1_565
Al6 O10 1.905931 1_565
Al6 O12 1.914230 1_555
Al6 O7 1.915491 1_555
Al6 O2 1.915506 1_555
Al7 F1 1.810999 1_555
Al7 F0 1.824044 1_645
Al7 O11 1.905931 1_545
Al7 O13 1.914230 1_555
Al7 O6 1.915491 1_655
Al7 O3 1.915506 1_656
O0 Si2 1.662619 1_555
O1 Si0 1.659006 1_555
O2 Si3 1.659006 1_555
O3 Si2 1.659006 1_555
O4 Si3 1.662619 1_555
O5 Si1 1.659006 1_555
O6 Si1 1.662619 1_555
O7 Si0 1.662619 1_555
O8 Si3 1.659006 1_555
O9 Si2 1.659006 1_555
O10 Si1 1.659006 1_555
O11 Si0 1.659006 1_555
O12 Si3 1.655448 1_455
O13 Si2 1.655448 1_556
O14 Si1 1.655448 1_655
O15 Si0 1.655448 1_554
