# generated using pymatgen
data_CdH2(CO2)2
_symmetry_space_group_name_H-M   'P 1'
_cell_length_a   6.82855452
_cell_length_b   6.82855452
_cell_length_c   12.62119160
_cell_angle_alpha   69.69271005
_cell_angle_beta   69.69271005
_cell_angle_gamma   55.50210222
_symmetry_Int_Tables_number   1
_chemical_formula_structural   CdH2(CO2)2
_chemical_formula_sum   'Cd4 H8 C8 O16'
_cell_volume   446.17110715
_cell_formula_units_Z   4
loop_
 _symmetry_equiv_pos_site_id
 _symmetry_equiv_pos_as_xyz
  1  'x, y, z'
loop_
 _atom_site_type_symbol
 _atom_site_label
 _atom_site_symmetry_multiplicity
 _atom_site_fract_x
 _atom_site_fract_y
 _atom_site_fract_z
 _atom_site_occupancy
  Cd  Cd0  1  0.17570000  0.19301000  0.44946000  1
  Cd  Cd1  1  0.80699000  0.82430000  0.05054000  1
  Cd  Cd2  1  0.82430000  0.80699000  0.55054000  1
  Cd  Cd3  1  0.19301000  0.17570000  0.94946000  1
  H  H0  1  0.82810600  0.93015400  0.27362000  1
  H  H1  1  0.06984600  0.17189400  0.22638000  1
  H  H2  1  0.17189400  0.06984600  0.72638000  1
  H  H3  1  0.93015400  0.82810600  0.77362000  1
  H  H4  1  0.44719000  0.49634300  0.63791700  1
  H  H5  1  0.50365700  0.55281000  0.86208300  1
  H  H6  1  0.55281000  0.50365700  0.36208300  1
  H  H7  1  0.49634300  0.44719000  0.13791700  1
  C  C0  1  0.93364500  0.73018700  0.28878200  1
  C  C1  1  0.26981300  0.06635500  0.21121800  1
  C  C2  1  0.06635500  0.26981300  0.71121800  1
  C  C3  1  0.73018700  0.93364500  0.78878200  1
  C  C4  1  0.36773300  0.68713600  0.59128300  1
  C  C5  1  0.31286400  0.63226700  0.90871700  1
  C  C6  1  0.63226700  0.31286400  0.40871700  1
  C  C7  1  0.68713600  0.36773300  0.09128300  1
  O  O0  1  0.99485300  0.62295900  0.38738900  1
  O  O1  1  0.37704100  0.00514700  0.11261100  1
  O  O2  1  0.00514700  0.37704100  0.61261100  1
  O  O3  1  0.62295900  0.99485300  0.88738900  1
  O  O4  1  0.98616200  0.62174000  0.21128100  1
  O  O5  1  0.37826000  0.01383800  0.28871900  1
  O  O6  1  0.01383800  0.37826000  0.78871900  1
  O  O7  1  0.62174000  0.98616200  0.71128100  1
  O  O8  1  0.17245400  0.78534700  0.55660800  1
  O  O9  1  0.21465300  0.82754600  0.94339200  1
  O  O10  1  0.82754600  0.21465300  0.44339200  1
  O  O11  1  0.78534700  0.17245500  0.05660800  1
  O  O12  1  0.47091800  0.80513700  0.57369700  1
  O  O13  1  0.19486300  0.52908200  0.92630300  1
  O  O14  1  0.52908200  0.19486300  0.42630300  1
  O  O15  1  0.80513700  0.47091800  0.07369700  1
loop_
_geom_bond_atom_site_label_1
_geom_bond_atom_site_label_2
_geom_bond_distance
_geom_bond_site_symmetry_2
Cd0 O5 2.320359 1_555
Cd0 O10 2.323835 1_455
Cd0 O14 2.334751 1_555
Cd0 O2 2.376850 1_555
Cd0 O0 2.393017 1_455
Cd0 O12 2.607860 1_545
Cd0 O8 2.648515 1_545
Cd1 O4 2.320359 1_555
Cd1 O11 2.323842 1_565
Cd1 O15 2.334751 1_555
Cd1 O3 2.376850 1_554
Cd1 O1 2.393017 1_565
Cd1 O13 2.607860 1_654
Cd1 O9 2.648515 1_654
Cd2 O7 2.320359 1_555
Cd2 O8 2.323835 1_655
Cd2 O12 2.334751 1_555
Cd2 O0 2.376850 1_555
Cd2 O2 2.393017 1_655
Cd2 O14 2.607860 1_565
Cd2 O10 2.648515 1_565
Cd3 O6 2.320359 1_555
Cd3 O9 2.323835 1_545
Cd3 O13 2.334751 1_555
Cd3 O1 2.376850 1_556
Cd3 O3 2.393017 1_545
Cd3 O15 2.607860 1_456
Cd3 O11 2.648512 1_456
C0 H0 1.104620 1_555
C0 O4 1.261851 1_555
C0 O0 1.281239 1_555
C1 H1 1.104620 1_555
C1 O5 1.261851 1_555
C1 O1 1.281239 1_555
C2 H2 1.104620 1_555
C2 O6 1.261851 1_555
C2 O2 1.281239 1_555
C3 H3 1.104620 1_555
C3 O7 1.261851 1_555
C3 O3 1.281239 1_555
C4 H4 1.107645 1_555
C4 O12 1.267059 1_555
C4 O8 1.267986 1_555
C5 H5 1.107645 1_555
C5 O13 1.267059 1_555
C5 O9 1.267986 1_555
C6 H6 1.107645 1_555
C6 O14 1.267059 1_555
C6 O10 1.267986 1_555
C7 H7 1.107645 1_555
C7 O15 1.267059 1_555
C7 O11 1.267980 1_555
