# generated using pymatgen
data_Ba7(Al3Te8)2
_symmetry_space_group_name_H-M   'P 1'
_cell_length_a   7.01628200
_cell_length_b   7.03713280
_cell_length_c   45.94332549
_cell_angle_alpha   89.46523187
_cell_angle_beta   89.48720311
_cell_angle_gamma   68.38139366
_symmetry_Int_Tables_number   1
_chemical_formula_structural   Ba7(Al3Te8)2
_chemical_formula_sum   'Ba14 Al12 Te32'
_cell_volume   2108.73183184
_cell_formula_units_Z   2
loop_
 _symmetry_equiv_pos_site_id
 _symmetry_equiv_pos_as_xyz
  1  'x, y, z'
loop_
 _atom_site_type_symbol
 _atom_site_label
 _atom_site_symmetry_multiplicity
 _atom_site_fract_x
 _atom_site_fract_y
 _atom_site_fract_z
 _atom_site_occupancy
  Ba  Ba0  1  0.26193600  0.76100400  0.99929500  1
  Ba  Ba1  1  0.76293500  0.26155700  0.24742400  1
  Ba  Ba2  1  0.74751900  0.24289000  0.12686600  1
  Ba  Ba3  1  0.21168000  0.71950800  0.36656100  1
  Ba  Ba4  1  0.24442400  0.74448300  0.24767200  1
  Ba  Ba5  1  0.74917800  0.25524400  0.49977100  1
  Ba  Ba6  1  0.78122200  0.28977800  0.36610800  1
  Ba  Ba7  1  0.24469500  0.75019600  0.62433000  1
  Ba  Ba8  1  0.24403200  0.74943300  0.50021500  1
  Ba  Ba9  1  0.74150800  0.24341900  0.74929100  1
  Ba  Ba10  1  0.74911000  0.25474300  0.62486700  1
  Ba  Ba11  1  0.27361900  0.78343800  0.88534700  1
  Ba  Ba12  1  0.25683300  0.75738800  0.74974900  1
  Ba  Ba13  1  0.70949500  0.21589300  0.88568800  1
  Al  Al0  1  0.50376000  0.99771100  0.06252500  1
  Al  Al1  1  0.01676500  0.50257900  0.18585300  1
  Al  Al2  1  0.48037900  0.02109100  0.43542100  1
  Al  Al3  1  0.49854100  0.00374800  0.31214600  1
  Al  Al4  1  0.00114600  0.50107100  0.56399800  1
  Al  Al5  1  0.00410500  0.49542400  0.43868700  1
  Al  Al6  1  0.50193300  0.00067000  0.68655000  1
  Al  Al7  1  0.50051400  0.99844400  0.56292100  1
  Al  Al8  1  0.98164100  0.51888400  0.81419900  1
  Al  Al9  1  0.00160200  0.49758400  0.68654500  1
  Al  Al10  1  0.50192400  0.99506000  0.81160800  1
  Al  Al11  1  0.98934700  0.48949600  0.93906200  1
  Te  Te0  1  0.21899600  0.27504900  0.03173800  1
  Te  Te1  1  0.76383000  0.72775300  0.14689800  1
  Te  Te2  1  0.64634300  0.60067100  0.06266800  1
  Te  Te3  1  0.90115400  0.85650000  0.06498500  1
  Te  Te4  1  0.29447100  0.20983500  0.26779500  1
  Te  Te5  1  0.07678300  0.11208900  0.18531200  1
  Te  Te6  1  0.40979200  0.44005000  0.18562800  1
  Te  Te7  1  0.23438800  0.27295700  0.09486000  1
  Te  Te8  1  0.75694200  0.74212700  0.39800800  1
  Te  Te9  1  0.53394100  0.61510600  0.31043500  1
  Te  Te10  1  0.88838500  0.96665600  0.31055400  1
  Te  Te11  1  0.77100400  0.73809500  0.22643500  1
  Te  Te12  1  0.28327500  0.21554800  0.51818500  1
  Te  Te13  1  0.05303400  0.09136300  0.43754800  1
  Te  Te14  1  0.40770400  0.44870000  0.43729500  1
  Te  Te15  1  0.32644300  0.17362300  0.36361900  1
  Te  Te16  1  0.78331600  0.71594300  0.64176500  1
  Te  Te17  1  0.53273400  0.60614600  0.56256900  1
  Te  Te18  1  0.89111100  0.97188000  0.56261600  1
  Te  Te19  1  0.76432900  0.73520800  0.48145400  1
  Te  Te20  1  0.25429600  0.24480100  0.76918900  1
  Te  Te21  1  0.03351300  0.10522300  0.68718200  1
  Te  Te22  1  0.39231500  0.47141900  0.68719100  1
  Te  Te23  1  0.29050600  0.20853800  0.60873700  1
  Te  Te24  1  0.81668900  0.67155200  0.88731800  1
  Te  Te25  1  0.56505700  0.58012100  0.81240900  1
  Te  Te26  1  0.91284700  0.93894400  0.81242200  1
  Te  Te27  1  0.79178600  0.70757800  0.73216900  1
  Te  Te28  1  0.02287300  0.10319900  0.94123000  1
  Te  Te29  1  0.37858100  0.44952500  0.94005400  1
  Te  Te30  1  0.24934800  0.24570000  0.85200700  1
  Te  Te31  1  0.79437500  0.70736100  0.98202700  1
loop_
_geom_bond_atom_site_label_1
_geom_bond_atom_site_label_2
_geom_bond_distance
_geom_bond_site_symmetry_2
Ba0 Te29 3.410538 1_555
Ba0 Te31 3.535326 1_455
Ba0 Te28 3.565502 1_565
Ba0 Te31 3.693385 1_555
Ba0 Te3 3.823009 1_456
Ba0 Te0 3.829232 1_556
Ba0 Te0 3.832445 1_566
Ba0 Te2 3.855069 1_556
Ba1 Te10 3.475795 1_545
Ba1 Te11 3.501049 1_555
Ba1 Te5 3.512183 1_655
Ba1 Te4 3.554161 1_555
Ba1 Te6 3.680167 1_555
Ba1 Te4 3.738019 1_655
Ba1 Te9 3.775949 1_555
Ba1 Te11 3.796602 1_545
Ba2 Te5 3.448572 1_655
Ba2 Te6 3.515867 1_555
Ba2 Te1 3.584746 1_555
Ba2 Te1 3.692599 1_545
Ba2 Te2 3.758225 1_555
Ba2 Te7 3.783254 1_655
Ba2 Te3 3.816782 1_545
Ba2 Te7 3.833618 1_555
Ba3 Te9 3.317895 1_555
Ba3 Te8 3.440934 1_455
Ba3 Te10 3.450397 1_455
Ba3 Te15 3.572810 1_565
Ba3 Te15 3.626570 1_555
Ba3 Te14 3.757305 1_555
Ba3 Te13 4.083044 1_565
Ba4 Te9 3.458775 1_555
Ba4 Te11 3.486576 1_455
Ba4 Te6 3.504915 1_555
Ba4 Te4 3.551284 1_565
Ba4 Te5 3.736815 1_565
Ba4 Te4 3.755130 1_555
Ba4 Te10 3.756113 1_455
Ba4 Te11 3.797136 1_555
Ba5 Te18 3.432977 1_545
Ba5 Te12 3.478283 1_555
Ba5 Te13 3.491171 1_655
Ba5 Te19 3.512461 1_555
Ba5 Te14 3.671414 1_555
Ba5 Te19 3.725738 1_545
Ba5 Te17 3.744240 1_555
Ba5 Te12 3.757334 1_655
Ba6 Te10 3.326313 1_545
Ba6 Te9 3.440510 1_555
Ba6 Te8 3.463096 1_555
Ba6 Te15 3.576720 1_555
Ba6 Te15 3.606236 1_655
Ba6 Te13 3.797867 1_655
Ba6 Te14 4.070708 1_555
Ba7 Te17 3.406583 1_555
Ba7 Te16 3.421099 1_455
Ba7 Te22 3.422389 1_555
Ba7 Te23 3.425855 1_565
Ba7 Te18 3.717397 1_455
Ba7 Te21 3.755808 1_565
Ba7 Te23 3.780187 1_555
Ba7 Te16 3.789568 1_555
Ba8 Te17 3.445515 1_555
Ba8 Te12 3.498096 1_565
Ba8 Te19 3.518937 1_455
Ba8 Te14 3.523909 1_555
Ba8 Te13 3.665898 1_565
Ba8 Te19 3.708841 1_555
Ba8 Te18 3.728492 1_455
Ba8 Te12 3.749207 1_555
Ba9 Te21 3.429976 1_655
Ba9 Te27 3.494051 1_555
Ba9 Te20 3.527198 1_555
Ba9 Te26 3.535122 1_545
Ba9 Te25 3.668582 1_555
Ba9 Te22 3.722924 1_555
Ba9 Te20 3.723611 1_655
Ba9 Te27 3.745972 1_545
Ba10 Te18 3.424697 1_545
Ba10 Te21 3.432841 1_655
Ba10 Te16 3.437743 1_555
Ba10 Te23 3.438977 1_555
Ba10 Te17 3.713665 1_555
Ba10 Te22 3.732464 1_555
Ba10 Te23 3.758747 1_655
Ba10 Te16 3.783447 1_545
Ba11 Te29 3.320982 1_555
Ba11 Te28 3.443879 1_565
Ba11 Te30 3.529976 1_565
Ba11 Te24 3.572072 1_455
Ba11 Te24 3.597358 1_555
Ba11 Te25 3.907521 1_555
Ba11 Te26 4.107610 1_455
Ba12 Te22 3.444335 1_555
Ba12 Te27 3.509550 1_455
Ba12 Te20 3.546090 1_565
Ba12 Te25 3.546411 1_555
Ba12 Te26 3.663395 1_455
Ba12 Te20 3.714348 1_555
Ba12 Te21 3.719246 1_565
Ba12 Te27 3.720844 1_555
Ba13 Te28 3.279149 1_655
Ba13 Te29 3.390079 1_555
Ba13 Te30 3.527919 1_555
Ba13 Te24 3.554664 1_555
Ba13 Te24 3.621814 1_545
Ba13 Te26 3.892565 1_545
Ba13 Te25 4.113047 1_555
Ba13 Te30 4.154526 1_655
Al0 Te3 2.595458 1_555
Al0 Te2 2.597610 1_555
Al0 Te7 2.614714 1_565
Al0 Te0 2.631995 1_565
Al1 Te1 2.606768 1_455
Al1 Te5 2.622498 1_555
Al1 Te6 2.627450 1_555
Al1 Te11 2.662843 1_455
Al2 Te8 2.787480 1_545
Al2 Te13 2.854371 1_555
Al2 Te14 2.862828 1_555
Al2 Te19 3.087390 1_545
Al3 Te4 2.602360 1_555
Al3 Te10 2.650622 1_545
Al3 Te9 2.655337 1_545
Al3 Te15 2.723526 1_555
Al4 Te12 3.075613 1_555
Al4 Te23 3.082312 1_555
Al4 Te17 3.092656 1_455
Al4 Te18 3.112745 1_455
Al5 Te8 2.700600 1_455
Al5 Te14 2.728033 1_555
Al5 Te19 2.729320 1_455
Al5 Te13 2.736580 1_555
Al6 Te16 3.038982 1_545
Al6 Te21 3.092022 1_555
Al6 Te27 3.112476 1_545
Al6 Te22 3.112966 1_555
Al7 Te12 2.676429 1_565
Al7 Te18 2.677231 1_555
Al7 Te23 2.680504 1_565
Al7 Te17 2.685792 1_555
Al8 Te30 2.752525 1_655
Al8 Te25 2.794847 1_555
Al8 Te26 2.814701 1_555
Al8 Te20 2.990125 1_655
Al9 Te27 2.672871 1_455
Al9 Te22 2.679407 1_555
Al9 Te16 2.683801 1_455
Al9 Te21 2.686583 1_555
Al10 Te30 2.719463 1_565
Al10 Te26 2.762720 1_555
Al10 Te20 2.766250 1_565
Al10 Te25 2.787306 1_555
Al11 Te31 2.565374 1_555
Al11 Te29 2.641095 1_655
Al11 Te28 2.641830 1_655
Al11 Te24 2.758893 1_555
Te0 Te7 2.902709 1_555
Te2 Te3 2.971091 1_555
