# generated using pymatgen
data_Ti3H2O7
_symmetry_space_group_name_H-M   'P 1'
_cell_length_a   8.46296861
_cell_length_b   8.46296861
_cell_length_c   9.28372420
_cell_angle_alpha   77.45117415
_cell_angle_beta   77.45117415
_cell_angle_gamma   25.87488161
_symmetry_Int_Tables_number   1
_chemical_formula_structural   Ti3H2O7
_chemical_formula_sum   'Ti6 H4 O14'
_cell_volume   282.87240976
_cell_formula_units_Z   2
loop_
 _symmetry_equiv_pos_site_id
 _symmetry_equiv_pos_as_xyz
  1  'x, y, z'
loop_
 _atom_site_type_symbol
 _atom_site_label
 _atom_site_symmetry_multiplicity
 _atom_site_fract_x
 _atom_site_fract_y
 _atom_site_fract_z
 _atom_site_occupancy
  Ti  Ti0  1  0.77846000  0.77846000  0.22189900  1
  Ti  Ti1  1  0.23068400  0.23068400  0.78940400  1
  Ti  Ti2  1  0.82902300  0.82902300  0.52982700  1
  Ti  Ti3  1  0.17365100  0.17365100  0.47258500  1
  Ti  Ti4  1  0.88225800  0.88225800  0.82473300  1
  Ti  Ti5  1  0.10449400  0.10449400  0.18245000  1
  H  H0  1  0.93415100  0.93415100  0.24172000  1
  H  H1  1  0.07409900  0.07409900  0.74976700  1
  H  H2  1  0.99651100  0.99651100  0.96343000  1
  H  H3  1  0.67762100  0.67762100  0.05373800  1
  O  O0  1  0.82763100  0.82763100  0.03455500  1
  O  O1  1  0.17055500  0.17055500  0.97125100  1
  O  O2  1  0.87048600  0.87048600  0.31612800  1
  O  O3  1  0.13414100  0.13414100  0.68619600  1
  O  O4  1  0.91608500  0.91608500  0.60949100  1
  O  O5  1  0.08463400  0.08463400  0.38989300  1
  O  O6  1  0.98835900  0.98835900  0.85889900  1
  O  O7  1  0.00621900  0.00621900  0.14678100  1
  O  O8  1  0.65183700  0.65183700  0.16075900  1
  O  O9  1  0.34751000  0.34751000  0.82211900  1
  O  O10  1  0.70630400  0.70630400  0.45154700  1
  O  O11  1  0.29279600  0.29279600  0.54757800  1
  O  O12  1  0.75678300  0.75678300  0.75008600  1
  O  O13  1  0.24609700  0.24609700  0.25719900  1
loop_
_geom_bond_atom_site_label_1
_geom_bond_atom_site_label_2
_geom_bond_distance
_geom_bond_site_symmetry_2
H0 O2 1.121031 1_555
H0 O7 1.312641 1_665
H1 O3 1.033783 1_555
H1 O6 1.545335 1_445
H2 O6 1.008969 1_555
H3 O8 0.989769 1_555
O0 Ti0 1.747549 1_555
O0 Ti4 1.955464 1_554
O1 Ti1 1.757082 1_555
O1 Ti5 2.019728 1_556
O2 Ti0 1.913626 1_555
O2 Ti2 1.949041 1_555
O3 Ti3 1.944537 1_555
O3 Ti1 2.033421 1_555
O4 Ti2 1.755912 1_555
O4 Ti4 1.951209 1_555
O5 Ti3 1.802308 1_555
O5 Ti5 1.880132 1_555
O6 Ti4 1.847047 1_555
O7 Ti5 1.725458 1_555
O8 Ti5 2.042165 1_565
O8 Ti5 2.042165 1_655
O8 Ti0 2.283401 1_555
O9 Ti4 1.981272 1_455
O9 Ti4 1.981272 1_545
O9 Ti1 2.016753 1_555
O10 Ti3 1.967603 1_565
O10 Ti3 1.967603 1_655
O10 Ti0 2.197893 1_555
O10 Ti2 2.298327 1_555
O11 Ti2 1.982539 1_455
O11 Ti2 1.982539 1_545
O11 Ti3 2.226613 1_555
O11 Ti1 2.250433 1_555
O12 Ti1 1.959236 1_655
O12 Ti1 1.959236 1_565
O12 Ti2 2.124843 1_555
O12 Ti4 2.324687 1_555
O13 Ti0 1.975976 1_545
O13 Ti0 1.975976 1_455
O13 Ti3 2.088327 1_555
