# generated using pymatgen
data_Mn3Sn2
_symmetry_space_group_name_H-M   'P 1'
_cell_length_a   5.41455200
_cell_length_b   7.47931700
_cell_length_c   8.44546200
_cell_angle_alpha   90.00000000
_cell_angle_beta   90.00000000
_cell_angle_gamma   90.00000000
_symmetry_Int_Tables_number   1
_chemical_formula_structural   Mn3Sn2
_chemical_formula_sum   'Mn12 Sn8'
_cell_volume   342.01714837
_cell_formula_units_Z   4
loop_
 _symmetry_equiv_pos_site_id
 _symmetry_equiv_pos_as_xyz
  1  'x, y, z'
loop_
 _atom_site_type_symbol
 _atom_site_label
 _atom_site_symmetry_multiplicity
 _atom_site_fract_x
 _atom_site_fract_y
 _atom_site_fract_z
 _atom_site_occupancy
  Mn  Mn0  1  0.50753100  0.26844100  0.12843600  1
  Mn  Mn1  1  0.75000000  0.59307200  0.11875600  1
  Mn  Mn2  1  0.25000000  0.90692800  0.61875600  1
  Mn  Mn3  1  0.25000000  0.40692800  0.88124400  1
  Mn  Mn4  1  0.99246900  0.76844100  0.37156400  1
  Mn  Mn5  1  0.49246900  0.23155900  0.62843600  1
  Mn  Mn6  1  0.50753100  0.76844100  0.37156400  1
  Mn  Mn7  1  0.00753100  0.73155900  0.87156400  1
  Mn  Mn8  1  0.75000000  0.09307200  0.38124400  1
  Mn  Mn9  1  0.00753100  0.23155900  0.62843600  1
  Mn  Mn10  1  0.99246900  0.26844100  0.12843600  1
  Mn  Mn11  1  0.49246900  0.73155900  0.87156400  1
  Sn  Sn0  1  0.25000000  0.10060400  0.35663700  1
  Sn  Sn1  1  0.25000000  0.60060400  0.14336300  1
  Sn  Sn2  1  0.75000000  0.39939600  0.85663700  1
  Sn  Sn3  1  0.75000000  0.94233200  0.09405500  1
  Sn  Sn4  1  0.75000000  0.44233200  0.40594500  1
  Sn  Sn5  1  0.75000000  0.89939600  0.64336300  1
  Sn  Sn6  1  0.25000000  0.55766800  0.59405500  1
  Sn  Sn7  1  0.25000000  0.05766800  0.90594500  1
loop_
_geom_bond_atom_site_label_1
_geom_bond_atom_site_label_2
_geom_bond_distance
_geom_bond_site_symmetry_2
Mn0 Mn10 2.625722 1_555
Mn0 Sn0 2.689708 1_555
Mn0 Mn3 2.715794 1_554
Mn0 Mn1 2.761442 1_555
Mn0 Sn3 2.785137 1_545
Mn0 Mn10 2.788830 1_455
Mn0 Sn2 2.819948 1_554
Mn0 Sn7 2.821407 1_554
Mn0 Mn8 2.828882 1_555
Mn0 Sn1 2.851717 1_555
Mn0 Sn4 2.984630 1_555
Mn1 Sn3 2.620543 1_555
Mn1 Sn2 2.645539 1_554
Mn1 Sn4 2.674674 1_555
Mn1 Mn7 2.715794 1_654
Mn1 Mn11 2.715794 1_554
Mn1 Sn1 2.715825 1_555
Mn1 Sn1 2.715825 1_655
Mn1 Mn10 2.761442 1_555
Mn1 Mn6 2.828882 1_555
Mn1 Mn4 2.828882 1_555
Mn2 Sn6 2.620543 1_555
Mn2 Sn0 2.645539 1_565
Mn2 Sn7 2.674674 1_565
Mn2 Mn6 2.715794 1_555
Mn2 Mn4 2.715794 1_455
Mn2 Sn5 2.715825 1_455
Mn2 Sn5 2.715825 1_555
Mn2 Mn9 2.761442 1_565
Mn2 Mn5 2.761442 1_565
Mn2 Mn7 2.828882 1_555
Mn3 Sn7 2.620543 1_555
Mn3 Sn1 2.645539 1_556
Mn3 Sn6 2.674674 1_555
Mn3 Sn2 2.715825 1_455
Mn3 Sn2 2.715825 1_555
Mn3 Mn7 2.761442 1_555
Mn3 Mn5 2.828882 1_555
Mn3 Mn9 2.828882 1_555
Mn4 Mn6 2.625722 1_555
Mn4 Sn1 2.689708 1_655
Mn4 Mn8 2.761442 1_565
Mn4 Sn4 2.785137 1_555
Mn4 Mn6 2.788830 1_655
Mn4 Sn5 2.819948 1_555
Mn4 Sn6 2.821407 1_655
Mn4 Sn0 2.851717 1_665
Mn4 Sn3 2.984630 1_555
Mn5 Mn9 2.625722 1_555
Mn5 Sn2 2.689708 1_555
Mn5 Mn8 2.715794 1_555
Mn5 Sn6 2.785137 1_555
Mn5 Mn9 2.788830 1_655
Mn5 Sn0 2.819948 1_555
Mn5 Sn4 2.821407 1_555
Mn5 Sn5 2.851717 1_545
Mn5 Sn7 2.984630 1_555
Mn6 Sn1 2.689708 1_555
Mn6 Mn8 2.761442 1_565
Mn6 Sn4 2.785137 1_555
Mn6 Sn5 2.819948 1_555
Mn6 Sn6 2.821407 1_555
Mn6 Sn0 2.851717 1_565
Mn6 Sn3 2.984630 1_555
Mn7 Sn5 2.689708 1_455
Mn7 Sn7 2.785137 1_565
Mn7 Sn1 2.819948 1_556
Mn7 Sn3 2.821407 1_456
Mn7 Sn2 2.851717 1_455
Mn7 Sn6 2.984630 1_555
Mn8 Sn4 2.620543 1_555
Mn8 Sn5 2.645539 1_545
Mn8 Sn3 2.674674 1_545
Mn8 Mn9 2.715794 1_655
Mn8 Sn0 2.715825 1_555
Mn8 Sn0 2.715825 1_655
Mn9 Sn2 2.689708 1_455
Mn9 Sn6 2.785137 1_555
Mn9 Sn0 2.819948 1_555
Mn9 Sn4 2.821407 1_455
Mn9 Sn5 2.851717 1_445
Mn9 Sn7 2.984630 1_555
Mn10 Sn0 2.689708 1_655
Mn10 Mn3 2.715794 1_654
Mn10 Sn3 2.785137 1_545
Mn10 Sn2 2.819948 1_554
Mn10 Sn7 2.821407 1_654
Mn10 Mn8 2.828882 1_555
Mn10 Sn1 2.851717 1_655
Mn10 Sn4 2.984630 1_555
Mn11 Mn7 2.625722 1_555
Mn11 Sn5 2.689708 1_555
Mn11 Mn3 2.761442 1_555
Mn11 Sn7 2.785137 1_565
Mn11 Mn7 2.788830 1_655
Mn11 Sn1 2.819948 1_556
Mn11 Sn3 2.821407 1_556
Mn11 Mn2 2.828882 1_555
Mn11 Sn2 2.851717 1_555
Mn11 Sn6 2.984630 1_555
