# generated using pymatgen
data_Ba(H2O3)2
_symmetry_space_group_name_H-M   'P 1'
_cell_length_a   5.24962900
_cell_length_b   6.04943696
_cell_length_c   8.69011534
_cell_angle_alpha   82.10065970
_cell_angle_beta   86.97620847
_cell_angle_gamma   69.94597979
_symmetry_Int_Tables_number   1
_chemical_formula_structural   Ba(H2O3)2
_chemical_formula_sum   'Ba2 H8 O12'
_cell_volume   256.77755679
_cell_formula_units_Z   2
loop_
 _symmetry_equiv_pos_site_id
 _symmetry_equiv_pos_as_xyz
  1  'x, y, z'
loop_
 _atom_site_type_symbol
 _atom_site_label
 _atom_site_symmetry_multiplicity
 _atom_site_fract_x
 _atom_site_fract_y
 _atom_site_fract_z
 _atom_site_occupancy
  Ba  Ba0  1  0.84208700  0.14256200  0.21311200  1
  Ba  Ba1  1  0.15654700  0.78510000  0.79079200  1
  H  H0  1  0.34732000  0.24193000  0.94666900  1
  H  H1  1  0.24554100  0.49014300  0.35904500  1
  H  H2  1  0.72071200  0.71196200  0.27124200  1
  H  H3  1  0.66515000  0.73868800  0.56106400  1
  H  H4  1  0.84420400  0.34706900  0.84748800  1
  H  H5  1  0.56319100  0.53287200  0.53370300  1
  H  H6  1  0.41262900  0.28311100  0.49181900  1
  H  H7  1  0.64458300  0.63622800  0.03040100  1
  O  O0  1  0.27255300  0.99180500  0.41267300  1
  O  O1  1  0.84553300  0.75299900  0.06109200  1
  O  O2  1  0.81618400  0.97213200  0.54016500  1
  O  O3  1  0.19695500  0.16638600  0.94530800  1
  O  O4  1  0.40266400  0.94791700  0.27697600  1
  O  O5  1  0.90274500  0.63318100  0.22412500  1
  O  O6  1  0.62536800  0.06891500  0.64652800  1
  O  O7  1  0.04098300  0.30856600  0.80555300  1
  O  O8  1  0.42339100  0.40993900  0.40850600  1
  O  O9  1  0.49214000  0.55737700  0.04187900  1
  O  O10  1  0.63291000  0.59668600  0.61505700  1
  O  O11  1  0.56514000  0.36951400  0.93575900  1
loop_
_geom_bond_atom_site_label_1
_geom_bond_atom_site_label_2
_geom_bond_distance
_geom_bond_site_symmetry_2
Ba0 O0 2.740653 1_645
Ba0 O11 2.810533 1_554
Ba0 O4 2.823285 1_645
Ba0 O9 2.826070 1_555
Ba0 O1 2.850135 1_545
Ba0 O8 2.872905 1_555
Ba0 O2 2.899846 1_545
Ba0 O3 2.922650 1_654
Ba0 O4 2.926432 1_545
Ba0 O5 3.106259 1_555
Ba1 O2 2.750107 1_455
Ba1 O9 2.770813 1_556
Ba1 O1 2.812190 1_456
Ba1 O10 2.829442 1_555
Ba1 O11 2.867867 1_555
Ba1 O3 2.895715 1_565
Ba1 O6 2.964620 1_465
Ba1 O7 3.032861 1_565
Ba1 O7 3.127998 1_555
H0 O3 1.040166 1_555
H0 O11 1.576682 1_555
H1 O8 0.982953 1_555
H2 O5 1.003984 1_555
H3 O10 0.983503 1_555
H4 O7 1.035750 1_655
H4 O11 1.589554 1_555
H5 O10 0.990964 1_555
H6 O8 0.994359 1_555
H7 O9 1.057454 1_555
H7 O1 1.508477 1_555
O0 O4 1.343243 1_555
O2 O6 1.359930 1_565
