# generated using pymatgen
data_BaTm2ZnO5
_symmetry_space_group_name_H-M   'P 1'
_cell_length_a   5.70234800
_cell_length_b   7.06470600
_cell_length_c   12.30351900
_cell_angle_alpha   90.00000000
_cell_angle_beta   90.00000000
_cell_angle_gamma   90.00000000
_symmetry_Int_Tables_number   1
_chemical_formula_structural   BaTm2ZnO5
_chemical_formula_sum   'Ba4 Tm8 Zn4 O20'
_cell_volume   495.65233356
_cell_formula_units_Z   4
loop_
 _symmetry_equiv_pos_site_id
 _symmetry_equiv_pos_as_xyz
  1  'x, y, z'
loop_
 _atom_site_type_symbol
 _atom_site_label
 _atom_site_symmetry_multiplicity
 _atom_site_fract_x
 _atom_site_fract_y
 _atom_site_fract_z
 _atom_site_occupancy
  Ba  Ba0  1  0.75000000  0.07818100  0.10189700  1
  Ba  Ba1  1  0.75000000  0.42181900  0.60189700  1
  Ba  Ba2  1  0.25000000  0.57818100  0.39810300  1
  Ba  Ba3  1  0.25000000  0.92181900  0.89810300  1
  Tm  Tm0  1  0.25000000  0.40054200  0.07432600  1
  Tm  Tm1  1  0.75000000  0.61943900  0.20818700  1
  Tm  Tm2  1  0.75000000  0.88056100  0.70818700  1
  Tm  Tm3  1  0.25000000  0.11943900  0.29181300  1
  Tm  Tm4  1  0.75000000  0.59945800  0.92567400  1
  Tm  Tm5  1  0.75000000  0.90054200  0.42567400  1
  Tm  Tm6  1  0.25000000  0.09945800  0.57432600  1
  Tm  Tm7  1  0.25000000  0.38056100  0.79181300  1
  Zn  Zn0  1  0.25000000  0.80852100  0.15025700  1
  Zn  Zn1  1  0.75000000  0.19147900  0.84974300  1
  Zn  Zn2  1  0.75000000  0.30852100  0.34974300  1
  Zn  Zn3  1  0.25000000  0.69147900  0.65025700  1
  O  O0  1  0.25000000  0.42076200  0.60168200  1
  O  O1  1  0.75000000  0.57923800  0.39831800  1
  O  O2  1  0.75000000  0.92076200  0.89831800  1
  O  O3  1  0.25000000  0.07923800  0.10168200  1
  O  O4  1  0.99878100  0.86117600  0.27547400  1
  O  O5  1  0.49878100  0.13882400  0.72452600  1
  O  O6  1  0.00121900  0.36117600  0.22452600  1
  O  O7  1  0.50121900  0.63882400  0.77547400  1
  O  O8  1  0.00121900  0.13882400  0.72452600  1
  O  O9  1  0.50121900  0.86117600  0.27547400  1
  O  O10  1  0.99878100  0.63882400  0.77547400  1
  O  O11  1  0.49878100  0.36117600  0.22452600  1
  O  O12  1  0.50044400  0.66132300  0.06625100  1
  O  O13  1  0.00044400  0.33867700  0.93374900  1
  O  O14  1  0.49955600  0.16132300  0.43374900  1
  O  O15  1  0.99955600  0.83867700  0.56625100  1
  O  O16  1  0.00044400  0.16132300  0.43374900  1
  O  O17  1  0.50044400  0.83867700  0.56625100  1
  O  O18  1  0.99955600  0.66132300  0.06625100  1
  O  O19  1  0.49955600  0.33867700  0.93374900  1
loop_
_geom_bond_atom_site_label_1
_geom_bond_atom_site_label_2
_geom_bond_distance
_geom_bond_site_symmetry_2
Ba0 O2 2.740533 1_544
Ba0 O3 2.851185 1_555
Ba0 O3 2.851185 1_655
Ba0 O6 2.885421 1_655
Ba0 O11 2.885421 1_555
Ba0 O4 2.987252 1_545
Ba0 O9 2.987252 1_545
Ba0 O13 3.115496 1_654
Ba0 O19 3.115496 1_554
Ba0 O12 3.300050 1_545
Ba0 O18 3.300050 1_545
Ba1 O1 2.740533 1_555
Ba1 O0 2.851185 1_655
Ba1 O0 2.851185 1_555
Ba1 O5 2.885421 1_555
Ba1 O8 2.885421 1_655
Ba1 O10 2.987252 1_555
Ba1 O7 2.987252 1_555
Ba1 O14 3.115496 1_555
Ba1 O16 3.115496 1_655
Ba1 O17 3.300050 1_555
Ba1 O15 3.300050 1_555
Ba2 O0 2.740533 1_555
Ba2 O1 2.851185 1_455
Ba2 O1 2.851185 1_555
Ba2 O9 2.885421 1_555
Ba2 O4 2.885421 1_455
Ba2 O11 2.987252 1_555
Ba2 O6 2.987252 1_555
Ba2 O17 3.115496 1_555
Ba2 O15 3.115496 1_455
Ba2 O16 3.300050 1_555
Ba2 O14 3.300050 1_555
Ba3 O3 2.740533 1_566
Ba3 O2 2.851185 1_555
Ba3 O2 2.851185 1_455
Ba3 O7 2.885421 1_555
Ba3 O10 2.885421 1_455
Ba3 O5 2.987252 1_565
Ba3 O8 2.987252 1_565
Ba3 O18 3.115496 1_456
Ba3 O12 3.115496 1_556
Ba3 O19 3.300050 1_565
Ba3 O13 3.300050 1_565
O0 Zn3 2.003739 1_555
O0 Tm6 2.294736 1_555
O0 Tm7 2.356458 1_555
O1 Zn2 2.003739 1_555
O1 Tm5 2.294736 1_555
O1 Tm1 2.356458 1_555
O2 Zn1 2.003739 1_565
O2 Tm4 2.294736 1_555
O2 Tm2 2.356458 1_555
O3 Zn0 2.003739 1_545
O3 Tm0 2.294736 1_555
O3 Tm3 2.356458 1_555
O4 Zn0 2.136357 1_655
O4 Tm3 2.328426 1_665
O4 Tm5 2.346260 1_555
O4 Tm1 2.369488 1_555
O5 Zn1 2.136357 1_555
O5 Tm2 2.328426 1_545
O5 Tm6 2.346260 1_555
O5 Tm7 2.369488 1_555
O6 Zn2 2.136357 1_455
O6 Tm1 2.328426 1_455
O6 Tm0 2.346260 1_555
O6 Tm3 2.369488 1_555
O7 Zn3 2.136357 1_555
O7 Tm7 2.328426 1_555
O7 Tm4 2.346260 1_555
O7 Tm2 2.369488 1_555
O8 Zn1 2.136357 1_455
O8 Tm2 2.328426 1_445
O8 Tm6 2.346260 1_555
O8 Tm7 2.369488 1_555
O9 Zn0 2.136357 1_555
O9 Tm3 2.328426 1_565
O9 Tm5 2.346260 1_555
O9 Tm1 2.369488 1_555
O10 Zn3 2.136357 1_655
O10 Tm7 2.328426 1_655
O10 Tm4 2.346260 1_555
O10 Tm2 2.369488 1_555
O11 Zn2 2.136357 1_555
O11 Tm1 2.328426 1_555
O11 Tm0 2.346260 1_555
O11 Tm3 2.369488 1_555
O12 Zn0 2.046754 1_555
O12 Tm1 2.272058 1_555
O12 Tm4 2.282015 1_554
O12 Tm0 2.333156 1_555
O13 Zn1 2.046754 1_455
O13 Tm7 2.272058 1_555
O13 Tm0 2.282015 1_556
O13 Tm4 2.333156 1_455
O14 Zn2 2.046754 1_555
O14 Tm3 2.272058 1_555
O14 Tm6 2.282015 1_555
O14 Tm5 2.333156 1_545
O15 Zn3 2.046754 1_655
O15 Tm2 2.272058 1_555
O15 Tm5 2.282015 1_555
O15 Tm6 2.333156 1_665
O16 Zn2 2.046754 1_455
O16 Tm3 2.272058 1_555
O16 Tm6 2.282015 1_555
O16 Tm5 2.333156 1_445
O17 Zn3 2.046754 1_555
O17 Tm2 2.272058 1_555
O17 Tm5 2.282015 1_555
O17 Tm6 2.333156 1_565
O18 Zn0 2.046754 1_655
O18 Tm1 2.272058 1_555
O18 Tm4 2.282015 1_554
O18 Tm0 2.333156 1_655
O19 Zn1 2.046754 1_555
O19 Tm7 2.272058 1_555
O19 Tm0 2.282015 1_556
O19 Tm4 2.333156 1_555
