# generated using pymatgen
data_KFe3H6(SO7)2
_symmetry_space_group_name_H-M   'P 1'
_cell_length_a   8.99396319
_cell_length_b   8.99396319
_cell_length_c   8.99396352
_cell_angle_alpha   59.70542259
_cell_angle_beta   59.70542259
_cell_angle_gamma   59.70542574
_symmetry_Int_Tables_number   1
_chemical_formula_structural   KFe3H6(SO7)2
_chemical_formula_sum   'K1 Fe3 H6 S2 O14'
_cell_volume   511.00210023
_cell_formula_units_Z   1
loop_
 _symmetry_equiv_pos_site_id
 _symmetry_equiv_pos_as_xyz
  1  'x, y, z'
loop_
 _atom_site_type_symbol
 _atom_site_label
 _atom_site_symmetry_multiplicity
 _atom_site_fract_x
 _atom_site_fract_y
 _atom_site_fract_z
 _atom_site_occupancy
  K  K0  1  0.00000000  0.00000000  0.00000000  1
  Fe  Fe0  1  0.00000000  0.00000000  0.50000000  1
  Fe  Fe1  1  0.50000000  0.00000000  0.00000000  1
  Fe  Fe2  1  0.00000000  0.50000000  0.00000000  1
  H  H0  1  0.05110900  0.48472600  0.48472600  1
  H  H1  1  0.94889100  0.51527400  0.51527400  1
  H  H2  1  0.48472600  0.48472600  0.05110900  1
  H  H3  1  0.48472600  0.05110900  0.48472600  1
  H  H4  1  0.51527400  0.94889100  0.51527400  1
  H  H5  1  0.51527400  0.51527400  0.94889100  1
  S  S0  1  0.26281900  0.26281900  0.26281900  1
  S  S1  1  0.73718100  0.73718100  0.73718100  1
  O  O0  1  0.85221000  0.85221000  0.57802900  1
  O  O1  1  0.14779000  0.42197100  0.14779000  1
  O  O2  1  0.85221000  0.57802900  0.85221000  1
  O  O3  1  0.67209900  0.67209900  0.67209900  1
  O  O4  1  0.26440100  0.03637300  0.03637300  1
  O  O5  1  0.96362700  0.73559900  0.96362700  1
  O  O6  1  0.73559900  0.96362700  0.96362700  1
  O  O7  1  0.57802900  0.85221000  0.85221000  1
  O  O8  1  0.32790100  0.32790100  0.32790100  1
  O  O9  1  0.42197100  0.14779000  0.14779000  1
  O  O10  1  0.14779000  0.14779000  0.42197100  1
  O  O11  1  0.03637300  0.03637300  0.26440100  1
  O  O12  1  0.96362700  0.96362700  0.73559900  1
  O  O13  1  0.03637300  0.26440100  0.03637300  1
loop_
_geom_bond_atom_site_label_1
_geom_bond_atom_site_label_2
_geom_bond_distance
_geom_bond_site_symmetry_2
K0 O4 2.747119 1_555
K0 O13 2.747119 1_555
K0 O5 2.747119 1_444
K0 O6 2.747119 1_444
K0 O11 2.747119 1_555
K0 O12 2.747119 1_444
Fe0 O12 1.847518 1_445
Fe0 O11 1.847518 1_555
Fe0 O0 1.981521 1_445
Fe0 O10 1.981521 1_555
Fe1 O6 1.847518 1_544
Fe1 O4 1.847518 1_555
Fe1 O7 1.981521 1_544
Fe1 O9 1.981521 1_555
Fe2 O5 1.847518 1_454
Fe2 O13 1.847518 1_555
Fe2 O2 1.981521 1_454
Fe2 O1 1.981521 1_555
H0 H1 0.750105 1_455
H2 H5 0.750105 1_554
H3 H4 0.750105 1_545
O0 S1 1.510404 1_555
O1 S0 1.510404 1_555
O2 S1 1.510404 1_555
O3 S1 1.436981 1_555
O7 S1 1.510404 1_555
O8 S0 1.436981 1_555
O9 S0 1.510404 1_555
O10 S0 1.510404 1_555
