# generated using pymatgen
data_LiRh
_symmetry_space_group_name_H-M   'P 1'
_cell_length_a   5.30460130
_cell_length_b   5.30460054
_cell_length_c   8.65320882
_cell_angle_alpha   90.00000000
_cell_angle_beta   90.00000000
_cell_angle_gamma   120.00004008
_symmetry_Int_Tables_number   1
_chemical_formula_structural   LiRh
_chemical_formula_sum   'Li8 Rh8'
_cell_volume   210.86916251
_cell_formula_units_Z   8
loop_
 _symmetry_equiv_pos_site_id
 _symmetry_equiv_pos_as_xyz
  1  'x, y, z'
loop_
 _atom_site_type_symbol
 _atom_site_label
 _atom_site_symmetry_multiplicity
 _atom_site_fract_x
 _atom_site_fract_y
 _atom_site_fract_z
 _atom_site_occupancy
  Li  Li0_0  1  0.16666650  0.33333350  0.25000000  1
  Li  Li0_1  1  0.16666650  0.33333350  0.75000000  1
  Li  Li0_2  1  0.16666650  0.83333350  0.25000000  1
  Li  Li0_3  1  0.16666650  0.83333350  0.75000000  1
  Li  Li0_4  1  0.66666650  0.33333350  0.25000000  1
  Li  Li0_5  1  0.66666650  0.33333350  0.75000000  1
  Li  Li0_6  1  0.66666650  0.83333350  0.25000000  1
  Li  Li0_7  1  0.66666650  0.83333350  0.75000000  1
  Rh  Rh0_0  1  0.00000000  0.00000000  0.00000000  1
  Rh  Rh0_1  1  0.00000000  0.00000000  0.50000000  1
  Rh  Rh0_2  1  0.00000000  0.50000000  0.00000000  1
  Rh  Rh0_3  1  0.00000000  0.50000000  0.50000000  1
  Rh  Rh0_4  1  0.50000000  0.00000000  0.00000000  1
  Rh  Rh0_5  1  0.50000000  0.00000000  0.50000000  1
  Rh  Rh0_6  1  0.50000000  0.50000000  0.00000000  1
  Rh  Rh0_7  1  0.50000000  0.50000000  0.50000000  1
loop_
_geom_bond_atom_site_label_1
_geom_bond_atom_site_label_2
_geom_bond_distance
_geom_bond_site_symmetry_2
Li0_0 Rh0_3 2.650429 1_555
Li0_0 Rh0_2 2.650429 1_555
Li0_0 Rh0_1 2.650429 1_555
Li0_0 Rh0_0 2.650429 1_555
Li0_0 Rh0_6 2.650429 1_555
Li0_0 Rh0_7 2.650429 1_555
Li0_0 Li0_6 2.652299 1_555
Li0_0 Li0_6 2.652299 1_445
Li0_0 Li0_2 2.652300 1_555
Li0_0 Li0_2 2.652300 1_545
Li0_0 Li0_4 2.652301 1_455
Li0_0 Li0_4 2.652301 1_555
Li0_1 Rh0_3 2.650429 1_555
Li0_1 Rh0_2 2.650429 1_556
Li0_1 Rh0_0 2.650429 1_556
Li0_1 Rh0_1 2.650429 1_555
Li0_1 Rh0_6 2.650429 1_556
Li0_1 Rh0_7 2.650429 1_555
Li0_1 Li0_7 2.652299 1_555
Li0_1 Li0_7 2.652299 1_445
Li0_1 Li0_3 2.652300 1_545
Li0_1 Li0_3 2.652300 1_555
Li0_1 Li0_5 2.652301 1_555
Li0_1 Li0_5 2.652301 1_455
Li0_2 Rh0_0 2.650429 1_565
Li0_2 Rh0_1 2.650429 1_565
Li0_2 Rh0_3 2.650429 1_555
Li0_2 Rh0_2 2.650429 1_555
Li0_2 Rh0_4 2.650429 1_565
Li0_2 Rh0_5 2.650429 1_565
Li0_2 Li0_4 2.652299 1_455
Li0_2 Li0_4 2.652299 1_565
Li0_2 Li0_6 2.652301 1_455
Li0_2 Li0_6 2.652301 1_555
Li0_3 Rh0_1 2.650429 1_565
Li0_3 Rh0_0 2.650429 1_566
Li0_3 Rh0_2 2.650429 1_556
Li0_3 Rh0_3 2.650429 1_555
Li0_3 Rh0_4 2.650429 1_566
Li0_3 Rh0_5 2.650429 1_565
Li0_3 Li0_5 2.652299 1_455
Li0_3 Li0_5 2.652299 1_565
Li0_3 Li0_7 2.652301 1_555
Li0_3 Li0_7 2.652301 1_455
Li0_4 Rh0_7 2.650429 1_555
Li0_4 Rh0_6 2.650429 1_555
Li0_4 Rh0_5 2.650429 1_555
Li0_4 Rh0_4 2.650429 1_555
Li0_4 Rh0_2 2.650429 1_655
Li0_4 Rh0_3 2.650429 1_655
Li0_4 Li0_6 2.652300 1_555
Li0_4 Li0_6 2.652300 1_545
Li0_5 Rh0_7 2.650429 1_555
Li0_5 Rh0_6 2.650429 1_556
Li0_5 Rh0_5 2.650429 1_555
Li0_5 Rh0_4 2.650429 1_556
Li0_5 Rh0_2 2.650429 1_656
Li0_5 Rh0_3 2.650429 1_655
Li0_5 Li0_7 2.652300 1_555
Li0_5 Li0_7 2.652300 1_545
Li0_6 Rh0_4 2.650429 1_565
Li0_6 Rh0_5 2.650429 1_565
Li0_6 Rh0_7 2.650429 1_555
Li0_6 Rh0_6 2.650429 1_555
Li0_6 Rh0_1 2.650429 1_665
Li0_6 Rh0_0 2.650429 1_665
Li0_7 Rh0_4 2.650429 1_566
Li0_7 Rh0_5 2.650429 1_565
Li0_7 Rh0_6 2.650429 1_556
Li0_7 Rh0_7 2.650429 1_555
Li0_7 Rh0_1 2.650429 1_665
Li0_7 Rh0_0 2.650429 1_666
Rh0_0 Rh0_6 2.652299 1_555
Rh0_0 Rh0_6 2.652299 1_445
Rh0_0 Rh0_2 2.652300 1_555
Rh0_0 Rh0_2 2.652300 1_545
Rh0_0 Rh0_4 2.652301 1_455
Rh0_0 Rh0_4 2.652301 1_555
Rh0_1 Rh0_7 2.652299 1_555
Rh0_1 Rh0_7 2.652299 1_445
Rh0_1 Rh0_3 2.652300 1_555
Rh0_1 Rh0_3 2.652300 1_545
Rh0_1 Rh0_5 2.652301 1_555
Rh0_1 Rh0_5 2.652301 1_455
Rh0_2 Rh0_4 2.652299 1_565
Rh0_2 Rh0_4 2.652299 1_455
Rh0_2 Rh0_6 2.652301 1_455
Rh0_2 Rh0_6 2.652301 1_555
Rh0_3 Rh0_5 2.652299 1_565
Rh0_3 Rh0_5 2.652299 1_455
Rh0_3 Rh0_7 2.652301 1_555
Rh0_3 Rh0_7 2.652301 1_455
Rh0_4 Rh0_6 2.652300 1_545
Rh0_4 Rh0_6 2.652300 1_555
Rh0_5 Rh0_7 2.652300 1_555
Rh0_5 Rh0_7 2.652300 1_545
