# generated using pymatgen
data_NaLiZnP2O7
_symmetry_space_group_name_H-M   'P 1'
_cell_length_a   7.35148027
_cell_length_b   7.35148027
_cell_length_c   6.43472600
_cell_angle_alpha   90.00000000
_cell_angle_beta   90.00000000
_cell_angle_gamma   118.00782387
_symmetry_Int_Tables_number   1
_chemical_formula_structural   NaLiZnP2O7
_chemical_formula_sum   'Na2 Li2 Zn2 P4 O14'
_cell_volume   307.03157491
_cell_formula_units_Z   2
loop_
 _symmetry_equiv_pos_site_id
 _symmetry_equiv_pos_as_xyz
  1  'x, y, z'
loop_
 _atom_site_type_symbol
 _atom_site_label
 _atom_site_symmetry_multiplicity
 _atom_site_fract_x
 _atom_site_fract_y
 _atom_site_fract_z
 _atom_site_occupancy
  Na  Na0  1  0.24110200  0.24110200  0.50000000  1
  Na  Na1  1  0.75889800  0.75889800  0.00000000  1
  Li  Li0  1  0.78579100  0.21420900  0.75000000  1
  Li  Li1  1  0.21420900  0.78579100  0.25000000  1
  Zn  Zn0  1  0.21667400  0.78332600  0.75000000  1
  Zn  Zn1  1  0.78332600  0.21667400  0.25000000  1
  P  P0  1  0.80682200  0.57656800  0.49638600  1
  P  P1  1  0.57656800  0.80682200  0.50361400  1
  P  P2  1  0.42343200  0.19317800  0.00361400  1
  P  P3  1  0.19317800  0.42343200  0.99638600  1
  O  O0  1  0.91775200  0.67919200  0.70071400  1
  O  O1  1  0.67786900  0.91950000  0.70146100  1
  O  O2  1  0.58763700  0.58763700  0.50000000  1
  O  O3  1  0.73286000  0.34172700  0.50169800  1
  O  O4  1  0.34172700  0.73286000  0.49830200  1
  O  O5  1  0.91950000  0.67786900  0.29853900  1
  O  O6  1  0.67919200  0.91775200  0.29928600  1
  O  O7  1  0.32213100  0.08050000  0.20146100  1
  O  O8  1  0.08224800  0.32080800  0.20071400  1
  O  O9  1  0.65827300  0.26714000  0.99830200  1
  O  O10  1  0.41236300  0.41236300  0.00000000  1
  O  O11  1  0.26714000  0.65827300  0.00169800  1
  O  O12  1  0.32080800  0.08224800  0.79928600  1
  O  O13  1  0.08050000  0.32213100  0.79853900  1
loop_
_geom_bond_atom_site_label_1
_geom_bond_atom_site_label_2
_geom_bond_distance
_geom_bond_site_symmetry_2
Na0 O12 2.461422 1_555
Na0 O8 2.461422 1_555
Na0 O7 2.469744 1_555
Na0 O13 2.469744 1_555
Na0 O2 2.623867 1_555
Na1 O6 2.461422 1_555
Na1 O0 2.461422 1_554
Na1 O1 2.469744 1_554
Na1 O5 2.469744 1_555
Na1 O10 2.623867 1_555
Li0 O1 1.951043 1_545
Li0 O13 1.951043 1_655
Li0 O9 1.981322 1_555
Li0 O3 1.981322 1_555
Li1 O7 1.951043 1_565
Li1 O5 1.951043 1_455
Li1 O11 1.981322 1_555
Li1 O4 1.981322 1_555
O0 P0 1.544369 1_555
O0 Zn0 1.983871 1_655
O1 P1 1.510680 1_555
O2 P0 1.651274 1_555
O2 P1 1.651274 1_555
O3 P0 1.547819 1_555
O3 Zn1 1.981478 1_555
O4 P1 1.547819 1_555
O4 Zn0 1.981478 1_555
O5 P0 1.510680 1_555
O6 P1 1.544369 1_555
O6 Zn1 1.983871 1_565
O7 P2 1.510680 1_555
O8 P3 1.544369 1_554
O8 Zn1 1.983871 1_455
O9 P2 1.547819 1_556
O9 Zn1 1.981478 1_556
O10 P3 1.651274 1_554
O10 P2 1.651274 1_555
O11 P3 1.547819 1_554
O11 Zn0 1.981478 1_554
O12 P2 1.544369 1_556
O12 Zn0 1.983871 1_545
O13 P3 1.510680 1_555
