# generated using pymatgen
data_SiO2
_symmetry_space_group_name_H-M   'P 1'
_cell_length_a   9.28407205
_cell_length_b   9.28407205
_cell_length_c   18.43126129
_cell_angle_alpha   90.00000000
_cell_angle_beta   90.00000000
_cell_angle_gamma   94.53472724
_symmetry_Int_Tables_number   1
_chemical_formula_structural   SiO2
_chemical_formula_sum   'Si24 O48'
_cell_volume   1583.69086238
_cell_formula_units_Z   24
loop_
 _symmetry_equiv_pos_site_id
 _symmetry_equiv_pos_as_xyz
  1  'x, y, z'
loop_
 _atom_site_type_symbol
 _atom_site_label
 _atom_site_symmetry_multiplicity
 _atom_site_fract_x
 _atom_site_fract_y
 _atom_site_fract_z
 _atom_site_occupancy
  Si  Si0  1  0.92214919  0.14978617  0.16614523  1
  Si  Si1  1  0.85021383  0.07785081  0.83385477  1
  Si  Si2  1  0.14978617  0.92214919  0.33385477  1
  Si  Si3  1  0.07785081  0.85021383  0.66614523  1
  Si  Si4  1  0.07785081  0.85021383  0.83385477  1
  Si  Si5  1  0.14978617  0.92214919  0.16614523  1
  Si  Si6  1  0.85021383  0.07785081  0.66614523  1
  Si  Si7  1  0.92214919  0.14978617  0.33385477  1
  Si  Si8  1  0.65692270  0.88478020  0.93835352  1
  Si  Si9  1  0.11521980  0.34307730  0.06164648  1
  Si  Si10  1  0.88478020  0.65692270  0.56164648  1
  Si  Si11  1  0.34307730  0.11521980  0.43835352  1
  Si  Si12  1  0.34307730  0.11521980  0.06164648  1
  Si  Si13  1  0.88478020  0.65692270  0.93835352  1
  Si  Si14  1  0.11521980  0.34307730  0.43835352  1
  Si  Si15  1  0.65692270  0.88478020  0.56164648  1
  Si  Si16  1  0.13269226  0.67477985  0.05267807  1
  Si  Si17  1  0.32522015  0.86730774  0.94732193  1
  Si  Si18  1  0.67477985  0.13269226  0.44732193  1
  Si  Si19  1  0.86730774  0.32522015  0.55267807  1
  Si  Si20  1  0.86730774  0.32522015  0.94732193  1
  Si  Si21  1  0.67477985  0.13269226  0.05267807  1
  Si  Si22  1  0.32522015  0.86730774  0.55267807  1
  Si  Si23  1  0.13269226  0.67477985  0.44732193  1
  O  O0  1  0.00192678  0.00192678  0.15880212  1
  O  O1  1  -0.00192678  -0.00192678  0.84119788  1
  O  O2  1  0.00192678  0.00192678  0.34119788  1
  O  O3  1  -0.00192678  -0.00192678  0.65880212  1
  O  O4  1  0.89596655  0.18664954  0.25000000  1
  O  O5  1  0.81335046  0.10403345  0.75000000  1
  O  O6  1  0.18664954  0.89596655  0.25000000  1
  O  O7  1  0.10403345  0.81335046  0.75000000  1
  O  O8  1  0.02137003  0.28159320  0.13025259  1
  O  O9  1  0.71840680  0.97862997  0.86974741  1
  O  O10  1  0.28159320  0.02137003  0.36974741  1
  O  O11  1  0.97862997  0.71840680  0.63025259  1
  O  O12  1  0.97862997  0.71840680  0.86974741  1
  O  O13  1  0.28159320  0.02137003  0.13025259  1
  O  O14  1  0.71840680  0.97862997  0.63025259  1
  O  O15  1  0.02137003  0.28159320  0.36974741  1
  O  O16  1  0.76862699  0.12933117  0.12577947  1
  O  O17  1  0.87066883  0.23137301  0.87422053  1
  O  O18  1  0.12933117  0.76862699  0.37422053  1
  O  O19  1  0.23137301  0.87066883  0.62577947  1
  O  O20  1  0.23137301  0.87066883  0.87422053  1
  O  O21  1  0.12933117  0.76862699  0.12577947  1
  O  O22  1  0.87066883  0.23137301  0.62577947  1
  O  O23  1  0.76862699  0.12933117  0.37422053  1
  O  O24  1  0.67917424  0.97907040  0.01179478  1
  O  O25  1  0.02092960  0.32082576  0.98820522  1
  O  O26  1  0.97907040  0.67917424  0.48820522  1
  O  O27  1  0.32082576  0.02092960  0.51179478  1
  O  O28  1  0.32082576  0.02092960  0.98820522  1
  O  O29  1  0.97907040  0.67917424  0.01179478  1
  O  O30  1  0.02092960  0.32082576  0.51179478  1
  O  O31  1  0.67917424  0.97907040  0.48820522  1
  O  O32  1  0.74072490  0.74072490  0.94629068  1
  O  O33  1  0.25927510  0.25927510  0.05370932  1
  O  O34  1  0.74072490  0.74072490  0.55370932  1
  O  O35  1  0.25927510  0.25927510  0.44629068  1
  O  O36  1  0.48824644  0.83903891  0.92576899  1
  O  O37  1  0.16096109  0.51175356  0.07423101  1
  O  O38  1  0.83903891  0.48824644  0.57423101  1
  O  O39  1  0.51175356  0.16096109  0.42576899  1
  O  O40  1  0.51175356  0.16096109  0.07423101  1
  O  O41  1  0.83903891  0.48824644  0.92576899  1
  O  O42  1  0.16096109  0.51175356  0.42576899  1
  O  O43  1  0.48824644  0.83903891  0.57423101  1
  O  O44  1  0.26108346  0.73891654  0.00000000  1
  O  O45  1  0.73891654  0.26108346  0.50000000  1
  O  O46  1  0.73891654  0.26108346  0.00000000  1
  O  O47  1  0.26108346  0.73891654  0.50000000  1
loop_
_geom_bond_atom_site_label_1
_geom_bond_atom_site_label_2
_geom_bond_distance
_geom_bond_site_symmetry_2
O0 Si0 1.616192 1_455
O0 Si5 1.616192 1_545
O1 Si1 1.616192 1_455
O1 Si4 1.616192 1_545
O2 Si2 1.616192 1_545
O2 Si7 1.616192 1_455
O3 Si6 1.616192 1_455
O3 Si3 1.616192 1_545
O4 Si0 1.605645 1_555
O4 Si7 1.605645 1_555
O5 Si1 1.605645 1_555
O5 Si6 1.605645 1_555
O6 Si5 1.605645 1_555
O6 Si2 1.605645 1_555
O7 Si4 1.605645 1_555
O7 Si3 1.605645 1_555
O8 Si9 1.614101 1_555
O8 Si0 1.614129 1_455
O9 Si8 1.614101 1_555
O9 Si1 1.614129 1_565
O10 Si11 1.614101 1_555
O10 Si2 1.614129 1_545
O11 Si10 1.614101 1_555
O11 Si3 1.614129 1_655
O12 Si13 1.614101 1_555
O12 Si4 1.614129 1_655
O13 Si12 1.614101 1_555
O13 Si5 1.614129 1_545
O14 Si15 1.614101 1_555
O14 Si6 1.614129 1_565
O15 Si14 1.614101 1_555
O15 Si7 1.614129 1_455
O16 Si0 1.605708 1_555
O16 Si21 1.606164 1_555
O17 Si1 1.605708 1_555
O17 Si20 1.606164 1_555
O18 Si2 1.605708 1_555
O18 Si23 1.606164 1_555
O19 Si3 1.605708 1_555
O19 Si22 1.606164 1_555
O20 Si4 1.605708 1_555
O20 Si17 1.606164 1_555
O21 Si5 1.605708 1_555
O21 Si16 1.606164 1_555
O22 Si6 1.605708 1_555
O22 Si19 1.606164 1_555
O23 Si7 1.605708 1_555
O23 Si18 1.606164 1_555
O24 Si8 1.616377 1_554
O24 Si21 1.616423 1_565
O25 Si9 1.616377 1_556
O25 Si20 1.616423 1_455
O26 Si10 1.616377 1_555
O26 Si23 1.616423 1_655
O27 Si11 1.616377 1_555
O27 Si22 1.616423 1_545
O28 Si12 1.616377 1_556
O28 Si17 1.616423 1_545
O29 Si13 1.616377 1_554
O29 Si16 1.616423 1_655
O30 Si14 1.616377 1_555
O30 Si19 1.616423 1_455
O31 Si15 1.616377 1_555
O31 Si18 1.616423 1_565
O32 Si13 1.606224 1_555
O32 Si8 1.606224 1_555
O33 Si12 1.606224 1_555
O33 Si9 1.606224 1_555
O34 Si15 1.606224 1_555
O34 Si10 1.606224 1_555
O35 Si14 1.606224 1_555
O35 Si11 1.606224 1_555
O36 Si17 1.606339 1_555
O36 Si8 1.606657 1_555
O37 Si16 1.606339 1_555
O37 Si9 1.606657 1_555
O38 Si19 1.606339 1_555
O38 Si10 1.606657 1_555
O39 Si18 1.606339 1_555
O39 Si11 1.606657 1_555
O40 Si21 1.606339 1_555
O40 Si12 1.606657 1_555
O41 Si20 1.606339 1_555
O41 Si13 1.606657 1_555
O42 Si23 1.606339 1_555
O42 Si14 1.606657 1_555
O43 Si22 1.606339 1_555
O43 Si15 1.606657 1_555
O44 Si16 1.614270 1_555
O44 Si17 1.614270 1_554
O45 Si18 1.614270 1_555
O45 Si19 1.614270 1_555
O46 Si21 1.614270 1_555
O46 Si20 1.614270 1_554
O47 Si23 1.614270 1_555
O47 Si22 1.614270 1_555
