# generated using pymatgen
data_CuTcBi
_symmetry_space_group_name_H-M   'P 1'
_cell_length_a   4.41679402
_cell_length_b   4.41679402
_cell_length_c   4.41679402
_cell_angle_alpha   60.00000000
_cell_angle_beta   60.00000000
_cell_angle_gamma   60.00000000
_symmetry_Int_Tables_number   1
_chemical_formula_structural   CuTcBi
_chemical_formula_sum   'Cu1 Tc1 Bi1'
_cell_volume   60.92652935
_cell_formula_units_Z   1
loop_
 _symmetry_equiv_pos_site_id
 _symmetry_equiv_pos_as_xyz
  1  'x, y, z'
loop_
 _atom_site_type_symbol
 _atom_site_label
 _atom_site_symmetry_multiplicity
 _atom_site_fract_x
 _atom_site_fract_y
 _atom_site_fract_z
 _atom_site_occupancy
  Cu  Cu0  1  0.50000000  0.50000000  0.50000000  1
  Tc  Tc0  1  0.75000000  0.75000000  0.75000000  1
  Bi  Bi0  1  0.00000000  0.00000000  0.00000000  1
loop_
_geom_bond_atom_site_label_1
_geom_bond_atom_site_label_2
_geom_bond_distance
_geom_bond_site_symmetry_2
Cu0 Tc0 2.704723 1_455
Cu0 Tc0 2.704723 1_545
Cu0 Tc0 2.704723 1_555
Cu0 Tc0 2.704723 1_554
Bi0 Tc0 2.704723 1_544
Bi0 Tc0 2.704723 1_445
Bi0 Tc0 2.704723 1_444
Bi0 Tc0 2.704723 1_454
Bi0 Cu0 3.123145 1_544
Bi0 Cu0 3.123145 1_445
Bi0 Cu0 3.123145 1_455
Bi0 Cu0 3.123145 1_554
Bi0 Cu0 3.123145 1_454
Bi0 Cu0 3.123145 1_545
