# generated using pymatgen
data_Ce10Si10BrN17O9
_symmetry_space_group_name_H-M   'P 1'
_cell_length_a   10.63975665
_cell_length_b   11.29615691
_cell_length_c   11.62768149
_cell_angle_alpha   90.01795296
_cell_angle_beta   90.03246195
_cell_angle_gamma   90.08378807
_symmetry_Int_Tables_number   1
_chemical_formula_structural   Ce10Si10BrN17O9
_chemical_formula_sum   'Ce20 Si20 Br2 N34 O18'
_cell_volume   1397.51018800
_cell_formula_units_Z   2
loop_
 _symmetry_equiv_pos_site_id
 _symmetry_equiv_pos_as_xyz
  1  'x, y, z'
loop_
 _atom_site_type_symbol
 _atom_site_label
 _atom_site_symmetry_multiplicity
 _atom_site_fract_x
 _atom_site_fract_y
 _atom_site_fract_z
 _atom_site_occupancy
  Ce  Ce0  1  0.99210600  0.99975700  0.83283800  1
  Ce  Ce1  1  0.10978000  0.62844400  0.99986500  1
  Ce  Ce2  1  0.12724000  0.88048100  0.50000100  1
  Ce  Ce3  1  0.13743500  0.39826200  0.75684400  1
  Ce  Ce4  1  0.13920900  0.39784300  0.24260400  1
  Ce  Ce5  1  0.35841000  0.90408000  0.24203700  1
  Ce  Ce6  1  0.36166200  0.89944200  0.75896000  1
  Ce  Ce7  1  0.37311200  0.37860600  0.49833900  1
  Ce  Ce8  1  0.38214300  0.12784200  0.00365300  1
  Ce  Ce9  1  0.50051300  0.50015800  0.17152600  1
  Ce  Ce10  1  0.50125000  0.50178300  0.82867300  1
  Ce  Ce11  1  0.63485700  0.87267700  0.99521900  1
  Ce  Ce12  1  0.62291800  0.62372000  0.50104000  1
  Ce  Ce13  1  0.64236200  0.10211600  0.23747200  1
  Ce  Ce14  1  0.64465800  0.09801100  0.76267300  1
  Ce  Ce15  1  0.85774400  0.59757700  0.23247900  1
  Ce  Ce16  1  0.85707600  0.59852900  0.76787500  1
  Ce  Ce17  1  0.87809500  0.12459000  0.50003700  1
  Ce  Ce18  1  0.88031100  0.37389600  0.00014900  1
  Ce  Ce19  1  0.99166700  0.99916000  0.16685500  1
  Si  Si0  1  0.11646700  0.74481900  0.24720800  1
  Si  Si1  1  0.11679600  0.74455400  0.75291400  1
  Si  Si2  1  0.14977900  0.14261000  0.63719200  1
  Si  Si3  1  0.14981700  0.14314700  0.36389000  1
  Si  Si4  1  0.21259300  0.88741800  0.99994500  1
  Si  Si5  1  0.28670200  0.38838300  0.99947300  1
  Si  Si6  1  0.34920700  0.64374000  0.63578600  1
  Si  Si7  1  0.34930300  0.64468700  0.36440300  1
  Si  Si8  1  0.38478800  0.23864800  0.24514100  1
  Si  Si9  1  0.38322800  0.24414700  0.75349800  1
  Si  Si10  1  0.61632700  0.75620500  0.24635200  1
  Si  Si11  1  0.61497900  0.76128900  0.75438500  1
  Si  Si12  1  0.65084400  0.35510600  0.63551300  1
  Si  Si13  1  0.65057000  0.35592300  0.36481000  1
  Si  Si14  1  0.71838000  0.61129000  0.00019700  1
  Si  Si15  1  0.78807600  0.10833100  0.99975900  1
  Si  Si16  1  0.84958000  0.85497400  0.36501400  1
  Si  Si17  1  0.84967000  0.85487500  0.63532700  1
  Si  Si18  1  0.88456300  0.26148100  0.24523000  1
  Si  Si19  1  0.88490600  0.26140600  0.75465300  1
  Br  Br0  1  0.04029700  0.47232900  0.50045500  1
  Br  Br1  1  0.46109500  0.97205400  0.50007000  1
  N  N0  1  0.01990800  0.19126100  0.28867100  1
  N  N1  1  0.02039100  0.19132800  0.71206900  1
  N  N2  1  0.10378700  0.10767700  0.50029100  1
  N  N3  1  0.16753100  0.81489700  0.12187800  1
  N  N4  1  0.16835500  0.81340500  0.87867300  1
  N  N5  1  0.23155800  0.74765900  0.64923800  1
  N  N6  1  0.23078800  0.74763000  0.35128500  1
  N  N7  1  0.26807800  0.24727500  0.65015600  1
  N  N8  1  0.26860700  0.24733200  0.34974100  1
  N  N9  1  0.33144000  0.31564000  0.87772700  1
  N  N10  1  0.33105800  0.31721000  0.12230800  1
  N  N11  1  0.39619700  0.60791100  0.49988900  1
  N  N12  1  0.42213600  0.09935400  0.19781500  1
  N  N13  1  0.47884700  0.69290600  0.28863100  1
  N  N14  1  0.47949400  0.69086100  0.71100000  1
  N  N15  1  0.52030700  0.30827900  0.28924500  1
  N  N16  1  0.52134700  0.30653900  0.71146400  1
  N  N17  1  0.57924700  0.90091800  0.80123000  1
  N  N18  1  0.60331900  0.39279700  0.50020200  1
  N  N19  1  0.66603900  0.68097600  0.87703600  1
  N  N20  1  0.66536000  0.68292100  0.12235600  1
  N  N21  1  0.73081700  0.75137500  0.64895000  1
  N  N22  1  0.73047000  0.75182300  0.35122400  1
  N  N23  1  0.76904200  0.25129000  0.64847100  1
  N  N24  1  0.76823600  0.25164200  0.35092400  1
  N  N25  1  0.82880900  0.18304300  0.12366500  1
  N  N26  1  0.82930200  0.18283200  0.87608900  1
  N  N27  1  0.84729200  0.96677900  0.99952100  1
  N  N28  1  0.87946000  0.59110000  0.00085600  1
  N  N29  1  0.89749900  0.89175200  0.50016000  1
  N  N30  1  0.92218800  0.40125500  0.19984500  1
  N  N31  1  0.92351100  0.40103800  0.79972800  1
  N  N32  1  0.97845100  0.80615100  0.28860700  1
  N  N33  1  0.97854200  0.80638800  0.71232900  1
  O  O0  1  0.08412900  0.60649100  0.20454100  1
  O  O1  1  0.08428200  0.60623800  0.79492400  1
  O  O2  1  0.13032900  0.40953400  0.99848900  1
  O  O3  1  0.15349000  0.02468800  0.99939400  1
  O  O4  1  0.18179300  0.00969500  0.69364900  1
  O  O5  1  0.18033400  0.00912900  0.30842400  1
  O  O6  1  0.31885500  0.51159100  0.30633900  1
  O  O7  1  0.31789600  0.51097200  0.69341600  1
  O  O8  1  0.34678100  0.52554200  0.99915400  1
  O  O9  1  0.36876300  0.90921500  0.00036300  1
  O  O10  1  0.41775400  0.10636300  0.79558700  1
  O  O11  1  0.58285100  0.89401300  0.20407700  1
  O  O12  1  0.62685500  0.09549100  0.99951000  1
  O  O13  1  0.64997100  0.47530900  0.00034700  1
  O  O14  1  0.68135500  0.49000400  0.30844400  1
  O  O15  1  0.68097900  0.48900300  0.69247200  1
  O  O16  1  0.81678800  0.98806000  0.30837500  1
  O  O17  1  0.81886400  0.98902500  0.69086900  1
loop_
_geom_bond_atom_site_label_1
_geom_bond_atom_site_label_2
_geom_bond_distance
_geom_bond_site_symmetry_2
Ce0 O17 2.476508 1_555
Ce0 N27 2.504262 1_555
Ce0 O4 2.590048 1_665
Ce0 N1 2.597300 1_665
Ce0 N33 2.598560 1_555
Ce0 O3 2.602465 1_665
Ce0 N26 2.746094 1_565
Ce0 N4 2.871061 1_655
Ce1 O0 2.408495 1_556
Ce1 O1 2.411193 1_555
Ce1 O2 2.482854 1_555
Ce1 N28 2.486018 1_456
Ce1 N4 2.595883 1_555
Ce1 N3 2.611473 1_556
Ce1 O8 2.778211 1_555
Ce2 N29 2.447890 1_455
Ce2 N6 2.541947 1_555
Ce2 N5 2.549229 1_555
Ce2 N2 2.578909 1_565
Ce2 O5 2.719233 1_565
Ce2 O4 2.744345 1_565
Ce3 N31 2.330609 1_455
Ce3 O7 2.417980 1_555
Ce3 O1 2.457387 1_555
Ce3 N7 2.527369 1_555
Ce3 N9 2.666590 1_555
Ce3 N1 2.697415 1_555
Ce3 O2 2.813679 1_555
Ce4 N30 2.362069 1_455
Ce4 O6 2.417488 1_555
Ce4 O0 2.469574 1_555
Ce4 N8 2.518785 1_555
Ce4 N10 2.638305 1_555
Ce4 N0 2.708621 1_555
Ce4 O2 2.843127 1_554
Ce5 N12 2.363601 1_565
Ce5 O5 2.366749 1_565
Ce5 O11 2.431511 1_555
Ce5 N6 2.564586 1_555
Ce5 N3 2.661107 1_555
Ce5 N13 2.763136 1_555
Ce5 O9 2.812942 1_555
Ce6 N17 2.366413 1_555
Ce6 O4 2.407535 1_565
Ce6 O10 2.448685 1_565
Ce6 N5 2.544274 1_555
Ce6 N4 2.666573 1_555
Ce6 N14 2.728164 1_555
Ce6 O9 2.810061 1_556
Ce7 N18 2.454436 1_555
Ce7 N8 2.532226 1_555
Ce7 N7 2.562227 1_555
Ce7 N11 2.601583 1_555
Ce7 O6 2.752675 1_555
Ce7 O7 2.779919 1_555
Ce8 N12 2.319782 1_555
Ce8 O10 2.460996 1_554
Ce8 O9 2.473819 1_545
Ce8 N10 2.603312 1_555
Ce8 O12 2.630192 1_554
Ce8 N9 2.634332 1_554
Ce8 O3 2.696360 1_554
Ce9 O6 2.492724 1_555
Ce9 O14 2.499450 1_555
Ce9 O13 2.563944 1_555
Ce9 N15 2.572716 1_555
Ce9 N13 2.578354 1_555
Ce9 O8 2.602465 1_554
Ce9 N20 2.767071 1_555
Ce9 N10 2.799330 1_555
Ce10 O15 2.487938 1_555
Ce10 O7 2.507437 1_555
Ce10 N14 2.547651 1_555
Ce10 O13 2.564402 1_556
Ce10 O8 2.589850 1_555
Ce10 N16 2.601388 1_555
Ce10 N19 2.734135 1_555
Ce10 N9 2.828744 1_555
Ce11 N17 2.353564 1_555
Ce11 N27 2.496803 1_555
Ce11 O11 2.502716 1_556
Ce11 O12 2.518985 1_565
Ce11 N19 2.586224 1_555
Ce11 N20 2.624662 1_556
Ce11 O9 2.862356 1_556
Ce12 N11 2.418626 1_555
Ce12 N21 2.519245 1_555
Ce12 N22 2.537145 1_555
Ce12 N18 2.616575 1_555
Ce12 O15 2.766847 1_555
Ce12 O14 2.772262 1_555
Ce12 N14 2.978341 1_555
Ce12 N13 3.010145 1_555
Ce13 N12 2.387994 1_555
Ce13 O16 2.406193 1_545
Ce13 O11 2.464263 1_545
Ce13 N24 2.525238 1_555
Ce13 N25 2.553536 1_555
Ce13 N15 2.735188 1_555
Ce13 O12 2.772748 1_554
Ce14 N17 2.374580 1_545
Ce14 O17 2.378240 1_545
Ce14 O10 2.446516 1_555
Ce14 N26 2.550978 1_555
Ce14 N23 2.551363 1_555
Ce14 O12 2.760632 1_555
Ce14 N16 2.762899 1_555
Ce15 N30 2.352970 1_555
Ce15 O14 2.403092 1_555
Ce15 O0 2.432614 1_655
Ce15 N20 2.600477 1_555
Ce15 N22 2.604534 1_555
Ce15 N28 2.704238 1_555
Ce15 N32 2.759659 1_555
Ce16 N31 2.370342 1_555
Ce16 O15 2.408443 1_555
Ce16 O1 2.439039 1_655
Ce16 N19 2.572471 1_555
Ce16 N21 2.589219 1_555
Ce16 N28 2.720675 1_556
Ce16 N33 2.755636 1_555
Ce17 N2 2.409175 1_655
Ce17 N23 2.525698 1_555
Ce17 N24 2.537011 1_555
Ce17 N29 2.638567 1_545
Ce17 O17 2.768897 1_545
Ce17 O16 2.786379 1_545
Ce17 N0 2.980966 1_655
Ce17 N1 2.988341 1_655
Ce18 N30 2.384052 1_555
Ce18 N31 2.395293 1_554
Ce18 N28 2.453612 1_555
Ce18 N25 2.647689 1_555
Ce18 N26 2.650922 1_554
Ce18 O2 2.689919 1_654
Ce18 O13 2.706806 1_555
Ce19 O16 2.487683 1_555
Ce19 N27 2.504744 1_554
Ce19 O5 2.597577 1_665
Ce19 N32 2.603605 1_555
Ce19 N0 2.607907 1_665
Ce19 O3 2.615688 1_664
Ce19 N25 2.753095 1_565
Ce19 N3 2.849389 1_655
Br0 Ce3 3.264415 1_555
Br0 Ce4 3.287758 1_555
Br1 Ce5 3.282922 1_555
Br1 Ce6 3.294920 1_555
Br1 Ce2 3.698236 1_555
Br1 Ce14 3.891651 1_565
Br1 Ce13 3.899061 1_565
N0 Si18 1.720701 1_455
N0 Si3 1.723938 1_555
N1 Si19 1.718641 1_455
N1 Si2 1.720274 1_555
N2 Si3 1.707800 1_555
N2 Si2 1.710933 1_555
N3 Si4 1.706304 1_554
N3 Si0 1.745254 1_555
N4 Si4 1.704792 1_555
N4 Si1 1.743916 1_555
N5 Si1 1.716682 1_555
N5 Si6 1.724463 1_555
N6 Si0 1.715583 1_555
N6 Si7 1.723293 1_555
N7 Si9 1.716007 1_555
N7 Si2 1.732098 1_555
N8 Si3 1.733660 1_555
N8 Si8 1.737504 1_555
N9 Si5 1.704982 1_555
N9 Si9 1.744667 1_555
N10 Si5 1.705924 1_554
N10 Si8 1.776419 1_555
N11 Si7 1.703965 1_555
N11 Si6 1.706395 1_555
N12 Si8 1.714095 1_555
N13 Si10 1.700170 1_555
N13 Si7 1.724001 1_555
N14 Si11 1.720751 1_555
N14 Si6 1.722202 1_555
N15 Si8 1.719392 1_555
N15 Si13 1.725896 1_555
N16 Si9 1.700940 1_555
N16 Si12 1.725909 1_555
N17 Si11 1.711861 1_555
N18 Si13 1.704626 1_555
N18 Si12 1.706619 1_555
N19 Si14 1.726766 1_556
N19 Si11 1.775801 1_555
N20 Si14 1.729768 1_555
N20 Si10 1.742866 1_555
N21 Si17 1.728339 1_555
N21 Si11 1.742581 1_555
N22 Si10 1.721297 1_555
N22 Si16 1.727661 1_555
N23 Si12 1.727351 1_555
N23 Si19 1.747828 1_555
N24 Si13 1.727850 1_555
N24 Si18 1.748148 1_555
N25 Si15 1.724321 1_554
N25 Si18 1.769673 1_555
N26 Si15 1.723042 1_555
N26 Si19 1.769691 1_555
N27 Si15 1.719503 1_565
N28 Si14 1.729304 1_555
N29 Si16 1.702942 1_555
N29 Si17 1.703927 1_555
N30 Si18 1.711904 1_555
N31 Si19 1.711329 1_555
N32 Si0 1.694594 1_655
N32 Si16 1.725352 1_555
N33 Si1 1.696118 1_655
N33 Si17 1.727097 1_555
O0 Si0 1.674486 1_555
O1 Si1 1.672899 1_555
O2 Si5 1.681217 1_555
O3 Si4 1.674147 1_545
O4 Si2 1.674251 1_555
O5 Si3 1.677586 1_555
O6 Si7 1.678958 1_555
O7 Si6 1.675932 1_555
O8 Si5 1.675195 1_555
O9 Si4 1.679403 1_554
O10 Si9 1.672984 1_555
O11 Si10 1.671440 1_555
O12 Si15 1.721263 1_555
O13 Si14 1.698823 1_555
O14 Si13 1.682341 1_555
O15 Si12 1.681333 1_555
O16 Si16 1.678525 1_555
O17 Si17 1.679874 1_555
