# generated using pymatgen
data_In3Ir
_symmetry_space_group_name_H-M   'P 1'
_cell_length_a   5.34121561
_cell_length_b   7.52428899
_cell_length_c   8.35523248
_cell_angle_alpha   90.00000000
_cell_angle_beta   90.00000000
_cell_angle_gamma   90.00000000
_symmetry_Int_Tables_number   1
_chemical_formula_structural   In3Ir
_chemical_formula_sum   'In12 Ir4'
_cell_volume   335.78718325
_cell_formula_units_Z   4
loop_
 _symmetry_equiv_pos_site_id
 _symmetry_equiv_pos_as_xyz
  1  'x, y, z'
loop_
 _atom_site_type_symbol
 _atom_site_label
 _atom_site_symmetry_multiplicity
 _atom_site_fract_x
 _atom_site_fract_y
 _atom_site_fract_z
 _atom_site_occupancy
  In  In0  1  0.63482750  0.33087050  0.55431079  1
  In  In1  1  0.08183104  0.48942782  0.75000000  1
  In  In2  1  0.86517250  0.83087050  0.94568921  1
  In  In3  1  0.91816896  0.51057218  0.25000000  1
  In  In4  1  0.13482750  0.16912950  0.05431079  1
  In  In5  1  0.41816896  0.98942782  0.75000000  1
  In  In6  1  0.36517250  0.66912950  0.44568921  1
  In  In7  1  0.58183104  0.01057218  0.25000000  1
  In  In8  1  0.86517250  0.83087050  0.55431079  1
  In  In9  1  0.63482750  0.33087050  0.94568921  1
  In  In10  1  0.13482750  0.16912950  0.44568921  1
  In  In11  1  0.36517250  0.66912950  0.05431079  1
  Ir  Ir0  1  0.43806030  0.37291040  0.25000000  1
  Ir  Ir1  1  0.56193970  0.62708960  0.75000000  1
  Ir  Ir2  1  0.93806030  0.12708960  0.75000000  1
  Ir  Ir3  1  0.06193970  0.87291040  0.25000000  1
loop_
_geom_bond_atom_site_label_1
_geom_bond_atom_site_label_2
_geom_bond_distance
_geom_bond_site_symmetry_2
In0 Ir2 2.765421 1_555
In0 Ir0 2.769361 1_555
In0 Ir1 2.791523 1_555
In1 Ir1 2.765657 1_555
In1 Ir2 2.832420 1_455
In1 Ir1 2.963748 1_455
In2 Ir1 2.765421 1_555
In2 Ir3 2.769361 1_656
In2 Ir2 2.791523 1_565
In3 Ir0 2.765657 1_555
In3 Ir3 2.832420 1_655
In3 Ir0 2.963748 1_655
In4 Ir0 2.765421 1_555
In4 Ir2 2.769361 1_454
In4 Ir3 2.791523 1_545
In5 Ir2 2.765657 1_465
In5 Ir1 2.832420 1_555
In5 Ir2 2.963748 1_565
In6 Ir3 2.765421 1_555
In6 Ir1 2.769361 1_555
In6 Ir0 2.791523 1_555
In7 Ir3 2.765657 1_645
In7 Ir0 2.832420 1_555
In7 Ir3 2.963748 1_545
In8 Ir1 2.765421 1_555
In8 Ir3 2.769361 1_655
In8 Ir2 2.791523 1_565
In9 Ir2 2.765421 1_555
In9 Ir0 2.769361 1_556
In9 Ir1 2.791523 1_555
In10 Ir0 2.765421 1_555
In10 Ir2 2.769361 1_455
In10 Ir3 2.791523 1_545
In11 Ir3 2.765421 1_555
In11 Ir1 2.769361 1_554
In11 Ir0 2.791523 1_555
