# generated using pymatgen
data_KNaH6PtC4N4O3
_symmetry_space_group_name_H-M   'P 1'
_cell_length_a   9.48733246
_cell_length_b   9.48733246
_cell_length_c   6.53346680
_cell_angle_alpha   73.15804369
_cell_angle_beta   73.15804369
_cell_angle_gamma   93.45478418
_symmetry_Int_Tables_number   1
_chemical_formula_structural   KNaH6PtC4N4O3
_chemical_formula_sum   'K2 Na2 H12 Pt2 C8 N8 O6'
_cell_volume   531.99122929
_cell_formula_units_Z   2
loop_
 _symmetry_equiv_pos_site_id
 _symmetry_equiv_pos_as_xyz
  1  'x, y, z'
loop_
 _atom_site_type_symbol
 _atom_site_label
 _atom_site_symmetry_multiplicity
 _atom_site_fract_x
 _atom_site_fract_y
 _atom_site_fract_z
 _atom_site_occupancy
  K  K0  1  0.96317600  0.48275900  0.48310300  1
  K  K1  1  0.48275900  0.96317600  0.98310300  1
  Na  Na0  1  0.35925300  0.54619000  0.01213100  1
  Na  Na1  1  0.54619000  0.35925300  0.51213100  1
  H  H0  1  0.56990700  0.35054700  0.95402300  1
  H  H1  1  0.35054700  0.56990700  0.45402300  1
  H  H2  1  0.65354100  0.51174200  0.80539000  1
  H  H3  1  0.51174200  0.65354100  0.30539000  1
  H  H4  1  0.77946500  0.58582700  0.12292500  1
  H  H5  1  0.58582700  0.77946500  0.62292500  1
  H  H6  1  0.81074200  0.42774800  0.12329500  1
  H  H7  1  0.42774800  0.81074200  0.62329500  1
  H  H8  1  0.14693900  0.60025700  0.78832700  1
  H  H9  1  0.60025700  0.14693900  0.28832700  1
  H  H10  1  0.13739200  0.42906700  0.84389300  1
  H  H11  1  0.42906700  0.13739200  0.34389300  1
  Pt  Pt0  1  0.99604600  0.00344300  0.50014900  1
  Pt  Pt1  1  0.00344300  0.99604600  0.00014900  1
  C  C0  1  0.81005200  0.09440000  0.54068500  1
  C  C1  1  0.09440000  0.81005200  0.04068500  1
  C  C2  1  0.87893200  0.79857200  0.63861500  1
  C  C3  1  0.79857200  0.87893200  0.13861500  1
  C  C4  1  0.18517500  0.91923700  0.46463000  1
  C  C5  1  0.91923700  0.18517500  0.96463000  1
  C  C6  1  0.11431900  0.20700800  0.35166700  1
  C  C7  1  0.20700800  0.11431900  0.85166700  1
  N  N0  1  0.70289800  0.15190600  0.56488400  1
  N  N1  1  0.15190600  0.70289800  0.06488400  1
  N  N2  1  0.81075800  0.67733900  0.71505500  1
  N  N3  1  0.67733900  0.81075800  0.21505500  1
  N  N4  1  0.29881200  0.87334400  0.44676300  1
  N  N5  1  0.87334400  0.29881200  0.94676300  1
  N  N6  1  0.18351500  0.32737800  0.26113300  1
  N  N7  1  0.32737800  0.18351500  0.76113300  1
  O  O0  1  0.56798400  0.43738100  0.82852900  1
  O  O1  1  0.43738100  0.56798400  0.32852900  1
  O  O2  1  0.77638900  0.48678200  0.22564500  1
  O  O3  1  0.48678200  0.77638900  0.72564500  1
  O  O4  1  0.18877800  0.52320100  0.72755800  1
  O  O5  1  0.52320100  0.18877800  0.22755800  1
loop_
_geom_bond_atom_site_label_1
_geom_bond_atom_site_label_2
_geom_bond_distance
_geom_bond_site_symmetry_2
K0 O2 2.769390 1_555
K0 N5 2.865297 1_555
K0 N1 2.905430 1_655
K0 N2 2.910068 1_555
K0 N6 2.915424 1_655
K0 O4 3.084836 1_655
K1 O3 2.769390 1_555
K1 N4 2.865297 1_556
K1 N0 2.905430 1_565
K1 N3 2.910068 1_556
K1 N7 2.915424 1_565
K1 O5 3.084836 1_566
Na0 O3 2.395317 1_554
Na0 O1 2.445910 1_555
Na0 O0 2.452267 1_554
Na1 O2 2.395317 1_555
Na1 O0 2.445910 1_555
Na1 O1 2.452267 1_555
H0 O0 0.985060 1_555
H1 O1 0.985060 1_555
H2 O0 0.988691 1_555
H3 O1 0.988691 1_555
H4 O2 0.976807 1_555
H5 O3 0.976807 1_555
H6 O2 0.989849 1_555
H7 O3 0.989849 1_555
H8 O4 0.980552 1_555
H9 O5 0.980552 1_555
H10 O4 0.975928 1_555
H11 O5 0.975928 1_555
C0 N0 1.174663 1_555
C0 Pt0 1.993420 1_555
C1 N1 1.174663 1_555
C1 Pt1 1.993420 1_555
C2 N2 1.175147 1_555
C2 Pt0 1.992282 1_565
C3 N3 1.175147 1_555
C3 Pt1 1.992282 1_655
C4 N4 1.174149 1_555
C4 Pt0 1.987612 1_465
C5 N5 1.174149 1_555
C5 Pt1 1.987612 1_646
C6 N6 1.173967 1_555
C6 Pt0 1.988079 1_455
C7 N7 1.173967 1_555
C7 Pt1 1.988079 1_546
N0 Na1 2.540764 1_555
N1 Na0 2.540764 1_555
N6 Na0 2.406265 1_555
N7 Na1 2.406265 1_555
