# generated using pymatgen
data_MnSiO3
_symmetry_space_group_name_H-M   'P 1'
_cell_length_a   6.48035200
_cell_length_b   8.12797606
_cell_length_c   12.41381273
_cell_angle_alpha   103.05140443
_cell_angle_beta   89.64640537
_cell_angle_gamma   100.14449241
_symmetry_Int_Tables_number   1
_chemical_formula_structural   MnSiO3
_chemical_formula_sum   'Mn10 Si10 O30'
_cell_volume   626.62843233
_cell_formula_units_Z   10
loop_
 _symmetry_equiv_pos_site_id
 _symmetry_equiv_pos_as_xyz
  1  'x, y, z'
loop_
 _atom_site_type_symbol
 _atom_site_label
 _atom_site_symmetry_multiplicity
 _atom_site_fract_x
 _atom_site_fract_y
 _atom_site_fract_z
 _atom_site_occupancy
  Mn  Mn0  1  0.06923300  0.16128200  0.24769300  1
  Mn  Mn1  1  0.17737600  0.79913900  0.18924400  1
  Mn  Mn2  1  0.82262400  0.20086100  0.81075600  1
  Mn  Mn3  1  0.84869500  0.14847900  0.49242000  1
  Mn  Mn4  1  0.60991300  0.41914000  0.65036200  1
  Mn  Mn5  1  0.15130500  0.85152100  0.50758000  1
  Mn  Mn6  1  0.39008700  0.58086000  0.34963800  1
  Mn  Mn7  1  0.00000000  0.00000000  0.00000000  1
  Mn  Mn8  1  0.93076700  0.83871800  0.75230700  1
  Mn  Mn9  1  0.50000000  0.00000000  0.00000000  1
  Si  Si0  1  0.22805900  0.40747300  0.07083800  1
  Si  Si1  1  0.41808000  0.58149700  0.87983100  1
  Si  Si2  1  0.34035200  0.24973700  0.45312700  1
  Si  Si3  1  0.65964800  0.75026300  0.54687300  1
  Si  Si4  1  0.14441000  0.50655300  0.64796100  1
  Si  Si5  1  0.77194100  0.59252700  0.92916200  1
  Si  Si6  1  0.31321100  0.19251600  0.83228200  1
  Si  Si7  1  0.85559000  0.49344700  0.35203900  1
  Si  Si8  1  0.68678900  0.80748400  0.16771800  1
  Si  Si9  1  0.58192000  0.41850300  0.12016900  1
  O  O0  1  0.21020300  0.99301000  0.12281100  1
  O  O1  1  0.29585000  0.04492300  0.90343800  1
  O  O2  1  0.37816100  0.75545900  0.96034000  1
  O  O3  1  0.88219800  0.29893100  0.35226700  1
  O  O4  1  0.92284700  0.37106400  0.63963500  1
  O  O5  1  0.69716800  0.48603600  0.24259900  1
  O  O6  1  0.89052400  0.43564900  0.88706900  1
  O  O7  1  0.90428800  0.85720100  0.24131900  1
  O  O8  1  0.70415000  0.95507700  0.09656200  1
  O  O9  1  0.05948700  0.23692800  0.07492900  1
  O  O10  1  0.55427700  0.21576400  0.50511100  1
  O  O11  1  0.30612000  0.39241300  0.92955900  1
  O  O12  1  0.94051300  0.76307200  0.92507100  1
  O  O13  1  0.34203200  0.31103800  0.33549700  1
  O  O14  1  0.30283200  0.51396400  0.75740100  1
  O  O15  1  0.69388000  0.60758700  0.07044100  1
  O  O16  1  0.14906100  0.08468200  0.44302400  1
  O  O17  1  0.44572300  0.78423600  0.49488900  1
  O  O18  1  0.09571200  0.14279900  0.75868100  1
  O  O19  1  0.62183900  0.24454100  0.03966000  1
  O  O20  1  0.11780200  0.70106900  0.64773300  1
  O  O21  1  0.78979700  0.00699000  0.87718900  1
  O  O22  1  0.85093900  0.91531800  0.55697600  1
  O  O23  1  0.10947600  0.56435100  0.11293100  1
  O  O24  1  0.65796800  0.68896200  0.66450300  1
  O  O25  1  0.70606000  0.57719600  0.45117200  1
  O  O26  1  0.07715300  0.62893600  0.36036500  1
  O  O27  1  0.29394000  0.42280400  0.54882800  1
  O  O28  1  0.46870100  0.77652300  0.23239400  1
  O  O29  1  0.53129900  0.22347700  0.76760600  1
loop_
_geom_bond_atom_site_label_1
_geom_bond_atom_site_label_2
_geom_bond_distance
_geom_bond_site_symmetry_2
Mn0 O3 2.051419 1_455
Mn0 O13 2.112216 1_555
Mn0 O0 2.138576 1_545
Mn0 O9 2.364849 1_555
Mn0 O7 2.497904 1_445
Mn0 O16 2.710296 1_555
Mn1 O23 1.904126 1_555
Mn1 O0 1.917061 1_555
Mn1 O7 1.978576 1_455
Mn1 O28 2.015947 1_555
Mn2 O6 1.904126 1_555
Mn2 O21 1.917061 1_555
Mn2 O18 1.978576 1_655
Mn2 O29 2.015947 1_555
Mn3 O10 2.071003 1_555
Mn3 O16 2.151946 1_655
Mn3 O22 2.220298 1_545
Mn3 O4 2.248349 1_555
Mn3 O3 2.330731 1_555
Mn4 O24 2.126905 1_555
Mn4 O4 2.129602 1_555
Mn4 O10 2.136735 1_555
Mn4 O29 2.378637 1_555
Mn4 O27 2.419210 1_555
Mn4 O14 2.522856 1_555
Mn5 O17 2.071003 1_555
Mn5 O22 2.151946 1_455
Mn5 O16 2.220298 1_565
Mn5 O26 2.248349 1_555
Mn5 O20 2.330731 1_555
Mn6 O13 2.126905 1_555
Mn6 O26 2.129602 1_555
Mn6 O17 2.136735 1_555
Mn6 O28 2.378637 1_555
Mn6 O25 2.419210 1_555
Mn6 O5 2.522856 1_555
Mn7 O9 1.912117 1_555
Mn7 O12 1.912117 1_444
Mn7 O0 2.067623 1_545
Mn7 O21 2.067623 1_454
Mn7 O8 2.273462 1_445
Mn7 O1 2.273462 1_554
Mn8 O20 2.051419 1_655
Mn8 O24 2.112216 1_555
Mn8 O21 2.138576 1_565
Mn8 O12 2.364849 1_555
Mn8 O18 2.497904 1_665
Mn8 O22 2.710296 1_555
Mn9 O1 1.925581 1_554
Mn9 O8 1.925581 1_545
Mn9 O19 1.956130 1_555
Mn9 O2 1.956130 1_544
Mn9 O0 2.412575 1_545
Mn9 O21 2.412575 1_554
O1 Si6 1.631517 1_555
O2 Si1 1.597642 1_555
O3 Si7 1.620934 1_555
O4 Si4 1.636585 1_655
O5 Si9 1.631489 1_555
O5 Si7 1.691678 1_555
O6 Si5 1.590201 1_555
O7 Si8 1.622713 1_555
O8 Si8 1.631517 1_555
O9 Si0 1.617136 1_555
O10 Si2 1.625088 1_555
O11 Si6 1.799906 1_555
O11 Si0 1.805723 1_556
O11 Si1 1.816488 1_555
O12 Si5 1.617136 1_555
O13 Si2 1.645347 1_555
O14 Si1 1.631489 1_555
O14 Si4 1.691678 1_555
O15 Si8 1.799906 1_555
O15 Si5 1.805723 1_554
O15 Si9 1.816488 1_555
O16 Si2 1.640826 1_555
O17 Si3 1.625088 1_555
O18 Si6 1.622713 1_555
O19 Si9 1.597642 1_555
O20 Si4 1.620934 1_555
O22 Si3 1.640826 1_555
O23 Si0 1.590201 1_555
O24 Si3 1.645347 1_555
O25 Si7 1.660137 1_555
O25 Si3 1.694239 1_555
O26 Si7 1.636585 1_455
O27 Si4 1.660137 1_555
O27 Si2 1.694239 1_555
O28 Si8 1.630117 1_555
O29 Si6 1.630117 1_555
