# generated using pymatgen
data_Li13(Mn3As4)2
_symmetry_space_group_name_H-M   'P 1'
_cell_length_a   6.03869500
_cell_length_b   8.60410500
_cell_length_c   8.61995631
_cell_angle_alpha   89.12406717
_cell_angle_beta   90.00000000
_cell_angle_gamma   90.00000000
_symmetry_Int_Tables_number   1
_chemical_formula_structural   Li13(Mn3As4)2
_chemical_formula_sum   'Li13 Mn6 As8'
_cell_volume   447.81961016
_cell_formula_units_Z   1
loop_
 _symmetry_equiv_pos_site_id
 _symmetry_equiv_pos_as_xyz
  1  'x, y, z'
loop_
 _atom_site_type_symbol
 _atom_site_label
 _atom_site_symmetry_multiplicity
 _atom_site_fract_x
 _atom_site_fract_y
 _atom_site_fract_z
 _atom_site_occupancy
  Li  Li0  1  0.26801300  0.00274600  0.01473800  1
  Li  Li1  1  0.26422200  0.24797400  0.26019600  1
  Li  Li2  1  0.23523800  0.00245400  0.49115800  1
  Li  Li3  1  0.50000000  0.99330800  0.75555200  1
  Li  Li4  1  0.72385100  0.50171100  0.00063800  1
  Li  Li5  1  0.76476200  0.00245400  0.49115800  1
  Li  Li6  1  0.75172000  0.73790200  0.73955200  1
  Li  Li7  1  0.73577800  0.24797400  0.26019600  1
  Li  Li8  1  0.73198700  0.00274600  0.01473800  1
  Li  Li9  1  0.00000000  0.76005300  0.99645000  1
  Li  Li10  1  0.00000000  0.24611200  0.00753400  1
  Li  Li11  1  0.24828000  0.73790200  0.73955200  1
  Li  Li12  1  0.27614900  0.50171100  0.00063800  1
  Mn  Mn0  1  0.74242000  0.75266900  0.25667900  1
  Mn  Mn1  1  0.75181100  0.25835300  0.74246700  1
  Mn  Mn2  1  0.75381500  0.49982500  0.50044600  1
  Mn  Mn3  1  0.25758000  0.75266900  0.25667900  1
  Mn  Mn4  1  0.24618500  0.49982500  0.50044600  1
  Mn  Mn5  1  0.24818900  0.25835300  0.74246700  1
  As  As0  1  0.50000000  0.75618000  0.00096600  1
  As  As1  1  0.50000000  0.25925100  0.50961200  1
  As  As2  1  0.50000000  0.74485500  0.49935100  1
  As  As3  1  0.50000000  0.24822100  0.98679300  1
  As  As4  1  0.00000000  0.99528200  0.23996800  1
  As  As5  1  0.00000000  0.49708100  0.74605400  1
  As  As6  1  0.00000000  0.00878500  0.76114100  1
  As  As7  1  0.00000000  0.50647000  0.25362200  1
loop_
_geom_bond_atom_site_label_1
_geom_bond_atom_site_label_2
_geom_bond_distance
_geom_bond_site_symmetry_2
Li0 Li3 2.639353 1_544
Li0 Li10 2.646482 1_555
Li0 Li9 2.648526 1_544
Li1 Li10 2.700097 1_555
Li2 Li3 2.784073 1_545
Li3 Li8 2.639353 1_566
Li3 Li6 2.677322 1_555
Li3 Mn1 2.741838 1_565
Li3 Mn5 2.741838 1_565
Li3 Li5 2.784073 1_565
Li4 Li9 2.778582 1_654
Li6 Li9 2.683445 1_655
Li8 Li9 2.648526 1_644
Li9 Mn0 2.729629 1_456
Li9 Mn3 2.729629 1_556
Li10 Li8 2.646482 1_455
Li10 Li7 2.700097 1_455
Li10 Mn5 2.733233 1_554
Li10 Mn1 2.733233 1_454
Li10 Li12 2.759863 1_555
Li10 Li4 2.759863 1_455
Li11 Li3 2.677322 1_555
Li11 Li9 2.683445 1_555
Li12 Li9 2.778582 1_554
As0 Li8 2.546564 1_565
As0 Li0 2.546564 1_565
As0 Li4 2.573186 1_555
As0 Li12 2.573186 1_555
As0 Mn3 2.645852 1_555
As0 Mn0 2.645852 1_555
As0 Li11 2.724676 1_554
As0 Li6 2.724676 1_554
As0 Li3 2.916491 1_554
As0 Li9 3.019776 1_654
As0 Li9 3.019776 1_554
As1 Mn1 2.518073 1_555
As1 Mn5 2.518073 1_555
As1 Mn2 2.575856 1_555
As1 Mn4 2.575856 1_555
As1 Li7 2.581721 1_555
As1 Li1 2.581721 1_555
As1 Li5 2.733897 1_555
As1 Li2 2.733897 1_555
As1 Li3 3.095467 1_545
As2 Mn3 2.553222 1_555
As2 Mn0 2.553222 1_555
As2 Li11 2.568548 1_555
As2 Li6 2.568548 1_555
As2 Mn4 2.606427 1_555
As2 Mn2 2.606427 1_555
As2 Li5 2.732926 1_565
As2 Li2 2.732926 1_565
As2 Li3 3.096996 1_555
As3 Li8 2.542818 1_556
As3 Li0 2.542818 1_556
As3 Li4 2.570307 1_556
As3 Li12 2.570307 1_556
As3 Mn1 2.598040 1_555
As3 Mn5 2.598040 1_555
As3 Li7 2.753393 1_556
As3 Li1 2.753393 1_556
As3 Li3 2.986205 1_545
As3 Li10 3.024674 1_556
As3 Li10 3.024674 1_656
As4 Li0 2.527648 1_565
As4 Li8 2.527648 1_465
As4 Li2 2.591157 1_565
As4 Li5 2.591157 1_465
As4 Mn0 2.605474 1_455
As4 Mn3 2.605474 1_555
As4 Li1 2.704605 1_565
As4 Li7 2.704605 1_465
As4 Li10 2.922290 1_565
As4 Li9 2.938110 1_554
As5 Mn1 2.543265 1_455
As5 Mn5 2.543265 1_555
As5 Li6 2.557507 1_455
As5 Li11 2.557507 1_555
As5 Mn2 2.586766 1_455
As5 Mn4 2.586766 1_555
As5 Li12 2.756977 1_556
As5 Li4 2.756977 1_456
As5 Li10 3.097469 1_556
As5 Li9 3.150802 1_555
As6 Mn5 2.621544 1_555
As6 Mn1 2.621544 1_455
As6 Li0 2.719775 1_556
As6 Li8 2.719775 1_456
As6 Li2 2.727784 1_555
As6 Li5 2.727784 1_455
As6 Li6 2.779918 1_445
As6 Li11 2.779918 1_545
As6 Li9 2.926020 1_545
As6 Li10 2.968711 1_556
As6 Li3 3.022699 1_445
As6 Li3 3.022699 1_545
As7 Mn2 2.595452 1_455
As7 Mn4 2.595452 1_555
As7 Mn0 2.628518 1_455
As7 Mn3 2.628518 1_555
As7 Li1 2.737133 1_555
As7 Li7 2.737133 1_455
As7 Li12 2.746039 1_555
As7 Li4 2.746039 1_455
As7 Li9 3.086561 1_554
As7 Li10 3.108589 1_555
