# generated using pymatgen
data_Sr11Ru10O33
_symmetry_space_group_name_H-M   'P 1'
_cell_length_a   8.89483200
_cell_length_b   8.94671272
_cell_length_c   9.73563474
_cell_angle_alpha   100.83128394
_cell_angle_beta   90.11182990
_cell_angle_gamma   113.48277771
_symmetry_Int_Tables_number   1
_chemical_formula_structural   Sr11Ru10O33
_chemical_formula_sum   'Sr11 Ru10 O33'
_cell_volume   695.38911207
_cell_formula_units_Z   1
loop_
 _symmetry_equiv_pos_site_id
 _symmetry_equiv_pos_as_xyz
  1  'x, y, z'
loop_
 _atom_site_type_symbol
 _atom_site_label
 _atom_site_symmetry_multiplicity
 _atom_site_fract_x
 _atom_site_fract_y
 _atom_site_fract_z
 _atom_site_occupancy
  Sr  Sr0  1  0.38500100  0.25667500  0.04295500  1
  Sr  Sr1  1  0.21356900  0.82813100  0.12734200  1
  Sr  Sr2  1  0.04351600  0.34184000  0.21192700  1
  Sr  Sr3  1  0.87259600  0.91530600  0.30032200  1
  Sr  Sr4  1  0.68114200  0.45629400  0.40895700  1
  Sr  Sr5  1  0.50000000  0.00000000  0.50000000  1
  Sr  Sr6  1  0.31885800  0.54370600  0.59104300  1
  Sr  Sr7  1  0.12740400  0.08469400  0.69967800  1
  Sr  Sr8  1  0.95648400  0.65816000  0.78807300  1
  Sr  Sr9  1  0.78643100  0.17186900  0.87265800  1
  Sr  Sr10  1  0.61499900  0.74332500  0.95704500  1
  Ru  Ru0  1  0.81577400  0.54485300  0.09075100  1
  Ru  Ru1  1  0.63683200  0.08978800  0.18280100  1
  Ru  Ru2  1  0.45187400  0.63574100  0.27134000  1
  Ru  Ru3  1  0.27051200  0.18100500  0.36652500  1
  Ru  Ru4  1  0.09057000  0.72445100  0.45204900  1
  Ru  Ru5  1  0.90943000  0.27554900  0.54795100  1
  Ru  Ru6  1  0.72948800  0.81899500  0.63347500  1
  Ru  Ru7  1  0.54812600  0.36425900  0.72866000  1
  Ru  Ru8  1  0.36316800  0.91021200  0.81719900  1
  Ru  Ru9  1  0.18422600  0.45514700  0.90924900  1
  O  O0  1  0.90488600  0.76181300  0.04954200  1
  O  O1  1  0.72355000  0.31123000  0.14059400  1
  O  O2  1  0.80836700  0.04594000  0.09566800  1
  O  O3  1  0.50000000  0.00000000  0.00000000  1
  O  O4  1  0.54110000  0.86122900  0.22758200  1
  O  O5  1  0.63351500  0.58577700  0.18258600  1
  O  O6  1  0.31747000  0.54689000  0.08788900  1
  O  O7  1  0.36236200  0.40767900  0.32053700  1
  O  O8  1  0.14250800  0.09559600  0.19332300  1
  O  O9  1  0.44917700  0.13790100  0.27917000  1
  O  O10  1  0.18305400  0.95562100  0.41293500  1
  O  O11  1  0.27347700  0.68192800  0.36466500  1
  O  O12  1  0.95145700  0.63194400  0.27248200  1
  O  O13  1  0.00000000  0.50000000  0.50000000  1
  O  O14  1  0.08982300  0.23085700  0.45870200  1
  O  O15  1  0.76814700  0.17954300  0.36687800  1
  O  O16  1  0.81694600  0.04437900  0.58706500  1
  O  O17  1  0.91017700  0.76914300  0.54129800  1
  O  O18  1  0.58637800  0.72264400  0.44887300  1
  O  O19  1  0.63763800  0.59232100  0.67946300  1
  O  O20  1  0.72652300  0.31807200  0.63533500  1
  O  O21  1  0.41362200  0.27735600  0.55112700  1
  O  O22  1  0.45890000  0.13877100  0.77241800  1
  O  O23  1  0.55082300  0.86209900  0.72083000  1
  O  O24  1  0.23185300  0.82045700  0.63312200  1
  O  O25  1  0.27645000  0.68877000  0.85940600  1
  O  O26  1  0.36648500  0.41422300  0.81741400  1
  O  O27  1  0.04854300  0.36805600  0.72751800  1
  O  O28  1  0.09511400  0.23818700  0.95045800  1
  O  O29  1  0.19163300  0.95406000  0.90433200  1
  O  O30  1  0.85749200  0.90440400  0.80667700  1
  O  O31  1  0.00000000  0.50000000  0.00000000  1
  O  O32  1  0.68253000  0.45311000  0.91211100  1
loop_
_geom_bond_atom_site_label_1
_geom_bond_atom_site_label_2
_geom_bond_distance
_geom_bond_site_symmetry_2
O0 Ru0 1.903886 1_555
O0 Sr3 2.643147 1_555
O0 Sr1 2.643709 1_655
O0 Sr8 2.647088 1_554
O0 Sr10 2.661201 1_554
O1 Ru1 1.943764 1_555
O1 Ru0 2.072066 1_555
O1 Sr4 2.787904 1_555
O1 Sr2 2.820799 1_655
O1 Sr9 2.830357 1_554
O1 Sr0 2.975412 1_555
O2 Ru1 1.886395 1_555
O2 Sr10 2.648833 1_544
O2 Sr3 2.658013 1_545
O2 Sr9 2.667237 1_554
O2 Sr2 2.667595 1_655
O3 Ru1 1.992226 1_555
O3 Ru8 1.992226 1_544
O3 Sr9 2.828276 1_554
O3 Sr1 2.828276 1_545
O3 Sr10 2.829734 1_544
O3 Sr0 2.829734 1_555
O4 Ru2 1.982300 1_555
O4 Ru1 2.011321 1_565
O4 Sr5 2.799465 1_565
O4 Sr10 2.827914 1_554
O4 Sr3 2.855873 1_555
O4 Sr1 2.953024 1_555
O5 Ru0 1.979206 1_555
O5 Ru2 1.998170 1_555
O5 Sr4 2.779475 1_555
O5 Sr10 2.860456 1_554
O5 Sr3 2.872627 1_555
O5 Sr0 2.949681 1_555
O6 Ru9 1.945064 1_554
O6 Ru2 1.987882 1_555
O6 Sr2 2.836037 1_555
O6 Sr0 2.847968 1_555
O6 Sr1 2.970556 1_555
O6 Sr10 2.977087 1_554
O7 Ru3 2.000730 1_555
O7 Ru2 2.025014 1_555
O7 Sr6 2.782286 1_555
O7 Sr4 2.799486 1_555
O7 Sr2 2.816247 1_555
O7 Sr0 2.831194 1_555
O8 Ru3 1.881091 1_555
O8 Sr3 2.646873 1_445
O8 Sr2 2.656739 1_555
O8 Sr1 2.677228 1_545
O8 Sr0 2.683335 1_555
O9 Ru3 1.941124 1_555
O9 Ru1 2.068468 1_555
O9 Sr5 2.790389 1_555
O9 Sr4 2.814457 1_555
O9 Sr1 2.842040 1_545
O9 Sr0 2.853143 1_555
O10 Ru3 1.992245 1_565
O10 Ru4 2.010111 1_555
O10 Sr5 2.792139 1_565
O10 Sr3 2.829064 1_455
O10 Sr1 2.857134 1_555
O10 Sr7 2.936165 1_565
O11 Ru4 1.972920 1_555
O11 Ru2 1.975176 1_555
O11 Sr5 2.811536 1_565
O11 Sr6 2.822798 1_555
O11 Sr2 2.996778 1_555
O11 Sr1 3.003299 1_555
O12 Ru4 1.975834 1_655
O12 Ru0 1.979418 1_555
O12 Sr4 2.793218 1_555
O12 Sr3 2.855212 1_555
O12 Sr1 2.863011 1_655
O12 Sr2 2.979116 1_655
O13 Ru4 1.990964 1_555
O13 Ru5 1.990964 1_455
O13 Sr4 2.821099 1_455
O13 Sr6 2.821099 1_555
O13 Sr8 2.994485 1_455
O13 Sr2 2.994485 1_555
O14 Ru5 1.968670 1_455
O14 Ru3 2.003452 1_555
O14 Sr6 2.781125 1_555
O14 Sr3 2.843617 1_445
O14 Sr2 2.854168 1_555
O14 Sr7 2.970532 1_555
O15 Ru1 1.980969 1_555
O15 Ru5 1.996684 1_555
O15 Sr5 2.773073 1_555
O15 Sr4 2.836278 1_555
O15 Sr3 2.837032 1_545
O15 Sr2 2.895990 1_655
O16 Ru6 1.992245 1_545
O16 Ru5 2.010111 1_555
O16 Sr5 2.792139 1_555
O16 Sr7 2.829064 1_655
O16 Sr9 2.857134 1_555
O16 Sr3 2.936165 1_545
O17 Ru4 1.968670 1_655
O17 Ru6 2.003452 1_555
O17 Sr4 2.781125 1_555
O17 Sr7 2.843617 1_665
O17 Sr8 2.854168 1_555
O17 Sr3 2.970532 1_555
O18 Ru2 1.941331 1_555
O18 Ru6 2.031691 1_555
O18 Sr4 2.791774 1_555
O18 Sr6 2.819689 1_555
O18 Sr5 2.837643 1_565
O18 Sr3 2.999697 1_555
O19 Ru6 2.000730 1_555
O19 Ru7 2.025014 1_555
O19 Sr4 2.782286 1_555
O19 Sr6 2.799486 1_555
O19 Sr8 2.816247 1_555
O19 Sr10 2.831194 1_555
O20 Ru5 1.972920 1_555
O20 Ru7 1.975176 1_555
O20 Sr5 2.811536 1_555
O20 Sr4 2.822798 1_555
O20 Sr8 2.996778 1_555
O20 Sr9 3.003299 1_555
O21 Ru7 1.941331 1_555
O21 Ru3 2.031691 1_555
O21 Sr6 2.791774 1_555
O21 Sr4 2.819689 1_555
O21 Sr5 2.837643 1_555
O21 Sr7 2.999697 1_555
O22 Ru7 1.982300 1_555
O22 Ru8 2.011321 1_545
O22 Sr5 2.799465 1_555
O22 Sr0 2.827914 1_556
O22 Sr7 2.855873 1_555
O22 Sr9 2.953024 1_555
O23 Ru6 1.941124 1_555
O23 Ru8 2.068468 1_555
O23 Sr5 2.790389 1_565
O23 Sr6 2.814457 1_555
O23 Sr9 2.842040 1_565
O23 Sr10 2.853143 1_555
O24 Ru8 1.980969 1_555
O24 Ru4 1.996684 1_555
O24 Sr5 2.773073 1_565
O24 Sr6 2.836278 1_555
O24 Sr7 2.837032 1_565
O24 Sr8 2.895990 1_455
O25 Ru8 1.943764 1_555
O25 Ru9 2.072066 1_555
O25 Sr6 2.787904 1_555
O25 Sr8 2.820799 1_455
O25 Sr1 2.830357 1_556
O25 Sr10 2.975412 1_555
O26 Ru9 1.979206 1_555
O26 Ru7 1.998170 1_555
O26 Sr6 2.779475 1_555
O26 Sr0 2.860456 1_556
O26 Sr7 2.872627 1_555
O26 Sr10 2.949681 1_555
O27 Ru5 1.975834 1_455
O27 Ru9 1.979418 1_555
O27 Sr6 2.793218 1_555
O27 Sr7 2.855212 1_555
O27 Sr9 2.863011 1_455
O27 Sr8 2.979116 1_455
O28 Ru9 1.903886 1_555
O28 Sr7 2.643147 1_555
O28 Sr9 2.643709 1_455
O28 Sr2 2.647088 1_556
O28 Sr0 2.661201 1_556
O29 Ru8 1.886395 1_555
O29 Sr0 2.648833 1_566
O29 Sr7 2.658013 1_565
O29 Sr1 2.667237 1_556
O29 Sr8 2.667595 1_455
O30 Ru6 1.881091 1_555
O30 Sr7 2.646873 1_665
O30 Sr8 2.656739 1_555
O30 Sr9 2.677228 1_565
O30 Sr10 2.683335 1_555
O31 Ru0 2.005815 1_455
O31 Ru9 2.005815 1_554
O31 Sr8 2.817745 1_454
O31 Sr2 2.817745 1_555
O31 Sr1 2.818246 1_555
O31 Sr9 2.818246 1_454
O32 Ru0 1.945064 1_556
O32 Ru7 1.987882 1_555
O32 Sr8 2.836037 1_555
O32 Sr10 2.847968 1_555
O32 Sr9 2.970556 1_555
O32 Sr0 2.977087 1_556
