# generated using pymatgen
data_BaGeO3
_symmetry_space_group_name_H-M   'P 1'
_cell_length_a   7.77067300
_cell_length_b   9.18334896
_cell_length_c   9.37714430
_cell_angle_alpha   63.73189069
_cell_angle_beta   71.66486798
_cell_angle_gamma   78.27756830
_symmetry_Int_Tables_number   1
_chemical_formula_structural   BaGeO3
_chemical_formula_sum   'Ba6 Ge6 O18'
_cell_volume   567.98528332
_cell_formula_units_Z   6
loop_
 _symmetry_equiv_pos_site_id
 _symmetry_equiv_pos_as_xyz
  1  'x, y, z'
loop_
 _atom_site_type_symbol
 _atom_site_label
 _atom_site_symmetry_multiplicity
 _atom_site_fract_x
 _atom_site_fract_y
 _atom_site_fract_z
 _atom_site_occupancy
  Ba  Ba0  1  0.60174300  0.01221300  0.94462100  1
  Ba  Ba1  1  0.91140100  0.44459800  0.57979600  1
  Ba  Ba2  1  0.38219900  0.56230200  0.26811800  1
  Ba  Ba3  1  0.03170900  0.65298700  0.98639800  1
  Ba  Ba4  1  0.17499300  0.23826600  0.18845500  1
  Ba  Ba5  1  0.42043700  0.80365400  0.55665000  1
  Ge  Ge0  1  0.96258900  0.92350900  0.21460700  1
  Ge  Ge1  1  0.17567200  0.07929200  0.74884400  1
  Ge  Ge2  1  0.69875600  0.57082000  0.89277300  1
  Ge  Ge3  1  0.56719800  0.15068400  0.56653500  1
  Ge  Ge4  1  0.32610700  0.38494900  0.73784600  1
  Ge  Ge5  1  0.64629000  0.21532600  0.19661700  1
  O  O0  1  0.25275400  0.53977800  0.56860300  1
  O  O1  1  0.09980200  0.47809900  0.26792900  1
  O  O2  1  0.78759600  0.77992100  0.36820400  1
  O  O3  1  0.55886000  0.39927000  0.05809400  1
  O  O4  1  0.32044500  0.18196400  0.54079500  1
  O  O5  1  0.65287200  0.71463500  0.98358000  1
  O  O6  1  0.18166900  0.88625100  0.22235500  1
  O  O7  1  0.66487000  0.27987400  0.34473000  1
  O  O8  1  0.26193300  0.87536000  0.81205700  1
  O  O9  1  0.50140000  0.07062400  0.23870500  1
  O  O10  1  0.82021400  0.81078900  0.17983300  1
  O  O11  1  0.91816300  0.47946600  0.88404700  1
  O  O12  1  0.30410100  0.44687200  0.89192100  1
  O  O13  1  0.88216400  0.13016200  0.14404800  1
  O  O14  1  0.94236700  0.10888100  0.76565000  1
  O  O15  1  0.65491000  0.63499800  0.70121500  1
  O  O16  1  0.55929400  0.31405500  0.64690700  1
  O  O17  1  0.24109500  0.17840100  0.85386700  1
loop_
_geom_bond_atom_site_label_1
_geom_bond_atom_site_label_2
_geom_bond_distance
_geom_bond_site_symmetry_2
Ba0 O5 2.554557 1_545
Ba0 O14 2.729809 1_555
Ba0 O9 2.878717 1_556
Ba0 O10 2.938863 1_546
Ba0 O16 2.990688 1_555
Ba0 O17 3.085485 1_555
Ba1 O15 2.691547 1_555
Ba1 O1 2.735550 1_655
Ba1 O14 2.794034 1_555
Ba1 O0 2.914917 1_655
Ba1 O16 2.983496 1_555
Ba1 O2 2.988968 1_555
Ba1 O11 3.025675 1_555
Ba2 O1 2.471147 1_555
Ba2 O0 2.603737 1_555
Ba2 O5 2.803741 1_554
Ba2 O3 2.842273 1_555
Ba2 O6 2.978184 1_555
Ba2 O7 3.016031 1_555
Ba2 O4 3.312359 1_555
Ba3 O1 2.570867 1_556
Ba3 O11 2.587801 1_455
Ba3 O8 2.594767 1_555
Ba3 O12 2.743074 1_555
Ba3 O10 2.752184 1_456
Ba3 O5 2.888904 1_455
Ba4 O1 2.530540 1_555
Ba4 O12 2.592137 1_554
Ba4 O9 2.747473 1_555
Ba4 O13 2.866486 1_455
Ba4 O6 3.096220 1_545
Ba4 O3 3.236720 1_555
Ba4 O17 3.287543 1_554
Ba5 O15 2.470847 1_555
Ba5 O8 2.626238 1_555
Ba5 O2 2.868172 1_555
Ba5 O9 2.876125 1_565
Ba5 O0 2.921190 1_555
Ge0 O6 1.685122 1_655
Ge0 O13 1.759732 1_565
Ge0 O10 1.842001 1_555
Ge0 O2 1.864840 1_555
Ge1 O14 1.744532 1_455
Ge1 O8 1.750787 1_545
Ge1 O17 1.831142 1_555
Ge1 O4 1.839196 1_555
Ge2 O11 1.734680 1_555
Ge2 O15 1.748255 1_555
Ge2 O5 1.791514 1_555
Ge2 O3 1.881696 1_556
Ge3 O7 1.870323 1_555
Ge3 O16 1.938280 1_555
Ge3 O4 1.955334 1_555
Ge4 O12 1.724034 1_555
Ge4 O0 1.762855 1_555
Ge4 O17 1.856951 1_555
Ge4 O16 1.863959 1_555
Ge5 O9 1.747399 1_555
Ge5 O3 1.774543 1_555
Ge5 O7 1.786296 1_555
Ge5 O13 1.845127 1_555
O10 O2 1.602814 1_555
