# generated using pymatgen
data_Ce6Si4S17
_symmetry_space_group_name_H-M   'P 1'
_cell_length_a   9.01100829
_cell_length_b   10.06565539
_cell_length_c   14.33625728
_cell_angle_alpha   82.26872617
_cell_angle_beta   86.86345495
_cell_angle_gamma   89.24233313
_symmetry_Int_Tables_number   1
_chemical_formula_structural   Ce6Si4S17
_chemical_formula_sum   'Ce12 Si8 S34'
_cell_volume   1286.55012784
_cell_formula_units_Z   2
loop_
 _symmetry_equiv_pos_site_id
 _symmetry_equiv_pos_as_xyz
  1  'x, y, z'
loop_
 _atom_site_type_symbol
 _atom_site_label
 _atom_site_symmetry_multiplicity
 _atom_site_fract_x
 _atom_site_fract_y
 _atom_site_fract_z
 _atom_site_occupancy
  Ce  Ce0  1  0.17050883  0.08854524  0.65803496  1
  Ce  Ce1  1  0.52036416  0.26834603  0.45847705  1
  Ce  Ce2  1  0.60604412  0.88470310  0.81721935  1
  Ce  Ce3  1  0.13025033  0.43055513  0.32550615  1
  Ce  Ce4  1  0.41788293  0.42104200  0.83338833  1
  Ce  Ce5  1  0.94859567  0.23877152  0.00057413  1
  Ce  Ce6  1  0.39395588  0.11529690  0.18278065  1
  Ce  Ce7  1  0.47963584  0.73165397  0.54152295  1
  Ce  Ce8  1  0.86974967  0.56944487  0.67449385  1
  Ce  Ce9  1  0.82949117  0.91145476  0.34196504  1
  Ce  Ce10  1  0.05140433  0.76122848  0.99942587  1
  Ce  Ce11  1  0.58211707  0.57895800  0.16661167  1
  Si  Si0  1  0.77374591  0.55846921  0.39426436  1
  Si  Si1  1  0.75236098  0.55941491  0.92284882  1
  Si  Si2  1  0.25098051  0.99911680  0.41526937  1
  Si  Si3  1  0.73083429  0.93787745  0.09914280  1
  Si  Si4  1  0.26916571  0.06212255  0.90085720  1
  Si  Si5  1  0.22625409  0.44153079  0.60573564  1
  Si  Si6  1  0.24763902  0.44058509  0.07715118  1
  Si  Si7  1  0.74901949  0.00088320  0.58473063  1
  S  S0  1  0.74648652  0.11339424  0.16738890  1
  S  S1  1  0.13265397  0.21666200  0.83268039  1
  S  S2  1  0.20317870  0.58962547  0.69548979  1
  S  S3  1  0.57128223  0.64597041  0.72115710  1
  S  S4  1  0.01818221  0.34717604  0.60287734  1
  S  S5  1  0.31710454  0.51868745  0.46659132  1
  S  S6  1  0.39419032  0.29941208  0.65370370  1
  S  S7  1  0.85464770  0.02855133  0.70733263  1
  S  S8  1  0.45784180  0.35276159  0.04900708  1
  S  S9  1  0.60580968  0.70058792  0.34629630  1
  S  S10  1  0.88401179  0.71121801  0.83845454  1
  S  S11  1  0.49103648  0.12754544  0.88590889  1
  S  S12  1  0.24232066  0.61338095  0.15004986  1
  S  S13  1  0.75767934  0.38661905  0.84995014  1
  S  S14  1  0.83908346  0.50162954  0.05679733  1
  S  S15  1  0.50896352  0.87245456  0.11409111  1
  S  S16  1  0.19157085  0.86620713  0.53682498  1
  S  S17  1  0.11598821  0.28878199  0.16154546  1
  S  S18  1  0.82163809  0.98128628  0.95688254  1
  S  S19  1  0.51525638  0.99428173  0.62310308  1
  S  S20  1  0.86734603  0.78333800  0.16731961  1
  S  S21  1  0.16091654  0.49837046  0.94320267  1
  S  S22  1  0.54215820  0.64723841  0.95099292  1
  S  S23  1  0.68289546  0.48131255  0.53340868  1
  S  S24  1  0.17836191  0.01871372  0.04311746  1
  S  S25  1  0.80842915  0.13379287  0.46317502  1
  S  S26  1  0.48474362  0.00571827  0.37689692  1
  S  S27  1  0.79332364  0.80894365  0.54021635  1
  S  S28  1  0.25351348  0.88660576  0.83261110  1
  S  S29  1  0.42871777  0.35402959  0.27884290  1
  S  S30  1  0.14535230  0.97144867  0.29266737  1
  S  S31  1  0.20667636  0.19105635  0.45978365  1
  S  S32  1  0.98181779  0.65282396  0.39712266  1
  S  S33  1  0.79682130  0.41037453  0.30451021  1
loop_
_geom_bond_atom_site_label_1
_geom_bond_atom_site_label_2
_geom_bond_distance
_geom_bond_site_symmetry_2
Ce0 S31 2.892644 1_555
Ce0 S6 2.938627 1_555
Ce0 S7 2.945448 1_455
Ce0 S4 2.959204 1_555
Ce0 S1 2.968471 1_555
Ce0 S16 3.010510 1_545
Ce0 S28 3.122637 1_545
Ce0 S19 3.268209 1_545
Ce1 S29 2.770236 1_555
Ce1 S25 2.911770 1_555
Ce1 S31 2.940059 1_555
Ce1 S23 2.961242 1_555
Ce1 S6 3.016899 1_555
Ce1 S26 3.058504 1_555
Ce1 S5 3.106660 1_555
Ce1 S19 3.379660 1_545
Ce1 S33 3.430056 1_555
Ce2 S22 2.899115 1_555
Ce2 S11 2.913352 1_565
Ce2 S7 2.946608 1_565
Ce2 S3 2.954090 1_555
Ce2 S19 3.004961 1_555
Ce2 S10 3.039842 1_555
Ce2 S18 3.118912 1_555
Ce2 S28 3.172227 1_555
Ce3 S29 2.856781 1_555
Ce3 S32 2.870045 1_455
Ce3 S17 2.918666 1_555
Ce3 S5 2.933931 1_555
Ce3 S31 2.973910 1_555
Ce3 S12 3.042908 1_555
Ce3 S33 3.048054 1_455
Ce4 S21 2.886022 1_555
Ce4 S3 2.912853 1_555
Ce4 S6 3.015938 1_555
Ce4 S11 3.022134 1_555
Ce4 S13 3.095331 1_555
Ce4 S8 3.114637 1_556
Ce4 S2 3.155949 1_555
Ce4 S22 3.253835 1_555
Ce4 S1 3.314588 1_555
Ce5 S1 2.879464 1_654
Ce5 S17 2.927073 1_655
Ce5 S18 3.001989 1_544
Ce5 S14 3.006933 1_555
Ce5 S24 3.036184 1_655
Ce5 S13 3.051462 1_554
Ce5 S0 3.066082 1_555
Ce5 S21 3.247558 1_654
Ce6 S8 2.899115 1_555
Ce6 S15 2.913352 1_545
Ce6 S30 2.946608 1_545
Ce6 S29 2.954090 1_555
Ce6 S26 3.004961 1_555
Ce6 S17 3.039842 1_555
Ce6 S24 3.118912 1_555
Ce6 S0 3.172227 1_555
Ce7 S3 2.770236 1_555
Ce7 S16 2.911770 1_555
Ce7 S27 2.940059 1_555
Ce7 S5 2.961242 1_555
Ce7 S9 3.016899 1_555
Ce7 S19 3.058504 1_555
Ce7 S23 3.106660 1_555
Ce7 S26 3.379660 1_565
Ce7 S2 3.430056 1_555
Ce8 S3 2.856781 1_555
Ce8 S4 2.870045 1_655
Ce8 S10 2.918666 1_555
Ce8 S23 2.933931 1_555
Ce8 S27 2.973910 1_555
Ce8 S13 3.042908 1_555
Ce8 S2 3.048054 1_655
Ce9 S27 2.892644 1_555
Ce9 S9 2.938627 1_555
Ce9 S30 2.945448 1_655
Ce9 S32 2.959204 1_555
Ce9 S20 2.968471 1_555
Ce9 S25 3.010510 1_565
Ce9 S0 3.122637 1_565
Ce9 S26 3.268209 1_565
Ce10 S20 2.879464 1_456
Ce10 S10 2.927073 1_455
Ce10 S24 3.001989 1_566
Ce10 S21 3.006933 1_555
Ce10 S18 3.036184 1_455
Ce10 S12 3.051462 1_556
Ce10 S28 3.066082 1_555
Ce10 S14 3.247558 1_456
Ce11 S14 2.886022 1_555
Ce11 S29 2.912853 1_555
Ce11 S9 3.015938 1_555
Ce11 S15 3.022134 1_555
Ce11 S12 3.095331 1_555
Ce11 S22 3.114637 1_554
Ce11 S33 3.155949 1_555
Ce11 S8 3.253835 1_555
Ce11 S20 3.314588 1_555
S0 Si3 2.141285 1_545
S1 Si4 2.135435 1_555
S2 Si5 2.097529 1_555
S4 Si5 2.117794 1_555
S5 Si5 2.161919 1_555
S6 Si5 2.145050 1_555
S7 Si7 2.096342 1_555
S8 Si6 2.121336 1_555
S9 Si0 2.145050 1_555
S10 Si1 2.144626 1_555
S11 Si4 2.103963 1_555
S12 Si6 2.145013 1_555
S13 Si1 2.145013 1_555
S14 Si1 2.118560 1_554
S15 Si3 2.103963 1_555
S16 Si2 2.098282 1_555
S17 Si6 2.144626 1_555
S18 Si3 2.146387 1_556
S19 Si7 2.147370 1_565
S20 Si3 2.135435 1_555
S21 Si6 2.118560 1_556
S22 Si1 2.121336 1_555
S23 Si0 2.161919 1_555
S24 Si4 2.146387 1_554
S25 Si7 2.098282 1_555
S26 Si2 2.147370 1_545
S27 Si7 2.140725 1_565
S28 Si4 2.141285 1_565
S30 Si2 2.096342 1_555
S31 Si2 2.140725 1_545
S32 Si0 2.117794 1_555
S33 Si0 2.097529 1_555
