# generated using pymatgen
data_Ti7(Fe3O8)3
_symmetry_space_group_name_H-M   'P 1'
_cell_length_a   5.14663300
_cell_length_b   5.61262688
_cell_length_c   15.12570868
_cell_angle_alpha   83.75059585
_cell_angle_beta   89.94290387
_cell_angle_gamma   89.78948249
_symmetry_Int_Tables_number   1
_chemical_formula_structural   Ti7(Fe3O8)3
_chemical_formula_sum   'Ti7 Fe9 O24'
_cell_volume   434.32375955
_cell_formula_units_Z   1
loop_
 _symmetry_equiv_pos_site_id
 _symmetry_equiv_pos_as_xyz
  1  'x, y, z'
loop_
 _atom_site_type_symbol
 _atom_site_label
 _atom_site_symmetry_multiplicity
 _atom_site_fract_x
 _atom_site_fract_y
 _atom_site_fract_z
 _atom_site_occupancy
  Ti  Ti0  1  0.99919700  0.71239800  0.42699400  1
  Ti  Ti1  1  0.49641600  0.20945200  0.17729000  1
  Ti  Ti2  1  0.99607200  0.29319400  0.07364000  1
  Ti  Ti3  1  0.00005000  0.28695700  0.81974600  1
  Ti  Ti4  1  0.49535100  0.78099700  0.82551000  1
  Ti  Ti5  1  0.01212000  0.29616300  0.57001900  1
  Ti  Ti6  1  0.49956400  0.78920900  0.32168500  1
  Fe  Fe0  1  0.49664900  0.20711500  0.67367500  1
  Fe  Fe1  1  0.49603300  0.79299600  0.57319200  1
  Fe  Fe2  1  0.99675900  0.29030300  0.32202800  1
  Fe  Fe3  1  0.50502400  0.79477000  0.07568700  1
  Fe  Fe4  1  0.00405300  0.71136600  0.17577600  1
  Fe  Fe5  1  0.00689000  0.71070000  0.93018400  1
  Fe  Fe6  1  0.49536300  0.20578900  0.93050600  1
  Fe  Fe7  1  0.99752300  0.71327400  0.67663400  1
  Fe  Fe8  1  0.50632500  0.21144600  0.42782100  1
  O  O0  1  0.81657800  0.01189200  0.87109900  1
  O  O1  1  0.63340200  0.85089300  0.70887100  1
  O  O2  1  0.32874000  0.84622400  0.44623100  1
  O  O3  1  0.28986300  0.48768500  0.62711200  1
  O  O4  1  0.13143100  0.34990100  0.45349200  1
  O  O5  1  0.83073500  0.33543200  0.19753900  1
  O  O6  1  0.80350800  0.97388300  0.37872500  1
  O  O7  1  0.62977100  0.84779300  0.20539900  1
  O  O8  1  0.35718500  0.83542000  0.94654100  1
  O  O9  1  0.16845600  0.66019200  0.30218400  1
  O  O10  1  0.86170500  0.64428800  0.04814100  1
  O  O11  1  0.31134500  0.47859500  0.12660700  1
  O  O12  1  0.70251000  0.52046300  0.86800200  1
  O  O13  1  0.12755500  0.34132800  0.95277200  1
  O  O14  1  0.84303200  0.33592900  0.70889900  1
  O  O15  1  0.67674600  0.15000300  0.05498400  1
  O  O16  1  0.32154300  0.15247300  0.79604400  1
  O  O17  1  0.19221700  0.02409900  0.62065300  1
  O  O18  1  0.17577900  0.63863800  0.80494600  1
  O  O19  1  0.86151100  0.64687500  0.54226800  1
  O  O20  1  0.68951900  0.52241200  0.37174100  1
  O  O21  1  0.67711800  0.16587100  0.55590700  1
  O  O22  1  0.36665800  0.14719700  0.29318500  1
  O  O23  1  0.19970400  0.02638400  0.11826900  1
loop_
_geom_bond_atom_site_label_1
_geom_bond_atom_site_label_2
_geom_bond_distance
_geom_bond_site_symmetry_2
Fe0 O3 1.963714 1_555
Fe0 O14 2.019861 1_555
Fe0 O21 2.043107 1_555
Fe0 O16 2.051158 1_555
Fe0 O17 2.084918 1_555
Fe0 O1 2.129510 1_545
Fe1 O2 2.096403 1_555
Fe1 O3 2.105906 1_555
Fe1 O19 2.121298 1_555
Fe1 O17 2.197346 1_565
Fe1 O1 2.228652 1_555
Fe1 O21 2.282873 1_565
Fe2 O5 2.058562 1_555
Fe2 O22 2.126750 1_655
Fe2 O6 2.135029 1_545
Fe2 O4 2.166940 1_655
Fe2 O20 2.226808 1_555
Fe2 O9 2.249048 1_655
Fe3 O10 2.078572 1_555
Fe3 O8 2.086026 1_554
Fe3 O11 2.109460 1_555
Fe3 O7 2.116881 1_555
Fe3 O15 2.175043 1_565
Fe3 O23 2.176973 1_565
Fe4 O9 2.082326 1_555
Fe4 O7 2.135374 1_455
Fe4 O10 2.137439 1_455
Fe4 O23 2.138494 1_565
Fe4 O11 2.226018 1_555
Fe4 O5 2.284308 1_455
Fe5 O10 1.932661 1_456
Fe5 O8 1.961969 1_555
Fe5 O0 2.067954 1_465
Fe5 O13 2.153390 1_555
Fe5 O18 2.160665 1_555
Fe5 O12 2.170844 1_455
Fe6 O13 2.078319 1_555
Fe6 O15 2.094634 1_556
Fe6 O8 2.187804 1_545
Fe6 O12 2.190430 1_555
Fe6 O0 2.218440 1_555
Fe6 O16 2.272533 1_555
Fe7 O1 2.101374 1_555
Fe7 O17 2.110454 1_665
Fe7 O18 2.146532 1_655
Fe7 O3 2.148993 1_655
Fe7 O19 2.220161 1_555
Fe7 O14 2.267693 1_555
Fe8 O20 2.083947 1_555
Fe8 O21 2.117882 1_555
Fe8 O4 2.128515 1_555
Fe8 O6 2.206121 1_545
Fe8 O22 2.226797 1_555
Fe8 O2 2.236910 1_545
O0 Ti3 1.904359 1_655
O0 Ti4 2.258472 1_545
O1 Ti4 1.902667 1_555
O2 Ti0 1.892963 1_455
O2 Ti6 2.133095 1_555
O3 Ti5 2.039709 1_555
O4 Ti5 1.859593 1_555
O4 Ti0 2.139176 1_455
O5 Ti1 1.900377 1_555
O5 Ti2 2.093907 1_555
O6 Ti0 1.859732 1_555
O6 Ti6 2.115423 1_555
O7 Ti6 1.877312 1_555
O7 Ti1 2.138828 1_565
O8 Ti4 2.016902 1_555
O9 Ti6 1.889936 1_555
O9 Ti0 2.126949 1_455
O10 Ti2 2.082099 1_555
O11 Ti1 1.874997 1_555
O11 Ti2 2.134010 1_455
O12 Ti4 1.863698 1_555
O12 Ti3 2.187841 1_655
O13 Ti2 1.940262 1_456
O13 Ti3 2.170284 1_555
O14 Ti3 1.854846 1_655
O14 Ti5 2.305839 1_655
O15 Ti2 1.867209 1_555
O15 Ti1 2.126910 1_555
O16 Ti3 1.866693 1_555
O16 Ti4 2.265092 1_545
O17 Ti5 1.874515 1_555
O18 Ti4 1.872178 1_555
O18 Ti3 2.163490 1_555
O19 Ti0 1.880793 1_555
O19 Ti5 2.112162 1_655
O20 Ti6 1.874885 1_555
O20 Ti0 2.141229 1_555
O21 Ti5 1.896562 1_655
O22 Ti1 1.872721 1_555
O22 Ti6 2.119605 1_545
O23 Ti2 1.888477 1_455
O23 Ti1 2.097284 1_555
