# generated using pymatgen
data_Re2C3I4O3
_symmetry_space_group_name_H-M   'P 1'
_cell_length_a   12.15722482
_cell_length_b   12.15722482
_cell_length_c   12.87587883
_cell_angle_alpha   84.34389913
_cell_angle_beta   84.34389913
_cell_angle_gamma   42.49230665
_symmetry_Int_Tables_number   1
_chemical_formula_structural   Re2C3I4O3
_chemical_formula_sum   'Re8 C12 I16 O12'
_cell_volume   1278.27318118
_cell_formula_units_Z   4
loop_
 _symmetry_equiv_pos_site_id
 _symmetry_equiv_pos_as_xyz
  1  'x, y, z'
loop_
 _atom_site_type_symbol
 _atom_site_label
 _atom_site_symmetry_multiplicity
 _atom_site_fract_x
 _atom_site_fract_y
 _atom_site_fract_z
 _atom_site_occupancy
  Re  Re0  1  0.37096900  0.64484200  0.83593200  1
  Re  Re1  1  0.00419700  0.31884400  0.24527900  1
  Re  Re2  1  0.68115600  0.99580300  0.25472100  1
  Re  Re3  1  0.62903100  0.35515800  0.16406800  1
  Re  Re4  1  0.99580300  0.68115600  0.75472100  1
  Re  Re5  1  0.35515800  0.62903100  0.66406800  1
  Re  Re6  1  0.64484200  0.37096900  0.33593200  1
  Re  Re7  1  0.31884400  0.00419700  0.74527900  1
  C  C0  1  0.01424700  0.45151300  0.16412900  1
  C  C1  1  0.98575300  0.54848700  0.83587100  1
  C  C2  1  0.12611100  0.21678400  0.69291100  1
  C  C3  1  0.54848700  0.98575300  0.33587100  1
  C  C4  1  0.09248400  0.31749300  0.36164200  1
  C  C5  1  0.68250700  0.90751600  0.13835800  1
  C  C6  1  0.21678400  0.12611100  0.19291100  1
  C  C7  1  0.31749300  0.09248400  0.86164200  1
  C  C8  1  0.45151300  0.01424700  0.66412900  1
  C  C9  1  0.87388900  0.78321600  0.30708900  1
  C  C10  1  0.78321600  0.87388900  0.80708900  1
  C  C11  1  0.90751600  0.68250700  0.63835800  1
  I  I0  1  0.34201300  0.85307600  0.57495600  1
  I  I1  1  0.66974800  0.38031500  0.60391300  1
  I  I2  1  0.02401000  0.87073800  0.63768600  1
  I  I3  1  0.33025200  0.61968500  0.39608700  1
  I  I4  1  0.12926200  0.97599000  0.86231400  1
  I  I5  1  0.97599000  0.12926200  0.36231400  1
  I  I6  1  0.32485500  0.42467300  0.67301700  1
  I  I7  1  0.14692400  0.65798700  0.92504400  1
  I  I8  1  0.42467300  0.32485500  0.17301700  1
  I  I9  1  0.87073800  0.02401000  0.13768600  1
  I  I10  1  0.57532700  0.67514500  0.82698300  1
  I  I11  1  0.85307600  0.34201300  0.07495600  1
  I  I12  1  0.67514500  0.57532700  0.32698300  1
  I  I13  1  0.38031500  0.66974800  0.10391300  1
  I  I14  1  0.65798700  0.14692400  0.42504400  1
  I  I15  1  0.61968500  0.33025200  0.89608700  1
  O  O0  1  0.47026000  0.97549500  0.38574700  1
  O  O1  1  0.68181300  0.85409200  0.06841300  1
  O  O2  1  0.02450500  0.52974000  0.11425300  1
  O  O3  1  0.00678900  0.34650300  0.66221600  1
  O  O4  1  0.31818700  0.14590800  0.93158700  1
  O  O5  1  0.65349700  0.99321100  0.83778400  1
  O  O6  1  0.14590800  0.31818700  0.43158700  1
  O  O7  1  0.34650300  0.00678900  0.16221600  1
  O  O8  1  0.52974000  0.02450500  0.61425300  1
  O  O9  1  0.97549500  0.47026000  0.88574700  1
  O  O10  1  0.99321100  0.65349700  0.33778400  1
  O  O11  1  0.85409200  0.68181300  0.56841300  1
loop_
_geom_bond_atom_site_label_1
_geom_bond_atom_site_label_2
_geom_bond_distance
_geom_bond_site_symmetry_2
Re0 Re5 2.278815 1_555
Re3 Re6 2.278815 1_555
C0 O2 1.170960 1_555
C0 Re1 1.908235 1_555
C1 O9 1.170960 1_555
C1 Re4 1.908235 1_555
C2 O3 1.167888 1_555
C2 Re7 1.913546 1_555
C3 O0 1.170960 1_555
C3 Re2 1.908235 1_555
C4 O6 1.165276 1_555
C4 Re1 1.919184 1_555
C5 O1 1.165276 1_555
C5 Re2 1.919184 1_555
C6 O7 1.167888 1_555
C6 Re1 1.913546 1_555
C7 O4 1.165276 1_555
C7 Re7 1.919184 1_555
C8 O8 1.170960 1_555
C8 Re7 1.908235 1_555
C9 O10 1.167888 1_555
C9 Re2 1.913546 1_555
C10 O5 1.167888 1_555
C10 Re4 1.913546 1_555
C11 O11 1.165276 1_555
C11 Re4 1.919184 1_555
I0 Re5 2.745751 1_555
I0 Re7 2.858928 1_565
I1 Re5 2.682032 1_555
I1 Re6 3.513464 1_555
I2 Re5 2.753969 1_555
I2 Re4 2.842461 1_455
I3 Re6 2.682032 1_555
I3 Re5 3.513464 1_555
I4 Re0 2.753969 1_555
I4 Re7 2.842461 1_565
I5 Re6 2.753969 1_555
I5 Re1 2.842461 1_655
I6 Re5 2.757960 1_555
I6 Re4 2.872988 1_455
I7 Re0 2.745751 1_555
I7 Re4 2.858928 1_455
I8 Re3 2.757960 1_555
I8 Re2 2.872988 1_545
I9 Re3 2.753969 1_555
I9 Re2 2.842461 1_545
I10 Re0 2.757960 1_555
I10 Re7 2.872988 1_565
I11 Re3 2.745751 1_555
I11 Re1 2.858928 1_655
I12 Re6 2.757960 1_555
I12 Re1 2.872988 1_655
I13 Re3 2.682032 1_555
I13 Re0 3.513464 1_554
I14 Re6 2.745751 1_555
I14 Re2 2.858928 1_545
I15 Re0 2.682032 1_555
I15 Re3 3.513464 1_556
