# generated using pymatgen
data_La5YbS8
_symmetry_space_group_name_H-M   'P 1'
_cell_length_a   7.52613495
_cell_length_b   7.52613495
_cell_length_c   7.52613495
_cell_angle_alpha   109.51084296
_cell_angle_beta   109.51084296
_cell_angle_gamma   109.39200502
_symmetry_Int_Tables_number   1
_chemical_formula_structural   La5YbS8
_chemical_formula_sum   'La5 Yb1 S8'
_cell_volume   328.16592964
_cell_formula_units_Z   1
loop_
 _symmetry_equiv_pos_site_id
 _symmetry_equiv_pos_as_xyz
  1  'x, y, z'
loop_
 _atom_site_type_symbol
 _atom_site_label
 _atom_site_symmetry_multiplicity
 _atom_site_fract_x
 _atom_site_fract_y
 _atom_site_fract_z
 _atom_site_occupancy
  La  La0  1  0.87707800  0.50112200  0.12267500  1
  La  La1  1  0.75000000  0.25000000  0.50000000  1
  La  La2  1  0.37844700  0.75440300  0.87732500  1
  La  La3  1  0.49887800  0.62155300  0.37595500  1
  La  La4  1  0.24559700  0.12292200  0.62404500  1
  Yb  Yb0  1  0.00000000  0.00000000  0.00000000  1
  S  S0  1  0.12100500  0.36987500  0.39406400  1
  S  S1  1  0.97581100  0.72694100  0.60593600  1
  S  S2  1  0.77475600  0.87450400  0.25027500  1
  S  S3  1  0.47551900  0.22524400  0.09974800  1
  S  S4  1  0.63012500  0.02418900  0.75113000  1
  S  S5  1  0.62422900  0.52448100  0.74972500  1
  S  S6  1  0.12549600  0.37577100  0.90025200  1
  S  S7  1  0.27305900  0.87899500  0.24887000  1
loop_
_geom_bond_atom_site_label_1
_geom_bond_atom_site_label_2
_geom_bond_distance
_geom_bond_site_symmetry_2
La0 S5 2.917983 1_554
La0 S7 2.923775 1_655
La0 S0 2.926604 1_655
La0 S3 2.952931 1_555
La0 S6 3.065079 1_654
La0 S2 3.088769 1_555
La0 S4 3.090565 1_554
La0 S1 3.145809 1_555
La1 S5 2.930742 1_555
La1 S2 2.930742 1_545
La1 S3 2.930742 1_555
La1 S6 2.930742 1_655
La1 S1 3.088828 1_555
La1 S4 3.088828 1_555
La1 S0 3.088828 1_655
La1 S7 3.088828 1_545
La2 S2 2.917983 1_556
La2 S4 2.923775 1_565
La2 S1 2.926604 1_455
La2 S6 2.952931 1_555
La2 S3 3.065079 1_566
La2 S5 3.088769 1_555
La2 S7 3.090565 1_556
La2 S0 3.145809 1_555
La3 S3 2.917980 1_555
La3 S0 2.923779 1_555
La3 S4 2.926608 1_565
La3 S2 2.952926 1_555
La3 S5 3.065086 1_555
La3 S6 3.088764 1_554
La3 S1 3.090566 1_555
La3 S7 3.145807 1_555
La4 S6 2.917978 1_555
La4 S1 2.923771 1_445
La4 S7 2.926610 1_545
La4 S5 2.952934 1_555
La4 S2 3.065081 1_445
La4 S3 3.088763 1_556
La4 S0 3.090570 1_555
La4 S4 3.145809 1_555
S0 Yb0 2.893445 1_555
S1 Yb0 2.893445 1_666
S2 Yb0 3.093837 1_665
S3 Yb0 3.093837 1_555
S4 Yb0 2.893445 1_656
S5 Yb0 3.093837 1_666
S6 Yb0 3.093837 1_556
S7 Yb0 2.893445 1_565
