# generated using pymatgen
data_Na3(CoO2)4
_symmetry_space_group_name_H-M   'P 1'
_cell_length_a   6.38323974
_cell_length_b   6.38323974
_cell_length_c   5.04593630
_cell_angle_alpha   74.84900234
_cell_angle_beta   74.84900234
_cell_angle_gamma   55.07272771
_symmetry_Int_Tables_number   1
_chemical_formula_structural   Na3(CoO2)4
_chemical_formula_sum   'Na3 Co4 O8'
_cell_volume   161.07865343
_cell_formula_units_Z   1
loop_
 _symmetry_equiv_pos_site_id
 _symmetry_equiv_pos_as_xyz
  1  'x, y, z'
loop_
 _atom_site_type_symbol
 _atom_site_label
 _atom_site_symmetry_multiplicity
 _atom_site_fract_x
 _atom_site_fract_y
 _atom_site_fract_z
 _atom_site_occupancy
  Na  Na0  1  0.73457200  0.26542800  0.50000000  1
  Na  Na1  1  0.26542800  0.73457200  0.50000000  1
  Na  Na2  1  0.00000000  0.00000000  0.00000000  1
  Co  Co0  1  0.25291600  0.25291600  0.49504400  1
  Co  Co1  1  0.00000000  0.50000000  0.00000000  1
  Co  Co2  1  0.74708400  0.74708400  0.50495600  1
  Co  Co3  1  0.50000000  0.00000000  0.00000000  1
  O  O0  1  0.34487400  0.34487400  0.75458800  1
  O  O1  1  0.91468700  0.39530300  0.73007900  1
  O  O2  1  0.08531300  0.60469700  0.26992100  1
  O  O3  1  0.65512600  0.65512600  0.24541200  1
  O  O4  1  0.83926000  0.83926000  0.77654900  1
  O  O5  1  0.39530300  0.91468700  0.73007900  1
  O  O6  1  0.60469700  0.08531300  0.26992100  1
  O  O7  1  0.16074000  0.16074000  0.22345100  1
loop_
_geom_bond_atom_site_label_1
_geom_bond_atom_site_label_2
_geom_bond_distance
_geom_bond_site_symmetry_2
Na0 O3 2.306713 1_555
Na0 O0 2.306713 1_555
Na0 O6 2.376808 1_555
Na0 O1 2.376808 1_555
Na0 O4 2.493109 1_545
Na0 O7 2.493109 1_655
Na1 O0 2.306713 1_555
Na1 O3 2.306713 1_555
Na1 O2 2.376808 1_555
Na1 O5 2.376808 1_555
Na1 O4 2.493109 1_455
Na1 O7 2.493109 1_565
Na2 O6 2.352971 1_455
Na2 O2 2.352971 1_545
Na2 O1 2.352971 1_454
Na2 O5 2.352971 1_544
Na2 O4 2.406612 1_444
Na2 O7 2.406612 1_555
Co0 O0 1.898028 1_555
Co0 O7 1.951898 1_555
Co0 O5 1.967720 1_545
Co0 O1 1.967720 1_455
Co0 O2 2.007061 1_555
Co0 O6 2.007061 1_555
Co1 O4 1.948806 1_454
Co1 O7 1.948806 1_555
Co1 O1 1.969392 1_454
Co1 O2 1.969392 1_555
Co1 O3 2.019921 1_455
Co1 O0 2.019921 1_554
Co2 O3 1.898028 1_555
Co2 O4 1.951898 1_555
Co2 O2 1.967720 1_655
Co2 O6 1.967720 1_565
Co2 O5 2.007061 1_555
Co2 O1 2.007061 1_555
Co3 O4 1.948806 1_544
Co3 O7 1.948806 1_555
Co3 O5 1.969392 1_544
Co3 O6 1.969392 1_555
Co3 O0 2.019921 1_554
Co3 O3 2.019921 1_545
