# generated using pymatgen
data_PWC5Br3O5
_symmetry_space_group_name_H-M   'P 1'
_cell_length_a   13.76977500
_cell_length_b   6.96598000
_cell_length_c   13.51270300
_cell_angle_alpha   87.44405975
_cell_angle_beta   90.00000000
_cell_angle_gamma   90.00000000
_symmetry_Int_Tables_number   1
_chemical_formula_structural   PWC5Br3O5
_chemical_formula_sum   'P4 W4 C20 Br12 O20'
_cell_volume   1294.84871215
_cell_formula_units_Z   4
loop_
 _symmetry_equiv_pos_site_id
 _symmetry_equiv_pos_as_xyz
  1  'x, y, z'
loop_
 _atom_site_type_symbol
 _atom_site_label
 _atom_site_symmetry_multiplicity
 _atom_site_fract_x
 _atom_site_fract_y
 _atom_site_fract_z
 _atom_site_occupancy
  P  P0  1  0.36693800  0.68758600  0.33499400  1
  P  P1  1  0.86693800  0.31241400  0.16500600  1
  P  P2  1  0.63306200  0.31241400  0.66500600  1
  P  P3  1  0.13306200  0.68758600  0.83499400  1
  W  W0  1  0.80462800  0.28805700  0.60542200  1
  W  W1  1  0.19537200  0.71194300  0.39457800  1
  W  W2  1  0.30462800  0.71194300  0.89457800  1
  W  W3  1  0.69537200  0.28805700  0.10542200  1
  C  C0  1  0.55498700  0.26167400  0.05504800  1
  C  C1  1  0.44501300  0.73832600  0.94495200  1
  C  C2  1  0.23876600  0.57353100  0.52784300  1
  C  C3  1  0.73876600  0.42646900  0.97215700  1
  C  C4  1  0.34247600  0.84481600  0.75815600  1
  C  C5  1  0.65752400  0.15518400  0.24184400  1
  C  C6  1  0.15752400  0.84481600  0.25815600  1
  C  C7  1  0.05498700  0.73832600  0.44495200  1
  C  C8  1  0.33839800  0.44791100  0.83514200  1
  C  C9  1  0.76123400  0.42646900  0.47215700  1
  C  C10  1  0.23447900  0.97406500  0.45245600  1
  C  C11  1  0.26123400  0.57353100  0.02784300  1
  C  C12  1  0.83839800  0.55208900  0.66485800  1
  C  C13  1  0.26552100  0.97406500  0.95245600  1
  C  C14  1  0.94501300  0.26167400  0.55504800  1
  C  C15  1  0.73447900  0.02593500  0.04754400  1
  C  C16  1  0.66160200  0.55208900  0.16485800  1
  C  C17  1  0.84247600  0.15518400  0.74184400  1
  C  C18  1  0.76552100  0.02593500  0.54754400  1
  C  C19  1  0.16160200  0.44791100  0.33514200  1
  Br  Br0  1  0.01793500  0.76301500  0.94220900  1
  Br  Br1  1  0.98206500  0.23698500  0.05779100  1
  Br  Br2  1  0.58175400  0.60032300  0.71178400  1
  Br  Br3  1  0.51793500  0.23698500  0.55779100  1
  Br  Br4  1  0.91824600  0.60032300  0.21178400  1
  Br  Br5  1  0.41824600  0.39967700  0.28821600  1
  Br  Br6  1  0.90682600  0.12084900  0.29703500  1
  Br  Br7  1  0.59317400  0.12084900  0.79703500  1
  Br  Br8  1  0.40682600  0.87915100  0.20296500  1
  Br  Br9  1  0.08175400  0.39967700  0.78821600  1
  Br  Br10  1  0.48206500  0.76301500  0.44220900  1
  Br  Br11  1  0.09317400  0.87915100  0.70296500  1
  O  O0  1  0.97524100  0.75417300  0.47259500  1
  O  O1  1  0.52475900  0.75417300  0.97259500  1
  O  O2  1  0.36179300  0.91287500  0.68066600  1
  O  O3  1  0.86179300  0.08712500  0.81933400  1
  O  O4  1  0.25832400  0.11813300  0.48519700  1
  O  O5  1  0.64378200  0.69791900  0.19902600  1
  O  O6  1  0.76388400  0.50067900  0.89784700  1
  O  O7  1  0.26388400  0.49932100  0.60215300  1
  O  O8  1  0.02475900  0.24582700  0.52740500  1
  O  O9  1  0.13820700  0.91287500  0.18066600  1
  O  O10  1  0.73611600  0.50067900  0.39784700  1
  O  O11  1  0.74167600  0.88186700  0.51480300  1
  O  O12  1  0.14378200  0.30208100  0.30097400  1
  O  O13  1  0.47524100  0.24582700  0.02740500  1
  O  O14  1  0.85621800  0.69791900  0.69902600  1
  O  O15  1  0.75832400  0.88186700  0.01480300  1
  O  O16  1  0.35621800  0.30208100  0.80097400  1
  O  O17  1  0.23611600  0.49932100  0.10215300  1
  O  O18  1  0.63820700  0.08712500  0.31933400  1
  O  O19  1  0.24167600  0.11813300  0.98519700  1
loop_
_geom_bond_atom_site_label_1
_geom_bond_atom_site_label_2
_geom_bond_distance
_geom_bond_site_symmetry_2
P0 W1 2.504052 1_555
P1 W3 2.504052 1_555
P2 W0 2.504052 1_555
P3 W2 2.504052 1_555
C0 O13 1.166696 1_555
C0 W3 2.060347 1_555
C1 O1 1.166696 1_555
C1 W2 2.060347 1_555
C2 O7 1.161394 1_555
C2 W1 2.091552 1_555
C3 O6 1.161394 1_555
C3 W3 2.091552 1_556
C4 O2 1.160888 1_555
C4 W2 2.091501 1_555
C5 O18 1.160888 1_555
C5 W3 2.091501 1_555
C6 O9 1.160888 1_555
C6 W1 2.091501 1_555
C7 O0 1.166696 1_455
C7 W1 2.060347 1_555
C8 O16 1.160672 1_555
C8 W2 2.091847 1_555
C9 O10 1.161394 1_555
C9 W0 2.091552 1_555
C10 O4 1.162026 1_565
C10 W1 2.088791 1_555
C11 O17 1.161394 1_555
C11 W2 2.091552 1_554
C12 O14 1.160672 1_555
C12 W0 2.091847 1_555
C13 O19 1.162026 1_565
C13 W2 2.088791 1_555
C14 O8 1.166696 1_655
C14 W0 2.060347 1_555
C15 O15 1.162026 1_545
C15 W3 2.088791 1_555
C16 O5 1.160672 1_555
C16 W3 2.091847 1_555
C17 O3 1.160888 1_555
C17 W0 2.091501 1_555
C18 O11 1.162026 1_545
C18 W0 2.088791 1_555
C19 O12 1.160672 1_555
C19 W1 2.091847 1_555
Br0 P3 2.226205 1_555
Br1 P1 2.226205 1_555
Br2 P2 2.243671 1_555
Br3 P2 2.226205 1_555
Br4 P1 2.243671 1_555
Br5 P0 2.243671 1_555
Br6 P1 2.247880 1_555
Br7 P2 2.247880 1_555
Br8 P0 2.247880 1_555
Br9 P3 2.243671 1_555
Br10 P0 2.226205 1_555
Br11 P3 2.247880 1_555
