# generated using pymatgen
data_Cr5S8
_symmetry_space_group_name_H-M   'P 1'
_cell_length_a   8.87041700
_cell_length_b   8.87207346
_cell_length_c   10.34750633
_cell_angle_alpha   112.88309666
_cell_angle_beta   112.85540920
_cell_angle_gamma   84.59602923
_symmetry_Int_Tables_number   1
_chemical_formula_structural   Cr5S8
_chemical_formula_sum   'Cr15 S24'
_cell_volume   689.79426991
_cell_formula_units_Z   3
loop_
 _symmetry_equiv_pos_site_id
 _symmetry_equiv_pos_as_xyz
  1  'x, y, z'
loop_
 _atom_site_type_symbol
 _atom_site_label
 _atom_site_symmetry_multiplicity
 _atom_site_fract_x
 _atom_site_fract_y
 _atom_site_fract_z
 _atom_site_occupancy
  Cr  Cr0  1  0.25339200  0.24821000  0.00188600  1
  Cr  Cr1  1  0.74778100  0.74738000  0.66387100  1
  Cr  Cr2  1  0.74660800  0.75179000  0.99811400  1
  Cr  Cr3  1  0.25221900  0.25262000  0.33612900  1
  Cr  Cr4  1  0.00000000  0.50000000  0.50000000  1
  Cr  Cr5  1  0.75006200  0.25141100  0.99854900  1
  Cr  Cr6  1  0.26992500  0.26094200  0.67391600  1
  Cr  Cr7  1  0.48844800  0.97994500  0.82442000  1
  Cr  Cr8  1  0.51155200  0.02005500  0.17558000  1
  Cr  Cr9  1  0.73007500  0.73905800  0.32608400  1
  Cr  Cr10  1  0.50000000  0.00000000  0.50000000  1
  Cr  Cr11  1  0.24993800  0.74858900  0.00145100  1
  Cr  Cr12  1  0.98417300  0.48435300  0.81759400  1
  Cr  Cr13  1  0.01582700  0.51564700  0.18240600  1
  Cr  Cr14  1  0.00000000  0.00000000  0.50000000  1
  S  S0  1  0.55380500  0.70987400  0.75373300  1
  S  S1  1  0.20471300  0.53177300  0.41602000  1
  S  S2  1  0.04351300  0.22140500  0.08658300  1
  S  S3  1  0.79973200  0.46014000  0.24996200  1
  S  S4  1  0.05061500  0.21379600  0.42797000  1
  S  S5  1  0.70338300  0.03884900  0.07399000  1
  S  S6  1  0.05186200  0.20794500  0.74937800  1
  S  S7  1  0.70771400  0.03361000  0.41577600  1
  S  S8  1  0.29661700  0.96115100  0.92601000  1
  S  S9  1  0.54151100  0.71857300  0.08364700  1
  S  S10  1  0.94938500  0.78620400  0.57203000  1
  S  S11  1  0.30312600  0.96130700  0.25007200  1
  S  S12  1  0.20026800  0.53986000  0.75003800  1
  S  S13  1  0.54663500  0.71626400  0.42639800  1
  S  S14  1  0.95648700  0.77859500  0.91341700  1
  S  S15  1  0.20263400  0.53526100  0.07398900  1
  S  S16  1  0.79528700  0.46822700  0.58398000  1
  S  S17  1  0.44619500  0.29012600  0.24626700  1
  S  S18  1  0.79736600  0.46473900  0.92601100  1
  S  S19  1  0.45336500  0.28373600  0.57360200  1
  S  S20  1  0.69687400  0.03869300  0.74992800  1
  S  S21  1  0.45848900  0.28142700  0.91635300  1
  S  S22  1  0.29228600  0.96639000  0.58422400  1
  S  S23  1  0.94813800  0.79205500  0.25062200  1
loop_
_geom_bond_atom_site_label_1
_geom_bond_atom_site_label_2
_geom_bond_distance
_geom_bond_site_symmetry_2
Cr0 S17 2.342359 1_555
Cr0 S21 2.394712 1_554
Cr0 S8 2.396773 1_544
Cr0 S2 2.409058 1_555
Cr0 S15 2.410913 1_555
Cr0 S6 2.432326 1_554
Cr1 S13 2.336074 1_555
Cr1 S16 2.340214 1_555
Cr1 S0 2.351022 1_555
Cr1 S10 2.431172 1_555
Cr1 S20 2.445286 1_565
Cr1 S14 2.449209 1_555
Cr2 S0 2.342359 1_555
Cr2 S9 2.394712 1_556
Cr2 S5 2.396773 1_566
Cr2 S14 2.409058 1_555
Cr2 S18 2.410913 1_555
Cr2 S23 2.432326 1_556
Cr3 S19 2.336074 1_555
Cr3 S1 2.340214 1_555
Cr3 S17 2.351022 1_555
Cr3 S4 2.431172 1_555
Cr3 S11 2.445286 1_545
Cr3 S2 2.449209 1_555
Cr4 S1 2.375872 1_555
Cr4 S16 2.375872 1_455
Cr4 S4 2.403771 1_555
Cr4 S10 2.403771 1_455
Cr4 S3 2.410647 1_455
Cr4 S12 2.410647 1_555
Cr5 S18 2.412608 1_555
Cr5 S21 2.412725 1_555
Cr5 S20 2.419006 1_555
Cr5 S5 2.424950 1_556
Cr5 S2 2.427458 1_656
Cr5 S3 2.430620 1_556
Cr6 S19 2.302906 1_555
Cr6 S21 2.359467 1_555
Cr6 S12 2.387460 1_555
Cr6 S22 2.426750 1_545
Cr6 S4 2.432204 1_555
Cr6 S6 2.490479 1_555
Cr7 S0 2.305886 1_555
Cr7 S8 2.368043 1_555
Cr7 S22 2.380545 1_555
Cr7 S20 2.425891 1_565
Cr7 S5 2.427021 1_566
Cr7 S21 2.492712 1_565
Cr8 S17 2.305886 1_555
Cr8 S5 2.368043 1_555
Cr8 S7 2.380545 1_555
Cr8 S11 2.425891 1_545
Cr8 S8 2.427021 1_544
Cr8 S9 2.492712 1_545
Cr9 S13 2.302906 1_555
Cr9 S9 2.359467 1_555
Cr9 S3 2.387460 1_555
Cr9 S7 2.426750 1_565
Cr9 S10 2.432204 1_555
Cr9 S23 2.490479 1_555
Cr10 S13 2.376063 1_545
Cr10 S19 2.376063 1_555
Cr10 S11 2.402048 1_545
Cr10 S20 2.402048 1_555
Cr10 S7 2.407542 1_555
Cr10 S22 2.407542 1_545
Cr11 S15 2.412608 1_555
Cr11 S9 2.412725 1_555
Cr11 S11 2.419006 1_555
Cr11 S8 2.424950 1_554
Cr11 S14 2.427458 1_454
Cr11 S12 2.430620 1_554
Cr12 S16 2.302418 1_555
Cr12 S6 2.361838 1_655
Cr12 S18 2.384294 1_555
Cr12 S12 2.427326 1_655
Cr12 S14 2.431814 1_555
Cr12 S15 2.497418 1_656
Cr13 S1 2.302418 1_555
Cr13 S23 2.361838 1_455
Cr13 S15 2.384294 1_555
Cr13 S3 2.427326 1_455
Cr13 S2 2.431814 1_555
Cr13 S18 2.497418 1_454
Cr14 S6 2.410248 1_555
Cr14 S23 2.410248 1_445
Cr14 S22 2.423172 1_545
Cr14 S7 2.423172 1_455
Cr14 S4 2.423807 1_555
Cr14 S10 2.423807 1_445
