# generated using pymatgen
data_Sr3ZnPtO6
_symmetry_space_group_name_H-M   'P 1'
_cell_length_a   6.77185082
_cell_length_b   6.77185082
_cell_length_c   6.77185079
_cell_angle_alpha   91.47306086
_cell_angle_beta   91.47306086
_cell_angle_gamma   91.47306337
_symmetry_Int_Tables_number   1
_chemical_formula_structural   Sr3ZnPtO6
_chemical_formula_sum   'Sr6 Zn2 Pt2 O12'
_cell_volume   310.23002027
_cell_formula_units_Z   2
loop_
 _symmetry_equiv_pos_site_id
 _symmetry_equiv_pos_as_xyz
  1  'x, y, z'
loop_
 _atom_site_type_symbol
 _atom_site_label
 _atom_site_symmetry_multiplicity
 _atom_site_fract_x
 _atom_site_fract_y
 _atom_site_fract_z
 _atom_site_occupancy
  Sr  Sr0  1  0.11339700  0.75000000  0.38660300  1
  Sr  Sr1  1  0.38660300  0.11339700  0.75000000  1
  Sr  Sr2  1  0.25000000  0.61339700  0.88660300  1
  Sr  Sr3  1  0.88660300  0.25000000  0.61339700  1
  Sr  Sr4  1  0.61339700  0.88660300  0.25000000  1
  Sr  Sr5  1  0.75000000  0.38660300  0.11339700  1
  Zn  Zn0  1  0.75000000  0.75000000  0.75000000  1
  Zn  Zn1  1  0.25000000  0.25000000  0.25000000  1
  Pt  Pt0  1  0.50000000  0.50000000  0.50000000  1
  Pt  Pt1  1  0.00000000  0.00000000  0.00000000  1
  O  O0  1  0.96037300  0.09320100  0.28683700  1
  O  O1  1  0.28683700  0.96037300  0.09320100  1
  O  O2  1  0.09320100  0.28683700  0.96037300  1
  O  O3  1  0.53962700  0.21316300  0.40679900  1
  O  O4  1  0.40679900  0.53962700  0.21316300  1
  O  O5  1  0.21316300  0.40679900  0.53962700  1
  O  O6  1  0.03962700  0.90679900  0.71316300  1
  O  O7  1  0.71316300  0.03962700  0.90679900  1
  O  O8  1  0.90679900  0.71316300  0.03962700  1
  O  O9  1  0.46037300  0.78683700  0.59320100  1
  O  O10  1  0.78683700  0.59320100  0.46037300  1
  O  O11  1  0.59320100  0.46037300  0.78683700  1
loop_
_geom_bond_atom_site_label_1
_geom_bond_atom_site_label_2
_geom_bond_distance
_geom_bond_site_symmetry_2
O0 Pt1 2.053245 1_655
O0 Zn1 2.228930 1_655
O0 Sr3 2.496142 1_555
O0 Sr0 2.664637 1_645
O0 Sr4 2.706183 1_545
O0 Sr5 2.745205 1_555
O1 Pt1 2.053245 1_565
O1 Zn1 2.228930 1_565
O1 Sr4 2.496142 1_555
O1 Sr1 2.664636 1_564
O1 Sr2 2.706183 1_554
O1 Sr0 2.745205 1_555
O2 Pt1 2.053245 1_556
O2 Zn1 2.228930 1_556
O2 Sr2 2.496142 1_555
O2 Sr5 2.664637 1_456
O2 Sr3 2.706183 1_455
O2 Sr1 2.745205 1_555
O3 Pt0 2.053245 1_555
O3 Zn1 2.228930 1_555
O3 Sr4 2.496142 1_545
O3 Sr1 2.664636 1_555
O3 Sr3 2.706183 1_555
O3 Sr5 2.745205 1_555
O4 Pt0 2.053245 1_555
O4 Zn1 2.228930 1_555
O4 Sr2 2.496142 1_554
O4 Sr5 2.664637 1_555
O4 Sr4 2.706183 1_555
O4 Sr0 2.745205 1_555
O5 Pt0 2.053245 1_555
O5 Zn1 2.228930 1_555
O5 Sr3 2.496142 1_455
O5 Sr0 2.664637 1_555
O5 Sr2 2.706183 1_555
O5 Sr1 2.745205 1_555
O6 Pt1 2.053245 1_566
O6 Zn0 2.228930 1_455
O6 Sr0 2.496142 1_555
O6 Sr3 2.664637 1_465
O6 Sr1 2.706183 1_565
O6 Sr2 2.745205 1_555
O7 Pt1 2.053245 1_656
O7 Zn0 2.228930 1_545
O7 Sr1 2.496142 1_555
O7 Sr4 2.664636 1_546
O7 Sr5 2.706183 1_556
O7 Sr3 2.745205 1_555
O8 Pt1 2.053245 1_665
O8 Zn0 2.228930 1_554
O8 Sr5 2.496142 1_555
O8 Sr2 2.664637 1_654
O8 Sr0 2.706183 1_655
O8 Sr4 2.745205 1_555
O9 Pt0 2.053245 1_555
O9 Zn0 2.228930 1_555
O9 Sr1 2.496142 1_565
O9 Sr4 2.664636 1_555
O9 Sr0 2.706183 1_555
O9 Sr2 2.745205 1_555
O10 Pt0 2.053245 1_555
O10 Zn0 2.228930 1_555
O10 Sr0 2.496142 1_655
O10 Sr3 2.664637 1_555
O10 Sr5 2.706183 1_555
O10 Sr4 2.745205 1_555
O11 Pt0 2.053245 1_555
O11 Zn0 2.228930 1_555
O11 Sr5 2.496142 1_556
O11 Sr2 2.664637 1_555
O11 Sr1 2.706183 1_555
O11 Sr3 2.745205 1_555
