# generated using pymatgen
data_CuAg7As4ClO14
_symmetry_space_group_name_H-M   'P 1'
_cell_length_a   6.95065144
_cell_length_b   6.95065144
_cell_length_c   16.77058424
_cell_angle_alpha   86.09051756
_cell_angle_beta   86.09051756
_cell_angle_gamma   82.05283918
_symmetry_Int_Tables_number   1
_chemical_formula_structural   CuAg7As4ClO14
_chemical_formula_sum   'Cu2 Ag14 As8 Cl2 O28'
_cell_volume   799.14793088
_cell_formula_units_Z   2
loop_
 _symmetry_equiv_pos_site_id
 _symmetry_equiv_pos_as_xyz
  1  'x, y, z'
loop_
 _atom_site_type_symbol
 _atom_site_label
 _atom_site_symmetry_multiplicity
 _atom_site_fract_x
 _atom_site_fract_y
 _atom_site_fract_z
 _atom_site_occupancy
  Cu  Cu0  1  0.71342400  0.72346700  0.15901300  1
  Cu  Cu1  1  0.72346700  0.71342400  0.65901300  1
  Ag  Ag0  1  0.49506900  0.01597500  0.99081700  1
  Ag  Ag1  1  0.59566500  0.11596400  0.48364100  1
  Ag  Ag2  1  0.11702900  0.33186500  0.15693300  1
  Ag  Ag3  1  0.85375400  0.38582200  0.32183300  1
  Ag  Ag4  1  0.33186500  0.11702900  0.65693300  1
  Ag  Ag5  1  0.94246700  0.05707200  0.00001500  1
  Ag  Ag6  1  0.01597500  0.49506900  0.49081700  1
  Ag  Ag7  1  0.51455800  0.36784700  0.81473300  1
  Ag  Ag8  1  0.11596400  0.59566500  0.98364100  1
  Ag  Ag9  1  0.38582200  0.85375400  0.82183300  1
  Ag  Ag10  1  0.05707200  0.94246700  0.50001500  1
  Ag  Ag11  1  0.94879000  0.41666200  0.81980900  1
  Ag  Ag12  1  0.41666200  0.94879000  0.31980900  1
  Ag  Ag13  1  0.36784700  0.51455800  0.31473300  1
  As  As0  1  0.18868400  0.84015200  0.15707500  1
  As  As1  1  0.84015200  0.18868400  0.65707500  1
  As  As2  1  0.62287300  0.52392900  0.99698500  1
  As  As3  1  0.24724400  0.61307200  0.65522700  1
  As  As4  1  0.52392900  0.62287300  0.49698500  1
  As  As5  1  0.90016800  0.87162700  0.31546800  1
  As  As6  1  0.87162700  0.90016800  0.81546800  1
  As  As7  1  0.61307200  0.24724400  0.15522700  1
  Cl  Cl0  1  0.24212100  0.17587800  0.89177600  1
  Cl  Cl1  1  0.17587800  0.24212100  0.39177600  1
  O  O0  1  0.45291500  0.58179500  0.92733600  1
  O  O1  1  0.41765600  0.23981300  0.22159600  1
  O  O2  1  0.02597100  0.73086100  0.62887000  1
  O  O3  1  0.72489400  0.64399400  0.54906200  1
  O  O4  1  0.05347400  0.67603700  0.12362000  1
  O  O5  1  0.76843600  0.40950000  0.17493500  1
  O  O6  1  0.64399400  0.72489400  0.04906200  1
  O  O7  1  0.50479400  0.35396000  0.06317700  1
  O  O8  1  0.97289200  0.05351500  0.73768600  1
  O  O9  1  0.84617100  0.41386900  0.96393500  1
  O  O10  1  0.73086100  0.02597100  0.12887000  1
  O  O11  1  0.76966000  0.71486600  0.27202700  1
  O  O12  1  0.71486600  0.76966000  0.77202700  1
  O  O13  1  0.21340200  0.02726700  0.08716900  1
  O  O14  1  0.39564200  0.73718800  0.20231300  1
  O  O15  1  0.23981300  0.41765500  0.72159600  1
  O  O16  1  0.02726700  0.21340200  0.58716900  1
  O  O17  1  0.73718800  0.39564200  0.70231300  1
  O  O18  1  0.67603700  0.05347400  0.62362000  1
  O  O19  1  0.40950000  0.76843600  0.67493500  1
  O  O20  1  0.74792700  0.06755400  0.34875100  1
  O  O21  1  0.41386900  0.84617100  0.46393500  1
  O  O22  1  0.35396000  0.50479400  0.56317700  1
  O  O23  1  0.74864900  0.05125900  0.88316900  1
  O  O24  1  0.05351500  0.97289200  0.23768600  1
  O  O25  1  0.05125900  0.74864900  0.38316900  1
  O  O26  1  0.06755400  0.74792700  0.84875100  1
  O  O27  1  0.58179500  0.45291500  0.42733600  1
loop_
_geom_bond_atom_site_label_1
_geom_bond_atom_site_label_2
_geom_bond_distance
_geom_bond_site_symmetry_2
Cu0 O6 1.936655 1_555
Cu0 O11 1.956443 1_555
Cu0 O10 2.146703 1_565
Cu0 O5 2.164153 1_555
Cu0 O14 2.268844 1_555
Cu0 O4 2.380624 1_655
Cu1 O3 1.936655 1_555
Cu1 O12 1.956443 1_555
Cu1 O2 2.146703 1_655
Cu1 O19 2.164153 1_555
Cu1 O17 2.268844 1_555
Cu1 O18 2.380624 1_565
Ag0 O6 2.325567 1_546
Ag0 O13 2.448165 1_556
Ag0 O23 2.459909 1_555
Ag0 Cl0 2.586766 1_555
Ag0 O7 2.727609 1_556
Ag1 O18 2.446287 1_555
Ag1 O21 2.453385 1_545
Ag1 O20 2.455524 1_555
Ag1 O27 2.456512 1_555
Ag2 O4 2.406070 1_555
Ag2 O1 2.407550 1_555
Ag2 O5 2.411211 1_455
Ag2 O13 2.477631 1_555
Ag3 O11 2.388818 1_555
Ag3 O20 2.430440 1_555
Ag3 O27 2.516735 1_555
Ag3 O5 2.562196 1_555
Ag3 Cl1 2.639412 1_655
Ag4 O18 2.406070 1_555
Ag4 O15 2.407544 1_555
Ag4 O19 2.411211 1_545
Ag4 O16 2.477631 1_555
Ag5 O13 2.439625 1_655
Ag5 O23 2.458096 1_554
Ag5 O9 2.521108 1_554
Ag5 O10 2.543738 1_555
Ag5 Cl0 2.840887 1_654
Ag6 O3 2.325567 1_455
Ag6 O16 2.448165 1_555
Ag6 O25 2.459909 1_555
Ag6 Cl1 2.586766 1_555
Ag6 O22 2.727609 1_555
Ag7 O17 2.370983 1_555
Ag7 O0 2.461202 1_555
Ag7 O15 2.521221 1_555
Ag7 Cl0 2.676850 1_555
Ag7 O23 2.779753 1_555
Ag8 O4 2.446287 1_556
Ag8 O9 2.453385 1_455
Ag8 O26 2.455524 1_555
Ag8 O0 2.456512 1_555
Ag9 O12 2.388818 1_555
Ag9 O26 2.430440 1_555
Ag9 O0 2.516735 1_555
Ag9 O19 2.562196 1_555
Ag9 Cl0 2.639412 1_565
Ag10 O16 2.439625 1_565
Ag10 O25 2.458096 1_555
Ag10 O21 2.521108 1_555
Ag10 O2 2.543738 1_555
Ag10 Cl1 2.840887 1_565
Ag11 O9 2.472596 1_555
Ag11 O15 2.520449 1_655
Ag11 O17 2.561476 1_555
Ag11 O26 2.636506 1_655
Ag11 Cl0 2.744280 1_655
Ag12 O21 2.472596 1_555
Ag12 O1 2.520449 1_565
Ag12 O14 2.561476 1_555
Ag12 O20 2.636506 1_565
Ag12 Cl1 2.744280 1_565
Ag13 O14 2.370983 1_555
Ag13 O27 2.461202 1_555
Ag13 O1 2.521221 1_555
Ag13 Cl1 2.676850 1_555
Ag13 O25 2.779753 1_555
As0 O13 1.709341 1_565
As0 O14 1.716719 1_555
As0 O4 1.718961 1_555
As0 O24 1.821741 1_555
As1 O16 1.709341 1_655
As1 O17 1.716719 1_555
As1 O18 1.718961 1_555
As1 O8 1.821741 1_555
As2 O9 1.706906 1_555
As2 O0 1.707146 1_555
As2 O6 1.725111 1_556
As2 O7 1.807377 1_556
As3 O15 1.700547 1_555
As3 O2 1.710631 1_555
As3 O19 1.727294 1_555
As3 O22 1.829652 1_555
As4 O21 1.706906 1_555
As4 O27 1.707146 1_555
As4 O3 1.725111 1_555
As4 O22 1.807377 1_555
As5 O25 1.704304 1_655
As5 O20 1.706013 1_565
As5 O11 1.735653 1_555
As5 O24 1.796030 1_655
As6 O23 1.704304 1_565
As6 O26 1.706013 1_655
As6 O12 1.735653 1_555
As6 O8 1.796030 1_565
As7 O1 1.700542 1_555
As7 O10 1.710631 1_555
As7 O5 1.727294 1_555
As7 O7 1.829652 1_555
