# generated using pymatgen
data_RbBiF4
_symmetry_space_group_name_H-M   'P 1'
_cell_length_a   8.53611669
_cell_length_b   8.53611669
_cell_length_c   8.53611669
_cell_angle_alpha   60.00000000
_cell_angle_beta   60.00000000
_cell_angle_gamma   60.00000000
_symmetry_Int_Tables_number   1
_chemical_formula_structural   RbBiF4
_chemical_formula_sum   'Rb4 Bi4 F16'
_cell_volume   439.81094503
_cell_formula_units_Z   4
loop_
 _symmetry_equiv_pos_site_id
 _symmetry_equiv_pos_as_xyz
  1  'x, y, z'
loop_
 _atom_site_type_symbol
 _atom_site_label
 _atom_site_symmetry_multiplicity
 _atom_site_fract_x
 _atom_site_fract_y
 _atom_site_fract_z
 _atom_site_occupancy
  Rb  Rb0  1  0.62500000  0.62500000  0.12500000  1
  Rb  Rb1  1  0.62500000  0.62500000  0.62500000  1
  Rb  Rb2  1  0.62500000  0.12500000  0.62500000  1
  Rb  Rb3  1  0.12500000  0.62500000  0.62500000  1
  Bi  Bi0  1  0.62500000  0.12500000  0.12500000  1
  Bi  Bi1  1  0.12500000  0.62500000  0.12500000  1
  Bi  Bi2  1  0.12500000  0.12500000  0.12500000  1
  Bi  Bi3  1  0.12500000  0.12500000  0.62500000  1
  F  F0  1  0.46262600  0.46262600  0.03737400  1
  F  F1  1  0.03737400  0.46262600  0.03737400  1
  F  F2  1  0.21262600  0.21262600  0.78737400  1
  F  F3  1  0.78737400  0.21262600  0.21262600  1
  F  F4  1  0.46262600  0.03737400  0.46262600  1
  F  F5  1  0.78737400  0.78737400  0.21262600  1
  F  F6  1  0.46262600  0.03737400  0.03737400  1
  F  F7  1  0.75000000  0.75000000  0.75000000  1
  F  F8  1  0.78737400  0.21262600  0.78737400  1
  F  F9  1  0.21262600  0.78737400  0.78737400  1
  F  F10  1  0.50000000  0.50000000  0.50000000  1
  F  F11  1  0.03737400  0.03737400  0.46262600  1
  F  F12  1  0.25000000  0.25000000  0.25000000  1
  F  F13  1  0.21262600  0.78737400  0.21262600  1
  F  F14  1  0.03737400  0.46262600  0.46262600  1
  F  F15  1  0.00000000  0.00000000  0.00000000  1
loop_
_geom_bond_atom_site_label_1
_geom_bond_atom_site_label_2
_geom_bond_distance
_geom_bond_site_symmetry_2
Bi0 F3 2.381816 1_555
Bi0 F0 2.381816 1_555
Bi0 F8 2.381816 1_554
Bi0 F4 2.381816 1_555
Bi0 F5 2.381816 1_545
Bi0 F6 2.381816 1_555
Bi0 F12 2.613641 1_555
Bi0 F15 2.613641 1_655
Bi1 F13 2.381816 1_555
Bi1 F0 2.381816 1_555
Bi1 F9 2.381816 1_554
Bi1 F5 2.381816 1_455
Bi1 F14 2.381816 1_555
Bi1 F1 2.381816 1_555
Bi1 F12 2.613641 1_555
Bi1 F15 2.613641 1_565
Bi2 F6 2.381816 1_555
Bi2 F1 2.381816 1_555
Bi2 F11 2.381816 1_555
Bi2 F3 2.381816 1_455
Bi2 F13 2.381816 1_545
Bi2 F2 2.381816 1_554
Bi2 F15 2.613641 1_555
Bi2 F12 2.613641 1_555
Bi3 F2 2.381816 1_555
Bi3 F9 2.381816 1_545
Bi3 F4 2.381816 1_555
Bi3 F8 2.381816 1_455
Bi3 F14 2.381816 1_555
Bi3 F11 2.381816 1_555
Bi3 F15 2.613641 1_556
Bi3 F12 2.613641 1_555
F0 Rb0 2.897639 1_555
F0 Rb1 2.897639 1_554
F1 Rb0 2.897639 1_455
F1 Rb3 2.897639 1_554
F2 Rb3 2.897639 1_555
F2 Rb2 2.897639 1_555
F3 Rb2 2.897639 1_555
F3 Rb0 2.897639 1_555
F4 Rb1 2.897639 1_545
F4 Rb2 2.897639 1_555
F5 Rb0 2.897639 1_555
F5 Rb1 2.897639 1_555
F6 Rb0 2.897639 1_545
F6 Rb2 2.897639 1_554
F7 Rb0 2.613641 1_556
F7 Rb1 2.613641 1_555
F7 Rb2 2.613641 1_565
F7 Rb3 2.613641 1_655
F8 Rb2 2.897639 1_555
F8 Rb1 2.897639 1_555
F9 Rb3 2.897639 1_555
F9 Rb1 2.897639 1_555
F10 Rb1 2.613641 1_555
F10 Rb0 2.613641 1_555
F10 Rb2 2.613641 1_555
F10 Rb3 2.613641 1_555
F11 Rb2 2.897639 1_455
F11 Rb3 2.897639 1_545
F13 Rb3 2.897639 1_555
F13 Rb0 2.897639 1_555
F14 Rb3 2.897639 1_555
F14 Rb1 2.897639 1_455
