# generated using pymatgen
data_Ce11MnS16
_symmetry_space_group_name_H-M   'P 1'
_cell_length_a   29.54287662
_cell_length_b   8.49942536
_cell_length_c   8.56200589
_cell_angle_alpha   90.00000000
_cell_angle_beta   54.57530038
_cell_angle_gamma   54.87263482
_symmetry_Int_Tables_number   1
_chemical_formula_structural   Ce11MnS16
_chemical_formula_sum   'Ce22 Mn2 S32'
_cell_volume   1240.52221298
_cell_formula_units_Z   2
loop_
 _symmetry_equiv_pos_site_id
 _symmetry_equiv_pos_as_xyz
  1  'x, y, z'
loop_
 _atom_site_type_symbol
 _atom_site_label
 _atom_site_symmetry_multiplicity
 _atom_site_fract_x
 _atom_site_fract_y
 _atom_site_fract_z
 _atom_site_occupancy
  Ce  Ce0  1  0.99897460  0.12428441  0.74573163  1
  Ce  Ce1  1  0.05964279  0.63363784  0.37887495  1
  Ce  Ce2  1  0.12462270  0.25102630  0.62745366  1
  Ce  Ce3  1  0.25066831  0.36934489  0.24629196  1
  Ce  Ce4  1  0.19035721  0.87220898  0.12112505  1
  Ce  Ce5  1  0.25102540  0.12018281  0.75426837  1
  Ce  Ce6  1  0.12537730  0.74951711  0.87254634  1
  Ce  Ce7  1  0.31396966  0.62468198  0.36514754  1
  Ce  Ce8  1  0.37500000  0.25000000  0.62130286  1
  Ce  Ce9  1  0.49897460  0.37981719  0.25836997  1
  Ce  Ce10  1  0.43603034  0.87531802  0.12102617  1
  Ce  Ce11  1  0.49933169  0.13065511  0.74896519  1
  Ce  Ce12  1  0.55964279  0.62779102  0.38255390  1
  Ce  Ce13  1  0.62537730  0.24897370  0.62594446  1
  Ce  Ce14  1  0.75102540  0.37571559  0.24163003  1
  Ce  Ce15  1  0.69035721  0.86636216  0.11744610  1
  Ce  Ce16  1  0.75066831  0.12798188  0.75103481  1
  Ce  Ce17  1  0.62462270  0.75048289  0.87405554  1
  Ce  Ce18  1  0.81396966  0.61943939  0.37897383  1
  Ce  Ce19  1  0.99933169  0.37201812  0.25370804  1
  Ce  Ce20  1  0.93603034  0.88056061  0.13485246  1
  Ce  Ce21  1  0.87500000  0.75000000  0.87869714  1
  Mn  Mn0  1  0.37500000  0.75000000  0.87339581  1
  Mn  Mn1  1  0.87500000  0.25000000  0.62660419  1
  S  S0  1  0.08652192  0.50145859  0.00326876  1
  S  S1  1  0.03830419  0.34749622  0.49875385  1
  S  S2  1  0.02961170  0.01144647  0.35909231  1
  S  S3  1  0.22038830  0.12989326  0.14090769  1
  S  S4  1  0.21169581  0.50071298  0.00124615  1
  S  S5  1  0.08726405  0.64933286  0.65045196  1
  S  S6  1  0.16273595  -0.00161093  0.84954804  1
  S  S7  1  0.16347808  0.84754626  0.49673124  1
  S  S8  1  0.34045191  0.50754711  -0.01405982  1
  S  S9  1  0.28740428  0.35036130  0.49860795  1
  S  S10  1  0.28526866  0.00697497  0.36181851  1
  S  S11  1  0.46259572  0.14963870  0.14822509  1
  S  S12  1  0.46473134  0.49302503  0.00289315  1
  S  S13  1  0.40954809  -0.00754711  0.84774780  1
  S  S14  1  0.33650526  0.64823742  0.64455407  1
  S  S15  1  0.41349474  0.85176258  0.49057512  1
  S  S16  1  0.58726405  0.50161093  0.00049184  1
  S  S17  1  0.52961170  0.37010674  0.52246091  1
  S  S18  1  0.53830419  -0.00071298  0.34802938  1
  S  S19  1  0.71169581  0.15250378  0.15197062  1
  S  S20  1  0.72038830  0.48855353  -0.02246091  1
  S  S21  1  0.66347808  -0.00145859  0.84935643  1
  S  S22  1  0.58652192  0.65245374  0.65064357  1
  S  S23  1  0.66273595  0.85066714  0.49950816  1
  S  S24  1  0.83650526  0.50574153  0.00942488  1
  S  S25  1  0.78526866  0.35195039  0.49710685  1
  S  S26  1  0.78740428  0.00002156  0.35177491  1
  S  S27  1  0.96473134  0.14804961  0.13818149  1
  S  S28  1  0.96259572  0.49997844  0.00139205  1
  S  S29  1  0.91349474  -0.00574153  0.85544593  1
  S  S30  1  0.84045191  0.63064527  0.65225220  1
  S  S31  1  0.90954809  0.86935473  0.51405982  1
loop_
_geom_bond_atom_site_label_1
_geom_bond_atom_site_label_2
_geom_bond_distance
_geom_bond_site_symmetry_2
Ce0 S24 2.859406 1_556
Ce0 S27 2.859905 1_556
Ce0 S2 2.867994 1_655
Ce0 S7 2.920676 1_645
Ce0 S29 2.990429 1_555
Ce0 S1 3.018171 1_655
Ce0 S5 3.030009 1_645
Ce0 S28 3.076765 1_556
Ce1 S2 2.832490 1_565
Ce1 S0 2.871915 1_555
Ce1 S1 2.894820 1_555
Ce1 S5 2.900917 1_555
Ce1 S31 2.973669 1_455
Ce1 S29 3.005550 1_465
Ce1 S4 3.038351 1_555
Ce1 S3 3.227929 1_555
Ce2 S10 2.856106 1_555
Ce2 S5 2.857609 1_555
Ce2 S28 2.866816 1_456
Ce2 S7 2.882927 1_545
Ce2 S6 3.032219 1_555
Ce2 S0 3.032411 1_556
Ce2 S1 3.039883 1_555
Ce2 S3 3.066477 1_555
Ce3 S13 2.840121 1_554
Ce3 S4 2.880147 1_555
Ce3 S5 2.890671 1_555
Ce3 S9 2.896098 1_555
Ce3 S3 2.964334 1_555
Ce3 S10 3.009714 1_555
Ce3 S7 3.049831 1_555
Ce3 S8 3.180490 1_555
Ce4 S3 2.832490 1_565
Ce4 S7 2.871915 1_555
Ce4 S4 2.894820 1_555
Ce4 S6 2.900917 1_564
Ce4 S8 2.973669 1_555
Ce4 S14 3.005550 1_554
Ce4 S1 3.038351 1_565
Ce4 S2 3.227929 1_565
Ce5 S15 2.859406 1_545
Ce5 S10 2.859905 1_555
Ce5 S3 2.867994 1_556
Ce5 S0 2.920676 1_556
Ce5 S14 2.990429 1_545
Ce5 S4 3.018171 1_556
Ce5 S6 3.030009 1_555
Ce5 S9 3.076765 1_555
Ce6 S27 2.856106 1_466
Ce6 S6 2.857609 1_565
Ce6 S9 2.866816 1_555
Ce6 S0 2.882927 1_556
Ce6 S5 3.032219 1_555
Ce6 S7 3.032411 1_555
Ce6 S4 3.039883 1_556
Ce6 S2 3.066477 1_566
Ce7 S10 2.852193 1_565
Ce7 S14 2.864627 1_555
Ce7 S8 2.881623 1_555
Ce7 S9 2.902419 1_555
Ce7 S12 2.993269 1_555
Ce7 S7 3.020874 1_555
Ce7 S11 3.029118 1_555
Ce7 S6 3.072350 1_565
Ce8 S15 2.845613 1_545
Ce8 S14 2.845613 1_555
Ce8 S18 2.893811 1_555
Ce8 S4 2.893811 1_556
Ce8 S11 3.023124 1_555
Ce8 S9 3.023124 1_555
Ce8 S13 3.052116 1_555
Ce8 S8 3.052116 1_556
Ce9 S14 2.859406 1_555
Ce9 S12 2.859905 1_555
Ce9 S17 2.867994 1_555
Ce9 S21 2.920676 1_554
Ce9 S15 2.990429 1_555
Ce9 S18 3.018171 1_555
Ce9 S16 3.030009 1_555
Ce9 S11 3.076765 1_555
Ce10 S12 2.852193 1_555
Ce10 S15 2.864627 1_555
Ce10 S13 2.881624 1_564
Ce10 S11 2.902419 1_565
Ce10 S10 2.993269 1_565
Ce10 S22 3.020874 1_554
Ce10 S9 3.029118 1_565
Ce10 S16 3.072350 1_555
Ce11 S8 2.840121 1_556
Ce11 S18 2.880147 1_555
Ce11 S23 2.890671 1_545
Ce11 S11 2.896098 1_556
Ce11 S17 2.964334 1_555
Ce11 S12 3.009714 1_556
Ce11 S22 3.049831 1_545
Ce11 S13 3.180490 1_555
Ce12 S17 2.832490 1_555
Ce12 S22 2.871915 1_555
Ce12 S18 2.894820 1_565
Ce12 S16 2.900917 1_555
Ce12 S13 2.973669 1_565
Ce12 S15 3.005550 1_555
Ce12 S19 3.038351 1_555
Ce12 S20 3.227930 1_555
Ce13 S12 2.856106 1_556
Ce13 S23 2.857609 1_545
Ce13 S26 2.866816 1_555
Ce13 S22 2.882927 1_555
Ce13 S16 3.032219 1_556
Ce13 S21 3.032411 1_555
Ce13 S19 3.039883 1_555
Ce13 S17 3.066477 1_555
Ce14 S29 2.859406 1_554
Ce14 S25 2.859905 1_555
Ce14 S20 2.867994 1_555
Ce14 S22 2.920676 1_555
Ce14 S24 2.990429 1_555
Ce14 S19 3.018171 1_555
Ce14 S23 3.030009 1_555
Ce14 S26 3.076765 1_555
Ce15 S20 2.832490 1_555
Ce15 S21 2.871915 1_564
Ce15 S19 2.894820 1_565
Ce15 S23 2.900917 1_555
Ce15 S30 2.973669 1_554
Ce15 S24 3.005550 1_555
Ce15 S18 3.038351 1_565
Ce15 S17 3.227930 1_565
Ce16 S31 2.840121 1_545
Ce16 S19 2.880147 1_556
Ce16 S16 2.890671 1_556
Ce16 S26 2.896098 1_555
Ce16 S20 2.964334 1_556
Ce16 S25 3.009714 1_555
Ce16 S21 3.049831 1_555
Ce16 S30 3.180489 1_545
Ce17 S25 2.856106 1_555
Ce17 S16 2.857609 1_556
Ce17 S11 2.866816 1_566
Ce17 S21 2.882927 1_565
Ce17 S23 3.032219 1_555
Ce17 S22 3.032411 1_555
Ce17 S18 3.039883 1_566
Ce17 S20 3.066477 1_556
Ce18 S25 2.852193 1_555
Ce18 S24 2.864627 1_555
Ce18 S30 2.881624 1_555
Ce18 S26 2.902419 1_565
Ce18 S27 2.993269 1_555
Ce18 S21 3.020874 1_565
Ce18 S28 3.029119 1_555
Ce18 S23 3.072350 1_555
Ce19 S30 2.840121 1_555
Ce19 S1 2.880147 1_655
Ce19 S6 2.890671 1_654
Ce19 S28 2.896098 1_555
Ce19 S2 2.964334 1_655
Ce19 S27 3.009714 1_555
Ce19 S0 3.049831 1_655
Ce19 S31 3.180489 1_555
Ce20 S27 2.852193 1_565
Ce20 S29 2.864627 1_564
Ce20 S31 2.881623 1_555
Ce20 S28 2.902419 1_555
Ce20 S25 2.993269 1_565
Ce20 S0 3.020874 1_655
Ce20 S26 3.029119 1_565
Ce20 S5 3.072350 1_654
Ce21 S24 2.845613 1_556
Ce21 S29 2.845613 1_565
Ce21 S19 2.893811 1_566
Ce21 S1 2.893811 1_655
Ce21 S26 3.023124 1_566
Ce21 S28 3.023124 1_556
Ce21 S30 3.052116 1_555
Ce21 S31 3.052116 1_555
Mn0 S17 2.726681 1_555
Mn0 S3 2.726681 1_566
Mn0 S13 2.738077 1_565
Mn0 S8 2.738077 1_556
Mn0 S15 3.097667 1_555
Mn0 S14 3.097667 1_555
Mn0 S10 3.125936 1_566
Mn0 S12 3.125936 1_556
Mn1 S20 2.726681 1_556
Mn1 S2 2.726681 1_655
Mn1 S30 2.738077 1_555
Mn1 S31 2.738077 1_545
Mn1 S24 3.097667 1_556
Mn1 S29 3.097667 1_555
Mn1 S25 3.125936 1_555
Mn1 S27 3.125936 1_555
