# generated using pymatgen
data_Yb(SmS2)2
_symmetry_space_group_name_H-M   'P 1'
_cell_length_a   7.31640315
_cell_length_b   7.31640315
_cell_length_c   7.31640315
_cell_angle_alpha   109.51664421
_cell_angle_beta   109.51664421
_cell_angle_gamma   109.38041163
_symmetry_Int_Tables_number   1
_chemical_formula_structural   Yb(SmS2)2
_chemical_formula_sum   'Yb2 Sm4 S8'
_cell_volume   301.48809998
_cell_formula_units_Z   2
loop_
 _symmetry_equiv_pos_site_id
 _symmetry_equiv_pos_as_xyz
  1  'x, y, z'
loop_
 _atom_site_type_symbol
 _atom_site_label
 _atom_site_symmetry_multiplicity
 _atom_site_fract_x
 _atom_site_fract_y
 _atom_site_fract_z
 _atom_site_occupancy
  Yb  Yb0  1  0.75000000  0.25000000  0.50000000  1
  Yb  Yb1  1  0.00000000  0.00000000  0.00000000  1
  Sm  Sm0  1  0.87500000  0.49676400  0.12176400  1
  Sm  Sm1  1  0.24676400  0.12500000  0.62176400  1
  Sm  Sm2  1  0.37500000  0.75323600  0.87823600  1
  Sm  Sm3  1  0.50323600  0.62500000  0.37823600  1
  S  S0  1  0.62341200  0.02105500  0.75065200  1
  S  S1  1  0.62276000  0.52040300  0.74934800  1
  S  S2  1  0.12658800  0.37724000  0.89764300  1
  S  S3  1  0.77105500  0.87341200  0.25065200  1
  S  S4  1  0.97894500  0.72959700  0.60235700  1
  S  S5  1  0.27040300  0.87276000  0.24934800  1
  S  S6  1  0.12724000  0.37658800  0.39764300  1
  S  S7  1  0.47959700  0.22894500  0.10235700  1
loop_
_geom_bond_atom_site_label_1
_geom_bond_atom_site_label_2
_geom_bond_distance
_geom_bond_site_symmetry_2
S0 Sm2 2.829530 1_545
S0 Sm3 2.833169 1_545
S0 Yb1 2.838021 1_656
S0 Sm0 2.994783 1_556
S0 Yb0 3.030577 1_555
S0 Sm1 3.032375 1_555
S1 Sm1 2.829530 1_555
S1 Sm0 2.833169 1_556
S1 Yb0 2.838021 1_555
S1 Sm3 2.994783 1_555
S1 Yb1 3.030577 1_666
S1 Sm2 3.032375 1_555
S2 Sm2 2.829530 1_555
S2 Sm1 2.833169 1_555
S2 Yb0 2.838021 1_455
S2 Sm0 2.994783 1_456
S2 Yb1 3.030577 1_556
S2 Sm3 3.032375 1_556
S3 Sm3 2.829530 1_555
S3 Sm2 2.833169 1_554
S3 Yb0 2.838021 1_565
S3 Sm1 2.994783 1_665
S3 Yb1 3.030577 1_665
S3 Sm0 3.032375 1_555
S4 Sm1 2.829530 1_665
S4 Sm2 2.833169 1_655
S4 Yb1 2.838021 1_666
S4 Sm3 2.994783 1_555
S4 Yb0 3.030577 1_555
S4 Sm0 3.032375 1_555
S5 Sm0 2.829530 1_455
S5 Sm1 2.833169 1_565
S5 Yb1 2.838021 1_565
S5 Sm2 2.994783 1_554
S5 Yb0 3.030577 1_565
S5 Sm3 3.032375 1_555
S6 Sm3 2.829530 1_555
S6 Sm0 2.833169 1_455
S6 Yb1 2.838021 1_555
S6 Sm1 2.994783 1_555
S6 Yb0 3.030577 1_455
S6 Sm2 3.032375 1_555
S7 Sm0 2.829530 1_555
S7 Sm3 2.833169 1_555
S7 Yb0 2.838021 1_555
S7 Sm2 2.994783 1_544
S7 Yb1 3.030577 1_555
S7 Sm1 3.032375 1_554
