# generated using pymatgen
data_NaAlSiO4
_symmetry_space_group_name_H-M   'P 1'
_cell_length_a   9.73822591
_cell_length_b   9.73822591
_cell_length_c   9.73262500
_cell_angle_alpha   90.00000000
_cell_angle_beta   90.00000000
_cell_angle_gamma   119.99999939
_symmetry_Int_Tables_number   1
_chemical_formula_structural   NaAlSiO4
_chemical_formula_sum   'Na8 Al8 Si8 O32'
_cell_volume   799.31932883
_cell_formula_units_Z   8
loop_
 _symmetry_equiv_pos_site_id
 _symmetry_equiv_pos_as_xyz
  1  'x, y, z'
loop_
 _atom_site_type_symbol
 _atom_site_label
 _atom_site_symmetry_multiplicity
 _atom_site_fract_x
 _atom_site_fract_y
 _atom_site_fract_z
 _atom_site_occupancy
  Na  Na0  1  0.00000000  0.00000000  0.01381200  1
  Na  Na1  1  0.00000000  0.00000000  0.51381200  1
  Na  Na2  1  0.02083600  0.43695100  0.98828200  1
  Na  Na3  1  0.58388600  0.02083600  0.48828200  1
  Na  Na4  1  0.43695100  0.41611400  0.48828200  1
  Na  Na5  1  0.56304900  0.58388600  0.98828200  1
  Na  Na6  1  0.41611400  0.97916400  0.98828200  1
  Na  Na7  1  0.97916400  0.56304900  0.48828200  1
  Al  Al0  1  0.33333300  0.66666700  0.17057500  1
  Al  Al1  1  0.66666700  0.33333300  0.67057500  1
  Al  Al2  1  0.08486100  0.32553600  0.68300000  1
  Al  Al3  1  0.75932500  0.08486100  0.18300000  1
  Al  Al4  1  0.32553600  0.24067500  0.18300000  1
  Al  Al5  1  0.67446400  0.75932500  0.68300000  1
  Al  Al6  1  0.24067500  0.91513900  0.68300000  1
  Al  Al7  1  0.91513900  0.67446400  0.18300000  1
  Si  Si0  1  0.33333300  0.66666700  0.82365500  1
  Si  Si1  1  0.66666700  0.33333300  0.32365500  1
  Si  Si2  1  0.11964600  0.31095600  0.25426700  1
  Si  Si3  1  0.80869000  0.11964600  0.75426700  1
  Si  Si4  1  0.31095600  0.19131000  0.75426700  1
  Si  Si5  1  0.68904400  0.80869000  0.25426700  1
  Si  Si6  1  0.19131000  0.88035400  0.25426700  1
  Si  Si7  1  0.88035400  0.68904400  0.75426700  1
  O  O0  1  0.33333300  0.66666700  0.99086900  1
  O  O1  1  0.66666700  0.33333300  0.49086900  1
  O  O2  1  0.08337000  0.39455500  0.50964900  1
  O  O3  1  0.68881500  0.08337000  0.00964900  1
  O  O4  1  0.39455500  0.31118500  0.00964900  1
  O  O5  1  0.60544500  0.68881500  0.50964900  1
  O  O6  1  0.31118500  0.91663000  0.50964900  1
  O  O7  1  0.91663000  0.60544500  0.00964900  1
  O  O8  1  0.17530800  0.50321900  0.77505400  1
  O  O9  1  0.67208900  0.17530800  0.27505400  1
  O  O10  1  0.50321900  0.32791100  0.27505400  1
  O  O11  1  0.49678100  0.67208900  0.77505400  1
  O  O12  1  0.32791100  0.82469200  0.77505400  1
  O  O13  1  0.82469200  0.49678100  0.27505400  1
  O  O14  1  0.16195100  0.49266400  0.22140700  1
  O  O15  1  0.66928700  0.16195100  0.72140700  1
  O  O16  1  0.49266400  0.33071300  0.72140700  1
  O  O17  1  0.50733600  0.66928700  0.22140700  1
  O  O18  1  0.33071300  0.83804900  0.22140700  1
  O  O19  1  0.83804900  0.50733600  0.72140700  1
  O  O20  1  0.02418900  0.25675800  0.41294400  1
  O  O21  1  0.76743000  0.02418900  0.91294400  1
  O  O22  1  0.25675800  0.23257000  0.91294400  1
  O  O23  1  0.74324200  0.76743000  0.41294400  1
  O  O24  1  0.23257000  0.97581100  0.41294400  1
  O  O25  1  0.97581100  0.74324200  0.91294400  1
  O  O26  1  0.19082700  0.22301700  0.65576100  1
  O  O27  1  0.96781000  0.19082700  0.15576100  1
  O  O28  1  0.22301700  0.03219000  0.15576100  1
  O  O29  1  0.77698300  0.96781000  0.65576100  1
  O  O30  1  0.03219000  0.80917300  0.65576100  1
  O  O31  1  0.80917300  0.77698300  0.15576100  1
loop_
_geom_bond_atom_site_label_1
_geom_bond_atom_site_label_2
_geom_bond_distance
_geom_bond_site_symmetry_2
Na0 O27 2.458207 1_455
Na0 O28 2.458207 1_555
Na0 O31 2.458207 1_445
Na0 O25 2.584976 1_444
Na0 O22 2.584979 1_554
Na0 O21 2.584985 1_454
Na1 O30 2.458207 1_545
Na1 O29 2.458207 1_445
Na1 O26 2.458207 1_555
Na1 O20 2.584976 1_555
Na1 O23 2.584979 1_445
Na1 O24 2.584985 1_545
Na2 O7 2.330332 1_456
Na2 O8 2.452610 1_555
Na2 O14 2.566170 1_556
Na2 O27 2.725917 1_456
Na2 O0 2.730959 1_555
Na3 O6 2.330341 1_545
Na3 O9 2.452610 1_555
Na3 O15 2.566169 1_555
Na3 O29 2.725909 1_545
Na3 O1 2.730959 1_555
Na4 O5 2.330339 1_555
Na4 O10 2.452606 1_555
Na4 O16 2.566165 1_555
Na4 O26 2.725914 1_555
Na4 O1 2.730959 1_555
Na5 O4 2.330339 1_556
Na5 O11 2.452606 1_555
Na5 O17 2.566165 1_556
Na5 O31 2.725914 1_556
Na5 O0 2.730959 1_555
Na6 O3 2.330341 1_566
Na6 O12 2.452610 1_555
Na6 O18 2.566169 1_556
Na6 O28 2.725909 1_566
Na6 O0 2.730959 1_555
Na7 O2 2.330332 1_655
Na7 O13 2.452610 1_555
Na7 O19 2.566170 1_555
Na7 O30 2.725917 1_655
Na7 O1 2.730959 1_555
Al0 O0 1.749011 1_554
Al0 O18 1.753113 1_555
Al0 O14 1.753118 1_555
Al0 O17 1.753123 1_555
Al1 O1 1.749011 1_555
Al1 O15 1.753113 1_555
Al1 O19 1.753118 1_555
Al1 O16 1.753123 1_555
Al2 O8 1.745975 1_555
Al2 O26 1.778222 1_555
Al2 O2 1.818854 1_555
Al3 O9 1.745975 1_555
Al3 O27 1.778222 1_555
Al3 O3 1.818854 1_555
Al4 O10 1.745975 1_555
Al4 O28 1.778222 1_555
Al4 O4 1.818854 1_555
Al5 O11 1.745975 1_555
Al5 O29 1.778222 1_555
Al5 O5 1.818854 1_555
Al6 O12 1.745975 1_555
Al6 O30 1.778222 1_555
Al6 O6 1.818854 1_555
Al7 O13 1.745975 1_555
Al7 O31 1.778222 1_555
Al7 O7 1.818854 1_555
O0 Si0 1.627431 1_555
O1 Si1 1.627431 1_555
O2 O20 1.498439 1_555
O8 Si0 1.635837 1_555
O9 Si1 1.635832 1_555
O10 Si1 1.635841 1_555
O11 Si0 1.635841 1_555
O12 Si0 1.635832 1_555
O13 Si1 1.635837 1_555
O14 Si2 1.635294 1_555
O15 Si3 1.635294 1_555
O16 Si4 1.635294 1_555
O17 Si5 1.635294 1_555
O18 Si6 1.635294 1_555
O19 Si7 1.635294 1_555
O20 Si2 1.742716 1_555
O21 O3 1.498432 1_556
O21 Si3 1.742716 1_555
O22 O4 1.498438 1_556
O22 Si4 1.742720 1_555
O23 O5 1.498438 1_555
O23 Si5 1.742720 1_555
O24 O6 1.498432 1_555
O24 Si6 1.742716 1_555
O25 O7 1.498439 1_556
O25 Si7 1.742716 1_555
O26 Si4 1.656573 1_555
O27 Si2 1.656573 1_655
O28 Si6 1.656573 1_545
O29 Si3 1.656573 1_565
O30 Si7 1.656573 1_455
O31 Si5 1.656573 1_555
