# generated using pymatgen
data_CsCuP3H8O13
_symmetry_space_group_name_H-M   'P 1'
_cell_length_a   7.61880100
_cell_length_b   8.68741532
_cell_length_c   9.89103864
_cell_angle_alpha   102.42343876
_cell_angle_beta   90.87452251
_cell_angle_gamma   105.99225961
_symmetry_Int_Tables_number   1
_chemical_formula_structural   CsCuP3H8O13
_chemical_formula_sum   'Cs2 Cu2 P6 H16 O26'
_cell_volume   612.65254431
_cell_formula_units_Z   2
loop_
 _symmetry_equiv_pos_site_id
 _symmetry_equiv_pos_as_xyz
  1  'x, y, z'
loop_
 _atom_site_type_symbol
 _atom_site_label
 _atom_site_symmetry_multiplicity
 _atom_site_fract_x
 _atom_site_fract_y
 _atom_site_fract_z
 _atom_site_occupancy
  Cs  Cs0  1  0.71986700  0.41389300  0.32200100  1
  Cs  Cs1  1  0.28013300  0.58610700  0.67799900  1
  Cu  Cu0  1  0.50000000  0.00000000  0.50000000  1
  Cu  Cu1  1  0.00000000  0.50000000  0.00000000  1
  P  P0  1  0.19561900  0.34942900  0.24406900  1
  P  P1  1  0.80438100  0.65057100  0.75593100  1
  P  P2  1  0.99207700  0.00119400  0.78089000  1
  P  P3  1  0.00792300  0.99880600  0.21911000  1
  P  P4  1  0.27794300  0.27227800  0.94773500  1
  P  P5  1  0.72205700  0.72772200  0.05226500  1
  H  H0  1  0.34681000  0.23287300  0.47249300  1
  H  H1  1  0.65319000  0.76712700  0.52750700  1
  H  H2  1  0.24625100  0.12197500  0.57723100  1
  H  H3  1  0.75374900  0.87802500  0.42276900  1
  H  H4  1  0.61308000  0.99724100  0.74189700  1
  H  H5  1  0.38692000  0.00275900  0.25810300  1
  H  H6  1  0.47145100  0.10054500  0.75502100  1
  H  H7  1  0.52854900  0.89945500  0.24497900  1
  H  H8  1  0.67455900  0.30748400  0.96047500  1
  H  H9  1  0.32544100  0.69251600  0.03952500  1
  H  H10  1  0.80777900  0.19561400  0.93917400  1
  H  H11  1  0.19222100  0.80438600  0.06082600  1
  H  H12  1  0.18486400  0.68992700  0.36229400  1
  H  H13  1  0.81513600  0.31007300  0.63770600  1
  H  H14  1  0.89823600  0.17744600  0.54964600  1
  H  H15  1  0.10176400  0.82255400  0.45035400  1
  O  O0  1  0.12274100  0.48934700  0.22983400  1
  O  O1  1  0.87725900  0.51065300  0.77016600  1
  O  O2  1  0.31051300  0.36153000  0.37275300  1
  O  O3  1  0.68948700  0.63847000  0.62724700  1
  O  O4  1  0.01842000  0.18830700  0.21877900  1
  O  O5  1  0.98158000  0.81169300  0.78122100  1
  O  O6  1  0.31755400  0.30591100  0.11379000  1
  O  O7  1  0.68244600  0.69408900  0.88621000  1
  O  O8  1  0.18699300  0.96750500  0.17844000  1
  O  O9  1  0.81300700  0.03249500  0.82156000  1
  O  O10  1  0.93520900  0.95789800  0.35039400  1
  O  O11  1  0.06479100  0.04210200  0.64960600  1
  O  O12  1  0.85481400  0.91424300  0.08827700  1
  O  O13  1  0.14518600  0.08575700  0.91172300  1
  O  O14  1  0.54345000  0.72251200  0.11542900  1
  O  O15  1  0.45655000  0.27748800  0.88457100  1
  O  O16  1  0.17033600  0.38129500  0.90863600  1
  O  O17  1  0.82966400  0.61870500  0.09136400  1
  O  O18  1  0.63206700  0.82937000  0.45804400  1
  O  O19  1  0.36793300  0.17063000  0.54195600  1
  O  O20  1  0.49031400  0.99611900  0.70051400  1
  O  O21  1  0.50968600  0.00388100  0.29948600  1
  O  O22  1  0.79288500  0.29963800  0.99929000  1
  O  O23  1  0.20711500  0.70036200  0.00071000  1
  O  O24  1  0.80128800  0.23201700  0.54709500  1
  O  O25  1  0.19871200  0.76798300  0.45290500  1
loop_
_geom_bond_atom_site_label_1
_geom_bond_atom_site_label_2
_geom_bond_distance
_geom_bond_site_symmetry_2
Cs0 O2 3.090317 1_555
Cs0 O24 3.138431 1_555
Cs0 O0 3.148961 1_655
Cs0 O17 3.170844 1_555
Cs0 O22 3.237048 1_554
Cs0 O3 3.272796 1_555
Cs0 O4 3.423910 1_655
Cs0 O21 3.436015 1_555
Cs0 O6 3.450801 1_555
Cs1 O3 3.090317 1_555
Cs1 O25 3.138431 1_555
Cs1 O1 3.148961 1_455
Cs1 O16 3.170844 1_555
Cs1 O23 3.237048 1_556
Cs1 O2 3.272796 1_555
Cs1 O5 3.423910 1_455
Cs1 O20 3.436015 1_555
Cs1 O7 3.450801 1_555
Cu0 O19 1.987929 1_555
Cu0 O18 1.987929 1_545
Cu0 O20 1.992962 1_545
Cu0 O21 1.992962 1_555
Cu0 O25 2.561796 1_545
Cu0 O24 2.561796 1_555
Cu1 O16 1.984066 1_554
Cu1 O17 1.984066 1_455
Cu1 O22 2.000193 1_454
Cu1 O23 2.000193 1_555
Cu1 O1 2.474722 1_454
Cu1 O0 2.474722 1_555
H0 O19 0.997381 1_555
H1 O18 0.997381 1_555
H2 O19 1.008597 1_555
H2 O11 1.618832 1_555
H3 O18 1.008597 1_555
H3 O10 1.618832 1_555
H4 O20 1.011955 1_555
H4 O9 1.623974 1_565
H5 O21 1.011955 1_555
H5 O8 1.623974 1_545
H6 O20 0.999037 1_545
H7 O21 0.999037 1_565
H8 O22 0.999650 1_555
H9 O23 0.999650 1_555
H10 O22 1.005221 1_555
H10 O9 1.638975 1_555
H11 O23 1.005221 1_555
H11 O8 1.638975 1_555
H12 O25 0.985087 1_555
H13 O24 0.985087 1_555
H14 O24 0.984117 1_555
H15 O25 0.984117 1_555
O0 P0 1.499587 1_555
O1 P1 1.499587 1_555
O2 P0 1.501691 1_555
O3 P1 1.501691 1_555
O4 P0 1.625494 1_555
O4 P3 1.626777 1_545
O5 P1 1.625494 1_555
O5 P2 1.626777 1_565
O6 P4 1.613663 1_554
O6 P0 1.639176 1_555
O7 P5 1.613663 1_556
O7 P1 1.639176 1_555
O8 P3 1.507044 1_555
O9 P2 1.507044 1_555
O10 P3 1.493799 1_655
O11 P2 1.493799 1_455
O12 P5 1.616520 1_555
O12 P3 1.627186 1_655
O13 P4 1.616520 1_555
O13 P2 1.627186 1_455
O14 P5 1.499416 1_555
O15 P4 1.499416 1_555
O16 P4 1.514725 1_555
O17 P5 1.514725 1_555
