# generated using pymatgen
data_CrPO4
_symmetry_space_group_name_H-M   'P 1'
_cell_length_a   4.79367359
_cell_length_b   4.79367359
_cell_length_c   15.52987564
_cell_angle_alpha   84.68436761
_cell_angle_beta   84.68436761
_cell_angle_gamma   101.62875196
_symmetry_Int_Tables_number   1
_chemical_formula_structural   CrPO4
_chemical_formula_sum   'Cr4 P4 O16'
_cell_volume   345.76308314
_cell_formula_units_Z   4
loop_
 _symmetry_equiv_pos_site_id
 _symmetry_equiv_pos_as_xyz
  1  'x, y, z'
loop_
 _atom_site_type_symbol
 _atom_site_label
 _atom_site_symmetry_multiplicity
 _atom_site_fract_x
 _atom_site_fract_y
 _atom_site_fract_z
 _atom_site_occupancy
  Cr  Cr0  1  0.08799000  0.41112900  0.75003700  1
  Cr  Cr1  1  0.91201000  0.58887100  0.24996300  1
  Cr  Cr2  1  0.58887100  0.91201000  0.74996300  1
  Cr  Cr3  1  0.41112900  0.08799000  0.25003700  1
  P  P0  1  0.74165000  0.56710700  0.63020700  1
  P  P1  1  0.25835000  0.43289300  0.36979300  1
  P  P2  1  0.43289300  0.25835000  0.86979300  1
  P  P3  1  0.56710700  0.74165000  0.13020700  1
  O  O0  1  0.73645300  0.91388700  0.20351500  1
  O  O1  1  0.74306900  0.20662100  0.83526600  1
  O  O2  1  0.20662100  0.74306900  0.33526600  1
  O  O3  1  0.82753300  0.66877100  0.53862300  1
  O  O4  1  0.43141000  0.61595100  0.66601700  1
  O  O5  1  0.26354700  0.08611300  0.79648500  1
  O  O6  1  0.66877100  0.82753300  0.03862300  1
  O  O7  1  0.08611300  0.26354700  0.29648500  1
  O  O8  1  0.33122900  0.17246700  0.96137700  1
  O  O9  1  0.79337900  0.25693100  0.66473400  1
  O  O10  1  0.25693100  0.79337900  0.16473400  1
  O  O11  1  0.56859000  0.38404900  0.33398300  1
  O  O12  1  0.61595100  0.43141000  0.16601700  1
  O  O13  1  0.38404900  0.56859000  0.83398300  1
  O  O14  1  0.17246700  0.33122900  0.46137700  1
  O  O15  1  0.91388700  0.73645300  0.70351500  1
loop_
_geom_bond_atom_site_label_1
_geom_bond_atom_site_label_2
_geom_bond_distance
_geom_bond_site_symmetry_2
Cr0 O15 2.019460 1_455
Cr0 O5 2.022079 1_555
Cr0 O4 2.022302 1_555
Cr0 O1 2.036532 1_455
Cr0 O13 2.092066 1_555
Cr0 O9 2.098350 1_455
Cr1 O7 2.019460 1_655
Cr1 O0 2.022079 1_555
Cr1 O11 2.022302 1_555
Cr1 O10 2.036532 1_655
Cr1 O12 2.092066 1_555
Cr1 O2 2.098350 1_655
Cr2 O5 2.019460 1_565
Cr2 O15 2.022079 1_555
Cr2 O13 2.022302 1_555
Cr2 O9 2.036532 1_565
Cr2 O4 2.092066 1_555
Cr2 O1 2.098350 1_565
Cr3 O0 2.019460 1_545
Cr3 O7 2.022079 1_555
Cr3 O12 2.022302 1_555
Cr3 O2 2.036532 1_545
Cr3 O11 2.092066 1_555
Cr3 O10 2.098350 1_545
O0 P3 1.646813 1_555
O1 P2 1.607910 1_555
O2 P1 1.607910 1_555
O3 P0 1.453305 1_555
O4 P0 1.608444 1_555
O5 P2 1.646813 1_555
O6 P3 1.453305 1_555
O7 P1 1.646813 1_555
O8 P2 1.453305 1_555
O9 P0 1.607910 1_555
O10 P3 1.607910 1_555
O11 P1 1.608444 1_555
O12 P3 1.608444 1_555
O13 P2 1.608444 1_555
O14 P1 1.453305 1_555
O15 P0 1.646813 1_555
