# generated using pymatgen
data_CuAs2Pb8Cl5O9
_symmetry_space_group_name_H-M   'P 1'
_cell_length_a   12.22513459
_cell_length_b   12.22513459
_cell_length_c   7.70858124
_cell_angle_alpha   81.05351132
_cell_angle_beta   81.05351132
_cell_angle_gamma   112.21025411
_symmetry_Int_Tables_number   1
_chemical_formula_structural   CuAs2Pb8Cl5O9
_chemical_formula_sum   'Cu2 As4 Pb16 Cl10 O18'
_cell_volume   1024.28694904
_cell_formula_units_Z   2
loop_
 _symmetry_equiv_pos_site_id
 _symmetry_equiv_pos_as_xyz
  1  'x, y, z'
loop_
 _atom_site_type_symbol
 _atom_site_label
 _atom_site_symmetry_multiplicity
 _atom_site_fract_x
 _atom_site_fract_y
 _atom_site_fract_z
 _atom_site_occupancy
  Cu  Cu0  1  0.57616400  0.42383600  0.50000000  1
  Cu  Cu1  1  0.42383600  0.57616400  0.50000000  1
  As  As0  1  0.44253100  0.21269900  0.58499400  1
  As  As1  1  0.78730100  0.55746900  0.41500600  1
  As  As2  1  0.55746900  0.78730100  0.41500600  1
  As  As3  1  0.21269900  0.44253100  0.58499400  1
  Pb  Pb0  1  0.74649400  0.55333700  0.92148100  1
  Pb  Pb1  1  0.14397900  0.14397900  0.42367800  1
  Pb  Pb2  1  0.65742200  0.05429500  0.57734200  1
  Pb  Pb3  1  0.64424800  0.05567300  0.07228000  1
  Pb  Pb4  1  0.25350600  0.44666300  0.07851900  1
  Pb  Pb5  1  0.85602100  0.85602100  0.57632200  1
  Pb  Pb6  1  0.85523100  0.85523100  0.07041300  1
  Pb  Pb7  1  0.44666300  0.25350600  0.07851900  1
  Pb  Pb8  1  0.55333700  0.74649400  0.92148100  1
  Pb  Pb9  1  0.05567300  0.64424800  0.07228000  1
  Pb  Pb10  1  0.14476900  0.14476900  0.92958700  1
  Pb  Pb11  1  0.34257800  0.94570500  0.42265800  1
  Pb  Pb12  1  0.94570500  0.34257800  0.42265800  1
  Pb  Pb13  1  0.94432700  0.35575200  0.92772000  1
  Pb  Pb14  1  0.35575200  0.94432700  0.92772000  1
  Pb  Pb15  1  0.05429500  0.65742200  0.57734200  1
  Cl  Cl0  1  0.70280200  0.28409400  0.76501000  1
  Cl  Cl1  1  0.28409400  0.70280200  0.76501000  1
  Cl  Cl2  1  0.09619000  0.89841600  0.75284400  1
  Cl  Cl3  1  0.29719800  0.71590600  0.23499000  1
  Cl  Cl4  1  0.71590600  0.29719800  0.23499000  1
  Cl  Cl5  1  0.49774100  0.49774100  0.26081500  1
  Cl  Cl6  1  0.50225900  0.50225900  0.73918500  1
  Cl  Cl7  1  0.90381000  0.10158400  0.24715600  1
  Cl  Cl8  1  0.10158400  0.90381000  0.24715600  1
  Cl  Cl9  1  0.89841600  0.09619000  0.75284400  1
  O  O0  1  0.24077200  0.24077200  0.12959400  1
  O  O1  1  0.17200300  0.34668200  0.80640700  1
  O  O2  1  0.46882200  0.07555800  0.60786000  1
  O  O3  1  0.82782800  0.65318600  0.57190200  1
  O  O4  1  0.06015300  0.44431800  0.12821900  1
  O  O5  1  0.07555800  0.46882200  0.60786000  1
  O  O6  1  0.44431800  0.06015300  0.12821900  1
  O  O7  1  0.17217200  0.34681400  0.42809800  1
  O  O8  1  0.92444200  0.53117800  0.39214000  1
  O  O9  1  0.34681400  0.17217200  0.42809800  1
  O  O10  1  0.34668200  0.17200300  0.80640700  1
  O  O11  1  0.53117800  0.92444200  0.39214000  1
  O  O12  1  0.55568200  0.93984700  0.87178100  1
  O  O13  1  0.82799700  0.65331800  0.19359300  1
  O  O14  1  0.75922800  0.75922800  0.87040600  1
  O  O15  1  0.65318600  0.82782800  0.57190200  1
  O  O16  1  0.93984700  0.55568200  0.87178100  1
  O  O17  1  0.65331800  0.82799700  0.19359300  1
loop_
_geom_bond_atom_site_label_1
_geom_bond_atom_site_label_2
_geom_bond_distance
_geom_bond_site_symmetry_2
As0 O10 1.790750 1_555
As0 O9 1.807133 1_555
As0 O2 1.810621 1_555
As0 Cu0 2.390354 1_555
As1 O13 1.790750 1_555
As1 O3 1.807133 1_555
As1 O8 1.810621 1_555
As1 Cu0 2.390354 1_555
As2 O17 1.790750 1_555
As2 O15 1.807133 1_555
As2 O11 1.810621 1_555
As2 Cu1 2.390354 1_555
As3 O1 1.790750 1_555
As3 O7 1.807133 1_555
As3 O5 1.810621 1_555
As3 Cu1 2.390354 1_555
Cl0 Pb3 3.134470 1_556
Cl1 Pb9 3.134470 1_556
Cl3 Pb14 3.134470 1_554
Cl4 Pb13 3.134470 1_554
Cl5 Cu1 2.412785 1_555
Cl5 Cu0 2.412785 1_555
Cl6 Cu0 2.412785 1_555
Cl6 Cu1 2.412785 1_555
O0 Pb1 2.283057 1_555
O0 Pb10 2.283897 1_554
O0 Pb7 2.427187 1_555
O0 Pb4 2.427187 1_555
O1 Pb10 2.378425 1_555
O1 Pb4 2.722759 1_556
O2 Pb2 2.396333 1_555
O2 Pb11 2.545210 1_545
O2 Pb14 2.568491 1_545
O3 Pb5 2.377518 1_555
O3 Pb0 2.639388 1_555
O3 Pb15 2.756433 1_655
O4 Pb4 2.323507 1_555
O4 Pb12 2.339829 1_455
O4 Pb13 2.368159 1_454
O4 Pb9 2.437962 1_555
O5 Pb15 2.396333 1_555
O5 Pb12 2.545210 1_455
O5 Pb13 2.568491 1_455
O6 Pb7 2.323507 1_555
O6 Pb11 2.339829 1_545
O6 Pb14 2.368159 1_544
O6 Pb3 2.437962 1_555
O7 Pb1 2.377518 1_555
O7 Pb4 2.639388 1_555
O7 Pb12 2.756433 1_455
O8 Pb12 2.396333 1_555
O8 Pb15 2.545210 1_655
O8 Pb9 2.568491 1_655
O9 Pb1 2.377518 1_555
O9 Pb7 2.639388 1_555
O9 Pb11 2.756433 1_545
O10 Pb10 2.378425 1_555
O10 Pb7 2.722759 1_556
O11 Pb11 2.396333 1_555
O11 Pb2 2.545210 1_565
O11 Pb3 2.568491 1_565
O12 Pb8 2.323507 1_555
O12 Pb2 2.339829 1_565
O12 Pb3 2.368159 1_566
O12 Pb14 2.437962 1_555
O13 Pb6 2.378425 1_555
O13 Pb0 2.722759 1_554
O14 Pb5 2.283057 1_555
O14 Pb6 2.283897 1_556
O14 Pb8 2.427187 1_555
O14 Pb0 2.427187 1_555
O15 Pb5 2.377518 1_555
O15 Pb8 2.639388 1_555
O15 Pb2 2.756433 1_565
O16 Pb0 2.323507 1_555
O16 Pb15 2.339829 1_655
O16 Pb9 2.368159 1_656
O16 Pb13 2.437962 1_555
O17 Pb6 2.378425 1_555
O17 Pb8 2.722759 1_554
