# generated using pymatgen
data_LiBi(PO3)4
_symmetry_space_group_name_H-M   'P 1'
_cell_length_a   9.20154800
_cell_length_b   10.37745000
_cell_length_c   12.90946185
_cell_angle_alpha   52.98247619
_cell_angle_beta   90.00000000
_cell_angle_gamma   90.00000000
_symmetry_Int_Tables_number   1
_chemical_formula_structural   LiBi(PO3)4
_chemical_formula_sum   'Li4 Bi4 P16 O48'
_cell_volume   984.25623686
_cell_formula_units_Z   4
loop_
 _symmetry_equiv_pos_site_id
 _symmetry_equiv_pos_as_xyz
  1  'x, y, z'
loop_
 _atom_site_type_symbol
 _atom_site_label
 _atom_site_symmetry_multiplicity
 _atom_site_fract_x
 _atom_site_fract_y
 _atom_site_fract_z
 _atom_site_occupancy
  Li  Li0  1  0.43418400  0.15704600  0.34232600  1
  Li  Li1  1  0.93418400  0.84295400  0.15767400  1
  Li  Li2  1  0.56581600  0.84295400  0.65767400  1
  Li  Li3  1  0.06581600  0.15704600  0.84232600  1
  Bi  Bi0  1  0.28341400  0.80969600  0.99382000  1
  Bi  Bi1  1  0.71658600  0.19030400  0.00618000  1
  Bi  Bi2  1  0.78341400  0.19030400  0.50618000  1
  Bi  Bi3  1  0.21658600  0.80969600  0.49382000  1
  P  P0  1  0.50803600  0.50195800  0.23823200  1
  P  P1  1  0.89767900  0.89146100  0.84779600  1
  P  P2  1  0.60232100  0.89146100  0.34779600  1
  P  P3  1  0.10423600  0.69563800  0.81459000  1
  P  P4  1  0.89576400  0.30436200  0.18541000  1
  P  P5  1  0.33139500  0.19884100  0.95921500  1
  P  P6  1  0.39767900  0.10853900  0.65220400  1
  P  P7  1  0.60423600  0.30436200  0.68541000  1
  P  P8  1  0.39576400  0.69563800  0.31459000  1
  P  P9  1  0.66860500  0.80115900  0.04078500  1
  P  P10  1  0.83139500  0.80115900  0.54078500  1
  P  P11  1  0.16860500  0.19884100  0.45921500  1
  P  P12  1  0.00803600  0.49804200  0.26176800  1
  P  P13  1  0.10232100  0.10853900  0.15220400  1
  P  P14  1  0.49196400  0.49804200  0.76176800  1
  P  P15  1  0.99196400  0.50195800  0.73823200  1
  O  O0  1  0.15485100  0.80446300  0.67639400  1
  O  O1  1  0.84514900  0.19553700  0.32360600  1
  O  O2  1  0.23947600  0.10468500  0.41774700  1
  O  O3  1  0.53144400  0.86194200  0.96181500  1
  O  O4  1  0.48053000  0.94627900  0.39154000  1
  O  O5  1  0.44304900  0.67072700  0.68319400  1
  O  O6  1  0.55695100  0.32927300  0.31680600  1
  O  O7  1  0.64922200  0.61756800  0.16955000  1
  O  O8  1  0.80845200  0.01943800  0.73415100  1
  O  O9  1  0.95860400  0.46875200  0.15707500  1
  O  O10  1  0.30845200  0.98056200  0.76584900  1
  O  O11  1  0.20299700  0.65243600  0.92382400  1
  O  O12  1  0.65485100  0.19553700  0.82360600  1
  O  O13  1  0.70299700  0.34756400  0.57617600  1
  O  O14  1  0.96855600  0.86194200  0.46181500  1
  O  O15  1  0.10818400  0.55385700  0.63760100  1
  O  O16  1  0.73947600  0.89531500  0.08225300  1
  O  O17  1  0.54773200  0.76303100  0.32722100  1
  O  O18  1  0.94304900  0.32927300  0.81680600  1
  O  O19  1  0.14922200  0.38243200  0.33045000  1
  O  O20  1  0.39181600  0.55385700  0.13760100  1
  O  O21  1  0.05695100  0.67072700  0.18319400  1
  O  O22  1  0.60818400  0.44614300  0.86239900  1
  O  O23  1  0.04139600  0.53124800  0.84292500  1
  O  O24  1  0.69154800  0.01943800  0.23415100  1
  O  O25  1  0.45860400  0.53124800  0.34292500  1
  O  O26  1  0.01947000  0.94627900  0.89154000  1
  O  O27  1  0.29700300  0.65243600  0.42382400  1
  O  O28  1  0.35077800  0.38243200  0.83045000  1
  O  O29  1  0.04773200  0.23696900  0.17277900  1
  O  O30  1  0.28873600  0.22847400  0.53263200  1
  O  O31  1  0.76052400  0.89531500  0.58225300  1
  O  O32  1  0.78873600  0.77152600  0.96736800  1
  O  O33  1  0.45226800  0.23696900  0.67277900  1
  O  O34  1  0.98053000  0.05372100  0.10846000  1
  O  O35  1  0.79700300  0.34756400  0.07617600  1
  O  O36  1  0.51947000  0.05372100  0.60846000  1
  O  O37  1  0.85077800  0.61756800  0.66955000  1
  O  O38  1  0.34514900  0.80446300  0.17639400  1
  O  O39  1  0.21126400  0.22847400  0.03263200  1
  O  O40  1  0.95226800  0.76303100  0.82722100  1
  O  O41  1  0.89181600  0.44614300  0.36239900  1
  O  O42  1  0.71126400  0.77152600  0.46736800  1
  O  O43  1  0.46855600  0.13805800  0.03818500  1
  O  O44  1  0.19154800  0.98056200  0.26584900  1
  O  O45  1  0.26052400  0.10468500  0.91774700  1
  O  O46  1  0.03144400  0.13805800  0.53818500  1
  O  O47  1  0.54139600  0.46875200  0.65707500  1
loop_
_geom_bond_atom_site_label_1
_geom_bond_atom_site_label_2
_geom_bond_distance
_geom_bond_site_symmetry_2
Li0 O4 1.922552 1_545
Li0 O2 1.953479 1_555
Li0 O6 1.967229 1_555
Li1 O34 1.922552 1_565
Li1 O16 1.953479 1_555
Li1 O21 1.967229 1_655
Li2 O36 1.922552 1_565
Li2 O31 1.953479 1_555
Li2 O5 1.967229 1_555
Li3 O26 1.922552 1_545
Li3 O45 1.953479 1_555
Li3 O18 1.967229 1_455
Bi0 O3 2.324573 1_555
Bi0 O20 2.356931 1_556
Bi0 O10 2.361096 1_555
Bi0 O38 2.393042 1_556
Bi0 O11 2.408942 1_555
Bi0 O45 2.599999 1_565
Bi0 O26 2.719824 1_555
Bi0 O21 2.855416 1_556
Bi1 O43 2.324573 1_555
Bi1 O22 2.356931 1_554
Bi1 O24 2.361096 1_555
Bi1 O12 2.393042 1_554
Bi1 O35 2.408942 1_555
Bi1 O16 2.599999 1_545
Bi1 O34 2.719824 1_555
Bi1 O18 2.855416 1_554
Bi2 O46 2.324573 1_655
Bi2 O41 2.356931 1_555
Bi2 O8 2.361096 1_555
Bi2 O1 2.393042 1_555
Bi2 O13 2.408942 1_555
Bi2 O31 2.599999 1_545
Bi2 O36 2.719824 1_555
Bi2 O6 2.855416 1_555
Bi3 O14 2.324573 1_455
Bi3 O15 2.356931 1_555
Bi3 O44 2.361096 1_555
Bi3 O0 2.393042 1_555
Bi3 O27 2.408942 1_555
Bi3 O2 2.599999 1_565
Bi3 O4 2.719824 1_555
Bi3 O5 2.855416 1_555
O0 P3 1.499688 1_555
O1 P4 1.499688 1_555
O2 P11 1.515389 1_555
O3 P9 1.501915 1_556
O4 P2 1.511696 1_555
O5 P14 1.501360 1_555
O6 P0 1.501360 1_555
O7 P9 1.615975 1_555
O7 P0 1.622460 1_555
O8 P1 1.498038 1_545
O9 P12 1.618818 1_655
O9 P4 1.620807 1_555
O10 P6 1.498038 1_565
O11 P3 1.501368 1_555
O12 P7 1.499688 1_555
O13 P7 1.501368 1_555
O14 P10 1.501915 1_555
O15 P15 1.509587 1_455
O16 P9 1.515389 1_555
O17 P2 1.589154 1_555
O17 P8 1.615047 1_555
O18 P15 1.501360 1_555
O19 P11 1.615975 1_555
O19 P12 1.622460 1_555
O20 P0 1.509587 1_555
O21 P12 1.501360 1_555
O22 P14 1.509587 1_555
O23 P15 1.618818 1_455
O23 P3 1.620807 1_555
O24 P2 1.498038 1_545
O25 P0 1.618818 1_555
O25 P8 1.620807 1_555
O26 P1 1.511696 1_455
O27 P8 1.501368 1_555
O28 P5 1.615975 1_555
O28 P14 1.622460 1_555
O29 P13 1.589154 1_555
O29 P4 1.615047 1_455
O30 P11 1.601773 1_555
O30 P6 1.619674 1_555
O31 P10 1.515389 1_555
O32 P9 1.601773 1_556
O32 P1 1.619674 1_555
O33 P6 1.589154 1_555
O33 P7 1.615047 1_555
O34 P13 1.511696 1_655
O35 P4 1.501368 1_555
O36 P6 1.511696 1_555
O37 P10 1.615975 1_555
O37 P15 1.622460 1_555
O38 P8 1.499688 1_555
O39 P5 1.601773 1_554
O39 P13 1.619674 1_555
O40 P1 1.589154 1_555
O40 P3 1.615047 1_655
O41 P12 1.509587 1_655
O42 P10 1.601773 1_555
O42 P2 1.619674 1_555
O43 P5 1.501915 1_554
O44 P13 1.498038 1_565
O45 P5 1.515389 1_555
O46 P11 1.501915 1_555
O47 P14 1.618818 1_555
O47 P7 1.620807 1_555
