# generated using pymatgen
data_XeF6
_symmetry_space_group_name_H-M   'P 1'
_cell_length_a   8.89566900
_cell_length_b   12.58673900
_cell_length_c   17.68802800
_cell_angle_alpha   90.00000000
_cell_angle_beta   90.00000000
_cell_angle_gamma   90.00000000
_symmetry_Int_Tables_number   1
_chemical_formula_structural   XeF6
_chemical_formula_sum   'Xe16 F96'
_cell_volume   1980.48363714
_cell_formula_units_Z   16
loop_
 _symmetry_equiv_pos_site_id
 _symmetry_equiv_pos_as_xyz
  1  'x, y, z'
loop_
 _atom_site_type_symbol
 _atom_site_label
 _atom_site_symmetry_multiplicity
 _atom_site_fract_x
 _atom_site_fract_y
 _atom_site_fract_z
 _atom_site_occupancy
  Xe  Xe0  1  0.29505800  0.93774600  0.12096200  1
  Xe  Xe1  1  0.38599600  0.26329300  0.37035800  1
  Xe  Xe2  1  0.26157200  0.55670400  0.10228500  1
  Xe  Xe3  1  0.73842800  0.05670400  0.89771500  1
  Xe  Xe4  1  0.79505800  0.43774600  0.37903800  1
  Xe  Xe5  1  0.61400400  0.76329300  0.62964200  1
  Xe  Xe6  1  0.70494200  0.43774600  0.87903800  1
  Xe  Xe7  1  0.77139000  0.23989200  0.19127700  1
  Xe  Xe8  1  0.76157200  0.05670400  0.39771500  1
  Xe  Xe9  1  0.22861000  0.73989200  0.80872300  1
  Xe  Xe10  1  0.27139000  0.73989200  0.30872300  1
  Xe  Xe11  1  0.23842800  0.55670400  0.60228500  1
  Xe  Xe12  1  0.72861000  0.23989200  0.69127700  1
  Xe  Xe13  1  0.11400400  0.26329300  0.87035800  1
  Xe  Xe14  1  0.88599600  0.76329300  0.12964200  1
  Xe  Xe15  1  0.20494200  0.93774600  0.62096200  1
  F  F0  1  0.64545300  0.73915700  0.51935000  1
  F  F1  1  0.81416800  0.26646600  0.08332300  1
  F  F2  1  0.05935800  0.74734700  0.34686100  1
  F  F3  1  0.65892000  0.77986800  0.73990600  1
  F  F4  1  0.85833700  0.43175700  0.96264300  1
  F  F5  1  0.87679500  0.20695000  0.92000500  1
  F  F6  1  0.64456600  0.28376800  0.81753300  1
  F  F7  1  0.77453900  0.40024100  0.19250900  1
  F  F8  1  0.42602500  0.85565300  0.04963800  1
  F  F9  1  0.62752200  0.55672300  0.94074600  1
  F  F10  1  0.68583200  0.26646600  0.58332300  1
  F  F11  1  0.39915200  0.51476400  0.52976600  1
  F  F12  1  0.63943900  0.93202800  0.94388800  1
  F  F13  1  0.12320500  0.70695000  0.07999500  1
  F  F14  1  0.00354100  0.73109500  0.80503700  1
  F  F15  1  0.54807900  0.05712600  0.83551500  1
  F  F16  1  0.85535200  0.60611100  0.14401900  1
  F  F17  1  0.91607500  0.35957500  0.81851100  1
  F  F18  1  0.37679500  0.70695000  0.57999500  1
  F  F19  1  0.31416800  0.76646600  0.41667700  1
  F  F20  1  0.85543400  0.28376800  0.31753300  1
  F  F21  1  0.35543400  0.78376800  0.18246700  1
  F  F22  1  0.64464800  0.60611100  0.64401900  1
  F  F23  1  0.12752200  0.05672300  0.55925400  1
  F  F24  1  0.34571100  0.64206500  0.71879700  1
  F  F25  1  0.22546100  0.90024100  0.80749100  1
  F  F26  1  0.33577700  0.26270100  0.87169100  1
  F  F27  1  0.72546100  0.40024100  0.69250900  1
  F  F28  1  0.84571100  0.14206500  0.78120300  1
  F  F29  1  0.62320500  0.20695000  0.42000500  1
  F  F30  1  0.65182500  0.91571000  0.60520000  1
  F  F31  1  0.32308100  0.44376500  0.66918400  1
  F  F32  1  0.44064200  0.74734700  0.84686100  1
  F  F33  1  0.95192100  0.05712600  0.33551500  1
  F  F34  1  0.15428900  0.64206500  0.21879700  1
  F  F35  1  0.41607500  0.85957500  0.68148900  1
  F  F36  1  0.65428900  0.14206500  0.28120300  1
  F  F37  1  0.18583200  0.76646600  0.91667700  1
  F  F38  1  0.12174800  0.63087500  0.52190600  1
  F  F39  1  0.57397500  0.35565300  0.95036200  1
  F  F40  1  0.71722000  0.09005800  0.65633400  1
  F  F41  1  0.83577700  0.76270100  0.62830900  1
  F  F42  1  0.08392500  0.85957500  0.18148900  1
  F  F43  1  0.86056100  0.93202800  0.44388800  1
  F  F44  1  0.85454700  0.73915700  0.01935000  1
  F  F45  1  0.10084800  0.51476400  0.02976600  1
  F  F46  1  0.14545300  0.23915700  0.98065000  1
  F  F47  1  0.37825200  0.63087500  0.02190600  1
  F  F48  1  0.15892000  0.27986800  0.76009400  1
  F  F49  1  0.94064200  0.24734700  0.65313900  1
  F  F50  1  0.16422300  0.26270100  0.37169100  1
  F  F51  1  0.02922200  0.97862700  0.68589700  1
  F  F52  1  0.58392500  0.35957500  0.31851100  1
  F  F53  1  0.87247800  0.55672300  0.44074600  1
  F  F54  1  0.35454700  0.23915700  0.48065000  1
  F  F55  1  0.87825200  0.13087500  0.47809400  1
  F  F56  1  0.81613800  0.55832600  0.82989400  1
  F  F57  1  0.36056100  0.43202800  0.05611200  1
  F  F58  1  0.34108000  0.27986800  0.26009400  1
  F  F59  1  0.50354100  0.23109500  0.69496300  1
  F  F60  1  0.15182500  0.41571000  0.89480000  1
  F  F61  1  0.17691900  0.44376500  0.16918400  1
  F  F62  1  0.62174800  0.13087500  0.97809400  1
  F  F63  1  0.31613800  0.05832600  0.67010600  1
  F  F64  1  0.84108000  0.77986800  0.23990600  1
  F  F65  1  0.07397500  0.85565300  0.54963800  1
  F  F66  1  0.55935800  0.24734700  0.15313900  1
  F  F67  1  0.67691900  0.94376500  0.33081600  1
  F  F68  1  0.84817500  0.91571000  0.10520000  1
  F  F69  1  0.97077800  0.47862700  0.31410300  1
  F  F70  1  0.04807900  0.55712600  0.66448500  1
  F  F71  1  0.82308100  0.94376500  0.83081600  1
  F  F72  1  0.89915200  0.01476400  0.97023400  1
  F  F73  1  0.18386200  0.05832600  0.17010600  1
  F  F74  1  0.47077800  0.97862700  0.18589700  1
  F  F75  1  0.13943900  0.43202800  0.55611200  1
  F  F76  1  0.45192100  0.55712600  0.16448500  1
  F  F77  1  0.35535200  0.10611100  0.35598100  1
  F  F78  1  0.28278000  0.59005800  0.34366600  1
  F  F79  1  0.64166300  0.43175700  0.46264300  1
  F  F80  1  0.27453900  0.90024100  0.30749100  1
  F  F81  1  0.14464800  0.10611100  0.85598100  1
  F  F82  1  0.34817500  0.41571000  0.39480000  1
  F  F83  1  0.52922200  0.47862700  0.81410300  1
  F  F84  1  0.49645900  0.73109500  0.30503700  1
  F  F85  1  0.37247800  0.05672300  0.05925400  1
  F  F86  1  0.66422300  0.76270100  0.12830900  1
  F  F87  1  0.14166300  0.93175700  0.03735700  1
  F  F88  1  0.78278000  0.09005800  0.15633400  1
  F  F89  1  0.60084800  0.01476400  0.47023400  1
  F  F90  1  0.21722000  0.59005800  0.84366600  1
  F  F91  1  0.99645900  0.23109500  0.19496300  1
  F  F92  1  0.14456600  0.78376800  0.68246700  1
  F  F93  1  0.68386200  0.55832600  0.32989400  1
  F  F94  1  0.35833700  0.93175700  0.53735700  1
  F  F95  1  0.92602500  0.35565300  0.45036200  1
loop_
_geom_bond_atom_site_label_1
_geom_bond_atom_site_label_2
_geom_bond_distance
_geom_bond_site_symmetry_2
F0 Xe5 1.994082 1_555
F1 Xe7 1.975564 1_555
F2 Xe10 2.005367 1_555
F3 Xe5 2.001761 1_555
F4 Xe6 2.013592 1_555
F5 Xe3 2.290582 1_555
F5 Xe13 2.393063 1_655
F6 Xe6 2.286515 1_555
F6 Xe12 2.418926 1_555
F7 Xe7 2.018583 1_555
F8 Xe0 2.004140 1_555
F9 Xe6 1.976935 1_555
F10 Xe12 1.975564 1_555
F11 Xe11 1.992036 1_555
F12 Xe3 1.976111 1_565
F13 Xe2 2.290582 1_555
F13 Xe14 2.393063 1_455
F14 Xe9 2.006258 1_555
F15 Xe3 2.019322 1_555
F16 Xe14 2.013226 1_555
F17 Xe13 2.325891 1_655
F17 Xe6 2.375249 1_555
F18 Xe11 2.290582 1_555
F18 Xe5 2.393063 1_555
F19 Xe10 1.975564 1_555
F20 Xe4 2.286515 1_555
F20 Xe7 2.418926 1_555
F21 Xe0 2.286515 1_555
F21 Xe10 2.418926 1_555
F22 Xe5 2.013226 1_555
F23 Xe15 1.976935 1_545
F24 Xe9 2.265244 1_555
F24 Xe11 2.512437 1_555
F25 Xe9 2.018583 1_555
F26 Xe13 1.972974 1_555
F27 Xe12 2.018583 1_555
F28 Xe12 2.265244 1_555
F28 Xe3 2.512437 1_555
F29 Xe8 2.290582 1_555
F29 Xe1 2.393063 1_555
F30 Xe5 1.995116 1_555
F31 Xe11 1.997013 1_555
F32 Xe9 2.005367 1_555
F33 Xe8 2.019322 1_555
F34 Xe10 2.265244 1_555
F34 Xe2 2.512437 1_555
F35 Xe5 2.325891 1_555
F35 Xe15 2.375249 1_555
F36 Xe7 2.265244 1_555
F36 Xe8 2.512437 1_555
F37 Xe9 1.975564 1_555
F38 Xe11 1.992549 1_555
F39 Xe6 2.004140 1_555
F40 Xe12 1.987204 1_555
F41 Xe5 1.972974 1_555
F42 Xe14 2.325891 1_455
F42 Xe0 2.375249 1_555
F43 Xe8 1.976111 1_565
F44 Xe14 1.994082 1_555
F45 Xe2 1.992036 1_555
F46 Xe13 1.994082 1_555
F47 Xe2 1.992549 1_555
F48 Xe13 2.001761 1_555
F49 Xe12 2.005367 1_555
F50 Xe1 1.972974 1_555
F51 Xe15 2.006842 1_555
F52 Xe1 2.325891 1_555
F52 Xe4 2.375249 1_555
F53 Xe4 1.976935 1_555
F54 Xe1 1.994082 1_555
F55 Xe8 1.992549 1_555
F56 Xe6 2.009352 1_555
F57 Xe2 1.976111 1_555
F58 Xe1 2.001761 1_555
F59 Xe12 2.006258 1_555
F60 Xe13 1.995116 1_555
F61 Xe2 1.997013 1_555
F62 Xe3 1.992549 1_555
F63 Xe15 2.009352 1_545
F64 Xe14 2.001761 1_555
F65 Xe15 2.004140 1_555
F66 Xe7 2.005367 1_555
F67 Xe8 1.997013 1_565
F68 Xe14 1.995116 1_555
F69 Xe4 2.006842 1_555
F70 Xe11 2.019322 1_555
F71 Xe3 1.997013 1_565
F72 Xe3 1.992036 1_555
F73 Xe0 2.009352 1_545
F74 Xe0 2.006842 1_555
F75 Xe11 1.976111 1_555
F76 Xe2 2.019322 1_555
F77 Xe1 2.013226 1_555
F78 Xe10 1.987204 1_555
F79 Xe4 2.013592 1_555
F80 Xe10 2.018583 1_555
F81 Xe13 2.013226 1_555
F82 Xe1 1.995116 1_555
F83 Xe6 2.006842 1_555
F84 Xe10 2.006258 1_555
F85 Xe0 1.976935 1_545
F86 Xe14 1.972974 1_555
F87 Xe0 2.013592 1_555
F88 Xe7 1.987204 1_555
F89 Xe8 1.992036 1_555
F90 Xe9 1.987204 1_555
F91 Xe7 2.006258 1_555
F92 Xe15 2.286515 1_555
F92 Xe9 2.418926 1_555
F93 Xe4 2.009352 1_555
F94 Xe15 2.013592 1_555
F95 Xe4 2.004140 1_555
