# generated using pymatgen
data_Ba8Mn8O21
_symmetry_space_group_name_H-M   'P 1'
_cell_length_a   9.42720017
_cell_length_b   5.70588476
_cell_length_c   9.91350635
_cell_angle_alpha   89.60889369
_cell_angle_beta   90.00000000
_cell_angle_gamma   90.00000000
_symmetry_Int_Tables_number   1
_chemical_formula_structural   Ba8Mn8O21
_chemical_formula_sum   'Ba8 Mn8 O21'
_cell_volume   533.24021623
_cell_formula_units_Z   1
loop_
 _symmetry_equiv_pos_site_id
 _symmetry_equiv_pos_as_xyz
  1  'x, y, z'
loop_
 _atom_site_type_symbol
 _atom_site_label
 _atom_site_symmetry_multiplicity
 _atom_site_fract_x
 _atom_site_fract_y
 _atom_site_fract_z
 _atom_site_occupancy
  Ba  Ba0  1  0.76273339  0.99220246  -0.00090440  1
  Ba  Ba1  1  0.50000000  0.50869129  0.16587955  1
  Ba  Ba2  1  0.28015005  0.49269347  0.50451015  1
  Ba  Ba3  1  0.00000000  0.00418017  0.33446919  1
  Ba  Ba4  1  0.50000000  0.99323853  0.66593259  1
  Ba  Ba5  1  0.23726661  0.99220246  -0.00090440  1
  Ba  Ba6  1  0.71984995  0.49269347  0.50451015  1
  Ba  Ba7  1  0.00000000  0.49217452  0.83509035  1
  Mn  Mn0  1  0.14606112  0.49658977  0.16622441  1
  Mn  Mn1  1  0.85393888  0.49658977  0.16622441  1
  Mn  Mn2  1  0.63735473  0.99788618  0.33248828  1
  Mn  Mn3  1  0.14341583  0.01685113  0.66448132  1
  Mn  Mn4  1  0.36264527  0.99788618  0.33248828  1
  Mn  Mn5  1  0.85658417  0.01685113  0.66448132  1
  Mn  Mn6  1  0.64191106  0.51527208  0.83049585  1
  Mn  Mn7  1  0.35808894  0.51527208  0.83049585  1
  O  O0  1  0.24937207  0.24834098  0.25638845  1
  O  O1  1  0.00000000  0.27911663  0.11663550  1
  O  O2  1  0.74281866  0.49211480  0.99549833  1
  O  O3  1  0.00000000  0.71321350  0.11453861  1
  O  O4  1  0.75159105  0.74727079  0.25661692  1
  O  O5  1  0.23800472  0.75734841  0.73705777  1
  O  O6  1  0.76199528  0.75734841  0.73705777  1
  O  O7  1  0.24840895  0.74727079  0.25661692  1
  O  O8  1  0.50000000  0.77883610  0.40413527  1
  O  O9  1  0.50000000  0.00344155  0.18664041  1
  O  O10  1  0.74998829  0.99331017  0.49353659  1
  O  O11  1  0.25001171  0.99331017  0.49353659  1
  O  O12  1  0.00000000  0.98433439  0.80279083  1
  O  O13  1  0.50000000  0.21303246  0.40624237  1
  O  O14  1  0.00000000  0.22854842  0.58202250  1
  O  O15  1  0.75062793  0.24834098  0.25638845  1
  O  O16  1  0.73793256  0.25455881  0.75971899  1
  O  O17  1  0.26206744  0.25455881  0.75971899  1
  O  O18  1  0.50000000  0.48914567  0.68900797  1
  O  O19  1  0.25718134  0.49211480  0.99549833  1
  O  O20  1  0.50000000  0.72333263  0.90941655  1
loop_
_geom_bond_atom_site_label_1
_geom_bond_atom_site_label_2
_geom_bond_distance
_geom_bond_site_symmetry_2
Ba0 O16 2.806870 1_564
Ba0 O2 2.858593 1_564
Ba0 O2 2.860077 1_554
Ba0 O4 2.903958 1_555
Ba0 O6 2.931113 1_554
Ba0 O15 2.950564 1_565
Ba0 O12 2.965381 1_654
Ba0 O3 2.970195 1_655
Ba0 O1 3.011146 1_665
Ba0 O20 3.049152 1_554
Ba0 O9 3.097935 1_565
Ba1 O20 2.814510 1_554
Ba1 O8 2.829217 1_555
Ba1 O9 2.831881 1_565
Ba1 O2 2.846767 1_554
Ba1 O19 2.846767 1_554
Ba1 O7 2.881745 1_555
Ba1 O4 2.881745 1_555
Ba1 O9 2.888832 1_555
Ba1 O13 2.910153 1_555
Ba1 O0 2.928501 1_555
Ba1 O15 2.928501 1_555
Ba2 O18 2.764193 1_555
Ba2 O5 2.792929 1_555
Ba2 O13 2.795012 1_555
Ba2 O8 2.815887 1_555
Ba2 O0 2.850497 1_555
Ba2 O7 2.861832 1_555
Ba2 O11 2.866357 1_545
Ba2 O17 2.868685 1_555
Ba2 O11 2.871879 1_555
Ba2 O14 3.133895 1_555
Ba3 O1 2.660482 1_555
Ba3 O3 2.749434 1_545
Ba3 O14 2.775710 1_555
Ba3 O10 2.836230 1_445
Ba3 O11 2.836230 1_545
Ba3 O15 2.837596 1_455
Ba3 O0 2.837596 1_555
Ba3 O4 2.871234 1_445
Ba3 O7 2.871234 1_545
Ba4 O18 2.840377 1_565
Ba4 O17 2.852692 1_565
Ba4 O16 2.852692 1_565
Ba4 O20 2.854355 1_555
Ba4 O13 2.855955 1_565
Ba4 O8 2.876748 1_555
Ba4 O18 2.883821 1_555
Ba4 O5 2.897609 1_555
Ba4 O6 2.897609 1_555
Ba4 O10 2.911155 1_555
Ba4 O11 2.911155 1_555
Ba5 O17 2.806870 1_564
Ba5 O19 2.858593 1_564
Ba5 O19 2.860077 1_554
Ba5 O7 2.903958 1_555
Ba5 O5 2.931113 1_554
Ba5 O0 2.950564 1_565
Ba5 O12 2.965381 1_554
Ba5 O3 2.970195 1_555
Ba5 O1 3.011146 1_565
Ba5 O20 3.049152 1_554
Ba5 O9 3.097935 1_565
Ba6 O18 2.764193 1_555
Ba6 O6 2.792929 1_555
Ba6 O13 2.795012 1_555
Ba6 O8 2.815887 1_555
Ba6 O15 2.850497 1_555
Ba6 O4 2.861832 1_555
Ba6 O10 2.866357 1_545
Ba6 O16 2.868685 1_555
Ba6 O10 2.871879 1_555
Ba6 O14 3.133895 1_655
Ba7 O12 2.824231 1_555
Ba7 O6 2.871934 1_455
Ba7 O5 2.871934 1_555
Ba7 O19 2.899473 1_555
Ba7 O2 2.899473 1_455
Ba7 O12 2.917487 1_545
Ba7 O16 2.917880 1_455
Ba7 O17 2.917880 1_555
Ba7 O14 2.933978 1_555
Ba7 O1 3.036742 1_556
Ba7 O3 3.051723 1_556
Mn0 O3 1.917720 1_555
Mn0 O1 1.919833 1_555
Mn0 O0 1.933036 1_555
Mn0 O7 1.948684 1_555
Mn0 O19 1.990765 1_554
Mn1 O3 1.917720 1_655
Mn1 O1 1.919833 1_655
Mn1 O15 1.933036 1_555
Mn1 O4 1.948684 1_555
Mn1 O2 1.990765 1_554
Mn2 O10 1.917435 1_555
Mn2 O13 1.931461 1_565
Mn2 O8 1.931643 1_555
Mn2 O15 1.933121 1_565
Mn2 O9 1.941028 1_565
Mn2 O4 1.945518 1_555
Mn3 O5 1.868345 1_545
Mn3 O12 1.933620 1_545
Mn3 O11 1.975564 1_545
Mn3 O14 1.985386 1_555
Mn3 O17 1.999920 1_555
Mn4 O11 1.917435 1_555
Mn4 O13 1.931461 1_565
Mn4 O8 1.931643 1_555
Mn4 O0 1.933121 1_565
Mn4 O9 1.941028 1_565
Mn4 O7 1.945518 1_555
Mn5 O6 1.868345 1_545
Mn5 O12 1.933620 1_645
Mn5 O10 1.975564 1_545
Mn5 O14 1.985386 1_655
Mn5 O16 1.999920 1_555
Mn6 O16 1.881203 1_555
Mn6 O2 1.896081 1_555
Mn6 O18 1.944801 1_555
Mn6 O20 1.955491 1_555
Mn6 O6 2.007485 1_555
Mn7 O17 1.881203 1_555
Mn7 O19 1.896081 1_555
Mn7 O18 1.944801 1_555
Mn7 O20 1.955491 1_555
Mn7 O5 2.007485 1_555
