# generated using pymatgen
data_CsNb(BO3)2
_symmetry_space_group_name_H-M   'P 1'
_cell_length_a   4.10355000
_cell_length_b   7.64461400
_cell_length_c   9.88035400
_cell_angle_alpha   90.00000000
_cell_angle_beta   90.00000000
_cell_angle_gamma   90.00000000
_symmetry_Int_Tables_number   1
_chemical_formula_structural   CsNb(BO3)2
_chemical_formula_sum   'Cs2 Nb2 B4 O12'
_cell_volume   309.94725610
_cell_formula_units_Z   2
loop_
 _symmetry_equiv_pos_site_id
 _symmetry_equiv_pos_as_xyz
  1  'x, y, z'
loop_
 _atom_site_type_symbol
 _atom_site_label
 _atom_site_symmetry_multiplicity
 _atom_site_fract_x
 _atom_site_fract_y
 _atom_site_fract_z
 _atom_site_occupancy
  Cs  Cs0  1  0.46830100  0.50000000  0.72522900  1
  Cs  Cs1  1  0.53169900  0.00000000  0.22522900  1
  Nb  Nb0  1  0.11601300  0.50000000  0.33315700  1
  Nb  Nb1  1  0.88398700  0.00000000  0.83315700  1
  B  B0  1  0.98933000  0.66321600  0.04507200  1
  B  B1  1  0.01067000  0.83678400  0.54507200  1
  B  B2  1  0.01067000  0.16321600  0.54507200  1
  B  B3  1  0.98933000  0.33678400  0.04507200  1
  O  O0  1  0.93711600  0.80837600  0.96774800  1
  O  O1  1  0.06288400  0.69162400  0.46774800  1
  O  O2  1  0.06288400  0.30837600  0.46774800  1
  O  O3  1  0.93711600  0.19162400  0.96774800  1
  O  O4  1  0.94304200  0.82238100  0.67957900  1
  O  O5  1  0.05695800  0.67761900  0.17957900  1
  O  O6  1  0.05695800  0.32238100  0.17957900  1
  O  O7  1  0.94304200  0.17761900  0.67957900  1
  O  O8  1  0.44202000  0.00000000  0.83363700  1
  O  O9  1  0.55798000  0.50000000  0.33363700  1
  O  O10  1  0.03329500  0.00000000  0.47955900  1
  O  O11  1  0.96670500  0.50000000  0.97955900  1
loop_
_geom_bond_atom_site_label_1
_geom_bond_atom_site_label_2
_geom_bond_distance
_geom_bond_site_symmetry_2
Cs0 O7 3.173685 1_555
Cs0 O4 3.173685 1_555
Cs0 O11 3.239979 1_555
Cs0 O11 3.248264 1_455
Cs0 O4 3.304989 1_455
Cs0 O7 3.304989 1_455
Cs0 O2 3.374254 1_555
Cs0 O1 3.374254 1_555
Cs1 O6 3.173685 1_555
Cs1 O5 3.173685 1_545
Cs1 O10 3.239979 1_555
Cs1 O10 3.248264 1_655
Cs1 O6 3.304989 1_655
Cs1 O5 3.304989 1_645
Cs1 O0 3.374254 1_544
Cs1 O3 3.374254 1_554
Nb0 O9 1.813640 1_555
Nb0 O1 1.990433 1_555
Nb0 O2 1.990433 1_555
Nb0 O5 2.050596 1_555
Nb0 O6 2.050596 1_555
Nb0 O9 2.289921 1_455
Nb1 O8 1.813640 1_555
Nb1 O3 1.990433 1_555
Nb1 O0 1.990433 1_545
Nb1 O4 2.050596 1_545
Nb1 O7 2.050596 1_555
Nb1 O8 2.289921 1_655
B0 O5 1.362100 1_655
B0 O0 1.364186 1_554
B0 O11 1.408694 1_554
B1 O4 1.362100 1_455
B1 O1 1.364186 1_555
B1 O10 1.408694 1_565
B2 O7 1.362100 1_455
B2 O2 1.364186 1_555
B2 O10 1.408694 1_555
B3 O6 1.362100 1_655
B3 O3 1.364186 1_554
B3 O11 1.408694 1_554
