# generated using pymatgen
data_Li10Sn(PS6)2
_symmetry_space_group_name_H-M   'P 1'
_cell_length_a   8.85424100
_cell_length_b   8.85424100
_cell_length_c   12.85128500
_cell_angle_alpha   90.00000000
_cell_angle_beta   90.00000000
_cell_angle_gamma   90.00000000
_symmetry_Int_Tables_number   1
_chemical_formula_structural   Li10Sn(PS6)2
_chemical_formula_sum   'Li20 Sn2 P4 S24'
_cell_volume   1007.50969126
_cell_formula_units_Z   2
loop_
 _symmetry_equiv_pos_site_id
 _symmetry_equiv_pos_as_xyz
  1  'x, y, z'
loop_
 _atom_site_type_symbol
 _atom_site_label
 _atom_site_symmetry_multiplicity
 _atom_site_fract_x
 _atom_site_fract_y
 _atom_site_fract_z
 _atom_site_occupancy
  Li  Li0  1  0.22631500  0.27190700  0.29401900  1
  Li  Li1  1  0.77368500  0.72809300  0.29401900  1
  Li  Li2  1  0.27190700  0.77368500  0.79401900  1
  Li  Li3  1  0.72809300  0.22631500  0.79401900  1
  Li  Li4  1  0.22631500  0.72809300  0.29401900  1
  Li  Li5  1  0.77368500  0.27190700  0.29401900  1
  Li  Li6  1  0.27190700  0.22631500  0.79401900  1
  Li  Li7  1  0.72809300  0.77368500  0.79401900  1
  Li  Li8  1  0.00000000  0.00000000  0.93992900  1
  Li  Li9  1  0.00000000  0.00000000  0.43992900  1
  Li  Li10  1  0.50000000  0.50000000  0.54845900  1
  Li  Li11  1  0.50000000  0.50000000  0.04845900  1
  Li  Li12  1  0.25530200  0.72464900  0.03753800  1
  Li  Li13  1  0.74469800  0.27535100  0.03753800  1
  Li  Li14  1  0.27535100  0.25530200  0.53753800  1
  Li  Li15  1  0.72464900  0.74469800  0.53753800  1
  Li  Li16  1  0.27535100  0.74469800  0.53753800  1
  Li  Li17  1  0.72464900  0.25530200  0.53753800  1
  Li  Li18  1  0.25530200  0.27535100  0.03753800  1
  Li  Li19  1  0.74469800  0.72464900  0.03753800  1
  Sn  Sn0  1  0.50000000  0.50000000  0.80109100  1
  Sn  Sn1  1  0.50000000  0.50000000  0.30109100  1
  P  P0  1  0.00000000  0.00000000  0.68535200  1
  P  P1  1  0.00000000  0.00000000  0.18535200  1
  P  P2  1  0.00000000  0.50000000  0.50340400  1
  P  P3  1  0.50000000  0.00000000  0.00340400  1
  S  S0  1  0.00000000  0.69319700  0.41273000  1
  S  S1  1  0.00000000  0.30680300  0.41273000  1
  S  S2  1  0.30680300  0.00000000  0.91273000  1
  S  S3  1  0.69319700  0.00000000  0.91273000  1
  S  S4  1  0.50000000  0.18937500  0.09537800  1
  S  S5  1  0.50000000  0.81062500  0.09537800  1
  S  S6  1  0.18937500  0.50000000  0.59537800  1
  S  S7  1  0.81062500  0.50000000  0.59537800  1
  S  S8  1  0.00000000  0.80701400  0.09437500  1
  S  S9  1  0.00000000  0.19298600  0.09437500  1
  S  S10  1  0.19298600  0.00000000  0.59437500  1
  S  S11  1  0.80701400  0.00000000  0.59437500  1
  S  S12  1  0.50000000  0.27739400  0.40989000  1
  S  S13  1  0.50000000  0.72260600  0.40989000  1
  S  S14  1  0.27739400  0.50000000  0.90989000  1
  S  S15  1  0.72260600  0.50000000  0.90989000  1
  S  S16  1  0.00000000  0.19011200  0.77679000  1
  S  S17  1  0.00000000  0.80988800  0.77679000  1
  S  S18  1  0.80988800  0.00000000  0.27679000  1
  S  S19  1  0.19011200  0.00000000  0.27679000  1
  S  S20  1  0.50000000  0.72089900  0.69221100  1
  S  S21  1  0.50000000  0.27910100  0.69221100  1
  S  S22  1  0.72089900  0.50000000  0.19221100  1
  S  S23  1  0.27910100  0.50000000  0.19221100  1
loop_
_geom_bond_atom_site_label_1
_geom_bond_atom_site_label_2
_geom_bond_distance
_geom_bond_site_symmetry_2
Li0 S19 2.438848 1_555
Li0 S23 2.451327 1_555
Li0 S1 2.537379 1_555
Li0 S12 2.844645 1_555
Li1 S18 2.438848 1_565
Li1 S22 2.451327 1_555
Li1 S0 2.537379 1_655
Li1 S13 2.844645 1_555
Li2 S17 2.438848 1_555
Li2 S20 2.451327 1_555
Li2 S2 2.537379 1_565
Li2 S14 2.844645 1_555
Li3 S16 2.438848 1_655
Li3 S21 2.451327 1_555
Li3 S3 2.537379 1_555
Li3 S15 2.844645 1_555
Li4 S19 2.438848 1_565
Li4 S23 2.451327 1_555
Li4 S0 2.537379 1_555
Li4 S13 2.844645 1_555
Li5 S18 2.438848 1_555
Li5 S22 2.451327 1_555
Li5 S1 2.537379 1_655
Li5 S12 2.844645 1_555
Li6 S16 2.438848 1_555
Li6 S21 2.451327 1_555
Li6 S2 2.537379 1_555
Li6 S14 2.844645 1_555
Li7 S17 2.438848 1_655
Li7 S20 2.451327 1_555
Li7 S3 2.537379 1_565
Li7 S15 2.844645 1_555
Li8 S9 2.619037 1_556
Li8 S8 2.619037 1_546
Li8 S16 2.688679 1_555
Li8 S17 2.688679 1_545
Li8 S2 2.738904 1_555
Li8 S3 2.738904 1_455
Li9 S11 2.619037 1_455
Li9 S10 2.619037 1_555
Li9 S19 2.688679 1_555
Li9 S18 2.688679 1_455
Li9 S1 2.738904 1_555
Li9 S0 2.738904 1_545
Li10 S12 2.656329 1_555
Li10 S13 2.656329 1_555
Li10 S20 2.690427 1_555
Li10 S21 2.690427 1_555
Li10 S7 2.815669 1_555
Li10 S6 2.815669 1_555
Li11 S14 2.656329 1_554
Li11 S15 2.656329 1_554
Li11 S22 2.690427 1_555
Li11 S23 2.690427 1_555
Li11 S5 2.815669 1_555
Li11 S4 2.815669 1_555
Li12 S5 2.413762 1_555
Li12 S8 2.485007 1_555
Li12 S14 2.585694 1_554
Li12 S23 2.819937 1_555
Li12 S2 2.953732 1_564
Li13 S4 2.413762 1_555
Li13 S9 2.485007 1_655
Li13 S15 2.585694 1_554
Li13 S22 2.819937 1_555
Li13 S3 2.953732 1_554
Li14 S6 2.413762 1_555
Li14 S10 2.485007 1_555
Li14 S12 2.585694 1_555
Li14 S21 2.819937 1_555
Li14 S1 2.953732 1_555
Li15 S7 2.413762 1_555
Li15 S11 2.485007 1_565
Li15 S13 2.585694 1_555
Li15 S20 2.819937 1_555
Li15 S0 2.953732 1_655
Li16 S6 2.413762 1_555
Li16 S10 2.485007 1_565
Li16 S13 2.585694 1_555
Li16 S20 2.819937 1_555
Li16 S0 2.953732 1_555
Li17 S7 2.413762 1_555
Li17 S11 2.485007 1_555
Li17 S12 2.585694 1_555
Li17 S21 2.819937 1_555
Li17 S1 2.953732 1_655
Li18 S4 2.413762 1_555
Li18 S9 2.485007 1_555
Li18 S14 2.585694 1_554
Li18 S23 2.819937 1_555
Li18 S2 2.953732 1_554
Li19 S5 2.413762 1_555
Li19 S8 2.485007 1_655
Li19 S15 2.585694 1_554
Li19 S22 2.819937 1_555
Li19 S3 2.953732 1_564
P0 S16 2.052886 1_555
P0 S17 2.052886 1_545
P0 S10 2.070452 1_555
P0 S11 2.070452 1_455
P1 S19 2.052886 1_555
P1 S18 2.052886 1_455
P1 S8 2.070452 1_545
P1 S9 2.070452 1_555
P2 S6 2.051500 1_555
P2 S7 2.051500 1_455
P2 S0 2.069799 1_555
P2 S1 2.069799 1_555
P3 S4 2.051500 1_555
P3 S5 2.051500 1_545
P3 S3 2.069799 1_554
P3 S2 2.069799 1_554
S12 Sn1 2.416579 1_555
S13 Sn1 2.416579 1_555
S14 Sn0 2.416579 1_555
S15 Sn0 2.416579 1_555
S20 Sn0 2.404873 1_555
S21 Sn0 2.404873 1_555
S22 Sn1 2.404873 1_555
S23 Sn1 2.404873 1_555
