# generated using pymatgen
data_Na9Sr2La9Ti20O60
_symmetry_space_group_name_H-M   'P 1'
_cell_length_a   5.52198137
_cell_length_b   5.52080521
_cell_length_c   55.20974822
_cell_angle_alpha   60.09111154
_cell_angle_beta   60.05716681
_cell_angle_gamma   60.11486556
_symmetry_Int_Tables_number   1
_chemical_formula_structural   Na9Sr2La9Ti20O60
_chemical_formula_sum   'Na9 Sr2 La9 Ti20 O60'
_cell_volume   1192.50513710
_cell_formula_units_Z   1
loop_
 _symmetry_equiv_pos_site_id
 _symmetry_equiv_pos_as_xyz
  1  'x, y, z'
loop_
 _atom_site_type_symbol
 _atom_site_label
 _atom_site_symmetry_multiplicity
 _atom_site_fract_x
 _atom_site_fract_y
 _atom_site_fract_z
 _atom_site_occupancy
  Na  Na0  1  0.24809312  0.24706592  0.12586282  1
  Na  Na1  1  0.25091948  0.25180643  0.22448393  1
  Na  Na2  1  0.25180545  0.25256927  0.32430621  1
  Na  Na3  1  0.25046705  0.25062949  0.42485403  1
  Na  Na4  1  0.25025494  0.25036555  0.52493310  1
  Na  Na5  1  0.25027844  0.25066712  0.62486255  1
  Na  Na6  1  0.24989613  0.25029503  0.72495369  1
  Na  Na7  1  0.25094387  0.25187037  0.82453454  1
  Na  Na8  1  0.24885350  0.24902502  0.92536646  1
  Sr  Sr0  1  0.24808600  0.24656807  0.02590035  1
  Sr  Sr1  1  0.74795342  0.74235992  0.07677186  1
  La  La0  1  0.75325233  0.74744969  0.17485040  1
  La  La1  1  0.75223083  0.75042600  0.27445725  1
  La  La2  1  0.75332825  0.75099647  0.37434680  1
  La  La3  1  0.75201799  0.74973131  0.47480905  1
  La  La4  1  0.75236010  0.75018348  0.57463752  1
  La  La5  1  0.75091147  0.75005582  0.67483701  1
  La  La6  1  0.75044867  0.74957827  0.77491296  1
  La  La7  1  0.75180170  0.74979725  0.87501127  1
  La  La8  1  0.75151959  0.74948153  0.97476860  1
  Ti  Ti0  1  0.99839916  0.99640552  0.00067374  1
  Ti  Ti1  1  0.00400709  0.98688821  0.10155271  1
  Ti  Ti2  1  0.49666007  0.48519830  0.05278111  1
  Ti  Ti3  1  0.00228021  0.99809316  0.19977343  1
  Ti  Ti4  1  0.50139948  0.49724914  0.15048810  1
  Ti  Ti5  1  0.50313200  0.50036804  0.24963655  1
  Ti  Ti6  1  0.00241446  0.00036842  0.39937906  1
  Ti  Ti7  1  0.00222089  0.00111601  0.29924839  1
  Ti  Ti8  1  0.50408131  0.50097902  0.34941932  1
  Ti  Ti9  1  0.50434891  0.50055729  0.44946874  1
  Ti  Ti10  1  0.00229109  0.00036039  0.49941866  1
  Ti  Ti11  1  0.50348989  0.50002148  0.54967184  1
  Ti  Ti12  1  0.00087027  0.00009444  0.69964720  1
  Ti  Ti13  1  0.00175969  0.99971479  0.59958329  1
  Ti  Ti14  1  0.50291429  0.50042083  0.64968751  1
  Ti  Ti15  1  0.00066068  -0.00014968  0.79975262  1
  Ti  Ti16  1  0.50243548  0.50030679  0.74978180  1
  Ti  Ti17  1  0.00073291  0.00126784  0.89959507  1
  Ti  Ti18  1  0.50277146  0.50032918  0.84984235  1
  Ti  Ti19  1  0.50265413  0.50241283  0.94946761  1
  O  O0  1  0.21270241  0.28408731  0.07467863  1
  O  O1  1  0.29635817  0.75475277  0.01991687  1
  O  O2  1  0.74778825  0.21632282  0.02851749  1
  O  O3  1  0.24676302  0.78562540  0.07162938  1
  O  O4  1  0.71596368  0.24949417  0.07863815  1
  O  O5  1  0.19767506  0.29922963  0.17552476  1
  O  O6  1  0.78350798  0.71735254  0.02421914  1
  O  O7  1  0.28038487  0.74871211  0.12230861  1
  O  O8  1  0.74637305  0.20142918  0.13036325  1
  O  O9  1  0.24764144  0.79360470  0.17105995  1
  O  O10  1  0.70462784  0.24997918  0.17967793  1
  O  O11  1  0.19844669  0.30373401  0.27467706  1
  O  O12  1  0.78708521  0.70801099  0.12639113  1
  O  O13  1  0.30230852  0.74916118  0.21978205  1
  O  O14  1  0.75057687  0.19805064  0.23016601  1
  O  O15  1  0.25043527  0.79466395  0.27036586  1
  O  O16  1  0.70784145  0.25222209  0.27895040  1
  O  O17  1  0.19854243  0.30338916  0.37470992  1
  O  O18  1  0.79323537  0.70702656  0.22496145  1
  O  O19  1  0.30216553  0.75176030  0.31947024  1
  O  O20  1  0.75054022  0.20002025  0.32980747  1
  O  O21  1  0.25116896  0.79294223  0.37053204  1
  O  O22  1  0.70925202  0.25092183  0.37883608  1
  O  O23  1  0.19708027  0.30356799  0.47491722  1
  O  O24  1  0.79282976  0.70964227  0.32460009  1
  O  O25  1  0.30175885  0.75161608  0.41962847  1
  O  O26  1  0.74922845  0.19919778  0.43000609  1
  O  O27  1  0.25071795  0.79285583  0.47070138  1
  O  O28  1  0.70778535  0.25005298  0.47906818  1
  O  O29  1  0.19679443  0.30342712  0.57496447  1
  O  O30  1  0.79243198  0.70868147  0.42476678  1
  O  O31  1  0.30053104  0.75152705  0.51982268  1
  O  O32  1  0.74852477  0.19969187  0.53005767  1
  O  O33  1  0.25039371  0.79321133  0.57072698  1
  O  O34  1  0.70743248  0.24997019  0.57914362  1
  O  O35  1  0.19646372  0.30287876  0.67510501  1
  O  O36  1  0.79217671  0.70811584  0.52488307  1
  O  O37  1  0.30109584  0.75112512  0.61982888  1
  O  O38  1  0.74850164  0.19895465  0.63019126  1
  O  O39  1  0.25008763  0.79260532  0.67086309  1
  O  O40  1  0.70722336  0.24937511  0.67928345  1
  O  O41  1  0.19655529  0.30240842  0.77516378  1
  O  O42  1  0.79204778  0.70782515  0.62498612  1
  O  O43  1  0.30097218  0.75040181  0.71996067  1
  O  O44  1  0.74839886  0.19803276  0.73031760  1
  O  O45  1  0.25042603  0.79151033  0.77097780  1
  O  O46  1  0.70773756  0.24866833  0.77929447  1
  O  O47  1  0.19557504  0.30291963  0.87517063  1
  O  O48  1  0.79187301  0.70714985  0.72513163  1
  O  O49  1  0.30042086  0.75063069  0.82002029  1
  O  O50  1  0.74799742  0.19847931  0.83031601  1
  O  O51  1  0.24961704  0.79202683  0.87098979  1
  O  O52  1  0.70630152  0.24768028  0.87940171  1
  O  O53  1  0.19821759  0.30337477  0.97538132  1
  O  O54  1  0.79147204  0.70701485  0.82520159  1
  O  O55  1  0.29910868  0.75139459  0.92007849  1
  O  O56  1  0.74779142  0.20045255  0.93007105  1
  O  O57  1  0.25035788  0.78906552  0.97126791  1
  O  O58  1  0.70595446  0.25121336  0.97903983  1
  O  O59  1  0.79178728  0.70783720  0.92515756  1
loop_
_geom_bond_atom_site_label_1
_geom_bond_atom_site_label_2
_geom_bond_distance
_geom_bond_site_symmetry_2
Na0 O9 2.502851 1_545
Na0 O12 2.549797 1_455
Na0 O4 2.597709 1_555
Na0 O5 2.761077 1_555
Na0 O8 2.761365 1_555
Na0 O7 2.766695 1_545
Na0 O7 2.766880 1_555
Na0 O8 2.783310 1_455
Na0 O0 2.828603 1_555
Na0 O12 2.981486 1_545
Na0 O3 2.987952 1_555
Na0 O10 2.988723 1_455
Na1 O10 2.491810 1_555
Na1 O18 2.524707 1_455
Na1 O15 2.531951 1_545
Na1 O5 2.733538 1_555
Na1 O14 2.771107 1_455
Na1 O13 2.771179 1_555
Na1 O13 2.776453 1_545
Na1 O11 2.784479 1_555
Na1 O14 2.784660 1_555
Na2 O16 2.513348 1_555
Na2 O24 2.533349 1_455
Na2 O21 2.548338 1_545
Na2 O11 2.761419 1_555
Na2 O19 2.772897 1_545
Na2 O19 2.774820 1_555
Na2 O20 2.776910 1_455
Na2 O20 2.777030 1_555
Na2 O17 2.790768 1_555
Na3 O27 2.532737 1_545
Na3 O30 2.533436 1_455
Na3 O22 2.539218 1_555
Na3 O26 2.769310 1_555
Na3 O25 2.772490 1_545
Na3 O25 2.777896 1_555
Na3 O23 2.778164 1_555
Na3 O17 2.781432 1_555
Na3 O26 2.781928 1_455
Na4 O33 2.529546 1_545
Na4 O28 2.531526 1_555
Na4 O36 2.532718 1_455
Na4 O32 2.767639 1_555
Na4 O31 2.770544 1_545
Na4 O29 2.776610 1_555
Na4 O23 2.777095 1_555
Na4 O31 2.778619 1_555
Na4 O32 2.783017 1_455
Na5 O34 2.526448 1_555
Na5 O42 2.531500 1_455
Na5 O39 2.537778 1_545
Na5 O37 2.770760 1_545
Na5 O38 2.771021 1_555
Na5 O29 2.772650 1_555
Na5 O37 2.778275 1_555
Na5 O38 2.781401 1_455
Na5 O35 2.784763 1_555
Na6 O40 2.525583 1_555
Na6 O48 2.530092 1_455
Na6 O45 2.540432 1_545
Na6 O35 2.770213 1_555
Na6 O43 2.770830 1_545
Na6 O44 2.772277 1_555
Na6 O43 2.778129 1_555
Na6 O44 2.780665 1_455
Na6 O41 2.783847 1_555
Na7 O46 2.512291 1_555
Na7 O54 2.529522 1_455
Na7 O51 2.555324 1_545
Na7 O41 2.751915 1_555
Na7 O49 2.767816 1_545
Na7 O50 2.774308 1_555
Na7 O49 2.777801 1_555
Na7 O50 2.781898 1_455
Na7 O47 2.799091 1_555
Na8 O59 2.532874 1_455
Na8 O52 2.534099 1_555
Na8 O57 2.540286 1_545
Na8 O56 2.763832 1_555
Na8 O55 2.769340 1_545
Na8 O55 2.780844 1_555
Na8 O56 2.783409 1_455
Na8 O47 2.785599 1_555
Na8 O53 2.786563 1_555
La0 O5 2.468802 1_655
La0 O8 2.484965 1_565
La0 O13 2.487548 1_555
La0 O12 2.698448 1_555
La0 O10 2.760343 1_555
La0 O9 2.762497 1_655
La0 O18 2.774469 1_555
La0 O9 2.779383 1_555
La0 O10 2.786373 1_565
La0 O7 2.908359 1_655
La0 O14 3.047759 1_555
La0 O5 3.062518 1_565
La1 O14 2.461742 1_565
La1 O11 2.469358 1_655
La1 O19 2.487365 1_555
La1 O18 2.749047 1_555
La1 O16 2.759986 1_555
La1 O15 2.770069 1_655
La1 O15 2.772005 1_555
La1 O24 2.777139 1_555
La1 O16 2.782843 1_565
La1 O13 3.030711 1_655
La1 O20 3.051489 1_555
La1 O11 3.061663 1_565
La2 O17 2.469151 1_655
La2 O20 2.472448 1_565
La2 O25 2.498945 1_555
La2 O24 2.760549 1_555
La2 O21 2.768236 1_655
La2 O22 2.769436 1_555
La2 O21 2.771551 1_555
La2 O22 2.773223 1_565
La2 O30 2.784117 1_555
La2 O19 3.032815 1_655
La2 O17 3.061924 1_565
La2 O26 3.063919 1_555
La3 O23 2.464682 1_655
La3 O26 2.480946 1_565
La3 O31 2.491314 1_555
La3 O28 2.768149 1_565
La3 O27 2.769055 1_655
La3 O36 2.769954 1_555
La3 O27 2.772537 1_555
La3 O28 2.773483 1_555
La3 O30 2.773599 1_555
La3 O25 3.043720 1_655
La3 O32 3.047676 1_555
La3 O23 3.066305 1_565
La4 O29 2.464630 1_655
La4 O32 2.474933 1_565
La4 O37 2.495604 1_555
La4 O36 2.762303 1_555
La4 O33 2.770093 1_655
La4 O33 2.770612 1_555
La4 O34 2.770838 1_565
La4 O34 2.772320 1_555
La4 O42 2.781806 1_555
La4 O31 3.029274 1_655
La4 O38 3.059416 1_555
La4 O29 3.066426 1_565
La5 O35 2.468870 1_655
La5 O38 2.475023 1_565
La5 O43 2.490071 1_555
La5 O42 2.764760 1_555
La5 O39 2.767391 1_555
La5 O40 2.769580 1_565
La5 O40 2.772680 1_555
La5 O39 2.773344 1_655
La5 O48 2.781239 1_555
La5 O37 3.040176 1_655
La5 O44 3.059561 1_555
La5 O35 3.062161 1_565
La6 O41 2.470381 1_655
La6 O44 2.472397 1_565
La6 O49 2.489873 1_555
La6 O48 2.760796 1_555
La6 O45 2.763379 1_555
La6 O46 2.768826 1_565
La6 O46 2.772654 1_555
La6 O45 2.776895 1_655
La6 O54 2.781950 1_555
La6 O43 3.039576 1_655
La6 O50 3.054864 1_555
La6 O41 3.060646 1_565
La7 O47 2.463117 1_655
La7 O50 2.475835 1_565
La7 O55 2.496129 1_555
La7 O52 2.755493 1_565
La7 O51 2.763696 1_655
La7 O54 2.767846 1_555
La7 O59 2.772553 1_555
La7 O51 2.777088 1_555
La7 O52 2.787391 1_555
La7 O49 3.035374 1_655
La7 O56 3.040553 1_555
La7 O47 3.067914 1_565
La8 O53 2.469318 1_655
La8 O56 2.482230 1_565
La8 O1 2.505295 1_556
La8 O6 2.735627 1_556
La8 O59 2.752009 1_555
La8 O57 2.762750 1_555
La8 O58 2.769413 1_555
La8 O58 2.772950 1_565
La8 O57 2.774725 1_655
La8 O2 2.959577 1_556
La8 O55 3.024237 1_655
La8 O53 3.062120 1_565
O0 Ti2 1.912304 1_555
O0 Ti1 1.992803 1_545
O0 Sr1 2.554537 1_455
O0 Sr0 2.706328 1_555
O0 Sr1 2.980145 1_545
O1 Ti0 1.939009 1_455
O1 Ti2 2.097747 1_555
O1 Sr0 2.763679 1_565
O1 Sr0 2.790089 1_555
O1 Sr1 3.087277 1_455
O2 Ti0 1.953344 1_545
O2 Ti2 1.999562 1_555
O2 Sr1 2.644348 1_545
O2 Sr0 2.752736 1_555
O2 Sr0 2.778140 1_655
O3 Ti2 1.935184 1_555
O3 Ti1 1.973930 1_555
O3 Sr0 2.538314 1_565
O3 Sr1 2.744415 1_455
O3 Sr1 2.802690 1_555
O4 Ti2 1.870997 1_555
O4 Ti1 2.028299 1_645
O4 Sr1 2.761697 1_555
O4 Sr1 2.767183 1_545
O4 Sr0 2.927600 1_655
O5 Ti3 1.961228 1_545
O5 Ti4 1.981055 1_555
O6 Ti0 1.938062 1_555
O6 Ti2 2.037745 1_555
O6 Sr0 2.588006 1_655
O6 Sr1 2.877440 1_555
O6 Sr0 2.945266 1_565
O7 Ti1 1.901236 1_555
O7 Ti4 1.972403 1_555
O7 Sr1 2.550655 1_555
O8 Ti4 1.959401 1_555
O8 Ti1 1.974218 1_645
O8 Sr1 2.976804 1_555
O9 Ti3 1.933808 1_555
O9 Ti4 1.977397 1_555
O10 Ti4 1.950620 1_555
O10 Ti3 1.967320 1_645
O11 Ti7 1.970292 1_555
O11 Ti5 1.980383 1_555
O12 Ti1 1.943790 1_655
O12 Ti4 1.950093 1_555
O12 Sr1 2.760321 1_555
O13 Ti5 1.970329 1_555
O13 Ti3 1.974309 1_555
O14 Ti5 1.964318 1_555
O14 Ti3 1.988996 1_645
O15 Ti7 1.947906 1_565
O15 Ti5 1.974225 1_555
O16 Ti7 1.960533 1_655
O16 Ti5 1.961089 1_555
O17 Ti6 1.971642 1_555
O17 Ti8 1.987352 1_555
O18 Ti5 1.953608 1_555
O18 Ti3 1.966236 1_655
O19 Ti8 1.978170 1_555
O19 Ti7 1.981397 1_565
O20 Ti8 1.963392 1_555
O20 Ti7 1.992453 1_655
O21 Ti6 1.949889 1_565
O21 Ti8 1.978018 1_555
O22 Ti6 1.963984 1_655
O22 Ti8 1.967073 1_555
O23 Ti10 1.967882 1_555
O23 Ti9 1.992724 1_555
O24 Ti8 1.955045 1_555
O24 Ti7 1.969237 1_665
O25 Ti9 1.975919 1_555
O25 Ti6 1.979818 1_565
O26 Ti9 1.959989 1_555
O26 Ti6 1.995110 1_655
O27 Ti10 1.944734 1_565
O27 Ti9 1.983704 1_555
O28 Ti10 1.962853 1_655
O28 Ti9 1.968690 1_555
O29 Ti13 1.970850 1_545
O29 Ti11 1.988874 1_555
O30 Ti9 1.950335 1_555
O30 Ti6 1.972235 1_665
O31 Ti11 1.977594 1_555
O31 Ti10 1.980553 1_565
O32 Ti11 1.960817 1_555
O32 Ti10 1.997362 1_655
O33 Ti13 1.947000 1_555
O33 Ti11 1.981111 1_555
O34 Ti11 1.965070 1_555
O34 Ti13 1.965246 1_645
O35 Ti12 1.968827 1_555
O35 Ti14 1.991116 1_555
O36 Ti11 1.952758 1_555
O36 Ti10 1.975070 1_665
O37 Ti14 1.973995 1_555
O37 Ti13 1.979653 1_555
O38 Ti14 1.961587 1_555
O38 Ti13 1.995713 1_645
O39 Ti12 1.947495 1_565
O39 Ti14 1.981175 1_555
O40 Ti12 1.959686 1_655
O40 Ti14 1.971617 1_555
O41 Ti15 1.968877 1_555
O41 Ti16 1.989894 1_555
O42 Ti14 1.952179 1_555
O42 Ti13 1.972133 1_655
O43 Ti16 1.971156 1_555
O43 Ti12 1.985272 1_565
O44 Ti16 1.963937 1_555
O44 Ti12 1.993882 1_655
O45 Ti15 1.950149 1_565
O45 Ti16 1.977783 1_555
O46 Ti15 1.959949 1_655
O46 Ti16 1.971614 1_555
O47 Ti17 1.961407 1_555
O47 Ti18 1.993813 1_555
O48 Ti16 1.951465 1_555
O48 Ti12 1.974064 1_665
O49 Ti18 1.974299 1_555
O49 Ti15 1.982220 1_565
O50 Ti18 1.964290 1_555
O50 Ti15 1.991697 1_655
O51 Ti17 1.946258 1_565
O51 Ti18 1.978150 1_555
O52 Ti17 1.957004 1_655
O52 Ti18 1.967418 1_555
O53 Ti19 1.988095 1_555
O53 Ti0 2.001205 1_446
O53 Sr0 2.786010 1_556
O54 Ti18 1.947804 1_555
O54 Ti15 1.974260 1_665
O55 Ti19 1.960166 1_555
O55 Ti17 1.983906 1_565
O56 Ti19 1.960277 1_555
O56 Ti17 1.989895 1_655
O57 Ti0 1.973087 1_456
O57 Ti19 1.980533 1_555
O57 Sr0 3.009798 1_556
O58 Ti19 1.967087 1_555
O58 Ti0 1.999853 1_546
O58 Sr0 2.560291 1_556
O59 Ti19 1.945242 1_555
O59 Ti17 1.975966 1_665
