# generated using pymatgen
data_LiEu(SO4)2
_symmetry_space_group_name_H-M   'P 1'
_cell_length_a   7.71938200
_cell_length_b   7.71938200
_cell_length_c   6.26878400
_cell_angle_alpha   90.00000000
_cell_angle_beta   90.00000000
_cell_angle_gamma   90.00000000
_symmetry_Int_Tables_number   1
_chemical_formula_structural   LiEu(SO4)2
_chemical_formula_sum   'Li2 Eu2 S4 O16'
_cell_volume   373.54968250
_cell_formula_units_Z   2
loop_
 _symmetry_equiv_pos_site_id
 _symmetry_equiv_pos_as_xyz
  1  'x, y, z'
loop_
 _atom_site_type_symbol
 _atom_site_label
 _atom_site_symmetry_multiplicity
 _atom_site_fract_x
 _atom_site_fract_y
 _atom_site_fract_z
 _atom_site_occupancy
  Li  Li0  1  0.50000000  0.00000000  0.75000000  1
  Li  Li1  1  0.00000000  0.50000000  0.25000000  1
  Eu  Eu0  1  0.50000000  0.00000000  0.25000000  1
  Eu  Eu1  1  0.00000000  0.50000000  0.75000000  1
  S  S0  1  0.22118200  0.27881800  0.25000000  1
  S  S1  1  0.77881800  0.72118200  0.25000000  1
  S  S2  1  0.72118200  0.22118200  0.75000000  1
  S  S3  1  0.27881800  0.77881800  0.75000000  1
  O  O0  1  0.40187400  0.29372000  0.33129000  1
  O  O1  1  0.59812600  0.70628000  0.33129000  1
  O  O2  1  0.90187400  0.20628000  0.83129000  1
  O  O3  1  0.09812600  0.79372000  0.83129000  1
  O  O4  1  0.09212900  0.31685400  0.42368200  1
  O  O5  1  0.90787100  0.68314600  0.42368200  1
  O  O6  1  0.59212900  0.18314600  0.92368200  1
  O  O7  1  0.40787100  0.81685400  0.92368200  1
  O  O8  1  0.20628000  0.09812600  0.16871000  1
  O  O9  1  0.79372000  0.90187400  0.16871000  1
  O  O10  1  0.70628000  0.40187400  0.66871000  1
  O  O11  1  0.29372000  0.59812600  0.66871000  1
  O  O12  1  0.18314600  0.40787100  0.07631800  1
  O  O13  1  0.81685400  0.59212900  0.07631800  1
  O  O14  1  0.68314600  0.09212900  0.57631800  1
  O  O15  1  0.31685400  0.90787100  0.57631800  1
loop_
_geom_bond_atom_site_label_1
_geom_bond_atom_site_label_2
_geom_bond_distance
_geom_bond_site_symmetry_2
Li0 O14 1.920928 1_555
Li0 O6 1.920928 1_555
Li0 O7 1.920928 1_545
Li0 O15 1.920928 1_545
Li1 O5 1.920928 1_455
Li1 O12 1.920928 1_555
Li1 O13 1.920928 1_455
Li1 O4 1.920928 1_555
Eu0 O8 2.444230 1_555
Eu0 O1 2.444230 1_545
Eu0 O9 2.444230 1_545
Eu0 O0 2.444230 1_555
Eu0 O14 2.586326 1_555
Eu0 O7 2.586326 1_544
Eu0 O6 2.586326 1_554
Eu0 O15 2.586326 1_545
Eu1 O11 2.444230 1_555
Eu1 O3 2.444230 1_555
Eu1 O10 2.444230 1_455
Eu1 O2 2.444230 1_455
Eu1 O5 2.586326 1_455
Eu1 O12 2.586326 1_556
Eu1 O13 2.586326 1_456
Eu1 O4 2.586326 1_555
O0 S0 1.489452 1_555
O1 S1 1.489452 1_555
O2 S2 1.489452 1_555
O3 S3 1.489452 1_555
O4 S0 1.504684 1_555
O5 S1 1.504684 1_555
O6 S2 1.504684 1_555
O7 S3 1.504684 1_555
O8 S0 1.489452 1_555
O9 S1 1.489452 1_555
O10 S2 1.489452 1_555
O11 S3 1.489452 1_555
O12 S0 1.504684 1_555
O13 S1 1.504684 1_555
O14 S2 1.504684 1_555
O15 S3 1.504684 1_555
