# generated using pymatgen
data_Sr8(TiS3)7
_symmetry_space_group_name_H-M   'P 1'
_cell_length_a   11.65987975
_cell_length_b   11.65987975
_cell_length_c   20.90191600
_cell_angle_alpha   90.00000000
_cell_angle_beta   90.00000000
_cell_angle_gamma   119.99999860
_symmetry_Int_Tables_number   1
_chemical_formula_structural   Sr8(TiS3)7
_chemical_formula_sum   'Sr24 Ti21 S63'
_cell_volume   2460.96183784
_cell_formula_units_Z   3
loop_
 _symmetry_equiv_pos_site_id
 _symmetry_equiv_pos_as_xyz
  1  'x, y, z'
loop_
 _atom_site_type_symbol
 _atom_site_label
 _atom_site_symmetry_multiplicity
 _atom_site_fract_x
 _atom_site_fract_y
 _atom_site_fract_z
 _atom_site_occupancy
  Sr  Sr0  1  0.02185600  0.68580400  0.18846600  1
  Sr  Sr1  1  0.30609900  0.96801500  0.31903600  1
  Sr  Sr2  1  0.99205500  0.35954100  0.56351000  1
  Sr  Sr3  1  0.30353200  0.97179000  0.05890900  1
  Sr  Sr4  1  0.36748600  0.00794500  0.56351000  1
  Sr  Sr5  1  0.02821000  0.33174300  0.05890900  1
  Sr  Sr6  1  0.03198500  0.33808400  0.31903600  1
  Sr  Sr7  1  0.31419600  0.33605200  0.18846600  1
  Sr  Sr8  1  0.66394800  0.97814400  0.18846600  1
  Sr  Sr9  1  0.33523000  0.30190300  0.67957100  1
  Sr  Sr10  1  0.36006600  0.36401900  0.43647000  1
  Sr  Sr11  1  0.33173300  0.30344700  0.94118000  1
  Sr  Sr12  1  0.66825700  0.69646800  0.05890900  1
  Sr  Sr13  1  0.64045900  0.63251400  0.56351000  1
  Sr  Sr14  1  0.66191600  0.69390100  0.31903600  1
  Sr  Sr15  1  0.33606000  0.02144100  0.81151200  1
  Sr  Sr16  1  0.68538100  0.66394000  0.81151200  1
  Sr  Sr17  1  0.96667300  0.66477000  0.67957100  1
  Sr  Sr18  1  0.97171300  0.66826700  0.94118000  1
  Sr  Sr19  1  0.63598100  0.99604700  0.43647000  1
  Sr  Sr20  1  0.69655300  0.02828700  0.94118000  1
  Sr  Sr21  1  0.00395300  0.63993400  0.43647000  1
  Sr  Sr22  1  0.69809700  0.03332700  0.67957100  1
  Sr  Sr23  1  0.97855900  0.31461900  0.81151200  1
  Ti  Ti0  1  0.33333300  0.66666700  0.66603600  1
  Ti  Ti1  1  0.33333300  0.66666700  0.09725000  1
  Ti  Ti2  1  0.33333300  0.66666700  0.23977300  1
  Ti  Ti3  1  0.33333300  0.66666700  0.95148400  1
  Ti  Ti4  1  0.00000000  0.00000000  0.99834700  1
  Ti  Ti5  1  0.00000000  0.00000000  0.14035300  1
  Ti  Ti6  1  0.33333300  0.66666700  0.80745800  1
  Ti  Ti7  1  0.00000000  0.00000000  0.28143700  1
  Ti  Ti8  1  0.00000000  0.00000000  0.57494100  1
  Ti  Ti9  1  0.00000000  0.00000000  0.72114700  1
  Ti  Ti10  1  0.00000000  0.00000000  0.85887600  1
  Ti  Ti11  1  0.33333300  0.66666700  0.38376200  1
  Ti  Ti12  1  0.33333300  0.66666700  0.52459400  1
  Ti  Ti13  1  0.66666700  0.33333300  0.47545100  1
  Ti  Ti14  1  0.66666700  0.33333300  0.61713800  1
  Ti  Ti15  1  0.00000000  0.00000000  0.42802900  1
  Ti  Ti16  1  0.66666700  0.33333300  0.19168300  1
  Ti  Ti17  1  0.66666700  0.33333300  0.33312600  1
  Ti  Ti18  1  0.66666700  0.33333300  0.76105000  1
  Ti  Ti19  1  0.66666700  0.33333300  0.90261300  1
  Ti  Ti20  1  0.66666700  0.33333300  0.04800600  1
  S  S0  1  0.15638000  0.98468800  0.65008900  1
  S  S1  1  0.16432600  0.99422900  0.20557700  1
  S  S2  1  0.15643600  0.97281700  0.93153000  1
  S  S3  1  0.15225000  0.64387800  0.31218200  1
  S  S4  1  0.16224700  0.65990900  0.58910900  1
  S  S5  1  0.17014700  0.67200000  0.03254800  1
  S  S6  1  0.14443000  0.56519800  0.88416300  1
  S  S7  1  0.24919600  0.77237000  0.73624900  1
  S  S8  1  0.30751700  0.82302000  0.44970400  1
  S  S9  1  0.16720900  0.49814800  0.17482600  1
  S  S10  1  0.33093900  0.83279100  0.17482600  1
  S  S11  1  0.00577100  0.17009700  0.20557700  1
  S  S12  1  0.01531200  0.17169200  0.65008900  1
  S  S13  1  0.17698000  0.48449800  0.44970400  1
  S  S14  1  0.02718300  0.18361900  0.93153000  1
  S  S15  1  0.22763000  0.47682700  0.73624900  1
  S  S16  1  0.42076800  0.85557000  0.88416300  1
  S  S17  1  0.49162700  0.84775000  0.31218200  1
  S  S18  1  0.50185400  0.82985300  0.03254800  1
  S  S19  1  0.34009100  0.50233800  0.58910900  1
  S  S20  1  0.49766200  0.83775300  0.58910900  1
  S  S21  1  0.17098800  0.16464900  0.79404900  1
  S  S22  1  0.32800000  0.49814600  0.03254800  1
  S  S23  1  0.16214000  0.16684500  0.34864300  1
  S  S24  1  0.35612200  0.50837300  0.31218200  1
  S  S25  1  0.18338900  0.15618600  0.06823700  1
  S  S26  1  0.18604400  0.09233000  0.49902700  1
  S  S27  1  0.43480200  0.57923200  0.88416300  1
  S  S28  1  0.52317300  0.75080400  0.73624900  1
  S  S29  1  0.50185200  0.66906100  0.17482600  1
  S  S30  1  0.51550200  0.69248300  0.44970400  1
  S  S31  1  0.49266300  0.32076500  0.55119300  1
  S  S32  1  0.49786800  0.33052800  0.82540000  1
  S  S33  1  0.47674900  0.24989200  0.26381200  1
  S  S34  1  0.56529500  0.42091900  0.11599600  1
  S  S35  1  0.81638100  0.84356400  0.93153000  1
  S  S36  1  0.64572400  0.49341300  0.68854000  1
  S  S37  1  0.82830800  0.84362000  0.65008900  1
  S  S38  1  0.67190300  0.50183300  0.96761300  1
  S  S39  1  0.82990300  0.83567400  0.20557700  1
  S  S40  1  0.50438500  0.16093100  0.41080800  1
  S  S41  1  0.65654700  0.49561500  0.41080800  1
  S  S42  1  0.49816700  0.17007000  0.96761300  1
  S  S43  1  0.50658700  0.15231100  0.68854000  1
  S  S44  1  0.90628600  0.81395600  0.49902700  1
  S  S45  1  0.57908100  0.14437600  0.11599600  1
  S  S46  1  0.77314300  0.52325100  0.26381200  1
  S  S47  1  0.97279700  0.81661100  0.06823700  1
  S  S48  1  0.82810100  0.50733700  0.55119300  1
  S  S49  1  0.00470500  0.83786000  0.34864300  1
  S  S50  1  0.99366100  0.82901200  0.79404900  1
  S  S51  1  0.66947200  0.16734000  0.82540000  1
  S  S52  1  0.83266000  0.50213200  0.82540000  1
  S  S53  1  0.67923500  0.17189900  0.55119300  1
  S  S54  1  0.75010800  0.22685700  0.26381200  1
  S  S55  1  0.85562400  0.43470500  0.11599600  1
  S  S56  1  0.82993000  0.32809700  0.96761300  1
  S  S57  1  0.83906900  0.34345300  0.41080800  1
  S  S58  1  0.84768900  0.35427600  0.68854000  1
  S  S59  1  0.84381400  0.02720300  0.06823700  1
  S  S60  1  0.83535100  0.00633900  0.79404900  1
  S  S61  1  0.83315500  0.99529500  0.34864300  1
  S  S62  1  0.90767000  0.09371400  0.49902700  1
loop_
_geom_bond_atom_site_label_1
_geom_bond_atom_site_label_2
_geom_bond_distance
_geom_bond_site_symmetry_2
S0 Ti9 2.426533 1_565
S0 Ti8 2.479781 1_565
S0 Sr4 2.956312 1_565
S0 Sr9 3.270424 1_565
S0 Sr17 3.306943 1_455
S1 Ti5 2.379747 1_565
S1 Ti7 2.513719 1_565
S1 Sr1 2.992547 1_555
S1 Sr0 3.137857 1_555
S1 Sr7 3.478786 1_565
S1 Sr3 3.539183 1_555
S2 Ti4 2.440523 1_565
S2 Ti10 2.512334 1_565
S2 Sr18 3.105014 1_455
S2 Sr15 3.132668 1_565
S2 Sr3 3.170338 1_556
S2 Sr11 3.346732 1_565
S3 Ti11 2.491204 1_555
S3 Ti2 2.501649 1_555
S3 Sr21 3.108269 1_555
S3 Sr6 3.114482 1_555
S3 Sr0 3.159217 1_555
S3 Sr1 3.277590 1_555
S4 Ti12 2.376307 1_555
S4 Ti0 2.532554 1_555
S4 Sr17 2.984590 1_455
S4 Sr2 3.088699 1_455
S4 Sr4 3.573471 1_565
S4 Sr21 3.634542 1_555
S5 Ti1 2.360410 1_555
S5 Ti3 2.571678 1_554
S5 Sr18 2.983568 1_454
S5 Sr3 3.082957 1_555
S5 Sr5 3.495222 1_555
S6 Ti3 2.371766 1_555
S6 Ti6 2.493140 1_555
S6 Sr23 2.988681 1_455
S6 Sr18 3.056205 1_455
S7 Ti0 2.417507 1_555
S7 Ti6 2.430202 1_555
S7 Sr15 2.998870 1_565
S7 Sr17 3.113880 1_455
S8 Ti11 2.421292 1_555
S8 Ti12 2.532432 1_555
S8 Sr4 3.047781 1_565
S8 Sr21 3.099337 1_555
S8 Sr1 3.216512 1_555
S8 Sr19 3.329842 1_555
S9 Ti2 2.376897 1_555
S9 Ti1 2.536928 1_555
S9 Sr5 3.019454 1_555
S9 Sr7 3.135276 1_555
S9 Sr0 3.383707 1_555
S9 Sr6 3.480275 1_555
S10 Ti2 2.376892 1_555
S10 Ti1 2.536924 1_555
S10 Sr3 3.019458 1_555
S10 Sr0 3.135276 1_555
S10 Sr8 3.383707 1_555
S10 Sr1 3.480275 1_555
S11 Ti5 2.379747 1_555
S11 Ti7 2.513719 1_555
S11 Sr6 2.992547 1_555
S11 Sr7 3.137857 1_555
S11 Sr8 3.478786 1_445
S11 Sr5 3.539189 1_555
S12 Ti9 2.426533 1_555
S12 Ti8 2.479781 1_555
S12 Sr2 2.956312 1_455
S12 Sr22 3.270424 1_455
S12 Sr9 3.306943 1_555
S13 Ti11 2.421292 1_555
S13 Ti12 2.532432 1_555
S13 Sr2 3.047782 1_455
S13 Sr10 3.099347 1_555
S13 Sr6 3.216516 1_555
S13 Sr21 3.329832 1_555
S14 Ti4 2.440523 1_555
S14 Ti10 2.512334 1_555
S14 Sr11 3.105013 1_555
S14 Sr23 3.132668 1_455
S14 Sr5 3.170345 1_556
S14 Sr20 3.346732 1_455
S15 Ti0 2.417507 1_555
S15 Ti6 2.430202 1_555
S15 Sr23 2.998872 1_455
S15 Sr9 3.113890 1_555
S16 Ti3 2.371765 1_555
S16 Ti6 2.493139 1_555
S16 Sr15 2.988681 1_565
S16 Sr20 3.056197 1_565
S17 Ti11 2.491204 1_555
S17 Ti2 2.501649 1_555
S17 Sr19 3.108272 1_555
S17 Sr1 3.114471 1_555
S17 Sr8 3.159222 1_555
S17 Sr14 3.277601 1_555
S18 Ti1 2.360420 1_555
S18 Ti3 2.571687 1_554
S18 Sr20 2.983559 1_564
S18 Sr12 3.082937 1_555
S18 Sr3 3.495243 1_555
S19 Ti12 2.376316 1_555
S19 Ti0 2.532563 1_555
S19 Sr9 2.984590 1_555
S19 Sr13 3.088699 1_555
S19 Sr2 3.573471 1_455
S19 Sr10 3.634542 1_555
S20 Ti12 2.376311 1_555
S20 Ti0 2.532558 1_555
S20 Sr22 2.984590 1_565
S20 Sr4 3.088699 1_565
S20 Sr13 3.573471 1_555
S20 Sr19 3.634542 1_555
S21 Ti10 2.380964 1_555
S21 Ti9 2.480904 1_555
S21 Sr9 2.981497 1_555
S21 Sr15 3.136853 1_555
S21 Sr23 3.485475 1_455
S21 Sr11 3.543491 1_555
S22 Ti1 2.360429 1_555
S22 Ti3 2.571696 1_554
S22 Sr11 2.983550 1_554
S22 Sr5 3.082956 1_555
S22 Sr12 3.495225 1_555
S23 Ti7 2.377839 1_555
S23 Ti15 2.536568 1_555
S23 Sr10 2.945461 1_555
S23 Sr6 3.114905 1_555
S23 Sr1 3.530804 1_545
S24 Ti11 2.491204 1_555
S24 Ti2 2.501649 1_555
S24 Sr10 3.108275 1_555
S24 Sr14 3.114481 1_555
S24 Sr7 3.159224 1_555
S24 Sr6 3.277591 1_555
S25 Ti4 2.475624 1_554
S25 Ti5 2.503361 1_555
S25 Sr3 3.104020 1_545
S25 Sr7 3.137056 1_555
S25 Sr11 3.165914 1_554
S25 Sr5 3.347485 1_555
S26 Ti15 2.394064 1_555
S26 Ti8 2.459079 1_555
S26 Sr4 3.056470 1_555
S26 Sr10 3.071543 1_555
S27 Ti3 2.371773 1_555
S27 Ti6 2.493147 1_555
S27 Sr16 2.988681 1_555
S27 Sr11 3.056195 1_555
S28 Ti0 2.417507 1_555
S28 Ti6 2.430202 1_555
S28 Sr16 2.998879 1_555
S28 Sr22 3.113882 1_565
S29 Ti2 2.376901 1_555
S29 Ti1 2.536933 1_555
S29 Sr12 3.019451 1_555
S29 Sr8 3.135276 1_555
S29 Sr7 3.383707 1_555
S29 Sr14 3.480275 1_555
S30 Ti11 2.421292 1_555
S30 Ti12 2.532432 1_555
S30 Sr13 3.047788 1_555
S30 Sr19 3.099336 1_555
S30 Sr14 3.216519 1_555
S30 Sr10 3.329843 1_555
S31 Ti14 2.395909 1_555
S31 Ti13 2.519292 1_555
S31 Sr10 3.028940 1_555
S31 Sr13 3.159878 1_555
S31 Sr4 3.190107 1_555
S31 Sr9 3.196031 1_555
S32 Ti18 2.370558 1_555
S32 Ti19 2.532802 1_555
S32 Sr11 3.016118 1_555
S32 Sr15 3.135699 1_555
S32 Sr16 3.387901 1_555
S32 Sr9 3.516464 1_555
S33 Ti17 2.407237 1_555
S33 Ti16 2.443101 1_555
S33 Sr7 2.997654 1_555
S33 Sr1 3.090947 1_545
S34 Ti20 2.380484 1_555
S34 Ti16 2.479890 1_555
S34 Sr7 2.991397 1_555
S34 Sr12 3.054578 1_555
S35 Ti4 2.440523 1_665
S35 Ti10 2.512334 1_665
S35 Sr20 3.105023 1_565
S35 Sr16 3.132668 1_555
S35 Sr12 3.170341 1_556
S35 Sr18 3.346722 1_555
S36 Ti14 2.495329 1_555
S36 Ti18 2.509249 1_555
S36 Sr13 3.092504 1_555
S36 Sr16 3.139196 1_555
S36 Sr9 3.169223 1_555
S36 Sr17 3.248760 1_555
S37 Ti9 2.426533 1_665
S37 Ti8 2.479781 1_665
S37 Sr13 2.956312 1_555
S37 Sr17 3.270424 1_555
S37 Sr22 3.306943 1_565
S38 Ti19 2.364243 1_555
S38 Ti20 2.562698 1_556
S38 Sr12 2.981613 1_556
S38 Sr18 3.083439 1_555
S38 Sr11 3.494717 1_555
S39 Ti5 2.379748 1_665
S39 Ti7 2.513719 1_665
S39 Sr14 2.992547 1_555
S39 Sr8 3.137857 1_555
S39 Sr0 3.478786 1_655
S39 Sr12 3.539187 1_555
S40 Ti13 2.375545 1_555
S40 Ti17 2.540470 1_555
S40 Sr1 2.980603 1_545
S40 Sr19 3.047638 1_545
S40 Sr10 3.565301 1_555
S40 Sr4 3.615230 1_555
S41 Ti13 2.375545 1_555
S41 Ti17 2.540470 1_555
S41 Sr14 2.980607 1_555
S41 Sr10 3.047649 1_555
S41 Sr21 3.565290 1_655
S41 Sr13 3.615233 1_555
S42 Ti19 2.364239 1_555
S42 Ti20 2.562694 1_556
S42 Sr3 2.981608 1_546
S42 Sr11 3.083448 1_555
S42 Sr20 3.494707 1_555
S43 Ti14 2.495323 1_555
S43 Ti18 2.509243 1_555
S43 Sr4 3.092504 1_555
S43 Sr15 3.139196 1_555
S43 Sr22 3.169223 1_555
S43 Sr9 3.248760 1_555
S44 Ti15 2.394064 1_665
S44 Ti8 2.459079 1_665
S44 Sr13 3.056470 1_555
S44 Sr21 3.071543 1_655
S45 Ti20 2.380476 1_555
S45 Ti16 2.479882 1_555
S45 Sr8 2.991397 1_545
S45 Sr3 3.054576 1_545
S46 Ti17 2.407236 1_555
S46 Ti16 2.443100 1_555
S46 Sr0 2.997654 1_655
S46 Sr14 3.090947 1_555
S47 Ti4 2.475624 1_664
S47 Ti5 2.503361 1_665
S47 Sr12 3.104030 1_555
S47 Sr0 3.137056 1_655
S47 Sr18 3.165911 1_554
S47 Sr3 3.347475 1_655
S48 Ti14 2.395901 1_555
S48 Ti13 2.519284 1_555
S48 Sr21 3.028945 1_655
S48 Sr2 3.159888 1_555
S48 Sr13 3.190097 1_555
S48 Sr17 3.196033 1_555
S49 Ti7 2.377839 1_565
S49 Ti15 2.536568 1_565
S49 Sr21 2.945461 1_555
S49 Sr1 3.114905 1_555
S49 Sr14 3.530804 1_455
S50 Ti10 2.380964 1_665
S50 Ti9 2.480904 1_665
S50 Sr17 2.981497 1_555
S50 Sr16 3.136853 1_555
S50 Sr15 3.485475 1_665
S50 Sr18 3.543489 1_555
S51 Ti18 2.370548 1_555
S51 Ti19 2.532793 1_555
S51 Sr20 3.016111 1_555
S51 Sr23 3.135699 1_555
S51 Sr15 3.387901 1_555
S51 Sr22 3.516464 1_555
S52 Ti18 2.370553 1_555
S52 Ti19 2.532798 1_555
S52 Sr18 3.016115 1_555
S52 Sr16 3.135698 1_555
S52 Sr23 3.387901 1_555
S52 Sr17 3.516464 1_555
S53 Ti14 2.395890 1_555
S53 Ti13 2.519274 1_555
S53 Sr19 3.028947 1_545
S53 Sr4 3.159879 1_555
S53 Sr2 3.190106 1_555
S53 Sr22 3.196037 1_555
S54 Ti17 2.407229 1_555
S54 Ti16 2.443093 1_555
S54 Sr8 2.997654 1_545
S54 Sr6 3.090947 1_655
S55 Ti20 2.380476 1_555
S55 Ti16 2.479882 1_555
S55 Sr0 2.991397 1_655
S55 Sr5 3.054568 1_655
S56 Ti19 2.364234 1_555
S56 Ti20 2.562689 1_556
S56 Sr5 2.981604 1_656
S56 Sr20 3.083438 1_555
S56 Sr18 3.494718 1_555
S57 Ti13 2.375545 1_555
S57 Ti17 2.540470 1_555
S57 Sr6 2.980598 1_655
S57 Sr21 3.047648 1_655
S57 Sr19 3.565291 1_545
S57 Sr2 3.615228 1_555
S58 Ti14 2.495319 1_555
S58 Ti18 2.509240 1_555
S58 Sr2 3.092504 1_555
S58 Sr23 3.139196 1_555
S58 Sr17 3.169223 1_555
S58 Sr22 3.248760 1_555
S59 Ti4 2.475624 1_654
S59 Ti5 2.503361 1_655
S59 Sr5 3.104029 1_655
S59 Sr8 3.137056 1_545
S59 Sr20 3.165918 1_554
S59 Sr12 3.347476 1_545
S60 Ti10 2.380964 1_655
S60 Ti9 2.480904 1_655
S60 Sr22 2.981497 1_555
S60 Sr23 3.136853 1_555
S60 Sr16 3.485475 1_545
S60 Sr20 3.543495 1_555
S61 Ti7 2.377839 1_665
S61 Ti15 2.536568 1_665
S61 Sr19 2.945461 1_555
S61 Sr14 3.114905 1_555
S61 Sr6 3.530804 1_665
S62 Ti15 2.394064 1_655
S62 Ti8 2.459079 1_655
S62 Sr2 3.056470 1_555
S62 Sr19 3.071543 1_545
