# generated using pymatgen
data_Cu2Bi8Pb2S15
_symmetry_space_group_name_H-M   'P 1'
_cell_length_a   4.02940500
_cell_length_b   11.69517600
_cell_length_c   55.84350100
_cell_angle_alpha   90.00000000
_cell_angle_beta   90.00000000
_cell_angle_gamma   90.00000000
_symmetry_Int_Tables_number   1
_chemical_formula_structural   Cu2Bi8Pb2S15
_chemical_formula_sum   'Cu8 Bi32 Pb8 S60'
_cell_volume   2631.60268354
_cell_formula_units_Z   4
loop_
 _symmetry_equiv_pos_site_id
 _symmetry_equiv_pos_as_xyz
  1  'x, y, z'
loop_
 _atom_site_type_symbol
 _atom_site_label
 _atom_site_symmetry_multiplicity
 _atom_site_fract_x
 _atom_site_fract_y
 _atom_site_fract_z
 _atom_site_occupancy
  Cu  Cu0  1  0.25000000  0.22055600  0.64183700  1
  Cu  Cu1  1  0.75000000  0.28043800  0.34299000  1
  Cu  Cu2  1  0.75000000  0.78043800  0.15701000  1
  Cu  Cu3  1  0.75000000  0.77944400  0.35816300  1
  Cu  Cu4  1  0.25000000  0.71956200  0.65701000  1
  Cu  Cu5  1  0.75000000  0.27944400  0.14183700  1
  Cu  Cu6  1  0.25000000  0.21956200  0.84299000  1
  Cu  Cu7  1  0.25000000  0.72055600  0.85816300  1
  Bi  Bi0  1  0.25000000  0.00584100  0.93529500  1
  Bi  Bi1  1  0.75000000  0.99262700  0.26568300  1
  Bi  Bi2  1  0.75000000  0.97638200  0.86278400  1
  Bi  Bi3  1  0.25000000  0.02728900  0.33743800  1
  Bi  Bi4  1  0.75000000  0.49415900  0.43529500  1
  Bi  Bi5  1  0.25000000  0.02058800  0.53375400  1
  Bi  Bi6  1  0.25000000  0.52058800  0.96624600  1
  Bi  Bi7  1  0.75000000  0.47941200  0.03375400  1
  Bi  Bi8  1  0.75000000  0.64541800  0.70761000  1
  Bi  Bi9  1  0.75000000  0.97941200  0.46624600  1
  Bi  Bi10  1  0.75000000  0.14541800  0.79239000  1
  Bi  Bi11  1  0.25000000  0.02361800  0.13721600  1
  Bi  Bi12  1  0.75000000  0.97271100  0.66256200  1
  Bi  Bi13  1  0.25000000  0.84302700  0.00769700  1
  Bi  Bi14  1  0.75000000  0.15697300  0.99230300  1
  Bi  Bi15  1  0.25000000  0.35222800  0.09278700  1
  Bi  Bi16  1  0.25000000  0.35458200  0.29239000  1
  Bi  Bi17  1  0.75000000  0.47271100  0.83743800  1
  Bi  Bi18  1  0.25000000  0.50737300  0.76568300  1
  Bi  Bi19  1  0.75000000  0.64777200  0.90721300  1
  Bi  Bi20  1  0.25000000  0.34302700  0.49230300  1
  Bi  Bi21  1  0.25000000  0.00737300  0.73431700  1
  Bi  Bi22  1  0.75000000  0.65697300  0.50769700  1
  Bi  Bi23  1  0.75000000  0.14777200  0.59278700  1
  Bi  Bi24  1  0.25000000  0.52361800  0.36278400  1
  Bi  Bi25  1  0.75000000  0.99415900  0.06470500  1
  Bi  Bi26  1  0.75000000  0.49262700  0.23431700  1
  Bi  Bi27  1  0.25000000  0.85222800  0.40721300  1
  Bi  Bi28  1  0.25000000  0.85458200  0.20761000  1
  Bi  Bi29  1  0.25000000  0.50584100  0.56470500  1
  Bi  Bi30  1  0.25000000  0.52728900  0.16256200  1
  Bi  Bi31  1  0.75000000  0.47638200  0.63721600  1
  Pb  Pb0  1  0.25000000  0.31672100  0.90100000  1
  Pb  Pb1  1  0.75000000  0.68478300  0.30040900  1
  Pb  Pb2  1  0.75000000  0.18327900  0.40100000  1
  Pb  Pb3  1  0.75000000  0.18478300  0.19959100  1
  Pb  Pb4  1  0.25000000  0.81521700  0.80040900  1
  Pb  Pb5  1  0.25000000  0.31521700  0.69959100  1
  Pb  Pb6  1  0.25000000  0.81672100  0.59900000  1
  Pb  Pb7  1  0.75000000  0.68327900  0.09900000  1
  S  S0  1  0.75000000  0.27389900  0.66020500  1
  S  S1  1  0.75000000  0.96006100  0.17472600  1
  S  S2  1  0.25000000  0.70436200  0.73914800  1
  S  S3  1  0.75000000  0.94436200  0.77148000  1
  S  S4  1  0.25000000  0.72778000  0.13865500  1
  S  S5  1  0.75000000  0.77222000  0.63865500  1
  S  S6  1  0.25000000  0.21191000  0.56184000  1
  S  S7  1  0.25000000  0.20674900  0.96026100  1
  S  S8  1  0.25000000  0.53993900  0.67472600  1
  S  S9  1  0.25000000  0.87282200  0.48991900  1
  S  S10  1  0.75000000  0.62717800  0.98991900  1
  S  S11  1  0.25000000  0.89074200  0.29023200  1
  S  S12  1  0.75000000  0.62833500  0.38794200  1
  S  S13  1  0.75000000  0.12833500  0.11205800  1
  S  S14  1  0.75000000  0.10669400  0.91087100  1
  S  S15  1  0.75000000  0.63287700  0.18772700  1
  S  S16  1  0.75000000  0.44887600  0.92924500  1
  S  S17  1  0.75000000  0.29325100  0.46026100  1
  S  S18  1  0.25000000  0.20436200  0.76085200  1
  S  S19  1  0.75000000  0.79325100  0.03973900  1
  S  S20  1  0.25000000  0.70674900  0.53973900  1
  S  S21  1  0.25000000  0.55563800  0.27148000  1
  S  S22  1  0.25000000  0.05112400  0.42924500  1
  S  S23  1  0.75000000  0.10925800  0.70976800  1
  S  S24  1  0.25000000  0.86712300  0.68772700  1
  S  S25  1  0.75000000  0.44436200  0.72852000  1
  S  S26  1  0.75000000  0.77389900  0.83979500  1
  S  S27  1  0.25000000  0.55112400  0.07075500  1
  S  S28  1  0.75000000  0.13287700  0.31227300  1
  S  S29  1  0.25000000  0.89330600  0.08912900  1
  S  S30  1  0.75000000  0.46006100  0.32527400  1
  S  S31  1  0.25000000  0.37282200  0.01008100  1
  S  S32  1  0.25000000  0.39074200  0.20976800  1
  S  S33  1  0.25000000  0.22610100  0.16020500  1
  S  S34  1  0.75000000  0.94887600  0.57075500  1
  S  S35  1  0.75000000  0.28809000  0.06184000  1
  S  S36  1  0.25000000  0.05563800  0.22852000  1
  S  S37  1  0.75000000  0.78809000  0.43816000  1
  S  S38  1  0.75000000  0.12717800  0.51008100  1
  S  S39  1  0.25000000  0.36712300  0.81227300  1
  S  S40  1  0.25000000  0.72610100  0.33979500  1
  S  S41  1  0.75000000  0.44828700  0.52534600  1
  S  S42  1  0.75000000  0.27222000  0.86134500  1
  S  S43  1  0.75000000  0.94828700  0.97465400  1
  S  S44  1  0.25000000  0.39330600  0.41087100  1
  S  S45  1  0.75000000  0.60925800  0.79023200  1
  S  S46  1  0.25000000  0.22778000  0.36134500  1
  S  S47  1  0.75000000  0.46181300  0.12544200  1
  S  S48  1  0.25000000  0.71191000  0.93816000  1
  S  S49  1  0.75000000  0.29563800  0.26085200  1
  S  S50  1  0.75000000  0.79563800  0.23914800  1
  S  S51  1  0.25000000  0.03993900  0.82527400  1
  S  S52  1  0.25000000  0.55171300  0.47465400  1
  S  S53  1  0.25000000  0.03818700  0.62544200  1
  S  S54  1  0.25000000  0.37166500  0.61205800  1
  S  S55  1  0.25000000  0.05171300  0.02534600  1
  S  S56  1  0.25000000  0.53818700  0.87455800  1
  S  S57  1  0.25000000  0.87166500  0.88794200  1
  S  S58  1  0.75000000  0.60669400  0.58912900  1
  S  S59  1  0.75000000  0.96181300  0.37455800  1
loop_
_geom_bond_atom_site_label_1
_geom_bond_atom_site_label_2
_geom_bond_distance
_geom_bond_site_symmetry_2
Cu0 S53 2.321042 1_555
Cu0 S0 2.345283 1_555
Cu0 S0 2.345283 1_455
Cu0 S54 2.426645 1_555
Cu0 Pb5 3.409903 1_555
Cu1 S30 2.322024 1_555
Cu1 S46 2.342847 1_555
Cu1 S46 2.342847 1_655
Cu1 S28 2.433234 1_555
Cu2 S1 2.322024 1_555
Cu2 S4 2.342847 1_555
Cu2 S4 2.342847 1_655
Cu2 S15 2.433234 1_555
Cu3 S59 2.321042 1_555
Cu3 S40 2.345283 1_555
Cu3 S40 2.345283 1_655
Cu3 S12 2.426645 1_555
Cu3 Pb1 3.409903 1_555
Cu4 S8 2.322024 1_555
Cu4 S5 2.342847 1_455
Cu4 S5 2.342847 1_555
Cu4 S24 2.433234 1_555
Cu5 S47 2.321042 1_555
Cu5 S33 2.345283 1_655
Cu5 S33 2.345283 1_555
Cu5 S13 2.426645 1_555
Cu5 Pb3 3.409903 1_555
Cu6 S51 2.322024 1_555
Cu6 S42 2.342847 1_455
Cu6 S42 2.342847 1_555
Cu6 S39 2.433234 1_555
Cu7 S56 2.321042 1_555
Cu7 S26 2.345283 1_555
Cu7 S26 2.345283 1_455
Cu7 S57 2.426645 1_555
Cu7 Pb4 3.409903 1_555
Bi0 S14 2.703796 1_555
Bi0 S14 2.703796 1_455
Bi0 S7 2.732149 1_555
Bi0 S43 3.056641 1_545
Bi0 S43 3.056641 1_445
Bi0 S57 3.074907 1_545
Bi1 S11 2.712604 1_655
Bi1 S11 2.712604 1_555
Bi1 S50 2.739223 1_555
Bi1 S36 2.984796 1_565
Bi1 S36 2.984796 1_665
Bi1 S28 3.075632 1_565
Bi2 S26 2.693675 1_555
Bi2 S57 2.744568 1_555
Bi2 S57 2.744568 1_655
Bi2 S51 2.999877 1_565
Bi2 S51 2.999877 1_665
Bi2 S14 3.087674 1_565
Bi3 S46 2.698211 1_555
Bi3 S28 2.749328 1_455
Bi3 S28 2.749328 1_555
Bi3 S59 2.990378 1_445
Bi3 S59 2.990378 1_545
Bi3 S11 3.082126 1_545
Bi4 S44 2.703796 1_655
Bi4 S44 2.703796 1_555
Bi4 S17 2.732149 1_555
Bi4 S52 3.056641 1_655
Bi4 S52 3.056641 1_555
Bi4 S12 3.074907 1_555
Bi5 S38 2.713052 1_555
Bi5 S38 2.713052 1_455
Bi5 S6 2.732499 1_555
Bi5 S9 2.996450 1_545
Bi5 S34 3.005307 1_445
Bi5 S34 3.005307 1_545
Bi6 S10 2.713052 1_455
Bi6 S10 2.713052 1_555
Bi6 S48 2.732499 1_555
Bi6 S31 2.996450 1_556
Bi6 S16 3.005307 1_455
Bi6 S16 3.005307 1_555
Bi7 S31 2.713052 1_655
Bi7 S31 2.713052 1_555
Bi7 S35 2.732499 1_555
Bi7 S10 2.996450 1_554
Bi7 S27 3.005307 1_555
Bi7 S27 3.005307 1_655
Bi8 S25 2.625358 1_555
Bi8 S2 2.763339 1_655
Bi8 S2 2.763339 1_555
Bi8 S8 2.992155 1_555
Bi8 S8 2.992155 1_655
Bi9 S9 2.713052 1_655
Bi9 S9 2.713052 1_555
Bi9 S37 2.732499 1_555
Bi9 S38 2.996450 1_565
Bi9 S22 3.005307 1_665
Bi9 S22 3.005307 1_565
Bi10 S3 2.625358 1_545
Bi10 S18 2.763339 1_655
Bi10 S18 2.763339 1_555
Bi10 S51 2.992155 1_555
Bi10 S51 2.992155 1_655
Bi11 S33 2.693675 1_555
Bi11 S13 2.744568 1_455
Bi11 S13 2.744568 1_555
Bi11 S1 2.999877 1_445
Bi11 S1 2.999877 1_545
Bi11 S29 3.087674 1_545
Bi12 S5 2.698211 1_555
Bi12 S24 2.749328 1_655
Bi12 S24 2.749328 1_555
Bi12 S53 2.990378 1_665
Bi12 S53 2.990378 1_565
Bi12 S23 3.082126 1_565
Bi13 S55 2.632109 1_565
Bi13 S19 2.756745 1_555
Bi13 S19 2.756745 1_455
Bi13 S43 2.996560 1_454
Bi13 S43 2.996560 1_554
Bi14 S43 2.632109 1_545
Bi14 S7 2.756745 1_555
Bi14 S7 2.756745 1_655
Bi14 S55 2.996560 1_656
Bi14 S55 2.996560 1_556
Bi15 S27 2.631463 1_555
Bi15 S35 2.758318 1_455
Bi15 S35 2.758318 1_555
Bi15 S47 3.004492 1_455
Bi15 S47 3.004492 1_555
Bi16 S21 2.625358 1_555
Bi16 S49 2.763339 1_455
Bi16 S49 2.763339 1_555
Bi16 S30 2.992155 1_455
Bi16 S30 2.992155 1_555
Bi17 S42 2.698211 1_555
Bi17 S39 2.749328 1_655
Bi17 S39 2.749328 1_555
Bi17 S56 2.990378 1_655
Bi17 S56 2.990378 1_555
Bi17 S45 3.082126 1_555
Bi18 S45 2.712604 1_455
Bi18 S45 2.712604 1_555
Bi18 S2 2.739223 1_555
Bi18 S25 2.984796 1_455
Bi18 S25 2.984796 1_555
Bi18 S39 3.075632 1_555
Bi19 S16 2.631463 1_555
Bi19 S48 2.758318 1_655
Bi19 S48 2.758318 1_555
Bi19 S56 3.004492 1_555
Bi19 S56 3.004492 1_655
Bi20 S52 2.632109 1_555
Bi20 S17 2.756745 1_555
Bi20 S17 2.756745 1_455
Bi20 S41 2.996560 1_555
Bi20 S41 2.996560 1_455
Bi21 S23 2.712604 1_455
Bi21 S23 2.712604 1_555
Bi21 S18 2.739223 1_555
Bi21 S3 2.984796 1_445
Bi21 S3 2.984796 1_545
Bi21 S24 3.075632 1_545
Bi22 S41 2.632109 1_555
Bi22 S20 2.756745 1_555
Bi22 S20 2.756745 1_655
Bi22 S52 2.996560 1_655
Bi22 S52 2.996560 1_555
Bi23 S34 2.631463 1_545
Bi23 S6 2.758318 1_555
Bi23 S6 2.758318 1_655
Bi23 S53 3.004492 1_555
Bi23 S53 3.004492 1_655
Bi24 S40 2.693675 1_555
Bi24 S12 2.744568 1_455
Bi24 S12 2.744568 1_555
Bi24 S30 2.999877 1_455
Bi24 S30 2.999877 1_555
Bi24 S44 3.087674 1_555
Bi25 S29 2.703796 1_655
Bi25 S29 2.703796 1_555
Bi25 S19 2.732149 1_555
Bi25 S55 3.056641 1_565
Bi25 S55 3.056641 1_665
Bi25 S13 3.074907 1_565
Bi26 S32 2.712604 1_555
Bi26 S32 2.712604 1_655
Bi26 S49 2.739223 1_555
Bi26 S21 2.984796 1_555
Bi26 S21 2.984796 1_655
Bi26 S15 3.075632 1_555
Bi27 S22 2.631463 1_565
Bi27 S37 2.758318 1_555
Bi27 S37 2.758318 1_455
Bi27 S59 3.004492 1_555
Bi27 S59 3.004492 1_455
Bi28 S36 2.625358 1_565
Bi28 S50 2.763339 1_555
Bi28 S50 2.763339 1_455
Bi28 S1 2.992155 1_555
Bi28 S1 2.992155 1_455
Bi29 S58 2.703796 1_455
Bi29 S58 2.703796 1_555
Bi29 S20 2.732149 1_555
Bi29 S41 3.056641 1_555
Bi29 S41 3.056641 1_455
Bi29 S54 3.074907 1_555
Bi30 S4 2.698211 1_555
Bi30 S15 2.749328 1_555
Bi30 S15 2.749328 1_455
Bi30 S47 2.990378 1_455
Bi30 S47 2.990378 1_555
Bi30 S32 3.082126 1_555
Bi31 S0 2.693675 1_555
Bi31 S54 2.744568 1_555
Bi31 S54 2.744568 1_655
Bi31 S8 2.999877 1_555
Bi31 S8 2.999877 1_655
Bi31 S58 3.087674 1_555
Pb0 S56 2.981430 1_555
Pb0 S16 2.989265 1_455
Pb0 S16 2.989265 1_555
Pb0 S42 3.038715 1_455
Pb0 S42 3.038715 1_555
Pb1 S30 2.972425 1_555
Pb1 S21 2.991669 1_655
Pb1 S21 2.991669 1_555
Pb1 S40 3.021609 1_555
Pb1 S40 3.021609 1_655
Pb1 S11 3.191234 1_555
Pb1 S11 3.191234 1_655
Pb2 S59 2.981430 1_545
Pb2 S22 2.989265 1_655
Pb2 S22 2.989265 1_555
Pb2 S46 3.038715 1_555
Pb2 S46 3.038715 1_655
Pb3 S1 2.972425 1_545
Pb3 S36 2.991669 1_555
Pb3 S36 2.991669 1_655
Pb3 S33 3.021609 1_655
Pb3 S33 3.021609 1_555
Pb3 S32 3.191234 1_555
Pb3 S32 3.191234 1_655
Pb4 S51 2.972425 1_565
Pb4 S3 2.991669 1_555
Pb4 S3 2.991669 1_455
Pb4 S26 3.021609 1_455
Pb4 S26 3.021609 1_555
Pb4 S45 3.191234 1_455
Pb4 S45 3.191234 1_555
Pb5 S8 2.972425 1_555
Pb5 S25 2.991669 1_455
Pb5 S25 2.991669 1_555
Pb5 S0 3.021609 1_455
Pb5 S0 3.021609 1_555
Pb5 S23 3.191234 1_455
Pb5 S23 3.191234 1_555
Pb6 S53 2.981430 1_565
Pb6 S34 2.989265 1_455
Pb6 S34 2.989265 1_555
Pb6 S5 3.038715 1_455
Pb6 S5 3.038715 1_555
Pb7 S47 2.981430 1_555
Pb7 S27 2.989265 1_655
Pb7 S27 2.989265 1_555
Pb7 S4 3.038715 1_555
Pb7 S4 3.038715 1_655
