# generated using pymatgen
data_BaHfMo
_symmetry_space_group_name_H-M   'P 1'
_cell_length_a   4.87792522
_cell_length_b   4.87792522
_cell_length_c   4.87792522
_cell_angle_alpha   60.00000000
_cell_angle_beta   60.00000000
_cell_angle_gamma   60.00000000
_symmetry_Int_Tables_number   1
_chemical_formula_structural   BaHfMo
_chemical_formula_sum   'Ba1 Hf1 Mo1'
_cell_volume   82.07113060
_cell_formula_units_Z   1
loop_
 _symmetry_equiv_pos_site_id
 _symmetry_equiv_pos_as_xyz
  1  'x, y, z'
loop_
 _atom_site_type_symbol
 _atom_site_label
 _atom_site_symmetry_multiplicity
 _atom_site_fract_x
 _atom_site_fract_y
 _atom_site_fract_z
 _atom_site_occupancy
  Ba  Ba0  1  0.75000000  0.75000000  0.75000000  1
  Hf  Hf0  1  0.25000000  0.25000000  0.25000000  1
  Mo  Mo0  1  0.50000000  0.50000000  0.50000000  1
loop_
_geom_bond_atom_site_label_1
_geom_bond_atom_site_label_2
_geom_bond_distance
_geom_bond_site_symmetry_2
Ba0 Mo0 2.987107 1_565
Ba0 Mo0 2.987107 1_555
Ba0 Mo0 2.987107 1_556
Ba0 Mo0 2.987107 1_655
Ba0 Hf0 3.449214 1_556
Ba0 Hf0 3.449214 1_655
Ba0 Hf0 3.449214 1_656
Ba0 Hf0 3.449214 1_565
Ba0 Hf0 3.449214 1_566
Ba0 Hf0 3.449214 1_665
Hf0 Mo0 2.987107 1_545
Hf0 Mo0 2.987107 1_555
Hf0 Mo0 2.987107 1_554
Hf0 Mo0 2.987107 1_455
