# generated using pymatgen
data_LiEu4C3(IN2)3
_symmetry_space_group_name_H-M   'P 1'
_cell_length_a   10.73859915
_cell_length_b   10.73859915
_cell_length_c   6.80136400
_cell_angle_alpha   90.00000000
_cell_angle_beta   90.00000000
_cell_angle_gamma   120.00000710
_symmetry_Int_Tables_number   1
_chemical_formula_structural   LiEu4C3(IN2)3
_chemical_formula_sum   'Li2 Eu8 C6 I6 N12'
_cell_volume   679.23785507
_cell_formula_units_Z   2
loop_
 _symmetry_equiv_pos_site_id
 _symmetry_equiv_pos_as_xyz
  1  'x, y, z'
loop_
 _atom_site_type_symbol
 _atom_site_label
 _atom_site_symmetry_multiplicity
 _atom_site_fract_x
 _atom_site_fract_y
 _atom_site_fract_z
 _atom_site_occupancy
  Li  Li0  1  0.00000000  0.00000000  0.00000000  1
  Li  Li1  1  0.00000000  0.00000000  0.50000000  1
  Eu  Eu0  1  0.21237800  0.78762200  0.75000000  1
  Eu  Eu1  1  0.21237800  0.42475600  0.75000000  1
  Eu  Eu2  1  0.42475600  0.21237800  0.25000000  1
  Eu  Eu3  1  0.57524400  0.78762200  0.75000000  1
  Eu  Eu4  1  0.78762200  0.57524400  0.25000000  1
  Eu  Eu5  1  0.78762200  0.21237800  0.25000000  1
  Eu  Eu6  1  0.33333300  0.66666700  0.25000000  1
  Eu  Eu7  1  0.66666700  0.33333300  0.75000000  1
  C  C0  1  0.50000000  0.00000000  0.50000000  1
  C  C1  1  0.50000000  0.50000000  0.00000000  1
  C  C2  1  0.50000000  0.50000000  0.50000000  1
  C  C3  1  0.00000000  0.50000000  0.50000000  1
  C  C4  1  0.50000000  0.00000000  0.00000000  1
  C  C5  1  0.00000000  0.50000000  0.00000000  1
  I  I0  1  0.73702300  0.86851100  0.25000000  1
  I  I1  1  0.26297700  0.13148900  0.75000000  1
  I  I2  1  0.13148900  0.86851100  0.25000000  1
  I  I3  1  0.86851100  0.73702300  0.75000000  1
  I  I4  1  0.13148900  0.26297700  0.25000000  1
  I  I5  1  0.86851100  0.13148900  0.75000000  1
  N  N0  1  0.86783800  0.43391900  0.47452700  1
  N  N1  1  0.43391900  0.56608100  0.97452700  1
  N  N2  1  0.43391900  0.86783800  0.52547300  1
  N  N3  1  0.13216200  0.56608100  0.52547300  1
  N  N4  1  0.13216200  0.56608100  0.97452700  1
  N  N5  1  0.56608100  0.43391900  0.47452700  1
  N  N6  1  0.56608100  0.13216200  0.02547300  1
  N  N7  1  0.56608100  0.43391900  0.02547300  1
  N  N8  1  0.43391900  0.86783800  0.97452700  1
  N  N9  1  0.56608100  0.13216200  0.47452700  1
  N  N10  1  0.86783800  0.43391900  0.02547300  1
  N  N11  1  0.43391900  0.56608100  0.52547300  1
loop_
_geom_bond_atom_site_label_1
_geom_bond_atom_site_label_2
_geom_bond_distance
_geom_bond_site_symmetry_2
Eu0 N4 2.585447 1_555
Eu0 N3 2.585447 1_555
Eu0 N8 2.585447 1_555
Eu0 N2 2.585447 1_555
Eu0 I3 3.453181 1_455
Eu0 I1 3.453181 1_565
Eu0 I2 3.718631 1_555
Eu0 I2 3.718631 1_556
Eu1 N1 2.585447 1_555
Eu1 N11 2.585447 1_555
Eu1 N4 2.585447 1_555
Eu1 N3 2.585447 1_555
Eu1 I1 3.453170 1_555
Eu1 I5 3.453177 1_455
Eu1 I4 3.718635 1_556
Eu1 I4 3.718635 1_555
Eu2 N7 2.585447 1_555
Eu2 N5 2.585447 1_555
Eu2 N9 2.585447 1_555
Eu2 N6 2.585447 1_555
Eu2 I4 3.453170 1_555
Eu2 I2 3.453177 1_545
Eu2 I1 3.718635 1_555
Eu2 I1 3.718635 1_554
Eu3 N1 2.585447 1_555
Eu3 N11 2.585447 1_555
Eu3 N8 2.585447 1_555
Eu3 N2 2.585447 1_555
Eu3 I3 3.453170 1_555
Eu3 I5 3.453177 1_565
Eu3 I0 3.718635 1_556
Eu3 I0 3.718635 1_555
Eu4 N7 2.585447 1_555
Eu4 N5 2.585447 1_555
Eu4 N0 2.585447 1_555
Eu4 N10 2.585447 1_555
Eu4 I0 3.453170 1_555
Eu4 I2 3.453177 1_655
Eu4 I3 3.718635 1_555
Eu4 I3 3.718635 1_554
Eu5 N9 2.585447 1_555
Eu5 N6 2.585447 1_555
Eu5 N10 2.585447 1_555
Eu5 N0 2.585447 1_555
Eu5 I0 3.453181 1_545
Eu5 I4 3.453181 1_655
Eu5 I5 3.718631 1_555
Eu5 I5 3.718631 1_554
Eu6 N3 2.647735 1_555
Eu6 N2 2.647735 1_555
Eu6 N8 2.647735 1_554
Eu6 N4 2.647735 1_554
Eu6 N11 2.647742 1_555
Eu6 N1 2.647742 1_554
Eu6 I2 3.754258 1_555
Eu6 I0 3.754276 1_555
Eu6 I4 3.754276 1_555
Eu7 N6 2.647735 1_556
Eu7 N10 2.647735 1_556
Eu7 N0 2.647735 1_555
Eu7 N9 2.647735 1_555
Eu7 N5 2.647742 1_555
Eu7 N7 2.647742 1_556
Eu7 I5 3.754258 1_555
Eu7 I3 3.754276 1_555
Eu7 I1 3.754276 1_555
C0 N2 1.241244 1_545
C0 N9 1.241244 1_555
C1 N7 1.241244 1_555
C1 N1 1.241244 1_554
C2 N11 1.241244 1_555
C2 N5 1.241244 1_555
C3 N3 1.241244 1_555
C3 N0 1.241244 1_455
C4 N6 1.241244 1_555
C4 N8 1.241244 1_544
C5 N10 1.241244 1_455
C5 N4 1.241244 1_554
I0 Li0 2.978659 1_665
I0 Li1 2.978659 1_665
I1 Li0 2.978659 1_556
I1 Li1 2.978659 1_555
I2 Li0 2.978667 1_565
I2 Li1 2.978667 1_565
I3 Li0 2.978659 1_666
I3 Li1 2.978659 1_665
I4 Li0 2.978659 1_555
I4 Li1 2.978659 1_555
I5 Li0 2.978667 1_656
I5 Li1 2.978667 1_655
