# generated using pymatgen
data_Al(HO)3
_symmetry_space_group_name_H-M   'P 1'
_cell_length_a   5.17021500
_cell_length_b   8.88914300
_cell_length_c   9.87627833
_cell_angle_alpha   84.69458523
_cell_angle_beta   90.00000000
_cell_angle_gamma   90.00000000
_symmetry_Int_Tables_number   1
_chemical_formula_structural   Al(HO)3
_chemical_formula_sum   'Al8 H24 O24'
_cell_volume   451.95717652
_cell_formula_units_Z   8
loop_
 _symmetry_equiv_pos_site_id
 _symmetry_equiv_pos_as_xyz
  1  'x, y, z'
loop_
 _atom_site_type_symbol
 _atom_site_label
 _atom_site_symmetry_multiplicity
 _atom_site_fract_x
 _atom_site_fract_y
 _atom_site_fract_z
 _atom_site_occupancy
  Al  Al0  1  0.98514600  0.91276100  0.24984200  1
  Al  Al1  1  0.51364500  0.42504900  0.75517700  1
  Al  Al2  1  0.01364500  0.57495100  0.24482300  1
  Al  Al3  1  0.48514600  0.08723900  0.75015800  1
  Al  Al4  1  0.49297800  0.07768400  0.24550700  1
  Al  Al5  1  0.00431400  0.58750100  0.75226600  1
  Al  Al6  1  0.50431400  0.41249900  0.24773400  1
  Al  Al7  1  0.99297800  0.92231600  0.75449300  1
  H  H0  1  0.38011800  0.82258500  0.36907500  1
  H  H1  1  0.13089300  0.33276700  0.87237700  1
  H  H2  1  0.63089300  0.66723300  0.12762300  1
  H  H3  1  0.88011800  0.17741500  0.63092500  1
  H  H4  1  0.89955900  0.31977900  0.35945200  1
  H  H5  1  0.58220400  0.83098500  0.85941700  1
  H  H6  1  0.08220400  0.16901500  0.14058300  1
  H  H7  1  0.39955900  0.68022100  0.64054800  1
  H  H8  1  0.27380100  0.20185400  0.42811800  1
  H  H9  1  0.10150300  0.73440600  0.95181700  1
  H  H10  1  0.60150300  0.26559400  0.04818300  1
  H  H11  1  0.77380100  0.79814600  0.57188200  1
  H  H12  1  0.78919000  0.69672700  0.42834200  1
  H  H13  1  0.80943300  0.21023000  0.87102100  1
  H  H14  1  0.30943300  0.78977000  0.12897900  1
  H  H15  1  0.28919000  0.30327300  0.57165800  1
  H  H16  1  0.79763600  0.04231100  0.45311700  1
  H  H17  1  0.70559700  0.54257300  0.95842600  1
  H  H18  1  0.20559700  0.45742700  0.04157400  1
  H  H19  1  0.29763600  0.95768900  0.54688300  1
  H  H20  1  0.31820100  0.54800500  0.45119100  1
  H  H21  1  0.18246800  0.04712200  0.95701700  1
  H  H22  1  0.68246800  0.95287800  0.04298300  1
  H  H23  1  0.81820100  0.45199500  0.54880900  1
  O  O0  1  0.30015900  0.92220400  0.35550200  1
  O  O1  1  0.20561100  0.43377800  0.86226200  1
  O  O2  1  0.70561100  0.56622200  0.13773800  1
  O  O3  1  0.80015900  0.07779600  0.64449800  1
  O  O4  1  0.81623100  0.41873100  0.35520300  1
  O  O5  1  0.67338500  0.92763800  0.85708900  1
  O  O6  1  0.17338500  0.07236200  0.14291100  1
  O  O7  1  0.31623100  0.58126900  0.64479700  1
  O  O8  1  0.37137400  0.23186800  0.34772100  1
  O  O9  1  0.12628700  0.74530400  0.85254600  1
  O  O10  1  0.62628700  0.25469600  0.14745400  1
  O  O11  1  0.87137400  0.76813200  0.65227900  1
  O  O12  1  0.87476900  0.72694900  0.34355100  1
  O  O13  1  0.62628300  0.23573100  0.85923400  1
  O  O14  1  0.12628300  0.76426900  0.14076600  1
  O  O15  1  0.37476900  0.27305100  0.65644900  1
  O  O16  1  0.79602500  0.03935800  0.35403000  1
  O  O17  1  0.70435200  0.54883400  0.85832400  1
  O  O18  1  0.20435200  0.45116600  0.14167600  1
  O  O19  1  0.29602500  0.96064200  0.64597000  1
  O  O20  1  0.31849800  0.54650400  0.35200000  1
  O  O21  1  0.17209800  0.06239500  0.85677000  1
  O  O22  1  0.67209800  0.93760500  0.14323000  1
  O  O23  1  0.81849800  0.45349600  0.64800000  1
loop_
_geom_bond_atom_site_label_1
_geom_bond_atom_site_label_2
_geom_bond_distance
_geom_bond_site_symmetry_2
Al0 O16 1.869608 1_565
Al0 O12 1.904642 1_555
Al0 O14 1.923083 1_655
Al0 O22 1.932370 1_555
Al0 O0 1.940312 1_655
Al0 O6 1.948890 1_665
Al1 O17 1.851486 1_555
Al1 O15 1.880291 1_555
Al1 O23 1.902407 1_555
Al1 O1 1.917315 1_555
Al1 O7 1.969420 1_555
Al1 O13 1.976750 1_555
Al2 O18 1.851486 1_555
Al2 O12 1.880291 1_455
Al2 O20 1.902407 1_555
Al2 O2 1.917315 1_455
Al2 O4 1.969420 1_455
Al2 O14 1.976750 1_555
Al3 O19 1.869608 1_545
Al3 O15 1.904642 1_555
Al3 O13 1.923083 1_555
Al3 O21 1.932370 1_555
Al3 O3 1.940312 1_555
Al3 O5 1.948890 1_545
Al4 O8 1.883792 1_555
Al4 O10 1.899187 1_555
Al4 O16 1.911079 1_555
Al4 O22 1.913388 1_545
Al4 O6 1.941165 1_555
Al4 O0 1.951020 1_545
Al5 O17 1.885185 1_455
Al5 O9 1.898195 1_555
Al5 O23 1.905031 1_455
Al5 O11 1.931963 1_455
Al5 O7 1.934226 1_555
Al5 O1 1.963676 1_555
Al6 O18 1.885185 1_555
Al6 O10 1.898195 1_555
Al6 O20 1.905031 1_555
Al6 O8 1.931963 1_555
Al6 O4 1.934226 1_555
Al6 O2 1.963676 1_555
Al7 O11 1.883792 1_555
Al7 O9 1.899187 1_655
Al7 O19 1.911079 1_655
Al7 O21 1.913388 1_665
Al7 O5 1.941165 1_555
Al7 O3 1.951020 1_565
H0 O0 0.975233 1_555
H1 O1 0.974091 1_555
H2 O2 0.974091 1_555
H3 O3 0.975233 1_555
H4 O4 0.976851 1_555
H5 O5 0.978406 1_555
H6 O6 0.978406 1_555
H7 O7 0.976851 1_555
H8 O8 0.957586 1_555
H9 O9 0.984621 1_555
H10 O10 0.984621 1_555
H11 O11 0.957586 1_555
H12 O12 0.963126 1_555
H13 O13 0.978122 1_555
H14 O14 0.978122 1_555
H15 O15 0.963126 1_555
H16 O16 0.981421 1_555
H17 O17 0.985070 1_555
H18 O18 0.985070 1_555
H19 O19 0.981421 1_555
H20 O20 0.980963 1_555
H21 O21 0.988272 1_555
H22 O22 0.988272 1_555
H23 O23 0.980963 1_555
