# generated using pymatgen
data_Li2TiFe(PO4)3
_symmetry_space_group_name_H-M   'P 1'
_cell_length_a   8.79580500
_cell_length_b   8.64975300
_cell_length_c   14.75829285
_cell_angle_alpha   54.45098316
_cell_angle_beta   90.00000000
_cell_angle_gamma   90.00000000
_symmetry_Int_Tables_number   1
_chemical_formula_structural   Li2TiFe(PO4)3
_chemical_formula_sum   'Li8 Ti4 Fe4 P12 O48'
_cell_volume   913.55815349
_cell_formula_units_Z   4
loop_
 _symmetry_equiv_pos_site_id
 _symmetry_equiv_pos_as_xyz
  1  'x, y, z'
loop_
 _atom_site_type_symbol
 _atom_site_label
 _atom_site_symmetry_multiplicity
 _atom_site_fract_x
 _atom_site_fract_y
 _atom_site_fract_z
 _atom_site_occupancy
  Li  Li0  1  0.77801900  0.95584000  0.82885800  1
  Li  Li1  1  0.72680400  0.59870000  0.17914500  1
  Li  Li2  1  0.27801900  0.04416000  0.67114200  1
  Li  Li3  1  0.22680400  0.40130000  0.32085500  1
  Li  Li4  1  0.72198100  0.95584000  0.32885800  1
  Li  Li5  1  0.77319600  0.59870000  0.67914500  1
  Li  Li6  1  0.22198100  0.04416000  0.17114200  1
  Li  Li7  1  0.27319600  0.40130000  0.82085500  1
  Ti  Ti0  1  0.95394100  0.13870100  0.61506200  1
  Ti  Ti1  1  0.45394100  0.86129900  0.88493800  1
  Ti  Ti2  1  0.54605900  0.13870100  0.11506200  1
  Ti  Ti3  1  0.04605900  0.86129900  0.38493800  1
  Fe  Fe0  1  0.54378500  0.36586100  0.38433600  1
  Fe  Fe1  1  0.04378500  0.63413900  0.11566400  1
  Fe  Fe2  1  0.95621500  0.36586100  0.88433600  1
  Fe  Fe3  1  0.45621500  0.63413900  0.61566400  1
  P  P0  1  0.25067300  0.45855300  0.50267100  1
  P  P1  1  0.39361000  0.75074700  0.14611000  1
  P  P2  1  0.10875200  0.04377900  0.85334500  1
  P  P3  1  0.60875200  0.95622100  0.64665500  1
  P  P4  1  0.89361000  0.24925300  0.35389000  1
  P  P5  1  0.75067300  0.54144700  0.99732900  1
  P  P6  1  0.24932700  0.45855300  0.00267100  1
  P  P7  1  0.10639000  0.75074700  0.64611000  1
  P  P8  1  0.39124800  0.04377900  0.35334500  1
  P  P9  1  0.60639000  0.24925300  0.85389000  1
  P  P10  1  0.89124800  0.95622100  0.14665500  1
  P  P11  1  0.74932700  0.54144700  0.49732900  1
  O  O0  1  0.65414700  0.52604400  0.41673500  1
  O  O1  1  0.85055200  0.36320700  0.57324000  1
  O  O2  1  0.59685800  0.07725600  0.84678000  1
  O  O3  1  0.89246700  0.76737200  0.15886800  1
  O  O4  1  0.14737800  0.27858900  0.57430900  1
  O  O5  1  0.34372200  0.42854800  0.42595300  1
  O  O6  1  0.07550800  0.87387500  0.97226700  1
  O  O7  1  0.41873000  0.82282400  0.02263700  1
  O  O8  1  0.26863700  0.01933400  0.81583400  1
  O  O9  1  0.23291500  0.66372700  0.18424200  1
  O  O10  1  0.51768700  0.60374500  0.21749800  1
  O  O11  1  0.98594100  0.04885000  0.77499500  1
  O  O12  1  0.01768700  0.39625500  0.28250200  1
  O  O13  1  0.48594100  0.95115000  0.72500500  1
  O  O14  1  0.76863700  0.98066600  0.68416600  1
  O  O15  1  0.73291500  0.33627300  0.31575800  1
  O  O16  1  0.57550800  0.12612500  0.52773300  1
  O  O17  1  0.91873000  0.17717600  0.47736300  1
  O  O18  1  0.64737800  0.72141100  0.92569100  1
  O  O19  1  0.84372200  0.57145200  0.07404700  1
  O  O20  1  0.09685800  0.92274400  0.65322000  1
  O  O21  1  0.39246700  0.23262800  0.34113200  1
  O  O22  1  0.35055200  0.63679300  0.92676000  1
  O  O23  1  0.15414700  0.47395600  0.08326500  1
  O  O24  1  0.64944800  0.36320700  0.07324000  1
  O  O25  1  0.84585300  0.52604400  0.91673500  1
  O  O26  1  0.60753300  0.76737200  0.65886800  1
  O  O27  1  0.90314200  0.07725600  0.34678000  1
  O  O28  1  0.15627800  0.42854800  0.92595300  1
  O  O29  1  0.35262200  0.27858900  0.07430900  1
  O  O30  1  0.08127000  0.82282400  0.52263700  1
  O  O31  1  0.42449200  0.87387500  0.47226700  1
  O  O32  1  0.23136300  0.01933400  0.31583400  1
  O  O33  1  0.26708500  0.66372700  0.68424200  1
  O  O34  1  0.51405900  0.04885000  0.27499500  1
  O  O35  1  0.98231300  0.60374500  0.71749800  1
  O  O36  1  0.01405900  0.95115000  0.22500500  1
  O  O37  1  0.48231300  0.39625500  0.78250200  1
  O  O38  1  0.73136300  0.98066600  0.18416600  1
  O  O39  1  0.76708500  0.33627300  0.81575800  1
  O  O40  1  0.58127000  0.17717600  0.97736300  1
  O  O41  1  0.92449200  0.12612500  0.02773300  1
  O  O42  1  0.65627800  0.57145200  0.57404700  1
  O  O43  1  0.85262200  0.72141100  0.42569100  1
  O  O44  1  0.10753300  0.23262800  0.84113200  1
  O  O45  1  0.40314200  0.92274400  0.15322000  1
  O  O46  1  0.14944800  0.63679300  0.42676000  1
  O  O47  1  0.34585300  0.47395600  0.58326500  1
loop_
_geom_bond_atom_site_label_1
_geom_bond_atom_site_label_2
_geom_bond_distance
_geom_bond_site_symmetry_2
Li0 O11 1.969814 1_565
Li0 O2 2.008737 1_565
Li0 O14 2.019821 1_555
Li0 O18 2.026053 1_555
Li1 O10 1.932415 1_555
Li1 O3 1.957990 1_555
Li1 O15 1.974536 1_555
Li1 O19 1.985956 1_555
Li2 O13 1.969814 1_545
Li2 O20 2.008737 1_545
Li2 O8 2.019821 1_555
Li2 O4 2.026053 1_555
Li3 O12 1.932415 1_555
Li3 O21 1.957990 1_555
Li3 O9 1.974536 1_555
Li3 O5 1.985956 1_555
Li4 O34 1.969814 1_565
Li4 O27 2.008737 1_565
Li4 O38 2.019821 1_555
Li4 O43 2.026053 1_555
Li5 O35 1.932415 1_555
Li5 O26 1.957990 1_555
Li5 O39 1.974536 1_555
Li5 O42 1.985956 1_555
Li6 O36 1.969814 1_545
Li6 O45 2.008737 1_545
Li6 O32 2.019821 1_555
Li6 O29 2.026053 1_555
Li7 O37 1.932415 1_555
Li7 O44 1.957990 1_555
Li7 O33 1.974536 1_555
Li7 O28 1.985956 1_555
Fe0 O16 1.937449 1_555
Fe0 O0 1.964948 1_555
Fe0 O5 2.038405 1_555
Fe0 O15 2.039222 1_555
Fe0 O21 2.088195 1_555
Fe0 O10 2.111399 1_555
Fe1 O6 1.937449 1_554
Fe1 O23 1.964948 1_555
Fe1 O19 2.038405 1_455
Fe1 O9 2.039222 1_555
Fe1 O3 2.088195 1_455
Fe1 O12 2.111399 1_555
Fe2 O41 1.937449 1_556
Fe2 O25 1.964948 1_555
Fe2 O28 2.038405 1_655
Fe2 O39 2.039222 1_555
Fe2 O44 2.088195 1_655
Fe2 O35 2.111399 1_555
Fe3 O31 1.937449 1_555
Fe3 O47 1.964948 1_555
Fe3 O42 2.038405 1_555
Fe3 O33 2.039222 1_555
Fe3 O26 2.088195 1_555
Fe3 O37 2.111399 1_555
O0 P11 1.522380 1_555
O1 P11 1.554465 1_555
O1 Ti0 1.893485 1_555
O2 P9 1.553354 1_555
O2 Ti1 2.040463 1_545
O3 P10 1.535759 1_555
O4 P0 1.566115 1_555
O4 Ti0 1.968371 1_455
O5 P0 1.536501 1_555
O6 P2 1.525255 1_565
O7 P1 1.561113 1_555
O7 Ti1 1.884172 1_554
O8 P2 1.570038 1_555
O8 Ti1 1.986001 1_545
O9 P1 1.545486 1_555
O10 P1 1.536268 1_555
O11 P2 1.564252 1_655
O11 Ti0 2.030116 1_555
O12 P4 1.536268 1_455
O13 P3 1.564252 1_555
O13 Ti1 2.030116 1_555
O14 P3 1.570038 1_555
O14 Ti0 1.986001 1_565
O15 P4 1.545486 1_555
O16 P3 1.525255 1_545
O17 P4 1.561113 1_555
O17 Ti0 1.884172 1_555
O18 P5 1.566115 1_555
O18 Ti1 1.968371 1_555
O19 P5 1.536501 1_554
O20 P7 1.553354 1_555
O20 Ti0 2.040463 1_465
O21 P8 1.535759 1_555
O22 P6 1.554465 1_556
O22 Ti1 1.893485 1_555
O23 P6 1.522380 1_555
O24 P5 1.554465 1_554
O24 Ti2 1.893485 1_555
O25 P5 1.522380 1_555
O26 P3 1.535759 1_555
O27 P4 1.553354 1_555
O27 Ti3 2.040463 1_645
O28 P6 1.536501 1_556
O29 P6 1.566115 1_555
O29 Ti2 1.968371 1_555
O30 P7 1.561113 1_555
O30 Ti3 1.884172 1_555
O31 P8 1.525255 1_565
O32 P8 1.570038 1_555
O32 Ti3 1.986001 1_545
O33 P7 1.545486 1_555
O34 P8 1.564252 1_555
O34 Ti2 2.030116 1_555
O35 P7 1.536268 1_655
O36 P10 1.564252 1_455
O36 Ti3 2.030116 1_555
O37 P9 1.536268 1_555
O38 P10 1.570038 1_555
O38 Ti2 1.986001 1_565
O39 P9 1.545486 1_555
O40 P9 1.561113 1_555
O40 Ti2 1.884172 1_556
O41 P10 1.525255 1_545
O42 P11 1.536501 1_555
O43 P11 1.566115 1_555
O43 Ti3 1.968371 1_655
O44 P2 1.535759 1_555
O45 P1 1.553354 1_555
O45 Ti2 2.040463 1_565
O46 P0 1.554465 1_555
O46 Ti3 1.893485 1_555
O47 P0 1.522380 1_555
