# generated using pymatgen
data_HoMn4(CuO4)3
_symmetry_space_group_name_H-M   'P 1'
_cell_length_a   6.42870403
_cell_length_b   6.42870403
_cell_length_c   6.42870403
_cell_angle_alpha   109.47122063
_cell_angle_beta   109.47122063
_cell_angle_gamma   109.47122063
_symmetry_Int_Tables_number   1
_chemical_formula_structural   HoMn4(CuO4)3
_chemical_formula_sum   'Ho1 Mn4 Cu3 O12'
_cell_volume   204.52594308
_cell_formula_units_Z   1
loop_
 _symmetry_equiv_pos_site_id
 _symmetry_equiv_pos_as_xyz
  1  'x, y, z'
loop_
 _atom_site_type_symbol
 _atom_site_label
 _atom_site_symmetry_multiplicity
 _atom_site_fract_x
 _atom_site_fract_y
 _atom_site_fract_z
 _atom_site_occupancy
  Ho  Ho0  1  0.00000000  0.00000000  0.00000000  1
  Mn  Mn0  1  0.00000000  0.50000000  0.00000000  1
  Mn  Mn1  1  0.00000000  0.00000000  0.50000000  1
  Mn  Mn2  1  0.50000000  0.50000000  0.50000000  1
  Mn  Mn3  1  0.50000000  0.00000000  0.00000000  1
  Cu  Cu0  1  0.00000000  0.50000000  0.50000000  1
  Cu  Cu1  1  0.50000000  0.00000000  0.50000000  1
  Cu  Cu2  1  0.50000000  0.50000000  0.00000000  1
  O  O0  1  0.30133100  0.47047500  0.16914400  1
  O  O1  1  0.69866900  0.86781400  0.16914400  1
  O  O2  1  0.47047500  0.16914400  0.30133100  1
  O  O3  1  0.69866900  0.52952500  0.83085600  1
  O  O4  1  0.52952500  0.83085600  0.69866900  1
  O  O5  1  0.16914400  0.69866900  0.86781400  1
  O  O6  1  0.30133100  0.13218600  0.83085600  1
  O  O7  1  0.16914400  0.30133100  0.47047500  1
  O  O8  1  0.83085600  0.69866900  0.52952500  1
  O  O9  1  0.83085600  0.30133100  0.13218600  1
  O  O10  1  0.13218600  0.83085600  0.30133100  1
  O  O11  1  0.86781400  0.16914400  0.69866900  1
loop_
_geom_bond_atom_site_label_1
_geom_bond_atom_site_label_2
_geom_bond_distance
_geom_bond_site_symmetry_2
Ho0 O9 2.565152 1_455
Ho0 O11 2.565152 1_454
Ho0 O10 2.565152 1_545
Ho0 O5 2.565152 1_544
Ho0 O6 2.565152 1_554
Ho0 O1 2.565152 1_445
Ho0 O7 2.565153 1_555
Ho0 O2 2.565153 1_555
Ho0 O3 2.565153 1_444
Ho0 O0 2.565153 1_555
Ho0 O4 2.565153 1_444
Ho0 O8 2.565153 1_444
Mn0 O9 1.987321 1_455
Mn0 O5 1.987321 1_554
Mn0 O3 1.987327 1_454
Mn0 O0 1.987327 1_555
Mn0 O11 1.987328 1_454
Mn0 O10 1.987328 1_555
Mn1 O11 1.987321 1_455
Mn1 O10 1.987321 1_545
Mn1 O8 1.987327 1_445
Mn1 O7 1.987327 1_555
Mn1 O1 1.987328 1_445
Mn1 O6 1.987328 1_555
Mn2 O0 1.987327 1_555
Mn2 O3 1.987327 1_555
Mn2 O4 1.987327 1_555
Mn2 O2 1.987327 1_555
Mn2 O8 1.987327 1_555
Mn2 O7 1.987327 1_555
Mn3 O1 1.987321 1_545
Mn3 O6 1.987321 1_554
Mn3 O4 1.987327 1_544
Mn3 O2 1.987327 1_555
Mn3 O5 1.987328 1_544
Mn3 O9 1.987328 1_555
Cu0 O8 1.936866 1_455
Cu0 O7 1.936866 1_555
Cu0 O9 1.936871 1_455
Cu0 O5 1.936871 1_555
Cu1 O4 1.936866 1_545
Cu1 O2 1.936866 1_555
Cu1 O11 1.936871 1_555
Cu1 O10 1.936871 1_545
Cu2 O0 1.936866 1_555
Cu2 O3 1.936866 1_554
Cu2 O6 1.936871 1_554
Cu2 O1 1.936871 1_555
