# generated using pymatgen
data_Si2HgTe
_symmetry_space_group_name_H-M   'P 1'
_cell_length_a   4.98195335
_cell_length_b   4.98195335
_cell_length_c   4.98195335
_cell_angle_alpha   60.00000000
_cell_angle_beta   60.00000000
_cell_angle_gamma   60.00000000
_symmetry_Int_Tables_number   1
_chemical_formula_structural   Si2HgTe
_chemical_formula_sum   'Si2 Hg1 Te1'
_cell_volume   87.43472992
_cell_formula_units_Z   1
loop_
 _symmetry_equiv_pos_site_id
 _symmetry_equiv_pos_as_xyz
  1  'x, y, z'
loop_
 _atom_site_type_symbol
 _atom_site_label
 _atom_site_symmetry_multiplicity
 _atom_site_fract_x
 _atom_site_fract_y
 _atom_site_fract_z
 _atom_site_occupancy
  Si  Si0  1  0.75000000  0.75000000  0.75000000  1
  Si  Si1  1  0.25000000  0.25000000  0.25000000  1
  Hg  Hg0  1  0.00000000  0.00000000  0.00000000  1
  Te  Te0  1  0.50000000  0.50000000  0.50000000  1
loop_
_geom_bond_atom_site_label_1
_geom_bond_atom_site_label_2
_geom_bond_distance
_geom_bond_site_symmetry_2
Si0 Te0 3.050811 1_655
Si0 Te0 3.050811 1_565
Si0 Te0 3.050811 1_556
Si0 Te0 3.050811 1_555
Si1 Te0 3.050811 1_554
Si1 Te0 3.050811 1_455
Si1 Te0 3.050811 1_545
Si1 Te0 3.050811 1_555
Hg0 Si0 3.050811 1_445
Hg0 Si1 3.050811 1_545
Hg0 Si1 3.050811 1_555
Hg0 Si0 3.050811 1_544
Hg0 Si0 3.050811 1_444
Hg0 Si1 3.050811 1_554
Hg0 Si0 3.050811 1_454
Hg0 Si1 3.050811 1_455
