# generated using pymatgen
data_H5ClO6
_symmetry_space_group_name_H-M   'P 1'
_cell_length_a   6.05347200
_cell_length_b   7.46962198
_cell_length_c   11.41885933
_cell_angle_alpha   89.87502798
_cell_angle_beta   89.94784158
_cell_angle_gamma   88.53039238
_symmetry_Int_Tables_number   1
_chemical_formula_structural   H5ClO6
_chemical_formula_sum   'H20 Cl4 O24'
_cell_volume   516.15699483
_cell_formula_units_Z   4
loop_
 _symmetry_equiv_pos_site_id
 _symmetry_equiv_pos_as_xyz
  1  'x, y, z'
loop_
 _atom_site_type_symbol
 _atom_site_label
 _atom_site_symmetry_multiplicity
 _atom_site_fract_x
 _atom_site_fract_y
 _atom_site_fract_z
 _atom_site_occupancy
  H  H0  1  0.99586600  0.70984600  0.24901400  1
  H  H1  1  0.18650200  0.70655600  0.74985200  1
  H  H2  1  0.49869400  0.25046400  0.05321600  1
  H  H3  1  0.01056300  0.23769000  0.46165000  1
  H  H4  1  0.53622400  0.78291300  0.96005300  1
  H  H5  1  0.50620000  0.26265700  0.44275000  1
  H  H6  1  0.01068300  0.23657800  0.03825400  1
  H  H7  1  0.51982500  0.80031000  0.09669100  1
  H  H8  1  0.98913700  0.74413100  0.52084300  1
  H  H9  1  0.97600700  0.54066300  0.48810400  1
  H  H10  1  0.46163900  0.21387300  0.57660300  1
  H  H11  1  0.50614600  0.02319600  0.48339700  1
  H  H12  1  0.99392500  0.27842200  0.90627300  1
  H  H13  1  0.50265900  0.00673300  0.01161900  1
  H  H14  1  0.46333800  0.20639100  0.91877900  1
  H  H15  1  0.99262300  0.27809400  0.59373600  1
  H  H16  1  0.51690300  0.80951400  0.39656000  1
  H  H17  1  0.52464900  0.79226100  0.53306400  1
  H  H18  1  0.97590100  0.53966400  0.01198000  1
  H  H19  1  0.99004400  0.74324500  0.97874500  1
  Cl  Cl0  1  0.58289500  0.49063900  0.24963400  1
  Cl  Cl1  1  0.06305900  0.99224400  0.24941000  1
  Cl  Cl2  1  0.43175100  0.49199700  0.74921700  1
  Cl  Cl3  1  0.91842500  0.99739700  0.75029100  1
  O  O0  1  0.60599300  0.68808700  0.24709000  1
  O  O1  1  0.13349500  0.78056600  0.24902600  1
  O  O2  1  0.39212700  0.30358100  0.74845600  1
  O  O3  1  0.89742600  0.19386200  0.74960300  1
  O  O4  1  0.79897600  0.40291100  0.25159700  1
  O  O5  1  0.27458900  0.07213600  0.24848900  1
  O  O6  1  0.17728900  0.57366100  0.75342000  1
  O  O7  1  0.69980400  0.92048600  0.75000000  1
  O  O8  1  0.45895100  0.43928400  0.14585100  1
  O  O9  1  0.93853300  0.02517000  0.35449300  1
  O  O10  1  0.52900100  0.55468700  0.64336000  1
  O  O11  1  0.04288700  0.93984000  0.85455200  1
  O  O12  1  0.53805200  0.54898000  0.85424900  1
  O  O13  1  0.04441100  0.93838700  0.64698200  1
  O  O14  1  0.45670400  0.44574900  0.35552300  1
  O  O15  1  0.93610700  0.02510300  0.14485200  1
  O  O16  1  0.46198700  0.85256800  0.02246200  1
  O  O17  1  0.90570200  0.66022900  0.47426700  1
  O  O18  1  0.54543600  0.17511200  0.50653800  1
  O  O19  1  0.06901100  0.31515600  0.97788700  1
  O  O20  1  0.54329100  0.16584700  0.98911800  1
  O  O21  1  0.06869200  0.31537600  0.52219800  1
  O  O22  1  0.45857200  0.86468800  0.46937500  1
  O  O23  1  0.90657600  0.65942700  0.02594900  1
loop_
_geom_bond_atom_site_label_1
_geom_bond_atom_site_label_2
_geom_bond_distance
_geom_bond_site_symmetry_2
H0 O1 0.997866 1_655
H1 O6 0.996411 1_555
H2 O20 1.000500 1_554
H3 O21 0.975314 1_555
H4 O16 0.984661 1_556
H5 O18 1.002423 1_555
H5 O14 1.710510 1_555
H6 O19 0.976097 1_554
H7 O16 0.992716 1_555
H8 O17 0.974119 1_555
H9 O17 0.991843 1_555
H10 O18 0.986905 1_555
H11 O18 1.195545 1_555
H11 O22 1.236454 1_545
H12 O19 0.979110 1_655
H13 O16 1.189912 1_545
H13 O20 1.246052 1_554
H14 O20 0.981433 1_555
H15 O21 0.980710 1_655
H16 O22 0.989627 1_555
H17 O22 0.984527 1_555
H18 O23 0.991504 1_555
H19 O23 0.975747 1_556
Cl0 O4 1.448070 1_555
Cl0 O8 1.460437 1_555
Cl0 O14 1.472296 1_555
Cl0 O0 1.485259 1_555
Cl1 O5 1.426547 1_565
Cl1 O9 1.434811 1_465
Cl1 O15 1.437717 1_465
Cl1 O1 1.627058 1_555
Cl2 O10 1.427353 1_555
Cl2 O12 1.432257 1_555
Cl2 O2 1.433788 1_555
Cl2 O6 1.642853 1_555
Cl3 O7 1.456194 1_555
Cl3 O13 1.466608 1_655
Cl3 O11 1.467197 1_655
Cl3 O3 1.469767 1_565
