# generated using pymatgen
data_Pr2PbS4
_symmetry_space_group_name_H-M   'P 1'
_cell_length_a   7.57115249
_cell_length_b   7.57115249
_cell_length_c   7.57115249
_cell_angle_alpha   109.41294749
_cell_angle_beta   109.41294749
_cell_angle_gamma   109.58782989
_symmetry_Int_Tables_number   1
_chemical_formula_structural   Pr2PbS4
_chemical_formula_sum   'Pr4 Pb2 S8'
_cell_volume   334.08943371
_cell_formula_units_Z   2
loop_
 _symmetry_equiv_pos_site_id
 _symmetry_equiv_pos_as_xyz
  1  'x, y, z'
loop_
 _atom_site_type_symbol
 _atom_site_label
 _atom_site_symmetry_multiplicity
 _atom_site_fract_x
 _atom_site_fract_y
 _atom_site_fract_z
 _atom_site_occupancy
  Pr  Pr0  1  0.62500000  0.00747600  0.88247600  1
  Pr  Pr1  1  0.99252400  0.87500000  0.61752400  1
  Pr  Pr2  1  0.12500000  0.74252400  0.11752400  1
  Pr  Pr3  1  0.25747600  0.37500000  0.38247600  1
  Pb  Pb0  1  0.50000000  0.50000000  0.00000000  1
  Pb  Pb1  1  0.75000000  0.25000000  0.50000000  1
  S  S0  1  0.36391800  0.11597100  0.09685800  1
  S  S1  1  0.36597100  0.11391800  0.59685800  1
  S  S2  1  0.73294000  0.63608200  0.75205300  1
  S  S3  1  0.88402900  0.98088700  0.24794700  1
  S  S4  1  0.51706000  0.76911300  0.40314200  1
  S  S5  1  0.88608200  0.48294000  0.25205300  1
  S  S6  1  0.23088700  0.63402900  0.74794700  1
  S  S7  1  0.01911300  0.26706000  0.90314200  1
loop_
_geom_bond_atom_site_label_1
_geom_bond_atom_site_label_2
_geom_bond_distance
_geom_bond_site_symmetry_2
Pr0 S6 2.888567 1_545
Pr0 S7 2.888567 1_655
Pr0 S3 2.927595 1_546
Pr0 S1 2.927595 1_555
Pr0 S5 3.090594 1_556
Pr0 S0 3.090594 1_556
Pr0 S2 3.127472 1_545
Pr0 S4 3.127472 1_545
Pr1 S2 2.888567 1_555
Pr1 S1 2.888567 1_665
Pr1 S5 2.927595 1_555
Pr1 S7 2.927595 1_665
Pr1 S3 3.090594 1_555
Pr1 S4 3.090594 1_555
Pr1 S6 3.127472 1_655
Pr1 S0 3.127472 1_666
Pr2 S5 2.888567 1_455
Pr2 S0 2.888567 1_565
Pr2 S4 2.927595 1_555
Pr2 S2 2.927595 1_454
Pr2 S7 3.090594 1_554
Pr2 S6 3.090594 1_554
Pr2 S1 3.127472 1_565
Pr2 S3 3.127472 1_455
Pr3 S4 2.888567 1_555
Pr3 S3 2.888567 1_445
Pr3 S0 2.927595 1_555
Pr3 S6 2.927595 1_555
Pr3 S1 3.090594 1_555
Pr3 S2 3.090594 1_555
Pr3 S5 3.127472 1_455
Pr3 S7 3.127472 1_554
Pb0 S6 2.985253 1_554
Pb0 S1 2.985253 1_554
Pb0 S4 2.985253 1_555
Pb0 S5 2.985253 1_555
Pb0 S3 3.156598 1_555
Pb0 S0 3.156598 1_555
Pb0 S7 3.156598 1_554
Pb0 S2 3.156598 1_554
Pb1 S0 2.985253 1_555
Pb1 S3 2.985253 1_545
Pb1 S7 2.985253 1_655
Pb1 S2 2.985253 1_555
Pb1 S6 3.156598 1_655
Pb1 S5 3.156598 1_555
Pb1 S4 3.156598 1_545
Pb1 S1 3.156598 1_555
