# generated using pymatgen
data_TlAs3PbS6
_symmetry_space_group_name_H-M   'P 1'
_cell_length_a   25.41976467
_cell_length_b   24.36509814
_cell_length_c   8.40439989
_cell_angle_alpha   87.46313239
_cell_angle_beta   73.24984683
_cell_angle_gamma   19.28702078
_symmetry_Int_Tables_number   1
_chemical_formula_structural   TlAs3PbS6
_chemical_formula_sum   'Tl4 As12 Pb4 S24'
_cell_volume   1142.34308138
_cell_formula_units_Z   4
loop_
 _symmetry_equiv_pos_site_id
 _symmetry_equiv_pos_as_xyz
  1  'x, y, z'
loop_
 _atom_site_type_symbol
 _atom_site_label
 _atom_site_symmetry_multiplicity
 _atom_site_fract_x
 _atom_site_fract_y
 _atom_site_fract_z
 _atom_site_occupancy
  Tl  Tl0  1  0.54380600  0.01797300  0.36440300  1
  Tl  Tl1  1  0.07381700  0.36440300  0.01797300  1
  Tl  Tl2  1  0.23202700  0.70619400  0.17618300  1
  Tl  Tl3  1  0.88559700  0.17618300  0.70619400  1
  As  As0  1  0.58528300  0.34692300  0.39184500  1
  As  As1  1  0.01735100  0.64868000  0.87670700  1
  As  As2  1  0.47093600  0.87671600  0.22331400  1
  As  As3  1  0.90307700  0.66471700  0.57405200  1
  As  As4  1  0.60132000  0.23264900  0.79273800  1
  As  As5  1  0.85815500  0.57405200  0.66471700  1
  As  As6  1  0.42903400  0.22331400  0.87671600  1
  As  As7  1  0.45726200  0.87670700  0.64868000  1
  As  As8  1  0.67594800  0.39184500  0.34692300  1
  As  As9  1  0.02668600  0.82096600  0.77906400  1
  As  As10  1  0.37329300  0.79273800  0.23264900  1
  As  As11  1  0.37328400  0.77906400  0.82096600  1
  Pb  Pb0  1  0.09216800  0.65237800  0.35921200  1
  Pb  Pb1  1  0.89078800  0.35375900  0.15783200  1
  Pb  Pb2  1  0.59762200  0.15783200  0.35375900  1
  Pb  Pb3  1  0.89624100  0.35921200  0.65237800  1
  S  S0  1  0.48850900  0.91689100  0.42493500  1
  S  S1  1  0.24266300  0.42093600  0.48763700  1
  S  S2  1  0.33152000  0.50669800  0.38582800  1
  S  S3  1  0.33310900  0.76149100  0.08033500  1
  S  S4  1  0.76236300  0.40123500  0.00733700  1
  S  S5  1  0.77702400  0.71418400  0.51199200  1
  S  S6  1  0.16966500  0.42493500  0.91689100  1
  S  S7  1  0.84876500  0.48763700  0.42093600  1
  S  S8  1  0.55048700  0.03062700  0.95339600  1
  S  S9  1  0.39177800  0.85004000  0.04948300  1
  S  S10  1  0.46549000  0.95339600  0.03062700  1
  S  S11  1  0.20051700  0.54130100  0.85822200  1
  S  S12  1  0.21937300  0.69951300  0.78451000  1
  S  S13  1  0.53581600  0.47297600  0.25320000  1
  S  S14  1  0.29660400  0.78451000  0.69951300  1
  S  S15  1  0.70869900  0.04948300  0.85004000  1
  S  S16  1  0.99680000  0.51199200  0.71418400  1
  S  S17  1  0.82506500  0.08033500  0.76149100  1
  S  S18  1  0.39996000  0.85822200  0.54130100  1
  S  S19  1  0.86417200  0.47404700  0.91848000  1
  S  S20  1  0.73800800  0.25320000  0.47297600  1
  S  S21  1  0.82906400  0.00733700  0.40123500  1
  S  S22  1  0.77595300  0.38582800  0.50669800  1
  S  S23  1  0.74330200  0.91848000  0.47404700  1
loop_
_geom_bond_atom_site_label_1
_geom_bond_atom_site_label_2
_geom_bond_distance
_geom_bond_site_symmetry_2
As0 S12 2.276367 1_555
As0 S20 2.324594 1_555
As0 S13 2.368344 1_555
As1 S1 2.258973 1_555
As1 S11 2.274000 1_555
As1 S6 2.360029 1_555
As2 S19 2.251697 1_554
As2 S0 2.331875 1_555
As2 S10 2.346362 1_555
As3 S8 2.276364 1_565
As3 S16 2.324588 1_555
As3 S5 2.368349 1_555
As4 S21 2.258980 1_555
As4 S15 2.274000 1_555
As4 S17 2.360029 1_555
As5 S10 2.276368 1_556
As5 S5 2.324579 1_555
As5 S16 2.368326 1_555
As6 S23 2.251697 1_545
As6 S6 2.331875 1_555
As6 S8 2.346362 1_555
As7 S7 2.258978 1_555
As7 S18 2.274000 1_555
As7 S0 2.360029 1_555
As8 S14 2.276370 1_555
As8 S13 2.324573 1_555
As8 S20 2.368330 1_555
As9 S2 2.251703 1_555
As9 S17 2.331875 1_465
As9 S12 2.346362 1_555
As10 S4 2.258976 1_555
As10 S9 2.274000 1_555
As10 S3 2.360029 1_555
As11 S22 2.251698 1_555
As11 S3 2.331875 1_556
As11 S14 2.346362 1_555
Pb0 S15 2.822135 1_465
Pb0 S23 2.948203 1_455
Pb0 S1 2.952394 1_555
Pb0 S21 3.061074 1_465
Pb0 S2 3.100547 1_555
Pb1 S18 2.822129 1_555
Pb1 S22 2.948233 1_555
Pb1 S4 2.952427 1_555
Pb1 S7 3.061074 1_555
Pb1 S19 3.100547 1_554
Pb2 S11 2.822130 1_555
Pb2 S2 2.948210 1_555
Pb2 S21 2.952383 1_555
Pb2 S1 3.061074 1_555
Pb2 S23 3.100547 1_545
Pb3 S9 2.822130 1_556
Pb3 S19 2.948245 1_555
Pb3 S7 2.952415 1_555
Pb3 S4 3.061074 1_556
Pb3 S22 3.100547 1_555
