# generated using pymatgen
data_Cr21(MoC3)2
_symmetry_space_group_name_H-M   'P 1'
_cell_length_a   7.47795509
_cell_length_b   7.47795772
_cell_length_c   7.47795873
_cell_angle_alpha   59.99923468
_cell_angle_beta   59.99923527
_cell_angle_gamma   59.99921772
_symmetry_Int_Tables_number   1
_chemical_formula_structural   Cr21(MoC3)2
_chemical_formula_sum   'Cr21 Mo2 C6'
_cell_volume   295.68298552
_cell_formula_units_Z   1
loop_
 _symmetry_equiv_pos_site_id
 _symmetry_equiv_pos_as_xyz
  1  'x, y, z'
loop_
 _atom_site_type_symbol
 _atom_site_label
 _atom_site_symmetry_multiplicity
 _atom_site_fract_x
 _atom_site_fract_y
 _atom_site_fract_z
 _atom_site_occupancy
  Cr  Cr0  1  0.99999410  0.99999681  1.00000418  1
  Cr  Cr1  1  0.61613807  0.61613438  0.15159027  1
  Cr  Cr2  1  0.61614021  0.15158857  0.61613114  1
  Cr  Cr3  1  0.15158814  0.61613871  0.61613257  1
  Cr  Cr4  1  0.61614120  0.61613755  0.61613135  1
  Cr  Cr5  1  0.38386430  0.38386391  0.84841345  1
  Cr  Cr6  1  0.38386620  0.84841258  0.38386243  1
  Cr  Cr7  1  0.84841141  0.38386638  0.38386293  1
  Cr  Cr8  1  0.38386439  0.38386417  0.38386100  1
  Cr  Cr9  1  -0.00000002  0.00000181  0.33871716  1
  Cr  Cr10  1  0.66128265  0.99999953  0.33871663  1
  Cr  Cr11  1  0.99999885  0.66128254  0.33871653  1
  Cr  Cr12  1  0.66128236  0.33871692  1.00000220  1
  Cr  Cr13  1  -0.00000199  0.33871697  0.00000374  1
  Cr  Cr14  1  -0.00000054  0.33871760  0.66128191  1
  Cr  Cr15  1  0.33871702  0.66128218  1.00000234  1
  Cr  Cr16  1  0.33871744  1.00000013  0.66128214  1
  Cr  Cr17  1  0.33871657  -0.00000131  1.00000278  1
  Cr  Cr18  1  0.99999751  0.99999992  0.66128460  1
  Cr  Cr19  1  0.99999463  0.66128265  1.00000279  1
  Cr  Cr20  1  0.66128217  0.99999569  1.00000122  1
  Mo  Mo0  1  0.74999924  0.74999805  0.74999783  1
  Mo  Mo1  1  0.24999932  0.25000228  0.25000518  1
  C  C0  1  0.72423665  0.72423747  0.27576173  1
  C  C1  1  0.27576583  0.72423520  0.27576582  1
  C  C2  1  0.72423677  0.27576403  0.27576462  1
  C  C3  1  0.27576924  0.27576910  0.72423203  1
  C  C4  1  0.72423284  0.27576464  0.72423546  1
  C  C5  1  0.27576642  0.72423155  0.72423396  1
loop_
_geom_bond_atom_site_label_1
_geom_bond_atom_site_label_2
_geom_bond_distance
_geom_bond_site_symmetry_2
Cr0 Cr10 2.532844 1_556
Cr0 Cr11 2.532855 1_556
Cr0 Cr12 2.532873 1_565
Cr0 Cr20 2.532888 1_555
Cr0 Cr19 2.532893 1_555
Cr0 Cr15 2.532894 1_655
Cr0 Cr18 2.532907 1_555
Cr0 Cr14 2.532916 1_665
Cr0 Cr9 2.532922 1_666
Cr0 Cr16 2.532924 1_655
Cr0 Cr13 2.532948 1_666
Cr0 Cr17 2.532953 1_665
Cr1 Mo0 2.451991 1_554
Cr2 Mo0 2.451978 1_545
Cr3 Mo0 2.451967 1_455
Cr4 Mo0 2.451983 1_555
Cr5 Mo1 2.451986 1_556
Cr6 Mo1 2.451973 1_565
Cr7 Mo1 2.451961 1_655
Cr8 Mo1 2.451969 1_555
C0 Cr4 2.079344 1_555
C0 Cr6 2.079346 1_555
C0 Cr7 2.079351 1_555
C0 Cr1 2.079395 1_555
C0 Cr19 2.115143 1_554
C0 Cr20 2.115150 1_554
C0 Cr11 2.115191 1_555
C0 Cr10 2.115193 1_555
C1 Cr3 2.079326 1_555
C1 Cr8 2.079352 1_555
C1 Cr1 2.079357 1_555
C1 Cr6 2.079404 1_555
C1 Cr17 2.115171 1_564
C1 Cr9 2.115193 1_565
C1 Cr15 2.115204 1_554
C1 Cr11 2.115228 1_455
C2 Cr2 2.079324 1_555
C2 Cr1 2.079346 1_555
C2 Cr8 2.079359 1_555
C2 Cr7 2.079409 1_555
C2 Cr13 2.115158 1_655
C2 Cr9 2.115170 1_655
C2 Cr12 2.115197 1_554
C2 Cr10 2.115213 1_545
C3 Cr3 2.079343 1_555
C3 Cr2 2.079351 1_555
C3 Cr8 2.079354 1_555
C3 Cr5 2.079386 1_555
C3 Cr17 2.115219 1_555
C3 Cr13 2.115226 1_556
C3 Cr16 2.115238 1_545
C3 Cr14 2.115243 1_555
C4 Cr5 2.079336 1_555
C4 Cr7 2.079361 1_555
C4 Cr4 2.079364 1_555
C4 Cr2 2.079396 1_555
C4 Cr18 2.115181 1_545
C4 Cr20 2.115203 1_545
C4 Cr14 2.115219 1_655
C4 Cr12 2.115226 1_555
C5 Cr5 2.079331 1_555
C5 Cr6 2.079356 1_555
C5 Cr4 2.079374 1_555
C5 Cr3 2.079393 1_555
C5 Cr18 2.115207 1_455
C5 Cr19 2.115221 1_455
C5 Cr16 2.115230 1_555
C5 Cr15 2.115233 1_555
