# generated using pymatgen
data_Gd3Se4
_symmetry_space_group_name_H-M   'P 1'
_cell_length_a   7.59699636
_cell_length_b   7.59688301
_cell_length_c   7.59686015
_cell_angle_alpha   109.47106939
_cell_angle_beta   109.47056275
_cell_angle_gamma   109.47107032
_symmetry_Int_Tables_number   1
_chemical_formula_structural   Gd3Se4
_chemical_formula_sum   'Gd6 Se8'
_cell_volume   337.51629126
_cell_formula_units_Z   2
loop_
 _symmetry_equiv_pos_site_id
 _symmetry_equiv_pos_as_xyz
  1  'x, y, z'
loop_
 _atom_site_type_symbol
 _atom_site_label
 _atom_site_symmetry_multiplicity
 _atom_site_fract_x
 _atom_site_fract_y
 _atom_site_fract_z
 _atom_site_occupancy
  Gd  Gd0  1  0.25000503  0.12500673  0.87500614  1
  Gd  Gd1  1  0.12500608  0.87500609  0.24999813  1
  Gd  Gd2  1  0.74999997  0.37500569  0.62500311  1
  Gd  Gd3  1  0.87499492  0.24999901  0.12499306  1
  Gd  Gd4  1  0.62499131  0.74999615  0.37499403  1
  Gd  Gd5  1  0.37500569  0.62500685  0.75000072  1
  Se  Se0  1  0.14326169  0.50000332  0.00000595  1
  Se  Se1  1  0.35673999  0.35673981  0.35673826  1
  Se  Se2  1  0.64325801  0.49999782  -0.00000073  1
  Se  Se3  1  0.49999818  -0.00000618  0.64326244  1
  Se  Se4  1  0.50000082  -0.00000336  0.14326126  1
  Se  Se5  1  -0.00000042  0.64325251  0.49999747  1
  Se  Se6  1  0.85673731  0.85674363  0.85674426  1
  Se  Se7  1  0.99999942  0.14325193  0.49999690  1
loop_
_geom_bond_atom_site_label_1
_geom_bond_atom_site_label_2
_geom_bond_distance
_geom_bond_site_symmetry_2
Gd0 Se2 2.928168 1_556
Gd0 Se7 2.928195 1_455
Gd0 Se4 2.928213 1_556
Gd0 Se6 2.928257 1_445
Gd0 Se1 3.150360 1_556
Gd0 Se0 3.150402 1_556
Gd0 Se3 3.150416 1_555
Gd0 Se5 3.150519 1_545
Gd1 Se7 2.928144 1_465
Gd1 Se0 2.928149 1_555
Gd1 Se6 2.928173 1_454
Gd1 Se3 2.928242 1_565
Gd1 Se1 3.150372 1_565
Gd1 Se4 3.150375 1_565
Gd1 Se5 3.150474 1_555
Gd1 Se2 3.150537 1_455
Gd2 Se5 2.928150 1_655
Gd2 Se1 2.928214 1_555
Gd2 Se0 2.928253 1_656
Gd2 Se3 2.928254 1_555
Gd2 Se2 3.150376 1_556
Gd2 Se6 3.150404 1_555
Gd2 Se4 3.150461 1_555
Gd2 Se7 3.150500 1_555
Gd3 Se6 2.928127 1_544
Gd3 Se0 2.928152 1_655
Gd3 Se5 2.928157 1_655
Gd3 Se4 2.928213 1_555
Gd3 Se2 3.150383 1_555
Gd3 Se3 3.150397 1_554
Gd3 Se7 3.150468 1_555
Gd3 Se1 3.150512 1_655
Gd4 Se3 2.928160 1_565
Gd4 Se1 2.928160 1_555
Gd4 Se2 2.928162 1_555
Gd4 Se7 2.928219 1_565
Gd4 Se4 3.150350 1_565
Gd4 Se0 3.150406 1_555
Gd4 Se6 3.150476 1_555
Gd4 Se5 3.150524 1_655
Gd5 Se4 2.928154 1_566
Gd5 Se1 2.928179 1_555
Gd5 Se5 2.928200 1_555
Gd5 Se2 2.928209 1_556
Gd5 Se3 3.150299 1_565
Gd5 Se6 3.150401 1_555
Gd5 Se0 3.150467 1_556
Gd5 Se7 3.150536 1_455
