# generated using pymatgen
data_Ba6Mg7H26
_symmetry_space_group_name_H-M   'P 1'
_cell_length_a   9.99381147
_cell_length_b   9.99367498
_cell_length_c   9.99370228
_cell_angle_alpha   146.27428808
_cell_angle_beta   106.63723972
_cell_angle_gamma   83.22269197
_symmetry_Int_Tables_number   1
_chemical_formula_structural   Ba6Mg7H26
_chemical_formula_sum   'Ba6 Mg7 H26'
_cell_volume   517.26221051
_cell_formula_units_Z   1
loop_
 _symmetry_equiv_pos_site_id
 _symmetry_equiv_pos_as_xyz
  1  'x, y, z'
loop_
 _atom_site_type_symbol
 _atom_site_label
 _atom_site_symmetry_multiplicity
 _atom_site_fract_x
 _atom_site_fract_y
 _atom_site_fract_z
 _atom_site_occupancy
  Ba  Ba0  1  0.90704210  0.64753602  0.25949535  1
  Ba  Ba1  1  0.09295690  0.35246342  0.74050556  1
  Ba  Ba2  1  0.61194286  0.35245482  0.25948821  1
  Ba  Ba3  1  0.38805726  0.64754576  0.74051107  1
  Ba  Ba4  1  0.64381349  0.14380468  0.50000109  1
  Ba  Ba5  1  0.35618679  0.85619715  0.50000039  1
  Mg  Mg0  1  0.78188700  0.78188507  -0.00000922  1
  Mg  Mg1  1  0.21811260  0.21811399  0.00000920  1
  Mg  Mg2  1  0.25811972  0.00000396  0.25811748  1
  Mg  Mg3  1  0.74188060  -0.00000372  0.74188277  1
  Mg  Mg4  1  -0.00001237  0.25410849  0.25410858  1
  Mg  Mg5  1  0.00001277  0.74589161  0.74589218  1
  Mg  Mg6  1  0.49999892  0.50000010  -0.00000086  1
  H  H0  1  0.86650691  0.98510957  0.34207260  1
  H  H1  1  0.13348917  0.47558984  0.11862855  1
  H  H2  1  0.35697243  0.01488075  0.88139259  1
  H  H3  1  0.64302801  0.52442347  0.65791255  1
  H  H4  1  0.13349294  0.01488995  0.65792702  1
  H  H5  1  0.86651093  0.52441027  0.88137189  1
  H  H6  1  0.64302763  0.98511970  0.11860768  1
  H  H7  1  0.35697205  0.47557640  0.34208719  1
  H  H8  1  0.38533345  0.24979449  0.63513510  1
  H  H9  1  0.61466809  0.24980614  0.86447586  1
  H  H10  1  0.38533200  0.75019432  0.13552445  1
  H  H11  1  0.61466654  0.75020518  0.36486462  1
  H  H12  1  0.16197963  0.26387831  0.42585692  1
  H  H13  1  0.83801935  0.26387773  0.10190000  1
  H  H14  1  0.16198077  0.73612154  0.89809900  1
  H  H15  1  0.83802070  0.73612163  0.57414287  1
  H  H16  1  0.14808707  0.87318135  0.27485296  1
  H  H17  1  0.85191311  0.12681879  0.72514727  1
  H  H18  1  0.40168632  0.12680705  0.27489775  1
  H  H19  1  0.59831410  0.87319337  0.72510269  1
  H  H20  1  0.91120911  0.41121323  0.50000226  1
  H  H21  1  0.08879105  0.58878634  0.49999703  1
  H  H22  1  0.91331974  0.91333189  0.00000330  1
  H  H23  1  0.08668012  0.08666722  -0.00000390  1
  H  H24  1  0.62872405  0.62874450  0.00000372  1
  H  H25  1  0.37127608  0.37125563  -0.00000376  1
loop_
_geom_bond_atom_site_label_1
_geom_bond_atom_site_label_2
_geom_bond_distance
_geom_bond_site_symmetry_2
Ba0 H1 2.634136 1_655
Ba0 H4 2.634259 1_665
Ba0 H0 2.732060 1_555
Ba0 H5 2.732125 1_554
Ba0 H13 2.759432 1_555
Ba0 H15 2.759472 1_555
Ba0 H17 2.944090 1_554
Ba0 H17 2.944468 1_565
Ba0 H21 3.002747 1_655
Ba0 H24 3.111221 1_555
Ba0 H9 3.155304 1_554
Ba0 H11 3.155387 1_555
Ba1 H5 2.634126 1_455
Ba1 H0 2.634255 1_445
Ba1 H4 2.732051 1_555
Ba1 H1 2.732114 1_556
Ba1 H14 2.759445 1_555
Ba1 H12 2.759493 1_555
Ba1 H16 2.944089 1_556
Ba1 H16 2.944473 1_545
Ba1 H20 3.002757 1_455
Ba1 H25 3.111219 1_556
Ba1 H10 3.155316 1_556
Ba1 H8 3.155400 1_555
Ba2 H6 2.634222 1_545
Ba2 H3 2.634251 1_555
Ba2 H2 2.731878 1_554
Ba2 H7 2.731903 1_555
Ba2 H15 2.759534 1_555
Ba2 H13 2.759551 1_555
Ba2 H19 2.944218 1_555
Ba2 H19 2.944323 1_544
Ba2 H20 3.002904 1_555
Ba2 H25 3.110872 1_555
Ba2 H9 3.155263 1_554
Ba2 H11 3.155357 1_555
Ba3 H2 2.634215 1_565
Ba3 H7 2.634242 1_555
Ba3 H6 2.731878 1_556
Ba3 H3 2.731902 1_555
Ba3 H12 2.759537 1_555
Ba3 H14 2.759553 1_555
Ba3 H18 2.944218 1_555
Ba3 H18 2.944327 1_566
Ba3 H21 3.002900 1_555
Ba3 H24 3.110880 1_556
Ba3 H10 3.155274 1_556
Ba3 H8 3.155369 1_555
Ba4 H5 2.640761 1_555
Ba4 H0 2.640830 1_545
Ba4 H6 2.640844 1_545
Ba4 H3 2.640864 1_555
Ba4 H17 2.699845 1_555
Ba4 H18 2.699849 1_555
Ba4 H24 2.907634 1_545
Ba4 H24 2.907824 1_556
Ba4 H11 2.930855 1_545
Ba4 H9 2.930999 1_555
Ba4 H10 2.931004 1_545
Ba4 H8 2.931055 1_555
Ba5 H1 2.640768 1_555
Ba5 H4 2.640828 1_565
Ba5 H2 2.640842 1_565
Ba5 H7 2.640872 1_555
Ba5 H16 2.699843 1_555
Ba5 H19 2.699852 1_555
Ba5 H25 2.907625 1_566
Ba5 H25 2.907833 1_555
Ba5 H8 2.930846 1_565
Ba5 H9 2.930998 1_565
Ba5 H10 2.931000 1_555
Ba5 H11 2.931057 1_555
H0 Mg0 1.930743 1_555
H1 Mg1 1.930819 1_555
H2 Mg1 1.930815 1_556
H3 Mg0 1.930731 1_556
H4 Mg1 1.930747 1_556
H5 Mg0 1.930815 1_556
H6 Mg0 1.930818 1_555
H7 Mg1 1.930731 1_555
H8 Mg6 1.994663 1_556
H8 Mg2 2.098791 1_555
H9 Mg6 1.994707 1_556
H9 Mg3 2.098799 1_555
H10 Mg6 1.994690 1_555
H10 Mg2 2.098797 1_565
H11 Mg6 1.994678 1_555
H11 Mg3 2.098794 1_565
H12 Mg2 1.912688 1_555
H12 Mg4 1.934905 1_555
H13 Mg3 1.912686 1_554
H13 Mg4 1.934760 1_655
H14 Mg2 1.912693 1_566
H14 Mg5 1.934753 1_555
H15 Mg3 1.912689 1_565
H15 Mg5 1.934910 1_655
H16 Mg2 1.905366 1_565
H17 Mg3 1.905364 1_555
H18 Mg2 1.905371 1_555
H19 Mg3 1.905371 1_565
H20 Mg4 1.947535 1_655
H20 Mg5 1.947610 1_655
H21 Mg5 1.947542 1_555
H21 Mg4 1.947609 1_555
H22 Mg4 1.961656 1_665
H22 Mg5 1.961869 1_654
H22 Mg0 1.964139 1_555
H23 Mg5 1.961652 1_544
H23 Mg4 1.961872 1_555
H23 Mg1 1.964133 1_555
H24 Mg6 1.923775 1_555
H24 Mg0 2.288793 1_555
H25 Mg6 1.923771 1_555
H25 Mg1 2.288805 1_555
