# generated using pymatgen
data_K2Mo4O13
_symmetry_space_group_name_H-M   'P 1'
_cell_length_a   7.72176500
_cell_length_b   15.71045200
_cell_length_c   18.97184400
_cell_angle_alpha   90.00000000
_cell_angle_beta   90.00000000
_cell_angle_gamma   90.00000000
_symmetry_Int_Tables_number   1
_chemical_formula_structural   K2Mo4O13
_chemical_formula_sum   'K16 Mo32 O104'
_cell_volume   2301.52027692
_cell_formula_units_Z   8
loop_
 _symmetry_equiv_pos_site_id
 _symmetry_equiv_pos_as_xyz
  1  'x, y, z'
loop_
 _atom_site_type_symbol
 _atom_site_label
 _atom_site_symmetry_multiplicity
 _atom_site_fract_x
 _atom_site_fract_y
 _atom_site_fract_z
 _atom_site_occupancy
  K  K0  1  0.10706500  0.52972100  0.08435200  1
  K  K1  1  0.22945500  0.28407100  0.06712600  1
  K  K2  1  0.72945500  0.21592900  0.93287400  1
  K  K3  1  0.39293500  0.47027900  0.58435200  1
  K  K4  1  0.72945500  0.28407100  0.43287400  1
  K  K5  1  0.27054500  0.78407100  0.06712600  1
  K  K6  1  0.10706500  0.97027900  0.58435200  1
  K  K7  1  0.89293500  0.47027900  0.91564800  1
  K  K8  1  0.27054500  0.71592900  0.56712600  1
  K  K9  1  0.77054500  0.71592900  0.93287400  1
  K  K10  1  0.89293500  0.02972100  0.41564800  1
  K  K11  1  0.39293500  0.02972100  0.08435200  1
  K  K12  1  0.60706500  0.97027900  0.91564800  1
  K  K13  1  0.22945500  0.21592900  0.56712600  1
  K  K14  1  0.60706500  0.52972100  0.41564800  1
  K  K15  1  0.77054500  0.78407100  0.43287400  1
  Mo  Mo0  1  0.17199200  0.56846300  0.74392600  1
  Mo  Mo1  1  0.67199200  0.56846300  0.75607400  1
  Mo  Mo2  1  0.39424300  0.43210700  0.89262800  1
  Mo  Mo3  1  0.10575700  0.93210700  0.89262800  1
  Mo  Mo4  1  0.79393000  0.63839200  0.59773600  1
  Mo  Mo5  1  0.39424300  0.06789300  0.39262800  1
  Mo  Mo6  1  0.60575700  0.93210700  0.60737200  1
  Mo  Mo7  1  0.57900700  0.77744700  0.75097900  1
  Mo  Mo8  1  0.82800800  0.06846300  0.75607400  1
  Mo  Mo9  1  0.82800800  0.43153700  0.25607400  1
  Mo  Mo10  1  0.92099300  0.27744700  0.75097900  1
  Mo  Mo11  1  0.20607000  0.36160800  0.40226400  1
  Mo  Mo12  1  0.20607000  0.13839200  0.90226400  1
  Mo  Mo13  1  0.10575700  0.56789300  0.39262800  1
  Mo  Mo14  1  0.29393000  0.86160800  0.40226400  1
  Mo  Mo15  1  0.89424300  0.06789300  0.10737200  1
  Mo  Mo16  1  0.57900700  0.72255300  0.25097900  1
  Mo  Mo17  1  0.89424300  0.43210700  0.60737200  1
  Mo  Mo18  1  0.79393000  0.86160800  0.09773600  1
  Mo  Mo19  1  0.42099300  0.27744700  0.74902100  1
  Mo  Mo20  1  0.17199200  0.93153700  0.24392600  1
  Mo  Mo21  1  0.92099300  0.22255300  0.25097900  1
  Mo  Mo22  1  0.42099300  0.22255300  0.24902100  1
  Mo  Mo23  1  0.07900700  0.77744700  0.74902100  1
  Mo  Mo24  1  0.32800800  0.43153700  0.24392600  1
  Mo  Mo25  1  0.60575700  0.56789300  0.10737200  1
  Mo  Mo26  1  0.32800800  0.06846300  0.74392600  1
  Mo  Mo27  1  0.67199200  0.93153700  0.25607400  1
  Mo  Mo28  1  0.70607000  0.36160800  0.09773600  1
  Mo  Mo29  1  0.29393000  0.63839200  0.90226400  1
  Mo  Mo30  1  0.70607000  0.13839200  0.59773600  1
  Mo  Mo31  1  0.07900700  0.72255300  0.24902100  1
  O  O0  1  0.19271000  0.67775700  0.81605800  1
  O  O1  1  0.16910300  0.85307000  0.81964600  1
  O  O2  1  0.73579800  0.08644800  0.04305200  1
  O  O3  1  0.42698700  0.33315900  0.19503800  1
  O  O4  1  0.10044800  0.22721500  0.93679100  1
  O  O5  1  0.73579800  0.41355200  0.54305200  1
  O  O6  1  0.83089700  0.14693000  0.18035400  1
  O  O7  1  0.92330800  0.51564000  0.30479800  1
  O  O8  1  0.23579800  0.08644800  0.45694800  1
  O  O9  1  0.07301300  0.66684100  0.69503800  1
  O  O10  1  0.22211600  0.52079900  0.83275700  1
  O  O11  1  0.61380800  0.62268000  0.54278100  1
  O  O12  1  0.86539000  0.77011200  0.78412400  1
  O  O13  1  0.42330800  0.51564000  0.19520200  1
  O  O14  1  0.72211600  0.52079900  0.66724300  1
  O  O15  1  0.10044800  0.27278500  0.43679100  1
  O  O16  1  0.77788400  0.47920100  0.16724300  1
  O  O17  1  0.94501100  0.34232700  0.82384800  1
  O  O18  1  0.88619200  0.37732000  0.04278100  1
  O  O19  1  0.63461000  0.22988800  0.28412400  1
  O  O20  1  0.13461000  0.27011200  0.71587600  1
  O  O21  1  0.80729000  0.17775700  0.68394200  1
  O  O22  1  0.42229100  0.62050700  0.07588900  1
  O  O23  1  0.44501100  0.15767300  0.17615200  1
  O  O24  1  0.76420200  0.58644800  0.04305200  1
  O  O25  1  0.63461000  0.27011200  0.78412400  1
  O  O26  1  0.69271000  0.82224300  0.18394200  1
  O  O27  1  0.61724300  0.07244500  0.79369300  1
  O  O28  1  0.88275700  0.57244500  0.79369300  1
  O  O29  1  0.66910300  0.85307000  0.68035400  1
  O  O30  1  0.76420200  0.91355200  0.54305200  1
  O  O31  1  0.61724300  0.42755500  0.29369300  1
  O  O32  1  0.69271000  0.67775700  0.68394200  1
  O  O33  1  0.54571100  0.44991400  0.07574300  1
  O  O34  1  0.44501100  0.34232700  0.67615200  1
  O  O35  1  0.07301300  0.83315900  0.19503800  1
  O  O36  1  0.38275700  0.57244500  0.70630700  1
  O  O37  1  0.13461000  0.22988800  0.21587600  1
  O  O38  1  0.57301300  0.66684100  0.80496200  1
  O  O39  1  0.92229100  0.87949300  0.92411100  1
  O  O40  1  0.38275700  0.92755500  0.20630700  1
  O  O41  1  0.55498900  0.65767300  0.32384800  1
  O  O42  1  0.39955200  0.77278500  0.43679100  1
  O  O43  1  0.42330800  0.98436000  0.69520200  1
  O  O44  1  0.11724300  0.07244500  0.70630700  1
  O  O45  1  0.92698700  0.16684100  0.80496200  1
  O  O46  1  0.45428900  0.94991400  0.42425700  1
  O  O47  1  0.19271000  0.82224300  0.31605800  1
  O  O48  1  0.11380800  0.87732000  0.45721900  1
  O  O49  1  0.38619200  0.12268000  0.95721900  1
  O  O50  1  0.92229100  0.62050700  0.42411100  1
  O  O51  1  0.07669200  0.01564000  0.19520200  1
  O  O52  1  0.07770900  0.12050700  0.07588900  1
  O  O53  1  0.72211600  0.97920100  0.16724300  1
  O  O54  1  0.07770900  0.37949300  0.57588900  1
  O  O55  1  0.80729000  0.32224300  0.18394200  1
  O  O56  1  0.88275700  0.92755500  0.29369300  1
  O  O57  1  0.57770900  0.37949300  0.92411100  1
  O  O58  1  0.26420200  0.91355200  0.95694800  1
  O  O59  1  0.92698700  0.33315900  0.30496200  1
  O  O60  1  0.38619200  0.37732000  0.45721900  1
  O  O61  1  0.92330800  0.98436000  0.80479800  1
  O  O62  1  0.60044800  0.22721500  0.56320900  1
  O  O63  1  0.57301300  0.83315900  0.30496200  1
  O  O64  1  0.30729000  0.17775700  0.81605800  1
  O  O65  1  0.36539000  0.77011200  0.71587600  1
  O  O66  1  0.89955200  0.72721500  0.56320900  1
  O  O67  1  0.27788400  0.02079900  0.83275700  1
  O  O68  1  0.94501100  0.15767300  0.32384800  1
  O  O69  1  0.60044800  0.27278500  0.06320900  1
  O  O70  1  0.45428900  0.55008600  0.92425700  1
  O  O71  1  0.83089700  0.35307000  0.68035400  1
  O  O72  1  0.54571100  0.05008600  0.57574300  1
  O  O73  1  0.22211600  0.97920100  0.33275700  1
  O  O74  1  0.57669200  0.48436000  0.80479800  1
  O  O75  1  0.95428900  0.55008600  0.57574300  1
  O  O76  1  0.05498900  0.65767300  0.17615200  1
  O  O77  1  0.66910300  0.64693000  0.18035400  1
  O  O78  1  0.04571100  0.05008600  0.92425700  1
  O  O79  1  0.77788400  0.02079900  0.66724300  1
  O  O80  1  0.57770900  0.12050700  0.42411100  1
  O  O81  1  0.33089700  0.35307000  0.81964600  1
  O  O82  1  0.42698700  0.16684100  0.69503800  1
  O  O83  1  0.61380800  0.87732000  0.04278100  1
  O  O84  1  0.11380800  0.62268000  0.95721900  1
  O  O85  1  0.16910300  0.64693000  0.31964600  1
  O  O86  1  0.04571100  0.44991400  0.42425700  1
  O  O87  1  0.23579800  0.41355200  0.95694800  1
  O  O88  1  0.26420200  0.58644800  0.45694800  1
  O  O89  1  0.95428900  0.94991400  0.07574300  1
  O  O90  1  0.55498900  0.84232700  0.82384800  1
  O  O91  1  0.88619200  0.12268000  0.54278100  1
  O  O92  1  0.39955200  0.72721500  0.93679100  1
  O  O93  1  0.33089700  0.14693000  0.31964600  1
  O  O94  1  0.11724300  0.42755500  0.20630700  1
  O  O95  1  0.27788400  0.47920100  0.33275700  1
  O  O96  1  0.42229100  0.87949300  0.57588900  1
  O  O97  1  0.30729000  0.32224300  0.31605800  1
  O  O98  1  0.07669200  0.48436000  0.69520200  1
  O  O99  1  0.89955200  0.77278500  0.06320900  1
  O  O100  1  0.05498900  0.84232700  0.67615200  1
  O  O101  1  0.86539000  0.72988800  0.28412400  1
  O  O102  1  0.57669200  0.01564000  0.30479800  1
  O  O103  1  0.36539000  0.72988800  0.21587600  1
loop_
_geom_bond_atom_site_label_1
_geom_bond_atom_site_label_2
_geom_bond_distance
_geom_bond_site_symmetry_2
K0 O76 2.689937 1_555
K0 O94 2.817037 1_555
K0 O84 2.820115 1_554
K0 O22 2.825761 1_555
K0 O24 2.901289 1_455
K0 O18 3.043594 1_455
K0 O16 3.092579 1_455
K0 O87 3.187682 1_554
K0 O13 3.230295 1_555
K1 O4 2.811481 1_554
K1 O52 2.829100 1_555
K1 O69 2.871165 1_555
K1 O87 2.917132 1_554
K1 O3 2.968210 1_555
K1 O37 3.037270 1_555
K1 O18 3.063521 1_455
K2 O69 2.811481 1_556
K2 O57 2.829100 1_555
K2 O4 2.871165 1_655
K2 O2 2.917132 1_556
K2 O45 2.968210 1_555
K2 O25 3.037270 1_555
K2 O49 3.063521 1_555
K3 O34 2.689937 1_555
K3 O36 2.817037 1_555
K3 O60 2.820115 1_555
K3 O54 2.825761 1_555
K3 O5 2.901289 1_555
K3 O11 3.043594 1_555
K3 O14 3.092579 1_555
K3 O88 3.187682 1_555
K3 O98 3.230295 1_555
K4 O62 2.811481 1_555
K4 O80 2.829100 1_555
K4 O15 2.871165 1_655
K4 O5 2.917132 1_555
K4 O59 2.968210 1_555
K4 O19 3.037270 1_555
K4 O60 3.063521 1_555
K5 O92 2.811481 1_554
K5 O22 2.829100 1_555
K5 O99 2.871165 1_455
K5 O58 2.917132 1_554
K5 O35 2.968210 1_555
K5 O103 3.037270 1_555
K5 O83 3.063521 1_555
K6 O100 2.689937 1_555
K6 O44 2.817037 1_565
K6 O48 2.820115 1_555
K6 O96 2.825761 1_555
K6 O30 2.901289 1_455
K6 O91 3.043594 1_465
K6 O79 3.092579 1_465
K6 O8 3.187682 1_565
K6 O43 3.230295 1_555
K7 O17 2.689937 1_555
K7 O28 2.817037 1_555
K7 O18 2.820115 1_556
K7 O57 2.825761 1_555
K7 O87 2.901289 1_655
K7 O84 3.043594 1_655
K7 O10 3.092579 1_655
K7 O24 3.187682 1_556
K7 O74 3.230295 1_555
K8 O42 2.811481 1_555
K8 O96 2.829100 1_555
K8 O66 2.871165 1_455
K8 O88 2.917132 1_555
K8 O9 2.968210 1_555
K8 O65 3.037270 1_555
K8 O11 3.063521 1_555
K9 O99 2.811481 1_556
K9 O39 2.829100 1_555
K9 O92 2.871165 1_555
K9 O24 2.917132 1_556
K9 O38 2.968210 1_555
K9 O12 3.037270 1_555
K9 O84 3.063521 1_655
K10 O68 2.689937 1_555
K10 O56 2.817037 1_545
K10 O91 2.820115 1_555
K10 O80 2.825761 1_555
K10 O8 2.901289 1_655
K10 O48 3.043594 1_645
K10 O73 3.092579 1_645
K10 O30 3.187682 1_545
K10 O102 3.230295 1_555
K11 O23 2.689937 1_555
K11 O40 2.817037 1_545
K11 O49 2.820115 1_554
K11 O52 2.825761 1_555
K11 O2 2.901289 1_555
K11 O83 3.043594 1_545
K11 O53 3.092579 1_545
K11 O58 3.187682 1_544
K11 O51 3.230295 1_555
K12 O90 2.689937 1_555
K12 O27 2.817037 1_565
K12 O83 2.820115 1_556
K12 O39 2.825761 1_555
K12 O58 2.901289 1_555
K12 O49 3.043594 1_565
K12 O67 3.092579 1_565
K12 O2 3.187682 1_566
K12 O61 3.230295 1_555
K13 O15 2.811481 1_555
K13 O54 2.829100 1_555
K13 O62 2.871165 1_555
K13 O8 2.917132 1_555
K13 O82 2.968210 1_555
K13 O20 3.037270 1_555
K13 O91 3.063521 1_455
K14 O41 2.689937 1_555
K14 O31 2.817037 1_555
K14 O11 2.820115 1_555
K14 O50 2.825761 1_555
K14 O88 2.901289 1_555
K14 O60 3.043594 1_555
K14 O95 3.092579 1_555
K14 O5 3.187682 1_555
K14 O7 3.230295 1_555
K15 O66 2.811481 1_555
K15 O50 2.829100 1_555
K15 O42 2.871165 1_555
K15 O30 2.917132 1_555
K15 O63 2.968210 1_555
K15 O101 3.037270 1_555
K15 O48 3.063521 1_655
Mo0 O98 1.772522 1_555
Mo0 O36 1.778192 1_555
Mo0 O10 1.884340 1_555
Mo0 O9 1.957845 1_555
Mo0 O0 2.201502 1_555
Mo0 O28 2.425587 1_455
Mo1 O74 1.772522 1_555
Mo1 O28 1.778192 1_555
Mo1 O14 1.884340 1_555
Mo1 O38 1.957845 1_555
Mo1 O32 2.201502 1_555
Mo1 O36 2.425587 1_555
Mo2 O57 1.745564 1_555
Mo2 O87 1.752405 1_555
Mo2 O81 1.923076 1_555
Mo2 O70 2.002631 1_555
Mo2 O10 2.235687 1_555
Mo2 O74 2.331362 1_555
Mo3 O39 1.745564 1_455
Mo3 O58 1.752405 1_555
Mo3 O1 1.923076 1_555
Mo3 O78 2.002631 1_565
Mo3 O67 2.235687 1_565
Mo3 O61 2.331362 1_455
Mo4 O66 1.744002 1_555
Mo4 O11 1.755686 1_555
Mo4 O75 1.905793 1_555
Mo4 O32 1.915250 1_555
Mo4 O14 2.336545 1_555
Mo5 O80 1.745564 1_555
Mo5 O8 1.752405 1_555
Mo5 O93 1.923076 1_555
Mo5 O46 2.002631 1_545
Mo5 O73 2.235687 1_545
Mo5 O102 2.331362 1_555
Mo6 O96 1.745564 1_555
Mo6 O30 1.752405 1_555
Mo6 O29 1.923076 1_555
Mo6 O72 2.002631 1_565
Mo6 O79 2.235687 1_565
Mo6 O43 2.331362 1_555
Mo7 O90 1.727585 1_555
Mo7 O65 1.782595 1_555
Mo7 O29 1.921148 1_555
Mo7 O38 2.017557 1_555
Mo7 O32 2.200291 1_555
Mo7 O12 2.301936 1_555
Mo8 O61 1.772522 1_545
Mo8 O27 1.778192 1_555
Mo8 O79 1.884340 1_555
Mo8 O45 1.957845 1_555
Mo8 O21 2.201502 1_555
Mo8 O44 2.425587 1_655
Mo9 O7 1.772522 1_555
Mo9 O31 1.778192 1_555
Mo9 O16 1.884340 1_555
Mo9 O59 1.957845 1_555
Mo9 O55 2.201502 1_555
Mo9 O94 2.425587 1_655
Mo10 O17 1.727585 1_555
Mo10 O20 1.782595 1_655
Mo10 O71 1.921148 1_555
Mo10 O45 2.017557 1_555
Mo10 O21 2.200291 1_555
Mo10 O25 2.301936 1_555
Mo11 O15 1.744002 1_555
Mo11 O60 1.755686 1_555
Mo11 O86 1.905793 1_555
Mo11 O97 1.915250 1_555
Mo11 O95 2.336545 1_555
Mo12 O4 1.744002 1_555
Mo12 O49 1.755686 1_555
Mo12 O78 1.905793 1_555
Mo12 O64 1.915250 1_555
Mo12 O67 2.336545 1_555
Mo13 O50 1.745564 1_455
Mo13 O88 1.752405 1_555
Mo13 O85 1.923076 1_555
Mo13 O86 2.002631 1_555
Mo13 O95 2.235687 1_555
Mo13 O7 2.331362 1_455
Mo14 O42 1.744002 1_555
Mo14 O48 1.755686 1_555
Mo14 O46 1.905793 1_555
Mo14 O47 1.915250 1_555
Mo14 O73 2.336545 1_555
Mo15 O52 1.745564 1_655
Mo15 O2 1.752405 1_555
Mo15 O6 1.923076 1_555
Mo15 O89 2.002631 1_545
Mo15 O53 2.235687 1_545
Mo15 O51 2.331362 1_655
Mo16 O41 1.727585 1_555
Mo16 O103 1.782595 1_555
Mo16 O77 1.921148 1_555
Mo16 O63 2.017557 1_555
Mo16 O26 2.200291 1_555
Mo16 O101 2.301936 1_555
Mo17 O54 1.745564 1_655
Mo17 O5 1.752405 1_555
Mo17 O71 1.923076 1_555
Mo17 O75 2.002631 1_555
Mo17 O14 2.235687 1_555
Mo17 O98 2.331362 1_655
Mo18 O99 1.744002 1_555
Mo18 O83 1.755686 1_555
Mo18 O89 1.905793 1_555
Mo18 O26 1.915250 1_555
Mo18 O53 2.336545 1_555
Mo19 O34 1.727585 1_555
Mo19 O25 1.782595 1_555
Mo19 O81 1.921148 1_555
Mo19 O82 2.017557 1_555
Mo19 O64 2.200291 1_555
Mo19 O20 2.301936 1_555
Mo20 O51 1.772522 1_565
Mo20 O40 1.778192 1_555
Mo20 O73 1.884340 1_555
Mo20 O35 1.957845 1_555
Mo20 O47 2.201502 1_555
Mo20 O56 2.425587 1_455
Mo21 O68 1.727585 1_555
Mo21 O37 1.782595 1_655
Mo21 O6 1.921148 1_555
Mo21 O59 2.017557 1_555
Mo21 O55 2.200291 1_555
Mo21 O19 2.301936 1_555
Mo22 O23 1.727585 1_555
Mo22 O19 1.782595 1_555
Mo22 O93 1.921148 1_555
Mo22 O3 2.017557 1_555
Mo22 O97 2.200291 1_555
Mo22 O37 2.301936 1_555
Mo23 O100 1.727585 1_555
Mo23 O12 1.782595 1_455
Mo23 O1 1.921148 1_555
Mo23 O9 2.017557 1_555
Mo23 O0 2.200291 1_555
Mo23 O65 2.301936 1_555
Mo24 O13 1.772522 1_555
Mo24 O94 1.778192 1_555
Mo24 O95 1.884340 1_555
Mo24 O3 1.957845 1_555
Mo24 O97 2.201502 1_555
Mo24 O31 2.425587 1_555
Mo25 O22 1.745564 1_555
Mo25 O24 1.752405 1_555
Mo25 O77 1.923076 1_555
Mo25 O33 2.002631 1_555
Mo25 O16 2.235687 1_555
Mo25 O13 2.331362 1_555
Mo26 O43 1.772522 1_545
Mo26 O44 1.778192 1_555
Mo26 O67 1.884340 1_555
Mo26 O82 1.957845 1_555
Mo26 O64 2.201502 1_555
Mo26 O27 2.425587 1_555
Mo27 O102 1.772522 1_565
Mo27 O56 1.778192 1_555
Mo27 O53 1.884340 1_555
Mo27 O63 1.957845 1_555
Mo27 O26 2.201502 1_555
Mo27 O40 2.425587 1_555
Mo28 O69 1.744002 1_555
Mo28 O18 1.755686 1_555
Mo28 O33 1.905793 1_555
Mo28 O55 1.915250 1_555
Mo28 O16 2.336545 1_555
Mo29 O92 1.744002 1_555
Mo29 O84 1.755686 1_555
Mo29 O70 1.905793 1_555
Mo29 O0 1.915250 1_555
Mo29 O10 2.336545 1_555
Mo30 O62 1.744002 1_555
Mo30 O91 1.755686 1_555
Mo30 O72 1.905793 1_555
Mo30 O21 1.915250 1_555
Mo30 O79 2.336545 1_555
Mo31 O76 1.727585 1_555
Mo31 O101 1.782595 1_455
Mo31 O85 1.921148 1_555
Mo31 O35 2.017557 1_555
Mo31 O47 2.200291 1_555
Mo31 O103 2.301936 1_555
