# generated using pymatgen
data_Sc5(In2Ni)2
_symmetry_space_group_name_H-M   'P 1'
_cell_length_a   3.60921500
_cell_length_b   8.00631200
_cell_length_c   18.67074900
_cell_angle_alpha   90.00000000
_cell_angle_beta   90.00000000
_cell_angle_gamma   90.00000000
_symmetry_Int_Tables_number   1
_chemical_formula_structural   Sc5(In2Ni)2
_chemical_formula_sum   'Sc10 In8 Ni4'
_cell_volume   539.51932397
_cell_formula_units_Z   2
loop_
 _symmetry_equiv_pos_site_id
 _symmetry_equiv_pos_as_xyz
  1  'x, y, z'
loop_
 _atom_site_type_symbol
 _atom_site_label
 _atom_site_symmetry_multiplicity
 _atom_site_fract_x
 _atom_site_fract_y
 _atom_site_fract_z
 _atom_site_occupancy
  Sc  Sc0  1  0.50000000  0.11297500  0.90501300  1
  Sc  Sc1  1  0.50000000  0.61297500  0.59498700  1
  Sc  Sc2  1  0.50000000  0.38702500  0.40501300  1
  Sc  Sc3  1  0.50000000  0.88702500  0.09498700  1
  Sc  Sc4  1  0.50000000  0.00000000  0.50000000  1
  Sc  Sc5  1  0.50000000  0.75956200  0.77692400  1
  Sc  Sc6  1  0.50000000  0.74043800  0.27692400  1
  Sc  Sc7  1  0.50000000  0.25956200  0.72307600  1
  Sc  Sc8  1  0.50000000  0.50000000  0.00000000  1
  Sc  Sc9  1  0.50000000  0.24043800  0.22307600  1
  In  In0  1  0.00000000  0.19584500  0.06940800  1
  In  In1  1  0.00000000  0.69584500  0.43059200  1
  In  In2  1  0.00000000  0.92823000  0.65599800  1
  In  In3  1  0.00000000  0.07177000  0.34400200  1
  In  In4  1  0.00000000  0.30415500  0.56940800  1
  In  In5  1  0.00000000  0.42823000  0.84400200  1
  In  In6  1  0.00000000  0.57177000  0.15599800  1
  In  In7  1  0.00000000  0.80415500  0.93059200  1
  Ni  Ni0  1  0.00000000  0.46574100  0.30649500  1
  Ni  Ni1  1  0.00000000  0.53425900  0.69350500  1
  Ni  Ni2  1  0.00000000  0.03425900  0.80649500  1
  Ni  Ni3  1  0.00000000  0.96574100  0.19350500  1
loop_
_geom_bond_atom_site_label_1
_geom_bond_atom_site_label_2
_geom_bond_distance
_geom_bond_site_symmetry_2
In0 Ni3 2.960140 1_545
In0 Sc3 3.098063 1_445
In0 Sc3 3.098063 1_545
In0 Sc8 3.296357 1_455
In0 Sc8 3.296357 1_555
In0 Sc9 3.408195 1_555
In0 Sc9 3.408195 1_455
In0 In6 3.416497 1_555
In0 Sc0 3.621864 1_554
In0 Sc0 3.621864 1_454
In1 Ni0 2.960140 1_555
In1 Sc2 3.098063 1_455
In1 Sc2 3.098063 1_555
In1 Sc4 3.296357 1_565
In1 Sc4 3.296357 1_465
In1 Sc6 3.408195 1_555
In1 Sc6 3.408195 1_455
In1 In3 3.416497 1_565
In1 Sc1 3.621864 1_455
In1 Sc1 3.621864 1_555
In2 Ni2 2.935324 1_565
In2 Sc5 3.190263 1_455
In2 Sc5 3.190263 1_555
In2 Ni1 3.231056 1_555
In2 Sc1 3.305288 1_555
In2 Sc1 3.305288 1_455
In2 In4 3.416497 1_565
In2 Sc7 3.444151 1_465
In2 Sc7 3.444151 1_565
In2 Sc4 3.474194 1_565
In2 Sc4 3.474194 1_465
In3 Ni3 2.935324 1_545
In3 Sc9 3.190263 1_455
In3 Sc9 3.190263 1_555
In3 Ni0 3.231056 1_555
In3 Sc2 3.305288 1_555
In3 Sc2 3.305288 1_455
In3 Sc6 3.444151 1_445
In3 Sc6 3.444151 1_545
In3 Sc4 3.474194 1_555
In3 Sc4 3.474194 1_455
In4 Ni1 2.960140 1_555
In4 Sc1 3.098063 1_555
In4 Sc1 3.098063 1_455
In4 Sc4 3.296357 1_555
In4 Sc4 3.296357 1_455
In4 Sc7 3.408195 1_455
In4 Sc7 3.408195 1_555
In4 Sc2 3.621864 1_455
In4 Sc2 3.621864 1_555
In5 Ni1 2.935324 1_555
In5 Sc7 3.190263 1_555
In5 Sc7 3.190263 1_455
In5 Ni2 3.231056 1_555
In5 Sc0 3.305288 1_555
In5 Sc0 3.305288 1_455
In5 In7 3.416497 1_555
In5 Sc5 3.444151 1_455
In5 Sc5 3.444151 1_555
In5 Sc8 3.474194 1_556
In5 Sc8 3.474194 1_456
In6 Ni0 2.935324 1_555
In6 Sc6 3.190263 1_455
In6 Sc6 3.190263 1_555
In6 Ni3 3.231056 1_555
In6 Sc3 3.305288 1_555
In6 Sc3 3.305288 1_455
In6 Sc9 3.444151 1_555
In6 Sc9 3.444151 1_455
In6 Sc8 3.474194 1_555
In6 Sc8 3.474194 1_455
In7 Ni2 2.960140 1_565
In7 Sc0 3.098063 1_565
In7 Sc0 3.098063 1_465
In7 Sc8 3.296357 1_556
In7 Sc8 3.296357 1_456
In7 Sc5 3.408195 1_455
In7 Sc5 3.408195 1_555
In7 Sc3 3.621864 1_456
In7 Sc3 3.621864 1_556
Ni0 Sc2 2.652772 1_455
Ni0 Sc2 2.652772 1_555
Ni0 Sc6 2.897999 1_455
Ni0 Sc6 2.897999 1_555
Ni0 Sc9 2.989358 1_455
Ni0 Sc9 2.989358 1_555
Ni1 Sc1 2.652772 1_555
Ni1 Sc1 2.652772 1_455
Ni1 Sc7 2.897999 1_555
Ni1 Sc7 2.897999 1_455
Ni1 Sc5 2.989358 1_455
Ni1 Sc5 2.989358 1_555
Ni2 Sc0 2.652772 1_455
Ni2 Sc0 2.652772 1_555
Ni2 Sc5 2.897999 1_445
Ni2 Sc5 2.897999 1_545
Ni2 Sc7 2.989358 1_555
Ni2 Sc7 2.989358 1_455
Ni3 Sc3 2.652772 1_555
Ni3 Sc3 2.652772 1_455
Ni3 Sc9 2.897999 1_565
Ni3 Sc9 2.897999 1_465
Ni3 Sc6 2.989358 1_555
Ni3 Sc6 2.989358 1_455
