# generated using pymatgen
data_Gd2S3
_symmetry_space_group_name_H-M   'P 1'
_cell_length_a   3.93795851
_cell_length_b   7.39173681
_cell_length_c   15.29389255
_cell_angle_alpha   89.99998396
_cell_angle_beta   90.00000000
_cell_angle_gamma   90.00000000
_symmetry_Int_Tables_number   1
_chemical_formula_structural   Gd2S3
_chemical_formula_sum   'Gd8 S12'
_cell_volume   445.18002117
_cell_formula_units_Z   4
loop_
 _symmetry_equiv_pos_site_id
 _symmetry_equiv_pos_as_xyz
  1  'x, y, z'
loop_
 _atom_site_type_symbol
 _atom_site_label
 _atom_site_symmetry_multiplicity
 _atom_site_fract_x
 _atom_site_fract_y
 _atom_site_fract_z
 _atom_site_occupancy
  Gd  Gd0  1  0.25000000  0.63906838  0.70500275  1
  Gd  Gd1  1  0.75000000  0.36093162  0.29499725  1
  Gd  Gd2  1  0.75000000  0.86093162  0.20500275  1
  Gd  Gd3  1  0.25000000  0.13906838  0.79499725  1
  Gd  Gd4  1  0.25000000  0.76648894  0.45730685  1
  Gd  Gd5  1  0.25000000  0.26648894  0.04269215  1
  Gd  Gd6  1  0.75000000  0.23351106  0.54269315  1
  Gd  Gd7  1  0.75000000  0.73351106  0.95730785  1
  S  S0  1  0.75000000  0.62387028  0.56772495  1
  S  S1  1  0.25000000  0.15220912  0.21857748  1
  S  S2  1  0.25000000  0.65220912  0.28142252  1
  S  S3  1  0.25000000  0.51002706  0.89224961  1
  S  S4  1  0.25000000  0.37612972  0.43227505  1
  S  S5  1  0.75000000  0.12387028  0.93227505  1
  S  S6  1  0.75000000  0.98997294  0.39224961  1
  S  S7  1  0.75000000  0.84779088  0.78142352  1
  S  S8  1  0.75000000  0.34779088  0.71857648  1
  S  S9  1  0.75000000  0.48997294  0.10775039  1
  S  S10  1  0.25000000  0.01002706  0.60775039  1
  S  S11  1  0.25000000  0.87612972  0.06772495  1
loop_
_geom_bond_atom_site_label_1
_geom_bond_atom_site_label_2
_geom_bond_distance
_geom_bond_site_symmetry_2
Gd0 S7 2.761015 1_555
Gd0 S7 2.761015 1_455
Gd0 S0 2.880529 1_555
Gd0 S0 2.880529 1_455
Gd0 S8 2.924993 1_555
Gd0 S8 2.924993 1_455
Gd0 S3 3.018406 1_555
Gd0 S10 3.119452 1_565
Gd1 S1 2.761009 1_655
Gd1 S1 2.761009 1_555
Gd1 S4 2.880529 1_555
Gd1 S4 2.880529 1_655
Gd1 S2 2.924994 1_655
Gd1 S2 2.924994 1_555
Gd1 S9 3.018406 1_555
Gd1 S6 3.119452 1_545
Gd2 S2 2.761008 1_655
Gd2 S2 2.761008 1_555
Gd2 S11 2.880529 1_655
Gd2 S11 2.880529 1_555
Gd2 S1 2.924994 1_565
Gd2 S1 2.924994 1_665
Gd2 S6 3.018407 1_555
Gd2 S9 3.119453 1_555
Gd3 S8 2.761015 1_555
Gd3 S8 2.761015 1_455
Gd3 S5 2.880529 1_455
Gd3 S5 2.880529 1_555
Gd3 S7 2.924993 1_545
Gd3 S7 2.924993 1_445
Gd3 S10 3.018407 1_555
Gd3 S3 3.119453 1_555
Gd4 S6 2.756039 1_455
Gd4 S6 2.756039 1_555
Gd4 S0 2.800000 1_555
Gd4 S0 2.800000 1_455
Gd4 S2 2.819473 1_555
Gd4 S4 2.910719 1_555
Gd4 S10 2.921404 1_565
Gd5 S9 2.756045 1_455
Gd5 S9 2.756045 1_555
Gd5 S5 2.799991 1_554
Gd5 S5 2.799991 1_454
Gd5 S1 2.819487 1_555
Gd5 S11 2.910721 1_545
Gd5 S3 2.921392 1_554
Gd6 S10 2.756039 1_655
Gd6 S10 2.756039 1_555
Gd6 S4 2.800000 1_655
Gd6 S4 2.800000 1_555
Gd6 S8 2.819458 1_555
Gd6 S0 2.910719 1_555
Gd6 S6 2.921404 1_545
Gd7 S3 2.756045 1_555
Gd7 S3 2.756045 1_655
Gd7 S11 2.799991 1_656
Gd7 S11 2.799991 1_556
Gd7 S7 2.819472 1_555
Gd7 S5 2.910721 1_565
Gd7 S9 2.921392 1_556
