# generated using pymatgen
data_Ti45Se16
_symmetry_space_group_name_H-M   'P 1'
_cell_length_a   3.46536314
_cell_length_b   16.45968269
_cell_length_c   17.78670843
_cell_angle_alpha   91.56831077
_cell_angle_beta   95.59008840
_cell_angle_gamma   90.00577845
_symmetry_Int_Tables_number   1
_chemical_formula_structural   Ti45Se16
_chemical_formula_sum   'Ti45 Se16'
_cell_volume   1009.32512817
_cell_formula_units_Z   1
loop_
 _symmetry_equiv_pos_site_id
 _symmetry_equiv_pos_as_xyz
  1  'x, y, z'
loop_
 _atom_site_type_symbol
 _atom_site_label
 _atom_site_symmetry_multiplicity
 _atom_site_fract_x
 _atom_site_fract_y
 _atom_site_fract_z
 _atom_site_occupancy
  Ti  Ti0  1  0.27208200  0.34364200  0.54403800  1
  Ti  Ti1  1  0.65862400  0.93246500  0.31500700  1
  Ti  Ti2  1  0.64801100  0.53029300  0.28766800  1
  Ti  Ti3  1  0.62268100  0.33274100  0.24310900  1
  Ti  Ti4  1  0.44085300  0.44065700  0.88093400  1
  Ti  Ti5  1  0.35854800  0.47006800  0.71307800  1
  Ti  Ti6  1  0.38116900  0.66789600  0.75651100  1
  Ti  Ti7  1  0.47338300  0.63172100  0.94227000  1
  Ti  Ti8  1  0.56785100  0.16572500  0.13417500  1
  Ti  Ti9  1  0.96564800  0.95520800  0.92648700  1
  Ti  Ti10  1  0.73343600  0.65796400  0.45605300  1
  Ti  Ti11  1  0.56169200  0.55887200  0.11884200  1
  Ti  Ti12  1  0.69781800  0.09988200  0.40099700  1
  Ti  Ti13  1  0.13437800  0.06622000  0.26846200  1
  Ti  Ti14  1  0.74024600  0.86088200  0.47348600  1
  Ti  Ti15  1  0.30271700  0.90080400  0.59898600  1
  Ti  Ti16  1  0.78208700  0.01970200  0.56196700  1
  Ti  Ti17  1  0.18493800  0.25136500  0.37278800  1
  Ti  Ti18  1  0.78202400  0.48562200  0.55900700  1
  Ti  Ti19  1  0.18394700  0.79553000  0.35979900  1
  Ti  Ti20  1  0.26202800  0.13976700  0.52653300  1
  Ti  Ti21  1  0.99481900  0.79626500  0.98615000  1
  Ti  Ti22  1  0.09235700  0.87505600  0.17863300  1
  Ti  Ti23  1  0.00076900  0.50012100  0.99966900  1
  Ti  Ti24  1  0.89765300  0.33638800  0.79390600  1
  Ti  Ti25  1  0.91276100  0.12526300  0.82108100  1
  Ti  Ti26  1  0.91565800  0.55066400  0.82750400  1
  Ti  Ti27  1  0.08822300  0.44943000  0.17296700  1
  Ti  Ti28  1  0.52320100  0.90882200  0.04239000  1
  Ti  Ti29  1  0.43500200  0.83447500  0.86573800  1
  Ti  Ti30  1  0.52890400  0.36870900  0.05775600  1
  Ti  Ti31  1  0.55473100  0.75387600  0.10471800  1
  Ti  Ti32  1  0.29322100  0.61464900  0.57961400  1
  Ti  Ti33  1  0.10667200  0.66332300  0.20611600  1
  Ti  Ti34  1  0.82145800  0.20570600  0.63997500  1
  Ti  Ti35  1  0.44731500  0.24611000  0.89512600  1
  Ti  Ti36  1  0.00737300  0.20353000  0.01351700  1
  Ti  Ti37  1  0.86831300  0.93469200  0.73016900  1
  Ti  Ti38  1  0.71170600  0.38629000  0.42064900  1
  Ti  Ti39  1  0.22361700  0.51547600  0.44090400  1
  Ti  Ti40  1  0.34497400  0.06876500  0.68385300  1
  Ti  Ti41  1  0.21880900  0.98060700  0.43720000  1
  Ti  Ti42  1  0.48025000  0.09133500  0.95644000  1
  Ti  Ti43  1  0.81795800  0.74945000  0.62775000  1
  Ti  Ti44  1  0.03841700  0.04504200  0.07239500  1
  Se  Se0  1  0.02939500  0.65024100  0.05400500  1
  Se  Se1  1  0.17961600  0.63639400  0.34717000  1
  Se  Se2  1  0.37648100  0.21850200  0.74989100  1
  Se  Se3  1  0.63873600  0.18435200  0.27897900  1
  Se  Se4  1  0.97262300  0.34958000  0.94617200  1
  Se  Se5  1  0.26359900  0.75832300  0.51852100  1
  Se  Se6  1  0.58943700  0.99788100  0.17486100  1
  Se  Se7  1  0.07087300  0.28887300  0.14050700  1
  Se  Se8  1  0.36423900  0.81654500  0.72109600  1
  Se  Se9  1  0.16150500  0.41538100  0.31854400  1
  Se  Se10  1  0.84372000  0.58473400  0.68175200  1
  Se  Se11  1  0.62898100  0.78187900  0.24991900  1
  Se  Se12  1  0.82739400  0.36468000  0.65301200  1
  Se  Se13  1  0.73946300  0.24264600  0.48207300  1
  Se  Se14  1  0.41465500  0.00271300  0.82380700  1
  Se  Se15  1  0.93200900  0.71122800  0.85915300  1
loop_
_geom_bond_atom_site_label_1
_geom_bond_atom_site_label_2
_geom_bond_distance
_geom_bond_site_symmetry_2
Ti1 Ti41 2.864174 1_655
Ti1 Ti41 2.868080 1_555
Ti12 Ti41 2.702055 1_545
Ti12 Ti41 2.715122 1_645
Ti14 Ti41 2.706975 1_655
Ti14 Ti41 2.721805 1_555
Ti15 Ti16 2.702966 1_565
Ti15 Ti16 2.712625 1_465
Ti16 Ti20 2.709350 1_655
Ti16 Ti20 2.719967 1_555
Ti16 Ti40 2.861965 1_555
Ti16 Ti41 2.864547 1_645
Ti16 Ti41 2.868226 1_545
Ti16 Ti40 2.870021 1_655
Se0 Ti31 2.575416 1_555
Se0 Ti31 2.575739 1_455
Se0 Ti11 2.583660 1_555
Se0 Ti11 2.584016 1_455
Se0 Ti23 2.626770 1_554
Se0 Ti7 2.640559 1_554
Se0 Ti7 2.641186 1_454
Se0 Ti33 2.695375 1_555
Se0 Ti21 2.716345 1_454
Se1 Ti33 2.547982 1_555
Se1 Ti10 2.607322 1_555
Se1 Ti10 2.610221 1_455
Se1 Ti19 2.622726 1_555
Se1 Ti39 2.626065 1_555
Se1 Ti2 2.653053 1_555
Se1 Ti2 2.661207 1_455
Se2 Ti35 2.598486 1_555
Se2 Ti34 2.609443 1_555
Se2 Ti34 2.609724 1_455
Se2 Ti25 2.653906 1_455
Se2 Ti25 2.657212 1_555
Se2 Ti24 2.698226 1_555
Se2 Ti40 2.698605 1_555
Se2 Ti24 2.702189 1_455
Se3 Ti3 2.540483 1_555
Se3 Ti8 2.573225 1_555
Se3 Ti12 2.600739 1_555
Se3 Ti13 2.605034 1_555
Se3 Ti13 2.609441 1_655
Se3 Ti17 2.620478 1_655
Se3 Ti17 2.623834 1_555
Se4 Ti35 2.575146 1_555
Se4 Ti35 2.576375 1_655
Se4 Ti4 2.582395 1_555
Se4 Ti4 2.586132 1_655
Se4 Ti23 2.628216 1_655
Se4 Ti30 2.638754 1_556
Se4 Ti30 2.640946 1_656
Se4 Ti24 2.698205 1_555
Se4 Ti36 2.712531 1_656
Se5 Ti14 2.559453 1_555
Se5 Ti14 2.563604 1_455
Se5 Ti43 2.602847 1_555
Se5 Ti43 2.603996 1_455
Se5 Ti10 2.615302 1_455
Se5 Ti10 2.620430 1_555
Se5 Ti32 2.627303 1_555
Se5 Ti15 2.710179 1_555
Se5 Ti19 2.892098 1_555
Se6 Ti13 2.624439 1_665
Se6 Ti13 2.633075 1_565
Se6 Ti44 2.640089 1_565
Se6 Ti44 2.640946 1_665
Se6 Ti22 2.662343 1_555
Se6 Ti22 2.667268 1_655
Se6 Ti28 2.731079 1_555
Se6 Ti1 2.731499 1_555
Se6 Ti8 2.874110 1_565
Se7 Ti3 2.596995 1_455
Se7 Ti3 2.599250 1_555
Se7 Ti36 2.617817 1_555
Se7 Ti30 2.640668 1_555
Se7 Ti30 2.643546 1_455
Se7 Ti8 2.666167 1_455
Se7 Ti8 2.667081 1_555
Se7 Ti27 2.688977 1_555
Se8 Ti6 2.542409 1_555
Se8 Ti29 2.569350 1_555
Se8 Ti15 2.600175 1_555
Se8 Ti37 2.605049 1_555
Se8 Ti37 2.607440 1_455
Se8 Ti43 2.616644 1_455
Se8 Ti43 2.618582 1_555
Se9 Ti3 2.553985 1_555
Se9 Ti38 2.556564 1_555
Se9 Ti3 2.559003 1_455
Se9 Ti38 2.560486 1_455
Se9 Ti2 2.629186 1_455
Se9 Ti2 2.637797 1_555
Se9 Ti27 2.652281 1_555
Se9 Ti39 2.685093 1_555
Se9 Ti17 2.890147 1_555
Se10 Ti6 2.554835 1_555
Se10 Ti6 2.554981 1_655
Se10 Ti32 2.560478 1_555
Se10 Ti32 2.563074 1_655
Se10 Ti5 2.630604 1_655
Se10 Ti5 2.634160 1_555
Se10 Ti26 2.655392 1_555
Se10 Ti18 2.680960 1_555
Se10 Ti43 2.899467 1_555
Se11 Ti31 2.598860 1_555
Se11 Ti19 2.609946 1_555
Se11 Ti19 2.610045 1_655
Se11 Ti22 2.653469 1_655
Se11 Ti22 2.658112 1_555
Se11 Ti1 2.704438 1_555
Se11 Ti33 2.706272 1_655
Se11 Ti33 2.707832 1_555
Se12 Ti24 2.549785 1_555
Se12 Ti0 2.607078 1_655
Se12 Ti0 2.610838 1_555
Se12 Ti34 2.620488 1_555
Se12 Ti18 2.629492 1_555
Se12 Ti5 2.650937 1_555
Se12 Ti5 2.655788 1_655
Se13 Ti20 2.560814 1_555
Se13 Ti20 2.562619 1_655
Se13 Ti17 2.603710 1_555
Se13 Ti17 2.604223 1_655
Se13 Ti0 2.617149 1_555
Se13 Ti0 2.624431 1_655
Se13 Ti38 2.629433 1_555
Se13 Ti12 2.719578 1_555
Se13 Ti34 2.876882 1_555
Se14 Ti37 2.625853 1_445
Se14 Ti37 2.628175 1_545
Se14 Ti9 2.644196 1_545
Se14 Ti9 2.645659 1_445
Se14 Ti25 2.659252 1_555
Se14 Ti25 2.661914 1_455
Se14 Ti42 2.729820 1_555
Se14 Ti40 2.732784 1_555
Se14 Ti29 2.886557 1_545
Se15 Ti6 2.595189 1_555
Se15 Ti6 2.597500 1_655
Se15 Ti21 2.615343 1_555
Se15 Ti7 2.642695 1_655
Se15 Ti7 2.643353 1_555
Se15 Ti29 2.667153 1_655
Se15 Ti29 2.668766 1_555
Se15 Ti26 2.686445 1_555
