# generated using pymatgen
data_TiTl2W
_symmetry_space_group_name_H-M   'P 1'
_cell_length_a   4.80297190
_cell_length_b   4.80297190
_cell_length_c   4.80297190
_cell_angle_alpha   60.00000000
_cell_angle_beta   60.00000000
_cell_angle_gamma   60.00000000
_symmetry_Int_Tables_number   1
_chemical_formula_structural   TiTl2W
_chemical_formula_sum   'Ti1 Tl2 W1'
_cell_volume   78.34569534
_cell_formula_units_Z   1
loop_
 _symmetry_equiv_pos_site_id
 _symmetry_equiv_pos_as_xyz
  1  'x, y, z'
loop_
 _atom_site_type_symbol
 _atom_site_label
 _atom_site_symmetry_multiplicity
 _atom_site_fract_x
 _atom_site_fract_y
 _atom_site_fract_z
 _atom_site_occupancy
  Ti  Ti0  1  0.00000000  0.00000000  0.00000000  1
  Tl  Tl0  1  0.75000000  0.75000000  0.75000000  1
  Tl  Tl1  1  0.25000000  0.25000000  0.25000000  1
  W  W0  1  0.50000000  0.50000000  0.50000000  1
loop_
_geom_bond_atom_site_label_1
_geom_bond_atom_site_label_2
_geom_bond_distance
_geom_bond_site_symmetry_2
Ti0 Tl0 2.941208 1_454
Ti0 Tl1 2.941208 1_455
Ti0 Tl1 2.941208 1_545
Ti0 Tl0 2.941208 1_544
Ti0 Tl1 2.941208 1_554
Ti0 Tl1 2.941208 1_555
Ti0 Tl0 2.941208 1_444
Ti0 Tl0 2.941208 1_445
Tl0 W0 2.941208 1_655
Tl0 W0 2.941208 1_565
Tl0 W0 2.941208 1_556
Tl0 W0 2.941208 1_555
Tl1 W0 2.941208 1_545
Tl1 W0 2.941208 1_455
Tl1 W0 2.941208 1_554
Tl1 W0 2.941208 1_555
