# generated using pymatgen
data_BaPrO3
_symmetry_space_group_name_H-M   'P 1'
_cell_length_a   6.45386726
_cell_length_b   6.45386726
_cell_length_c   6.45386726
_cell_angle_alpha   120.25321868
_cell_angle_beta   119.90537239
_cell_angle_gamma   89.86297550
_symmetry_Int_Tables_number   1
_chemical_formula_structural   BaPrO3
_chemical_formula_sum   'Ba2 Pr2 O6'
_cell_volume   189.85318607
_cell_formula_units_Z   2
loop_
 _symmetry_equiv_pos_site_id
 _symmetry_equiv_pos_as_xyz
  1  'x, y, z'
loop_
 _atom_site_type_symbol
 _atom_site_label
 _atom_site_symmetry_multiplicity
 _atom_site_fract_x
 _atom_site_fract_y
 _atom_site_fract_z
 _atom_site_occupancy
  Ba  Ba0  1  0.23077200  0.25000000  0.98077200  1
  Ba  Ba1  1  0.76922800  0.75000000  0.01922800  1
  Pr  Pr0  1  0.50000000  0.00000000  0.50000000  1
  Pr  Pr1  1  0.00000000  0.50000000  0.50000000  1
  O  O0  1  0.81069400  0.81069400  0.50000000  1
  O  O1  1  0.18930600  0.68930600  0.00000000  1
  O  O2  1  0.18930600  0.18930600  0.50000000  1
  O  O3  1  0.81069400  0.31069400  0.00000000  1
  O  O4  1  0.35119000  0.75000000  0.60119000  1
  O  O5  1  0.64881000  0.25000000  0.39881000  1
loop_
_geom_bond_atom_site_label_1
_geom_bond_atom_site_label_2
_geom_bond_distance
_geom_bond_site_symmetry_2
Ba0 O5 2.701820 1_556
Ba0 O1 2.792931 1_556
Ba0 O3 2.792931 1_456
Ba0 O2 2.792931 1_555
Ba0 O0 2.792931 1_445
Ba0 O4 3.307446 1_556
Ba0 O4 3.307446 1_545
Ba1 O4 2.701820 1_554
Ba1 O0 2.792931 1_555
Ba1 O2 2.792931 1_665
Ba1 O3 2.792931 1_555
Ba1 O1 2.792931 1_655
Ba1 O5 3.307446 1_565
Ba1 O5 3.307446 1_554
O0 Pr0 2.345572 1_565
O0 Pr1 2.345572 1_655
O1 Pr1 2.345572 1_554
O1 Pr0 2.345572 1_565
O2 Pr1 2.345572 1_555
O2 Pr0 2.345572 1_555
O3 Pr0 2.345572 1_554
O3 Pr1 2.345572 1_655
O4 Pr0 2.376283 1_565
O4 Pr1 2.376283 1_555
O5 Pr0 2.376283 1_555
O5 Pr1 2.376283 1_655
