# generated using pymatgen
data_Mg(Mo3Se4)2
_symmetry_space_group_name_H-M   'P 1'
_cell_length_a   6.83772700
_cell_length_b   6.85579970
_cell_length_c   13.66240323
_cell_angle_alpha   90.79340225
_cell_angle_beta   94.33812148
_cell_angle_gamma   94.47281537
_symmetry_Int_Tables_number   1
_chemical_formula_structural   Mg(Mo3Se4)2
_chemical_formula_sum   'Mg2 Mo12 Se16'
_cell_volume   636.56179724
_cell_formula_units_Z   2
loop_
 _symmetry_equiv_pos_site_id
 _symmetry_equiv_pos_as_xyz
  1  'x, y, z'
loop_
 _atom_site_type_symbol
 _atom_site_label
 _atom_site_symmetry_multiplicity
 _atom_site_fract_x
 _atom_site_fract_y
 _atom_site_fract_z
 _atom_site_occupancy
  Mg  Mg0  1  0.11666900  0.91675300  0.74841800  1
  Mg  Mg1  1  0.88333100  0.08324700  0.25158200  1
  Mo  Mo0  1  0.23074400  0.41123300  0.52146400  1
  Mo  Mo1  1  0.23619100  0.41326000  0.02339300  1
  Mo  Mo2  1  0.41295500  0.55160000  0.36842200  1
  Mo  Mo3  1  0.45634000  0.76588500  0.54057200  1
  Mo  Mo4  1  0.41722900  0.55207400  0.86706500  1
  Mo  Mo5  1  0.45704800  0.76646500  0.03985400  1
  Mo  Mo6  1  0.54366000  0.23411500  0.45942800  1
  Mo  Mo7  1  0.58704500  0.44840000  0.63157800  1
  Mo  Mo8  1  0.54295200  0.23353500  0.96014600  1
  Mo  Mo9  1  0.58277100  0.44792600  0.13293500  1
  Mo  Mo10  1  0.76925600  0.58876700  0.47853600  1
  Mo  Mo11  1  0.76380900  0.58674000  0.97660700  1
  Se  Se0  1  0.13166100  0.73399900  0.43506100  1
  Se  Se1  1  0.12861400  0.73842800  0.93357500  1
  Se  Se2  1  0.26860400  0.60913600  0.68170400  1
  Se  Se3  1  0.21135200  0.21562900  0.35889400  1
  Se  Se4  1  0.27167300  0.61942500  0.18256400  1
  Se  Se5  1  0.20792100  0.22690300  0.85819800  1
  Se  Se6  1  0.37052100  0.11985300  0.61849200  1
  Se  Se7  1  0.37493800  0.11885800  0.11826700  1
  Se  Se8  1  0.62947900  0.88014700  0.38150800  1
  Se  Se9  1  0.62506200  0.88114200  0.88173300  1
  Se  Se10  1  0.78864800  0.78437100  0.64110600  1
  Se  Se11  1  0.73139600  0.39086400  0.31829600  1
  Se  Se12  1  0.79207900  0.77309700  0.14180200  1
  Se  Se13  1  0.72832700  0.38057500  0.81743600  1
  Se  Se14  1  0.86833900  0.26600100  0.56493900  1
  Se  Se15  1  0.87138600  0.26157200  0.06642500  1
loop_
_geom_bond_atom_site_label_1
_geom_bond_atom_site_label_2
_geom_bond_distance
_geom_bond_site_symmetry_2
Mg0 Se5 2.592938 1_565
Mg0 Se2 2.605675 1_555
Mg0 Se10 2.674344 1_455
Mg0 Se1 2.823229 1_555
Mg0 Se6 2.874076 1_565
Mg1 Se12 2.592938 1_545
Mg1 Se11 2.605675 1_555
Mg1 Se3 2.674344 1_655
Mg1 Se15 2.823229 1_555
Mg1 Se8 2.874076 1_545
Mo0 Se2 2.545185 1_555
Mo0 Se3 2.567959 1_555
Mo0 Se6 2.615495 1_555
Mo0 Se0 2.633301 1_555
Mo0 Se14 2.709062 1_455
Mo1 Se4 2.562683 1_555
Mo1 Se5 2.564993 1_554
Mo1 Se7 2.615162 1_555
Mo1 Se1 2.685445 1_554
Mo1 Se15 2.735606 1_455
Mo2 Se3 2.586881 1_555
Mo2 Se0 2.588570 1_555
Mo2 Se8 2.593481 1_555
Mo2 Se11 2.646398 1_555
Mo2 Se4 2.707213 1_555
Mo3 Se0 2.546748 1_555
Mo3 Se10 2.558086 1_555
Mo3 Se2 2.595641 1_555
Mo3 Se8 2.651362 1_555
Mo3 Se6 2.758943 1_565
Mo4 Se5 2.549793 1_555
Mo4 Se9 2.567818 1_555
Mo4 Se13 2.636929 1_555
Mo4 Se1 2.642910 1_555
Mo4 Se2 2.701731 1_555
Mo5 Se1 2.572996 1_554
Mo5 Se4 2.579433 1_555
Mo5 Se12 2.586385 1_555
Mo5 Se9 2.624216 1_554
Mo5 Se7 2.744185 1_565
Mo6 Se14 2.546748 1_555
Mo6 Se3 2.558086 1_555
Mo6 Se11 2.595641 1_555
Mo6 Se6 2.651362 1_555
Mo6 Se8 2.758943 1_545
Mo7 Se10 2.586881 1_555
Mo7 Se14 2.588570 1_555
Mo7 Se6 2.593481 1_555
Mo7 Se2 2.646398 1_555
Mo7 Se13 2.707213 1_555
Mo8 Se15 2.572996 1_556
Mo8 Se13 2.579433 1_555
Mo8 Se5 2.586385 1_555
Mo8 Se7 2.624216 1_556
Mo8 Se9 2.744185 1_545
Mo9 Se12 2.549793 1_555
Mo9 Se7 2.567818 1_555
Mo9 Se4 2.636929 1_555
Mo9 Se15 2.642910 1_555
Mo9 Se11 2.701731 1_555
Mo10 Se11 2.545185 1_555
Mo10 Se10 2.567959 1_555
Mo10 Se8 2.615495 1_555
Mo10 Se14 2.633301 1_555
Mo10 Se0 2.709062 1_655
Mo11 Se13 2.562683 1_555
Mo11 Se12 2.564993 1_556
Mo11 Se9 2.615162 1_555
Mo11 Se15 2.685445 1_556
Mo11 Se1 2.735606 1_655
