# generated using pymatgen
data_BaPHO4
_symmetry_space_group_name_H-M   'P 1'
_cell_length_a   4.63737800
_cell_length_b   14.37609400
_cell_length_c   17.48109300
_cell_angle_alpha   90.00000000
_cell_angle_beta   90.00000000
_cell_angle_gamma   90.00000000
_symmetry_Int_Tables_number   1
_chemical_formula_structural   BaPHO4
_chemical_formula_sum   'Ba12 P12 H12 O48'
_cell_volume   1165.41870553
_cell_formula_units_Z   12
loop_
 _symmetry_equiv_pos_site_id
 _symmetry_equiv_pos_as_xyz
  1  'x, y, z'
loop_
 _atom_site_type_symbol
 _atom_site_label
 _atom_site_symmetry_multiplicity
 _atom_site_fract_x
 _atom_site_fract_y
 _atom_site_fract_z
 _atom_site_occupancy
  Ba  Ba0  1  0.35968600  0.39785300  0.25000000  1
  Ba  Ba1  1  0.14031400  0.89785300  0.25000000  1
  Ba  Ba2  1  0.64031400  0.60214700  0.75000000  1
  Ba  Ba3  1  0.85968600  0.10214700  0.75000000  1
  Ba  Ba4  1  0.80013200  0.60276700  0.41368000  1
  Ba  Ba5  1  0.69986800  0.10276700  0.08632000  1
  Ba  Ba6  1  0.19986800  0.39723300  0.91368000  1
  Ba  Ba7  1  0.30013200  0.89723300  0.58632000  1
  Ba  Ba8  1  0.19986800  0.39723300  0.58632000  1
  Ba  Ba9  1  0.30013200  0.89723300  0.91368000  1
  Ba  Ba10  1  0.80013200  0.60276700  0.08632000  1
  Ba  Ba11  1  0.69986800  0.10276700  0.41368000  1
  P  P0  1  0.25537500  0.13316500  0.25000000  1
  P  P1  1  0.24462500  0.63316500  0.25000000  1
  P  P2  1  0.74462500  0.86683500  0.75000000  1
  P  P3  1  0.75537500  0.36683500  0.75000000  1
  P  P4  1  0.77105600  0.35913300  0.41702900  1
  P  P5  1  0.72894400  0.85913300  0.08297100  1
  P  P6  1  0.22894400  0.64086700  0.91702900  1
  P  P7  1  0.27105600  0.14086700  0.58297100  1
  P  P8  1  0.22894400  0.64086700  0.58297100  1
  P  P9  1  0.27105600  0.14086700  0.91702900  1
  P  P10  1  0.77105600  0.35913300  0.08297100  1
  P  P11  1  0.72894400  0.85913300  0.41702900  1
  H  H0  1  0.22234600  0.29325000  0.42134700  1
  H  H1  1  0.27765400  0.79325000  0.07865300  1
  H  H2  1  0.77765400  0.70675000  0.92134700  1
  H  H3  1  0.72234600  0.20675000  0.57865300  1
  H  H4  1  0.77765400  0.70675000  0.57865300  1
  H  H5  1  0.72234600  0.20675000  0.92134700  1
  H  H6  1  0.22234600  0.29325000  0.07865300  1
  H  H7  1  0.27765400  0.79325000  0.42134700  1
  H  H8  1  0.85952900  0.21329500  0.25000000  1
  H  H9  1  0.64047100  0.71329500  0.25000000  1
  H  H10  1  0.14047100  0.78670500  0.75000000  1
  H  H11  1  0.35952900  0.28670500  0.75000000  1
  O  O0  1  0.87706500  0.41759300  0.34847400  1
  O  O1  1  0.62293500  0.91759300  0.15152600  1
  O  O2  1  0.12293500  0.58240700  0.84847400  1
  O  O3  1  0.37706500  0.08240700  0.65152600  1
  O  O4  1  0.12293500  0.58240700  0.65152600  1
  O  O5  1  0.37706500  0.08240700  0.84847400  1
  O  O6  1  0.87706500  0.41759300  0.15152600  1
  O  O7  1  0.62293500  0.91759300  0.34847400  1
  O  O8  1  0.17742500  0.07803800  0.32276500  1
  O  O9  1  0.32257500  0.57803800  0.17723500  1
  O  O10  1  0.82257500  0.92196200  0.82276500  1
  O  O11  1  0.67742500  0.42196200  0.67723500  1
  O  O12  1  0.82257500  0.92196200  0.67723500  1
  O  O13  1  0.67742500  0.42196200  0.82276500  1
  O  O14  1  0.17742500  0.07803800  0.17723500  1
  O  O15  1  0.32257500  0.57803800  0.32276500  1
  O  O16  1  0.71213700  0.42094300  0.48706600  1
  O  O17  1  0.78786300  0.92094300  0.01293400  1
  O  O18  1  0.28786300  0.57905700  0.98706600  1
  O  O19  1  0.21213700  0.07905700  0.51293400  1
  O  O20  1  0.28786300  0.57905700  0.51293400  1
  O  O21  1  0.21213700  0.07905700  0.98706600  1
  O  O22  1  0.71213700  0.42094300  0.01293400  1
  O  O23  1  0.78786300  0.92094300  0.48706600  1
  O  O24  1  0.51110200  0.29872600  0.39169700  1
  O  O25  1  0.98889800  0.79872600  0.10830300  1
  O  O26  1  0.48889800  0.70127400  0.89169700  1
  O  O27  1  0.01110200  0.20127400  0.60830300  1
  O  O28  1  0.48889800  0.70127400  0.60830300  1
  O  O29  1  0.01110200  0.20127400  0.89169700  1
  O  O30  1  0.51110200  0.29872600  0.10830300  1
  O  O31  1  0.98889800  0.79872600  0.39169700  1
  O  O32  1  0.01242400  0.28525300  0.44293000  1
  O  O33  1  0.48757600  0.78525300  0.05707000  1
  O  O34  1  0.98757600  0.71474700  0.94293000  1
  O  O35  1  0.51242400  0.21474700  0.55707000  1
  O  O36  1  0.98757600  0.71474700  0.55707000  1
  O  O37  1  0.51242400  0.21474700  0.94293000  1
  O  O38  1  0.01242400  0.28525300  0.05707000  1
  O  O39  1  0.48757600  0.78525300  0.44293000  1
  O  O40  1  0.57323600  0.16152700  0.25000000  1
  O  O41  1  0.92676400  0.66152700  0.25000000  1
  O  O42  1  0.42676400  0.83847300  0.75000000  1
  O  O43  1  0.07323600  0.33847300  0.75000000  1
  O  O44  1  0.07389200  0.22898200  0.25000000  1
  O  O45  1  0.42610800  0.72898200  0.25000000  1
  O  O46  1  0.92610800  0.77101800  0.75000000  1
  O  O47  1  0.57389200  0.27101800  0.75000000  1
loop_
_geom_bond_atom_site_label_1
_geom_bond_atom_site_label_2
_geom_bond_distance
_geom_bond_site_symmetry_2
Ba0 O44 2.765911 1_555
Ba0 O6 2.837770 1_455
Ba0 O0 2.837770 1_455
Ba0 O15 2.890948 1_555
Ba0 O9 2.890948 1_555
Ba0 O24 2.942696 1_555
Ba0 O30 2.942696 1_555
Ba0 O0 2.966550 1_555
Ba0 O6 2.966550 1_555
Ba1 O45 2.765911 1_555
Ba1 O7 2.837770 1_555
Ba1 O1 2.837770 1_555
Ba1 O8 2.890948 1_565
Ba1 O14 2.890948 1_565
Ba1 O31 2.942696 1_455
Ba1 O25 2.942696 1_455
Ba1 O7 2.966550 1_455
Ba1 O1 2.966550 1_455
Ba2 O46 2.765911 1_555
Ba2 O2 2.837770 1_655
Ba2 O4 2.837770 1_655
Ba2 O13 2.890948 1_555
Ba2 O11 2.890948 1_555
Ba2 O26 2.942696 1_555
Ba2 O28 2.942696 1_555
Ba2 O2 2.966550 1_555
Ba2 O4 2.966550 1_555
Ba3 O47 2.765911 1_555
Ba3 O5 2.837770 1_555
Ba3 O3 2.837770 1_555
Ba3 O10 2.890948 1_545
Ba3 O12 2.890948 1_545
Ba3 O29 2.942696 1_655
Ba3 O27 2.942696 1_655
Ba3 O5 2.966550 1_655
Ba3 O3 2.966550 1_655
Ba4 O15 2.748954 1_555
Ba4 O20 2.870950 1_655
Ba4 O0 2.917748 1_555
Ba4 O15 2.919252 1_655
Ba4 O16 2.940211 1_555
Ba4 O20 2.961427 1_555
Ba4 O31 2.974922 1_555
Ba4 O39 3.040517 1_555
Ba4 O41 3.040642 1_555
Ba4 O36 3.103269 1_555
Ba5 O14 2.748954 1_655
Ba5 O21 2.870950 1_554
Ba5 O1 2.917748 1_545
Ba5 O14 2.919252 1_555
Ba5 O17 2.940211 1_545
Ba5 O21 2.961427 1_654
Ba5 O30 2.974922 1_555
Ba5 O38 3.040517 1_655
Ba5 O40 3.040642 1_555
Ba5 O37 3.103269 1_554
Ba6 O13 2.748954 1_555
Ba6 O22 2.870950 1_456
Ba6 O2 2.917748 1_555
Ba6 O13 2.919252 1_455
Ba6 O18 2.940211 1_555
Ba6 O22 2.961427 1_556
Ba6 O29 2.974922 1_555
Ba6 O37 3.040517 1_555
Ba6 O43 3.040642 1_555
Ba6 O38 3.103269 1_556
Ba7 O12 2.748954 1_455
Ba7 O23 2.870950 1_555
Ba7 O3 2.917748 1_565
Ba7 O12 2.919252 1_555
Ba7 O19 2.940211 1_565
Ba7 O23 2.961427 1_455
Ba7 O28 2.974922 1_555
Ba7 O36 3.040517 1_455
Ba7 O42 3.040642 1_555
Ba7 O39 3.103269 1_555
Ba8 O11 2.748954 1_555
Ba8 O16 2.870950 1_455
Ba8 O4 2.917748 1_555
Ba8 O11 2.919252 1_455
Ba8 O20 2.940211 1_555
Ba8 O16 2.961427 1_555
Ba8 O27 2.974922 1_555
Ba8 O35 3.040517 1_555
Ba8 O43 3.040642 1_555
Ba8 O32 3.103269 1_555
Ba9 O10 2.748954 1_455
Ba9 O17 2.870950 1_556
Ba9 O5 2.917748 1_565
Ba9 O10 2.919252 1_555
Ba9 O21 2.940211 1_565
Ba9 O17 2.961427 1_456
Ba9 O26 2.974922 1_555
Ba9 O34 3.040517 1_455
Ba9 O42 3.040642 1_555
Ba9 O33 3.103269 1_556
Ba10 O9 2.748954 1_555
Ba10 O18 2.870950 1_654
Ba10 O6 2.917748 1_555
Ba10 O9 2.919252 1_655
Ba10 O22 2.940211 1_555
Ba10 O18 2.961427 1_554
Ba10 O25 2.974922 1_555
Ba10 O33 3.040517 1_555
Ba10 O41 3.040642 1_555
Ba10 O34 3.103269 1_554
Ba11 O8 2.748954 1_655
Ba11 O19 2.870950 1_555
Ba11 O7 2.917748 1_545
Ba11 O8 2.919252 1_555
Ba11 O23 2.940211 1_545
Ba11 O19 2.961427 1_655
Ba11 O24 2.974922 1_555
Ba11 O32 3.040517 1_655
Ba11 O40 3.040642 1_555
Ba11 O35 3.103269 1_555
H0 O32 1.050355 1_555
H0 O24 1.438040 1_555
H1 O33 1.050355 1_555
H1 O25 1.438040 1_455
H2 O34 1.050355 1_555
H2 O26 1.438040 1_555
H3 O35 1.050355 1_555
H3 O27 1.438040 1_655
H4 O36 1.050355 1_555
H4 O28 1.438040 1_555
H5 O37 1.050355 1_555
H5 O29 1.438040 1_655
H6 O38 1.050355 1_555
H6 O30 1.438040 1_555
H7 O39 1.050355 1_555
H7 O31 1.438040 1_455
H8 O44 1.019342 1_655
H8 O40 1.522011 1_555
H9 O45 1.019342 1_555
H9 O41 1.522011 1_555
H10 O46 1.019342 1_455
H10 O42 1.522011 1_555
H11 O47 1.019342 1_555
H11 O43 1.522011 1_555
O0 P4 1.544083 1_555
O1 P5 1.544083 1_555
O2 P6 1.544083 1_555
O3 P7 1.544083 1_555
O4 P8 1.544083 1_555
O5 P9 1.544083 1_555
O6 P10 1.544083 1_555
O7 P11 1.544083 1_555
O8 P0 1.541674 1_555
O9 P1 1.541674 1_555
O10 P2 1.541674 1_555
O11 P3 1.541674 1_555
O12 P2 1.541674 1_555
O13 P3 1.541674 1_555
O14 P0 1.541674 1_555
O15 P1 1.541674 1_555
O16 P4 1.537273 1_555
O17 P5 1.537273 1_555
O18 P6 1.537273 1_555
O19 P7 1.537273 1_555
O20 P8 1.537273 1_555
O21 P9 1.537273 1_555
O22 P10 1.537273 1_555
O23 P11 1.537273 1_555
O24 P4 1.550319 1_555
O25 P5 1.550319 1_555
O26 P6 1.550319 1_555
O27 P7 1.550319 1_555
O28 P8 1.550319 1_555
O29 P9 1.550319 1_555
O30 P10 1.550319 1_555
O31 P11 1.550319 1_555
O32 P4 1.608086 1_455
O33 P5 1.608086 1_555
O34 P6 1.608086 1_655
O35 P7 1.608086 1_555
O36 P8 1.608086 1_655
O37 P9 1.608086 1_555
O38 P10 1.608086 1_455
O39 P11 1.608086 1_555
O40 P0 1.529394 1_555
O41 P1 1.529394 1_655
O42 P2 1.529394 1_555
O43 P3 1.529394 1_455
O44 P0 1.614229 1_555
O45 P1 1.614229 1_555
O46 P2 1.614229 1_555
O47 P3 1.614229 1_555
