# generated using pymatgen
data_K2ZnCl4
_symmetry_space_group_name_H-M   'P 1'
_cell_length_a   7.36471500
_cell_length_b   12.55918600
_cell_length_c   27.09253500
_cell_angle_alpha   90.00000000
_cell_angle_beta   90.00000000
_cell_angle_gamma   90.00000000
_symmetry_Int_Tables_number   1
_chemical_formula_structural   K2ZnCl4
_chemical_formula_sum   'K24 Zn12 Cl48'
_cell_volume   2505.91929777
_cell_formula_units_Z   12
loop_
 _symmetry_equiv_pos_site_id
 _symmetry_equiv_pos_as_xyz
  1  'x, y, z'
loop_
 _atom_site_type_symbol
 _atom_site_label
 _atom_site_symmetry_multiplicity
 _atom_site_fract_x
 _atom_site_fract_y
 _atom_site_fract_z
 _atom_site_occupancy
  K  K0  1  0.27794400  0.18678200  0.83179500  1
  K  K1  1  0.21335400  0.91881600  0.04305100  1
  K  K2  1  0.77794400  0.68678200  0.66820500  1
  K  K3  1  0.27804200  0.58318800  0.21025800  1
  K  K4  1  0.26178800  0.31419000  0.66584700  1
  K  K5  1  0.73564500  0.41460300  0.12028000  1
  K  K6  1  0.27794400  0.31321800  0.33179500  1
  K  K7  1  0.77794400  0.81321800  0.16820500  1
  K  K8  1  0.23564500  0.58539700  0.87972000  1
  K  K9  1  0.70645400  0.68692300  0.00161100  1
  K  K10  1  0.70645400  0.81307700  0.50161100  1
  K  K11  1  0.20645400  0.31307700  0.99838900  1
  K  K12  1  0.20645400  0.18692300  0.49838900  1
  K  K13  1  0.26178800  0.18581000  0.16584700  1
  K  K14  1  0.73564500  0.08539700  0.62028000  1
  K  K15  1  0.71335400  0.08118400  0.95694900  1
  K  K16  1  0.76178800  0.81419000  0.83415300  1
  K  K17  1  0.76178800  0.68581000  0.33415300  1
  K  K18  1  0.21335400  0.58118400  0.54305100  1
  K  K19  1  0.77804200  0.41681200  0.78974200  1
  K  K20  1  0.71335400  0.41881600  0.45694900  1
  K  K21  1  0.23564500  0.91460300  0.37972000  1
  K  K22  1  0.27804200  0.91681200  0.71025800  1
  K  K23  1  0.77804200  0.08318800  0.28974200  1
  Zn  Zn0  1  0.76352500  0.41796700  0.25964000  1
  Zn  Zn1  1  0.25011800  0.91926700  0.57210700  1
  Zn  Zn2  1  0.25011800  0.58073300  0.07210700  1
  Zn  Zn3  1  0.22045500  0.91768400  0.90488000  1
  Zn  Zn4  1  0.72045500  0.41768400  0.59512000  1
  Zn  Zn5  1  0.76352500  0.08203300  0.75964000  1
  Zn  Zn6  1  0.26352500  0.58203300  0.74036000  1
  Zn  Zn7  1  0.75011800  0.41926700  0.92789300  1
  Zn  Zn8  1  0.75011800  0.08073300  0.42789300  1
  Zn  Zn9  1  0.22045500  0.58231600  0.40488000  1
  Zn  Zn10  1  0.72045500  0.08231600  0.09512000  1
  Zn  Zn11  1  0.26352500  0.91796700  0.24036000  1
  Cl  Cl0  1  0.68681300  0.06337300  0.17709600  1
  Cl  Cl1  1  0.32629700  0.55640800  0.99204200  1
  Cl  Cl2  1  0.49814200  0.13758700  0.72197500  1
  Cl  Cl3  1  0.18488900  0.42131100  0.44434600  1
  Cl  Cl4  1  0.50881500  0.64302000  0.11116700  1
  Cl  Cl5  1  0.99081300  0.34905900  0.56970800  1
  Cl  Cl6  1  0.18324200  0.42480200  0.11244300  1
  Cl  Cl7  1  0.49814200  0.36241300  0.22197500  1
  Cl  Cl8  1  0.00881500  0.35698000  0.88883300  1
  Cl  Cl9  1  0.68324200  0.92480200  0.38755700  1
  Cl  Cl10  1  0.99814200  0.63758700  0.77802500  1
  Cl  Cl11  1  0.83458300  0.92541800  0.72064100  1
  Cl  Cl12  1  0.00107000  0.69383600  0.43514100  1
  Cl  Cl13  1  0.48138400  0.79373400  0.25571100  1
  Cl  Cl14  1  0.52228300  0.30047500  0.91596800  1
  Cl  Cl15  1  0.19554400  0.56411900  0.65942800  1
  Cl  Cl16  1  0.68324200  0.57519800  0.88755700  1
  Cl  Cl17  1  0.82629700  0.44359200  0.00795800  1
  Cl  Cl18  1  0.18488900  0.07868900  0.94434600  1
  Cl  Cl19  1  0.52228300  0.19952500  0.41596800  1
  Cl  Cl20  1  0.00881500  0.14302000  0.38883300  1
  Cl  Cl21  1  0.69554400  0.43588100  0.34057200  1
  Cl  Cl22  1  0.49081300  0.84905900  0.93029200  1
  Cl  Cl23  1  0.18681300  0.93662700  0.82290400  1
  Cl  Cl24  1  0.00107000  0.80616400  0.93514100  1
  Cl  Cl25  1  0.33458300  0.42541800  0.77935900  1
  Cl  Cl26  1  0.68681300  0.43662700  0.67709600  1
  Cl  Cl27  1  0.68488900  0.92131100  0.05565400  1
  Cl  Cl28  1  0.50107000  0.30616400  0.56485900  1
  Cl  Cl29  1  0.48138400  0.70626600  0.75571100  1
  Cl  Cl30  1  0.68488900  0.57868900  0.55565400  1
  Cl  Cl31  1  0.98138400  0.20626600  0.74428900  1
  Cl  Cl32  1  0.19554400  0.93588100  0.15942800  1
  Cl  Cl33  1  0.83458300  0.57458200  0.22064100  1
  Cl  Cl34  1  0.98138400  0.29373400  0.24428900  1
  Cl  Cl35  1  0.99081300  0.15094100  0.06970800  1
  Cl  Cl36  1  0.02228300  0.80047500  0.58403200  1
  Cl  Cl37  1  0.99814200  0.86241300  0.27802500  1
  Cl  Cl38  1  0.50881500  0.85698000  0.61116700  1
  Cl  Cl39  1  0.82629700  0.05640800  0.50795800  1
  Cl  Cl40  1  0.33458300  0.07458200  0.27935900  1
  Cl  Cl41  1  0.18324200  0.07519800  0.61244300  1
  Cl  Cl42  1  0.69554400  0.06411900  0.84057200  1
  Cl  Cl43  1  0.18681300  0.56337300  0.32290400  1
  Cl  Cl44  1  0.02228300  0.69952500  0.08403200  1
  Cl  Cl45  1  0.32629700  0.94359200  0.49204200  1
  Cl  Cl46  1  0.49081300  0.65094100  0.43029200  1
  Cl  Cl47  1  0.50107000  0.19383600  0.06485900  1
loop_
_geom_bond_atom_site_label_1
_geom_bond_atom_site_label_2
_geom_bond_distance
_geom_bond_site_symmetry_2
Cl0 Zn10 2.247343 1_555
Cl0 K23 3.134842 1_555
Cl0 K7 3.221649 1_545
Cl0 K13 3.500787 1_555
Cl1 Zn2 2.261275 1_556
Cl1 K8 3.136664 1_555
Cl1 K11 3.185584 1_555
Cl1 K9 3.254635 1_556
Cl2 Zn5 2.312586 1_555
Cl2 K4 3.203408 1_555
Cl2 K22 3.227459 1_545
Cl2 K14 3.328682 1_555
Cl2 K0 3.444424 1_555
Cl3 Zn9 2.302330 1_555
Cl3 K12 3.291580 1_555
Cl3 K18 3.350625 1_555
Cl3 K6 3.407465 1_555
Cl3 K20 3.489607 1_455
Cl4 Zn2 2.315537 1_555
Cl4 K3 3.265034 1_555
Cl4 K7 3.299338 1_555
Cl4 K5 3.328855 1_555
Cl4 K9 3.351504 1_555
Cl5 Zn4 2.276256 1_555
Cl5 K12 3.225232 1_655
Cl5 K4 3.310379 1_655
Cl5 K18 3.421509 1_655
Cl6 Zn2 2.296083 1_555
Cl6 K5 3.305738 1_455
Cl6 K13 3.381904 1_555
Cl6 K3 3.386320 1_555
Cl6 K11 3.397984 1_554
Cl7 Zn0 2.312586 1_555
Cl7 K13 3.203408 1_555
Cl7 K3 3.227459 1_555
Cl7 K5 3.328682 1_555
Cl7 K6 3.444424 1_555
Cl8 Zn7 2.315537 1_455
Cl8 K19 3.265034 1_455
Cl8 K0 3.299338 1_555
Cl8 K8 3.328855 1_555
Cl8 K11 3.351504 1_555
Cl9 Zn8 2.296083 1_565
Cl9 K21 3.305738 1_555
Cl9 K17 3.381904 1_555
Cl9 K23 3.386320 1_565
Cl9 K10 3.397984 1_555
Cl10 Zn6 2.312586 1_655
Cl10 K16 3.203408 1_555
Cl10 K19 3.227459 1_555
Cl10 K8 3.328682 1_655
Cl10 K2 3.444424 1_555
Cl11 Zn5 2.293284 1_565
Cl11 K22 3.279823 1_655
Cl11 K2 3.342846 1_555
Cl11 K16 3.420012 1_555
Cl11 K14 3.458466 1_565
Cl12 Zn9 2.290053 1_555
Cl12 K10 3.192744 1_455
Cl12 K17 3.255990 1_455
Cl12 K21 3.595361 1_555
Cl12 K18 3.604600 1_555
Cl13 Zn11 2.276339 1_555
Cl13 K7 3.232736 1_555
Cl13 K17 3.258569 1_555
Cl13 K3 3.278927 1_555
Cl14 Zn7 2.268418 1_555
Cl14 K11 3.228242 1_555
Cl14 K0 3.236901 1_555
Cl14 K15 3.286038 1_555
Cl15 Zn6 2.260311 1_555
Cl15 K18 3.162945 1_555
Cl15 K4 3.181349 1_555
Cl15 K2 3.447979 1_455
Cl16 Zn7 2.296083 1_555
Cl16 K8 3.305738 1_555
Cl16 K16 3.381904 1_555
Cl16 K19 3.386320 1_555
Cl16 K9 3.397984 1_556
Cl17 Zn7 2.261275 1_554
Cl17 K5 3.136664 1_555
Cl17 K9 3.185584 1_555
Cl17 K11 3.254635 1_654
Cl18 Zn3 2.302330 1_545
Cl18 K11 3.291580 1_555
Cl18 K1 3.350625 1_546
Cl18 K0 3.407465 1_555
Cl18 K15 3.489607 1_455
Cl19 Zn8 2.268418 1_555
Cl19 K12 3.228242 1_555
Cl19 K6 3.236901 1_555
Cl19 K20 3.286038 1_555
Cl20 Zn8 2.315537 1_455
Cl20 K23 3.265034 1_455
Cl20 K6 3.299338 1_555
Cl20 K21 3.328855 1_545
Cl20 K12 3.351504 1_555
Cl21 Zn0 2.260311 1_555
Cl21 K20 3.162945 1_555
Cl21 K17 3.181349 1_555
Cl21 K6 3.447979 1_555
Cl22 Zn3 2.276256 1_555
Cl22 K9 3.225232 1_556
Cl22 K16 3.310379 1_555
Cl22 K15 3.421509 1_565
Cl23 Zn3 2.247343 1_555
Cl23 K22 3.134842 1_555
Cl23 K0 3.221649 1_565
Cl23 K16 3.500787 1_455
Cl24 Zn3 2.290053 1_555
Cl24 K9 3.192744 1_456
Cl24 K16 3.255990 1_455
Cl24 K8 3.595361 1_555
Cl24 K1 3.604600 1_556
Cl25 Zn6 2.293284 1_555
Cl25 K19 3.279823 1_555
Cl25 K0 3.342846 1_555
Cl25 K4 3.420012 1_555
Cl25 K8 3.458466 1_555
Cl26 Zn4 2.247343 1_555
Cl26 K19 3.134842 1_555
Cl26 K2 3.221649 1_555
Cl26 K4 3.500787 1_555
Cl27 Zn10 2.302330 1_565
Cl27 K9 3.291580 1_555
Cl27 K15 3.350625 1_564
Cl27 K7 3.407465 1_555
Cl27 K1 3.489607 1_555
Cl28 Zn4 2.290053 1_555
Cl28 K12 3.192744 1_555
Cl28 K4 3.255990 1_555
Cl28 K14 3.595361 1_555
Cl28 K20 3.604600 1_555
Cl29 Zn6 2.276339 1_555
Cl29 K2 3.232736 1_555
Cl29 K16 3.258569 1_555
Cl29 K22 3.278927 1_555
Cl30 Zn4 2.302330 1_555
Cl30 K10 3.291580 1_555
Cl30 K20 3.350625 1_555
Cl30 K2 3.407465 1_555
Cl30 K18 3.489607 1_555
Cl31 Zn5 2.276339 1_555
Cl31 K0 3.232736 1_655
Cl31 K4 3.258569 1_655
Cl31 K19 3.278927 1_555
Cl32 Zn11 2.260311 1_555
Cl32 K1 3.162945 1_555
Cl32 K13 3.181349 1_565
Cl32 K7 3.447979 1_455
Cl33 Zn0 2.293284 1_555
Cl33 K3 3.279823 1_655
Cl33 K7 3.342846 1_555
Cl33 K17 3.420012 1_555
Cl33 K5 3.458466 1_555
Cl34 Zn0 2.276339 1_555
Cl34 K6 3.232736 1_655
Cl34 K13 3.258569 1_655
Cl34 K23 3.278927 1_555
Cl35 Zn10 2.276256 1_555
Cl35 K11 3.225232 1_654
Cl35 K13 3.310379 1_655
Cl35 K1 3.421509 1_645
Cl36 Zn1 2.268418 1_555
Cl36 K10 3.228242 1_455
Cl36 K2 3.236901 1_455
Cl36 K18 3.286038 1_555
Cl37 Zn11 2.312586 1_655
Cl37 K17 3.203408 1_555
Cl37 K23 3.227459 1_565
Cl37 K21 3.328682 1_655
Cl37 K7 3.444424 1_555
Cl38 Zn1 2.315537 1_555
Cl38 K22 3.265034 1_555
Cl38 K2 3.299338 1_555
Cl38 K14 3.328855 1_565
Cl38 K10 3.351504 1_555
Cl39 Zn8 2.261275 1_555
Cl39 K14 3.136664 1_555
Cl39 K10 3.185584 1_545
Cl39 K12 3.254635 1_655
Cl40 Zn11 2.293284 1_545
Cl40 K23 3.279823 1_555
Cl40 K6 3.342846 1_555
Cl40 K13 3.420012 1_555
Cl40 K21 3.458466 1_545
Cl41 Zn1 2.296083 1_545
Cl41 K14 3.305738 1_455
Cl41 K4 3.381904 1_555
Cl41 K22 3.386320 1_545
Cl41 K12 3.397984 1_555
Cl42 Zn5 2.260311 1_555
Cl42 K15 3.162945 1_555
Cl42 K16 3.181349 1_545
Cl42 K0 3.447979 1_555
Cl43 Zn9 2.247343 1_555
Cl43 K3 3.134842 1_555
Cl43 K6 3.221649 1_555
Cl43 K17 3.500787 1_455
Cl44 Zn2 2.268418 1_555
Cl44 K9 3.228242 1_455
Cl44 K7 3.236901 1_455
Cl44 K1 3.286038 1_555
Cl45 Zn1 2.261275 1_555
Cl45 K21 3.136664 1_555
Cl45 K12 3.185584 1_565
Cl45 K10 3.254635 1_555
Cl46 Zn9 2.276256 1_555
Cl46 K10 3.225232 1_555
Cl46 K17 3.310379 1_555
Cl46 K20 3.421509 1_555
Cl47 Zn10 2.290053 1_555
Cl47 K11 3.192744 1_554
Cl47 K13 3.255990 1_555
Cl47 K5 3.595361 1_555
Cl47 K15 3.604600 1_554
