# generated using pymatgen
data_Hf6PbO18
_symmetry_space_group_name_H-M   'P 1'
_cell_length_a   7.19173318
_cell_length_b   7.19173318
_cell_length_c   9.22963279
_cell_angle_alpha   74.91210096
_cell_angle_beta   74.91210096
_cell_angle_gamma   70.33850268
_symmetry_Int_Tables_number   1
_chemical_formula_structural   Hf6PbO18
_chemical_formula_sum   'Hf6 Pb1 O18'
_cell_volume   426.13450153
_cell_formula_units_Z   1
loop_
 _symmetry_equiv_pos_site_id
 _symmetry_equiv_pos_as_xyz
  1  'x, y, z'
loop_
 _atom_site_type_symbol
 _atom_site_label
 _atom_site_symmetry_multiplicity
 _atom_site_fract_x
 _atom_site_fract_y
 _atom_site_fract_z
 _atom_site_occupancy
  Hf  Hf0  1  0.16144300  0.66960300  0.33796100  1
  Hf  Hf1  1  0.50000000  0.00000000  0.00000000  1
  Hf  Hf2  1  0.83855700  0.33039700  0.66203900  1
  Hf  Hf3  1  0.66960300  0.16144300  0.33796100  1
  Hf  Hf4  1  0.00000000  0.50000000  0.00000000  1
  Hf  Hf5  1  0.33039700  0.83855700  0.66203900  1
  Pb  Pb0  1  0.50000000  0.50000000  0.00000000  1
  O  O0  1  0.25133700  0.74866300  0.50000000  1
  O  O1  1  0.89796600  0.42055000  0.84059700  1
  O  O2  1  0.57945000  0.10203400  0.15940300  1
  O  O3  1  0.42040800  0.42040800  0.31747200  1
  O  O4  1  0.74046800  0.74046800  0.00012800  1
  O  O5  1  0.08301400  0.08301400  0.66739700  1
  O  O6  1  0.74866300  0.25133700  0.50000000  1
  O  O7  1  0.00000000  0.50000000  0.50000000  1
  O  O8  1  0.10203400  0.57945000  0.15940300  1
  O  O9  1  0.34047000  0.81872900  0.15936500  1
  O  O10  1  0.42055000  0.89796600  0.84059700  1
  O  O11  1  0.65953000  0.18127100  0.84063500  1
  O  O12  1  0.91698600  0.91698600  0.33260300  1
  O  O13  1  0.25953200  0.25953200  0.99987200  1
  O  O14  1  0.57959200  0.57959200  0.68252800  1
  O  O15  1  0.50000000  0.00000000  0.50000000  1
  O  O16  1  0.81872900  0.34047000  0.15936500  1
  O  O17  1  0.18127100  0.65953000  0.84063500  1
loop_
_geom_bond_atom_site_label_1
_geom_bond_atom_site_label_2
_geom_bond_distance
_geom_bond_site_symmetry_2
Hf0 O12 2.037934 1_455
Hf0 O0 2.042385 1_555
Hf0 O7 2.042507 1_555
Hf0 O8 2.104315 1_555
Hf0 O9 2.104522 1_555
Hf0 O3 2.112619 1_555
Hf1 O4 2.074207 1_545
Hf1 O13 2.074207 1_554
Hf1 O9 2.075807 1_545
Hf1 O11 2.075807 1_554
Hf1 O10 2.076363 1_544
Hf1 O2 2.076363 1_555
Hf2 O5 2.037934 1_655
Hf2 O6 2.042385 1_555
Hf2 O7 2.042507 1_655
Hf2 O1 2.104315 1_555
Hf2 O11 2.104522 1_555
Hf2 O14 2.112619 1_555
Hf3 O12 2.037934 1_545
Hf3 O6 2.042385 1_555
Hf3 O15 2.042507 1_555
Hf3 O2 2.104315 1_555
Hf3 O16 2.104522 1_555
Hf3 O3 2.112619 1_555
Hf4 O4 2.074207 1_455
Hf4 O13 2.074207 1_554
Hf4 O17 2.075807 1_554
Hf4 O16 2.075807 1_455
Hf4 O1 2.076363 1_454
Hf4 O8 2.076363 1_555
Hf5 O5 2.037934 1_565
Hf5 O0 2.042385 1_555
Hf5 O15 2.042507 1_565
Hf5 O10 2.104315 1_555
Hf5 O17 2.104522 1_555
Hf5 O14 2.112619 1_555
O1 Pb0 2.797761 1_556
O2 Pb0 2.797761 1_555
O3 Pb0 2.777628 1_555
O4 Pb0 2.827757 1_555
O8 Pb0 2.797761 1_555
O9 Pb0 2.800186 1_555
O10 Pb0 2.797761 1_556
O11 Pb0 2.800186 1_556
O13 Pb0 2.827757 1_556
O14 Pb0 2.777628 1_556
O16 Pb0 2.800186 1_555
O17 Pb0 2.800186 1_556
