# generated using pymatgen
data_ZnBr2
_symmetry_space_group_name_H-M   'P 1'
_cell_length_a   11.91613818
_cell_length_b   11.88797159
_cell_length_c   13.59463648
_cell_angle_alpha   115.99163341
_cell_angle_beta   115.99330818
_cell_angle_gamma   90.00000251
_symmetry_Int_Tables_number   1
_chemical_formula_structural   ZnBr2
_chemical_formula_sum   'Zn16 Br32'
_cell_volume   1511.31467250
_cell_formula_units_Z   16
loop_
 _symmetry_equiv_pos_site_id
 _symmetry_equiv_pos_as_xyz
  1  'x, y, z'
loop_
 _atom_site_type_symbol
 _atom_site_label
 _atom_site_symmetry_multiplicity
 _atom_site_fract_x
 _atom_site_fract_y
 _atom_site_fract_z
 _atom_site_occupancy
  Zn  Zn0  1  0.81305219  0.08731981  0.87767691  1
  Zn  Zn1  1  0.79011872  0.56357324  0.37737798  1
  Zn  Zn2  1  0.31580636  0.79210805  0.87859896  1
  Zn  Zn3  1  0.08725926  0.06357324  0.37737798  1
  Zn  Zn4  1  0.43537528  0.41268019  0.12232309  1
  Zn  Zn5  1  0.20988128  0.43642676  0.62262202  1
  Zn  Zn6  1  0.68419364  0.20789195  0.12140104  1
  Zn  Zn7  1  0.41254279  0.68633765  0.62219737  1
  Zn  Zn8  1  0.06279361  0.29210805  0.87859896  1
  Zn  Zn9  1  0.58745721  0.31366235  0.37780263  1
  Zn  Zn10  1  0.18694781  0.91268019  0.12232309  1
  Zn  Zn11  1  0.70965558  0.18633765  0.62219737  1
  Zn  Zn12  1  0.91274074  0.93642676  0.62262202  1
  Zn  Zn13  1  0.93720639  0.70789195  0.12140104  1
  Zn  Zn14  1  0.29034442  0.81366235  0.37780263  1
  Zn  Zn15  1  0.56462472  0.58731981  0.87767691  1
  Br  Br0  1  0.25132177  0.96997168  0.00091525  1
  Br  Br1  1  0.39816190  0.38924550  0.75094442  1
  Br  Br2  1  0.36216660  0.85315037  0.25141238  1
  Br  Br3  1  0.50928520  0.75833653  0.01616334  1
  Br  Br4  1  0.35413571  0.86301312  0.75122333  1
  Br  Br5  1  0.60183810  0.61075450  0.24905558  1
  Br  Br6  1  0.61075421  0.64684963  0.74858762  1
  Br  Br7  1  0.00687713  0.25833653  0.01616334  1
  Br  Br8  1  0.63783340  0.14684963  0.74858762  1
  Br  Br9  1  0.86007251  0.39641924  0.25020040  1
  Br  Br10  1  0.49071480  0.24166347  0.98383666  1
  Br  Br11  1  0.53081737  0.25000000  0.50000000  1
  Br  Br12  1  0.85278152  0.88924550  0.75094442  1
  Br  Br13  1  0.24959348  0.46997168  0.00091525  1
  Br  Br14  1  0.99312287  0.74166347  0.98383666  1
  Br  Br15  1  0.96879677  0.75000000  0.50000000  1
  Br  Br16  1  0.46918263  0.75000000  0.50000000  1
  Br  Br17  1  0.74867823  0.03002832  0.99908475  1
  Br  Br18  1  0.13992749  0.60358076  0.74979960  1
  Br  Br19  1  0.89708862  0.36301312  0.75122333  1
  Br  Br20  1  0.75828850  0.50755617  0.51591660  1
  Br  Br21  1  0.89012689  0.89641924  0.25020040  1
  Br  Br22  1  0.14721848  0.11075450  0.24905558  1
  Br  Br23  1  0.10291138  0.63698688  0.24877667  1
  Br  Br24  1  0.25762710  0.00755617  0.51591660  1
  Br  Br25  1  0.38924579  0.35315037  0.25141238  1
  Br  Br26  1  0.75040652  0.53002832  0.99908475  1
  Br  Br27  1  0.74237290  0.99244383  0.48408340  1
  Br  Br28  1  0.64586429  0.13698688  0.24877667  1
  Br  Br29  1  0.03120323  0.25000000  0.50000000  1
  Br  Br30  1  0.24171150  0.49244383  0.48408340  1
  Br  Br31  1  0.10987311  0.10358076  0.74979960  1
loop_
_geom_bond_atom_site_label_1
_geom_bond_atom_site_label_2
_geom_bond_distance
_geom_bond_site_symmetry_2
Br0 Zn2 2.421703 1_554
Br0 Zn10 2.423109 1_555
Br1 Zn5 2.412145 1_555
Br1 Zn15 2.428224 1_555
Br2 Zn10 2.411807 1_555
Br2 Zn14 2.429214 1_555
Br3 Zn15 2.417852 1_554
Br3 Zn2 2.419257 1_554
Br4 Zn7 2.411119 1_555
Br4 Zn2 2.426977 1_555
Br5 Zn1 2.412145 1_555
Br5 Zn4 2.428224 1_555
Br6 Zn15 2.411807 1_555
Br6 Zn7 2.429206 1_555
Br7 Zn0 2.417844 1_454
Br7 Zn8 2.419271 1_554
Br8 Zn0 2.411807 1_555
Br8 Zn11 2.429214 1_555
Br9 Zn6 2.413528 1_555
Br9 Zn1 2.425849 1_555
Br10 Zn4 2.417852 1_556
Br10 Zn6 2.419257 1_556
Br11 Zn9 2.423367 1_555
Br11 Zn11 2.423374 1_555
Br12 Zn12 2.412152 1_555
Br12 Zn0 2.428218 1_565
Br13 Zn8 2.421696 1_554
Br13 Zn4 2.423109 1_555
Br14 Zn10 2.417844 1_656
Br14 Zn13 2.419271 1_556
Br15 Zn1 2.423774 1_555
Br15 Zn12 2.423774 1_555
Br16 Zn7 2.423367 1_555
Br16 Zn14 2.423374 1_555
Br17 Zn6 2.421703 1_556
Br17 Zn0 2.423109 1_555
Br18 Zn2 2.413528 1_555
Br18 Zn5 2.425849 1_555
Br19 Zn11 2.411119 1_555
Br19 Zn8 2.426977 1_655
Br20 Zn9 2.416355 1_555
Br20 Zn1 2.420721 1_555
Br21 Zn13 2.413528 1_555
Br21 Zn3 2.425857 1_665
Br22 Zn3 2.412152 1_555
Br22 Zn10 2.428218 1_545
Br23 Zn14 2.411119 1_555
Br23 Zn13 2.426977 1_455
Br24 Zn14 2.416355 1_545
Br24 Zn3 2.420715 1_555
Br25 Zn4 2.411807 1_555
Br25 Zn9 2.429206 1_555
Br26 Zn13 2.421696 1_556
Br26 Zn15 2.423109 1_555
Br27 Zn11 2.416355 1_565
Br27 Zn12 2.420715 1_555
Br28 Zn9 2.411119 1_555
Br28 Zn6 2.426977 1_555
Br29 Zn5 2.423774 1_555
Br29 Zn3 2.423774 1_555
Br30 Zn7 2.416355 1_555
Br30 Zn5 2.420721 1_555
Br31 Zn8 2.413528 1_555
Br31 Zn12 2.425857 1_445
