# generated using pymatgen
data_Rb14Si10O17
_symmetry_space_group_name_H-M   'P 1'
_cell_length_a   8.00023300
_cell_length_b   14.73044300
_cell_length_c   32.97298900
_cell_angle_alpha   77.82478716
_cell_angle_beta   90.00000000
_cell_angle_gamma   90.00000000
_symmetry_Int_Tables_number   1
_chemical_formula_structural   Rb14Si10O17
_chemical_formula_sum   'Rb56 Si40 O68'
_cell_volume   3798.36536842
_cell_formula_units_Z   4
loop_
 _symmetry_equiv_pos_site_id
 _symmetry_equiv_pos_as_xyz
  1  'x, y, z'
loop_
 _atom_site_type_symbol
 _atom_site_label
 _atom_site_symmetry_multiplicity
 _atom_site_fract_x
 _atom_site_fract_y
 _atom_site_fract_z
 _atom_site_occupancy
  Rb  Rb0  1  0.94643800  0.20404900  0.74249500  1
  Rb  Rb1  1  0.40234000  0.42093700  0.28766700  1
  Rb  Rb2  1  0.36144800  0.79944000  0.63931100  1
  Rb  Rb3  1  0.03060400  0.17793600  0.62854900  1
  Rb  Rb4  1  0.13666800  0.57402400  0.21534100  1
  Rb  Rb5  1  0.09766000  0.92093700  0.78766700  1
  Rb  Rb6  1  0.86144800  0.70056000  0.86068900  1
  Rb  Rb7  1  0.09871500  0.20904000  0.85541800  1
  Rb  Rb8  1  0.40128500  0.70904000  0.35541800  1
  Rb  Rb9  1  0.01103700  0.70551200  0.74186600  1
  Rb  Rb10  1  0.63230000  0.85655900  0.52775600  1
  Rb  Rb11  1  0.45735800  0.05099900  0.93387600  1
  Rb  Rb12  1  0.90234000  0.07906300  0.21233300  1
  Rb  Rb13  1  0.50975600  0.49175500  0.06635900  1
  Rb  Rb14  1  0.36333200  0.07402400  0.71534100  1
  Rb  Rb15  1  0.59766000  0.57906300  0.71233300  1
  Rb  Rb16  1  0.62931700  0.62662200  0.46706300  1
  Rb  Rb17  1  0.49024400  0.50824500  0.93364100  1
  Rb  Rb18  1  0.87068300  0.12662200  0.96706300  1
  Rb  Rb19  1  0.04264200  0.55099900  0.43387600  1
  Rb  Rb20  1  0.44497600  0.55252000  0.60985200  1
  Rb  Rb21  1  0.59871500  0.29096000  0.64458200  1
  Rb  Rb22  1  0.37068300  0.37337800  0.53293700  1
  Rb  Rb23  1  0.94790700  0.68053600  0.61561400  1
  Rb  Rb24  1  0.12931700  0.87337800  0.03293700  1
  Rb  Rb25  1  0.46939600  0.67793600  0.12854900  1
  Rb  Rb26  1  0.13230000  0.64344100  0.97224400  1
  Rb  Rb27  1  0.55356200  0.70404900  0.24249500  1
  Rb  Rb28  1  0.90128500  0.79096000  0.14458200  1
  Rb  Rb29  1  0.86333200  0.42597600  0.78465900  1
  Rb  Rb30  1  0.55209300  0.18053600  0.11561400  1
  Rb  Rb31  1  0.96939600  0.82206400  0.37145100  1
  Rb  Rb32  1  0.51622500  0.05040000  0.60818500  1
  Rb  Rb33  1  0.05209300  0.31946400  0.38438600  1
  Rb  Rb34  1  0.48896300  0.20551200  0.24186600  1
  Rb  Rb35  1  0.86770000  0.35655900  0.02775600  1
  Rb  Rb36  1  0.36770000  0.14344100  0.47224400  1
  Rb  Rb37  1  0.94497600  0.94748000  0.89014800  1
  Rb  Rb38  1  0.53060400  0.32206400  0.87145100  1
  Rb  Rb39  1  0.63855200  0.20056000  0.36068900  1
  Rb  Rb40  1  0.98377500  0.55040000  0.10818500  1
  Rb  Rb41  1  0.48377500  0.94960000  0.39181500  1
  Rb  Rb42  1  0.00975600  0.00824500  0.43364100  1
  Rb  Rb43  1  0.05356200  0.79595100  0.25750500  1
  Rb  Rb44  1  0.55502400  0.44748000  0.39014800  1
  Rb  Rb45  1  0.51103700  0.79448800  0.75813400  1
  Rb  Rb46  1  0.13855200  0.29944000  0.13931100  1
  Rb  Rb47  1  0.05502400  0.05252000  0.10985200  1
  Rb  Rb48  1  0.99024400  0.99175500  0.56635900  1
  Rb  Rb49  1  0.63666800  0.92597600  0.28465900  1
  Rb  Rb50  1  0.01622500  0.44960000  0.89181500  1
  Rb  Rb51  1  0.44643800  0.29595100  0.75750500  1
  Rb  Rb52  1  0.98896300  0.29448800  0.25813400  1
  Rb  Rb53  1  0.54264200  0.94900100  0.06612400  1
  Rb  Rb54  1  0.95735800  0.44900100  0.56612400  1
  Rb  Rb55  1  0.44790700  0.81946400  0.88438600  1
  Si  Si0  1  0.10462300  0.93539300  0.67584000  1
  Si  Si1  1  0.81636600  0.47447800  0.30134500  1
  Si  Si2  1  0.76223800  0.85430800  0.65404400  1
  Si  Si3  1  0.70688100  0.14565000  0.84055900  1
  Si  Si4  1  0.39537700  0.43539300  0.17584000  1
  Si  Si5  1  0.27084500  0.15420300  0.02017100  1
  Si  Si6  1  0.29311900  0.85435000  0.15944100  1
  Si  Si7  1  0.23776200  0.14569200  0.34595600  1
  Si  Si8  1  0.22750600  0.98557100  0.29821400  1
  Si  Si9  1  0.89537700  0.06460700  0.32416000  1
  Si  Si10  1  0.73776200  0.35430800  0.15404400  1
  Si  Si11  1  0.64113300  0.93972200  0.17367500  1
  Si  Si12  1  0.51434300  0.24788200  0.99251500  1
  Si  Si13  1  0.77249400  0.01442900  0.70178600  1
  Si  Si14  1  0.48565700  0.75211800  0.00748500  1
  Si  Si15  1  0.78905200  0.18052100  0.47634000  1
  Si  Si16  1  0.21094800  0.81947900  0.52366000  1
  Si  Si17  1  0.71094800  0.68052100  0.97634000  1
  Si  Si18  1  0.26223800  0.64569200  0.84595600  1
  Si  Si19  1  0.25591400  0.77244500  0.45746400  1
  Si  Si20  1  0.85886700  0.43972200  0.67367500  1
  Si  Si21  1  0.72750600  0.51442900  0.20178600  1
  Si  Si22  1  0.77084500  0.34579700  0.47982900  1
  Si  Si23  1  0.60462300  0.56460700  0.82416000  1
  Si  Si24  1  0.18363400  0.52552200  0.69865500  1
  Si  Si25  1  0.14113300  0.56027800  0.32632500  1
  Si  Si26  1  0.74408600  0.22755500  0.54253600  1
  Si  Si27  1  0.22915500  0.65420300  0.52017100  1
  Si  Si28  1  0.20688100  0.35435000  0.65944100  1
  Si  Si29  1  0.98565700  0.74788200  0.49251500  1
  Si  Si30  1  0.72915500  0.84579700  0.97982900  1
  Si  Si31  1  0.01434300  0.25211800  0.50748500  1
  Si  Si32  1  0.75591400  0.72755500  0.04253600  1
  Si  Si33  1  0.28905200  0.31947900  0.02366000  1
  Si  Si34  1  0.79311900  0.64565000  0.34055900  1
  Si  Si35  1  0.31636600  0.02552200  0.19865500  1
  Si  Si36  1  0.27249400  0.48557100  0.79821400  1
  Si  Si37  1  0.35886700  0.06027800  0.82632500  1
  Si  Si38  1  0.24408600  0.27244500  0.95746400  1
  Si  Si39  1  0.68363400  0.97447800  0.80134500  1
  O  O0  1  0.70659400  0.88574900  0.60575000  1
  O  O1  1  0.24729800  0.62202100  0.67137300  1
  O  O2  1  0.00411100  0.63680500  0.33981200  1
  O  O3  1  0.72324800  0.98093400  0.75148700  1
  O  O4  1  0.52073900  0.50424700  0.19893600  1
  O  O5  1  0.76222800  0.24727000  0.81523100  1
  O  O6  1  0.73777200  0.74727000  0.31523100  1
  O  O7  1  0.79082600  0.61717300  0.18273600  1
  O  O8  1  0.97867200  0.51184700  0.69586000  1
  O  O9  1  0.72297100  0.62503100  0.78897600  1
  O  O10  1  0.80339300  0.99760200  0.36298700  1
  O  O11  1  0.49588900  0.13680500  0.83981200  1
  O  O12  1  0.26431300  0.61444400  0.29049100  1
  O  O13  1  0.02073900  0.99575300  0.30106400  1
  O  O14  1  0.22324800  0.51906600  0.74851300  1
  O  O15  1  0.75270200  0.37797900  0.32862700  1
  O  O16  1  0.47867200  0.98815300  0.80414000  1
  O  O17  1  0.02803100  0.13586100  0.34228400  1
  O  O18  1  0.79340600  0.38574900  0.10575000  1
  O  O19  1  0.22297100  0.87496900  0.71102400  1
  O  O20  1  0.27702900  0.37496900  0.21102400  1
  O  O21  1  0.77348100  0.49981800  0.63208600  1
  O  O22  1  0.18560700  0.56548000  0.82019500  1
  O  O23  1  0.69660700  0.49760200  0.86298700  1
  O  O24  1  0.23777200  0.75273000  0.18476900  1
  O  O25  1  0.76431300  0.88555600  0.20950900  1
  O  O26  1  0.52132800  0.01184700  0.19586000  1
  O  O27  1  0.68560700  0.93452000  0.67980500  1
  O  O28  1  0.73568700  0.38555600  0.70950900  1
  O  O29  1  0.97926100  0.00424700  0.69893600  1
  O  O30  1  0.20917400  0.38282700  0.81726400  1
  O  O31  1  0.26222800  0.25273000  0.68476900  1
  O  O32  1  0.97196900  0.86413900  0.65771600  1
  O  O33  1  0.81439300  0.43452000  0.17980500  1
  O  O34  1  0.74729800  0.87797900  0.82862700  1
  O  O35  1  0.29701600  0.24730500  0.32216100  1
  O  O36  1  0.23568700  0.11444400  0.79049100  1
  O  O37  1  0.25270200  0.12202100  0.17137300  1
  O  O38  1  0.27348100  0.00018200  0.86791400  1
  O  O39  1  0.29082600  0.88282700  0.31726400  1
  O  O40  1  0.77297400  0.11955300  0.88803400  1
  O  O41  1  0.27647000  0.43466800  0.68583100  1
  O  O42  1  0.20659400  0.61425100  0.89425000  1
  O  O43  1  0.27297400  0.38044700  0.61196600  1
  O  O44  1  0.22353000  0.93466800  0.18583100  1
  O  O45  1  0.30339300  0.50239800  0.13701300  1
  O  O46  1  0.72702600  0.61955300  0.38803400  1
  O  O47  1  0.47196900  0.63586100  0.84228400  1
  O  O48  1  0.70917400  0.11717300  0.68273600  1
  O  O49  1  0.47926100  0.49575300  0.80106400  1
  O  O50  1  0.77702900  0.12503100  0.28897600  1
  O  O51  1  0.99588900  0.36319500  0.66018800  1
  O  O52  1  0.70298400  0.75269500  0.67783900  1
  O  O53  1  0.19660700  0.00239800  0.63701300  1
  O  O54  1  0.77647000  0.06533200  0.81416900  1
  O  O55  1  0.27675200  0.01906600  0.24851300  1
  O  O56  1  0.77675200  0.48093400  0.25148700  1
  O  O57  1  0.31439300  0.06548000  0.32019500  1
  O  O58  1  0.22651900  0.50018200  0.36791400  1
  O  O59  1  0.52803100  0.36413900  0.15771600  1
  O  O60  1  0.72353000  0.56533200  0.31416900  1
  O  O61  1  0.29340600  0.11425100  0.39425000  1
  O  O62  1  0.02132800  0.48815300  0.30414000  1
  O  O63  1  0.79701600  0.25269500  0.17783900  1
  O  O64  1  0.50411100  0.86319500  0.16018800  1
  O  O65  1  0.72651900  0.99981800  0.13208600  1
  O  O66  1  0.20298400  0.74730500  0.82216100  1
  O  O67  1  0.22702600  0.88044700  0.11196600  1
loop_
_geom_bond_atom_site_label_1
_geom_bond_atom_site_label_2
_geom_bond_distance
_geom_bond_site_symmetry_2
Rb2 Si16 3.950157 1_555
Rb3 Si26 3.599664 1_455
Rb3 Si31 3.912272 1_555
Rb6 Si17 3.950157 1_555
Rb7 Si38 3.856435 1_555
Rb8 Si19 3.856435 1_555
Rb10 Si16 3.422099 1_555
Rb10 Si29 3.562193 1_555
Rb11 Si30 3.772131 1_545
Rb11 Si5 3.802441 1_556
Rb11 Si12 3.836997 1_555
Rb11 Si38 3.902167 1_555
Rb13 Si33 3.612041 1_555
Rb13 Si14 3.921026 1_555
Rb13 Si32 3.925452 1_555
Rb13 Si17 3.956186 1_554
Rb16 Si29 3.557280 1_555
Rb16 Si19 3.653970 1_555
Rb16 Si27 3.712210 1_555
Rb17 Si17 3.612041 1_555
Rb17 Si12 3.921026 1_555
Rb17 Si38 3.925452 1_555
Rb17 Si33 3.956186 1_556
Rb18 Si12 3.557280 1_555
Rb18 Si38 3.653970 1_655
Rb18 Si5 3.712210 1_656
Rb19 Si22 3.772131 1_455
Rb19 Si27 3.802441 1_555
Rb19 Si29 3.836997 1_455
Rb19 Si19 3.902167 1_555
Rb20 Si27 3.478596 1_555
Rb21 Si26 3.856435 1_555
Rb22 Si31 3.557280 1_555
Rb22 Si26 3.653970 1_555
Rb22 Si22 3.712210 1_555
Rb23 Si16 3.897805 1_655
Rb23 Si27 3.953727 1_655
Rb23 Si29 3.981446 1_555
Rb24 Si14 3.557280 1_555
Rb24 Si32 3.653970 1_455
Rb24 Si30 3.712210 1_454
Rb25 Si32 3.599664 1_555
Rb25 Si14 3.912272 1_555
Rb26 Si17 3.422099 1_455
Rb26 Si14 3.562193 1_556
Rb28 Si32 3.856435 1_555
Rb30 Si33 3.897805 1_555
Rb30 Si5 3.953727 1_555
Rb30 Si12 3.981446 1_554
Rb31 Si19 3.599664 1_655
Rb31 Si29 3.912272 1_555
Rb32 Si26 3.526468 1_555
Rb33 Si15 3.897805 1_455
Rb33 Si22 3.953727 1_455
Rb33 Si31 3.981446 1_555
Rb35 Si33 3.422099 1_655
Rb35 Si12 3.562193 1_554
Rb36 Si15 3.422099 1_555
Rb36 Si31 3.562193 1_555
Rb37 Si30 3.478596 1_555
Rb38 Si38 3.599664 1_555
Rb38 Si12 3.912272 1_555
Rb39 Si15 3.950157 1_555
Rb40 Si32 3.526468 1_555
Rb41 Si19 3.526468 1_555
Rb42 Si15 3.612041 1_455
Rb42 Si29 3.921026 1_445
Rb42 Si19 3.925452 1_545
Rb42 Si16 3.956186 1_545
Rb44 Si22 3.478596 1_555
Rb46 Si33 3.950157 1_555
Rb47 Si5 3.478596 1_555
Rb48 Si16 3.612041 1_655
Rb48 Si31 3.921026 1_665
Rb48 Si26 3.925452 1_565
Rb48 Si15 3.956186 1_565
Rb50 Si38 3.526468 1_555
Rb53 Si5 3.772131 1_565
Rb53 Si30 3.802441 1_554
Rb53 Si14 3.836997 1_555
Rb53 Si32 3.902167 1_555
Rb54 Si27 3.772131 1_655
Rb54 Si22 3.802441 1_555
Rb54 Si31 3.836997 1_655
Rb54 Si26 3.902167 1_555
Rb55 Si17 3.897805 1_555
Rb55 Si30 3.953727 1_555
Rb55 Si14 3.981446 1_556
Si12 Si33 2.423289 1_556
Si12 Si38 2.442338 1_555
Si12 Si5 2.449461 1_556
Si14 Si17 2.423289 1_554
Si14 Si32 2.442338 1_555
Si14 Si30 2.449461 1_554
Si15 Si31 2.423289 1_655
Si15 Si26 2.451812 1_555
Si15 Si22 2.465728 1_555
Si16 Si29 2.423289 1_455
Si16 Si19 2.451812 1_555
Si16 Si27 2.465728 1_555
Si17 Si32 2.451812 1_556
Si17 Si30 2.465728 1_555
Si19 Si27 2.415703 1_555
Si19 Si29 2.442338 1_455
Si22 Si26 2.415703 1_555
Si22 Si31 2.449461 1_655
Si26 Si31 2.442338 1_655
Si27 Si29 2.449461 1_455
Si30 Si32 2.415703 1_556
Si33 Si38 2.451812 1_554
Si33 Si5 2.465728 1_555
Si38 Si5 2.415703 1_556
O0 Si2 1.623982 1_555
O0 Rb10 2.760108 1_555
O0 Rb32 2.879337 1_565
O0 Rb48 2.901620 1_555
O1 Si24 1.596827 1_555
O1 Rb2 2.759780 1_555
O1 Rb20 2.922345 1_555
O1 Rb23 3.031785 1_455
O1 Rb15 3.117799 1_555
O1 Rb9 3.419598 1_555
O2 Si34 1.693585 1_455
O2 Si25 1.697540 1_555
O2 Rb19 3.107858 1_555
O2 Rb31 3.132645 1_455
O2 Rb43 3.214641 1_555
O3 Si13 1.656271 1_565
O3 Si39 1.657156 1_555
O3 Rb45 3.196770 1_555
O3 Rb5 3.275948 1_655
O3 Rb14 3.301891 1_565
O4 Si21 1.665412 1_555
O4 Si4 1.714734 1_555
O4 Rb1 3.073865 1_555
O4 Rb25 3.097821 1_555
O4 Rb4 3.320362 1_555
O5 Si3 1.614604 1_555
O5 Rb29 2.735094 1_555
O5 Rb38 2.990896 1_555
O5 Rb0 2.995533 1_555
O5 Rb7 3.000825 1_655
O5 Rb51 3.153425 1_555
O6 Si34 1.614604 1_555
O6 Rb49 2.735094 1_555
O6 Rb31 2.990896 1_555
O6 Rb27 2.995533 1_555
O6 Rb8 3.000825 1_555
O6 Rb43 3.153425 1_655
O7 Si21 1.593975 1_555
O7 Rb28 2.749284 1_555
O7 Rb4 2.987782 1_655
O7 Rb25 3.151444 1_555
O7 Rb27 3.191701 1_555
O7 Rb40 3.226876 1_555
O8 Si24 1.657004 1_655
O8 Si20 1.705972 1_555
O8 Rb29 3.076080 1_555
O8 Rb23 3.234640 1_555
O8 Rb15 3.285368 1_555
O8 Rb9 3.511676 1_655
O9 Si23 1.612145 1_555
O9 Rb9 2.890116 1_655
O9 Rb15 2.927767 1_555
O9 Rb45 3.011501 1_555
O9 Rb29 3.170942 1_555
O10 Si9 1.619184 1_565
O10 Rb41 2.767373 1_555
O10 Rb31 2.867641 1_555
O10 Rb42 2.886461 1_665
O10 Rb49 3.272936 1_555
O11 Si3 1.693585 1_555
O11 Si37 1.697540 1_555
O11 Rb11 3.107858 1_555
O11 Rb38 3.132645 1_555
O11 Rb51 3.214641 1_555
O12 Si25 1.614370 1_555
O12 Rb4 2.856525 1_555
O12 Rb27 2.953050 1_555
O12 Rb8 2.997324 1_555
O12 Rb1 3.076527 1_555
O12 Rb43 3.153999 1_555
O13 Si8 1.665412 1_555
O13 Si9 1.714734 1_465
O13 Rb12 3.073865 1_465
O13 Rb31 3.097821 1_455
O13 Rb49 3.320362 1_455
O14 Si36 1.656271 1_555
O14 Si24 1.657156 1_555
O14 Rb9 3.196770 1_555
O14 Rb15 3.275948 1_555
O14 Rb29 3.301891 1_455
O15 Si1 1.596827 1_555
O15 Rb39 2.759780 1_555
O15 Rb44 2.922345 1_555
O15 Rb33 3.031785 1_655
O15 Rb1 3.117799 1_555
O15 Rb52 3.419598 1_555
O16 Si39 1.657004 1_555
O16 Si37 1.705972 1_565
O16 Rb14 3.076080 1_565
O16 Rb55 3.234640 1_555
O16 Rb5 3.285368 1_555
O16 Rb45 3.511676 1_555
O17 Si9 1.688090 1_455
O17 Si7 1.690670 1_555
O17 Rb52 3.243717 1_455
O17 Rb33 3.295834 1_555
O18 Si10 1.623982 1_555
O18 Rb35 2.760108 1_555
O18 Rb40 2.879337 1_555
O18 Rb13 2.901620 1_555
O19 Si0 1.612145 1_555
O19 Rb45 2.890116 1_555
O19 Rb5 2.927767 1_555
O19 Rb9 3.011501 1_555
O19 Rb14 3.170942 1_565
O20 Si4 1.612145 1_555
O20 Rb52 2.890116 1_455
O20 Rb1 2.927767 1_555
O20 Rb34 3.011501 1_555
O20 Rb4 3.170942 1_555
O21 Si20 1.618253 1_555
O21 Rb20 2.794115 1_555
O21 Rb54 2.853341 1_555
O21 Rb23 2.952787 1_555
O21 Rb15 3.412510 1_555
O22 Si36 1.659488 1_555
O22 Si18 1.707857 1_555
O22 Rb50 2.937091 1_555
O22 Rb9 3.260177 1_555
O23 Si23 1.619184 1_555
O23 Rb50 2.767373 1_655
O23 Rb38 2.867641 1_555
O23 Rb17 2.886461 1_555
O23 Rb29 3.272936 1_555
O24 Si6 1.614604 1_555
O24 Rb4 2.735094 1_555
O24 Rb25 2.990896 1_555
O24 Rb43 2.995533 1_555
O24 Rb28 3.000825 1_455
O24 Rb27 3.153425 1_555
O25 Si11 1.614370 1_555
O25 Rb49 2.856525 1_555
O25 Rb43 2.953050 1_655
O25 Rb28 2.997324 1_555
O25 Rb12 3.076527 1_565
O25 Rb27 3.153999 1_555
O26 Si35 1.657004 1_555
O26 Si11 1.705972 1_545
O26 Rb49 3.076080 1_545
O26 Rb30 3.234640 1_555
O26 Rb12 3.285368 1_555
O26 Rb34 3.511676 1_555
O27 Si13 1.659488 1_565
O27 Si2 1.707857 1_555
O27 Rb32 2.937091 1_565
O27 Rb45 3.260177 1_555
O28 Si20 1.614370 1_555
O28 Rb29 2.856525 1_555
O28 Rb51 2.953050 1_555
O28 Rb21 2.997324 1_555
O28 Rb15 3.076527 1_555
O28 Rb0 3.153999 1_555
O29 Si13 1.665412 1_555
O29 Si0 1.714734 1_645
O29 Rb5 3.073865 1_645
O29 Rb3 3.097821 1_655
O29 Rb14 3.320362 1_655
O30 Si36 1.593975 1_555
O30 Rb7 2.749284 1_555
O30 Rb29 2.987782 1_455
O30 Rb38 3.151444 1_555
O30 Rb51 3.191701 1_555
O30 Rb50 3.226876 1_555
O31 Si28 1.614604 1_555
O31 Rb14 2.735094 1_555
O31 Rb3 2.990896 1_555
O31 Rb51 2.995533 1_555
O31 Rb21 3.000825 1_555
O31 Rb0 3.153425 1_455
O32 Si0 1.688090 1_655
O32 Si2 1.690670 1_555
O32 Rb9 3.243717 1_655
O32 Rb23 3.295834 1_555
O33 Si21 1.659488 1_555
O33 Si10 1.707857 1_555
O33 Rb40 2.937091 1_555
O33 Rb52 3.260177 1_555
O34 Si39 1.596827 1_555
O34 Rb6 2.759780 1_555
O34 Rb37 2.922345 1_555
O34 Rb55 3.031785 1_555
O34 Rb5 3.117799 1_655
O34 Rb45 3.419598 1_555
O35 Si7 1.607908 1_555
O35 Rb1 2.705233 1_555
O35 Rb33 3.177860 1_555
O35 Rb52 3.224110 1_455
O35 Rb34 3.230208 1_555
O36 Si37 1.614370 1_555
O36 Rb14 2.856525 1_555
O36 Rb0 2.953050 1_455
O36 Rb7 2.997324 1_555
O36 Rb5 3.076527 1_545
O36 Rb51 3.153999 1_555
O37 Si35 1.596827 1_555
O37 Rb46 2.759780 1_555
O37 Rb47 2.922345 1_555
O37 Rb30 3.031785 1_555
O37 Rb12 3.117799 1_455
O37 Rb34 3.419598 1_555
O38 Si37 1.618253 1_555
O38 Rb37 2.794115 1_445
O38 Rb11 2.853341 1_555
O38 Rb55 2.952787 1_545
O38 Rb5 3.412510 1_545
O39 Si8 1.593975 1_555
O39 Rb8 2.749284 1_555
O39 Rb49 2.987782 1_555
O39 Rb31 3.151444 1_455
O39 Rb43 3.191701 1_555
O39 Rb41 3.226876 1_555
O40 Si3 1.619874 1_555
O40 Rb18 2.743475 1_555
O40 Rb37 2.872042 1_545
O40 Rb11 3.006048 1_555
O40 Rb7 3.014546 1_655
O41 Si24 1.661390 1_555
O41 Si28 1.703273 1_555
O41 Rb20 3.045142 1_555
O41 Rb51 3.093967 1_555
O42 Si18 1.623982 1_555
O42 Rb26 2.760108 1_555
O42 Rb50 2.879337 1_555
O42 Rb17 2.901620 1_555
O43 Si28 1.619874 1_555
O43 Rb22 2.743475 1_555
O43 Rb20 2.872042 1_555
O43 Rb54 3.006048 1_455
O43 Rb21 3.014546 1_555
O44 Si35 1.661390 1_565
O44 Si6 1.703273 1_555
O44 Rb47 3.045142 1_565
O44 Rb43 3.093967 1_555
O45 Si4 1.619184 1_555
O45 Rb40 2.767373 1_455
O45 Rb25 2.867641 1_555
O45 Rb13 2.886461 1_555
O45 Rb4 3.272936 1_555
O46 Si34 1.619874 1_555
O46 Rb16 2.743475 1_555
O46 Rb44 2.872042 1_555
O46 Rb19 3.006048 1_655
O46 Rb8 3.014546 1_555
O47 Si23 1.688090 1_555
O47 Si18 1.690670 1_555
O47 Rb45 3.243717 1_555
O47 Rb55 3.295834 1_555
O48 Si13 1.593975 1_555
O48 Rb21 2.749284 1_555
O48 Rb14 2.987782 1_555
O48 Rb3 3.151444 1_655
O48 Rb0 3.191701 1_555
O48 Rb32 3.226876 1_555
O49 Si36 1.665412 1_555
O49 Si23 1.714734 1_555
O49 Rb15 3.073865 1_555
O49 Rb38 3.097821 1_555
O49 Rb29 3.320362 1_555
O50 Si9 1.612145 1_555
O50 Rb34 2.890116 1_555
O50 Rb12 2.927767 1_555
O50 Rb52 3.011501 1_555
O50 Rb49 3.170942 1_545
O51 Si28 1.693585 1_655
O51 Si20 1.697540 1_555
O51 Rb54 3.107858 1_555
O51 Rb3 3.132645 1_655
O51 Rb0 3.214641 1_555
O52 Si2 1.607908 1_555
O52 Rb15 2.705233 1_555
O52 Rb23 3.177860 1_555
O52 Rb9 3.224110 1_655
O52 Rb45 3.230208 1_555
O53 Si0 1.619184 1_545
O53 Rb32 2.767373 1_555
O53 Rb3 2.867641 1_555
O53 Rb48 2.886461 1_445
O53 Rb14 3.272936 1_555
O54 Si39 1.661390 1_545
O54 Si3 1.703273 1_555
O54 Rb37 3.045142 1_545
O54 Rb0 3.093967 1_555
O55 Si8 1.656271 1_545
O55 Si35 1.657156 1_555
O55 Rb34 3.196770 1_555
O55 Rb12 3.275948 1_455
O55 Rb49 3.301891 1_545
O56 Si21 1.656271 1_555
O56 Si1 1.657156 1_555
O56 Rb52 3.196770 1_555
O56 Rb1 3.275948 1_555
O56 Rb4 3.301891 1_655
O57 Si8 1.659488 1_545
O57 Si7 1.707857 1_555
O57 Rb41 2.937091 1_545
O57 Rb34 3.260177 1_555
O58 Si25 1.618253 1_555
O58 Rb44 2.794115 1_555
O58 Rb19 2.853341 1_555
O58 Rb33 2.952787 1_555
O58 Rb1 3.412510 1_555
O59 Si4 1.688090 1_555
O59 Si10 1.690670 1_555
O59 Rb34 3.243717 1_555
O59 Rb30 3.295834 1_555
O60 Si1 1.661390 1_555
O60 Si34 1.703273 1_555
O60 Rb44 3.045142 1_555
O60 Rb27 3.093967 1_555
O61 Si7 1.623982 1_555
O61 Rb36 2.760108 1_555
O61 Rb41 2.879337 1_545
O61 Rb42 2.901620 1_555
O62 Si1 1.657004 1_455
O62 Si25 1.705972 1_555
O62 Rb4 3.076080 1_555
O62 Rb33 3.234640 1_555
O62 Rb1 3.285368 1_555
O62 Rb52 3.511676 1_455
O63 Si10 1.607908 1_555
O63 Rb12 2.705233 1_555
O63 Rb30 3.177860 1_555
O63 Rb34 3.224110 1_555
O63 Rb52 3.230208 1_555
O64 Si6 1.693585 1_555
O64 Si11 1.697540 1_555
O64 Rb53 3.107858 1_555
O64 Rb25 3.132645 1_555
O64 Rb27 3.214641 1_555
O65 Si11 1.618253 1_555
O65 Rb47 2.794115 1_665
O65 Rb53 2.853341 1_555
O65 Rb30 2.952787 1_565
O65 Rb12 3.412510 1_565
O66 Si18 1.607908 1_555
O66 Rb5 2.705233 1_555
O66 Rb55 3.177860 1_555
O66 Rb45 3.224110 1_555
O66 Rb9 3.230208 1_555
O67 Si6 1.619874 1_555
O67 Rb24 2.743475 1_555
O67 Rb47 2.872042 1_565
O67 Rb53 3.006048 1_555
O67 Rb28 3.014546 1_455
