# generated using pymatgen
data_Cu8NO11
_symmetry_space_group_name_H-M   'P 1'
_cell_length_a   6.94565887
_cell_length_b   6.81702311
_cell_length_c   6.54403999
_cell_angle_alpha   62.60415246
_cell_angle_beta   60.62238080
_cell_angle_gamma   56.77346675
_symmetry_Int_Tables_number   1
_chemical_formula_structural   Cu8NO11
_chemical_formula_sum   'Cu8 N1 O11'
_cell_volume   217.94419220
_cell_formula_units_Z   1
loop_
 _symmetry_equiv_pos_site_id
 _symmetry_equiv_pos_as_xyz
  1  'x, y, z'
loop_
 _atom_site_type_symbol
 _atom_site_label
 _atom_site_symmetry_multiplicity
 _atom_site_fract_x
 _atom_site_fract_y
 _atom_site_fract_z
 _atom_site_occupancy
  Cu  Cu0  1  0.49836000  0.49836000  0.00164000  1
  Cu  Cu1  1  0.49946200  0.99260200  0.00739800  1
  Cu  Cu2  1  0.99260200  0.49946200  0.50053800  1
  Cu  Cu3  1  0.12081300  0.12081300  0.87918700  1
  Cu  Cu4  1  0.99874300  0.49867700  0.00125700  1
  Cu  Cu5  1  0.49867700  0.99874300  0.50132300  1
  Cu  Cu6  1  0.99836000  0.99836000  0.50164000  1
  Cu  Cu7  1  0.88489000  0.88489000  0.11511000  1
  N  N0  1  0.50460300  0.50460300  0.49539700  1
  O  O0  1  0.43323200  0.85175900  0.85371500  1
  O  O1  1  0.84950900  0.86207800  0.43306400  1
  O  O2  1  0.85175900  0.43323200  0.86129400  1
  O  O3  1  0.86207800  0.84950900  0.85534900  1
  O  O4  1  0.32730900  0.56109300  0.43890700  1
  O  O5  1  0.56109300  0.32730900  0.67269100  1
  O  O6  1  0.62955200  0.62955200  0.37044800  1
  O  O7  1  0.13870600  0.14628500  0.14824100  1
  O  O8  1  0.14465100  0.56693600  0.13792200  1
  O  O9  1  0.14628500  0.13870600  0.56676800  1
  O  O10  1  0.56693600  0.14465100  0.15049100  1
loop_
_geom_bond_atom_site_label_1
_geom_bond_atom_site_label_2
_geom_bond_distance
_geom_bond_site_symmetry_2
Cu0 O10 2.006211 1_555
Cu0 O8 2.006211 1_555
Cu0 O0 2.008674 1_554
Cu0 O2 2.008674 1_554
Cu1 O0 1.992853 1_554
Cu1 O7 1.992853 1_565
Cu1 O3 2.006740 1_554
Cu1 O10 2.006740 1_565
Cu1 O5 2.395461 1_564
Cu1 O6 2.613518 1_555
Cu2 O2 1.992853 1_555
Cu2 O9 1.992853 1_655
Cu2 O1 2.006740 1_555
Cu2 O8 2.006740 1_655
Cu2 O4 2.395461 1_655
Cu2 O6 2.613518 1_555
Cu3 O2 1.914512 1_455
Cu3 O7 1.914512 1_556
Cu3 O0 1.914512 1_545
Cu3 O9 1.914512 1_555
Cu4 O3 1.957658 1_554
Cu4 O8 1.957658 1_655
Cu4 O7 1.967945 1_655
Cu4 O2 1.967945 1_554
Cu4 O6 2.570338 1_555
Cu5 O10 1.957658 1_565
Cu5 O1 1.957658 1_555
Cu5 O9 1.967945 1_565
Cu5 O0 1.967945 1_555
Cu5 O6 2.570338 1_555
Cu6 O3 2.006211 1_555
Cu6 O1 2.006211 1_555
Cu6 O7 2.008674 1_665
Cu6 O9 2.008674 1_665
Cu7 O3 1.912156 1_554
Cu7 O8 1.912156 1_655
Cu7 O1 1.912156 1_555
Cu7 O10 1.912156 1_565
N0 O4 1.263840 1_555
N0 O5 1.263840 1_555
N0 O6 1.272880 1_555
