# generated using pymatgen
data_K2NaMo(OF)3
_symmetry_space_group_name_H-M   'P 1'
_cell_length_a   6.02599600
_cell_length_b   6.02599600
_cell_length_c   8.67309800
_cell_angle_alpha   90.00000000
_cell_angle_beta   90.00000000
_cell_angle_gamma   90.00000000
_symmetry_Int_Tables_number   1
_chemical_formula_structural   K2NaMo(OF)3
_chemical_formula_sum   'K4 Na2 Mo2 O6 F6'
_cell_volume   314.94297948
_cell_formula_units_Z   2
loop_
 _symmetry_equiv_pos_site_id
 _symmetry_equiv_pos_as_xyz
  1  'x, y, z'
loop_
 _atom_site_type_symbol
 _atom_site_label
 _atom_site_symmetry_multiplicity
 _atom_site_fract_x
 _atom_site_fract_y
 _atom_site_fract_z
 _atom_site_occupancy
  K  K0  1  0.50000000  0.00000000  0.75832000  1
  K  K1  1  0.00000000  0.50000000  0.25832000  1
  K  K2  1  0.50000000  0.00000000  0.25832000  1
  K  K3  1  0.00000000  0.50000000  0.75832000  1
  Na  Na0  1  0.50000000  0.50000000  0.50543000  1
  Na  Na1  1  0.00000000  0.00000000  0.00543000  1
  Mo  Mo0  1  0.50000000  0.50000000  0.02257700  1
  Mo  Mo1  1  0.00000000  0.00000000  0.52257700  1
  O  O0  1  0.50000000  0.50000000  0.22761600  1
  O  O1  1  0.71239000  0.28761000  0.98077900  1
  O  O2  1  0.21239000  0.21239000  0.48077900  1
  O  O3  1  0.00000000  0.00000000  0.72761600  1
  O  O4  1  0.78761000  0.78761000  0.48077900  1
  O  O5  1  0.28761000  0.71239000  0.98077900  1
  F  F0  1  0.23616800  0.76383200  0.50322500  1
  F  F1  1  0.50000000  0.50000000  0.76563200  1
  F  F2  1  0.26383200  0.26383200  0.00322500  1
  F  F3  1  0.00000000  0.00000000  0.26563200  1
  F  F4  1  0.73616800  0.73616800  0.00322500  1
  F  F5  1  0.76383200  0.23616800  0.50322500  1
loop_
_geom_bond_atom_site_label_1
_geom_bond_atom_site_label_2
_geom_bond_distance
_geom_bond_site_symmetry_2
K0 O1 2.892132 1_555
K0 O5 2.892132 1_545
K0 O3 3.024743 1_555
K0 O3 3.024743 1_655
K0 O2 3.230500 1_555
K0 O4 3.230500 1_545
K1 O4 2.892132 1_455
K1 O2 2.892132 1_555
K1 O0 3.024743 1_455
K1 O0 3.024743 1_555
K1 O5 3.230500 1_554
K1 O1 3.230500 1_454
K2 O2 2.892132 1_555
K2 O4 2.892132 1_545
K2 O0 3.024743 1_555
K2 O0 3.024743 1_545
K2 O1 3.230500 1_554
K2 O5 3.230500 1_544
K3 O5 2.892132 1_555
K3 O1 2.892132 1_455
K3 O3 3.024743 1_555
K3 O3 3.024743 1_565
K3 O2 3.230500 1_555
K3 O4 3.230500 1_455
Na0 O0 2.409508 1_555
Na0 O2 2.460333 1_555
Na0 O4 2.460333 1_555
Na1 O3 2.409508 1_554
Na1 O5 2.460333 1_544
Na1 O1 2.460333 1_454
Mo0 O0 1.778323 1_555
Mo0 O1 1.845944 1_554
Mo0 O5 1.845944 1_554
Mo1 O3 1.778323 1_555
Mo1 O4 1.845944 1_445
Mo1 O2 1.845944 1_555
F0 Mo1 2.019621 1_565
F0 Na0 2.248470 1_555
F0 K1 3.010766 1_555
F0 K2 3.010766 1_565
F0 K3 3.073755 1_555
F0 K0 3.073755 1_565
F1 Mo0 2.228509 1_556
F1 Na0 2.256757 1_555
F1 K3 3.013665 1_555
F1 K3 3.013665 1_655
F1 K0 3.013665 1_565
F1 K0 3.013665 1_555
F2 Mo0 2.019621 1_555
F2 Na1 2.248470 1_555
F2 K0 3.010766 1_554
F2 K3 3.010766 1_554
F2 K1 3.073755 1_555
F2 K2 3.073755 1_555
F3 Mo1 2.228509 1_555
F3 Na1 2.256757 1_555
F3 K1 3.013665 1_555
F3 K2 3.013665 1_455
F3 K1 3.013665 1_545
F3 K2 3.013665 1_555
F4 Mo0 2.019621 1_555
F4 Na1 2.248470 1_665
F4 K3 3.010766 1_654
F4 K0 3.010766 1_564
F4 K2 3.073755 1_565
F4 K1 3.073755 1_655
F5 Mo1 2.019621 1_655
F5 Na0 2.248470 1_555
F5 K2 3.010766 1_555
F5 K1 3.010766 1_655
F5 K0 3.073755 1_555
F5 K3 3.073755 1_655
