# generated using pymatgen
data_Ba(HO)2
_symmetry_space_group_name_H-M   'P 1'
_cell_length_a   9.49226600
_cell_length_b   8.14121996
_cell_length_c   6.86941993
_cell_angle_alpha   91.06096049
_cell_angle_beta   98.06612778
_cell_angle_gamma   90.26785028
_symmetry_Int_Tables_number   1
_chemical_formula_structural   Ba(HO)2
_chemical_formula_sum   'Ba8 H16 O16'
_cell_volume   525.50312986
_cell_formula_units_Z   8
loop_
 _symmetry_equiv_pos_site_id
 _symmetry_equiv_pos_as_xyz
  1  'x, y, z'
loop_
 _atom_site_type_symbol
 _atom_site_label
 _atom_site_symmetry_multiplicity
 _atom_site_fract_x
 _atom_site_fract_y
 _atom_site_fract_z
 _atom_site_occupancy
  Ba  Ba0  1  0.26353200  0.13818000  0.90222400  1
  Ba  Ba1  1  0.75837200  0.35587500  0.39980800  1
  Ba  Ba2  1  0.75659700  0.85294100  0.09695800  1
  Ba  Ba3  1  0.25709600  0.64888100  0.59422600  1
  Ba  Ba4  1  0.29013900  0.07539900  0.34626600  1
  Ba  Ba5  1  0.78325000  0.44650500  0.82906600  1
  Ba  Ba6  1  0.72058500  0.96170000  0.67811900  1
  Ba  Ba7  1  0.21075700  0.55416100  0.18437300  1
  H  H0  1  0.18639000  0.04728400  0.62586300  1
  H  H1  1  0.85885600  0.38483500  0.12024700  1
  H  H2  1  0.63348700  0.89394200  0.37835900  1
  H  H3  1  0.30665000  0.54566100  0.88531000  1
  H  H4  1  0.34344700  0.84468700  0.17550600  1
  H  H5  1  0.90778800  0.68487200  0.68588200  1
  H  H6  1  0.77209700  0.15531400  0.97699700  1
  H  H7  1  0.27791500  0.35446100  0.48975400  1
  H  H8  1  0.11234100  0.81801400  0.93538200  1
  H  H9  1  0.62320300  0.67398500  0.45372300  1
  H  H10  1  0.12020600  0.23404200  0.12536200  1
  H  H11  1  0.45693300  0.23873900  0.64296900  1
  H  H12  1  0.95163200  0.85277300  0.37346500  1
  H  H13  1  0.44997600  0.78049600  0.87115900  1
  H  H14  1  0.04784300  0.28734100  0.62367200  1
  H  H15  1  0.53829800  0.34880300  0.12494600  1
  O  O0  1  0.31551400  0.99503900  0.63040800  1
  O  O1  1  0.80853700  0.49884000  0.12414100  1
  O  O2  1  0.68895600  0.00755200  0.38355000  1
  O  O3  1  0.19470300  0.46889100  0.88507200  1
  O  O4  1  0.35330900  0.87075000  0.07700600  1
  O  O5  1  0.85725100  0.62857300  0.59603600  1
  O  O6  1  0.65339600  0.13092700  0.90806500  1
  O  O7  1  0.15023600  0.37003000  0.42477600  1
  O  O8  1  0.98655300  0.83888900  0.87540300  1
  O  O9  1  0.50169800  0.68496900  0.38574900  1
  O  O10  1  0.98693000  0.18827100  0.11672800  1
  O  O11  1  0.50067900  0.33942100  0.59985400  1
  O  O12  1  0.05719400  0.80738100  0.32576600  1
  O  O13  1  0.53854900  0.71080500  0.82674500  1
  O  O14  1  0.96988000  0.20870500  0.67107700  1
  O  O15  1  0.43821300  0.29592600  0.17533500  1
loop_
_geom_bond_atom_site_label_1
_geom_bond_atom_site_label_2
_geom_bond_distance
_geom_bond_site_symmetry_2
Ba0 H0 2.059288 1_555
Ba0 O0 2.295942 1_545
Ba0 H10 2.315259 1_556
Ba0 O4 2.595194 1_546
Ba0 O15 2.633689 1_556
Ba0 O3 2.774221 1_555
Ba1 H1 2.276421 1_555
Ba1 O1 2.344551 1_555
Ba1 H15 2.611564 1_555
Ba1 O5 2.672346 1_555
Ba1 O14 2.827386 1_555
Ba1 O2 2.904894 1_555
Ba1 H9 2.935881 1_555
Ba1 O11 2.972676 1_555
Ba2 H2 2.414010 1_555
Ba2 H12 2.459384 1_555
Ba2 O2 2.478510 1_565
Ba2 H6 2.620378 1_564
Ba2 O6 2.745533 1_564
Ba2 O13 2.808624 1_554
Ba2 O8 2.832357 1_554
Ba2 O1 2.931885 1_555
Ba3 H3 2.174329 1_555
Ba4 O0 2.052495 1_545
Ba5 O1 2.044108 1_556
Ba5 O5 2.376276 1_555
Ba6 O2 2.045151 1_565
Ba6 O6 2.238374 1_565
Ba7 O3 2.142569 1_554
Ba7 O7 2.377870 1_555
H0 O0 1.295687 1_545
H1 O1 1.047431 1_555
H2 O2 1.059690 1_565
H3 O3 1.230073 1_555
H4 O4 0.731116 1_555
H5 O5 0.851766 1_555
H6 O6 1.173835 1_555
H7 O7 1.239304 1_555
H8 O8 1.220960 1_455
H9 O9 1.186441 1_555
H10 O10 1.310170 1_455
H11 O11 0.986072 1_555
H12 O12 1.157193 1_655
H13 O13 1.091744 1_555
H14 O14 1.065120 1_455
H15 O15 1.140909 1_555
