# generated using pymatgen
data_Fe2SiS4
_symmetry_space_group_name_H-M   'P 1'
_cell_length_a   5.80815700
_cell_length_b   7.02692700
_cell_length_c   12.16652700
_cell_angle_alpha   90.00000000
_cell_angle_beta   90.00000000
_cell_angle_gamma   90.00000000
_symmetry_Int_Tables_number   1
_chemical_formula_structural   Fe2SiS4
_chemical_formula_sum   'Fe8 Si4 S16'
_cell_volume   496.55849184
_cell_formula_units_Z   4
loop_
 _symmetry_equiv_pos_site_id
 _symmetry_equiv_pos_as_xyz
  1  'x, y, z'
loop_
 _atom_site_type_symbol
 _atom_site_label
 _atom_site_symmetry_multiplicity
 _atom_site_fract_x
 _atom_site_fract_y
 _atom_site_fract_z
 _atom_site_occupancy
  Fe  Fe0  1  0.50717400  0.75000000  0.73790400  1
  Fe  Fe1  1  0.00717400  0.25000000  0.76209600  1
  Fe  Fe2  1  0.00000000  0.00000000  0.50000000  1
  Fe  Fe3  1  0.49282600  0.25000000  0.26209600  1
  Fe  Fe4  1  0.99282600  0.75000000  0.23790400  1
  Fe  Fe5  1  0.50000000  0.00000000  0.00000000  1
  Fe  Fe6  1  0.50000000  0.50000000  0.00000000  1
  Fe  Fe7  1  0.00000000  0.50000000  0.50000000  1
  Si  Si0  1  0.90770200  0.25000000  0.08795900  1
  Si  Si1  1  0.09229800  0.75000000  0.91204100  1
  Si  Si2  1  0.59229800  0.25000000  0.58795900  1
  Si  Si3  1  0.40770200  0.75000000  0.41204100  1
  S  S0  1  0.25918200  0.75000000  0.57458400  1
  S  S1  1  0.22298300  0.25000000  0.59153300  1
  S  S2  1  0.25077400  0.50923600  0.83213600  1
  S  S3  1  0.74081800  0.25000000  0.42541600  1
  S  S4  1  0.75077400  0.00923600  0.66786400  1
  S  S5  1  0.75077400  0.49076400  0.66786400  1
  S  S6  1  0.24922600  0.50923600  0.33213600  1
  S  S7  1  0.27701700  0.25000000  0.09153300  1
  S  S8  1  0.24081800  0.75000000  0.07458400  1
  S  S9  1  0.72298300  0.75000000  0.90846700  1
  S  S10  1  0.25077400  0.99076400  0.83213600  1
  S  S11  1  0.77701700  0.75000000  0.40846700  1
  S  S12  1  0.74922600  0.00923600  0.16786400  1
  S  S13  1  0.75918200  0.25000000  0.92541600  1
  S  S14  1  0.24922600  0.99076400  0.33213600  1
  S  S15  1  0.74922600  0.49076400  0.16786400  1
loop_
_geom_bond_atom_site_label_1
_geom_bond_atom_site_label_2
_geom_bond_distance
_geom_bond_site_symmetry_2
Fe0 S9 2.424341 1_555
Fe0 S0 2.454180 1_555
Fe0 S4 2.458931 1_565
Fe0 S5 2.458931 1_555
Fe0 S10 2.528725 1_555
Fe0 S2 2.528725 1_555
Fe1 S1 2.424341 1_555
Fe1 S13 2.454180 1_455
Fe1 S10 2.458931 1_545
Fe1 S2 2.458931 1_555
Fe1 S5 2.528725 1_455
Fe1 S4 2.528725 1_455
Fe2 S1 2.450231 1_555
Fe2 S11 2.450231 1_445
Fe2 S3 2.485090 1_455
Fe2 S0 2.485090 1_545
Fe2 S4 2.504131 1_455
Fe2 S14 2.504131 1_545
Fe3 S7 2.424341 1_555
Fe3 S3 2.454180 1_555
Fe3 S6 2.458931 1_555
Fe3 S14 2.458931 1_545
Fe3 S15 2.528725 1_555
Fe3 S12 2.528725 1_555
Fe4 S11 2.424341 1_555
Fe4 S8 2.454180 1_655
Fe4 S12 2.458931 1_565
Fe4 S15 2.458931 1_555
Fe4 S6 2.528725 1_655
Fe4 S14 2.528725 1_655
Fe5 S9 2.450231 1_544
Fe5 S7 2.450231 1_555
Fe5 S13 2.485090 1_554
Fe5 S8 2.485090 1_545
Fe5 S12 2.504131 1_555
Fe5 S10 2.504131 1_544
Fe6 S9 2.450231 1_554
Fe6 S7 2.450231 1_555
Fe6 S8 2.485090 1_555
Fe6 S13 2.485090 1_554
Fe6 S15 2.504131 1_555
Fe6 S2 2.504131 1_554
Fe7 S11 2.450231 1_455
Fe7 S1 2.450231 1_555
Fe7 S3 2.485090 1_455
Fe7 S0 2.485090 1_555
Fe7 S5 2.504131 1_455
Fe7 S6 2.504131 1_555
S0 Si3 2.157537 1_555
S1 Si2 2.145480 1_555
S2 Si1 2.157460 1_555
S3 Si2 2.157537 1_555
S4 Si2 2.157460 1_555
S5 Si2 2.157460 1_555
S6 Si3 2.157460 1_555
S7 Si0 2.145480 1_455
S8 Si1 2.157537 1_554
S9 Si1 2.145480 1_655
S10 Si1 2.157460 1_555
S11 Si3 2.145480 1_555
S12 Si0 2.157460 1_555
S13 Si0 2.157537 1_556
S14 Si3 2.157460 1_555
S15 Si0 2.157460 1_555
