# generated using pymatgen
data_Ti2S
_symmetry_space_group_name_H-M   'P 1'
_cell_length_a   3.31829333
_cell_length_b   11.35121262
_cell_length_c   14.00214364
_cell_angle_alpha   90.00000000
_cell_angle_beta   90.00000000
_cell_angle_gamma   90.00000000
_symmetry_Int_Tables_number   1
_chemical_formula_structural   Ti2S
_chemical_formula_sum   'Ti24 S12'
_cell_volume   527.41388749
_cell_formula_units_Z   12
loop_
 _symmetry_equiv_pos_site_id
 _symmetry_equiv_pos_as_xyz
  1  'x, y, z'
loop_
 _atom_site_type_symbol
 _atom_site_label
 _atom_site_symmetry_multiplicity
 _atom_site_fract_x
 _atom_site_fract_y
 _atom_site_fract_z
 _atom_site_occupancy
  Ti  Ti0  1  0.50000000  0.41065187  0.75689138  1
  Ti  Ti1  1  0.50000000  0.38173000  0.07759981  1
  Ti  Ti2  1  -0.00000000  0.81123880  0.20831072  1
  Ti  Ti3  1  -0.00000000  0.47043329  0.38968790  1
  Ti  Ti4  1  0.00000000  0.08934813  0.25689138  1
  Ti  Ti5  1  0.50000000  0.61827000  0.92240019  1
  Ti  Ti6  1  -0.00000000  0.58969773  0.07905441  1
  Ti  Ti7  1  0.00000000  0.91065187  0.74310862  1
  Ti  Ti8  1  0.50000000  0.91030227  0.57905441  1
  Ti  Ti9  1  -0.00000000  0.84712825  0.97982699  1
  Ti  Ti10  1  0.50000000  0.31123880  0.29168928  1
  Ti  Ti11  1  0.50000000  0.08969773  0.42094559  1
  Ti  Ti12  1  0.50000000  0.02956671  0.88968790  1
  Ti  Ti13  1  0.50000000  0.97043329  0.11031210  1
  Ti  Ti14  1  0.00000000  0.18876120  0.79168928  1
  Ti  Ti15  1  0.50000000  0.65287175  0.47982699  1
  Ti  Ti16  1  0.50000000  0.68876120  0.70831072  1
  Ti  Ti17  1  0.50000000  0.34712825  0.52017301  1
  Ti  Ti18  1  -0.00000000  0.41030227  0.92094559  1
  Ti  Ti19  1  -0.00000000  0.52956671  0.61031210  1
  Ti  Ti20  1  0.50000000  0.58934813  0.24310862  1
  Ti  Ti21  1  -0.00000000  0.88173000  0.42240019  1
  Ti  Ti22  1  0.00000000  0.15287175  0.02017301  1
  Ti  Ti23  1  0.00000000  0.11827000  0.57759981  1
  S  S0  1  -0.00000000  0.56567423  0.79393508  1
  S  S1  1  0.50000000  0.06567423  0.70606492  1
  S  S2  1  -0.00000000  0.43432577  0.20606492  1
  S  S3  1  -0.00000000  0.75374632  0.58882291  1
  S  S4  1  0.50000000  0.81370875  0.85053182  1
  S  S5  1  0.50000000  0.93432577  0.29393508  1
  S  S6  1  0.50000000  0.18629125  0.14946818  1
  S  S7  1  0.50000000  0.74625368  0.08882291  1
  S  S8  1  -0.00000000  0.31370875  0.64946818  1
  S  S9  1  0.50000000  0.25374632  0.91117709  1
  S  S10  1  -0.00000000  0.68629125  0.35053182  1
  S  S11  1  0.00000000  0.24625368  0.41117709  1
loop_
_geom_bond_atom_site_label_1
_geom_bond_atom_site_label_2
_geom_bond_distance
_geom_bond_site_symmetry_2
S0 Ti0 2.473524 1_455
S0 Ti0 2.473524 1_555
S0 Ti16 2.478370 1_455
S0 Ti16 2.478370 1_555
S0 Ti18 2.504650 1_555
S0 Ti5 2.518897 1_555
S0 Ti5 2.518897 1_455
S0 Ti19 2.603579 1_555
S1 Ti7 2.473524 1_545
S1 Ti7 2.473524 1_645
S1 Ti14 2.478370 1_555
S1 Ti14 2.478370 1_655
S1 Ti8 2.504650 1_545
S1 Ti23 2.518897 1_555
S1 Ti23 2.518897 1_655
S1 Ti12 2.603579 1_555
S2 Ti20 2.473524 1_455
S2 Ti20 2.473524 1_555
S2 Ti10 2.478370 1_455
S2 Ti10 2.478370 1_555
S2 Ti6 2.504650 1_555
S2 Ti1 2.518897 1_455
S2 Ti1 2.518897 1_555
S2 Ti3 2.603579 1_555
S3 Ti8 2.435069 1_555
S3 Ti8 2.435069 1_455
S3 Ti16 2.469033 1_555
S3 Ti16 2.469033 1_455
S3 Ti15 2.528462 1_455
S3 Ti15 2.528462 1_555
S3 Ti19 2.562438 1_555
S3 Ti21 2.746037 1_555
S3 Ti7 2.799863 1_555
S4 Ti5 2.436033 1_555
S4 Ti16 2.444845 1_555
S4 Ti9 2.484805 1_555
S4 Ti9 2.484805 1_655
S4 Ti7 2.495231 1_655
S4 Ti7 2.495231 1_555
S4 Ti12 2.510841 1_565
S5 Ti4 2.473524 1_665
S5 Ti4 2.473524 1_565
S5 Ti2 2.478370 1_555
S5 Ti2 2.478370 1_655
S5 Ti11 2.504650 1_565
S5 Ti21 2.518897 1_655
S5 Ti21 2.518897 1_555
S5 Ti13 2.603579 1_555
S6 Ti1 2.436033 1_555
S6 Ti10 2.444845 1_555
S6 Ti22 2.484805 1_555
S6 Ti22 2.484805 1_655
S6 Ti4 2.495231 1_655
S6 Ti4 2.495231 1_555
S6 Ti13 2.510841 1_545
S7 Ti6 2.435069 1_655
S7 Ti6 2.435069 1_555
S7 Ti2 2.469033 1_655
S7 Ti2 2.469033 1_555
S7 Ti9 2.528462 1_654
S7 Ti9 2.528462 1_554
S7 Ti13 2.562438 1_555
S7 Ti5 2.746037 1_554
S7 Ti20 2.799863 1_555
S8 Ti23 2.436033 1_555
S8 Ti14 2.444845 1_555
S8 Ti17 2.484805 1_455
S8 Ti17 2.484805 1_555
S8 Ti0 2.495231 1_555
S8 Ti0 2.495231 1_455
S8 Ti19 2.510841 1_555
S9 Ti18 2.435069 1_555
S9 Ti18 2.435069 1_655
S9 Ti14 2.469033 1_655
S9 Ti14 2.469033 1_555
S9 Ti22 2.528462 1_556
S9 Ti22 2.528462 1_656
S9 Ti12 2.562438 1_555
S9 Ti1 2.746037 1_556
S9 Ti0 2.799863 1_555
S10 Ti21 2.436033 1_555
S10 Ti2 2.444845 1_555
S10 Ti15 2.484805 1_555
S10 Ti15 2.484805 1_455
S10 Ti20 2.495231 1_455
S10 Ti20 2.495231 1_555
S10 Ti3 2.510841 1_555
S11 Ti11 2.435069 1_555
S11 Ti11 2.435069 1_455
S11 Ti10 2.469033 1_455
S11 Ti10 2.469033 1_555
S11 Ti17 2.528462 1_455
S11 Ti17 2.528462 1_555
S11 Ti3 2.562438 1_555
S11 Ti23 2.746037 1_555
S11 Ti4 2.799863 1_555
