# generated using pymatgen
data_Nb3(CuTe3)2
_symmetry_space_group_name_H-M   'P 1'
_cell_length_a   6.99618100
_cell_length_b   7.97957651
_cell_length_c   11.27826171
_cell_angle_alpha   86.44611336
_cell_angle_beta   101.56862355
_cell_angle_gamma   114.71055714
_symmetry_Int_Tables_number   1
_chemical_formula_structural   Nb3(CuTe3)2
_chemical_formula_sum   'Nb6 Cu4 Te12'
_cell_volume   560.18406343
_cell_formula_units_Z   2
loop_
 _symmetry_equiv_pos_site_id
 _symmetry_equiv_pos_as_xyz
  1  'x, y, z'
loop_
 _atom_site_type_symbol
 _atom_site_label
 _atom_site_symmetry_multiplicity
 _atom_site_fract_x
 _atom_site_fract_y
 _atom_site_fract_z
 _atom_site_occupancy
  Nb  Nb0  1  0.39389800  0.01701400  0.78589900  1
  Nb  Nb1  1  0.62651900  0.75112900  0.75962500  1
  Nb  Nb2  1  0.20410900  0.58689200  0.09558900  1
  Nb  Nb3  1  0.79589100  0.41310800  0.90441100  1
  Nb  Nb4  1  0.37348100  0.24887100  0.24037500  1
  Nb  Nb5  1  0.60610200  0.98298600  0.21410100  1
  Cu  Cu0  1  0.61692300  0.89406400  0.48149800  1
  Cu  Cu1  1  0.82660700  0.11996700  0.81838700  1
  Cu  Cu2  1  0.17339300  0.88003300  0.18161300  1
  Cu  Cu3  1  0.38307700  0.10593600  0.51850200  1
  Te  Te0  1  0.46122000  0.18198400  0.02577300  1
  Te  Te1  1  0.55583200  0.38801800  0.67967200  1
  Te  Te2  1  0.17330300  0.42510400  0.85904200  1
  Te  Te3  1  0.03577400  0.98847700  0.34336800  1
  Te  Te4  1  0.71257700  0.23353900  0.40653200  1
  Te  Te5  1  0.04049200  0.79669000  0.90247100  1
  Te  Te6  1  0.28742300  0.76646100  0.59346800  1
  Te  Te7  1  0.95950800  0.20331000  0.09752900  1
  Te  Te8  1  0.96422600  0.01152300  0.65663200  1
  Te  Te9  1  0.82669700  0.57489600  0.14095800  1
  Te  Te10  1  0.44416800  0.61198200  0.32032800  1
  Te  Te11  1  0.53878000  0.81801600  0.97422700  1
loop_
_geom_bond_atom_site_label_1
_geom_bond_atom_site_label_2
_geom_bond_distance
_geom_bond_site_symmetry_2
Nb0 Te6 2.811870 1_545
Nb0 Te11 2.850332 1_545
Nb0 Te5 2.883672 1_545
Nb0 Te0 2.947164 1_556
Nb0 Te1 2.963727 1_555
Nb0 Te8 3.050222 1_455
Nb1 Te11 2.747663 1_555
Nb1 Te6 2.754270 1_555
Nb1 Te8 2.818848 1_565
Nb1 Te1 2.898288 1_555
Nb1 Te5 2.904591 1_655
Nb2 Te10 2.712879 1_555
Nb2 Te9 2.750895 1_455
Nb2 Te7 2.815143 1_455
Nb2 Te11 2.849418 1_554
Nb2 Te2 2.965508 1_554
Nb2 Te5 3.001157 1_554
Nb3 Te1 2.712879 1_555
Nb3 Te2 2.750895 1_655
Nb3 Te5 2.815143 1_655
Nb3 Te0 2.849418 1_556
Nb3 Te9 2.965508 1_556
Nb3 Te7 3.001157 1_556
Nb4 Te0 2.747663 1_555
Nb4 Te4 2.754270 1_555
Nb4 Te3 2.818848 1_545
Nb4 Te10 2.898288 1_555
Nb4 Te7 2.904591 1_455
Nb5 Te4 2.811870 1_565
Nb5 Te0 2.850332 1_565
Nb5 Te7 2.883672 1_565
Nb5 Te11 2.947164 1_554
Nb5 Te10 2.963727 1_555
Nb5 Te3 3.050222 1_655
Cu0 Te4 2.632112 1_565
Cu0 Te6 2.644121 1_555
Cu0 Te8 2.661646 1_565
Cu0 Te10 2.680106 1_555
Cu0 Cu3 2.895325 1_565
Cu0 Nb5 3.048302 1_555
Cu0 Nb1 3.268156 1_555
Cu0 Te3 3.379533 1_655
Cu1 Te8 2.569184 1_555
Cu1 Te2 2.603210 1_655
Cu1 Nb3 2.691522 1_555
Cu1 Nb1 2.736087 1_545
Cu1 Nb0 2.736217 1_555
Cu1 Te7 3.128373 1_556
Cu1 Te11 3.128507 1_545
Cu2 Te3 2.569184 1_555
Cu2 Te9 2.603210 1_455
Cu2 Nb2 2.691522 1_555
Cu2 Nb4 2.736087 1_565
Cu2 Nb5 2.736217 1_555
Cu2 Te5 3.128373 1_554
Cu2 Te0 3.128507 1_565
Cu3 Te6 2.632112 1_545
Cu3 Te4 2.644121 1_555
Cu3 Te3 2.661646 1_545
Cu3 Te1 2.680106 1_555
Cu3 Nb0 3.048302 1_555
Cu3 Nb4 3.268156 1_555
Cu3 Te8 3.379533 1_455
