# generated using pymatgen
data_Sb8(Pb3S7)3
_symmetry_space_group_name_H-M   'P 1'
_cell_length_a   9.19865533
_cell_length_b   9.19865533
_cell_length_c   25.31881551
_cell_angle_alpha   78.77665008
_cell_angle_beta   78.77665008
_cell_angle_gamma   81.97564089
_symmetry_Int_Tables_number   1
_chemical_formula_structural   Sb8(Pb3S7)3
_chemical_formula_sum   'Sb16 Pb18 S42'
_cell_volume   2049.65009264
_cell_formula_units_Z   2
loop_
 _symmetry_equiv_pos_site_id
 _symmetry_equiv_pos_as_xyz
  1  'x, y, z'
loop_
 _atom_site_type_symbol
 _atom_site_label
 _atom_site_symmetry_multiplicity
 _atom_site_fract_x
 _atom_site_fract_y
 _atom_site_fract_z
 _atom_site_occupancy
  Sb  Sb0  1  0.53868600  0.42227900  0.07654900  1
  Sb  Sb1  1  0.10259400  0.45632200  0.87779800  1
  Sb  Sb2  1  0.84447400  0.17541000  0.52324800  1
  Sb  Sb3  1  0.71119000  0.19200200  0.68438600  1
  Sb  Sb4  1  0.57772100  0.46131400  0.42345100  1
  Sb  Sb5  1  0.89740600  0.54367800  0.12220200  1
  Sb  Sb6  1  0.19200200  0.71119000  0.18438600  1
  Sb  Sb7  1  0.15552600  0.82459000  0.47675200  1
  Sb  Sb8  1  0.80799800  0.28881000  0.81561400  1
  Sb  Sb9  1  0.54367800  0.89740600  0.62220200  1
  Sb  Sb10  1  0.82459000  0.15552600  0.97675200  1
  Sb  Sb11  1  0.17541000  0.84447400  0.02324800  1
  Sb  Sb12  1  0.28881000  0.80799800  0.31561400  1
  Sb  Sb13  1  0.46131400  0.57772100  0.92345100  1
  Sb  Sb14  1  0.42227900  0.53868600  0.57654900  1
  Sb  Sb15  1  0.45632200  0.10259400  0.37779800  1
  Pb  Pb0  1  0.78631700  0.75699100  0.80837300  1
  Pb  Pb1  1  0.90680700  0.13384200  0.36047500  1
  Pb  Pb2  1  0.50372700  0.96331100  0.09066900  1
  Pb  Pb3  1  0.13384200  0.90680700  0.86047500  1
  Pb  Pb4  1  0.54145000  0.45855000  0.25000000  1
  Pb  Pb5  1  0.45855000  0.54145000  0.75000000  1
  Pb  Pb6  1  0.80317900  0.69901000  0.98109200  1
  Pb  Pb7  1  0.30099000  0.19682100  0.51890800  1
  Pb  Pb8  1  0.75699100  0.78631700  0.30837300  1
  Pb  Pb9  1  0.96331100  0.50372700  0.59066900  1
  Pb  Pb10  1  0.86615800  0.09319300  0.13952500  1
  Pb  Pb11  1  0.49627300  0.03668900  0.90933100  1
  Pb  Pb12  1  0.19682100  0.30099000  0.01890800  1
  Pb  Pb13  1  0.03668900  0.49627300  0.40933100  1
  Pb  Pb14  1  0.69901000  0.80317900  0.48109200  1
  Pb  Pb15  1  0.09319300  0.86615800  0.63952500  1
  Pb  Pb16  1  0.21368300  0.24300900  0.19162700  1
  Pb  Pb17  1  0.24300900  0.21368300  0.69162700  1
  S  S0  1  0.31787400  0.87217300  0.54455000  1
  S  S1  1  0.22553000  0.48889000  0.25401100  1
  S  S2  1  0.51937700  0.74625400  0.40119700  1
  S  S3  1  0.06797900  0.18914500  0.60164500  1
  S  S4  1  0.19395900  0.53875700  0.49920600  1
  S  S5  1  0.38421500  0.39565500  0.86878900  1
  S  S6  1  0.89386700  0.33078900  0.19612700  1
  S  S7  1  0.53875700  0.19395900  0.99920600  1
  S  S8  1  0.16557700  0.06875300  0.95245300  1
  S  S9  1  0.72525800  0.91903000  0.68311100  1
  S  S10  1  0.61578500  0.60434500  0.13121100  1
  S  S11  1  0.10548500  0.89451500  0.25000000  1
  S  S12  1  0.18914500  0.06797900  0.10164500  1
  S  S13  1  0.78992700  0.45776600  0.34853500  1
  S  S14  1  0.93124700  0.83442300  0.54754700  1
  S  S15  1  0.77447000  0.51111000  0.74598900  1
  S  S16  1  0.80604100  0.46124300  0.50079400  1
  S  S17  1  0.48889000  0.22553000  0.75401100  1
  S  S18  1  0.21007300  0.54223400  0.65146500  1
  S  S19  1  0.45776600  0.78992700  0.84853500  1
  S  S20  1  0.25374600  0.48062300  0.09880300  1
  S  S21  1  0.93202100  0.81085500  0.39835500  1
  S  S22  1  0.54223400  0.21007300  0.15146500  1
  S  S23  1  0.74625400  0.51937700  0.90119700  1
  S  S24  1  0.46124300  0.80604100  0.00079400  1
  S  S25  1  0.48062300  0.25374600  0.59880300  1
  S  S26  1  0.66921100  0.10613300  0.30387300  1
  S  S27  1  0.39565500  0.38421500  0.36878900  1
  S  S28  1  0.60434500  0.61578500  0.63121100  1
  S  S29  1  0.27474200  0.08097000  0.31688900  1
  S  S30  1  0.12782700  0.68212600  0.95545000  1
  S  S31  1  0.51111000  0.77447000  0.24598900  1
  S  S32  1  0.81085500  0.93202100  0.89835500  1
  S  S33  1  0.06875300  0.16557700  0.45245300  1
  S  S34  1  0.33078900  0.89386700  0.69612700  1
  S  S35  1  0.68212600  0.12782700  0.45545000  1
  S  S36  1  0.83442300  0.93124700  0.04754700  1
  S  S37  1  0.89451500  0.10548500  0.75000000  1
  S  S38  1  0.08097000  0.27474200  0.81688900  1
  S  S39  1  0.10613300  0.66921100  0.80387300  1
  S  S40  1  0.91903000  0.72525800  0.18311100  1
  S  S41  1  0.87217300  0.31787400  0.04455000  1
loop_
_geom_bond_atom_site_label_1
_geom_bond_atom_site_label_2
_geom_bond_distance
_geom_bond_site_symmetry_2
Pb0 S23 2.885263 1_555
Pb0 S39 2.926047 1_655
Pb0 S19 2.987916 1_555
Pb0 S15 3.024689 1_555
Pb0 S32 3.092416 1_555
Pb1 S35 2.846483 1_555
Pb1 S26 2.900409 1_555
Pb1 S21 2.930143 1_545
Pb1 S13 3.001200 1_555
Pb1 S33 3.076367 1_655
Pb2 S7 2.820588 1_564
Pb2 S12 2.896752 1_565
Pb2 S36 3.019031 1_555
Pb2 S24 3.034644 1_555
Pb2 S22 3.073112 1_565
Pb3 S30 2.846483 1_555
Pb3 S39 2.900409 1_555
Pb3 S32 2.930143 1_455
Pb3 S19 3.001200 1_555
Pb3 S8 3.076367 1_565
Pb4 S31 2.864086 1_555
Pb4 S1 2.864086 1_555
Pb4 S27 3.032679 1_555
Pb4 S10 3.032679 1_555
Pb5 S17 2.864086 1_555
Pb5 S15 2.864086 1_555
Pb5 S28 3.032679 1_555
Pb5 S5 3.032679 1_555
Pb6 S32 2.687781 1_555
Pb6 S30 2.918698 1_655
Pb6 S23 3.008570 1_555
Pb6 S36 3.039095 1_556
Pb6 S24 3.134842 1_556
Pb7 S3 2.687781 1_555
Pb7 S0 2.918698 1_545
Pb7 S25 3.008570 1_555
Pb7 S33 3.039095 1_555
Pb7 S4 3.134842 1_555
Pb8 S2 2.885263 1_555
Pb8 S26 2.926047 1_565
Pb8 S13 2.987916 1_555
Pb8 S31 3.024689 1_555
Pb8 S21 3.092416 1_555
Pb9 S4 2.820588 1_655
Pb9 S3 2.896752 1_655
Pb9 S14 3.019031 1_555
Pb9 S16 3.034644 1_555
Pb9 S18 3.073112 1_655
Pb10 S41 2.846483 1_555
Pb10 S6 2.900409 1_555
Pb10 S12 2.930143 1_655
Pb10 S22 3.001200 1_555
Pb10 S36 3.076367 1_545
Pb11 S24 2.820588 1_546
Pb11 S32 2.896752 1_545
Pb11 S8 3.019031 1_555
Pb11 S7 3.034644 1_555
Pb11 S19 3.073112 1_545
Pb12 S12 2.687781 1_555
Pb12 S41 2.918698 1_455
Pb12 S20 3.008570 1_555
Pb12 S8 3.039095 1_554
Pb12 S7 3.134842 1_554
Pb13 S16 2.820588 1_455
Pb13 S21 2.896752 1_455
Pb13 S33 3.019031 1_555
Pb13 S4 3.034644 1_555
Pb13 S13 3.073112 1_455
Pb14 S21 2.687781 1_555
Pb14 S35 2.918698 1_565
Pb14 S2 3.008570 1_555
Pb14 S14 3.039095 1_555
Pb14 S16 3.134842 1_555
Pb15 S0 2.846483 1_555
Pb15 S34 2.900409 1_555
Pb15 S3 2.930143 1_565
Pb15 S18 3.001200 1_555
Pb15 S14 3.076367 1_455
Pb16 S20 2.885263 1_555
Pb16 S6 2.926047 1_455
Pb16 S22 2.987916 1_555
Pb16 S1 3.024689 1_555
Pb16 S12 3.092416 1_555
Pb17 S25 2.885263 1_555
Pb17 S34 2.926047 1_545
Pb17 S18 2.987916 1_555
Pb17 S17 3.024689 1_555
Pb17 S3 3.092416 1_555
S0 Sb7 2.615573 1_555
S0 Sb14 3.082531 1_555
S0 Sb9 3.183623 1_555
S1 Sb6 2.452851 1_555
S2 Sb4 2.574021 1_555
S3 Sb2 3.153011 1_455
S4 Sb7 2.568687 1_555
S4 Sb14 3.137795 1_555
S5 Sb1 2.547596 1_555
S5 Sb13 2.615175 1_555
S6 Sb5 2.430327 1_555
S7 Sb10 2.568687 1_555
S7 Sb0 3.137795 1_556
S8 Sb11 2.459432 1_546
S8 Sb10 3.097580 1_455
S9 Sb3 2.502398 1_565
S9 Sb9 2.534266 1_555
S10 Sb5 2.547596 1_555
S10 Sb0 2.615175 1_555
S11 Sb6 2.537344 1_555
S11 Sb12 2.537344 1_555
S12 Sb11 3.153011 1_545
S13 Sb4 2.444223 1_555
S14 Sb7 2.459432 1_655
S14 Sb2 3.097580 1_565
S15 Sb8 2.452851 1_555
S16 Sb2 2.568687 1_555
S16 Sb4 3.137795 1_555
S17 Sb3 2.452851 1_555
S18 Sb14 2.444223 1_555
S19 Sb13 2.444223 1_555
S20 Sb0 2.574021 1_555
S21 Sb7 3.153011 1_655
S22 Sb0 2.444223 1_555
S23 Sb13 2.574021 1_555
S24 Sb11 2.568687 1_555
S24 Sb13 3.137795 1_554
S25 Sb14 2.574021 1_555
S26 Sb15 2.430327 1_555
S27 Sb15 2.547596 1_555
S27 Sb4 2.615175 1_555
S28 Sb9 2.547596 1_555
S28 Sb14 2.615175 1_555
S29 Sb12 2.502398 1_545
S29 Sb15 2.534266 1_555
S30 Sb11 2.615573 1_556
S30 Sb13 3.082531 1_555
S30 Sb1 3.183623 1_555
S31 Sb12 2.452851 1_555
S32 Sb10 3.153011 1_565
S33 Sb2 2.459432 1_455
S33 Sb7 3.097580 1_545
S34 Sb9 2.430327 1_555
S35 Sb2 2.615573 1_555
S35 Sb4 3.082531 1_555
S35 Sb15 3.183623 1_555
S36 Sb10 2.459432 1_564
S36 Sb11 3.097580 1_655
S37 Sb3 2.537344 1_555
S37 Sb8 2.537344 1_555
S38 Sb8 2.502398 1_455
S38 Sb1 2.534266 1_555
S39 Sb1 2.430327 1_555
S40 Sb6 2.502398 1_655
S40 Sb5 2.534266 1_555
S41 Sb10 2.615573 1_554
S41 Sb0 3.082531 1_555
S41 Sb5 3.183623 1_555
