# generated using pymatgen
data_Rb5HfFe(MoO4)6
_symmetry_space_group_name_H-M   'P 1'
_cell_length_a   10.23347807
_cell_length_b   10.23347807
_cell_length_c   15.29367300
_cell_angle_alpha   90.00000000
_cell_angle_beta   90.00000000
_cell_angle_gamma   120.00000046
_symmetry_Int_Tables_number   1
_chemical_formula_structural   Rb5HfFe(MoO4)6
_chemical_formula_sum   'Rb10 Hf2 Fe2 Mo12 O48'
_cell_volume   1387.03990670
_cell_formula_units_Z   2
loop_
 _symmetry_equiv_pos_site_id
 _symmetry_equiv_pos_as_xyz
  1  'x, y, z'
loop_
 _atom_site_type_symbol
 _atom_site_label
 _atom_site_symmetry_multiplicity
 _atom_site_fract_x
 _atom_site_fract_y
 _atom_site_fract_z
 _atom_site_occupancy
  Rb  Rb0  1  0.07058500  0.31528000  0.25748300  1
  Rb  Rb1  1  0.00000000  0.00000000  0.51006700  1
  Rb  Rb2  1  0.66666700  0.33333300  0.57276300  1
  Rb  Rb3  1  0.00000000  0.00000000  0.01006700  1
  Rb  Rb4  1  0.75530400  0.07058500  0.75748300  1
  Rb  Rb5  1  0.31528000  0.24469600  0.75748300  1
  Rb  Rb6  1  0.33333300  0.66666700  0.07276300  1
  Rb  Rb7  1  0.68472000  0.75530400  0.25748300  1
  Rb  Rb8  1  0.92941500  0.68472000  0.75748300  1
  Rb  Rb9  1  0.24469600  0.92941500  0.25748300  1
  Hf  Hf0  1  0.66666700  0.33333300  0.97319600  1
  Hf  Hf1  1  0.33333300  0.66666700  0.47319600  1
  Fe  Fe0  1  0.66666700  0.33333300  0.30987300  1
  Fe  Fe1  1  0.33333300  0.66666700  0.80987300  1
  Mo  Mo0  1  0.63050100  0.65721000  0.92077000  1
  Mo  Mo1  1  0.41035900  0.31341300  0.15588700  1
  Mo  Mo2  1  0.34279000  0.97329100  0.92077000  1
  Mo  Mo3  1  0.09694600  0.41035900  0.65588700  1
  Mo  Mo4  1  0.58964100  0.68658700  0.65588700  1
  Mo  Mo5  1  0.02670900  0.36949900  0.92077000  1
  Mo  Mo6  1  0.68658700  0.09694600  0.15588700  1
  Mo  Mo7  1  0.36949900  0.34279000  0.42077000  1
  Mo  Mo8  1  0.65721000  0.02670900  0.42077000  1
  Mo  Mo9  1  0.90305400  0.58964100  0.15588700  1
  Mo  Mo10  1  0.97329100  0.63050100  0.42077000  1
  Mo  Mo11  1  0.31341300  0.90305400  0.65588700  1
  O  O0  1  0.56230400  0.40644600  0.38508900  1
  O  O1  1  0.50902500  0.76330700  0.73367700  1
  O  O2  1  0.95290100  0.77924500  0.14084300  1
  O  O3  1  0.43769600  0.59355400  0.88508900  1
  O  O4  1  0.23669300  0.74571800  0.73367700  1
  O  O5  1  0.25428200  0.49097500  0.73367700  1
  O  O6  1  0.82619200  0.31445100  0.90015400  1
  O  O7  1  0.17999500  0.94445400  0.86443100  1
  O  O8  1  0.35529800  0.84412700  0.55089600  1
  O  O9  1  0.29448700  0.94046100  0.03219900  1
  O  O10  1  0.49097500  0.23669300  0.23367700  1
  O  O11  1  0.22075500  0.17365600  0.14084300  1
  O  O12  1  0.82000500  0.05554600  0.36443100  1
  O  O13  1  0.40882800  0.47533400  0.19533700  1
  O  O14  1  0.15585800  0.56230400  0.88508900  1
  O  O15  1  0.40644600  0.84414200  0.88508900  1
  O  O16  1  0.05554600  0.23554100  0.86443100  1
  O  O17  1  0.52466600  0.93349400  0.19533700  1
  O  O18  1  0.76445900  0.82000500  0.86443100  1
  O  O19  1  0.82634400  0.04709900  0.14084300  1
  O  O20  1  0.48825900  0.17380800  0.90015400  1
  O  O21  1  0.04709900  0.22075500  0.64084300  1
  O  O22  1  0.64470200  0.15587300  0.05089600  1
  O  O23  1  0.06650600  0.59117200  0.19533700  1
  O  O24  1  0.48883000  0.64470200  0.55089600  1
  O  O25  1  0.23554100  0.17999500  0.36443100  1
  O  O26  1  0.59117200  0.52466600  0.69533700  1
  O  O27  1  0.51117000  0.35529800  0.05089600  1
  O  O28  1  0.59355400  0.15585800  0.38508900  1
  O  O29  1  0.68554900  0.51174100  0.90015400  1
  O  O30  1  0.05953900  0.35402600  0.03219900  1
  O  O31  1  0.77924500  0.82634400  0.64084300  1
  O  O32  1  0.47533400  0.06650600  0.69533700  1
  O  O33  1  0.35402600  0.29448700  0.53219900  1
  O  O34  1  0.31445100  0.48825900  0.40015400  1
  O  O35  1  0.94046100  0.64597400  0.53219900  1
  O  O36  1  0.74571800  0.50902500  0.23367700  1
  O  O37  1  0.76330700  0.25428200  0.23367700  1
  O  O38  1  0.64597400  0.70551300  0.03219900  1
  O  O39  1  0.84412700  0.48883000  0.05089600  1
  O  O40  1  0.51174100  0.82619200  0.40015400  1
  O  O41  1  0.15587300  0.51117000  0.55089600  1
  O  O42  1  0.70551300  0.05953900  0.53219900  1
  O  O43  1  0.93349400  0.40882800  0.69533700  1
  O  O44  1  0.84414200  0.43769600  0.38508900  1
  O  O45  1  0.17380800  0.68554900  0.40015400  1
  O  O46  1  0.17365600  0.95290100  0.64084300  1
  O  O47  1  0.94445400  0.76445900  0.36443100  1
loop_
_geom_bond_atom_site_label_1
_geom_bond_atom_site_label_2
_geom_bond_distance
_geom_bond_site_symmetry_2
Hf0 O6 2.065355 1_555
Hf0 O20 2.065360 1_555
Hf0 O29 2.065364 1_555
Hf0 O22 2.086240 1_556
Hf0 O39 2.086247 1_556
Hf0 O27 2.086257 1_556
Hf1 O45 2.065355 1_555
Hf1 O40 2.065360 1_555
Hf1 O34 2.065364 1_555
Hf1 O8 2.086240 1_555
Hf1 O41 2.086247 1_555
Hf1 O24 2.086257 1_555
Fe0 O37 1.946915 1_555
Fe0 O10 1.946922 1_555
Fe0 O36 1.946922 1_555
Fe0 O28 1.955178 1_555
Fe0 O44 1.955179 1_555
Fe0 O0 1.955186 1_555
Fe1 O4 1.946915 1_555
Fe1 O1 1.946922 1_555
Fe1 O5 1.946922 1_555
Fe1 O15 1.955178 1_555
Fe1 O14 1.955179 1_555
Fe1 O3 1.955186 1_555
Mo0 O38 1.759346 1_556
Mo0 O18 1.764450 1_555
Mo0 O3 1.824780 1_555
Mo0 O29 1.863183 1_555
Mo1 O11 1.757321 1_555
Mo1 O13 1.770853 1_555
Mo1 O10 1.833051 1_555
Mo1 O27 1.839590 1_555
Mo2 O9 1.759346 1_556
Mo2 O7 1.764450 1_555
Mo2 O15 1.824780 1_555
Mo2 O20 1.863183 1_565
Mo3 O21 1.757321 1_555
Mo3 O43 1.770853 1_455
Mo3 O5 1.833051 1_555
Mo3 O41 1.839590 1_555
Mo4 O31 1.757321 1_555
Mo4 O26 1.770853 1_555
Mo4 O1 1.833051 1_555
Mo4 O24 1.839590 1_555
Mo5 O30 1.759346 1_556
Mo5 O16 1.764450 1_555
Mo5 O14 1.824780 1_555
Mo5 O6 1.863183 1_455
Mo6 O19 1.757321 1_555
Mo6 O17 1.770853 1_545
Mo6 O37 1.833051 1_555
Mo6 O22 1.839594 1_555
Mo7 O33 1.759346 1_555
Mo7 O25 1.764450 1_555
Mo7 O0 1.824780 1_555
Mo7 O34 1.863183 1_555
Mo8 O42 1.759346 1_555
Mo8 O12 1.764450 1_555
Mo8 O28 1.824780 1_555
Mo8 O40 1.863183 1_545
Mo9 O2 1.757321 1_555
Mo9 O23 1.770853 1_655
Mo9 O36 1.833051 1_555
Mo9 O39 1.839590 1_555
Mo10 O35 1.759346 1_555
Mo10 O47 1.764450 1_555
Mo10 O44 1.824780 1_555
Mo10 O45 1.863183 1_655
Mo11 O46 1.757321 1_555
Mo11 O32 1.770853 1_565
Mo11 O4 1.833051 1_555
Mo11 O8 1.839594 1_555
O0 Rb2 3.276841 1_555
O1 Rb4 2.906429 1_565
O2 Rb3 2.871783 1_665
O2 Rb9 3.141901 1_655
O2 Rb7 3.178308 1_555
O3 Rb6 3.276841 1_556
O4 Rb8 2.906433 1_455
O5 Rb5 2.906423 1_555
O6 Rb4 3.115259 1_555
O7 Rb8 3.082196 1_455
O7 Rb3 3.118320 1_566
O7 Rb5 3.127077 1_565
O9 Rb6 3.083369 1_555
O9 Rb3 3.376969 1_565
O9 Rb9 3.476453 1_555
O10 Rb9 2.906429 1_545
O11 Rb3 2.871783 1_555
O11 Rb0 3.141894 1_555
O11 Rb9 3.178316 1_545
O12 Rb0 3.082196 1_655
O12 Rb1 3.118320 1_655
O12 Rb7 3.127077 1_545
O13 Rb7 2.999020 1_555
O13 Rb6 3.075305 1_555
O13 Rb0 3.146097 1_555
O14 Rb6 3.276837 1_556
O15 Rb6 3.276836 1_556
O16 Rb5 3.082192 1_555
O16 Rb3 3.118320 1_556
O16 Rb4 3.127077 1_455
O17 Rb9 2.999015 1_555
O17 Rb6 3.075299 1_555
O17 Rb7 3.146106 1_555
O18 Rb4 3.082200 1_565
O18 Rb3 3.118320 1_666
O18 Rb8 3.127070 1_555
O19 Rb3 2.871783 1_655
O19 Rb7 3.141901 1_545
O19 Rb0 3.178312 1_655
O20 Rb5 3.115266 1_555
O21 Rb1 2.871783 1_555
O21 Rb4 3.141901 1_455
O21 Rb5 3.178308 1_555
O23 Rb0 2.999025 1_555
O23 Rb6 3.075298 1_555
O23 Rb9 3.146097 1_555
O25 Rb9 3.082200 1_545
O25 Rb1 3.118320 1_555
O25 Rb0 3.127070 1_555
O26 Rb5 2.999020 1_555
O26 Rb2 3.075305 1_555
O26 Rb8 3.146097 1_555
O28 Rb2 3.276836 1_555
O29 Rb8 3.115261 1_555
O30 Rb6 3.083375 1_555
O30 Rb3 3.376969 1_555
O30 Rb0 3.476454 1_555
O31 Rb1 2.871783 1_665
O31 Rb8 3.141894 1_555
O31 Rb4 3.178316 1_565
O32 Rb4 2.999015 1_555
O32 Rb2 3.075299 1_555
O32 Rb5 3.146106 1_555
O33 Rb2 3.083379 1_555
O33 Rb1 3.376969 1_555
O33 Rb5 3.476453 1_555
O34 Rb0 3.115261 1_555
O35 Rb2 3.083375 1_555
O35 Rb1 3.376969 1_665
O35 Rb8 3.476454 1_555
O36 Rb7 2.906423 1_555
O37 Rb0 2.906433 1_655
O38 Rb6 3.083379 1_555
O38 Rb3 3.376969 1_665
O38 Rb7 3.476453 1_555
O40 Rb7 3.115266 1_555
O42 Rb2 3.083369 1_555
O42 Rb1 3.376969 1_655
O42 Rb4 3.476453 1_555
O43 Rb8 2.999025 1_555
O43 Rb2 3.075298 1_555
O43 Rb4 3.146097 1_555
O44 Rb2 3.276837 1_555
O45 Rb9 3.115259 1_555
O46 Rb1 2.871783 1_565
O46 Rb5 3.141901 1_565
O46 Rb8 3.178312 1_455
O47 Rb7 3.082192 1_555
O47 Rb1 3.118320 1_665
O47 Rb9 3.127077 1_655
