# generated using pymatgen
data_U2AsSe
_symmetry_space_group_name_H-M   'P 1'
_cell_length_a   7.07824130
_cell_length_b   7.07824130
_cell_length_c   5.77521555
_cell_angle_alpha   65.98269407
_cell_angle_beta   65.98269407
_cell_angle_gamma   48.19534406
_symmetry_Int_Tables_number   1
_chemical_formula_structural   U2AsSe
_chemical_formula_sum   'U4 As2 Se2'
_cell_volume   193.05966447
_cell_formula_units_Z   2
loop_
 _symmetry_equiv_pos_site_id
 _symmetry_equiv_pos_as_xyz
  1  'x, y, z'
loop_
 _atom_site_type_symbol
 _atom_site_label
 _atom_site_symmetry_multiplicity
 _atom_site_fract_x
 _atom_site_fract_y
 _atom_site_fract_z
 _atom_site_occupancy
  U  U0  1  0.87376900  0.87376900  0.88036600  1
  U  U1  1  0.37582100  0.37582100  0.37045400  1
  U  U2  1  0.12623100  0.12623100  0.11963400  1
  U  U3  1  0.62417900  0.62417900  0.62954600  1
  As  As0  1  0.62469800  0.62469800  0.13041800  1
  As  As1  1  0.37530200  0.37530200  0.86958200  1
  Se  Se0  1  0.12486400  0.12486400  0.62705200  1
  Se  Se1  1  0.87513600  0.87513600  0.37294800  1
loop_
_geom_bond_atom_site_label_1
_geom_bond_atom_site_label_2
_geom_bond_distance
_geom_bond_site_symmetry_2
As0 U1 2.879189 1_555
As0 U3 2.879588 1_555
As0 U0 2.881051 1_554
As0 U2 2.890548 1_565
As0 U2 2.890548 1_655
As0 U3 2.895640 1_554
As1 U3 2.879189 1_555
As1 U1 2.879588 1_555
As1 U2 2.881051 1_556
As1 U0 2.890548 1_545
As1 U0 2.890548 1_455
As1 U1 2.895640 1_556
Se0 U2 2.852688 1_556
Se0 U3 2.890029 1_545
Se0 U3 2.890029 1_455
Se0 U1 2.903075 1_555
Se0 U0 2.904494 1_445
Se0 U2 2.922615 1_555
Se1 U0 2.852688 1_554
Se1 U1 2.890029 1_565
Se1 U1 2.890029 1_655
Se1 U3 2.903075 1_555
Se1 U2 2.904494 1_665
Se1 U0 2.922615 1_555
