# generated using pymatgen
data_SiO2
_symmetry_space_group_name_H-M   'P 1'
_cell_length_a   12.16589713
_cell_length_b   10.65017933
_cell_length_c   8.79416692
_cell_angle_alpha   76.80621969
_cell_angle_beta   58.46325608
_cell_angle_gamma   44.73052422
_symmetry_Int_Tables_number   1
_chemical_formula_structural   SiO2
_chemical_formula_sum   'Si12 O24'
_cell_volume   663.67462529
_cell_formula_units_Z   12
loop_
 _symmetry_equiv_pos_site_id
 _symmetry_equiv_pos_as_xyz
  1  'x, y, z'
loop_
 _atom_site_type_symbol
 _atom_site_label
 _atom_site_symmetry_multiplicity
 _atom_site_fract_x
 _atom_site_fract_y
 _atom_site_fract_z
 _atom_site_occupancy
  Si  Si0  1  0.21565242  0.14172794  0.51249948  1
  Si  Si1  1  0.51249948  0.13012116  0.21565242  1
  Si  Si2  1  0.85827206  0.78434758  0.86987884  1
  Si  Si3  1  0.86987884  0.48750052  0.85827206  1
  Si  Si4  1  0.67076932  0.69084555  0.64869552  1
  Si  Si5  1  0.64869552  0.98968861  0.67076932  1
  Si  Si6  1  0.30915445  0.32923068  0.01031139  1
  Si  Si7  1  0.01031139  0.35130448  0.30915445  1
  Si  Si8  1  0.75053328  0.41363753  0.24970226  1
  Si  Si9  1  0.24970226  0.58612593  0.75053328  1
  Si  Si10  1  0.58636247  0.24946672  0.41387407  1
  Si  Si11  1  0.41387407  0.75029774  0.58636247  1
  O  O0  1  0.89625662  0.60374338  0.89625662  1
  O  O1  1  0.39625662  0.10374338  0.39625662  1
  O  O2  1  0.70781917  0.61811932  0.81452743  1
  O  O3  1  0.81452743  0.85953509  0.70781917  1
  O  O4  1  0.38188068  0.29218083  0.14046491  1
  O  O5  1  0.14046491  0.18547257  0.38188168  1
  O  O6  1  0.91959003  0.31193390  0.27266449  1
  O  O7  1  0.27266449  0.49581358  0.91959003  1
  O  O8  1  0.68806610  0.08040997  0.50418642  1
  O  O9  1  0.50418642  0.72733551  0.68806610  1
  O  O10  1  0.26931116  0.96102108  0.57911089  1
  O  O11  1  0.57911089  0.19055686  0.26931116  1
  O  O12  1  0.03897892  0.73068884  0.80944314  1
  O  O13  1  0.80944314  0.42088911  0.03897892  1
  O  O14  1  0.12461904  0.37538096  0.12461904  1
  O  O15  1  0.62461904  0.87538096  0.62461904  1
  O  O16  1  0.85350196  0.54037588  0.45962412  1
  O  O17  1  0.45962412  0.14649804  0.85350196  1
  O  O18  1  0.70405441  0.29594559  0.30636031  1
  O  O19  1  0.30636031  0.69363969  0.70405441  1
  O  O20  1  0.05995990  0.31222973  0.68777027  1
  O  O21  1  0.68776927  0.94004010  0.05995990  1
  O  O22  1  0.57305424  0.62022742  0.37977258  1
  O  O23  1  0.37977258  0.42694576  0.57305424  1
loop_
_geom_bond_atom_site_label_1
_geom_bond_atom_site_label_2
_geom_bond_distance
_geom_bond_site_symmetry_2
O0 Si2 1.616354 1_555
O0 Si3 1.616365 1_555
O1 Si0 1.616354 1_555
O1 Si1 1.616360 1_555
O2 Si4 1.614263 1_555
O2 Si3 1.619426 1_555
O3 Si5 1.614265 1_555
O3 Si2 1.619427 1_555
O4 Si6 1.614247 1_555
O4 Si1 1.619438 1_555
O5 Si7 1.614259 1_555
O5 Si0 1.619436 1_555
O6 Si7 1.608241 1_655
O6 Si8 1.616613 1_555
O7 Si6 1.608249 1_556
O7 Si9 1.616605 1_555
O8 Si5 1.608246 1_545
O8 Si10 1.616596 1_555
O9 Si4 1.608252 1_555
O9 Si11 1.616582 1_555
O10 Si0 1.604221 1_565
O10 Si11 1.605522 1_555
O11 Si1 1.604212 1_555
O11 Si10 1.605529 1_555
O12 Si2 1.604224 1_455
O12 Si9 1.605520 1_555
O13 Si3 1.604218 1_554
O13 Si8 1.605521 1_555
O14 Si7 1.609083 1_555
O14 Si6 1.609089 1_555
O15 Si5 1.609079 1_555
O15 Si4 1.609089 1_555
O16 Si7 1.600815 1_655
O16 Si4 1.600817 1_555
O17 Si5 1.600819 1_545
O17 Si6 1.600821 1_556
O18 Si8 1.601980 1_555
O18 Si10 1.601981 1_555
O19 Si11 1.601990 1_555
O19 Si9 1.601991 1_555
O20 Si0 1.611670 1_555
O20 Si3 1.611672 1_455
O21 Si2 1.611676 1_554
O21 Si1 1.611676 1_565
O22 Si11 1.620706 1_555
O22 Si8 1.620706 1_555
O23 Si9 1.620700 1_555
O23 Si10 1.620703 1_555
