# generated using pymatgen
data_La8Al4I7
_symmetry_space_group_name_H-M   'P 1'
_cell_length_a   18.07869172
_cell_length_b   18.07869172
_cell_length_c   27.93061840
_cell_angle_alpha   63.15881536
_cell_angle_beta   63.15881536
_cell_angle_gamma   13.78400081
_symmetry_Int_Tables_number   1
_chemical_formula_structural   La8Al4I7
_chemical_formula_sum   'La24 Al12 I21'
_cell_volume   1937.08220141
_cell_formula_units_Z   3
loop_
 _symmetry_equiv_pos_site_id
 _symmetry_equiv_pos_as_xyz
  1  'x, y, z'
loop_
 _atom_site_type_symbol
 _atom_site_label
 _atom_site_symmetry_multiplicity
 _atom_site_fract_x
 _atom_site_fract_y
 _atom_site_fract_z
 _atom_site_occupancy
  La  La0  1  0.60831900  0.60831900  0.52523900  1
  La  La1  1  0.39168100  0.39168100  0.47476100  1
  La  La2  1  0.99763200  0.99763200  0.57663200  1
  La  La3  1  0.00236800  0.00236800  0.42336800  1
  La  La4  1  0.02322200  0.02322200  0.08112000  1
  La  La5  1  0.97677800  0.97677800  0.91888000  1
  La  La6  1  0.61487000  0.61487000  0.35863000  1
  La  La7  1  0.38513000  0.38513000  0.64137000  1
  La  La8  1  0.19256900  0.19256900  0.39720400  1
  La  La9  1  0.80743100  0.80743100  0.60279600  1
  La  La10  1  0.82825800  0.82825800  0.24705600  1
  La  La11  1  0.17174200  0.17174200  0.75294400  1
  La  La12  1  0.20955400  0.20955400  0.06581900  1
  La  La13  1  0.79044600  0.79044600  0.93418100  1
  La  La14  1  0.41630300  0.41630300  0.12251200  1
  La  La15  1  0.58369700  0.58369700  0.87748800  1
  La  La16  1  0.40224300  0.40224300  0.29770700  1
  La  La17  1  0.59775700  0.59775700  0.70229300  1
  La  La18  1  0.98803700  0.98803700  0.76307300  1
  La  La19  1  0.01196300  0.01196300  0.23692700  1
  La  La20  1  0.62528100  0.62528100  0.18722900  1
  La  La21  1  0.37471900  0.37471900  0.81277100  1
  La  La22  1  0.64064300  0.64064300  0.02103500  1
  La  La23  1  0.35935700  0.35935700  0.97896500  1
  Al  Al0  1  0.08845600  0.08845600  0.45400500  1
  Al  Al1  1  0.91154400  0.91154400  0.54599500  1
  Al  Al2  1  0.93016800  0.93016800  0.19986800  1
  Al  Al3  1  0.06983200  0.06983200  0.80013200  1
  Al  Al4  1  0.54036700  0.54036700  0.47670900  1
  Al  Al5  1  0.45963300  0.45963300  0.52329100  1
  Al  Al6  1  0.10412100  0.10412100  0.11819400  1
  Al  Al7  1  0.89587900  0.89587900  0.88180600  1
  Al  Al8  1  0.55902400  0.55902400  0.13870300  1
  Al  Al9  1  0.44097600  0.44097600  0.86129700  1
  Al  Al10  1  0.47794400  0.47794400  0.17734900  1
  Al  Al11  1  0.52205600  0.52205600  0.82265100  1
  I  I0  1  0.30082500  0.30082500  0.34343100  1
  I  I1  1  0.69917500  0.69917500  0.65656900  1
  I  I2  1  0.31510500  0.31510500  0.17161200  1
  I  I3  1  0.68489500  0.68489500  0.82838800  1
  I  I4  1  0.71745100  0.71745100  0.29969500  1
  I  I5  1  0.28254900  0.28254900  0.70030500  1
  I  I6  1  0.13453200  0.13453200  0.59832300  1
  I  I7  1  0.86546800  0.86546800  0.40167700  1
  I  I8  1  0.52685100  0.52685100  0.65220500  1
  I  I9  1  0.47314900  0.47314900  0.34779500  1
  I  I10  1  0.92096600  0.92096600  0.70640100  1
  I  I11  1  0.07903400  0.07903400  0.29359900  1
  I  I12  1  0.19500400  0.19500400  0.18856500  1
  I  I13  1  0.80499600  0.80499600  0.81143500  1
  I  I14  1  0.78316200  0.78316200  0.05629400  1
  I  I15  1  0.21683800  0.21683800  0.94370600  1
  I  I16  1  0.10448800  0.10448800  0.95977200  1
  I  I17  1  0.89551200  0.89551200  0.04022800  1
  I  I18  1  0.50000000  0.50000000  0.00000000  1
  I  I19  1  0.70994300  0.70994300  0.46965700  1
  I  I20  1  0.29005700  0.29005700  0.53034300  1
loop_
_geom_bond_atom_site_label_1
_geom_bond_atom_site_label_2
_geom_bond_distance
_geom_bond_site_symmetry_2
Al0 Al4 2.663186 1_455
Al0 Al4 2.663186 1_545
Al0 La6 3.225545 1_545
Al0 La6 3.225545 1_455
Al0 La0 3.234755 1_455
Al0 La0 3.234755 1_545
Al0 La8 3.330288 1_555
Al0 La2 3.493269 1_445
Al0 La3 3.561888 1_555
Al1 Al5 2.663186 1_655
Al1 Al5 2.663186 1_565
Al1 La7 3.225545 1_565
Al1 La7 3.225545 1_655
Al1 La1 3.234755 1_655
Al1 La1 3.234755 1_565
Al1 La9 3.330288 1_555
Al1 La3 3.493269 1_665
Al1 La2 3.561888 1_555
Al2 La14 3.255822 1_655
Al2 La14 3.255822 1_565
Al2 La16 3.269122 1_565
Al2 La16 3.269122 1_655
Al2 La10 3.276232 1_555
Al2 La4 3.475725 1_665
Al2 La19 3.529395 1_665
Al3 La15 3.255822 1_545
Al3 La15 3.255822 1_455
Al3 La17 3.269122 1_545
Al3 La17 3.269122 1_455
Al3 La11 3.276232 1_555
Al3 La5 3.475725 1_445
Al3 La18 3.529395 1_445
Al4 Al5 2.581021 1_555
Al4 La6 3.163274 1_555
Al4 La3 3.261138 1_565
Al4 La3 3.261138 1_655
Al4 La0 3.285498 1_555
Al4 La2 3.309746 1_545
Al4 La2 3.309746 1_455
Al5 La7 3.163274 1_555
Al5 La2 3.261138 1_455
Al5 La2 3.261138 1_545
Al5 La1 3.285498 1_555
Al5 La3 3.309746 1_565
Al5 La3 3.309746 1_655
Al6 Al8 2.609891 1_545
Al6 Al8 2.609891 1_455
Al6 La20 3.214560 1_455
Al6 La20 3.214560 1_545
Al6 La22 3.248568 1_545
Al6 La22 3.248568 1_455
Al6 La12 3.380452 1_555
Al6 La19 3.458663 1_555
Al6 La4 3.498641 1_555
Al7 Al9 2.609891 1_655
Al7 Al9 2.609891 1_565
Al7 La21 3.214560 1_565
Al7 La21 3.214560 1_655
Al7 La23 3.248568 1_565
Al7 La23 3.248568 1_655
Al7 La13 3.380452 1_555
Al7 La18 3.458663 1_555
Al7 La5 3.498641 1_555
Al8 La20 3.228903 1_555
Al8 La22 3.259836 1_555
Al8 La4 3.290107 1_655
Al8 La4 3.290107 1_565
Al8 La19 3.297125 1_565
Al8 La19 3.297125 1_655
Al9 La21 3.228903 1_555
Al9 La23 3.259836 1_555
Al9 La5 3.290107 1_455
Al9 La5 3.290107 1_545
Al9 La18 3.297125 1_545
Al9 La18 3.297125 1_455
Al10 Al8 2.603512 1_555
Al10 Al2 2.657426 1_545
Al10 Al2 2.657426 1_455
Al10 La14 3.213173 1_555
Al10 La16 3.221139 1_555
Al10 La4 3.255510 1_565
Al10 La4 3.255510 1_655
Al10 La19 3.288616 1_655
Al10 La19 3.288616 1_565
Al11 Al9 2.603512 1_555
Al11 Al3 2.657426 1_565
Al11 Al3 2.657426 1_655
Al11 La15 3.213173 1_555
Al11 La17 3.221139 1_555
Al11 La5 3.255510 1_455
Al11 La5 3.255510 1_545
Al11 La18 3.288616 1_545
Al11 La18 3.288616 1_455
I0 La10 3.242033 1_545
I0 La10 3.242033 1_455
I0 La16 3.264240 1_555
I0 La8 3.470974 1_555
I1 La11 3.242033 1_565
I1 La11 3.242033 1_655
I1 La17 3.264240 1_555
I1 La9 3.470974 1_555
I2 La10 3.205388 1_455
I2 La10 3.205388 1_545
I2 La14 3.247332 1_555
I3 La11 3.205388 1_655
I3 La11 3.205388 1_565
I3 La15 3.247332 1_555
I4 La8 3.272433 1_565
I4 La8 3.272433 1_655
I4 La6 3.279511 1_555
I4 La10 3.558523 1_555
I5 La9 3.272433 1_545
I5 La9 3.272433 1_455
I5 La7 3.279511 1_555
I5 La11 3.558523 1_555
I6 La17 3.375636 1_455
I6 La17 3.375636 1_545
I6 La0 3.392001 1_545
I6 La0 3.392001 1_455
I7 La16 3.375636 1_655
I7 La16 3.375636 1_565
I7 La1 3.392001 1_655
I7 La1 3.392001 1_565
I8 La17 3.416780 1_555
I8 La0 3.419745 1_555
I8 La2 3.503670 1_455
I8 La2 3.503670 1_545
I8 La18 3.508862 1_455
I8 La18 3.508862 1_545
I9 La16 3.416780 1_555
I9 La1 3.419745 1_555
I9 La3 3.503670 1_565
I9 La3 3.503670 1_655
I9 La19 3.508862 1_655
I9 La19 3.508862 1_565
I10 La2 3.411398 1_555
I10 La18 3.430520 1_555
I10 La7 3.433011 1_565
I10 La7 3.433011 1_655
I10 La21 3.435502 1_565
I10 La21 3.435502 1_655
I11 La3 3.411398 1_555
I11 La19 3.430520 1_555
I11 La6 3.433011 1_455
I11 La6 3.433011 1_545
I11 La20 3.435502 1_455
I11 La20 3.435502 1_545
I12 La12 3.224557 1_555
I12 La20 3.325149 1_455
I12 La20 3.325149 1_545
I13 La13 3.224557 1_555
I13 La21 3.325149 1_565
I13 La21 3.325149 1_655
I14 La13 3.300001 1_554
I14 La12 3.334540 1_655
I14 La12 3.334540 1_565
I14 La23 3.388014 1_564
I14 La23 3.388014 1_654
I15 La12 3.300001 1_556
I15 La13 3.334540 1_545
I15 La13 3.334540 1_455
I15 La22 3.388014 1_456
I15 La22 3.388014 1_546
I16 La4 3.317192 1_556
I16 La22 3.367283 1_546
I16 La22 3.367283 1_456
I16 La15 3.479286 1_545
I16 La15 3.479286 1_455
I17 La5 3.317192 1_554
I17 La23 3.367283 1_564
I17 La23 3.367283 1_654
I17 La14 3.479286 1_565
I17 La14 3.479286 1_655
I18 La15 3.374027 1_554
I18 La14 3.374027 1_555
I18 La5 3.500385 1_454
I18 La5 3.500385 1_544
I18 La4 3.500385 1_565
I18 La4 3.500385 1_655
I19 La8 3.215350 1_655
I19 La8 3.215350 1_565
I19 La0 3.250542 1_555
I20 La9 3.215350 1_545
I20 La9 3.215350 1_455
I20 La1 3.250542 1_555
