# generated using pymatgen
data_La12Au3I13
_symmetry_space_group_name_H-M   'P 1'
_cell_length_a   11.11823479
_cell_length_b   11.12493481
_cell_length_c   11.12296115
_cell_angle_alpha   109.57832612
_cell_angle_beta   109.60246083
_cell_angle_gamma   109.59803462
_symmetry_Int_Tables_number   1
_chemical_formula_structural   La12Au3I13
_chemical_formula_sum   'La12 Au3 I13'
_cell_volume   1054.28762050
_cell_formula_units_Z   1
loop_
 _symmetry_equiv_pos_site_id
 _symmetry_equiv_pos_as_xyz
  1  'x, y, z'
loop_
 _atom_site_type_symbol
 _atom_site_label
 _atom_site_symmetry_multiplicity
 _atom_site_fract_x
 _atom_site_fract_y
 _atom_site_fract_z
 _atom_site_occupancy
  La  La0  1  0.48321292  0.72913420  0.74141370  1
  La  La1  1  0.25887688  0.27077035  0.51687750  1
  La  La2  1  0.26488075  0.73563055  0.00042684  1
  La  La3  1  0.48190535  0.51769818  -0.00044405  1
  La  La4  1  0.00004241  0.48185456  0.51818128  1
  La  La5  1  0.73513002  -0.00032241  0.26455012  1
  La  La6  1  -0.00009315  0.26446113  0.73547236  1
  La  La7  1  0.51787881  0.00045742  0.48248555  1
  La  La8  1  0.73005088  0.74222645  0.48342008  1
  La  La9  1  0.26994918  0.51661501  0.25787002  1
  La  La10  1  0.51669709  0.25806348  0.27022719  1
  La  La11  1  0.74125783  0.48328739  0.72936722  1
  Au  Au0  1  0.49997392  0.74939419  0.25091946  1
  Au  Au1  1  0.25033166  0.49981480  0.74980718  1
  Au  Au2  1  0.74944833  0.25025670  0.50016017  1
  I  I0  1  0.75787333  0.00652920  0.76689172  1
  I  I1  1  0.99359659  0.24197756  0.23349586  1
  I  I2  1  0.76686921  0.75809055  0.00660659  1
  I  I3  1  0.23302156  0.99337632  0.24195473  1
  I  I4  1  0.98902086  0.50060378  0.01087164  1
  I  I5  1  0.49993683  0.24024844  0.75980621  1
  I  I6  1  0.75970805  0.50025397  0.24054618  1
  I  I7  1  0.50040094  0.01078522  0.98888715  1
  I  I8  1  0.24022687  0.75935086  0.49983478  1
  I  I9  1  0.01106467  0.98913604  0.49956054  1
  I  I10  1  0.24204887  0.23328797  0.99353682  1
  I  I11  1  0.00645295  0.76661529  0.75801469  1
  I  I12  1  0.50023838  0.50040279  0.49925747  1
loop_
_geom_bond_atom_site_label_1
_geom_bond_atom_site_label_2
_geom_bond_distance
_geom_bond_site_symmetry_2
Au0 La7 2.989416 1_565
Au0 La3 2.991214 1_555
Au0 La8 3.012326 1_555
Au0 La9 3.012779 1_555
Au0 La2 3.029448 1_555
Au0 La5 3.029690 1_565
Au1 La3 2.978667 1_556
Au1 La4 2.982087 1_555
Au1 La0 3.018580 1_555
Au1 La1 3.019530 1_555
Au1 La6 3.027373 1_555
Au1 La2 3.031667 1_556
Au2 La7 2.980722 1_555
Au2 La4 2.984086 1_655
Au2 La10 3.017280 1_555
Au2 La11 3.018853 1_555
Au2 La6 3.027716 1_655
Au2 La5 3.031611 1_555
I0 La7 3.347220 1_555
I0 La8 3.347395 1_545
I0 La0 3.382363 1_545
I0 La6 3.423521 1_655
I1 La1 3.344964 1_655
I1 La4 3.348101 1_655
I1 La9 3.381925 1_655
I1 La5 3.425943 1_555
I2 La0 3.345223 1_554
I2 La3 3.347388 1_555
I2 La11 3.383095 1_554
I2 La5 3.424518 1_565
I3 La7 3.346721 1_565
I3 La10 3.346773 1_565
I3 La1 3.383438 1_565
I3 La2 3.423739 1_555
I4 La9 3.297948 1_655
I4 La11 3.298765 1_554
I4 La2 3.364500 1_655
I4 La6 3.371717 1_654
I5 La1 3.311488 1_555
I5 La11 3.313673 1_555
I5 La7 3.453429 1_555
I5 La3 3.454879 1_556
I6 La8 3.312489 1_555
I6 La10 3.313558 1_555
I6 La3 3.458073 1_555
I6 La4 3.460095 1_655
I7 La0 3.300968 1_545
I7 La10 3.302888 1_556
I7 La5 3.365816 1_556
I7 La2 3.369750 1_546
I8 La9 3.312024 1_555
I8 La0 3.312941 1_555
I8 La7 3.457372 1_565
I8 La4 3.458422 1_555
I9 La8 3.297730 1_455
I9 La1 3.300530 1_565
I9 La5 3.365217 1_465
I9 La6 3.371875 1_565
I10 La9 3.346204 1_556
I10 La3 3.347417 1_556
I10 La10 3.381314 1_556
I10 La6 3.422844 1_555
I11 La11 3.345480 1_455
I11 La4 3.348810 1_555
I11 La8 3.381365 1_455
I11 La2 3.425450 1_556
I12 La8 3.131374 1_555
I12 La9 3.133491 1_555
I12 La10 3.135684 1_555
I12 La11 3.136075 1_555
I12 La0 3.136502 1_555
I12 La1 3.139336 1_555
