# generated using pymatgen
data_RbBa2N15
_symmetry_space_group_name_H-M   'P 1'
_cell_length_a   5.70691400
_cell_length_b   8.79118400
_cell_length_c   14.75440559
_cell_angle_alpha   53.60769939
_cell_angle_beta   90.00000000
_cell_angle_gamma   90.00000000
_symmetry_Int_Tables_number   1
_chemical_formula_structural   RbBa2N15
_chemical_formula_sum   'Rb2 Ba4 N30'
_cell_volume   595.87068121
_cell_formula_units_Z   2
loop_
 _symmetry_equiv_pos_site_id
 _symmetry_equiv_pos_as_xyz
  1  'x, y, z'
loop_
 _atom_site_type_symbol
 _atom_site_label
 _atom_site_symmetry_multiplicity
 _atom_site_fract_x
 _atom_site_fract_y
 _atom_site_fract_z
 _atom_site_occupancy
  Rb  Rb0  1  0.57321800  0.00000000  0.75000000  1
  Rb  Rb1  1  0.42678200  0.00000000  0.25000000  1
  Ba  Ba0  1  0.99673700  0.68743400  0.55068100  1
  Ba  Ba1  1  0.00326300  0.31256600  0.44931900  1
  Ba  Ba2  1  0.00326300  0.68743400  0.05068100  1
  Ba  Ba3  1  0.99673700  0.31256600  0.94931900  1
  N  N0  1  0.12051800  0.76335900  0.82405600  1
  N  N1  1  0.05867600  0.16289200  0.76985500  1
  N  N2  1  0.50375500  0.50000000  0.75000000  1
  N  N3  1  0.67529400  0.57127500  0.94873500  1
  N  N4  1  0.70412400  0.50000000  0.25000000  1
  N  N5  1  0.94132400  0.83710800  0.23014500  1
  N  N6  1  0.71086900  0.50000000  0.75000000  1
  N  N7  1  0.87948200  0.23664100  0.17594400  1
  N  N8  1  0.50299200  0.86596100  0.49887100  1
  N  N9  1  0.00420900  0.08805100  0.36435500  1
  N  N10  1  0.32470600  0.57127500  0.44873500  1
  N  N11  1  0.67529400  0.42872500  0.55126500  1
  N  N12  1  0.49700800  0.86596100  0.99887100  1
  N  N13  1  0.32470600  0.42872500  0.05126500  1
  N  N14  1  0.28913100  0.50000000  0.25000000  1
  N  N15  1  0.05867600  0.83710800  0.73014500  1
  N  N16  1  0.94132400  0.16289200  0.26985500  1
  N  N17  1  0.50000000  0.00000000  0.50000000  1
  N  N18  1  0.12051800  0.23664100  0.67594400  1
  N  N19  1  0.87948200  0.76335900  0.32405600  1
  N  N20  1  0.29587600  0.50000000  0.75000000  1
  N  N21  1  0.49624500  0.50000000  0.25000000  1
  N  N22  1  0.00420900  0.91194900  0.13564500  1
  N  N23  1  0.49700800  0.13403900  0.50112900  1
  N  N24  1  0.99579100  0.08805100  0.86435500  1
  N  N25  1  0.50000000  0.50000000  0.00000000  1
  N  N26  1  0.99579100  0.91194900  0.63564500  1
  N  N27  1  0.50000000  0.50000000  0.50000000  1
  N  N28  1  0.50299200  0.13403900  0.00112900  1
  N  N29  1  0.50000000  0.00000000  0.00000000  1
loop_
_geom_bond_atom_site_label_1
_geom_bond_atom_site_label_2
_geom_bond_distance
_geom_bond_site_symmetry_2
Ba0 N6 2.876637 1_555
Ba0 N26 2.898838 1_555
Ba0 N9 2.911056 1_665
Ba0 N11 2.918000 1_555
Ba0 N20 2.920256 1_655
Ba0 N10 2.937883 1_655
Ba0 N19 3.070082 1_555
Ba0 N8 3.092523 1_555
Ba0 N8 3.157711 1_655
Ba0 N18 3.305897 1_655
Ba1 N14 2.876637 1_555
Ba1 N9 2.898838 1_555
Ba1 N26 2.911056 1_445
Ba1 N10 2.918000 1_555
Ba1 N4 2.920256 1_455
Ba1 N11 2.937883 1_455
Ba1 N18 3.070082 1_555
Ba1 N23 3.092523 1_555
Ba1 N23 3.157711 1_455
Ba1 N19 3.305897 1_455
Ba2 N14 2.876637 1_555
Ba2 N22 2.898838 1_555
Ba2 N24 2.911056 1_464
Ba2 N13 2.918000 1_555
Ba2 N4 2.920256 1_455
Ba2 N3 2.937883 1_454
Ba2 N0 3.070082 1_554
Ba2 N12 3.092523 1_554
Ba2 N12 3.157711 1_454
Ba2 N7 3.305897 1_455
Ba3 N6 2.876637 1_555
Ba3 N24 2.898838 1_555
Ba3 N22 2.911056 1_646
Ba3 N3 2.918000 1_555
Ba3 N20 2.920256 1_655
Ba3 N13 2.937883 1_656
Ba3 N7 3.070082 1_556
Ba3 N28 3.092523 1_556
Ba3 N28 3.157711 1_656
Ba3 N0 3.305897 1_655
N0 N15 1.182710 1_555
N0 Rb0 3.082049 1_565
N1 N18 1.182710 1_555
N1 N24 1.190449 1_455
N1 Rb0 3.210882 1_455
N1 Rb0 3.355145 1_555
N2 N6 1.181982 1_555
N2 N20 1.186348 1_555
N3 Rb0 3.166802 1_565
N5 Rb1 3.210882 1_665
N5 Rb1 3.355145 1_565
N7 Rb1 3.082049 1_555
N8 Rb1 3.150635 1_565
N9 Rb1 3.288085 1_555
N10 N27 1.184533 1_555
N10 Rb1 3.166802 1_565
N11 N27 1.184533 1_555
N11 Rb0 3.166802 1_555
N12 N29 1.188443 1_566
N12 Rb0 3.150635 1_565
N13 N25 1.184533 1_555
N13 Rb1 3.166802 1_555
N14 N21 1.181982 1_555
N15 N26 1.190449 1_455
N15 Rb0 3.210882 1_465
N15 Rb0 3.355145 1_565
N16 N7 1.182710 1_555
N16 N9 1.190449 1_655
N16 Rb1 3.210882 1_655
N16 Rb1 3.355145 1_555
N17 N8 1.188443 1_545
N17 N23 1.188443 1_555
N18 Rb0 3.082049 1_555
N19 N5 1.182710 1_555
N19 Rb1 3.082049 1_565
N21 N4 1.186348 1_555
N22 N5 1.190449 1_455
N22 Rb1 3.288085 1_565
N23 Rb0 3.150635 1_555
N24 Rb0 3.288085 1_555
N25 N3 1.184533 1_554
N26 Rb0 3.288085 1_565
N28 N29 1.188443 1_555
N28 Rb1 3.150635 1_555
