# generated using pymatgen
data_SrLi2CrN3
_symmetry_space_group_name_H-M   'P 1'
_cell_length_a   7.36285800
_cell_length_b   9.16550200
_cell_length_c   10.55640000
_cell_angle_alpha   90.00000000
_cell_angle_beta   90.00000000
_cell_angle_gamma   90.00000000
_symmetry_Int_Tables_number   1
_chemical_formula_structural   SrLi2CrN3
_chemical_formula_sum   'Sr8 Li16 Cr8 N24'
_cell_volume   712.39115605
_cell_formula_units_Z   8
loop_
 _symmetry_equiv_pos_site_id
 _symmetry_equiv_pos_as_xyz
  1  'x, y, z'
loop_
 _atom_site_type_symbol
 _atom_site_label
 _atom_site_symmetry_multiplicity
 _atom_site_fract_x
 _atom_site_fract_y
 _atom_site_fract_z
 _atom_site_occupancy
  Sr  Sr0  1  0.91461200  0.19192600  0.08193900  1
  Sr  Sr1  1  0.08538800  0.80807400  0.91806100  1
  Sr  Sr2  1  0.58538800  0.69192600  0.91806100  1
  Sr  Sr3  1  0.41461200  0.80807400  0.41806100  1
  Sr  Sr4  1  0.91461200  0.69192600  0.41806100  1
  Sr  Sr5  1  0.41461200  0.30807400  0.08193900  1
  Sr  Sr6  1  0.08538800  0.30807400  0.58193900  1
  Sr  Sr7  1  0.58538800  0.19192600  0.58193900  1
  Li  Li0  1  0.28881800  0.61991200  0.68391900  1
  Li  Li1  1  0.09613200  0.38199700  0.28018200  1
  Li  Li2  1  0.59613200  0.61800300  0.21981800  1
  Li  Li3  1  0.71118200  0.38008800  0.31608100  1
  Li  Li4  1  0.40386800  0.38199700  0.78018200  1
  Li  Li5  1  0.78881800  0.38008800  0.81608100  1
  Li  Li6  1  0.21118200  0.11991200  0.31608100  1
  Li  Li7  1  0.90386800  0.11800300  0.78018200  1
  Li  Li8  1  0.90386800  0.61800300  0.71981800  1
  Li  Li9  1  0.09613200  0.88199700  0.21981800  1
  Li  Li10  1  0.40386800  0.88199700  0.71981800  1
  Li  Li11  1  0.28881800  0.11991200  0.81608100  1
  Li  Li12  1  0.78881800  0.88008800  0.68391900  1
  Li  Li13  1  0.59613200  0.11800300  0.28018200  1
  Li  Li14  1  0.21118200  0.61991200  0.18391900  1
  Li  Li15  1  0.71118200  0.88008800  0.18391900  1
  Cr  Cr0  1  0.60613400  0.54768300  0.58224000  1
  Cr  Cr1  1  0.10613400  0.95231700  0.58224000  1
  Cr  Cr2  1  0.89386600  0.04768300  0.41776000  1
  Cr  Cr3  1  0.39386600  0.45231700  0.41776000  1
  Cr  Cr4  1  0.10613400  0.45231700  0.91776000  1
  Cr  Cr5  1  0.60613400  0.04768300  0.91776000  1
  Cr  Cr6  1  0.89386600  0.54768300  0.08224000  1
  Cr  Cr7  1  0.39386600  0.95231700  0.08224000  1
  N  N0  1  0.60194700  0.06791400  0.09609200  1
  N  N1  1  0.92255300  0.21660900  0.34441600  1
  N  N2  1  0.79416900  0.45090400  0.62503100  1
  N  N3  1  0.10194700  0.93208600  0.40390800  1
  N  N4  1  0.57744700  0.21660900  0.84441600  1
  N  N5  1  0.39805300  0.43208600  0.59609200  1
  N  N6  1  0.70583100  0.45090400  0.12503100  1
  N  N7  1  0.92255300  0.71660900  0.15558400  1
  N  N8  1  0.29416900  0.54909600  0.87496900  1
  N  N9  1  0.20583100  0.54909600  0.37496900  1
  N  N10  1  0.07744700  0.78339100  0.65558400  1
  N  N11  1  0.42255300  0.28339100  0.34441600  1
  N  N12  1  0.10194700  0.43208600  0.09609200  1
  N  N13  1  0.57744700  0.71660900  0.65558400  1
  N  N14  1  0.42255300  0.78339100  0.15558400  1
  N  N15  1  0.20583100  0.04909600  0.12503100  1
  N  N16  1  0.07744700  0.28339100  0.84441600  1
  N  N17  1  0.60194700  0.56791400  0.40390800  1
  N  N18  1  0.79416900  0.95090400  0.87496900  1
  N  N19  1  0.29416900  0.04909600  0.62503100  1
  N  N20  1  0.39805300  0.93208600  0.90390800  1
  N  N21  1  0.89805300  0.56791400  0.90390800  1
  N  N22  1  0.89805300  0.06791400  0.59609200  1
  N  N23  1  0.70583100  0.95090400  0.37496900  1
loop_
_geom_bond_atom_site_label_1
_geom_bond_atom_site_label_2
_geom_bond_distance
_geom_bond_site_symmetry_2
Li0 N5 2.114257 1_555
Li0 N8 2.119037 1_555
Li0 N10 2.180969 1_555
Li0 N13 2.321885 1_555
Li1 N12 1.997278 1_555
Li1 N9 1.999807 1_555
Li1 N1 2.095475 1_455
Li1 N11 2.655728 1_555
Li2 N17 1.997278 1_555
Li2 N6 1.999807 1_555
Li2 N14 2.095475 1_555
Li2 N7 2.655728 1_555
Li3 N17 2.114257 1_555
Li3 N6 2.119037 1_555
Li3 N1 2.180969 1_555
Li3 N11 2.321885 1_555
Li4 N5 1.997278 1_555
Li4 N8 1.999807 1_555
Li4 N4 2.095475 1_555
Li4 N16 2.655728 1_555
Li5 N21 2.114257 1_555
Li5 N2 2.119037 1_555
Li5 N4 2.180969 1_555
Li5 N16 2.321885 1_655
Li6 N3 2.114257 1_545
Li6 N15 2.119037 1_555
Li6 N11 2.180969 1_555
Li6 N1 2.321885 1_455
Li7 N22 1.997278 1_555
Li7 N18 1.999807 1_545
Li7 N16 2.095475 1_655
Li7 N4 2.655728 1_555
Li8 N21 1.997278 1_555
Li8 N2 1.999807 1_555
Li8 N10 2.095475 1_655
Li8 N13 2.655728 1_555
Li9 N3 1.997278 1_555
Li9 N15 1.999807 1_565
Li9 N7 2.095475 1_455
Li9 N14 2.655728 1_555
Li10 N20 1.997278 1_555
Li10 N19 1.999807 1_565
Li10 N13 2.095475 1_555
Li10 N10 2.655728 1_555
Li11 N20 2.114257 1_545
Li11 N19 2.119037 1_555
Li11 N16 2.180969 1_555
Li11 N4 2.321885 1_555
Li12 N22 2.114257 1_565
Li12 N18 2.119037 1_555
Li12 N13 2.180969 1_555
Li12 N10 2.321885 1_655
Li13 N0 1.997278 1_555
Li13 N23 1.999807 1_545
Li13 N11 2.095475 1_555
Li13 N1 2.655728 1_555
Li14 N12 2.114257 1_555
Li14 N9 2.119037 1_555
Li14 N14 2.180969 1_555
Li14 N7 2.321885 1_455
Li15 N0 2.114257 1_565
Li15 N23 2.119037 1_555
Li15 N7 2.180969 1_555
Li15 N14 2.321885 1_555
Cr0 N2 1.705180 1_555
Cr0 N13 1.743927 1_555
Cr0 N5 1.868468 1_555
Cr0 N17 1.891905 1_555
Cr1 N19 1.705180 1_565
Cr1 N10 1.743927 1_555
Cr1 N22 1.868468 1_465
Cr1 N3 1.891905 1_555
Cr2 N23 1.705180 1_545
Cr2 N1 1.743927 1_555
Cr2 N3 1.868468 1_645
Cr2 N22 1.891905 1_555
Cr3 N9 1.705180 1_555
Cr3 N11 1.743927 1_555
Cr3 N17 1.868468 1_555
Cr3 N5 1.891905 1_555
Cr4 N8 1.705180 1_555
Cr4 N16 1.743927 1_555
Cr4 N21 1.868468 1_455
Cr4 N12 1.891905 1_556
Cr5 N18 1.705180 1_545
Cr5 N4 1.743927 1_555
Cr5 N20 1.868468 1_545
Cr5 N0 1.891905 1_556
Cr6 N6 1.705180 1_555
Cr6 N7 1.743927 1_555
Cr6 N12 1.868468 1_655
Cr6 N21 1.891905 1_554
Cr7 N15 1.705180 1_565
Cr7 N14 1.743927 1_555
Cr7 N0 1.868468 1_565
Cr7 N20 1.891905 1_554
N0 Sr0 2.571761 1_555
N0 Sr5 2.601936 1_555
N1 Sr0 2.780647 1_555
N1 Sr6 2.902966 1_655
N2 Sr6 2.553098 1_655
N2 Sr7 2.864309 1_555
N3 Sr3 2.571761 1_555
N3 Sr4 2.601936 1_455
N4 Sr7 2.780647 1_555
N4 Sr5 2.902966 1_556
N5 Sr6 2.571761 1_555
N5 Sr7 2.601936 1_555
N6 Sr5 2.553098 1_555
N6 Sr0 2.864309 1_555
N7 Sr4 2.780647 1_555
N7 Sr1 2.902966 1_654
N8 Sr2 2.553098 1_555
N8 Sr1 2.864309 1_555
N9 Sr4 2.553098 1_455
N9 Sr3 2.864309 1_555
N10 Sr1 2.780647 1_555
N10 Sr4 2.902966 1_455
N11 Sr5 2.780647 1_555
N11 Sr7 2.902966 1_555
N12 Sr5 2.571761 1_555
N12 Sr0 2.601936 1_455
N13 Sr2 2.780647 1_555
N13 Sr3 2.902966 1_555
N14 Sr3 2.780647 1_555
N14 Sr2 2.902966 1_554
N15 Sr0 2.553098 1_455
N15 Sr5 2.864309 1_555
N16 Sr6 2.780647 1_555
N16 Sr0 2.902966 1_456
N17 Sr4 2.571761 1_555
N17 Sr3 2.601936 1_555
N18 Sr1 2.553098 1_655
N18 Sr2 2.864309 1_555
N19 Sr7 2.553098 1_555
N19 Sr6 2.864309 1_555
N20 Sr1 2.571761 1_555
N20 Sr2 2.601936 1_555
N21 Sr2 2.571761 1_555
N21 Sr1 2.601936 1_655
N22 Sr7 2.571761 1_555
N22 Sr6 2.601936 1_655
N23 Sr3 2.553098 1_555
N23 Sr4 2.864309 1_555
