# generated using pymatgen
data_Yb4MgGe4
_symmetry_space_group_name_H-M   'P 1'
_cell_length_a   7.28089200
_cell_length_b   7.84637400
_cell_length_c   15.23374700
_cell_angle_alpha   90.00000000
_cell_angle_beta   90.00000000
_cell_angle_gamma   90.00000000
_symmetry_Int_Tables_number   1
_chemical_formula_structural   Yb4MgGe4
_chemical_formula_sum   'Yb16 Mg4 Ge16'
_cell_volume   870.28266454
_cell_formula_units_Z   4
loop_
 _symmetry_equiv_pos_site_id
 _symmetry_equiv_pos_as_xyz
  1  'x, y, z'
loop_
 _atom_site_type_symbol
 _atom_site_label
 _atom_site_symmetry_multiplicity
 _atom_site_fract_x
 _atom_site_fract_y
 _atom_site_fract_z
 _atom_site_occupancy
  Yb  Yb0  1  0.82289200  0.82496000  0.62887700  1
  Yb  Yb1  1  0.97581800  0.32676400  0.59617700  1
  Yb  Yb2  1  0.02418200  0.67323600  0.09617700  1
  Yb  Yb3  1  0.17710800  0.17504000  0.12887700  1
  Yb  Yb4  1  0.32289200  0.67504000  0.87112300  1
  Yb  Yb5  1  0.32289200  0.67504000  0.62887700  1
  Yb  Yb6  1  0.47581800  0.17323600  0.90382300  1
  Yb  Yb7  1  0.47581800  0.17323600  0.59617700  1
  Yb  Yb8  1  0.52418200  0.82676400  0.40382300  1
  Yb  Yb9  1  0.52418200  0.82676400  0.09617700  1
  Yb  Yb10  1  0.67710800  0.32496000  0.37112300  1
  Yb  Yb11  1  0.67710800  0.32496000  0.12887700  1
  Yb  Yb12  1  0.82289200  0.82496000  0.87112300  1
  Yb  Yb13  1  0.97581800  0.32676400  0.90382300  1
  Yb  Yb14  1  0.02418200  0.67323600  0.40382300  1
  Yb  Yb15  1  0.17710800  0.17504000  0.37112300  1
  Mg  Mg0  1  0.64661800  0.47005600  0.75000000  1
  Mg  Mg1  1  0.85338200  0.97005600  0.25000000  1
  Mg  Mg2  1  0.14661800  0.02994400  0.75000000  1
  Mg  Mg3  1  0.35338200  0.52994400  0.25000000  1
  Ge  Ge0  1  0.51289800  0.91210900  0.75000000  1
  Ge  Ge1  1  0.84798300  0.04035700  0.46768700  1
  Ge  Ge2  1  0.01289800  0.58789100  0.75000000  1
  Ge  Ge3  1  0.15201700  0.95964300  0.96768700  1
  Ge  Ge4  1  0.26504400  0.36499100  0.75000000  1
  Ge  Ge5  1  0.34798300  0.45964300  0.46768700  1
  Ge  Ge6  1  0.34798300  0.45964300  0.03231300  1
  Ge  Ge7  1  0.65201700  0.54035700  0.96768700  1
  Ge  Ge8  1  0.65201700  0.54035700  0.53231300  1
  Ge  Ge9  1  0.73495600  0.63500900  0.25000000  1
  Ge  Ge10  1  0.76504400  0.13500900  0.75000000  1
  Ge  Ge11  1  0.84798300  0.04035700  0.03231300  1
  Ge  Ge12  1  0.15201700  0.95964300  0.53231300  1
  Ge  Ge13  1  0.23495600  0.86499100  0.25000000  1
  Ge  Ge14  1  0.48710200  0.08789100  0.25000000  1
  Ge  Ge15  1  0.98710200  0.41210900  0.25000000  1
loop_
_geom_bond_atom_site_label_1
_geom_bond_atom_site_label_2
_geom_bond_distance
_geom_bond_site_symmetry_2
Ge0 Ge10 2.535584 1_565
Ge0 Mg2 2.822571 1_565
Ge0 Yb4 2.962858 1_555
Ge0 Yb5 2.962858 1_555
Ge0 Yb0 2.994393 1_555
Ge0 Yb12 2.994393 1_555
Ge0 Yb6 3.124410 1_565
Ge0 Yb7 3.124410 1_565
Ge1 Ge12 2.504099 1_645
Ge1 Yb10 2.949325 1_555
Ge1 Yb0 2.986533 1_545
Ge1 Yb15 3.003843 1_655
Ge1 Yb8 3.051777 1_545
Ge1 Yb1 3.122149 1_555
Ge1 Yb14 3.299997 1_645
Ge1 Yb7 3.501549 1_555
Ge2 Ge4 2.535584 1_555
Ge2 Mg0 2.822571 1_455
Ge2 Yb12 2.962858 1_455
Ge2 Yb0 2.962858 1_455
Ge2 Yb4 2.994393 1_555
Ge2 Yb5 2.994393 1_555
Ge2 Yb13 3.124410 1_455
Ge2 Yb1 3.124410 1_455
Ge3 Yb4 2.949325 1_555
Ge3 Yb3 2.986533 1_566
Ge3 Yb12 3.003843 1_455
Ge3 Yb6 3.051777 1_565
Ge3 Yb2 3.122149 1_556
Ge3 Yb13 3.299997 1_465
Ge3 Yb9 3.501549 1_556
Ge4 Mg2 2.766696 1_555
Ge4 Mg0 2.897929 1_555
Ge4 Yb5 3.082260 1_555
Ge4 Yb4 3.082260 1_555
Ge4 Yb1 3.164730 1_455
Ge4 Yb13 3.164730 1_455
Ge4 Yb7 3.179605 1_555
Ge4 Yb6 3.179605 1_555
Ge5 Ge8 2.504099 1_555
Ge5 Yb15 2.949325 1_555
Ge5 Yb5 2.986533 1_555
Ge5 Yb10 3.003843 1_555
Ge5 Yb14 3.051777 1_555
Ge5 Yb7 3.122149 1_555
Ge5 Yb8 3.299997 1_555
Ge5 Yb1 3.501549 1_455
Ge6 Ge7 2.504099 1_554
Ge6 Yb3 2.949325 1_555
Ge6 Yb4 2.986533 1_554
Ge6 Yb11 3.003843 1_555
Ge6 Yb2 3.051777 1_555
Ge6 Yb6 3.122149 1_554
Ge6 Yb9 3.299997 1_555
Ge6 Yb13 3.501549 1_454
Ge7 Yb12 2.949325 1_555
Ge7 Yb11 2.986533 1_556
Ge7 Yb4 3.003843 1_555
Ge7 Yb13 3.051777 1_555
Ge7 Yb9 3.122149 1_556
Ge7 Yb6 3.299997 1_555
Ge7 Yb2 3.501549 1_656
Ge8 Yb0 2.949325 1_555
Ge8 Yb10 2.986533 1_555
Ge8 Yb5 3.003843 1_555
Ge8 Yb1 3.051777 1_555
Ge8 Yb8 3.122149 1_555
Ge8 Yb7 3.299997 1_555
Ge8 Yb14 3.501549 1_655
Ge9 Mg1 2.766696 1_555
Ge9 Mg3 2.897929 1_555
Ge9 Yb10 3.082260 1_555
Ge9 Yb11 3.082260 1_555
Ge9 Yb2 3.164730 1_655
Ge9 Yb14 3.164730 1_655
Ge9 Yb9 3.179605 1_555
Ge9 Yb8 3.179605 1_555
Ge10 Mg0 2.766696 1_555
Ge10 Mg2 2.897929 1_655
Ge10 Yb12 3.082260 1_545
Ge10 Yb0 3.082260 1_545
Ge10 Yb7 3.164730 1_555
Ge10 Yb6 3.164730 1_555
Ge10 Yb1 3.179605 1_555
Ge10 Yb13 3.179605 1_555
Ge11 Ge3 2.504099 1_644
Ge11 Yb11 2.949325 1_555
Ge11 Yb12 2.986533 1_544
Ge11 Yb3 3.003843 1_655
Ge11 Yb9 3.051777 1_545
Ge11 Yb13 3.122149 1_554
Ge11 Yb2 3.299997 1_645
Ge11 Yb6 3.501549 1_554
Ge12 Yb5 2.949325 1_555
Ge12 Yb15 2.986533 1_565
Ge12 Yb0 3.003843 1_455
Ge12 Yb7 3.051777 1_565
Ge12 Yb14 3.122149 1_555
Ge12 Yb1 3.299997 1_465
Ge12 Yb8 3.501549 1_555
Ge13 Ge14 2.535584 1_565
Ge13 Mg3 2.766696 1_555
Ge13 Mg1 2.897929 1_455
Ge13 Yb15 3.082260 1_565
Ge13 Yb3 3.082260 1_565
Ge13 Yb8 3.164730 1_555
Ge13 Yb9 3.164730 1_555
Ge13 Yb14 3.179605 1_555
Ge13 Yb2 3.179605 1_555
Ge14 Mg1 2.822571 1_545
Ge14 Yb10 2.962858 1_555
Ge14 Yb11 2.962858 1_555
Ge14 Yb15 2.994393 1_555
Ge14 Yb3 2.994393 1_555
Ge14 Yb9 3.124410 1_545
Ge14 Yb8 3.124410 1_545
Ge15 Ge9 2.535584 1_555
Ge15 Mg3 2.822571 1_655
Ge15 Yb15 2.962858 1_655
Ge15 Yb3 2.962858 1_655
Ge15 Yb10 2.994393 1_555
Ge15 Yb11 2.994393 1_555
Ge15 Yb14 3.124410 1_655
Ge15 Yb2 3.124410 1_655
