# generated using pymatgen
data_Sr2La18AlSi11O52
_symmetry_space_group_name_H-M   'P 1'
_cell_length_a   7.28456500
_cell_length_b   9.76521010
_cell_length_c   16.95031251
_cell_angle_alpha   89.97833460
_cell_angle_beta   89.98928470
_cell_angle_gamma   89.99160384
_symmetry_Int_Tables_number   1
_chemical_formula_structural   Sr2La18AlSi11O52
_chemical_formula_sum   'Sr2 La18 Al1 Si11 O52'
_cell_volume   1205.76557645
_cell_formula_units_Z   1
loop_
 _symmetry_equiv_pos_site_id
 _symmetry_equiv_pos_as_xyz
  1  'x, y, z'
loop_
 _atom_site_type_symbol
 _atom_site_label
 _atom_site_symmetry_multiplicity
 _atom_site_fract_x
 _atom_site_fract_y
 _atom_site_fract_z
 _atom_site_occupancy
  Sr  Sr0  1  0.99881600  0.50017300  0.83293900  1
  Sr  Sr1  1  0.49900700  0.49970700  0.16688300  1
  La  La0  1  0.75091800  0.76145700  0.99509500  1
  La  La1  1  0.75159300  0.61604300  0.61880400  1
  La  La2  1  0.49861300  0.49973200  0.83280400  1
  La  La3  1  0.24922400  0.37525700  0.61705000  1
  La  La4  1  0.74917000  0.26106200  0.49579300  1
  La  La5  1  0.75076700  0.12771600  0.88394400  1
  La  La6  1  0.74855700  0.11153800  0.12110800  1
  La  La7  1  0.50117400  0.99825200  0.66395100  1
  La  La8  1  0.99861500  0.99778500  0.66382500  1
  La  La9  1  0.50398300  0.99747700  0.33357500  1
  La  La10  1  0.99593500  0.99705500  0.33374900  1
  La  La11  1  0.24839600  0.88912800  0.87872900  1
  La  La12  1  0.25069000  0.87253400  0.11570100  1
  La  La13  1  0.24933700  0.73684900  0.50726900  1
  La  La14  1  0.74934900  0.62811200  0.38369700  1
  La  La15  1  0.99840800  0.50013600  0.16669600  1
  La  La16  1  0.25157000  0.38971300  0.37825600  1
  La  La17  1  0.25082800  0.23850800  0.00510600  1
  Al  Al0  1  0.74962300  0.88652600  0.51362000  1
  Si  Si0  1  0.25116300  0.67052500  0.70068700  1
  Si  Si1  1  0.24930800  0.61539400  0.98552600  1
  Si  Si2  1  0.74814700  0.28586500  0.68531500  1
  Si  Si3  1  0.25079600  0.21369500  0.81437900  1
  Si  Si4  1  0.24790900  0.16982200  0.20014900  1
  Si  Si5  1  0.24981400  0.11478300  0.48446700  1
  Si  Si6  1  0.74781400  0.83054300  0.80071700  1
  Si  Si7  1  0.75064400  0.78562800  0.18462600  1
  Si  Si8  1  0.24835000  0.71448000  0.31491600  1
  Si  Si9  1  0.74915500  0.38471200  0.01445500  1
  Si  Si10  1  0.75107400  0.32983100  0.30009000  1
  O  O0  1  0.43178500  0.70175100  0.95503800  1
  O  O1  1  0.07121200  0.70674400  0.95583400  1
  O  O2  1  0.74258100  0.67826700  0.84055300  1
  O  O3  1  0.25492200  0.67569500  0.79760500  1
  O  O4  1  0.43222300  0.58066800  0.67309500  1
  O  O5  1  0.07254300  0.58249000  0.66948000  1
  O  O6  1  0.25458800  0.46709000  0.93933900  1
  O  O7  1  0.74274000  0.42129500  0.74175200  1
  O  O8  1  0.74384000  0.40028700  0.91822400  1
  O  O9  1  0.25453600  0.35766800  0.76416400  1
  O  O10  1  0.93157600  0.28468900  0.62774600  1
  O  O11  1  0.56670900  0.28222400  0.62662100  1
  O  O12  1  0.43231000  0.21686600  0.87299200  1
  O  O13  1  0.07210100  0.21030900  0.87416100  1
  O  O14  1  0.43176500  0.20019000  0.45430500  1
  O  O15  1  0.06834800  0.20095200  0.45442700  1
  O  O16  1  0.75099400  0.17568500  0.33967700  1
  O  O17  1  0.24961700  0.17329000  0.29765200  1
  O  O18  1  0.75004200  0.14038800  0.73540300  1
  O  O19  1  0.24952900  0.09670900  0.58089300  1
  O  O20  1  0.43057200  0.08153300  0.17245500  1
  O  O21  1  0.06807000  0.07827700  0.17264500  1
  O  O22  1  0.25053300  0.07803600  0.75676200  1
  O  O23  1  0.75014200  0.04124200  0.56731600  1
  O  O24  1  0.75190300  0.99977100  0.99914200  1
  O  O25  1  0.25195900  0.00014100  0.00076600  1
  O  O26  1  0.25005800  0.96705900  0.43738500  1
  O  O27  1  0.75057800  0.92455700  0.23957900  1
  O  O28  1  0.93079600  0.91841400  0.82806300  1
  O  O29  1  0.56758400  0.92176000  0.82777700  1
  O  O30  1  0.74922300  0.89953000  0.41032700  1
  O  O31  1  0.25017100  0.85958000  0.26445200  1
  O  O32  1  0.74962600  0.82813600  0.70331900  1
  O  O33  1  0.25090800  0.82516200  0.66212300  1
  O  O34  1  0.94256200  0.79589800  0.54971600  1
  O  O35  1  0.55743200  0.79499000  0.54965900  1
  O  O36  1  0.93273700  0.78175400  0.12650000  1
  O  O37  1  0.57134300  0.78822500  0.12536400  1
  O  O38  1  0.43083500  0.71731600  0.37245200  1
  O  O39  1  0.06784900  0.71991500  0.37360100  1
  O  O40  1  0.75441100  0.64327400  0.23614600  1
  O  O41  1  0.24393500  0.59959700  0.08173700  1
  O  O42  1  0.24320000  0.57836200  0.25901700  1
  O  O43  1  0.75452100  0.53281200  0.06070100  1
  O  O44  1  0.75093000  0.49923200  0.49998200  1
  O  O45  1  0.25094400  0.49762700  0.49917400  1
  O  O46  1  0.93307800  0.41877500  0.32766100  1
  O  O47  1  0.57115700  0.41700100  0.33102400  1
  O  O48  1  0.75489600  0.32487500  0.20316300  1
  O  O49  1  0.24256900  0.32181200  0.15991000  1
  O  O50  1  0.93174400  0.29844900  0.04494600  1
  O  O51  1  0.57103300  0.29358900  0.04425000  1
loop_
_geom_bond_atom_site_label_1
_geom_bond_atom_site_label_2
_geom_bond_distance
_geom_bond_site_symmetry_2
La0 O24 2.328235 1_555
La0 O1 2.484248 1_655
La0 O0 2.491320 1_555
La0 O43 2.494131 1_556
La0 O37 2.579628 1_556
La0 O36 2.599258 1_556
La0 O2 2.743588 1_555
La1 O44 2.315039 1_555
La1 O5 2.512302 1_655
La1 O32 2.518777 1_555
La1 O4 2.525442 1_555
La1 O34 2.527813 1_555
La1 O35 2.534968 1_555
La1 O7 2.821508 1_555
La2 O7 2.476020 1_555
La2 O2 2.493275 1_555
La2 O8 2.495989 1_555
La2 O9 2.538150 1_555
La2 O3 2.541374 1_555
La2 O6 2.553620 1_555
La2 O4 2.861084 1_555
La2 O12 2.885508 1_555
La2 O0 2.902410 1_555
La3 O45 2.327754 1_555
La3 O10 2.483877 1_455
La3 O11 2.489949 1_555
La3 O9 2.499778 1_555
La3 O5 2.557675 1_555
La3 O4 2.589554 1_555
La3 O19 2.788496 1_555
La4 O44 2.326928 1_555
La4 O23 2.464890 1_555
La4 O14 2.489032 1_555
La4 O15 2.498290 1_655
La4 O11 2.593482 1_555
La4 O10 2.612083 1_555
La4 O16 2.774775 1_555
La5 O24 2.317771 1_545
La5 O13 2.481442 1_655
La5 O12 2.484626 1_555
La5 O18 2.520815 1_555
La5 O29 2.595128 1_545
La5 O28 2.606664 1_545
La5 O8 2.725070 1_555
La6 O24 2.338263 1_544
La6 O20 2.491633 1_555
La6 O48 2.505777 1_555
La6 O21 2.507241 1_655
La6 O51 2.555032 1_555
La6 O50 2.603279 1_555
La6 O27 2.713658 1_545
La7 O23 2.479331 1_565
La7 O33 2.486467 1_555
La7 O19 2.503244 1_565
La7 O22 2.532767 1_565
La7 O32 2.545443 1_555
La7 O18 2.585106 1_565
La7 O35 2.804141 1_555
La7 O11 2.883924 1_565
La7 O29 2.915818 1_555
La8 O23 2.476417 1_565
La8 O33 2.493832 1_655
La8 O19 2.499724 1_665
La8 O22 2.542797 1_665
La8 O32 2.545984 1_555
La8 O18 2.586452 1_565
La8 O34 2.792471 1_555
La8 O10 2.908658 1_565
La8 O28 2.931346 1_555
La9 O30 2.407957 1_555
La9 O27 2.504352 1_555
La9 O16 2.505589 1_565
La9 O26 2.569927 1_555
La9 O31 2.570466 1_555
La9 O17 2.598163 1_565
La9 O38 2.863893 1_555
La9 O14 2.895768 1_565
La9 O20 2.901207 1_565
La10 O30 2.412554 1_555
La10 O16 2.497144 1_565
La10 O27 2.499179 1_555
La10 O26 2.568887 1_655
La10 O31 2.571280 1_655
La10 O17 2.598228 1_665
La10 O39 2.837833 1_655
La10 O21 2.891405 1_665
La10 O15 2.903568 1_665
La11 O25 2.335928 1_566
La11 O28 2.484419 1_455
La11 O3 2.497834 1_555
La11 O29 2.500600 1_555
La11 O1 2.558196 1_555
La11 O0 2.608431 1_555
La11 O22 2.770275 1_565
La12 O25 2.312240 1_565
La12 O37 2.481968 1_555
La12 O36 2.486811 1_455
La12 O31 2.524502 1_555
La12 O21 2.595794 1_565
La12 O20 2.609709 1_565
La12 O41 2.727420 1_555
La13 O45 2.340159 1_555
La13 O34 2.417330 1_455
La13 O35 2.424245 1_555
La13 O26 2.540652 1_555
La13 O39 2.628711 1_555
La13 O38 2.646817 1_555
La13 O33 2.763201 1_555
La14 O44 2.338224 1_555
La14 O38 2.485575 1_555
La14 O39 2.493255 1_655
La14 O40 2.505623 1_555
La14 O47 2.595119 1_555
La14 O46 2.621541 1_555
La14 O30 2.688784 1_555
La15 O49 2.491629 1_655
La15 O42 2.492892 1_655
La15 O41 2.492910 1_655
La15 O48 2.541162 1_555
La15 O43 2.546901 1_555
La15 O40 2.549214 1_555
La15 O36 2.873015 1_555
La15 O46 2.880957 1_555
La15 O50 2.894375 1_555
La16 O45 2.304995 1_555
La16 O47 2.476109 1_555
La16 O46 2.489807 1_455
La16 O17 2.517063 1_555
La16 O14 2.609217 1_555
La16 O15 2.616180 1_555
La16 O42 2.734887 1_555
La17 O25 2.328907 1_555
La17 O51 2.484265 1_555
La17 O50 2.490129 1_455
La17 O6 2.494812 1_554
La17 O13 2.588240 1_554
La17 O12 2.608900 1_554
La17 O49 2.748120 1_555
Al0 O30 1.755403 1_555
Al0 O23 1.764108 1_565
Al0 O35 1.769711 1_555
Al0 O34 1.769883 1_555
O0 Si1 1.656773 1_555
O1 Si1 1.652799 1_555
O1 Sr0 2.947965 1_455
O2 Si6 1.633349 1_555
O2 Sr0 2.554288 1_555
O3 Si0 1.643818 1_555
O3 Sr0 2.603232 1_455
O4 Si0 1.651680 1_555
O5 Si0 1.647066 1_555
O5 Sr0 2.934138 1_455
O6 Si1 1.646984 1_555
O6 Sr0 2.613262 1_455
O7 Si2 1.632980 1_555
O7 Sr0 2.542529 1_555
O8 Si9 1.638628 1_556
O8 Sr0 2.547461 1_555
O9 Si3 1.643454 1_555
O9 Sr0 2.601005 1_455
O10 Si2 1.654476 1_555
O11 Si2 1.654832 1_555
O12 Si3 1.654355 1_555
O13 Si3 1.649811 1_555
O13 Sr0 2.963716 1_455
O14 Si5 1.647267 1_555
O15 Si5 1.647528 1_555
O16 Si10 1.647825 1_555
O17 Si4 1.653115 1_555
O18 Si2 1.654761 1_555
O19 Si5 1.643887 1_555
O20 Si4 1.653471 1_555
O21 Si4 1.653365 1_555
O22 Si3 1.646121 1_555
O26 Si5 1.648858 1_565
O27 Si7 1.645949 1_555
O28 Si6 1.651896 1_555
O29 Si6 1.651443 1_555
O31 Si8 1.654882 1_555
O32 Si6 1.651153 1_555
O33 Si0 1.645246 1_555
O36 Si7 1.652634 1_555
O37 Si7 1.648065 1_555
O37 Sr1 2.951220 1_555
O38 Si8 1.649092 1_555
O39 Si8 1.649460 1_555
O40 Si7 1.641608 1_555
O40 Sr1 2.609244 1_555
O41 Si1 1.638489 1_554
O41 Sr1 2.546836 1_555
O42 Si8 1.633090 1_555
O42 Sr1 2.549642 1_555
O43 Si9 1.645741 1_555
O43 Sr1 2.608986 1_555
O46 Si10 1.652716 1_555
O47 Si10 1.648333 1_555
O47 Sr1 2.944165 1_555
O48 Si10 1.643904 1_555
O48 Sr1 2.601210 1_555
O49 Si4 1.633660 1_555
O49 Sr1 2.553925 1_555
O50 Si9 1.656934 1_555
O51 Si9 1.652342 1_555
O51 Sr1 2.941071 1_555
