# generated using pymatgen
data_KH3SO6
_symmetry_space_group_name_H-M   'P 1'
_cell_length_a   10.02158845
_cell_length_b   10.02158845
_cell_length_c   7.56573309
_cell_angle_alpha   89.01515856
_cell_angle_beta   89.01515856
_cell_angle_gamma   45.49167898
_symmetry_Int_Tables_number   1
_chemical_formula_structural   KH3SO6
_chemical_formula_sum   'K4 H12 S4 O24'
_cell_volume   541.78723548
_cell_formula_units_Z   4
loop_
 _symmetry_equiv_pos_site_id
 _symmetry_equiv_pos_as_xyz
  1  'x, y, z'
loop_
 _atom_site_type_symbol
 _atom_site_label
 _atom_site_symmetry_multiplicity
 _atom_site_fract_x
 _atom_site_fract_y
 _atom_site_fract_z
 _atom_site_occupancy
  K  K0  1  0.80192800  0.55920000  0.62313600  1
  K  K1  1  0.44080000  0.19807200  0.87686400  1
  K  K2  1  0.19807200  0.44080000  0.37686400  1
  K  K3  1  0.55920000  0.80192800  0.12313600  1
  H  H0  1  0.36685500  0.71812400  0.45681000  1
  H  H1  1  0.28187600  0.63314500  0.04319000  1
  H  H2  1  0.63314500  0.28187600  0.54319000  1
  H  H3  1  0.71812400  0.36685500  0.95681000  1
  H  H4  1  0.08553400  0.82301500  0.37730900  1
  H  H5  1  0.17698500  0.91446600  0.12269100  1
  H  H6  1  0.91446600  0.17698500  0.62269100  1
  H  H7  1  0.82301500  0.08553400  0.87730900  1
  H  H8  1  0.13947400  0.76083200  0.57367600  1
  H  H9  1  0.23916800  0.86052600  0.92632400  1
  H  H10  1  0.86052600  0.23916800  0.42632400  1
  H  H11  1  0.76083200  0.13947400  0.07367600  1
  S  S0  1  0.29260200  0.01250400  0.64505800  1
  S  S1  1  0.98749600  0.70739800  0.85494200  1
  S  S2  1  0.70739800  0.98749600  0.35494200  1
  S  S3  1  0.01250400  0.29260200  0.14505800  1
  O  O0  1  0.47131200  0.71401800  0.46187100  1
  O  O1  1  0.28598200  0.52868800  0.03812900  1
  O  O2  1  0.52868800  0.28598200  0.53812900  1
  O  O3  1  0.71401800  0.47131200  0.96187100  1
  O  O4  1  0.36510000  0.91369100  0.44561300  1
  O  O5  1  0.08630900  0.63490000  0.05438700  1
  O  O6  1  0.63490000  0.08630900  0.55438700  1
  O  O7  1  0.91369100  0.36510000  0.94561300  1
  O  O8  1  0.16807700  0.99367600  0.71125400  1
  O  O9  1  0.00632400  0.83192300  0.78874600  1
  O  O10  1  0.83192300  0.00632400  0.28874600  1
  O  O11  1  0.99367600  0.16807700  0.21125400  1
  O  O12  1  0.46019000  0.91066600  0.75209700  1
  O  O13  1  0.08933400  0.53981000  0.74790300  1
  O  O14  1  0.53981000  0.08933400  0.24790300  1
  O  O15  1  0.91066600  0.46019000  0.25209700  1
  O  O16  1  0.20044100  0.20093700  0.59218100  1
  O  O17  1  0.79906300  0.79955900  0.90781900  1
  O  O18  1  0.79955900  0.79906300  0.40781900  1
  O  O19  1  0.20093700  0.20044100  0.09218100  1
  O  O20  1  0.19368600  0.72688300  0.45335900  1
  O  O21  1  0.27311700  0.80631400  0.04664100  1
  O  O22  1  0.80631400  0.27311700  0.54664100  1
  O  O23  1  0.72688300  0.19368600  0.95335900  1
loop_
_geom_bond_atom_site_label_1
_geom_bond_atom_site_label_2
_geom_bond_distance
_geom_bond_site_symmetry_2
K0 O0 2.782146 1_555
K0 O7 2.804812 1_555
K0 O12 2.859721 1_555
K0 O18 2.866933 1_555
K0 O22 2.904493 1_555
K0 O15 2.920092 1_555
K0 O13 2.920135 1_655
K0 O16 2.964563 1_655
K0 O3 3.008733 1_555
K0 O17 3.243656 1_555
K1 O1 2.782146 1_556
K1 O6 2.804812 1_555
K1 O13 2.859721 1_555
K1 O19 2.866933 1_556
K1 O23 2.904493 1_555
K1 O14 2.920092 1_556
K1 O12 2.920135 1_545
K1 O17 2.964563 1_545
K1 O2 3.008733 1_555
K1 O16 3.243656 1_555
K2 O2 2.782146 1_555
K2 O5 2.804812 1_555
K2 O14 2.859721 1_555
K2 O16 2.866933 1_555
K2 O20 2.904493 1_555
K2 O13 2.920092 1_555
K2 O15 2.920135 1_455
K2 O18 2.964563 1_455
K2 O1 3.008733 1_555
K2 O19 3.243656 1_555
K3 O3 2.782146 1_554
K3 O4 2.804812 1_555
K3 O15 2.859721 1_555
K3 O17 2.866933 1_554
K3 O21 2.904493 1_555
K3 O12 2.920092 1_554
K3 O14 2.920135 1_565
K3 O19 2.964563 1_565
K3 O0 3.008733 1_555
K3 O18 3.243656 1_555
H0 O0 1.019771 1_555
H0 O20 1.675709 1_555
H1 O1 1.019771 1_555
H1 O21 1.675709 1_555
H2 O2 1.019771 1_555
H2 O22 1.675709 1_555
H3 O3 1.019771 1_555
H3 O23 1.675709 1_555
H4 O20 0.986074 1_555
H5 O21 0.986074 1_555
H6 O22 0.986074 1_555
H7 O23 0.986074 1_555
H8 O20 0.986931 1_555
H9 O21 0.986931 1_556
H10 O22 0.986931 1_555
H11 O23 0.986931 1_554
O0 O4 1.470404 1_555
O1 O5 1.470404 1_555
O2 O6 1.470404 1_555
O3 O7 1.470404 1_555
O4 S0 1.670441 1_565
O5 S1 1.670441 1_454
O6 S2 1.670441 1_545
O7 S3 1.670441 1_656
O8 S0 1.466007 1_565
O9 S1 1.466007 1_455
O10 S2 1.466007 1_545
O11 S3 1.466007 1_655
O12 S0 1.460583 1_565
O13 S1 1.460583 1_455
O14 S2 1.460583 1_545
O15 S3 1.460583 1_655
O16 S0 1.456211 1_555
O17 S1 1.456211 1_555
O18 S2 1.456211 1_555
O19 S3 1.456211 1_555
