# generated using pymatgen
data_Nd4MgRu
_symmetry_space_group_name_H-M   'P 1'
_cell_length_a   9.96583985
_cell_length_b   9.96580769
_cell_length_c   9.96583636
_cell_angle_alpha   59.99898192
_cell_angle_beta   59.99913103
_cell_angle_gamma   59.99902283
_symmetry_Int_Tables_number   1
_chemical_formula_structural   Nd4MgRu
_chemical_formula_sum   'Nd16 Mg4 Ru4'
_cell_volume   699.86739123
_cell_formula_units_Z   4
loop_
 _symmetry_equiv_pos_site_id
 _symmetry_equiv_pos_as_xyz
  1  'x, y, z'
loop_
 _atom_site_type_symbol
 _atom_site_label
 _atom_site_symmetry_multiplicity
 _atom_site_fract_x
 _atom_site_fract_y
 _atom_site_fract_z
 _atom_site_occupancy
  Nd  Nd0  1  0.56177548  0.56177152  0.93822789  1
  Nd  Nd1  1  0.18857655  0.81142602  0.18857646  1
  Nd  Nd2  1  0.81142190  0.81142564  0.18857591  1
  Nd  Nd3  1  0.18857446  0.18857654  0.81142692  1
  Nd  Nd4  1  0.40612025  0.78163702  0.40611897  1
  Nd  Nd5  1  0.81142271  0.18857618  0.81142646  1
  Nd  Nd6  1  0.93822521  0.93822808  0.56177296  1
  Nd  Nd7  1  0.81142445  0.18857780  0.18857484  1
  Nd  Nd8  1  0.93822421  0.56177209  0.93822899  1
  Nd  Nd9  1  0.78163966  0.40612205  0.40611652  1
  Nd  Nd10  1  0.56177413  0.93822587  0.93822775  1
  Nd  Nd11  1  0.18857481  0.81142486  0.81142482  1
  Nd  Nd12  1  0.56177536  0.93822699  0.56177246  1
  Nd  Nd13  1  0.40612196  0.40612249  0.40611813  1
  Nd  Nd14  1  0.93822521  0.56177312  0.56177435  1
  Nd  Nd15  1  0.40611883  0.40612089  0.78164061  1
  Mg  Mg0  1  0.17189375  0.48432582  0.17189463  1
  Mg  Mg1  1  0.17189448  0.17189465  0.48432435  1
  Mg  Mg2  1  0.48432675  0.17189381  0.17189406  1
  Mg  Mg3  1  0.17188446  0.17188517  0.17188549  1
  Ru  Ru0  1  0.16260931  0.61246252  0.61246380  1
  Ru  Ru1  1  0.61246576  0.61246112  0.16260861  1
  Ru  Ru2  1  0.61246611  0.61246183  0.61246324  1
  Ru  Ru3  1  0.61246518  0.16260892  0.61246277  1
loop_
_geom_bond_atom_site_label_1
_geom_bond_atom_site_label_2
_geom_bond_distance
_geom_bond_site_symmetry_2
Nd0 Ru1 2.832884 1_556
Nd0 Ru2 2.832893 1_555
Nd1 Ru0 3.589912 1_555
Nd1 Ru1 3.589929 1_555
Nd2 Ru2 3.589897 1_555
Nd2 Ru1 3.589971 1_555
Nd3 Ru0 3.589894 1_555
Nd3 Ru3 3.589946 1_555
Nd4 Ru0 2.931630 1_555
Nd4 Ru1 2.931635 1_555
Nd4 Ru2 2.931671 1_555
Nd5 Ru2 3.589875 1_555
Nd5 Ru3 3.589978 1_555
Nd6 Ru3 2.832828 1_565
Nd6 Ru0 2.832868 1_655
Nd7 Ru1 3.589869 1_555
Nd7 Ru3 3.589918 1_555
Nd8 Ru1 2.832819 1_556
Nd8 Ru0 2.832879 1_655
Nd9 Ru1 2.931600 1_555
Nd9 Ru3 2.931643 1_555
Nd9 Ru2 2.931646 1_555
Nd10 Ru1 2.832851 1_556
Nd10 Ru3 2.832865 1_565
Nd11 Ru2 3.589936 1_555
Nd11 Ru0 3.589983 1_555
Nd12 Ru2 2.832886 1_555
Nd12 Ru3 2.832893 1_565
Nd13 Ru1 2.931601 1_555
Nd13 Ru0 2.931627 1_555
Nd13 Ru3 2.931638 1_555
Nd14 Ru2 2.832851 1_555
Nd14 Ru0 2.832910 1_655
Nd15 Ru0 2.931632 1_555
Nd15 Ru2 2.931653 1_555
Nd15 Ru3 2.931657 1_555
Mg0 Mg1 3.113578 1_555
Mg0 Mg2 3.113601 1_555
Mg0 Mg3 3.113815 1_555
Mg0 Nd11 3.434104 1_554
Mg0 Nd2 3.434121 1_455
Mg0 Nd1 3.434134 1_555
Mg0 Nd14 3.642629 1_455
Mg0 Nd0 3.642639 1_554
Mg0 Nd8 3.642737 1_454
Mg0 Nd13 3.649007 1_555
Mg0 Nd9 3.649023 1_455
Mg0 Nd15 3.649027 1_554
Mg1 Mg2 3.113599 1_555
Mg1 Mg3 3.113812 1_555
Mg1 Nd11 3.434108 1_545
Mg1 Nd5 3.434141 1_455
Mg1 Nd3 3.434151 1_555
Mg1 Nd14 3.642617 1_455
Mg1 Nd12 3.642638 1_545
Mg1 Nd6 3.642729 1_445
Mg1 Nd13 3.649022 1_555
Mg1 Nd9 3.649042 1_455
Mg1 Nd4 3.649048 1_545
Mg2 Mg3 3.113836 1_555
Mg2 Nd2 3.434078 1_545
Mg2 Nd5 3.434090 1_554
Mg2 Nd7 3.434120 1_555
Mg2 Nd0 3.642604 1_554
Mg2 Nd12 3.642616 1_545
Mg2 Nd10 3.642721 1_544
Mg2 Nd13 3.649006 1_555
Mg2 Nd15 3.649029 1_554
Mg2 Nd4 3.649044 1_545
Mg3 Nd1 3.433984 1_545
Mg3 Nd3 3.433996 1_554
Mg3 Nd7 3.434009 1_455
Mg3 Nd8 3.642584 1_454
Mg3 Nd6 3.642593 1_445
Mg3 Nd10 3.642608 1_544
Mg3 Nd9 3.649006 1_455
Mg3 Nd15 3.649012 1_554
Mg3 Nd4 3.649014 1_545
