# generated using pymatgen
data_LaNb2CuBrO7
_symmetry_space_group_name_H-M   'P 1'
_cell_length_a   3.94674500
_cell_length_b   3.94674500
_cell_length_c   11.81499800
_cell_angle_alpha   90.00000000
_cell_angle_beta   90.00000000
_cell_angle_gamma   90.00000000
_symmetry_Int_Tables_number   1
_chemical_formula_structural   LaNb2CuBrO7
_chemical_formula_sum   'La1 Nb2 Cu1 Br1 O7'
_cell_volume   184.03981471
_cell_formula_units_Z   1
loop_
 _symmetry_equiv_pos_site_id
 _symmetry_equiv_pos_as_xyz
  1  'x, y, z'
loop_
 _atom_site_type_symbol
 _atom_site_label
 _atom_site_symmetry_multiplicity
 _atom_site_fract_x
 _atom_site_fract_y
 _atom_site_fract_z
 _atom_site_occupancy
  La  La0  1  0.50000000  0.50000000  0.00000000  1
  Nb  Nb0  1  0.00000000  0.00000000  0.80869400  1
  Nb  Nb1  1  0.00000000  0.00000000  0.19130600  1
  Cu  Cu0  1  0.00000000  0.00000000  0.50000000  1
  Br  Br0  1  0.50000000  0.50000000  0.50000000  1
  O  O0  1  0.50000000  0.00000000  0.15524400  1
  O  O1  1  0.00000000  0.50000000  0.15524400  1
  O  O2  1  0.00000000  0.00000000  0.34397200  1
  O  O3  1  0.00000000  0.50000000  0.84475600  1
  O  O4  1  0.50000000  0.00000000  0.84475600  1
  O  O5  1  0.00000000  0.00000000  0.65602800  1
  O  O6  1  0.00000000  0.00000000  0.00000000  1
loop_
_geom_bond_atom_site_label_1
_geom_bond_atom_site_label_2
_geom_bond_distance
_geom_bond_site_symmetry_2
La0 O1 2.694163 1_655
La0 O0 2.694163 1_565
La0 O1 2.694163 1_555
La0 O0 2.694163 1_555
La0 O4 2.694163 1_554
La0 O3 2.694163 1_654
La0 O4 2.694163 1_564
La0 O3 2.694163 1_554
La0 O6 2.790770 1_555
La0 O6 2.790770 1_565
La0 O6 2.790770 1_655
La0 O6 2.790770 1_665
Nb0 O5 1.803748 1_555
Nb0 O4 2.018845 1_555
Nb0 O3 2.018845 1_545
Nb0 O3 2.018845 1_555
Nb0 O4 2.018845 1_455
Nb0 O6 2.260280 1_556
Nb1 O2 1.803748 1_555
Nb1 O0 2.018845 1_555
Nb1 O1 2.018845 1_545
Nb1 O1 2.018845 1_555
Nb1 O0 2.018845 1_455
Nb1 O6 2.260280 1_555
Cu0 O5 1.843471 1_555
Cu0 O2 1.843471 1_555
Br0 Cu0 2.790770 1_665
Br0 Cu0 2.790770 1_655
Br0 Cu0 2.790770 1_565
Br0 Cu0 2.790770 1_555
