# generated using pymatgen
data_Ta24Ti5Se48
_symmetry_space_group_name_H-M   'P 1'
_cell_length_a   14.86692615
_cell_length_b   14.86692615
_cell_length_c   14.86692587
_cell_angle_alpha   48.23406466
_cell_angle_beta   48.23406466
_cell_angle_gamma   48.23406636
_symmetry_Int_Tables_number   1
_chemical_formula_structural   Ta24Ti5Se48
_chemical_formula_sum   'Ta24 Ti5 Se48'
_cell_volume   1675.61783141
_cell_formula_units_Z   1
loop_
 _symmetry_equiv_pos_site_id
 _symmetry_equiv_pos_as_xyz
  1  'x, y, z'
loop_
 _atom_site_type_symbol
 _atom_site_label
 _atom_site_symmetry_multiplicity
 _atom_site_fract_x
 _atom_site_fract_y
 _atom_site_fract_z
 _atom_site_occupancy
  Ta  Ta0  1  0.07350900  0.07849100  0.59658100  1
  Ta  Ta1  1  0.17443400  0.17443400  0.17443400  1
  Ta  Ta2  1  0.07849100  0.59658100  0.07350900  1
  Ta  Ta3  1  0.42525600  0.41871400  0.90609400  1
  Ta  Ta4  1  0.24923300  0.75482200  0.74583400  1
  Ta  Ta5  1  0.09390600  0.57474400  0.58128600  1
  Ta  Ta6  1  0.58365200  0.58365200  0.58365200  1
  Ta  Ta7  1  0.25416600  0.75076700  0.24517800  1
  Ta  Ta8  1  0.41871400  0.90609400  0.42525600  1
  Ta  Ta9  1  0.03804800  0.03804800  0.03804800  1
  Ta  Ta10  1  0.75482200  0.74583400  0.24923300  1
  Ta  Ta11  1  0.59658100  0.07350900  0.07849100  1
  Ta  Ta12  1  0.40341900  0.92649100  0.92150900  1
  Ta  Ta13  1  0.24517800  0.25416600  0.75076700  1
  Ta  Ta14  1  0.96195200  0.96195200  0.96195200  1
  Ta  Ta15  1  0.58128600  0.09390600  0.57474400  1
  Ta  Ta16  1  0.74583400  0.24923300  0.75482200  1
  Ta  Ta17  1  0.41634800  0.41634800  0.41634800  1
  Ta  Ta18  1  0.90609400  0.42525600  0.41871400  1
  Ta  Ta19  1  0.75076700  0.24517800  0.25416600  1
  Ta  Ta20  1  0.57474400  0.58128600  0.09390600  1
  Ta  Ta21  1  0.92150900  0.40341900  0.92649100  1
  Ta  Ta22  1  0.82556600  0.82556600  0.82556600  1
  Ta  Ta23  1  0.92649100  0.92150900  0.40341900  1
  Ti  Ti0  1  0.32736700  0.32736700  0.32736700  1
  Ti  Ti1  1  0.10278400  0.10278400  0.10278400  1
  Ti  Ti2  1  0.67263300  0.67263300  0.67263300  1
  Ti  Ti3  1  0.50000000  0.50000000  0.50000000  1
  Ti  Ti4  1  0.89721600  0.89721600  0.89721600  1
  Se  Se0  1  0.21003600  0.53812500  0.37107900  1
  Se  Se1  1  0.94895600  0.30858300  0.13777900  1
  Se  Se2  1  0.96159900  0.16941500  0.76616400  1
  Se  Se3  1  0.20789500  0.38366400  0.03227600  1
  Se  Se4  1  0.37756600  0.70937300  0.03660500  1
  Se  Se5  1  0.12251200  0.46081800  0.79444700  1
  Se  Se6  1  0.37283900  0.54492300  0.70385200  1
  Se  Se7  1  0.12057300  0.29272300  0.45552500  1
  Se  Se8  1  0.23383600  0.03840100  0.83058500  1
  Se  Se9  1  0.96772400  0.79210500  0.61633600  1
  Se  Se10  1  0.54447500  0.87942700  0.70727700  1
  Se  Se11  1  0.29614800  0.62716100  0.45507700  1
  Se  Se12  1  0.20555300  0.87748800  0.53918200  1
  Se  Se13  1  0.96339500  0.62243400  0.29062700  1
  Se  Se14  1  0.37107900  0.21003600  0.53812500  1
  Se  Se15  1  0.13777900  0.94895600  0.30858300  1
  Se  Se16  1  0.54492300  0.70385200  0.37283900  1
  Se  Se17  1  0.29272300  0.45552500  0.12057300  1
  Se  Se18  1  0.70937300  0.03660500  0.37756600  1
  Se  Se19  1  0.46081800  0.79444700  0.12251200  1
  Se  Se20  1  0.38366400  0.03227600  0.20789500  1
  Se  Se21  1  0.16941500  0.76616400  0.96159900  1
  Se  Se22  1  0.69141700  0.86222100  0.05104400  1
  Se  Se23  1  0.46187500  0.62892100  0.78996400  1
  Se  Se24  1  0.53812500  0.37107900  0.21003600  1
  Se  Se25  1  0.30858300  0.13777900  0.94895600  1
  Se  Se26  1  0.83058500  0.23383600  0.03840100  1
  Se  Se27  1  0.61633600  0.96772400  0.79210500  1
  Se  Se28  1  0.53918200  0.20555300  0.87748800  1
  Se  Se29  1  0.29062700  0.96339500  0.62243400  1
  Se  Se30  1  0.45507700  0.29614800  0.62716100  1
  Se  Se31  1  0.70727700  0.54447500  0.87942700  1
  Se  Se32  1  0.62892100  0.78996400  0.46187500  1
  Se  Se33  1  0.86222100  0.05104400  0.69141700  1
  Se  Se34  1  0.03660500  0.37756600  0.70937300  1
  Se  Se35  1  0.79444700  0.12251200  0.46081800  1
  Se  Se36  1  0.70385100  0.37283900  0.54492300  1
  Se  Se37  1  0.45552500  0.12057300  0.29272300  1
  Se  Se38  1  0.76616400  0.96159900  0.16941500  1
  Se  Se39  1  0.03227600  0.20789500  0.38366400  1
  Se  Se40  1  0.87942700  0.70727700  0.54447500  1
  Se  Se41  1  0.62716100  0.45507700  0.29614800  1
  Se  Se42  1  0.87748800  0.53918200  0.20555300  1
  Se  Se43  1  0.62243400  0.29062700  0.96339500  1
  Se  Se44  1  0.03840100  0.83058500  0.23383600  1
  Se  Se45  1  0.79210500  0.61633600  0.96772400  1
  Se  Se46  1  0.78996400  0.46187500  0.62892100  1
  Se  Se47  1  0.05104400  0.69141700  0.86222100  1
loop_
_geom_bond_atom_site_label_1
_geom_bond_atom_site_label_2
_geom_bond_distance
_geom_bond_site_symmetry_2
Se0 Ta17 2.620624 1_555
Se0 Ta5 2.621103 1_555
Se0 Ta7 2.678098 1_555
Se0 Ti0 2.684046 1_555
Se1 Ti1 2.464960 1_655
Se1 Ta21 2.657565 1_554
Se1 Ta19 2.701763 1_555
Se1 Ta1 2.755171 1_655
Se2 Ta14 2.454486 1_545
Se2 Ta0 2.628254 1_655
Se2 Ta16 2.666345 1_555
Se3 Ta1 2.508575 1_555
Se3 Ta2 2.645392 1_555
Se3 Ta3 2.664288 1_554
Se4 Ta20 2.583490 1_555
Se4 Ta7 2.611380 1_555
Se4 Ta12 2.629348 1_554
Se5 Ta5 2.603425 1_555
Se5 Ta13 2.608179 1_555
Se5 Ta21 2.619610 1_455
Se6 Ti3 2.566450 1_555
Se6 Ta3 2.612684 1_555
Se6 Ta6 2.630570 1_555
Se6 Ta4 2.632815 1_555
Se7 Ti0 2.519137 1_555
Se7 Ta18 2.620627 1_455
Se7 Ta0 2.673502 1_555
Se8 Ta9 2.454486 1_556
Se8 Ta12 2.628254 1_545
Se8 Ta13 2.666345 1_555
Se9 Ta22 2.508575 1_555
Se9 Ta23 2.645392 1_555
Se9 Ta5 2.664288 1_655
Se10 Ti2 2.519137 1_555
Se10 Ta15 2.620627 1_565
Se10 Ta12 2.673502 1_555
Se11 Ti3 2.566450 1_555
Se11 Ta5 2.612684 1_555
Se11 Ta17 2.630570 1_555
Se11 Ta7 2.632815 1_555
Se12 Ta8 2.603425 1_555
Se12 Ta4 2.608179 1_555
Se12 Ta0 2.619610 1_565
Se13 Ta18 2.583490 1_555
Se13 Ta10 2.611380 1_555
Se13 Ta2 2.629348 1_655
Se14 Ta17 2.620624 1_555
Se14 Ta15 2.621104 1_555
Se14 Ta13 2.678098 1_555
Se14 Ti0 2.684046 1_555
Se15 Ti1 2.464960 1_565
Se15 Ta23 2.657565 1_455
Se15 Ta7 2.701763 1_555
Se15 Ta1 2.755171 1_565
Se16 Ti3 2.566450 1_555
Se16 Ta8 2.612684 1_555
Se16 Ta6 2.630570 1_555
Se16 Ta10 2.632815 1_555
Se17 Ti0 2.519137 1_555
Se17 Ta3 2.620627 1_554
Se17 Ta2 2.673502 1_555
Se18 Ta15 2.583490 1_555
Se18 Ta19 2.611380 1_555
Se18 Ta23 2.629348 1_545
Se19 Ta20 2.603425 1_555
Se19 Ta7 2.608179 1_555
Se19 Ta12 2.619610 1_554
Se20 Ta1 2.508575 1_555
Se20 Ta11 2.645392 1_555
Se20 Ta8 2.664288 1_545
Se21 Ta14 2.454486 1_455
Se21 Ta2 2.628254 1_556
Se21 Ta4 2.666345 1_555
Se22 Ti4 2.464960 1_554
Se22 Ta11 2.657565 1_565
Se22 Ta10 2.701763 1_555
Se22 Ta22 2.755171 1_554
Se23 Ta6 2.620624 1_555
Se23 Ta3 2.621103 1_555
Se23 Ta4 2.678098 1_555
Se23 Ti2 2.684046 1_555
Se24 Ta17 2.620624 1_555
Se24 Ta20 2.621103 1_555
Se24 Ta19 2.678098 1_555
Se24 Ti0 2.684046 1_555
Se25 Ti1 2.464960 1_556
Se25 Ta12 2.657565 1_545
Se25 Ta13 2.701763 1_555
Se25 Ta1 2.755171 1_556
Se26 Ta9 2.454486 1_655
Se26 Ta21 2.628254 1_554
Se26 Ta19 2.666345 1_555
Se27 Ta22 2.508575 1_555
Se27 Ta12 2.645392 1_555
Se27 Ta15 2.664288 1_565
Se28 Ta3 2.603425 1_555
Se28 Ta16 2.608179 1_555
Se28 Ta11 2.619610 1_556
Se29 Ta8 2.583490 1_555
Se29 Ta4 2.611380 1_555
Se29 Ta0 2.629348 1_565
Se30 Ti3 2.566450 1_555
Se30 Ta15 2.612684 1_555
Se30 Ta17 2.630570 1_555
Se30 Ta13 2.632815 1_555
Se31 Ti2 2.519137 1_555
Se31 Ta20 2.620627 1_556
Se31 Ta21 2.673502 1_555
Se32 Ta6 2.620624 1_555
Se32 Ta8 2.621104 1_555
Se32 Ta10 2.678098 1_555
Se32 Ti2 2.684046 1_555
Se33 Ti4 2.464960 1_545
Se33 Ta0 2.657565 1_655
Se33 Ta16 2.701763 1_555
Se33 Ta22 2.755171 1_545
Se34 Ta5 2.583490 1_555
Se34 Ta13 2.611380 1_555
Se34 Ta21 2.629348 1_455
Se35 Ta15 2.603425 1_555
Se35 Ta19 2.608179 1_555
Se35 Ta23 2.619610 1_545
Se36 Ti3 2.566437 1_555
Se36 Ta18 2.612697 1_555
Se36 Ta6 2.630574 1_555
Se36 Ta16 2.632823 1_555
Se37 Ti0 2.519137 1_555
Se37 Ta8 2.620627 1_545
Se37 Ta11 2.673502 1_555
Se38 Ta14 2.454486 1_554
Se38 Ta11 2.628254 1_565
Se38 Ta10 2.666345 1_555
Se39 Ta1 2.508575 1_555
Se39 Ta0 2.645392 1_555
Se39 Ta18 2.664288 1_455
Se40 Ti2 2.519137 1_555
Se40 Ta5 2.620627 1_655
Se40 Ta23 2.673502 1_555
Se41 Ti3 2.566450 1_555
Se41 Ta20 2.612684 1_555
Se41 Ta17 2.630570 1_555
Se41 Ta19 2.632815 1_555
Se42 Ta18 2.603425 1_555
Se42 Ta10 2.608179 1_555
Se42 Ta2 2.619610 1_655
Se43 Ta3 2.583490 1_555
Se43 Ta16 2.611380 1_555
Se43 Ta11 2.629348 1_556
Se44 Ta9 2.454486 1_565
Se44 Ta23 2.628254 1_455
Se44 Ta7 2.666345 1_555
Se45 Ta22 2.508575 1_555
Se45 Ta21 2.645392 1_555
Se45 Ta20 2.664288 1_556
Se46 Ta6 2.620624 1_555
Se46 Ta18 2.621103 1_555
Se46 Ta16 2.678098 1_555
Se46 Ti2 2.684046 1_555
Se47 Ti4 2.464960 1_455
Se47 Ta2 2.657565 1_556
Se47 Ta4 2.701763 1_555
Se47 Ta22 2.755171 1_455
