# generated using pymatgen
data_Si4H2O9
_symmetry_space_group_name_H-M   'P 1'
_cell_length_a   15.90114054
_cell_length_b   15.89038969
_cell_length_c   7.51283115
_cell_angle_alpha   76.41050213
_cell_angle_beta   76.25116625
_cell_angle_gamma   27.33833163
_symmetry_Int_Tables_number   1
_chemical_formula_structural   Si4H2O9
_chemical_formula_sum   'Si16 H8 O36'
_cell_volume   845.59620993
_cell_formula_units_Z   4
loop_
 _symmetry_equiv_pos_site_id
 _symmetry_equiv_pos_as_xyz
  1  'x, y, z'
loop_
 _atom_site_type_symbol
 _atom_site_label
 _atom_site_symmetry_multiplicity
 _atom_site_fract_x
 _atom_site_fract_y
 _atom_site_fract_z
 _atom_site_occupancy
  Si  Si0  1  0.45841300  0.04597800  0.04102100  1
  Si  Si1  1  0.04102100  0.45458800  0.45841300  1
  Si  Si2  1  0.20402200  0.79158700  0.79541200  1
  Si  Si3  1  0.79541200  0.20897900  0.20402200  1
  Si  Si4  1  0.03306400  0.46693600  0.03306400  1
  Si  Si5  1  0.45737600  0.04262400  0.45737600  1
  Si  Si6  1  0.78306400  0.21693600  0.78306400  1
  Si  Si7  1  0.20737600  0.79262400  0.20737600  1
  Si  Si8  1  0.87575200  0.47036200  0.82514500  1
  Si  Si9  1  0.46065000  0.88112400  0.81000700  1
  Si  Si10  1  0.77963800  0.37424800  0.42125900  1
  Si  Si11  1  0.36887600  0.78935000  0.40178200  1
  Si  Si12  1  0.81000700  0.84821800  0.46065000  1
  Si  Si13  1  0.82514500  0.82874100  0.87575200  1
  Si  Si14  1  0.40178200  0.43999300  0.36887600  1
  Si  Si15  1  0.42125900  0.42485500  0.77963800  1
  H  H0  1  0.10106100  0.16392500  0.86950500  1
  H  H1  1  0.08607500  0.14893900  0.38449100  1
  H  H2  1  0.86950500  0.86550900  0.10106100  1
  H  H3  1  0.38449100  0.38049500  0.08607500  1
  H  H4  1  0.67658100  0.23228000  0.47323400  1
  H  H5  1  0.01772000  0.57341900  0.63209500  1
  H  H6  1  0.47323400  0.61790500  0.67658100  1
  H  H7  1  0.63209500  0.77676600  0.01772000  1
  O  O0  1  0.95699000  0.30460900  0.87527100  1
  O  O1  1  0.28390700  0.98383400  0.87464800  1
  O  O2  1  0.94539100  0.29301000  0.38687000  1
  O  O3  1  0.26616600  0.96609300  0.39238900  1
  O  O4  1  0.87464800  0.85761100  0.28390700  1
  O  O5  1  0.87527100  0.86313000  0.95699000  1
  O  O6  1  0.39238900  0.37535200  0.26616600  1
  O  O7  1  0.38687000  0.37472900  0.94539100  1
  O  O8  1  0.27627500  0.63409100  0.78259500  1
  O  O9  1  0.63750700  0.27895000  0.34540300  1
  O  O10  1  0.61590900  0.97372500  0.94296100  1
  O  O11  1  0.97105000  0.61249300  0.51186100  1
  O  O12  1  0.63509100  0.27805200  0.74941600  1
  O  O13  1  0.28127100  0.63379900  0.30749700  1
  O  O14  1  0.97194800  0.61490900  0.91255900  1
  O  O15  1  0.61620100  0.96872900  0.47256700  1
  O  O16  1  0.34540300  0.73813900  0.63750700  1
  O  O17  1  0.78259500  0.30703900  0.27627500  1
  O  O18  1  0.51186100  0.90459700  0.97105000  1
  O  O19  1  0.94296100  0.46740500  0.61590900  1
  O  O20  1  0.74941600  0.33744100  0.63509100  1
  O  O21  1  0.30749700  0.77743300  0.28127100  1
  O  O22  1  0.91255900  0.50058400  0.97194800  1
  O  O23  1  0.47256700  0.94250300  0.61620100  1
  O  O24  1  0.83291400  0.85429600  0.65311300  1
  O  O25  1  0.39570400  0.41708600  0.59032300  1
  O  O26  1  0.65311300  0.65967700  0.83291400  1
  O  O27  1  0.59032300  0.59688700  0.39570400  1
  O  O28  1  0.74655600  0.26211100  0.99323200  1
  O  O29  1  0.24931300  0.77375500  0.98608300  1
  O  O30  1  0.98788900  0.50344400  0.25189900  1
  O  O31  1  0.47624500  0.00068700  0.25915100  1
  O  O32  1  0.98608300  0.99084900  0.24931300  1
  O  O33  1  0.99323200  0.99810100  0.74655600  1
  O  O34  1  0.25915100  0.26391700  0.47624500  1
  O  O35  1  0.25189900  0.25676800  0.98788900  1
loop_
_geom_bond_atom_site_label_1
_geom_bond_atom_site_label_2
_geom_bond_distance
_geom_bond_site_symmetry_2
H0 O0 1.071113 1_455
H0 O1 1.365143 1_545
H1 O2 1.071113 1_455
H1 O3 1.365143 1_545
H2 O5 1.071113 1_554
H2 O4 1.365143 1_555
H3 O7 1.071113 1_554
H3 O6 1.365143 1_555
H4 O9 0.994310 1_555
H5 O11 0.994303 1_455
H6 O16 0.994309 1_555
H7 O18 0.994307 1_554
O0 Si8 1.571051 1_555
O1 Si9 1.540324 1_555
O2 Si10 1.571051 1_555
O3 Si11 1.540323 1_555
O4 Si12 1.540332 1_555
O5 Si13 1.571051 1_555
O6 Si14 1.540337 1_555
O7 Si15 1.571051 1_555
O8 Si2 1.595278 1_555
O8 Si15 1.662026 1_555
O9 Si3 1.730989 1_555
O9 Si14 1.867076 1_555
O10 Si0 1.595278 1_566
O10 Si13 1.662026 1_555
O11 Si1 1.730992 1_655
O11 Si12 1.867077 1_555
O12 Si6 1.628197 1_555
O12 Si15 1.686613 1_555
O13 Si7 1.604817 1_555
O13 Si14 1.623899 1_555
O14 Si4 1.628197 1_656
O14 Si13 1.686613 1_555
O15 Si5 1.604817 1_565
O15 Si12 1.623898 1_555
O16 Si2 1.730981 1_555
O16 Si11 1.867089 1_555
O17 Si3 1.595278 1_555
O17 Si10 1.662026 1_555
O18 Si0 1.730977 1_566
O18 Si9 1.867101 1_555
O19 Si1 1.595278 1_655
O19 Si8 1.662026 1_555
O20 Si6 1.628197 1_555
O20 Si10 1.686613 1_555
O21 Si7 1.604817 1_555
O21 Si11 1.623911 1_555
O22 Si4 1.628197 1_656
O22 Si8 1.686613 1_555
O23 Si5 1.604817 1_565
O23 Si9 1.623906 1_555
O24 Si12 1.615929 1_555
O24 Si13 1.627770 1_555
O25 Si14 1.615922 1_555
O25 Si15 1.627770 1_555
O26 Si9 1.615922 1_555
O26 Si8 1.627770 1_555
O27 Si11 1.615922 1_555
O27 Si10 1.627770 1_555
O28 Si3 1.617225 1_556
O28 Si6 1.643775 1_555
O29 Si2 1.608732 1_555
O29 Si7 1.628086 1_556
O30 Si1 1.617225 1_655
O30 Si4 1.643775 1_655
O31 Si0 1.608732 1_555
O31 Si5 1.628086 1_555
O32 Si3 1.608732 1_565
O32 Si7 1.628086 1_655
O33 Si2 1.617225 1_655
O33 Si6 1.643775 1_565
O34 Si1 1.608732 1_555
O34 Si5 1.628086 1_555
O35 Si0 1.617225 1_556
O35 Si4 1.643775 1_556
