# generated using pymatgen
data_Ba
_symmetry_space_group_name_H-M   'P 1'
_cell_length_a   7.84128250
_cell_length_b   11.07582813
_cell_length_c   11.07785941
_cell_angle_alpha   90.00451971
_cell_angle_beta   90.01701316
_cell_angle_gamma   90.02098260
_symmetry_Int_Tables_number   1
_chemical_formula_structural   Ba
_chemical_formula_sum   Ba16
_cell_volume   962.09754875
_cell_formula_units_Z   16
loop_
 _symmetry_equiv_pos_site_id
 _symmetry_equiv_pos_as_xyz
  1  'x, y, z'
loop_
 _atom_site_type_symbol
 _atom_site_label
 _atom_site_symmetry_multiplicity
 _atom_site_fract_x
 _atom_site_fract_y
 _atom_site_fract_z
 _atom_site_occupancy
  Ba  Ba0_0  1  0.00000000  0.00000050  0.49999950  1
  Ba  Ba0_1  1  0.00000000  0.00000050  0.99999950  1
  Ba  Ba0_2  1  0.00000000  0.50000050  0.49999950  1
  Ba  Ba0_3  1  0.00000000  0.50000050  0.99999950  1
  Ba  Ba0_4  1  0.50000000  0.00000050  0.49999950  1
  Ba  Ba0_5  1  0.50000000  0.00000050  0.99999950  1
  Ba  Ba0_6  1  0.50000000  0.50000050  0.49999950  1
  Ba  Ba0_7  1  0.50000000  0.50000050  0.99999950  1
  Ba  Ba1_0  1  0.00000000  0.24999950  0.25000050  1
  Ba  Ba1_1  1  0.00000000  0.24999950  0.75000050  1
  Ba  Ba1_2  1  0.00000000  0.74999950  0.25000050  1
  Ba  Ba1_3  1  0.00000000  0.74999950  0.75000050  1
  Ba  Ba1_4  1  0.50000000  0.24999950  0.25000050  1
  Ba  Ba1_5  1  0.50000000  0.24999950  0.75000050  1
  Ba  Ba1_6  1  0.50000000  0.74999950  0.25000050  1
  Ba  Ba1_7  1  0.50000000  0.74999950  0.75000050  1
loop_
_geom_bond_atom_site_label_1
_geom_bond_atom_site_label_2
_geom_bond_distance
_geom_bond_site_symmetry_2
Ba0_0 Ba1_2 3.916101 1_545
Ba0_0 Ba1_1 3.916101 1_555
Ba0_0 Ba1_0 3.916394 1_555
Ba0_0 Ba1_3 3.916426 1_545
Ba0_0 Ba0_4 3.920641 1_555
Ba0_0 Ba0_4 3.920641 1_455
Ba0_1 Ba1_3 3.916101 1_545
Ba0_1 Ba1_0 3.916101 1_556
Ba0_1 Ba1_1 3.916394 1_555
Ba0_1 Ba1_2 3.916426 1_546
Ba0_1 Ba0_5 3.920641 1_555
Ba0_1 Ba0_5 3.920641 1_455
Ba0_2 Ba1_0 3.916101 1_555
Ba0_2 Ba1_3 3.916101 1_555
Ba0_2 Ba1_2 3.916394 1_555
Ba0_2 Ba1_1 3.916426 1_555
Ba0_2 Ba0_6 3.920641 1_555
Ba0_2 Ba0_6 3.920641 1_455
Ba0_3 Ba1_1 3.916101 1_555
Ba0_3 Ba1_2 3.916101 1_556
Ba0_3 Ba1_3 3.916394 1_555
Ba0_3 Ba1_0 3.916426 1_556
Ba0_3 Ba0_7 3.920641 1_555
Ba0_3 Ba0_7 3.920641 1_455
Ba0_4 Ba1_6 3.916101 1_545
Ba0_4 Ba1_5 3.916101 1_555
Ba0_4 Ba1_4 3.916394 1_555
Ba0_4 Ba1_7 3.916426 1_545
Ba0_5 Ba1_7 3.916101 1_545
Ba0_5 Ba1_4 3.916101 1_556
Ba0_5 Ba1_5 3.916394 1_555
Ba0_5 Ba1_6 3.916426 1_546
Ba0_6 Ba1_4 3.916101 1_555
Ba0_6 Ba1_7 3.916101 1_555
Ba0_6 Ba1_6 3.916394 1_555
Ba0_6 Ba1_5 3.916426 1_555
Ba0_7 Ba1_5 3.916101 1_555
Ba0_7 Ba1_6 3.916101 1_556
Ba0_7 Ba1_7 3.916394 1_555
Ba0_7 Ba1_4 3.916426 1_556
Ba1_0 Ba1_4 3.920641 1_555
Ba1_0 Ba1_4 3.920641 1_455
Ba1_1 Ba1_5 3.920641 1_555
Ba1_1 Ba1_5 3.920641 1_455
Ba1_2 Ba1_6 3.920641 1_555
Ba1_2 Ba1_6 3.920641 1_455
Ba1_3 Ba1_7 3.920641 1_555
Ba1_3 Ba1_7 3.920641 1_455
