# generated using pymatgen
data_Cs2Th(PS3)3
_symmetry_space_group_name_H-M   'P 1'
_cell_length_a   12.55553800
_cell_length_b   12.61756561
_cell_length_c   12.77593948
_cell_angle_alpha   114.28809816
_cell_angle_beta   102.55124883
_cell_angle_gamma   99.32914296
_symmetry_Int_Tables_number   1
_chemical_formula_structural   Cs2Th(PS3)3
_chemical_formula_sum   'Cs8 Th4 P12 S36'
_cell_volume   1727.29858461
_cell_formula_units_Z   4
loop_
 _symmetry_equiv_pos_site_id
 _symmetry_equiv_pos_as_xyz
  1  'x, y, z'
loop_
 _atom_site_type_symbol
 _atom_site_label
 _atom_site_symmetry_multiplicity
 _atom_site_fract_x
 _atom_site_fract_y
 _atom_site_fract_z
 _atom_site_occupancy
  Cs  Cs0  1  0.16962600  0.22808500  0.55401100  1
  Cs  Cs1  1  0.89948200  0.43180100  0.73939200  1
  Cs  Cs2  1  0.87592800  0.14564500  0.10292600  1
  Cs  Cs3  1  0.64865600  0.07409200  0.72717600  1
  Cs  Cs4  1  0.83037400  0.77191500  0.44598900  1
  Cs  Cs5  1  0.10051800  0.56819900  0.26060800  1
  Cs  Cs6  1  0.35134400  0.92590800  0.27282400  1
  Cs  Cs7  1  0.12407200  0.85435500  0.89707400  1
  Th  Th0  1  0.39035400  0.71462400  0.68001800  1
  Th  Th1  1  0.60964600  0.28537600  0.31998200  1
  Th  Th2  1  0.64638000  0.67895300  0.99497700  1
  Th  Th3  1  0.35362000  0.32104700  0.00502300  1
  P  P0  1  0.22647800  0.86999000  0.55743200  1
  P  P1  1  0.35634000  0.36464900  0.35742500  1
  P  P2  1  0.64366000  0.63535100  0.64257500  1
  P  P3  1  0.78214100  0.45368800  0.01286400  1
  P  P4  1  0.77352200  0.13001000  0.44256800  1
  P  P5  1  0.21785900  0.54631200  0.98713600  1
  P  P6  1  0.68054500  0.41665800  0.12698500  1
  P  P7  1  0.31945500  0.58334200  0.87301500  1
  P  P8  1  0.69866200  0.96886000  0.25262600  1
  P  P9  1  0.76294300  0.79789700  0.81201300  1
  P  P10  1  0.30133800  0.03114000  0.74737400  1
  P  P11  1  0.23705700  0.20210300  0.18798700  1
  S  S0  1  0.88608400  0.35018400  0.97987500  1
  S  S1  1  0.55307000  0.71038300  0.55430600  1
  S  S2  1  0.53712000  0.56158500  0.71337900  1
  S  S3  1  0.39884500  0.18189500  0.75801100  1
  S  S4  1  0.39682400  0.95557900  0.83549500  1
  S  S5  1  0.66394300  0.43274500  0.86426400  1
  S  S6  1  0.78976300  0.44393900  0.28479900  1
  S  S7  1  0.42121300  0.47149800  0.86622700  1
  S  S8  1  0.15698600  0.73343800  0.59196100  1
  S  S9  1  0.35726000  0.13763100  0.11227300  1
  S  S10  1  0.84301400  0.26656200  0.40803900  1
  S  S11  1  0.64274000  0.86236900  0.88772700  1
  S  S12  1  0.60115500  0.81810500  0.24198900  1
  S  S13  1  0.84931200  0.63678000  0.12123600  1
  S  S14  1  0.11391600  0.64981600  0.02012500  1
  S  S15  1  0.33605700  0.56725500  0.13573600  1
  S  S16  1  0.15947400  0.27423100  0.08693300  1
  S  S17  1  0.87579300  0.09950200  0.56174600  1
  S  S18  1  0.17847400  0.08489100  0.81795500  1
  S  S19  1  0.13726100  0.08844900  0.22108000  1
  S  S20  1  0.12420700  0.90049800  0.43825400  1
  S  S21  1  0.86273900  0.91155100  0.77892000  1
  S  S22  1  0.46288000  0.43841500  0.28662100  1
  S  S23  1  0.82152600  0.91510900  0.18204500  1
  S  S24  1  0.62954500  0.16997800  0.47937600  1
  S  S25  1  0.44693000  0.28961700  0.44569400  1
  S  S26  1  0.57201600  0.24631300  0.05554500  1
  S  S27  1  0.15068800  0.36322000  0.87876400  1
  S  S28  1  0.84052600  0.72576900  0.91306700  1
  S  S29  1  0.73159100  0.53008300  0.55236400  1
  S  S30  1  0.21023700  0.55606100  0.71520100  1
  S  S31  1  0.42798400  0.75368700  0.94445500  1
  S  S32  1  0.60317600  0.04442100  0.16450500  1
  S  S33  1  0.37045500  0.83002200  0.52062400  1
  S  S34  1  0.26840900  0.46991700  0.44763600  1
  S  S35  1  0.57878700  0.52850200  0.13377300  1
loop_
_geom_bond_atom_site_label_1
_geom_bond_atom_site_label_2
_geom_bond_distance
_geom_bond_site_symmetry_2
Cs0 S20 3.665717 1_545
Cs0 S30 3.670816 1_555
Cs0 S3 3.734761 1_555
Cs0 S19 3.770045 1_555
Cs0 S17 3.821282 1_455
Cs0 S27 3.862472 1_555
Cs0 S34 3.951322 1_555
Cs0 S7 4.077001 1_555
Cs0 S25 4.091652 1_555
Cs1 S29 3.575858 1_555
Cs1 S14 3.600708 1_656
Cs1 S0 3.646880 1_555
Cs1 S5 3.652038 1_555
Cs1 S27 3.684935 1_655
Cs1 S10 3.704886 1_555
Cs1 S28 3.750021 1_555
Cs1 S17 3.780624 1_555
Cs1 S24 3.985505 1_555
Cs1 S30 4.088565 1_655
Cs2 S23 3.467591 1_545
Cs2 S0 3.530764 1_554
Cs2 S19 3.616185 1_655
Cs2 S10 3.702126 1_555
Cs2 S11 3.732407 1_544
Cs2 S16 3.750254 1_655
Cs2 S32 3.815395 1_555
Cs2 S21 3.920739 1_544
Cs2 S6 3.994186 1_555
Cs3 S3 3.649997 1_555
Cs3 S21 3.741435 1_545
Cs3 S24 3.802497 1_555
Cs3 S33 3.803845 1_545
Cs3 S0 3.826646 1_555
Cs3 S17 3.947577 1_555
Cs3 S11 3.982350 1_545
Cs3 S1 4.012809 1_545
Cs3 S4 4.027398 1_545
Cs3 S5 4.078612 1_555
Cs4 S17 3.665717 1_565
Cs4 S6 3.670816 1_555
Cs4 S12 3.734761 1_555
Cs4 S21 3.770045 1_555
Cs4 S20 3.821282 1_655
Cs4 S13 3.862472 1_555
Cs4 S29 3.951322 1_555
Cs4 S35 4.077001 1_555
Cs4 S1 4.091652 1_555
Cs5 S34 3.575858 1_555
Cs5 S0 3.600708 1_454
Cs5 S14 3.646880 1_555
Cs5 S15 3.652038 1_555
Cs5 S13 3.684935 1_455
Cs5 S8 3.704886 1_555
Cs5 S16 3.750021 1_555
Cs5 S20 3.780624 1_555
Cs5 S33 3.985505 1_555
Cs5 S6 4.088565 1_455
Cs6 S12 3.649997 1_555
Cs6 S19 3.741435 1_565
Cs6 S33 3.802497 1_555
Cs6 S24 3.803845 1_565
Cs6 S14 3.826646 1_555
Cs6 S20 3.947577 1_555
Cs6 S9 3.982350 1_565
Cs6 S25 4.012809 1_565
Cs6 S32 4.027398 1_565
Cs6 S15 4.078612 1_555
Cs7 S18 3.467591 1_565
Cs7 S14 3.530764 1_556
Cs7 S21 3.616185 1_455
Cs7 S8 3.702126 1_555
Cs7 S9 3.732407 1_566
Cs7 S28 3.750254 1_455
Cs7 S4 3.815395 1_555
Cs7 S19 3.920739 1_566
Cs7 S30 3.994186 1_555
P0 S20 1.976869 1_555
P0 S33 2.052610 1_555
P0 S8 2.056603 1_555
P1 S34 2.020022 1_555
P1 S25 2.032645 1_555
P1 S22 2.070943 1_555
P1 P11 2.253469 1_555
P2 S29 2.020022 1_555
P2 S1 2.032645 1_555
P2 S2 2.070943 1_555
P2 P9 2.253469 1_555
P3 S0 1.981212 1_554
P3 S5 2.027840 1_554
P3 S13 2.048095 1_555
P3 P6 2.268637 1_555
P4 S17 1.976869 1_555
P4 S24 2.052610 1_555
P4 S10 2.056603 1_555
P5 S14 1.981212 1_556
P5 S15 2.027840 1_556
P5 S27 2.048095 1_555
P5 P7 2.268637 1_555
P6 S6 2.034315 1_555
P6 S35 2.040431 1_555
P6 S26 2.050753 1_555
P7 S30 2.034315 1_555
P7 S7 2.040431 1_555
P7 S31 2.050753 1_555
P8 S23 2.023230 1_555
P8 S12 2.023738 1_555
P8 S32 2.068988 1_565
P9 S21 1.987881 1_555
P9 S28 2.037487 1_555
P9 S11 2.064070 1_555
P10 S18 2.023230 1_555
P10 S3 2.023738 1_555
P10 S4 2.068988 1_545
P11 S19 1.987881 1_555
P11 S16 2.037487 1_555
P11 S9 2.064070 1_555
S1 Th0 2.854299 1_555
S2 Th0 2.965690 1_555
S2 Th2 3.135546 1_555
S3 Th3 3.147718 1_556
S4 Th0 2.842043 1_555
S5 Th2 2.932990 1_555
S6 Th1 3.005615 1_555
S7 Th2 3.096364 1_555
S7 Th3 3.220131 1_556
S8 Th0 2.986601 1_555
S9 Th3 3.138653 1_555
S9 Th1 3.304410 1_555
S10 Th1 2.986601 1_555
S11 Th2 3.138653 1_555
S11 Th0 3.304410 1_555
S12 Th2 3.147718 1_554
S13 Th2 2.955749 1_554
S15 Th3 2.932990 1_555
S16 Th3 2.921704 1_555
S18 Th3 3.026447 1_556
S22 Th1 2.965690 1_555
S22 Th3 3.135546 1_555
S23 Th2 3.026447 1_554
S24 Th1 2.943720 1_555
S25 Th1 2.854299 1_555
S26 Th3 3.065055 1_555
S26 Th1 3.121035 1_555
S27 Th3 2.955749 1_556
S28 Th2 2.921704 1_555
S29 Th1 3.105239 1_555
S30 Th0 3.005615 1_555
S31 Th2 3.065055 1_555
S31 Th0 3.121035 1_555
S32 Th1 2.842043 1_555
S33 Th0 2.943720 1_555
S34 Th0 3.105239 1_555
S35 Th3 3.096364 1_555
S35 Th2 3.220131 1_554
