# generated using pymatgen
data_SiO2
_symmetry_space_group_name_H-M   'P 1'
_cell_length_a   7.62785800
_cell_length_b   18.27427600
_cell_length_c   26.11480800
_cell_angle_alpha   90.00000000
_cell_angle_beta   90.00000000
_cell_angle_gamma   90.00000000
_symmetry_Int_Tables_number   1
_chemical_formula_structural   SiO2
_chemical_formula_sum   'Si60 O120'
_cell_volume   3640.23664031
_cell_formula_units_Z   60
loop_
 _symmetry_equiv_pos_site_id
 _symmetry_equiv_pos_as_xyz
  1  'x, y, z'
loop_
 _atom_site_type_symbol
 _atom_site_label
 _atom_site_symmetry_multiplicity
 _atom_site_fract_x
 _atom_site_fract_y
 _atom_site_fract_z
 _atom_site_occupancy
  Si  Si0  1  0.29673900  0.41644200  0.91244800  1
  Si  Si1  1  0.79673900  0.08355800  0.08755200  1
  Si  Si2  1  0.20326100  0.91644200  0.08755200  1
  Si  Si3  1  0.70326100  0.58355800  0.91244800  1
  Si  Si4  1  0.20326100  0.08355800  0.08755200  1
  Si  Si5  1  0.70326100  0.41644200  0.91244800  1
  Si  Si6  1  0.29673900  0.58355800  0.91244800  1
  Si  Si7  1  0.79673900  0.91644200  0.08755200  1
  Si  Si8  1  0.29723700  0.22538100  0.14431000  1
  Si  Si9  1  0.79723700  0.27461900  0.85569000  1
  Si  Si10  1  0.20276300  0.72538100  0.85569000  1
  Si  Si11  1  0.70276300  0.77461900  0.14431000  1
  Si  Si12  1  0.20276300  0.27461900  0.85569000  1
  Si  Si13  1  0.70276300  0.22538100  0.14431000  1
  Si  Si14  1  0.29723700  0.77461900  0.14431000  1
  Si  Si15  1  0.79723700  0.72538100  0.85569000  1
  Si  Si16  1  0.29560500  0.30880300  0.24637900  1
  Si  Si17  1  0.79560500  0.19119700  0.75362100  1
  Si  Si18  1  0.20439500  0.80880300  0.75362100  1
  Si  Si19  1  0.70439500  0.69119700  0.24637900  1
  Si  Si20  1  0.20439500  0.19119700  0.75362100  1
  Si  Si21  1  0.70439500  0.30880300  0.24637900  1
  Si  Si22  1  0.29560500  0.69119700  0.24637900  1
  Si  Si23  1  0.79560500  0.80880300  0.75362100  1
  Si  Si24  1  0.20488900  0.30482900  0.36147500  1
  Si  Si25  1  0.70488900  0.19517100  0.63852500  1
  Si  Si26  1  0.29511100  0.80482900  0.63852500  1
  Si  Si27  1  0.79511100  0.69517100  0.36147500  1
  Si  Si28  1  0.29511100  0.19517100  0.63852500  1
  Si  Si29  1  0.79511100  0.30482900  0.36147500  1
  Si  Si30  1  0.20488900  0.69517100  0.36147500  1
  Si  Si31  1  0.70488900  0.80482900  0.63852500  1
  Si  Si32  1  0.29573200  0.19614800  0.45251100  1
  Si  Si33  1  0.79573200  0.30385200  0.54748900  1
  Si  Si34  1  0.20426800  0.69614800  0.54748900  1
  Si  Si35  1  0.70426800  0.80385200  0.45251100  1
  Si  Si36  1  0.20426800  0.30385200  0.54748900  1
  Si  Si37  1  0.70426800  0.19614800  0.45251100  1
  Si  Si38  1  0.29573200  0.80385200  0.45251100  1
  Si  Si39  1  0.79573200  0.69614800  0.54748900  1
  Si  Si40  1  0.00000000  0.41523300  0.99580300  1
  Si  Si41  1  0.50000000  0.08476700  0.00419700  1
  Si  Si42  1  0.50000000  0.91523300  0.00419700  1
  Si  Si43  1  0.00000000  0.58476700  0.99580300  1
  Si  Si44  1  0.00000000  0.32894600  0.10206200  1
  Si  Si45  1  0.50000000  0.17105400  0.89793800  1
  Si  Si46  1  0.50000000  0.82894600  0.89793800  1
  Si  Si47  1  0.00000000  0.67105400  0.10206200  1
  Si  Si48  1  0.00000000  0.41296200  0.20416400  1
  Si  Si49  1  0.50000000  0.08703800  0.79583600  1
  Si  Si50  1  0.50000000  0.91296200  0.79583600  1
  Si  Si51  1  0.00000000  0.58703800  0.20416400  1
  Si  Si52  1  0.50000000  0.41442700  0.39706300  1
  Si  Si53  1  0.00000000  0.08557300  0.60293700  1
  Si  Si54  1  0.00000000  0.91442700  0.60293700  1
  Si  Si55  1  0.50000000  0.58557300  0.39706300  1
  Si  Si56  1  0.50000000  0.41462900  0.52073100  1
  Si  Si57  1  0.00000000  0.08537100  0.47926900  1
  Si  Si58  1  0.00000000  0.91462900  0.47926900  1
  Si  Si59  1  0.50000000  0.58537100  0.52073100  1
  O  O0  1  0.82563600  0.39895700  0.96169100  1
  O  O1  1  0.32563600  0.10104300  0.03830900  1
  O  O2  1  0.67436400  0.89895700  0.03830900  1
  O  O3  1  0.17436400  0.60104300  0.96169100  1
  O  O4  1  0.67436400  0.10104300  0.03830900  1
  O  O5  1  0.17436400  0.39895700  0.96169100  1
  O  O6  1  0.82563600  0.60104300  0.96169100  1
  O  O7  1  0.32563600  0.89895700  0.03830900  1
  O  O8  1  0.00000000  0.36113700  0.04466700  1
  O  O9  1  0.50000000  0.13886300  0.95533300  1
  O  O10  1  0.50000000  0.86113700  0.95533300  1
  O  O11  1  0.00000000  0.63886300  0.04466700  1
  O  O12  1  0.00000000  0.50000000  0.01500100  1
  O  O13  1  0.50000000  0.00000000  0.98499900  1
  O  O14  1  0.82562000  0.27880900  0.11014800  1
  O  O15  1  0.32562000  0.22119100  0.88985200  1
  O  O16  1  0.67438000  0.77880900  0.88985200  1
  O  O17  1  0.17438000  0.72119100  0.11014800  1
  O  O18  1  0.67438000  0.22119100  0.88985200  1
  O  O19  1  0.17438000  0.27880900  0.11014800  1
  O  O20  1  0.82562000  0.72119100  0.11014800  1
  O  O21  1  0.32562000  0.77880900  0.88985200  1
  O  O22  1  0.00000000  0.39635500  0.14290400  1
  O  O23  1  0.50000000  0.10364500  0.85709600  1
  O  O24  1  0.50000000  0.89635500  0.85709600  1
  O  O25  1  0.00000000  0.60364500  0.14290400  1
  O  O26  1  0.82452200  0.37820700  0.23010400  1
  O  O27  1  0.32452200  0.12179300  0.76989600  1
  O  O28  1  0.67547800  0.87820700  0.76989600  1
  O  O29  1  0.17547800  0.62179300  0.23010400  1
  O  O30  1  0.67547800  0.12179300  0.76989600  1
  O  O31  1  0.17547800  0.37820700  0.23010400  1
  O  O32  1  0.82452200  0.62179300  0.23010400  1
  O  O33  1  0.32452200  0.87820700  0.76989600  1
  O  O34  1  0.00000000  0.50000000  0.21411200  1
  O  O35  1  0.50000000  0.00000000  0.78588800  1
  O  O36  1  0.50000000  0.40667100  0.92974600  1
  O  O37  1  0.00000000  0.09332900  0.07025400  1
  O  O38  1  0.00000000  0.90667100  0.07025400  1
  O  O39  1  0.50000000  0.59332900  0.92974600  1
  O  O40  1  0.25247300  0.35989300  0.86599900  1
  O  O41  1  0.75247300  0.14010700  0.13400100  1
  O  O42  1  0.24752700  0.85989300  0.13400100  1
  O  O43  1  0.74752700  0.64010700  0.86599900  1
  O  O44  1  0.24752700  0.14010700  0.13400100  1
  O  O45  1  0.74752700  0.35989300  0.86599900  1
  O  O46  1  0.25247300  0.64010700  0.86599900  1
  O  O47  1  0.75247300  0.85989300  0.13400100  1
  O  O48  1  0.26287400  0.50000000  0.89256200  1
  O  O49  1  0.76287400  0.00000000  0.10743800  1
  O  O50  1  0.23712600  0.00000000  0.10743800  1
  O  O51  1  0.73712600  0.50000000  0.89256200  1
  O  O52  1  0.27052400  0.24254800  0.20516400  1
  O  O53  1  0.77052400  0.25745200  0.79483600  1
  O  O54  1  0.22947600  0.74254800  0.79483600  1
  O  O55  1  0.72947600  0.75745200  0.20516400  1
  O  O56  1  0.22947600  0.25745200  0.79483600  1
  O  O57  1  0.72947600  0.24254800  0.20516400  1
  O  O58  1  0.27052400  0.75745200  0.20516400  1
  O  O59  1  0.77052400  0.74254800  0.79483600  1
  O  O60  1  0.50000000  0.23998800  0.12807100  1
  O  O61  1  0.00000000  0.26001200  0.87192900  1
  O  O62  1  0.00000000  0.73998800  0.87192900  1
  O  O63  1  0.50000000  0.76001200  0.12807100  1
  O  O64  1  0.50000000  0.33456600  0.24799500  1
  O  O65  1  0.00000000  0.16543400  0.75200500  1
  O  O66  1  0.00000000  0.83456600  0.75200500  1
  O  O67  1  0.50000000  0.66543400  0.24799500  1
  O  O68  1  0.23553500  0.27936500  0.30236200  1
  O  O69  1  0.73553500  0.22063500  0.69763800  1
  O  O70  1  0.26446500  0.77936500  0.69763800  1
  O  O71  1  0.76446500  0.72063500  0.30236200  1
  O  O72  1  0.26446500  0.22063500  0.69763800  1
  O  O73  1  0.76446500  0.27936500  0.30236200  1
  O  O74  1  0.23553500  0.72063500  0.30236200  1
  O  O75  1  0.73553500  0.77936500  0.69763800  1
  O  O76  1  0.32489300  0.37611600  0.37378300  1
  O  O77  1  0.82489300  0.12388400  0.62621700  1
  O  O78  1  0.17510700  0.87611600  0.62621700  1
  O  O79  1  0.67510700  0.62388400  0.37378300  1
  O  O80  1  0.17510700  0.12388400  0.62621700  1
  O  O81  1  0.67510700  0.37611600  0.37378300  1
  O  O82  1  0.32489300  0.62388400  0.37378300  1
  O  O83  1  0.82489300  0.87611600  0.62621700  1
  O  O84  1  0.50000000  0.50000000  0.38080300  1
  O  O85  1  0.00000000  0.00000000  0.61919700  1
  O  O86  1  0.50000000  0.40602100  0.45871900  1
  O  O87  1  0.00000000  0.09397900  0.54128100  1
  O  O88  1  0.00000000  0.90602100  0.54128100  1
  O  O89  1  0.50000000  0.59397900  0.45871900  1
  O  O90  1  0.32529300  0.37635800  0.54432700  1
  O  O91  1  0.82529300  0.12364200  0.45567300  1
  O  O92  1  0.17470700  0.87635800  0.45567300  1
  O  O93  1  0.67470700  0.62364200  0.54432700  1
  O  O94  1  0.17470700  0.12364200  0.45567300  1
  O  O95  1  0.67470700  0.37635800  0.54432700  1
  O  O96  1  0.32529300  0.62364200  0.54432700  1
  O  O97  1  0.82529300  0.87635800  0.45567300  1
  O  O98  1  0.50000000  0.50000000  0.53683700  1
  O  O99  1  0.00000000  0.00000000  0.46316300  1
  O  O100  1  0.25958900  0.23761200  0.39851100  1
  O  O101  1  0.75958900  0.26238800  0.60148900  1
  O  O102  1  0.24041100  0.73761200  0.60148900  1
  O  O103  1  0.74041100  0.76238800  0.39851100  1
  O  O104  1  0.24041100  0.26238800  0.60148900  1
  O  O105  1  0.74041100  0.23761200  0.39851100  1
  O  O106  1  0.25958900  0.76238800  0.39851100  1
  O  O107  1  0.75958900  0.73761200  0.60148900  1
  O  O108  1  0.00000000  0.32607500  0.37029500  1
  O  O109  1  0.50000000  0.17392500  0.62970500  1
  O  O110  1  0.50000000  0.82607500  0.62970500  1
  O  O111  1  0.00000000  0.67392500  0.37029500  1
  O  O112  1  0.50000000  0.17161200  0.45556700  1
  O  O113  1  0.00000000  0.32838800  0.54443300  1
  O  O114  1  0.00000000  0.67161200  0.54443300  1
  O  O115  1  0.50000000  0.82838800  0.45556700  1
  O  O116  1  0.25000000  0.25000000  0.50000000  1
  O  O117  1  0.75000000  0.25000000  0.50000000  1
  O  O118  1  0.25000000  0.75000000  0.50000000  1
  O  O119  1  0.75000000  0.75000000  0.50000000  1
loop_
_geom_bond_atom_site_label_1
_geom_bond_atom_site_label_2
_geom_bond_distance
_geom_bond_site_symmetry_2
O0 Si5 1.620853 1_555
O0 Si40 1.628191 1_655
O1 Si4 1.620853 1_555
O1 Si41 1.628191 1_555
O2 Si7 1.620853 1_555
O2 Si42 1.628191 1_555
O3 Si6 1.620853 1_555
O3 Si43 1.628191 1_555
O4 Si1 1.620853 1_555
O4 Si41 1.628191 1_555
O5 Si0 1.620853 1_555
O5 Si40 1.628191 1_555
O6 Si3 1.620853 1_555
O6 Si43 1.628191 1_655
O7 Si2 1.620853 1_555
O7 Si42 1.628191 1_555
O8 Si44 1.610167 1_555
O8 Si40 1.614195 1_554
O9 Si45 1.610167 1_555
O9 Si41 1.614195 1_556
O10 Si46 1.610167 1_555
O10 Si42 1.614195 1_556
O11 Si47 1.610167 1_555
O11 Si43 1.614195 1_554
O12 Si43 1.628167 1_554
O12 Si40 1.628167 1_554
O13 Si41 1.628167 1_556
O13 Si42 1.628167 1_546
O14 Si13 1.620926 1_555
O14 Si44 1.628905 1_655
O15 Si12 1.620926 1_555
O15 Si45 1.628905 1_555
O16 Si15 1.620926 1_555
O16 Si46 1.628905 1_555
O17 Si14 1.620926 1_555
O17 Si47 1.628905 1_555
O18 Si9 1.620926 1_555
O18 Si45 1.628905 1_555
O19 Si8 1.620926 1_555
O19 Si44 1.628905 1_555
O20 Si11 1.620926 1_555
O20 Si47 1.628905 1_655
O21 Si10 1.620926 1_555
O21 Si46 1.628905 1_555
O22 Si48 1.628324 1_555
O22 Si44 1.629433 1_555
O23 Si49 1.628324 1_555
O23 Si45 1.629433 1_555
O24 Si50 1.628324 1_555
O24 Si46 1.629433 1_555
O25 Si51 1.628324 1_555
O25 Si47 1.629433 1_555
O26 Si21 1.621380 1_555
O26 Si48 1.629084 1_655
O27 Si20 1.621380 1_555
O27 Si49 1.629084 1_555
O28 Si23 1.621380 1_555
O28 Si50 1.629084 1_555
O29 Si22 1.621380 1_555
O29 Si51 1.629084 1_555
O30 Si17 1.621380 1_555
O30 Si49 1.629084 1_555
O31 Si16 1.621380 1_555
O31 Si48 1.629084 1_555
O32 Si19 1.621380 1_555
O32 Si51 1.629084 1_655
O33 Si18 1.621380 1_555
O33 Si50 1.629084 1_555
O34 Si51 1.611633 1_555
O34 Si48 1.611633 1_555
O35 Si49 1.611633 1_555
O35 Si50 1.611633 1_545
O36 Si5 1.624755 1_555
O36 Si0 1.624755 1_555
O37 Si4 1.624755 1_555
O37 Si1 1.624755 1_455
O38 Si2 1.624755 1_555
O38 Si7 1.624755 1_455
O39 Si3 1.624755 1_555
O39 Si6 1.624755 1_555
O40 Si12 1.626229 1_555
O40 Si0 1.628894 1_555
O41 Si13 1.626229 1_555
O41 Si1 1.628894 1_555
O42 Si14 1.626229 1_555
O42 Si2 1.628894 1_555
O43 Si15 1.626229 1_555
O43 Si3 1.628894 1_555
O44 Si8 1.626229 1_555
O44 Si4 1.628894 1_555
O45 Si9 1.626229 1_555
O45 Si5 1.628894 1_555
O46 Si10 1.626229 1_555
O46 Si6 1.628894 1_555
O47 Si11 1.626229 1_555
O47 Si7 1.628894 1_555
O48 Si0 1.633411 1_555
O48 Si6 1.633411 1_555
O49 Si1 1.633411 1_555
O49 Si7 1.633411 1_545
O50 Si4 1.633411 1_555
O50 Si2 1.633411 1_545
O51 Si3 1.633411 1_555
O51 Si5 1.633411 1_555
O52 Si16 1.631262 1_555
O52 Si8 1.632624 1_555
O53 Si17 1.631262 1_555
O53 Si9 1.632624 1_555
O54 Si18 1.631262 1_555
O54 Si10 1.632624 1_555
O55 Si19 1.631262 1_555
O55 Si11 1.632624 1_555
O56 Si20 1.631262 1_555
O56 Si12 1.632624 1_555
O57 Si21 1.631262 1_555
O57 Si13 1.632624 1_555
O58 Si22 1.631262 1_555
O58 Si14 1.632624 1_555
O59 Si23 1.631262 1_555
O59 Si15 1.632624 1_555
O60 Si13 1.625796 1_555
O60 Si8 1.625796 1_555
O61 Si12 1.625796 1_555
O61 Si9 1.625796 1_455
O62 Si10 1.625796 1_555
O62 Si15 1.625796 1_455
O63 Si11 1.625796 1_555
O63 Si14 1.625796 1_555
O64 Si21 1.629176 1_555
O64 Si16 1.629176 1_555
O65 Si20 1.629176 1_555
O65 Si17 1.629176 1_455
O66 Si18 1.629176 1_555
O66 Si23 1.629176 1_455
O67 Si19 1.629176 1_555
O67 Si22 1.629176 1_555
O68 Si16 1.623808 1_555
O68 Si24 1.629193 1_555
O69 Si17 1.623808 1_555
O69 Si25 1.629193 1_555
O70 Si18 1.623808 1_555
O70 Si26 1.629193 1_555
O71 Si19 1.623808 1_555
O71 Si27 1.629193 1_555
O72 Si20 1.623808 1_555
O72 Si28 1.629193 1_555
O73 Si21 1.623808 1_555
O73 Si29 1.629193 1_555
O74 Si22 1.623808 1_555
O74 Si30 1.629193 1_555
O75 Si23 1.623808 1_555
O75 Si31 1.629193 1_555
O76 Si24 1.624283 1_555
O76 Si52 1.625985 1_555
O77 Si25 1.624283 1_555
O77 Si53 1.625985 1_655
O78 Si26 1.624283 1_555
O78 Si54 1.625985 1_555
O79 Si27 1.624283 1_555
O79 Si55 1.625985 1_555
O80 Si28 1.624283 1_555
O80 Si53 1.625985 1_555
O81 Si29 1.624283 1_555
O81 Si52 1.625985 1_555
O82 Si30 1.624283 1_555
O82 Si55 1.625985 1_555
O83 Si31 1.624283 1_555
O83 Si54 1.625985 1_655
O84 Si55 1.620411 1_555
O84 Si52 1.620411 1_555
O85 Si53 1.620411 1_555
O85 Si54 1.620411 1_545
O86 Si52 1.617446 1_555
O86 Si56 1.627054 1_555
O87 Si53 1.617446 1_555
O87 Si57 1.627054 1_555
O88 Si54 1.617446 1_555
O88 Si58 1.627054 1_555
O89 Si55 1.617446 1_555
O89 Si59 1.627054 1_555
O90 Si36 1.616990 1_555
O90 Si56 1.626273 1_555
O91 Si37 1.616990 1_555
O91 Si57 1.626273 1_655
O92 Si38 1.616990 1_555
O92 Si58 1.626273 1_555
O93 Si39 1.616990 1_555
O93 Si59 1.626273 1_555
O94 Si32 1.616990 1_555
O94 Si57 1.626273 1_555
O95 Si33 1.616990 1_555
O95 Si56 1.626273 1_555
O96 Si34 1.616990 1_555
O96 Si59 1.626273 1_555
O97 Si35 1.616990 1_555
O97 Si58 1.626273 1_655
O98 Si59 1.615797 1_555
O98 Si56 1.615797 1_555
O99 Si57 1.615797 1_555
O99 Si58 1.615797 1_545
O100 Si24 1.618138 1_555
O100 Si32 1.624443 1_555
O101 Si25 1.618138 1_555
O101 Si33 1.624443 1_555
O102 Si26 1.618138 1_555
O102 Si34 1.624443 1_555
O103 Si27 1.618138 1_555
O103 Si35 1.624443 1_555
O104 Si28 1.618138 1_555
O104 Si36 1.624443 1_555
O105 Si29 1.618138 1_555
O105 Si37 1.624443 1_555
O106 Si30 1.618138 1_555
O106 Si38 1.624443 1_555
O107 Si31 1.618138 1_555
O107 Si39 1.624443 1_555
O108 Si29 1.626757 1_455
O108 Si24 1.626757 1_555
O109 Si28 1.626757 1_555
O109 Si25 1.626757 1_555
O110 Si26 1.626757 1_555
O110 Si31 1.626757 1_555
O111 Si30 1.626757 1_555
O111 Si27 1.626757 1_455
O112 Si37 1.623321 1_555
O112 Si32 1.623321 1_555
O113 Si36 1.623321 1_555
O113 Si33 1.623321 1_455
O114 Si34 1.623321 1_555
O114 Si39 1.623321 1_455
O115 Si35 1.623321 1_555
O115 Si38 1.623321 1_555
O116 Si32 1.621162 1_555
O116 Si36 1.621162 1_555
O117 Si33 1.621162 1_555
O117 Si37 1.621162 1_555
O118 Si38 1.621162 1_555
O118 Si34 1.621162 1_555
O119 Si35 1.621162 1_555
O119 Si39 1.621162 1_555
