# generated using pymatgen
data_LiAlSiO4
_symmetry_space_group_name_H-M   'P 1'
_cell_length_a   5.29181592
_cell_length_b   5.29181592
_cell_length_c   11.44996300
_cell_angle_alpha   90.00000000
_cell_angle_beta   90.00000000
_cell_angle_gamma   119.99999905
_symmetry_Int_Tables_number   1
_chemical_formula_structural   LiAlSiO4
_chemical_formula_sum   'Li3 Al3 Si3 O12'
_cell_volume   277.67972896
_cell_formula_units_Z   3
loop_
 _symmetry_equiv_pos_site_id
 _symmetry_equiv_pos_as_xyz
  1  'x, y, z'
loop_
 _atom_site_type_symbol
 _atom_site_label
 _atom_site_symmetry_multiplicity
 _atom_site_fract_x
 _atom_site_fract_y
 _atom_site_fract_z
 _atom_site_occupancy
  Li  Li0  1  0.00000000  0.00000000  0.00000000  1
  Li  Li1  1  0.00000000  0.00000000  0.66666700  1
  Li  Li2  1  0.00000000  0.00000000  0.33333300  1
  Al  Al0  1  0.50000000  0.00000000  0.50000000  1
  Al  Al1  1  0.00000000  0.50000000  0.83333300  1
  Al  Al2  1  0.50000000  0.50000000  0.16666700  1
  Si  Si0  1  0.50000000  0.50000000  0.66666700  1
  Si  Si1  1  0.00000000  0.50000000  0.33333300  1
  Si  Si2  1  0.50000000  0.00000000  0.00000000  1
  O  O0  1  0.39960400  0.20569200  0.58882600  1
  O  O1  1  0.20569200  0.80608800  0.92215900  1
  O  O2  1  0.19391200  0.39960400  0.25549300  1
  O  O3  1  0.60039600  0.79430800  0.58882600  1
  O  O4  1  0.80608800  0.20569200  0.41117400  1
  O  O5  1  0.79430800  0.60039600  0.74450700  1
  O  O6  1  0.20569200  0.39960400  0.74450700  1
  O  O7  1  0.60039600  0.80608800  0.07784100  1
  O  O8  1  0.39960400  0.19391200  0.07784100  1
  O  O9  1  0.80608800  0.60039600  0.25549300  1
  O  O10  1  0.19391200  0.79430800  0.41117400  1
  O  O11  1  0.79430800  0.19391200  0.92215900  1
loop_
_geom_bond_atom_site_label_1
_geom_bond_atom_site_label_2
_geom_bond_distance
_geom_bond_site_symmetry_2
Li0 O1 2.036932 1_544
Li0 O11 2.036932 1_454
Li0 O7 2.036932 1_445
Li0 O8 2.036932 1_555
Li1 O5 2.036927 1_445
Li1 O6 2.036927 1_555
Li1 O3 2.036932 1_445
Li1 O0 2.036932 1_555
Li2 O2 2.036927 1_555
Li2 O9 2.036927 1_445
Li2 O4 2.036932 1_455
Li2 O10 2.036932 1_545
Al0 O0 1.754919 1_555
Al0 O3 1.754919 1_545
Al0 O10 1.754919 1_545
Al0 O4 1.754919 1_555
Al1 O5 1.754919 1_455
Al1 O6 1.754919 1_555
Al1 O11 1.754919 1_455
Al1 O1 1.754919 1_555
Al2 O9 1.754919 1_555
Al2 O7 1.754919 1_555
Al2 O8 1.754919 1_555
Al2 O2 1.754919 1_555
O0 Si0 1.635474 1_555
O1 Si2 1.635474 1_566
O2 Si1 1.635468 1_555
O3 Si0 1.635474 1_555
O4 Si1 1.635474 1_655
O5 Si0 1.635468 1_555
O6 Si0 1.635468 1_555
O7 Si2 1.635474 1_565
O8 Si2 1.635474 1_555
O9 Si1 1.635468 1_655
O10 Si1 1.635474 1_555
O11 Si2 1.635474 1_556
