# generated using pymatgen
data_BeSbAs2
_symmetry_space_group_name_H-M   'P 1'
_cell_length_a   4.78051419
_cell_length_b   4.78051419
_cell_length_c   4.78051419
_cell_angle_alpha   60.00000000
_cell_angle_beta   60.00000000
_cell_angle_gamma   60.00000000
_symmetry_Int_Tables_number   1
_chemical_formula_structural   BeSbAs2
_chemical_formula_sum   'Be1 Sb1 As2'
_cell_volume   77.25184076
_cell_formula_units_Z   1
loop_
 _symmetry_equiv_pos_site_id
 _symmetry_equiv_pos_as_xyz
  1  'x, y, z'
loop_
 _atom_site_type_symbol
 _atom_site_label
 _atom_site_symmetry_multiplicity
 _atom_site_fract_x
 _atom_site_fract_y
 _atom_site_fract_z
 _atom_site_occupancy
  Be  Be0  1  0.00000000  0.00000000  0.00000000  1
  Sb  Sb0  1  0.50000000  0.50000000  0.50000000  1
  As  As0  1  0.75000000  0.75000000  0.75000000  1
  As  As1  1  0.25000000  0.25000000  0.25000000  1
loop_
_geom_bond_atom_site_label_1
_geom_bond_atom_site_label_2
_geom_bond_distance
_geom_bond_site_symmetry_2
As0 Be0 2.927455 1_656
As0 Be0 2.927455 1_665
As0 Be0 2.927455 1_666
As0 Sb0 2.927455 1_565
As0 Sb0 2.927455 1_555
As0 Sb0 2.927455 1_556
As0 Sb0 2.927455 1_655
As0 Be0 2.927455 1_566
As1 Sb0 2.927455 1_554
As1 Be0 2.927455 1_555
As1 Sb0 2.927455 1_545
As1 Sb0 2.927455 1_555
As1 Be0 2.927455 1_556
As1 Be0 2.927455 1_565
As1 Be0 2.927455 1_655
As1 Sb0 2.927455 1_455
