# generated using pymatgen
data_Li17Nb20O60
_symmetry_space_group_name_H-M   'P 1'
_cell_length_a   5.60006731
_cell_length_b   5.60818449
_cell_length_c   56.01695280
_cell_angle_alpha   55.86178607
_cell_angle_beta   55.91010833
_cell_angle_gamma   55.95647770
_symmetry_Int_Tables_number   1
_chemical_formula_structural   Li17Nb20O60
_chemical_formula_sum   'Li17 Nb20 O60'
_cell_volume   1126.06057311
_cell_formula_units_Z   1
loop_
 _symmetry_equiv_pos_site_id
 _symmetry_equiv_pos_as_xyz
  1  'x, y, z'
loop_
 _atom_site_type_symbol
 _atom_site_label
 _atom_site_symmetry_multiplicity
 _atom_site_fract_x
 _atom_site_fract_y
 _atom_site_fract_z
 _atom_site_occupancy
  Li  Li0  1  0.29488940  0.29487715  0.02896185  1
  Li  Li1  1  0.29161031  0.29180435  0.13030489  1
  Li  Li2  1  0.79494578  0.79638361  0.17905384  1
  Li  Li3  1  0.29550908  0.29512570  0.32900151  1
  Li  Li4  1  0.79298930  0.79532202  0.27991361  1
  Li  Li5  1  0.29409058  0.29473123  0.42941158  1
  Li  Li6  1  0.79503514  0.79427603  0.37904584  1
  Li  Li7  1  0.29382628  0.29504422  0.52946953  1
  Li  Li8  1  0.79504365  0.79385571  0.47944240  1
  Li  Li9  1  0.29326050  0.29510471  0.62955595  1
  Li  Li10  1  0.79507552  0.79345110  0.57952188  1
  Li  Li11  1  0.29193366  0.29532185  0.72969182  1
  Li  Li12  1  0.79522611  0.79263925  0.67962153  1
  Li  Li13  1  0.28958745  0.29563258  0.82986730  1
  Li  Li14  1  0.79519744  0.79058167  0.77992785  1
  Li  Li15  1  0.79670691  0.79802444  0.87899311  1
  Li  Li16  1  0.79153218  0.79249231  0.97980056  1
  Nb  Nb0  1  0.02314468  0.01614329  0.00005753  1
  Nb  Nb1  1  0.00845057  0.01694258  0.10126705  1
  Nb  Nb2  1  0.50541503  0.51485116  0.05326595  1
  Nb  Nb3  1  0.01423878  0.00874918  0.20322447  1
  Nb  Nb4  1  0.51451865  0.52251925  0.15062110  1
  Nb  Nb5  1  0.01889687  0.02404600  0.30067376  1
  Nb  Nb6  1  0.51682949  0.51121881  0.25111863  1
  Nb  Nb7  1  0.01556045  0.01539122  0.40177524  1
  Nb  Nb8  1  0.51532335  0.51551229  0.35169293  1
  Nb  Nb9  1  0.01590873  0.01653868  0.50182273  1
  Nb  Nb10  1  0.51582116  0.51659507  0.45176635  1
  Nb  Nb11  1  0.01627060  0.01641246  0.60181631  1
  Nb  Nb12  1  0.51599966  0.51722553  0.55176037  1
  Nb  Nb13  1  0.01595197  0.01585939  0.70186378  1
  Nb  Nb14  1  0.51555267  0.51723188  0.65179747  1
  Nb  Nb15  1  0.01672448  0.01395611  0.80180232  1
  Nb  Nb16  1  0.51452760  0.51700429  0.75181267  1
  Nb  Nb17  1  0.01647791  0.01668957  0.90204277  1
  Nb  Nb18  1  0.51553549  0.51601518  0.85183153  1
  Nb  Nb19  1  0.52521793  0.50875907  0.95019210  1
  O  O0  1  0.16262818  0.34523060  0.07305285  1
  O  O1  1  0.37005456  0.74855524  0.01312712  1
  O  O2  1  0.73580625  0.16645098  0.03399451  1
  O  O3  1  0.24368233  0.87960900  0.06263582  1
  O  O4  1  0.62106280  0.25007945  0.08863580  1
  O  O5  1  0.12843193  0.37096085  0.17503079  1
  O  O6  1  0.86948778  0.62904716  0.02507802  1
  O  O7  1  0.34415844  0.72608462  0.11621432  1
  O  O8  1  0.73434984  0.13339822  0.13702996  1
  O  O9  1  0.24849172  0.86953582  0.16326958  1
  O  O10  1  0.66567593  0.23415505  0.18419990  1
  O  O11  1  0.12311781  0.38272921  0.27451759  1
  O  O12  1  0.87689933  0.62705352  0.12411724  1
  O  O13  1  0.38144451  0.74521799  0.21247606  1
  O  O14  1  0.75045570  0.12199164  0.23860301  1
  O  O15  1  0.23003557  0.84463896  0.26622308  1
  O  O16  1  0.63799521  0.23443213  0.28689761  1
  O  O17  1  0.12497961  0.37387147  0.37380452  1
  O  O18  1  0.84796604  0.66166475  0.22311002  1
  O  O19  1  0.37398272  0.74156148  0.31268165  1
  O  O20  1  0.73324638  0.12969717  0.33726691  1
  O  O21  1  0.23527622  0.87385981  0.36279933  1
  O  O22  1  0.62625800  0.23527688  0.38763215  1
  O  O23  1  0.12667587  0.37447052  0.47375535  1
  O  O24  1  0.87156890  0.62638344  0.32465723  1
  O  O25  1  0.37465793  0.73642303  0.41269089  1
  O  O26  1  0.73848265  0.12570313  0.43753022  1
  O  O27  1  0.23768604  0.87400070  0.46266316  1
  O  O28  1  0.62591185  0.23825157  0.48757292  1
  O  O29  1  0.12706762  0.37432246  0.57372883  1
  O  O30  1  0.87492791  0.62563295  0.42382758  1
  O  O31  1  0.37478938  0.73710285  0.51266242  1
  O  O32  1  0.73913901  0.12567567  0.53757340  1
  O  O33  1  0.23768107  0.87443813  0.56263512  1
  O  O34  1  0.62586197  0.23868912  0.58759827  1
  O  O35  1  0.12743267  0.37388011  0.67369166  1
  O  O36  1  0.87472110  0.62673817  0.52375224  1
  O  O37  1  0.37500872  0.73715672  0.61261306  1
  O  O38  1  0.73947033  0.12555761  0.63757990  1
  O  O39  1  0.23757147  0.87476534  0.66257303  1
  O  O40  1  0.62552940  0.23921105  0.68759280  1
  O  O41  1  0.12836880  0.37338385  0.77355302  1
  O  O42  1  0.87448654  0.62713974  0.62371490  1
  O  O43  1  0.37536396  0.73709974  0.71250698  1
  O  O44  1  0.73985522  0.12534038  0.73759269  1
  O  O45  1  0.23713578  0.87615015  0.76238874  1
  O  O46  1  0.62422870  0.24153486  0.78752585  1
  O  O47  1  0.12908707  0.37789292  0.87328847  1
  O  O48  1  0.87356902  0.62785525  0.72365202  1
  O  O49  1  0.37701800  0.73771521  0.81223990  1
  O  O50  1  0.73948673  0.12513708  0.83734367  1
  O  O51  1  0.24579742  0.87188452  0.86294826  1
  O  O52  1  0.65735623  0.23908166  0.88477930  1
  O  O53  1  0.12677901  0.37744428  0.97386706  1
  O  O54  1  0.87368891  0.63386073  0.82277690  1
  O  O55  1  0.37885110  0.74885416  0.91226242  1
  O  O56  1  0.75315566  0.12400765  0.93806854  1
  O  O57  1  0.22714582  0.83944295  0.96636496  1
  O  O58  1  0.63449909  0.23373327  0.98682884  1
  O  O59  1  0.84813080  0.66310811  0.92306143  1
loop_
_geom_bond_atom_site_label_1
_geom_bond_atom_site_label_2
_geom_bond_distance
_geom_bond_site_symmetry_2
Li0 O3 2.067583 1_545
Li0 O6 2.087915 1_455
Li0 O58 2.109837 1_554
Li0 O0 2.286140 1_555
Li0 O2 2.292650 1_555
Li0 O1 2.384329 1_555
Li1 O4 2.051632 1_555
Li1 O9 2.075714 1_545
Li1 O12 2.081035 1_455
Li1 O7 2.241834 1_555
Li1 O8 2.298624 1_555
Li1 O5 2.353053 1_555
Li2 O13 2.056890 1_555
Li2 O5 2.091338 1_655
Li2 O8 2.100610 1_565
Li2 O10 2.281481 1_565
Li2 O18 2.286257 1_555
Li2 O9 2.375545 1_655
Li3 O24 2.085388 1_455
Li3 O21 2.106147 1_545
Li3 O16 2.111003 1_555
Li3 O20 2.308263 1_555
Li3 O17 2.343253 1_555
Li3 O19 2.347326 1_555
Li4 O14 2.034470 1_565
Li4 O11 2.057257 1_655
Li4 O19 2.075780 1_555
Li4 O15 2.251801 1_655
Li4 O16 2.297464 1_565
Li4 O24 2.340435 1_555
Li5 O30 2.084697 1_455
Li5 O22 2.085642 1_555
Li5 O27 2.092541 1_545
Li5 O25 2.321714 1_555
Li5 O23 2.327226 1_555
Li5 O26 2.332852 1_555
Li6 O17 2.085728 1_655
Li6 O20 2.091230 1_565
Li6 O25 2.096318 1_555
Li6 O21 2.316571 1_655
Li6 O22 2.334466 1_565
Li6 O30 2.347102 1_555
Li7 O28 2.085939 1_555
Li7 O36 2.087358 1_455
Li7 O33 2.090803 1_545
Li7 O29 2.322385 1_555
Li7 O31 2.323450 1_555
Li7 O32 2.336702 1_555
Li8 O26 2.084586 1_565
Li8 O31 2.089852 1_555
Li8 O23 2.090338 1_655
Li8 O27 2.321973 1_655
Li8 O36 2.323922 1_555
Li8 O28 2.337376 1_565
Li9 O39 2.087594 1_545
Li9 O34 2.088277 1_555
Li9 O42 2.088347 1_455
Li9 O35 2.315799 1_555
Li9 O37 2.323605 1_555
Li9 O38 2.338645 1_555
Li10 O32 2.085415 1_565
Li10 O37 2.087128 1_555
Li10 O29 2.091363 1_655
Li10 O42 2.318240 1_555
Li10 O33 2.322626 1_655
Li10 O34 2.340005 1_565
Li11 O45 2.078490 1_545
Li11 O48 2.090404 1_455
Li11 O40 2.094401 1_555
Li11 O41 2.302793 1_555
Li11 O43 2.323427 1_555
Li11 O44 2.343137 1_555
Li12 O43 2.083149 1_555
Li12 O38 2.089521 1_565
Li12 O35 2.092306 1_655
Li12 O48 2.308825 1_555
Li12 O39 2.322140 1_655
Li12 O40 2.342968 1_565
Li13 O51 2.083743 1_545
Li13 O46 2.101915 1_555
Li13 O54 2.103625 1_455
Li13 O47 2.298118 1_555
Li13 O49 2.330457 1_555
Li13 O50 2.339544 1_555
Li14 O49 2.066818 1_555
Li14 O41 2.094311 1_655
Li14 O44 2.102368 1_565
Li14 O54 2.260384 1_555
Li14 O45 2.322815 1_655
Li14 O46 2.352457 1_565
Li15 O55 2.069300 1_555
Li15 O50 2.070596 1_565
Li15 O47 2.094330 1_655
Li15 O59 2.281627 1_555
Li15 O52 2.299451 1_565
Li15 O51 2.349247 1_655
Li16 O56 2.050685 1_565
Li16 O1 2.076613 1_556
Li16 O53 2.080668 1_655
Li16 O57 2.241740 1_655
Li16 O58 2.306658 1_565
Li16 O6 2.376431 1_556
Nb0 O53 1.902771 1_554
Nb0 O1 1.912910 1_545
Nb0 O2 1.940261 1_455
Nb0 O57 2.064917 1_544
Nb0 O58 2.143474 1_454
Nb0 O6 2.177664 1_445
Nb1 O0 1.901897 1_555
Nb1 O7 1.922055 1_545
Nb1 O8 1.922235 1_455
Nb1 O4 2.103089 1_455
Nb1 O3 2.133204 1_545
Nb1 O12 2.137144 1_445
Nb2 O3 1.895804 1_555
Nb2 O4 1.899876 1_555
Nb2 O6 1.943806 1_555
Nb2 O0 2.072299 1_555
Nb2 O2 2.152037 1_555
Nb2 O1 2.199678 1_555
Nb3 O14 1.895660 1_455
Nb3 O13 1.900977 1_545
Nb3 O5 1.936778 1_555
Nb3 O18 2.080806 1_445
Nb3 O10 2.144998 1_455
Nb3 O9 2.205218 1_545
Nb4 O9 1.904489 1_555
Nb4 O12 1.908904 1_555
Nb4 O10 1.925594 1_555
Nb4 O7 2.073732 1_555
Nb4 O8 2.159536 1_555
Nb4 O5 2.169317 1_555
Nb5 O11 1.892532 1_555
Nb5 O19 1.921607 1_545
Nb5 O20 1.933398 1_455
Nb5 O15 2.103341 1_545
Nb5 O16 2.131443 1_455
Nb5 O24 2.216757 1_445
Nb6 O18 1.901792 1_555
Nb6 O15 1.918793 1_555
Nb6 O16 1.933966 1_555
Nb6 O14 2.111863 1_555
Nb6 O13 2.126036 1_555
Nb6 O11 2.139550 1_555
Nb7 O26 1.906323 1_455
Nb7 O17 1.907821 1_555
Nb7 O25 1.909883 1_545
Nb7 O30 2.174930 1_445
Nb7 O22 2.175043 1_455
Nb7 O21 2.179672 1_545
Nb8 O24 1.898764 1_555
Nb8 O21 1.914715 1_555
Nb8 O22 1.914822 1_555
Nb8 O19 2.171456 1_555
Nb8 O20 2.173601 1_555
Nb8 O17 2.179050 1_555
Nb9 O32 1.903046 1_455
Nb9 O31 1.907168 1_545
Nb9 O23 1.909128 1_555
Nb9 O36 2.178411 1_445
Nb9 O28 2.180109 1_455
Nb9 O27 2.189957 1_545
Nb10 O27 1.904773 1_555
Nb10 O28 1.906417 1_555
Nb10 O30 1.908433 1_555
Nb10 O23 2.176105 1_555
Nb10 O25 2.180775 1_555
Nb10 O26 2.187099 1_555
Nb11 O38 1.903637 1_455
Nb11 O37 1.905422 1_545
Nb11 O29 1.909167 1_555
Nb11 O42 2.178163 1_445
Nb11 O34 2.180458 1_455
Nb11 O33 2.189515 1_545
Nb12 O33 1.903428 1_555
Nb12 O34 1.907246 1_555
Nb12 O36 1.908160 1_555
Nb12 O29 2.177938 1_555
Nb12 O31 2.182000 1_555
Nb12 O32 2.188182 1_555
Nb13 O44 1.902817 1_455
Nb13 O43 1.904352 1_545
Nb13 O35 1.911624 1_555
Nb13 O48 2.175142 1_445
Nb13 O40 2.181158 1_455
Nb13 O39 2.191737 1_545
Nb14 O39 1.902219 1_555
Nb14 O40 1.905554 1_555
Nb14 O42 1.910292 1_555
Nb14 O35 2.176275 1_555
Nb14 O37 2.183988 1_555
Nb14 O38 2.188996 1_555
Nb15 O50 1.899320 1_455
Nb15 O49 1.902336 1_545
Nb15 O41 1.918343 1_555
Nb15 O54 2.147488 1_445
Nb15 O46 2.187150 1_455
Nb15 O45 2.188040 1_545
Nb16 O46 1.900650 1_555
Nb16 O45 1.904046 1_555
Nb16 O48 1.913368 1_555
Nb16 O41 2.169189 1_555
Nb16 O43 2.185157 1_555
Nb16 O44 2.187517 1_555
Nb17 O55 1.904294 1_545
Nb17 O56 1.908641 1_455
Nb17 O47 1.930036 1_555
Nb17 O59 2.106064 1_445
Nb17 O52 2.133845 1_455
Nb17 O51 2.186414 1_545
Nb18 O52 1.869247 1_555
Nb18 O51 1.902032 1_555
Nb18 O54 1.930297 1_555
Nb18 O47 2.155054 1_555
Nb18 O50 2.194206 1_555
Nb18 O49 2.195441 1_555
Nb19 O59 1.877335 1_555
Nb19 O58 1.939998 1_555
Nb19 O57 1.941879 1_555
Nb19 O56 2.082213 1_555
Nb19 O55 2.122443 1_555
Nb19 O53 2.169389 1_555
