# generated using pymatgen
data_Gd
_symmetry_space_group_name_H-M   'P 1'
_cell_length_a   7.31380108
_cell_length_b   7.31380069
_cell_length_c   7.31380070
_cell_angle_alpha   59.99999987
_cell_angle_beta   60.00000164
_cell_angle_gamma   59.99999938
_symmetry_Int_Tables_number   1
_chemical_formula_structural   Gd
_chemical_formula_sum   Gd8
_cell_volume   276.63962830
_cell_formula_units_Z   8
loop_
 _symmetry_equiv_pos_site_id
 _symmetry_equiv_pos_as_xyz
  1  'x, y, z'
loop_
 _atom_site_type_symbol
 _atom_site_label
 _atom_site_symmetry_multiplicity
 _atom_site_fract_x
 _atom_site_fract_y
 _atom_site_fract_z
 _atom_site_occupancy
  Gd  Gd0_0  1  0.00000000  0.00000000  0.00000000  1
  Gd  Gd0_1  1  0.00000000  0.00000000  0.50000000  1
  Gd  Gd0_2  1  0.00000000  0.50000000  0.00000000  1
  Gd  Gd0_3  1  0.00000000  0.50000000  0.50000000  1
  Gd  Gd0_4  1  0.50000000  0.00000000  0.00000000  1
  Gd  Gd0_5  1  0.50000000  0.00000000  0.50000000  1
  Gd  Gd0_6  1  0.50000000  0.50000000  0.00000000  1
  Gd  Gd0_7  1  0.50000000  0.50000000  0.50000000  1
loop_
_geom_bond_atom_site_label_1
_geom_bond_atom_site_label_2
_geom_bond_distance
_geom_bond_site_symmetry_2
Gd0_0 Gd0_3 3.656900 1_554
Gd0_0 Gd0_3 3.656900 1_545
Gd0_0 Gd0_2 3.656900 1_555
Gd0_0 Gd0_2 3.656900 1_545
Gd0_0 Gd0_1 3.656900 1_554
Gd0_0 Gd0_1 3.656900 1_555
Gd0_0 Gd0_6 3.656900 1_545
Gd0_0 Gd0_6 3.656900 1_455
Gd0_0 Gd0_5 3.656901 1_554
Gd0_0 Gd0_5 3.656901 1_455
Gd0_0 Gd0_4 3.656901 1_555
Gd0_0 Gd0_4 3.656901 1_455
Gd0_1 Gd0_2 3.656900 1_546
Gd0_1 Gd0_2 3.656900 1_555
Gd0_1 Gd0_3 3.656900 1_555
Gd0_1 Gd0_3 3.656900 1_545
Gd0_1 Gd0_7 3.656900 1_545
Gd0_1 Gd0_7 3.656900 1_455
Gd0_1 Gd0_4 3.656901 1_555
Gd0_1 Gd0_4 3.656901 1_456
Gd0_1 Gd0_5 3.656901 1_455
Gd0_1 Gd0_5 3.656901 1_555
Gd0_2 Gd0_3 3.656900 1_555
Gd0_2 Gd0_3 3.656900 1_554
Gd0_2 Gd0_4 3.656900 1_555
Gd0_2 Gd0_4 3.656900 1_465
Gd0_2 Gd0_7 3.656901 1_554
Gd0_2 Gd0_7 3.656901 1_455
Gd0_2 Gd0_6 3.656901 1_555
Gd0_2 Gd0_6 3.656901 1_455
Gd0_3 Gd0_5 3.656900 1_465
Gd0_3 Gd0_5 3.656900 1_555
Gd0_3 Gd0_6 3.656901 1_555
Gd0_3 Gd0_6 3.656901 1_456
Gd0_3 Gd0_7 3.656901 1_555
Gd0_3 Gd0_7 3.656901 1_455
Gd0_4 Gd0_7 3.656900 1_554
Gd0_4 Gd0_7 3.656900 1_545
Gd0_4 Gd0_6 3.656900 1_555
Gd0_4 Gd0_6 3.656900 1_545
Gd0_4 Gd0_5 3.656900 1_554
Gd0_4 Gd0_5 3.656900 1_555
Gd0_5 Gd0_6 3.656900 1_546
Gd0_5 Gd0_6 3.656900 1_555
Gd0_5 Gd0_7 3.656900 1_555
Gd0_5 Gd0_7 3.656900 1_545
Gd0_6 Gd0_7 3.656900 1_554
Gd0_6 Gd0_7 3.656900 1_555
