# generated using pymatgen
data_Ca5Si2C2O13
_symmetry_space_group_name_H-M   'P 1'
_cell_length_a   10.37751900
_cell_length_b   7.62869400
_cell_length_c   15.31818827
_cell_angle_alpha   74.76881241
_cell_angle_beta   90.00000000
_cell_angle_gamma   90.00000000
_symmetry_Int_Tables_number   1
_chemical_formula_structural   Ca5Si2C2O13
_chemical_formula_sum   'Ca20 Si8 C8 O52'
_cell_volume   1170.09621559
_cell_formula_units_Z   4
loop_
 _symmetry_equiv_pos_site_id
 _symmetry_equiv_pos_as_xyz
  1  'x, y, z'
loop_
 _atom_site_type_symbol
 _atom_site_label
 _atom_site_symmetry_multiplicity
 _atom_site_fract_x
 _atom_site_fract_y
 _atom_site_fract_z
 _atom_site_occupancy
  Ca  Ca0  1  0.08921500  0.95523400  0.62627000  1
  Ca  Ca1  1  0.42034300  0.44058100  0.13937500  1
  Ca  Ca2  1  0.07965700  0.44058100  0.63937500  1
  Ca  Ca3  1  0.57965700  0.55941900  0.86062500  1
  Ca  Ca4  1  0.91078500  0.04476600  0.37373000  1
  Ca  Ca5  1  0.41078500  0.95523400  0.12627000  1
  Ca  Ca6  1  0.92034300  0.55941900  0.36062500  1
  Ca  Ca7  1  0.58921500  0.04476600  0.87373000  1
  Ca  Ca8  1  0.29035000  0.60815500  0.31938800  1
  Ca  Ca9  1  0.79035000  0.39184500  0.18061200  1
  Ca  Ca10  1  0.70965000  0.39184500  0.68061200  1
  Ca  Ca11  1  0.20965000  0.60815500  0.81938800  1
  Ca  Ca12  1  0.28816500  0.09004100  0.32382000  1
  Ca  Ca13  1  0.78816500  0.90995900  0.17618000  1
  Ca  Ca14  1  0.71183500  0.90995900  0.67618000  1
  Ca  Ca15  1  0.21183500  0.09004100  0.82382000  1
  Ca  Ca16  1  0.50540100  0.74940900  0.49637400  1
  Ca  Ca17  1  0.00540100  0.25059100  0.00362600  1
  Ca  Ca18  1  0.49459900  0.25059100  0.50362600  1
  Ca  Ca19  1  0.99459900  0.74940900  0.99637400  1
  Si  Si0  1  0.58405000  0.56944200  0.29659300  1
  Si  Si1  1  0.08405000  0.43055800  0.20340700  1
  Si  Si2  1  0.41595000  0.43055800  0.70340700  1
  Si  Si3  1  0.91595000  0.56944200  0.79659300  1
  Si  Si4  1  0.57886000  0.13760600  0.29866500  1
  Si  Si5  1  0.07886000  0.86239400  0.20133500  1
  Si  Si6  1  0.42114000  0.86239400  0.70133500  1
  Si  Si7  1  0.92114000  0.13760600  0.79866500  1
  C  C0  1  0.81067700  0.65982700  0.53094500  1
  C  C1  1  0.19479000  0.81999000  0.47625400  1
  C  C2  1  0.69479000  0.18001000  0.02374600  1
  C  C3  1  0.80521000  0.18001000  0.52374600  1
  C  C4  1  0.30521000  0.81999000  0.97625400  1
  C  C5  1  0.18932300  0.34017300  0.46905500  1
  C  C6  1  0.68932300  0.65982700  0.03094500  1
  C  C7  1  0.31067700  0.34017300  0.96905500  1
  O  O0  1  0.58373500  0.36535400  0.27441500  1
  O  O1  1  0.46777000  0.11502300  0.22645200  1
  O  O2  1  0.03223000  0.11502300  0.72645200  1
  O  O3  1  0.53223000  0.88497700  0.77354800  1
  O  O4  1  0.52963100  0.55223200  0.39841000  1
  O  O5  1  0.02963100  0.44776800  0.10159000  1
  O  O6  1  0.47036900  0.44776800  0.60159000  1
  O  O7  1  0.97036900  0.55223200  0.89841000  1
  O  O8  1  0.52436500  0.05532200  0.40098100  1
  O  O9  1  0.02436500  0.94467800  0.09901900  1
  O  O10  1  0.47563500  0.94467800  0.59901900  1
  O  O11  1  0.97563500  0.05532200  0.90098100  1
  O  O12  1  0.73334000  0.63266200  0.27187500  1
  O  O13  1  0.82665900  0.27590400  0.44278800  1
  O  O14  1  0.26666000  0.36733800  0.72812500  1
  O  O15  1  0.76666000  0.63266200  0.77187500  1
  O  O16  1  0.72491500  0.08641600  0.27433500  1
  O  O17  1  0.22491500  0.91358400  0.22566500  1
  O  O18  1  0.27508500  0.91358400  0.72566500  1
  O  O19  1  0.77508500  0.08641600  0.77433500  1
  O  O20  1  0.52616500  0.32336600  0.77555500  1
  O  O21  1  0.96777000  0.88497700  0.27354800  1
  O  O22  1  0.02616500  0.67663400  0.72444500  1
  O  O23  1  0.47383500  0.67663400  0.22444500  1
  O  O24  1  0.97383500  0.32336600  0.27555500  1
  O  O25  1  0.91626500  0.36535400  0.77441500  1
  O  O26  1  0.41626500  0.63464600  0.72558500  1
  O  O27  1  0.08373500  0.63464600  0.22558500  1
  O  O28  1  0.20775700  0.29863500  0.92867600  1
  O  O29  1  0.70775700  0.70136500  0.57132400  1
  O  O30  1  0.79224300  0.70136500  0.07132400  1
  O  O31  1  0.29224300  0.29863500  0.42867600  1
  O  O32  1  0.20574800  0.78601100  0.92990800  1
  O  O33  1  0.70574800  0.21398900  0.57009200  1
  O  O34  1  0.79425200  0.21398900  0.07009200  1
  O  O35  1  0.29425200  0.78601100  0.42990800  1
  O  O36  1  0.37821600  0.47884300  0.92613700  1
  O  O37  1  0.87821600  0.52115700  0.57386300  1
  O  O38  1  0.62178400  0.52115700  0.07386300  1
  O  O39  1  0.12178400  0.47884300  0.42613700  1
  O  O40  1  0.37627900  0.96044200  0.93970200  1
  O  O41  1  0.87627900  0.03955800  0.56029800  1
  O  O42  1  0.62372100  0.03955800  0.06029800  1
  O  O43  1  0.12372100  0.96044200  0.43970200  1
  O  O44  1  0.66000100  0.74912900  0.95014100  1
  O  O45  1  0.16000100  0.25087100  0.54985900  1
  O  O46  1  0.33999900  0.25087100  0.04985900  1
  O  O47  1  0.83999900  0.74912900  0.45014100  1
  O  O48  1  0.67334100  0.27590400  0.94278800  1
  O  O49  1  0.17334100  0.72409600  0.55721200  1
  O  O50  1  0.32665900  0.72409600  0.05721200  1
  O  O51  1  0.23334000  0.36733800  0.22812500  1
loop_
_geom_bond_atom_site_label_1
_geom_bond_atom_site_label_2
_geom_bond_distance
_geom_bond_site_symmetry_2
Ca0 O2 2.274542 1_565
Ca0 O22 2.351053 1_555
Ca0 O45 2.368351 1_565
Ca0 O18 2.425999 1_555
Ca0 O49 2.443445 1_555
Ca0 O41 2.444684 1_465
Ca1 O38 2.330409 1_555
Ca1 O51 2.351026 1_555
Ca1 O46 2.390112 1_555
Ca1 O50 2.403510 1_555
Ca1 O1 2.539486 1_555
Ca1 O23 2.545987 1_555
Ca1 O0 2.619092 1_555
Ca2 O37 2.330409 1_455
Ca2 O14 2.351026 1_555
Ca2 O45 2.390112 1_555
Ca2 O49 2.403510 1_555
Ca2 O2 2.539486 1_555
Ca2 O22 2.545987 1_555
Ca2 O25 2.619092 1_455
Ca3 O36 2.330409 1_555
Ca3 O15 2.351026 1_555
Ca3 O44 2.390112 1_555
Ca3 O48 2.403510 1_555
Ca3 O3 2.539486 1_555
Ca3 O20 2.545987 1_555
Ca3 O26 2.619092 1_555
Ca4 O21 2.274542 1_545
Ca4 O24 2.351053 1_555
Ca4 O47 2.368351 1_545
Ca4 O16 2.425999 1_555
Ca4 O13 2.443445 1_555
Ca4 O43 2.444684 1_645
Ca5 O1 2.274542 1_565
Ca5 O23 2.351053 1_555
Ca5 O46 2.368351 1_565
Ca5 O17 2.425999 1_555
Ca5 O50 2.443445 1_555
Ca5 O42 2.444684 1_565
Ca6 O39 2.330409 1_655
Ca6 O12 2.351026 1_555
Ca6 O47 2.390112 1_555
Ca6 O13 2.403510 1_555
Ca6 O21 2.539486 1_555
Ca6 O24 2.545987 1_555
Ca6 O27 2.619092 1_655
Ca7 O3 2.274542 1_545
Ca7 O20 2.351053 1_555
Ca7 O44 2.368351 1_545
Ca7 O19 2.425999 1_555
Ca7 O48 2.443445 1_555
Ca7 O40 2.444684 1_545
Ca8 O23 2.369499 1_555
Ca8 O39 2.420641 1_555
Ca8 O35 2.432207 1_555
Ca8 O17 2.488701 1_555
Ca8 O31 2.510263 1_555
Ca8 O27 2.559357 1_555
Ca8 O51 2.651193 1_555
Ca8 O4 2.746254 1_555
Ca9 O24 2.369499 1_555
Ca9 O38 2.420641 1_555
Ca9 O34 2.432207 1_555
Ca9 O16 2.488701 1_555
Ca9 O30 2.510263 1_555
Ca9 O0 2.559357 1_555
Ca9 O12 2.651193 1_555
Ca9 O5 2.746254 1_655
Ca10 O20 2.369499 1_555
Ca10 O37 2.420641 1_555
Ca10 O33 2.432207 1_555
Ca10 O19 2.488701 1_555
Ca10 O29 2.510263 1_555
Ca10 O25 2.559357 1_555
Ca10 O15 2.651193 1_555
Ca10 O6 2.746254 1_555
Ca11 O22 2.369499 1_555
Ca11 O36 2.420641 1_555
Ca11 O32 2.432207 1_555
Ca11 O18 2.488701 1_555
Ca11 O28 2.510263 1_555
Ca11 O26 2.559357 1_555
Ca11 O14 2.651193 1_555
Ca11 O7 2.746254 1_455
Ca12 O51 2.306111 1_555
Ca12 O17 2.359462 1_545
Ca12 O1 2.363366 1_555
Ca12 O35 2.458424 1_545
Ca12 O43 2.473570 1_545
Ca12 O31 2.541041 1_555
Ca12 O8 2.703875 1_555
Ca13 O12 2.306111 1_555
Ca13 O16 2.359462 1_565
Ca13 O21 2.363366 1_555
Ca13 O34 2.458424 1_565
Ca13 O42 2.473570 1_565
Ca13 O30 2.541041 1_555
Ca13 O9 2.703875 1_655
Ca14 O15 2.306111 1_555
Ca14 O19 2.359462 1_565
Ca14 O3 2.363366 1_555
Ca14 O33 2.458424 1_565
Ca14 O41 2.473570 1_565
Ca14 O29 2.541041 1_555
Ca14 O10 2.703875 1_555
Ca15 O14 2.306111 1_555
Ca15 O18 2.359462 1_545
Ca15 O2 2.363366 1_555
Ca15 O32 2.458424 1_545
Ca15 O40 2.473570 1_545
Ca15 O28 2.541041 1_555
Ca15 O11 2.703875 1_455
Ca16 O29 2.375114 1_555
Ca16 O4 2.400786 1_555
Ca16 O35 2.401368 1_555
Ca16 O8 2.414213 1_565
Ca16 O10 2.453035 1_555
Ca16 O6 2.465014 1_555
Ca17 O28 2.375114 1_554
Ca17 O5 2.400786 1_555
Ca17 O34 2.401368 1_455
Ca17 O9 2.414213 1_545
Ca17 O11 2.453035 1_454
Ca17 O7 2.465014 1_454
Ca18 O31 2.375114 1_555
Ca18 O6 2.400786 1_555
Ca18 O33 2.401368 1_555
Ca18 O10 2.414213 1_545
Ca18 O8 2.453035 1_555
Ca18 O4 2.465014 1_555
Ca19 O30 2.375114 1_556
Ca19 O7 2.400786 1_555
Ca19 O32 2.401368 1_655
Ca19 O11 2.414213 1_565
Ca19 O9 2.453035 1_656
Ca19 O5 2.465014 1_656
C0 O47 1.282855 1_555
C0 O37 1.295037 1_555
C0 O29 1.314048 1_555
C1 O49 1.282946 1_555
C1 O43 1.300098 1_555
C1 O35 1.316536 1_555
C2 O48 1.282946 1_554
C2 O42 1.300098 1_555
C2 O34 1.316536 1_555
C3 O13 1.282946 1_555
C3 O41 1.300098 1_555
C3 O33 1.316536 1_555
C4 O50 1.282946 1_556
C4 O40 1.300098 1_555
C4 O32 1.316536 1_555
C5 O45 1.282855 1_555
C5 O39 1.295037 1_555
C5 O31 1.314048 1_555
C6 O44 1.282855 1_554
C6 O38 1.295037 1_555
C6 O30 1.314048 1_555
C7 O46 1.282855 1_556
C7 O36 1.295037 1_555
C7 O28 1.314048 1_555
O0 Si0 1.678498 1_555
O0 Si4 1.679305 1_555
O1 Si4 1.637823 1_555
O2 Si7 1.637823 1_455
O3 Si6 1.637823 1_555
O4 Si0 1.631283 1_555
O5 Si1 1.631283 1_555
O6 Si2 1.631283 1_555
O7 Si3 1.631283 1_555
O8 Si4 1.628906 1_555
O9 Si5 1.628906 1_555
O10 Si6 1.628906 1_555
O11 Si7 1.628906 1_555
O12 Si0 1.637138 1_555
O14 Si2 1.637138 1_555
O15 Si3 1.637138 1_555
O16 Si4 1.632539 1_555
O17 Si5 1.632539 1_555
O18 Si6 1.632539 1_555
O19 Si7 1.632539 1_555
O20 Si2 1.650284 1_555
O21 Si5 1.637823 1_655
O22 Si3 1.650284 1_455
O23 Si0 1.650284 1_555
O24 Si1 1.650284 1_655
O25 Si3 1.678498 1_555
O25 Si7 1.679305 1_555
O26 Si2 1.678498 1_555
O26 Si6 1.679305 1_555
O27 Si1 1.678498 1_555
O27 Si5 1.679305 1_555
O51 Si1 1.637138 1_555
