# generated using pymatgen
data_Sr22Nb10O47
_symmetry_space_group_name_H-M   'P 1'
_cell_length_a   5.96108800
_cell_length_b   6.01978915
_cell_length_c   40.04782024
_cell_angle_alpha   90.09050353
_cell_angle_beta   90.11539620
_cell_angle_gamma   118.31485326
_symmetry_Int_Tables_number   1
_chemical_formula_structural   Sr22Nb10O47
_chemical_formula_sum   'Sr22 Nb10 O47'
_cell_volume   1265.14576160
_cell_formula_units_Z   1
loop_
 _symmetry_equiv_pos_site_id
 _symmetry_equiv_pos_as_xyz
  1  'x, y, z'
loop_
 _atom_site_type_symbol
 _atom_site_label
 _atom_site_symmetry_multiplicity
 _atom_site_fract_x
 _atom_site_fract_y
 _atom_site_fract_z
 _atom_site_occupancy
  Sr  Sr0  1  0.43463400  0.77389900  0.03657600  1
  Sr  Sr1  1  0.74804400  0.41545400  0.13753000  1
  Sr  Sr2  1  0.75694100  0.39871300  0.05093400  1
  Sr  Sr3  1  0.07215100  0.07386200  0.09773900  1
  Sr  Sr4  1  0.08281100  0.93849600  0.27560000  1
  Sr  Sr5  1  0.07857500  0.05606700  0.18459900  1
  Sr  Sr6  1  0.43131100  0.73518100  0.20620600  1
  Sr  Sr7  1  0.51489200  0.56885700  0.41318100  1
  Sr  Sr8  1  0.80646500  0.18500200  0.34818700  1
  Sr  Sr9  1  0.88042800  0.26576000  0.51839100  1
  Sr  Sr10  1  0.85654400  0.22933800  0.43425100  1
  Sr  Sr11  1  0.20364700  0.91380100  0.47630700  1
  Sr  Sr12  1  0.21742400  0.81195700  0.65321300  1
  Sr  Sr13  1  0.20968100  0.90800500  0.56282800  1
  Sr  Sr14  1  0.66172100  0.41928800  0.79045500  1
  Sr  Sr15  1  0.56844100  0.59730200  0.58462800  1
  Sr  Sr16  1  0.93339300  0.05474800  0.72554300  1
  Sr  Sr17  1  0.01339700  0.10657400  0.89918300  1
  Sr  Sr18  1  0.98777700  0.08517800  0.81260300  1
  Sr  Sr19  1  0.33756500  0.76465600  0.85643700  1
  Sr  Sr20  1  0.32528900  0.73389500  0.94410300  1
  Sr  Sr21  1  0.65015200  0.40535600  0.95917600  1
  Nb  Nb0  1  0.04209300  0.00742600  0.99648600  1
  Nb  Nb1  1  0.41201800  0.73842400  0.11896400  1
  Nb  Nb2  1  0.75169800  0.36180200  0.23669500  1
  Nb  Nb3  1  0.45606600  0.54263800  0.31640600  1
  Nb  Nb4  1  0.15719100  0.86778800  0.37209300  1
  Nb  Nb5  1  0.54168200  0.58346400  0.49765300  1
  Nb  Nb6  1  0.88611500  0.22874500  0.61513000  1
  Nb  Nb7  1  0.58927200  0.41721200  0.69418100  1
  Nb  Nb8  1  0.28277600  0.73661100  0.74895400  1
  Nb  Nb9  1  0.67206000  0.43252900  0.87514500  1
  O  O0  1  0.64527700  0.65714500  0.08838100  1
  O  O1  1  0.41544900  0.15131400  0.00804400  1
  O  O2  1  0.11679600  0.51730300  0.08756000  1
  O  O3  1  0.81948900  0.07808200  0.23132900  1
  O  O4  1  0.93445300  0.09442600  0.03622400  1
  O  O5  1  0.47986200  0.04137900  0.08695100  1
  O  O6  1  0.71824200  0.97755900  0.14614800  1
  O  O7  1  0.33088600  0.43592000  0.14793300  1
  O  O8  1  0.38374900  0.11521600  0.22875700  1
  O  O9  1  0.41086200  0.82730600  0.33021800  1
  O  O10  1  0.76731900  0.54866400  0.19794700  1
  O  O11  1  0.17882400  0.81773900  0.14535500  1
  O  O12  1  0.10068000  0.58632400  0.24798400  1
  O  O13  1  0.12730800  0.33071000  0.30372800  1
  O  O14  1  0.92236600  0.82596100  0.33437500  1
  O  O15  1  0.78892900  0.51766200  0.46904100  1
  O  O16  1  0.45297700  0.34768300  0.35303000  1
  O  O17  1  0.64022900  0.50980400  0.27722800  1
  O  O18  1  0.47022600  0.03911200  0.39796100  1
  O  O19  1  0.24938400  0.34269400  0.46548300  1
  O  O20  1  0.06138900  0.53884700  0.38773100  1
  O  O21  1  0.95894800  0.94808500  0.60950400  1
  O  O22  1  0.58922100  0.86479800  0.46601600  1
  O  O23  1  0.94965000  0.95169500  0.39957400  1
  O  O24  1  0.84012200  0.82621900  0.52590100  1
  O  O25  1  0.46030500  0.27885400  0.52662000  1
  O  O26  1  0.52069100  0.97914500  0.60652200  1
  O  O27  1  0.53204700  0.69784000  0.70818800  1
  O  O28  1  0.89858000  0.41660900  0.57668000  1
  O  O29  1  0.30209400  0.65899200  0.52384300  1
  O  O30  1  0.23390100  0.45722000  0.62623100  1
  O  O31  1  0.26010400  0.20331500  0.68166500  1
  O  O32  1  0.03930000  0.69021900  0.71100600  1
  O  O33  1  0.91963100  0.37521200  0.84632800  1
  O  O34  1  0.76712500  0.37491600  0.65491400  1
  O  O35  1  0.58172900  0.21985400  0.73069800  1
  O  O36  1  0.58868800  0.91010700  0.77623800  1
  O  O37  1  0.16590200  0.40829900  0.76595300  1
  O  O38  1  0.37883300  0.19069000  0.84455000  1
  O  O39  1  0.04079500  0.67483300  0.99707800  1
  O  O40  1  0.72327800  0.71647100  0.84415400  1
  O  O41  1  0.07200800  0.82935100  0.77454900  1
  O  O42  1  0.97191900  0.66558000  0.90495200  1
  O  O43  1  0.59596400  0.12757500  0.90598100  1
  O  O44  1  0.67828900  0.80158400  0.98031500  1
  O  O45  1  0.43691500  0.51577100  0.90158000  1
  O  O46  1  0.14042000  0.23207900  0.95838000  1
loop_
_geom_bond_atom_site_label_1
_geom_bond_atom_site_label_2
_geom_bond_distance
_geom_bond_site_symmetry_2
Nb0 O4 1.881192 1_456
Nb0 O46 1.938938 1_555
Nb0 O39 1.998660 1_545
Nb0 O1 2.020812 1_556
Nb0 O44 2.024981 1_445
Nb1 O11 1.977701 1_555
Nb1 O7 2.017272 1_555
Nb1 O6 2.020865 1_555
Nb1 O2 2.052849 1_555
Nb1 O0 2.079248 1_555
Nb1 O5 2.107840 1_565
Nb2 O10 1.894395 1_555
Nb2 O12 1.919860 1_655
Nb2 O3 1.944338 1_555
Nb2 O8 2.005616 1_555
Nb2 O17 2.105148 1_555
Nb3 O13 1.829805 1_555
Nb3 O16 1.874550 1_555
Nb3 O9 1.936697 1_555
Nb3 O17 1.979343 1_555
Nb3 O14 2.577592 1_555
Nb4 O20 1.889967 1_555
Nb4 O23 1.895644 1_455
Nb4 O18 1.944766 1_565
Nb4 O14 1.990096 1_455
Nb4 O9 2.348794 1_555
Nb4 O16 2.686567 1_565
Nb5 O29 1.991759 1_555
Nb5 O24 2.025011 1_555
Nb5 O22 2.026501 1_555
Nb5 O25 2.026979 1_555
Nb5 O15 2.049717 1_555
Nb5 O19 2.094252 1_555
Nb6 O28 1.892567 1_555
Nb6 O30 1.917500 1_655
Nb6 O21 1.946473 1_545
Nb6 O26 2.003000 1_545
Nb6 O34 2.099538 1_555
Nb7 O31 1.832114 1_555
Nb7 O35 1.872768 1_555
Nb7 O27 1.956854 1_555
Nb7 O34 1.980734 1_555
Nb7 O32 2.481624 1_655
Nb8 O37 1.885426 1_555
Nb8 O41 1.899914 1_555
Nb8 O36 1.947243 1_555
Nb8 O32 2.024688 1_555
Nb8 O27 2.294636 1_555
Nb8 O35 2.695718 1_565
Nb9 O45 2.001827 1_555
Nb9 O40 2.017022 1_555
Nb9 O33 2.029165 1_555
Nb9 O42 2.048279 1_555
Nb9 O38 2.061011 1_555
Nb9 O43 2.078523 1_555
O0 Sr2 2.468057 1_555
O0 Sr3 2.616519 1_665
O0 Sr0 2.684446 1_555
O0 Sr1 2.686270 1_555
O1 Sr21 2.473258 1_554
O1 Sr2 2.532609 1_555
O1 Sr0 2.595124 1_545
O2 Sr2 2.407070 1_455
O2 Sr3 2.587037 1_555
O2 Sr0 2.719175 1_555
O2 Sr1 2.820584 1_455
O3 Sr6 2.465876 1_545
O3 Sr5 2.471868 1_655
O3 Sr4 2.749195 1_645
O4 Sr2 2.580671 1_555
O4 Sr3 2.616741 1_655
O4 Sr0 2.673400 1_545
O5 Sr2 2.466723 1_555
O5 Sr0 2.512173 1_545
O5 Sr3 2.566424 1_555
O5 Sr1 2.878722 1_555
O6 Sr5 2.495950 1_665
O6 Sr1 2.580356 1_565
O6 Sr3 2.721234 1_665
O6 Sr6 2.915406 1_555
O7 Sr5 2.530612 1_555
O7 Sr1 2.582081 1_555
O7 Sr3 2.820395 1_555
O7 Sr6 2.829834 1_555
O8 Sr5 2.435999 1_555
O8 Sr4 2.465474 1_545
O8 Sr6 2.596060 1_545
O9 Sr8 2.426278 1_565
O9 Sr4 3.207126 1_555
O10 Sr1 2.532963 1_555
O10 Sr6 2.741690 1_555
O10 Sr5 2.773269 1_665
O11 Sr5 2.386515 1_565
O11 Sr1 2.579154 1_455
O11 Sr3 2.711514 1_565
O11 Sr6 3.024842 1_555
O12 Sr6 2.414425 1_555
O12 Sr4 2.436429 1_555
O13 Sr8 2.454521 1_455
O13 Sr4 2.511994 1_545
O14 Sr4 2.512681 1_655
O14 Sr8 2.620890 1_565
O15 Sr10 2.402993 1_555
O15 Sr11 2.507067 1_655
O15 Sr9 2.700498 1_555
O15 Sr7 2.869322 1_555
O16 Sr7 2.689220 1_555
O16 Sr8 2.719457 1_555
O17 Sr4 2.677114 1_655
O18 Sr10 2.491259 1_555
O18 Sr8 2.667185 1_555
O18 Sr7 3.029169 1_545
O18 Sr7 3.130428 1_555
O19 Sr10 2.446122 1_455
O19 Sr11 2.502881 1_545
O19 Sr7 2.593081 1_555
O19 Sr9 2.932044 1_455
O20 Sr8 2.502684 1_455
O20 Sr10 2.509034 1_455
O20 Sr7 2.811528 1_555
O21 Sr13 2.477552 1_655
O21 Sr15 2.488233 1_555
O21 Sr12 2.702053 1_655
O22 Sr10 2.381794 1_565
O22 Sr11 2.487230 1_555
O22 Sr7 2.661340 1_555
O22 Sr9 3.038664 1_565
O23 Sr10 2.430185 1_565
O23 Sr7 2.582338 1_555
O23 Sr8 2.841721 1_565
O24 Sr13 2.497631 1_655
O24 Sr9 2.559088 1_565
O24 Sr11 2.802753 1_655
O24 Sr15 2.821640 1_555
O25 Sr13 2.484644 1_545
O25 Sr9 2.564624 1_555
O25 Sr11 2.830908 1_545
O25 Sr15 2.880070 1_555
O26 Sr13 2.431856 1_555
O26 Sr12 2.463954 1_555
O26 Sr15 2.597836 1_555
O27 Sr16 2.436273 1_565
O27 Sr12 3.169688 1_555
O28 Sr9 2.486879 1_555
O28 Sr15 2.681338 1_555
O28 Sr13 2.702330 1_655
O29 Sr13 2.401554 1_555
O29 Sr9 2.514161 1_455
O29 Sr11 2.679554 1_555
O29 Sr15 3.021791 1_555
O30 Sr15 2.426208 1_555
O30 Sr12 2.435057 1_555
O31 Sr16 2.459079 1_455
O31 Sr12 2.516951 1_545
O32 Sr12 2.509666 1_555
O32 Sr16 2.620015 1_465
O33 Sr18 2.388528 1_555
O33 Sr19 2.513778 1_655
O33 Sr14 2.795689 1_555
O33 Sr17 2.876044 1_655
O34 Sr12 2.726460 1_655
O35 Sr14 2.615161 1_555
O35 Sr16 2.720759 1_555
O36 Sr18 2.548342 1_565
O36 Sr16 2.725319 1_565
O36 Sr14 2.938796 1_565
O36 Sr14 3.235442 1_555
O37 Sr16 2.500291 1_455
O37 Sr18 2.541935 1_455
O37 Sr14 3.083109 1_555
O37 Sr14 3.193797 1_455
O38 Sr18 2.460746 1_455
O38 Sr19 2.504061 1_545
O38 Sr14 2.693206 1_555
O38 Sr17 2.960602 1_555
O39 Sr21 2.598586 1_455
O39 Sr20 2.635955 1_555
O39 Sr0 2.650171 1_556
O39 Sr2 2.763294 1_456
O40 Sr18 2.388722 1_565
O40 Sr19 2.499906 1_555
O40 Sr14 2.705881 1_555
O40 Sr17 3.078626 1_665
O41 Sr18 2.382333 1_465
O41 Sr14 2.600958 1_455
O41 Sr16 2.727813 1_465
O42 Sr20 2.495510 1_655
O42 Sr17 2.557616 1_665
O42 Sr19 2.769302 1_655
O42 Sr21 2.832981 1_555
O43 Sr17 2.565746 1_655
O43 Sr21 2.629159 1_555
O43 Sr20 2.635240 1_545
O43 Sr19 2.804281 1_545
O44 Sr20 2.422711 1_555
O44 Sr21 2.459181 1_555
O44 Sr0 2.645509 1_556
O45 Sr20 2.427612 1_555
O45 Sr17 2.559212 1_555
O45 Sr19 2.590337 1_555
O45 Sr21 2.858749 1_555
O46 Sr17 2.491754 1_555
O46 Sr21 2.704571 1_555
O46 Sr20 2.741667 1_555
