# generated using pymatgen
data_CsRe6Se8I3
_symmetry_space_group_name_H-M   'P 1'
_cell_length_a   20.04158000
_cell_length_b   6.67504500
_cell_length_c   16.66041821
_cell_angle_alpha   73.41775442
_cell_angle_beta   90.00000000
_cell_angle_gamma   90.00000000
_symmetry_Int_Tables_number   1
_chemical_formula_structural   CsRe6Se8I3
_chemical_formula_sum   'Cs4 Re24 Se32 I12'
_cell_volume   2136.11125394
_cell_formula_units_Z   4
loop_
 _symmetry_equiv_pos_site_id
 _symmetry_equiv_pos_as_xyz
  1  'x, y, z'
loop_
 _atom_site_type_symbol
 _atom_site_label
 _atom_site_symmetry_multiplicity
 _atom_site_fract_x
 _atom_site_fract_y
 _atom_site_fract_z
 _atom_site_occupancy
  Cs  Cs0  1  0.01926800  0.03377100  0.74792800  1
  Cs  Cs1  1  0.48073200  0.03377100  0.24792800  1
  Cs  Cs2  1  0.98073200  0.96622900  0.25207200  1
  Cs  Cs3  1  0.51926800  0.96622900  0.75207200  1
  Re  Re0  1  0.73796400  0.17589600  0.54174100  1
  Re  Re1  1  0.83579500  0.50385000  0.04663200  1
  Re  Re2  1  0.33579500  0.49615000  0.45336800  1
  Re  Re3  1  0.16420500  0.49615000  0.95336800  1
  Re  Re4  1  0.26203600  0.82410400  0.45825900  1
  Re  Re5  1  0.75801500  0.75444800  0.46080200  1
  Re  Re6  1  0.23796400  0.82410400  0.95825900  1
  Re  Re7  1  0.20862600  0.53169200  0.39834300  1
  Re  Re8  1  0.16809200  0.57349800  0.54397600  1
  Re  Re9  1  0.83190800  0.42650200  0.45602400  1
  Re  Re10  1  0.29509300  0.53780600  0.59915500  1
  Re  Re11  1  0.79509300  0.46219400  0.90084500  1
  Re  Re12  1  0.70862600  0.46830800  0.10165700  1
  Re  Re13  1  0.29137400  0.53169200  0.89834300  1
  Re  Re14  1  0.33190800  0.57349800  0.04397600  1
  Re  Re15  1  0.76203600  0.17589600  0.04174100  1
  Re  Re16  1  0.74198500  0.75444800  0.96080200  1
  Re  Re17  1  0.70490700  0.46219400  0.40084500  1
  Re  Re18  1  0.25801500  0.24555200  0.03919800  1
  Re  Re19  1  0.79137400  0.46830800  0.60165700  1
  Re  Re20  1  0.24198500  0.24555200  0.53919800  1
  Re  Re21  1  0.66809200  0.42650200  0.95602400  1
  Re  Re22  1  0.20490700  0.53780600  0.09915500  1
  Re  Re23  1  0.66420500  0.50385000  0.54663200  1
  Se  Se0  1  0.77852900  0.15980800  0.39224500  1
  Se  Se1  1  0.80063700  0.22735700  0.17993300  1
  Se  Se2  1  0.85809200  0.15181100  0.59348300  1
  Se  Se3  1  0.78246200  0.77033700  0.11032200  1
  Se  Se4  1  0.63786700  0.77785800  0.40911500  1
  Se  Se5  1  0.61825700  0.21843000  0.48951800  1
  Se  Se6  1  0.87765300  0.71256700  0.51280700  1
  Se  Se7  1  0.86213300  0.77785800  0.90911500  1
  Se  Se8  1  0.72147100  0.15980800  0.89224500  1
  Se  Se9  1  0.71753800  0.77033700  0.61032200  1
  Se  Se10  1  0.27852900  0.84019200  0.10775500  1
  Se  Se11  1  0.35809200  0.84818900  0.90651700  1
  Se  Se12  1  0.79698700  0.70304400  0.32281500  1
  Se  Se13  1  0.38174300  0.78157000  0.51048200  1
  Se  Se14  1  0.30063700  0.77264300  0.32006700  1
  Se  Se15  1  0.13786700  0.22214200  0.09088500  1
  Se  Se16  1  0.21753800  0.22966300  0.88967800  1
  Se  Se17  1  0.20301300  0.29695600  0.67718500  1
  Se  Se18  1  0.37765300  0.28743300  0.98719300  1
  Se  Se19  1  0.62234700  0.71256700  0.01280700  1
  Se  Se20  1  0.70301300  0.70304400  0.82281500  1
  Se  Se21  1  0.29698700  0.29695600  0.17718500  1
  Se  Se22  1  0.22147100  0.84019200  0.60775500  1
  Se  Se23  1  0.69936300  0.22735700  0.67993300  1
  Se  Se24  1  0.36213300  0.22214200  0.59088500  1
  Se  Se25  1  0.19936300  0.77264300  0.82006700  1
  Se  Se26  1  0.64190800  0.15181100  0.09348300  1
  Se  Se27  1  0.28246200  0.22966300  0.38967800  1
  Se  Se28  1  0.14190800  0.84818900  0.40651700  1
  Se  Se29  1  0.11825700  0.78157000  0.01048200  1
  Se  Se30  1  0.12234700  0.28743300  0.48719300  1
  Se  Se31  1  0.88174300  0.21843000  0.98951800  1
  I  I0  1  0.63488400  0.46981800  0.24965900  1
  I  I1  1  0.45572100  0.62919500  0.11114400  1
  I  I2  1  0.04427900  0.62919500  0.61114400  1
  I  I3  1  0.95572100  0.37080500  0.38885600  1
  I  I4  1  0.36511600  0.53018200  0.75034100  1
  I  I5  1  0.54427900  0.37080500  0.88885600  1
  I  I6  1  0.04074800  0.43970100  0.88492600  1
  I  I7  1  0.45925200  0.43970100  0.38492600  1
  I  I8  1  0.95925200  0.56029900  0.11507400  1
  I  I9  1  0.13488400  0.53018200  0.25034100  1
  I  I10  1  0.54074800  0.56029900  0.61507400  1
  I  I11  1  0.86511600  0.46981800  0.74965900  1
loop_
_geom_bond_atom_site_label_1
_geom_bond_atom_site_label_2
_geom_bond_distance
_geom_bond_site_symmetry_2
Cs0 I6 3.994186 1_545
Cs0 I2 4.008899 1_555
Cs0 I2 4.031170 1_545
Cs0 I6 4.033215 1_555
Cs0 Se25 4.039137 1_545
Cs0 Se2 4.064342 1_455
Cs0 Se17 4.105440 1_555
Cs0 Se7 4.174799 1_445
Cs0 I11 4.250321 1_455
Cs1 I7 3.994186 1_545
Cs1 I1 4.008899 1_555
Cs1 I1 4.031170 1_545
Cs1 I7 4.033215 1_555
Cs1 Se14 4.039137 1_545
Cs1 Se26 4.064342 1_555
Cs1 Se21 4.105440 1_555
Cs1 Se4 4.174799 1_545
Cs1 I0 4.250321 1_555
Cs2 I8 3.994186 1_565
Cs2 I3 4.008899 1_555
Cs2 I3 4.031170 1_565
Cs2 I8 4.033215 1_555
Cs2 Se1 4.039137 1_565
Cs2 Se28 4.064342 1_655
Cs2 Se12 4.105440 1_555
Cs2 Se15 4.174799 1_665
Cs2 I9 4.250321 1_655
Cs3 I10 3.994186 1_565
Cs3 I5 4.008899 1_555
Cs3 I5 4.031170 1_565
Cs3 I10 4.033215 1_555
Cs3 Se23 4.039137 1_565
Cs3 Se11 4.064342 1_555
Cs3 Se20 4.105440 1_555
Cs3 Se24 4.174799 1_565
Cs3 I4 4.250321 1_555
Re0 Se5 2.540153 1_555
Re0 Se23 2.543355 1_555
Re0 Se2 2.546798 1_555
Re0 Se0 2.651144 1_555
Re0 Se9 2.652567 1_545
Re1 Se31 2.533367 1_554
Re1 Se7 2.545819 1_554
Re1 Se1 2.548606 1_555
Re1 Se3 2.551463 1_555
Re2 Se13 2.533367 1_555
Re2 Se24 2.545819 1_555
Re2 Se14 2.548606 1_555
Re2 Se27 2.551463 1_555
Re3 Se29 2.533367 1_556
Re3 Se15 2.545819 1_556
Re3 Se25 2.548606 1_555
Re3 Se16 2.551463 1_555
Re4 Se13 2.540153 1_555
Re4 Se14 2.543355 1_555
Re4 Se28 2.546798 1_555
Re4 Se22 2.651144 1_555
Re4 Se27 2.652567 1_565
Re5 Se6 2.537661 1_555
Re5 Se12 2.542257 1_555
Re5 Se4 2.547038 1_555
Re5 Se9 2.650574 1_555
Re5 Se0 2.651591 1_565
Re6 Se29 2.540153 1_556
Re6 Se25 2.543355 1_555
Re6 Se11 2.546798 1_555
Re6 Se10 2.651144 1_556
Re6 Se16 2.652567 1_565
Re7 Se28 2.536514 1_555
Re7 Se27 2.537957 1_555
Re7 Se30 2.542045 1_555
Re7 Se14 2.547709 1_555
Re8 Se30 2.532342 1_555
Re8 Se17 2.546433 1_555
Re8 Se28 2.546619 1_555
Re8 Se22 2.553889 1_555
Re9 Se6 2.532342 1_555
Re9 Se12 2.546433 1_555
Re9 Se2 2.546619 1_555
Re9 Se0 2.553889 1_555
Re10 Se24 2.535679 1_555
Re10 Se22 2.537086 1_555
Re10 Se13 2.544367 1_555
Re10 Se17 2.547027 1_555
Re11 Se7 2.535679 1_555
Re11 Se8 2.537086 1_555
Re11 Se31 2.544367 1_555
Re11 Se20 2.547027 1_555
Re12 Se26 2.536514 1_555
Re12 Se3 2.537957 1_555
Re12 Se19 2.542045 1_555
Re12 Se1 2.547709 1_555
Re13 Se11 2.536514 1_555
Re13 Se16 2.537957 1_555
Re13 Se18 2.542045 1_555
Re13 Se25 2.547709 1_555
Re14 Se18 2.532342 1_554
Re14 Se21 2.546433 1_555
Re14 Se11 2.546619 1_554
Re14 Se10 2.553889 1_555
Re15 Se31 2.540153 1_554
Re15 Se1 2.543355 1_555
Re15 Se26 2.546798 1_555
Re15 Se8 2.651144 1_554
Re15 Se3 2.652567 1_545
Re16 Se19 2.537661 1_556
Re16 Se20 2.542257 1_555
Re16 Se7 2.547038 1_555
Re16 Se3 2.650574 1_556
Re16 Se8 2.651591 1_565
Re17 Se4 2.535679 1_555
Re17 Se0 2.537086 1_555
Re17 Se5 2.544367 1_555
Re17 Se12 2.547027 1_555
Re18 Se18 2.537661 1_554
Re18 Se21 2.542257 1_555
Re18 Se15 2.547038 1_555
Re18 Se16 2.650574 1_554
Re18 Se10 2.651591 1_545
Re19 Se2 2.536514 1_555
Re19 Se9 2.537957 1_555
Re19 Se6 2.542045 1_555
Re19 Se23 2.547709 1_555
Re20 Se30 2.537661 1_555
Re20 Se17 2.542257 1_555
Re20 Se24 2.547038 1_555
Re20 Se27 2.650574 1_555
Re20 Se22 2.651591 1_545
Re21 Se19 2.532342 1_556
Re21 Se20 2.546433 1_555
Re21 Se26 2.546619 1_556
Re21 Se8 2.553889 1_555
Re22 Se15 2.535679 1_555
Re22 Se10 2.537086 1_555
Re22 Se29 2.544367 1_555
Re22 Se21 2.547027 1_555
Re23 Se5 2.533367 1_555
Re23 Se4 2.545819 1_555
Re23 Se23 2.548606 1_555
Re23 Se9 2.551463 1_555
I0 Re17 2.871122 1_555
I0 Re12 2.877245 1_555
I1 Re14 2.790222 1_555
I2 Re8 2.790222 1_555
I3 Re9 2.790222 1_555
I4 Re10 2.871122 1_555
I4 Re13 2.877245 1_555
I5 Re21 2.790222 1_555
I6 Re3 2.794542 1_555
I7 Re2 2.794542 1_555
I8 Re1 2.794542 1_555
I9 Re22 2.871122 1_555
I9 Re7 2.877245 1_555
I10 Re23 2.794542 1_555
I11 Re11 2.871122 1_555
I11 Re19 2.877245 1_555
