# generated using pymatgen
data_Pr4MgRu
_symmetry_space_group_name_H-M   'P 1'
_cell_length_a   10.04432942
_cell_length_b   10.04434370
_cell_length_c   10.04435272
_cell_angle_alpha   59.99748409
_cell_angle_beta   59.99744273
_cell_angle_gamma   59.99741739
_symmetry_Int_Tables_number   1
_chemical_formula_structural   Pr4MgRu
_chemical_formula_sum   'Pr16 Mg4 Ru4'
_cell_volume   716.51344010
_cell_formula_units_Z   4
loop_
 _symmetry_equiv_pos_site_id
 _symmetry_equiv_pos_as_xyz
  1  'x, y, z'
loop_
 _atom_site_type_symbol
 _atom_site_label
 _atom_site_symmetry_multiplicity
 _atom_site_fract_x
 _atom_site_fract_y
 _atom_site_fract_z
 _atom_site_occupancy
  Pr  Pr0  1  0.06129874  0.43870553  0.43870386  1
  Pr  Pr1  1  0.18830674  0.81169143  0.18830856  1
  Pr  Pr2  1  0.65617195  0.65617178  0.65617099  1
  Pr  Pr3  1  0.43870508  0.43870467  0.06129758  1
  Pr  Pr4  1  0.06129678  0.43870675  0.06129344  1
  Pr  Pr5  1  0.43870644  0.06129584  0.06129529  1
  Pr  Pr6  1  0.06129595  0.06129423  0.43870547  1
  Pr  Pr7  1  0.65617213  0.65617219  0.03148541  1
  Pr  Pr8  1  0.65617282  0.03148265  0.65617295  1
  Pr  Pr9  1  0.18830549  0.81169201  0.81169318  1
  Pr  Pr10  1  0.43870531  0.06129788  0.43870322  1
  Pr  Pr11  1  0.18830698  0.18830801  0.81169253  1
  Pr  Pr12  1  0.03148145  0.65617375  0.65617277  1
  Pr  Pr13  1  0.81169283  0.81169290  0.18830617  1
  Pr  Pr14  1  0.81169210  0.18830682  0.18830780  1
  Pr  Pr15  1  0.81169251  0.18830577  0.81169378  1
  Mg  Mg0  1  0.42204535  0.42204491  0.42204333  1
  Mg  Mg1  1  0.42205085  0.73385457  0.42204893  1
  Mg  Mg2  1  0.73385432  0.42205022  0.42204866  1
  Mg  Mg3  1  0.42204999  0.42204942  0.73385477  1
  Ru  Ru0  1  0.86272721  0.86272807  0.86273038  1
  Ru  Ru1  1  0.41181519  0.86272614  0.86272917  1
  Ru  Ru2  1  0.86272593  0.41181583  0.86272893  1
  Ru  Ru3  1  0.86272688  0.86272761  0.41181583  1
loop_
_geom_bond_atom_site_label_1
_geom_bond_atom_site_label_2
_geom_bond_distance
_geom_bond_site_symmetry_2
Pr0 Ru3 3.617089 1_455
Pr0 Ru2 3.617115 1_455
Pr0 Pr2 3.618607 1_455
Pr0 Pr12 3.618765 1_555
Pr0 Pr1 3.759826 1_555
Pr0 Pr13 3.759830 1_455
Pr0 Pr11 3.759852 1_555
Pr0 Pr15 3.759852 1_455
Pr0 Pr3 3.790651 1_555
Pr0 Pr10 3.790656 1_555
Pr0 Pr4 3.790847 1_555
Pr0 Pr6 3.790855 1_555
Pr1 Ru3 2.851203 1_455
Pr1 Ru1 2.851208 1_554
Pr1 Pr3 3.759845 1_555
Pr1 Pr6 3.759945 1_565
Pr1 Pr5 3.759970 1_565
Pr2 Ru3 2.958474 1_555
Pr2 Ru2 2.958482 1_555
Pr2 Ru1 2.958487 1_555
Pr2 Pr3 3.618615 1_556
Pr3 Ru2 3.617072 1_554
Pr3 Ru1 3.617081 1_554
Pr3 Pr7 3.618766 1_555
Pr3 Pr9 3.759832 1_554
Pr3 Pr4 3.790824 1_555
Pr3 Pr5 3.790829 1_555
Pr4 Ru0 3.617040 1_454
Pr4 Ru2 3.617270 1_454
Pr4 Pr7 3.618642 1_455
Pr4 Pr9 3.759824 1_554
Pr4 Pr5 3.790688 1_555
Pr4 Pr6 3.790716 1_555
Pr5 Ru0 3.617032 1_544
Pr5 Ru1 3.617277 1_544
Pr5 Pr7 3.618645 1_545
Pr5 Pr8 3.618649 1_554
Pr5 Pr6 3.790692 1_555
Pr6 Ru0 3.617072 1_445
Pr6 Ru3 3.617264 1_445
Pr6 Pr8 3.618642 1_455
Pr6 Pr9 3.759851 1_545
Pr7 Ru2 2.958507 1_554
Pr7 Ru1 2.958509 1_554
Pr7 Ru0 2.958516 1_554
Pr8 Ru3 2.958504 1_545
Pr8 Ru1 2.958516 1_545
Pr8 Ru0 2.958524 1_545
Pr9 Ru0 2.851248 1_455
Pr9 Ru1 2.851352 1_555
Pr10 Ru3 3.617081 1_545
Pr10 Ru1 3.617123 1_545
Pr10 Pr2 3.618612 1_545
Pr10 Pr8 3.618775 1_555
Pr10 Pr13 3.759820 1_545
Pr10 Pr14 3.759833 1_555
Pr10 Pr9 3.759851 1_545
Pr10 Pr11 3.759865 1_555
Pr10 Pr3 3.790655 1_555
Pr10 Pr5 3.790823 1_555
Pr10 Pr6 3.790831 1_555
Pr11 Ru2 2.851211 1_455
Pr11 Ru1 2.851221 1_545
Pr11 Pr4 3.759946 1_556
Pr11 Pr5 3.759959 1_556
Pr12 Ru3 2.958500 1_455
Pr12 Ru2 2.958513 1_455
Pr12 Ru0 2.958526 1_455
Pr12 Pr6 3.618636 1_565
Pr12 Pr4 3.618643 1_556
Pr13 Ru0 2.851244 1_554
Pr13 Ru3 2.851346 1_555
Pr13 Pr5 3.759839 1_565
Pr13 Pr4 3.759850 1_655
Pr14 Ru3 2.851206 1_545
Pr14 Ru2 2.851208 1_554
Pr14 Pr3 3.759841 1_555
Pr14 Pr6 3.759952 1_655
Pr14 Pr4 3.759970 1_655
Pr15 Ru0 2.851254 1_545
Pr15 Ru2 2.851347 1_555
Pr15 Pr3 3.759823 1_556
Pr15 Pr5 3.759833 1_556
Pr15 Pr6 3.759865 1_655
Mg0 Mg2 3.131965 1_555
Mg0 Mg1 3.131979 1_555
Mg0 Mg3 3.131990 1_555
Mg0 Pr0 3.464193 1_555
Mg0 Pr3 3.464201 1_555
Mg0 Pr10 3.464209 1_555
Mg0 Pr14 3.670841 1_555
Mg0 Pr1 3.670843 1_555
Mg0 Pr11 3.670865 1_555
Mg0 Pr7 3.678093 1_555
Mg0 Pr8 3.678122 1_555
Mg0 Pr12 3.678131 1_555
Mg1 Mg2 3.131741 1_555
Mg1 Mg3 3.131764 1_555
Mg1 Pr6 3.464184 1_565
Mg1 Pr5 3.464192 1_565
Mg1 Pr10 3.464335 1_565
Mg1 Pr13 3.670900 1_555
Mg1 Pr9 3.670923 1_555
Mg1 Pr1 3.671049 1_555
Mg1 Pr7 3.678134 1_555
Mg1 Pr12 3.678171 1_555
Mg1 Pr2 3.678209 1_555
Mg2 Mg3 3.131757 1_555
Mg2 Pr6 3.464200 1_655
Mg2 Pr4 3.464202 1_655
Mg2 Pr0 3.464351 1_655
Mg2 Pr13 3.670913 1_555
Mg2 Pr15 3.670935 1_555
Mg2 Pr14 3.671045 1_555
Mg2 Pr7 3.678132 1_555
Mg2 Pr8 3.678164 1_555
Mg2 Pr2 3.678219 1_555
Mg3 Pr4 3.464173 1_556
Mg3 Pr5 3.464188 1_556
Mg3 Pr3 3.464341 1_556
Mg3 Pr15 3.670907 1_555
Mg3 Pr9 3.670909 1_555
Mg3 Pr11 3.671043 1_555
Mg3 Pr8 3.678156 1_555
Mg3 Pr12 3.678168 1_555
Mg3 Pr2 3.678213 1_555
