# generated using pymatgen
data_TlP(HO2)2
_symmetry_space_group_name_H-M   'P 1'
_cell_length_a   4.50963700
_cell_length_b   6.58999300
_cell_length_c   14.43627300
_cell_angle_alpha   90.00000000
_cell_angle_beta   90.00000000
_cell_angle_gamma   90.00000000
_symmetry_Int_Tables_number   1
_chemical_formula_structural   TlP(HO2)2
_chemical_formula_sum   'Tl4 P4 H8 O16'
_cell_volume   429.02403647
_cell_formula_units_Z   4
loop_
 _symmetry_equiv_pos_site_id
 _symmetry_equiv_pos_as_xyz
  1  'x, y, z'
loop_
 _atom_site_type_symbol
 _atom_site_label
 _atom_site_symmetry_multiplicity
 _atom_site_fract_x
 _atom_site_fract_y
 _atom_site_fract_z
 _atom_site_occupancy
  Tl  Tl0  1  0.00000000  0.75000000  0.87142100  1
  Tl  Tl1  1  0.50000000  0.25000000  0.62857900  1
  Tl  Tl2  1  0.00000000  0.25000000  0.12857900  1
  Tl  Tl3  1  0.50000000  0.75000000  0.37142100  1
  P  P0  1  0.00000000  0.75000000  0.62473200  1
  P  P1  1  0.50000000  0.25000000  0.87526800  1
  P  P2  1  0.00000000  0.25000000  0.37526800  1
  P  P3  1  0.50000000  0.75000000  0.12473200  1
  H  H0  1  0.00000000  0.50000000  0.50000000  1
  H  H1  1  0.50000000  0.00000000  0.00000000  1
  H  H2  1  0.50000000  0.50000000  0.00000000  1
  H  H3  1  0.00000000  0.00000000  0.50000000  1
  H  H4  1  0.00000000  0.75000000  0.18454400  1
  H  H5  1  0.50000000  0.25000000  0.31545600  1
  H  H6  1  0.00000000  0.25000000  0.81545600  1
  H  H7  1  0.50000000  0.75000000  0.68454400  1
  O  O0  1  0.12960800  0.57661000  0.56383500  1
  O  O1  1  0.37039200  0.07661000  0.93616500  1
  O  O2  1  0.62960800  0.42339000  0.93616500  1
  O  O3  1  0.87039200  0.92339000  0.56383500  1
  O  O4  1  0.87039200  0.42339000  0.43616500  1
  O  O5  1  0.62960800  0.92339000  0.06383500  1
  O  O6  1  0.37039200  0.57661000  0.06383500  1
  O  O7  1  0.12960800  0.07661000  0.43616500  1
  O  O8  1  0.74297400  0.67170400  0.68766200  1
  O  O9  1  0.75702600  0.17170400  0.81233800  1
  O  O10  1  0.24297400  0.32829600  0.81233800  1
  O  O11  1  0.25702600  0.82829600  0.68766200  1
  O  O12  1  0.25702600  0.32829600  0.31233800  1
  O  O13  1  0.24297400  0.82829600  0.18766200  1
  O  O14  1  0.75702600  0.67170400  0.18766200  1
  O  O15  1  0.74297400  0.17170400  0.31233800  1
loop_
_geom_bond_atom_site_label_1
_geom_bond_atom_site_label_2
_geom_bond_distance
_geom_bond_site_symmetry_2
H0 O4 1.202390 1_455
H0 O0 1.202390 1_555
H1 O1 1.202390 1_554
H1 O5 1.202390 1_545
H2 O2 1.202390 1_554
H2 O6 1.202390 1_555
H3 O3 1.202390 1_445
H3 O7 1.202390 1_555
H4 O13 1.211967 1_555
H4 O14 1.211967 1_455
H5 O15 1.211967 1_555
H5 O12 1.211967 1_555
H6 O10 1.211967 1_555
H6 O9 1.211967 1_455
H7 O8 1.211967 1_555
H7 O11 1.211967 1_555
O0 P0 1.555670 1_555
O1 P1 1.555670 1_555
O2 P1 1.555670 1_555
O3 P0 1.555670 1_655
O4 P2 1.555670 1_655
O5 P3 1.555670 1_555
O6 P3 1.555670 1_555
O7 P2 1.555670 1_555
O8 P0 1.560465 1_655
O9 P1 1.560465 1_555
O10 P1 1.560465 1_555
O11 P0 1.560465 1_555
O12 P2 1.560465 1_555
O13 P3 1.560465 1_555
O14 P3 1.560465 1_555
O15 P2 1.560465 1_655
