# generated using pymatgen
data_Cr3(PO4)4
_symmetry_space_group_name_H-M   'P 1'
_cell_length_a   10.07781401
_cell_length_b   10.07781401
_cell_length_c   10.76224886
_cell_angle_alpha   88.28497429
_cell_angle_beta   88.28497429
_cell_angle_gamma   36.83985538
_symmetry_Int_Tables_number   1
_chemical_formula_structural   Cr3(PO4)4
_chemical_formula_sum   'Cr6 P8 O32'
_cell_volume   655.03874500
_cell_formula_units_Z   2
loop_
 _symmetry_equiv_pos_site_id
 _symmetry_equiv_pos_as_xyz
  1  'x, y, z'
loop_
 _atom_site_type_symbol
 _atom_site_label
 _atom_site_symmetry_multiplicity
 _atom_site_fract_x
 _atom_site_fract_y
 _atom_site_fract_z
 _atom_site_occupancy
  Cr  Cr0  1  0.36375300  0.32804800  0.25126500  1
  Cr  Cr1  1  0.67195200  0.63624700  0.24873500  1
  Cr  Cr2  1  0.63624700  0.67195200  0.74873500  1
  Cr  Cr3  1  0.32804800  0.36375300  0.75126500  1
  Cr  Cr4  1  0.50000000  0.00000000  0.00000000  1
  Cr  Cr5  1  0.00000000  0.50000000  0.50000000  1
  P  P0  1  0.24694400  0.58224000  0.49160000  1
  P  P1  1  0.78259600  0.81521000  0.74534000  1
  P  P2  1  0.75305600  0.41776000  0.50840000  1
  P  P3  1  0.18479000  0.21740400  0.75466000  1
  P  P4  1  0.41776000  0.75305600  0.00840000  1
  P  P5  1  0.81521000  0.78259600  0.24534000  1
  P  P6  1  0.58224000  0.24694400  0.99160000  1
  P  P7  1  0.21740400  0.18479000  0.25466000  1
  O  O0  1  0.33687800  0.96424700  0.00629200  1
  O  O1  1  0.36717300  0.46037000  0.61653200  1
  O  O2  1  0.76478700  0.72215700  0.63782800  1
  O  O3  1  0.76652900  0.20118600  0.96789700  1
  O  O4  1  0.01684700  0.67030700  0.77221300  1
  O  O5  1  0.59325300  0.59095100  0.61388300  1
  O  O6  1  0.63324900  0.05297300  0.72064700  1
  O  O7  1  0.36675100  0.94702700  0.27935300  1
  O  O8  1  0.46037000  0.36717300  0.11653200  1
  O  O9  1  0.67030700  0.01684700  0.27221300  1
  O  O10  1  0.94702700  0.36675100  0.77935300  1
  O  O11  1  0.72215700  0.76478700  0.13782800  1
  O  O12  1  0.20118600  0.76652900  0.46789700  1
  O  O13  1  0.23521300  0.27784300  0.36217200  1
  O  O14  1  0.03575300  0.66312200  0.49370800  1
  O  O15  1  0.40904900  0.40674700  0.88611700  1
  O  O16  1  0.30951000  0.20895500  0.14471100  1
  O  O17  1  0.69049000  0.79104500  0.85528900  1
  O  O18  1  0.32969300  0.98315300  0.72778700  1
  O  O19  1  0.20895500  0.30951000  0.64471100  1
  O  O20  1  0.59095100  0.59325300  0.11388300  1
  O  O21  1  0.23347100  0.79881400  0.03210300  1
  O  O22  1  0.63282700  0.53963000  0.38346800  1
  O  O23  1  0.79104500  0.69049000  0.35528900  1
  O  O24  1  0.40674700  0.40904900  0.38611700  1
  O  O25  1  0.96424700  0.33687800  0.50629200  1
  O  O26  1  0.98315300  0.32969300  0.22778700  1
  O  O27  1  0.05297300  0.63324900  0.22064700  1
  O  O28  1  0.79881400  0.23347100  0.53210300  1
  O  O29  1  0.27784300  0.23521300  0.86217200  1
  O  O30  1  0.66312200  0.03575300  0.99370800  1
  O  O31  1  0.53963000  0.63282700  0.88346800  1
loop_
_geom_bond_atom_site_label_1
_geom_bond_atom_site_label_2
_geom_bond_distance
_geom_bond_site_symmetry_2
Cr0 O24 1.906593 1_555
Cr0 O8 1.924033 1_555
Cr0 O9 1.980381 1_555
Cr0 O27 1.989996 1_555
Cr0 O16 2.055340 1_555
Cr0 O13 2.068609 1_555
Cr1 O20 1.906593 1_555
Cr1 O22 1.924033 1_555
Cr1 O26 1.980381 1_555
Cr1 O7 1.989996 1_555
Cr1 O23 2.055340 1_555
Cr1 O11 2.068609 1_555
Cr2 O5 1.906593 1_555
Cr2 O31 1.924033 1_555
Cr2 O18 1.980381 1_555
Cr2 O10 1.989996 1_555
Cr2 O17 2.055340 1_555
Cr2 O2 2.068609 1_555
Cr3 O15 1.906593 1_555
Cr3 O1 1.924033 1_555
Cr3 O4 1.980381 1_555
Cr3 O6 1.989996 1_555
Cr3 O19 2.055340 1_555
Cr3 O29 2.068609 1_555
Cr4 O30 1.943405 1_554
Cr4 O0 1.943405 1_545
Cr4 O16 2.022871 1_555
Cr4 O17 2.022871 1_544
Cr4 O29 2.079762 1_554
Cr4 O11 2.079762 1_545
Cr5 O14 1.943405 1_555
Cr5 O25 1.943405 1_455
Cr5 O19 2.022871 1_555
Cr5 O23 2.022871 1_455
Cr5 O13 2.079762 1_555
Cr5 O2 2.079762 1_455
O0 P4 1.554397 1_555
O1 P0 1.549538 1_555
O2 P1 1.611588 1_555
O3 P6 1.528026 1_555
O4 P1 1.512218 1_455
O5 P2 1.561638 1_555
O6 P1 1.513504 1_545
O7 P7 1.513504 1_565
O8 P6 1.549538 1_554
O9 P5 1.512218 1_545
O10 P3 1.513504 1_655
O11 P5 1.611588 1_555
O12 P0 1.528026 1_555
O13 P7 1.611588 1_555
O14 P0 1.554397 1_555
O15 P6 1.561638 1_555
O16 P7 1.612433 1_555
O17 P1 1.612433 1_555
O18 P3 1.512218 1_565
O19 P3 1.612433 1_555
O20 P4 1.561638 1_555
O21 P4 1.528026 1_555
O22 P2 1.549538 1_555
O23 P5 1.612433 1_555
O24 P0 1.561638 1_555
O25 P2 1.554397 1_555
O26 P7 1.512218 1_655
O27 P5 1.513504 1_455
O28 P2 1.528026 1_555
O29 P3 1.611588 1_555
O30 P6 1.554397 1_555
O31 P4 1.549538 1_556
