# generated using pymatgen
data_Na4CaFe4(PO4)6
_symmetry_space_group_name_H-M   'P 1'
_cell_length_a   9.44702451
_cell_length_b   9.44702451
_cell_length_c   7.21487830
_cell_angle_alpha   72.83266397
_cell_angle_beta   72.83266397
_cell_angle_gamma   96.16053150
_symmetry_Int_Tables_number   1
_chemical_formula_structural   Na4CaFe4(PO4)6
_chemical_formula_sum   'Na4 Ca1 Fe4 P6 O24'
_cell_volume   574.31562837
_cell_formula_units_Z   1
loop_
 _symmetry_equiv_pos_site_id
 _symmetry_equiv_pos_as_xyz
  1  'x, y, z'
loop_
 _atom_site_type_symbol
 _atom_site_label
 _atom_site_symmetry_multiplicity
 _atom_site_fract_x
 _atom_site_fract_y
 _atom_site_fract_z
 _atom_site_occupancy
  Na  Na0  1  0.48086300  0.58497000  0.20606800  1
  Na  Na1  1  0.99624600  0.00375400  0.50000000  1
  Na  Na2  1  0.63667400  0.36332600  0.50000000  1
  Na  Na3  1  0.41503000  0.51913700  0.79393200  1
  Ca  Ca0  1  0.23377000  0.76623000  0.00000000  1
  Fe  Fe0  1  0.33421400  0.09009100  0.13503100  1
  Fe  Fe1  1  0.90990900  0.66578600  0.86496900  1
  Fe  Fe2  1  0.01794700  0.32523500  0.70710700  1
  Fe  Fe3  1  0.67476500  0.98205300  0.29289300  1
  P  P0  1  0.89342600  0.33952900  0.15976600  1
  P  P1  1  0.02026800  0.97973200  0.00000000  1
  P  P2  1  0.66047100  0.10657400  0.84023400  1
  P  P3  1  0.59056600  0.93135000  0.67322700  1
  P  P4  1  0.21238900  0.78761100  0.50000000  1
  P  P5  1  0.06865000  0.40943400  0.32677300  1
  O  O0  1  0.53210200  0.08982700  0.73536600  1
  O  O1  1  0.96171300  0.42489200  0.92489600  1
  O  O2  1  0.76349300  0.26055800  0.75163900  1
  O  O3  1  0.39388200  0.28507600  0.02877800  1
  O  O4  1  0.17565100  0.99617700  0.03948500  1
  O  O5  1  0.48763300  0.79234200  0.84688400  1
  O  O6  1  0.20765800  0.51236700  0.15311600  1
  O  O7  1  0.00382300  0.82434900  0.96051500  1
  O  O8  1  0.71492400  0.60611800  0.97122200  1
  O  O9  1  0.01681200  0.26028500  0.24890300  1
  O  O10  1  0.73944200  0.23650700  0.24836100  1
  O  O11  1  0.57510800  0.03828700  0.07510400  1
  O  O12  1  0.25369400  0.96831600  0.43132600  1
  O  O13  1  0.28635200  0.74437300  0.30966600  1
  O  O14  1  0.91017300  0.46789800  0.26463400  1
  O  O15  1  0.24962600  0.35593100  0.55471600  1
  O  O16  1  0.02135700  0.10465100  0.80564200  1
  O  O17  1  0.61218700  0.61026200  0.44375500  1
  O  O18  1  0.38973800  0.38781300  0.55624500  1
  O  O19  1  0.89534900  0.97864300  0.19435800  1
  O  O20  1  0.64406900  0.75037400  0.44528400  1
  O  O21  1  0.25562700  0.71364800  0.69033400  1
  O  O22  1  0.03168400  0.74630600  0.56867400  1
  O  O23  1  0.73971500  0.98318800  0.75109700  1
loop_
_geom_bond_atom_site_label_1
_geom_bond_atom_site_label_2
_geom_bond_distance
_geom_bond_site_symmetry_2
Na0 O8 2.300828 1_554
Na0 O17 2.443613 1_555
Na0 O18 2.487433 1_555
Na0 O13 2.578860 1_555
Na0 O5 2.726896 1_554
Na0 O6 2.763086 1_555
Na1 O12 2.415383 1_645
Na1 O22 2.415383 1_645
Na1 O23 2.508442 1_545
Na1 O9 2.508442 1_655
Na1 O16 2.707156 1_655
Na1 O19 2.707156 1_545
Na2 O18 2.296213 1_555
Na2 O17 2.296213 1_555
Na2 O10 2.483399 1_555
Na2 O2 2.483399 1_555
Na2 O14 2.531230 1_555
Na2 O0 2.531230 1_555
Na3 O3 2.300828 1_556
Na3 O18 2.443613 1_555
Na3 O17 2.487433 1_555
Na3 O21 2.578860 1_555
Na3 O6 2.726896 1_556
Na3 O5 2.763086 1_555
Ca0 O6 2.276181 1_555
Ca0 O5 2.276181 1_554
Ca0 O4 2.372877 1_555
Ca0 O7 2.372877 1_554
Ca0 O13 2.384511 1_555
Ca0 O21 2.384511 1_554
Fe0 O3 1.728276 1_555
Fe0 O12 1.967851 1_545
Fe0 O4 2.047334 1_545
Fe0 O11 2.321314 1_555
Fe1 O8 1.728276 1_555
Fe1 O22 1.967851 1_655
Fe1 O7 2.047334 1_655
Fe1 O1 2.321314 1_555
Fe2 O16 2.000577 1_555
Fe2 O1 2.031128 1_455
Fe2 O15 2.082847 1_555
Fe2 O2 2.316876 1_455
Fe2 P5 2.499164 1_555
Fe3 O19 2.000577 1_555
Fe3 O11 2.031128 1_565
Fe3 O20 2.082847 1_555
Fe3 O10 2.316876 1_565
Fe3 P3 2.499164 1_555
O0 P2 1.624586 1_555
O0 P3 1.781850 1_545
O1 P0 1.540885 1_556
O2 P2 1.500633 1_555
O4 P1 1.576098 1_555
O5 P3 1.508414 1_555
O6 P5 1.508414 1_555
O7 P1 1.576098 1_556
O9 P0 1.636559 1_455
O9 P5 1.738511 1_555
O10 P0 1.500633 1_555
O11 P2 1.540885 1_554
O12 P4 1.598627 1_555
O13 P4 1.538443 1_555
O14 P0 1.624586 1_555
O14 P5 1.781850 1_655
O15 O18 1.329616 1_555
O16 P1 1.539843 1_546
O17 O20 1.329616 1_555
O19 P1 1.539843 1_655
O21 P4 1.538443 1_555
O22 P4 1.598627 1_555
O23 P2 1.636559 1_565
O23 P3 1.738511 1_555
