# generated using pymatgen
data_YbSeClO3
_symmetry_space_group_name_H-M   'P 1'
_cell_length_a   7.24369400
_cell_length_b   7.45258800
_cell_length_c   8.66533000
_cell_angle_alpha   90.00000000
_cell_angle_beta   90.00000000
_cell_angle_gamma   90.00000000
_symmetry_Int_Tables_number   1
_chemical_formula_structural   YbSeClO3
_chemical_formula_sum   'Yb4 Se4 Cl4 O12'
_cell_volume   467.79148819
_cell_formula_units_Z   4
loop_
 _symmetry_equiv_pos_site_id
 _symmetry_equiv_pos_as_xyz
  1  'x, y, z'
loop_
 _atom_site_type_symbol
 _atom_site_label
 _atom_site_symmetry_multiplicity
 _atom_site_fract_x
 _atom_site_fract_y
 _atom_site_fract_z
 _atom_site_occupancy
  Yb  Yb0  1  0.75000000  0.10996600  0.55332300  1
  Yb  Yb1  1  0.75000000  0.60996600  0.94667700  1
  Yb  Yb2  1  0.25000000  0.89003400  0.44667700  1
  Yb  Yb3  1  0.25000000  0.39003400  0.05332300  1
  Se  Se0  1  0.25000000  0.77026600  0.88134900  1
  Se  Se1  1  0.75000000  0.72973400  0.38134900  1
  Se  Se2  1  0.75000000  0.22973400  0.11865100  1
  Se  Se3  1  0.25000000  0.27026600  0.61865100  1
  Cl  Cl0  1  0.25000000  0.52731000  0.35298100  1
  Cl  Cl1  1  0.75000000  0.47269000  0.64701900  1
  Cl  Cl2  1  0.25000000  0.02731000  0.14701900  1
  Cl  Cl3  1  0.75000000  0.97269000  0.85298100  1
  O  O0  1  0.07111400  0.13992000  0.55820700  1
  O  O1  1  0.07111400  0.63992000  0.94179300  1
  O  O2  1  0.92888600  0.86008000  0.44179300  1
  O  O3  1  0.57111400  0.36008000  0.05820700  1
  O  O4  1  0.57111400  0.86008000  0.44179300  1
  O  O5  1  0.75000000  0.22799300  0.31293500  1
  O  O6  1  0.42888600  0.13992000  0.55820700  1
  O  O7  1  0.75000000  0.72799300  0.18706500  1
  O  O8  1  0.25000000  0.77200700  0.68706500  1
  O  O9  1  0.25000000  0.27200700  0.81293500  1
  O  O10  1  0.92888600  0.36008000  0.05820700  1
  O  O11  1  0.42888600  0.63992000  0.94179300  1
loop_
_geom_bond_atom_site_label_1
_geom_bond_atom_site_label_2
_geom_bond_distance
_geom_bond_site_symmetry_2
Cl0 Yb3 2.790909 1_555
Cl0 Yb2 2.822527 1_555
Cl1 Yb1 2.790909 1_555
Cl1 Yb0 2.822527 1_555
Cl2 Yb2 2.790909 1_545
Cl2 Yb3 2.822527 1_555
Cl3 Yb0 2.790909 1_565
Cl3 Yb1 2.822527 1_555
O0 Se3 1.702077 1_555
O0 Yb0 2.337122 1_455
O0 Yb2 2.466019 1_545
O1 Se0 1.702077 1_555
O1 Yb1 2.337122 1_455
O1 Yb3 2.466019 1_556
O2 Se1 1.702077 1_555
O2 Yb2 2.337122 1_655
O2 Yb0 2.466019 1_565
O3 Se2 1.702077 1_555
O3 Yb3 2.337122 1_555
O3 Yb1 2.466019 1_554
O4 Se1 1.702077 1_555
O4 Yb2 2.337122 1_555
O4 Yb0 2.466019 1_565
O5 Se2 1.683585 1_555
O5 Yb0 2.261143 1_555
O6 Se3 1.702077 1_555
O6 Yb0 2.337122 1_555
O6 Yb2 2.466019 1_545
O7 Se1 1.683585 1_555
O7 Yb1 2.261143 1_554
O8 Se0 1.683585 1_555
O8 Yb2 2.261143 1_555
O9 Se3 1.683585 1_555
O9 Yb3 2.261143 1_556
O10 Se2 1.702077 1_555
O10 Yb3 2.337122 1_655
O10 Yb1 2.466019 1_554
O11 Se0 1.702077 1_555
O11 Yb1 2.337122 1_555
O11 Yb3 2.466019 1_556
