# generated using pymatgen
data_Na(WO3)2
_symmetry_space_group_name_H-M   'P 1'
_cell_length_a   5.52860399
_cell_length_b   5.52860399
_cell_length_c   5.52860399
_cell_angle_alpha   120.00531310
_cell_angle_beta   119.99348991
_cell_angle_gamma   90.00103693
_symmetry_Int_Tables_number   1
_chemical_formula_structural   Na(WO3)2
_chemical_formula_sum   'Na1 W2 O6'
_cell_volume   119.49104924
_cell_formula_units_Z   1
loop_
 _symmetry_equiv_pos_site_id
 _symmetry_equiv_pos_as_xyz
  1  'x, y, z'
loop_
 _atom_site_type_symbol
 _atom_site_label
 _atom_site_symmetry_multiplicity
 _atom_site_fract_x
 _atom_site_fract_y
 _atom_site_fract_z
 _atom_site_occupancy
  Na  Na0  1  0.00000000  0.99996200  0.99996200  1
  W  W0  1  0.25235400  0.75770800  0.50535400  1
  W  W1  1  0.74764600  0.25299900  0.50535400  1
  O  O0  1  0.99978400  0.00611400  0.50512100  1
  O  O1  1  0.49900700  0.50533600  0.50512100  1
  O  O2  1  0.50000000  0.00943300  0.50943300  1
  O  O3  1  0.50099300  0.00611400  0.00633000  1
  O  O4  1  0.00000000  0.49796100  0.49796100  1
  O  O5  1  0.00021600  0.50533600  0.00633000  1
loop_
_geom_bond_atom_site_label_1
_geom_bond_atom_site_label_2
_geom_bond_distance
_geom_bond_site_symmetry_2
Na0 O0 2.752353 1_465
Na0 O3 2.752353 1_566
Na0 O1 2.752356 1_455
Na0 O5 2.752359 1_556
Na0 O4 2.753018 1_566
Na0 O2 2.765070 1_566
Na0 O2 2.765070 1_465
Na0 O4 2.775142 1_555
Na0 O5 2.776567 1_566
Na0 O1 2.776570 1_566
Na0 O3 2.776572 1_466
Na0 O0 2.776572 1_466
O0 W1 1.950973 1_555
O0 W0 1.958551 1_645
O1 W0 1.950981 1_555
O1 W1 1.958551 1_555
O2 W1 1.936362 1_555
O2 W0 1.936365 1_545
O3 W1 1.950977 1_555
O3 W0 1.958551 1_544
O4 W0 1.973467 1_555
O4 W1 1.973471 1_455
O5 W0 1.950977 1_555
O5 W1 1.958551 1_454
