# generated using pymatgen
data_Al(Ag3S2)3
_symmetry_space_group_name_H-M   'P 1'
_cell_length_a   7.67634600
_cell_length_b   7.79172757
_cell_length_c   7.93219893
_cell_angle_alpha   63.21588626
_cell_angle_beta   62.52017604
_cell_angle_gamma   61.26076419
_symmetry_Int_Tables_number   1
_chemical_formula_structural   Al(Ag3S2)3
_chemical_formula_sum   'Al1 Ag9 S6'
_cell_volume   352.74260831
_cell_formula_units_Z   1
loop_
 _symmetry_equiv_pos_site_id
 _symmetry_equiv_pos_as_xyz
  1  'x, y, z'
loop_
 _atom_site_type_symbol
 _atom_site_label
 _atom_site_symmetry_multiplicity
 _atom_site_fract_x
 _atom_site_fract_y
 _atom_site_fract_z
 _atom_site_occupancy
  Al  Al0  1  0.52295400  0.47179100  0.50163700  1
  Ag  Ag0  1  0.45655800  0.02272800  0.48693200  1
  Ag  Ag1  1  0.01186900  0.46118700  0.04130600  1
  Ag  Ag2  1  0.02551300  0.05915700  0.41051300  1
  Ag  Ag3  1  0.05312600  0.40940200  0.49764800  1
  Ag  Ag4  1  0.82900200  0.77573400  0.25282700  1
  Ag  Ag5  1  0.25366700  0.77878900  0.14981900  1
  Ag  Ag6  1  0.28786400  0.14970200  0.84086700  1
  Ag  Ag7  1  0.10879900  0.83385300  0.78487200  1
  Ag  Ag8  1  0.69477600  0.41210600  0.94917200  1
  S  S0  1  0.27772300  0.24221800  0.22476300  1
  S  S1  1  0.61221600  0.61848000  0.16598900  1
  S  S2  1  0.64396100  0.12946700  0.60199400  1
  S  S3  1  0.64074700  0.61133100  0.60857400  1
  S  S4  1  0.16451700  0.59239100  0.62829400  1
  S  S5  1  0.97320800  0.04356600  0.99709200  1
loop_
_geom_bond_atom_site_label_1
_geom_bond_atom_site_label_2
_geom_bond_distance
_geom_bond_site_symmetry_2
Al0 S2 2.235433 1_555
Al0 S1 2.278448 1_555
Al0 S3 2.281166 1_555
Al0 S4 2.297042 1_555
Ag0 S0 2.511098 1_555
Ag0 S2 2.576929 1_555
Ag0 S3 2.705249 1_545
Ag1 S0 2.519551 1_555
Ag1 S1 2.562929 1_455
Ag1 S4 2.782389 1_554
Ag2 S0 2.466304 1_555
Ag2 S2 2.507398 1_455
Ag2 S4 3.107537 1_545
Ag3 S0 2.508429 1_555
Ag3 S3 2.675460 1_455
Ag3 S4 2.675793 1_555
Ag4 S5 2.455458 1_564
Ag4 S3 2.539901 1_555
Ag4 S1 2.919663 1_555
Ag5 S1 2.455080 1_555
Ag5 S5 2.498416 1_464
Ag6 S2 2.482348 1_555
Ag6 S5 2.507724 1_455
Ag6 S4 2.954369 1_555
Ag7 S5 2.411158 1_465
Ag7 S4 2.471258 1_555
Ag8 S1 2.540025 1_556
Ag8 S3 2.552650 1_555
Ag8 S5 2.611990 1_555
