# generated using pymatgen
data_HfMoSe
_symmetry_space_group_name_H-M   'P 1'
_cell_length_a   4.49444990
_cell_length_b   4.49444990
_cell_length_c   4.49444990
_cell_angle_alpha   60.00000000
_cell_angle_beta   60.00000000
_cell_angle_gamma   60.00000000
_symmetry_Int_Tables_number   1
_chemical_formula_structural   HfMoSe
_chemical_formula_sum   'Hf1 Mo1 Se1'
_cell_volume   64.19698506
_cell_formula_units_Z   1
loop_
 _symmetry_equiv_pos_site_id
 _symmetry_equiv_pos_as_xyz
  1  'x, y, z'
loop_
 _atom_site_type_symbol
 _atom_site_label
 _atom_site_symmetry_multiplicity
 _atom_site_fract_x
 _atom_site_fract_y
 _atom_site_fract_z
 _atom_site_occupancy
  Hf  Hf0  1  0.75000000  0.75000000  0.75000000  1
  Mo  Mo0  1  0.00000000  0.00000000  0.00000000  1
  Se  Se0  1  0.50000000  0.50000000  0.50000000  1
loop_
_geom_bond_atom_site_label_1
_geom_bond_atom_site_label_2
_geom_bond_distance
_geom_bond_site_symmetry_2
Hf0 Mo0 2.752277 1_666
Hf0 Se0 2.752277 1_655
Hf0 Mo0 2.752277 1_566
Hf0 Se0 2.752277 1_556
Hf0 Mo0 2.752277 1_656
Hf0 Mo0 2.752277 1_665
Hf0 Se0 2.752277 1_565
Hf0 Se0 2.752277 1_555
