# generated using pymatgen
data_Mn3Au
_symmetry_space_group_name_H-M   'P 1'
_cell_length_a   4.41922900
_cell_length_b   4.41922900
_cell_length_c   9.28129300
_cell_angle_alpha   90.00000000
_cell_angle_beta   90.00000000
_cell_angle_gamma   90.00000000
_symmetry_Int_Tables_number   1
_chemical_formula_structural   Mn3Au
_chemical_formula_sum   'Mn9 Au3'
_cell_volume   181.25980013
_cell_formula_units_Z   3
loop_
 _symmetry_equiv_pos_site_id
 _symmetry_equiv_pos_as_xyz
  1  'x, y, z'
loop_
 _atom_site_type_symbol
 _atom_site_label
 _atom_site_symmetry_multiplicity
 _atom_site_fract_x
 _atom_site_fract_y
 _atom_site_fract_z
 _atom_site_occupancy
  Mn  Mn0  1  0.50000000  0.50000000  0.67772700  1
  Mn  Mn1  1  0.50000000  0.50000000  0.32227300  1
  Mn  Mn2  1  0.50000000  0.00000000  0.16458000  1
  Mn  Mn3  1  0.00000000  0.50000000  0.16458000  1
  Mn  Mn4  1  0.00000000  0.00000000  0.32759900  1
  Mn  Mn5  1  0.50000000  0.00000000  0.83542000  1
  Mn  Mn6  1  0.00000000  0.00000000  0.67240100  1
  Mn  Mn7  1  0.50000000  0.50000000  0.00000000  1
  Mn  Mn8  1  0.00000000  0.50000000  0.83542000  1
  Au  Au0  1  0.50000000  0.00000000  0.50000000  1
  Au  Au1  1  0.00000000  0.00000000  0.00000000  1
  Au  Au2  1  0.00000000  0.50000000  0.50000000  1
loop_
_geom_bond_atom_site_label_1
_geom_bond_atom_site_label_2
_geom_bond_distance
_geom_bond_site_symmetry_2
Mn0 Mn8 2.650379 1_655
Mn0 Mn5 2.650379 1_565
Mn0 Mn8 2.650379 1_555
Mn0 Mn5 2.650379 1_555
Mn1 Mn3 2.650379 1_655
Mn1 Mn2 2.650379 1_555
Mn1 Mn3 2.650379 1_555
Mn1 Mn2 2.650379 1_565
Mn2 Mn4 2.677993 1_555
Mn2 Mn4 2.677993 1_655
Mn2 Mn7 2.686205 1_555
Mn2 Mn7 2.686205 1_545
Mn3 Mn4 2.677993 1_555
Mn3 Mn4 2.677993 1_565
Mn3 Mn7 2.686205 1_555
Mn3 Mn7 2.686205 1_455
Mn5 Mn6 2.677993 1_655
Mn5 Mn6 2.677993 1_555
Mn5 Mn7 2.686205 1_546
Mn5 Mn7 2.686205 1_556
Mn6 Mn8 2.677993 1_555
Mn6 Mn8 2.677993 1_545
Mn7 Mn8 2.686205 1_654
Mn7 Mn8 2.686205 1_554
Au0 Mn6 2.728137 1_655
Au0 Mn6 2.728137 1_555
Au0 Mn4 2.728137 1_555
Au0 Mn4 2.728137 1_655
Au0 Mn0 2.757420 1_545
Au0 Mn0 2.757420 1_555
Au0 Mn1 2.757420 1_555
Au0 Mn1 2.757420 1_545
Au1 Mn5 2.686205 1_554
Au1 Mn8 2.686205 1_554
Au1 Mn8 2.686205 1_544
Au1 Mn5 2.686205 1_454
Au1 Mn2 2.686205 1_455
Au1 Mn3 2.686205 1_545
Au1 Mn2 2.686205 1_555
Au1 Mn3 2.686205 1_555
Au2 Mn6 2.728137 1_565
Au2 Mn6 2.728137 1_555
Au2 Mn4 2.728137 1_565
Au2 Mn4 2.728137 1_555
Au2 Mn0 2.757420 1_455
Au2 Mn0 2.757420 1_555
Au2 Mn1 2.757420 1_555
Au2 Mn1 2.757420 1_455
