# generated using pymatgen
data_Ti5ZnBi2(Pb2O9)2
_symmetry_space_group_name_H-M   'P 1'
_cell_length_a   6.00543893
_cell_length_b   6.00543893
_cell_length_c   14.28297244
_cell_angle_alpha   81.32518929
_cell_angle_beta   81.32518929
_cell_angle_gamma   54.12261067
_symmetry_Int_Tables_number   1
_chemical_formula_structural   Ti5ZnBi2(Pb2O9)2
_chemical_formula_sum   'Ti5 Zn1 Bi2 Pb4 O18'
_cell_volume   411.35742935
_cell_formula_units_Z   1
loop_
 _symmetry_equiv_pos_site_id
 _symmetry_equiv_pos_as_xyz
  1  'x, y, z'
loop_
 _atom_site_type_symbol
 _atom_site_label
 _atom_site_symmetry_multiplicity
 _atom_site_fract_x
 _atom_site_fract_y
 _atom_site_fract_z
 _atom_site_occupancy
  Ti  Ti0  1  0.34519100  0.34519100  0.91526800  1
  Ti  Ti1  1  0.01012900  0.01012900  0.75484700  1
  Ti  Ti2  1  0.67647700  0.67647700  0.58683200  1
  Ti  Ti3  1  0.34432400  0.34432400  0.42228100  1
  Ti  Ti4  1  0.68044800  0.68044800  0.08583600  1
  Zn  Zn0  1  0.98561400  0.98561400  0.25344900  1
  Bi  Bi0  1  0.64501600  0.64501600  0.31595000  1
  Bi  Bi1  1  0.30205200  0.30205200  0.16104600  1
  Pb  Pb0  1  0.98994600  0.98994600  0.00715400  1
  Pb  Pb1  1  0.66077100  0.66077100  0.82768800  1
  Pb  Pb2  1  0.32748400  0.32748400  0.66155600  1
  Pb  Pb3  1  0.99863400  0.99863400  0.49171400  1
  O  O0  1  0.20618400  0.70945400  0.85599000  1
  O  O1  1  0.21535200  0.21535200  0.85294800  1
  O  O2  1  0.70945400  0.20618400  0.85599000  1
  O  O3  1  0.88045900  0.88045900  0.69223400  1
  O  O4  1  0.87539200  0.37736800  0.68920200  1
  O  O5  1  0.37736800  0.87539200  0.68920200  1
  O  O6  1  0.54346100  0.04181200  0.52078000  1
  O  O7  1  0.54792200  0.54792200  0.52488200  1
  O  O8  1  0.04181200  0.54346100  0.52078000  1
  O  O9  1  0.23140000  0.70836200  0.35957400  1
  O  O10  1  0.22729800  0.22729800  0.34708300  1
  O  O11  1  0.70836200  0.23140000  0.35957400  1
  O  O12  1  0.87612800  0.37955800  0.18917300  1
  O  O13  1  0.85277500  0.85277500  0.17668000  1
  O  O14  1  0.37955800  0.87612800  0.18917300  1
  O  O15  1  0.52823300  0.05014500  0.02262600  1
  O  O16  1  0.54514300  0.54514300  0.02912900  1
  O  O17  1  0.05014500  0.52823300  0.02262600  1
loop_
_geom_bond_atom_site_label_1
_geom_bond_atom_site_label_2
_geom_bond_distance
_geom_bond_site_symmetry_2
Bi0 O9 2.280350 1_555
Bi0 O11 2.280350 1_555
Bi0 O14 2.294745 1_555
Bi0 O12 2.294745 1_555
Bi0 O13 2.719855 1_555
Bi1 O14 2.296007 1_545
Bi1 O12 2.296007 1_455
Bi1 O15 2.392896 1_555
Bi1 O17 2.392896 1_555
Bi1 O10 2.641995 1_555
O0 Ti0 1.926964 1_555
O0 Ti1 1.991984 1_565
O0 Pb1 2.543422 1_555
O0 Pb0 2.621602 1_456
O1 Ti0 1.771908 1_555
O1 Pb2 2.792971 1_555
O1 Pb1 2.829646 1_545
O1 Pb1 2.829646 1_455
O2 Ti0 1.926964 1_555
O2 Ti1 1.991984 1_655
O2 Pb1 2.543422 1_555
O2 Pb0 2.621602 1_546
O3 Ti1 1.773000 1_665
O3 Pb1 2.779298 1_555
O3 Pb2 2.839316 1_565
O3 Pb2 2.839316 1_655
O4 Ti1 1.977673 1_655
O4 Ti2 2.002754 1_555
O4 Pb1 2.479041 1_555
O4 Pb2 2.525056 1_655
O5 Ti1 1.977673 1_565
O5 Ti2 2.002754 1_555
O5 Pb1 2.479041 1_555
O5 Pb2 2.525056 1_565
O6 Ti2 1.972432 1_545
O6 Ti3 1.974816 1_555
O6 Pb2 2.512802 1_555
O6 Pb3 2.563404 1_545
O7 Ti2 1.756621 1_555
O7 Pb2 2.794783 1_555
O8 Ti2 1.972432 1_455
O8 Ti3 1.974816 1_555
O8 Pb2 2.512802 1_555
O8 Pb3 2.563404 1_455
O9 Ti3 1.973927 1_555
O9 Zn0 2.069197 1_455
O9 Pb3 2.428038 1_455
O10 Ti3 1.782060 1_555
O11 Ti3 1.973927 1_555
O11 Zn0 2.069197 1_545
O11 Pb3 2.428038 1_545
O12 Ti4 2.013544 1_555
O12 Zn0 2.139121 1_545
O13 Zn0 1.936181 1_555
O13 Ti4 2.427151 1_555
O13 Pb0 2.609998 1_555
O14 Ti4 2.013544 1_555
O14 Zn0 2.139121 1_455
O15 Ti4 1.960984 1_545
O15 Ti0 2.026109 1_554
O15 Pb0 2.555819 1_545
O16 Ti4 1.774117 1_555
O16 Pb0 2.823898 1_545
O16 Pb0 2.823898 1_455
O17 Ti4 1.960984 1_455
O17 Ti0 2.026109 1_554
O17 Pb0 2.555819 1_455
