# generated using pymatgen
data_Tb2EuSe4
_symmetry_space_group_name_H-M   'P 1'
_cell_length_a   4.13517528
_cell_length_b   12.48679118
_cell_length_c   14.94252562
_cell_angle_alpha   90.00000000
_cell_angle_beta   90.00000000
_cell_angle_gamma   90.00000000
_symmetry_Int_Tables_number   1
_chemical_formula_structural   Tb2EuSe4
_chemical_formula_sum   'Tb8 Eu4 Se16'
_cell_volume   771.55835956
_cell_formula_units_Z   4
loop_
 _symmetry_equiv_pos_site_id
 _symmetry_equiv_pos_as_xyz
  1  'x, y, z'
loop_
 _atom_site_type_symbol
 _atom_site_label
 _atom_site_symmetry_multiplicity
 _atom_site_fract_x
 _atom_site_fract_y
 _atom_site_fract_z
 _atom_site_occupancy
  Tb  Tb0  1  0.75000000  0.06785955  0.88926385  1
  Tb  Tb1  1  0.75000000  0.08151557  0.40098903  1
  Tb  Tb2  1  0.25000000  0.91848443  0.59901097  1
  Tb  Tb3  1  0.75000000  0.56785955  0.61073615  1
  Tb  Tb4  1  0.25000000  0.93214045  0.11073615  1
  Tb  Tb5  1  0.25000000  0.41848443  0.90098903  1
  Tb  Tb6  1  0.75000000  0.58151557  0.09901097  1
  Tb  Tb7  1  0.25000000  0.43214045  0.38926385  1
  Eu  Eu0  1  0.25000000  0.25704355  0.16330011  1
  Eu  Eu1  1  0.25000000  0.75704355  0.33669989  1
  Eu  Eu2  1  0.75000000  0.74295645  0.83669989  1
  Eu  Eu3  1  0.75000000  0.24295645  0.66330011  1
  Se  Se0  1  0.75000000  0.47760509  0.78453089  1
  Se  Se1  1  0.75000000  0.08831032  0.07941322  1
  Se  Se2  1  0.25000000  0.20841739  0.82174847  1
  Se  Se3  1  0.75000000  0.29158261  0.32174847  1
  Se  Se4  1  0.25000000  0.70841739  0.67825153  1
  Se  Se5  1  0.25000000  0.91168968  0.92058678  1
  Se  Se6  1  0.25000000  0.13354691  0.52944851  1
  Se  Se7  1  0.25000000  0.52239491  0.21546911  1
  Se  Se8  1  0.75000000  0.79158261  0.17825153  1
  Se  Se9  1  0.25000000  0.63354691  0.97055149  1
  Se  Se10  1  0.75000000  0.36645309  0.02944851  1
  Se  Se11  1  0.25000000  0.41168968  0.57941322  1
  Se  Se12  1  0.75000000  0.97760509  0.71546911  1
  Se  Se13  1  0.75000000  0.58831032  0.42058678  1
  Se  Se14  1  0.25000000  0.02239491  0.28453089  1
  Se  Se15  1  0.75000000  0.86645309  0.47055149  1
loop_
_geom_bond_atom_site_label_1
_geom_bond_atom_site_label_2
_geom_bond_distance
_geom_bond_site_symmetry_2
Eu0 Se3 3.172781 1_555
Eu0 Se3 3.172781 1_455
Eu0 Se10 3.184600 1_455
Eu0 Se10 3.184600 1_555
Eu0 Se1 3.207073 1_455
Eu0 Se1 3.207073 1_555
Eu0 Se7 3.403852 1_555
Eu0 Se14 3.444773 1_555
Eu1 Se8 3.172781 1_455
Eu1 Se8 3.172781 1_555
Eu1 Se15 3.184600 1_455
Eu1 Se15 3.184600 1_555
Eu1 Se13 3.207073 1_455
Eu1 Se13 3.207073 1_555
Eu1 Se14 3.403852 1_565
Eu1 Se7 3.444773 1_555
Eu2 Se4 3.172781 1_555
Eu2 Se4 3.172781 1_655
Eu2 Se9 3.184600 1_555
Eu2 Se9 3.184600 1_655
Eu2 Se5 3.207073 1_655
Eu2 Se5 3.207073 1_555
Eu2 Se0 3.403852 1_555
Eu2 Se12 3.444773 1_555
Eu3 Se2 3.172781 1_655
Eu3 Se2 3.172781 1_555
Eu3 Se6 3.184600 1_555
Eu3 Se6 3.184600 1_655
Eu3 Se11 3.207073 1_555
Eu3 Se11 3.207073 1_655
Eu3 Se12 3.403852 1_545
Eu3 Se0 3.444773 1_555
Se0 Tb5 2.801450 1_555
Se0 Tb5 2.801450 1_655
Se0 Tb3 2.830929 1_555
Se1 Tb0 2.852764 1_554
Se1 Tb4 2.880403 1_545
Se1 Tb4 2.880403 1_645
Se2 Tb5 2.877924 1_555
Se2 Tb0 2.893636 1_555
Se2 Tb0 2.893636 1_455
Se3 Tb1 2.877924 1_555
Se3 Tb7 2.893636 1_655
Se3 Tb7 2.893636 1_555
Se4 Tb2 2.877924 1_555
Se4 Tb3 2.893636 1_455
Se4 Tb3 2.893636 1_555
Se5 Tb4 2.852764 1_556
Se5 Tb0 2.880403 1_565
Se5 Tb0 2.880403 1_465
Se6 Tb2 2.879587 1_545
Se6 Tb1 2.895091 1_455
Se6 Tb1 2.895091 1_555
Se7 Tb6 2.801450 1_455
Se7 Tb6 2.801450 1_555
Se7 Tb7 2.830929 1_555
Se8 Tb6 2.877924 1_555
Se8 Tb4 2.893636 1_555
Se8 Tb4 2.893636 1_655
Se9 Tb5 2.879587 1_555
Se9 Tb6 2.895091 1_456
Se9 Tb6 2.895091 1_556
Se10 Tb6 2.879587 1_555
Se10 Tb5 2.895091 1_554
Se10 Tb5 2.895091 1_654
Se11 Tb7 2.852764 1_555
Se11 Tb3 2.880403 1_455
Se11 Tb3 2.880403 1_555
Se12 Tb2 2.801450 1_555
Se12 Tb2 2.801450 1_655
Se12 Tb0 2.830929 1_565
Se13 Tb3 2.852764 1_555
Se13 Tb7 2.880403 1_555
Se13 Tb7 2.880403 1_655
Se14 Tb1 2.801450 1_455
Se14 Tb1 2.801450 1_555
Se14 Tb4 2.830929 1_545
Se15 Tb1 2.879587 1_565
Se15 Tb2 2.895091 1_555
Se15 Tb2 2.895091 1_655
