# generated using pymatgen
data_NdPb6F15
_symmetry_space_group_name_H-M   'P 1'
_cell_length_a   24.60887965
_cell_length_b   24.60887965
_cell_length_c   24.94438892
_cell_angle_alpha   9.66001484
_cell_angle_beta   9.66001484
_cell_angle_gamma   9.82762691
_symmetry_Int_Tables_number   1
_chemical_formula_structural   NdPb6F15
_chemical_formula_sum   'Nd1 Pb6 F15'
_cell_volume   373.41547497
_cell_formula_units_Z   1
loop_
 _symmetry_equiv_pos_site_id
 _symmetry_equiv_pos_as_xyz
  1  'x, y, z'
loop_
 _atom_site_type_symbol
 _atom_site_label
 _atom_site_symmetry_multiplicity
 _atom_site_fract_x
 _atom_site_fract_y
 _atom_site_fract_z
 _atom_site_occupancy
  Nd  Nd0  1  0.40354000  0.40354000  0.35266800  1
  Pb  Pb0  1  0.97590500  0.97590500  0.06328100  1
  Pb  Pb1  1  0.58043100  0.58043100  0.70434300  1
  Pb  Pb2  1  0.15237100  0.15237100  0.41817500  1
  Pb  Pb3  1  0.72004000  0.72004000  0.13968000  1
  Pb  Pb4  1  0.88135000  0.88135000  0.53180700  1
  Pb  Pb5  1  0.28783700  0.28783700  0.86136600  1
  F  F0  1  0.22707600  0.22707600  0.37434100  1
  F  F1  1  0.93991000  0.93991000  0.02028100  1
  F  F2  1  0.79491600  0.79491600  0.09808700  1
  F  F3  1  0.51378000  0.51378000  0.73427100  1
  F  F4  1  0.36278500  0.36278500  0.81972500  1
  F  F5  1  0.07930200  0.07930200  0.45837600  1
  F  F6  1  0.93241100  0.93241100  0.53568800  1
  F  F7  1  0.64818500  0.64818500  0.17745500  1
  F  F8  1  0.47308600  0.47308600  0.31182900  1
  F  F9  1  0.03634800  0.03634800  0.03991600  1
  F  F10  1  0.21221300  0.21221300  0.91048900  1
  F  F11  1  0.08136100  0.08136100  0.04953000  1
  F  F12  1  0.73209900  0.73209900  0.69843700  1
  F  F13  1  0.62158200  0.62158200  0.74149900  1
  F  F14  1  0.33718900  0.33718900  0.38589800  1
loop_
_geom_bond_atom_site_label_1
_geom_bond_atom_site_label_2
_geom_bond_distance
_geom_bond_site_symmetry_2
F0 Pb1 2.546354 1_554
F0 Pb2 2.586267 1_555
F0 Pb1 2.602788 1_455
F0 Pb1 2.602788 1_545
F1 Pb1 2.562971 1_654
F1 Pb1 2.562971 1_564
F1 Pb1 2.580810 1_555
F2 Pb2 2.567381 1_664
F2 Pb2 2.570805 1_565
F2 Pb2 2.570805 1_655
F2 Pb3 2.649375 1_555
F3 Pb1 2.532000 1_555
F3 Pb2 2.599731 1_565
F3 Pb2 2.599731 1_655
F3 Pb2 2.610387 1_556
F4 Pb3 2.564062 1_555
F4 Pb3 2.565983 1_456
F4 Pb3 2.565983 1_546
F4 Pb5 2.651727 1_555
F5 Pb3 2.588271 1_455
F5 Pb3 2.588271 1_545
F5 Pb3 2.588475 1_446
F5 Pb2 2.594925 1_555
F6 Pb5 2.559616 1_664
F6 Pb5 2.593776 1_655
F6 Pb5 2.593776 1_565
F6 Pb4 2.599698 1_555
F7 Pb5 2.579977 1_564
F7 Pb5 2.579977 1_654
F7 Pb5 2.594031 1_555
F7 Pb3 2.594795 1_555
F8 Nd0 2.406880 1_555
F8 Pb4 2.437516 1_545
F8 Pb4 2.437516 1_455
F9 Pb0 2.388746 1_445
F9 Nd0 2.678793 1_545
F9 Nd0 2.678793 1_455
F9 Nd0 2.693176 1_554
F10 Pb4 2.414364 1_446
F10 Pb5 2.502240 1_555
F10 Pb4 2.724420 1_545
F10 Pb4 2.724420 1_455
F11 Nd0 2.678624 1_455
F11 Nd0 2.678624 1_545
F11 Pb4 2.725066 1_445
F11 Nd0 2.880980 1_554
F12 Nd0 2.363716 1_556
F12 Nd0 2.453526 1_565
F12 Nd0 2.453526 1_655
F13 Pb0 2.531178 1_555
F13 Pb0 2.536186 1_456
F13 Pb0 2.536186 1_546
F14 Nd0 2.436441 1_555
F14 Pb0 2.642566 1_446
F14 Pb0 2.673632 1_545
F14 Pb0 2.673632 1_455
