# generated using pymatgen
data_Na26Cd141
_symmetry_space_group_name_H-M   'P 1'
_cell_length_a   21.70274208
_cell_length_b   21.70274208
_cell_length_c   9.80643300
_cell_angle_alpha   90.00000000
_cell_angle_beta   90.00000000
_cell_angle_gamma   120.00000025
_symmetry_Int_Tables_number   1
_chemical_formula_structural   Na26Cd141
_chemical_formula_sum   'Na26 Cd141'
_cell_volume   4000.10060809
_cell_formula_units_Z   1
loop_
 _symmetry_equiv_pos_site_id
 _symmetry_equiv_pos_as_xyz
  1  'x, y, z'
loop_
 _atom_site_type_symbol
 _atom_site_label
 _atom_site_symmetry_multiplicity
 _atom_site_fract_x
 _atom_site_fract_y
 _atom_site_fract_z
 _atom_site_occupancy
  Na  Na0  1  0.24163800  0.75836200  0.00000000  1
  Na  Na1  1  0.75836200  0.24163800  0.00000000  1
  Na  Na2  1  0.51672400  0.75836200  0.00000000  1
  Na  Na3  1  0.72358200  0.72358200  0.69145000  1
  Na  Na4  1  0.57560000  0.15119900  0.50000000  1
  Na  Na5  1  0.24163800  0.48327600  0.00000000  1
  Na  Na6  1  0.00000000  0.00000000  0.82370800  1
  Na  Na7  1  0.00000000  0.72358200  0.69145000  1
  Na  Na8  1  0.42440000  0.84880100  0.50000000  1
  Na  Na9  1  0.00000000  0.00000000  0.17629200  1
  Na  Na10  1  0.84880100  0.42440000  0.50000000  1
  Na  Na11  1  0.72358200  0.00000000  0.69145000  1
  Na  Na12  1  0.57560000  0.42440000  0.50000000  1
  Na  Na13  1  0.42440000  0.57560000  0.50000000  1
  Na  Na14  1  0.72358200  0.72358200  0.30855000  1
  Na  Na15  1  0.00000000  0.72358200  0.30855000  1
  Na  Na16  1  0.75836200  0.51672400  0.00000000  1
  Na  Na17  1  0.00000000  0.27641800  0.69145000  1
  Na  Na18  1  0.00000000  0.27641800  0.30855000  1
  Na  Na19  1  0.48327600  0.24163800  0.00000000  1
  Na  Na20  1  0.27641800  0.00000000  0.69145000  1
  Na  Na21  1  0.27641800  0.00000000  0.30855000  1
  Na  Na22  1  0.72358200  0.00000000  0.30855000  1
  Na  Na23  1  0.15119900  0.57560000  0.50000000  1
  Na  Na24  1  0.27641800  0.27641800  0.30855000  1
  Na  Na25  1  0.27641800  0.27641800  0.69145000  1
  Cd  Cd0  1  0.35771800  0.17885900  0.24308500  1
  Cd  Cd1  1  0.81123000  0.90561500  0.23836900  1
  Cd  Cd2  1  0.18877000  0.09438500  0.23836900  1
  Cd  Cd3  1  0.17885900  0.35771800  0.75691500  1
  Cd  Cd4  1  0.59185200  0.72099400  0.50000000  1
  Cd  Cd5  1  0.42042800  0.00000000  0.50000000  1
  Cd  Cd6  1  0.82114100  0.64228200  0.75691500  1
  Cd  Cd7  1  0.15032900  0.15032900  0.00000000  1
  Cd  Cd8  1  0.45444900  0.11088800  0.22402900  1
  Cd  Cd9  1  0.17885900  0.82114100  0.75691500  1
  Cd  Cd10  1  0.11088800  0.65643900  0.22402900  1
  Cd  Cd11  1  0.59185200  0.87085700  0.50000000  1
  Cd  Cd12  1  0.54555100  0.88911200  0.22402900  1
  Cd  Cd13  1  0.08344000  0.76677900  0.00000000  1
  Cd  Cd14  1  0.23322100  0.91656000  0.00000000  1
  Cd  Cd15  1  0.44624700  0.55375300  0.00000000  1
  Cd  Cd16  1  0.09438500  0.90561500  0.23836900  1
  Cd  Cd17  1  0.65643900  0.54555100  0.22402900  1
  Cd  Cd18  1  0.82114100  0.64228200  0.24308500  1
  Cd  Cd19  1  0.88911200  0.54555100  0.22402900  1
  Cd  Cd20  1  0.13826500  0.13826500  0.50000000  1
  Cd  Cd21  1  0.57957200  0.57957200  0.50000000  1
  Cd  Cd22  1  0.11088800  0.45444900  0.77597100  1
  Cd  Cd23  1  0.76160600  0.38080300  0.16125800  1
  Cd  Cd24  1  0.47629200  0.73814600  0.65467000  1
  Cd  Cd25  1  0.10750600  0.55375300  0.00000000  1
  Cd  Cd26  1  0.12914300  0.40814800  0.50000000  1
  Cd  Cd27  1  0.15032900  0.00000000  0.00000000  1
  Cd  Cd28  1  0.64228200  0.82114100  0.75691500  1
  Cd  Cd29  1  0.09438500  0.18877000  0.23836900  1
  Cd  Cd30  1  0.60664000  0.00000000  0.00000000  1
  Cd  Cd31  1  0.34356100  0.45444900  0.22402900  1
  Cd  Cd32  1  0.00000000  0.57957200  0.50000000  1
  Cd  Cd33  1  0.45444900  0.34356100  0.22402900  1
  Cd  Cd34  1  0.00000000  0.50000000  0.24619800  1
  Cd  Cd35  1  0.13649800  0.27299600  0.50000000  1
  Cd  Cd36  1  0.00000000  0.86173500  0.50000000  1
  Cd  Cd37  1  0.13826500  0.00000000  0.50000000  1
  Cd  Cd38  1  0.33333300  0.66666700  0.50000000  1
  Cd  Cd39  1  0.86350200  0.72700400  0.50000000  1
  Cd  Cd40  1  0.27900600  0.87085700  0.50000000  1
  Cd  Cd41  1  0.86173500  0.86173500  0.50000000  1
  Cd  Cd42  1  0.87085700  0.27900600  0.50000000  1
  Cd  Cd43  1  0.87085700  0.59185200  0.50000000  1
  Cd  Cd44  1  0.08344000  0.31666000  0.00000000  1
  Cd  Cd45  1  0.84967100  0.00000000  0.00000000  1
  Cd  Cd46  1  0.38080300  0.76160600  0.83874200  1
  Cd  Cd47  1  0.90561500  0.81123000  0.76163100  1
  Cd  Cd48  1  0.23322100  0.31666000  0.00000000  1
  Cd  Cd49  1  0.13649800  0.86350200  0.50000000  1
  Cd  Cd50  1  0.00000000  0.42042800  0.50000000  1
  Cd  Cd51  1  0.55375300  0.10750600  0.00000000  1
  Cd  Cd52  1  0.73814600  0.47629200  0.65467000  1
  Cd  Cd53  1  0.34356100  0.88911200  0.22402900  1
  Cd  Cd54  1  0.68334000  0.91656000  0.00000000  1
  Cd  Cd55  1  0.26185400  0.52370800  0.65467000  1
  Cd  Cd56  1  0.81123000  0.90561500  0.76163100  1
  Cd  Cd57  1  0.82114100  0.17885900  0.75691500  1
  Cd  Cd58  1  0.40814800  0.27900600  0.50000000  1
  Cd  Cd59  1  0.89249400  0.44624700  0.00000000  1
  Cd  Cd60  1  0.09438500  0.18877000  0.76163100  1
  Cd  Cd61  1  0.73814600  0.47629200  0.34533000  1
  Cd  Cd62  1  0.73814600  0.26185400  0.65467000  1
  Cd  Cd63  1  0.00000000  0.60664000  0.00000000  1
  Cd  Cd64  1  0.86350200  0.13649800  0.50000000  1
  Cd  Cd65  1  0.00000000  0.13826500  0.50000000  1
  Cd  Cd66  1  0.90561500  0.09438500  0.23836900  1
  Cd  Cd67  1  0.44624700  0.89249400  0.00000000  1
  Cd  Cd68  1  0.54555100  0.65643900  0.22402900  1
  Cd  Cd69  1  0.65643900  0.54555100  0.77597100  1
  Cd  Cd70  1  0.26185400  0.52370800  0.34533000  1
  Cd  Cd71  1  0.17885900  0.35771800  0.24308500  1
  Cd  Cd72  1  0.23839400  0.61919700  0.83874200  1
  Cd  Cd73  1  0.45444900  0.34356100  0.77597100  1
  Cd  Cd74  1  0.54555100  0.88911200  0.77597100  1
  Cd  Cd75  1  0.00000000  0.84967100  0.00000000  1
  Cd  Cd76  1  0.18877000  0.09438500  0.76163100  1
  Cd  Cd77  1  0.42042800  0.42042800  0.50000000  1
  Cd  Cd78  1  0.00000000  0.39336000  0.00000000  1
  Cd  Cd79  1  0.00000000  0.50000000  0.75380200  1
  Cd  Cd80  1  0.61919700  0.38080300  0.16125800  1
  Cd  Cd81  1  0.00000000  0.15032900  0.00000000  1
  Cd  Cd82  1  0.11088800  0.45444900  0.22402900  1
  Cd  Cd83  1  0.52370800  0.26185400  0.34533000  1
  Cd  Cd84  1  0.40814800  0.12914300  0.50000000  1
  Cd  Cd85  1  0.88911200  0.54555100  0.77597100  1
  Cd  Cd86  1  0.31666000  0.23322100  0.00000000  1
  Cd  Cd87  1  0.50000000  0.00000000  0.75380200  1
  Cd  Cd88  1  0.12914300  0.72099400  0.50000000  1
  Cd  Cd89  1  0.72700400  0.86350200  0.50000000  1
  Cd  Cd90  1  0.38080300  0.61919700  0.16125800  1
  Cd  Cd91  1  0.72099400  0.59185200  0.50000000  1
  Cd  Cd92  1  0.39336000  0.00000000  0.00000000  1
  Cd  Cd93  1  0.91656000  0.23322100  0.00000000  1
  Cd  Cd94  1  0.76677900  0.08344000  0.00000000  1
  Cd  Cd95  1  0.35771800  0.17885900  0.75691500  1
  Cd  Cd96  1  0.84967100  0.84967100  0.00000000  1
  Cd  Cd97  1  0.27299600  0.13649800  0.50000000  1
  Cd  Cd98  1  0.50000000  0.50000000  0.24619800  1
  Cd  Cd99  1  0.50000000  0.50000000  0.75380200  1
  Cd  Cd100  1  0.82114100  0.17885900  0.24308500  1
  Cd  Cd101  1  0.52370800  0.26185400  0.65467000  1
  Cd  Cd102  1  0.66666700  0.33333300  0.50000000  1
  Cd  Cd103  1  0.17885900  0.82114100  0.24308500  1
  Cd  Cd104  1  0.61919700  0.23839400  0.16125800  1
  Cd  Cd105  1  0.34356100  0.45444900  0.77597100  1
  Cd  Cd106  1  0.61919700  0.38080300  0.83874200  1
  Cd  Cd107  1  0.86173500  0.00000000  0.50000000  1
  Cd  Cd108  1  0.38080300  0.61919700  0.83874200  1
  Cd  Cd109  1  0.54555100  0.65643900  0.77597100  1
  Cd  Cd110  1  0.65643900  0.11088800  0.77597100  1
  Cd  Cd111  1  0.76160600  0.38080300  0.83874200  1
  Cd  Cd112  1  0.73814600  0.26185400  0.34533000  1
  Cd  Cd113  1  0.26185400  0.73814600  0.34533000  1
  Cd  Cd114  1  0.39336000  0.39336000  0.00000000  1
  Cd  Cd115  1  0.65643900  0.11088800  0.22402900  1
  Cd  Cd116  1  0.23839400  0.61919700  0.16125800  1
  Cd  Cd117  1  0.88911200  0.34356100  0.77597100  1
  Cd  Cd118  1  0.55375300  0.44624700  0.00000000  1
  Cd  Cd119  1  0.31666000  0.08344000  0.00000000  1
  Cd  Cd120  1  0.90561500  0.09438500  0.76163100  1
  Cd  Cd121  1  0.47629200  0.73814600  0.34533000  1
  Cd  Cd122  1  0.34356100  0.88911200  0.77597100  1
  Cd  Cd123  1  0.61919700  0.23839400  0.83874200  1
  Cd  Cd124  1  0.72099400  0.12914300  0.50000000  1
  Cd  Cd125  1  0.45444900  0.11088800  0.77597100  1
  Cd  Cd126  1  0.91656000  0.68334000  0.00000000  1
  Cd  Cd127  1  0.88911200  0.34356100  0.22402900  1
  Cd  Cd128  1  0.09438500  0.90561500  0.76163100  1
  Cd  Cd129  1  0.00000000  0.00000000  0.50000000  1
  Cd  Cd130  1  0.27900600  0.40814800  0.50000000  1
  Cd  Cd131  1  0.90561500  0.81123000  0.23836900  1
  Cd  Cd132  1  0.57957200  0.00000000  0.50000000  1
  Cd  Cd133  1  0.26185400  0.73814600  0.65467000  1
  Cd  Cd134  1  0.76677900  0.68334000  0.00000000  1
  Cd  Cd135  1  0.50000000  0.00000000  0.24619800  1
  Cd  Cd136  1  0.68334000  0.76677900  0.00000000  1
  Cd  Cd137  1  0.60664000  0.60664000  0.00000000  1
  Cd  Cd138  1  0.38080300  0.76160600  0.16125800  1
  Cd  Cd139  1  0.11088800  0.65643900  0.77597100  1
  Cd  Cd140  1  0.64228200  0.82114100  0.24308500  1
loop_
_geom_bond_atom_site_label_1
_geom_bond_atom_site_label_2
_geom_bond_distance
_geom_bond_site_symmetry_2
Na6 Na9 3.457591 1_556
Na11 Na22 3.754883 1_555
Na14 Na3 3.754883 1_555
Na15 Na7 3.754883 1_555
Na17 Na18 3.754883 1_555
Na20 Na21 3.754883 1_555
Na24 Na25 3.754883 1_555
Cd0 Cd97 2.980451 1_555
Cd0 Cd119 2.986579 1_555
Cd0 Cd86 2.986591 1_555
Cd0 Cd33 3.116894 1_555
Cd0 Cd8 3.116894 1_555
Cd0 Cd84 3.144905 1_555
Cd0 Cd58 3.144916 1_555
Cd0 Cd2 3.175736 1_555
Cd0 Cd83 3.276964 1_555
Cd0 Na19 3.354328 1_555
Cd0 Na21 3.426972 1_555
Cd0 Na24 3.426972 1_555
Cd1 Cd45 2.940614 1_565
Cd1 Cd96 2.940614 1_555
Cd1 Cd89 3.014740 1_555
Cd1 Cd107 3.120066 1_565
Cd1 Cd41 3.120066 1_555
Cd1 Cd140 3.175736 1_555
Cd1 Na14 3.490633 1_555
Cd1 Na22 3.490633 1_565
Cd1 Cd66 3.547956 1_565
Cd1 Cd131 3.547956 1_555
Cd1 Na9 3.599802 1_665
Cd2 Cd27 2.940614 1_555
Cd2 Cd7 2.940614 1_555
Cd2 Cd97 3.014740 1_555
Cd2 Cd37 3.120066 1_555
Cd2 Cd20 3.120066 1_555
Cd2 Na24 3.490633 1_555
Cd2 Na21 3.490633 1_555
Cd2 Cd29 3.547956 1_555
Cd2 Na9 3.599802 1_555
Cd3 Cd35 2.980451 1_555
Cd3 Cd44 2.986579 1_556
Cd3 Cd48 2.986591 1_556
Cd3 Cd60 3.175736 1_555
Cd3 Cd55 3.276964 1_555
Cd3 Na5 3.354328 1_556
Cd3 Na17 3.426972 1_555
Cd3 Na25 3.426972 1_555
Cd4 Cd68 2.981406 1_555
Cd4 Cd89 3.016162 1_555
Cd4 Na3 3.397159 1_555
Cd4 Na14 3.397159 1_555
Cd4 Na13 3.420029 1_555
Cd5 Cd84 2.945070 1_555
Cd5 Cd87 3.029336 1_555
Cd5 Na8 3.325373 1_545
Cd5 Na4 3.325384 1_555
Cd5 Cd53 3.447300 1_545
Cd5 Cd8 3.447300 1_555
Cd5 Na21 3.645955 1_555
Cd5 Na20 3.645955 1_555
Cd6 Cd69 3.116894 1_555
Cd6 Cd85 3.116894 1_555
Cd6 Cd91 3.144916 1_555
Cd6 Na16 3.354328 1_556
Cd6 Na7 3.426972 1_655
Cd6 Na3 3.426972 1_555
Cd7 Cd76 2.940614 1_554
Cd7 Cd86 3.126218 1_555
Cd7 Cd81 3.262552 1_555
Cd7 Na6 3.692286 1_554
Cd7 Na9 3.692286 1_555
Cd8 Cd84 2.981413 1_555
Cd8 Cd92 3.030707 1_555
Cd8 Cd83 3.079644 1_555
Cd8 Na19 3.390392 1_555
Cd8 Na21 3.479772 1_555
Cd8 Na4 3.564040 1_555
Cd9 Na0 3.354328 1_556
Cd9 Na20 3.426972 1_565
Cd9 Na7 3.426972 1_555
Cd10 Cd88 2.981404 1_555
Cd10 Cd63 3.030707 1_555
Cd10 Cd34 3.032367 1_555
Cd10 Cd113 3.079644 1_555
Cd10 Cd25 3.103999 1_555
Cd10 Cd103 3.116894 1_555
Cd10 Cd116 3.305506 1_555
Cd10 Na0 3.390392 1_555
Cd10 Cd32 3.447300 1_555
Cd10 Na15 3.479772 1_555
Cd10 Cd13 3.513166 1_555
Cd10 Na23 3.564027 1_555
Cd11 Cd132 2.945070 1_565
Cd11 Cd74 2.981413 1_555
Cd11 Cd12 2.981413 1_555
Cd11 Cd89 3.016150 1_555
Cd11 Cd121 3.108464 1_555
Cd11 Cd24 3.108464 1_555
Cd11 Cd28 3.144905 1_555
Cd11 Cd140 3.144905 1_555
Cd11 Cd4 3.252438 1_555
Cd11 Na22 3.397168 1_565
Cd11 Na11 3.397168 1_565
Cd11 Na8 3.420046 1_555
Cd12 Cd30 3.030707 1_565
Cd12 Cd135 3.032367 1_565
Cd12 Cd121 3.079644 1_555
Cd12 Cd67 3.103999 1_555
Cd12 Cd140 3.116894 1_555
Cd12 Cd138 3.305506 1_555
Cd12 Na2 3.390392 1_555
Cd12 Cd132 3.447300 1_565
Cd12 Na22 3.479772 1_565
Cd12 Cd54 3.513183 1_555
Cd12 Na8 3.564040 1_555
Cd13 Cd9 2.986580 1_554
Cd13 Cd63 3.010721 1_555
Cd13 Cd75 3.126237 1_555
Cd13 Cd14 3.250658 1_555
Cd13 Na7 3.408196 1_554
Cd13 Na15 3.408196 1_555
Cd13 Cd139 3.513166 1_554
Cd13 Na0 3.528215 1_555
Cd14 Cd9 2.986580 1_554
Cd14 Cd92 3.010721 1_565
Cd14 Cd27 3.126237 1_565
Cd14 Na20 3.408196 1_564
Cd14 Na21 3.408196 1_565
Cd14 Cd53 3.513166 1_555
Cd14 Na0 3.528215 1_555
Cd15 Cd90 2.924482 1_555
Cd15 Cd31 3.103999 1_555
Cd15 Cd68 3.103999 1_555
Cd15 Cd98 3.148292 1_555
Cd15 Cd99 3.148292 1_554
Cd16 Cd75 2.940614 1_555
Cd16 Cd27 2.940614 1_565
Cd16 Cd49 3.014740 1_555
Cd16 Cd36 3.120066 1_555
Cd16 Cd37 3.120066 1_565
Cd16 Na15 3.490633 1_555
Cd16 Na21 3.490633 1_565
Cd16 Cd2 3.547956 1_565
Cd16 Na9 3.599802 1_565
Cd17 Cd91 2.981406 1_555
Cd17 Cd98 3.032367 1_555
Cd17 Cd61 3.079644 1_555
Cd17 Cd18 3.116894 1_555
Cd17 Cd80 3.305506 1_555
Cd17 Na16 3.390392 1_555
Cd17 Cd21 3.447300 1_555
Cd17 Na14 3.479772 1_555
Cd17 Na12 3.564037 1_555
Cd18 Cd39 2.980451 1_555
Cd18 Cd19 3.116894 1_555
Cd18 Cd43 3.144905 1_555
Cd18 Cd91 3.144916 1_555
Cd18 Cd61 3.276964 1_555
Cd18 Na16 3.354328 1_555
Cd18 Na15 3.426972 1_655
Cd18 Na14 3.426972 1_555
Cd19 Cd43 2.981413 1_555
Cd19 Cd63 3.030707 1_655
Cd19 Cd34 3.032367 1_655
Cd19 Cd61 3.079644 1_555
Cd19 Cd59 3.103999 1_555
Cd19 Cd23 3.305506 1_555
Cd19 Na16 3.390392 1_555
Cd19 Cd32 3.447300 1_655
Cd19 Na15 3.479772 1_655
Cd19 Na10 3.564040 1_555
Cd20 Cd35 2.943394 1_555
Cd20 Cd97 2.943394 1_555
Cd20 Cd65 3.000730 1_555
Cd20 Cd37 3.000730 1_555
Cd20 Cd60 3.120066 1_555
Cd20 Cd76 3.120066 1_555
Cd20 Cd29 3.120066 1_555
Cd20 Na24 3.537596 1_555
Cd20 Na25 3.537596 1_555
Cd21 Cd4 2.945048 1_555
Cd21 Cd91 2.945048 1_555
Cd21 Cd98 3.029336 1_555
Cd21 Cd99 3.029336 1_555
Cd21 Na12 3.325394 1_555
Cd21 Na13 3.325394 1_555
Cd21 Cd69 3.447300 1_555
Cd21 Cd68 3.447300 1_555
Cd21 Cd77 3.453861 1_555
Cd21 Na3 3.645955 1_555
Cd21 Na14 3.645955 1_555
Cd22 Cd26 2.981413 1_555
Cd22 Cd78 3.030707 1_556
Cd22 Cd79 3.032367 1_555
Cd22 Cd55 3.079644 1_555
Cd22 Cd25 3.103999 1_556
Cd22 Cd3 3.116894 1_555
Cd22 Cd72 3.305506 1_555
Cd22 Na5 3.390392 1_556
Cd22 Cd50 3.447300 1_555
Cd22 Na17 3.479772 1_555
Cd22 Cd44 3.513183 1_556
Cd22 Na23 3.564040 1_555
Cd23 Cd59 2.924482 1_555
Cd23 Cd61 2.977826 1_555
Cd23 Cd80 3.090666 1_555
Cd23 Na1 3.378612 1_555
Cd23 Na16 3.378612 1_555
Cd23 Na10 3.704118 1_555
Cd24 Cd46 2.977826 1_555
Cd24 Cd74 3.079644 1_555
Cd24 Cd38 3.085477 1_555
Cd24 Cd4 3.108475 1_555
Cd24 Cd28 3.276964 1_555
Cd24 Na13 3.469961 1_555
Cd24 Na8 3.469979 1_555
Cd24 Na2 3.470672 1_556
Cd25 Cd72 2.924482 1_554
Cd25 Cd78 3.072318 1_555
Cd25 Cd63 3.072318 1_555
Cd25 Cd82 3.103999 1_555
Cd25 Cd79 3.148292 1_554
Cd25 Cd34 3.148292 1_555
Cd26 Cd50 2.945070 1_555
Cd26 Cd82 2.981413 1_555
Cd26 Cd35 3.016150 1_555
Cd26 Cd70 3.108464 1_555
Cd26 Cd55 3.108464 1_555
Cd26 Cd3 3.144905 1_555
Cd26 Cd71 3.144905 1_555
Cd26 Na18 3.397168 1_555
Cd26 Na17 3.397168 1_555
Cd26 Na23 3.420046 1_555
Cd27 Cd76 2.940614 1_554
Cd27 Cd75 3.262552 1_545
Cd27 Cd7 3.262552 1_555
Cd27 Na6 3.692286 1_554
Cd27 Na9 3.692286 1_555
Cd28 Cd89 2.980451 1_555
Cd28 Cd54 2.986579 1_556
Cd28 Cd74 3.116894 1_555
Cd28 Cd4 3.144916 1_555
Cd28 Cd56 3.175736 1_555
Cd28 Na2 3.354328 1_556
Cd28 Na11 3.426972 1_565
Cd28 Na3 3.426972 1_555
Cd29 Cd81 2.940614 1_555
Cd29 Cd7 2.940614 1_555
Cd29 Cd35 3.014740 1_555
Cd29 Cd65 3.120066 1_555
Cd29 Cd71 3.175736 1_555
Cd29 Na24 3.490633 1_555
Cd29 Na18 3.490633 1_555
Cd29 Cd66 3.547956 1_455
Cd29 Na9 3.599802 1_555
Cd30 Cd94 3.010721 1_555
Cd30 Cd54 3.010740 1_545
Cd30 Cd74 3.030707 1_544
Cd30 Cd67 3.072318 1_545
Cd30 Cd51 3.072318 1_555
Cd30 Cd87 3.344446 1_554
Cd31 Cd98 3.032367 1_555
Cd31 Cd70 3.079644 1_555
Cd31 Cd71 3.116894 1_555
Cd31 Cd90 3.305506 1_555
Cd31 Na5 3.390392 1_555
Cd31 Cd77 3.447300 1_555
Cd31 Na24 3.479772 1_555
Cd31 Cd48 3.513177 1_555
Cd31 Na13 3.564037 1_555
Cd32 Cd88 2.945058 1_555
Cd32 Cd43 2.945070 1_455
Cd32 Cd79 3.029336 1_555
Cd32 Cd34 3.029336 1_555
Cd32 Na23 3.325373 1_555
Cd32 Na10 3.325384 1_455
Cd32 Cd85 3.447300 1_455
Cd32 Cd50 3.453861 1_555
Cd32 Na15 3.645955 1_555
Cd32 Na7 3.645955 1_555
Cd33 Cd58 2.981406 1_555
Cd33 Cd98 3.032367 1_555
Cd33 Cd83 3.079644 1_555
Cd33 Cd80 3.305506 1_555
Cd33 Na19 3.390392 1_555
Cd33 Cd77 3.447300 1_555
Cd33 Na24 3.479772 1_555
Cd33 Cd86 3.513177 1_555
Cd33 Na12 3.564037 1_555
Cd34 Cd50 3.029336 1_555
Cd34 Cd82 3.032367 1_555
Cd34 Cd59 3.148292 1_455
Cd34 Cd78 3.344446 1_555
Cd34 Cd63 3.344446 1_555
Cd34 Na23 3.777623 1_555
Cd34 Na10 3.777623 1_455
Cd35 Cd65 2.943394 1_555
Cd35 Cd71 2.980451 1_555
Cd35 Cd60 3.014740 1_555
Cd35 Na25 3.539210 1_555
Cd35 Na24 3.539210 1_555
Cd35 Na17 3.539210 1_555
Cd35 Na18 3.539210 1_555
Cd36 Cd39 2.943394 1_455
Cd36 Cd49 2.943394 1_555
Cd36 Cd37 3.000730 1_565
Cd36 Cd41 3.000730 1_455
Cd36 Cd47 3.120066 1_455
Cd36 Na7 3.537596 1_555
Cd36 Na15 3.537596 1_555
Cd37 Cd97 2.943394 1_555
Cd37 Cd49 2.943394 1_545
Cd37 Cd76 3.120066 1_555
Cd37 Na20 3.537596 1_555
Cd37 Na21 3.537596 1_555
Cd38 Cd70 3.085477 1_555
Cd38 Cd55 3.085477 1_555
Cd38 Na8 3.423231 1_555
Cd38 Na23 3.423231 1_555
Cd38 Na13 3.423231 1_555
Cd39 Cd41 2.943394 1_555
Cd39 Cd6 2.980451 1_555
Cd39 Cd47 3.014740 1_555
Cd39 Cd43 3.016150 1_555
Cd39 Cd91 3.016162 1_555
Cd39 Na3 3.539210 1_555
Cd39 Na14 3.539210 1_555
Cd39 Na7 3.539210 1_655
Cd39 Na15 3.539210 1_655
Cd40 Cd5 2.945058 1_565
Cd40 Cd53 2.981404 1_555
Cd40 Cd49 3.016172 1_555
Cd40 Cd9 3.144916 1_555
Cd40 Cd88 3.252438 1_555
Cd40 Na20 3.397177 1_565
Cd40 Na21 3.397177 1_565
Cd40 Na8 3.420003 1_555
Cd41 Cd89 2.943394 1_555
Cd41 Cd47 3.120066 1_555
Cd41 Cd56 3.120066 1_555
Cd41 Na3 3.537596 1_555
Cd41 Na14 3.537596 1_555
Cd42 Cd50 2.945058 1_655
Cd42 Cd64 3.016172 1_555
Cd42 Cd62 3.108456 1_555
Cd42 Cd57 3.144916 1_555
Cd42 Na17 3.397177 1_655
Cd42 Na18 3.397177 1_655
Cd42 Na10 3.420003 1_555
Cd43 Cd85 2.981413 1_555
Cd43 Cd61 3.108464 1_555
Cd43 Cd52 3.108464 1_555
Cd43 Cd6 3.144905 1_555
Cd43 Cd91 3.252438 1_555
Cd43 Na15 3.397168 1_655
Cd43 Na7 3.397168 1_655
Cd43 Na10 3.420046 1_555
Cd44 Cd71 2.986579 1_555
Cd44 Cd78 3.010740 1_555
Cd44 Cd81 3.126218 1_555
Cd44 Cd93 3.136531 1_455
Cd44 Cd48 3.250658 1_555
Cd44 Na17 3.408196 1_554
Cd44 Na18 3.408196 1_555
Cd44 Cd82 3.513183 1_555
Cd44 Na5 3.528227 1_555
Cd45 Cd66 2.940614 1_555
Cd45 Cd56 2.940614 1_544
Cd45 Cd54 3.126218 1_545
Cd45 Cd94 3.126237 1_555
Cd45 Cd81 3.262552 1_655
Cd45 Cd96 3.262552 1_545
Cd45 Na6 3.692286 1_654
Cd45 Na9 3.692286 1_655
Cd46 Cd67 2.924482 1_556
Cd46 Cd72 3.090666 1_555
Cd46 Cd74 3.305506 1_555
Cd46 Na0 3.378612 1_556
Cd46 Na2 3.378612 1_556
Cd46 Na8 3.704118 1_555
Cd47 Cd75 2.940614 1_656
Cd47 Cd96 2.940614 1_556
Cd47 Cd6 3.175736 1_555
Cd47 Na3 3.490633 1_555
Cd47 Na7 3.490633 1_655
Cd47 Cd56 3.547956 1_555
Cd47 Na6 3.599802 1_665
Cd48 Cd71 2.986591 1_555
Cd48 Cd7 3.126218 1_555
Cd48 Cd86 3.136493 1_555
Cd48 Na25 3.408187 1_554
Cd48 Na24 3.408187 1_555
Cd48 Na5 3.528237 1_555
Cd49 Cd9 2.980451 1_555
Cd49 Cd88 3.016172 1_555
Cd49 Na15 3.539210 1_555
Cd49 Na7 3.539210 1_555
Cd49 Na20 3.539210 1_565
Cd49 Na21 3.539210 1_565
Cd50 Cd79 3.029336 1_555
Cd50 Na10 3.325373 1_455
Cd50 Na23 3.325384 1_555
Cd50 Cd82 3.447300 1_555
Cd50 Na18 3.645955 1_555
Cd50 Na17 3.645955 1_555
Cd51 Cd92 3.072318 1_555
Cd51 Cd8 3.103999 1_555
Cd51 Cd87 3.148292 1_554
Cd52 Cd61 3.033522 1_555
Cd52 Cd85 3.079644 1_555
Cd52 Cd69 3.079644 1_555
Cd52 Cd91 3.108475 1_555
Cd52 Cd6 3.276964 1_555
Cd52 Na12 3.469961 1_555
Cd52 Na10 3.469979 1_555
Cd52 Na16 3.470672 1_556
Cd53 Cd92 3.030707 1_565
Cd53 Cd67 3.103999 1_555
Cd53 Na0 3.390392 1_555
Cd53 Na21 3.479772 1_565
Cd53 Na8 3.564027 1_555
Cd54 Cd94 3.136531 1_565
Cd54 Na11 3.408196 1_564
Cd54 Na22 3.408196 1_565
Cd54 Cd74 3.513183 1_554
Cd54 Na2 3.528227 1_555
Cd55 Cd72 2.977826 1_555
Cd55 Cd70 3.033522 1_555
Cd55 Na13 3.469961 1_555
Cd55 Na23 3.469979 1_555
Cd55 Na5 3.470672 1_556
Cd56 Cd96 2.940614 1_556
Cd56 Cd89 3.014740 1_555
Cd56 Na3 3.490633 1_555
Cd56 Na11 3.490633 1_565
Cd56 Na6 3.599802 1_665
Cd57 Cd64 2.980451 1_555
Cd57 Cd93 2.986580 1_556
Cd57 Cd94 2.986580 1_556
Cd57 Cd62 3.276964 1_555
Cd57 Na1 3.354328 1_556
Cd57 Na11 3.426972 1_555
Cd57 Na17 3.426972 1_655
Cd58 Cd77 2.945048 1_555
Cd58 Cd73 2.981406 1_555
Cd58 Cd97 3.016162 1_555
Cd58 Cd83 3.108475 1_555
Cd58 Cd95 3.144916 1_555
Cd58 Cd84 3.252438 1_555
Cd58 Na24 3.397159 1_555
Cd58 Na25 3.397159 1_555
Cd58 Na12 3.420029 1_555
Cd59 Cd63 3.072318 1_655
Cd59 Cd78 3.072318 1_655
Cd59 Cd85 3.103999 1_554
Cd59 Cd79 3.148292 1_654
Cd60 Cd81 2.940614 1_556
Cd60 Cd7 2.940614 1_556
Cd60 Cd65 3.120066 1_555
Cd60 Na25 3.490633 1_555
Cd60 Na17 3.490633 1_555
Cd60 Cd76 3.547956 1_555
Cd60 Na6 3.599802 1_555
Cd61 Cd80 2.977826 1_555
Cd61 Cd91 3.108475 1_555
Cd61 Na12 3.469961 1_555
Cd61 Na10 3.469979 1_555
Cd61 Na16 3.470672 1_555
Cd62 Na10 3.469965 1_555
Cd62 Na4 3.469965 1_555
Cd62 Na1 3.470672 1_556
Cd63 Cd85 3.030707 1_454
Cd63 Cd79 3.344446 1_554
Cd64 Cd65 2.943394 1_655
Cd64 Cd66 3.014740 1_555
Cd64 Na11 3.539210 1_555
Cd64 Na22 3.539210 1_555
Cd64 Na17 3.539210 1_655
Cd64 Na18 3.539210 1_655
Cd65 Cd66 3.120066 1_455
Cd65 Na17 3.537596 1_555
Cd65 Na18 3.537596 1_555
Cd66 Cd81 2.940614 1_655
Cd66 Na22 3.490633 1_555
Cd66 Na18 3.490633 1_655
Cd66 Na9 3.599802 1_655
Cd67 Cd92 3.072318 1_565
Cd67 Cd74 3.103999 1_554
Cd67 Cd87 3.148292 1_564
Cd68 Cd98 3.032367 1_555
Cd68 Cd90 3.305506 1_555
Cd68 Na2 3.390392 1_555
Cd68 Na14 3.479772 1_555
Cd68 Na13 3.564037 1_555
Cd69 Cd91 2.981406 1_555
Cd69 Cd99 3.032367 1_555
Cd69 Na16 3.390392 1_556
Cd69 Na3 3.479772 1_555
Cd69 Na12 3.564037 1_555
Cd70 Cd90 2.977826 1_555
Cd70 Cd82 3.079644 1_555
Cd70 Cd71 3.276964 1_555
Cd70 Na13 3.469961 1_555
Cd70 Na23 3.469979 1_555
Cd70 Na5 3.470672 1_555
Cd71 Cd82 3.116894 1_555
Cd71 Na5 3.354328 1_555
Cd71 Na18 3.426972 1_555
Cd71 Na24 3.426972 1_555
Cd72 Na0 3.378612 1_556
Cd72 Na5 3.378612 1_556
Cd72 Na23 3.704118 1_555
Cd73 Cd99 3.032367 1_555
Cd73 Cd95 3.116894 1_555
Cd73 Na19 3.390392 1_556
Cd73 Cd77 3.447300 1_555
Cd73 Na25 3.479772 1_555
Cd73 Cd86 3.513177 1_556
Cd73 Na12 3.564037 1_555
Cd74 Cd87 3.032367 1_565
Cd74 Na2 3.390392 1_556
Cd74 Na11 3.479772 1_565
Cd74 Na8 3.564040 1_555
Cd75 Cd96 3.262552 1_455
Cd75 Na6 3.692286 1_564
Cd75 Na9 3.692286 1_565
Cd76 Cd97 3.014740 1_555
Cd76 Cd95 3.175736 1_555
Cd76 Na25 3.490633 1_555
Cd76 Na20 3.490633 1_555
Cd76 Na6 3.599802 1_555
Cd77 Cd98 3.029336 1_555
Cd77 Cd99 3.029336 1_555
Cd77 Na12 3.325394 1_555
Cd77 Na13 3.325394 1_555
Cd77 Na24 3.645955 1_555
Cd77 Na25 3.645955 1_555
Cd78 Cd93 3.010721 1_455
Cd78 Cd82 3.030707 1_555
Cd78 Cd79 3.344446 1_554
Cd79 Cd85 3.032367 1_455
Cd79 Na23 3.777623 1_555
Cd79 Na10 3.777623 1_455
Cd80 Cd83 2.977826 1_555
Cd80 Na16 3.378612 1_555
Cd80 Na19 3.378612 1_555
Cd80 Na12 3.704110 1_555
Cd81 Cd93 3.126237 1_455
Cd81 Na6 3.692286 1_554
Cd81 Na9 3.692286 1_555
Cd82 Na5 3.390392 1_555
Cd82 Na18 3.479772 1_555
Cd82 Na23 3.564040 1_555
Cd83 Cd84 3.108464 1_555
Cd83 Na12 3.469961 1_555
Cd83 Na4 3.469979 1_555
Cd83 Na19 3.470672 1_555
Cd84 Cd97 3.016150 1_555
Cd84 Cd95 3.144905 1_555
Cd84 Na20 3.397168 1_555
Cd84 Na21 3.397168 1_555
Cd84 Na4 3.420046 1_555
Cd85 Na16 3.390392 1_556
Cd85 Na7 3.479772 1_655
Cd85 Na10 3.564040 1_555
Cd86 Cd95 2.986591 1_554
Cd86 Na25 3.408187 1_554
Cd86 Na24 3.408187 1_555
Cd86 Na19 3.528237 1_555
Cd87 Cd92 3.344446 1_556
Cd87 Na4 3.777623 1_555
Cd87 Na8 3.777623 1_545
Cd88 Cd9 3.144916 1_555
Cd88 Na7 3.397177 1_555
Cd88 Na15 3.397177 1_555
Cd88 Na23 3.420003 1_555
Cd89 Na3 3.539210 1_555
Cd89 Na14 3.539210 1_555
Cd89 Na11 3.539210 1_565
Cd89 Na22 3.539210 1_565
Cd90 Na2 3.378612 1_555
Cd90 Na5 3.378612 1_555
Cd90 Na13 3.704110 1_555
Cd91 Na3 3.397159 1_555
Cd91 Na14 3.397159 1_555
Cd91 Na12 3.420029 1_555
Cd93 Cd94 3.250658 1_555
Cd93 Na17 3.408196 1_654
Cd93 Na18 3.408196 1_655
Cd93 Na1 3.528215 1_555
Cd94 Na11 3.408196 1_554
Cd94 Na22 3.408196 1_555
Cd94 Na1 3.528215 1_555
Cd95 Cd97 2.980451 1_555
Cd95 Na19 3.354328 1_556
Cd95 Na20 3.426972 1_555
Cd95 Na25 3.426972 1_555
Cd96 Na9 3.692286 1_665
Cd96 Na6 3.692286 1_664
Cd97 Na24 3.539210 1_555
Cd97 Na25 3.539210 1_555
Cd97 Na20 3.539210 1_555
Cd97 Na21 3.539210 1_555
Cd98 Na12 3.777637 1_555
Cd98 Na13 3.777637 1_555
Cd99 Na12 3.777637 1_555
Cd99 Na13 3.777637 1_555
Cd100 Cd64 2.980451 1_555
Cd100 Cd93 2.986580 1_555
Cd100 Cd94 2.986580 1_555
Cd100 Cd127 3.116894 1_555
Cd100 Cd115 3.116894 1_555
Cd100 Cd42 3.144916 1_555
Cd100 Cd124 3.144916 1_555
Cd100 Cd66 3.175736 1_555
Cd100 Cd112 3.276964 1_555
Cd100 Na1 3.354328 1_555
Cd100 Na22 3.426972 1_555
Cd100 Na18 3.426972 1_655
Cd101 Cd106 2.977826 1_555
Cd101 Cd123 2.977826 1_555
Cd101 Cd83 3.033522 1_555
Cd101 Cd125 3.079644 1_555
Cd101 Cd73 3.079644 1_555
Cd101 Cd102 3.085477 1_555
Cd101 Cd84 3.108464 1_555
Cd101 Cd58 3.108475 1_555
Cd101 Cd95 3.276964 1_555
Cd101 Na12 3.469961 1_555
Cd101 Na4 3.469979 1_555
Cd101 Na19 3.470672 1_556
Cd102 Cd112 3.085461 1_555
Cd102 Cd62 3.085461 1_555
Cd102 Cd61 3.085477 1_555
Cd102 Cd52 3.085477 1_555
Cd102 Cd83 3.085477 1_555
Cd102 Na10 3.423231 1_555
Cd102 Na4 3.423231 1_555
Cd102 Na12 3.423231 1_555
Cd103 Cd49 2.980451 1_555
Cd103 Cd14 2.986580 1_555
Cd103 Cd13 2.986580 1_555
Cd103 Cd53 3.116894 1_555
Cd103 Cd40 3.144916 1_555
Cd103 Cd88 3.144916 1_555
Cd103 Cd16 3.175736 1_555
Cd103 Cd113 3.276964 1_555
Cd103 Na0 3.354328 1_555
Cd103 Na15 3.426972 1_555
Cd103 Na21 3.426972 1_565
Cd104 Cd51 2.924482 1_555
Cd104 Cd112 2.977826 1_555
Cd104 Cd83 2.977826 1_555
Cd104 Cd23 3.090666 1_555
Cd104 Cd80 3.090666 1_555
Cd104 Cd123 3.162732 1_554
Cd104 Cd8 3.305506 1_555
Cd104 Cd115 3.305506 1_555
Cd104 Na1 3.378612 1_555
Cd104 Na19 3.378612 1_555
Cd104 Na4 3.704118 1_555
Cd105 Cd130 2.981406 1_555
Cd105 Cd114 3.030707 1_556
Cd105 Cd99 3.032367 1_555
Cd105 Cd55 3.079644 1_555
Cd105 Cd15 3.103999 1_556
Cd105 Cd3 3.116894 1_555
Cd105 Cd108 3.305506 1_555
Cd105 Na5 3.390392 1_556
Cd105 Cd77 3.447300 1_555
Cd105 Na25 3.479772 1_555
Cd105 Cd48 3.513177 1_556
Cd105 Na13 3.564037 1_555
Cd106 Cd118 2.924482 1_556
Cd106 Cd52 2.977826 1_555
Cd106 Cd123 3.090666 1_555
Cd106 Cd111 3.090666 1_555
Cd106 Cd80 3.162732 1_556
Cd106 Cd69 3.305506 1_555
Cd106 Cd73 3.305506 1_555
Cd106 Na16 3.378612 1_556
Cd106 Na19 3.378612 1_556
Cd106 Na12 3.704110 1_555
Cd107 Cd89 2.943394 1_545
Cd107 Cd64 2.943394 1_555
Cd107 Cd65 3.000730 1_655
Cd107 Cd129 3.000730 1_655
Cd107 Cd41 3.000730 1_545
Cd107 Cd56 3.120066 1_545
Cd107 Cd120 3.120066 1_555
Cd107 Cd66 3.120066 1_555
Cd107 Na22 3.537596 1_555
Cd107 Na11 3.537596 1_555
Cd108 Cd15 2.924482 1_556
Cd108 Cd24 2.977826 1_555
Cd108 Cd55 2.977826 1_555
Cd108 Cd72 3.090666 1_555
Cd108 Cd46 3.090666 1_555
Cd108 Cd90 3.162732 1_556
Cd108 Cd109 3.305506 1_555
Cd108 Na2 3.378612 1_556
Cd108 Na5 3.378612 1_556
Cd108 Na13 3.704110 1_555
Cd109 Cd4 2.981406 1_555
Cd109 Cd137 3.030707 1_556
Cd109 Cd99 3.032367 1_555
Cd109 Cd24 3.079644 1_555
Cd109 Cd15 3.103999 1_556
Cd109 Cd28 3.116894 1_555
Cd109 Na2 3.390392 1_556
Cd109 Cd21 3.447300 1_555
Cd109 Na3 3.479772 1_555
Cd109 Cd136 3.513177 1_556
Cd109 Na13 3.564037 1_555
Cd110 Cd124 2.981404 1_555
Cd110 Cd30 3.030707 1_556
Cd110 Cd87 3.032367 1_555
Cd110 Cd62 3.079644 1_555
Cd110 Cd51 3.103999 1_556
Cd110 Cd57 3.116894 1_555
Cd110 Cd123 3.305506 1_555
Cd110 Na1 3.390392 1_556
Cd110 Cd132 3.447300 1_555
Cd110 Na11 3.479772 1_555
Cd110 Cd94 3.513166 1_556
Cd110 Na4 3.564027 1_555
Cd111 Cd59 2.924482 1_556
Cd111 Cd62 2.977826 1_555
Cd111 Cd52 2.977826 1_555
Cd111 Cd123 3.090666 1_555
Cd111 Cd23 3.162732 1_556
Cd111 Cd85 3.305506 1_555
Cd111 Cd117 3.305506 1_555
Cd111 Na1 3.378612 1_556
Cd111 Na16 3.378612 1_556
Cd111 Na10 3.704118 1_555
Cd112 Cd23 2.977826 1_555
Cd112 Cd62 3.033522 1_555
Cd112 Cd115 3.079644 1_555
Cd112 Cd127 3.079644 1_555
Cd112 Cd124 3.108456 1_555
Cd112 Cd42 3.108456 1_555
Cd112 Na10 3.469965 1_555
Cd112 Na4 3.469965 1_555
Cd112 Na1 3.470672 1_555
Cd113 Cd116 2.977826 1_555
Cd113 Cd138 2.977826 1_555
Cd113 Cd133 3.033522 1_555
Cd113 Cd53 3.079644 1_555
Cd113 Cd38 3.085461 1_555
Cd113 Cd88 3.108456 1_555
Cd113 Cd40 3.108456 1_555
Cd113 Na8 3.469965 1_555
Cd113 Na23 3.469965 1_555
Cd113 Na0 3.470672 1_555
Cd114 Cd86 3.010721 1_555
Cd114 Cd48 3.010721 1_555
Cd114 Cd33 3.030707 1_555
Cd114 Cd31 3.030707 1_555
Cd114 Cd73 3.030707 1_554
Cd114 Cd15 3.072318 1_555
Cd114 Cd118 3.072318 1_555
Cd114 Cd98 3.344446 1_555
Cd114 Cd99 3.344446 1_554
Cd115 Cd124 2.981404 1_555
Cd115 Cd30 3.030707 1_555
Cd115 Cd135 3.032367 1_555
Cd115 Cd51 3.103999 1_555
Cd115 Na1 3.390392 1_555
Cd115 Cd132 3.447300 1_555
Cd115 Na22 3.479772 1_555
Cd115 Cd94 3.513166 1_555
Cd115 Na4 3.564027 1_555
Cd116 Cd25 2.924482 1_555
Cd116 Cd70 2.977826 1_555
Cd116 Cd138 3.090666 1_555
Cd116 Cd90 3.090666 1_555
Cd116 Cd72 3.162732 1_554
Cd116 Cd82 3.305506 1_555
Cd116 Na0 3.378612 1_555
Cd116 Na5 3.378612 1_555
Cd116 Na23 3.704118 1_555
Cd117 Cd42 2.981404 1_555
Cd117 Cd78 3.030707 1_656
Cd117 Cd79 3.032367 1_655
Cd117 Cd62 3.079644 1_555
Cd117 Cd59 3.103999 1_556
Cd117 Cd57 3.116894 1_555
Cd117 Na1 3.390392 1_556
Cd117 Cd50 3.447300 1_655
Cd117 Na17 3.479772 1_655
Cd117 Cd93 3.513166 1_556
Cd117 Na10 3.564027 1_555
Cd118 Cd80 2.924482 1_555
Cd118 Cd137 3.072318 1_555
Cd118 Cd33 3.103999 1_555
Cd118 Cd73 3.103999 1_554
Cd118 Cd17 3.103999 1_555
Cd118 Cd69 3.103999 1_554
Cd118 Cd98 3.148292 1_555
Cd118 Cd99 3.148292 1_554
Cd119 Cd95 2.986579 1_554
Cd119 Cd92 3.010740 1_555
Cd119 Cd27 3.126218 1_555
Cd119 Cd14 3.136531 1_545
Cd119 Cd86 3.250658 1_555
Cd119 Na20 3.408196 1_554
Cd119 Na21 3.408196 1_555
Cd119 Cd8 3.513183 1_555
Cd119 Cd125 3.513183 1_554
Cd119 Na19 3.528227 1_555
Cd120 Cd45 2.940614 1_556
Cd120 Cd81 2.940614 1_656
Cd120 Cd64 3.014740 1_555
Cd120 Cd65 3.120066 1_655
Cd120 Cd57 3.175736 1_555
Cd120 Na11 3.490633 1_555
Cd120 Na17 3.490633 1_655
Cd120 Cd60 3.547956 1_655
Cd120 Cd56 3.547956 1_545
Cd120 Na6 3.599802 1_655
Cd121 Cd90 2.977826 1_555
Cd121 Cd138 2.977826 1_555
Cd121 Cd24 3.033522 1_555
Cd121 Cd68 3.079644 1_555
Cd121 Cd38 3.085477 1_555
Cd121 Cd4 3.108475 1_555
Cd121 Cd140 3.276964 1_555
Cd121 Na13 3.469961 1_555
Cd121 Na8 3.469979 1_555
Cd121 Na2 3.470672 1_555
Cd122 Cd40 2.981404 1_555
Cd122 Cd92 3.030707 1_566
Cd122 Cd87 3.032367 1_565
Cd122 Cd133 3.079644 1_555
Cd122 Cd67 3.103999 1_556
Cd122 Cd9 3.116894 1_555
Cd122 Cd46 3.305506 1_555
Cd122 Na0 3.390392 1_556
Cd122 Cd5 3.447300 1_565
Cd122 Na20 3.479772 1_565
Cd122 Cd14 3.513166 1_556
Cd122 Na8 3.564027 1_555
Cd123 Cd51 2.924482 1_556
Cd123 Cd62 2.977826 1_555
Cd123 Cd125 3.305506 1_555
Cd123 Na1 3.378612 1_556
Cd123 Na19 3.378612 1_556
Cd123 Na4 3.704118 1_555
Cd124 Cd132 2.945058 1_555
Cd124 Cd64 3.016172 1_555
Cd124 Cd62 3.108456 1_555
Cd124 Cd57 3.144916 1_555
Cd124 Cd42 3.252438 1_555
Cd124 Na11 3.397177 1_555
Cd124 Na22 3.397177 1_555
Cd124 Na4 3.420003 1_555
Cd125 Cd84 2.981413 1_555
Cd125 Cd92 3.030707 1_556
Cd125 Cd87 3.032367 1_555
Cd125 Cd51 3.103999 1_556
Cd125 Cd95 3.116894 1_555
Cd125 Na19 3.390392 1_556
Cd125 Cd5 3.447300 1_555
Cd125 Na20 3.479772 1_555
Cd125 Na4 3.564040 1_555
Cd126 Cd18 2.986579 1_555
Cd126 Cd6 2.986579 1_554
Cd126 Cd63 3.010740 1_655
Cd126 Cd75 3.126218 1_655
Cd126 Cd13 3.136531 1_655
Cd126 Cd134 3.250658 1_555
Cd126 Na7 3.408196 1_654
Cd126 Na15 3.408196 1_655
Cd126 Cd19 3.513183 1_555
Cd126 Cd85 3.513183 1_554
Cd126 Na16 3.528227 1_555
Cd127 Cd42 2.981404 1_555
Cd127 Cd78 3.030707 1_655
Cd127 Cd34 3.032367 1_655
Cd127 Cd59 3.103999 1_555
Cd127 Cd23 3.305506 1_555
Cd127 Na1 3.390392 1_555
Cd127 Cd50 3.447300 1_655
Cd127 Na18 3.479772 1_655
Cd127 Cd93 3.513166 1_555
Cd127 Na10 3.564027 1_555
Cd128 Cd75 2.940614 1_556
Cd128 Cd27 2.940614 1_566
Cd128 Cd49 3.014740 1_555
Cd128 Cd36 3.120066 1_555
Cd128 Cd37 3.120066 1_565
Cd128 Cd9 3.175736 1_555
Cd128 Na7 3.490633 1_555
Cd128 Na20 3.490633 1_565
Cd128 Cd76 3.547956 1_565
Cd128 Cd47 3.547956 1_455
Cd128 Na6 3.599802 1_565
Cd129 Cd20 3.000730 1_555
Cd129 Cd41 3.000730 1_445
Cd129 Cd65 3.000730 1_555
Cd129 Cd37 3.000730 1_555
Cd129 Cd36 3.000730 1_545
Cd129 Na6 3.174421 1_555
Cd129 Na9 3.174421 1_555
Cd130 Cd77 2.945048 1_555
Cd130 Cd31 2.981406 1_555
Cd130 Cd35 3.016162 1_555
Cd130 Cd70 3.108475 1_555
Cd130 Cd55 3.108475 1_555
Cd130 Cd71 3.144916 1_555
Cd130 Cd3 3.144916 1_555
Cd130 Cd26 3.252438 1_555
Cd130 Na24 3.397159 1_555
Cd130 Na25 3.397159 1_555
Cd130 Na13 3.420029 1_555
Cd131 Cd75 2.940614 1_655
Cd131 Cd96 2.940614 1_555
Cd131 Cd39 3.014740 1_555
Cd131 Cd36 3.120066 1_655
Cd131 Cd41 3.120066 1_555
Cd131 Cd18 3.175736 1_555
Cd131 Na14 3.490633 1_555
Cd131 Na15 3.490633 1_655
Cd131 Cd16 3.547956 1_655
Cd131 Na9 3.599802 1_665
Cd132 Cd87 3.029336 1_555
Cd132 Cd135 3.029336 1_555
Cd132 Na4 3.325373 1_555
Cd132 Na8 3.325384 1_545
Cd132 Cd74 3.447300 1_545
Cd132 Cd5 3.453861 1_555
Cd132 Na22 3.645955 1_555
Cd132 Na11 3.645955 1_555
Cd133 Cd72 2.977826 1_555
Cd133 Cd46 2.977826 1_555
Cd133 Cd139 3.079644 1_555
Cd133 Cd38 3.085461 1_555
Cd133 Cd88 3.108456 1_555
Cd133 Cd40 3.108456 1_555
Cd133 Cd9 3.276964 1_555
Cd133 Na8 3.469965 1_555
Cd133 Na23 3.469965 1_555
Cd133 Na0 3.470672 1_556
Cd134 Cd18 2.986591 1_555
Cd134 Cd6 2.986591 1_554
Cd134 Cd137 3.010721 1_555
Cd134 Cd96 3.126218 1_555
Cd134 Cd136 3.136493 1_555
Cd134 Na3 3.408187 1_554
Cd134 Na14 3.408187 1_555
Cd134 Cd17 3.513177 1_555
Cd134 Cd69 3.513177 1_554
Cd134 Na16 3.528237 1_555
Cd135 Cd5 3.029336 1_555
Cd135 Cd53 3.032367 1_545
Cd135 Cd8 3.032367 1_555
Cd135 Cd51 3.148292 1_555
Cd135 Cd67 3.148292 1_545
Cd135 Cd92 3.344446 1_555
Cd135 Cd30 3.344446 1_555
Cd135 Na4 3.777623 1_555
Cd135 Na8 3.777623 1_545
Cd136 Cd28 2.986591 1_554
Cd136 Cd140 2.986591 1_555
Cd136 Cd137 3.010721 1_555
Cd136 Cd96 3.126218 1_555
Cd136 Cd54 3.250658 1_555
Cd136 Na3 3.408187 1_554
Cd136 Na14 3.408187 1_555
Cd136 Cd68 3.513177 1_555
Cd136 Na2 3.528237 1_555
Cd137 Cd17 3.030707 1_555
Cd137 Cd68 3.030707 1_555
Cd137 Cd69 3.030707 1_554
Cd137 Cd15 3.072318 1_555
Cd137 Cd98 3.344446 1_555
Cd137 Cd99 3.344446 1_554
Cd138 Cd67 2.924482 1_555
Cd138 Cd90 3.090666 1_555
Cd138 Cd46 3.162732 1_554
Cd138 Cd53 3.305506 1_555
Cd138 Na0 3.378612 1_555
Cd138 Na2 3.378612 1_555
Cd138 Na8 3.704118 1_555
Cd139 Cd88 2.981404 1_555
Cd139 Cd63 3.030707 1_556
Cd139 Cd79 3.032367 1_555
Cd139 Cd25 3.103999 1_556
Cd139 Cd9 3.116894 1_555
Cd139 Cd72 3.305506 1_555
Cd139 Na0 3.390392 1_556
Cd139 Cd32 3.447300 1_555
Cd139 Na7 3.479772 1_555
Cd139 Na23 3.564027 1_555
Cd140 Cd89 2.980451 1_555
Cd140 Cd54 2.986579 1_555
Cd140 Cd68 3.116894 1_555
Cd140 Cd4 3.144916 1_555
Cd140 Na2 3.354328 1_555
Cd140 Na22 3.426972 1_565
Cd140 Na14 3.426972 1_555
