# generated using pymatgen
data_Rb2SiAs2
_symmetry_space_group_name_H-M   'P 1'
_cell_length_a   6.41392787
_cell_length_b   7.30535684
_cell_length_c   8.47613064
_cell_angle_alpha   115.52704540
_cell_angle_beta   112.23166602
_cell_angle_gamma   90.00000193
_symmetry_Int_Tables_number   1
_chemical_formula_structural   Rb2SiAs2
_chemical_formula_sum   'Rb4 Si2 As4'
_cell_volume   325.36479836
_cell_formula_units_Z   2
loop_
 _symmetry_equiv_pos_site_id
 _symmetry_equiv_pos_as_xyz
  1  'x, y, z'
loop_
 _atom_site_type_symbol
 _atom_site_label
 _atom_site_symmetry_multiplicity
 _atom_site_fract_x
 _atom_site_fract_y
 _atom_site_fract_z
 _atom_site_occupancy
  Rb  Rb0  1  0.64492501  0.98027003  0.28985003  1
  Rb  Rb1  1  0.35507499  0.01972997  0.71014997  1
  Rb  Rb2  1  0.85507499  0.69042000  0.71014997  1
  Rb  Rb3  1  0.14492501  0.30958000  0.28985003  1
  Si  Si0  1  0.75000000  0.50000000  -0.00000000  1
  Si  Si1  1  0.25000000  0.50000000  -0.00000000  1
  As  As0  1  0.40463016  0.56527532  0.80926032  1
  As  As1  1  0.59536984  0.43472468  0.19073968  1
  As  As2  1  0.90463016  0.24398501  0.80926032  1
  As  As3  1  0.09536984  0.75601499  0.19073968  1
loop_
_geom_bond_atom_site_label_1
_geom_bond_atom_site_label_2
_geom_bond_distance
_geom_bond_site_symmetry_2
Rb0 Si1 3.552984 1_555
Rb0 Si0 3.552984 1_555
Rb1 Si0 3.552984 1_556
Rb1 Si1 3.552984 1_556
Rb2 Si1 3.552984 1_656
Rb2 Si0 3.552985 1_556
Rb3 Si0 3.552984 1_455
Rb3 Si1 3.552985 1_555
As0 Si0 2.388027 1_556
As0 Si1 2.388027 1_556
As0 Rb2 3.519525 1_455
As0 Rb2 3.519525 1_555
As0 Rb0 3.572893 1_556
As0 Rb3 3.606865 1_555
As0 Rb1 3.688165 1_555
As0 Rb1 3.745738 1_565
As1 Si1 2.388027 1_555
As1 Si0 2.388027 1_555
As1 Rb3 3.519525 1_655
As1 Rb3 3.519525 1_555
As1 Rb1 3.572893 1_554
As1 Rb2 3.606865 1_555
As1 Rb0 3.688165 1_555
As1 Rb0 3.745738 1_545
As2 Si1 2.388027 1_656
As2 Si0 2.388027 1_556
As2 Rb1 3.519525 1_555
As2 Rb1 3.519525 1_655
As2 Rb3 3.572893 1_656
As2 Rb0 3.606865 1_545
As2 Rb2 3.688165 1_555
As2 Rb2 3.745738 1_545
As3 Si0 2.388027 1_455
As3 Si1 2.388027 1_555
As3 Rb0 3.519525 1_555
As3 Rb0 3.519525 1_455
As3 Rb2 3.572893 1_454
As3 Rb1 3.606865 1_565
As3 Rb3 3.688165 1_555
As3 Rb3 3.745738 1_565
