# generated using pymatgen
data_Pu5Rh3
_symmetry_space_group_name_H-M   'P 1'
_cell_length_a   11.15305700
_cell_length_b   11.15305700
_cell_length_c   5.63547600
_cell_angle_alpha   90.00000000
_cell_angle_beta   90.00000000
_cell_angle_gamma   90.00000000
_symmetry_Int_Tables_number   1
_chemical_formula_structural   Pu5Rh3
_chemical_formula_sum   'Pu20 Rh12'
_cell_volume   701.00069427
_cell_formula_units_Z   4
loop_
 _symmetry_equiv_pos_site_id
 _symmetry_equiv_pos_as_xyz
  1  'x, y, z'
loop_
 _atom_site_type_symbol
 _atom_site_label
 _atom_site_symmetry_multiplicity
 _atom_site_fract_x
 _atom_site_fract_y
 _atom_site_fract_z
 _atom_site_occupancy
  Pu  Pu0  1  0.50000000  0.50000000  0.50000000  1
  Pu  Pu1  1  0.50000000  0.50000000  0.00000000  1
  Pu  Pu2  1  0.00000000  0.00000000  0.50000000  1
  Pu  Pu3  1  0.00000000  0.00000000  0.00000000  1
  Pu  Pu4  1  0.78137500  0.58428300  0.32720000  1
  Pu  Pu5  1  0.21862500  0.58428300  0.82720000  1
  Pu  Pu6  1  0.71862500  0.91571700  0.67280000  1
  Pu  Pu7  1  0.71862500  0.08428300  0.17280000  1
  Pu  Pu8  1  0.21862500  0.41571700  0.32720000  1
  Pu  Pu9  1  0.78137500  0.41571700  0.82720000  1
  Pu  Pu10  1  0.28137500  0.08428300  0.67280000  1
  Pu  Pu11  1  0.28137500  0.91571700  0.17280000  1
  Pu  Pu12  1  0.41571700  0.78137500  0.67280000  1
  Pu  Pu13  1  0.41571700  0.21862500  0.17280000  1
  Pu  Pu14  1  0.91571700  0.28137500  0.32720000  1
  Pu  Pu15  1  0.91571700  0.71862500  0.82720000  1
  Pu  Pu16  1  0.58428300  0.21862500  0.67280000  1
  Pu  Pu17  1  0.58428300  0.78137500  0.17280000  1
  Pu  Pu18  1  0.08428300  0.71862500  0.32720000  1
  Pu  Pu19  1  0.08428300  0.28137500  0.82720000  1
  Rh  Rh0  1  0.50000000  0.00000000  0.38485500  1
  Rh  Rh1  1  0.50000000  0.00000000  0.88485500  1
  Rh  Rh2  1  0.00000000  0.50000000  0.61514500  1
  Rh  Rh3  1  0.00000000  0.50000000  0.11514500  1
  Rh  Rh4  1  0.66496100  0.66496100  0.75000000  1
  Rh  Rh5  1  0.33503900  0.66496100  0.25000000  1
  Rh  Rh6  1  0.83503900  0.83503900  0.25000000  1
  Rh  Rh7  1  0.83503900  0.16496100  0.75000000  1
  Rh  Rh8  1  0.33503900  0.33503900  0.75000000  1
  Rh  Rh9  1  0.66496100  0.33503900  0.25000000  1
  Rh  Rh10  1  0.16496100  0.16496100  0.25000000  1
  Rh  Rh11  1  0.16496100  0.83503900  0.75000000  1
loop_
_geom_bond_atom_site_label_1
_geom_bond_atom_site_label_2
_geom_bond_distance
_geom_bond_site_symmetry_2
Pu0 Pu1 2.817738 1_556
Pu0 Pu1 2.817738 1_555
Pu0 Rh9 2.958848 1_555
Pu0 Rh4 2.958848 1_555
Pu0 Rh5 2.958848 1_555
Pu0 Rh8 2.958848 1_555
Pu0 Pu12 3.417627 1_555
Pu0 Pu4 3.417627 1_555
Pu0 Pu8 3.417627 1_555
Pu0 Pu16 3.417627 1_555
Pu0 Pu9 3.759247 1_555
Pu0 Pu17 3.759247 1_555
Pu0 Pu5 3.759247 1_555
Pu0 Pu13 3.759247 1_555
Pu1 Rh9 2.958848 1_555
Pu1 Rh4 2.958848 1_554
Pu1 Rh5 2.958848 1_555
Pu1 Rh8 2.958848 1_554
Pu1 Pu9 3.417627 1_554
Pu1 Pu17 3.417627 1_555
Pu1 Pu5 3.417627 1_554
Pu1 Pu13 3.417627 1_555
Pu1 Pu4 3.759247 1_555
Pu1 Pu12 3.759247 1_554
Pu1 Pu8 3.759247 1_555
Pu1 Pu16 3.759247 1_554
Pu2 Pu3 2.817738 1_556
Pu2 Pu3 2.817738 1_555
Pu2 Rh10 2.958848 1_555
Pu2 Rh7 2.958848 1_455
Pu2 Rh11 2.958848 1_545
Pu2 Rh6 2.958848 1_445
Pu2 Pu6 3.417627 1_445
Pu2 Pu7 3.759247 1_455
Pu3 Rh7 2.958848 1_454
Pu3 Rh10 2.958848 1_555
Pu3 Rh11 2.958848 1_544
Pu3 Rh6 2.958848 1_445
Pu3 Pu7 3.417627 1_455
Pu3 Pu6 3.759247 1_444
Pu4 Rh4 2.858773 1_555
Pu4 Rh3 2.873536 1_655
Pu4 Rh6 2.892924 1_555
Pu4 Rh2 3.076084 1_655
Pu4 Rh9 3.098792 1_555
Pu4 Pu9 3.387351 1_554
Pu4 Pu9 3.387351 1_555
Pu4 Rh4 3.616090 1_554
Pu5 Rh5 2.858773 1_556
Pu5 Rh2 2.873536 1_555
Pu5 Rh11 2.892924 1_555
Pu5 Rh3 3.076084 1_556
Pu5 Rh8 3.098792 1_555
Pu5 Pu8 3.387351 1_556
Pu5 Pu8 3.387351 1_555
Pu5 Rh5 3.616090 1_555
Pu6 Rh6 2.858773 1_555
Pu6 Rh1 2.873536 1_565
Pu6 Rh4 2.892924 1_555
Pu6 Rh0 3.076084 1_565
Pu6 Rh7 3.098792 1_565
Pu6 Pu7 3.387351 1_566
Pu6 Pu7 3.387351 1_565
Pu6 Rh6 3.616090 1_556
Pu7 Rh7 2.858773 1_554
Pu7 Rh0 2.873536 1_555
Pu7 Rh9 2.892924 1_555
Pu7 Rh1 3.076084 1_554
Pu7 Rh6 3.098792 1_545
Pu7 Rh7 3.616090 1_555
Pu8 Rh8 2.858773 1_555
Pu8 Rh3 2.873536 1_555
Pu8 Rh10 2.892924 1_555
Pu8 Rh2 3.076084 1_555
Pu8 Rh5 3.098792 1_555
Pu8 Rh8 3.616090 1_554
Pu9 Rh9 2.858773 1_556
Pu9 Rh2 2.873536 1_655
Pu9 Rh7 2.892924 1_555
Pu9 Rh3 3.076084 1_656
Pu9 Rh4 3.098792 1_555
Pu9 Rh9 3.616090 1_555
Pu10 Rh10 2.858773 1_555
Pu10 Rh1 2.873536 1_555
Pu10 Rh8 2.892924 1_555
Pu10 Rh0 3.076084 1_555
Pu10 Rh11 3.098792 1_545
Pu10 Pu19 3.228170 1_555
Pu10 Pu11 3.387351 1_546
Pu10 Pu11 3.387351 1_545
Pu10 Pu2 3.417627 1_555
Pu10 Pu13 3.525563 1_556
Pu10 Pu13 3.525563 1_555
Pu10 Rh10 3.616090 1_556
Pu10 Pu16 3.695704 1_555
Pu10 Pu12 3.695704 1_545
Pu10 Pu3 3.759247 1_556
Pu11 Rh11 2.858773 1_554
Pu11 Rh0 2.873536 1_565
Pu11 Rh5 2.892924 1_555
Pu11 Rh1 3.076084 1_564
Pu11 Rh10 3.098792 1_565
Pu11 Pu18 3.228170 1_555
Pu11 Pu3 3.417627 1_565
Pu11 Pu12 3.525563 1_554
Pu11 Pu12 3.525563 1_555
Pu11 Rh11 3.616090 1_555
Pu11 Pu13 3.695704 1_565
Pu11 Pu17 3.695704 1_555
Pu11 Pu2 3.759247 1_565
Pu12 Rh5 2.858773 1_555
Pu12 Rh1 2.873536 1_565
Pu12 Rh11 2.892924 1_555
Pu12 Rh0 3.076084 1_565
Pu12 Rh4 3.098792 1_555
Pu12 Pu5 3.228170 1_555
Pu12 Pu17 3.387351 1_556
Pu12 Pu17 3.387351 1_555
Pu12 Rh5 3.616090 1_556
Pu12 Pu6 3.695704 1_555
Pu13 Rh8 2.858773 1_554
Pu13 Rh0 2.873536 1_555
Pu13 Rh10 2.892924 1_555
Pu13 Rh1 3.076084 1_554
Pu13 Rh9 3.098792 1_555
Pu13 Pu8 3.228170 1_555
Pu13 Pu16 3.387351 1_554
Pu13 Pu16 3.387351 1_555
Pu13 Rh8 3.616090 1_555
Pu13 Pu7 3.695704 1_555
Pu14 Rh7 2.858773 1_555
Pu14 Rh3 2.873536 1_655
Pu14 Rh9 2.892924 1_555
Pu14 Rh2 3.076084 1_655
Pu14 Rh10 3.098792 1_655
Pu14 Pu7 3.228170 1_555
Pu14 Pu19 3.387351 1_654
Pu14 Pu19 3.387351 1_655
Pu14 Pu2 3.417627 1_655
Pu14 Pu9 3.525563 1_554
Pu14 Pu9 3.525563 1_555
Pu14 Rh7 3.616090 1_554
Pu14 Pu8 3.695704 1_655
Pu14 Pu4 3.695704 1_555
Pu14 Pu3 3.759247 1_655
Pu15 Rh6 2.858773 1_556
Pu15 Rh2 2.873536 1_655
Pu15 Rh4 2.892924 1_555
Pu15 Rh3 3.076084 1_656
Pu15 Rh11 3.098792 1_655
Pu15 Pu6 3.228170 1_555
Pu15 Pu18 3.387351 1_656
Pu15 Pu18 3.387351 1_655
Pu15 Pu3 3.417627 1_666
Pu15 Pu4 3.525563 1_556
Pu15 Pu4 3.525563 1_555
Pu15 Rh6 3.616090 1_555
Pu15 Pu5 3.695704 1_655
Pu15 Pu9 3.695704 1_555
Pu15 Pu2 3.759247 1_665
Pu16 Rh9 2.858773 1_555
Pu16 Rh1 2.873536 1_555
Pu16 Rh7 2.892924 1_555
Pu16 Rh0 3.076084 1_555
Pu16 Rh8 3.098792 1_555
Pu16 Pu9 3.228170 1_555
Pu16 Pu7 3.525563 1_556
Pu16 Pu7 3.525563 1_555
Pu16 Rh9 3.616090 1_556
Pu16 Pu6 3.695704 1_545
Pu17 Rh4 2.858773 1_554
Pu17 Rh0 2.873536 1_565
Pu17 Rh6 2.892924 1_555
Pu17 Rh1 3.076084 1_564
Pu17 Rh5 3.098792 1_555
Pu17 Pu4 3.228170 1_555
Pu17 Pu6 3.525563 1_554
Pu17 Pu6 3.525563 1_555
Pu17 Rh4 3.616090 1_555
Pu17 Pu7 3.695704 1_565
Pu18 Rh11 2.858773 1_555
Pu18 Rh3 2.873536 1_555
Pu18 Rh5 2.892924 1_555
Pu18 Rh2 3.076084 1_555
Pu18 Rh6 3.098792 1_455
Pu18 Pu2 3.417627 1_565
Pu18 Pu5 3.525563 1_554
Pu18 Pu5 3.525563 1_555
Pu18 Rh11 3.616090 1_554
Pu18 Pu8 3.695704 1_555
Pu18 Pu4 3.695704 1_455
Pu18 Pu3 3.759247 1_565
Pu19 Rh10 2.858773 1_556
Pu19 Rh2 2.873536 1_555
Pu19 Rh8 2.892924 1_555
Pu19 Rh3 3.076084 1_556
Pu19 Rh7 3.098792 1_455
Pu19 Pu3 3.417627 1_556
Pu19 Pu8 3.525563 1_556
Pu19 Pu8 3.525563 1_555
Pu19 Rh10 3.616090 1_555
Pu19 Pu5 3.695704 1_555
Pu19 Pu9 3.695704 1_455
Pu19 Pu2 3.759247 1_555
Rh0 Rh1 2.817738 1_555
Rh0 Rh1 2.817738 1_554
Rh2 Rh3 2.817738 1_555
Rh2 Rh3 2.817738 1_556
