# generated using pymatgen
data_Bi2O3
_symmetry_space_group_name_H-M   'P 1'
_cell_length_a   3.76863700
_cell_length_b   3.92730552
_cell_length_c   20.46633503
_cell_angle_alpha   90.95090919
_cell_angle_beta   94.19801688
_cell_angle_gamma   115.70423044
_symmetry_Int_Tables_number   1
_chemical_formula_structural   Bi2O3
_chemical_formula_sum   'Bi6 O9'
_cell_volume   271.81245588
_cell_formula_units_Z   3
loop_
 _symmetry_equiv_pos_site_id
 _symmetry_equiv_pos_as_xyz
  1  'x, y, z'
loop_
 _atom_site_type_symbol
 _atom_site_label
 _atom_site_symmetry_multiplicity
 _atom_site_fract_x
 _atom_site_fract_y
 _atom_site_fract_z
 _atom_site_occupancy
  Bi  Bi0  1  0.92337900  0.94206500  0.00401500  1
  Bi  Bi1  1  0.42067200  0.44166500  0.49848700  1
  Bi  Bi2  1  0.37847600  0.09693300  0.83566600  1
  Bi  Bi3  1  0.00595200  0.44587000  0.67312300  1
  Bi  Bi4  1  0.05639500  0.81755100  0.33422800  1
  Bi  Bi5  1  0.44340800  0.61692300  0.15931700  1
  O  O0  1  0.83399300  0.90833400  0.89338900  1
  O  O1  1  0.09005300  0.51155400  0.78789700  1
  O  O2  1  0.35073200  0.10617000  0.68286700  1
  O  O3  1  0.88929000  0.28043200  0.55859100  1
  O  O4  1  0.13442500  0.86965900  0.45026500  1
  O  O5  1  0.39471800  0.46915800  0.34100900  1
  O  O6  1  0.03022000  0.80540000  0.21975600  1
  O  O7  1  0.66566200  0.15099800  0.10808100  1
  O  O8  1  0.25762100  0.57761800  0.99497300  1
loop_
_geom_bond_atom_site_label_1
_geom_bond_atom_site_label_2
_geom_bond_distance
_geom_bond_site_symmetry_2
Bi0 O0 2.257628 1_554
Bi0 O8 2.274453 1_664
Bi0 O8 2.277288 1_554
Bi0 O8 2.293209 1_654
Bi0 O7 2.662522 1_565
Bi1 O4 2.202869 1_545
Bi1 O3 2.282763 1_455
Bi1 O3 2.389751 1_555
Bi1 O4 2.536759 1_555
Bi1 O4 2.748904 1_655
Bi2 O1 2.241580 1_545
Bi2 O0 2.284810 1_445
Bi2 O0 2.392981 1_545
Bi2 O1 2.494273 1_555
Bi2 O1 2.729009 1_655
Bi3 O2 2.232155 1_555
Bi3 O2 2.267217 1_455
Bi3 O2 2.339831 1_565
Bi3 O1 2.341960 1_555
Bi3 O3 2.379241 1_455
Bi4 O5 2.238464 1_555
Bi4 O5 2.281847 1_455
Bi4 O5 2.307740 1_565
Bi4 O6 2.336492 1_555
Bi4 O4 2.365945 1_555
Bi5 O7 2.208661 1_565
Bi5 O6 2.262249 1_655
Bi5 O6 2.398786 1_555
Bi5 O7 2.558093 1_555
Bi5 O7 2.805850 1_455
