# generated using pymatgen
data_Ba4Pr(RuO4)3
_symmetry_space_group_name_H-M   'P 1'
_cell_length_a   5.99099934
_cell_length_b   5.99099913
_cell_length_c   30.02434551
_cell_angle_alpha   89.06964749
_cell_angle_beta   89.06964862
_cell_angle_gamma   60.07008568
_symmetry_Int_Tables_number   1
_chemical_formula_structural   Ba4Pr(RuO4)3
_chemical_formula_sum   'Ba12 Pr3 Ru9 O36'
_cell_volume   933.75424435
_cell_formula_units_Z   3
loop_
 _symmetry_equiv_pos_site_id
 _symmetry_equiv_pos_as_xyz
  1  'x, y, z'
loop_
 _atom_site_type_symbol
 _atom_site_label
 _atom_site_symmetry_multiplicity
 _atom_site_fract_x
 _atom_site_fract_y
 _atom_site_fract_z
 _atom_site_occupancy
  Ba  Ba0  1  0.99754800  0.99754800  0.71810100  1
  Ba  Ba1  1  0.00245200  0.00245200  0.28189900  1
  Ba  Ba2  1  0.00255100  0.00255100  0.13221500  1
  Ba  Ba3  1  0.99744900  0.99744900  0.86778500  1
  Ba  Ba4  1  0.33663700  0.33663700  0.61462000  1
  Ba  Ba5  1  0.66336300  0.66336300  0.38538000  1
  Ba  Ba6  1  0.33505000  0.33505000  0.20354100  1
  Ba  Ba7  1  0.66611000  0.66611000  0.53566400  1
  Ba  Ba8  1  0.33163300  0.33163300  0.05168500  1
  Ba  Ba9  1  0.33389000  0.33389000  0.46433600  1
  Ba  Ba10  1  0.66836700  0.66836700  0.94831500  1
  Ba  Ba11  1  0.66495000  0.66495000  0.79645900  1
  Pr  Pr0  1  0.33298700  0.33298700  0.33344700  1
  Pr  Pr1  1  0.66701300  0.66701300  0.66655300  1
  Pr  Pr2  1  0.00000000  0.00000000  0.00000000  1
  Ru  Ru0  1  0.66314600  0.66314600  0.08162600  1
  Ru  Ru1  1  0.33268600  0.33268600  0.83340400  1
  Ru  Ru2  1  0.99352900  0.99352900  0.41506100  1
  Ru  Ru3  1  0.66731400  0.66731400  0.16659600  1
  Ru  Ru4  1  0.00647100  0.00647100  0.58493900  1
  Ru  Ru5  1  0.00000000  0.00000000  0.50000000  1
  Ru  Ru6  1  0.33685400  0.33685400  0.91837400  1
  Ru  Ru7  1  0.67109900  0.67109900  0.25152900  1
  Ru  Ru8  1  0.32890100  0.32890100  0.74847100  1
  O  O0  1  0.15832300  0.15832300  0.53849800  1
  O  O1  1  0.50974500  0.97605800  0.12396800  1
  O  O2  1  0.85941900  0.85941900  0.62550700  1
  O  O3  1  0.49025500  0.02394200  0.87603200  1
  O  O4  1  0.17704200  0.17704200  0.79405700  1
  O  O5  1  0.01399700  0.48035600  0.71456500  1
  O  O6  1  0.51964400  0.98600300  0.28543500  1
  O  O7  1  0.65033800  0.18644400  0.95257700  1
  O  O8  1  0.64211300  0.17518200  0.79064100  1
  O  O9  1  0.47933400  0.47933400  0.70955600  1
  O  O10  1  0.17518200  0.64211300  0.79064100  1
  O  O11  1  0.81281600  0.81281600  0.04269500  1
  O  O12  1  0.32198300  0.85790000  0.61839700  1
  O  O13  1  0.82481800  0.35788700  0.20935900  1
  O  O14  1  0.52066600  0.52066600  0.29044400  1
  O  O15  1  0.69205300  0.15813300  0.54294000  1
  O  O16  1  0.84186700  0.30794700  0.45706000  1
  O  O17  1  0.98600300  0.51964400  0.28543500  1
  O  O18  1  0.14210000  0.67801700  0.38160300  1
  O  O19  1  0.18718400  0.18718400  0.95730500  1
  O  O20  1  0.02394200  0.49025500  0.87603200  1
  O  O21  1  0.97605800  0.50974500  0.12396800  1
  O  O22  1  0.51128900  0.51128900  0.12760200  1
  O  O23  1  0.34966200  0.81355600  0.04742300  1
  O  O24  1  0.35788700  0.82481800  0.20935900  1
  O  O25  1  0.15813300  0.69205300  0.54294000  1
  O  O26  1  0.85790000  0.32198300  0.61839700  1
  O  O27  1  0.14058100  0.14058100  0.37449300  1
  O  O28  1  0.48035600  0.01399700  0.71456500  1
  O  O29  1  0.18644400  0.65033800  0.95257700  1
  O  O30  1  0.82295800  0.82295800  0.20594300  1
  O  O31  1  0.81355600  0.34966200  0.04742300  1
  O  O32  1  0.48871100  0.48871100  0.87239800  1
  O  O33  1  0.67801700  0.14210000  0.38160300  1
  O  O34  1  0.84167700  0.84167700  0.46150200  1
  O  O35  1  0.30794700  0.84186700  0.45706000  1
loop_
_geom_bond_atom_site_label_1
_geom_bond_atom_site_label_2
_geom_bond_distance
_geom_bond_site_symmetry_2
Ba0 O10 2.841442 1_655
Ba0 O8 2.841442 1_565
Ba0 O5 2.943073 1_665
Ba0 O28 2.943073 1_665
Ba0 O4 2.970987 1_665
Ba0 O9 3.015853 1_655
Ba0 O9 3.015853 1_565
Ba0 O5 3.054065 1_655
Ba0 O28 3.054065 1_565
Ba0 O2 3.151381 1_555
Ba0 O26 3.421824 1_565
Ba0 O12 3.421825 1_655
Ba1 O13 2.841442 1_455
Ba1 O24 2.841442 1_545
Ba1 O17 2.943073 1_445
Ba1 O6 2.943073 1_445
Ba1 O30 2.970987 1_445
Ba1 O14 3.015853 1_455
Ba1 O14 3.015853 1_545
Ba1 O17 3.054065 1_455
Ba1 O6 3.054065 1_545
Ba1 O27 3.151381 1_555
Ba1 O18 3.421824 1_545
Ba1 O33 3.421825 1_455
Ba2 O30 2.866354 1_445
Ba2 O21 2.969035 1_455
Ba2 O1 2.969035 1_545
Ba2 O24 2.974644 1_545
Ba2 O13 2.974644 1_455
Ba2 O22 3.003159 1_455
Ba2 O22 3.003159 1_545
Ba2 O21 3.048901 1_445
Ba2 O1 3.048901 1_445
Ba2 O31 3.108026 1_455
Ba2 O23 3.108026 1_545
Ba2 O11 3.360971 1_445
Ba3 O4 2.866354 1_665
Ba3 O20 2.969035 1_655
Ba3 O3 2.969035 1_565
Ba3 O8 2.974644 1_565
Ba3 O10 2.974644 1_655
Ba3 O32 3.003159 1_655
Ba3 O32 3.003159 1_565
Ba3 O20 3.048901 1_665
Ba3 O3 3.048901 1_665
Ba3 O29 3.108026 1_655
Ba3 O7 3.108026 1_565
Ba3 O19 3.360971 1_665
Ba4 O25 2.821867 1_555
Ba4 O15 2.821867 1_555
Ba4 O12 2.913249 1_545
Ba4 O26 2.913249 1_455
Ba4 O0 2.967050 1_555
Ba4 O2 3.026157 1_455
Ba4 O2 3.026157 1_545
Ba4 O12 3.083923 1_555
Ba4 O26 3.083923 1_555
Ba4 O9 3.236355 1_555
Ba4 O28 3.423021 1_555
Ba4 O5 3.423021 1_555
Ba5 O16 2.821867 1_555
Ba5 O35 2.821867 1_555
Ba5 O33 2.913249 1_565
Ba5 O18 2.913249 1_655
Ba5 O34 2.967050 1_555
Ba5 O27 3.026157 1_655
Ba5 O27 3.026157 1_565
Ba5 O33 3.083923 1_555
Ba5 O18 3.083923 1_555
Ba5 O14 3.236355 1_555
Ba5 O6 3.423021 1_555
Ba5 O17 3.423021 1_555
Ba6 O22 2.895551 1_555
Ba6 O24 2.993219 1_545
Ba6 O13 2.993219 1_455
Ba6 O30 3.002104 1_545
Ba6 O30 3.002104 1_455
Ba6 O24 3.012769 1_555
Ba6 O13 3.012769 1_555
Ba6 O6 3.042251 1_545
Ba6 O17 3.042251 1_455
Ba6 O21 3.044403 1_455
Ba6 O1 3.044403 1_545
Ba6 O14 3.271633 1_555
Ba7 O34 2.850012 1_555
Ba7 O15 2.973383 1_555
Ba7 O25 2.973383 1_555
Ba7 O0 3.000924 1_655
Ba7 O0 3.000924 1_565
Ba7 O35 3.018591 1_555
Ba7 O16 3.018591 1_555
Ba7 O15 3.039747 1_565
Ba7 O25 3.039747 1_655
Ba7 O26 3.050162 1_555
Ba7 O12 3.050162 1_555
Ba7 O2 3.391183 1_555
Ba8 O1 2.836080 1_545
Ba8 O21 2.836080 1_455
Ba8 O23 2.943248 1_555
Ba8 O31 2.943248 1_555
Ba8 O22 2.971152 1_555
Ba8 O11 3.017444 1_545
Ba8 O11 3.017444 1_455
Ba8 O23 3.056063 1_545
Ba8 O31 3.056063 1_455
Ba8 O19 3.230208 1_554
Ba8 O29 3.391021 1_554
Ba8 O7 3.391021 1_554
Ba9 O0 2.850012 1_555
Ba9 O35 2.973383 1_555
Ba9 O16 2.973383 1_555
Ba9 O34 3.000924 1_455
Ba9 O34 3.000924 1_545
Ba9 O15 3.018591 1_555
Ba9 O25 3.018591 1_555
Ba9 O35 3.039747 1_545
Ba9 O16 3.039747 1_455
Ba9 O18 3.050162 1_555
Ba9 O33 3.050162 1_555
Ba9 O27 3.391183 1_555
Ba10 O3 2.836080 1_565
Ba10 O20 2.836080 1_655
Ba10 O7 2.943248 1_555
Ba10 O29 2.943248 1_555
Ba10 O32 2.971152 1_555
Ba10 O19 3.017444 1_565
Ba10 O19 3.017444 1_655
Ba10 O7 3.056063 1_565
Ba10 O29 3.056063 1_655
Ba10 O11 3.230208 1_556
Ba10 O31 3.391021 1_556
Ba10 O23 3.391021 1_556
Ba11 O32 2.895551 1_555
Ba11 O8 2.993219 1_565
Ba11 O10 2.993219 1_655
Ba11 O4 3.002104 1_565
Ba11 O4 3.002104 1_655
Ba11 O8 3.012769 1_555
Ba11 O10 3.012769 1_555
Ba11 O28 3.042251 1_565
Ba11 O5 3.042251 1_655
Ba11 O20 3.044403 1_655
Ba11 O3 3.044403 1_565
Ba11 O9 3.271633 1_555
O0 Ru5 2.025928 1_555
O0 Ru4 2.083989 1_555
O1 Ru3 2.042183 1_555
O1 Ru0 2.072527 1_555
O2 Ru4 1.934082 1_665
O2 Pr1 2.325911 1_555
O3 Ru1 2.042183 1_555
O3 Ru6 2.072527 1_555
O4 Ru1 2.018364 1_555
O4 Ru8 2.067322 1_555
O5 Ru8 1.934694 1_555
O5 Pr1 2.318429 1_455
O6 Ru7 1.934694 1_555
O6 Pr0 2.318429 1_565
O7 Ru6 1.933280 1_555
O7 Pr2 2.318095 1_656
O8 Ru1 2.047409 1_555
O8 Ru8 2.070539 1_555
O9 Ru8 1.931777 1_555
O9 Pr1 2.315770 1_555
O10 Ru1 2.047409 1_555
O10 Ru8 2.070539 1_555
O11 Ru0 1.925764 1_555
O11 Pr2 2.306502 1_665
O12 Ru4 1.930825 1_565
O12 Pr1 2.314211 1_555
O13 Ru3 2.047409 1_555
O13 Ru7 2.070539 1_555
O14 Ru7 1.931777 1_555
O14 Pr0 2.315770 1_555
O15 Ru5 2.044914 1_655
O15 Ru4 2.072666 1_655
O16 Ru5 2.044914 1_655
O16 Ru2 2.072666 1_545
O17 Ru7 1.934694 1_555
O17 Pr0 2.318429 1_655
O18 Ru2 1.930825 1_455
O18 Pr0 2.314211 1_555
O19 Ru6 1.925764 1_555
O19 Pr2 2.306502 1_556
O20 Ru1 2.042183 1_555
O20 Ru6 2.072527 1_555
O21 Ru3 2.042183 1_555
O21 Ru0 2.072527 1_555
O22 Ru3 2.015236 1_555
O22 Ru0 2.074911 1_555
O23 Ru0 1.933280 1_555
O23 Pr2 2.318095 1_565
O24 Ru3 2.047409 1_555
O24 Ru7 2.070539 1_555
O25 Ru5 2.044914 1_565
O25 Ru4 2.072666 1_565
O26 Ru4 1.930825 1_655
O26 Pr1 2.314211 1_555
O27 Ru2 1.934082 1_445
O27 Pr0 2.325911 1_555
O28 Ru8 1.934694 1_555
O28 Pr1 2.318429 1_545
O29 Ru6 1.933280 1_555
O29 Pr2 2.318095 1_566
O30 Ru3 2.018364 1_555
O30 Ru7 2.067322 1_555
O31 Ru0 1.933280 1_555
O31 Pr2 2.318095 1_655
O32 Ru1 2.015236 1_555
O32 Ru6 2.074911 1_555
O33 Ru2 1.930825 1_545
O33 Pr0 2.314211 1_555
O34 Ru5 2.025928 1_665
O34 Ru2 2.083989 1_555
O35 Ru5 2.044914 1_565
O35 Ru2 2.072666 1_455
