# generated using pymatgen
data_K2CuH8(CO3)4
_symmetry_space_group_name_H-M   'P 1'
_cell_length_a   14.87618500
_cell_length_b   3.89234000
_cell_length_c   11.41313892
_cell_angle_alpha   73.48774050
_cell_angle_beta   90.00000000
_cell_angle_gamma   90.00000000
_symmetry_Int_Tables_number   1
_chemical_formula_structural   K2CuH8(CO3)4
_chemical_formula_sum   'K4 Cu2 H16 C8 O24'
_cell_volume   633.60248382
_cell_formula_units_Z   2
loop_
 _symmetry_equiv_pos_site_id
 _symmetry_equiv_pos_as_xyz
  1  'x, y, z'
loop_
 _atom_site_type_symbol
 _atom_site_label
 _atom_site_symmetry_multiplicity
 _atom_site_fract_x
 _atom_site_fract_y
 _atom_site_fract_z
 _atom_site_occupancy
  K  K0  1  0.36878200  0.26666100  0.51324000  1
  K  K1  1  0.63121800  0.73333900  0.48676000  1
  K  K2  1  0.13121800  0.26666100  0.01324000  1
  K  K3  1  0.86878200  0.73333900  0.98676000  1
  Cu  Cu0  1  0.50000000  0.50000000  0.00000000  1
  Cu  Cu1  1  0.00000000  0.50000000  0.50000000  1
  H  H0  1  0.12539500  0.02512200  0.76236200  1
  H  H1  1  0.31111700  0.87640500  0.02171400  1
  H  H2  1  0.72827000  0.01492600  0.70194800  1
  H  H3  1  0.22827000  0.98507400  0.79805200  1
  H  H4  1  0.77173000  0.01492600  0.20194800  1
  H  H5  1  0.18888300  0.87640500  0.52171400  1
  H  H6  1  0.68888300  0.12359500  0.97828600  1
  H  H7  1  0.71427300  0.32566500  0.84578800  1
  H  H8  1  0.62539500  0.97487800  0.73763800  1
  H  H9  1  0.27173000  0.98507400  0.29805200  1
  H  H10  1  0.21427300  0.67433500  0.65421200  1
  H  H11  1  0.87460500  0.97487800  0.23763800  1
  H  H12  1  0.81111700  0.12359500  0.47828600  1
  H  H13  1  0.37460500  0.02512200  0.26236200  1
  H  H14  1  0.78572700  0.32566500  0.34578800  1
  H  H15  1  0.28572700  0.67433500  0.15421200  1
  C  C0  1  0.59811300  0.70440100  0.17407800  1
  C  C1  1  0.97477800  0.44106200  0.74474900  1
  C  C2  1  0.47477800  0.55893800  0.75525100  1
  C  C3  1  0.09811300  0.29559900  0.32592200  1
  C  C4  1  0.40188700  0.29559900  0.82592200  1
  C  C5  1  0.02522200  0.55893800  0.25525100  1
  C  C6  1  0.52522200  0.44106200  0.24474900  1
  C  C7  1  0.90188700  0.70440100  0.67407800  1
  O  O0  1  0.52885800  0.67614000  0.82439100  1
  O  O1  1  0.15469800  0.17004300  0.26893800  1
  O  O2  1  0.84530200  0.82995700  0.73106200  1
  O  O3  1  0.90646800  0.77880300  0.55612700  1
  O  O4  1  0.97854100  0.35627800  0.85815900  1
  O  O5  1  0.32957400  0.85631600  0.31022600  1
  O  O6  1  0.76302000  0.27090500  0.42969400  1
  O  O7  1  0.47854100  0.64372200  0.64184100  1
  O  O8  1  0.82957400  0.14368400  0.18977400  1
  O  O9  1  0.47114200  0.32386000  0.17560900  1
  O  O10  1  0.67042600  0.14368400  0.68977400  1
  O  O11  1  0.02145900  0.64372200  0.14184100  1
  O  O12  1  0.23698000  0.72909500  0.57030600  1
  O  O13  1  0.17042600  0.85631600  0.81022600  1
  O  O14  1  0.26302000  0.72909500  0.07030600  1
  O  O15  1  0.09353200  0.22119700  0.44387300  1
  O  O16  1  0.34530200  0.17004300  0.76893800  1
  O  O17  1  0.73698000  0.27090500  0.92969400  1
  O  O18  1  0.02885800  0.32386000  0.67560900  1
  O  O19  1  0.59353200  0.77880300  0.05612700  1
  O  O20  1  0.65469800  0.82995700  0.23106200  1
  O  O21  1  0.97114200  0.67614000  0.32439100  1
  O  O22  1  0.52145900  0.35627800  0.35815900  1
  O  O23  1  0.40646800  0.22119700  0.94387300  1
loop_
_geom_bond_atom_site_label_1
_geom_bond_atom_site_label_2
_geom_bond_distance
_geom_bond_site_symmetry_2
K0 O12 2.805712 1_545
K0 O5 2.820206 1_555
K0 O22 2.839378 1_555
K0 O16 2.855897 1_555
K0 O12 2.859160 1_555
K0 O7 2.863350 1_555
K0 O7 2.945578 1_545
K1 O6 2.805712 1_565
K1 O10 2.820206 1_555
K1 O7 2.839378 1_555
K1 O20 2.855897 1_555
K1 O6 2.859160 1_555
K1 O22 2.863350 1_555
K1 O22 2.945578 1_565
K2 O14 2.805712 1_545
K2 O13 2.820206 1_554
K2 O4 2.839378 1_454
K2 O1 2.855897 1_555
K2 O14 2.859160 1_555
K2 O11 2.863350 1_555
K2 O11 2.945578 1_545
K3 O17 2.805712 1_565
K3 O8 2.820206 1_556
K3 O11 2.839378 1_656
K3 O2 2.855897 1_555
K3 O17 2.859160 1_555
K3 O4 2.863350 1_555
K3 O4 2.945578 1_565
Cu0 O0 1.972374 1_554
Cu0 O9 1.972374 1_555
Cu0 O19 1.979684 1_555
Cu0 O23 1.979684 1_554
Cu1 O18 1.972374 1_555
Cu1 O21 1.972374 1_455
Cu1 O15 1.979684 1_555
Cu1 O3 1.979684 1_455
H0 O13 0.987348 1_545
H1 O14 0.983623 1_555
H2 O10 0.985571 1_555
H3 O13 0.985571 1_555
H4 O8 0.985571 1_555
H5 O12 0.983623 1_555
H6 O17 0.983623 1_555
H7 O17 0.980084 1_555
H8 O10 0.987348 1_565
H9 O5 0.985571 1_555
H10 O12 0.980084 1_555
H11 O8 0.987348 1_565
H12 O6 0.983623 1_555
H13 O5 0.987348 1_545
H14 O6 0.980084 1_555
H15 O14 0.980084 1_555
C0 O20 1.245415 1_555
C0 O19 1.295813 1_555
C1 O4 1.242822 1_555
C1 O18 1.297170 1_655
C2 O7 1.242822 1_555
C2 O0 1.297170 1_555
C3 O1 1.245415 1_555
C3 O15 1.295813 1_555
C4 O16 1.245415 1_555
C4 O23 1.295813 1_555
C5 O11 1.242822 1_555
C5 O21 1.297170 1_455
C6 O22 1.242822 1_555
C6 O9 1.297170 1_555
C7 O2 1.245415 1_555
C7 O3 1.295813 1_555
