# generated using pymatgen
data_V3Pb5ClO12
_symmetry_space_group_name_H-M   'P 1'
_cell_length_a   10.61964668
_cell_length_b   10.61964668
_cell_length_c   7.32577200
_cell_angle_alpha   90.00000000
_cell_angle_beta   90.00000000
_cell_angle_gamma   120.00000423
_symmetry_Int_Tables_number   1
_chemical_formula_structural   V3Pb5ClO12
_chemical_formula_sum   'V6 Pb10 Cl2 O24'
_cell_volume   715.49095313
_cell_formula_units_Z   2
loop_
 _symmetry_equiv_pos_site_id
 _symmetry_equiv_pos_as_xyz
  1  'x, y, z'
loop_
 _atom_site_type_symbol
 _atom_site_label
 _atom_site_symmetry_multiplicity
 _atom_site_fract_x
 _atom_site_fract_y
 _atom_site_fract_z
 _atom_site_occupancy
  V  V0  1  0.97070600  0.58622600  0.25000000  1
  V  V1  1  0.58622600  0.61552000  0.75000000  1
  V  V2  1  0.41377400  0.38448000  0.25000000  1
  V  V3  1  0.61552000  0.02929400  0.25000000  1
  V  V4  1  0.38448000  0.97070600  0.75000000  1
  V  V5  1  0.02929400  0.41377400  0.75000000  1
  Pb  Pb0  1  0.66666700  0.33333300  0.99055200  1
  Pb  Pb1  1  0.66666700  0.33333300  0.50944800  1
  Pb  Pb2  1  0.73862300  0.97671600  0.75000000  1
  Pb  Pb3  1  0.97671600  0.23809400  0.25000000  1
  Pb  Pb4  1  0.23809400  0.26137700  0.75000000  1
  Pb  Pb5  1  0.33333300  0.66666700  0.49055200  1
  Pb  Pb6  1  0.76190600  0.73862300  0.25000000  1
  Pb  Pb7  1  0.33333300  0.66666700  0.00944800  1
  Pb  Pb8  1  0.02328400  0.76190600  0.75000000  1
  Pb  Pb9  1  0.26137700  0.02328400  0.25000000  1
  Cl  Cl0  1  0.00000000  0.00000000  0.00000000  1
  Cl  Cl1  1  0.00000000  0.00000000  0.50000000  1
  O  O0  1  0.63924700  0.73039200  0.56115700  1
  O  O1  1  0.12413000  0.60661700  0.75000000  1
  O  O2  1  0.09114500  0.36075300  0.56115700  1
  O  O3  1  0.26960800  0.90885500  0.56115700  1
  O  O4  1  0.34381500  0.50255600  0.25000000  1
  O  O5  1  0.15874200  0.65618500  0.25000000  1
  O  O6  1  0.60661700  0.48248700  0.25000000  1
  O  O7  1  0.65618500  0.49744400  0.75000000  1
  O  O8  1  0.36075300  0.26960800  0.06115700  1
  O  O9  1  0.48248700  0.87587000  0.75000000  1
  O  O10  1  0.90885500  0.63924700  0.43884300  1
  O  O11  1  0.49744400  0.84125800  0.25000000  1
  O  O12  1  0.50255600  0.15874200  0.75000000  1
  O  O13  1  0.39338300  0.51751300  0.75000000  1
  O  O14  1  0.73039200  0.09114500  0.06115700  1
  O  O15  1  0.51751300  0.12413000  0.25000000  1
  O  O16  1  0.90885500  0.63924700  0.06115700  1
  O  O17  1  0.84125800  0.34381500  0.75000000  1
  O  O18  1  0.26960800  0.90885500  0.93884300  1
  O  O19  1  0.73039200  0.09114500  0.43884300  1
  O  O20  1  0.87587000  0.39338300  0.25000000  1
  O  O21  1  0.09114500  0.36075300  0.93884300  1
  O  O22  1  0.63924700  0.73039200  0.93884300  1
  O  O23  1  0.36075300  0.26960800  0.43884300  1
loop_
_geom_bond_atom_site_label_1
_geom_bond_atom_site_label_2
_geom_bond_distance
_geom_bond_site_symmetry_2
Cl0 Pb9 3.230118 1_555
Cl0 Pb2 3.230118 1_444
Cl0 Pb4 3.230121 1_554
Cl0 Pb6 3.230121 1_445
Cl0 Pb8 3.230126 1_544
Cl0 Pb3 3.230126 1_455
Cl1 Pb9 3.230118 1_555
Cl1 Pb2 3.230118 1_445
Cl1 Pb4 3.230121 1_555
Cl1 Pb6 3.230121 1_445
Cl1 Pb8 3.230126 1_545
Cl1 Pb3 3.230126 1_455
O0 V1 1.741312 1_555
O0 Pb6 2.605090 1_555
O0 Pb2 2.666413 1_555
O1 V5 1.773635 1_555
O1 Pb8 2.373316 1_555
O1 Pb7 2.745574 1_556
O1 Pb5 2.745574 1_555
O2 V5 1.741312 1_555
O2 Pb3 2.605093 1_455
O2 Pb4 2.666421 1_555
O3 V4 1.741312 1_555
O3 Pb9 2.605096 1_565
O3 Pb8 2.666414 1_555
O4 V2 1.748108 1_555
O4 Pb5 2.519761 1_555
O4 Pb7 2.519761 1_555
O5 V0 1.748117 1_455
O5 Pb5 2.519746 1_555
O5 Pb7 2.519746 1_555
O6 V2 1.773635 1_555
O6 Pb6 2.373324 1_555
O6 Pb1 2.745581 1_555
O6 Pb0 2.745581 1_554
O7 V1 1.748108 1_555
O7 Pb0 2.519761 1_555
O7 Pb1 2.519761 1_555
O8 V2 1.741312 1_555
O8 Pb4 2.605090 1_554
O8 Pb9 2.666413 1_555
O9 V4 1.773635 1_555
O9 Pb2 2.373325 1_555
O9 Pb7 2.745576 1_556
O9 Pb5 2.745576 1_555
O10 V0 1.741312 1_555
O10 Pb8 2.605093 1_655
O10 Pb6 2.666421 1_555
O11 V3 1.748116 1_565
O11 Pb5 2.519753 1_555
O11 Pb7 2.519753 1_555
O12 V4 1.748116 1_545
O12 Pb0 2.519753 1_555
O12 Pb1 2.519753 1_555
O13 V1 1.773635 1_555
O13 Pb4 2.373324 1_555
O13 Pb7 2.745581 1_556
O13 Pb5 2.745581 1_555
O14 V3 1.741312 1_555
O14 Pb2 2.605096 1_544
O14 Pb3 2.666414 1_555
O15 V3 1.773635 1_555
O15 Pb9 2.373325 1_555
O15 Pb1 2.745576 1_555
O15 Pb0 2.745576 1_554
O16 V0 1.741312 1_555
O16 Pb8 2.605093 1_654
O16 Pb6 2.666421 1_555
O17 V5 1.748117 1_655
O17 Pb0 2.519746 1_555
O17 Pb1 2.519746 1_555
O18 V4 1.741312 1_555
O18 Pb9 2.605096 1_566
O18 Pb8 2.666414 1_555
O19 V3 1.741312 1_555
O19 Pb2 2.605096 1_545
O19 Pb3 2.666414 1_555
O20 V0 1.773635 1_555
O20 Pb3 2.373316 1_555
O20 Pb1 2.745574 1_555
O20 Pb0 2.745574 1_554
O21 V5 1.741312 1_555
O21 Pb3 2.605093 1_456
O21 Pb4 2.666421 1_555
O22 V1 1.741312 1_555
O22 Pb6 2.605090 1_556
O22 Pb2 2.666413 1_555
O23 V2 1.741312 1_555
O23 Pb4 2.605090 1_555
O23 Pb9 2.666413 1_555
