# generated using pymatgen
data_CaMnBi2
_symmetry_space_group_name_H-M   'P 1'
_cell_length_a   6.44254694
_cell_length_b   6.41031493
_cell_length_c   11.79622894
_cell_angle_alpha   74.22964709
_cell_angle_beta   74.16380442
_cell_angle_gamma   90.02735466
_symmetry_Int_Tables_number   1
_chemical_formula_structural   CaMnBi2
_chemical_formula_sum   'Ca4 Mn4 Bi8'
_cell_volume   449.56947136
_cell_formula_units_Z   4
loop_
 _symmetry_equiv_pos_site_id
 _symmetry_equiv_pos_as_xyz
  1  'x, y, z'
loop_
 _atom_site_type_symbol
 _atom_site_label
 _atom_site_symmetry_multiplicity
 _atom_site_fract_x
 _atom_site_fract_y
 _atom_site_fract_z
 _atom_site_occupancy
  Ca  Ca0  1  0.36928600  0.11933300  0.26142800  1
  Ca  Ca1  1  0.86930100  0.61927300  0.26141900  1
  Ca  Ca2  1  0.13074800  0.38069200  0.73857100  1
  Ca  Ca3  1  0.63073200  0.88062500  0.73857500  1
  Mn  Mn0  1  0.24977700  0.99994100  0.00008600  1
  Mn  Mn1  1  0.75003100  0.00015800  0.99997600  1
  Mn  Mn2  1  0.74990000  0.49992300  0.00005100  1
  Mn  Mn3  1  0.25013600  0.50008800  0.99991800  1
  Bi  Bi0  1  0.99972400  0.74978900  0.50046000  1
  Bi  Bi1  1  0.49972400  0.24979100  0.50046000  1
  Bi  Bi2  1  0.50031100  0.75017800  0.49952700  1
  Bi  Bi3  1  0.00030400  0.25017400  0.49953800  1
  Bi  Bi4  1  0.07925100  0.82910000  0.84174300  1
  Bi  Bi5  1  0.57898700  0.32914200  0.84167000  1
  Bi  Bi6  1  0.42072900  0.67085800  0.15827600  1
  Bi  Bi7  1  0.92106000  0.17093600  0.15830100  1
loop_
_geom_bond_atom_site_label_1
_geom_bond_atom_site_label_2
_geom_bond_distance
_geom_bond_site_symmetry_2
Ca0 Mn2 3.640146 1_555
Ca0 Mn0 3.641418 1_545
Ca0 Mn3 3.642013 1_554
Ca0 Mn1 3.642275 1_554
Ca1 Mn0 3.639723 1_655
Ca1 Mn2 3.641287 1_555
Ca1 Mn1 3.642151 1_564
Ca1 Mn3 3.642976 1_654
Ca2 Mn1 3.640441 1_455
Ca2 Mn3 3.641141 1_555
Ca2 Mn0 3.641700 1_546
Ca2 Mn2 3.642964 1_456
Ca3 Mn3 3.639753 1_555
Ca3 Mn2 3.641625 1_556
Ca3 Mn1 3.641887 1_565
Ca3 Mn0 3.643773 1_556
Bi0 Bi3 3.204684 1_665
Bi0 Bi3 3.205663 1_655
Bi0 Bi2 3.220512 1_555
Bi0 Bi2 3.222067 1_655
Bi0 Ca3 3.447101 1_555
Bi0 Ca2 3.447263 1_655
Bi0 Ca0 3.454107 1_665
Bi0 Ca1 3.454273 1_555
Bi1 Bi2 3.204661 1_555
Bi1 Bi2 3.205686 1_545
Bi1 Bi3 3.220522 1_555
Bi1 Bi3 3.222057 1_655
Bi1 Ca2 3.447214 1_555
Bi1 Ca3 3.447454 1_545
Bi1 Ca1 3.454014 1_555
Bi1 Ca0 3.454045 1_555
Bi2 Ca1 3.447243 1_555
Bi2 Ca0 3.447341 1_565
Bi2 Ca2 3.454000 1_555
Bi2 Ca3 3.454140 1_555
Bi3 Ca0 3.447045 1_555
Bi3 Ca1 3.447272 1_455
Bi3 Ca3 3.454178 1_445
Bi3 Ca2 3.454252 1_555
Bi4 Mn0 2.850595 1_556
Bi4 Mn3 2.850612 1_555
Bi4 Mn2 2.851918 1_456
Bi4 Mn1 2.852920 1_465
Bi4 Ca2 3.396038 1_565
Bi4 Ca2 3.396430 1_555
Bi4 Ca3 3.410875 1_555
Bi4 Ca3 3.411992 1_455
Bi5 Mn3 2.851272 1_555
Bi5 Mn0 2.851811 1_546
Bi5 Mn1 2.851954 1_555
Bi5 Mn2 2.852173 1_556
Bi5 Ca3 3.395334 1_555
Bi5 Ca3 3.396581 1_545
Bi5 Ca2 3.409832 1_555
Bi5 Ca2 3.412540 1_655
Bi6 Mn3 2.850736 1_554
Bi6 Mn0 2.851211 1_555
Bi6 Mn1 2.852159 1_564
Bi6 Mn2 2.852246 1_555
Bi6 Ca0 3.395622 1_555
Bi6 Ca0 3.396703 1_565
Bi6 Ca1 3.410538 1_455
Bi6 Ca1 3.412149 1_555
Bi7 Mn0 2.850744 1_645
Bi7 Mn3 2.851050 1_654
Bi7 Mn1 2.852013 1_554
Bi7 Mn2 2.852018 1_555
Bi7 Ca1 3.395644 1_555
Bi7 Ca1 3.396437 1_545
Bi7 Ca0 3.409939 1_655
Bi7 Ca0 3.412635 1_555
