# generated using pymatgen
data_B4C
_symmetry_space_group_name_H-M   'P 1'
_cell_length_a   5.17552120
_cell_length_b   5.17552120
_cell_length_c   5.17552085
_cell_angle_alpha   65.94629340
_cell_angle_beta   65.94629340
_cell_angle_gamma   65.94628062
_symmetry_Int_Tables_number   1
_chemical_formula_structural   B4C
_chemical_formula_sum   'B12 C3'
_cell_volume   110.64787235
_cell_formula_units_Z   3
loop_
 _symmetry_equiv_pos_site_id
 _symmetry_equiv_pos_as_xyz
  1  'x, y, z'
loop_
 _atom_site_type_symbol
 _atom_site_label
 _atom_site_symmetry_multiplicity
 _atom_site_fract_x
 _atom_site_fract_y
 _atom_site_fract_z
 _atom_site_occupancy
  B  B0  1  0.30861965  0.80644137  0.80644137  1
  B  B1  1  0.80644137  0.80644137  0.30861965  1
  B  B2  1  0.80644137  0.30861965  0.80644137  1
  B  B3  1  0.69138035  0.19355863  0.19355863  1
  B  B4  1  0.19355863  0.19355863  0.69138035  1
  B  B5  1  0.19355863  0.69138035  0.19355863  1
  B  B6  1  0.67011697  0.99407128  0.99407128  1
  B  B7  1  0.99407128  0.99407128  0.67011697  1
  B  B8  1  0.99407128  0.67011697  0.99407128  1
  B  B9  1  0.32988303  0.00592872  0.00592872  1
  B  B10  1  0.00592872  0.00592872  0.32988303  1
  B  B11  1  0.00592872  0.32988303  0.00592872  1
  C  C0  1  0.60986435  0.60986435  0.60986435  1
  C  C1  1  0.39013565  0.39013565  0.39013565  1
  C  C2  1  0.50000000  0.50000000  0.50000000  1
loop_
_geom_bond_atom_site_label_1
_geom_bond_atom_site_label_2
_geom_bond_distance
_geom_bond_site_symmetry_2
B0 C0 1.660909 1_555
B0 B7 1.783290 1_455
B0 B8 1.783290 1_455
B0 B9 1.788355 1_566
B1 C0 1.660909 1_555
B1 B8 1.783290 1_554
B1 B6 1.783290 1_554
B1 B10 1.788356 1_665
B2 C0 1.660909 1_555
B2 B7 1.783290 1_545
B2 B6 1.783290 1_545
B3 C1 1.660909 1_555
B3 B6 1.788355 1_544
B4 C1 1.660909 1_555
B4 B9 1.783290 1_556
B4 B7 1.788356 1_445
B5 C1 1.660909 1_555
B5 B9 1.783290 1_565
B5 B8 1.788355 1_454
B6 B9 1.713227 1_566
B6 B8 1.825000 1_555
B6 B7 1.825001 1_555
B7 B8 1.825001 1_555
B10 B7 1.713227 1_445
B10 B3 1.783290 1_455
B10 B5 1.783290 1_545
B10 B9 1.825001 1_555
B10 B11 1.825001 1_555
B11 B8 1.713227 1_454
B11 B4 1.783290 1_554
B11 B3 1.783290 1_455
B11 B2 1.788355 1_454
B11 B9 1.825000 1_555
C0 C2 1.326881 1_555
C1 C2 1.326881 1_555
