# generated using pymatgen
data_LiSb2(PO4)3
_symmetry_space_group_name_H-M   'P 1'
_cell_length_a   9.06964400
_cell_length_b   8.77710700
_cell_length_c   15.46276970
_cell_angle_alpha   55.47122949
_cell_angle_beta   90.00000000
_cell_angle_gamma   90.00000000
_symmetry_Int_Tables_number   1
_chemical_formula_structural   LiSb2(PO4)3
_chemical_formula_sum   'Li4 Sb8 P12 O48'
_cell_volume   1014.08106910
_cell_formula_units_Z   4
loop_
 _symmetry_equiv_pos_site_id
 _symmetry_equiv_pos_as_xyz
  1  'x, y, z'
loop_
 _atom_site_type_symbol
 _atom_site_label
 _atom_site_symmetry_multiplicity
 _atom_site_fract_x
 _atom_site_fract_y
 _atom_site_fract_z
 _atom_site_occupancy
  Li  Li0  1  0.23890300  0.40750400  0.30725400  1
  Li  Li1  1  0.73890300  0.59249600  0.19274600  1
  Li  Li2  1  0.76109700  0.59249600  0.69274600  1
  Li  Li3  1  0.26109700  0.40750400  0.80725400  1
  Sb  Sb0  1  0.54723400  0.34800700  0.39733400  1
  Sb  Sb1  1  0.45276600  0.65199300  0.60266600  1
  Sb  Sb2  1  0.95276600  0.34800700  0.89733400  1
  Sb  Sb3  1  0.45567800  0.85825500  0.88755900  1
  Sb  Sb4  1  0.04432200  0.85825500  0.38755900  1
  Sb  Sb5  1  0.54432200  0.14174500  0.11244100  1
  Sb  Sb6  1  0.04723400  0.65199300  0.10266600  1
  Sb  Sb7  1  0.95567800  0.14174500  0.61244100  1
  P  P0  1  0.60602100  0.95935800  0.65779500  1
  P  P1  1  0.08961900  0.75242000  0.64108100  1
  P  P2  1  0.73937800  0.54435700  0.00744000  1
  P  P3  1  0.89397900  0.95935800  0.15779500  1
  P  P4  1  0.26062200  0.45564300  0.99256000  1
  P  P5  1  0.76062200  0.54435700  0.50744000  1
  P  P6  1  0.10602100  0.04064200  0.84220500  1
  P  P7  1  0.58961900  0.24758000  0.85891900  1
  P  P8  1  0.41038100  0.75242000  0.14108100  1
  P  P9  1  0.91038100  0.24758000  0.35891900  1
  P  P10  1  0.23937800  0.45564300  0.49256000  1
  P  P11  1  0.39397900  0.04064200  0.34220500  1
  O  O0  1  0.23709800  0.98631700  0.32560300  1
  O  O1  1  0.46246800  0.88933000  0.44843300  1
  O  O2  1  0.67505200  0.57734800  0.58178200  1
  O  O3  1  0.34204400  0.48370200  0.56001900  1
  O  O4  1  0.53753200  0.11067000  0.55156700  1
  O  O5  1  0.96054700  0.62336400  0.69823400  1
  O  O6  1  0.84204400  0.51629800  0.93998100  1
  O  O7  1  0.65795600  0.51629800  0.43998100  1
  O  O8  1  0.86506300  0.37602200  0.57966800  1
  O  O9  1  0.76290200  0.01368300  0.67439700  1
  O  O10  1  0.03753200  0.88933000  0.94843300  1
  O  O11  1  0.46054700  0.37663600  0.80176600  1
  O  O12  1  0.64497000  0.72040400  0.93290900  1
  O  O13  1  0.03945300  0.37663600  0.30176600  1
  O  O14  1  0.60397100  0.18419000  0.97704900  1
  O  O15  1  0.73862800  0.33514900  0.80924900  1
  O  O16  1  0.85503000  0.72040400  0.43290900  1
  O  O17  1  0.00201400  0.94467300  0.24099600  1
  O  O18  1  0.50201400  0.05532700  0.25900400  1
  O  O19  1  0.17505200  0.42265200  0.91821800  1
  O  O20  1  0.10397100  0.81581000  0.52295100  1
  O  O21  1  0.89602900  0.18419000  0.47704900  1
  O  O22  1  0.11537100  0.22461500  0.83143900  1
  O  O23  1  0.96246800  0.11067000  0.05156700  1
  O  O24  1  0.42340700  0.93103800  0.14078700  1
  O  O25  1  0.13493700  0.62397800  0.42033200  1
  O  O26  1  0.23862800  0.66485100  0.69075100  1
  O  O27  1  0.73709800  0.01368300  0.17439700  1
  O  O28  1  0.15795600  0.48370200  0.06001900  1
  O  O29  1  0.92340700  0.06896200  0.35921300  1
  O  O30  1  0.63493700  0.37602200  0.07966800  1
  O  O31  1  0.36506300  0.62397800  0.92033200  1
  O  O32  1  0.39602900  0.81581000  0.02295100  1
  O  O33  1  0.07659300  0.93103800  0.64078700  1
  O  O34  1  0.14497000  0.27959600  0.56709100  1
  O  O35  1  0.26137200  0.66485100  0.19075100  1
  O  O36  1  0.99798600  0.05532700  0.75900400  1
  O  O37  1  0.32494800  0.42265200  0.41821800  1
  O  O38  1  0.57659300  0.06896200  0.85921300  1
  O  O39  1  0.49798600  0.94467300  0.74099600  1
  O  O40  1  0.76137200  0.33514900  0.30924900  1
  O  O41  1  0.61537100  0.77538500  0.66856100  1
  O  O42  1  0.82494800  0.57734800  0.08178200  1
  O  O43  1  0.53945300  0.62336400  0.19823400  1
  O  O44  1  0.38462900  0.22461500  0.33143900  1
  O  O45  1  0.26290200  0.98631700  0.82560300  1
  O  O46  1  0.88462900  0.77538500  0.16856100  1
  O  O47  1  0.35503000  0.27959600  0.06709100  1
loop_
_geom_bond_atom_site_label_1
_geom_bond_atom_site_label_2
_geom_bond_distance
_geom_bond_site_symmetry_2
Li0 O13 1.838188 1_555
Li0 O35 1.943176 1_555
Li0 O44 1.944981 1_555
Li0 O37 1.956864 1_555
Li1 O43 1.838188 1_555
Li1 O40 1.943176 1_555
Li1 O46 1.944981 1_555
Li1 O42 1.956864 1_555
Li2 O5 1.838188 1_555
Li2 O15 1.943176 1_555
Li2 O41 1.944981 1_555
Li2 O2 1.956864 1_555
Li3 O11 1.838188 1_555
Li3 O26 1.943176 1_555
Li3 O22 1.944981 1_555
Li3 O19 1.956864 1_555
O0 P11 1.567333 1_565
O0 Sb4 2.004347 1_555
O1 P11 1.541009 1_565
O1 Sb1 2.098300 1_555
O2 P5 1.544325 1_555
O2 Sb1 2.199510 1_555
O3 P10 1.518871 1_555
O3 Sb1 2.174715 1_555
O4 P0 1.541009 1_545
O4 Sb0 2.098300 1_555
O5 P1 1.516463 1_655
O5 Sb2 2.624723 1_555
O6 P2 1.518871 1_556
O6 Sb2 2.174715 1_555
O7 P5 1.518871 1_555
O7 Sb0 2.174715 1_555
O8 P5 1.567465 1_555
O8 Sb7 1.994794 1_555
O9 P0 1.567333 1_545
O9 Sb7 2.004347 1_555
O10 P6 1.541009 1_565
O10 Sb6 2.098300 1_556
O11 P7 1.516463 1_555
O11 Sb1 2.624723 1_555
O12 P2 1.558900 1_556
O12 Sb3 1.985264 1_555
O13 P9 1.516463 1_455
O13 Sb6 2.624723 1_555
O14 P7 1.584588 1_555
O14 Sb5 1.982471 1_556
O15 P7 1.529008 1_555
O15 Sb2 2.411246 1_555
O16 P5 1.558900 1_555
O16 Sb4 1.985264 1_655
O17 P3 1.563280 1_455
O17 Sb4 1.977335 1_555
O18 P11 1.563280 1_555
O18 Sb5 1.977335 1_555
O19 P4 1.544325 1_555
O19 Sb2 2.199510 1_455
O20 P1 1.584588 1_555
O20 Sb4 1.982471 1_555
O21 P9 1.584588 1_555
O21 Sb7 1.982471 1_555
O22 P6 1.528918 1_555
O22 Sb2 2.374252 1_455
O23 P3 1.541009 1_545
O23 Sb2 2.098300 1_554
O24 P8 1.569629 1_555
O24 Sb5 1.973856 1_565
O25 P10 1.567465 1_555
O25 Sb4 1.994794 1_555
O26 P1 1.529008 1_555
O26 Sb1 2.411246 1_555
O27 P3 1.567333 1_545
O27 Sb5 2.004347 1_555
O28 P4 1.518871 1_554
O28 Sb6 2.174715 1_555
O29 P9 1.569629 1_555
O29 Sb4 1.973856 1_645
O30 P2 1.567465 1_555
O30 Sb5 1.994794 1_555
O31 P4 1.567465 1_555
O31 Sb3 1.994794 1_555
O32 P8 1.584588 1_555
O32 Sb3 1.982471 1_554
O33 P1 1.569629 1_555
O33 Sb7 1.973856 1_465
O34 P10 1.558900 1_555
O34 Sb7 1.985264 1_455
O35 P8 1.529008 1_555
O35 Sb6 2.411246 1_555
O36 P6 1.563280 1_655
O36 Sb7 1.977335 1_555
O37 P10 1.544325 1_555
O37 Sb0 2.199510 1_555
O38 P7 1.569629 1_555
O38 Sb3 1.973856 1_545
O39 P0 1.563280 1_555
O39 Sb3 1.977335 1_555
O40 P9 1.529008 1_555
O40 Sb0 2.411246 1_555
O41 P0 1.528918 1_555
O41 Sb1 2.374252 1_555
O42 P2 1.544325 1_555
O42 Sb6 2.199510 1_655
O43 P8 1.516463 1_555
O43 Sb0 2.624723 1_555
O44 P11 1.528918 1_555
O44 Sb0 2.374252 1_555
O45 P6 1.567333 1_565
O45 Sb3 2.004347 1_555
O46 P3 1.528918 1_555
O46 Sb6 2.374252 1_655
O47 P4 1.558900 1_554
O47 Sb5 1.985264 1_555
