# generated using pymatgen
data_NaNO3
_symmetry_space_group_name_H-M   'P 1'
_cell_length_a   5.12924200
_cell_length_b   6.47355893
_cell_length_c   17.70518524
_cell_angle_alpha   82.52805993
_cell_angle_beta   81.80349083
_cell_angle_gamma   66.88929430
_symmetry_Int_Tables_number   1
_chemical_formula_structural   NaNO3
_chemical_formula_sum   'Na8 N8 O24'
_cell_volume   533.41322944
_cell_formula_units_Z   8
loop_
 _symmetry_equiv_pos_site_id
 _symmetry_equiv_pos_as_xyz
  1  'x, y, z'
loop_
 _atom_site_type_symbol
 _atom_site_label
 _atom_site_symmetry_multiplicity
 _atom_site_fract_x
 _atom_site_fract_y
 _atom_site_fract_z
 _atom_site_occupancy
  Na  Na0  1  0.99336200  0.99640100  0.00054300  1
  Na  Na1  1  0.26710800  0.35141700  0.12612500  1
  Na  Na2  1  0.50320900  0.75256700  0.25000700  1
  Na  Na3  1  0.75005700  0.12470200  0.37529300  1
  Na  Na4  1  0.00020000  0.49975700  0.50039200  1
  Na  Na5  1  0.24956700  0.87523900  0.62539200  1
  Na  Na6  1  0.50117400  0.24911600  0.75035000  1
  Na  Na7  1  0.75745900  0.61767700  0.86847500  1
  N  N0  1  0.64403500  0.70757300  0.05003100  1
  N  N1  1  0.12586000  0.43742700  0.31253400  1
  N  N2  1  0.87462400  0.06268900  0.18833500  1
  N  N3  1  0.62510800  0.18753000  0.56238800  1
  N  N4  1  0.37508000  0.81243600  0.43742200  1
  N  N5  1  0.12961500  0.93874700  0.81097000  1
  N  N6  1  0.87547200  0.56238000  0.68700000  1
  N  N7  1  0.37530300  0.31186700  0.93726200  1
  O  O0  1  0.42929400  0.66855600  0.08149400  1
  O  O1  1  0.84642200  0.68280600  0.08872800  1
  O  O2  1  0.65467400  0.78081400  0.98024400  1
  O  O3  1  0.00358100  0.37656200  0.37355600  1
  O  O4  1  0.00209000  0.49740500  0.25159600  1
  O  O5  1  0.37337300  0.43827900  0.31200100  1
  O  O6  1  0.62556600  0.06473400  0.18972000  1
  O  O7  1  0.00335100  0.99679200  0.24824000  1
  O  O8  1  0.99261000  0.12713700  0.12718700  1
  O  O9  1  0.50163500  0.12669900  0.62326800  1
  O  O10  1  0.50150100  0.24852500  0.50146100  1
  O  O11  1  0.87256700  0.18746800  0.56232500  1
  O  O12  1  0.12775600  0.81248300  0.43735700  1
  O  O13  1  0.49859200  0.75168900  0.49825000  1
  O  O14  1  0.49868900  0.87338100  0.37643100  1
  O  O15  1  0.00746200  0.87739300  0.87181500  1
  O  O16  1  0.00428400  0.99993200  0.75029100  1
  O  O17  1  0.37717300  0.93875500  0.81062300  1
  O  O18  1  0.62792700  0.56254100  0.68738100  1
  O  O19  1  0.00042400  0.50066500  0.74770500  1
  O  O20  1  0.99832700  0.62363000  0.62616400  1
  O  O21  1  0.13018800  0.30747500  0.93716900  1
  O  O22  1  0.49842100  0.25367200  0.99815600  1
  O  O23  1  0.49670900  0.37500400  0.87639500  1
loop_
_geom_bond_atom_site_label_1
_geom_bond_atom_site_label_2
_geom_bond_distance
_geom_bond_site_symmetry_2
Na0 O22 2.431786 1_564
Na0 O21 2.470628 1_664
Na0 O15 2.481778 1_654
Na0 O8 2.496501 1_565
Na0 O1 2.677356 1_555
Na0 O2 2.703064 1_554
Na0 O0 2.820554 1_655
Na1 O6 2.336812 1_555
Na1 O8 2.383443 1_455
Na1 O22 2.441015 1_554
Na1 O1 2.469967 1_455
Na1 O0 2.502538 1_555
Na1 O4 2.520408 1_555
Na2 O6 2.420861 1_565
Na2 O7 2.429407 1_555
Na2 O4 2.442842 1_655
Na2 O14 2.459419 1_555
Na2 O5 2.462138 1_555
Na3 O14 2.437309 1_545
Na3 O3 2.447488 1_655
Na3 O12 2.449756 1_645
Na3 O5 2.460958 1_555
Na3 O10 2.471701 1_555
Na3 O7 2.498082 1_645
Na4 O11 2.444513 1_455
Na4 O10 2.445406 1_555
Na4 O13 2.449214 1_455
Na4 O12 2.452748 1_555
Na4 O20 2.460512 1_455
Na4 O3 2.474493 1_555
Na5 O9 2.438305 1_565
Na5 O20 2.439427 1_455
Na5 O16 2.449138 1_555
Na5 O18 2.452370 1_555
Na5 O11 2.456000 1_465
Na5 O13 2.486958 1_555
Na6 O17 2.414948 1_545
Na6 O19 2.445825 1_555
Na6 O16 2.448125 1_645
Na6 O18 2.454166 1_555
Na6 O23 2.467528 1_555
Na6 O9 2.480186 1_555
Na7 O2 2.262351 1_555
Na7 O19 2.370522 1_655
Na7 O23 2.411423 1_555
Na7 O17 2.451002 1_555
Na7 O21 2.486122 1_655
Na7 O15 2.492895 1_655
N0 O0 1.262604 1_555
N0 O2 1.266170 1_554
N0 O1 1.271349 1_555
N1 O3 1.267267 1_555
N1 O4 1.269134 1_555
N1 O5 1.270415 1_555
N2 O7 1.266399 1_645
N2 O8 1.267406 1_555
N2 O6 1.269096 1_555
N3 O9 1.268368 1_555
N3 O10 1.268556 1_555
N3 O11 1.268961 1_555
N4 O13 1.266762 1_555
N4 O12 1.268630 1_555
N4 O14 1.270460 1_555
N5 O15 1.265879 1_555
N5 O17 1.268944 1_555
N5 O16 1.269135 1_555
N6 O20 1.267286 1_555
N6 O18 1.268366 1_555
N6 O19 1.268577 1_655
N7 O22 1.266824 1_555
N7 O23 1.268891 1_555
N7 O21 1.268922 1_555
