# generated using pymatgen
data_UTe5
_symmetry_space_group_name_H-M   'P 1'
_cell_length_a   4.31822816
_cell_length_b   10.34175867
_cell_length_c   19.09001447
_cell_angle_alpha   90.00000000
_cell_angle_beta   90.00000000
_cell_angle_gamma   90.00000000
_symmetry_Int_Tables_number   1
_chemical_formula_structural   UTe5
_chemical_formula_sum   'U4 Te20'
_cell_volume   852.52326956
_cell_formula_units_Z   4
loop_
 _symmetry_equiv_pos_site_id
 _symmetry_equiv_pos_as_xyz
  1  'x, y, z'
loop_
 _atom_site_type_symbol
 _atom_site_label
 _atom_site_symmetry_multiplicity
 _atom_site_fract_x
 _atom_site_fract_y
 _atom_site_fract_z
 _atom_site_occupancy
  U  U0  1  0.39628351  0.24598888  0.59184638  1
  U  U1  1  0.60371649  0.74598888  0.40815362  1
  U  U2  1  0.89628351  0.74598888  0.90815362  1
  U  U3  1  0.10371649  0.24598888  0.09184638  1
  Te  Te0  1  0.60777359  0.43532626  0.15886447  1
  Te  Te1  1  0.37676698  0.75919239  0.03200755  1
  Te  Te2  1  0.12323302  0.75919239  0.53200755  1
  Te  Te3  1  0.10777359  0.93532626  0.34113553  1
  Te  Te4  1  0.05727115  0.99356970  -0.00078035  1
  Te  Te5  1  0.64553375  0.75175686  0.74904178  1
  Te  Te6  1  0.62323302  0.25919239  0.96799245  1
  Te  Te7  1  0.14553375  0.25175686  0.75095822  1
  Te  Te8  1  0.55727115  0.49356970  0.50078035  1
  Te  Te9  1  0.44272885  0.99356970  0.49921965  1
  Te  Te10  1  0.39136594  0.56286390  0.83580925  1
  Te  Te11  1  0.94272885  0.49356970  0.00078035  1
  Te  Te12  1  0.10863406  0.56286390  0.33580925  1
  Te  Te13  1  0.39222641  0.93532626  0.84113553  1
  Te  Te14  1  0.89136594  0.06286390  0.66419075  1
  Te  Te15  1  0.85446625  0.75175686  0.24904178  1
  Te  Te16  1  0.60863406  0.06286390  0.16419075  1
  Te  Te17  1  0.89222641  0.43532626  0.65886447  1
  Te  Te18  1  0.87676698  0.25919239  0.46799245  1
  Te  Te19  1  0.35446625  0.25175686  0.25095822  1
loop_
_geom_bond_atom_site_label_1
_geom_bond_atom_site_label_2
_geom_bond_distance
_geom_bond_site_symmetry_2
Te0 Te19 2.809152 1_555
Te0 U3 3.171327 1_655
Te0 U3 3.195093 1_555
Te0 Te11 3.400325 1_555
Te1 Te4 2.858390 1_555
Te1 U2 3.148628 1_454
Te1 U2 3.262163 1_554
Te1 Te11 3.378508 1_455
Te2 Te9 2.858390 1_555
Te2 U1 3.148628 1_555
Te2 U1 3.262163 1_455
Te2 Te8 3.378508 1_555
Te3 U1 3.171327 1_555
Te3 U1 3.195093 1_455
Te3 Te9 3.400325 1_555
Te4 U3 3.159337 1_565
Te4 U2 3.171947 1_454
Te4 Te6 3.378508 1_464
Te5 U2 3.225227 1_555
Te6 U3 3.148628 1_656
Te6 U3 3.262163 1_556
Te7 U0 3.225227 1_555
Te8 U1 3.159337 1_555
Te8 U0 3.171947 1_555
Te9 U0 3.159337 1_565
Te9 U1 3.171947 1_555
Te10 Te5 2.786461 1_555
Te10 U2 3.172451 1_455
Te10 U2 3.201225 1_555
Te11 Te6 2.858390 1_554
Te11 U2 3.159337 1_554
Te11 U3 3.171947 1_655
Te12 Te15 2.786461 1_455
Te12 U1 3.172451 1_555
Te12 U1 3.201225 1_455
Te13 Te5 2.809152 1_555
Te13 U2 3.171327 1_455
Te13 U2 3.195093 1_555
Te13 Te4 3.400325 1_556
Te14 Te7 2.786461 1_655
Te14 U0 3.172451 1_555
Te14 U0 3.201225 1_655
Te15 Te3 2.809152 1_655
Te15 U1 3.225227 1_555
Te16 Te19 2.786461 1_555
Te16 U3 3.172451 1_655
Te16 U3 3.201225 1_555
Te17 Te7 2.809152 1_655
Te17 U0 3.171327 1_555
Te17 U0 3.195093 1_655
Te17 Te8 3.400325 1_555
Te18 Te8 2.858390 1_555
Te18 U0 3.148628 1_555
Te18 U0 3.262163 1_655
Te18 Te9 3.378508 1_545
Te19 U3 3.225227 1_555
