# generated using pymatgen
data_Ho(BO2)3
_symmetry_space_group_name_H-M   'P 1'
_cell_length_a   7.43195600
_cell_length_b   12.29583100
_cell_length_c   16.00669800
_cell_angle_alpha   90.00000000
_cell_angle_beta   90.00000000
_cell_angle_gamma   90.00000000
_symmetry_Int_Tables_number   1
_chemical_formula_structural   Ho(BO2)3
_chemical_formula_sum   'Ho16 B48 O96'
_cell_volume   1462.72527675
_cell_formula_units_Z   16
loop_
 _symmetry_equiv_pos_site_id
 _symmetry_equiv_pos_as_xyz
  1  'x, y, z'
loop_
 _atom_site_type_symbol
 _atom_site_label
 _atom_site_symmetry_multiplicity
 _atom_site_fract_x
 _atom_site_fract_y
 _atom_site_fract_z
 _atom_site_occupancy
  Ho  Ho0  1  0.25000000  0.93448100  0.17216500  1
  Ho  Ho1  1  0.75000000  0.76731300  0.62790900  1
  Ho  Ho2  1  0.75000000  0.00893700  0.12099200  1
  Ho  Ho3  1  0.25000000  0.58897000  0.04827600  1
  Ho  Ho4  1  0.75000000  0.41103000  0.95172400  1
  Ho  Ho5  1  0.25000000  0.91103000  0.54827600  1
  Ho  Ho6  1  0.25000000  0.50893700  0.37900800  1
  Ho  Ho7  1  0.75000000  0.73268700  0.12790900  1
  Ho  Ho8  1  0.75000000  0.06551900  0.82783500  1
  Ho  Ho9  1  0.25000000  0.26731300  0.87209100  1
  Ho  Ho10  1  0.75000000  0.08897000  0.45172400  1
  Ho  Ho11  1  0.75000000  0.49106300  0.62099200  1
  Ho  Ho12  1  0.25000000  0.23268700  0.37209100  1
  Ho  Ho13  1  0.25000000  0.56551900  0.67216500  1
  Ho  Ho14  1  0.75000000  0.43448100  0.32783500  1
  Ho  Ho15  1  0.25000000  0.99106300  0.87900800  1
  B  B0  1  0.56871000  0.12869600  0.25800500  1
  B  B1  1  0.57770400  0.48306400  0.15259800  1
  B  B2  1  0.42229600  0.98306400  0.34740200  1
  B  B3  1  0.42229600  0.51693600  0.84740200  1
  B  B4  1  0.42339500  0.14305200  0.10968100  1
  B  B5  1  0.07036000  0.31461100  0.21775700  1
  B  B6  1  0.92964000  0.81461100  0.28224300  1
  B  B7  1  0.57036000  0.68538900  0.78224300  1
  B  B8  1  0.43980100  0.82236500  0.03194200  1
  B  B9  1  0.56019900  0.32236500  0.46805800  1
  B  B10  1  0.06019900  0.82236500  0.03194200  1
  B  B11  1  0.92229600  0.48306400  0.15259800  1
  B  B12  1  0.92339500  0.64305200  0.39031900  1
  B  B13  1  0.92229600  0.01693600  0.65259800  1
  B  B14  1  0.93980100  0.32236500  0.46805800  1
  B  B15  1  0.42339500  0.35694800  0.60968100  1
  B  B16  1  0.92650400  0.84601800  0.44307800  1
  B  B17  1  0.57660500  0.85694800  0.89031900  1
  B  B18  1  0.57770400  0.01693600  0.65259800  1
  B  B19  1  0.42964000  0.31461100  0.21775700  1
  B  B20  1  0.06871000  0.87130400  0.74199500  1
  B  B21  1  0.93980100  0.17763500  0.96805800  1
  B  B22  1  0.56871000  0.37130400  0.75800500  1
  B  B23  1  0.93129000  0.37130400  0.75800500  1
  B  B24  1  0.07036000  0.18538900  0.71775700  1
  B  B25  1  0.92650400  0.65398200  0.94307800  1
  B  B26  1  0.57660500  0.64305200  0.39031900  1
  B  B27  1  0.42650400  0.15398200  0.55692200  1
  B  B28  1  0.07349600  0.34601800  0.05692200  1
  B  B29  1  0.93129000  0.12869600  0.25800500  1
  B  B30  1  0.42650400  0.34601800  0.05692200  1
  B  B31  1  0.92339500  0.85694800  0.89031900  1
  B  B32  1  0.07660500  0.14305200  0.10968100  1
  B  B33  1  0.42964000  0.18538900  0.71775700  1
  B  B34  1  0.92964000  0.68538900  0.78224300  1
  B  B35  1  0.07660500  0.35694800  0.60968100  1
  B  B36  1  0.57349600  0.65398200  0.94307800  1
  B  B37  1  0.43980100  0.67763500  0.53194200  1
  B  B38  1  0.57349600  0.84601800  0.44307800  1
  B  B39  1  0.06871000  0.62869600  0.24199500  1
  B  B40  1  0.43129000  0.87130400  0.74199500  1
  B  B41  1  0.56019900  0.17763500  0.96805800  1
  B  B42  1  0.43129000  0.62869600  0.24199500  1
  B  B43  1  0.07770400  0.98306400  0.34740200  1
  B  B44  1  0.06019900  0.67763500  0.53194200  1
  B  B45  1  0.57036000  0.81461100  0.28224300  1
  B  B46  1  0.07770400  0.51693600  0.84740200  1
  B  B47  1  0.07349600  0.15398200  0.55692200  1
  O  O0  1  0.56578300  0.37730800  0.54856400  1
  O  O1  1  0.52128900  0.73035300  0.22313900  1
  O  O2  1  0.75000000  0.64339200  0.75464500  1
  O  O3  1  0.43470400  0.60076600  0.78172200  1
  O  O4  1  0.56529600  0.10076600  0.71827800  1
  O  O5  1  0.07412900  0.23454600  0.62906800  1
  O  O6  1  0.06577200  0.56486200  0.16391900  1
  O  O7  1  0.46554300  0.07709100  0.18525700  1
  O  O8  1  0.93470400  0.10076600  0.71827800  1
  O  O9  1  0.02128900  0.23035300  0.27686100  1
  O  O10  1  0.02128900  0.26964700  0.77686100  1
  O  O11  1  0.94028800  0.06857900  0.56940900  1
  O  O12  1  0.93421700  0.12269200  0.04856400  1
  O  O13  1  0.43422800  0.93513800  0.66391900  1
  O  O14  1  0.75000000  0.85660800  0.25464500  1
  O  O15  1  0.97620500  0.79050000  0.52190000  1
  O  O16  1  0.06578300  0.87730800  0.95143600  1
  O  O17  1  0.55971200  0.43142100  0.06940900  1
  O  O18  1  0.42587100  0.23454600  0.62906800  1
  O  O19  1  0.25000000  0.39900700  0.04873500  1
  O  O20  1  0.03445700  0.07709100  0.18525700  1
  O  O21  1  0.75000000  0.54156800  0.15876400  1
  O  O22  1  0.52379500  0.79050000  0.52190000  1
  O  O23  1  0.92587100  0.76545400  0.37093200  1
  O  O24  1  0.25000000  0.04156800  0.34123600  1
  O  O25  1  0.43470400  0.89923400  0.28172200  1
  O  O26  1  0.56577200  0.06486200  0.33608100  1
  O  O27  1  0.04079100  0.37821500  0.40346900  1
  O  O28  1  0.42587100  0.26545400  0.12906800  1
  O  O29  1  0.95920900  0.62178500  0.59653100  1
  O  O30  1  0.93470400  0.39923400  0.21827800  1
  O  O31  1  0.75000000  0.60524000  0.42214800  1
  O  O32  1  0.75000000  0.30211600  0.43442000  1
  O  O33  1  0.45920900  0.37821500  0.40346900  1
  O  O34  1  0.04079100  0.12178500  0.90346900  1
  O  O35  1  0.43421700  0.87730800  0.95143600  1
  O  O36  1  0.25000000  0.10099300  0.54873500  1
  O  O37  1  0.25000000  0.86057100  0.77599200  1
  O  O38  1  0.02379500  0.29050000  0.97810000  1
  O  O39  1  0.75000000  0.19788400  0.93442000  1
  O  O40  1  0.92587100  0.73454600  0.87093200  1
  O  O41  1  0.47620500  0.20950000  0.47810000  1
  O  O42  1  0.45920900  0.12178500  0.90346900  1
  O  O43  1  0.44028800  0.93142100  0.43059100  1
  O  O44  1  0.55971200  0.06857900  0.56940900  1
  O  O45  1  0.05971200  0.93142100  0.43059100  1
  O  O46  1  0.93421700  0.37730800  0.54856400  1
  O  O47  1  0.52379500  0.70950000  0.02190000  1
  O  O48  1  0.25000000  0.10524000  0.07785200  1
  O  O49  1  0.06577200  0.93513800  0.66391900  1
  O  O50  1  0.57412900  0.73454600  0.87093200  1
  O  O51  1  0.75000000  0.36057100  0.72400800  1
  O  O52  1  0.44028800  0.56857900  0.93059100  1
  O  O53  1  0.56529600  0.39923400  0.21827800  1
  O  O54  1  0.56578300  0.12269200  0.04856400  1
  O  O55  1  0.75000000  0.13942900  0.22400800  1
  O  O56  1  0.96554300  0.92290900  0.81474300  1
  O  O57  1  0.25000000  0.39476000  0.57785200  1
  O  O58  1  0.25000000  0.63942900  0.27599200  1
  O  O59  1  0.75000000  0.89900700  0.45126500  1
  O  O60  1  0.25000000  0.80211600  0.06558000  1
  O  O61  1  0.07412900  0.26545400  0.12906800  1
  O  O62  1  0.53445700  0.57709100  0.31474300  1
  O  O63  1  0.94028800  0.43142100  0.06940900  1
  O  O64  1  0.75000000  0.89476000  0.92214800  1
  O  O65  1  0.05971200  0.56857900  0.93059100  1
  O  O66  1  0.97871100  0.73035300  0.22313900  1
  O  O67  1  0.03445700  0.42290900  0.68525700  1
  O  O68  1  0.43422800  0.56486200  0.16391900  1
  O  O69  1  0.52128900  0.76964700  0.72313900  1
  O  O70  1  0.56577200  0.43513800  0.83608100  1
  O  O71  1  0.25000000  0.35660800  0.24535500  1
  O  O72  1  0.96554300  0.57709100  0.31474300  1
  O  O73  1  0.97620500  0.70950000  0.02190000  1
  O  O74  1  0.02379500  0.20950000  0.47810000  1
  O  O75  1  0.06529600  0.60076600  0.78172200  1
  O  O76  1  0.25000000  0.45843200  0.84123600  1
  O  O77  1  0.95920900  0.87821500  0.09653100  1
  O  O78  1  0.75000000  0.95843200  0.65876400  1
  O  O79  1  0.97871100  0.76964700  0.72313900  1
  O  O80  1  0.93422800  0.06486200  0.33608100  1
  O  O81  1  0.06578300  0.62269200  0.45143600  1
  O  O82  1  0.54079100  0.87821500  0.09653100  1
  O  O83  1  0.46554300  0.42290900  0.68525700  1
  O  O84  1  0.93422800  0.43513800  0.83608100  1
  O  O85  1  0.54079100  0.62178500  0.59653100  1
  O  O86  1  0.25000000  0.14339200  0.74535500  1
  O  O87  1  0.53445700  0.92290900  0.81474300  1
  O  O88  1  0.25000000  0.69788400  0.56558000  1
  O  O89  1  0.06529600  0.89923400  0.28172200  1
  O  O90  1  0.47871100  0.23035300  0.27686100  1
  O  O91  1  0.43421700  0.62269200  0.45143600  1
  O  O92  1  0.75000000  0.60099300  0.95126500  1
  O  O93  1  0.57412900  0.76545400  0.37093200  1
  O  O94  1  0.47620500  0.29050000  0.97810000  1
  O  O95  1  0.47871100  0.26964700  0.77686100  1
loop_
_geom_bond_atom_site_label_1
_geom_bond_atom_site_label_2
_geom_bond_distance
_geom_bond_site_symmetry_2
Ho0 O89 2.268797 1_555
Ho0 O25 2.268797 1_555
Ho0 O60 2.357873 1_555
Ho0 O20 2.384284 1_565
Ho0 O7 2.384284 1_565
Ho0 O77 2.571938 1_455
Ho0 O82 2.571938 1_555
Ho0 O48 2.586007 1_565
Ho1 O79 2.283328 1_555
Ho1 O69 2.283328 1_555
Ho1 O78 2.401306 1_555
Ho1 O15 2.405587 1_555
Ho1 O22 2.405587 1_555
Ho1 O29 2.423154 1_555
Ho1 O85 2.423154 1_555
Ho1 O2 2.537128 1_555
Ho2 O77 2.270316 1_545
Ho2 O82 2.270316 1_545
Ho2 O12 2.274833 1_555
Ho2 O54 2.274833 1_555
Ho2 O55 2.300754 1_555
Ho2 O7 2.495941 1_555
Ho2 O20 2.495941 1_655
Ho2 O14 2.843407 1_545
Ho3 O68 2.321409 1_555
Ho3 O6 2.321409 1_555
Ho3 O19 2.335764 1_555
Ho3 O65 2.368832 1_554
Ho3 O52 2.368832 1_554
Ho3 O73 2.552482 1_455
Ho3 O47 2.552482 1_555
Ho3 O60 2.635403 1_555
Ho4 O70 2.321409 1_555
Ho4 O84 2.321409 1_555
Ho4 O92 2.335764 1_555
Ho4 O17 2.368832 1_556
Ho4 O63 2.368832 1_556
Ho4 O38 2.552482 1_655
Ho4 O94 2.552482 1_555
Ho4 O39 2.635403 1_555
Ho5 O49 2.321409 1_555
Ho5 O13 2.321409 1_555
Ho5 O36 2.335764 1_565
Ho5 O43 2.368832 1_555
Ho5 O45 2.368832 1_555
Ho5 O15 2.552482 1_455
Ho5 O22 2.552482 1_555
Ho5 O88 2.635403 1_555
Ho6 O33 2.270316 1_555
Ho6 O27 2.270316 1_555
Ho6 O91 2.274833 1_555
Ho6 O81 2.274833 1_555
Ho6 O58 2.300754 1_555
Ho6 O72 2.495941 1_455
Ho6 O62 2.495941 1_555
Ho6 O71 2.843407 1_555
Ho7 O1 2.283328 1_555
Ho7 O66 2.283328 1_555
Ho7 O21 2.401306 1_555
Ho7 O47 2.405587 1_555
Ho7 O73 2.405587 1_555
Ho7 O82 2.423154 1_555
Ho7 O77 2.423154 1_555
Ho7 O14 2.537128 1_555
Ho8 O8 2.268797 1_555
Ho8 O4 2.268797 1_555
Ho8 O39 2.357873 1_555
Ho8 O56 2.384284 1_545
Ho8 O87 2.384284 1_545
Ho8 O34 2.571938 1_655
Ho8 O42 2.571938 1_555
Ho8 O64 2.586007 1_545
Ho9 O10 2.283328 1_555
Ho9 O95 2.283328 1_555
Ho9 O76 2.401306 1_555
Ho9 O94 2.405587 1_555
Ho9 O38 2.405587 1_555
Ho9 O42 2.423154 1_555
Ho9 O34 2.423154 1_555
Ho9 O86 2.537128 1_555
Ho10 O80 2.321409 1_555
Ho10 O26 2.321409 1_555
Ho10 O59 2.335764 1_545
Ho10 O11 2.368832 1_555
Ho10 O44 2.368832 1_555
Ho10 O41 2.552482 1_555
Ho10 O74 2.552482 1_655
Ho10 O32 2.635403 1_555
Ho11 O29 2.270316 1_555
Ho11 O85 2.270316 1_555
Ho11 O46 2.274833 1_555
Ho11 O0 2.274833 1_555
Ho11 O51 2.300754 1_555
Ho11 O67 2.495941 1_655
Ho11 O83 2.495941 1_555
Ho11 O2 2.843407 1_555
Ho12 O9 2.283328 1_555
Ho12 O90 2.283328 1_555
Ho12 O24 2.401306 1_555
Ho12 O74 2.405587 1_555
Ho12 O41 2.405587 1_555
Ho12 O33 2.423154 1_555
Ho12 O27 2.423154 1_555
Ho12 O71 2.537128 1_555
Ho13 O75 2.268797 1_555
Ho13 O3 2.268797 1_555
Ho13 O88 2.357873 1_555
Ho13 O83 2.384284 1_555
Ho13 O67 2.384284 1_555
Ho13 O85 2.571938 1_555
Ho13 O29 2.571938 1_455
Ho13 O57 2.586007 1_555
Ho14 O30 2.268797 1_555
Ho14 O53 2.268797 1_555
Ho14 O32 2.357873 1_555
Ho14 O72 2.384284 1_555
Ho14 O62 2.384284 1_555
Ho14 O33 2.571938 1_555
Ho14 O27 2.571938 1_655
Ho14 O31 2.586007 1_555
Ho15 O34 2.270316 1_565
Ho15 O42 2.270316 1_565
Ho15 O16 2.274833 1_555
Ho15 O35 2.274833 1_555
Ho15 O37 2.300754 1_555
Ho15 O56 2.495941 1_455
Ho15 O87 2.495941 1_555
Ho15 O86 2.843407 1_565
B0 O90 1.449440 1_555
B0 O55 1.459065 1_555
B0 O26 1.475934 1_555
B0 O7 1.531815 1_555
B1 O21 1.472034 1_555
B1 O53 1.475209 1_555
B1 O68 1.476967 1_555
B1 O17 1.481285 1_555
B2 O24 1.472034 1_565
B2 O25 1.475209 1_555
B2 O26 1.476967 1_565
B2 O43 1.481285 1_555
B3 O76 1.472034 1_555
B3 O3 1.475209 1_555
B3 O70 1.476967 1_555
B3 O52 1.481285 1_555
B4 O48 1.461637 1_555
B4 O54 1.462716 1_555
B4 O7 1.489746 1_555
B4 O28 1.536804 1_555
B5 O30 1.448854 1_455
B5 O9 1.449611 1_555
B5 O71 1.498076 1_555
B5 O61 1.543189 1_555
B6 O89 1.448854 1_655
B6 O66 1.449611 1_555
B6 O14 1.498076 1_555
B6 O23 1.543189 1_555
B7 O3 1.448854 1_555
B7 O69 1.449611 1_555
B7 O2 1.498076 1_555
B7 O50 1.543189 1_555
B8 O82 1.450440 1_555
B8 O35 1.455575 1_554
B8 O47 1.530168 1_555
B8 O60 1.530252 1_555
B9 O33 1.450440 1_555
B9 O0 1.455575 1_555
B9 O41 1.530168 1_555
B9 O32 1.530252 1_555
B10 O77 1.450440 1_455
B10 O16 1.455575 1_554
B10 O73 1.530168 1_455
B10 O60 1.530252 1_555
B11 O21 1.472034 1_555
B11 O30 1.475209 1_555
B11 O6 1.476967 1_655
B11 O63 1.481285 1_555
B12 O31 1.461637 1_555
B12 O81 1.462716 1_655
B12 O72 1.489746 1_555
B12 O23 1.536804 1_555
B13 O78 1.472034 1_545
B13 O8 1.475209 1_555
B13 O49 1.476967 1_645
B13 O11 1.481285 1_555
B14 O27 1.450440 1_655
B14 O46 1.455575 1_555
B14 O74 1.530168 1_655
B14 O32 1.530252 1_555
B15 O57 1.461637 1_555
B15 O0 1.462716 1_555
B15 O83 1.489746 1_555
B15 O18 1.536804 1_555
B16 O45 1.456967 1_655
B16 O59 1.470518 1_555
B16 O15 1.481308 1_555
B16 O23 1.521486 1_555
B17 O64 1.461637 1_555
B17 O35 1.462716 1_555
B17 O87 1.489746 1_555
B17 O50 1.536804 1_555
B18 O78 1.472034 1_545
B18 O4 1.475209 1_555
B18 O13 1.476967 1_545
B18 O44 1.481285 1_555
B19 O53 1.448854 1_555
B19 O90 1.449611 1_555
B19 O71 1.498076 1_555
B19 O28 1.543189 1_555
B20 O79 1.449440 1_455
B20 O37 1.459065 1_555
B20 O49 1.475934 1_555
B20 O56 1.531815 1_455
B21 O34 1.450440 1_655
B21 O12 1.455575 1_556
B21 O38 1.530168 1_655
B21 O39 1.530252 1_555
B22 O95 1.449440 1_555
B22 O51 1.459065 1_555
B22 O70 1.475934 1_555
B22 O83 1.531815 1_555
B23 O10 1.449440 1_655
B23 O51 1.459065 1_555
B23 O84 1.475934 1_555
B23 O67 1.531815 1_655
B24 O8 1.448854 1_455
B24 O10 1.449611 1_555
B24 O86 1.498076 1_555
B24 O5 1.543189 1_555
B25 O65 1.456967 1_655
B25 O92 1.470518 1_555
B25 O73 1.481308 1_556
B25 O40 1.521486 1_555
B26 O31 1.461637 1_555
B26 O91 1.462716 1_555
B26 O62 1.489746 1_555
B26 O93 1.536804 1_555
B27 O44 1.456967 1_555
B27 O36 1.470518 1_555
B27 O41 1.481308 1_555
B27 O18 1.521486 1_555
B28 O63 1.456967 1_455
B28 O19 1.470518 1_555
B28 O38 1.481308 1_554
B28 O61 1.521486 1_555
B29 O9 1.449440 1_655
B29 O55 1.459065 1_555
B29 O80 1.475934 1_555
B29 O20 1.531815 1_655
B30 O17 1.456967 1_555
B30 O19 1.470518 1_555
B30 O94 1.481308 1_554
B30 O28 1.521486 1_555
B31 O64 1.461637 1_555
B31 O16 1.462716 1_655
B31 O56 1.489746 1_555
B31 O40 1.536804 1_555
B32 O48 1.461637 1_555
B32 O12 1.462716 1_455
B32 O20 1.489746 1_555
B32 O61 1.536804 1_555
B33 O4 1.448854 1_555
B33 O95 1.449611 1_555
B33 O86 1.498076 1_555
B33 O18 1.543189 1_555
B34 O75 1.448854 1_655
B34 O79 1.449611 1_555
B34 O2 1.498076 1_555
B34 O40 1.543189 1_555
B35 O57 1.461637 1_555
B35 O46 1.462716 1_455
B35 O67 1.489746 1_555
B35 O5 1.536804 1_555
B36 O52 1.456967 1_555
B36 O92 1.470518 1_555
B36 O47 1.481308 1_556
B36 O50 1.521486 1_555
B37 O85 1.450440 1_555
B37 O91 1.455575 1_555
B37 O22 1.530168 1_555
B37 O88 1.530252 1_555
B38 O43 1.456967 1_555
B38 O59 1.470518 1_555
B38 O22 1.481308 1_555
B38 O93 1.521486 1_555
B39 O66 1.449440 1_455
B39 O58 1.459065 1_555
B39 O6 1.475934 1_555
B39 O72 1.531815 1_455
B40 O69 1.449440 1_555
B40 O37 1.459065 1_555
B40 O13 1.475934 1_555
B40 O87 1.531815 1_555
B41 O42 1.450440 1_555
B41 O54 1.455575 1_556
B41 O94 1.530168 1_555
B41 O39 1.530252 1_555
B42 O1 1.449440 1_555
B42 O58 1.459065 1_555
B42 O68 1.475934 1_555
B42 O62 1.531815 1_555
B43 O24 1.472034 1_565
B43 O89 1.475209 1_555
B43 O80 1.476967 1_465
B43 O45 1.481285 1_555
B44 O29 1.450440 1_455
B44 O81 1.455575 1_555
B44 O15 1.530168 1_455
B44 O88 1.530252 1_555
B45 O25 1.448854 1_555
B45 O1 1.449611 1_555
B45 O14 1.498076 1_555
B45 O93 1.543189 1_555
B46 O76 1.472034 1_555
B46 O75 1.475209 1_555
B46 O84 1.476967 1_455
B46 O65 1.481285 1_555
B47 O11 1.456967 1_455
B47 O36 1.470518 1_555
B47 O74 1.481308 1_555
B47 O5 1.521486 1_555
