# generated using pymatgen
data_Rb2ZnBr4
_symmetry_space_group_name_H-M   'P 1'
_cell_length_a   9.75817069
_cell_length_b   7.60137655
_cell_length_c   15.39358959
_cell_angle_alpha   60.67179311
_cell_angle_beta   90.00000000
_cell_angle_gamma   90.00000000
_symmetry_Int_Tables_number   1
_chemical_formula_structural   Rb2ZnBr4
_chemical_formula_sum   'Rb8 Zn4 Br16'
_cell_volume   995.47760527
_cell_formula_units_Z   4
loop_
 _symmetry_equiv_pos_site_id
 _symmetry_equiv_pos_as_xyz
  1  'x, y, z'
loop_
 _atom_site_type_symbol
 _atom_site_label
 _atom_site_symmetry_multiplicity
 _atom_site_fract_x
 _atom_site_fract_y
 _atom_site_fract_z
 _atom_site_occupancy
  Rb  Rb0  1  0.62289357  0.33911278  0.39797658  1
  Rb  Rb1  1  0.01412353  0.91875651  0.32680630  1
  Rb  Rb2  1  0.51412353  0.08124349  0.17319370  1
  Rb  Rb3  1  0.48587647  0.91875651  0.82680630  1
  Rb  Rb4  1  0.87710643  0.33911278  0.89797658  1
  Rb  Rb5  1  0.98587647  0.08124349  0.67319370  1
  Rb  Rb6  1  0.12289357  0.66088722  0.10202342  1
  Rb  Rb7  1  0.37710643  0.66088722  0.60202342  1
  Zn  Zn0  1  0.72625557  0.67450824  0.07643906  1
  Zn  Zn1  1  0.27374443  0.32549176  0.92356094  1
  Zn  Zn2  1  0.77374443  0.67450824  0.57643906  1
  Zn  Zn3  1  0.22625557  0.32549176  0.42356094  1
  Br  Br0  1  0.01868329  0.67254316  0.58389584  1
  Br  Br1  1  0.51868329  0.32745684  0.91610416  1
  Br  Br2  1  0.67849928  0.78705562  0.41275329  1
  Br  Br3  1  0.17849928  0.21294438  0.08724671  1
  Br  Br4  1  0.67549409  0.89083636  0.63400819  1
  Br  Br5  1  0.82450591  0.89083636  0.13400819  1
  Br  Br6  1  0.98131671  0.32745684  0.41610416  1
  Br  Br7  1  0.48131671  0.67254316  0.08389584  1
  Br  Br8  1  0.32450591  0.10916364  0.36599181  1
  Br  Br9  1  0.82150072  0.78705562  0.91275329  1
  Br  Br10  1  0.80465382  0.33599107  0.18519324  1
  Br  Br11  1  0.17549409  0.10916364  0.86599181  1
  Br  Br12  1  0.30465382  0.66400893  0.31480676  1
  Br  Br13  1  0.32150072  0.21294438  0.58724671  1
  Br  Br14  1  0.19534618  0.66400893  0.81480676  1
  Br  Br15  1  0.69534618  0.33599107  0.68519324  1
loop_
_geom_bond_atom_site_label_1
_geom_bond_atom_site_label_2
_geom_bond_distance
_geom_bond_site_symmetry_2
Br0 Zn2 2.392606 1_455
Br0 Rb1 3.451222 1_555
Br0 Rb7 3.506335 1_555
Br0 Rb5 3.978319 1_465
Br0 Rb5 4.017677 1_455
Br1 Zn1 2.392606 1_555
Br1 Rb2 3.451222 1_556
Br1 Rb4 3.506335 1_555
Br1 Rb3 3.978319 1_545
Br1 Rb3 4.017677 1_555
Br2 Zn2 2.415149 1_555
Br2 Rb1 3.490167 1_655
Br2 Rb0 3.563539 1_555
Br2 Rb2 3.618576 1_565
Br2 Rb7 3.914200 1_555
Br3 Zn1 2.415149 1_554
Br3 Rb2 3.490167 1_555
Br3 Rb6 3.563539 1_555
Br3 Rb1 3.618576 1_545
Br3 Rb4 3.914200 1_454
Br4 Zn2 2.415805 1_555
Br4 Rb5 3.533748 1_565
Br4 Rb7 3.552303 1_555
Br4 Rb3 3.590812 1_555
Br4 Rb0 3.598268 1_565
Br5 Zn0 2.415805 1_555
Br5 Rb2 3.533748 1_565
Br5 Rb6 3.552303 1_655
Br5 Rb1 3.590812 1_655
Br5 Rb4 3.598268 1_564
Br6 Zn3 2.392606 1_655
Br6 Rb5 3.451222 1_555
Br6 Rb0 3.506335 1_555
Br6 Rb1 3.978319 1_645
Br6 Rb1 4.017677 1_655
Br7 Zn0 2.392606 1_555
Br7 Rb3 3.451222 1_554
Br7 Rb6 3.506335 1_555
Br7 Rb2 3.978319 1_565
Br7 Rb2 4.017677 1_555
Br8 Zn3 2.415805 1_555
Br8 Rb1 3.533748 1_545
Br8 Rb0 3.552303 1_555
Br8 Rb2 3.590812 1_555
Br8 Rb7 3.598268 1_545
Br9 Zn0 2.415149 1_556
Br9 Rb3 3.490167 1_555
Br9 Rb4 3.563539 1_555
Br9 Rb5 3.618576 1_565
Br9 Rb6 3.914200 1_656
Br10 Zn0 2.406079 1_555
Br10 Rb2 3.488806 1_555
Br10 Rb1 3.495151 1_645
Br10 Rb0 3.735161 1_555
Br10 Rb6 3.779503 1_655
Br11 Zn1 2.415805 1_555
Br11 Rb3 3.533748 1_545
Br11 Rb4 3.552303 1_455
Br11 Rb5 3.590812 1_455
Br11 Rb6 3.598268 1_546
Br12 Zn3 2.406079 1_555
Br12 Rb1 3.488806 1_555
Br12 Rb2 3.495151 1_565
Br12 Rb6 3.735161 1_555
Br12 Rb0 3.779503 1_555
Br13 Zn3 2.415149 1_555
Br13 Rb5 3.490167 1_455
Br13 Rb7 3.563539 1_555
Br13 Rb3 3.618576 1_545
Br13 Rb0 3.914200 1_555
Br14 Zn1 2.406079 1_555
Br14 Rb3 3.488806 1_555
Br14 Rb5 3.495151 1_465
Br14 Rb7 3.735161 1_555
Br14 Rb4 3.779503 1_455
Br15 Zn2 2.406079 1_555
Br15 Rb5 3.488806 1_555
Br15 Rb3 3.495151 1_545
Br15 Rb4 3.735161 1_555
Br15 Rb7 3.779503 1_555
