# generated using pymatgen
data_Mo3H9I3(ClO)4
_symmetry_space_group_name_H-M   'P 1'
_cell_length_a   18.59298234
_cell_length_b   10.23968700
_cell_length_c   9.91552919
_cell_angle_alpha   90.00000000
_cell_angle_beta   99.24908958
_cell_angle_gamma   90.00000000
_symmetry_Int_Tables_number   1
_chemical_formula_structural   Mo3H9I3(ClO)4
_chemical_formula_sum   'Mo12 H36 I12 Cl16 O16'
_cell_volume   1863.23791702
_cell_formula_units_Z   4
loop_
 _symmetry_equiv_pos_site_id
 _symmetry_equiv_pos_as_xyz
  1  'x, y, z'
loop_
 _atom_site_type_symbol
 _atom_site_label
 _atom_site_symmetry_multiplicity
 _atom_site_fract_x
 _atom_site_fract_y
 _atom_site_fract_z
 _atom_site_occupancy
  Mo  Mo0  1  0.50174400  0.81748400  0.90605100  1
  Mo  Mo1  1  0.99825600  0.31748400  0.09394900  1
  Mo  Mo2  1  0.49825600  0.18251600  0.09394900  1
  Mo  Mo3  1  0.00174400  0.68251600  0.90605100  1
  Mo  Mo4  1  0.50015800  0.08329800  0.82944100  1
  Mo  Mo5  1  0.99984200  0.58329800  0.17055900  1
  Mo  Mo6  1  0.49984200  0.91670200  0.17055900  1
  Mo  Mo7  1  0.00015800  0.41670200  0.82944100  1
  Mo  Mo8  1  0.61374100  0.00280700  0.03548100  1
  Mo  Mo9  1  0.88625900  0.50280700  0.96451900  1
  Mo  Mo10  1  0.38625900  0.99719300  0.96451900  1
  Mo  Mo11  1  0.11374100  0.49719300  0.03548100  1
  H  H0  1  0.35121500  0.76705600  0.35656300  1
  H  H1  1  0.14878500  0.26705600  0.64343700  1
  H  H2  1  0.64878500  0.23294400  0.64343700  1
  H  H3  1  0.85121500  0.73294400  0.35656300  1
  H  H4  1  0.70969200  0.31408500  0.73675400  1
  H  H5  1  0.79030800  0.81408500  0.26324600  1
  H  H6  1  0.29030800  0.68591500  0.26324600  1
  H  H7  1  0.20969200  0.18591500  0.73675400  1
  H  H8  1  0.24569500  0.17054200  0.39178200  1
  H  H9  1  0.25430500  0.67054200  0.60821800  1
  H  H10  1  0.75430500  0.82945800  0.60821800  1
  H  H11  1  0.74569500  0.32945800  0.39178200  1
  H  H12  1  0.30253300  0.29866300  0.45526200  1
  H  H13  1  0.19746700  0.79866300  0.54473800  1
  H  H14  1  0.69746700  0.70133700  0.54473800  1
  H  H15  1  0.80253300  0.20133700  0.45526200  1
  H  H16  1  0.25921700  0.73381700  0.44609900  1
  H  H17  1  0.24078300  0.23381700  0.55390100  1
  H  H18  1  0.74078300  0.26618300  0.55390100  1
  H  H19  1  0.75921700  0.76618300  0.44609900  1
  H  H20  1  0.85118300  0.91697300  0.75157900  1
  H  H21  1  0.64881700  0.41697300  0.24842100  1
  H  H22  1  0.14881700  0.08302700  0.24842100  1
  H  H23  1  0.35118300  0.58302700  0.75157900  1
  H  H24  1  0.77946600  0.95197700  0.80753100  1
  H  H25  1  0.72053400  0.45197700  0.19246900  1
  H  H26  1  0.22053400  0.04802300  0.19246900  1
  H  H27  1  0.27946600  0.54802300  0.80753100  1
  H  H28  1  0.61960200  0.57920100  0.63628400  1
  H  H29  1  0.88039800  0.07920100  0.36371600  1
  H  H30  1  0.38039800  0.42079900  0.36371600  1
  H  H31  1  0.11960200  0.92079900  0.63628400  1
  H  H32  1  0.61129400  0.55878200  0.48017800  1
  H  H33  1  0.88870600  0.05878200  0.51982200  1
  H  H34  1  0.38870600  0.44121800  0.51982200  1
  H  H35  1  0.11129400  0.94121800  0.48017800  1
  I  I0  1  0.49908100  0.56883200  0.77954000  1
  I  I1  1  0.00091900  0.06883200  0.22046000  1
  I  I2  1  0.50091900  0.43116800  0.22046000  1
  I  I3  1  0.99908100  0.93116800  0.77954000  1
  I  I4  1  0.50771200  0.21029900  0.57976500  1
  I  I5  1  0.99228800  0.71029900  0.42023500  1
  I  I6  1  0.49228800  0.78970100  0.42023500  1
  I  I7  1  0.00771200  0.28970100  0.57976500  1
  I  I8  1  0.76792700  0.01415500  0.07820300  1
  I  I9  1  0.73207300  0.51415500  0.92179700  1
  I  I10  1  0.23207300  0.98584500  0.92179700  1
  I  I11  1  0.26792700  0.48584500  0.07820300  1
  Cl  Cl0  1  0.60088900  0.91924500  0.79206200  1
  Cl  Cl1  1  0.89911100  0.41924500  0.20793800  1
  Cl  Cl2  1  0.39911100  0.08075500  0.20793800  1
  Cl  Cl3  1  0.10088900  0.58075500  0.79206200  1
  Cl  Cl4  1  0.60095600  0.76668900  0.10739700  1
  Cl  Cl5  1  0.89904400  0.26668900  0.89260300  1
  Cl  Cl6  1  0.39904400  0.23331100  0.89260300  1
  Cl  Cl7  1  0.10095600  0.73331100  0.10739700  1
  Cl  Cl8  1  0.40175100  0.91652500  0.72981500  1
  Cl  Cl9  1  0.09824900  0.41652500  0.27018500  1
  Cl  Cl10  1  0.59824900  0.08347500  0.27018500  1
  Cl  Cl11  1  0.90175100  0.58347500  0.72981500  1
  Cl  Cl12  1  0.40274500  0.76194100  0.04374500  1
  Cl  Cl13  1  0.09725500  0.26194100  0.95625500  1
  Cl  Cl14  1  0.59725500  0.23805900  0.95625500  1
  Cl  Cl15  1  0.90274500  0.73805900  0.04374500  1
  O  O0  1  0.29771600  0.75614100  0.33225100  1
  O  O1  1  0.20228400  0.25614100  0.66774900  1
  O  O2  1  0.70228400  0.24385900  0.66774900  1
  O  O3  1  0.79771600  0.74385900  0.33225100  1
  O  O4  1  0.22720400  0.71836900  0.52470900  1
  O  O5  1  0.27279600  0.21836900  0.47529100  1
  O  O6  1  0.77279600  0.28163100  0.47529100  1
  O  O7  1  0.72720400  0.78163100  0.52470900  1
  O  O8  1  0.29783600  0.57951400  0.72562400  1
  O  O9  1  0.20216400  0.07951400  0.27437600  1
  O  O10  1  0.70216400  0.42048600  0.27437600  1
  O  O11  1  0.79783600  0.92048600  0.72562400  1
  O  O12  1  0.14824700  0.92515000  0.56138700  1
  O  O13  1  0.35175300  0.42515000  0.43861300  1
  O  O14  1  0.85175300  0.07485000  0.43861300  1
  O  O15  1  0.64824700  0.57485000  0.56138700  1
loop_
_geom_bond_atom_site_label_1
_geom_bond_atom_site_label_2
_geom_bond_distance
_geom_bond_site_symmetry_2
H0 O0 0.991445 1_555
H1 O1 0.991445 1_555
H2 O2 0.991445 1_555
H3 O3 0.991445 1_555
H4 O2 0.986878 1_555
H5 O3 0.986878 1_555
H6 O0 0.986878 1_555
H7 O1 0.986878 1_555
H8 O5 1.022381 1_555
H8 O9 1.605066 1_555
H9 O4 1.022381 1_555
H9 O8 1.605066 1_555
H10 O7 1.022381 1_555
H10 O11 1.605066 1_555
H11 O6 1.022381 1_555
H11 O10 1.605066 1_555
H12 O5 1.027825 1_555
H12 O13 1.609602 1_555
H13 O4 1.027825 1_555
H13 O12 1.609602 1_555
H14 O7 1.027825 1_555
H14 O15 1.609602 1_555
H15 O6 1.027825 1_555
H15 O14 1.609602 1_555
H16 O4 1.065833 1_555
H16 O0 1.448697 1_555
H17 O5 1.065833 1_555
H17 O1 1.448697 1_555
H18 O6 1.065833 1_555
H18 O2 1.448697 1_555
H19 O7 1.065833 1_555
H19 O3 1.448697 1_555
H20 O11 0.984528 1_555
H21 O10 0.984528 1_555
H22 O9 0.984528 1_555
H23 O8 0.984528 1_555
H24 O11 0.984579 1_555
H25 O10 0.984579 1_555
H26 O9 0.984579 1_555
H27 O8 0.984579 1_555
H28 O15 0.981991 1_555
H29 O14 0.981991 1_555
H30 O13 0.981991 1_555
H31 O12 0.981991 1_555
H32 O15 0.984725 1_555
H33 O14 0.984725 1_555
H34 O13 0.984725 1_555
H35 O12 0.984725 1_555
I0 Mo0 2.835275 1_555
I1 Mo1 2.835275 1_455
I2 Mo2 2.835275 1_555
I3 Mo3 2.835275 1_655
I4 Mo4 2.819860 1_555
I5 Mo5 2.819860 1_555
I6 Mo6 2.819860 1_555
I7 Mo7 2.819860 1_555
I8 Mo8 2.832135 1_555
I9 Mo9 2.832135 1_555
I10 Mo10 2.832135 1_555
I11 Mo11 2.832135 1_555
Cl0 Mo8 2.535633 1_566
Cl0 Mo0 2.535969 1_555
Cl0 Mo4 2.586527 1_565
Cl1 Mo9 2.535633 1_554
Cl1 Mo1 2.535969 1_555
Cl1 Mo5 2.586527 1_555
Cl2 Mo10 2.535633 1_544
Cl2 Mo2 2.535969 1_555
Cl2 Mo6 2.586527 1_545
Cl3 Mo11 2.535633 1_556
Cl3 Mo3 2.535969 1_555
Cl3 Mo7 2.586527 1_555
Cl4 Mo8 2.542660 1_565
Cl4 Mo0 2.544649 1_554
Cl4 Mo6 2.581612 1_555
Cl5 Mo9 2.542660 1_555
Cl5 Mo1 2.544649 1_556
Cl5 Mo7 2.581612 1_655
Cl6 Mo10 2.542660 1_545
Cl6 Mo2 2.544649 1_556
Cl6 Mo4 2.581612 1_555
Cl7 Mo11 2.542660 1_555
Cl7 Mo3 2.544649 1_554
Cl7 Mo5 2.581612 1_455
Cl8 Mo10 2.529166 1_555
Cl8 Mo0 2.548394 1_555
Cl8 Mo4 2.580466 1_565
Cl9 Mo11 2.529166 1_555
Cl9 Mo1 2.548394 1_455
Cl9 Mo5 2.580466 1_455
Cl10 Mo8 2.529166 1_555
Cl10 Mo2 2.548394 1_555
Cl10 Mo6 2.580466 1_545
Cl11 Mo9 2.529166 1_555
Cl11 Mo3 2.548394 1_655
Cl11 Mo7 2.580466 1_655
Cl12 Mo0 2.526561 1_554
Cl12 Mo10 2.537026 1_554
Cl12 Mo6 2.573302 1_555
Cl13 Mo1 2.526561 1_456
Cl13 Mo11 2.537026 1_556
Cl13 Mo7 2.573302 1_555
Cl14 Mo2 2.526561 1_556
Cl14 Mo8 2.537026 1_556
Cl14 Mo4 2.573302 1_555
Cl15 Mo3 2.526561 1_654
Cl15 Mo9 2.537026 1_554
Cl15 Mo5 2.573302 1_555
