# generated using pymatgen
data_Gd(Al10Cr)2
_symmetry_space_group_name_H-M   'P 1'
_cell_length_a   10.21540055
_cell_length_b   10.21540055
_cell_length_c   10.21540055
_cell_angle_alpha   60.00000000
_cell_angle_beta   60.00000000
_cell_angle_gamma   60.00000000
_symmetry_Int_Tables_number   1
_chemical_formula_structural   Gd(Al10Cr)2
_chemical_formula_sum   'Gd2 Al40 Cr4'
_cell_volume   753.79144187
_cell_formula_units_Z   2
loop_
 _symmetry_equiv_pos_site_id
 _symmetry_equiv_pos_as_xyz
  1  'x, y, z'
loop_
 _atom_site_type_symbol
 _atom_site_label
 _atom_site_symmetry_multiplicity
 _atom_site_fract_x
 _atom_site_fract_y
 _atom_site_fract_z
 _atom_site_occupancy
  Gd  Gd0  1  0.50000000  0.50000000  0.50000000  1
  Gd  Gd1  1  0.75000000  0.75000000  0.75000000  1
  Al  Al0  1  0.56815300  0.29879300  0.29879300  1
  Al  Al1  1  0.29879300  0.56815300  0.83426100  1
  Al  Al2  1  0.29879300  0.83426100  0.56815300  1
  Al  Al3  1  0.83426100  0.29879300  0.29879300  1
  Al  Al4  1  0.29879300  0.29879300  0.56815300  1
  Al  Al5  1  0.56815300  0.83426100  0.29879300  1
  Al  Al6  1  0.83426100  0.56815300  0.29879300  1
  Al  Al7  1  0.29879300  0.29879300  0.83426100  1
  Al  Al8  1  0.29879300  0.56815300  0.29879300  1
  Al  Al9  1  0.83426100  0.29879300  0.56815300  1
  Al  Al10  1  0.56815300  0.29879300  0.83426100  1
  Al  Al11  1  0.29879300  0.83426100  0.29879300  1
  Al  Al12  1  0.68184700  0.95120700  0.95120700  1
  Al  Al13  1  0.95120700  0.68184700  0.41573900  1
  Al  Al14  1  0.95120700  0.41573900  0.68184700  1
  Al  Al15  1  0.41573900  0.95120700  0.95120700  1
  Al  Al16  1  0.95120700  0.95120700  0.68184700  1
  Al  Al17  1  0.68184700  0.41573900  0.95120700  1
  Al  Al18  1  0.41573900  0.68184700  0.95120700  1
  Al  Al19  1  0.95120700  0.95120700  0.41573900  1
  Al  Al20  1  0.95120700  0.68184700  0.95120700  1
  Al  Al21  1  0.41573900  0.95120700  0.68184700  1
  Al  Al22  1  0.68184700  0.95120700  0.41573900  1
  Al  Al23  1  0.95120700  0.41573900  0.95120700  1
  Al  Al24  1  0.86328200  0.86328200  0.13671800  1
  Al  Al25  1  0.13671800  0.13671800  0.86328200  1
  Al  Al26  1  0.86328200  0.13671800  0.86328200  1
  Al  Al27  1  0.13671800  0.86328200  0.13671800  1
  Al  Al28  1  0.13671800  0.86328200  0.86328200  1
  Al  Al29  1  0.86328200  0.13671800  0.13671800  1
  Al  Al30  1  0.38671800  0.38671800  0.11328200  1
  Al  Al31  1  0.11328200  0.11328200  0.38671800  1
  Al  Al32  1  0.38671800  0.11328200  0.38671800  1
  Al  Al33  1  0.11328200  0.38671800  0.11328200  1
  Al  Al34  1  0.11328200  0.38671800  0.38671800  1
  Al  Al35  1  0.38671800  0.11328200  0.11328200  1
  Al  Al36  1  0.12500000  0.62500000  0.62500000  1
  Al  Al37  1  0.62500000  0.12500000  0.62500000  1
  Al  Al38  1  0.62500000  0.62500000  0.12500000  1
  Al  Al39  1  0.62500000  0.62500000  0.62500000  1
  Cr  Cr0  1  0.62500000  0.12500000  0.12500000  1
  Cr  Cr1  1  0.12500000  0.62500000  0.12500000  1
  Cr  Cr2  1  0.12500000  0.12500000  0.62500000  1
  Cr  Cr3  1  0.12500000  0.12500000  0.12500000  1
loop_
_geom_bond_atom_site_label_1
_geom_bond_atom_site_label_2
_geom_bond_distance
_geom_bond_site_symmetry_2
Al0 Al29 2.707370 1_555
Al0 Al3 2.718400 1_555
Al0 Al8 2.751620 1_555
Al0 Al4 2.751620 1_555
Al0 Cr0 2.780473 1_555
Al0 Al30 2.824669 1_555
Al0 Al32 2.824669 1_555
Al0 Al17 2.899223 1_554
Al0 Al22 2.899223 1_545
Al0 Al37 3.095424 1_555
Al0 Al38 3.095424 1_555
Al0 Gd0 3.208870 1_555
Al1 Al28 2.707370 1_555
Al1 Al2 2.718400 1_555
Al1 Al10 2.751620 1_555
Al1 Al7 2.751620 1_555
Al1 Cr1 2.780473 1_556
Al1 Al33 2.824669 1_556
Al1 Al30 2.824669 1_556
Al1 Al18 2.899223 1_555
Al1 Al20 2.899223 1_455
Al1 Al36 3.095424 1_555
Al1 Al39 3.095424 1_555
Al1 Gd0 3.208870 1_555
Al2 Al28 2.707370 1_555
Al2 Al5 2.751620 1_555
Al2 Cr2 2.780473 1_565
Al2 Al31 2.824669 1_565
Al2 Al32 2.824669 1_565
Al2 Al21 2.899223 1_555
Al2 Al36 3.095424 1_555
Al2 Al39 3.095424 1_555
Al2 Gd0 3.208870 1_555
Al3 Al9 2.751620 1_555
Al3 Al6 2.751620 1_555
Al3 Cr3 2.780473 1_655
Al3 Al31 2.824669 1_655
Al3 Al33 2.824669 1_655
Al3 Al37 3.095424 1_555
Al3 Al38 3.095424 1_555
Al3 Gd0 3.208870 1_555
Al4 Al7 2.718400 1_555
Al4 Al8 2.751620 1_555
Al4 Cr2 2.780473 1_555
Al4 Gd0 3.208870 1_555
Al5 Al6 2.718400 1_555
Al5 Cr0 2.780473 1_565
Al5 Gd0 3.208870 1_555
Al6 Al9 2.751620 1_555
Al6 Cr1 2.780473 1_655
Al6 Gd0 3.208870 1_555
Al7 Cr3 2.780473 1_556
Al7 Gd0 3.208870 1_555
Al8 Cr1 2.780473 1_555
Al8 Gd0 3.208870 1_555
Al9 Cr2 2.780473 1_655
Al9 Gd0 3.208870 1_555
Al10 Al26 2.707370 1_555
Al10 Al9 2.718400 1_555
Al10 Al7 2.751620 1_555
Al10 Cr0 2.780473 1_556
Al10 Al35 2.824669 1_556
Al10 Al30 2.824669 1_556
Al10 Al17 2.899223 1_555
Al10 Al12 2.899223 1_545
Al10 Al37 3.095424 1_555
Al10 Al39 3.095424 1_555
Al10 Gd0 3.208870 1_555
Al11 Al27 2.707370 1_555
Al11 Al8 2.718400 1_555
Al11 Al2 2.751620 1_555
Al11 Al5 2.751620 1_555
Al11 Cr3 2.780473 1_565
Al11 Al31 2.824669 1_565
Al11 Al35 2.824669 1_565
Al11 Al19 2.899223 1_455
Al11 Al15 2.899223 1_554
Al11 Al36 3.095424 1_555
Al11 Al38 3.095424 1_555
Al11 Gd0 3.208870 1_555
Al12 Al35 2.707370 1_566
Al12 Al15 2.718400 1_555
Al12 Al16 2.751620 1_555
Al12 Al20 2.751620 1_555
Al12 Cr0 2.780473 1_566
Al12 Al24 2.824669 1_556
Al12 Al26 2.824669 1_565
Al12 Al5 2.899223 1_556
Al12 Al37 3.095424 1_565
Al12 Al38 3.095424 1_556
Al12 Gd1 3.208870 1_555
Al13 Al34 2.707370 1_655
Al13 Al14 2.718400 1_555
Al13 Al22 2.751620 1_555
Al13 Al19 2.751620 1_555
Al13 Cr1 2.780473 1_655
Al13 Al24 2.824669 1_555
Al13 Al27 2.824669 1_655
Al13 Al6 2.899223 1_555
Al13 Al8 2.899223 1_655
Al13 Al39 3.095424 1_555
Al13 Al36 3.095424 1_655
Al13 Gd1 3.208870 1_555
Al14 Al34 2.707370 1_655
Al14 Al17 2.751620 1_555
Al14 Al23 2.751620 1_555
Al14 Cr2 2.780473 1_655
Al14 Al26 2.824669 1_555
Al14 Al25 2.824669 1_655
Al14 Al9 2.899223 1_555
Al14 Al4 2.899223 1_655
Al14 Al39 3.095424 1_555
Al14 Al36 3.095424 1_655
Al14 Gd1 3.208870 1_555
Al15 Al35 2.707370 1_566
Al15 Al18 2.751620 1_555
Al15 Al21 2.751620 1_555
Al15 Cr3 2.780473 1_566
Al15 Al27 2.824669 1_556
Al15 Al25 2.824669 1_565
Al15 Al7 2.899223 1_565
Al15 Al37 3.095424 1_565
Al15 Al38 3.095424 1_556
Al15 Gd1 3.208870 1_555
Al16 Al31 2.707370 1_665
Al16 Al19 2.718400 1_555
Al16 Al20 2.751620 1_555
Al16 Cr2 2.780473 1_665
Al16 Al28 2.824669 1_655
Al16 Al26 2.824669 1_565
Al16 Al9 2.899223 1_565
Al16 Al2 2.899223 1_655
Al16 Al36 3.095424 1_655
Al16 Al37 3.095424 1_565
Al16 Gd1 3.208870 1_555
Al17 Al30 2.707370 1_556
Al17 Al18 2.718400 1_555
Al17 Al23 2.751620 1_555
Al17 Cr0 2.780473 1_556
Al17 Al26 2.824669 1_555
Al17 Al29 2.824669 1_556
Al17 Al39 3.095424 1_555
Al17 Al38 3.095424 1_556
Al17 Gd1 3.208870 1_555
Al18 Al30 2.707370 1_556
Al18 Al21 2.751620 1_555
Al18 Cr1 2.780473 1_556
Al18 Al28 2.824669 1_555
Al18 Al27 2.824669 1_556
Al18 Al8 2.899223 1_556
Al18 Al39 3.095424 1_555
Al18 Al38 3.095424 1_556
Al18 Gd1 3.208870 1_555
Al19 Al31 2.707370 1_665
Al19 Al22 2.751620 1_555
Al19 Cr3 2.780473 1_665
Al19 Al27 2.824669 1_655
Al19 Al29 2.824669 1_565
Al19 Al3 2.899223 1_565
Al19 Al37 3.095424 1_565
Al19 Al36 3.095424 1_655
Al19 Gd1 3.208870 1_555
Al20 Al33 2.707370 1_656
Al20 Al23 2.718400 1_555
Al20 Cr1 2.780473 1_656
Al20 Al28 2.824669 1_655
Al20 Al24 2.824669 1_556
Al20 Al6 2.899223 1_556
Al20 Al36 3.095424 1_655
Al20 Al38 3.095424 1_556
Al20 Gd1 3.208870 1_555
Al21 Al32 2.707370 1_565
Al21 Al22 2.718400 1_555
Al21 Cr2 2.780473 1_565
Al21 Al28 2.824669 1_555
Al21 Al25 2.824669 1_565
Al21 Al4 2.899223 1_565
Al21 Al39 3.095424 1_555
Al21 Al37 3.095424 1_565
Al21 Gd1 3.208870 1_555
Al22 Al32 2.707370 1_565
Al22 Cr0 2.780473 1_565
Al22 Al24 2.824669 1_555
Al22 Al29 2.824669 1_565
Al22 Al5 2.899223 1_555
Al22 Al39 3.095424 1_555
Al22 Al37 3.095424 1_565
Al22 Gd1 3.208870 1_555
Al23 Al33 2.707370 1_656
Al23 Cr3 2.780473 1_656
Al23 Al29 2.824669 1_556
Al23 Al25 2.824669 1_655
Al23 Al7 2.899223 1_655
Al23 Al3 2.899223 1_556
Al23 Al36 3.095424 1_655
Al23 Al38 3.095424 1_556
Al23 Gd1 3.208870 1_555
Al24 Cr0 2.559455 1_565
Al24 Cr1 2.559455 1_655
Al24 Al6 2.707370 1_555
Al24 Al5 2.707370 1_555
Al24 Al28 2.793258 1_654
Al24 Al26 2.793258 1_564
Al24 Al29 2.793258 1_565
Al24 Al27 2.793258 1_655
Al25 Cr2 2.559455 1_555
Al25 Cr3 2.559455 1_556
Al25 Al7 2.707370 1_555
Al25 Al4 2.707370 1_555
Al25 Al26 2.793258 1_455
Al25 Al28 2.793258 1_545
Al25 Al27 2.793258 1_546
Al25 Al29 2.793258 1_456
Al26 Cr2 2.559455 1_655
Al26 Cr0 2.559455 1_556
Al26 Al9 2.707370 1_555
Al26 Al28 2.793258 1_645
Al26 Al29 2.793258 1_556
Al27 Cr3 2.559455 1_565
Al27 Cr1 2.559455 1_555
Al27 Al8 2.707370 1_555
Al27 Al28 2.793258 1_554
Al27 Al29 2.793258 1_465
Al28 Cr2 2.559455 1_565
Al28 Cr1 2.559455 1_556
Al29 Cr0 2.559455 1_555
Al29 Cr3 2.559455 1_655
Al29 Al3 2.707370 1_555
Al30 Cr0 2.559455 1_555
Al30 Cr1 2.559455 1_555
Al30 Al33 2.793258 1_555
Al30 Al32 2.793258 1_555
Al30 Al35 2.793258 1_555
Al30 Al34 2.793258 1_555
Al30 Al8 2.824669 1_555
Al31 Cr3 2.559455 1_555
Al31 Cr2 2.559455 1_555
Al31 Al33 2.793258 1_555
Al31 Al32 2.793258 1_555
Al31 Al35 2.793258 1_555
Al31 Al34 2.793258 1_555
Al31 Al9 2.824669 1_455
Al32 Cr0 2.559455 1_555
Al32 Cr2 2.559455 1_555
Al32 Al35 2.793258 1_555
Al32 Al34 2.793258 1_555
Al32 Al4 2.824669 1_555
Al32 Al5 2.824669 1_545
Al33 Cr3 2.559455 1_555
Al33 Cr1 2.559455 1_555
Al33 Al35 2.793258 1_555
Al33 Al34 2.793258 1_555
Al33 Al6 2.824669 1_455
Al33 Al7 2.824669 1_554
Al34 Cr1 2.559455 1_555
Al34 Cr2 2.559455 1_555
Al34 Al4 2.824669 1_555
Al34 Al8 2.824669 1_555
Al34 Al9 2.824669 1_455
Al34 Al6 2.824669 1_455
Al35 Cr3 2.559455 1_555
Al35 Cr0 2.559455 1_555
Al35 Al5 2.824669 1_545
Al35 Al7 2.824669 1_554
Al36 Al7 3.095424 1_555
Al36 Al4 3.095424 1_555
Al36 Al8 3.095424 1_555
Al36 Gd1 3.127815 1_455
Al36 Gd0 3.127815 1_555
Al37 Al9 3.095424 1_555
Al37 Al7 3.095424 1_555
Al37 Al4 3.095424 1_555
Al37 Gd1 3.127815 1_545
Al37 Gd0 3.127815 1_555
Al38 Al5 3.095424 1_555
Al38 Al6 3.095424 1_555
Al38 Al8 3.095424 1_555
Al38 Gd1 3.127815 1_554
Al38 Gd0 3.127815 1_555
Al39 Al5 3.095424 1_555
Al39 Al9 3.095424 1_555
Al39 Al6 3.095424 1_555
Al39 Gd1 3.127815 1_555
Al39 Gd0 3.127815 1_555
