# generated using pymatgen
data_Ni3Sb
_symmetry_space_group_name_H-M   'P 1'
_cell_length_a   4.24418622
_cell_length_b   4.48876871
_cell_length_c   5.25727657
_cell_angle_alpha   90.00000000
_cell_angle_beta   90.00000000
_cell_angle_gamma   90.00000000
_symmetry_Int_Tables_number   1
_chemical_formula_structural   Ni3Sb
_chemical_formula_sum   'Ni6 Sb2'
_cell_volume   100.15727127
_cell_formula_units_Z   2
loop_
 _symmetry_equiv_pos_site_id
 _symmetry_equiv_pos_as_xyz
  1  'x, y, z'
loop_
 _atom_site_type_symbol
 _atom_site_label
 _atom_site_symmetry_multiplicity
 _atom_site_fract_x
 _atom_site_fract_y
 _atom_site_fract_z
 _atom_site_occupancy
  Ni  Ni0  1  0.25000000  0.31596464  0.75000000  1
  Ni  Ni1  1  0.75000000  0.68403536  0.25000000  1
  Ni  Ni2  1  0.25000000  0.82826890  0.99940577  1
  Ni  Ni3  1  0.75000000  0.17173110  0.00059423  1
  Ni  Ni4  1  0.25000000  0.82826890  0.50059423  1
  Ni  Ni5  1  0.75000000  0.17173110  0.49940577  1
  Sb  Sb0  1  0.75000000  0.67796034  0.75000000  1
  Sb  Sb1  1  0.25000000  0.32203966  0.25000000  1
loop_
_geom_bond_atom_site_label_1
_geom_bond_atom_site_label_2
_geom_bond_distance
_geom_bond_site_symmetry_2
Ni0 Ni4 2.551789 1_545
Ni0 Ni2 2.551789 1_545
Ni0 Ni3 2.580330 1_456
Ni0 Ni3 2.580330 1_556
Ni0 Ni5 2.580330 1_555
Ni0 Ni5 2.580330 1_455
Ni0 Sb1 2.628780 1_556
Ni0 Sb1 2.628780 1_555
Ni0 Ni4 2.647161 1_555
Ni0 Ni2 2.647161 1_555
Ni0 Sb0 2.672757 1_455
Ni0 Sb0 2.672757 1_555
Ni1 Ni3 2.551789 1_565
Ni1 Ni5 2.551789 1_565
Ni1 Ni2 2.580330 1_654
Ni1 Ni4 2.580330 1_555
Ni1 Ni2 2.580330 1_554
Ni1 Ni4 2.580330 1_655
Ni1 Sb0 2.628780 1_554
Ni1 Sb0 2.628780 1_555
Ni1 Ni3 2.647161 1_555
Ni1 Ni5 2.647161 1_555
Ni1 Sb1 2.672757 1_555
Ni1 Sb1 2.672757 1_655
Ni2 Sb1 2.578408 1_566
Ni2 Sb0 2.584131 1_455
Ni2 Sb0 2.584131 1_555
Ni2 Ni4 2.622390 1_555
Ni2 Ni3 2.623019 1_566
Ni2 Ni3 2.623019 1_466
Ni2 Sb1 2.626635 1_556
Ni2 Ni4 2.634886 1_556
Ni3 Sb0 2.578408 1_544
Ni3 Sb1 2.584131 1_555
Ni3 Sb1 2.584131 1_655
Ni3 Ni5 2.622390 1_555
Ni3 Sb0 2.626635 1_554
Ni3 Ni5 2.634886 1_554
Ni4 Sb1 2.578408 1_565
Ni4 Sb0 2.584131 1_455
Ni4 Sb0 2.584131 1_555
Ni4 Ni5 2.623019 1_465
Ni4 Ni5 2.623019 1_565
Ni4 Sb1 2.626635 1_555
Ni5 Sb0 2.578408 1_545
Ni5 Sb1 2.584131 1_555
Ni5 Sb1 2.584131 1_655
Ni5 Sb0 2.626635 1_555
