# generated using pymatgen
data_MnAl2Sb2(PO4)6
_symmetry_space_group_name_H-M   'P 1'
_cell_length_a   8.55371100
_cell_length_b   8.62729900
_cell_length_c   12.13833167
_cell_angle_alpha   89.38834031
_cell_angle_beta   90.00000000
_cell_angle_gamma   90.00000000
_symmetry_Int_Tables_number   1
_chemical_formula_structural   MnAl2Sb2(PO4)6
_chemical_formula_sum   'Mn2 Al4 Sb4 P12 O48'
_cell_volume   895.70227021
_cell_formula_units_Z   2
loop_
 _symmetry_equiv_pos_site_id
 _symmetry_equiv_pos_as_xyz
  1  'x, y, z'
loop_
 _atom_site_type_symbol
 _atom_site_label
 _atom_site_symmetry_multiplicity
 _atom_site_fract_x
 _atom_site_fract_y
 _atom_site_fract_z
 _atom_site_occupancy
  Mn  Mn0  1  0.50000000  0.50000000  0.00000000  1
  Mn  Mn1  1  0.00000000  0.00000000  0.00000000  1
  Al  Al0  1  0.50113000  0.21039000  0.85813600  1
  Al  Al1  1  0.00113000  0.28961000  0.14186400  1
  Al  Al2  1  0.49887000  0.78961000  0.14186400  1
  Al  Al3  1  0.99887000  0.71039000  0.85813600  1
  Sb  Sb0  1  0.49916900  0.78380800  0.64373100  1
  Sb  Sb1  1  0.99916900  0.71619200  0.35626900  1
  Sb  Sb2  1  0.00083100  0.28380800  0.64373100  1
  Sb  Sb3  1  0.50083100  0.21619200  0.35626900  1
  P  P0  1  0.35827700  0.85121900  0.39013900  1
  P  P1  1  0.28894300  0.50322400  0.75739600  1
  P  P2  1  0.14172300  0.35121900  0.39013900  1
  P  P3  1  0.85295800  0.35919400  0.89987900  1
  P  P4  1  0.35295800  0.14080600  0.10012100  1
  P  P5  1  0.78894300  0.99677600  0.24260400  1
  P  P6  1  0.21105700  0.00322400  0.75739600  1
  P  P7  1  0.64704200  0.85919400  0.89987900  1
  P  P8  1  0.14704200  0.64080600  0.10012100  1
  P  P9  1  0.85827700  0.64878100  0.60986100  1
  P  P10  1  0.71105700  0.49677600  0.24260400  1
  P  P11  1  0.64172300  0.14878100  0.60986100  1
  O  O0  1  0.30318000  0.89103500  0.68107800  1
  O  O1  1  0.17871000  0.84110500  0.40210200  1
  O  O2  1  0.43185700  0.76339500  0.48895400  1
  O  O3  1  0.42334800  0.78490100  0.28541900  1
  O  O4  1  0.39253900  0.58690100  0.66980300  1
  O  O5  1  0.11440300  0.52859500  0.40152000  1
  O  O6  1  0.39623100  0.41445900  0.83855600  1
  O  O7  1  0.10602300  0.47015200  0.10134600  1
  O  O8  1  0.19682000  0.39103500  0.68107800  1
  O  O9  1  0.81615100  0.38950000  0.17885300  1
  O  O10  1  0.32129000  0.34110500  0.40210200  1
  O  O11  1  0.67196000  0.34605600  0.90648800  1
  O  O12  1  0.06814300  0.26339500  0.48895400  1
  O  O13  1  0.07665200  0.28490100  0.28541900  1
  O  O14  1  0.92951400  0.26070200  0.99299700  1
  O  O15  1  0.91685500  0.27464900  0.79500100  1
  O  O16  1  0.41685500  0.22535100  0.20499900  1
  O  O17  1  0.42951400  0.23929800  0.00700300  1
  O  O18  1  0.17196000  0.15394400  0.09351200  1
  O  O19  1  0.89623100  0.08554100  0.16144400  1
  O  O20  1  0.31615100  0.11050000  0.82114700  1
  O  O21  1  0.38559700  0.02859500  0.40152000  1
  O  O22  1  0.10746100  0.08690100  0.66980300  1
  O  O23  1  0.60602300  0.02984800  0.89865400  1
  O  O24  1  0.39397700  0.97015200  0.10134600  1
  O  O25  1  0.89253900  0.91309900  0.33019700  1
  O  O26  1  0.61440300  0.97140500  0.59848000  1
  O  O27  1  0.68384900  0.88950000  0.17885300  1
  O  O28  1  0.10376900  0.91445900  0.83855600  1
  O  O29  1  0.82804000  0.84605600  0.90648800  1
  O  O30  1  0.57048600  0.76070200  0.99299700  1
  O  O31  1  0.58314500  0.77464900  0.79500100  1
  O  O32  1  0.08314500  0.72535100  0.20499900  1
  O  O33  1  0.07048600  0.73929800  0.00700300  1
  O  O34  1  0.92334800  0.71509900  0.71458100  1
  O  O35  1  0.93185700  0.73660500  0.51104600  1
  O  O36  1  0.32804000  0.65394400  0.09351200  1
  O  O37  1  0.67871000  0.65889500  0.59789800  1
  O  O38  1  0.18384900  0.61050000  0.82114700  1
  O  O39  1  0.80318000  0.60896500  0.31892200  1
  O  O40  1  0.89397700  0.52984800  0.89865400  1
  O  O41  1  0.60376900  0.58554100  0.16144400  1
  O  O42  1  0.88559700  0.47140500  0.59848000  1
  O  O43  1  0.60746100  0.41309900  0.33019700  1
  O  O44  1  0.57665200  0.21509900  0.71458100  1
  O  O45  1  0.56814300  0.23660500  0.51104600  1
  O  O46  1  0.82129000  0.15889500  0.59789800  1
  O  O47  1  0.69682000  0.10896500  0.31892200  1
loop_
_geom_bond_atom_site_label_1
_geom_bond_atom_site_label_2
_geom_bond_distance
_geom_bond_site_symmetry_2
Mn0 O41 2.281146 1_555
Mn0 O6 2.281146 1_554
Mn0 O36 2.290859 1_555
Mn0 O11 2.290859 1_554
Mn0 O17 2.329237 1_555
Mn0 O30 2.329237 1_554
Mn1 O19 2.281146 1_455
Mn1 O28 2.281146 1_544
Mn1 O18 2.290859 1_555
Mn1 O29 2.290859 1_444
Mn1 O33 2.329237 1_545
Mn1 O14 2.329237 1_454
Al0 O44 1.858445 1_555
Al0 O20 1.859046 1_555
Al0 O23 1.859201 1_555
Al0 O17 1.926737 1_556
Al0 O11 1.965766 1_555
Al0 O6 1.988025 1_555
Al1 O13 1.858445 1_555
Al1 O9 1.859046 1_455
Al1 O7 1.859201 1_555
Al1 O14 1.926737 1_454
Al1 O18 1.965766 1_555
Al1 O19 1.988025 1_455
Al2 O3 1.858445 1_555
Al2 O27 1.859046 1_555
Al2 O24 1.859201 1_555
Al2 O30 1.926737 1_554
Al2 O36 1.965766 1_555
Al2 O41 1.988025 1_555
Al3 O34 1.858445 1_555
Al3 O38 1.859046 1_655
Al3 O40 1.859201 1_555
Al3 O33 1.926737 1_656
Al3 O29 1.965766 1_555
Al3 O28 1.988025 1_655
O0 P6 1.560465 1_565
O0 Sb0 1.969940 1_555
O1 P0 1.545191 1_555
O1 Sb1 1.960145 1_455
O2 P0 1.545795 1_555
O2 Sb0 1.974647 1_555
O3 P0 1.506135 1_555
O4 P1 1.555780 1_555
O4 Sb0 1.951002 1_555
O5 P2 1.555619 1_555
O5 Sb1 1.968166 1_455
O6 P1 1.543714 1_555
O7 P8 1.513432 1_555
O8 P1 1.560465 1_555
O8 Sb2 1.969940 1_555
O9 P10 1.509556 1_555
O10 P2 1.545191 1_555
O10 Sb3 1.960145 1_555
O11 P3 1.554357 1_555
O12 P2 1.545795 1_555
O12 Sb2 1.974647 1_555
O13 P2 1.506135 1_555
O14 P3 1.551742 1_555
O15 P3 1.572007 1_555
O15 Sb2 1.972464 1_655
O16 P4 1.572007 1_555
O16 Sb3 1.972464 1_555
O17 P4 1.551742 1_555
O18 P4 1.554357 1_555
O19 P5 1.543714 1_545
O20 P6 1.509556 1_555
O21 P0 1.555619 1_545
O21 Sb3 1.968166 1_555
O22 P6 1.555780 1_555
O22 Sb2 1.951002 1_555
O23 P7 1.513432 1_545
O24 P4 1.513432 1_565
O25 P5 1.555780 1_555
O25 Sb1 1.951002 1_555
O26 P11 1.555619 1_565
O26 Sb0 1.968166 1_555
O27 P5 1.509556 1_555
O28 P6 1.543714 1_565
O29 P7 1.554357 1_555
O30 P7 1.551742 1_555
O31 P7 1.572007 1_555
O31 Sb0 1.972464 1_555
O32 P8 1.572007 1_555
O32 Sb1 1.972464 1_455
O33 P8 1.551742 1_555
O34 P9 1.506135 1_555
O35 P9 1.545795 1_555
O35 Sb1 1.974647 1_555
O36 P8 1.554357 1_555
O37 P9 1.545191 1_555
O37 Sb0 1.960145 1_555
O38 P1 1.509556 1_555
O39 P10 1.560465 1_555
O39 Sb1 1.969940 1_555
O40 P3 1.513432 1_555
O41 P10 1.543714 1_555
O42 P9 1.555619 1_555
O42 Sb2 1.968166 1_655
O43 P10 1.555780 1_555
O43 Sb3 1.951002 1_555
O44 P11 1.506135 1_555
O45 P11 1.545795 1_555
O45 Sb3 1.974647 1_555
O46 P11 1.545191 1_555
O46 Sb2 1.960145 1_655
O47 P5 1.560465 1_545
O47 Sb3 1.969940 1_555
