# generated using pymatgen
data_K2NbCl3
_symmetry_space_group_name_H-M   'P 1'
_cell_length_a   7.33102170
_cell_length_b   7.55478606
_cell_length_c   41.54384005
_cell_angle_alpha   91.12782100
_cell_angle_beta   97.94122719
_cell_angle_gamma   82.38866405
_symmetry_Int_Tables_number   1
_chemical_formula_structural   K2NbCl3
_chemical_formula_sum   'K20 Nb10 Cl30'
_cell_volume   2258.73177945
_cell_formula_units_Z   10
loop_
 _symmetry_equiv_pos_site_id
 _symmetry_equiv_pos_as_xyz
  1  'x, y, z'
loop_
 _atom_site_type_symbol
 _atom_site_label
 _atom_site_symmetry_multiplicity
 _atom_site_fract_x
 _atom_site_fract_y
 _atom_site_fract_z
 _atom_site_occupancy
  K  K0  1  0.19719019  0.11214122  0.17272593  1
  K  K1  1  0.94403237  0.01213543  0.55699494  1
  K  K2  1  0.03612791  0.06331962  0.35794250  1
  K  K3  1  -0.00440390  0.00807420  0.75817602  1
  K  K4  1  0.95001826  0.96997614  0.95665542  1
  K  K5  1  0.53760866  0.51880591  0.05263755  1
  K  K6  1  0.60862700  0.56644700  0.25326807  1
  K  K7  1  0.46645792  0.53447493  0.43460933  1
  K  K8  1  0.60095618  0.52924960  0.65094700  1
  K  K9  1  0.51433587  0.49754947  0.84567212  1
  K  K10  1  0.45849674  0.49715429  0.15904440  1
  K  K11  1  0.30745686  0.45239013  0.32250672  1
  K  K12  1  0.53108274  0.56706357  0.54516043  1
  K  K13  1  0.61120185  0.51413023  0.74647785  1
  K  K14  1  0.56814450  0.52780652  0.94919629  1
  K  K15  1  0.95106617  0.01854323  0.06239287  1
  K  K16  1  0.01153011  0.09653195  0.25949780  1
  K  K17  1  0.02331555  0.09514022  0.44663205  1
  K  K18  1  0.95433808  0.00293969  0.65243965  1
  K  K19  1  0.98108309  0.97773898  0.85551902  1
  Nb  Nb0  1  0.47634202  0.04011309  -0.00043276  1
  Nb  Nb1  1  0.71824357  0.00254516  0.15428969  1
  Nb  Nb2  1  0.58849190  0.82657206  0.35698028  1
  Nb  Nb3  1  0.44492821  0.01539886  0.60513695  1
  Nb  Nb4  1  0.49623055  0.98835970  0.78969333  1
  Nb  Nb5  1  0.97385598  0.47956148  0.11405803  1
  Nb  Nb6  1  0.77826366  0.55308620  0.35903724  1
  Nb  Nb7  1  0.01131222  0.52198454  0.50468750  1
  Nb  Nb8  1  0.10782172  0.50571182  0.72813131  1
  Nb  Nb9  1  0.03526285  0.47090842  0.91347141  1
  Cl  Cl0  1  0.25444091  0.68165292  0.89778098  1
  Cl  Cl1  1  0.30075779  0.87702956  0.03499403  1
  Cl  Cl2  1  0.34258484  0.93458293  0.30898507  1
  Cl  Cl3  1  0.36984181  0.88597575  0.40028726  1
  Cl  Cl4  1  0.35884436  0.98622351  0.54407933  1
  Cl  Cl5  1  0.36615940  0.89329432  0.65506071  1
  Cl  Cl6  1  0.24803113  0.17205780  0.81627596  1
  Cl  Cl7  1  0.26304731  0.23566815  0.95438742  1
  Cl  Cl8  1  0.74340295  0.25046611  0.11366605  1
  Cl  Cl9  1  0.77762053  0.33095078  0.30959826  1
  Cl  Cl10  1  0.79945996  0.29022821  0.50027645  1
  Cl  Cl11  1  0.78679800  0.25657699  0.90370627  1
  Cl  Cl12  1  0.87802831  0.29049812  0.70315246  1
  Cl  Cl13  1  0.74516669  0.23122363  0.19991591  1
  Cl  Cl14  1  0.73018404  0.24672729  0.00231850  1
  Cl  Cl15  1  0.65847673  0.25002458  0.59570279  1
  Cl  Cl16  1  0.68804447  0.30240296  0.39060150  1
  Cl  Cl17  1  0.71633162  0.22569886  0.80072603  1
  Cl  Cl18  1  0.66483181  0.78042132  0.19544633  1
  Cl  Cl19  1  0.73712188  0.77780617  0.00910281  1
  Cl  Cl20  1  0.74362289  0.76799707  0.60170039  1
  Cl  Cl21  1  0.84848588  0.78611277  0.40390904  1
  Cl  Cl22  1  0.77745797  0.75453734  0.79800381  1
  Cl  Cl23  1  0.76862352  0.77618928  0.10924293  1
  Cl  Cl24  1  0.84403995  0.78678569  0.31763429  1
  Cl  Cl25  1  0.85615055  0.81956760  0.49181846  1
  Cl  Cl26  1  0.86000992  0.74874135  0.70399473  1
  Cl  Cl27  1  0.77494825  0.72355965  0.89771928  1
  Cl  Cl28  1  0.25377219  0.37856387  0.23514610  1
  Cl  Cl29  1  0.14829554  0.40858178  0.38633791  1
loop_
_geom_bond_atom_site_label_1
_geom_bond_atom_site_label_2
_geom_bond_distance
_geom_bond_site_symmetry_2
K10 Nb5 3.796608 1_455
K13 Nb8 3.672369 1_555
Cl0 Nb9 2.559204 1_555
Cl0 K14 3.038846 1_555
Cl0 K19 3.177585 1_455
Cl0 K9 3.251180 1_555
Cl1 Nb0 2.521101 1_565
Cl1 K15 3.007155 1_465
Cl1 K5 3.059065 1_555
Cl2 Nb2 2.563702 1_555
Cl2 K16 3.089906 1_565
Cl2 K2 3.276564 1_565
Cl3 Nb2 2.565579 1_555
Cl3 K2 2.984995 1_565
Cl3 K7 2.993039 1_555
Cl3 K17 3.581319 1_565
Cl4 Nb3 2.540383 1_565
Cl4 K1 3.140526 1_465
Cl4 K12 3.248823 1_555
Cl5 Nb3 2.456288 1_565
Cl5 K18 3.010488 1_465
Cl5 K8 3.060200 1_555
Cl6 Nb4 2.506454 1_545
Cl6 K3 3.168726 1_555
Cl6 K19 3.221762 1_445
Cl6 K9 3.441559 1_555
Cl7 Nb0 2.614737 1_556
Cl7 Nb9 2.717486 1_555
Cl7 K4 3.254465 1_445
Cl7 K14 3.373420 1_555
Cl8 Nb5 2.572152 1_555
Cl8 Nb1 2.586943 1_555
Cl8 K15 3.157114 1_555
Cl8 K5 3.339029 1_555
Cl8 K10 3.362771 1_555
Cl9 Nb6 2.626501 1_555
Cl9 K6 2.992567 1_555
Cl9 K2 3.131510 1_655
Cl9 K16 3.231966 1_655
Cl9 K11 3.558548 1_555
Cl10 Nb7 2.477963 1_655
Cl10 K1 3.162965 1_555
Cl10 K17 3.173732 1_655
Cl10 K12 3.390005 1_555
Cl10 K7 3.737851 1_555
Cl11 Nb9 2.579849 1_655
Cl11 K4 3.119698 1_545
Cl11 K14 3.186558 1_555
Cl11 K19 3.209489 1_545
Cl11 K9 3.315947 1_555
Cl12 Nb8 2.595082 1_655
Cl12 K18 3.048711 1_555
Cl12 K3 3.111443 1_655
Cl12 K13 3.146121 1_555
Cl12 K8 3.170048 1_555
Cl13 Nb1 2.544511 1_555
Cl13 K16 3.035239 1_655
Cl13 K10 3.060361 1_555
Cl13 K6 3.471154 1_555
Cl13 K0 3.642949 1_655
Cl14 Nb0 2.572212 1_555
Cl14 K14 3.095584 1_554
Cl14 K15 3.183664 1_555
Cl14 K4 3.219226 1_544
Cl14 K5 3.235078 1_555
Cl15 Nb3 2.584261 1_555
Cl15 K8 3.120291 1_555
Cl15 K1 3.165118 1_555
Cl15 K12 3.175125 1_555
Cl15 K18 3.381226 1_555
Cl16 Nb6 2.532367 1_555
Cl16 K7 2.999208 1_555
Cl16 K2 3.354732 1_655
Cl16 K17 3.384432 1_655
Cl17 Nb4 2.560938 1_545
Cl17 K13 3.112838 1_555
Cl17 K9 3.115257 1_555
Cl17 K3 3.164355 1_655
Cl17 K19 3.231377 1_545
Cl18 Nb1 2.522850 1_565
Cl18 K6 3.025889 1_555
Cl18 K10 3.041844 1_555
Cl19 Nb0 2.560646 1_565
Cl19 K15 3.210396 1_565
Cl19 K5 3.296570 1_555
Cl19 K14 3.298252 1_554
Cl19 K4 3.309917 1_554
Cl20 Nb3 2.701931 1_565
Cl20 K18 3.107935 1_565
Cl20 K12 3.118387 1_555
Cl20 K8 3.125557 1_555
Cl20 K1 3.258284 1_565
Cl21 Nb2 2.523814 1_555
Cl21 Nb6 2.585542 1_555
Cl21 K17 3.200687 1_665
Cl21 K2 3.401652 1_665
Cl22 Nb4 2.520466 1_555
Cl22 K13 3.013101 1_555
Cl22 K19 3.209934 1_555
Cl22 K3 3.260551 1_665
Cl22 K9 3.689291 1_555
Cl23 Nb5 2.523280 1_555
Cl23 Nb1 2.541778 1_565
Cl23 K15 3.230743 1_565
Cl23 K5 3.430908 1_555
Cl24 Nb6 2.623447 1_555
Cl24 Nb2 2.636206 1_555
Cl24 K2 3.023538 1_665
Cl24 K6 3.494339 1_555
Cl25 Nb7 2.415752 1_655
Cl25 K1 3.078033 1_565
Cl25 K17 3.290201 1_665
Cl26 Nb8 2.522391 1_655
Cl26 K3 3.101145 1_665
Cl26 K18 3.110698 1_565
Cl26 K8 3.278267 1_555
Cl26 K13 3.384165 1_555
Cl27 Nb9 2.540183 1_655
Cl27 K14 3.267001 1_555
Cl27 K19 3.267717 1_555
Cl27 K4 3.270000 1_555
Cl27 K9 3.289114 1_555
Cl28 K6 3.121539 1_555
Cl28 K16 3.209471 1_555
Cl28 K0 3.265933 1_555
Cl28 K11 3.636144 1_555
Cl29 Nb6 2.872467 1_455
Cl29 K2 3.008397 1_555
Cl29 K11 3.081364 1_555
Cl29 K7 3.096225 1_555
