# generated using pymatgen
data_SiC
_symmetry_space_group_name_H-M   'P 1'
_cell_length_a   27.83553980
_cell_length_b   27.83553980
_cell_length_c   27.83554037
_cell_angle_alpha   6.38025180
_cell_angle_beta   6.38025180
_cell_angle_gamma   6.38025128
_symmetry_Int_Tables_number   1
_chemical_formula_structural   SiC
_chemical_formula_sum   'Si11 C11'
_cell_volume   230.89398398
_cell_formula_units_Z   11
loop_
 _symmetry_equiv_pos_site_id
 _symmetry_equiv_pos_as_xyz
  1  'x, y, z'
loop_
 _atom_site_type_symbol
 _atom_site_label
 _atom_site_symmetry_multiplicity
 _atom_site_fract_x
 _atom_site_fract_y
 _atom_site_fract_z
 _atom_site_occupancy
  Si  Si0  1  0.90911900  0.90911900  0.90911900  1
  Si  Si1  1  0.36367100  0.36367100  0.36367100  1
  Si  Si2  1  0.18186600  0.18186600  0.18186600  1
  Si  Si3  1  0.54547200  0.54547200  0.54547200  1
  Si  Si4  1  0.42429300  0.42429300  0.42429300  1
  Si  Si5  1  0.60610900  0.60610900  0.60610900  1
  Si  Si6  1  0.00002900  0.00002900  0.00002900  1
  Si  Si7  1  0.81821100  0.81821100  0.81821100  1
  Si  Si8  1  0.30304700  0.30304700  0.30304700  1
  Si  Si9  1  0.72730200  0.72730200  0.72730200  1
  Si  Si10  1  0.12123200  0.12123200  0.12123200  1
  C  C0  1  0.79537700  0.79537700  0.79537700  1
  C  C1  1  0.09845900  0.09845900  0.09845900  1
  C  C2  1  0.88628500  0.88628500  0.88628500  1
  C  C3  1  0.15910000  0.15910000  0.15910000  1
  C  C4  1  0.28027800  0.28027800  0.28027800  1
  C  C5  1  0.34092000  0.34092000  0.34092000  1
  C  C6  1  0.70446800  0.70446800  0.70446800  1
  C  C7  1  0.58333900  0.58333900  0.58333900  1
  C  C8  1  0.97719100  0.97719100  0.97719100  1
  C  C9  1  0.40152300  0.40152300  0.40152300  1
  C  C10  1  0.52270300  0.52270300  0.52270300  1
loop_
_geom_bond_atom_site_label_1
_geom_bond_atom_site_label_2
_geom_bond_distance
_geom_bond_site_symmetry_2
C0 Si10 1.894125 1_656
C0 Si10 1.894125 1_566
C0 Si10 1.894126 1_665
C0 Si7 1.902849 1_555
C1 Si4 1.894702 1_545
C1 Si4 1.894702 1_455
C1 Si4 1.894702 1_554
C1 Si10 1.897766 1_555
C2 Si3 1.894162 1_556
C2 Si3 1.894162 1_565
C2 Si3 1.894162 1_655
C2 Si0 1.902849 1_555
C3 Si7 1.896256 1_445
C3 Si7 1.896256 1_454
C3 Si7 1.896256 1_544
C3 Si2 1.897183 1_555
C4 Si5 1.894784 1_545
C4 Si5 1.894784 1_455
C4 Si5 1.894785 1_554
C4 Si8 1.897433 1_555
C5 Si1 1.895933 1_555
C5 Si6 1.896311 1_556
C5 Si6 1.896311 1_655
C5 Si6 1.896311 1_565
C6 Si1 1.893724 1_556
C6 Si1 1.893724 1_565
C6 Si1 1.893724 1_655
C6 Si9 1.902849 1_555
C7 Si0 1.896191 1_455
C7 Si0 1.896191 1_545
C7 Si0 1.896191 1_554
C7 Si5 1.897516 1_555
C8 Si8 1.894098 1_566
C8 Si8 1.894098 1_656
C8 Si8 1.894098 1_665
C8 Si6 1.903183 1_666
C9 Si9 1.896219 1_545
C9 Si9 1.896219 1_455
C9 Si9 1.896219 1_554
C9 Si4 1.897516 1_555
C10 Si2 1.894821 1_556
C10 Si2 1.894821 1_565
C10 Si2 1.894821 1_655
C10 Si3 1.897433 1_555
