# generated using pymatgen
data_LiMg4H13Os2
_symmetry_space_group_name_H-M   'P 1'
_cell_length_a   4.72748739
_cell_length_b   4.72748739
_cell_length_c   18.48529100
_cell_angle_alpha   90.00000000
_cell_angle_beta   90.00000000
_cell_angle_gamma   119.99999147
_symmetry_Int_Tables_number   1
_chemical_formula_structural   LiMg4H13Os2
_chemical_formula_sum   'Li2 Mg8 H26 Os4'
_cell_volume   357.78136694
_cell_formula_units_Z   2
loop_
 _symmetry_equiv_pos_site_id
 _symmetry_equiv_pos_as_xyz
  1  'x, y, z'
loop_
 _atom_site_type_symbol
 _atom_site_label
 _atom_site_symmetry_multiplicity
 _atom_site_fract_x
 _atom_site_fract_y
 _atom_site_fract_z
 _atom_site_occupancy
  Li  Li0  1  0.33333300  0.66666700  0.25000000  1
  Li  Li1  1  0.66666700  0.33333300  0.75000000  1
  Mg  Mg0  1  0.00000000  0.00000000  0.35131900  1
  Mg  Mg1  1  0.00000000  0.00000000  0.64868100  1
  Mg  Mg2  1  0.00000000  0.00000000  0.85131900  1
  Mg  Mg3  1  0.00000000  0.00000000  0.14868100  1
  Mg  Mg4  1  0.33333300  0.66666700  0.94797400  1
  Mg  Mg5  1  0.66666700  0.33333300  0.05202600  1
  Mg  Mg6  1  0.66666700  0.33333300  0.44797400  1
  Mg  Mg7  1  0.33333300  0.66666700  0.55202600  1
  H  H0  1  0.16367900  0.83632100  0.44877500  1
  H  H1  1  0.16367900  0.32735700  0.44877500  1
  H  H2  1  0.67264300  0.83632100  0.44877500  1
  H  H3  1  0.83632100  0.16367900  0.55122500  1
  H  H4  1  0.83632100  0.67264300  0.55122500  1
  H  H5  1  0.32735700  0.16367900  0.55122500  1
  H  H6  1  0.83632100  0.16367900  0.94877500  1
  H  H7  1  0.83632100  0.67264300  0.94877500  1
  H  H8  1  0.32735700  0.16367900  0.94877500  1
  H  H9  1  0.16367900  0.83632100  0.05122500  1
  H  H10  1  0.16367900  0.32735700  0.05122500  1
  H  H11  1  0.67264300  0.83632100  0.05122500  1
  H  H12  1  0.50216200  0.49783800  0.83952300  1
  H  H13  1  0.50216200  0.00432300  0.83952300  1
  H  H14  1  0.99567700  0.49783800  0.83952300  1
  H  H15  1  0.49783800  0.50216200  0.16047700  1
  H  H16  1  0.49783800  0.99567700  0.16047700  1
  H  H17  1  0.00432300  0.50216200  0.16047700  1
  H  H18  1  0.49783800  0.50216200  0.33952300  1
  H  H19  1  0.49783800  0.99567700  0.33952300  1
  H  H20  1  0.00432300  0.50216200  0.33952300  1
  H  H21  1  0.50216200  0.49783800  0.66047700  1
  H  H22  1  0.50216200  0.00432300  0.66047700  1
  H  H23  1  0.99567700  0.49783800  0.66047700  1
  H  H24  1  0.00000000  0.00000000  0.25000000  1
  H  H25  1  0.00000000  0.00000000  0.75000000  1
  Os  Os0  1  0.33333300  0.66666700  0.39567000  1
  Os  Os1  1  0.66666700  0.33333300  0.60433000  1
  Os  Os2  1  0.66666700  0.33333300  0.89567000  1
  Os  Os3  1  0.33333300  0.66666700  0.10433000  1
loop_
_geom_bond_atom_site_label_1
_geom_bond_atom_site_label_2
_geom_bond_distance
_geom_bond_site_symmetry_2
H0 Os0 1.701014 1_555
H0 Mg0 2.245365 1_565
H0 Mg7 2.360644 1_555
H0 Mg6 2.363917 1_565
H0 Mg6 2.363917 1_455
H1 Os0 1.701021 1_555
H1 Mg0 2.245363 1_555
H1 Mg7 2.360649 1_555
H1 Mg6 2.363917 1_455
H1 Mg6 2.363917 1_555
H2 Os0 1.701021 1_555
H2 Mg0 2.245363 1_665
H2 Mg7 2.360649 1_555
H2 Mg6 2.363917 1_565
H2 Mg6 2.363917 1_555
H3 Os1 1.701014 1_555
H3 Mg1 2.245365 1_655
H3 Mg6 2.360644 1_555
H3 Mg7 2.363917 1_545
H3 Mg7 2.363917 1_655
H4 Os1 1.701021 1_555
H4 Mg1 2.245363 1_665
H4 Mg6 2.360649 1_555
H4 Mg7 2.363917 1_655
H4 Mg7 2.363917 1_555
H5 Os1 1.701021 1_555
H5 Mg1 2.245363 1_555
H5 Mg6 2.360649 1_555
H5 Mg7 2.363917 1_545
H5 Mg7 2.363917 1_555
H6 Os2 1.701014 1_555
H6 Mg2 2.245365 1_655
H6 Mg5 2.360644 1_556
H6 Mg4 2.363917 1_545
H6 Mg4 2.363917 1_655
H7 Os2 1.701021 1_555
H7 Mg2 2.245363 1_665
H7 Mg5 2.360649 1_556
H7 Mg4 2.363917 1_655
H7 Mg4 2.363917 1_555
H8 Os2 1.701021 1_555
H8 Mg2 2.245363 1_555
H8 Mg5 2.360649 1_556
H8 Mg4 2.363917 1_545
H8 Mg4 2.363917 1_555
H9 Os3 1.701014 1_555
H9 Mg3 2.245365 1_565
H9 Mg4 2.360644 1_554
H9 Mg5 2.363917 1_565
H9 Mg5 2.363917 1_455
H10 Os3 1.701021 1_555
H10 Mg3 2.245363 1_555
H10 Mg4 2.360649 1_554
H10 Mg5 2.363917 1_455
H10 Mg5 2.363917 1_555
H11 Os3 1.701021 1_555
H11 Mg3 2.245363 1_665
H11 Mg4 2.360649 1_554
H11 Mg5 2.363917 1_565
H11 Mg5 2.363917 1_555
H12 Os2 1.700486 1_555
H12 Li1 2.133773 1_555
H12 Mg2 2.373846 1_555
H12 Mg2 2.373846 1_665
H12 Mg4 2.435176 1_555
H13 Os2 1.700486 1_555
H13 Li1 2.133773 1_555
H13 Mg2 2.373844 1_655
H13 Mg2 2.373848 1_555
H13 Mg4 2.435172 1_545
H14 Os2 1.700486 1_555
H14 Li1 2.133773 1_555
H14 Mg2 2.373844 1_655
H14 Mg2 2.373848 1_665
H14 Mg4 2.435172 1_655
H15 Os3 1.700486 1_555
H15 Li0 2.133773 1_555
H15 Mg3 2.373846 1_555
H15 Mg3 2.373846 1_665
H15 Mg5 2.435176 1_555
H16 Os3 1.700486 1_555
H16 Li0 2.133773 1_555
H16 Mg3 2.373844 1_565
H16 Mg3 2.373848 1_665
H16 Mg5 2.435172 1_565
H17 Os3 1.700486 1_555
H17 Li0 2.133773 1_555
H17 Mg3 2.373844 1_565
H17 Mg3 2.373848 1_555
H17 Mg5 2.435172 1_455
H18 Os0 1.700486 1_555
H18 Li0 2.133773 1_555
H18 Mg0 2.373846 1_555
H18 Mg0 2.373846 1_665
H18 Mg6 2.435176 1_555
H19 Os0 1.700486 1_555
H19 Li0 2.133773 1_555
H19 Mg0 2.373844 1_565
H19 Mg0 2.373848 1_665
H19 Mg6 2.435172 1_565
H20 Os0 1.700486 1_555
H20 Li0 2.133773 1_555
H20 Mg0 2.373844 1_565
H20 Mg0 2.373848 1_555
H20 Mg6 2.435172 1_455
H21 Os1 1.700486 1_555
H21 Li1 2.133773 1_555
H21 Mg1 2.373846 1_555
H21 Mg1 2.373846 1_665
H21 Mg7 2.435176 1_555
H22 Os1 1.700486 1_555
H22 Li1 2.133773 1_555
H22 Mg1 2.373844 1_655
H22 Mg1 2.373848 1_555
H22 Mg7 2.435172 1_545
H23 Os1 1.700486 1_555
H23 Li1 2.133773 1_555
H23 Mg1 2.373844 1_655
H23 Mg1 2.373848 1_665
H23 Mg7 2.435172 1_655
H24 Mg0 1.872911 1_555
H24 Mg3 1.872911 1_555
H25 Mg2 1.872911 1_555
H25 Mg1 1.872911 1_555
