# generated using pymatgen
data_K2SbF5
_symmetry_space_group_name_H-M   'P 1'
_cell_length_a   6.60302700
_cell_length_b   15.49794900
_cell_length_c   17.44413683
_cell_angle_alpha   89.18752473
_cell_angle_beta   90.00000000
_cell_angle_gamma   90.00000000
_symmetry_Int_Tables_number   1
_chemical_formula_structural   K2SbF5
_chemical_formula_sum   'K24 Sb12 F60'
_cell_volume   1784.93793250
_cell_formula_units_Z   12
loop_
 _symmetry_equiv_pos_site_id
 _symmetry_equiv_pos_as_xyz
  1  'x, y, z'
loop_
 _atom_site_type_symbol
 _atom_site_label
 _atom_site_symmetry_multiplicity
 _atom_site_fract_x
 _atom_site_fract_y
 _atom_site_fract_z
 _atom_site_occupancy
  K  K0  1  0.25374800  0.63169900  0.75207500  1
  K  K1  1  0.73783000  0.70919100  0.91567200  1
  K  K2  1  0.23933400  0.40122600  0.64910400  1
  K  K3  1  0.73425000  0.54300000  0.57770100  1
  K  K4  1  0.75954100  0.77145300  0.68485900  1
  K  K5  1  0.24625200  0.13169900  0.75207500  1
  K  K6  1  0.74625200  0.36830100  0.24792500  1
  K  K7  1  0.74045900  0.27145300  0.68485900  1
  K  K8  1  0.74756600  0.43835300  0.01833900  1
  K  K9  1  0.24045900  0.22854700  0.31514100  1
  K  K10  1  0.76066600  0.59877400  0.35089600  1
  K  K11  1  0.76217000  0.20919100  0.91567200  1
  K  K12  1  0.26575000  0.45700000  0.42229900  1
  K  K13  1  0.23425000  0.95700000  0.42229900  1
  K  K14  1  0.26217000  0.29080900  0.08432800  1
  K  K15  1  0.75374800  0.86830100  0.24792500  1
  K  K16  1  0.26066600  0.90122600  0.64910400  1
  K  K17  1  0.76575000  0.04300000  0.57770100  1
  K  K18  1  0.25954100  0.72854700  0.31514100  1
  K  K19  1  0.23783000  0.79080900  0.08432800  1
  K  K20  1  0.73933400  0.09877400  0.35089600  1
  K  K21  1  0.75243400  0.93835300  0.01833900  1
  K  K22  1  0.25243400  0.56164700  0.98166100  1
  K  K23  1  0.24756600  0.06164700  0.98166100  1
  Sb  Sb0  1  0.75821700  0.32725600  0.47178200  1
  Sb  Sb1  1  0.74002900  0.65878300  0.13632500  1
  Sb  Sb2  1  0.24178300  0.67274400  0.52821800  1
  Sb  Sb3  1  0.25997100  0.34121700  0.86367500  1
  Sb  Sb4  1  0.74178300  0.82725600  0.47178200  1
  Sb  Sb5  1  0.74120700  0.99864600  0.80222400  1
  Sb  Sb6  1  0.75879300  0.49864600  0.80222400  1
  Sb  Sb7  1  0.75997100  0.15878300  0.13632500  1
  Sb  Sb8  1  0.25879300  0.00135400  0.19777600  1
  Sb  Sb9  1  0.25821700  0.17274400  0.52821800  1
  Sb  Sb10  1  0.24120700  0.50135400  0.19777600  1
  Sb  Sb11  1  0.24002900  0.84121700  0.86367500  1
  F  F0  1  0.77348500  0.12260700  0.77265500  1
  F  F1  1  0.52645700  0.72138100  0.20615600  1
  F  F2  1  0.97724100  0.98993300  0.71926200  1
  F  F3  1  0.02645700  0.77861900  0.79384400  1
  F  F4  1  0.52275900  0.48993300  0.71926200  1
  F  F5  1  0.72651500  0.62260700  0.77265500  1
  F  F6  1  0.45787900  0.86012100  0.95153600  1
  F  F7  1  0.51967700  0.66531200  0.04943300  1
  F  F8  1  0.00726200  0.44820400  0.13114200  1
  F  F9  1  0.51835400  0.89198400  0.53553000  1
  F  F10  1  0.47724100  0.51006700  0.28073800  1
  F  F11  1  0.46671100  0.17283000  0.61883600  1
  F  F12  1  0.95428900  0.70027200  0.22032500  1
  F  F13  1  0.43749200  0.45793900  0.10845800  1
  F  F14  1  0.94922700  0.87231600  0.55750800  1
  F  F15  1  0.01967700  0.83468800  0.95056700  1
  F  F16  1  0.21287200  0.22027700  0.89867900  1
  F  F17  1  0.71287200  0.27972300  0.10132100  1
  F  F18  1  0.97354300  0.22138100  0.20615600  1
  F  F19  1  0.48164600  0.10801600  0.46447000  1
  F  F20  1  0.52952400  0.30719600  0.38789800  1
  F  F21  1  0.53842100  0.00117000  0.70924400  1
  F  F22  1  0.02275900  0.01006700  0.28073800  1
  F  F23  1  0.48032300  0.33468800  0.95056700  1
  F  F24  1  0.27348500  0.37739300  0.22734500  1
  F  F25  1  0.96671100  0.32717000  0.38116400  1
  F  F26  1  0.06250800  0.95793900  0.10845800  1
  F  F27  1  0.44922700  0.62768400  0.44249200  1
  F  F28  1  0.79038200  0.94719100  0.43485200  1
  F  F29  1  0.97047600  0.80719600  0.38789800  1
  F  F30  1  0.47047600  0.69280400  0.61210200  1
  F  F31  1  0.54212100  0.13987900  0.04846400  1
  F  F32  1  0.98164600  0.39198400  0.53553000  1
  F  F33  1  0.70961800  0.44719100  0.43485200  1
  F  F34  1  0.53328900  0.82717000  0.38116400  1
  F  F35  1  0.50726200  0.05179600  0.86885800  1
  F  F36  1  0.03328900  0.67283000  0.61883600  1
  F  F37  1  0.93749200  0.04206100  0.89154200  1
  F  F38  1  0.95787900  0.63987900  0.04846400  1
  F  F39  1  0.99273800  0.55179600  0.86885800  1
  F  F40  1  0.45428900  0.79972800  0.77967500  1
  F  F41  1  0.01835400  0.60801600  0.46447000  1
  F  F42  1  0.22651500  0.87739300  0.22734500  1
  F  F43  1  0.20961800  0.05280900  0.56514800  1
  F  F44  1  0.96157900  0.50117000  0.70924400  1
  F  F45  1  0.54571100  0.20027200  0.22032500  1
  F  F46  1  0.49273800  0.94820400  0.13114200  1
  F  F47  1  0.56250800  0.54206100  0.89154200  1
  F  F48  1  0.28712800  0.72027700  0.89867900  1
  F  F49  1  0.02952400  0.19280400  0.61210200  1
  F  F50  1  0.04571100  0.29972800  0.77967500  1
  F  F51  1  0.98032300  0.16531200  0.04943300  1
  F  F52  1  0.47354300  0.27861900  0.79384400  1
  F  F53  1  0.04212100  0.36012100  0.95153600  1
  F  F54  1  0.46157900  0.99883000  0.29075600  1
  F  F55  1  0.29038200  0.55280900  0.56514800  1
  F  F56  1  0.05077300  0.12768400  0.44249200  1
  F  F57  1  0.78712800  0.77972300  0.10132100  1
  F  F58  1  0.55077300  0.37231600  0.55750800  1
  F  F59  1  0.03842100  0.49883000  0.29075600  1
loop_
_geom_bond_atom_site_label_1
_geom_bond_atom_site_label_2
_geom_bond_distance
_geom_bond_site_symmetry_2
F0 Sb5 1.993530 1_545
F0 K7 2.759401 1_555
F0 K11 2.850477 1_555
F0 K5 3.145198 1_655
F1 Sb1 2.108858 1_555
F1 K18 2.595945 1_555
F1 K15 2.831062 1_555
F1 K19 3.039973 1_555
F2 Sb5 2.132419 1_555
F2 K16 2.633989 1_655
F2 K5 2.888887 1_665
F2 K17 2.943966 1_565
F3 Sb11 2.108858 1_555
F3 K4 2.595945 1_455
F3 K0 2.831062 1_555
F3 K1 3.039973 1_455
F4 Sb6 2.132419 1_555
F4 K2 2.633989 1_555
F4 K0 2.888887 1_555
F4 K3 2.943966 1_555
F5 Sb6 1.993530 1_555
F5 K4 2.759401 1_555
F5 K1 2.850477 1_555
F5 K0 3.145198 1_555
F6 Sb11 2.125278 1_555
F6 K21 2.578932 1_556
F6 K19 2.925817 1_556
F6 K1 3.053089 1_555
F7 Sb1 2.102475 1_555
F7 K22 2.673298 1_554
F7 K19 2.765937 1_555
F7 K1 2.817251 1_554
F8 Sb10 2.107845 1_555
F8 K8 2.616169 1_455
F8 K6 2.929560 1_455
F8 K14 3.083278 1_555
F9 Sb4 2.109761 1_555
F9 K16 2.617039 1_555
F9 K13 2.894737 1_555
F9 K17 2.955701 1_565
F10 Sb10 2.132419 1_555
F10 K10 2.633989 1_555
F10 K6 2.888887 1_555
F10 K12 2.943966 1_555
F11 Sb9 2.096216 1_555
F11 K7 2.641938 1_555
F11 K5 2.808106 1_555
F11 K17 2.916039 1_555
F12 Sb1 2.142159 1_555
F12 K18 2.647797 1_655
F12 K15 2.966845 1_555
F12 K10 3.032362 1_555
F13 Sb10 2.142396 1_555
F13 K8 2.601723 1_555
F13 K14 2.873545 1_555
F13 K22 2.977911 1_554
F14 Sb4 2.151697 1_555
F14 K16 2.646318 1_655
F14 K17 2.935235 1_565
F14 K4 2.974721 1_555
F15 Sb11 2.102475 1_555
F15 K21 2.673298 1_456
F15 K1 2.765937 1_455
F15 K19 2.817251 1_556
F16 Sb3 1.987509 1_555
F16 K23 2.844447 1_555
F16 K5 2.927944 1_555
F16 K11 2.995414 1_455
F17 Sb7 1.987509 1_555
F17 K8 2.844447 1_555
F17 K6 2.927944 1_555
F17 K14 2.995414 1_555
F18 Sb7 2.108858 1_555
F18 K9 2.595945 1_655
F18 K6 2.831062 1_555
F18 K14 3.039973 1_655
F19 Sb9 2.109761 1_555
F19 K20 2.617039 1_555
F19 K17 2.894737 1_555
F19 K13 2.955701 1_545
F20 Sb0 2.128627 1_555
F20 K9 2.604527 1_555
F20 K12 2.970396 1_555
F20 K6 2.973401 1_555
F21 Sb5 2.103187 1_545
F21 K16 2.628591 1_545
F21 K17 2.810106 1_555
F21 K5 2.900890 1_555
F22 Sb8 2.132419 1_555
F22 K20 2.633989 1_455
F22 K15 2.888887 1_445
F22 K13 2.943966 1_545
F23 Sb3 2.102475 1_555
F23 K8 2.673298 1_556
F23 K11 2.765937 1_555
F23 K14 2.817251 1_556
F24 Sb10 1.993530 1_555
F24 K9 2.759401 1_555
F24 K14 2.850477 1_555
F24 K6 3.145198 1_555
F25 Sb0 2.096216 1_555
F25 K9 2.641938 1_655
F25 K6 2.808106 1_555
F25 K12 2.916039 1_655
F26 Sb8 2.142396 1_565
F26 K21 2.601723 1_455
F26 K19 2.873545 1_555
F26 K23 2.977911 1_564
F27 Sb2 2.151697 1_555
F27 K10 2.646318 1_555
F27 K12 2.935235 1_555
F27 K18 2.974721 1_555
F28 Sb4 1.984683 1_555
F28 K20 2.771242 1_565
F28 K17 2.923286 1_565
F28 K13 2.942810 1_655
F29 Sb4 2.128627 1_555
F29 K18 2.604527 1_655
F29 K13 2.970396 1_655
F29 K15 2.973401 1_555
F30 Sb2 2.128627 1_555
F30 K4 2.604527 1_555
F30 K3 2.970396 1_555
F30 K0 2.973401 1_555
F31 Sb7 2.125278 1_555
F31 K23 2.578932 1_554
F31 K11 2.925817 1_554
F31 K14 3.053089 1_555
F32 Sb0 2.109761 1_555
F32 K2 2.617039 1_655
F32 K12 2.894737 1_655
F32 K3 2.955701 1_555
F33 Sb0 1.984683 1_555
F33 K10 2.771242 1_555
F33 K3 2.923286 1_555
F33 K12 2.942810 1_555
F34 Sb4 2.096216 1_555
F34 K18 2.641938 1_555
F34 K15 2.808106 1_555
F34 K13 2.916039 1_555
F35 Sb5 2.107845 1_545
F35 K23 2.616169 1_555
F35 K5 2.929560 1_555
F35 K11 3.083278 1_555
F36 Sb2 2.096216 1_555
F36 K4 2.641938 1_455
F36 K0 2.808106 1_555
F36 K3 2.916039 1_455
F37 Sb5 2.142396 1_545
F37 K23 2.601723 1_655
F37 K11 2.873545 1_555
F37 K21 2.977911 1_546
F38 Sb1 2.125278 1_555
F38 K22 2.578932 1_654
F38 K1 2.925817 1_554
F38 K19 3.053089 1_655
F39 Sb6 2.107845 1_555
F39 K22 2.616169 1_655
F39 K0 2.929560 1_655
F39 K1 3.083278 1_555
F40 Sb11 2.142159 1_555
F40 K4 2.647797 1_555
F40 K0 2.966845 1_555
F40 K16 3.032362 1_555
F41 Sb2 2.109761 1_555
F41 K10 2.617039 1_455
F41 K3 2.894737 1_455
F41 K12 2.955701 1_555
F42 Sb8 1.993530 1_565
F42 K18 2.759401 1_555
F42 K19 2.850477 1_555
F42 K15 3.145198 1_455
F43 Sb9 1.984683 1_555
F43 K16 2.771242 1_545
F43 K13 2.923286 1_545
F43 K17 2.942810 1_455
F44 Sb6 2.103187 1_555
F44 K2 2.628591 1_655
F44 K3 2.810106 1_555
F44 K0 2.900890 1_655
F45 Sb7 2.142159 1_555
F45 K9 2.647797 1_555
F45 K6 2.966845 1_555
F45 K20 3.032362 1_555
F46 Sb8 2.107845 1_565
F46 K21 2.616169 1_555
F46 K15 2.929560 1_555
F46 K19 3.083278 1_555
F47 Sb6 2.142396 1_555
F47 K22 2.601723 1_555
F47 K1 2.873545 1_555
F47 K8 2.977911 1_556
F48 Sb11 1.987509 1_555
F48 K22 2.844447 1_555
F48 K0 2.927944 1_555
F48 K1 2.995414 1_555
F49 Sb9 2.128627 1_555
F49 K7 2.604527 1_455
F49 K17 2.970396 1_455
F49 K5 2.973401 1_555
F50 Sb3 2.142159 1_555
F50 K7 2.647797 1_455
F50 K5 2.966845 1_555
F50 K2 3.032362 1_555
F51 Sb7 2.102475 1_555
F51 K23 2.673298 1_654
F51 K14 2.765937 1_655
F51 K11 2.817251 1_554
F52 Sb3 2.108858 1_555
F52 K7 2.595945 1_555
F52 K5 2.831062 1_555
F52 K11 3.039973 1_555
F53 Sb3 2.125278 1_555
F53 K8 2.578932 1_456
F53 K14 2.925817 1_556
F53 K11 3.053089 1_455
F54 Sb8 2.103187 1_565
F54 K20 2.628591 1_565
F54 K13 2.810106 1_555
F54 K15 2.900890 1_555
F55 Sb2 1.984683 1_555
F55 K2 2.771242 1_555
F55 K12 2.923286 1_555
F55 K3 2.942810 1_555
F56 Sb9 2.151697 1_555
F56 K20 2.646318 1_455
F56 K13 2.935235 1_545
F56 K9 2.974721 1_555
F57 Sb1 1.987509 1_555
F57 K21 2.844447 1_555
F57 K15 2.927944 1_555
F57 K19 2.995414 1_655
F58 Sb0 2.151697 1_555
F58 K2 2.646318 1_555
F58 K3 2.935235 1_555
F58 K7 2.974721 1_555
F59 Sb10 2.103187 1_555
F59 K10 2.628591 1_455
F59 K12 2.810106 1_555
F59 K6 2.900890 1_455
