# generated using pymatgen
data_Li4Ti5O12
_symmetry_space_group_name_H-M   'P 1'
_cell_length_a   5.89605065
_cell_length_b   5.89604765
_cell_length_c   13.16867998
_cell_angle_alpha   77.39989475
_cell_angle_beta   77.39982286
_cell_angle_gamma   89.80974468
_symmetry_Int_Tables_number   1
_chemical_formula_structural   Li4Ti5O12
_chemical_formula_sum   'Li8 Ti10 O24'
_cell_volume   435.53183516
_cell_formula_units_Z   2
loop_
 _symmetry_equiv_pos_site_id
 _symmetry_equiv_pos_as_xyz
  1  'x, y, z'
loop_
 _atom_site_type_symbol
 _atom_site_label
 _atom_site_symmetry_multiplicity
 _atom_site_fract_x
 _atom_site_fract_y
 _atom_site_fract_z
 _atom_site_occupancy
  Li  Li0  1  0.30227135  0.03741018  0.91643848  1
  Li  Li1  1  0.62899901  0.37099977  0.24999999  1
  Li  Li2  1  0.03741170  0.30227095  0.41643846  1
  Li  Li3  1  0.96259055  0.69772811  0.58356144  1
  Li  Li4  1  0.49999987  0.00000019  0.49999999  1
  Li  Li5  1  0.37100075  0.62900042  0.74999983  1
  Li  Li6  1  0.69772809  0.96258953  0.08356218  1
  Li  Li7  1  0.99999980  0.50000007  0.00000025  1
  Ti  Ti0  1  0.15731286  0.66578079  0.16221423  1
  Ti  Ti1  1  0.17060819  0.16167829  0.65706017  1
  Ti  Ti2  1  0.50000012  0.50000159  0.00000068  1
  Ti  Ti3  1  0.66578324  0.15731230  0.66221199  1
  Ti  Ti4  1  0.83832691  0.82938981  0.84293857  1
  Ti  Ti5  1  0.84268447  0.33421565  0.83778790  1
  Ti  Ti6  1  0.82939125  0.83832675  0.34293909  1
  Ti  Ti7  1  0.16167460  0.17060721  0.15706058  1
  Ti  Ti8  1  0.33421658  0.84268716  0.33778782  1
  Ti  Ti9  1  0.50000257  0.49999985  0.49999917  1
  O  O0  1  0.08877167  0.61867534  0.32320480  1
  O  O1  1  0.26091693  0.25881634  0.51069495  1
  O  O2  1  0.41350020  0.95145995  0.66860106  1
  O  O3  1  0.58220608  0.60199499  0.34173236  1
  O  O4  1  0.72420365  0.25834636  0.51268973  1
  O  O5  1  0.61867347  0.08876935  0.82320362  1
  O  O6  1  0.60199201  0.58220338  0.84173409  1
  O  O7  1  0.74165296  0.27579578  0.98730931  1
  O  O8  1  0.74118462  0.73908308  0.98930458  1
  O  O9  1  0.91411548  0.93854467  0.67206473  1
  O  O10  1  0.04853999  0.58649811  0.83139868  1
  O  O11  1  0.06145554  0.08588450  0.82793516  1
  O  O12  1  0.95146034  0.41350008  0.16860212  1
  O  O13  1  0.93854441  0.91411475  0.17206522  1
  O  O14  1  0.08588496  0.06145610  0.32793508  1
  O  O15  1  0.25834645  0.72420284  0.01269207  1
  O  O16  1  0.25881577  0.26091780  0.01069510  1
  O  O17  1  0.38132528  0.91122898  0.17679541  1
  O  O18  1  0.39800534  0.41779416  0.15826731  1
  O  O19  1  0.27579724  0.74165425  0.48730839  1
  O  O20  1  0.58649876  0.04854107  0.33139839  1
  O  O21  1  0.41779681  0.39800788  0.65826583  1
  O  O22  1  0.73908290  0.74118512  0.48930464  1
  O  O23  1  0.91122925  0.38132548  0.67679556  1
loop_
_geom_bond_atom_site_label_1
_geom_bond_atom_site_label_2
_geom_bond_distance
_geom_bond_site_symmetry_2
Li0 O16 1.978785 1_556
Li0 O5 1.980291 1_555
Li0 O15 1.980574 1_546
Li0 O11 2.007480 1_555
Li1 O20 1.955327 1_555
Li1 O12 1.955338 1_555
Li1 O18 1.990022 1_555
Li1 O3 1.990025 1_555
Li2 O1 1.978774 1_555
Li2 O0 1.980296 1_555
Li2 O4 1.980565 1_455
Li2 O14 2.007474 1_555
Li3 O22 1.978789 1_555
Li3 O23 1.980291 1_555
Li3 O19 1.980568 1_655
Li3 O9 2.007482 1_555
Li4 O4 2.077594 1_555
Li4 O19 2.077598 1_545
Li4 O22 2.080489 1_545
Li4 O1 2.080493 1_555
Li4 O2 2.121614 1_545
Li4 O20 2.121620 1_555
Li5 O2 1.955332 1_555
Li5 O10 1.955339 1_555
Li5 O6 1.990026 1_555
Li5 O21 1.990027 1_555
Li6 O8 1.978789 1_554
Li6 O17 1.980286 1_555
Li6 O7 1.980565 1_564
Li6 O13 2.007480 1_555
Li7 O15 2.077603 1_655
Li7 O7 2.077605 1_554
Li7 O16 2.080490 1_655
Li7 O8 2.080490 1_554
Li7 O10 2.121621 1_654
Li7 O12 2.121625 1_555
O0 Ti6 2.010935 1_455
O0 Ti0 2.026093 1_555
O0 Ti8 2.029831 1_555
O1 Ti1 1.843690 1_555
O1 Ti9 1.966838 1_555
O2 Ti3 1.898841 1_565
O2 Ti1 1.900331 1_565
O3 Ti9 1.988640 1_555
O3 Ti6 2.024647 1_555
O3 Ti8 2.035126 1_555
O4 Ti3 1.882611 1_555
O4 Ti9 1.945610 1_555
O5 Ti4 2.010941 1_545
O5 Ti3 2.026104 1_555
O5 Ti5 2.029841 1_555
O6 Ti2 1.988636 1_556
O6 Ti4 2.024656 1_555
O6 Ti5 2.035120 1_555
O7 Ti5 1.882599 1_555
O7 Ti2 1.945627 1_556
O8 Ti4 1.843701 1_555
O8 Ti2 1.966824 1_556
O9 Ti3 1.954925 1_565
O9 Ti1 1.956099 1_665
O9 Ti4 2.146763 1_555
O10 Ti5 1.898849 1_455
O10 Ti4 1.900308 1_455
O11 Ti5 1.954933 1_455
O11 Ti4 1.956092 1_445
O11 Ti1 2.146775 1_555
O12 Ti0 1.898835 1_655
O12 Ti7 1.900320 1_655
O13 Ti0 1.954933 1_655
O13 Ti7 1.956085 1_665
O13 Ti6 2.146762 1_555
O14 Ti8 1.954927 1_545
O14 Ti6 1.956089 1_445
O14 Ti7 2.146769 1_555
O15 Ti0 1.882609 1_555
O15 Ti2 1.945612 1_555
O16 Ti7 1.843695 1_555
O16 Ti2 1.966838 1_555
O17 Ti7 2.010924 1_565
O17 Ti8 2.026115 1_555
O17 Ti0 2.029838 1_555
O18 Ti2 1.988638 1_555
O18 Ti7 2.024650 1_555
O18 Ti0 2.035116 1_555
O19 Ti8 1.882590 1_555
O19 Ti9 1.945631 1_555
O20 Ti8 1.898841 1_545
O20 Ti6 1.900318 1_545
O21 Ti9 1.988637 1_555
O21 Ti1 2.024648 1_555
O21 Ti3 2.035128 1_555
O22 Ti6 1.843695 1_555
O22 Ti9 1.966827 1_555
O23 Ti1 2.010914 1_655
O23 Ti5 2.026113 1_555
O23 Ti3 2.029844 1_555
