# generated using pymatgen
data_Sc9Ni5Ge8
_symmetry_space_group_name_H-M   'P 1'
_cell_length_a   11.59931793
_cell_length_b   11.59931793
_cell_length_c   11.59931793
_cell_angle_alpha   160.52948716
_cell_angle_beta   133.95113754
_cell_angle_gamma   50.44208816
_symmetry_Int_Tables_number   1
_chemical_formula_structural   Sc9Ni5Ge8
_chemical_formula_sum   'Sc9 Ni5 Ge8'
_cell_volume   373.50369808
_cell_formula_units_Z   1
loop_
 _symmetry_equiv_pos_site_id
 _symmetry_equiv_pos_as_xyz
  1  'x, y, z'
loop_
 _atom_site_type_symbol
 _atom_site_label
 _atom_site_symmetry_multiplicity
 _atom_site_fract_x
 _atom_site_fract_y
 _atom_site_fract_z
 _atom_site_occupancy
  Sc  Sc0  1  0.22008400  0.41471900  0.80536500  1
  Sc  Sc1  1  0.72766400  0.72766400  0.00000000  1
  Sc  Sc2  1  0.60935500  0.41471900  0.19463500  1
  Sc  Sc3  1  0.10758300  0.10758300  0.00000000  1
  Sc  Sc4  1  0.77991600  0.58528100  0.19463500  1
  Sc  Sc5  1  0.39064500  0.58528100  0.80536500  1
  Sc  Sc6  1  0.89241700  0.89241700  0.00000000  1
  Sc  Sc7  1  0.27233600  0.27233600  0.00000000  1
  Sc  Sc8  1  0.50000000  0.00000000  0.50000000  1
  Ni  Ni0  1  0.07929200  0.80438100  0.27491200  1
  Ni  Ni1  1  0.92070800  0.19561900  0.72508800  1
  Ni  Ni2  1  0.52946900  0.80438100  0.72508800  1
  Ni  Ni3  1  0.00000000  0.50000000  0.50000000  1
  Ni  Ni4  1  0.47053100  0.19561900  0.27491200  1
  Ge  Ge0  1  0.67080600  0.30862800  0.36217700  1
  Ge  Ge1  1  0.18727000  0.00000000  0.18727000  1
  Ge  Ge2  1  0.36637100  0.86637100  0.50000000  1
  Ge  Ge3  1  0.05354900  0.69137200  0.36217700  1
  Ge  Ge4  1  0.81273000  0.00000000  0.81273000  1
  Ge  Ge5  1  0.32919400  0.69137200  0.63782300  1
  Ge  Ge6  1  0.63362900  0.13362900  0.50000000  1
  Ge  Ge7  1  0.94645100  0.30862800  0.63782300  1
loop_
_geom_bond_atom_site_label_1
_geom_bond_atom_site_label_2
_geom_bond_distance
_geom_bond_site_symmetry_2
Ni0 Sc7 2.910420 1_566
Ni0 Sc7 2.910422 1_555
Ni0 Sc1 2.968908 1_455
Ni0 Sc0 3.047267 1_565
Ni0 Sc0 3.047269 1_554
Ni0 Sc6 3.104170 1_455
Ni1 Sc1 2.910420 1_545
Ni1 Sc1 2.910422 1_556
Ni1 Sc7 2.968908 1_656
Ni1 Sc4 3.047267 1_545
Ni1 Sc4 3.047269 1_556
Ni1 Sc3 3.104170 1_656
Ni2 Sc7 2.910420 1_566
Ni2 Sc7 2.910420 1_555
Ni2 Sc1 2.968917 1_556
Ni2 Sc2 3.047266 1_566
Ni2 Sc2 3.047268 1_555
Ni2 Sc6 3.104168 1_556
Ni3 Sc6 2.990819 1_445
Ni3 Sc6 2.990819 1_456
Ni3 Sc3 2.990819 1_555
Ni3 Sc3 2.990819 1_566
Ni3 Sc2 3.298535 1_455
Ni3 Sc5 3.298535 1_555
Ni3 Sc0 3.298544 1_555
Ni3 Sc4 3.298544 1_455
Ni4 Sc1 2.910420 1_556
Ni4 Sc1 2.910420 1_545
Ni4 Sc7 2.968917 1_555
Ni4 Sc5 3.047266 1_544
Ni4 Sc5 3.047268 1_555
Ni4 Sc3 3.104168 1_555
Ge0 Ni2 2.324278 1_544
Ge0 Ni2 2.324282 1_555
Ge0 Ni4 2.500426 1_555
Ge0 Ge7 2.501079 1_555
Ge0 Sc2 2.696016 1_555
Ge0 Sc1 2.880666 1_545
Ge0 Sc1 2.880668 1_556
Ge0 Sc6 2.916019 1_545
Ge0 Sc6 2.916021 1_556
Ge1 Ni3 2.595065 1_555
Ge1 Ni3 2.595065 1_544
Ge1 Sc6 2.825810 1_445
Ge1 Sc3 2.825810 1_555
Ge1 Sc8 2.837566 1_555
Ge1 Sc5 2.863322 1_544
Ge1 Sc5 2.863325 1_555
Ge1 Sc0 2.863332 1_544
Ge1 Sc0 2.863332 1_555
Ge2 Ni2 2.421518 1_555
Ge2 Ni0 2.421527 1_555
Ge2 Sc7 2.782423 1_566
Ge2 Sc7 2.782423 1_555
Ge2 Sc8 2.804488 1_565
Ge2 Sc0 2.827635 1_554
Ge2 Sc0 2.827635 1_565
Ge2 Sc2 2.827640 1_566
Ge2 Sc2 2.827643 1_555
Ge3 Ni1 2.324274 1_465
Ge3 Ni1 2.324277 1_454
Ge3 Ni0 2.500406 1_555
Ge3 Ge5 2.501079 1_555
Ge3 Sc4 2.696016 1_455
Ge3 Sc7 2.880663 1_555
Ge3 Sc7 2.880663 1_566
Ge3 Sc3 2.916028 1_555
Ge3 Sc3 2.916028 1_566
Ge4 Ni3 2.595065 1_656
Ge4 Ni3 2.595065 1_645
Ge4 Sc6 2.825810 1_546
Ge4 Sc3 2.825810 1_656
Ge4 Sc8 2.837566 1_555
Ge4 Sc2 2.863322 1_556
Ge4 Sc2 2.863325 1_545
Ge4 Sc4 2.863332 1_545
Ge4 Sc4 2.863332 1_556
Ge5 Ni4 2.324278 1_566
Ge5 Ni4 2.324282 1_555
Ge5 Ni2 2.500426 1_555
Ge5 Sc5 2.696016 1_555
Ge5 Sc7 2.880666 1_566
Ge5 Sc7 2.880668 1_555
Ge5 Sc3 2.916019 1_566
Ge5 Sc3 2.916021 1_555
Ge6 Ni4 2.421518 1_555
Ge6 Ni1 2.421527 1_555
Ge6 Sc1 2.782423 1_556
Ge6 Sc1 2.782423 1_545
Ge6 Sc8 2.804488 1_555
Ge6 Sc4 2.827635 1_556
Ge6 Sc4 2.827635 1_545
Ge6 Sc5 2.827640 1_544
Ge6 Sc5 2.827643 1_555
Ge7 Ni0 2.324274 1_645
Ge7 Ni0 2.324277 1_656
Ge7 Ni1 2.500406 1_555
Ge7 Sc0 2.696016 1_655
Ge7 Sc1 2.880663 1_545
Ge7 Sc1 2.880663 1_556
Ge7 Sc6 2.916028 1_556
Ge7 Sc6 2.916028 1_545
