# generated using pymatgen
data_H8PtO6
_symmetry_space_group_name_H-M   'P 1'
_cell_length_a   5.60322052
_cell_length_b   5.60322052
_cell_length_c   7.31233325
_cell_angle_alpha   86.62778495
_cell_angle_beta   86.62778495
_cell_angle_gamma   82.68553578
_symmetry_Int_Tables_number   1
_chemical_formula_structural   H8PtO6
_chemical_formula_sum   'H16 Pt2 O12'
_cell_volume   227.01038129
_cell_formula_units_Z   2
loop_
 _symmetry_equiv_pos_site_id
 _symmetry_equiv_pos_as_xyz
  1  'x, y, z'
loop_
 _atom_site_type_symbol
 _atom_site_label
 _atom_site_symmetry_multiplicity
 _atom_site_fract_x
 _atom_site_fract_y
 _atom_site_fract_z
 _atom_site_occupancy
  H  H0  1  0.87127700  0.62605000  0.84760400  1
  H  H1  1  0.14658100  0.47551800  0.83934700  1
  H  H2  1  0.37991400  0.13227300  0.64754000  1
  H  H3  1  0.25695100  0.89054500  0.74666700  1
  H  H4  1  0.13227300  0.37991400  0.14754000  1
  H  H5  1  0.89054500  0.25695100  0.24666700  1
  H  H6  1  0.47551800  0.14658100  0.33934700  1
  H  H7  1  0.62605000  0.87127700  0.34760400  1
  H  H8  1  0.75507800  0.60678800  0.09232200  1
  H  H9  1  0.46217000  0.43765000  0.50923600  1
  H  H10  1  0.43765000  0.46217000  0.00923600  1
  H  H11  1  0.60678800  0.75507800  0.59232200  1
  H  H12  1  0.94613900  0.02935500  0.98327400  1
  H  H13  1  0.85128100  0.16642900  0.71257600  1
  H  H14  1  0.16642900  0.85128100  0.21257600  1
  H  H15  1  0.02935500  0.94613900  0.48327400  1
  Pt  Pt0  1  0.00413800  0.49789800  0.50432200  1
  Pt  Pt1  1  0.49789800  0.00413800  0.00432200  1
  O  O0  1  0.03522200  0.59610300  0.76465100  1
  O  O1  1  0.40646100  0.96893000  0.74070100  1
  O  O2  1  0.96893000  0.40646100  0.24070100  1
  O  O3  1  0.59610300  0.03522200  0.26465100  1
  O  O4  1  0.66615800  0.66254400  0.98199200  1
  O  O5  1  0.34486200  0.31562100  0.51109100  1
  O  O6  1  0.31562100  0.34486200  0.01109100  1
  O  O7  1  0.66254400  0.66615800  0.48199200  1
  O  O8  1  0.80976200  0.13890800  0.92636100  1
  O  O9  1  0.87247500  0.18365600  0.57325000  1
  O  O10  1  0.18365600  0.87247500  0.07325000  1
  O  O11  1  0.13890800  0.80976200  0.42636100  1
loop_
_geom_bond_atom_site_label_1
_geom_bond_atom_site_label_2
_geom_bond_distance
_geom_bond_site_symmetry_2
H0 O0 1.071041 1_655
H0 O4 1.469480 1_555
H1 O0 1.016624 1_555
H2 O1 1.108050 1_545
H2 O5 1.393059 1_555
H3 O1 0.991840 1_555
H4 O2 1.108050 1_455
H4 O6 1.393059 1_555
H5 O2 0.991840 1_555
H6 O3 1.016624 1_555
H7 O3 1.071041 1_565
H7 O7 1.469480 1_555
H8 O4 0.987281 1_554
H9 O5 1.006008 1_555
H10 O6 1.006008 1_555
H11 O7 0.987281 1_555
H12 O8 1.010866 1_555
H13 O9 1.019061 1_555
H13 O8 1.568342 1_555
H14 O10 1.019061 1_555
H14 O11 1.568342 1_555
H15 O11 1.010866 1_555
O0 Pt0 2.035561 1_555
O1 Pt1 2.050377 1_566
O2 Pt0 2.050377 1_655
O3 Pt1 2.035561 1_555
O4 Pt1 2.034255 1_566
O5 Pt0 2.049173 1_555
O6 Pt1 2.049173 1_555
O7 Pt0 2.034255 1_655
O8 Pt1 2.029028 1_556
O9 Pt0 2.020200 1_655
O10 Pt1 2.020200 1_565
O11 Pt0 2.029028 1_555
