# generated using pymatgen
data_Cu2Se
_symmetry_space_group_name_H-M   'P 1'
_cell_length_a   4.21107409
_cell_length_b   4.21107409
_cell_length_c   13.64327192
_cell_angle_alpha   80.10670517
_cell_angle_beta   80.10670517
_cell_angle_gamma   59.89444985
_symmetry_Int_Tables_number   1
_chemical_formula_structural   Cu2Se
_chemical_formula_sum   'Cu8 Se4'
_cell_volume   205.14541762
_cell_formula_units_Z   4
loop_
 _symmetry_equiv_pos_site_id
 _symmetry_equiv_pos_as_xyz
  1  'x, y, z'
loop_
 _atom_site_type_symbol
 _atom_site_label
 _atom_site_symmetry_multiplicity
 _atom_site_fract_x
 _atom_site_fract_y
 _atom_site_fract_z
 _atom_site_occupancy
  Cu  Cu0  1  0.68480700  0.68480700  0.94615900  1
  Cu  Cu1  1  0.44785100  0.44785100  0.68880900  1
  Cu  Cu2  1  0.19830000  0.19830000  0.43238600  1
  Cu  Cu3  1  0.17582900  0.17582900  0.83752500  1
  Cu  Cu4  1  0.95020300  0.95020300  0.18493500  1
  Cu  Cu5  1  0.92738300  0.92738300  0.58439800  1
  Cu  Cu6  1  0.62411000  0.62411000  0.12855400  1
  Cu  Cu7  1  0.66647800  0.66647800  0.33075200  1
  Se  Se0  1  0.98757100  0.98757100  0.00246000  1
  Se  Se1  1  0.73349600  0.73349600  0.74869500  1
  Se  Se2  1  0.47976200  0.47976200  0.49725600  1
  Se  Se3  1  0.24908500  0.24908500  0.24304600  1
loop_
_geom_bond_atom_site_label_1
_geom_bond_atom_site_label_2
_geom_bond_distance
_geom_bond_site_symmetry_2
Cu0 Cu6 2.439576 1_556
Cu0 Se0 2.478879 1_556
Cu0 Se0 2.577300 1_456
Cu0 Se0 2.577300 1_546
Cu0 Cu3 2.580434 1_565
Cu0 Cu3 2.580434 1_655
Cu0 Se1 2.646613 1_555
Cu1 Se1 2.385017 1_555
Cu1 Cu3 2.541681 1_555
Cu1 Cu5 2.560286 1_545
Cu1 Cu5 2.560286 1_455
Cu1 Se2 2.577360 1_555
Cu1 Se1 2.650821 1_545
Cu1 Se1 2.650821 1_455
Cu2 Se2 2.392323 1_555
Cu2 Se3 2.535881 1_555
Cu2 Cu7 2.554113 1_545
Cu2 Cu7 2.554113 1_455
Cu2 Cu5 2.565916 1_445
Cu2 Se2 2.680696 1_455
Cu2 Se2 2.680696 1_545
Cu3 Se0 2.392713 1_446
Cu3 Se1 2.421315 1_545
Cu3 Se1 2.421315 1_455
Cu4 Se0 2.450106 1_555
Cu4 Se3 2.464089 1_665
Cu4 Cu6 2.496869 1_565
Cu4 Cu6 2.496869 1_655
Cu4 Se3 2.596223 1_655
Cu4 Se3 2.596223 1_565
Cu4 Cu6 2.642103 1_555
Cu5 Se1 2.401824 1_555
Cu5 Se2 2.408012 1_565
Cu5 Se2 2.408012 1_655
Cu6 Cu7 2.836187 1_555
Cu6 Se0 2.860993 1_555
Cu6 Se3 2.869623 1_555
Cu6 Se3 2.873308 1_655
Cu6 Se3 2.873308 1_565
Cu6 Se0 3.008545 1_545
Cu6 Se0 3.008545 1_455
Cu7 Se2 2.406149 1_555
Cu7 Se3 2.434817 1_565
Cu7 Se3 2.434817 1_655
