# generated using pymatgen
data_U(CoP)2
_symmetry_space_group_name_H-M   'P 1'
_cell_length_a   3.97337140
_cell_length_b   3.97337140
_cell_length_c   8.79263388
_cell_angle_alpha   90.00000000
_cell_angle_beta   90.00000000
_cell_angle_gamma   90.00000000
_symmetry_Int_Tables_number   1
_chemical_formula_structural   U(CoP)2
_chemical_formula_sum   'U2 Co4 P4'
_cell_volume   138.81529254
_cell_formula_units_Z   2
loop_
 _symmetry_equiv_pos_site_id
 _symmetry_equiv_pos_as_xyz
  1  'x, y, z'
loop_
 _atom_site_type_symbol
 _atom_site_label
 _atom_site_symmetry_multiplicity
 _atom_site_fract_x
 _atom_site_fract_y
 _atom_site_fract_z
 _atom_site_occupancy
  U  U0  1  0.50000000  -0.00000000  0.25125409  1
  U  U1  1  0.00000000  0.50000000  0.74874591  1
  Co  Co0  1  0.00000000  0.50000000  0.11070851  1
  Co  Co1  1  0.50000000  -0.00000000  0.88929149  1
  Co  Co2  1  0.00000000  0.00000000  0.50000000  1
  Co  Co3  1  0.50000000  0.50000000  0.50000000  1
  P  P0  1  -0.00000000  0.50000000  0.36447719  1
  P  P1  1  0.50000000  0.50000000  -0.00000000  1
  P  P2  1  0.50000000  0.00000000  0.63552281  1
  P  P3  1  -0.00000000  0.00000000  -0.00000000  1
loop_
_geom_bond_atom_site_label_1
_geom_bond_atom_site_label_2
_geom_bond_distance
_geom_bond_site_symmetry_2
Co0 P1 2.212344 1_555
Co0 P3 2.212344 1_565
Co0 P1 2.212344 1_455
Co0 P3 2.212344 1_555
Co0 P0 2.231295 1_555
Co0 U0 3.069358 1_565
Co0 U0 3.069358 1_455
Co0 U0 3.069358 1_555
Co0 U0 3.069358 1_465
Co1 P3 2.212344 1_556
Co1 P1 2.212344 1_556
Co1 P3 2.212344 1_656
Co1 P1 2.212344 1_546
Co1 P2 2.231295 1_555
Co1 U1 3.069358 1_655
Co1 U1 3.069358 1_645
Co1 U1 3.069358 1_545
Co1 U1 3.069358 1_555
Co2 P2 2.316643 1_455
Co2 P0 2.316643 1_555
Co2 P2 2.316643 1_555
Co2 P0 2.316643 1_545
Co2 U1 2.954736 1_545
Co2 U1 2.954736 1_555
Co2 U0 2.954736 1_555
Co2 U0 2.954736 1_455
Co3 P0 2.316643 1_555
Co3 P0 2.316643 1_655
Co3 P2 2.316643 1_565
Co3 P2 2.316643 1_555
Co3 U1 2.954736 1_555
Co3 U0 2.954736 1_565
Co3 U0 2.954736 1_555
Co3 U1 2.954736 1_655
P0 U0 2.980758 1_465
P0 U0 2.980758 1_555
P0 U0 2.980758 1_565
P0 U0 2.980758 1_455
P1 U1 2.971097 1_654
P1 U1 2.971097 1_554
P1 U0 2.971097 1_565
P1 U0 2.971097 1_555
P2 U1 2.980758 1_655
P2 U1 2.980758 1_645
P2 U1 2.980758 1_545
P2 U1 2.980758 1_555
P3 U0 2.971097 1_455
P3 U1 2.971097 1_554
P3 U1 2.971097 1_544
P3 U0 2.971097 1_555
