# generated using pymatgen
data_Pr6Fe13Ge
_symmetry_space_group_name_H-M   'P 1'
_cell_length_a   8.08250196
_cell_length_b   8.07565371
_cell_length_c   12.91378252
_cell_angle_alpha   108.10337395
_cell_angle_beta   108.30063608
_cell_angle_gamma   90.06365107
_symmetry_Int_Tables_number   1
_chemical_formula_structural   Pr6Fe13Ge
_chemical_formula_sum   'Pr12 Fe26 Ge2'
_cell_volume   756.09252148
_cell_formula_units_Z   2
loop_
 _symmetry_equiv_pos_site_id
 _symmetry_equiv_pos_as_xyz
  1  'x, y, z'
loop_
 _atom_site_type_symbol
 _atom_site_label
 _atom_site_symmetry_multiplicity
 _atom_site_fract_x
 _atom_site_fract_y
 _atom_site_fract_z
 _atom_site_occupancy
  Pr  Pr0  1  0.97761600  0.47760600  0.62022100  1
  Pr  Pr1  1  0.64357100  0.14804600  0.62443900  1
  Pr  Pr2  1  0.85755400  0.02433400  0.37748700  1
  Pr  Pr3  1  0.89085100  0.89395700  0.78277100  1
  Pr  Pr4  1  0.38890300  0.39228100  0.78357000  1
  Pr  Pr5  1  0.10897100  0.10618400  0.21605300  1
  Pr  Pr6  1  0.60905500  0.60867700  0.21595800  1
  Pr  Pr7  1  0.52412600  0.35523500  0.38005800  1
  Pr  Pr8  1  0.02421400  0.52455300  0.37949200  1
  Pr  Pr9  1  0.36099600  0.85832900  0.37940800  1
  Pr  Pr10  1  0.47478100  0.64597900  0.62033100  1
  Pr  Pr11  1  0.14282700  0.97518300  0.61924000  1
  Fe  Fe0  1  0.21012400  0.48235800  0.19240500  1
  Fe  Fe1  1  0.93310200  0.79014400  0.00013600  1
  Fe  Fe2  1  0.78812500  0.06640100  0.00040900  1
  Fe  Fe3  1  0.56522700  0.28945900  0.00071800  1
  Fe  Fe4  1  0.73564700  0.87886500  0.11693100  1
  Fe  Fe5  1  0.11604500  0.61738800  0.87986300  1
  Fe  Fe6  1  0.70628900  0.20733700  0.19166600  1
  Fe  Fe7  1  0.88050500  0.38010900  0.12016000  1
  Fe  Fe8  1  0.28805700  0.43316300  0.00051200  1
  Fe  Fe9  1  0.01769300  0.29152300  0.80988100  1
  Fe  Fe10  1  0.29098700  0.79289400  0.80737600  1
  Fe  Fe11  1  0.38168400  0.23660700  0.11877100  1
  Fe  Fe12  1  0.48411400  0.98103100  0.18959800  1
  Fe  Fe13  1  0.79238800  0.51962100  0.81015800  1
  Fe  Fe14  1  0.99893500  0.49992100  0.00082600  1
  Fe  Fe15  1  0.23732800  0.73700900  0.11912000  1
  Fe  Fe16  1  0.98395500  0.70579700  0.19080100  1
  Fe  Fe17  1  0.61818500  0.76217600  0.88011400  1
  Fe  Fe18  1  0.51489100  0.01820700  0.80930700  1
  Fe  Fe19  1  0.20859000  0.93228100  0.99818700  1
  Fe  Fe20  1  0.42998300  0.70881100  0.99832700  1
  Fe  Fe21  1  0.70828800  0.56530600  0.99908100  1
  Fe  Fe22  1  0.49810100  0.99858600  0.99891800  1
  Fe  Fe23  1  0.06614300  0.21064400  0.00098200  1
  Fe  Fe24  1  0.76138900  0.26257300  0.88212000  1
  Fe  Fe25  1  0.26149900  0.11940400  0.88045800  1
  Ge  Ge0  1  0.74831000  0.75187800  0.49834400  1
  Ge  Ge1  1  0.24971300  0.25304900  0.50083200  1
loop_
_geom_bond_atom_site_label_1
_geom_bond_atom_site_label_2
_geom_bond_distance
_geom_bond_site_symmetry_2
Fe0 Fe11 2.535145 1_555
Fe0 Fe15 2.551913 1_555
Fe0 Fe16 2.569971 1_455
Fe0 Fe7 2.570085 1_455
Fe0 Fe14 2.573135 1_455
Fe0 Fe8 2.657893 1_555
Fe0 Fe23 2.663944 1_555
Fe0 Pr8 3.159179 1_555
Fe0 Pr9 3.181684 1_555
Fe0 Pr6 3.273165 1_555
Fe0 Pr5 3.273842 1_555
Fe0 Pr7 3.325191 1_555
Fe1 Fe14 2.406054 1_555
Fe1 Fe4 2.485523 1_555
Fe1 Fe17 2.497117 1_554
Fe1 Fe19 2.514668 1_654
Fe1 Fe2 2.520665 1_565
Fe1 Fe21 2.561339 1_554
Fe1 Fe15 2.575005 1_655
Fe1 Fe5 2.577850 1_654
Fe1 Fe13 2.645070 1_554
Fe1 Fe16 2.665095 1_555
Fe1 Pr5 3.064203 1_665
Fe1 Pr3 3.091902 1_554
Fe2 Fe22 2.399466 1_544
Fe2 Fe24 2.487422 1_554
Fe2 Fe7 2.490582 1_555
Fe2 Fe23 2.526797 1_655
Fe2 Fe3 2.549071 1_555
Fe2 Fe4 2.559966 1_545
Fe2 Fe6 2.667152 1_555
Fe2 Pr5 3.080590 1_655
Fe2 Pr3 3.092482 1_544
Fe3 Fe7 2.496856 1_555
Fe3 Fe8 2.523756 1_555
Fe3 Fe6 2.659435 1_555
Fe3 Pr6 3.069781 1_555
Fe3 Pr4 3.086099 1_554
Fe4 Fe6 2.564837 1_565
Fe4 Pr2 3.021819 1_565
Fe4 Pr6 3.161325 1_555
Fe4 Pr5 3.196074 1_665
Fe5 Fe9 2.537720 1_555
Fe5 Fe8 2.580410 1_556
Fe5 Pr0 3.009566 1_455
Fe5 Pr4 3.168753 1_555
Fe5 Pr3 3.192108 1_455
Fe6 Fe7 2.528843 1_555
Fe6 Pr2 3.130924 1_555
Fe6 Pr7 3.156051 1_555
Fe6 Pr6 3.278609 1_555
Fe6 Pr5 3.298709 1_655
Fe6 Pr8 3.355347 1_655
Fe7 Pr8 3.008603 1_655
Fe7 Pr6 3.169480 1_555
Fe7 Pr5 3.179978 1_655
Fe8 Fe9 2.647634 1_554
Fe8 Pr4 3.079261 1_554
Fe8 Pr6 3.080408 1_555
Fe9 Pr1 3.152966 1_455
Fe9 Pr0 3.186230 1_455
Fe9 Pr3 3.248129 1_445
Fe9 Pr4 3.253608 1_555
Fe9 Pr11 3.357228 1_545
Fe10 Fe25 2.548775 1_565
Fe10 Fe22 2.553402 1_555
Fe10 Fe18 2.553930 1_565
Fe10 Fe17 2.554191 1_555
Fe10 Fe5 2.556493 1_555
Fe10 Fe19 2.662861 1_555
Fe10 Fe20 2.665778 1_555
Fe10 Pr11 3.146951 1_555
Fe10 Pr10 3.150423 1_555
Fe10 Pr4 3.275334 1_555
Fe10 Pr3 3.278436 1_455
Fe10 Pr0 3.325114 1_455
Fe11 Fe22 2.458738 1_544
Fe11 Fe8 2.491562 1_555
Fe11 Fe23 2.495276 1_555
Fe11 Fe6 2.532596 1_555
Fe11 Fe12 2.546228 1_545
Fe11 Fe3 2.555445 1_555
Fe11 Fe19 2.582239 1_544
Fe11 Fe25 2.760599 1_554
Fe11 Pr7 3.029447 1_555
Fe11 Pr5 3.178403 1_555
Fe11 Pr6 3.190040 1_555
Fe12 Fe4 2.532815 1_555
Fe12 Fe15 2.535140 1_555
Fe12 Fe22 2.547160 1_554
Fe12 Fe6 2.549044 1_565
Fe12 Fe20 2.658924 1_554
Fe12 Fe19 2.675917 1_554
Fe12 Pr2 3.160843 1_565
Fe12 Pr7 3.188311 1_565
Fe12 Pr6 3.256487 1_555
Fe12 Pr5 3.282463 1_565
Fe12 Pr9 3.319545 1_555
Fe13 Fe17 2.518065 1_555
Fe13 Fe5 2.520279 1_655
Fe13 Fe14 2.556857 1_556
Fe13 Fe24 2.565028 1_555
Fe13 Fe9 2.591663 1_655
Fe13 Fe21 2.651978 1_555
Fe13 Pr1 3.148154 1_555
Fe13 Pr0 3.187904 1_555
Fe13 Pr3 3.276103 1_555
Fe13 Pr4 3.298567 1_555
Fe13 Pr10 3.353920 1_555
Fe14 Fe23 2.399480 1_655
Fe14 Fe8 2.399755 1_655
Fe14 Fe21 2.403072 1_554
Fe14 Fe24 2.455104 1_554
Fe14 Fe15 2.457173 1_655
Fe14 Fe7 2.465408 1_555
Fe14 Fe5 2.466460 1_654
Fe14 Fe16 2.539617 1_555
Fe14 Fe9 2.567478 1_654
Fe15 Fe20 2.493037 1_554
Fe15 Fe19 2.506619 1_554
Fe15 Fe16 2.539409 1_455
Fe15 Fe8 2.568269 1_555
Fe15 Fe5 2.771528 1_554
Fe15 Pr9 3.016387 1_555
Fe15 Pr5 3.167761 1_565
Fe15 Pr6 3.180820 1_555
Fe16 Fe7 2.544398 1_555
Fe16 Fe4 2.554158 1_555
Fe16 Fe21 2.676883 1_554
Fe16 Pr8 3.147278 1_655
Fe16 Pr9 3.194102 1_655
Fe16 Pr6 3.267055 1_555
Fe16 Pr5 3.273020 1_665
Fe16 Pr2 3.342388 1_565
Fe17 Fe22 2.461644 1_555
Fe17 Fe21 2.497225 1_555
Fe17 Fe18 2.550984 1_565
Fe17 Fe2 2.572244 1_566
Fe17 Fe20 2.587616 1_555
Fe17 Fe4 2.743286 1_556
Fe17 Pr10 3.012935 1_555
Fe17 Pr4 3.183382 1_555
Fe17 Pr3 3.183644 1_555
Fe18 Fe24 2.531691 1_555
Fe18 Fe25 2.534843 1_555
Fe18 Fe22 2.547330 1_545
Fe18 Fe3 2.659965 1_556
Fe18 Fe2 2.664091 1_556
Fe18 Pr11 3.165565 1_545
Fe18 Pr10 3.168378 1_545
Fe18 Pr4 3.269777 1_555
Fe18 Pr3 3.287089 1_545
Fe18 Pr1 3.315587 1_555
Fe19 Fe22 2.396347 1_555
Fe19 Fe5 2.494830 1_555
Fe19 Fe23 2.522225 1_566
Fe19 Fe20 2.542829 1_555
Fe19 Fe25 2.571467 1_565
Fe19 Pr3 3.066970 1_455
Fe19 Pr5 3.083156 1_566
Fe20 Fe22 2.400573 1_555
Fe20 Fe5 2.485959 1_555
Fe20 Fe8 2.515076 1_556
Fe20 Fe21 2.530215 1_555
Fe20 Fe4 2.577654 1_556
Fe20 Pr4 3.057752 1_555
Fe20 Pr6 3.083463 1_556
Fe21 Fe4 2.483850 1_556
Fe21 Fe3 2.517688 1_556
Fe21 Fe24 2.560672 1_555
Fe21 Fe7 2.590405 1_556
Fe21 Pr6 3.067831 1_556
Fe21 Pr4 3.070038 1_555
Fe22 Fe3 2.401659 1_566
Fe22 Fe4 2.454758 1_556
Fe22 Fe25 2.458397 1_565
Fe22 Fe6 2.573832 1_566
Fe23 Fe25 2.508329 1_554
Fe23 Fe8 2.540221 1_555
Fe23 Fe24 2.574318 1_454
Fe23 Fe7 2.576549 1_455
Fe23 Fe9 2.658112 1_554
Fe23 Pr5 3.065654 1_555
Fe23 Pr3 3.081325 1_444
Fe24 Fe3 2.495112 1_556
Fe24 Fe9 2.562120 1_655
Fe24 Fe7 2.757423 1_556
Fe24 Pr1 2.988434 1_555
Fe24 Pr3 3.174724 1_545
Fe24 Pr4 3.195302 1_555
Fe25 Fe8 2.493663 1_556
Fe25 Fe9 2.512231 1_555
Fe25 Fe3 2.568479 1_556
Fe25 Pr11 3.029794 1_545
Fe25 Pr4 3.162207 1_555
Fe25 Pr3 3.172994 1_445
Ge0 Pr6 3.271248 1_555
Ge0 Pr9 3.271831 1_555
Ge0 Pr3 3.294755 1_555
Ge0 Pr11 3.311845 1_655
Ge0 Pr2 3.324431 1_565
Ge0 Pr7 3.329395 1_555
Ge0 Pr8 3.332599 1_655
Ge0 Pr10 3.334789 1_555
Ge0 Pr0 3.340912 1_555
Ge0 Pr1 3.352305 1_565
Ge1 Pr4 3.275284 1_555
Ge1 Pr5 3.299147 1_555
Ge1 Pr0 3.301951 1_455
Ge1 Pr8 3.306822 1_555
Ge1 Pr10 3.307660 1_555
Ge1 Pr2 3.314088 1_455
Ge1 Pr7 3.316770 1_555
Ge1 Pr1 3.325181 1_555
Ge1 Pr11 3.328279 1_545
Ge1 Pr9 3.348806 1_545
