# generated using pymatgen
data_NaSm9Si6(SO12)2
_symmetry_space_group_name_H-M   'P 1'
_cell_length_a   6.79565800
_cell_length_b   9.85733600
_cell_length_c   17.07717004
_cell_angle_alpha   89.99586315
_cell_angle_beta   90.00000000
_cell_angle_gamma   90.00000000
_symmetry_Int_Tables_number   1
_chemical_formula_structural   NaSm9Si6(SO12)2
_chemical_formula_sum   'Na2 Sm18 Si12 S4 O48'
_cell_volume   1143.94982549
_cell_formula_units_Z   2
loop_
 _symmetry_equiv_pos_site_id
 _symmetry_equiv_pos_as_xyz
  1  'x, y, z'
loop_
 _atom_site_type_symbol
 _atom_site_label
 _atom_site_symmetry_multiplicity
 _atom_site_fract_x
 _atom_site_fract_y
 _atom_site_fract_z
 _atom_site_occupancy
  Na  Na0  1  0.75740700  0.00010600  0.33334300  1
  Na  Na1  1  0.24259300  0.50010600  0.83334300  1
  Sm  Sm0  1  0.99473900  0.12925300  0.12146100  1
  Sm  Sm1  1  0.74654300  0.49841000  0.16681800  1
  Sm  Sm2  1  0.25182400  0.50150000  0.16641800  1
  Sm  Sm3  1  0.99743700  0.61720100  0.37471100  1
  Sm  Sm4  1  0.00526100  0.62925300  0.62146100  1
  Sm  Sm5  1  0.50069300  0.74483800  0.49114200  1
  Sm  Sm6  1  0.00341100  0.75348600  0.00407800  1
  Sm  Sm7  1  0.49919700  0.89072900  0.12690500  1
  Sm  Sm8  1  0.24406700  0.99984500  0.33329700  1
  Sm  Sm9  1  0.74817600  0.00150000  0.66641800  1
  Sm  Sm10  1  0.25345700  0.99841000  0.66681800  1
  Sm  Sm11  1  0.00256300  0.11720100  0.87471100  1
  Sm  Sm12  1  0.49930700  0.24483800  0.99114200  1
  Sm  Sm13  1  0.99658900  0.25348600  0.50407800  1
  Sm  Sm14  1  0.50234700  0.36417000  0.38185300  1
  Sm  Sm15  1  0.50080300  0.39072900  0.62690500  1
  Sm  Sm16  1  0.75593300  0.49984500  0.83329700  1
  Sm  Sm17  1  0.49765300  0.86417000  0.88185300  1
  Si  Si0  1  0.00468900  0.32782800  0.29639500  1
  Si  Si1  1  0.99758700  0.39157800  0.01561600  1
  Si  Si2  1  0.49781200  0.72156600  0.30833300  1
  Si  Si3  1  0.00154500  0.78081000  0.18796000  1
  Si  Si4  1  0.99531100  0.82782800  0.79639500  1
  Si  Si5  1  0.00241300  0.89157800  0.51561600  1
  Si  Si6  1  0.49683900  0.10169700  0.48496800  1
  Si  Si7  1  0.49632900  0.17661100  0.20665500  1
  Si  Si8  1  0.50218800  0.22156600  0.80833300  1
  Si  Si9  1  0.99845500  0.28081000  0.68796000  1
  Si  Si10  1  0.50316100  0.60169700  0.98496800  1
  Si  Si11  1  0.50367100  0.67661100  0.70665500  1
  S  S0  1  0.24250700  0.00198800  0.00356600  1
  S  S1  1  0.75749300  0.50198800  0.50356600  1
  S  S2  1  0.24921700  0.49812200  0.49664200  1
  S  S3  1  0.75078300  0.99812200  0.99664200  1
  O  O0  1  0.80589100  0.30935400  0.05284600  1
  O  O1  1  0.19383600  0.31198400  0.05033900  1
  O  O2  1  0.99955600  0.32914100  0.19880800  1
  O  O3  1  0.49692400  0.33195200  0.17289700  1
  O  O4  1  0.19660700  0.42517300  0.31717700  1
  O  O5  1  0.80898300  0.41937200  0.32065700  1
  O  O6  1  0.99762700  0.53731700  0.06513300  1
  O  O7  1  0.50379700  0.57473000  0.07952900  1
  O  O8  1  0.49964200  0.59342700  0.24742600  1
  O  O9  1  0.99551300  0.63372200  0.23604600  1
  O  O10  1  0.68085500  0.70973900  0.37046100  1
  O  O11  1  0.30253600  0.72749800  0.36619400  1
  O  O12  1  0.19550400  0.76259800  0.12976000  1
  O  O13  1  0.80797800  0.77227600  0.12912400  1
  O  O14  1  0.80616400  0.81198400  0.55033900  1
  O  O15  1  0.19410900  0.80935400  0.55284600  1
  O  O16  1  0.00044400  0.82914100  0.69880800  1
  O  O17  1  0.50307600  0.83195200  0.67289700  1
  O  O18  1  0.49398400  0.86680200  0.26142400  1
  O  O19  1  0.00989900  0.91539500  0.24141600  1
  O  O20  1  0.19101700  0.91937200  0.82065700  1
  O  O21  1  0.80339300  0.92517300  0.81717700  1
  O  O22  1  0.00999500  0.90433900  0.42158000  1
  O  O23  1  0.49319400  0.95861200  0.43590500  1
  O  O24  1  0.00237300  0.03731700  0.56513300  1
  O  O25  1  0.49620300  0.07473000  0.57952900  1
  O  O26  1  0.67953000  0.08918700  0.16983900  1
  O  O27  1  0.30120600  0.08681900  0.18082700  1
  O  O28  1  0.50035800  0.09342700  0.74742600  1
  O  O29  1  0.00448700  0.13372200  0.73604600  1
  O  O30  1  0.01126100  0.18029000  0.33695800  1
  O  O31  1  0.49366100  0.17447700  0.30272300  1
  O  O32  1  0.30258400  0.18636700  0.45310400  1
  O  O33  1  0.68116600  0.19968800  0.45966600  1
  O  O34  1  0.69746400  0.22749800  0.86619400  1
  O  O35  1  0.31914500  0.20973900  0.87046100  1
  O  O36  1  0.80449600  0.26259800  0.62976000  1
  O  O37  1  0.19202200  0.27227600  0.62912400  1
  O  O38  1  0.50601600  0.36680200  0.76142400  1
  O  O39  1  0.99010100  0.41539500  0.74141600  1
  O  O40  1  0.99000500  0.40433900  0.92158000  1
  O  O41  1  0.50680600  0.45861200  0.93590500  1
  O  O42  1  0.69879400  0.58681900  0.68082700  1
  O  O43  1  0.32047000  0.58918700  0.66983900  1
  O  O44  1  0.98873900  0.68029000  0.83695800  1
  O  O45  1  0.50633900  0.67447700  0.80272300  1
  O  O46  1  0.31883400  0.69968800  0.95966600  1
  O  O47  1  0.69741600  0.68636700  0.95310400  1
loop_
_geom_bond_atom_site_label_1
_geom_bond_atom_site_label_2
_geom_bond_distance
_geom_bond_site_symmetry_2
Na0 O19 2.471039 1_645
Na0 O22 2.471413 1_645
Na0 O30 2.476786 1_655
Na0 O18 2.537690 1_545
Na0 O31 2.537740 1_555
Na0 O23 2.541390 1_545
Na1 O39 2.471039 1_455
Na1 O40 2.471413 1_455
Na1 O44 2.476786 1_455
Na1 O38 2.537690 1_555
Na1 O45 2.537740 1_555
Na1 O41 2.541390 1_555
S0 Sm0 2.909046 1_455
S0 Sm6 2.939469 1_545
S0 Sm7 2.946477 1_545
S0 Sm11 2.964849 1_554
S0 Sm12 2.970007 1_554
S0 Sm17 3.028623 1_544
S1 Sm4 2.909046 1_655
S1 Sm13 2.939469 1_555
S1 Sm15 2.946477 1_555
S1 Sm3 2.964849 1_555
S1 Sm5 2.970007 1_555
S1 Sm14 3.028623 1_555
S2 Sm14 2.923278 1_555
S2 Sm3 2.939511 1_455
S2 Sm13 2.962858 1_455
S2 Sm5 2.973840 1_555
S2 Sm4 2.993858 1_555
S2 Sm15 2.998644 1_555
S3 Sm17 2.923278 1_555
S3 Sm11 2.939511 1_665
S3 Sm6 2.962858 1_656
S3 Sm12 2.973840 1_565
S3 Sm0 2.993858 1_566
S3 Sm7 2.998644 1_556
O0 Si1 1.660753 1_555
O0 Sm12 2.419836 1_554
O0 Sm0 2.484235 1_555
O0 Sm1 2.724757 1_555
O1 Si1 1.657021 1_455
O1 Sm12 2.401957 1_554
O1 Sm0 2.559279 1_455
O1 Sm2 2.752312 1_555
O2 Si0 1.666924 1_655
O2 Sm0 2.372440 1_555
O2 Sm1 2.457365 1_555
O2 Sm2 2.476154 1_655
O3 Si7 1.636140 1_555
O3 Sm2 2.362140 1_555
O3 Sm1 2.362330 1_555
O4 Si0 1.657626 1_555
O4 Sm14 2.428629 1_555
O4 Sm3 2.525977 1_455
O4 Sm2 2.708291 1_555
O5 Si0 1.659753 1_655
O5 Sm14 2.393814 1_555
O5 Sm3 2.509029 1_555
O5 Sm1 2.772831 1_555
O6 Si1 1.667047 1_555
O6 Sm6 2.372522 1_655
O6 Sm1 2.464506 1_555
O6 Sm2 2.469884 1_655
O7 Si10 1.636554 1_554
O7 Sm1 2.347145 1_555
O7 Sm2 2.377957 1_555
O8 Si2 1.636349 1_555
O8 Sm2 2.360340 1_555
O8 Sm1 2.363797 1_555
O9 Si3 1.666743 1_655
O9 Sm3 2.373623 1_555
O9 Sm1 2.457541 1_555
O9 Sm2 2.479249 1_655
O10 Si2 1.639059 1_555
O10 Sm3 2.337900 1_555
O10 Sm5 2.421989 1_555
O11 Si2 1.655530 1_555
O11 Sm3 2.345631 1_455
O11 Sm5 2.528941 1_555
O11 Sm8 2.771358 1_555
O12 Si3 1.660544 1_555
O12 Sm7 2.420095 1_555
O12 Sm6 2.513709 1_555
O12 Sm2 2.676235 1_555
O13 Si3 1.657387 1_655
O13 Sm7 2.401655 1_555
O13 Sm6 2.521561 1_655
O13 Sm1 2.806455 1_555
O14 Si5 1.657021 1_655
O14 Sm5 2.401957 1_555
O14 Sm4 2.559279 1_655
O14 Sm9 2.752312 1_565
O15 Si5 1.660753 1_555
O15 Sm5 2.419836 1_555
O15 Sm4 2.484235 1_555
O15 Sm10 2.724757 1_555
O16 Si4 1.666924 1_455
O16 Sm4 2.372440 1_555
O16 Sm10 2.457365 1_555
O16 Sm9 2.476154 1_465
O17 Si11 1.636140 1_555
O17 Sm9 2.362140 1_565
O17 Sm10 2.362330 1_555
O18 Si2 1.640677 1_555
O18 Sm7 2.309535 1_555
O18 Sm8 2.472045 1_555
O19 Si3 1.611441 1_555
O19 Sm8 2.384839 1_555
O19 Sm0 2.941134 1_465
O20 Si4 1.659753 1_455
O20 Sm17 2.393814 1_555
O20 Sm11 2.509029 1_565
O20 Sm10 2.772831 1_555
O21 Si4 1.657626 1_555
O21 Sm17 2.428629 1_555
O21 Sm11 2.525977 1_665
O21 Sm9 2.708291 1_565
O22 Si5 1.611603 1_555
O22 Sm8 2.385218 1_555
O22 Sm3 2.942701 1_455
O23 Si6 1.640768 1_565
O23 Sm5 2.309238 1_555
O23 Sm8 2.470158 1_555
O24 Si5 1.667047 1_545
O24 Sm13 2.372522 1_455
O24 Sm10 2.464506 1_545
O24 Sm9 2.469884 1_455
O25 Si6 1.636554 1_555
O25 Sm10 2.347145 1_545
O25 Sm9 2.377957 1_555
O26 Si7 1.639499 1_555
O26 Sm0 2.329563 1_555
O26 Sm7 2.422099 1_545
O27 Si7 1.654166 1_555
O27 Sm0 2.353744 1_455
O27 Sm7 2.528776 1_545
O27 Sm8 2.768577 1_545
O28 Si8 1.636349 1_555
O28 Sm9 2.360340 1_555
O28 Sm10 2.363797 1_545
O29 Si9 1.666743 1_455
O29 Sm11 2.373623 1_555
O29 Sm10 2.457541 1_545
O29 Sm9 2.479249 1_455
O30 Si0 1.611448 1_555
O30 Sm8 2.381317 1_545
O30 Sm13 2.945468 1_455
O31 Si7 1.640803 1_555
O31 Sm14 2.307880 1_555
O31 Sm8 2.472379 1_545
O32 Si6 1.653862 1_555
O32 Sm13 2.349390 1_455
O32 Sm14 2.528815 1_555
O32 Sm8 2.779413 1_545
O33 Si6 1.639733 1_555
O33 Sm13 2.334764 1_555
O33 Sm14 2.423004 1_555
O34 Si8 1.655530 1_555
O34 Sm11 2.345631 1_655
O34 Sm12 2.528941 1_555
O34 Sm16 2.771358 1_555
O35 Si8 1.639059 1_555
O35 Sm11 2.337900 1_555
O35 Sm12 2.421989 1_555
O36 Si9 1.660544 1_555
O36 Sm15 2.420095 1_555
O36 Sm13 2.513709 1_555
O36 Sm9 2.676235 1_555
O37 Si9 1.657387 1_455
O37 Sm15 2.401655 1_555
O37 Sm13 2.521561 1_455
O37 Sm10 2.806455 1_545
O38 Si8 1.640677 1_555
O38 Sm15 2.309535 1_555
O38 Sm16 2.472045 1_555
O39 Si9 1.611441 1_555
O39 Sm16 2.384839 1_555
O39 Sm4 2.941134 1_655
O40 Si1 1.611603 1_556
O40 Sm16 2.385218 1_555
O40 Sm11 2.942701 1_655
O41 Si10 1.640768 1_555
O41 Sm12 2.309238 1_555
O41 Sm16 2.470158 1_555
O42 Si11 1.654166 1_555
O42 Sm4 2.353744 1_655
O42 Sm15 2.528776 1_555
O42 Sm16 2.768577 1_555
O43 Si11 1.639499 1_555
O43 Sm4 2.329563 1_555
O43 Sm15 2.422099 1_555
O44 Si4 1.611448 1_555
O44 Sm16 2.381317 1_555
O44 Sm6 2.945468 1_656
O45 Si11 1.640803 1_555
O45 Sm17 2.307880 1_555
O45 Sm16 2.472379 1_555
O46 Si10 1.639733 1_555
O46 Sm6 2.334764 1_556
O46 Sm17 2.423004 1_555
O47 Si10 1.653862 1_555
O47 Sm6 2.349390 1_656
O47 Sm17 2.528815 1_555
O47 Sm16 2.779413 1_555
