# generated using pymatgen
data_TlFe(MoO4)2
_symmetry_space_group_name_H-M   'P 1'
_cell_length_a   5.78875400
_cell_length_b   8.95242300
_cell_length_c   15.12194800
_cell_angle_alpha   90.00000000
_cell_angle_beta   90.00000000
_cell_angle_gamma   90.00000000
_symmetry_Int_Tables_number   1
_chemical_formula_structural   TlFe(MoO4)2
_chemical_formula_sum   'Tl4 Fe4 Mo8 O32'
_cell_volume   783.67037363
_cell_formula_units_Z   4
loop_
 _symmetry_equiv_pos_site_id
 _symmetry_equiv_pos_as_xyz
  1  'x, y, z'
loop_
 _atom_site_type_symbol
 _atom_site_label
 _atom_site_symmetry_multiplicity
 _atom_site_fract_x
 _atom_site_fract_y
 _atom_site_fract_z
 _atom_site_occupancy
  Tl  Tl0  1  0.75000000  0.43785200  0.87921400  1
  Tl  Tl1  1  0.25000000  0.56214800  0.12078600  1
  Tl  Tl2  1  0.75000000  0.06214800  0.37921400  1
  Tl  Tl3  1  0.25000000  0.93785200  0.62078600  1
  Fe  Fe0  1  0.25000000  0.68989400  0.38159900  1
  Fe  Fe1  1  0.25000000  0.81010600  0.88159900  1
  Fe  Fe2  1  0.75000000  0.31010600  0.61840100  1
  Fe  Fe3  1  0.75000000  0.18989400  0.11840100  1
  Mo  Mo0  1  0.25000000  0.99757500  0.21757500  1
  Mo  Mo1  1  0.25000000  0.29609200  0.46827200  1
  Mo  Mo2  1  0.25000000  0.50242500  0.71757500  1
  Mo  Mo3  1  0.75000000  0.79609200  0.03172800  1
  Mo  Mo4  1  0.25000000  0.20390800  0.96827200  1
  Mo  Mo5  1  0.75000000  0.70390800  0.53172800  1
  Mo  Mo6  1  0.75000000  0.00242500  0.78242500  1
  Mo  Mo7  1  0.75000000  0.49757500  0.28242500  1
  O  O0  1  0.75000000  0.50808300  0.55271900  1
  O  O1  1  0.50101800  0.26314400  0.03458100  1
  O  O2  1  0.00101800  0.73685600  0.96541900  1
  O  O3  1  0.75000000  0.38672500  0.17922300  1
  O  O4  1  0.98998500  0.39416200  0.70362700  1
  O  O5  1  0.25000000  0.00808300  0.94728100  1
  O  O6  1  0.98998500  0.10583800  0.20362700  1
  O  O7  1  0.75000000  0.11327500  0.67922300  1
  O  O8  1  0.51001500  0.39416200  0.70362700  1
  O  O9  1  0.48998500  0.89416200  0.79637300  1
  O  O10  1  0.25000000  0.88672500  0.32077700  1
  O  O11  1  0.75000000  0.13600800  0.86739800  1
  O  O12  1  0.99898200  0.23685600  0.53458100  1
  O  O13  1  0.75000000  0.36399200  0.36739800  1
  O  O14  1  0.25000000  0.61327500  0.82077700  1
  O  O15  1  0.51001500  0.10583800  0.20362700  1
  O  O16  1  0.75000000  0.99191700  0.05271900  1
  O  O17  1  0.49898200  0.76314400  0.46541900  1
  O  O18  1  0.00101800  0.76314400  0.46541900  1
  O  O19  1  0.25000000  0.49191700  0.44728100  1
  O  O20  1  0.49898200  0.73685600  0.96541900  1
  O  O21  1  0.25000000  0.86399200  0.13260200  1
  O  O22  1  0.48998500  0.60583800  0.29637300  1
  O  O23  1  0.25000000  0.19691500  0.36827100  1
  O  O24  1  0.50101800  0.23685600  0.53458100  1
  O  O25  1  0.99898200  0.26314400  0.03458100  1
  O  O26  1  0.75000000  0.80308500  0.63172900  1
  O  O27  1  0.25000000  0.30308500  0.86827100  1
  O  O28  1  0.01001500  0.60583800  0.29637300  1
  O  O29  1  0.75000000  0.69691500  0.13172900  1
  O  O30  1  0.25000000  0.63600800  0.63260200  1
  O  O31  1  0.01001500  0.89416200  0.79637300  1
loop_
_geom_bond_atom_site_label_1
_geom_bond_atom_site_label_2
_geom_bond_distance
_geom_bond_site_symmetry_2
Fe0 O10 1.987708 1_555
Fe0 O17 2.028293 1_555
Fe0 O18 2.028293 1_555
Fe0 O19 2.031707 1_555
Fe0 O22 2.038907 1_555
Fe0 O28 2.038907 1_555
Fe1 O14 1.987708 1_555
Fe1 O20 2.028293 1_555
Fe1 O2 2.028293 1_555
Fe1 O5 2.031707 1_565
Fe1 O31 2.038907 1_555
Fe1 O9 2.038907 1_555
Fe2 O7 1.987708 1_555
Fe2 O12 2.028293 1_555
Fe2 O24 2.028293 1_555
Fe2 O0 2.031707 1_555
Fe2 O4 2.038907 1_555
Fe2 O8 2.038907 1_555
Fe3 O3 1.987708 1_555
Fe3 O25 2.028293 1_555
Fe3 O1 2.028293 1_555
Fe3 O16 2.031707 1_545
Fe3 O15 2.038907 1_555
Fe3 O6 2.038907 1_555
Mo0 O21 1.755355 1_555
Mo0 O6 1.802604 1_465
Mo0 O15 1.802604 1_565
Mo0 O10 1.849414 1_555
Mo1 O23 1.753596 1_555
Mo1 O19 1.781614 1_555
Mo1 O24 1.843399 1_555
Mo1 O12 1.843399 1_455
Mo2 O30 1.755355 1_555
Mo2 O4 1.802604 1_455
Mo2 O8 1.802604 1_555
Mo2 O14 1.849414 1_555
Mo3 O29 1.753596 1_555
Mo3 O16 1.781614 1_555
Mo3 O2 1.843399 1_654
Mo3 O20 1.843399 1_554
Mo4 O27 1.753596 1_555
Mo4 O5 1.781614 1_555
Mo4 O1 1.843399 1_556
Mo4 O25 1.843399 1_456
Mo5 O26 1.753596 1_555
Mo5 O0 1.781614 1_555
Mo5 O18 1.843399 1_655
Mo5 O17 1.843399 1_555
Mo6 O11 1.755355 1_555
Mo6 O9 1.802604 1_545
Mo6 O31 1.802604 1_645
Mo6 O7 1.849414 1_555
Mo7 O13 1.755355 1_555
Mo7 O22 1.802604 1_555
Mo7 O28 1.802604 1_655
Mo7 O3 1.849414 1_555
O11 Tl0 2.708136 1_555
O13 Tl2 2.708136 1_555
O21 Tl1 2.708136 1_555
O30 Tl3 2.708136 1_555
