# generated using pymatgen
data_Al3P3H9C3NO14
_symmetry_space_group_name_H-M   'P 1'
_cell_length_a   9.12325116
_cell_length_b   9.12325116
_cell_length_c   8.78119115
_cell_angle_alpha   85.79855486
_cell_angle_beta   85.79855486
_cell_angle_gamma   87.68423986
_symmetry_Int_Tables_number   1
_chemical_formula_structural   Al3P3H9C3NO14
_chemical_formula_sum   'Al6 P6 H18 C6 N2 O28'
_cell_volume   726.51682705
_cell_formula_units_Z   2
loop_
 _symmetry_equiv_pos_site_id
 _symmetry_equiv_pos_as_xyz
  1  'x, y, z'
loop_
 _atom_site_type_symbol
 _atom_site_label
 _atom_site_symmetry_multiplicity
 _atom_site_fract_x
 _atom_site_fract_y
 _atom_site_fract_z
 _atom_site_occupancy
  Al  Al0  1  0.60174200  0.56223800  0.70754700  1
  Al  Al1  1  0.56223800  0.60174200  0.20754700  1
  Al  Al2  1  0.08174400  0.81583000  0.91858900  1
  Al  Al3  1  0.81583000  0.08174400  0.41858900  1
  Al  Al4  1  0.10976000  0.32601100  0.90834300  1
  Al  Al5  1  0.32601100  0.10976000  0.40834300  1
  P  P0  1  0.84031800  0.56178300  0.95817900  1
  P  P1  1  0.56178300  0.84031800  0.45817900  1
  P  P2  1  0.33022600  0.57850000  0.95742100  1
  P  P3  1  0.57850000  0.33022600  0.45742100  1
  P  P4  1  0.05378900  0.08056000  0.67592300  1
  P  P5  1  0.08056000  0.05378900  0.17592300  1
  H  H0  1  0.69167300  0.92335900  0.84484500  1
  H  H1  1  0.92335900  0.69167300  0.34484500  1
  H  H2  1  0.50372400  0.87782600  0.89498700  1
  H  H3  1  0.87782600  0.50372400  0.39498700  1
  H  H4  1  0.95217600  0.40127100  0.60929000  1
  H  H5  1  0.40127100  0.95217600  0.10929000  1
  H  H6  1  0.78332600  0.14443700  0.93444100  1
  H  H7  1  0.63312000  0.27193500  0.90760900  1
  H  H8  1  0.22046700  0.68666800  0.59644800  1
  H  H9  1  0.14443700  0.78332600  0.43444100  1
  H  H10  1  0.27193500  0.63312000  0.40760900  1
  H  H11  1  0.68666800  0.22046700  0.09644800  1
  H  H12  1  0.54525200  0.03209800  0.76476200  1
  H  H13  1  0.03209800  0.54525200  0.26476200  1
  H  H14  1  0.37757000  0.32815600  0.80686500  1
  H  H15  1  0.32815600  0.37757000  0.30686500  1
  H  H16  1  0.30557700  0.20018400  0.72746600  1
  H  H17  1  0.20018400  0.30557700  0.22746600  1
  C  C0  1  0.57921300  0.96787100  0.86792400  1
  C  C1  1  0.96787100  0.57921300  0.36792400  1
  C  C2  1  0.67561200  0.18141100  0.98348500  1
  C  C3  1  0.18141100  0.67561200  0.48348500  1
  C  C4  1  0.04421000  0.47481800  0.61234400  1
  C  C5  1  0.47481800  0.04421000  0.11234400  1
  N  N0  1  0.57480300  0.06070900  0.99631900  1
  N  N1  1  0.06070900  0.57480300  0.49631900  1
  O  O0  1  0.93542800  0.69782700  0.95378500  1
  O  O1  1  0.69782700  0.93542800  0.45378500  1
  O  O2  1  0.93148700  0.41941700  0.97484200  1
  O  O3  1  0.75878100  0.56970300  0.80829500  1
  O  O4  1  0.41941700  0.93148700  0.47484200  1
  O  O5  1  0.56970300  0.75878100  0.30829500  1
  O  O6  1  0.57242300  0.72423300  0.59499100  1
  O  O7  1  0.72423300  0.57242300  0.09499100  1
  O  O8  1  0.62162000  0.40996800  0.59612200  1
  O  O9  1  0.92502600  0.09476800  0.57076900  1
  O  O10  1  0.25225300  0.71878200  0.88987700  1
  O  O11  1  0.44808100  0.52119300  0.83585500  1
  O  O12  1  0.05335000  0.92144900  0.74987000  1
  O  O13  1  0.40996800  0.62162000  0.09612200  1
  O  O14  1  0.09476800  0.92502600  0.07076900  1
  O  O15  1  0.71878200  0.25225300  0.38987700  1
  O  O16  1  0.52119300  0.44808100  0.33585500  1
  O  O17  1  0.92144900  0.05335000  0.24987000  1
  O  O18  1  0.45638900  0.22402900  0.50627000  1
  O  O19  1  0.22402900  0.45638900  0.00627000  1
  O  O20  1  0.31011100  0.24629700  0.82614700  1
  O  O21  1  0.24629700  0.31011100  0.32614700  1
  O  O22  1  0.20288100  0.10964700  0.58788500  1
  O  O23  1  0.10964700  0.20288100  0.08788500  1
  O  O24  1  0.02477700  0.19018100  0.79945300  1
  O  O25  1  0.19018100  0.02477700  0.29945300  1
  O  O26  1  0.12745700  0.46273000  0.72278700  1
  O  O27  1  0.46273000  0.12745700  0.22278700  1
loop_
_geom_bond_atom_site_label_1
_geom_bond_atom_site_label_2
_geom_bond_distance
_geom_bond_site_symmetry_2
Al0 O6 1.739379 1_555
Al0 O3 1.744246 1_555
Al0 O8 1.752974 1_555
Al0 O11 1.767519 1_555
Al1 O7 1.739379 1_555
Al1 O5 1.744246 1_555
Al1 O13 1.752974 1_555
Al1 O16 1.767519 1_555
Al2 O12 1.737092 1_555
Al2 O14 1.737882 1_556
Al2 O0 1.744521 1_455
Al2 O10 1.769549 1_555
Al3 O17 1.737092 1_555
Al3 O9 1.737882 1_555
Al3 O1 1.744521 1_545
Al3 O15 1.769549 1_555
Al4 O24 1.846875 1_555
Al4 O23 1.867592 1_556
Al4 O2 1.879945 1_455
Al4 O19 1.903301 1_556
Al4 O26 1.979081 1_555
Al4 O20 2.041342 1_555
Al5 O25 1.846875 1_555
Al5 O22 1.867592 1_555
Al5 O4 1.879945 1_545
Al5 O18 1.903301 1_555
Al5 O27 1.979081 1_555
Al5 O21 2.041342 1_555
H14 O20 0.984139 1_555
H15 O21 0.984139 1_555
H16 O20 0.994817 1_555
H17 O21 0.994817 1_555
C0 H2 1.094894 1_555
C0 H0 1.098445 1_555
C0 H12 1.099386 1_565
C0 N0 1.456260 1_565
C1 H3 1.094894 1_555
C1 H1 1.098445 1_555
C1 H13 1.099386 1_655
C1 N1 1.456260 1_655
C2 H11 1.091080 1_556
C2 H6 1.094279 1_555
C2 H7 1.098921 1_555
C2 N0 1.455906 1_555
C3 H8 1.091080 1_555
C3 H9 1.094279 1_555
C3 H10 1.098921 1_555
C3 N1 1.455906 1_555
C4 H4 1.098827 1_455
C4 O26 1.270833 1_555
C4 N1 1.321069 1_555
C5 H5 1.098827 1_545
C5 O27 1.270833 1_555
C5 N0 1.321069 1_554
O0 P0 1.539484 1_555
O1 P1 1.539484 1_555
O2 P0 1.517531 1_555
O3 P0 1.554362 1_555
O4 P1 1.517531 1_555
O5 P1 1.554362 1_555
O6 P1 1.548128 1_555
O7 P0 1.548128 1_554
O8 P3 1.546163 1_555
O9 P4 1.542249 1_655
O10 P2 1.540394 1_555
O11 P2 1.561140 1_555
O12 P4 1.546223 1_565
O13 P2 1.546163 1_554
O14 P5 1.542249 1_565
O15 P3 1.540394 1_555
O16 P3 1.561140 1_555
O17 P5 1.546223 1_655
O18 P3 1.523190 1_555
O19 P2 1.523190 1_554
O22 P4 1.537288 1_555
O23 P5 1.537288 1_555
O24 P4 1.530496 1_555
O25 P5 1.530496 1_555
