# generated using pymatgen
data_YMg
_symmetry_space_group_name_H-M   'P 1'
_cell_length_a   3.80857661
_cell_length_b   3.80857661
_cell_length_c   3.80857661
_cell_angle_alpha   90.00000000
_cell_angle_beta   90.00000000
_cell_angle_gamma   90.00000000
_symmetry_Int_Tables_number   1
_chemical_formula_structural   YMg
_chemical_formula_sum   'Y1 Mg1'
_cell_volume   55.24437794
_cell_formula_units_Z   1
loop_
 _symmetry_equiv_pos_site_id
 _symmetry_equiv_pos_as_xyz
  1  'x, y, z'
loop_
 _atom_site_type_symbol
 _atom_site_label
 _atom_site_symmetry_multiplicity
 _atom_site_fract_x
 _atom_site_fract_y
 _atom_site_fract_z
 _atom_site_occupancy
  Y  Y0  1  0.00000000  0.00000000  0.00000000  1
  Mg  Mg0  1  0.50000000  0.50000000  0.50000000  1
loop_
_geom_bond_atom_site_label_1
_geom_bond_atom_site_label_2
_geom_bond_distance
_geom_bond_site_symmetry_2
Mg0 Y0 3.298324 1_666
Mg0 Y0 3.298324 1_556
Mg0 Y0 3.298324 1_555
Mg0 Y0 3.298324 1_656
Mg0 Y0 3.298324 1_565
Mg0 Y0 3.298324 1_566
Mg0 Y0 3.298324 1_665
Mg0 Y0 3.298324 1_655
