# generated using pymatgen
data_Li11TiP5
_symmetry_space_group_name_H-M   'P 1'
_cell_length_a   7.18908747
_cell_length_b   7.18908747
_cell_length_c   10.27045868
_cell_angle_alpha   63.32860235
_cell_angle_beta   63.32860235
_cell_angle_gamma   33.24114088
_symmetry_Int_Tables_number   1
_chemical_formula_structural   Li11TiP5
_chemical_formula_sum   'Li11 Ti1 P5'
_cell_volume   257.06968628
_cell_formula_units_Z   1
loop_
 _symmetry_equiv_pos_site_id
 _symmetry_equiv_pos_as_xyz
  1  'x, y, z'
loop_
 _atom_site_type_symbol
 _atom_site_label
 _atom_site_symmetry_multiplicity
 _atom_site_fract_x
 _atom_site_fract_y
 _atom_site_fract_z
 _atom_site_occupancy
  Li  Li0  1  0.19825200  0.19825200  0.92329100  1
  Li  Li1  1  0.60446900  0.60446900  0.09693700  1
  Li  Li2  1  0.60749400  0.60749400  0.34966700  1
  Li  Li3  1  0.60107100  0.60107100  0.84892200  1
  Li  Li4  1  0.99095700  0.99095700  0.25522700  1
  Li  Li5  1  0.02024400  0.02024400  0.73900600  1
  Li  Li6  1  0.39373200  0.39373200  0.91892700  1
  Li  Li7  1  0.41627300  0.41627300  0.64093700  1
  Li  Li8  1  0.38349500  0.38349500  0.16937100  1
  Li  Li9  1  0.79686900  0.79686900  0.07832000  1
  Li  Li10  1  0.19418400  0.19418400  0.43513200  1
  Ti  Ti0  1  0.79661300  0.79661300  0.55832200  1
  P  P0  1  0.99495800  0.99495800  0.00268400  1
  P  P1  1  0.38757500  0.38757500  0.41962200  1
  P  P2  1  0.80800600  0.80800600  0.78350400  1
  P  P3  1  0.19155500  0.19155500  0.18262000  1
  P  P4  1  0.61425300  0.61425300  0.59751000  1
loop_
_geom_bond_atom_site_label_1
_geom_bond_atom_site_label_2
_geom_bond_distance
_geom_bond_site_symmetry_2
Li0 P0 2.523900 1_446
Li0 P2 2.557773 1_455
Li0 P2 2.557773 1_545
Li0 P3 2.621473 1_556
Li0 Li6 2.672514 1_555
Li1 P3 2.726099 1_565
Li1 P3 2.726099 1_655
Li1 P0 2.968210 1_545
Li1 P0 2.968210 1_455
Li2 P3 2.579070 1_655
Li2 P3 2.579070 1_565
Li2 P4 2.590391 1_555
Li2 P1 2.767149 1_555
Li3 P4 2.502190 1_555
Li3 P0 2.587783 1_456
Li3 P0 2.587783 1_546
Li3 Li6 2.598632 1_555
Li3 P2 2.604839 1_555
Li4 P3 2.502682 1_665
Li4 P0 2.568372 1_555
Li4 P1 2.618167 1_655
Li4 P1 2.618167 1_565
Li5 P4 2.500882 1_545
Li5 P4 2.500882 1_455
Li5 P0 2.563444 1_446
Li5 P2 2.739927 1_445
Li5 Li6 2.768312 1_455
Li5 Li6 2.768312 1_545
Li6 Li8 2.509201 1_556
Li6 Li9 2.577301 1_456
Li6 Li9 2.577301 1_546
Li6 Li7 2.723462 1_555
Li6 P3 2.832992 1_556
Li6 P0 2.835030 1_546
Li6 P0 2.835030 1_456
Li6 P2 3.016109 1_545
Li6 P2 3.016109 1_455
Li7 P1 2.482918 1_555
Li7 P4 2.549365 1_555
Li7 P2 2.559515 1_545
Li7 P2 2.559515 1_455
Li8 P3 2.583500 1_555
Li8 P1 2.597000 1_555
Li8 P0 2.656015 1_455
Li8 P0 2.656015 1_545
Li9 P3 2.454588 1_655
Li9 P3 2.454588 1_565
Li9 P0 2.462826 1_555
Li10 P4 2.549850 1_545
Li10 P4 2.549850 1_455
Li10 P1 2.593636 1_555
Li10 P3 2.610578 1_555
P1 Ti0 2.481060 1_545
P1 Ti0 2.481060 1_455
P2 Ti0 2.390279 1_555
P4 Ti0 2.350965 1_555
