# generated using pymatgen
data_CeBiS2O
_symmetry_space_group_name_H-M   'P 1'
_cell_length_a   4.01554100
_cell_length_b   4.01554100
_cell_length_c   13.61461500
_cell_angle_alpha   90.00000000
_cell_angle_beta   90.00000000
_cell_angle_gamma   90.00000000
_symmetry_Int_Tables_number   1
_chemical_formula_structural   CeBiS2O
_chemical_formula_sum   'Ce2 Bi2 S4 O2'
_cell_volume   219.52980609
_cell_formula_units_Z   2
loop_
 _symmetry_equiv_pos_site_id
 _symmetry_equiv_pos_as_xyz
  1  'x, y, z'
loop_
 _atom_site_type_symbol
 _atom_site_label
 _atom_site_symmetry_multiplicity
 _atom_site_fract_x
 _atom_site_fract_y
 _atom_site_fract_z
 _atom_site_occupancy
  Ce  Ce0  1  0.50000000  0.00000000  0.59074900  1
  Ce  Ce1  1  0.00000000  0.50000000  0.40925100  1
  Bi  Bi0  1  0.50000000  0.00000000  0.12433800  1
  Bi  Bi1  1  0.00000000  0.50000000  0.87566200  1
  S  S0  1  0.50000000  0.00000000  0.31487000  1
  S  S1  1  0.50000000  0.00000000  0.88098000  1
  S  S2  1  0.00000000  0.50000000  0.68513000  1
  S  S3  1  0.00000000  0.50000000  0.11902000  1
  O  O0  1  0.00000000  0.00000000  0.50000000  1
  O  O1  1  0.50000000  0.50000000  0.50000000  1
loop_
_geom_bond_atom_site_label_1
_geom_bond_atom_site_label_2
_geom_bond_distance
_geom_bond_site_symmetry_2
Ce0 O1 2.357463 1_545
Ce0 O0 2.357463 1_555
Ce0 O0 2.357463 1_655
Ce0 O1 2.357463 1_555
Ce0 S2 3.116634 1_655
Ce0 S2 3.116634 1_545
Ce0 S2 3.116634 1_645
Ce0 S2 3.116634 1_555
Ce1 O1 2.357463 1_455
Ce1 O1 2.357463 1_555
Ce1 O0 2.357463 1_565
Ce1 O0 2.357463 1_555
Ce1 S0 3.116634 1_465
Ce1 S0 3.116634 1_455
Ce1 S0 3.116634 1_555
Ce1 S0 3.116634 1_565
Bi0 S0 2.594020 1_555
Bi0 S3 2.840339 1_655
Bi0 S3 2.840339 1_545
Bi0 S3 2.840339 1_645
Bi0 S3 2.840339 1_555
Bi1 S2 2.594020 1_555
Bi1 S1 2.840339 1_565
Bi1 S1 2.840339 1_455
Bi1 S1 2.840339 1_465
Bi1 S1 2.840339 1_555
