# generated using pymatgen
data_TiH12N3F7
_symmetry_space_group_name_H-M   'P 1'
_cell_length_a   7.00001200
_cell_length_b   7.14433460
_cell_length_c   7.15277733
_cell_angle_alpha   93.02308024
_cell_angle_beta   118.34847979
_cell_angle_gamma   112.84994418
_symmetry_Int_Tables_number   1
_chemical_formula_structural   TiH12N3F7
_chemical_formula_sum   'Ti1 H12 N3 F7'
_cell_volume   277.43259124
_cell_formula_units_Z   1
loop_
 _symmetry_equiv_pos_site_id
 _symmetry_equiv_pos_as_xyz
  1  'x, y, z'
loop_
 _atom_site_type_symbol
 _atom_site_label
 _atom_site_symmetry_multiplicity
 _atom_site_fract_x
 _atom_site_fract_y
 _atom_site_fract_z
 _atom_site_occupancy
  Ti  Ti0  1  0.85674600  0.49708000  0.89904300  1
  H  H0  1  0.26733900  0.95142400  0.26360800  1
  H  H1  1  0.32509100  0.38739300  0.16422400  1
  H  H2  1  0.89471000  0.96070300  0.93100200  1
  H  H3  1  0.67819700  0.73723500  0.14957700  1
  H  H4  1  0.54410900  0.86058400  0.43432500  1
  H  H5  1  0.84360800  0.96825700  0.50486000  1
  H  H6  1  0.67139800  0.70062500  0.45137800  1
  H  H7  1  0.39610300  0.17982500  0.64372700  1
  H  H8  1  0.08784400  0.27431900  0.79208300  1
  H  H9  1  0.86585800  0.04950100  0.94973000  1
  H  H10  1  0.57266900  0.84905000  0.76672300  1
  H  H11  1  0.32847500  0.99672000  0.20243300  1
  N  N0  1  0.57254400  0.79604300  0.17123000  1
  N  N1  1  0.66607700  0.83626300  0.40618800  1
  N  N2  1  0.58077200  0.27639400  0.74199800  1
  F  F0  1  0.89247400  0.68430700  0.73469000  1
  F  F1  1  0.08095400  0.19978600  0.66777800  1
  F  F2  1  0.48351100  0.40372700  0.27692700  1
  F  F3  1  0.42622100  0.74125700  0.63904500  1
  F  F4  1  0.09501300  0.38939700  0.97314100  1
  F  F5  1  0.86270300  0.64701300  0.12720800  1
  F  F6  1  0.66506200  0.00580500  0.14925200  1
loop_
_geom_bond_atom_site_label_1
_geom_bond_atom_site_label_2
_geom_bond_distance
_geom_bond_site_symmetry_2
H0 H11 0.751365 1_555
H2 H9 0.759893 1_565
H3 N0 1.044372 1_555
H4 N1 1.036503 1_555
H5 N1 1.057575 1_555
H6 N1 1.046207 1_555
H7 N2 1.017058 1_555
N2 Ti0 1.693071 1_555
F0 Ti0 1.849054 1_555
F1 H8 0.982755 1_555
F2 H1 0.966354 1_555
F3 H10 0.949529 1_555
F4 H8 1.466148 1_555
F4 H1 1.546498 1_556
F4 Ti0 1.963316 1_455
F5 Ti0 1.878538 1_554
F6 N0 1.434483 1_545
