# generated using pymatgen
data_H7NO6
_symmetry_space_group_name_H-M   'P 1'
_cell_length_a   14.57065000
_cell_length_b   3.80966800
_cell_length_c   10.17085067
_cell_angle_alpha   88.47220012
_cell_angle_beta   90.00000000
_cell_angle_gamma   90.00000000
_symmetry_Int_Tables_number   1
_chemical_formula_structural   H7NO6
_chemical_formula_sum   'H28 N4 O24'
_cell_volume   564.37649476
_cell_formula_units_Z   4
loop_
 _symmetry_equiv_pos_site_id
 _symmetry_equiv_pos_as_xyz
  1  'x, y, z'
loop_
 _atom_site_type_symbol
 _atom_site_label
 _atom_site_symmetry_multiplicity
 _atom_site_fract_x
 _atom_site_fract_y
 _atom_site_fract_z
 _atom_site_occupancy
  H  H0  1  0.37909000  0.31731200  0.28726200  1
  H  H1  1  0.31877300  0.04502200  0.21145800  1
  H  H2  1  0.71862400  0.57008000  0.31687000  1
  H  H3  1  0.65920700  0.79694400  0.21333900  1
  H  H4  1  0.21862400  0.42992000  0.68313000  1
  H  H5  1  0.15920700  0.20305600  0.78666100  1
  H  H6  1  0.87909000  0.68268800  0.71273800  1
  H  H7  1  0.81877300  0.95497800  0.78854200  1
  H  H8  1  0.10507700  0.17559600  0.24945200  1
  H  H9  1  0.02750200  0.15956200  0.35498800  1
  H  H10  1  0.99890400  0.56967400  0.21203400  1
  H  H11  1  0.99606300  0.88421000  0.10034200  1
  H  H12  1  0.90660500  0.55926100  0.08694100  1
  H  H13  1  0.49606300  0.11579000  0.89965800  1
  H  H14  1  0.40660500  0.44073900  0.91305900  1
  H  H15  1  0.60507700  0.82440400  0.75054800  1
  H  H16  1  0.49890400  0.43032600  0.78796600  1
  H  H17  1  0.52750200  0.84043800  0.64501200  1
  H  H18  1  0.17843000  0.76978300  0.48945700  1
  H  H19  1  0.10055000  0.66446500  0.59903600  1
  H  H20  1  0.13650900  0.06627300  0.60319600  1
  H  H21  1  0.80460500  0.29266000  0.03488300  1
  H  H22  1  0.85987000  0.54508200  0.92203600  1
  H  H23  1  0.30460500  0.70734000  0.96511700  1
  H  H24  1  0.35987000  0.45491800  0.07796400  1
  H  H25  1  0.67843000  0.23021700  0.51054300  1
  H  H26  1  0.60055000  0.33553500  0.40096400  1
  H  H27  1  0.63650900  0.93372700  0.39680400  1
  N  N0  1  0.15171600  0.98651500  0.01549300  1
  N  N1  1  0.82718600  0.42830300  0.49532900  1
  N  N2  1  0.32718600  0.57169700  0.50467100  1
  N  N3  1  0.65171600  0.01348500  0.98450700  1
  O  O0  1  0.17731900  0.90545100  0.13108600  1
  O  O1  1  0.81783600  0.39545000  0.37237200  1
  O  O2  1  0.31783600  0.60455000  0.62762800  1
  O  O3  1  0.67731900  0.09454900  0.86891400  1
  O  O4  1  0.20729500  0.94765700  0.91873600  1
  O  O5  1  0.75779800  0.36880900  0.57288900  1
  O  O6  1  0.25779800  0.63119100  0.42711100  1
  O  O7  1  0.70729500  0.05234300  0.08126400  1
  O  O8  1  0.07260900  0.10548100  0.99185300  1
  O  O9  1  0.90161100  0.51827300  0.54451100  1
  O  O10  1  0.40161100  0.48172700  0.45548900  1
  O  O11  1  0.57260900  0.89451900  0.00814700  1
  O  O12  1  0.37023400  0.20697900  0.20130800  1
  O  O13  1  0.65618400  0.67482100  0.30149300  1
  O  O14  1  0.15618400  0.32517900  0.69850700  1
  O  O15  1  0.87023400  0.79302100  0.79869200  1
  O  O16  1  0.06457500  0.32388200  0.30242500  1
  O  O17  1  0.95679600  0.73172000  0.15827700  1
  O  O18  1  0.45679600  0.26828000  0.84172300  1
  O  O19  1  0.56457500  0.67611800  0.69757500  1
  O  O20  1  0.11737900  0.86245400  0.53811000  1
  O  O21  1  0.86425000  0.40010900  0.00826200  1
  O  O22  1  0.36425000  0.59989100  0.99173800  1
  O  O23  1  0.61737900  0.13754600  0.46189000  1
loop_
_geom_bond_atom_site_label_1
_geom_bond_atom_site_label_2
_geom_bond_distance
_geom_bond_site_symmetry_2
H0 O12 0.988531 1_555
H1 O12 0.974773 1_555
H2 O13 1.004030 1_555
H2 O1 1.682542 1_555
H3 O13 1.000023 1_555
H4 O14 1.004030 1_555
H4 O2 1.682542 1_555
H5 O14 1.000023 1_555
H6 O15 0.988531 1_555
H7 O15 0.974773 1_555
H8 O16 0.986872 1_555
H9 O16 0.975518 1_555
H10 O17 1.019061 1_555
H10 O16 1.609883 1_655
H11 O17 0.996894 1_555
H12 O21 1.189422 1_555
H12 O17 1.232203 1_555
H13 O18 0.996894 1_555
H14 O22 1.189422 1_555
H14 O18 1.232203 1_555
H15 O19 0.986872 1_555
H16 O18 1.019061 1_555
H16 O19 1.609883 1_555
H17 O19 0.975518 1_555
H18 O20 1.081726 1_555
H18 O6 1.426915 1_555
H19 O20 0.994043 1_555
H20 O20 1.070629 1_545
H20 O14 1.430305 1_555
H21 O21 0.995108 1_555
H22 O21 1.025862 1_556
H22 O15 1.557442 1_555
H23 O22 0.995108 1_555
H24 O22 1.025862 1_554
H24 O12 1.557442 1_555
H25 O23 1.081726 1_555
H25 O5 1.426915 1_555
H26 O23 0.994043 1_555
H27 O23 1.070629 1_565
H27 O13 1.430305 1_555
N0 O8 1.259361 1_564
N0 O0 1.263884 1_555
N0 O4 1.286060 1_554
N1 O9 1.246120 1_555
N1 O1 1.267484 1_555
N1 O5 1.298577 1_555
N2 O10 1.246120 1_555
N2 O2 1.267484 1_555
N2 O6 1.298577 1_555
N3 O11 1.259361 1_546
N3 O3 1.263884 1_555
N3 O7 1.286060 1_556
