# generated using pymatgen
data_NaYbTiNbO6F
_symmetry_space_group_name_H-M   'P 1'
_cell_length_a   7.32945500
_cell_length_b   7.32945500
_cell_length_c   10.39108400
_cell_angle_alpha   90.00000000
_cell_angle_beta   90.00000000
_cell_angle_gamma   90.00000000
_symmetry_Int_Tables_number   1
_chemical_formula_structural   NaYbTiNbO6F
_chemical_formula_sum   'Na4 Yb4 Ti4 Nb4 O24 F4'
_cell_volume   558.21849457
_cell_formula_units_Z   4
loop_
 _symmetry_equiv_pos_site_id
 _symmetry_equiv_pos_as_xyz
  1  'x, y, z'
loop_
 _atom_site_type_symbol
 _atom_site_label
 _atom_site_symmetry_multiplicity
 _atom_site_fract_x
 _atom_site_fract_y
 _atom_site_fract_z
 _atom_site_occupancy
  Na  Na0  1  0.50000000  0.74732800  0.50000000  1
  Na  Na1  1  0.50000000  0.25267200  0.00000000  1
  Na  Na2  1  0.74732800  0.50000000  0.25000000  1
  Na  Na3  1  0.25267200  0.50000000  0.75000000  1
  Yb  Yb0  1  0.00000000  0.74423900  0.50000000  1
  Yb  Yb1  1  0.00000000  0.25576100  0.00000000  1
  Yb  Yb2  1  0.25576100  0.00000000  0.75000000  1
  Yb  Yb3  1  0.74423900  0.00000000  0.25000000  1
  Ti  Ti0  1  0.00000000  0.75842300  0.00000000  1
  Ti  Ti1  1  0.24157700  0.00000000  0.25000000  1
  Ti  Ti2  1  0.75842300  0.00000000  0.75000000  1
  Ti  Ti3  1  0.00000000  0.24157700  0.50000000  1
  Nb  Nb0  1  0.50000000  0.24150600  0.50000000  1
  Nb  Nb1  1  0.50000000  0.75849400  0.00000000  1
  Nb  Nb2  1  0.75849400  0.50000000  0.75000000  1
  Nb  Nb3  1  0.24150600  0.50000000  0.25000000  1
  O  O0  1  0.55462600  0.94668500  0.86873600  1
  O  O1  1  0.76574600  0.75341000  0.67849000  1
  O  O2  1  0.95058300  0.95058300  0.87500000  1
  O  O3  1  0.05331500  0.44537400  0.38126400  1
  O  O4  1  0.04941700  0.04941700  0.37500000  1
  O  O5  1  0.04941700  0.95058300  0.12500000  1
  O  O6  1  0.24659000  0.23425400  0.57151000  1
  O  O7  1  0.24659000  0.76574600  0.92849000  1
  O  O8  1  0.23425400  0.24659000  0.17849000  1
  O  O9  1  0.44537400  0.94668500  0.13126400  1
  O  O10  1  0.44537400  0.05331500  0.36873600  1
  O  O11  1  0.44160400  0.44160400  0.37500000  1
  O  O12  1  0.55839600  0.55839600  0.87500000  1
  O  O13  1  0.55462600  0.05331500  0.63126400  1
  O  O14  1  0.55839600  0.44160400  0.62500000  1
  O  O15  1  0.75341000  0.76574600  0.07151000  1
  O  O16  1  0.76574600  0.24659000  0.82151000  1
  O  O17  1  0.75341000  0.23425400  0.42849000  1
  O  O18  1  0.95058300  0.04941700  0.62500000  1
  O  O19  1  0.94668500  0.44537400  0.61873600  1
  O  O20  1  0.94668500  0.55462600  0.88126400  1
  O  O21  1  0.05331500  0.55462600  0.11873600  1
  O  O22  1  0.23425400  0.75341000  0.32151000  1
  O  O23  1  0.44160400  0.55839600  0.12500000  1
  F  F0  1  0.24280900  0.75719100  0.62500000  1
  F  F1  1  0.75719100  0.24280900  0.12500000  1
  F  F2  1  0.75719100  0.75719100  0.37500000  1
  F  F3  1  0.24280900  0.24280900  0.87500000  1
loop_
_geom_bond_atom_site_label_1
_geom_bond_atom_site_label_2
_geom_bond_distance
_geom_bond_site_symmetry_2
Na0 O11 2.625155 1_555
Na0 O14 2.625155 1_555
Na0 O10 2.655281 1_565
Na0 O13 2.655281 1_565
Na0 O22 2.689933 1_555
Na0 O1 2.689933 1_555
Na1 O23 2.625155 1_555
Na1 O12 2.625155 1_554
Na1 O9 2.655281 1_545
Na1 O0 2.655281 1_544
Na1 O8 2.689933 1_555
Na1 O16 2.689933 1_554
Na2 O11 2.625155 1_555
Na2 O23 2.625155 1_555
Na2 O3 2.655281 1_655
Na2 O21 2.655281 1_655
Na2 O15 2.689933 1_555
Na2 O17 2.689933 1_555
Na3 O14 2.625155 1_555
Na3 O12 2.625155 1_555
Na3 O19 2.655281 1_455
Na3 O20 2.655281 1_455
Na3 O7 2.689933 1_555
Na3 O6 2.689933 1_555
Nb0 O10 1.980733 1_555
Nb0 O13 1.980733 1_555
Nb0 O6 2.001187 1_555
Nb0 O17 2.001187 1_555
Nb0 O11 2.005303 1_555
Nb0 O14 2.005303 1_555
Nb1 O9 1.980733 1_555
Nb1 O0 1.980733 1_554
Nb1 O7 2.001187 1_554
Nb1 O15 2.001187 1_555
Nb1 O23 2.005303 1_555
Nb1 O12 2.005303 1_554
Nb2 O20 1.980733 1_555
Nb2 O19 1.980733 1_555
Nb2 O16 2.001187 1_555
Nb2 O1 2.001187 1_555
Nb2 O12 2.005303 1_555
Nb2 O14 2.005303 1_555
Nb3 O3 1.980733 1_555
Nb3 O21 1.980733 1_555
Nb3 O8 2.001187 1_555
Nb3 O22 2.001187 1_555
Nb3 O23 2.005303 1_555
Nb3 O11 2.005303 1_555
O0 Ti2 1.976400 1_565
O0 Yb2 2.544272 1_565
O1 Ti2 1.954895 1_565
O1 Yb0 2.528315 1_655
O2 Ti2 1.949862 1_565
O2 Ti0 1.949862 1_656
O2 Yb1 2.611803 1_666
O2 Yb2 2.611803 1_665
O3 Ti3 1.976400 1_555
O3 Yb0 2.544272 1_555
O4 Ti1 1.949862 1_555
O4 Ti3 1.949862 1_555
O4 Yb0 2.611803 1_545
O4 Yb3 2.611803 1_455
O5 Ti0 1.949862 1_555
O5 Ti1 1.949862 1_565
O5 Yb3 2.611803 1_465
O5 Yb1 2.611803 1_565
O6 Ti3 1.954895 1_555
O6 Yb2 2.528315 1_555
O7 Ti0 1.954895 1_556
O7 Yb2 2.528315 1_565
O8 Ti1 1.954895 1_555
O8 Yb1 2.528315 1_555
O9 Ti1 1.976400 1_565
O9 Yb3 2.544272 1_565
O10 Ti1 1.976400 1_555
O10 Yb3 2.544272 1_555
O13 Ti2 1.976400 1_555
O13 Yb2 2.544272 1_555
O15 Ti0 1.954895 1_655
O15 Yb3 2.528315 1_565
O16 Ti2 1.954895 1_555
O16 Yb1 2.528315 1_656
O17 Ti3 1.954895 1_655
O17 Yb3 2.528315 1_555
O18 Ti3 1.949862 1_655
O18 Ti2 1.949862 1_555
O18 Yb0 2.611803 1_645
O18 Yb2 2.611803 1_655
O19 Ti3 1.976400 1_655
O19 Yb0 2.544272 1_655
O20 Ti0 1.976400 1_656
O20 Yb1 2.544272 1_656
O21 Ti0 1.976400 1_555
O21 Yb1 2.544272 1_555
O22 Ti1 1.954895 1_565
O22 Yb0 2.528315 1_555
F0 Yb0 2.205288 1_555
F0 Yb2 2.205288 1_565
F0 Na3 2.290375 1_555
F0 Na0 2.290375 1_555
F1 Yb1 2.205288 1_655
F1 Yb3 2.205288 1_555
F1 Na1 2.290375 1_555
F1 Na2 2.290375 1_555
F2 Yb3 2.205288 1_565
F2 Yb0 2.205288 1_655
F2 Na0 2.290375 1_555
F2 Na2 2.290375 1_555
F3 Yb2 2.205288 1_555
F3 Yb1 2.205288 1_556
F3 Na1 2.290375 1_556
F3 Na3 2.290375 1_555
