# generated using pymatgen
data_Si(Bi3O5)5
_symmetry_space_group_name_H-M   'P 1'
_cell_length_a   16.99470418
_cell_length_b   16.99470418
_cell_length_c   16.99470371
_cell_angle_alpha   50.47335506
_cell_angle_beta   50.47335506
_cell_angle_gamma   50.47335294
_symmetry_Int_Tables_number   1
_chemical_formula_structural   Si(Bi3O5)5
_chemical_formula_sum   'Si4 Bi60 O100'
_cell_volume   2690.34624115
_cell_formula_units_Z   4
loop_
 _symmetry_equiv_pos_site_id
 _symmetry_equiv_pos_as_xyz
  1  'x, y, z'
loop_
 _atom_site_type_symbol
 _atom_site_label
 _atom_site_symmetry_multiplicity
 _atom_site_fract_x
 _atom_site_fract_y
 _atom_site_fract_z
 _atom_site_occupancy
  Si  Si0  1  0.79966900  0.79966900  0.79966900  1
  Si  Si1  1  0.60015200  0.60015200  0.60015200  1
  Si  Si2  1  0.40001100  0.40001100  0.40001100  1
  Si  Si3  1  0.20027800  0.20027800  0.20027800  1
  Bi  Bi0  1  0.91152700  0.71962100  0.57502400  1
  Bi  Bi1  1  0.97027100  0.79895400  0.28289400  1
  Bi  Bi2  1  0.81553300  0.51198400  0.67725900  1
  Bi  Bi3  1  0.89390300  0.56064600  0.39547700  1
  Bi  Bi4  1  0.92107400  0.78705600  0.09940900  1
  Bi  Bi5  1  0.81155700  0.31102900  0.61672800  1
  Bi  Bi6  1  0.99599700  0.49653200  0.15950000  1
  Bi  Bi7  1  0.71275800  0.51926700  0.37798200  1
  Bi  Bi8  1  0.87266800  0.01595100  0.71279400  1
  Bi  Bi9  1  0.91610700  0.21396500  0.40683800  1
  Bi  Bi10  1  0.75730700  0.59926500  0.09176800  1
  Bi  Bi11  1  0.97849200  0.31151100  0.11636700  1
  Bi  Bi12  1  0.61662400  0.31420200  0.47442800  1
  Bi  Bi13  1  0.81642100  0.00953900  0.50957300  1
  Bi  Bi14  1  0.69134400  0.36002400  0.20054400  1
  Bi  Bi15  1  0.71962100  0.57502400  0.91152700  1
  Bi  Bi16  1  0.90593200  0.07774100  0.21099600  1
  Bi  Bi17  1  0.60533600  0.11397000  0.41758100  1
  Bi  Bi18  1  0.79895400  0.28289400  0.97027100  1
  Bi  Bi19  1  0.50963700  0.32170700  0.17796200  1
  Bi  Bi20  1  0.67725900  0.81553300  0.51198400  1
  Bi  Bi21  1  0.71855800  0.02417400  0.20246800  1
  Bi  Bi22  1  0.56064600  0.39547700  0.89390300  1
  Bi  Bi23  1  0.78705600  0.09940900  0.92107400  1
  Bi  Bi24  1  0.41824100  0.11367200  0.27393300  1
  Bi  Bi25  1  0.61672800  0.81155700  0.31102900  1
  Bi  Bi26  1  0.49653200  0.15950000  0.99599700  1
  Bi  Bi27  1  0.51926700  0.37798200  0.71275800  1
  Bi  Bi28  1  0.71279400  0.87266800  0.01595100  1
  Bi  Bi29  1  0.40683800  0.91610700  0.21396500  1
  Bi  Bi30  1  0.59926500  0.09176800  0.75730700  1
  Bi  Bi31  1  0.31151100  0.11636700  0.97849200  1
  Bi  Bi32  1  0.47442800  0.61662400  0.31420200  1
  Bi  Bi33  1  0.50957300  0.81642100  0.00953900  1
  Bi  Bi34  1  0.36002400  0.20054400  0.69134400  1
  Bi  Bi35  1  0.57502400  0.91152700  0.71962100  1
  Bi  Bi36  1  0.21099600  0.90593200  0.07774100  1
  Bi  Bi37  1  0.41758100  0.60533600  0.11397000  1
  Bi  Bi38  1  0.28289400  0.97027100  0.79895400  1
  Bi  Bi39  1  0.32170700  0.17796200  0.50963700  1
  Bi  Bi40  1  0.51198400  0.67725900  0.81553300  1
  Bi  Bi41  1  0.20246800  0.71855800  0.02417400  1
  Bi  Bi42  1  0.39547700  0.89390300  0.56064600  1
  Bi  Bi43  1  0.09940900  0.92107400  0.78705600  1
  Bi  Bi44  1  0.27393300  0.41824100  0.11367200  1
  Bi  Bi45  1  0.31102900  0.61672800  0.81155700  1
  Bi  Bi46  1  0.15950000  0.99599700  0.49653200  1
  Bi  Bi47  1  0.37798200  0.71275800  0.51926700  1
  Bi  Bi48  1  0.01595100  0.71279400  0.87266800  1
  Bi  Bi49  1  0.21396500  0.40683800  0.91610700  1
  Bi  Bi50  1  0.09176800  0.75730700  0.59926500  1
  Bi  Bi51  1  0.11636700  0.97849200  0.31151100  1
  Bi  Bi52  1  0.31420200  0.47442800  0.61662400  1
  Bi  Bi53  1  0.00953900  0.50957300  0.81642100  1
  Bi  Bi54  1  0.20054400  0.69134400  0.36002400  1
  Bi  Bi55  1  0.07774100  0.21099600  0.90593200  1
  Bi  Bi56  1  0.11397000  0.41758100  0.60533600  1
  Bi  Bi57  1  0.17796200  0.50963700  0.32170700  1
  Bi  Bi58  1  0.02417400  0.20246800  0.71855800  1
  Bi  Bi59  1  0.11367200  0.27393300  0.41824100  1
  O  O0  1  0.94556900  0.94556900  0.94556900  1
  O  O1  1  0.87693300  0.87693300  0.87693300  1
  O  O2  1  0.87431200  0.68715300  0.87577600  1
  O  O3  1  0.87577600  0.87431200  0.68715300  1
  O  O4  1  0.76218400  0.76218400  0.76218400  1
  O  O5  1  0.91507400  0.55704900  0.67660900  1
  O  O6  1  0.98506600  0.34523000  0.72329100  1
  O  O7  1  0.84970300  0.72727400  0.46730200  1
  O  O8  1  0.67927200  0.67927200  0.67927200  1
  O  O9  1  0.85099400  0.22354800  0.85087300  1
  O  O10  1  0.85087300  0.85099400  0.22354800  1
  O  O11  1  0.94556900  0.32409700  0.58412400  1
  O  O12  1  0.67478700  0.48726200  0.67576800  1
  O  O13  1  0.67576800  0.67478700  0.48726200  1
  O  O14  1  0.87107200  0.63251500  0.25123500  1
  O  O15  1  0.87648800  0.11507300  0.75464700  1
  O  O16  1  0.83776400  0.44127400  0.44201600  1
  O  O17  1  0.56256300  0.56256300  0.56256300  1
  O  O18  1  0.92582200  0.18438600  0.54217100  1
  O  O19  1  0.92661700  0.66980100  0.04563400  1
  O  O20  1  0.85264100  0.47112100  0.23326600  1
  O  O21  1  0.71384600  0.35747300  0.47729500  1
  O  O22  1  0.78515900  0.14232000  0.52482900  1
  O  O23  1  0.64757700  0.52665600  0.26715500  1
  O  O24  1  0.47905500  0.47905500  0.47905500  1
  O  O25  1  0.83305300  0.45351700  0.06918100  1
  O  O26  1  0.95407600  0.07818300  0.31595700  1
  O  O27  1  0.64127700  0.03785700  0.64052700  1
  O  O28  1  0.64052700  0.64127700  0.03785700  1
  O  O29  1  0.74068200  0.12703200  0.38367600  1
  O  O30  1  0.86648400  0.25000900  0.12786700  1
  O  O31  1  0.47474800  0.28734000  0.47552400  1
  O  O32  1  0.47552400  0.47474800  0.28734000  1
  O  O33  1  0.66931200  0.43141700  0.05544800  1
  O  O34  1  0.67660900  0.91507400  0.55704900  1
  O  O35  1  0.63106500  0.24593200  0.24599000  1
  O  O36  1  0.36235500  0.36235500  0.36235500  1
  O  O37  1  0.72329100  0.98506600  0.34523000  1
  O  O38  1  0.72727400  0.46730200  0.84970300  1
  O  O39  1  0.83753300  0.10865500  0.10826200  1
  O  O40  1  0.65003700  0.27214700  0.03359000  1
  O  O41  1  0.51520200  0.15832100  0.27732800  1
  O  O42  1  0.58412400  0.94556900  0.32409700  1
  O  O43  1  0.44694400  0.32734800  0.06827700  1
  O  O44  1  0.27971800  0.27971800  0.27971800  1
  O  O45  1  0.63251500  0.25123500  0.87107200  1
  O  O46  1  0.75464700  0.87648800  0.11507300  1
  O  O47  1  0.44201600  0.83776400  0.44127400  1
  O  O48  1  0.44127400  0.44201600  0.83776400  1
  O  O49  1  0.54217100  0.92582200  0.18438600  1
  O  O50  1  0.66980100  0.04563400  0.92661700  1
  O  O51  1  0.27671500  0.08718400  0.27376100  1
  O  O52  1  0.27376100  0.27671500  0.08718400  1
  O  O53  1  0.47112100  0.23326600  0.85264100  1
  O  O54  1  0.47729500  0.71384600  0.35747300  1
  O  O55  1  0.43873700  0.04198100  0.04066300  1
  O  O56  1  0.16243500  0.16243500  0.16243500  1
  O  O57  1  0.52482900  0.78515900  0.14232000  1
  O  O58  1  0.52665600  0.26715500  0.64757700  1
  O  O59  1  0.68715300  0.87577600  0.87431200  1
  O  O60  1  0.45351700  0.06918100  0.83305300  1
  O  O61  1  0.31595700  0.95407600  0.07818300  1
  O  O62  1  0.38367600  0.74068200  0.12703200  1
  O  O63  1  0.25000900  0.12786700  0.86648400  1
  O  O64  1  0.07462800  0.07462800  0.07462800  1
  O  O65  1  0.43141700  0.05544800  0.66931200  1
  O  O66  1  0.55704900  0.67660900  0.91507400  1
  O  O67  1  0.24599000  0.63106500  0.24593200  1
  O  O68  1  0.24593200  0.24599000  0.63106500  1
  O  O69  1  0.34523000  0.72329100  0.98506600  1
  O  O70  1  0.46730200  0.84970300  0.72727400  1
  O  O71  1  0.10826200  0.83753300  0.10865500  1
  O  O72  1  0.10865500  0.10826200  0.83753300  1
  O  O73  1  0.27214700  0.03359000  0.65003700  1
  O  O74  1  0.27732800  0.51520200  0.15832100  1
  O  O75  1  0.22354800  0.85087300  0.85099400  1
  O  O76  1  0.32409700  0.58412400  0.94556900  1
  O  O77  1  0.32734800  0.06827700  0.44694400  1
  O  O78  1  0.48726200  0.67576800  0.67478700  1
  O  O79  1  0.25123500  0.87107200  0.63251500  1
  O  O80  1  0.11507300  0.75464700  0.87648800  1
  O  O81  1  0.18438600  0.54217100  0.92582200  1
  O  O82  1  0.04563400  0.92661700  0.66980100  1
  O  O83  1  0.23326600  0.85264100  0.47112100  1
  O  O84  1  0.35747300  0.47729500  0.71384600  1
  O  O85  1  0.04066300  0.43873700  0.04198100  1
  O  O86  1  0.04198100  0.04066300  0.43873700  1
  O  O87  1  0.14232000  0.52482900  0.78515900  1
  O  O88  1  0.26715500  0.64757700  0.52665600  1
  O  O89  1  0.06918100  0.83305300  0.45351700  1
  O  O90  1  0.07818300  0.31595700  0.95407600  1
  O  O91  1  0.03785700  0.64052700  0.64127700  1
  O  O92  1  0.12703200  0.38367600  0.74068200  1
  O  O93  1  0.12786700  0.86648400  0.25000900  1
  O  O94  1  0.28734000  0.47552400  0.47474800  1
  O  O95  1  0.05544800  0.66931200  0.43141700  1
  O  O96  1  0.03359000  0.65003700  0.27214700  1
  O  O97  1  0.15832100  0.27732800  0.51520200  1
  O  O98  1  0.06827700  0.44694400  0.32734800  1
  O  O99  1  0.08718400  0.27376100  0.27671500  1
loop_
_geom_bond_atom_site_label_1
_geom_bond_atom_site_label_2
_geom_bond_distance
_geom_bond_site_symmetry_2
Bi0 O5 2.113436 1_555
Bi0 O95 2.250709 1_655
Bi0 O91 2.271805 1_655
Bi0 O7 2.538436 1_555
Bi0 O4 2.719922 1_555
Bi1 O96 2.113757 1_655
Bi1 O10 2.258778 1_555
Bi1 O71 2.311832 1_655
Bi1 O7 2.376558 1_555
Bi1 O95 2.614057 1_655
Bi2 O38 2.106403 1_555
Bi2 O5 2.250109 1_555
Bi2 O8 2.255943 1_555
Bi2 O6 2.568707 1_555
Bi2 O12 2.695998 1_555
Bi3 O14 2.108995 1_555
Bi3 O98 2.246754 1_655
Bi3 O16 2.261014 1_555
Bi3 O96 2.557468 1_655
Bi3 O13 2.697485 1_555
Bi4 O46 2.113154 1_555
Bi4 O10 2.262517 1_555
Bi4 O0 2.311466 1_554
Bi4 O14 2.387812 1_555
Bi4 O19 2.604710 1_555
Bi5 O11 2.103380 1_555
Bi5 O18 2.242322 1_555
Bi5 O16 2.262709 1_555
Bi5 O15 2.545746 1_555
Bi5 O12 2.715694 1_555
Bi6 O20 2.110944 1_555
Bi6 O19 2.244466 1_555
Bi6 O85 2.268909 1_655
Bi6 O14 2.531069 1_555
Bi6 O99 2.750418 1_655
Bi7 O21 2.115972 1_555
Bi7 O16 2.230885 1_555
Bi7 O20 2.238985 1_555
Bi7 O23 2.639677 1_555
Bi7 O17 2.693014 1_555
Bi8 O82 2.115915 1_645
Bi8 O1 2.240299 1_545
Bi8 O15 2.251878 1_555
Bi8 O18 2.609608 1_555
Bi8 O3 2.670372 1_545
Bi9 O18 2.115601 1_555
Bi9 O86 2.229023 1_655
Bi9 O22 2.262090 1_555
Bi9 O21 2.646626 1_555
Bi9 O99 2.663158 1_655
Bi10 O25 2.112434 1_555
Bi10 O28 2.228496 1_555
Bi10 O23 2.248731 1_555
Bi10 O20 2.636739 1_555
Bi10 O2 2.677680 1_554
Bi11 O90 2.105451 1_654
Bi11 O25 2.245745 1_555
Bi11 O85 2.262291 1_655
Bi11 O30 2.559899 1_555
Bi11 O56 2.704316 1_655
Bi12 O58 2.114341 1_555
Bi12 O21 2.228852 1_555
Bi12 O24 2.242835 1_555
Bi12 O22 2.599702 1_555
Bi12 O31 2.712090 1_555
Bi13 O22 2.117771 1_555
Bi13 O29 2.240008 1_555
Bi13 O27 2.269862 1_555
Bi13 O26 2.539759 1_555
Bi13 O3 2.739130 1_545
Bi14 O33 2.116959 1_555
Bi14 O35 2.240663 1_555
Bi14 O30 2.248758 1_555
Bi14 O25 2.611599 1_555
Bi14 O32 2.664880 1_555
Bi15 O66 2.113436 1_555
Bi15 O33 2.250709 1_556
Bi15 O28 2.271805 1_556
Bi15 O38 2.538436 1_555
Bi15 O4 2.719922 1_555
Bi16 O30 2.111643 1_555
Bi16 O64 2.258061 1_655
Bi16 O39 2.305193 1_555
Bi16 O26 2.394573 1_555
Bi16 O29 2.616290 1_555
Bi17 O29 2.114744 1_555
Bi17 O35 2.241708 1_555
Bi17 O37 2.242962 1_545
Bi17 O34 2.599153 1_545
Bi17 O31 2.676609 1_555
Bi18 O40 2.113757 1_556
Bi18 O9 2.258778 1_555
Bi18 O39 2.311832 1_556
Bi18 O38 2.376558 1_555
Bi18 O33 2.614057 1_556
Bi19 O41 2.114522 1_555
Bi19 O35 2.238892 1_555
Bi19 O40 2.245698 1_555
Bi19 O43 2.605693 1_555
Bi19 O36 2.670750 1_555
Bi20 O7 2.106403 1_555
Bi20 O34 2.250109 1_555
Bi20 O8 2.255943 1_555
Bi20 O37 2.568707 1_555
Bi20 O13 2.695998 1_555
Bi21 O37 2.112453 1_545
Bi21 O10 2.259683 1_545
Bi21 O39 2.315511 1_555
Bi21 O42 2.373984 1_545
Bi21 O41 2.612704 1_555
Bi22 O45 2.108995 1_555
Bi22 O43 2.246754 1_556
Bi22 O48 2.261014 1_555
Bi22 O40 2.557468 1_556
Bi22 O12 2.697485 1_555
Bi23 O15 2.113154 1_555
Bi23 O9 2.262518 1_555
Bi23 O0 2.311466 1_545
Bi23 O45 2.387812 1_555
Bi23 O50 2.604710 1_555
Bi24 O77 2.115382 1_555
Bi24 O41 2.250049 1_555
Bi24 O44 2.262174 1_555
Bi24 O42 2.558018 1_545
Bi24 O51 2.715949 1_555
Bi25 O42 2.103380 1_555
Bi25 O49 2.242322 1_555
Bi25 O47 2.262709 1_555
Bi25 O46 2.545746 1_555
Bi25 O13 2.715694 1_555
Bi26 O53 2.110944 1_555
Bi26 O50 2.244466 1_555
Bi26 O55 2.268909 1_556
Bi26 O45 2.531069 1_555
Bi26 O52 2.750418 1_556
Bi27 O84 2.115972 1_555
Bi27 O48 2.230885 1_555
Bi27 O53 2.238985 1_555
Bi27 O58 2.639677 1_555
Bi27 O17 2.693014 1_555
Bi28 O50 2.115915 1_564
Bi28 O1 2.240299 1_554
Bi28 O46 2.251878 1_555
Bi28 O49 2.609608 1_555
Bi28 O59 2.670372 1_554
Bi29 O49 2.115601 1_555
Bi29 O55 2.229023 1_565
Bi29 O57 2.262090 1_555
Bi29 O54 2.646626 1_555
Bi29 O51 2.663158 1_565
Bi30 O60 2.112435 1_555
Bi30 O27 2.228496 1_555
Bi30 O58 2.248731 1_555
Bi30 O53 2.636739 1_555
Bi30 O59 2.677680 1_545
Bi31 O61 2.105451 1_546
Bi31 O60 2.245745 1_555
Bi31 O55 2.262290 1_556
Bi31 O63 2.559899 1_555
Bi31 O56 2.704316 1_556
Bi32 O23 2.114341 1_555
Bi32 O54 2.228852 1_555
Bi32 O24 2.242835 1_555
Bi32 O57 2.599702 1_555
Bi32 O32 2.712090 1_555
Bi33 O57 2.117771 1_555
Bi33 O62 2.240008 1_555
Bi33 O28 2.269862 1_555
Bi33 O61 2.539759 1_555
Bi33 O59 2.739130 1_554
Bi34 O65 2.116959 1_555
Bi34 O68 2.240663 1_555
Bi34 O63 2.248758 1_555
Bi34 O60 2.611599 1_555
Bi34 O31 2.664880 1_555
Bi35 O34 2.113436 1_555
Bi35 O65 2.250709 1_565
Bi35 O27 2.271805 1_565
Bi35 O70 2.538436 1_555
Bi35 O4 2.719922 1_555
Bi36 O93 2.111643 1_555
Bi36 O64 2.258061 1_565
Bi36 O71 2.305193 1_555
Bi36 O61 2.394573 1_555
Bi36 O62 2.616289 1_555
Bi37 O62 2.114744 1_555
Bi37 O67 2.241708 1_555
Bi37 O69 2.242962 1_554
Bi37 O66 2.599153 1_554
Bi37 O32 2.676609 1_555
Bi38 O73 2.113757 1_565
Bi38 O75 2.258778 1_555
Bi38 O72 2.311832 1_565
Bi38 O70 2.376558 1_555
Bi38 O65 2.614058 1_565
Bi39 O97 2.114522 1_555
Bi39 O68 2.238892 1_555
Bi39 O73 2.245698 1_555
Bi39 O77 2.605694 1_555
Bi39 O36 2.670750 1_555
Bi40 O70 2.106403 1_555
Bi40 O66 2.250109 1_555
Bi40 O8 2.255943 1_555
Bi40 O69 2.568707 1_555
Bi40 O78 2.695998 1_555
Bi41 O69 2.112453 1_554
Bi41 O75 2.259683 1_554
Bi41 O71 2.315511 1_555
Bi41 O76 2.373984 1_554
Bi41 O74 2.612704 1_555
Bi42 O79 2.108995 1_555
Bi42 O77 2.246754 1_565
Bi42 O47 2.261014 1_555
Bi42 O73 2.557468 1_565
Bi42 O78 2.697485 1_555
Bi43 O80 2.113154 1_555
Bi43 O75 2.262517 1_555
Bi43 O0 2.311466 1_455
Bi43 O79 2.387812 1_555
Bi43 O82 2.604710 1_555
Bi44 O43 2.115382 1_555
Bi44 O74 2.250049 1_555
Bi44 O44 2.262174 1_555
Bi44 O76 2.558018 1_554
Bi44 O52 2.715949 1_555
Bi45 O76 2.103380 1_555
Bi45 O81 2.242322 1_555
Bi45 O48 2.262709 1_555
Bi45 O80 2.545746 1_555
Bi45 O78 2.715694 1_555
Bi46 O83 2.110944 1_555
Bi46 O82 2.244466 1_555
Bi46 O86 2.268909 1_565
Bi46 O79 2.531069 1_555
Bi46 O51 2.750418 1_565
Bi47 O54 2.115972 1_555
Bi47 O47 2.230885 1_555
Bi47 O83 2.238985 1_555
Bi47 O88 2.639677 1_555
Bi47 O17 2.693014 1_555
Bi48 O19 2.115915 1_456
Bi48 O1 2.240299 1_455
Bi48 O80 2.251878 1_555
Bi48 O81 2.609608 1_555
Bi48 O2 2.670372 1_455
Bi49 O81 2.115601 1_555
Bi49 O85 2.229023 1_556
Bi49 O87 2.262090 1_555
Bi49 O84 2.646626 1_555
Bi49 O52 2.663158 1_556
Bi50 O89 2.112434 1_555
Bi50 O91 2.228496 1_555
Bi50 O88 2.248731 1_555
Bi50 O83 2.636739 1_555
Bi50 O3 2.677680 1_455
Bi51 O26 2.105451 1_465
Bi51 O89 2.245745 1_555
Bi51 O86 2.262290 1_565
Bi51 O93 2.559899 1_555
Bi51 O56 2.704316 1_565
Bi52 O88 2.114341 1_555
Bi52 O84 2.228852 1_555
Bi52 O24 2.242835 1_555
Bi52 O87 2.599702 1_555
Bi52 O94 2.712090 1_555
Bi53 O87 2.117771 1_555
Bi53 O92 2.240008 1_555
Bi53 O91 2.269862 1_555
Bi53 O90 2.539759 1_555
Bi53 O2 2.739130 1_455
Bi54 O95 2.116959 1_555
Bi54 O67 2.240662 1_555
Bi54 O93 2.248758 1_555
Bi54 O89 2.611599 1_555
Bi54 O94 2.664880 1_555
Bi55 O63 2.111643 1_555
Bi55 O64 2.258061 1_556
Bi55 O72 2.305193 1_555
Bi55 O90 2.394573 1_555
Bi55 O92 2.616290 1_555
Bi56 O92 2.114744 1_555
Bi56 O68 2.241708 1_555
Bi56 O6 2.242962 1_455
Bi56 O5 2.599153 1_455
Bi56 O94 2.676609 1_555
Bi57 O74 2.114522 1_555
Bi57 O67 2.238892 1_555
Bi57 O96 2.245698 1_555
Bi57 O98 2.605694 1_555
Bi57 O36 2.670750 1_555
Bi58 O6 2.112453 1_455
Bi58 O9 2.259683 1_455
Bi58 O72 2.315511 1_555
Bi58 O11 2.373984 1_455
Bi58 O97 2.612704 1_555
Bi59 O98 2.115382 1_555
Bi59 O97 2.250049 1_555
Bi59 O44 2.262174 1_555
Bi59 O11 2.558018 1_455
Bi59 O99 2.715949 1_555
O2 Si0 1.670718 1_555
O3 Si0 1.670718 1_555
O4 Si0 1.663487 1_555
O12 Si1 1.667355 1_555
O13 Si1 1.667355 1_555
O17 Si1 1.668102 1_555
O31 Si2 1.666690 1_555
O32 Si2 1.666690 1_555
O36 Si2 1.671076 1_555
O51 Si3 1.665176 1_555
O52 Si3 1.665176 1_555
O56 Si3 1.679374 1_555
O59 Si0 1.670718 1_555
O78 Si1 1.667355 1_555
O94 Si2 1.666690 1_555
O99 Si3 1.665176 1_555
