# generated using pymatgen
data_LaTlGeSe4
_symmetry_space_group_name_H-M   'P 1'
_cell_length_a   7.23016800
_cell_length_b   11.61422516
_cell_length_c   19.57560597
_cell_angle_alpha   90.14592715
_cell_angle_beta   90.12051507
_cell_angle_gamma   90.09558653
_symmetry_Int_Tables_number   1
_chemical_formula_structural   LaTlGeSe4
_chemical_formula_sum   'La8 Tl8 Ge8 Se32'
_cell_volume   1643.80715755
_cell_formula_units_Z   8
loop_
 _symmetry_equiv_pos_site_id
 _symmetry_equiv_pos_as_xyz
  1  'x, y, z'
loop_
 _atom_site_type_symbol
 _atom_site_label
 _atom_site_symmetry_multiplicity
 _atom_site_fract_x
 _atom_site_fract_y
 _atom_site_fract_z
 _atom_site_occupancy
  La  La0  1  0.77325300  0.39211400  0.43378700  1
  La  La1  1  0.26991300  0.60663600  0.06454900  1
  La  La2  1  0.77028700  0.89246100  0.06647200  1
  La  La3  1  0.22515600  0.10577700  0.93343000  1
  La  La4  1  0.72981200  0.89212800  0.56563400  1
  La  La5  1  0.72584600  0.39096600  0.93398900  1
  La  La6  1  0.22838500  0.60774600  0.56683900  1
  La  La7  1  0.27277500  0.10668400  0.43564700  1
  Tl  Tl0  1  0.32599700  0.25793900  0.19839200  1
  Tl  Tl1  1  0.16547000  0.75421000  0.80333000  1
  Tl  Tl2  1  0.66400900  0.74369200  0.80176600  1
  Tl  Tl3  1  0.82709400  0.74238200  0.30153800  1
  Tl  Tl4  1  0.17377200  0.25559900  0.69665300  1
  Tl  Tl5  1  0.33316900  0.75524500  0.30259600  1
  Tl  Tl6  1  0.82423900  0.24388900  0.19809000  1
  Tl  Tl7  1  0.67438500  0.24344500  0.69701100  1
  Ge  Ge0  1  0.28259700  0.94458800  0.11170700  1
  Ge  Ge1  1  0.71336900  0.05369200  0.88726900  1
  Ge  Ge2  1  0.21670400  0.94488700  0.61409400  1
  Ge  Ge3  1  0.21497800  0.44261000  0.88681300  1
  Ge  Ge4  1  0.28465500  0.44360200  0.38837800  1
  Ge  Ge5  1  0.78403500  0.05435900  0.38834800  1
  Ge  Ge6  1  0.78280900  0.55508500  0.11260400  1
  Ge  Ge7  1  0.71540700  0.55650800  0.61194700  1
  Se  Se0  1  0.53315000  0.49839800  0.31668900  1
  Se  Se1  1  0.53350400  0.00074700  0.18250800  1
  Se  Se2  1  0.87718100  0.14097400  0.49547000  1
  Se  Se3  1  0.61969500  0.13983700  0.99387500  1
  Se  Se4  1  0.40391700  0.29395200  0.84044300  1
  Se  Se5  1  0.12390100  0.86084000  0.50616400  1
  Se  Se6  1  0.87532100  0.63977200  0.00535600  1
  Se  Se7  1  0.56906900  0.40530300  0.08255200  1
  Se  Se8  1  0.09394500  0.79568400  0.15862100  1
  Se  Se9  1  0.43117300  0.09412900  0.58434700  1
  Se  Se10  1  0.03540600  0.50002200  0.18324500  1
  Se  Se11  1  0.38023000  0.35896400  0.49516300  1
  Se  Se12  1  0.92591200  0.90377500  0.91731200  1
  Se  Se13  1  0.46240900  0.99572600  0.81690300  1
  Se  Se14  1  0.03512900  0.99641800  0.31841600  1
  Se  Se15  1  0.59378800  0.20154100  0.34150900  1
  Se  Se16  1  0.06967700  0.09470200  0.08258700  1
  Se  Se17  1  0.90343700  0.20223200  0.84092100  1
  Se  Se18  1  0.07427500  0.59493700  0.41734900  1
  Se  Se19  1  0.96290200  0.49926900  0.81687700  1
  Se  Se20  1  0.62147800  0.64081700  0.50470700  1
  Se  Se21  1  0.92848000  0.40729500  0.58273100  1
  Se  Se22  1  0.96569900  0.00089100  0.68403500  1
  Se  Se23  1  0.40862600  0.79682600  0.65932600  1
  Se  Se24  1  0.57034100  0.90506600  0.41756600  1
  Se  Se25  1  0.46773500  0.49970300  0.68338000  1
  Se  Se26  1  0.90705700  0.70471600  0.65922600  1
  Se  Se27  1  0.12139900  0.35799600  0.99416300  1
  Se  Se28  1  0.09355400  0.29436900  0.34207400  1
  Se  Se29  1  0.59099800  0.70213600  0.15844000  1
  Se  Se30  1  0.42913400  0.59198200  0.91620200  1
  Se  Se31  1  0.37590300  0.85896100  0.00470200  1
loop_
_geom_bond_atom_site_label_1
_geom_bond_atom_site_label_2
_geom_bond_distance
_geom_bond_site_symmetry_2
La0 Se11 3.111214 1_555
La0 Se21 3.126462 1_555
La0 Se0 3.129968 1_555
La0 Se15 3.131435 1_555
La0 Se28 3.144986 1_655
La0 Se18 3.221667 1_655
La0 Se2 3.248350 1_555
La0 Se20 3.386964 1_555
La1 Se6 3.101972 1_455
La1 Se30 3.130420 1_554
La1 Se8 3.135174 1_555
La1 Se10 3.135463 1_555
La1 Se29 3.156075 1_555
La1 Se7 3.207520 1_555
La1 Se31 3.249879 1_555
La1 Se27 3.369540 1_554
La2 Se1 3.111458 1_565
La2 Se31 3.118292 1_555
La2 Se12 3.134392 1_554
La2 Se29 3.135010 1_555
La2 Se8 3.161445 1_655
La2 Se16 3.206052 1_665
La2 Se6 3.257973 1_555
La2 Se3 3.388868 1_564
La3 Se3 3.110216 1_555
La3 Se4 3.127470 1_555
La3 Se13 3.128657 1_545
La3 Se16 3.133836 1_556
La3 Se17 3.153785 1_455
La3 Se12 3.203317 1_445
La3 Se27 3.248158 1_555
La3 Se31 3.372857 1_546
La4 Se5 3.101815 1_655
La4 Se24 3.121242 1_555
La4 Se26 3.123534 1_555
La4 Se22 3.136517 1_565
La4 Se23 3.162500 1_555
La4 Se9 3.211907 1_565
La4 Se20 3.244381 1_555
La4 Se2 3.375040 1_565
La5 Se27 3.115296 1_655
La5 Se17 3.125959 1_555
La5 Se7 3.127671 1_556
La5 Se19 3.130431 1_555
La5 Se4 3.162823 1_555
La5 Se30 3.192449 1_555
La5 Se3 3.237905 1_555
La5 Se6 3.381227 1_556
La6 Se20 3.117341 1_555
La6 Se23 3.123923 1_555
La6 Se25 3.127173 1_555
La6 Se18 3.132211 1_555
La6 Se26 3.154795 1_455
La6 Se21 3.195033 1_455
La6 Se5 3.262432 1_555
La6 Se11 3.393981 1_555
La7 Se2 3.118707 1_455
La7 Se9 3.129671 1_555
La7 Se28 3.131416 1_555
La7 Se14 3.133668 1_545
La7 Se15 3.164871 1_555
La7 Se24 3.202043 1_545
La7 Se11 3.243038 1_555
La7 Se5 3.351549 1_545
Ge0 Se1 2.370268 1_565
Ge0 Se8 2.387507 1_555
Ge0 Se16 2.396835 1_565
Ge0 Se31 2.414417 1_555
Ge1 Se13 2.371426 1_545
Ge1 Se17 2.386045 1_555
Ge1 Se12 2.397791 1_545
Ge1 Se3 2.410881 1_555
Ge2 Se22 2.366643 1_465
Ge2 Se23 2.382676 1_555
Ge2 Se9 2.397499 1_565
Ge2 Se5 2.418329 1_555
Ge3 Se19 2.372149 1_455
Ge3 Se4 2.382467 1_555
Ge3 Se30 2.391725 1_555
Ge3 Se27 2.419476 1_555
Ge4 Se0 2.369337 1_555
Ge4 Se28 2.390292 1_555
Ge4 Se18 2.394178 1_555
Ge4 Se11 2.412501 1_555
Ge5 Se14 2.373311 1_645
Ge5 Se15 2.380199 1_555
Ge5 Se24 2.391781 1_545
Ge5 Se2 2.417414 1_555
Ge6 Se29 2.377093 1_555
Ge6 Se10 2.377907 1_655
Ge6 Se7 2.396346 1_555
Ge6 Se6 2.415929 1_555
Ge7 Se25 2.368241 1_555
Ge7 Se21 2.389818 1_555
Ge7 Se26 2.391258 1_555
Ge7 Se20 2.415307 1_555
Se0 Tl5 3.329022 1_555
Se1 Tl0 3.358940 1_555
Se4 Tl4 3.295705 1_555
Se7 Tl0 3.344639 1_555
Se8 Tl5 3.338341 1_555
Se9 Tl7 3.304197 1_555
Se10 Tl6 3.354989 1_455
Se12 Tl1 3.317007 1_655
Se13 Tl2 3.285182 1_555
Se14 Tl3 3.324868 1_455
Se15 Tl6 3.305184 1_555
Se16 Tl6 3.357196 1_455
Se17 Tl7 3.301183 1_555
Se18 Tl3 3.358424 1_455
Se19 Tl1 3.312661 1_655
Se21 Tl4 3.352085 1_655
Se22 Tl4 3.324946 1_655
Se23 Tl1 3.362643 1_555
Se24 Tl5 3.314725 1_555
Se25 Tl7 3.343468 1_555
Se26 Tl2 3.331006 1_555
Se28 Tl0 3.306162 1_555
Se29 Tl3 3.309052 1_555
Se30 Tl2 3.321577 1_555
