# generated using pymatgen
data_BaLaTiCuO6
_symmetry_space_group_name_H-M   'P 1'
_cell_length_a   3.95741200
_cell_length_b   5.61419300
_cell_length_c   22.26581000
_cell_angle_alpha   90.00000000
_cell_angle_beta   90.00000000
_cell_angle_gamma   90.00000000
_symmetry_Int_Tables_number   1
_chemical_formula_structural   BaLaTiCuO6
_chemical_formula_sum   'Ba4 La4 Ti4 Cu4 O24'
_cell_volume   494.69452459
_cell_formula_units_Z   4
loop_
 _symmetry_equiv_pos_site_id
 _symmetry_equiv_pos_as_xyz
  1  'x, y, z'
loop_
 _atom_site_type_symbol
 _atom_site_label
 _atom_site_symmetry_multiplicity
 _atom_site_fract_x
 _atom_site_fract_y
 _atom_site_fract_z
 _atom_site_occupancy
  Ba  Ba0  1  0.00000000  0.75000000  0.80575700  1
  Ba  Ba1  1  0.00000000  0.25000000  0.93599400  1
  Ba  Ba2  1  0.00000000  0.75000000  0.06400600  1
  Ba  Ba3  1  0.00000000  0.25000000  0.19424300  1
  La  La0  1  0.00000000  0.75000000  0.31903300  1
  La  La1  1  0.00000000  0.25000000  0.43847300  1
  La  La2  1  0.00000000  0.75000000  0.56152700  1
  La  La3  1  0.00000000  0.25000000  0.68096700  1
  Ti  Ti0  1  0.50000000  0.75000000  0.93563100  1
  Ti  Ti1  1  0.50000000  0.25000000  0.80777000  1
  Ti  Ti2  1  0.50000000  0.75000000  0.19223000  1
  Ti  Ti3  1  0.50000000  0.25000000  0.06436900  1
  Cu  Cu0  1  0.50000000  0.75000000  0.43895800  1
  Cu  Cu1  1  0.50000000  0.25000000  0.31711800  1
  Cu  Cu2  1  0.50000000  0.25000000  0.56104200  1
  Cu  Cu3  1  0.50000000  0.75000000  0.68288200  1
  O  O0  1  0.00000000  0.25000000  0.80605800  1
  O  O1  1  0.00000000  0.75000000  0.93587200  1
  O  O2  1  0.00000000  0.25000000  0.06412800  1
  O  O3  1  0.00000000  0.75000000  0.19394200  1
  O  O4  1  0.00000000  0.25000000  0.32311200  1
  O  O5  1  0.00000000  0.75000000  0.43670100  1
  O  O6  1  0.00000000  0.25000000  0.56329900  1
  O  O7  1  0.00000000  0.75000000  0.67688800  1
  O  O8  1  0.50000000  0.50138900  0.87137900  1
  O  O9  1  0.50000000  0.00000000  0.00000000  1
  O  O10  1  0.50000000  0.49861100  0.12862100  1
  O  O11  1  0.50000000  0.98559600  0.25689900  1
  O  O12  1  0.50000000  0.49902500  0.37846600  1
  O  O13  1  0.50000000  0.00000000  0.50000000  1
  O  O14  1  0.50000000  0.50097500  0.62153400  1
  O  O15  1  0.50000000  0.01440400  0.74310100  1
  O  O16  1  0.50000000  0.99861100  0.87137900  1
  O  O17  1  0.50000000  0.50000000  0.00000000  1
  O  O18  1  0.50000000  0.00138900  0.12862100  1
  O  O19  1  0.50000000  0.51440400  0.25689900  1
  O  O20  1  0.50000000  0.00097500  0.37846600  1
  O  O21  1  0.50000000  0.99902500  0.62153400  1
  O  O22  1  0.50000000  0.50000000  0.50000000  1
  O  O23  1  0.50000000  0.48559600  0.74310100  1
loop_
_geom_bond_atom_site_label_1
_geom_bond_atom_site_label_2
_geom_bond_distance
_geom_bond_site_symmetry_2
Ba0 O0 2.807105 1_555
Ba0 O0 2.807105 1_565
Ba0 O16 2.828124 1_455
Ba0 O16 2.828124 1_555
Ba0 O8 2.828124 1_455
Ba0 O8 2.828124 1_555
Ba0 O15 2.839900 1_465
Ba0 O15 2.839900 1_565
Ba0 O23 2.839900 1_455
Ba0 O23 2.839900 1_555
Ba0 O7 2.869373 1_555
Ba0 O1 2.897116 1_555
Ba1 O1 2.807098 1_555
Ba1 O1 2.807098 1_545
Ba1 O17 2.813586 1_556
Ba1 O17 2.813586 1_456
Ba1 O9 2.813586 1_456
Ba1 O9 2.813586 1_556
Ba1 O8 2.824367 1_555
Ba1 O8 2.824367 1_455
Ba1 O16 2.824367 1_545
Ba1 O16 2.824367 1_445
Ba1 O2 2.853007 1_556
Ba1 O0 2.893130 1_555
Ba2 O2 2.807098 1_565
Ba2 O2 2.807098 1_555
Ba2 O9 2.813586 1_465
Ba2 O17 2.813586 1_555
Ba2 O17 2.813586 1_455
Ba2 O9 2.813586 1_565
Ba2 O18 2.824367 1_565
Ba2 O18 2.824367 1_465
Ba2 O10 2.824367 1_455
Ba2 O10 2.824367 1_555
Ba2 O1 2.853007 1_554
Ba2 O3 2.893130 1_555
Ba3 O3 2.807105 1_555
Ba3 O3 2.807105 1_545
Ba3 O10 2.828124 1_455
Ba3 O10 2.828124 1_555
Ba3 O18 2.828124 1_455
Ba3 O18 2.828124 1_555
Ba3 O19 2.839900 1_455
Ba3 O19 2.839900 1_555
Ba3 O11 2.839900 1_445
Ba3 O11 2.839900 1_545
Ba3 O4 2.869373 1_555
Ba3 O2 2.897116 1_555
La0 O5 2.619973 1_555
La0 O11 2.752950 1_455
La0 O11 2.752950 1_555
La0 O19 2.752950 1_455
La0 O19 2.752950 1_555
La0 O20 2.766190 1_565
La0 O20 2.766190 1_465
La0 O12 2.766190 1_555
La0 O12 2.766190 1_455
La0 O3 2.785252 1_555
La0 O4 2.808565 1_555
La0 O4 2.808565 1_565
La1 O4 2.568606 1_555
La1 O12 2.766779 1_555
La1 O20 2.766779 1_455
La1 O20 2.766779 1_555
La1 O12 2.766779 1_455
La1 O6 2.779352 1_555
La1 O22 2.786034 1_455
La1 O13 2.786034 1_555
La1 O13 2.786034 1_455
La1 O22 2.786034 1_555
La1 O5 2.807374 1_555
La1 O5 2.807374 1_545
La2 O7 2.568606 1_555
La2 O21 2.766779 1_555
La2 O21 2.766779 1_455
La2 O14 2.766779 1_555
La2 O14 2.766779 1_455
La2 O5 2.779352 1_555
La2 O13 2.786034 1_565
La2 O13 2.786034 1_465
La2 O22 2.786034 1_455
La2 O22 2.786034 1_555
La2 O6 2.807374 1_565
La2 O6 2.807374 1_555
La3 O6 2.619973 1_555
La3 O23 2.752950 1_455
La3 O23 2.752950 1_555
La3 O15 2.752950 1_455
La3 O15 2.752950 1_555
La3 O14 2.766190 1_455
La3 O14 2.766190 1_555
La3 O21 2.766190 1_445
La3 O21 2.766190 1_545
La3 O0 2.785252 1_555
La3 O7 2.808565 1_545
La3 O7 2.808565 1_555
Cu0 O20 1.949229 1_565
Cu0 O12 1.949229 1_555
Cu0 O22 1.953775 1_555
Cu0 O13 1.953775 1_565
Cu0 O5 1.979344 1_555
Cu0 O5 1.979344 1_655
Cu1 O12 1.954601 1_555
Cu1 O20 1.954601 1_555
Cu1 O4 1.983202 1_555
Cu1 O4 1.983202 1_655
Cu1 O19 2.000325 1_555
Cu1 O11 2.000325 1_545
Cu2 O14 1.949229 1_555
Cu2 O21 1.949229 1_545
Cu2 O13 1.953775 1_555
Cu2 O22 1.953775 1_555
Cu2 O6 1.979344 1_555
Cu2 O6 1.979344 1_655
Cu3 O21 1.954601 1_555
Cu3 O14 1.954601 1_555
Cu3 O7 1.983202 1_655
Cu3 O7 1.983202 1_555
Cu3 O15 2.000325 1_565
Cu3 O23 2.000325 1_555
O0 Ti1 1.979073 1_555
O0 Ti1 1.979073 1_455
O1 Ti0 1.978713 1_555
O1 Ti0 1.978713 1_455
O2 Ti3 1.978713 1_455
O2 Ti3 1.978713 1_555
O3 Ti2 1.979073 1_555
O3 Ti2 1.979073 1_455
O8 Ti0 1.998700 1_555
O8 Ti1 1.999455 1_555
O9 Ti3 2.006013 1_555
O9 Ti0 2.006013 1_544
O10 Ti3 1.998700 1_555
O10 Ti2 1.999455 1_555
O11 Ti2 1.955203 1_555
O15 Ti1 1.955203 1_555
O16 Ti0 1.998700 1_555
O16 Ti1 1.999455 1_565
O17 Ti3 2.006013 1_555
O17 Ti0 2.006013 1_554
O18 Ti3 1.998700 1_555
O18 Ti2 1.999455 1_545
O19 Ti2 1.955203 1_555
O23 Ti1 1.955203 1_555
