# generated using pymatgen
data_KH4F5
_symmetry_space_group_name_H-M   'P 1'
_cell_length_a   7.39562300
_cell_length_b   7.39562300
_cell_length_c   7.39562300
_cell_angle_alpha   124.83221766
_cell_angle_beta   124.83221766
_cell_angle_gamma   81.81612180
_symmetry_Int_Tables_number   1
_chemical_formula_structural   KH4F5
_chemical_formula_sum   'K2 H8 F10'
_cell_volume   262.19164357
_cell_formula_units_Z   2
loop_
 _symmetry_equiv_pos_site_id
 _symmetry_equiv_pos_as_xyz
  1  'x, y, z'
loop_
 _atom_site_type_symbol
 _atom_site_label
 _atom_site_symmetry_multiplicity
 _atom_site_fract_x
 _atom_site_fract_y
 _atom_site_fract_z
 _atom_site_occupancy
  K  K0  1  0.75000000  0.25000000  0.50000000  1
  K  K1  1  0.00000000  0.00000000  0.00000000  1
  H  H0  1  0.15912800  0.94629000  0.60845400  1
  H  H1  1  0.33783500  0.55067400  0.39154600  1
  H  H2  1  0.30067400  0.40912800  0.71283900  1
  H  H3  1  0.69629000  0.58783500  0.28716100  1
  H  H4  1  0.59087200  0.30371000  0.89154600  1
  H  H5  1  0.41216500  0.69932600  0.10845400  1
  H  H6  1  0.44932600  0.84087200  0.78716100  1
  H  H7  1  0.05371000  0.66216500  0.21283900  1
  F  F0  1  0.25000000  0.75000000  0.50000000  1
  F  F1  1  0.50000000  0.50000000  0.00000000  1
  F  F2  1  0.09754700  0.07207400  0.68367700  1
  F  F3  1  0.38839700  0.41387000  0.31632300  1
  F  F4  1  0.16387000  0.34754700  0.52547300  1
  F  F5  1  0.82207400  0.63839700  0.47452700  1
  F  F6  1  0.65245300  0.17792600  0.81632300  1
  F  F7  1  0.36160300  0.83613000  0.18367700  1
  F  F8  1  0.58613000  0.90245300  0.97452700  1
  F  F9  1  0.92792600  0.61160300  0.02547300  1
loop_
_geom_bond_atom_site_label_1
_geom_bond_atom_site_label_2
_geom_bond_distance
_geom_bond_site_symmetry_2
F0 H1 1.486699 1_555
F0 H6 1.486699 1_555
F0 H7 1.486701 1_555
F0 H0 1.486704 1_555
F1 H5 1.486699 1_555
F1 H2 1.486699 1_554
F1 H3 1.486701 1_555
F1 H4 1.486704 1_554
F2 H0 0.979747 1_545
F2 K0 2.697001 1_455
F2 K1 3.120784 1_556
F3 H1 0.979751 1_555
F3 K0 2.697001 1_555
F3 K1 3.120784 1_555
F4 H2 0.979751 1_555
F4 K1 2.697001 1_555
F4 K0 3.120784 1_455
F5 H3 0.979749 1_555
F5 K1 2.697001 1_666
F5 K0 3.120784 1_555
F6 H4 0.979747 1_555
F6 K1 2.697001 1_656
F6 K0 3.120784 1_555
F7 H5 0.979751 1_555
F7 K1 2.697001 1_565
F7 K0 3.120784 1_565
F8 H6 0.979751 1_555
F8 K0 2.697001 1_566
F8 K1 3.120784 1_666
F9 H7 0.979749 1_655
F9 K0 2.697001 1_554
F9 K1 3.120784 1_665
