# generated using pymatgen
data_Li5Ti7In(PO4)12
_symmetry_space_group_name_H-M   'P 1'
_cell_length_a   8.63524300
_cell_length_b   8.65012801
_cell_length_c   14.99834941
_cell_angle_alpha   90.16937383
_cell_angle_beta   106.64950814
_cell_angle_gamma   119.73278782
_symmetry_Int_Tables_number   1
_chemical_formula_structural   Li5Ti7In(PO4)12
_chemical_formula_sum   'Li5 Ti7 In1 P12 O48'
_cell_volume   917.76214629
_cell_formula_units_Z   1
loop_
 _symmetry_equiv_pos_site_id
 _symmetry_equiv_pos_as_xyz
  1  'x, y, z'
loop_
 _atom_site_type_symbol
 _atom_site_label
 _atom_site_symmetry_multiplicity
 _atom_site_fract_x
 _atom_site_fract_y
 _atom_site_fract_z
 _atom_site_occupancy
  Li  Li0  1  0.00445700  0.00957500  0.00035100  1
  Li  Li1  1  0.00157800  0.50175400  0.50068300  1
  Li  Li2  1  0.50036400  0.75121700  0.25011700  1
  Li  Li3  1  0.49297400  0.24365400  0.74534200  1
  Li  Li4  1  0.75102700  0.57022100  0.93056900  1
  Ti  Ti0  1  0.85790800  0.20941600  0.07211600  1
  Ti  Ti1  1  0.64505300  0.53908200  0.18373800  1
  Ti  Ti2  1  0.85766500  0.71120200  0.57043400  1
  Ti  Ti3  1  0.63938600  0.03509900  0.67552600  1
  Ti  Ti4  1  0.35896300  0.96312500  0.32118600  1
  Ti  Ti5  1  0.14149000  0.28709600  0.42862300  1
  Ti  Ti6  1  0.34891800  0.46325400  0.81826600  1
  In  In0  1  0.15060900  0.79199500  0.92922100  1
  P  P0  1  0.25105200  0.27078400  0.23077600  1
  P  P1  1  0.96074400  0.83629400  0.37586400  1
  P  P2  1  0.55400800  0.77229000  0.02318400  1
  P  P3  1  0.45920000  0.72862500  0.47828000  1
  P  P4  1  0.03747200  0.66179900  0.12846800  1
  P  P5  1  0.24711900  0.77109800  0.72335200  1
  P  P6  1  0.74909400  0.22758700  0.27072000  1
  P  P7  1  0.94878600  0.32671100  0.87584700  1
  P  P8  1  0.54009100  0.27105700  0.51961800  1
  P  P9  1  0.46452200  0.23733400  0.98228300  1
  P  P10  1  0.04067700  0.16408500  0.62451100  1
  P  P11  1  0.74378800  0.72793600  0.76823000  1
  O  O0  1  0.80474600  0.18741400  0.18800000  1
  O  O1  1  0.62278000  0.19156100  0.00252100  1
  O  O2  1  0.99669500  0.47014800  0.09803800  1
  O  O3  1  0.69084100  0.36898500  0.25130400  1
  O  O4  1  0.51846400  0.38226200  0.06390900  1
  O  O5  1  0.08622700  0.19496600  0.13638800  1
  O  O6  1  0.88151000  0.64487000  0.16518700  1
  O  O7  1  0.41634500  0.45174200  0.22307700  1
  O  O8  1  0.94324300  0.72974800  0.45843400  1
  O  O9  1  0.80848300  0.68963600  0.68916300  1
  O  O10  1  0.77012300  0.73755900  0.29453200  1
  O  O11  1  0.62556900  0.69506200  0.50085900  1
  O  O12  1  0.57522100  0.70053300  0.11783700  1
  O  O13  1  0.27097600  0.55497800  0.47092200  1
  O  O14  1  0.99995000  0.97178800  0.59757100  1
  O  O15  1  0.68094600  0.86422200  0.74230100  1
  O  O16  1  0.74559400  0.94512100  0.03197300  1
  O  O17  1  0.44305900  0.79987600  0.38377400  1
  O  O18  1  0.50127600  0.86893400  0.55890400  1
  O  O19  1  0.23188100  0.76680200  0.20675500  1
  O  O20  1  0.08433300  0.68493600  0.62731700  1
  O  O21  1  0.87661300  0.15142600  0.65201900  1
  O  O22  1  0.02413000  0.75773300  0.04218000  1
  O  O23  1  0.41327400  0.94682200  0.71135000  1
  O  O24  1  0.58423800  0.04637500  0.27922400  1
  O  O25  1  0.94090000  0.21734000  0.95744000  1
  O  O26  1  0.12585800  0.85049200  0.34788900  1
  O  O27  1  0.91619800  0.30593800  0.36487500  1
  O  O28  1  0.76503900  0.21725900  0.79073300  1
  O  O29  1  0.49882400  0.13276200  0.43747700  1
  O  O30  1  0.55799800  0.20191300  0.61461500  1
  O  O31  1  0.26931200  0.07650400  0.97414200  1
  O  O32  1  0.30603300  0.12631700  0.25167500  1
  O  O33  1  0.00411300  0.02921100  0.40351600  1
  O  O34  1  0.72901500  0.44535800  0.52794800  1
  O  O35  1  0.46594900  0.31801300  0.88924800  1
  O  O36  1  0.37565400  0.30599000  0.49855600  1
  O  O37  1  0.22933300  0.26327300  0.70939100  1
  O  O38  1  0.19403300  0.30969800  0.31294700  1
  O  O39  1  0.05955100  0.27188600  0.54247600  1
  O  O40  1  0.58118000  0.54378800  0.77827700  1
  O  O41  1  0.12585700  0.36150400  0.85012900  1
  O  O42  1  0.89460200  0.80342900  0.86756900  1
  O  O43  1  0.51357900  0.63575700  0.93907300  1
  O  O44  1  0.30421300  0.62710100  0.75057300  1
  O  O45  1  0.96029700  0.50379400  0.90266500  1
  O  O46  1  0.39767400  0.81145100  0.01017800  1
  O  O47  1  0.19132600  0.82393500  0.79926700  1
loop_
_geom_bond_atom_site_label_1
_geom_bond_atom_site_label_2
_geom_bond_distance
_geom_bond_site_symmetry_2
Li0 O25 2.174428 1_454
Li0 O16 2.214820 1_445
Li0 O31 2.218919 1_554
Li0 O42 2.294408 1_444
Li0 O5 2.294592 1_555
Li0 O22 2.341421 1_545
Li1 O20 2.170272 1_555
Li1 O8 2.314015 1_455
Li1 O13 2.314485 1_555
Li1 O34 2.314881 1_455
Li1 O39 2.326396 1_555
Li1 O27 2.332792 1_455
Li2 O17 2.282682 1_555
Li2 O24 2.282927 1_565
Li2 O19 2.294061 1_555
Li2 O10 2.295260 1_555
Li2 O7 2.315696 1_555
Li2 O12 2.357350 1_555
Li3 O30 2.262239 1_555
Li3 O37 2.276579 1_555
Li3 O23 2.316182 1_545
Li3 O40 2.319427 1_555
Li3 O35 2.357114 1_555
Li3 O28 2.377290 1_555
Li4 O42 2.168208 1_555
Li4 O22 2.218611 1_656
Li4 O35 2.234793 1_555
Li4 O40 2.272712 1_555
Li4 O45 2.287541 1_555
Li4 O43 2.417492 1_555
In0 O46 2.052446 1_556
In0 O47 2.073273 1_555
In0 O45 2.151640 1_455
In0 O31 2.157209 1_565
In0 O42 2.190428 1_455
In0 O22 2.212060 1_556
O0 P6 1.547806 1_555
O0 Ti0 1.907972 1_555
O1 P9 1.554418 1_554
O1 Ti0 1.925983 1_555
O2 P4 1.550813 1_655
O2 Ti0 1.928949 1_555
O3 P6 1.536974 1_555
O3 Ti1 1.924693 1_555
O4 P9 1.540234 1_554
O4 Ti1 1.911562 1_555
O5 P0 1.540783 1_555
O5 Ti0 1.997025 1_455
O6 P4 1.538961 1_655
O6 Ti1 1.886185 1_555
O7 P0 1.542787 1_555
O7 Ti1 2.002421 1_555
O8 P1 1.543295 1_555
O8 Ti2 1.997237 1_555
O9 P11 1.545656 1_555
O9 Ti2 1.934671 1_555
O10 P1 1.541336 1_555
O10 Ti1 1.997709 1_555
O11 P3 1.548679 1_555
O11 Ti2 1.910075 1_555
O12 P2 1.550220 1_555
O12 Ti1 1.947550 1_555
O13 P3 1.544268 1_555
O13 Ti5 2.009230 1_555
O14 P10 1.545367 1_665
O14 Ti2 1.927986 1_555
O15 P11 1.533570 1_555
O15 Ti3 1.909344 1_565
O16 P2 1.552412 1_555
O16 Ti0 1.996917 1_565
O17 P3 1.544530 1_555
O17 Ti4 2.009234 1_555
O18 P3 1.539297 1_555
O18 Ti3 1.907147 1_565
O19 P4 1.540655 1_555
O19 Ti4 2.022076 1_555
O20 P5 1.549304 1_555
O20 Ti2 2.023857 1_455
O21 P10 1.539698 1_655
O21 Ti3 1.924725 1_555
O22 P4 1.546786 1_555
O23 P5 1.545270 1_555
O23 Ti3 1.951629 1_565
O24 P6 1.546519 1_555
O24 Ti4 2.003396 1_545
O25 P7 1.545308 1_555
O25 Ti0 2.033427 1_556
O26 P1 1.547079 1_455
O26 Ti4 1.918450 1_555
O27 P6 1.546722 1_555
O27 Ti5 1.993754 1_655
O28 P7 1.544568 1_555
O28 Ti3 1.964568 1_555
O29 P8 1.546833 1_555
O29 Ti4 1.916736 1_545
O30 P8 1.543443 1_555
O30 Ti3 2.014068 1_555
O31 P9 1.531919 1_555
O32 P0 1.546238 1_555
O32 Ti4 1.914198 1_545
O33 P1 1.544025 1_445
O33 Ti5 1.907730 1_555
O34 P8 1.546804 1_555
O34 Ti2 1.994988 1_555
O35 P9 1.562477 1_555
O35 Ti6 2.093776 1_555
O36 P8 1.541589 1_555
O36 Ti5 1.916099 1_555
O37 P10 1.558666 1_555
O37 Ti6 1.992592 1_555
O38 P0 1.544115 1_555
O38 Ti5 1.902428 1_555
O39 P10 1.543019 1_555
O39 Ti5 2.008787 1_555
O40 P11 1.560699 1_555
O40 Ti6 2.042914 1_555
O41 P7 1.568297 1_455
O41 Ti6 1.887217 1_555
O42 P11 1.543092 1_555
O43 P2 1.561408 1_556
O43 Ti6 1.983558 1_555
O44 P5 1.567818 1_555
O44 Ti6 1.874881 1_555
O45 P7 1.529858 1_555
O46 P2 1.509419 1_555
O47 P5 1.505690 1_555
