# generated using pymatgen
data_CdI2
_symmetry_space_group_name_H-M   'P 1'
_cell_length_a   4.34228824
_cell_length_b   4.34228824
_cell_length_c   139.64795900
_cell_angle_alpha   90.00000000
_cell_angle_beta   90.00000000
_cell_angle_gamma   120.00000371
_symmetry_Int_Tables_number   1
_chemical_formula_structural   CdI2
_chemical_formula_sum   'Cd19 I38'
_cell_volume   2280.35522914
_cell_formula_units_Z   19
loop_
 _symmetry_equiv_pos_site_id
 _symmetry_equiv_pos_as_xyz
  1  'x, y, z'
loop_
 _atom_site_type_symbol
 _atom_site_label
 _atom_site_symmetry_multiplicity
 _atom_site_fract_x
 _atom_site_fract_y
 _atom_site_fract_z
 _atom_site_occupancy
  Cd  Cd0  1  0.00000000  0.00000000  0.53948800  1
  Cd  Cd1  1  0.66666700  0.33333300  0.74999800  1
  Cd  Cd2  1  0.00000000  0.00000000  0.43420200  1
  Cd  Cd3  1  0.00000000  0.00000000  0.69736400  1
  Cd  Cd4  1  0.66666700  0.33333300  0.06576700  1
  Cd  Cd5  1  0.66666700  0.33333300  0.48683800  1
  Cd  Cd6  1  0.00000000  0.00000000  0.01316900  1
  Cd  Cd7  1  0.00000000  0.00000000  0.11841800  1
  Cd  Cd8  1  0.00000000  0.00000000  0.59209600  1
  Cd  Cd9  1  0.66666700  0.33333300  0.64474100  1
  Cd  Cd10  1  0.00000000  0.00000000  0.27632200  1
  Cd  Cd11  1  0.66666700  0.33333300  0.38155600  1
  Cd  Cd12  1  0.00000000  0.00000000  0.85527000  1
  Cd  Cd13  1  0.66666700  0.33333300  0.17105100  1
  Cd  Cd14  1  0.66666700  0.33333300  0.90790300  1
  Cd  Cd15  1  0.66666700  0.33333300  0.32895500  1
  Cd  Cd16  1  0.00000000  0.00000000  0.22370400  1
  Cd  Cd17  1  0.66666700  0.33333300  0.96052600  1
  Cd  Cd18  1  0.66666700  0.33333300  0.80261500  1
  I  I0  1  0.66666700  0.33333300  0.70975600  1
  I  I1  1  0.33333300  0.66666700  0.73761400  1
  I  I2  1  0.33333300  0.66666700  0.84287900  1
  I  I3  1  0.33333300  0.66666700  0.47444900  1
  I  I4  1  0.66666700  0.33333300  0.02554600  1
  I  I5  1  0.33333300  0.66666700  0.94815100  1
  I  I6  1  0.66666700  0.33333300  0.44658500  1
  I  I7  1  0.33333300  0.66666700  0.26392300  1
  I  I8  1  0.33333300  0.66666700  0.79024000  1
  I  I9  1  0.33333300  0.66666700  0.05338000  1
  I  I10  1  0.66666700  0.33333300  0.86765800  1
  I  I11  1  0.00000000  0.00000000  0.92028600  1
  I  I12  1  0.66666700  0.33333300  0.13080500  1
  I  I13  1  0.33333300  0.66666700  0.42183000  1
  I  I14  1  0.00000000  0.00000000  0.97292000  1
  I  I15  1  0.33333300  0.66666700  0.21132600  1
  I  I16  1  0.00000000  0.00000000  0.65712700  1
  I  I17  1  0.33333300  0.66666700  0.68498000  1
  I  I18  1  0.00000000  0.00000000  0.07815200  1
  I  I19  1  0.66666700  0.33333300  0.23608800  1
  I  I20  1  0.33333300  0.66666700  0.89551100  1
  I  I21  1  0.66666700  0.33333300  0.55186600  1
  I  I22  1  0.00000000  0.00000000  0.39394600  1
  I  I23  1  0.00000000  0.00000000  0.81500100  1
  I  I24  1  0.33333300  0.66666700  0.00078700  1
  I  I25  1  0.33333300  0.66666700  0.36918100  1
  I  I26  1  0.33333300  0.66666700  0.52709800  1
  I  I27  1  0.00000000  0.00000000  0.34133400  1
  I  I28  1  0.66666700  0.33333300  0.60448600  1
  I  I29  1  0.00000000  0.00000000  0.18343700  1
  I  I30  1  0.00000000  0.00000000  0.76238000  1
  I  I31  1  0.33333300  0.66666700  0.57971800  1
  I  I32  1  0.33333300  0.66666700  0.63236200  1
  I  I33  1  0.00000000  0.00000000  0.49923400  1
  I  I34  1  0.33333300  0.66666700  0.15867600  1
  I  I35  1  0.66666700  0.33333300  0.28871600  1
  I  I36  1  0.33333300  0.66666700  0.10602500  1
  I  I37  1  0.33333300  0.66666700  0.31656200  1
loop_
_geom_bond_atom_site_label_1
_geom_bond_atom_site_label_2
_geom_bond_distance
_geom_bond_site_symmetry_2
Cd0 I21 3.045172 1_455
Cd0 I21 3.045175 1_445
Cd0 I21 3.045175 1_555
Cd0 I26 3.046123 1_545
Cd0 I26 3.046126 1_555
Cd0 I26 3.046126 1_445
Cd1 I30 3.045489 1_655
Cd1 I30 3.045492 1_555
Cd1 I30 3.045492 1_665
Cd1 I1 3.045647 1_545
Cd1 I1 3.045647 1_655
Cd1 I1 3.045654 1_555
Cd2 I13 3.044696 1_545
Cd2 I13 3.044699 1_555
Cd2 I13 3.044699 1_445
Cd2 I6 3.045568 1_455
Cd2 I6 3.045571 1_445
Cd2 I6 3.045571 1_555
Cd3 I17 3.045648 1_545
Cd3 I17 3.045651 1_555
Cd3 I17 3.045651 1_445
Cd3 I0 3.046282 1_455
Cd3 I0 3.046285 1_445
Cd3 I0 3.046285 1_555
Cd4 I18 3.045727 1_655
Cd4 I18 3.045730 1_665
Cd4 I18 3.045730 1_555
Cd4 I9 3.045885 1_545
Cd4 I9 3.045885 1_655
Cd4 I9 3.045892 1_555
Cd5 I3 3.046044 1_545
Cd5 I3 3.046044 1_655
Cd5 I3 3.046050 1_555
Cd5 I33 3.046599 1_655
Cd5 I33 3.046602 1_555
Cd5 I33 3.046602 1_665
Cd6 I4 3.045093 1_455
Cd6 I4 3.045096 1_445
Cd6 I4 3.045096 1_555
Cd6 I24 3.045489 1_545
Cd6 I24 3.045492 1_555
Cd6 I24 3.045492 1_445
Cd7 I12 3.045885 1_455
Cd7 I12 3.045888 1_555
Cd7 I12 3.045888 1_445
Cd7 I36 3.046361 1_545
Cd7 I36 3.046364 1_445
Cd7 I36 3.046364 1_555
Cd8 I31 3.045172 1_545
Cd8 I31 3.045175 1_555
Cd8 I31 3.045175 1_445
Cd8 I28 3.046123 1_455
Cd8 I28 3.046126 1_555
Cd8 I28 3.046126 1_445
Cd9 I32 3.045251 1_545
Cd9 I32 3.045251 1_655
Cd9 I32 3.045257 1_555
Cd9 I16 3.045806 1_655
Cd9 I16 3.045809 1_555
Cd9 I16 3.045809 1_665
Cd10 I35 3.046441 1_455
Cd10 I35 3.046444 1_445
Cd10 I35 3.046444 1_555
Cd10 I7 3.046837 1_545
Cd10 I7 3.046840 1_555
Cd10 I7 3.046840 1_445
Cd11 I25 3.044934 1_545
Cd11 I25 3.044934 1_655
Cd11 I25 3.044940 1_555
Cd11 I22 3.046123 1_655
Cd11 I22 3.046126 1_555
Cd11 I22 3.046126 1_665
Cd12 I10 3.045965 1_455
Cd12 I10 3.045968 1_445
Cd12 I10 3.045968 1_555
Cd12 I2 3.046203 1_545
Cd12 I2 3.046206 1_555
Cd12 I2 3.046206 1_445
Cd13 I34 3.044934 1_655
Cd13 I34 3.044934 1_545
Cd13 I34 3.044940 1_555
Cd13 I29 3.045806 1_655
Cd13 I29 3.045809 1_665
Cd13 I29 3.045809 1_555
Cd14 I11 3.045568 1_655
Cd14 I11 3.045571 1_665
Cd14 I11 3.045571 1_555
Cd14 I20 3.046282 1_545
Cd14 I20 3.046282 1_655
Cd14 I20 3.046288 1_555
Cd15 I27 3.045251 1_655
Cd15 I27 3.045254 1_555
Cd15 I27 3.045254 1_665
Cd15 I37 3.046361 1_655
Cd15 I37 3.046361 1_545
Cd15 I37 3.046368 1_555
Cd16 I15 3.045172 1_545
Cd16 I15 3.045175 1_445
Cd16 I15 3.045175 1_555
Cd16 I19 3.045648 1_455
Cd16 I19 3.045651 1_445
Cd16 I19 3.045651 1_555
Cd17 I5 3.044934 1_545
Cd17 I5 3.044934 1_655
Cd17 I5 3.044940 1_555
Cd17 I14 3.046441 1_655
Cd17 I14 3.046444 1_665
Cd17 I14 3.046444 1_555
Cd18 I8 3.044934 1_545
Cd18 I8 3.044934 1_655
Cd18 I8 3.044940 1_555
Cd18 I23 3.045806 1_655
Cd18 I23 3.045809 1_555
Cd18 I23 3.045809 1_665
