# generated using pymatgen
data_Sr2HoRuO6
_symmetry_space_group_name_H-M   'P 1'
_cell_length_a   5.86291100
_cell_length_b   5.80520900
_cell_length_c   10.04311277
_cell_angle_alpha   55.05516692
_cell_angle_beta   90.00000000
_cell_angle_gamma   90.00000000
_symmetry_Int_Tables_number   1
_chemical_formula_structural   Sr2HoRuO6
_chemical_formula_sum   'Sr4 Ho2 Ru2 O12'
_cell_volume   280.19250735
_cell_formula_units_Z   2
loop_
 _symmetry_equiv_pos_site_id
 _symmetry_equiv_pos_as_xyz
  1  'x, y, z'
loop_
 _atom_site_type_symbol
 _atom_site_label
 _atom_site_symmetry_multiplicity
 _atom_site_fract_x
 _atom_site_fract_y
 _atom_site_fract_z
 _atom_site_occupancy
  Sr  Sr0  1  0.03573800  0.24111300  0.75065000  1
  Sr  Sr1  1  0.53573800  0.75888700  0.74935000  1
  Sr  Sr2  1  0.46426200  0.24111300  0.25065000  1
  Sr  Sr3  1  0.96426200  0.75888700  0.24935000  1
  Ho  Ho0  1  0.50000000  0.50000000  0.50000000  1
  Ho  Ho1  1  0.00000000  0.50000000  0.00000000  1
  Ru  Ru0  1  0.00000000  0.00000000  0.50000000  1
  Ru  Ru1  1  0.50000000  0.00000000  0.00000000  1
  O  O0  1  0.01886500  0.30860300  0.26520800  1
  O  O1  1  0.51886500  0.69139700  0.23479200  1
  O  O2  1  0.98113500  0.69139700  0.73479200  1
  O  O3  1  0.48113500  0.30860300  0.76520800  1
  O  O4  1  0.72819200  0.84215700  0.45977200  1
  O  O5  1  0.22819200  0.15784300  0.04022800  1
  O  O6  1  0.27180800  0.15784300  0.54022800  1
  O  O7  1  0.77180800  0.84215700  0.95977200  1
  O  O8  1  0.29920200  0.76778100  0.96177700  1
  O  O9  1  0.79920200  0.23221900  0.53822300  1
  O  O10  1  0.70079800  0.23221900  0.03822300  1
  O  O11  1  0.20079800  0.76778100  0.46177700  1
loop_
_geom_bond_atom_site_label_1
_geom_bond_atom_site_label_2
_geom_bond_distance
_geom_bond_site_symmetry_2
Ho0 O3 2.225047 1_555
Ho0 O1 2.225047 1_555
Ho0 O11 2.226542 1_555
Ho0 O9 2.226542 1_555
Ho0 O4 2.231405 1_555
Ho0 O6 2.231405 1_555
Ho1 O0 2.225047 1_555
Ho1 O2 2.225047 1_454
Ho1 O8 2.226542 1_554
Ho1 O10 2.226542 1_455
Ho1 O7 2.231405 1_454
Ho1 O5 2.231405 1_555
O0 Ru0 1.985616 1_555
O0 Sr3 2.546348 1_455
O0 Sr2 2.656974 1_555
O1 Ru1 1.985616 1_565
O1 Sr2 2.546348 1_555
O1 Sr3 2.656974 1_555
O2 Ru0 1.985616 1_665
O2 Sr0 2.546348 1_655
O2 Sr1 2.656974 1_555
O3 Ru1 1.985616 1_556
O3 Sr1 2.546348 1_555
O3 Sr0 2.656974 1_555
O4 Ru0 1.991599 1_665
O4 Sr2 2.568481 1_565
O4 Sr3 2.790264 1_555
O4 Sr1 2.890384 1_555
O5 Ru1 1.991599 1_555
O5 Sr3 2.568481 1_445
O5 Sr2 2.790264 1_555
O5 Sr0 2.890384 1_554
O6 Ru0 1.991599 1_555
O6 Sr1 2.568481 1_545
O6 Sr0 2.790264 1_555
O6 Sr2 2.890384 1_555
O7 Ru1 1.991599 1_566
O7 Sr0 2.568481 1_665
O7 Sr1 2.790264 1_555
O7 Sr3 2.890384 1_556
O8 Ru1 1.985814 1_566
O8 Sr1 2.569738 1_555
O8 Sr0 2.785286 1_565
O8 Sr2 2.922290 1_556
O9 Ru0 1.985814 1_655
O9 Sr0 2.569738 1_655
O9 Sr1 2.785286 1_545
O9 Sr3 2.922290 1_555
O10 Ru1 1.985814 1_555
O10 Sr2 2.569738 1_555
O10 Sr3 2.785286 1_545
O10 Sr1 2.922290 1_554
O11 Ru0 1.985814 1_565
O11 Sr3 2.569738 1_455
O11 Sr2 2.785286 1_565
O11 Sr0 2.922290 1_555
