# generated using pymatgen
data_SrH4(ClO)2
_symmetry_space_group_name_H-M   'P 1'
_cell_length_a   6.74891208
_cell_length_b   6.74891208
_cell_length_c   6.72261559
_cell_angle_alpha   76.43090541
_cell_angle_beta   76.43090541
_cell_angle_gamma   57.22049519
_symmetry_Int_Tables_number   1
_chemical_formula_structural   SrH4(ClO)2
_chemical_formula_sum   'Sr2 H8 Cl4 O4'
_cell_volume   248.07735873
_cell_formula_units_Z   2
loop_
 _symmetry_equiv_pos_site_id
 _symmetry_equiv_pos_as_xyz
  1  'x, y, z'
loop_
 _atom_site_type_symbol
 _atom_site_label
 _atom_site_symmetry_multiplicity
 _atom_site_fract_x
 _atom_site_fract_y
 _atom_site_fract_z
 _atom_site_occupancy
  Sr  Sr0  1  0.25681400  0.74318600  0.75000000  1
  Sr  Sr1  1  0.74318600  0.25681400  0.25000000  1
  H  H0  1  0.57419900  0.18350400  0.88013200  1
  H  H1  1  0.81649600  0.42580100  0.61986800  1
  H  H2  1  0.42580100  0.81649600  0.11986800  1
  H  H3  1  0.18350400  0.57419900  0.38013200  1
  H  H4  1  0.35116400  0.26882900  0.04963200  1
  H  H5  1  0.73117100  0.64883600  0.45036800  1
  H  H6  1  0.64883600  0.73117100  0.95036800  1
  H  H7  1  0.26882900  0.35116400  0.54963200  1
  Cl  Cl0  1  0.94772100  0.76020900  0.15334400  1
  Cl  Cl1  1  0.23979100  0.05227900  0.34665600  1
  Cl  Cl2  1  0.05227900  0.23979100  0.84665600  1
  Cl  Cl3  1  0.76020900  0.94772100  0.65334400  1
  O  O0  1  0.47227100  0.30912600  0.97368900  1
  O  O1  1  0.69087400  0.52772900  0.52631100  1
  O  O2  1  0.52772900  0.69087400  0.02631100  1
  O  O3  1  0.30912600  0.47227100  0.47368900  1
loop_
_geom_bond_atom_site_label_1
_geom_bond_atom_site_label_2
_geom_bond_distance
_geom_bond_site_symmetry_2
H0 O0 1.001625 1_555
H1 O1 1.001625 1_555
H2 O2 1.001625 1_555
H3 O3 1.001625 1_555
H4 O0 0.991158 1_554
H5 O1 0.991158 1_555
H6 O2 0.991158 1_556
H7 O3 0.991158 1_555
Cl0 H3 2.123625 1_655
Cl0 Sr0 2.991597 1_654
Cl0 Sr1 3.025222 1_565
Cl1 H2 2.123625 1_545
Cl1 Sr0 2.991597 1_545
Cl1 Sr1 3.025222 1_455
Cl2 H1 2.123625 1_455
Cl2 Sr1 2.991597 1_456
Cl2 Sr0 3.025222 1_545
Cl3 H0 2.123625 1_565
Cl3 Sr1 2.991597 1_565
Cl3 Sr0 3.025222 1_655
O0 Sr0 2.702561 1_555
O0 Sr1 2.739528 1_556
O1 Sr0 2.702561 1_555
O1 Sr1 2.739528 1_555
O2 Sr1 2.702561 1_555
O2 Sr0 2.739528 1_554
O3 Sr1 2.702561 1_555
O3 Sr0 2.739528 1_555
