# generated using pymatgen
data_NaH9O5
_symmetry_space_group_name_H-M   'P 1'
_cell_length_a   4.42031500
_cell_length_b   7.59705540
_cell_length_c   9.26024907
_cell_angle_alpha   69.09852779
_cell_angle_beta   79.47656750
_cell_angle_gamma   79.81459439
_symmetry_Int_Tables_number   1
_chemical_formula_structural   NaH9O5
_chemical_formula_sum   'Na2 H18 O10'
_cell_volume   283.50313673
_cell_formula_units_Z   2
loop_
 _symmetry_equiv_pos_site_id
 _symmetry_equiv_pos_as_xyz
  1  'x, y, z'
loop_
 _atom_site_type_symbol
 _atom_site_label
 _atom_site_symmetry_multiplicity
 _atom_site_fract_x
 _atom_site_fract_y
 _atom_site_fract_z
 _atom_site_occupancy
  Na  Na0  1  0.61225500  0.77312800  0.10599600  1
  Na  Na1  1  0.42563500  0.24256100  0.86679600  1
  H  H0  1  0.13585800  0.08017400  0.21247600  1
  H  H1  1  0.60840400  0.15776800  0.36449000  1
  H  H2  1  0.39344900  0.84500900  0.63352000  1
  H  H3  1  0.85914500  0.92332300  0.78018300  1
  H  H4  1  0.54327000  0.49266100  0.01852400  1
  H  H5  1  0.72659200  0.35130300  0.16470900  1
  H  H6  1  0.26510600  0.64702300  0.83450400  1
  H  H7  1  0.05925600  0.50183500  0.98003400  1
  H  H8  1  0.50310100  0.08048800  0.20373200  1
  H  H9  1  0.49106300  0.91499100  0.79438400  1
  H  H10  1  0.09235600  0.77513800  0.26552800  1
  H  H11  1  0.03175900  0.55131500  0.32392300  1
  H  H12  1  0.94157500  0.22072200  0.77999700  1
  H  H13  1  0.96353300  0.45067600  0.68148600  1
  H  H14  1  0.08623900  0.28728900  0.50546100  1
  H  H15  1  0.99688300  0.25514000  0.35538700  1
  H  H16  1  0.00853400  0.74547400  0.64136200  1
  H  H17  1  0.89630200  0.70745100  0.49748700  1
  O  O0  1  0.76861800  0.15238400  0.27698800  1
  O  O1  1  0.23223300  0.84733400  0.72107900  1
  O  O2  1  0.71511000  0.48596900  0.07953200  1
  O  O3  1  0.27285300  0.51151600  0.91780700  1
  O  O4  1  0.34232500  0.04189500  0.15802400  1
  O  O5  1  0.65371000  0.95613700  0.83786900  1
  O  O6  1  0.93489200  0.69042100  0.29643300  1
  O  O7  1  0.06199300  0.31290700  0.69936900  1
  O  O8  1  0.12824700  0.32352700  0.39049500  1
  O  O9  1  0.87092400  0.67444200  0.61242300  1
loop_
_geom_bond_atom_site_label_1
_geom_bond_atom_site_label_2
_geom_bond_distance
_geom_bond_site_symmetry_2
Na0 O2 2.239634 1_555
Na0 O6 2.312955 1_555
Na0 O4 2.335637 1_565
Na0 O5 2.364798 1_554
Na1 O3 2.222226 1_555
Na1 O7 2.299667 1_555
Na1 O5 2.316124 1_545
Na1 O4 2.575828 1_556
H0 O4 1.007185 1_555
H1 O0 0.981620 1_555
H2 O1 0.979939 1_555
H3 O5 1.004932 1_555
H4 O2 1.010605 1_555
H4 O3 1.603289 1_554
H5 O2 1.044921 1_555
H5 O0 1.499807 1_555
H6 O3 1.042386 1_555
H6 O1 1.509036 1_555
H7 O3 1.012173 1_555
H7 O2 1.628263 1_456
H8 O4 1.020932 1_555
H9 O5 1.025573 1_555
H10 O6 0.966873 1_455
H10 Na0 2.495511 1_555
H11 O6 1.026054 1_455
H11 O8 1.621865 1_555
H12 O7 0.972026 1_655
H12 Na1 2.273004 1_555
H13 O7 1.026571 1_655
H13 O9 1.593811 1_555
H14 O8 0.990160 1_555
H15 O8 1.004473 1_655
H16 O9 1.005903 1_455
H17 O9 0.992056 1_555
