# generated using pymatgen
data_KZnPO4
_symmetry_space_group_name_H-M   'P 1'
_cell_length_a   18.47247781
_cell_length_b   18.47247781
_cell_length_c   8.64909600
_cell_angle_alpha   90.00000000
_cell_angle_beta   90.00000000
_cell_angle_gamma   119.99999932
_symmetry_Int_Tables_number   1
_chemical_formula_structural   KZnPO4
_chemical_formula_sum   'K24 Zn24 P24 O96'
_cell_volume   2555.94591267
_cell_formula_units_Z   24
loop_
 _symmetry_equiv_pos_site_id
 _symmetry_equiv_pos_as_xyz
  1  'x, y, z'
loop_
 _atom_site_type_symbol
 _atom_site_label
 _atom_site_symmetry_multiplicity
 _atom_site_fract_x
 _atom_site_fract_y
 _atom_site_fract_z
 _atom_site_occupancy
  K  K0  1  0.48046100  0.00008900  0.92734600  1
  K  K1  1  0.19477700  0.33442800  0.41810200  1
  K  K2  1  0.51962800  0.51953900  0.92734600  1
  K  K3  1  0.80522300  0.66557200  0.91810200  1
  K  K4  1  0.15166000  0.33088100  0.92806100  1
  K  K5  1  0.33333300  0.66666700  0.42072500  1
  K  K6  1  0.66557200  0.86034900  0.41810200  1
  K  K7  1  0.33088100  0.17922100  0.42806100  1
  K  K8  1  0.66666700  0.33333300  0.42516400  1
  K  K9  1  0.84834000  0.66911900  0.42806100  1
  K  K10  1  0.51953900  0.99991100  0.42734600  1
  K  K11  1  0.00008900  0.51962800  0.42734600  1
  K  K12  1  0.00000000  0.00000000  0.95885200  1
  K  K13  1  0.99991100  0.48037200  0.92734600  1
  K  K14  1  0.82077900  0.15166000  0.42806100  1
  K  K15  1  0.66911900  0.82077900  0.92806100  1
  K  K16  1  0.66666700  0.33333300  0.92072500  1
  K  K17  1  0.33442800  0.13965100  0.91810200  1
  K  K18  1  0.17922100  0.84834000  0.92806100  1
  K  K19  1  0.33333300  0.66666700  0.92516400  1
  K  K20  1  0.86034900  0.19477700  0.91810200  1
  K  K21  1  0.13965100  0.80522300  0.41810200  1
  K  K22  1  0.48037200  0.48046100  0.42734600  1
  K  K23  1  0.00000000  0.00000000  0.45885200  1
  Zn  Zn0  1  0.99746400  0.66349900  0.11305500  1
  Zn  Zn1  1  0.83666300  0.33848300  0.24396100  1
  Zn  Zn2  1  0.00253600  0.33650100  0.61305500  1
  Zn  Zn3  1  0.33650100  0.33396500  0.11305500  1
  Zn  Zn4  1  0.84455900  0.00996700  0.73942900  1
  Zn  Zn5  1  0.16540800  0.15544100  0.73942900  1
  Zn  Zn6  1  0.15544100  0.99003300  0.23942900  1
  Zn  Zn7  1  0.49452200  0.32443900  0.74459000  1
  Zn  Zn8  1  0.83459200  0.84455900  0.23942900  1
  Zn  Zn9  1  0.49818000  0.83666300  0.74396100  1
  Zn  Zn10  1  0.00996700  0.16540800  0.23942900  1
  Zn  Zn11  1  0.32443900  0.82991700  0.24459000  1
  Zn  Zn12  1  0.50182000  0.16333700  0.24396100  1
  Zn  Zn13  1  0.66151700  0.49818000  0.24396100  1
  Zn  Zn14  1  0.67556100  0.17008300  0.74459000  1
  Zn  Zn15  1  0.33848300  0.50182000  0.74396100  1
  Zn  Zn16  1  0.82991700  0.50547800  0.74459000  1
  Zn  Zn17  1  0.66603500  0.00253600  0.11305500  1
  Zn  Zn18  1  0.99003300  0.83459200  0.73942900  1
  Zn  Zn19  1  0.17008300  0.49452200  0.24459000  1
  Zn  Zn20  1  0.16333700  0.66151700  0.74396100  1
  Zn  Zn21  1  0.50547800  0.67556100  0.24459000  1
  Zn  Zn22  1  0.33396500  0.99746400  0.61305500  1
  Zn  Zn23  1  0.66349900  0.66603500  0.61305500  1
  P  P0  1  0.82900900  0.84015600  0.62423000  1
  P  P1  1  0.50061400  0.67459800  0.63439000  1
  P  P2  1  0.49208900  0.83671800  0.13493400  1
  P  P3  1  0.34462900  0.50791100  0.13493400  1
  P  P4  1  0.33135000  0.00379800  0.21664300  1
  P  P5  1  0.83671800  0.34462900  0.63493400  1
  P  P6  1  0.16328200  0.65537100  0.13493400  1
  P  P7  1  0.99620200  0.32755200  0.21664300  1
  P  P8  1  0.32755200  0.33135000  0.71664300  1
  P  P9  1  0.84015600  0.01114700  0.12423000  1
  P  P10  1  0.17099100  0.15984400  0.12423000  1
  P  P11  1  0.82601600  0.50061400  0.13439000  1
  P  P12  1  0.00379800  0.67244800  0.71664300  1
  P  P13  1  0.98885300  0.82900900  0.12423000  1
  P  P14  1  0.17398400  0.49938600  0.63439000  1
  P  P15  1  0.32540200  0.82601600  0.63439000  1
  P  P16  1  0.65537100  0.49208900  0.63493400  1
  P  P17  1  0.66865000  0.99620200  0.71664300  1
  P  P18  1  0.49938600  0.32540200  0.13439000  1
  P  P19  1  0.50791100  0.16328200  0.63493400  1
  P  P20  1  0.15984400  0.98885300  0.62423000  1
  P  P21  1  0.67459800  0.17398400  0.13439000  1
  P  P22  1  0.67244800  0.66865000  0.21664300  1
  P  P23  1  0.01114700  0.17099100  0.62423000  1
  O  O0  1  0.38384400  0.29519700  0.66275500  1
  O  O1  1  0.23625400  0.26981100  0.66379400  1
  O  O2  1  0.92071400  0.04848600  0.22512500  1
  O  O3  1  0.81067300  0.51718700  0.96566000  1
  O  O4  1  0.44429900  0.86864600  0.23724400  1
  O  O5  1  0.04734300  0.18328200  0.45806700  1
  O  O6  1  0.48281300  0.29348600  0.96566000  1
  O  O7  1  0.11283000  0.69908300  0.18141100  1
  O  O8  1  0.41711700  0.06090100  0.13481400  1
  O  O9  1  0.95265700  0.81671800  0.95806700  1
  O  O10  1  0.86864600  0.42434700  0.73724400  1
  O  O11  1  0.96644300  0.23625400  0.16379400  1
  O  O12  1  0.08555400  0.88626900  0.12195000  1
  O  O13  1  0.06090100  0.64378400  0.63481400  1
  O  O14  1  0.88626900  0.80071500  0.62195000  1
  O  O15  1  0.35621600  0.41711700  0.63481400  1
  O  O16  1  0.38465000  0.78998000  0.65953900  1
  O  O17  1  0.51718700  0.70651400  0.46566000  1
  O  O18  1  0.69908300  0.58625300  0.68141100  1
  O  O19  1  0.29519700  0.91135400  0.16275500  1
  O  O20  1  0.93909900  0.35621600  0.13481400  1
  O  O21  1  0.78998000  0.40533000  0.15953900  1
  O  O22  1  0.92148600  0.54736500  0.17385000  1
  O  O23  1  0.73018900  0.96644300  0.66379400  1
  O  O24  1  0.46584800  0.24765600  0.24212100  1
  O  O25  1  0.21819300  0.46584800  0.74212100  1
  O  O26  1  0.34508800  0.01372700  0.39111000  1
  O  O27  1  0.86406100  0.04734300  0.95806700  1
  O  O28  1  0.96577500  0.74263400  0.19621000  1
  O  O29  1  0.78180700  0.53415200  0.24212100  1
  O  O30  1  0.33136000  0.34508800  0.89111000  1
  O  O31  1  0.03422500  0.25736600  0.69621000  1
  O  O32  1  0.12777200  0.07928600  0.22512500  1
  O  O33  1  0.21002000  0.59467000  0.65953900  1
  O  O34  1  0.11373100  0.19928500  0.12195000  1
  O  O35  1  0.66864000  0.65491200  0.39111000  1
  O  O36  1  0.52303100  0.15007100  0.46388500  1
  O  O37  1  0.01372700  0.66864000  0.89111000  1
  O  O38  1  0.18932700  0.48281300  0.46566000  1
  O  O39  1  0.13135400  0.57565300  0.23724400  1
  O  O40  1  0.04848600  0.12777200  0.72512500  1
  O  O41  1  0.58288300  0.93909900  0.63481400  1
  O  O42  1  0.37412100  0.92148600  0.67385000  1
  O  O43  1  0.91444600  0.11373100  0.62195000  1
  O  O44  1  0.64378400  0.58288300  0.13481400  1
  O  O45  1  0.74263400  0.77685900  0.69621000  1
  O  O46  1  0.75234400  0.21819300  0.24212100  1
  O  O47  1  0.61535000  0.21002000  0.15953900  1
  O  O48  1  0.26981100  0.03355700  0.16379400  1
  O  O49  1  0.70480300  0.08864600  0.66275500  1
  O  O50  1  0.47696900  0.84992900  0.96388500  1
  O  O51  1  0.03355700  0.76374600  0.66379400  1
  O  O52  1  0.30091700  0.41374700  0.18141100  1
  O  O53  1  0.07928600  0.95151400  0.72512500  1
  O  O54  1  0.40533000  0.61535000  0.65953900  1
  O  O55  1  0.59467000  0.38465000  0.15953900  1
  O  O56  1  0.28393900  0.54188800  0.16347800  1
  O  O57  1  0.84992900  0.37296000  0.46388500  1
  O  O58  1  0.65491200  0.98627300  0.89111000  1
  O  O59  1  0.08864600  0.38384400  0.16275500  1
  O  O60  1  0.74205000  0.28393900  0.66347800  1
  O  O61  1  0.22314100  0.96577500  0.69621000  1
  O  O62  1  0.53415200  0.75234400  0.74212100  1
  O  O63  1  0.41374700  0.11283000  0.68141100  1
  O  O64  1  0.62587900  0.07851400  0.17385000  1
  O  O65  1  0.98627300  0.33136000  0.39111000  1
  O  O66  1  0.45263500  0.37412100  0.17385000  1
  O  O67  1  0.18328200  0.13593900  0.95806700  1
  O  O68  1  0.91135400  0.61615600  0.66275500  1
  O  O69  1  0.25736600  0.22314100  0.19621000  1
  O  O70  1  0.88717000  0.30091700  0.68141100  1
  O  O71  1  0.70651400  0.18932700  0.96566000  1
  O  O72  1  0.19928500  0.08555400  0.62195000  1
  O  O73  1  0.15007100  0.62704000  0.96388500  1
  O  O74  1  0.76374600  0.73018900  0.16379400  1
  O  O75  1  0.07851400  0.45263500  0.67385000  1
  O  O76  1  0.25795000  0.71606100  0.16347800  1
  O  O77  1  0.61615600  0.70480300  0.16275500  1
  O  O78  1  0.24765600  0.78180700  0.74212100  1
  O  O79  1  0.54188800  0.25795000  0.66347800  1
  O  O80  1  0.80071500  0.91444600  0.12195000  1
  O  O81  1  0.62704000  0.47696900  0.46388500  1
  O  O82  1  0.57565300  0.44429900  0.73724400  1
  O  O83  1  0.81671800  0.86406100  0.45806700  1
  O  O84  1  0.37296000  0.52303100  0.96388500  1
  O  O85  1  0.13593900  0.95265700  0.45806700  1
  O  O86  1  0.58625300  0.88717000  0.18141100  1
  O  O87  1  0.77685900  0.03422500  0.19621000  1
  O  O88  1  0.42434700  0.55570100  0.23724400  1
  O  O89  1  0.55570100  0.13135400  0.73724400  1
  O  O90  1  0.95151400  0.87222800  0.22512500  1
  O  O91  1  0.45811200  0.74205000  0.16347800  1
  O  O92  1  0.87222800  0.92071400  0.72512500  1
  O  O93  1  0.54736500  0.62587900  0.67385000  1
  O  O94  1  0.29348600  0.81067300  0.46566000  1
  O  O95  1  0.71606100  0.45811200  0.66347800  1
loop_
_geom_bond_atom_site_label_1
_geom_bond_atom_site_label_2
_geom_bond_distance
_geom_bond_site_symmetry_2
K0 O89 2.672944 1_555
K0 O8 2.676837 1_556
K0 O50 2.760294 1_545
K0 O42 2.814582 1_545
K0 O64 3.157310 1_556
K1 O52 2.703545 1_555
K1 O1 2.728008 1_555
K1 O5 2.779969 1_555
K1 O38 2.822867 1_555
K2 O82 2.672944 1_555
K2 O44 2.676837 1_556
K2 O84 2.760294 1_555
K2 O93 2.814582 1_555
K2 O66 3.157310 1_556
K3 O18 2.703545 1_555
K3 O74 2.728008 1_556
K3 O9 2.779969 1_555
K3 O3 2.822867 1_555
K4 O25 2.692322 1_555
K4 O34 2.740294 1_556
K4 O59 2.751623 1_556
K4 O31 2.761413 1_555
K4 O30 3.212313 1_555
K4 O52 3.244398 1_556
K4 O1 3.271345 1_555
K5 O16 2.862601 1_555
K5 O33 2.862602 1_555
K5 O54 2.862613 1_555
K5 O76 2.998767 1_555
K5 O91 2.998787 1_555
K5 O56 2.998790 1_555
K5 O94 3.118862 1_555
K5 O38 3.118874 1_555
K5 O17 3.118880 1_555
K6 O86 2.703545 1_555
K6 O23 2.728008 1_555
K6 O83 2.779969 1_555
K6 O17 2.822867 1_555
K7 O24 2.692322 1_555
K7 O72 2.740294 1_555
K7 O0 2.751612 1_555
K7 O69 2.761413 1_555
K7 O26 3.212332 1_555
K7 O63 3.244398 1_555
K7 O48 3.271345 1_555
K8 O60 2.879363 1_555
K8 O79 2.879383 1_555
K8 O95 2.879387 1_555
K8 O47 3.034174 1_555
K8 O21 3.034175 1_555
K8 O55 3.034185 1_555
K8 O57 3.103257 1_555
K8 O36 3.103262 1_555
K8 O81 3.103275 1_555
K9 O29 2.692322 1_555
K9 O14 2.740294 1_555
K9 O68 2.751623 1_555
K9 O28 2.761413 1_555
K9 O35 3.212313 1_555
K9 O18 3.244398 1_555
K9 O74 3.271345 1_555
K10 O4 2.672944 1_555
K10 O41 2.676837 1_555
K10 O36 2.760294 1_565
K10 O64 2.814582 1_565
K10 O42 3.157310 1_555
K11 O39 2.672944 1_555
K11 O13 2.676837 1_555
K11 O57 2.760294 1_455
K11 O22 2.814582 1_455
K11 O75 3.157310 1_555
K12 O53 2.888882 1_545
K12 O40 2.888882 1_555
K12 O92 2.888882 1_445
K12 O27 3.044131 1_455
K12 O9 3.044131 1_445
K12 O67 3.044131 1_555
K12 O2 3.092405 1_456
K12 O90 3.092405 1_446
K12 O32 3.092405 1_556
K13 O10 2.672944 1_555
K13 O20 2.676837 1_556
K13 O73 2.760294 1_655
K13 O75 2.814582 1_655
K13 O22 3.157310 1_556
K14 O46 2.692335 1_555
K14 O43 2.740294 1_555
K14 O49 2.751612 1_555
K14 O87 2.761413 1_555
K14 O65 3.212321 1_555
K14 O70 3.244398 1_555
K14 O11 3.271345 1_555
K15 O62 2.692322 1_555
K15 O80 2.740294 1_556
K15 O77 2.751612 1_556
K15 O45 2.761413 1_555
K15 O58 3.212332 1_555
K15 O86 3.244398 1_556
K15 O23 3.271345 1_555
K16 O47 2.862601 1_556
K16 O21 2.862602 1_556
K16 O55 2.862613 1_556
K16 O60 2.998767 1_555
K16 O79 2.998787 1_555
K16 O95 2.998790 1_555
K16 O71 3.118862 1_555
K16 O3 3.118874 1_555
K16 O6 3.118880 1_555
K17 O63 2.703545 1_555
K17 O48 2.728008 1_556
K17 O67 2.779969 1_555
K17 O6 2.822867 1_555
K18 O78 2.692335 1_555
K18 O12 2.740294 1_556
K18 O19 2.751612 1_556
K18 O61 2.761413 1_555
K18 O37 3.212321 1_555
K18 O7 3.244398 1_556
K18 O51 3.271345 1_555
K19 O76 2.879363 1_556
K19 O91 2.879383 1_556
K19 O56 2.879387 1_556
K19 O16 3.034174 1_555
K19 O33 3.034175 1_555
K19 O54 3.034185 1_555
K19 O73 3.103257 1_555
K19 O50 3.103262 1_555
K19 O84 3.103275 1_555
K20 O70 2.703545 1_555
K20 O11 2.728008 1_556
K20 O27 2.779969 1_555
K20 O71 2.822867 1_555
K21 O7 2.703545 1_555
K21 O51 2.728008 1_555
K21 O85 2.779969 1_555
K21 O94 2.822867 1_555
K22 O88 2.672944 1_555
K22 O15 2.676837 1_555
K22 O81 2.760294 1_555
K22 O66 2.814582 1_555
K22 O93 3.157310 1_555
K23 O2 2.888882 1_455
K23 O90 2.888882 1_445
K23 O32 2.888882 1_555
K23 O85 3.044131 1_545
K23 O5 3.044131 1_555
K23 O83 3.044131 1_445
K23 O53 3.092405 1_545
K23 O40 3.092405 1_555
K23 O92 3.092405 1_445
O0 P8 1.561724 1_555
O0 Zn7 1.966813 1_555
O1 P8 1.558303 1_555
O1 Zn5 1.959399 1_555
O2 P9 1.557342 1_555
O2 Zn10 1.958960 1_655
O3 P11 1.546143 1_556
O3 Zn16 1.976360 1_555
O4 P2 1.559128 1_555
O4 Zn11 1.958094 1_555
O5 P23 1.553137 1_555
O5 Zn10 1.983357 1_555
O6 P18 1.546143 1_556
O6 Zn7 1.976360 1_555
O7 P6 1.560356 1_555
O7 Zn0 1.980495 1_455
O8 P4 1.566038 1_555
O8 Zn12 1.989782 1_555
O9 P13 1.553137 1_556
O9 Zn18 1.983357 1_555
O10 P5 1.559128 1_555
O10 Zn16 1.958094 1_555
O11 P7 1.558303 1_555
O11 Zn10 1.959399 1_655
O12 P13 1.555842 1_455
O12 Zn6 1.974483 1_555
O13 P12 1.566038 1_555
O13 Zn20 1.989782 1_555
O14 P0 1.555842 1_555
O14 Zn18 1.974483 1_555
O15 P8 1.566038 1_555
O15 Zn15 1.989782 1_555
O16 P15 1.554614 1_555
O16 Zn9 1.966332 1_555
O17 P1 1.546143 1_555
O17 Zn21 1.976360 1_555
O18 P16 1.560356 1_555
O18 Zn23 1.980495 1_555
O19 P4 1.561708 1_565
O19 Zn11 1.966829 1_555
O20 P7 1.566038 1_555
O20 Zn1 1.989782 1_555
O21 P11 1.554614 1_555
O21 Zn1 1.966332 1_555
O22 P11 1.565068 1_555
O22 Zn0 1.958988 1_555
O23 P17 1.558303 1_555
O23 Zn4 1.959399 1_565
O24 P18 1.557189 1_555
O24 Zn12 1.975566 1_555
O25 P14 1.557202 1_555
O25 Zn15 1.975548 1_555
O26 P4 1.525950 1_555
O26 Zn22 1.937962 1_545
O27 P9 1.553137 1_556
O27 Zn4 1.983357 1_555
O28 P13 1.560428 1_555
O28 Zn0 1.962794 1_555
O29 P11 1.557202 1_555
O29 Zn13 1.975548 1_555
O30 P8 1.525950 1_555
O30 Zn3 1.937964 1_556
O31 P23 1.560428 1_555
O31 Zn2 1.962794 1_555
O32 P10 1.557342 1_555
O32 Zn6 1.958960 1_545
O33 P14 1.554614 1_555
O33 Zn20 1.966332 1_555
O34 P10 1.555842 1_555
O34 Zn10 1.974483 1_555
O35 P22 1.525950 1_555
O35 Zn23 1.937964 1_555
O36 P19 1.547388 1_555
O36 Zn12 1.981854 1_555
O37 P12 1.525948 1_555
O37 Zn0 1.937961 1_456
O38 P14 1.546143 1_555
O38 Zn19 1.976360 1_555
O39 P6 1.559128 1_555
O39 Zn19 1.958094 1_555
O40 P23 1.557342 1_555
O40 Zn5 1.958960 1_555
O41 P17 1.566038 1_555
O41 Zn9 1.989782 1_555
O42 P15 1.565068 1_555
O42 Zn22 1.958988 1_555
O43 P23 1.555842 1_655
O43 Zn4 1.974483 1_555
O44 P22 1.566038 1_555
O44 Zn13 1.989782 1_555
O45 P0 1.560428 1_555
O45 Zn23 1.962794 1_555
O46 P21 1.557190 1_555
O46 Zn1 1.975553 1_555
O47 P21 1.554614 1_555
O47 Zn12 1.966332 1_555
O48 P4 1.558303 1_555
O48 Zn6 1.959399 1_545
O49 P17 1.561708 1_545
O49 Zn14 1.966829 1_555
O50 P2 1.547388 1_556
O50 Zn9 1.981854 1_555
O51 P12 1.558303 1_555
O51 Zn18 1.959399 1_455
O52 P3 1.560356 1_555
O52 Zn3 1.980495 1_555
O53 P20 1.557342 1_555
O53 Zn18 1.958960 1_455
O54 P1 1.554614 1_555
O54 Zn15 1.966332 1_555
O55 P18 1.554614 1_555
O55 Zn13 1.966332 1_555
O56 P3 1.554148 1_555
O56 Zn19 1.959837 1_555
O57 P5 1.547388 1_555
O57 Zn1 1.981854 1_555
O58 P17 1.525950 1_555
O58 Zn17 1.937962 1_566
O59 P7 1.561710 1_455
O59 Zn19 1.966817 1_555
O60 P5 1.554163 1_555
O60 Zn14 1.959835 1_555
O61 P20 1.560428 1_555
O61 Zn22 1.962794 1_555
O62 P1 1.557189 1_555
O62 Zn9 1.975566 1_555
O63 P19 1.560356 1_555
O63 Zn22 1.980495 1_545
O64 P21 1.565068 1_555
O64 Zn17 1.958988 1_555
O65 P7 1.525948 1_555
O65 Zn2 1.937961 1_655
O66 P18 1.565068 1_555
O66 Zn3 1.958988 1_555
O67 P10 1.553137 1_556
O67 Zn5 1.983357 1_555
O68 P12 1.561710 1_655
O68 Zn16 1.966817 1_555
O69 P10 1.560428 1_555
O69 Zn3 1.962794 1_555
O70 P5 1.560356 1_555
O70 Zn2 1.980495 1_655
O71 P21 1.546143 1_556
O71 Zn14 1.976360 1_555
O72 P20 1.555842 1_545
O72 Zn5 1.974483 1_555
O73 P6 1.547388 1_556
O73 Zn20 1.981854 1_555
O74 P22 1.558303 1_555
O74 Zn8 1.959399 1_555
O75 P14 1.565068 1_555
O75 Zn2 1.958988 1_555
O76 P6 1.554163 1_555
O76 Zn11 1.959835 1_555
O77 P22 1.561724 1_555
O77 Zn21 1.966813 1_555
O78 P15 1.557190 1_555
O78 Zn20 1.975553 1_555
O79 P19 1.554165 1_555
O79 Zn7 1.959821 1_555
O80 P9 1.555842 1_565
O80 Zn8 1.974483 1_555
O81 P16 1.547388 1_555
O81 Zn13 1.981854 1_555
O82 P16 1.559128 1_555
O82 Zn7 1.958094 1_555
O83 P0 1.553137 1_555
O83 Zn8 1.983357 1_555
O84 P3 1.547388 1_556
O84 Zn15 1.981854 1_555
O85 P20 1.553137 1_555
O85 Zn6 1.983357 1_555
O86 P2 1.560356 1_555
O86 Zn17 1.980495 1_565
O87 P9 1.560428 1_555
O87 Zn17 1.962794 1_555
O88 P3 1.559128 1_555
O88 Zn21 1.958094 1_555
O89 P19 1.559128 1_555
O89 Zn14 1.958094 1_555
O90 P13 1.557342 1_555
O90 Zn8 1.958960 1_555
O91 P2 1.554165 1_555
O91 Zn21 1.959821 1_555
O92 P0 1.557342 1_555
O92 Zn4 1.958960 1_565
O93 P1 1.565068 1_555
O93 Zn23 1.958988 1_555
O94 P15 1.546143 1_555
O94 Zn11 1.976360 1_555
O95 P16 1.554148 1_555
O95 Zn16 1.959837 1_555
