# generated using pymatgen
data_CdI2
_symmetry_space_group_name_H-M   'P 1'
_cell_length_a   4.28524884
_cell_length_b   4.28524770
_cell_length_c   64.42707635
_cell_angle_alpha   90.00000000
_cell_angle_beta   90.00000000
_cell_angle_gamma   119.99999260
_symmetry_Int_Tables_number   1
_chemical_formula_structural   CdI2
_chemical_formula_sum   'Cd9 I18'
_cell_volume   1024.59224601
_cell_formula_units_Z   9
loop_
 _symmetry_equiv_pos_site_id
 _symmetry_equiv_pos_as_xyz
  1  'x, y, z'
loop_
 _atom_site_type_symbol
 _atom_site_label
 _atom_site_symmetry_multiplicity
 _atom_site_fract_x
 _atom_site_fract_y
 _atom_site_fract_z
 _atom_site_occupancy
  Cd  Cd0  1  0.33333300  0.66666700  0.91691757  1
  Cd  Cd1  1  0.33333300  0.66666700  0.36069112  1
  Cd  Cd2  1  0.33333300  0.66666700  0.80594649  1
  Cd  Cd3  1  0.33333300  0.66666700  0.02777241  1
  Cd  Cd4  1  0.33333300  0.66666700  0.47221623  1
  Cd  Cd5  1  0.33333300  0.66666700  0.69443981  1
  Cd  Cd6  1  0.00000000  -0.00000000  0.13913515  1
  Cd  Cd7  1  0.33333300  0.66666700  0.58308302  1
  Cd  Cd8  1  0.33333300  0.66666700  0.24981387  1
  I  I0  1  -0.00000000  0.00000000  0.22304239  1
  I  I1  1  0.66666700  0.33333300  0.27660260  1
  I  I2  1  0.66666700  0.33333300  0.72118878  1
  I  I3  1  -0.00000000  0.00000000  0.77934896  1
  I  I4  1  -0.00000000  0.00000000  0.44547782  1
  I  I5  1  -0.00000000  0.00000000  0.66769997  1
  I  I6  1  0.66666700  0.33333300  0.83254815  1
  I  I7  1  0.66666700  0.33333300  0.16584638  1
  I  I8  1  0.66666700  0.33333300  0.60981391  1
  I  I9  1  0.66666700  0.33333300  0.05452068  1
  I  I10  1  0.33333300  0.66666700  0.11240473  1
  I  I11  1  -0.00000000  0.00000000  0.55637468  1
  I  I12  1  0.66666700  0.33333300  0.38730654  1
  I  I13  1  0.66666700  0.33333300  0.94362480  1
  I  I14  1  -0.00000000  0.00000000  0.33409961  1
  I  I15  1  -0.00000000  0.00000000  0.00103356  1
  I  I16  1  0.66666700  0.33333300  0.49896411  1
  I  I17  1  -0.00000000  0.00000000  0.89018668  1
loop_
_geom_bond_atom_site_label_1
_geom_bond_atom_site_label_2
_geom_bond_distance
_geom_bond_site_symmetry_2
Cd0 I13 3.013603 1_565
Cd0 I13 3.013604 1_455
Cd0 I13 3.013610 1_555
Cd0 I17 3.014474 1_565
Cd0 I17 3.014477 1_555
Cd0 I17 3.014478 1_665
Cd1 I14 3.009353 1_565
Cd1 I14 3.009356 1_555
Cd1 I14 3.009356 1_665
Cd1 I12 3.010230 1_565
Cd1 I12 3.010231 1_455
Cd1 I12 3.010236 1_555
Cd2 I3 3.009574 1_565
Cd2 I3 3.009577 1_555
Cd2 I3 3.009577 1_665
Cd2 I6 3.009725 1_565
Cd2 I6 3.009726 1_455
Cd2 I6 3.009731 1_555
Cd3 I15 3.014767 1_565
Cd3 I15 3.014770 1_555
Cd3 I15 3.014771 1_665
Cd3 I9 3.015114 1_565
Cd3 I9 3.015114 1_455
Cd3 I9 3.015120 1_555
Cd4 I4 3.014751 1_565
Cd4 I4 3.014754 1_555
Cd4 I4 3.014754 1_665
Cd4 I16 3.015100 1_565
Cd4 I16 3.015100 1_455
Cd4 I16 3.015106 1_555
Cd5 I5 3.014804 1_565
Cd5 I5 3.014807 1_555
Cd5 I5 3.014807 1_665
Cd5 I2 3.015140 1_565
Cd5 I2 3.015140 1_455
Cd5 I2 3.015146 1_555
Cd6 I7 3.013751 1_455
Cd6 I7 3.013754 1_445
Cd6 I7 3.013754 1_555
Cd6 I10 3.014457 1_545
Cd6 I10 3.014460 1_555
Cd6 I10 3.014460 1_445
Cd7 I11 3.013644 1_565
Cd7 I11 3.013647 1_555
Cd7 I11 3.013648 1_665
Cd7 I8 3.014474 1_565
Cd7 I8 3.014475 1_455
Cd7 I8 3.014480 1_555
Cd8 I0 3.015969 1_565
Cd8 I0 3.015972 1_555
Cd8 I0 3.015972 1_665
Cd8 I1 3.016605 1_565
Cd8 I1 3.016605 1_455
Cd8 I1 3.016611 1_555
