# generated using pymatgen
data_KEu(WO4)2
_symmetry_space_group_name_H-M   'P 1'
_cell_length_a   7.75231541
_cell_length_b   7.75231541
_cell_length_c   7.48463104
_cell_angle_alpha   62.52403089
_cell_angle_beta   62.52403089
_cell_angle_gamma   88.96685235
_symmetry_Int_Tables_number   1
_chemical_formula_structural   KEu(WO4)2
_chemical_formula_sum   'K2 Eu2 W4 O16'
_cell_volume   343.04487296
_cell_formula_units_Z   2
loop_
 _symmetry_equiv_pos_site_id
 _symmetry_equiv_pos_as_xyz
  1  'x, y, z'
loop_
 _atom_site_type_symbol
 _atom_site_label
 _atom_site_symmetry_multiplicity
 _atom_site_fract_x
 _atom_site_fract_y
 _atom_site_fract_z
 _atom_site_occupancy
  K  K0  1  0.70647200  0.29352800  0.25000000  1
  K  K1  1  0.29352800  0.70647200  0.75000000  1
  Eu  Eu0  1  0.72589200  0.27410800  0.75000000  1
  Eu  Eu1  1  0.27410800  0.72589200  0.25000000  1
  W  W0  1  0.81012400  0.80003900  0.21511800  1
  W  W1  1  0.18987600  0.19996100  0.78488200  1
  W  W2  1  0.19996100  0.18987600  0.28488200  1
  W  W3  1  0.80003900  0.81012400  0.71511800  1
  O  O0  1  0.54576600  0.72042700  0.31668100  1
  O  O1  1  0.75131600  0.87531900  0.44245800  1
  O  O2  1  0.87531900  0.75131600  0.94245800  1
  O  O3  1  0.87203300  0.08842900  0.97205200  1
  O  O4  1  0.72042700  0.54576600  0.81668100  1
  O  O5  1  0.27957300  0.45423400  0.18331900  1
  O  O6  1  0.87327200  0.56531800  0.36781100  1
  O  O7  1  0.12468100  0.24868400  0.05754200  1
  O  O8  1  0.45423400  0.27957300  0.68331900  1
  O  O9  1  0.56531800  0.87327200  0.86781100  1
  O  O10  1  0.24868400  0.12468100  0.55754200  1
  O  O11  1  0.91157100  0.12796700  0.52794800  1
  O  O12  1  0.08842900  0.87203300  0.47205200  1
  O  O13  1  0.12796700  0.91157100  0.02794800  1
  O  O14  1  0.43468200  0.12672800  0.13218900  1
  O  O15  1  0.12672800  0.43468200  0.63218900  1
loop_
_geom_bond_atom_site_label_1
_geom_bond_atom_site_label_2
_geom_bond_distance
_geom_bond_site_symmetry_2
K0 O4 2.861086 1_554
K0 O8 2.861086 1_555
K0 O7 2.969682 1_655
K0 O1 2.969682 1_545
K0 O3 3.002999 1_554
K0 O11 3.002999 1_555
K0 O2 3.075044 1_554
K0 O10 3.075044 1_555
K0 O14 3.123109 1_555
K0 O6 3.123109 1_555
K1 O5 2.861086 1_556
K1 O0 2.861086 1_555
K1 O2 2.969682 1_455
K1 O10 2.969682 1_565
K1 O12 3.002999 1_555
K1 O13 3.002999 1_556
K1 O1 3.075044 1_555
K1 O7 3.075044 1_556
K1 O15 3.123109 1_555
K1 O9 3.123109 1_555
Eu0 O3 2.364069 1_555
Eu0 O11 2.364069 1_555
Eu0 O4 2.373428 1_555
Eu0 O8 2.373428 1_555
Eu0 O14 2.388067 1_556
Eu0 O6 2.388067 1_555
Eu1 O12 2.364069 1_555
Eu1 O13 2.364069 1_555
Eu1 O0 2.373428 1_555
Eu1 O5 2.373428 1_555
Eu1 O15 2.388067 1_555
Eu1 O9 2.388067 1_554
O0 W0 1.825900 1_555
O1 W0 1.906468 1_555
O1 W3 2.077368 1_555
O2 W3 1.906468 1_555
O2 W0 2.077368 1_556
O3 W0 2.004558 1_546
O3 W1 2.134346 1_655
O4 W3 1.825900 1_555
O5 W2 1.825900 1_555
O6 W0 1.849872 1_555
O7 W2 1.906468 1_555
O7 W1 2.077368 1_554
O8 W1 1.825900 1_555
O9 W3 1.849872 1_555
O10 W1 1.906468 1_555
O10 W2 2.077368 1_555
O11 W2 2.004558 1_655
O11 W3 2.134346 1_545
O12 W3 2.004558 1_455
O12 W2 2.134346 1_565
O13 W1 2.004558 1_564
O13 W0 2.134346 1_455
O14 W2 1.849872 1_555
O15 W1 1.849872 1_555
