# generated using pymatgen
data_Bi12Ir12O41
_symmetry_space_group_name_H-M   'P 1'
_cell_length_a   7.35676138
_cell_length_b   7.35676119
_cell_length_c   66.17682341
_cell_angle_alpha   59.98199938
_cell_angle_beta   59.98200025
_cell_angle_gamma   59.99989099
_symmetry_Int_Tables_number   1
_chemical_formula_structural   Bi12Ir12O41
_chemical_formula_sum   'Bi36 Ir36 O123'
_cell_volume   2531.89491191
_cell_formula_units_Z   3
loop_
 _symmetry_equiv_pos_site_id
 _symmetry_equiv_pos_as_xyz
  1  'x, y, z'
loop_
 _atom_site_type_symbol
 _atom_site_label
 _atom_site_symmetry_multiplicity
 _atom_site_fract_x
 _atom_site_fract_y
 _atom_site_fract_z
 _atom_site_occupancy
  Bi  Bi0  1  0.50311239  0.98668864  0.05634535  1
  Bi  Bi1  1  0.50310365  0.50310365  0.05634363  1
  Bi  Bi2  1  0.50816743  0.50816743  0.10838920  1
  Bi  Bi3  1  0.98668864  0.50311239  0.05634535  1
  Bi  Bi4  1  0.50148541  0.50148541  0.16597553  1
  Bi  Bi5  1  0.49993714  0.00015099  0.27777472  1
  Bi  Bi6  1  0.50054246  0.50054246  0.22204192  1
  Bi  Bi7  1  0.50148799  0.00326350  0.16597439  1
  Bi  Bi8  1  0.49993424  0.49993424  0.27777554  1
  Bi  Bi9  1  0.00326350  0.50148799  0.16597439  1
  Bi  Bi10  1  0.50002475  0.50002475  0.33332409  1
  Bi  Bi11  1  0.50000904  0.50000904  0.38888297  1
  Bi  Bi12  1  0.00004027  0.50003841  0.49998709  1
  Bi  Bi13  1  0.00015099  0.49993714  0.27777472  1
  Bi  Bi14  1  0.50000176  0.50000176  0.44444282  1
  Bi  Bi15  1  0.50001190  0.99999808  0.38888345  1
  Bi  Bi16  1  0.99999808  0.50001190  0.38888345  1
  Bi  Bi17  1  0.50003848  0.50003848  0.49998720  1
  Bi  Bi18  1  0.50011392  0.50011392  0.55551842  1
  Bi  Bi19  1  0.50003841  0.00004027  0.49998709  1
  Bi  Bi20  1  0.50002204  0.50002204  0.61111769  1
  Bi  Bi21  1  0.49944535  0.49944535  0.66685378  1
  Bi  Bi22  1  0.50001746  -0.00006737  0.61111719  1
  Bi  Bi23  1  0.49854074  0.49854074  0.72293106  1
  Bi  Bi24  1  -0.00006737  0.50001746  0.61111719  1
  Bi  Bi25  1  0.49115307  0.49115307  0.78072438  1
  Bi  Bi26  1  0.49853642  0.99657458  0.72292920  1
  Bi  Bi27  1  0.99657458  0.49853642  0.72292920  1
  Bi  Bi28  1  0.49537635  0.49537635  0.83303660  1
  Bi  Bi29  1  0.49716441  0.01476439  0.94343271  1
  Bi  Bi30  1  0.49609511  0.49609511  0.89019344  1
  Bi  Bi31  1  0.49535847  0.01194249  0.83303498  1
  Bi  Bi32  1  0.01194249  0.49535847  0.83303498  1
  Bi  Bi33  1  0.49717179  0.49717179  0.94343182  1
  Bi  Bi34  1  0.50028481  0.50028481  0.99990542  1
  Bi  Bi35  1  0.01476439  0.49716441  0.94343271  1
  Ir  Ir0  1  0.00013476  0.00013476  0.00002060  1
  Ir  Ir1  1  0.49954800  0.00013430  0.00002024  1
  Ir  Ir2  1  0.00013430  0.49954800  0.00002024  1
  Ir  Ir3  1  0.00014754  0.00014754  0.05550462  1
  Ir  Ir4  1  0.49996752  0.99958938  0.11120448  1
  Ir  Ir5  1  0.99958938  0.49996752  0.11120448  1
  Ir  Ir6  1  0.49960991  0.00026521  0.22220595  1
  Ir  Ir7  1  0.99958972  0.99958972  0.11120439  1
  Ir  Ir8  1  0.00026521  0.49960991  0.22220595  1
  Ir  Ir9  1  0.00000035  0.00000035  0.27777616  1
  Ir  Ir10  1  0.99978423  0.99978423  0.16673604  1
  Ir  Ir11  1  0.50005309  0.00015374  0.33329409  1
  Ir  Ir12  1  0.00026348  0.00026348  0.22220601  1
  Ir  Ir13  1  0.00015374  0.50005309  0.33329409  1
  Ir  Ir14  1  0.00003099  0.00003099  0.49998987  1
  Ir  Ir15  1  0.50002899  -0.00005646  0.44445442  1
  Ir  Ir16  1  0.00015348  0.00015348  0.33329438  1
  Ir  Ir17  1  -0.00005646  0.50002899  0.44445442  1
  Ir  Ir18  1  0.00005556  0.00005556  0.38887158  1
  Ir  Ir19  1  0.50012009  0.00031513  0.55547110  1
  Ir  Ir20  1  -0.00005914  -0.00005914  0.44445418  1
  Ir  Ir21  1  0.00031513  0.50012009  0.55547110  1
  Ir  Ir22  1  0.00014729  0.00014729  0.72217340  1
  Ir  Ir23  1  0.00031827  0.00031827  0.55547143  1
  Ir  Ir24  1  0.50034670  0.99996313  0.66663512  1
  Ir  Ir25  1  0.00015078  0.00015078  0.61105948  1
  Ir  Ir26  1  0.99996313  0.50034670  0.66663512  1
  Ir  Ir27  1  0.99996328  0.99996328  0.66663512  1
  Ir  Ir28  1  0.49984771  -0.00023343  0.77784709  1
  Ir  Ir29  1  -0.00023343  0.49984771  0.77784709  1
  Ir  Ir30  1  0.50077350  0.99982839  0.88884123  1
  Ir  Ir31  1  -0.00023143  -0.00023143  0.77784726  1
  Ir  Ir32  1  0.99982839  0.50077350  0.88884123  1
  Ir  Ir33  1  0.99992283  0.99992283  0.83336067  1
  Ir  Ir34  1  0.99966600  0.99966600  0.94455692  1
  Ir  Ir35  1  0.99983004  0.99983004  0.88884169  1
  O  O0  1  0.08427062  0.08427062  0.07400162  1
  O  O1  1  0.08146439  0.66563342  0.00969788  1
  O  O2  1  0.36741865  0.36741865  0.04419326  1
  O  O3  1  0.08427258  0.66544360  0.07400156  1
  O  O4  1  0.66563342  0.08146439  0.00969788  1
  O  O5  1  0.33099779  0.33099779  0.10220584  1
  O  O6  1  0.08180438  0.08180438  0.18536674  1
  O  O7  1  0.08465283  0.66754589  0.12002803  1
  O  O8  1  0.33003083  0.91926753  0.03682392  1
  O  O9  1  0.66544360  0.08427258  0.07400156  1
  O  O10  1  0.66562295  0.66562295  0.00969871  1
  O  O11  1  0.08180599  0.66810162  0.18536650  1
  O  O12  1  0.33099941  0.91813661  0.10220554  1
  O  O13  1  0.66754589  0.08465283  0.12002803  1
  O  O14  1  0.91926753  0.33003083  0.03682392  1
  O  O15  1  0.38725264  0.38725264  0.14869488  1
  O  O16  1  0.08164719  0.08164719  0.29649840  1
  O  O17  1  0.33107941  0.33107941  0.21323673  1
  O  O18  1  0.08151262  0.66848431  0.23128060  1
  O  O19  1  0.33298552  0.91733054  0.14803807  1
  O  O20  1  0.66810162  0.08180599  0.18536650  1
  O  O21  1  0.91813661  0.33099941  0.10220554  1
  O  O22  1  0.66754824  0.66754824  0.12002834  1
  O  O23  1  0.91927342  0.91927342  0.03682320  1
  O  O24  1  0.08164729  0.66821263  0.29649801  1
  O  O25  1  0.62690395  0.62690395  0.17992012  1
  O  O26  1  0.33107587  0.91871423  0.21323760  1
  O  O27  1  0.66848431  0.08151262  0.23128060  1
  O  O28  1  0.37557708  0.37557708  0.26369698  1
  O  O29  1  0.91733054  0.33298552  0.14803807  1
  O  O30  1  0.08184943  0.08184943  0.40757496  1
  O  O31  1  0.08144214  0.66844252  0.34240688  1
  O  O32  1  0.33149870  0.33149870  0.32427343  1
  O  O33  1  0.33185554  0.91824551  0.25907184  1
  O  O34  1  0.66821263  0.08164729  0.29649801  1
  O  O35  1  0.91871423  0.33107587  0.21323760  1
  O  O36  1  0.66848112  0.66848112  0.23128070  1
  O  O37  1  0.91733544  0.91733544  0.14803815  1
  O  O38  1  0.37525527  0.37525527  0.37491424  1
  O  O39  1  0.62468757  0.62468757  0.29177203  1
  O  O40  1  0.33149663  0.91852683  0.32427342  1
  O  O41  1  0.91824551  0.33185554  0.25907184  1
  O  O42  1  0.66844252  0.08144214  0.34240688  1
  O  O43  1  0.08185321  0.66813429  0.40757466  1
  O  O44  1  0.33167599  0.33167599  0.43535705  1
  O  O45  1  0.08167660  0.08167660  0.51872088  1
  O  O46  1  0.08156341  0.66835757  0.45352580  1
  O  O47  1  0.33186735  0.91822886  0.37018443  1
  O  O48  1  0.66813429  0.08185321  0.40757466  1
  O  O49  1  0.66844398  0.66844398  0.34240745  1
  O  O50  1  0.91852683  0.33149663  0.32427342  1
  O  O51  1  0.91824894  0.91824894  0.25907138  1
  O  O52  1  0.66835757  0.08156341  0.45352580  1
  O  O53  1  0.62480259  0.62480259  0.40284412  1
  O  O54  1  0.37527826  0.37527826  0.48601703  1
  O  O55  1  0.91822886  0.33186735  0.37018443  1
  O  O56  1  0.08168325  0.66815345  0.51871990  1
  O  O57  1  0.33167613  0.91843626  0.43535754  1
  O  O58  1  0.33179346  0.91822487  0.48130641  1
  O  O59  1  0.08184669  0.08184669  0.62982621  1
  O  O60  1  0.33156803  0.33156803  0.54648727  1
  O  O61  1  0.08155673  0.66837964  0.56463214  1
  O  O62  1  0.66815345  0.08168325  0.51871990  1
  O  O63  1  0.91843626  0.33167613  0.43535754  1
  O  O64  1  0.66835670  0.66835670  0.45352538  1
  O  O65  1  0.91823327  0.91823327  0.37018473  1
  O  O66  1  0.33155865  0.91847429  0.54648717  1
  O  O67  1  0.66837964  0.08155673  0.56463214  1
  O  O68  1  0.91822487  0.33179346  0.48130641  1
  O  O69  1  0.37528479  0.37528479  0.59712683  1
  O  O70  1  0.62475248  0.62475248  0.51397230  1
  O  O71  1  0.08185240  0.66787464  0.62982623  1
  O  O72  1  0.33186272  0.91816647  0.59242110  1
  O  O73  1  0.33166308  0.33166308  0.65759806  1
  O  O74  1  0.08294299  0.08294299  0.74082014  1
  O  O75  1  0.08157947  0.66862675  0.67568760  1
  O  O76  1  0.91822803  0.91822803  0.48130639  1
  O  O77  1  0.66787464  0.08185240  0.62982623  1
  O  O78  1  0.91847429  0.33155865  0.54648717  1
  O  O79  1  0.66837064  0.66837064  0.56463295  1
  O  O80  1  0.66862675  0.08157947  0.67568760  1
  O  O81  1  0.91816647  0.33186272  0.59242110  1
  O  O82  1  0.62440935  0.62440935  0.62519725  1
  O  O83  1  0.37310485  0.37310485  0.70896519  1
  O  O84  1  0.08294559  0.66673148  0.74081980  1
  O  O85  1  0.33166530  0.91829279  0.65759865  1
  O  O86  1  0.33275828  0.33275828  0.76881909  1
  O  O87  1  0.08144498  0.08144498  0.85202791  1
  O  O88  1  0.33215548  0.91791771  0.70355742  1
  O  O89  1  0.08205356  0.66904179  0.78665131  1
  O  O90  1  0.91817250  0.91817250  0.59241984  1
  O  O91  1  0.66673148  0.08294559  0.74081980  1
  O  O92  1  0.91829279  0.33166530  0.65759865  1
  O  O93  1  0.66862366  0.66862366  0.67568747  1
  O  O94  1  0.66904179  0.08205356  0.78665131  1
  O  O95  1  0.91791771  0.33215548  0.70355742  1
  O  O96  1  0.33275804  0.91511076  0.76881887  1
  O  O97  1  0.08144372  0.66885650  0.85202869  1
  O  O98  1  0.61282547  0.61282547  0.74016905  1
  O  O99  1  0.33461858  0.33461858  0.87946724  1
  O  O100  1  0.08074300  0.08074300  0.96322051  1
  O  O101  1  0.33479283  0.91562277  0.81488394  1
  O  O102  1  0.08128936  0.66856735  0.89795376  1
  O  O103  1  0.66885650  0.08144372  0.85202869  1
  O  O104  1  0.91511076  0.33275804  0.76881887  1
  O  O105  1  0.91791957  0.91791957  0.70355691  1
  O  O106  1  0.66904001  0.66904001  0.78665146  1
  O  O107  1  0.66856735  0.08128936  0.89795376  1
  O  O108  1  0.91562277  0.33479283  0.81488394  1
  O  O109  1  0.62494302  0.62494302  0.84724075  1
  O  O110  1  0.33462279  0.91555527  0.87946820  1
  O  O111  1  0.08074589  0.66954031  0.96322009  1
  O  O112  1  0.33399378  0.33399378  0.99037403  1
  O  O113  1  0.33436446  0.91574926  0.92601475  1
  O  O114  1  0.91555527  0.33462279  0.87946820  1
  O  O115  1  0.66954031  0.08074589  0.96322009  1
  O  O116  1  0.66856851  0.66856851  0.89795347  1
  O  O117  1  0.91562392  0.91562392  0.81488425  1
  O  O118  1  0.63224436  0.63224436  0.95591946  1
  O  O119  1  0.91574926  0.33436446  0.92601475  1
  O  O120  1  0.33398307  0.91864808  0.99037454  1
  O  O121  1  0.91864808  0.33398307  0.99037454  1
  O  O122  1  0.91575086  0.91575086  0.92601499  1
loop_
_geom_bond_atom_site_label_1
_geom_bond_atom_site_label_2
_geom_bond_distance
_geom_bond_site_symmetry_2
Bi0 O2 2.289530 1_565
Bi0 O12 2.516036 1_555
Bi0 O9 2.529736 1_565
Bi0 O0 2.529835 1_565
Bi0 O4 2.536205 1_565
Bi0 O23 2.540389 1_555
Bi0 O8 2.540633 1_555
Bi1 O2 2.289517 1_555
Bi1 O5 2.516141 1_555
Bi1 O9 2.529778 1_555
Bi1 O3 2.529778 1_555
Bi1 O10 2.536062 1_555
Bi1 O8 2.540413 1_555
Bi1 O14 2.540413 1_555
Bi2 O15 2.177251 1_555
Bi2 O12 2.516047 1_555
Bi2 O21 2.516047 1_555
Bi2 O5 2.516193 1_555
Bi2 O13 2.554386 1_555
Bi2 O7 2.554386 1_555
Bi2 O22 2.554402 1_555
Bi3 O2 2.289530 1_655
Bi3 O21 2.516036 1_555
Bi3 O3 2.529736 1_655
Bi3 O0 2.529835 1_655
Bi3 O1 2.536205 1_655
Bi3 O23 2.540389 1_555
Bi3 O14 2.540633 1_555
Bi4 O25 2.260396 1_555
Bi4 O15 2.312929 1_555
Bi4 O22 2.507904 1_555
Bi4 O19 2.520188 1_555
Bi4 O29 2.520188 1_555
Bi4 O20 2.550856 1_555
Bi4 O11 2.550856 1_555
Bi4 O17 2.578890 1_555
Bi5 O28 2.254909 1_555
Bi5 O39 2.255120 1_545
Bi5 O27 2.538695 1_555
Bi5 O40 2.538709 1_545
Bi5 O51 2.538971 1_545
Bi5 O33 2.539008 1_545
Bi5 O34 2.539188 1_555
Bi5 O16 2.539208 1_555
Bi6 O28 2.250142 1_555
Bi6 O25 2.275355 1_555
Bi6 O26 2.540851 1_555
Bi6 O35 2.540851 1_555
Bi6 O17 2.540869 1_555
Bi6 O36 2.542563 1_555
Bi6 O27 2.542567 1_555
Bi6 O18 2.542567 1_555
Bi7 O25 2.260498 1_545
Bi7 O15 2.312882 1_555
Bi7 O13 2.507877 1_555
Bi7 O37 2.520183 1_545
Bi7 O19 2.520304 1_545
Bi7 O6 2.550883 1_555
Bi7 O20 2.550925 1_555
Bi7 O26 2.579004 1_545
Bi8 O28 2.254906 1_555
Bi8 O39 2.255215 1_555
Bi8 O32 2.538666 1_555
Bi8 O36 2.538726 1_555
Bi8 O33 2.538973 1_555
Bi8 O41 2.538974 1_555
Bi8 O34 2.539183 1_555
Bi8 O24 2.539183 1_555
Bi9 O25 2.260499 1_455
Bi9 O15 2.312882 1_555
Bi9 O7 2.507877 1_555
Bi9 O37 2.520183 1_455
Bi9 O29 2.520304 1_455
Bi9 O6 2.550883 1_555
Bi9 O11 2.550925 1_555
Bi9 O35 2.579004 1_455
Bi10 O39 2.244578 1_555
Bi10 O38 2.246636 1_555
Bi10 O40 2.540820 1_555
Bi10 O50 2.540820 1_555
Bi10 O32 2.540876 1_555
Bi10 O42 2.541056 1_555
Bi10 O31 2.541056 1_555
Bi10 O49 2.541108 1_555
Bi11 O38 2.253718 1_555
Bi11 O53 2.253785 1_555
Bi11 O44 2.537336 1_555
Bi11 O49 2.537594 1_555
Bi11 O48 2.538088 1_555
Bi11 O43 2.538089 1_555
Bi11 O47 2.538501 1_555
Bi11 O55 2.538501 1_555
Bi12 O54 2.253764 1_555
Bi12 O70 2.254064 1_455
Bi12 O46 2.536700 1_555
Bi12 O76 2.538290 1_455
Bi12 O68 2.538301 1_455
Bi12 O78 2.538841 1_455
Bi12 O56 2.539502 1_555
Bi12 O45 2.539528 1_555
Bi13 O28 2.254909 1_555
Bi13 O39 2.255120 1_455
Bi13 O18 2.538695 1_555
Bi13 O50 2.538709 1_455
Bi13 O51 2.538971 1_455
Bi13 O41 2.539008 1_455
Bi13 O24 2.539188 1_555
Bi13 O16 2.539208 1_555
Bi14 O54 2.245775 1_555
Bi14 O53 2.247098 1_555
Bi14 O44 2.540055 1_555
Bi14 O57 2.540109 1_555
Bi14 O63 2.540109 1_555
Bi14 O52 2.540152 1_555
Bi14 O46 2.540152 1_555
Bi14 O64 2.540265 1_555
Bi15 O53 2.253508 1_555
Bi15 O38 2.253879 1_565
Bi15 O57 2.537384 1_555
Bi15 O42 2.537632 1_565
Bi15 O30 2.538084 1_565
Bi15 O48 2.538339 1_565
Bi15 O47 2.538458 1_555
Bi15 O65 2.538532 1_555
Bi16 O53 2.253508 1_555
Bi16 O38 2.253879 1_655
Bi16 O63 2.537383 1_555
Bi16 O31 2.537632 1_655
Bi16 O30 2.538084 1_655
Bi16 O43 2.538339 1_655
Bi16 O55 2.538458 1_555
Bi16 O65 2.538532 1_555
Bi17 O54 2.253873 1_555
Bi17 O70 2.254126 1_555
Bi17 O64 2.536721 1_555
Bi17 O58 2.538272 1_555
Bi17 O68 2.538272 1_555
Bi17 O60 2.538835 1_555
Bi17 O62 2.539481 1_555
Bi17 O56 2.539481 1_555
Bi18 O70 2.244257 1_555
Bi18 O69 2.247622 1_555
Bi18 O66 2.540097 1_555
Bi18 O78 2.540097 1_555
Bi18 O60 2.540190 1_555
Bi18 O79 2.540571 1_555
Bi18 O67 2.540640 1_555
Bi18 O61 2.540640 1_555
Bi19 O54 2.253764 1_555
Bi19 O70 2.254064 1_545
Bi19 O52 2.536700 1_555
Bi19 O76 2.538290 1_545
Bi19 O58 2.538301 1_545
Bi19 O66 2.538841 1_545
Bi19 O62 2.539502 1_555
Bi19 O45 2.539528 1_555
Bi20 O69 2.254717 1_555
Bi20 O82 2.255322 1_555
Bi20 O73 2.537685 1_555
Bi20 O79 2.537875 1_555
Bi20 O77 2.538051 1_555
Bi20 O71 2.538051 1_555
Bi20 O72 2.538100 1_555
Bi20 O81 2.538100 1_555
Bi21 O82 2.250222 1_555
Bi21 O83 2.274793 1_555
Bi21 O93 2.538664 1_555
Bi21 O80 2.538682 1_555
Bi21 O75 2.538682 1_555
Bi21 O85 2.541294 1_555
Bi21 O92 2.541294 1_555
Bi21 O73 2.541424 1_555
Bi22 O69 2.254451 1_555
Bi22 O82 2.255492 1_545
Bi22 O85 2.537726 1_545
Bi22 O67 2.537942 1_555
Bi22 O77 2.538029 1_555
Bi22 O59 2.538079 1_555
Bi22 O90 2.538122 1_545
Bi22 O72 2.538341 1_545
Bi23 O83 2.261755 1_555
Bi23 O98 2.311113 1_555
Bi23 O86 2.504554 1_555
Bi23 O91 2.518215 1_555
Bi23 O84 2.518216 1_555
Bi23 O88 2.548884 1_555
Bi23 O95 2.548884 1_555
Bi23 O93 2.577463 1_555
Bi24 O69 2.254451 1_555
Bi24 O82 2.255492 1_455
Bi24 O92 2.537726 1_455
Bi24 O61 2.537942 1_555
Bi24 O71 2.538029 1_555
Bi24 O59 2.538079 1_555
Bi24 O90 2.538122 1_455
Bi24 O81 2.538341 1_455
Bi25 O98 2.190736 1_555
Bi25 O94 2.513614 1_555
Bi25 O89 2.513615 1_555
Bi25 O106 2.513741 1_555
Bi25 O86 2.555666 1_555
Bi25 O96 2.555768 1_555
Bi25 O104 2.555768 1_555
Bi26 O83 2.261524 1_565
Bi26 O98 2.311312 1_555
Bi26 O96 2.504624 1_555
Bi26 O91 2.518188 1_565
Bi26 O74 2.518233 1_565
Bi26 O105 2.548893 1_555
Bi26 O88 2.548929 1_555
Bi26 O80 2.577381 1_565
Bi27 O83 2.261524 1_655
Bi27 O98 2.311312 1_555
Bi27 O104 2.504624 1_555
Bi27 O84 2.518188 1_655
Bi27 O74 2.518233 1_655
Bi27 O105 2.548893 1_555
Bi27 O95 2.548929 1_555
Bi27 O75 2.577381 1_655
Bi28 O109 2.324272 1_555
Bi28 O99 2.522977 1_555
Bi28 O103 2.524038 1_555
Bi28 O97 2.524038 1_555
Bi28 O101 2.539409 1_555
Bi28 O108 2.539409 1_555
Bi28 O106 2.543935 1_555
Bi29 O118 2.299566 1_545
Bi29 O107 2.496760 1_555
Bi29 O113 2.527348 1_545
Bi29 O122 2.527378 1_545
Bi29 O100 2.543740 1_555
Bi29 O115 2.543912 1_555
Bi29 O120 2.551677 1_545
Bi30 O109 2.320238 1_555
Bi30 O116 2.529334 1_555
Bi30 O107 2.529432 1_555
Bi30 O102 2.529432 1_555
Bi30 O110 2.534541 1_555
Bi30 O114 2.534541 1_555
Bi30 O99 2.534734 1_555
Bi31 O109 2.324420 1_545
Bi31 O110 2.523110 1_545
Bi31 O87 2.523937 1_555
Bi31 O103 2.524155 1_555
Bi31 O101 2.539407 1_545
Bi31 O117 2.539504 1_545
Bi31 O94 2.543896 1_555
Bi32 O109 2.324420 1_455
Bi32 O114 2.523110 1_455
Bi32 O87 2.523937 1_555
Bi32 O97 2.524155 1_555
Bi32 O108 2.539407 1_455
Bi32 O117 2.539504 1_455
Bi32 O89 2.543896 1_555
Bi33 O118 2.299671 1_555
Bi33 O116 2.496727 1_555
Bi33 O113 2.527323 1_555
Bi33 O119 2.527323 1_555
Bi33 O115 2.543791 1_555
Bi33 O111 2.543791 1_555
Bi33 O112 2.551684 1_555
Bi34 O118 2.376054 1_555
Bi34 O2 2.392361 1_556
Bi34 O120 2.536084 1_555
Bi34 O121 2.536084 1_555
Bi34 O112 2.536108 1_555
Bi34 O10 2.536935 1_556
Bi34 O4 2.536949 1_556
Bi34 O1 2.536949 1_556
Bi35 O118 2.299566 1_455
Bi35 O102 2.496760 1_555
Bi35 O119 2.527348 1_455
Bi35 O122 2.527378 1_455
Bi35 O100 2.543740 1_555
Bi35 O111 2.543912 1_555
Bi35 O121 2.551677 1_455
Ir0 O23 2.023363 1_445
Ir0 O100 2.023814 1_554
Ir0 O121 2.034915 1_454
Ir0 O120 2.034915 1_544
Ir0 O1 2.039134 1_545
Ir0 O4 2.039134 1_455
Ir1 O8 2.023424 1_545
Ir1 O115 2.023815 1_554
Ir1 O112 2.034987 1_554
Ir1 O120 2.035032 1_544
Ir1 O10 2.039190 1_545
Ir1 O4 2.039235 1_555
Ir2 O14 2.023424 1_455
Ir2 O111 2.023815 1_554
Ir2 O112 2.034987 1_554
Ir2 O121 2.035032 1_454
Ir2 O10 2.039190 1_455
Ir2 O1 2.039235 1_555
Ir3 O14 2.015480 1_455
Ir3 O8 2.015480 1_545
Ir3 O23 2.015504 1_445
Ir3 O3 2.040299 1_545
Ir3 O9 2.040299 1_455
Ir3 O0 2.040413 1_555
Ir4 O19 2.021969 1_555
Ir4 O5 2.025188 1_565
Ir4 O12 2.025219 1_555
Ir4 O22 2.027185 1_555
Ir4 O13 2.027269 1_565
Ir4 O9 2.038735 1_565
Ir5 O29 2.021969 1_555
Ir5 O5 2.025188 1_655
Ir5 O21 2.025218 1_555
Ir5 O22 2.027185 1_555
Ir5 O7 2.027269 1_655
Ir5 O3 2.038735 1_655
Ir6 O26 2.021342 1_545
Ir6 O17 2.021399 1_555
Ir6 O20 2.023994 1_555
Ir6 O33 2.024456 1_545
Ir6 O36 2.027143 1_545
Ir6 O27 2.027216 1_555
Ir7 O37 2.022003 1_555
Ir7 O21 2.025190 1_565
Ir7 O12 2.025190 1_655
Ir7 O7 2.027184 1_655
Ir7 O13 2.027184 1_565
Ir7 O0 2.038724 1_665
Ir8 O35 2.021342 1_455
Ir8 O17 2.021399 1_555
Ir8 O11 2.023994 1_555
Ir8 O41 2.024456 1_455
Ir8 O36 2.027143 1_455
Ir8 O18 2.027216 1_555
Ir9 O24 2.026418 1_545
Ir9 O34 2.026418 1_455
Ir9 O16 2.026485 1_555
Ir9 O51 2.026591 1_445
Ir9 O41 2.026609 1_455
Ir9 O33 2.026609 1_545
Ir10 O11 2.024894 1_655
Ir10 O20 2.024894 1_565
Ir10 O6 2.025113 1_665
Ir10 O37 2.033886 1_555
Ir10 O29 2.033983 1_565
Ir10 O19 2.033983 1_655
Ir11 O34 2.021455 1_555
Ir11 O32 2.024352 1_555
Ir11 O40 2.024506 1_545
Ir11 O42 2.026097 1_555
Ir11 O47 2.026166 1_545
Ir11 O49 2.026174 1_545
Ir12 O35 2.021407 1_455
Ir12 O26 2.021407 1_545
Ir12 O6 2.023973 1_555
Ir12 O51 2.024446 1_445
Ir12 O18 2.027099 1_545
Ir12 O27 2.027100 1_455
Ir13 O24 2.021455 1_555
Ir13 O32 2.024352 1_555
Ir13 O50 2.024506 1_455
Ir13 O31 2.026097 1_555
Ir13 O55 2.026166 1_455
Ir13 O49 2.026174 1_455
Ir14 O68 2.025881 1_455
Ir14 O58 2.025881 1_545
Ir14 O76 2.025881 1_445
Ir14 O45 2.026999 1_555
Ir14 O56 2.026999 1_545
Ir14 O62 2.026999 1_455
Ir15 O58 2.024319 1_545
Ir15 O64 2.025422 1_545
Ir15 O52 2.025462 1_555
Ir15 O48 2.025548 1_555
Ir15 O44 2.026255 1_555
Ir15 O57 2.026269 1_545
Ir16 O16 2.021481 1_555
Ir16 O50 2.024309 1_455
Ir16 O40 2.024309 1_545
Ir16 O65 2.026163 1_445
Ir16 O31 2.026201 1_545
Ir16 O42 2.026201 1_455
Ir17 O68 2.024319 1_455
Ir17 O64 2.025422 1_455
Ir17 O46 2.025462 1_555
Ir17 O43 2.025548 1_555
Ir17 O44 2.026255 1_555
Ir17 O63 2.026269 1_455
Ir18 O55 2.026191 1_455
Ir18 O47 2.026191 1_545
Ir18 O65 2.026297 1_445
Ir18 O43 2.026961 1_545
Ir18 O48 2.026961 1_455
Ir18 O30 2.026976 1_555
Ir19 O62 2.019081 1_555
Ir19 O60 2.023845 1_555
Ir19 O66 2.023898 1_545
Ir19 O79 2.027311 1_545
Ir19 O67 2.027371 1_555
Ir19 O72 2.029212 1_545
Ir20 O76 2.024351 1_445
Ir20 O46 2.025387 1_545
Ir20 O52 2.025387 1_455
Ir20 O30 2.025521 1_555
Ir20 O63 2.026278 1_455
Ir20 O57 2.026278 1_545
Ir21 O56 2.019081 1_555
Ir21 O60 2.023845 1_555
Ir21 O78 2.023898 1_455
Ir21 O79 2.027311 1_455
Ir21 O61 2.027371 1_555
Ir21 O81 2.029212 1_455
Ir22 O95 2.026546 1_455
Ir22 O88 2.026546 1_545
Ir22 O105 2.026556 1_445
Ir22 O84 2.034644 1_545
Ir22 O91 2.034644 1_455
Ir22 O74 2.034656 1_555
Ir23 O45 2.019066 1_555
Ir23 O78 2.023758 1_455
Ir23 O66 2.023758 1_545
Ir23 O61 2.027280 1_545
Ir23 O67 2.027280 1_455
Ir23 O90 2.029129 1_445
Ir24 O77 2.021363 1_565
Ir24 O93 2.023998 1_555
Ir24 O80 2.024179 1_565
Ir24 O85 2.026364 1_555
Ir24 O73 2.026460 1_565
Ir24 O88 2.027760 1_555
Ir25 O81 2.025137 1_455
Ir25 O72 2.025137 1_545
Ir25 O90 2.025187 1_445
Ir25 O71 2.029582 1_545
Ir25 O77 2.029582 1_455
Ir25 O59 2.029701 1_555
Ir26 O71 2.021363 1_655
Ir26 O93 2.023998 1_555
Ir26 O75 2.024179 1_655
Ir26 O92 2.026364 1_555
Ir26 O73 2.026461 1_655
Ir26 O95 2.027760 1_555
Ir27 O59 2.021359 1_665
Ir27 O75 2.023946 1_655
Ir27 O80 2.023947 1_565
Ir27 O92 2.026493 1_565
Ir27 O85 2.026493 1_655
Ir27 O105 2.027766 1_555
Ir28 O94 2.021704 1_555
Ir28 O106 2.021727 1_545
Ir28 O101 2.029976 1_545
Ir28 O91 2.031504 1_555
Ir28 O86 2.031820 1_555
Ir28 O96 2.031879 1_545
Ir29 O89 2.021704 1_555
Ir29 O106 2.021727 1_455
Ir29 O108 2.029976 1_455
Ir29 O84 2.031504 1_555
Ir29 O86 2.031820 1_555
Ir29 O104 2.031879 1_455
Ir30 O103 2.022184 1_565
Ir30 O116 2.023001 1_555
Ir30 O107 2.023059 1_565
Ir30 O113 2.038276 1_555
Ir30 O110 2.040684 1_555
Ir30 O99 2.040722 1_565
Ir31 O89 2.021742 1_545
Ir31 O94 2.021742 1_455
Ir31 O117 2.029981 1_445
Ir31 O74 2.031519 1_555
Ir31 O104 2.031791 1_455
Ir31 O96 2.031791 1_545
Ir32 O97 2.022184 1_655
Ir32 O116 2.023001 1_555
Ir32 O102 2.023059 1_655
Ir32 O119 2.038276 1_555
Ir32 O114 2.040684 1_555
Ir32 O99 2.040722 1_655
Ir33 O87 2.021804 1_665
Ir33 O97 2.021876 1_655
Ir33 O103 2.021876 1_565
Ir33 O108 2.041024 1_565
Ir33 O101 2.041024 1_655
Ir33 O117 2.041137 1_555
Ir34 O111 2.016633 1_655
Ir34 O115 2.016633 1_565
Ir34 O100 2.016670 1_665
Ir34 O119 2.040712 1_565
Ir34 O113 2.040713 1_655
Ir34 O122 2.040790 1_555
Ir35 O87 2.022269 1_665
Ir35 O102 2.023015 1_655
Ir35 O107 2.023015 1_565
Ir35 O122 2.038267 1_555
Ir35 O114 2.040737 1_565
Ir35 O110 2.040737 1_655
