# generated using pymatgen
data_Ba2ErNbO6
_symmetry_space_group_name_H-M   'P 1'
_cell_length_a   6.02527244
_cell_length_b   6.02527244
_cell_length_c   6.02527244
_cell_angle_alpha   60.00000000
_cell_angle_beta   60.00000000
_cell_angle_gamma   60.00000000
_symmetry_Int_Tables_number   1
_chemical_formula_structural   Ba2ErNbO6
_chemical_formula_sum   'Ba2 Er1 Nb1 O6'
_cell_volume   154.67319922
_cell_formula_units_Z   1
loop_
 _symmetry_equiv_pos_site_id
 _symmetry_equiv_pos_as_xyz
  1  'x, y, z'
loop_
 _atom_site_type_symbol
 _atom_site_label
 _atom_site_symmetry_multiplicity
 _atom_site_fract_x
 _atom_site_fract_y
 _atom_site_fract_z
 _atom_site_occupancy
  Ba  Ba0  1  0.25000000  0.25000000  0.25000000  1
  Ba  Ba1  1  0.75000000  0.75000000  0.75000000  1
  Er  Er0  1  0.00000000  0.00000000  0.00000000  1
  Nb  Nb0  1  0.50000000  0.50000000  0.50000000  1
  O  O0  1  0.73804100  0.73804100  0.26195900  1
  O  O1  1  0.73804100  0.26195900  0.73804100  1
  O  O2  1  0.26195900  0.73804100  0.26195900  1
  O  O3  1  0.73804100  0.26195900  0.26195900  1
  O  O4  1  0.26195900  0.26195900  0.73804100  1
  O  O5  1  0.26195900  0.73804100  0.73804100  1
loop_
_geom_bond_atom_site_label_1
_geom_bond_atom_site_label_2
_geom_bond_distance
_geom_bond_site_symmetry_2
Ba0 O4 3.014359 1_555
Ba0 O3 3.014359 1_555
Ba0 O2 3.014359 1_555
Ba0 O5 3.014359 1_554
Ba0 O5 3.014359 1_545
Ba0 O1 3.014359 1_455
Ba0 O1 3.014359 1_554
Ba0 O0 3.014359 1_545
Ba0 O0 3.014359 1_455
Ba0 O4 3.014359 1_554
Ba0 O3 3.014359 1_455
Ba0 O2 3.014359 1_545
Ba1 O0 3.014359 1_556
Ba1 O5 3.014359 1_655
Ba1 O1 3.014359 1_565
Ba1 O4 3.014359 1_655
Ba1 O2 3.014359 1_556
Ba1 O2 3.014359 1_655
Ba1 O4 3.014359 1_565
Ba1 O3 3.014359 1_556
Ba1 O3 3.014359 1_565
Ba1 O1 3.014359 1_555
Ba1 O5 3.014359 1_555
Ba1 O0 3.014359 1_555
Er0 O3 2.232158 1_455
Er0 O2 2.232158 1_545
Er0 O4 2.232158 1_554
Er0 O0 2.232158 1_445
Er0 O1 2.232158 1_454
Er0 O5 2.232158 1_544
Nb0 O5 2.028353 1_555
Nb0 O0 2.028353 1_555
Nb0 O1 2.028353 1_555
Nb0 O4 2.028353 1_555
Nb0 O3 2.028353 1_555
Nb0 O2 2.028353 1_555
