# generated using pymatgen
data_Gd13Ge6O31F
_symmetry_space_group_name_H-M   'P 1'
_cell_length_a   9.83357549
_cell_length_b   9.83357499
_cell_length_c   9.83357577
_cell_angle_alpha   109.80993900
_cell_angle_beta   109.80993792
_cell_angle_gamma   109.80993592
_symmetry_Int_Tables_number   1
_chemical_formula_structural   Gd13Ge6O31F
_chemical_formula_sum   'Gd13 Ge6 O31 F1'
_cell_volume   722.67684041
_cell_formula_units_Z   1
loop_
 _symmetry_equiv_pos_site_id
 _symmetry_equiv_pos_as_xyz
  1  'x, y, z'
loop_
 _atom_site_type_symbol
 _atom_site_label
 _atom_site_symmetry_multiplicity
 _atom_site_fract_x
 _atom_site_fract_y
 _atom_site_fract_z
 _atom_site_occupancy
  Gd  Gd0  1  0.85161734  0.94243724  0.27533975  1
  Gd  Gd1  1  0.94243724  0.27533975  0.85161734  1
  Gd  Gd2  1  0.18522087  0.46911527  0.32940750  1
  Gd  Gd3  1  0.00505510  0.00505510  0.00505510  1
  Gd  Gd4  1  0.15468165  0.06065211  0.72562597  1
  Gd  Gd5  1  0.72562597  0.15468165  0.06065211  1
  Gd  Gd6  1  0.82818719  0.52470388  0.67647361  1
  Gd  Gd7  1  0.06065211  0.72562597  0.15468165  1
  Gd  Gd8  1  0.52470388  0.67647361  0.82818719  1
  Gd  Gd9  1  0.27533975  0.85161734  0.94243724  1
  Gd  Gd10  1  0.46911527  0.32940750  0.18522087  1
  Gd  Gd11  1  0.67647361  0.82818719  0.52470388  1
  Gd  Gd12  1  0.32940750  0.18522087  0.46911527  1
  Ge  Ge0  1  0.06929194  0.34210337  0.55681862  1
  Ge  Ge1  1  0.44678572  0.93386236  0.66019239  1
  Ge  Ge2  1  0.66019239  0.44678572  0.93386236  1
  Ge  Ge3  1  0.93386236  0.66019239  0.44678572  1
  Ge  Ge4  1  0.55681862  0.06929194  0.34210337  1
  Ge  Ge5  1  0.34210337  0.55681862  0.06929194  1
  O  O0  1  0.10663943  0.17675432  0.55596482  1
  O  O1  1  0.93122255  0.25026036  0.33893529  1
  O  O2  1  0.75216737  0.66631054  0.07210817  1
  O  O3  1  0.25172621  0.50916983  0.59770940  1
  O  O4  1  0.41541428  0.74849489  0.50318296  1
  O  O5  1  0.50916983  0.59770940  0.25172621  1
  O  O6  1  0.17675432  0.55596482  0.10663943  1
  O  O7  1  0.99426332  0.40801689  0.69227148  1
  O  O8  1  0.31396861  0.00926335  0.59404922  1
  O  O9  1  0.07210817  0.75216737  0.66631054  1
  O  O10  1  0.59404922  0.31396861  0.00926335  1
  O  O11  1  0.55596482  0.10663943  0.17675432  1
  O  O12  1  0.00926335  0.59404922  0.31396861  1
  O  O13  1  0.66631054  0.07210817  0.75216737  1
  O  O14  1  0.40801689  0.69227148  0.99426332  1
  O  O15  1  0.50318296  0.41541428  0.74849489  1
  O  O16  1  0.75527650  0.93091164  0.02297907  1
  O  O17  1  0.45038886  0.90102623  0.83014051  1
  O  O18  1  0.74849489  0.50318296  0.41541428  1
  O  O19  1  0.83014051  0.45038886  0.90102623  1
  O  O20  1  0.07117025  0.97763149  0.24287093  1
  O  O21  1  0.24287093  0.07117025  0.97763149  1
  O  O22  1  0.31539313  0.31539313  0.31539313  1
  O  O23  1  0.93091164  0.02297907  0.75527650  1
  O  O24  1  0.69227148  0.99426332  0.40801689  1
  O  O25  1  0.90102623  0.83014051  0.45038886  1
  O  O26  1  0.33893529  0.93122255  0.25026036  1
  O  O27  1  0.59770940  0.25172621  0.50916983  1
  O  O28  1  0.02297907  0.75527650  0.93091164  1
  O  O29  1  0.97763149  0.24287093  0.07117025  1
  O  O30  1  0.25026036  0.33893529  0.93122255  1
  F  F0  1  0.70264625  0.70264625  0.70264625  1
loop_
_geom_bond_atom_site_label_1
_geom_bond_atom_site_label_2
_geom_bond_distance
_geom_bond_site_symmetry_2
Gd0 O20 2.217799 1_655
Gd0 O16 2.282938 1_555
Gd0 O25 2.346010 1_555
Gd0 O2 2.349594 1_555
Gd0 O24 2.427656 1_555
Gd0 O0 2.509240 1_665
Gd0 O1 2.635457 1_565
Gd1 O29 2.217799 1_556
Gd1 O23 2.282937 1_555
Gd1 O19 2.346010 1_555
Gd1 O13 2.349594 1_555
Gd1 O7 2.427656 1_555
Gd1 O6 2.509240 1_656
Gd1 O30 2.635457 1_655
Gd2 O29 2.268066 1_455
Gd2 O22 2.287465 1_555
Gd2 O3 2.344213 1_555
Gd2 O4 2.360657 1_555
Gd2 O12 2.432178 1_555
Gd2 O6 2.593787 1_555
Gd2 O1 2.744235 1_455
Gd3 O29 2.340965 1_455
Gd3 O21 2.340965 1_554
Gd3 O20 2.340965 1_545
Gd3 O28 2.400493 1_544
Gd3 O16 2.400493 1_445
Gd3 O23 2.400493 1_454
Gd3 O22 3.000325 1_555
Gd4 O23 2.240497 1_455
Gd4 O21 2.283123 1_555
Gd4 O0 2.330786 1_555
Gd4 O30 2.382883 1_555
Gd4 O8 2.418669 1_555
Gd4 O25 2.473614 1_445
Gd4 O9 2.647989 1_545
Gd5 O16 2.240497 1_545
Gd5 O29 2.283123 1_555
Gd5 O11 2.330786 1_555
Gd5 O1 2.382883 1_555
Gd5 O10 2.418669 1_555
Gd5 O17 2.473614 1_544
Gd5 O13 2.647990 1_554
Gd6 O28 2.243391 1_655
Gd6 O7 2.286236 1_555
Gd6 O27 2.324803 1_555
Gd6 O18 2.324849 1_555
Gd6 O19 2.546543 1_555
Gd6 O9 2.728369 1_655
Gd7 O28 2.240497 1_554
Gd7 O20 2.283123 1_555
Gd7 O6 2.330786 1_555
Gd7 O26 2.382883 1_555
Gd7 O12 2.418669 1_555
Gd7 O19 2.473614 1_454
Gd7 O2 2.647990 1_455
Gd8 O16 2.243391 1_556
Gd8 O14 2.286236 1_555
Gd8 O3 2.324803 1_555
Gd8 O15 2.324849 1_555
Gd8 O17 2.546543 1_555
Gd8 O2 2.728369 1_556
Gd9 O21 2.217799 1_565
Gd9 O28 2.282937 1_555
Gd9 O17 2.346010 1_555
Gd9 O9 2.349594 1_555
Gd9 O14 2.427656 1_555
Gd9 O11 2.509240 1_566
Gd9 O26 2.635457 1_556
Gd10 O21 2.268066 1_554
Gd10 O22 2.287466 1_555
Gd10 O5 2.344213 1_555
Gd10 O18 2.360657 1_555
Gd10 O10 2.432178 1_555
Gd10 O11 2.593787 1_555
Gd10 O30 2.744235 1_554
Gd11 O23 2.243391 1_565
Gd11 O24 2.286236 1_555
Gd11 O5 2.324803 1_555
Gd11 O4 2.324849 1_555
Gd11 O25 2.546543 1_555
Gd11 O13 2.728369 1_565
Gd12 O20 2.268066 1_545
Gd12 O22 2.287466 1_555
Gd12 O27 2.344213 1_555
Gd12 O15 2.360657 1_555
Gd12 O8 2.432178 1_555
Gd12 O0 2.593787 1_555
Gd12 O26 2.744235 1_545
Ge0 O1 1.770660 1_455
Ge0 O7 1.773052 1_455
Ge0 O3 1.773327 1_555
Ge0 O0 1.782225 1_555
Ge1 O8 1.756729 1_565
Ge1 O13 1.783338 1_565
Ge1 O4 1.786087 1_555
Ge1 O17 1.797720 1_555
Ge2 O10 1.756729 1_556
Ge2 O2 1.783338 1_556
Ge2 O15 1.786087 1_555
Ge2 O19 1.797720 1_555
Ge3 O12 1.756729 1_655
Ge3 O9 1.783338 1_655
Ge3 O18 1.786087 1_555
Ge3 O25 1.797720 1_555
Ge4 O26 1.770659 1_545
Ge4 O24 1.773052 1_545
Ge4 O27 1.773327 1_555
Ge4 O11 1.782225 1_555
Ge5 O30 1.770659 1_554
Ge5 O14 1.773052 1_554
Ge5 O5 1.773327 1_555
Ge5 O6 1.782225 1_555
F0 Gd6 2.454869 1_555
F0 Gd11 2.454869 1_555
F0 Gd8 2.454869 1_555
F0 Gd3 2.923667 1_666
