# generated using pymatgen
data_HPbCSNO
_symmetry_space_group_name_H-M   'P 1'
_cell_length_a   4.29224600
_cell_length_b   8.74748600
_cell_length_c   11.28014100
_cell_angle_alpha   90.00000000
_cell_angle_beta   90.00000000
_cell_angle_gamma   90.00000000
_symmetry_Int_Tables_number   1
_chemical_formula_structural   HPbCSNO
_chemical_formula_sum   'H4 Pb4 C4 S4 N4 O4'
_cell_volume   423.52825507
_cell_formula_units_Z   4
loop_
 _symmetry_equiv_pos_site_id
 _symmetry_equiv_pos_as_xyz
  1  'x, y, z'
loop_
 _atom_site_type_symbol
 _atom_site_label
 _atom_site_symmetry_multiplicity
 _atom_site_fract_x
 _atom_site_fract_y
 _atom_site_fract_z
 _atom_site_occupancy
  H  H0  1  0.75000000  0.69163500  0.43967900  1
  H  H1  1  0.75000000  0.19163500  0.06032100  1
  H  H2  1  0.25000000  0.30836500  0.56032100  1
  H  H3  1  0.25000000  0.80836500  0.93967900  1
  Pb  Pb0  1  0.75000000  0.36274300  0.39581900  1
  Pb  Pb1  1  0.75000000  0.86274300  0.10418100  1
  Pb  Pb2  1  0.25000000  0.63725700  0.60418100  1
  Pb  Pb3  1  0.25000000  0.13725700  0.89581900  1
  C  C0  1  0.75000000  0.05348300  0.62489000  1
  C  C1  1  0.75000000  0.55348300  0.87511000  1
  C  C2  1  0.25000000  0.94651700  0.37511000  1
  C  C3  1  0.25000000  0.44651700  0.12489000  1
  S  S0  1  0.75000000  0.92122500  0.72723900  1
  S  S1  1  0.75000000  0.42122500  0.77276100  1
  S  S2  1  0.25000000  0.07877500  0.27276100  1
  S  S3  1  0.25000000  0.57877500  0.22723900  1
  N  N0  1  0.75000000  0.15334200  0.55377000  1
  N  N1  1  0.75000000  0.65334200  0.94623000  1
  N  N2  1  0.25000000  0.84665800  0.44623000  1
  N  N3  1  0.25000000  0.34665800  0.05377000  1
  O  O0  1  0.75000000  0.60712200  0.49604400  1
  O  O1  1  0.75000000  0.10712200  0.00395600  1
  O  O2  1  0.25000000  0.39287800  0.50395600  1
  O  O3  1  0.25000000  0.89287800  0.99604400  1
loop_
_geom_bond_atom_site_label_1
_geom_bond_atom_site_label_2
_geom_bond_distance
_geom_bond_site_symmetry_2
H0 O0 0.975078 1_555
H1 O1 0.975078 1_555
H2 O2 0.975078 1_555
H3 O3 0.975078 1_555
C0 N0 1.186012 1_555
C0 S0 1.634433 1_545
C1 N1 1.186012 1_555
C1 S1 1.634433 1_555
C2 N2 1.186012 1_555
C2 S2 1.634433 1_565
C3 N3 1.186012 1_555
C3 S3 1.634433 1_555
N0 Pb0 2.555334 1_555
N1 Pb1 2.555334 1_556
N2 Pb2 2.555334 1_555
N3 Pb3 2.555334 1_554
O0 Pb0 2.418247 1_555
O0 Pb2 2.482588 1_655
O0 Pb2 2.482588 1_555
O1 Pb1 2.418247 1_545
O1 Pb3 2.482588 1_654
O1 Pb3 2.482588 1_554
O2 Pb2 2.418247 1_555
O2 Pb0 2.482588 1_455
O2 Pb0 2.482588 1_555
O3 Pb3 2.418247 1_565
O3 Pb1 2.482588 1_556
O3 Pb1 2.482588 1_456
