# generated using pymatgen
data_PbSe
_symmetry_space_group_name_H-M   'P 1'
_cell_length_a   12.40111142
_cell_length_b   12.39927588
_cell_length_c   4.41488996
_cell_angle_alpha   79.76916616
_cell_angle_beta   79.72228448
_cell_angle_gamma   20.50854936
_symmetry_Int_Tables_number   1
_chemical_formula_structural   PbSe
_chemical_formula_sum   'Pb2 Se2'
_cell_volume   233.90997581
_cell_formula_units_Z   2
loop_
 _symmetry_equiv_pos_site_id
 _symmetry_equiv_pos_as_xyz
  1  'x, y, z'
loop_
 _atom_site_type_symbol
 _atom_site_label
 _atom_site_symmetry_multiplicity
 _atom_site_fract_x
 _atom_site_fract_y
 _atom_site_fract_z
 _atom_site_occupancy
  Pb  Pb0  1  0.80019000  0.81743400  0.18545400  1
  Pb  Pb1  1  0.19269600  0.18886100  0.80684000  1
  Se  Se0  1  0.30010500  0.32193000  0.68426600  1
  Se  Se1  1  0.67685400  0.69995200  0.28733200  1
loop_
_geom_bond_atom_site_label_1
_geom_bond_atom_site_label_2
_geom_bond_distance
_geom_bond_site_symmetry_2
Pb0 Se1 2.891196 1_555
Pb0 Se0 3.108289 1_654
Pb0 Se0 3.121929 1_655
Pb0 Se0 3.128916 1_565
Pb0 Se0 3.129885 1_564
Pb1 Se0 2.886503 1_555
Pb1 Se1 3.015611 1_546
Pb1 Se1 3.094404 1_456
Pb1 Se1 3.146853 1_545
Pb1 Se1 3.236535 1_455
