# generated using pymatgen
data_BaSi2(NO)2
_symmetry_space_group_name_H-M   'P 1'
_cell_length_a   4.88007000
_cell_length_b   5.40355100
_cell_length_c   14.56127300
_cell_angle_alpha   90.00000000
_cell_angle_beta   90.00000000
_cell_angle_gamma   90.00000000
_symmetry_Int_Tables_number   1
_chemical_formula_structural   BaSi2(NO)2
_chemical_formula_sum   'Ba4 Si8 N8 O8'
_cell_volume   383.97650443
_cell_formula_units_Z   4
loop_
 _symmetry_equiv_pos_site_id
 _symmetry_equiv_pos_as_xyz
  1  'x, y, z'
loop_
 _atom_site_type_symbol
 _atom_site_label
 _atom_site_symmetry_multiplicity
 _atom_site_fract_x
 _atom_site_fract_y
 _atom_site_fract_z
 _atom_site_occupancy
  Ba  Ba0  1  0.75000000  0.75370200  0.00000000  1
  Ba  Ba1  1  0.25000000  0.74629800  0.50000000  1
  Ba  Ba2  1  0.25000000  0.24629800  0.00000000  1
  Ba  Ba3  1  0.75000000  0.25370200  0.50000000  1
  Si  Si0  1  0.30052300  0.66018700  0.79968100  1
  Si  Si1  1  0.30052300  0.16018700  0.70031900  1
  Si  Si2  1  0.80052300  0.33981300  0.79968100  1
  Si  Si3  1  0.19947700  0.16018700  0.29968100  1
  Si  Si4  1  0.69947700  0.33981300  0.20031900  1
  Si  Si5  1  0.69947700  0.83981300  0.29968100  1
  Si  Si6  1  0.19947700  0.66018700  0.20031900  1
  Si  Si7  1  0.80052300  0.83981300  0.70031900  1
  N  N0  1  0.15362600  0.36893800  0.77796300  1
  N  N1  1  0.15362600  0.86893800  0.72203700  1
  N  N2  1  0.65362600  0.13106200  0.72203700  1
  N  N3  1  0.34637400  0.36893800  0.22203700  1
  N  N4  1  0.84637400  0.13106200  0.27796300  1
  N  N5  1  0.84637400  0.63106200  0.22203700  1
  N  N6  1  0.34637400  0.86893800  0.27796300  1
  N  N7  1  0.65362600  0.63106200  0.77796300  1
  O  O0  1  0.24858700  0.73352000  0.90684500  1
  O  O1  1  0.74858700  0.76648000  0.59315500  1
  O  O2  1  0.25141300  0.73352000  0.09315500  1
  O  O3  1  0.75141300  0.76648000  0.40684500  1
  O  O4  1  0.75141300  0.26648000  0.09315500  1
  O  O5  1  0.25141300  0.23352000  0.40684500  1
  O  O6  1  0.24858700  0.23352000  0.59315500  1
  O  O7  1  0.74858700  0.26648000  0.90684500  1
loop_
_geom_bond_atom_site_label_1
_geom_bond_atom_site_label_2
_geom_bond_distance
_geom_bond_site_symmetry_2
Ba0 O2 2.787836 1_555
Ba0 O0 2.787836 1_654
Ba0 O2 2.799881 1_655
Ba0 O0 2.799881 1_554
Ba0 O7 2.961635 1_554
Ba0 O4 2.961635 1_555
Ba0 O7 3.085040 1_564
Ba0 O4 3.085040 1_565
Ba0 N5 3.333700 1_555
Ba0 N7 3.333700 1_554
Ba1 O1 2.787836 1_555
Ba1 O3 2.787836 1_455
Ba1 O1 2.799881 1_455
Ba1 O3 2.799881 1_555
Ba1 O6 2.961635 1_565
Ba1 O5 2.961635 1_565
Ba1 O6 3.085040 1_555
Ba1 O5 3.085040 1_555
Ba1 N1 3.333700 1_555
Ba1 N6 3.333700 1_555
Ba2 O7 2.787836 1_554
Ba2 O4 2.787836 1_455
Ba2 O7 2.799881 1_454
Ba2 O4 2.799881 1_555
Ba2 O0 2.961635 1_554
Ba2 O2 2.961635 1_555
Ba2 O0 3.085040 1_544
Ba2 O2 3.085040 1_545
Ba2 N3 3.333700 1_555
Ba2 N0 3.333700 1_554
Ba3 O6 2.787836 1_655
Ba3 O5 2.787836 1_555
Ba3 O6 2.799881 1_555
Ba3 O5 2.799881 1_655
Ba3 O1 2.961635 1_545
Ba3 O3 2.961635 1_545
Ba3 O1 3.085040 1_555
Ba3 O3 3.085040 1_555
Ba3 N2 3.333700 1_555
Ba3 N4 3.333700 1_555
N0 Si1 1.750578 1_555
N0 Si0 1.758035 1_555
N0 Si2 1.759000 1_455
N1 Si0 1.750578 1_555
N1 Si1 1.758035 1_565
N1 Si7 1.759000 1_455
N2 Si2 1.750578 1_555
N2 Si7 1.758035 1_545
N2 Si1 1.759000 1_555
N3 Si3 1.750578 1_555
N3 Si6 1.758035 1_555
N3 Si4 1.759000 1_555
N4 Si4 1.750578 1_555
N4 Si5 1.758035 1_545
N4 Si3 1.759000 1_655
N5 Si5 1.750578 1_555
N5 Si4 1.758035 1_555
N5 Si6 1.759000 1_655
N6 Si6 1.750578 1_555
N6 Si3 1.758035 1_565
N6 Si5 1.759000 1_555
N7 Si7 1.750578 1_555
N7 Si2 1.758035 1_555
N7 Si0 1.759000 1_555
O0 Si0 1.629799 1_555
O1 Si7 1.629799 1_555
O2 Si6 1.629799 1_555
O3 Si5 1.629799 1_555
O4 Si4 1.629799 1_555
O5 Si3 1.629799 1_555
O6 Si1 1.629799 1_555
O7 Si2 1.629799 1_555
