# generated using pymatgen
data_YbZn2
_symmetry_space_group_name_H-M   'P 1'
_cell_length_a   4.55052800
_cell_length_b   5.68922719
_cell_length_c   5.68922719
_cell_angle_alpha   79.01053285
_cell_angle_beta   66.42651208
_cell_angle_gamma   66.42651208
_symmetry_Int_Tables_number   1
_chemical_formula_structural   YbZn2
_chemical_formula_sum   'Yb2 Zn4'
_cell_volume   123.64844981
_cell_formula_units_Z   2
loop_
 _symmetry_equiv_pos_site_id
 _symmetry_equiv_pos_as_xyz
  1  'x, y, z'
loop_
 _atom_site_type_symbol
 _atom_site_label
 _atom_site_symmetry_multiplicity
 _atom_site_fract_x
 _atom_site_fract_y
 _atom_site_fract_z
 _atom_site_occupancy
  Yb  Yb0  1  0.54945600  0.70054400  0.20054400  1
  Yb  Yb1  1  0.45054400  0.29945600  0.79945600  1
  Zn  Zn0  1  0.83582100  0.72422300  0.60413500  1
  Zn  Zn1  1  0.16417900  0.27577700  0.39586500  1
  Zn  Zn2  1  0.83582100  0.10413500  0.22422300  1
  Zn  Zn3  1  0.16417900  0.89586500  0.77577700  1
loop_
_geom_bond_atom_site_label_1
_geom_bond_atom_site_label_2
_geom_bond_distance
_geom_bond_site_symmetry_2
Yb0 Zn0 3.104835 1_555
Yb0 Zn0 3.104835 1_455
Yb0 Zn2 3.104835 1_465
Yb0 Zn2 3.104835 1_565
Yb0 Zn0 3.107884 1_554
Yb0 Zn2 3.107884 1_555
Yb0 Zn1 3.202760 1_565
Yb0 Zn3 3.202760 1_555
Yb0 Zn1 3.309868 1_655
Yb0 Zn3 3.309868 1_654
Yb0 Zn1 3.309868 1_555
Yb0 Zn3 3.309868 1_554
Yb1 Zn1 3.104835 1_655
Yb1 Zn3 3.104835 1_645
Yb1 Zn3 3.104835 1_545
Yb1 Zn1 3.104835 1_555
Yb1 Zn1 3.107884 1_556
Yb1 Zn3 3.107884 1_555
Yb1 Zn0 3.202760 1_545
Yb1 Zn2 3.202760 1_555
Yb1 Zn0 3.309868 1_455
Yb1 Zn2 3.309868 1_456
Yb1 Zn0 3.309868 1_555
Yb1 Zn2 3.309868 1_556
Zn0 Zn1 2.614016 1_655
Zn0 Zn3 2.614856 1_555
Zn0 Zn3 2.614856 1_655
Zn0 Zn2 2.749953 1_565
Zn1 Zn2 2.614856 1_455
Zn1 Zn2 2.614856 1_555
Zn1 Zn3 2.749953 1_545
Zn2 Zn3 2.614016 1_644
