# generated using pymatgen
data_Ba5Si8O21
_symmetry_space_group_name_H-M   'P 1'
_cell_length_a   16.64585804
_cell_length_b   16.64585804
_cell_length_c   13.96882683
_cell_angle_alpha   81.99735202
_cell_angle_beta   81.99735202
_cell_angle_gamma   16.29355419
_symmetry_Int_Tables_number   1
_chemical_formula_structural   Ba5Si8O21
_chemical_formula_sum   'Ba10 Si16 O42'
_cell_volume   1075.12280162
_cell_formula_units_Z   2
loop_
 _symmetry_equiv_pos_site_id
 _symmetry_equiv_pos_as_xyz
  1  'x, y, z'
loop_
 _atom_site_type_symbol
 _atom_site_label
 _atom_site_symmetry_multiplicity
 _atom_site_fract_x
 _atom_site_fract_y
 _atom_site_fract_z
 _atom_site_occupancy
  Ba  Ba0  1  0.76490249  0.79877380  0.88365388  1
  Ba  Ba1  1  0.37488517  0.40141252  0.94525589  1
  Ba  Ba2  1  0.23509751  0.20122620  0.11634612  1
  Ba  Ba3  1  0.62511483  0.59858748  0.05474411  1
  Ba  Ba4  1  0.40141252  0.37488517  0.44525589  1
  Ba  Ba5  1  0.00000000  0.00000000  0.50000000  1
  Ba  Ba6  1  0.79877380  0.76490249  0.38365388  1
  Ba  Ba7  1  0.00000000  0.00000000  -0.00000000  1
  Ba  Ba8  1  0.20122620  0.23509751  0.61634612  1
  Ba  Ba9  1  0.59858748  0.62511483  0.55474411  1
  Si  Si0  1  0.86311271  0.75096575  0.10178798  1
  Si  Si1  1  0.75096575  0.86311271  0.60178798  1
  Si  Si2  1  0.60694275  0.72324331  0.79053845  1
  Si  Si3  1  0.64340528  0.49934176  0.33848334  1
  Si  Si4  1  0.72324331  0.60694275  0.29053845  1
  Si  Si5  1  0.49934176  0.64340528  0.83848334  1
  Si  Si6  1  0.97258911  0.12606984  0.72277107  1
  Si  Si7  1  0.39305725  0.27675669  0.20946155  1
  Si  Si8  1  0.35659472  0.50065824  0.66151666  1
  Si  Si9  1  0.24903425  0.13688729  0.39821202  1
  Si  Si10  1  0.12606984  0.97258911  0.22277107  1
  Si  Si11  1  0.50065824  0.35659472  0.16151666  1
  Si  Si12  1  0.87393016  0.02741089  0.77722893  1
  Si  Si13  1  0.02741089  0.87393016  0.27722893  1
  Si  Si14  1  0.27675669  0.39305725  0.70946155  1
  Si  Si15  1  0.13688729  0.24903425  0.89821202  1
  O  O0  1  0.16161807  0.97321500  0.80957113  1
  O  O1  1  0.46891309  0.65672833  0.24003882  1
  O  O2  1  0.63940150  0.59931484  0.35247012  1
  O  O3  1  0.05642759  0.94357241  0.25000000  1
  O  O4  1  0.42070449  0.18861628  0.64637618  1
  O  O5  1  0.97321500  0.16161807  0.30957113  1
  O  O6  1  0.65672833  0.46891309  0.74003882  1
  O  O7  1  0.93483860  0.70438594  0.69727301  1
  O  O8  1  0.18861628  0.42070449  0.14637618  1
  O  O9  1  0.13985510  0.17957165  0.99277925  1
  O  O10  1  0.05536697  0.07410916  0.11411544  1
  O  O11  1  0.40068516  0.36059850  0.14752988  1
  O  O12  1  0.06516140  0.29561406  0.30272699  1
  O  O13  1  0.22923494  0.24821571  0.41850936  1
  O  O14  1  0.07410916  0.05536697  0.61411544  1
  O  O15  1  0.94463303  0.92589084  0.88588456  1
  O  O16  1  0.02678500  0.83838193  0.69042887  1
  O  O17  1  0.29561406  0.06516140  0.80272699  1
  O  O18  1  0.46049978  0.45247392  0.56315266  1
  O  O19  1  0.94357241  0.05642759  0.75000000  1
  O  O20  1  0.82042835  0.86014490  0.50722075  1
  O  O21  1  0.81138372  0.57929551  0.85362382  1
  O  O22  1  0.53108691  0.34327167  0.75996118  1
  O  O23  1  0.75178429  0.77076506  0.08149064  1
  O  O24  1  0.54752608  0.53950022  0.93684734  1
  O  O25  1  0.31697871  0.34750643  0.32068483  1
  O  O26  1  0.34327167  0.53108691  0.25996118  1
  O  O27  1  0.59931484  0.63940150  0.85247012  1
  O  O28  1  0.53950022  0.54752608  0.43684734  1
  O  O29  1  0.77076506  0.75178429  0.58149064  1
  O  O30  1  0.36059850  0.40068516  0.64752988  1
  O  O31  1  0.86014490  0.82042835  0.00722075  1
  O  O32  1  0.45247392  0.46049978  0.06315266  1
  O  O33  1  0.68302129  0.65249357  0.67931517  1
  O  O34  1  0.65249357  0.68302129  0.17931517  1
  O  O35  1  0.70438594  0.93483860  0.19727301  1
  O  O36  1  0.92589084  0.94463303  0.38588456  1
  O  O37  1  0.17957165  0.13985510  0.49277925  1
  O  O38  1  0.34750643  0.31697871  0.82068483  1
  O  O39  1  0.83838193  0.02678500  0.19042887  1
  O  O40  1  0.57929551  0.81138372  0.35362382  1
  O  O41  1  0.24821571  0.22923494  0.91850936  1
loop_
_geom_bond_atom_site_label_1
_geom_bond_atom_site_label_2
_geom_bond_distance
_geom_bond_site_symmetry_2
Ba0 O41 2.655723 1_565
Ba0 O23 2.751528 1_556
Ba0 O31 2.766764 1_556
Ba0 O7 2.793773 1_555
Ba0 O38 2.827141 1_565
Ba0 O41 2.868658 1_655
Ba0 O21 3.005322 1_555
Ba0 O38 3.070190 1_655
Ba1 O38 2.709694 1_555
Ba1 O31 2.775733 1_456
Ba1 O15 2.794324 1_455
Ba1 O11 2.805868 1_556
Ba1 O22 2.896501 1_555
Ba1 O15 2.969144 1_545
Ba1 O32 2.971440 1_556
Ba1 O31 3.029702 1_546
Ba2 O23 2.655723 1_545
Ba2 O41 2.751528 1_554
Ba2 O9 2.766764 1_554
Ba2 O12 2.793773 1_555
Ba2 O34 2.827141 1_545
Ba2 O23 2.868658 1_455
Ba2 O8 3.005322 1_555
Ba2 O34 3.070190 1_455
Ba3 O34 2.709694 1_555
Ba3 O9 2.775733 1_654
Ba3 O10 2.794324 1_655
Ba3 O27 2.805868 1_554
Ba3 O1 2.896501 1_555
Ba3 O10 2.969144 1_565
Ba3 O24 2.971440 1_554
Ba3 O9 3.029702 1_564
Ba4 O25 2.709694 1_555
Ba4 O20 2.775733 1_545
Ba4 O36 2.794324 1_545
Ba4 O30 2.805868 1_555
Ba4 O26 2.896501 1_555
Ba4 O36 2.969144 1_455
Ba4 O18 2.971440 1_555
Ba4 O20 3.029702 1_455
Ba5 O18 2.820303 1_455
Ba5 O28 2.820303 1_545
Ba5 O14 2.837492 1_555
Ba5 O36 2.837492 1_445
Ba5 O18 2.851797 1_545
Ba5 O28 2.851797 1_455
Ba6 O13 2.655723 1_655
Ba6 O29 2.751528 1_555
Ba6 O20 2.766764 1_555
Ba6 O35 2.793773 1_555
Ba6 O25 2.827141 1_655
Ba6 O13 2.868658 1_565
Ba6 O40 3.005322 1_555
Ba6 O25 3.070190 1_565
Ba7 O32 2.820303 1_545
Ba7 O24 2.820303 1_454
Ba7 O15 2.837492 1_444
Ba7 O10 2.837492 1_555
Ba7 O32 2.851797 1_455
Ba7 O24 2.851797 1_544
Ba8 O29 2.655723 1_455
Ba8 O13 2.751528 1_555
Ba8 O37 2.766764 1_555
Ba8 O17 2.793773 1_555
Ba8 O33 2.827141 1_455
Ba8 O29 2.868658 1_545
Ba8 O4 3.005322 1_555
Ba8 O33 3.070190 1_545
Ba9 O33 2.709694 1_555
Ba9 O37 2.775733 1_565
Ba9 O14 2.794324 1_565
Ba9 O2 2.805868 1_555
Ba9 O6 2.896501 1_555
Ba9 O14 2.969144 1_655
Ba9 O28 2.971440 1_555
Ba9 O37 3.029702 1_655
O0 Si5 1.635354 1_555
O0 Si6 1.636800 1_465
O1 Si3 1.640851 1_555
O1 Si10 1.643267 1_555
O2 Si4 1.638814 1_555
O2 Si3 1.638891 1_555
O3 Si13 1.619505 1_555
O3 Si10 1.619505 1_555
O4 Si14 1.640918 1_555
O4 Si1 1.665277 1_545
O5 Si3 1.635354 1_555
O5 Si10 1.636800 1_645
O6 Si5 1.640851 1_555
O6 Si6 1.643267 1_555
O7 Si14 1.637575 1_655
O7 Si1 1.661116 1_555
O8 Si7 1.640918 1_555
O8 Si0 1.665277 1_455
O9 Si15 1.602385 1_555
O10 Si10 1.584236 1_545
O11 Si7 1.638814 1_555
O11 Si11 1.638891 1_555
O12 Si4 1.637575 1_455
O12 Si9 1.661116 1_555
O13 Si9 1.603442 1_555
O14 Si6 1.584236 1_455
O15 Si12 1.584236 1_565
O16 Si8 1.635354 1_555
O16 Si12 1.636800 1_465
O17 Si2 1.637575 1_545
O17 Si15 1.661116 1_555
O18 Si8 1.582666 1_555
O19 Si12 1.619505 1_555
O19 Si6 1.619505 1_555
O20 Si1 1.602385 1_555
O21 Si2 1.640918 1_555
O21 Si15 1.665277 1_655
O22 Si8 1.640851 1_555
O22 Si12 1.643267 1_555
O23 Si0 1.603442 1_555
O24 Si5 1.582666 1_555
O25 Si7 1.582135 1_555
O26 Si11 1.640851 1_555
O26 Si13 1.643267 1_555
O27 Si2 1.638814 1_555
O27 Si5 1.638891 1_555
O28 Si3 1.582666 1_555
O29 Si1 1.603442 1_555
O30 Si14 1.638814 1_555
O30 Si8 1.638891 1_555
O31 Si0 1.602385 1_555
O32 Si11 1.582666 1_555
O33 Si2 1.582135 1_555
O34 Si4 1.582135 1_555
O35 Si7 1.637575 1_565
O35 Si0 1.661116 1_555
O36 Si13 1.584236 1_655
O37 Si9 1.602385 1_555
O38 Si14 1.582135 1_555
O39 Si11 1.635354 1_555
O39 Si13 1.636800 1_645
O40 Si4 1.640918 1_555
O40 Si9 1.665277 1_565
O41 Si15 1.603442 1_555
