# generated using pymatgen
data_Rb8U9O31
_symmetry_space_group_name_H-M   'P 1'
_cell_length_a   7.07037600
_cell_length_b   14.56759900
_cell_length_c   34.41438100
_cell_angle_alpha   90.00000000
_cell_angle_beta   90.00000000
_cell_angle_gamma   90.00000000
_symmetry_Int_Tables_number   1
_chemical_formula_structural   Rb8U9O31
_chemical_formula_sum   'Rb32 U36 O124'
_cell_volume   3544.62626077
_cell_formula_units_Z   4
loop_
 _symmetry_equiv_pos_site_id
 _symmetry_equiv_pos_as_xyz
  1  'x, y, z'
loop_
 _atom_site_type_symbol
 _atom_site_label
 _atom_site_symmetry_multiplicity
 _atom_site_fract_x
 _atom_site_fract_y
 _atom_site_fract_z
 _atom_site_occupancy
  Rb  Rb0  1  0.23973600  0.48576900  0.47289200  1
  Rb  Rb1  1  0.76026400  0.98576900  0.47289200  1
  Rb  Rb2  1  0.24718800  0.94770400  0.41243700  1
  Rb  Rb3  1  0.28325400  0.39467100  0.35274800  1
  Rb  Rb4  1  0.74718800  0.94770400  0.08756300  1
  Rb  Rb5  1  0.74718800  0.55229600  0.91243700  1
  Rb  Rb6  1  0.80384400  0.12655600  0.71996900  1
  Rb  Rb7  1  0.25281200  0.05229600  0.91243700  1
  Rb  Rb8  1  0.30384400  0.37344400  0.21996900  1
  Rb  Rb9  1  0.73973600  0.48576900  0.02710800  1
  Rb  Rb10  1  0.21674600  0.89467100  0.14725200  1
  Rb  Rb11  1  0.26026400  0.98576900  0.02710800  1
  Rb  Rb12  1  0.21674600  0.60532900  0.85274800  1
  Rb  Rb13  1  0.78325400  0.10532900  0.85274800  1
  Rb  Rb14  1  0.19615600  0.87344400  0.28003100  1
  Rb  Rb15  1  0.25281200  0.44770400  0.08756300  1
  Rb  Rb16  1  0.78325400  0.39467100  0.14725200  1
  Rb  Rb17  1  0.69615600  0.62655600  0.78003100  1
  Rb  Rb18  1  0.23973600  0.01423100  0.52710800  1
  Rb  Rb19  1  0.19615600  0.62655600  0.71996900  1
  Rb  Rb20  1  0.75281200  0.44770400  0.41243700  1
  Rb  Rb21  1  0.75281200  0.05229600  0.58756300  1
  Rb  Rb22  1  0.30384400  0.12655600  0.78003100  1
  Rb  Rb23  1  0.71674600  0.89467100  0.35274800  1
  Rb  Rb24  1  0.28325400  0.10532900  0.64725200  1
  Rb  Rb25  1  0.80384400  0.37344400  0.28003100  1
  Rb  Rb26  1  0.26026400  0.51423100  0.97289200  1
  Rb  Rb27  1  0.24718800  0.55229600  0.58756300  1
  Rb  Rb28  1  0.73973600  0.01423100  0.97289200  1
  Rb  Rb29  1  0.71674600  0.60532900  0.64725200  1
  Rb  Rb30  1  0.69615600  0.87344400  0.21996900  1
  Rb  Rb31  1  0.76026400  0.51423100  0.52710800  1
  U  U0  1  0.06336700  0.13241800  0.33072000  1
  U  U1  1  0.94981400  0.75000000  0.00000000  1
  U  U2  1  0.06336700  0.36758200  0.66928000  1
  U  U3  1  0.01568900  0.38356500  0.78460400  1
  U  U4  1  0.51568900  0.11643500  0.28460400  1
  U  U5  1  0.58562000  0.21227900  0.05663900  1
  U  U6  1  0.55018600  0.25000000  0.50000000  1
  U  U7  1  0.88125600  0.82757600  0.89004200  1
  U  U8  1  0.56336700  0.36758200  0.83072000  1
  U  U9  1  0.11874400  0.17242400  0.10995800  1
  U  U10  1  0.38125600  0.82757600  0.60995800  1
  U  U11  1  0.98431100  0.88356500  0.78460400  1
  U  U12  1  0.61874400  0.32757600  0.60995800  1
  U  U13  1  0.11874400  0.32757600  0.89004200  1
  U  U14  1  0.93663300  0.63241800  0.33072000  1
  U  U15  1  0.93663300  0.86758200  0.66928000  1
  U  U16  1  0.44981400  0.75000000  0.50000000  1
  U  U17  1  0.98431100  0.61643500  0.21539600  1
  U  U18  1  0.88125600  0.67242400  0.10995800  1
  U  U19  1  0.48431100  0.88356500  0.71539600  1
  U  U20  1  0.05018600  0.25000000  0.00000000  1
  U  U21  1  0.08562000  0.28772100  0.55663900  1
  U  U22  1  0.91438000  0.78772100  0.55663900  1
  U  U23  1  0.08562000  0.21227900  0.44336100  1
  U  U24  1  0.61874400  0.17242400  0.39004200  1
  U  U25  1  0.38125600  0.67242400  0.39004200  1
  U  U26  1  0.48431100  0.61643500  0.28460400  1
  U  U27  1  0.43663300  0.86758200  0.83072000  1
  U  U28  1  0.43663300  0.63241800  0.16928000  1
  U  U29  1  0.91438000  0.71227900  0.44336100  1
  U  U30  1  0.51568900  0.38356500  0.71539600  1
  U  U31  1  0.56336700  0.13241800  0.16928000  1
  U  U32  1  0.41438000  0.71227900  0.05663900  1
  U  U33  1  0.58562000  0.28772100  0.94336100  1
  U  U34  1  0.01568900  0.11643500  0.21539600  1
  U  U35  1  0.41438000  0.78772100  0.94336100  1
  O  O0  1  0.43430500  0.74270200  0.81855700  1
  O  O1  1  0.75092500  0.63052200  0.17468100  1
  O  O2  1  0.69806500  0.39840600  0.77090800  1
  O  O3  1  0.43872000  0.99442200  0.84068500  1
  O  O4  1  0.97290300  0.48800600  0.21114200  1
  O  O5  1  0.08562600  0.16435200  0.57338300  1
  O  O6  1  0.62517400  0.63799900  0.34436400  1
  O  O7  1  0.44789900  0.87289600  0.48494800  1
  O  O8  1  0.80193500  0.89840600  0.72909200  1
  O  O9  1  0.69806500  0.10159400  0.22909200  1
  O  O10  1  0.06569500  0.25729800  0.31855700  1
  O  O11  1  0.54440100  0.83517600  0.88875400  1
  O  O12  1  0.10063400  0.70521600  0.06640700  1
  O  O13  1  0.25092500  0.86947800  0.67468100  1
  O  O14  1  0.02709700  0.51199400  0.78885800  1
  O  O15  1  0.24907500  0.36947800  0.82531900  1
  O  O16  1  0.58562600  0.16435200  0.92661700  1
  O  O17  1  0.25092500  0.63052200  0.32531900  1
  O  O18  1  0.91098700  0.58799700  0.45886500  1
  O  O19  1  0.11213000  0.04852900  0.09668800  1
  O  O20  1  0.74907500  0.13052200  0.32531900  1
  O  O21  1  0.87482600  0.36200100  0.84436400  1
  O  O22  1  0.58901300  0.41200300  0.95886500  1
  O  O23  1  0.21017700  0.25000000  0.50000000  1
  O  O24  1  0.37420000  0.79338900  0.37326800  1
  O  O25  1  0.37420000  0.70661100  0.62673200  1
  O  O26  1  0.19806500  0.39840600  0.72909200  1
  O  O27  1  0.19806500  0.10159400  0.27090800  1
  O  O28  1  0.41437400  0.83564800  0.07338300  1
  O  O29  1  0.60063400  0.79478400  0.56640700  1
  O  O30  1  0.12517400  0.86200100  0.84436400  1
  O  O31  1  0.41437400  0.66435200  0.92661700  1
  O  O32  1  0.11213000  0.45147100  0.90331200  1
  O  O33  1  0.22941500  0.78262800  0.54522400  1
  O  O34  1  0.71017700  0.25000000  0.00000000  1
  O  O35  1  0.88787000  0.95147100  0.90331200  1
  O  O36  1  0.62580000  0.20661100  0.62673200  1
  O  O37  1  0.05210100  0.37289600  0.01505200  1
  O  O38  1  0.93872000  0.50557800  0.34068500  1
  O  O39  1  0.06569500  0.24270200  0.68144300  1
  O  O40  1  0.47290300  0.48800600  0.28885800  1
  O  O41  1  0.28982300  0.75000000  0.00000000  1
  O  O42  1  0.37482600  0.36200100  0.65563600  1
  O  O43  1  0.56569500  0.25729800  0.18144300  1
  O  O44  1  0.10063400  0.79478400  0.93359300  1
  O  O45  1  0.38787000  0.54852900  0.40331200  1
  O  O46  1  0.08562600  0.33564800  0.42661700  1
  O  O47  1  0.41098700  0.58799700  0.04113500  1
  O  O48  1  0.04440100  0.83517600  0.61124600  1
  O  O49  1  0.77058500  0.21737200  0.45477600  1
  O  O50  1  0.72941500  0.78262800  0.95477600  1
  O  O51  1  0.87420000  0.70661100  0.87326800  1
  O  O52  1  0.06128000  0.00557800  0.34068500  1
  O  O53  1  0.58901300  0.08799700  0.04113500  1
  O  O54  1  0.38787000  0.95147100  0.59668800  1
  O  O55  1  0.61213000  0.04852900  0.40331200  1
  O  O56  1  0.43872000  0.50557800  0.15931500  1
  O  O57  1  0.99787800  0.74154000  0.22487700  1
  O  O58  1  0.72941500  0.71737200  0.04522400  1
  O  O59  1  0.54440100  0.66482400  0.11124600  1
  O  O60  1  0.88787000  0.54852900  0.09668800  1
  O  O61  1  0.47290300  0.01199400  0.71114200  1
  O  O62  1  0.52709700  0.98800600  0.28885800  1
  O  O63  1  0.27058500  0.21737200  0.04522400  1
  O  O64  1  0.62517400  0.86200100  0.65563600  1
  O  O65  1  0.08901300  0.08799700  0.45886500  1
  O  O66  1  0.89936600  0.29478400  0.93359300  1
  O  O67  1  0.62580000  0.29338900  0.37326800  1
  O  O68  1  0.39936600  0.20521600  0.43359300  1
  O  O69  1  0.22941500  0.71737200  0.45477600  1
  O  O70  1  0.58562600  0.33564800  0.07338300  1
  O  O71  1  0.55210100  0.12710400  0.51505200  1
  O  O72  1  0.61213000  0.45147100  0.59668800  1
  O  O73  1  0.30193500  0.89840600  0.77090800  1
  O  O74  1  0.56569500  0.24270200  0.81855700  1
  O  O75  1  0.75092500  0.86947800  0.82531900  1
  O  O76  1  0.24907500  0.13052200  0.17468100  1
  O  O77  1  0.87420000  0.79338900  0.12673200  1
  O  O78  1  0.94789900  0.62710400  0.98494800  1
  O  O79  1  0.93430500  0.75729800  0.31855700  1
  O  O80  1  0.87482600  0.13799900  0.15563600  1
  O  O81  1  0.74907500  0.36947800  0.67468100  1
  O  O82  1  0.30193500  0.60159400  0.22909200  1
  O  O83  1  0.08901300  0.41200300  0.54113500  1
  O  O84  1  0.12517400  0.63799900  0.15563600  1
  O  O85  1  0.27058500  0.28262800  0.95477600  1
  O  O86  1  0.45559900  0.33517600  0.88875400  1
  O  O87  1  0.04440100  0.66482400  0.38875400  1
  O  O88  1  0.06128000  0.49442200  0.65931500  1
  O  O89  1  0.49787800  0.75846000  0.72487700  1
  O  O90  1  0.91098700  0.91200300  0.54113500  1
  O  O91  1  0.95559900  0.16482400  0.38875400  1
  O  O92  1  0.56128000  0.00557800  0.15931500  1
  O  O93  1  0.43430500  0.75729800  0.18144300  1
  O  O94  1  0.99787800  0.75846000  0.77512300  1
  O  O95  1  0.05210100  0.12710400  0.98494800  1
  O  O96  1  0.78982300  0.75000000  0.50000000  1
  O  O97  1  0.91437400  0.83564800  0.42661700  1
  O  O98  1  0.93430500  0.74270200  0.68144300  1
  O  O99  1  0.37482600  0.13799900  0.34436400  1
  O  O100  1  0.80193500  0.60159400  0.27090800  1
  O  O101  1  0.12580000  0.20661100  0.87326800  1
  O  O102  1  0.00212200  0.25846000  0.77512300  1
  O  O103  1  0.02709700  0.98800600  0.21114200  1
  O  O104  1  0.55210100  0.37289600  0.48494800  1
  O  O105  1  0.50212200  0.24154000  0.27512300  1
  O  O106  1  0.94789900  0.87289600  0.01505200  1
  O  O107  1  0.77058500  0.28262800  0.54522400  1
  O  O108  1  0.39936600  0.29478400  0.56640700  1
  O  O109  1  0.97290300  0.01199400  0.78885800  1
  O  O110  1  0.56128000  0.49442200  0.84068500  1
  O  O111  1  0.52709700  0.51199400  0.71114200  1
  O  O112  1  0.50212200  0.25846000  0.72487700  1
  O  O113  1  0.44789900  0.62710400  0.51505200  1
  O  O114  1  0.00212200  0.24154000  0.22487700  1
  O  O115  1  0.93872000  0.99442200  0.65931500  1
  O  O116  1  0.49787800  0.74154000  0.27512300  1
  O  O117  1  0.95559900  0.33517600  0.61124600  1
  O  O118  1  0.60063400  0.70521600  0.43359300  1
  O  O119  1  0.41098700  0.91200300  0.95886500  1
  O  O120  1  0.91437400  0.66435200  0.57338300  1
  O  O121  1  0.89936600  0.20521600  0.06640700  1
  O  O122  1  0.45559900  0.16482400  0.11124600  1
  O  O123  1  0.12580000  0.29338900  0.12673200  1
loop_
_geom_bond_atom_site_label_1
_geom_bond_atom_site_label_2
_geom_bond_distance
_geom_bond_site_symmetry_2
O0 U27 1.866809 1_555
O0 Rb12 2.784860 1_555
O0 Rb17 2.836945 1_555
O1 U17 2.174475 1_555
O1 U28 2.230094 1_555
O1 U18 2.486577 1_555
O2 U3 2.304814 1_655
O2 U8 2.312058 1_555
O2 U30 2.314981 1_555
O3 U27 1.879367 1_555
O3 Rb7 2.921642 1_565
O3 Rb13 2.952403 1_565
O3 Rb22 2.995272 1_565
O4 U17 1.878354 1_555
O4 Rb8 2.890071 1_655
O4 Rb16 2.912235 1_555
O4 Rb25 3.136006 1_555
O5 U21 1.887310 1_555
O5 Rb21 2.905168 1_455
O5 Rb18 2.916495 1_555
O5 Rb24 3.025609 1_555
O6 U14 2.253103 1_555
O6 U26 2.306561 1_555
O6 U25 2.386803 1_555
O7 U16 1.863783 1_555
O7 Rb1 2.784505 1_555
O7 Rb18 2.917263 1_565
O7 Rb2 3.070600 1_555
O8 U19 2.304814 1_555
O8 U15 2.312058 1_555
O8 U11 2.314981 1_555
O9 U34 2.304814 1_655
O9 U31 2.312058 1_555
O9 U4 2.314981 1_555
O10 U0 1.866809 1_555
O10 Rb3 2.784860 1_555
O10 Rb25 2.836945 1_455
O11 U27 2.189124 1_555
O11 U35 2.203327 1_555
O11 U7 2.384675 1_555
O12 U18 2.209164 1_455
O12 U32 2.245986 1_555
O12 U1 2.604915 1_455
O13 U19 2.174475 1_555
O13 U15 2.230094 1_455
O13 U10 2.486577 1_555
O14 U3 1.878354 1_555
O14 Rb17 2.890071 1_455
O14 Rb12 2.912235 1_555
O14 Rb19 3.136006 1_555
O15 U3 2.174475 1_555
O15 U8 2.230094 1_555
O15 U13 2.486577 1_555
O16 U33 1.887310 1_555
O16 Rb7 2.905168 1_555
O16 Rb28 2.916495 1_555
O16 Rb13 3.025609 1_555
O17 U26 2.174475 1_555
O17 U14 2.230094 1_455
O17 U25 2.486577 1_555
O18 U29 1.887628 1_555
O18 Rb31 2.793930 1_555
O18 Rb0 2.802415 1_655
O18 Rb20 2.824978 1_555
O19 U9 1.862320 1_555
O19 Rb11 2.768886 1_545
O19 Rb10 2.932367 1_545
O19 Rb4 2.985591 1_445
O20 U4 2.174475 1_555
O20 U0 2.230094 1_655
O20 U24 2.486577 1_555
O21 U8 2.253103 1_555
O21 U3 2.306561 1_655
O21 U13 2.386803 1_655
O22 U33 1.887628 1_555
O22 Rb9 2.793930 1_556
O22 Rb26 2.802415 1_555
O22 Rb5 2.824978 1_555
O23 U23 2.208368 1_555
O23 U21 2.208368 1_555
O23 U6 2.403991 1_555
O24 U25 1.854985 1_555
O24 Rb2 2.770737 1_555
O24 Rb23 2.922558 1_555
O25 U10 1.854985 1_555
O25 Rb27 2.770737 1_555
O25 Rb29 2.922558 1_555
O26 U30 2.304814 1_555
O26 U2 2.312058 1_555
O26 U3 2.314981 1_555
O27 U4 2.304814 1_555
O27 U0 2.312058 1_555
O27 U34 2.314981 1_555
O28 U32 1.887310 1_555
O28 Rb4 2.905168 1_555
O28 Rb11 2.916495 1_555
O28 Rb10 3.025609 1_555
O29 U10 2.209164 1_555
O29 U22 2.245986 1_555
O29 U16 2.604915 1_555
O30 U27 2.253103 1_555
O30 U11 2.306561 1_455
O30 U7 2.386803 1_455
O31 U35 1.887310 1_555
O31 Rb5 2.905168 1_555
O31 Rb26 2.916495 1_555
O31 Rb12 3.025609 1_555
O32 U13 1.862320 1_555
O32 Rb26 2.768886 1_555
O32 Rb12 2.932367 1_555
O32 Rb5 2.985591 1_455
O33 U16 2.253104 1_555
O33 U22 2.263009 1_455
O33 U10 2.558184 1_555
O34 U33 2.208368 1_554
O34 U5 2.208368 1_555
O34 U20 2.403991 1_655
O35 U7 1.862320 1_555
O35 Rb28 2.768886 1_565
O35 Rb13 2.932367 1_565
O35 Rb7 2.985591 1_665
O36 U12 1.854985 1_555
O36 Rb21 2.770737 1_555
O36 Rb24 2.922558 1_555
O37 U20 1.863783 1_555
O37 Rb9 2.784505 1_455
O37 Rb26 2.917263 1_554
O37 Rb15 3.070600 1_555
O38 U14 1.879367 1_555
O38 Rb20 2.921642 1_555
O38 Rb3 2.952403 1_655
O38 Rb25 2.995272 1_555
O39 U2 1.866809 1_555
O39 Rb24 2.784860 1_555
O39 Rb6 2.836945 1_455
O40 U26 1.878354 1_555
O40 Rb25 2.890071 1_555
O40 Rb3 2.912235 1_555
O40 Rb8 3.136006 1_555
O41 U32 2.208368 1_555
O41 U35 2.208368 1_554
O41 U1 2.403991 1_455
O42 U2 2.253103 1_555
O42 U30 2.306561 1_555
O42 U12 2.386803 1_555
O43 U31 1.866809 1_555
O43 Rb16 2.784860 1_555
O43 Rb8 2.836945 1_555
O44 U7 2.209164 1_455
O44 U35 2.245986 1_555
O44 U1 2.604915 1_456
O45 U25 1.862320 1_555
O45 Rb0 2.768886 1_555
O45 Rb3 2.932367 1_555
O45 Rb20 2.985591 1_555
O46 U23 1.887310 1_555
O46 Rb20 2.905168 1_455
O46 Rb0 2.916495 1_555
O46 Rb3 3.025609 1_555
O47 U32 1.887628 1_555
O47 Rb26 2.793930 1_554
O47 Rb9 2.802415 1_555
O47 Rb15 2.824978 1_555
O48 U15 2.189124 1_455
O48 U22 2.203327 1_455
O48 U10 2.384675 1_555
O49 U6 2.253104 1_555
O49 U23 2.263009 1_655
O49 U24 2.558184 1_555
O50 U1 2.253104 1_556
O50 U35 2.263009 1_555
O50 U7 2.558184 1_555
O51 U7 1.854985 1_555
O51 Rb5 2.770737 1_555
O51 Rb12 2.922558 1_655
O52 U0 1.879367 1_555
O52 Rb2 2.921642 1_545
O52 Rb23 2.952403 1_445
O52 Rb14 2.995272 1_545
O53 U5 1.887628 1_555
O53 Rb28 2.793930 1_554
O53 Rb11 2.802415 1_545
O53 Rb4 2.824978 1_545
O54 U10 1.862320 1_555
O54 Rb18 2.768886 1_565
O54 Rb24 2.932367 1_565
O54 Rb21 2.985591 1_565
O55 U24 1.862320 1_555
O55 Rb1 2.768886 1_545
O55 Rb23 2.932367 1_545
O55 Rb2 2.985591 1_545
O56 U28 1.879367 1_555
O56 Rb15 2.921642 1_555
O56 Rb16 2.952403 1_555
O56 Rb8 2.995272 1_555
O57 U17 1.853940 1_555
O57 Rb30 2.876057 1_555
O57 Rb14 3.043079 1_655
O58 U1 2.253104 1_555
O58 U32 2.263009 1_555
O58 U18 2.558184 1_555
O59 U28 2.189124 1_555
O59 U32 2.203327 1_555
O59 U18 2.384675 1_555
O60 U18 1.862320 1_555
O60 Rb9 2.768886 1_555
O60 Rb16 2.932367 1_555
O60 Rb15 2.985591 1_655
O61 U19 1.878354 1_545
O61 Rb6 2.890071 1_555
O61 Rb24 2.912235 1_555
O61 Rb22 3.136006 1_555
O62 U4 1.878354 1_565
O62 Rb14 2.890071 1_555
O62 Rb23 2.912235 1_555
O62 Rb30 3.136006 1_555
O63 U20 2.253104 1_555
O63 U5 2.263009 1_555
O63 U9 2.558184 1_555
O64 U15 2.253103 1_555
O64 U19 2.306561 1_555
O64 U10 2.386803 1_555
O65 U23 1.887628 1_555
O65 Rb18 2.793930 1_555
O65 Rb1 2.802415 1_445
O65 Rb2 2.824978 1_545
O66 U13 2.209164 1_655
O66 U33 2.245986 1_555
O66 U20 2.604915 1_656
O67 U24 1.854985 1_555
O67 Rb20 2.770737 1_555
O67 Rb3 2.922558 1_555
O68 U24 2.209164 1_555
O68 U23 2.245986 1_555
O68 U6 2.604915 1_555
O69 U16 2.253104 1_555
O69 U29 2.263009 1_455
O69 U25 2.558184 1_555
O70 U5 1.887310 1_555
O70 Rb15 2.905168 1_555
O70 Rb9 2.916495 1_555
O70 Rb16 3.025609 1_555
O71 U6 1.863783 1_555
O71 Rb18 2.784505 1_555
O71 Rb1 2.917263 1_545
O71 Rb21 3.070600 1_555
O72 U12 1.862320 1_555
O72 Rb31 2.768886 1_555
O72 Rb29 2.932367 1_555
O72 Rb27 2.985591 1_555
O73 U11 2.304814 1_455
O73 U27 2.312058 1_555
O73 U19 2.314981 1_555
O74 U8 1.866809 1_555
O74 Rb13 2.784860 1_555
O74 Rb22 2.836945 1_555
O75 U11 2.174475 1_555
O75 U27 2.230094 1_555
O75 U7 2.486577 1_555
O76 U34 2.174475 1_555
O76 U31 2.230094 1_555
O76 U9 2.486577 1_555
O77 U18 1.854985 1_555
O77 Rb4 2.770737 1_555
O77 Rb10 2.922558 1_655
O78 U1 1.863783 1_556
O78 Rb26 2.784505 1_655
O78 Rb9 2.917263 1_556
O78 Rb5 3.070600 1_555
O79 U14 1.866809 1_555
O79 Rb23 2.784860 1_555
O79 Rb14 2.836945 1_655
O80 U31 2.253103 1_555
O80 U34 2.306561 1_655
O80 U9 2.386803 1_655
O81 U30 2.174475 1_555
O81 U2 2.230094 1_655
O81 U12 2.486577 1_555
O82 U17 2.304814 1_455
O82 U28 2.312058 1_555
O82 U26 2.314981 1_555
O83 U21 1.887628 1_555
O83 Rb0 2.793930 1_555
O83 Rb31 2.802415 1_455
O83 Rb27 2.824978 1_555
O84 U28 2.253103 1_555
O84 U17 2.306561 1_455
O84 U18 2.386803 1_455
O85 U20 2.253104 1_556
O85 U33 2.263009 1_555
O85 U13 2.558184 1_555
O86 U8 2.189124 1_555
O86 U33 2.203327 1_555
O86 U13 2.384675 1_555
O87 U14 2.189124 1_455
O87 U29 2.203327 1_455
O87 U25 2.384675 1_555
O88 U2 1.879367 1_555
O88 Rb27 2.921642 1_555
O88 Rb29 2.952403 1_455
O88 Rb19 2.995272 1_555
O89 U19 1.853940 1_555
O89 Rb19 2.876057 1_555
O89 Rb17 3.043079 1_555
O90 U22 1.887628 1_555
O90 Rb1 2.793930 1_555
O90 Rb18 2.802415 1_665
O90 Rb21 2.824978 1_565
O91 U0 2.189124 1_655
O91 U23 2.203327 1_655
O91 U24 2.384675 1_555
O92 U31 1.879367 1_555
O92 Rb4 2.921642 1_545
O92 Rb10 2.952403 1_545
O92 Rb30 2.995272 1_545
O93 U28 1.866809 1_555
O93 Rb10 2.784860 1_555
O93 Rb30 2.836945 1_555
O94 U11 1.853940 1_555
O94 Rb17 2.876057 1_555
O94 Rb19 3.043079 1_655
O95 U20 1.863783 1_556
O95 Rb28 2.784505 1_455
O95 Rb11 2.917263 1_546
O95 Rb7 3.070600 1_555
O96 U22 2.208368 1_555
O96 U29 2.208368 1_555
O96 U16 2.403991 1_555
O97 U29 1.887310 1_555
O97 Rb2 2.905168 1_655
O97 Rb1 2.916495 1_555
O97 Rb23 3.025609 1_555
O98 U15 1.866809 1_555
O98 Rb29 2.784860 1_555
O98 Rb19 2.836945 1_655
O99 U0 2.253103 1_555
O99 U4 2.306561 1_555
O99 U24 2.386803 1_555
O100 U26 2.304814 1_555
O100 U14 2.312058 1_555
O100 U17 2.314981 1_555
O101 U13 1.854985 1_555
O101 Rb7 2.770737 1_555
O101 Rb13 2.922558 1_455
O102 U3 1.853940 1_555
O102 Rb22 2.876057 1_555
O102 Rb6 3.043079 1_455
O103 U34 1.878354 1_565
O103 Rb30 2.890071 1_455
O103 Rb10 2.912235 1_555
O103 Rb14 3.136006 1_555
O104 U6 1.863783 1_555
O104 Rb0 2.784505 1_555
O104 Rb31 2.917263 1_555
O104 Rb20 3.070600 1_555
O105 U4 1.853940 1_555
O105 Rb25 2.876057 1_555
O105 Rb8 3.043079 1_555
O106 U1 1.863783 1_555
O106 Rb11 2.784505 1_655
O106 Rb28 2.917263 1_564
O106 Rb4 3.070600 1_555
O107 U6 2.253104 1_555
O107 U21 2.263009 1_655
O107 U12 2.558184 1_555
O108 U12 2.209164 1_555
O108 U21 2.245986 1_555
O108 U6 2.604915 1_555
O109 U11 1.878354 1_545
O109 Rb22 2.890071 1_655
O109 Rb13 2.912235 1_555
O109 Rb6 3.136006 1_555
O110 U8 1.879367 1_555
O110 Rb5 2.921642 1_555
O110 Rb12 2.952403 1_555
O110 Rb17 2.995272 1_555
O111 U30 1.878354 1_555
O111 Rb19 2.890071 1_555
O111 Rb29 2.912235 1_555
O111 Rb17 3.136006 1_555
O112 U30 1.853940 1_555
O112 Rb6 2.876057 1_555
O112 Rb22 3.043079 1_555
O113 U16 1.863783 1_555
O113 Rb31 2.784505 1_555
O113 Rb0 2.917263 1_555
O113 Rb27 3.070600 1_555
O114 U34 1.853940 1_555
O114 Rb8 2.876057 1_555
O114 Rb25 3.043079 1_455
O115 U15 1.879367 1_555
O115 Rb21 2.921642 1_565
O115 Rb24 2.952403 1_665
O115 Rb6 2.995272 1_565
O116 U26 1.853940 1_555
O116 Rb14 2.876057 1_555
O116 Rb30 3.043079 1_555
O117 U2 2.189124 1_655
O117 U21 2.203327 1_655
O117 U12 2.384675 1_555
O118 U25 2.209164 1_555
O118 U29 2.245986 1_555
O118 U16 2.604915 1_555
O119 U35 1.887628 1_555
O119 Rb11 2.793930 1_556
O119 Rb28 2.802415 1_565
O119 Rb7 2.824978 1_565
O120 U22 1.887310 1_555
O120 Rb27 2.905168 1_655
O120 Rb31 2.916495 1_555
O120 Rb29 3.025609 1_555
O121 U9 2.209164 1_655
O121 U5 2.245986 1_555
O121 U20 2.604915 1_655
O122 U31 2.189124 1_555
O122 U5 2.203327 1_555
O122 U9 2.384675 1_555
O123 U9 1.854985 1_555
O123 Rb15 2.770737 1_555
O123 Rb16 2.922558 1_455
