# generated using pymatgen
data_Eu2Ru2O7
_symmetry_space_group_name_H-M   'P 1'
_cell_length_a   7.29589244
_cell_length_b   7.27687521
_cell_length_c   7.29564583
_cell_angle_alpha   60.08508438
_cell_angle_beta   60.25250008
_cell_angle_gamma   60.08662093
_symmetry_Int_Tables_number   1
_chemical_formula_structural   Eu2Ru2O7
_chemical_formula_sum   'Eu4 Ru4 O14'
_cell_volume   274.76316020
_cell_formula_units_Z   2
loop_
 _symmetry_equiv_pos_site_id
 _symmetry_equiv_pos_as_xyz
  1  'x, y, z'
loop_
 _atom_site_type_symbol
 _atom_site_label
 _atom_site_symmetry_multiplicity
 _atom_site_fract_x
 _atom_site_fract_y
 _atom_site_fract_z
 _atom_site_occupancy
  Eu  Eu0  1  0.62500000  0.62500000  0.12500000  1
  Eu  Eu1  1  0.62500000  0.62500000  0.62500000  1
  Eu  Eu2  1  0.12500000  0.62500000  0.62500000  1
  Eu  Eu3  1  0.62500000  0.12500000  0.62500000  1
  Ru  Ru0  1  0.12500000  0.12500000  0.12500000  1
  Ru  Ru1  1  0.62500000  0.12500000  0.12500000  1
  Ru  Ru2  1  0.12500000  0.62500000  0.12500000  1
  Ru  Ru3  1  0.12500000  0.12500000  0.62500000  1
  O  O0  1  0.45139842  0.05080614  0.04746790  1
  O  O1  1  0.79863069  0.79960377  0.20256295  1
  O  O2  1  0.45014107  0.04983045  0.45016536  1
  O  O3  1  0.20257874  0.79959765  0.79862592  1
  O  O4  1  0.04744894  0.05081021  0.45142068  1
  O  O5  1  0.04383186  0.45622629  0.04383539  1
  O  O6  1  0.04742126  0.45040235  0.45137408  1
  O  O7  1  0.75001341  0.74998243  0.74997193  1
  O  O8  1  0.79860158  0.19919386  0.20253210  1
  O  O9  1  0.20616814  0.79377371  0.20616461  1
  O  O10  1  0.49998659  0.50001757  0.50002807  1
  O  O11  1  0.45136931  0.45039623  0.04743705  1
  O  O12  1  0.79985893  0.20016955  0.79983464  1
  O  O13  1  0.20255106  0.19918979  0.79857932  1
loop_
_geom_bond_atom_site_label_1
_geom_bond_atom_site_label_2
_geom_bond_distance
_geom_bond_site_symmetry_2
Eu0 O7 2.239204 1_554
Eu0 O10 2.239204 1_555
Eu0 O9 2.526513 1_555
Eu0 O5 2.526513 1_655
Eu0 O11 2.563813 1_555
Eu0 O1 2.563813 1_555
Eu0 O0 2.563913 1_565
Eu0 O8 2.563913 1_555
Eu1 O10 2.229354 1_555
Eu1 O7 2.229354 1_555
Eu1 O1 2.557880 1_555
Eu1 O11 2.557880 1_556
Eu1 O6 2.557905 1_655
Eu1 O3 2.557905 1_555
Eu1 O2 2.561188 1_565
Eu1 O12 2.561188 1_555
Eu2 O10 2.239066 1_555
Eu2 O7 2.239066 1_455
Eu2 O5 2.526400 1_556
Eu2 O9 2.526400 1_555
Eu2 O6 2.563813 1_555
Eu2 O3 2.563813 1_555
Eu2 O13 2.563896 1_555
Eu2 O4 2.563896 1_565
Eu3 O10 2.229660 1_555
Eu3 O7 2.229660 1_545
Eu3 O13 2.558079 1_555
Eu3 O4 2.558079 1_655
Eu3 O8 2.558083 1_555
Eu3 O0 2.558083 1_556
Eu3 O2 2.561344 1_555
Eu3 O12 2.561344 1_555
O0 Ru1 1.978198 1_555
O0 Ru0 1.991963 1_555
O1 Ru1 1.978619 1_565
O1 Ru2 1.991723 1_655
O2 Ru3 1.988100 1_555
O2 Ru1 1.988189 1_555
O3 Ru3 1.978619 1_565
O3 Ru2 1.991639 1_556
O4 Ru3 1.978109 1_555
O4 Ru0 1.991998 1_555
O5 Ru2 2.002106 1_555
O5 Ru0 2.002905 1_555
O6 Ru3 1.978619 1_555
O6 Ru2 1.991639 1_555
O8 Ru1 1.978198 1_555
O8 Ru0 1.991963 1_655
O9 Ru2 2.002106 1_555
O9 Ru0 2.002905 1_565
O11 Ru1 1.978619 1_555
O11 Ru2 1.991723 1_555
O12 Ru3 1.988100 1_655
O12 Ru1 1.988189 1_556
O13 Ru3 1.978109 1_555
O13 Ru0 1.991998 1_556
