# generated using pymatgen
data_Nd4AlSi5(NO)7
_symmetry_space_group_name_H-M   'P 1'
_cell_length_a   6.72728800
_cell_length_b   6.96342069
_cell_length_c   20.94201984
_cell_angle_alpha   90.62930560
_cell_angle_beta   91.00392763
_cell_angle_gamma   90.02558942
_symmetry_Int_Tables_number   1
_chemical_formula_structural   Nd4AlSi5(NO)7
_chemical_formula_sum   'Nd12 Al3 Si15 N21 O21'
_cell_volume   980.81763346
_cell_formula_units_Z   3
loop_
 _symmetry_equiv_pos_site_id
 _symmetry_equiv_pos_as_xyz
  1  'x, y, z'
loop_
 _atom_site_type_symbol
 _atom_site_label
 _atom_site_symmetry_multiplicity
 _atom_site_fract_x
 _atom_site_fract_y
 _atom_site_fract_z
 _atom_site_occupancy
  Nd  Nd0  1  0.72919500  0.40663300  0.23929300  1
  Nd  Nd1  1  0.64231200  0.43415400  0.59691200  1
  Nd  Nd2  1  0.30366200  0.37937600  0.05426100  1
  Nd  Nd3  1  0.77280900  0.35817100  0.94283000  1
  Nd  Nd4  1  0.27308000  0.33350300  0.41463600  1
  Nd  Nd5  1  0.24757000  0.30031400  0.73957500  1
  Nd  Nd6  1  0.84303500  0.61122300  0.08692700  1
  Nd  Nd7  1  0.75007900  0.70309200  0.40940700  1
  Nd  Nd8  1  0.14506300  0.61860700  0.58689400  1
  Nd  Nd9  1  0.75615000  0.59500600  0.76345700  1
  Nd  Nd10  1  0.25965300  0.68210400  0.21546600  1
  Nd  Nd11  1  0.19738100  0.64003300  0.89140900  1
  Al  Al0  1  0.04991800  0.88308400  0.00263500  1
  Al  Al1  1  0.98942100  0.07316500  0.32169200  1
  Al  Al2  1  0.09878600  0.15237900  0.55009200  1
  Si  Si0  1  0.47634700  0.09498800  0.16652400  1
  Si  Si1  1  0.95873500  0.01699600  0.65919000  1
  Si  Si2  1  0.46145200  0.93365800  0.49639400  1
  Si  Si3  1  0.53807300  0.89840900  0.83758000  1
  Si  Si4  1  0.45830400  0.81748800  0.06318400  1
  Si  Si5  1  0.68256200  0.86441600  0.27147500  1
  Si  Si6  1  0.31036600  0.80850000  0.36281500  1
  Si  Si7  1  0.58472600  0.90111200  0.63382600  1
  Si  Si8  1  0.36528200  0.77908300  0.70661700  1
  Si  Si9  1  0.68085900  0.82057800  0.96679300  1
  Si  Si10  1  0.79297400  0.23859700  0.45250400  1
  Si  Si11  1  0.92878900  0.15778100  0.11184400  1
  Si  Si12  1  0.13931700  0.25571300  0.19518900  1
  Si  Si13  1  0.87239100  0.17004800  0.81009800  1
  Si  Si14  1  0.19977400  0.14983900  0.88545800  1
  N  N0  1  0.51819900  0.72489200  0.31563000  1
  N  N1  1  0.39008700  0.54753500  0.67140000  1
  N  N2  1  0.38797000  0.33000500  0.18752100  1
  N  N3  1  0.62968400  0.27894200  0.83068400  1
  N  N4  1  0.32812600  0.14453300  0.50348200  1
  N  N5  1  0.44197500  0.13885600  0.83577100  1
  N  N6  1  0.92652100  0.81099900  0.31462300  1
  N  N7  1  0.39162600  0.76079600  0.43879800  1
  N  N8  1  0.08786300  0.67726400  0.34025600  1
  N  N9  1  0.24058800  0.71028600  0.04141000  1
  N  N10  1  0.89765400  0.67918800  0.96843000  1
  N  N11  1  0.54180900  0.72164200  0.14421700  1
  N  N12  1  0.61395900  0.87432100  0.19041600  1
  N  N13  1  0.87449800  0.61127700  0.65383400  1
  N  N14  1  0.80004600  0.80134200  0.66918300  1
  N  N15  1  0.41050200  0.74646500  0.78576400  1
  N  N16  1  0.51057600  0.79448700  0.56189600  1
  N  N17  1  0.53435200  0.75648200  0.90321300  1
  N  N18  1  0.00133900  0.49412400  0.18062600  1
  N  N19  1  0.93264100  0.34796500  0.51242400  1
  N  N20  1  0.01004300  0.41983500  0.81509400  1
  O  O0  1  0.59550300  0.45659300  0.02368600  1
  O  O1  1  0.95798200  0.30328500  0.05056100  1
  O  O2  1  0.04441400  0.25578600  0.26894000  1
  O  O3  1  0.71207600  0.20866900  0.14792100  1
  O  O4  1  0.09848400  0.22649300  0.63279800  1
  O  O5  1  0.94868600  0.19705900  0.39472600  1
  O  O6  1  0.62204000  0.38594900  0.42341300  1
  O  O7  1  0.92306600  0.15212900  0.73085700  1
  O  O8  1  0.21823800  0.33893500  0.93528400  1
  O  O9  1  0.25408700  0.00939600  0.20155800  1
  O  O10  1  0.01268700  0.92425700  0.57575000  1
  O  O11  1  0.19641100  0.97350900  0.93844600  1
  O  O12  1  0.93984200  0.94266000  0.08078200  1
  O  O13  1  0.69060900  0.01857500  0.46490000  1
  O  O14  1  0.77524200  0.92771500  0.81396900  1
  O  O15  1  0.42086200  0.04922600  0.08811700  1
  O  O16  1  0.25649700  0.03791000  0.35111200  1
  O  O17  1  0.15801100  0.89823800  0.69388200  1
  O  O18  1  0.70978600  0.09185600  0.29058200  1
  O  O19  1  0.69847600  0.11776900  0.62984500  1
  O  O20  1  0.78887900  0.03470400  0.96322200  1
loop_
_geom_bond_atom_site_label_1
_geom_bond_atom_site_label_2
_geom_bond_distance
_geom_bond_site_symmetry_2
Nd0 O3 2.347184 1_555
Nd0 O2 2.440458 1_655
Nd0 O18 2.455939 1_555
Nd1 O19 2.344601 1_555
Nd2 O0 2.145767 1_555
Nd2 O1 2.384603 1_455
Nd2 O15 2.535241 1_555
Nd2 O8 2.559684 1_554
Nd3 O0 2.192189 1_556
Nd3 O20 2.299404 1_555
Nd3 O1 2.590128 1_556
Nd3 O8 3.006425 1_655
Nd4 O6 2.379246 1_555
Nd4 O5 2.407599 1_455
Nd4 O16 2.439959 1_555
Nd5 O7 2.417356 1_455
Nd5 O4 2.483164 1_555
Nd6 O0 2.361390 1_555
Nd6 O1 2.400467 1_555
Nd6 O12 2.403200 1_555
Nd7 O6 2.392986 1_555
Nd7 O13 2.509526 1_565
Nd8 O10 2.320084 1_555
Nd8 O4 2.923211 1_555
Nd8 O17 2.952346 1_555
Nd9 O14 2.538534 1_555
Nd10 O9 2.301017 1_565
Nd11 O8 2.301746 1_555
Nd11 O11 2.512501 1_555
Al0 O11 1.799765 1_554
Al0 O12 1.851109 1_455
Al0 N10 1.878530 1_454
Al0 N9 1.933617 1_555
Al0 O20 2.202227 1_464
Al1 O2 1.737584 1_655
Al1 O5 1.773306 1_555
Al1 N6 1.877461 1_545
Al1 O16 1.906020 1_655
Al1 O18 1.984790 1_555
Al2 O10 1.782248 1_545
Al2 O4 1.801879 1_555
Al2 N4 1.840595 1_555
Al2 N19 1.928861 1_455
N0 Si5 1.753913 1_555
N0 Si6 1.818441 1_555
N0 Nd7 2.492517 1_555
N0 Nd10 2.715147 1_555
N0 Nd0 3.079998 1_555
N1 Si8 1.774804 1_555
N1 Nd1 2.450043 1_555
N1 Nd8 2.451868 1_555
N1 Nd5 2.453906 1_555
N2 Si12 1.761251 1_555
N2 Si0 1.794229 1_555
N2 Nd0 2.574612 1_555
N2 Nd10 2.662163 1_555
N2 Nd2 2.862490 1_555
N3 N5 1.601061 1_555
N3 Si13 1.856161 1_555
N3 Nd3 2.576630 1_555
N3 Nd9 2.767341 1_555
N4 Si2 1.727365 1_545
N4 Nd4 2.315302 1_555
N5 Si3 1.795624 1_545
N5 Si14 1.949656 1_555
N5 Nd5 2.644154 1_555
N6 N8 1.524776 1_655
N6 Si5 1.898500 1_555
N6 Nd7 2.455228 1_555
N7 Si6 1.709535 1_555
N7 Si2 1.752765 1_555
N7 Nd7 2.530352 1_555
N8 Si6 1.806479 1_555
N8 Nd7 2.720872 1_455
N8 Nd10 2.876472 1_555
N9 Si4 1.696611 1_555
N9 Nd2 2.360637 1_555
N10 Si9 1.760073 1_555
N10 Nd3 2.438427 1_555
N10 Nd6 2.564130 1_556
N10 Nd11 2.616581 1_655
N11 N12 1.504147 1_555
N11 Si4 1.905943 1_555
N11 Nd10 2.452124 1_555
N11 Nd6 2.490663 1_555
N12 Si5 1.753436 1_555
N12 Si0 1.862909 1_565
N13 N14 1.450080 1_555
N13 Nd1 2.298427 1_555
N13 Nd8 2.317699 1_655
N13 Nd9 2.446784 1_555
N14 Si7 1.761746 1_555
N14 Si1 1.857908 1_565
N14 Nd9 2.476244 1_555
N15 Si8 1.697673 1_555
N15 Si3 1.724771 1_555
N15 Nd9 2.601326 1_555
N15 Nd11 2.765116 1_555
N16 Si2 1.715711 1_555
N16 Si7 1.737236 1_555
N16 Nd1 2.763802 1_555
N16 Nd8 2.806557 1_555
N17 Si9 1.698248 1_555
N17 Si3 1.702233 1_555
N17 Nd11 2.414912 1_555
N18 Si12 1.926992 1_555
N18 Nd10 2.279940 1_555
N18 Nd0 2.307965 1_455
N18 Nd6 2.368994 1_455
N19 Si10 1.724674 1_555
N19 Nd1 2.721089 1_555
N19 Nd8 2.807302 1_655
N20 Si13 1.971053 1_455
N20 Nd9 2.353867 1_455
N20 Nd5 2.409988 1_555
N20 Nd11 2.523386 1_555
O1 Si11 1.658150 1_555
O2 Si12 1.681549 1_555
O3 Si11 1.689677 1_555
O3 Si0 1.822234 1_555
O4 Si1 1.830892 1_455
O5 Si10 1.637690 1_555
O6 Si10 1.654249 1_555
O7 Si13 1.703211 1_555
O7 Si1 1.782524 1_555
O8 Si14 1.674278 1_555
O9 Si0 1.782250 1_555
O9 Si12 1.886387 1_555
O10 Si1 1.897321 1_465
O11 Si14 1.664427 1_565
O12 Si11 1.628806 1_565
O13 Si10 1.703825 1_555
O13 Si2 1.790135 1_545
O14 Si3 1.691550 1_555
O14 Si13 1.812490 1_565
O15 Si0 1.704101 1_555
O15 Si4 1.710713 1_545
O16 Si6 1.658112 1_545
O17 Si8 1.642166 1_555
O17 Si1 1.728852 1_465
O18 Si5 1.638659 1_545
O19 Si7 1.694872 1_545
O19 Si1 1.976962 1_555
O20 Si9 1.661407 1_545
