# generated using pymatgen
data_Cs4Zr3S14
_symmetry_space_group_name_H-M   'P 1'
_cell_length_a   11.92777848
_cell_length_b   11.92777210
_cell_length_c   14.14126102
_cell_angle_alpha   69.13396373
_cell_angle_beta   69.13400988
_cell_angle_gamma   42.23922277
_symmetry_Int_Tables_number   1
_chemical_formula_structural   Cs4Zr3S14
_chemical_formula_sum   'Cs8 Zr6 S28'
_cell_volume   1249.98376155
_cell_formula_units_Z   2
loop_
 _symmetry_equiv_pos_site_id
 _symmetry_equiv_pos_as_xyz
  1  'x, y, z'
loop_
 _atom_site_type_symbol
 _atom_site_label
 _atom_site_symmetry_multiplicity
 _atom_site_fract_x
 _atom_site_fract_y
 _atom_site_fract_z
 _atom_site_occupancy
  Cs  Cs0  1  0.47853133  0.11194176  0.61025271  1
  Cs  Cs1  1  0.17709709  0.69934890  0.64345662  1
  Cs  Cs2  1  0.88805854  0.52146865  0.88974720  1
  Cs  Cs3  1  0.30065130  0.82290301  0.85654327  1
  Cs  Cs4  1  0.52146867  0.88805824  0.38974744  1
  Cs  Cs5  1  0.82290312  0.30065093  0.35654342  1
  Cs  Cs6  1  0.11194177  0.47853115  0.11025260  1
  Cs  Cs7  1  0.69934890  0.17709707  0.14345676  1
  Zr  Zr0  1  0.58066778  0.08354751  0.91362785  1
  Zr  Zr1  1  0.26309627  0.73690320  0.25000031  1
  Zr  Zr2  1  0.08354906  0.58066765  0.41362580  1
  Zr  Zr3  1  0.91645208  0.41933263  0.58637192  1
  Zr  Zr4  1  0.41933297  0.91645069  0.08637237  1
  Zr  Zr5  1  0.73690176  0.26309810  0.74999972  1
  S  S0  1  0.73662908  0.07103686  0.70899192  1
  S  S1  1  0.56564787  0.60479450  0.13137532  1
  S  S2  1  0.01341601  0.84838026  0.41299356  1
  S  S3  1  0.29902460  0.61576102  0.11170802  1
  S  S4  1  0.84837995  0.01341651  0.91299352  1
  S  S5  1  0.43435307  0.39520546  0.86862520  1
  S  S6  1  0.65064419  0.68469981  0.66412978  1
  S  S7  1  0.31530087  0.34935539  0.83587021  1
  S  S8  1  0.50439057  0.93665779  0.90076411  1
  S  S9  1  0.60479426  0.56564730  0.63137487  1
  S  S10  1  0.09893990  0.18660529  0.10811566  1
  S  S11  1  0.49560970  0.06333963  0.09923605  1
  S  S12  1  0.98658343  0.15161995  0.58700656  1
  S  S13  1  0.92896385  0.26337076  0.79100782  1
  S  S14  1  0.70097469  0.38423950  0.88829212  1
  S  S15  1  0.18660409  0.09893939  0.60811549  1
  S  S16  1  0.93665774  0.50439039  0.40076438  1
  S  S17  1  0.68469876  0.65064383  0.16412947  1
  S  S18  1  0.38423899  0.70097498  0.38829199  1
  S  S19  1  0.81339327  0.90106024  0.39188679  1
  S  S20  1  0.39520546  0.43435315  0.36862499  1
  S  S21  1  0.61576118  0.29902462  0.61170822  1
  S  S22  1  0.06334202  0.49561003  0.59923523  1
  S  S23  1  0.15161994  0.98658342  0.08700655  1
  S  S24  1  0.07103655  0.73662937  0.20899188  1
  S  S25  1  0.34935579  0.31530044  0.33587013  1
  S  S26  1  0.26337092  0.92896320  0.29100793  1
  S  S27  1  0.90106060  0.81339439  0.89188425  1
loop_
_geom_bond_atom_site_label_1
_geom_bond_atom_site_label_2
_geom_bond_distance
_geom_bond_site_symmetry_2
Cs0 S22 3.460722 1_555
Cs0 S0 3.466678 1_555
Cs0 S15 3.609365 1_555
Cs0 S21 3.622745 1_555
Cs0 S6 3.690845 1_545
Cs0 S19 3.699563 1_545
Cs0 S20 3.853735 1_555
Cs0 S8 3.895226 1_545
Cs0 S25 3.915777 1_555
Cs0 S7 3.979527 1_555
Cs1 S7 3.530219 1_555
Cs1 S18 3.577047 1_555
Cs1 S2 3.586059 1_555
Cs1 S0 3.617490 1_465
Cs1 S21 3.638535 1_555
Cs1 S27 3.683137 1_455
Cs1 S22 3.834980 1_555
Cs1 S5 3.868325 1_555
Cs1 S12 3.869864 1_465
Cs1 S9 4.015516 1_555
Cs2 S8 3.460720 1_555
Cs2 S13 3.466677 1_555
Cs2 S27 3.609341 1_555
Cs2 S14 3.622746 1_555
Cs2 S7 3.690851 1_655
Cs2 S10 3.699588 1_656
Cs2 S1 3.853738 1_556
Cs2 S22 3.895234 1_655
Cs2 S17 3.915774 1_556
Cs2 S6 3.979527 1_555
Cs3 S6 3.530220 1_555
Cs3 S3 3.577048 1_556
Cs3 S23 3.586059 1_556
Cs3 S13 3.617485 1_465
Cs3 S14 3.638528 1_555
Cs3 S15 3.683135 1_565
Cs3 S8 3.834978 1_555
Cs3 S9 3.868325 1_555
Cs3 S4 3.869872 1_465
Cs3 S5 4.015515 1_555
Cs4 S16 3.460719 1_555
Cs4 S26 3.466680 1_555
Cs4 S19 3.609341 1_555
Cs4 S18 3.622747 1_555
Cs4 S25 3.690847 1_565
Cs4 S15 3.699592 1_565
Cs4 S9 3.853730 1_555
Cs4 S11 3.895222 1_565
Cs4 S6 3.915774 1_555
Cs4 S17 3.979540 1_555
Cs5 S17 3.530216 1_555
Cs5 S21 3.577050 1_555
Cs5 S12 3.586056 1_555
Cs5 S26 3.617489 1_645
Cs5 S18 3.638534 1_555
Cs5 S10 3.683139 1_655
Cs5 S16 3.834979 1_555
Cs5 S1 3.868317 1_555
Cs5 S2 3.869863 1_645
Cs5 S20 4.015518 1_555
Cs6 S11 3.460732 1_555
Cs6 S24 3.466681 1_555
Cs6 S10 3.609340 1_555
Cs6 S3 3.622745 1_555
Cs6 S17 3.690861 1_455
Cs6 S27 3.699586 1_454
Cs6 S5 3.853736 1_554
Cs6 S16 3.895233 1_455
Cs6 S7 3.915778 1_554
Cs6 S25 3.979527 1_555
Cs7 S25 3.530220 1_555
Cs7 S14 3.577047 1_554
Cs7 S4 3.586061 1_554
Cs7 S24 3.617485 1_645
Cs7 S3 3.638533 1_555
Cs7 S19 3.683160 1_545
Cs7 S11 3.835004 1_555
Cs7 S20 3.868325 1_555
Cs7 S23 3.869868 1_645
Cs7 S1 4.015521 1_555
S0 S21 2.075788 1_555
S0 Zr5 2.557946 1_555
S0 Zr0 2.814025 1_555
S1 S17 2.080605 1_555
S1 Zr4 2.601804 1_555
S1 Zr1 2.733276 1_555
S2 Zr2 2.631772 1_555
S2 Zr1 2.716591 1_555
S3 Zr1 2.568099 1_555
S4 Zr0 2.631774 1_555
S4 Zr5 2.716599 1_555
S5 S7 2.080634 1_555
S5 Zr0 2.601823 1_555
S5 Zr5 2.733258 1_555
S6 S9 2.080635 1_555
S6 Zr3 2.533082 1_555
S7 Zr0 2.533078 1_555
S8 Zr4 2.447666 1_556
S8 Zr0 2.576015 1_565
S9 Zr3 2.601824 1_555
S9 Zr5 2.733255 1_555
S10 S23 2.080868 1_545
S10 Zr4 2.591793 1_545
S11 Zr0 2.447666 1_554
S11 Zr4 2.576000 1_545
S12 S15 2.080851 1_655
S12 Zr3 2.631774 1_555
S12 Zr5 2.716597 1_555
S13 S14 2.075804 1_555
S13 Zr5 2.557959 1_555
S13 Zr3 2.814023 1_555
S14 Zr5 2.568102 1_555
S15 Zr3 2.591787 1_455
S16 Zr3 2.447656 1_555
S16 Zr2 2.576020 1_655
S17 Zr4 2.533066 1_555
S18 S26 2.075794 1_555
S18 Zr1 2.568096 1_555
S19 S2 2.080865 1_655
S19 Zr2 2.591789 1_655
S20 S25 2.080634 1_555
S20 Zr2 2.601811 1_555
S20 Zr1 2.733257 1_555
S21 Zr5 2.568086 1_555
S22 Zr2 2.447680 1_555
S22 Zr3 2.576017 1_455
S23 Zr4 2.631772 1_555
S23 Zr1 2.716592 1_555
S24 S3 2.075794 1_555
S24 Zr1 2.557944 1_555
S24 Zr2 2.813999 1_555
S25 Zr2 2.533066 1_555
S26 Zr1 2.557948 1_555
S26 Zr4 2.814021 1_555
S27 S4 2.080868 1_565
S27 Zr0 2.591788 1_565
