# generated using pymatgen
data_KTaPt
_symmetry_space_group_name_H-M   'P 1'
_cell_length_a   4.57968313
_cell_length_b   4.57968313
_cell_length_c   4.57968313
_cell_angle_alpha   60.00000000
_cell_angle_beta   60.00000000
_cell_angle_gamma   60.00000000
_symmetry_Int_Tables_number   1
_chemical_formula_structural   KTaPt
_chemical_formula_sum   'K1 Ta1 Pt1'
_cell_volume   67.91900165
_cell_formula_units_Z   1
loop_
 _symmetry_equiv_pos_site_id
 _symmetry_equiv_pos_as_xyz
  1  'x, y, z'
loop_
 _atom_site_type_symbol
 _atom_site_label
 _atom_site_symmetry_multiplicity
 _atom_site_fract_x
 _atom_site_fract_y
 _atom_site_fract_z
 _atom_site_occupancy
  K  K0  1  0.00000000  0.00000000  0.00000000  1
  Ta  Ta0  1  0.25000000  0.25000000  0.25000000  1
  Pt  Pt0  1  0.50000000  0.50000000  0.50000000  1
loop_
_geom_bond_atom_site_label_1
_geom_bond_atom_site_label_2
_geom_bond_distance
_geom_bond_site_symmetry_2
K0 Ta0 2.804472 1_554
K0 Ta0 2.804472 1_455
K0 Ta0 2.804472 1_555
K0 Ta0 2.804472 1_545
K0 Pt0 3.238325 1_544
K0 Pt0 3.238325 1_445
K0 Pt0 3.238325 1_454
K0 Pt0 3.238325 1_545
K0 Pt0 3.238325 1_455
K0 Pt0 3.238325 1_554
Pt0 Ta0 2.804472 1_555
Pt0 Ta0 2.804472 1_556
Pt0 Ta0 2.804472 1_565
Pt0 Ta0 2.804472 1_655
