# generated using pymatgen
data_BaU(SeO4)2
_symmetry_space_group_name_H-M   'P 1'
_cell_length_a   9.01791400
_cell_length_b   7.83518900
_cell_length_c   13.82613639
_cell_angle_alpha   72.95345848
_cell_angle_beta   90.00000000
_cell_angle_gamma   90.00000000
_symmetry_Int_Tables_number   1
_chemical_formula_structural   BaU(SeO4)2
_chemical_formula_sum   'Ba4 U4 Se8 O32'
_cell_volume   933.99533452
_cell_formula_units_Z   4
loop_
 _symmetry_equiv_pos_site_id
 _symmetry_equiv_pos_as_xyz
  1  'x, y, z'
loop_
 _atom_site_type_symbol
 _atom_site_label
 _atom_site_symmetry_multiplicity
 _atom_site_fract_x
 _atom_site_fract_y
 _atom_site_fract_z
 _atom_site_occupancy
  Ba  Ba0  1  0.93110400  0.32480700  0.18591700  1
  Ba  Ba1  1  0.56889600  0.32480700  0.68591700  1
  Ba  Ba2  1  0.06889600  0.67519300  0.81408300  1
  Ba  Ba3  1  0.43110400  0.67519300  0.31408300  1
  U  U0  1  0.09000800  0.23627500  0.71129400  1
  U  U1  1  0.90999200  0.76372500  0.28870600  1
  U  U2  1  0.40999200  0.23627500  0.21129400  1
  U  U3  1  0.59000800  0.76372500  0.78870600  1
  Se  Se0  1  0.20929200  0.95909300  0.11622200  1
  Se  Se1  1  0.70929200  0.04090700  0.38377800  1
  Se  Se2  1  0.08378100  0.34522800  0.44369500  1
  Se  Se3  1  0.41621900  0.34522800  0.94369500  1
  Se  Se4  1  0.58378100  0.65477200  0.05630500  1
  Se  Se5  1  0.91621900  0.65477200  0.55630500  1
  Se  Se6  1  0.29070800  0.95909300  0.61622200  1
  Se  Se7  1  0.79070800  0.04090700  0.88377800  1
  O  O0  1  0.51934500  0.28105200  0.05712600  1
  O  O1  1  0.05261300  0.54665600  0.01644600  1
  O  O2  1  0.44738700  0.54665600  0.51644600  1
  O  O3  1  0.10537900  0.94362900  0.63558500  1
  O  O4  1  0.18778200  0.16679200  0.14105500  1
  O  O5  1  0.39462100  0.94362900  0.13558500  1
  O  O6  1  0.14840400  0.79155700  0.22697900  1
  O  O7  1  0.68778200  0.83320800  0.35894500  1
  O  O8  1  0.98065500  0.28105200  0.55712600  1
  O  O9  1  0.10289500  0.02140400  0.81913200  1
  O  O10  1  0.71145700  0.64471900  0.71443300  1
  O  O11  1  0.64840400  0.20844300  0.27302100  1
  O  O12  1  0.35159600  0.79155700  0.72697900  1
  O  O13  1  0.60289500  0.97859600  0.68086800  1
  O  O14  1  0.60537900  0.05637100  0.86441500  1
  O  O15  1  0.55261300  0.45334400  0.48355400  1
  O  O16  1  0.94738700  0.45334400  0.98355400  1
  O  O17  1  0.89462100  0.05637100  0.36441500  1
  O  O18  1  0.94969200  0.45419500  0.35419300  1
  O  O19  1  0.44969200  0.54580500  0.14580700  1
  O  O20  1  0.48065500  0.71894800  0.94287400  1
  O  O21  1  0.39710500  0.02140400  0.31913200  1
  O  O22  1  0.89710500  0.97859600  0.18086800  1
  O  O23  1  0.01934500  0.71894800  0.44287400  1
  O  O24  1  0.21145700  0.35528100  0.78556700  1
  O  O25  1  0.78854300  0.64471900  0.21443300  1
  O  O26  1  0.28854300  0.35528100  0.28556700  1
  O  O27  1  0.81221800  0.83320800  0.85894500  1
  O  O28  1  0.55030800  0.45419500  0.85419300  1
  O  O29  1  0.31221800  0.16679200  0.64105500  1
  O  O30  1  0.05030800  0.54580500  0.64580700  1
  O  O31  1  0.85159600  0.20844300  0.77302100  1
loop_
_geom_bond_atom_site_label_1
_geom_bond_atom_site_label_2
_geom_bond_distance
_geom_bond_site_symmetry_2
Ba0 O16 2.685518 1_554
Ba0 O1 2.706373 1_655
Ba0 O22 2.751046 1_545
Ba0 O17 2.753057 1_555
Ba0 O4 2.779505 1_655
Ba0 O18 2.802111 1_555
Ba0 O11 2.852564 1_555
Ba0 O25 2.944576 1_555
Ba1 O15 2.685518 1_555
Ba1 O2 2.706373 1_555
Ba1 O13 2.751046 1_545
Ba1 O14 2.753057 1_555
Ba1 O29 2.779505 1_555
Ba1 O28 2.802111 1_555
Ba1 O31 2.852564 1_555
Ba1 O10 2.944576 1_555
Ba2 O1 2.685518 1_556
Ba2 O16 2.706373 1_455
Ba2 O9 2.751046 1_565
Ba2 O3 2.753057 1_555
Ba2 O27 2.779505 1_455
Ba2 O30 2.802111 1_555
Ba2 O12 2.852564 1_555
Ba2 O24 2.944576 1_555
Ba3 O2 2.685518 1_555
Ba3 O15 2.706373 1_555
Ba3 O21 2.751046 1_565
Ba3 O5 2.753057 1_555
Ba3 O7 2.779505 1_555
Ba3 O19 2.802111 1_555
Ba3 O6 2.852564 1_555
Ba3 O26 2.944576 1_555
O0 Se3 1.764924 1_554
O0 U2 2.280482 1_555
O1 O16 1.355261 1_454
O3 Se6 1.691306 1_555
O3 U0 2.789210 1_565
O4 Se0 1.769578 1_545
O4 U2 2.359016 1_555
O5 Se0 1.691306 1_555
O5 U2 2.789210 1_565
O6 Se0 1.786356 1_555
O6 U1 2.299830 1_455
O7 Se1 1.769578 1_565
O7 U1 2.359016 1_555
O8 Se2 1.764924 1_655
O8 U0 2.280482 1_655
O9 U0 1.897155 1_555
O10 U3 1.919601 1_555
O11 Se1 1.786356 1_555
O11 U2 2.299830 1_555
O12 Se6 1.786356 1_555
O12 U3 2.299830 1_555
O13 U3 1.897155 1_555
O14 Se7 1.691306 1_555
O14 U3 2.789210 1_545
O15 O2 1.355261 1_555
O17 Se1 1.691306 1_555
O17 U1 2.789210 1_545
O18 Se2 1.761532 1_655
O18 U1 2.354201 1_555
O19 Se4 1.761532 1_555
O19 U2 2.354201 1_555
O20 Se4 1.764924 1_556
O20 U3 2.280482 1_555
O21 U2 1.897155 1_555
O22 U1 1.897155 1_555
O23 Se5 1.764924 1_455
O23 U1 2.280482 1_455
O24 U0 1.919601 1_555
O25 U1 1.919601 1_555
O26 U2 1.919601 1_555
O27 Se7 1.769578 1_565
O27 U3 2.359016 1_555
O28 Se3 1.761532 1_555
O28 U3 2.354201 1_555
O29 Se6 1.769578 1_545
O29 U0 2.359016 1_555
O30 Se5 1.761532 1_455
O30 U0 2.354201 1_555
O31 Se7 1.786356 1_555
O31 U0 2.299830 1_655
