# generated using pymatgen
data_Cr3HO8
_symmetry_space_group_name_H-M   'P 1'
_cell_length_a   3.78293000
_cell_length_b   7.04468400
_cell_length_c   13.93092055
_cell_angle_alpha   79.08783071
_cell_angle_beta   90.00000000
_cell_angle_gamma   90.00000000
_symmetry_Int_Tables_number   1
_chemical_formula_structural   Cr3HO8
_chemical_formula_sum   'Cr6 H2 O16'
_cell_volume   364.53991865
_cell_formula_units_Z   2
loop_
 _symmetry_equiv_pos_site_id
 _symmetry_equiv_pos_as_xyz
  1  'x, y, z'
loop_
 _atom_site_type_symbol
 _atom_site_label
 _atom_site_symmetry_multiplicity
 _atom_site_fract_x
 _atom_site_fract_y
 _atom_site_fract_z
 _atom_site_occupancy
  Cr  Cr0  1  0.25000000  0.25769800  0.91412800  1
  Cr  Cr1  1  0.75000000  0.74230200  0.08587200  1
  Cr  Cr2  1  0.75000000  0.96976400  0.85947300  1
  Cr  Cr3  1  0.25000000  0.03023600  0.14052700  1
  Cr  Cr4  1  0.25000000  0.34317300  0.47347400  1
  Cr  Cr5  1  0.75000000  0.65682700  0.52652600  1
  H  H0  1  0.25000000  0.15884500  0.30325600  1
  H  H1  1  0.75000000  0.84115500  0.69674400  1
  O  O0  1  0.25000000  0.80041400  0.09291000  1
  O  O1  1  0.25000000  0.14330500  0.54854500  1
  O  O2  1  0.75000000  0.53274900  0.15244100  1
  O  O3  1  0.25000000  0.31404800  0.35936700  1
  O  O4  1  0.75000000  0.95086200  0.73674800  1
  O  O5  1  0.25000000  0.46725100  0.84755900  1
  O  O6  1  0.75000000  0.19958600  0.90709000  1
  O  O7  1  0.25000000  0.03023300  0.86509800  1
  O  O8  1  0.75000000  0.85669500  0.45145500  1
  O  O9  1  0.25000000  0.24153800  0.04491200  1
  O  O10  1  0.75000000  0.96976700  0.13490200  1
  O  O11  1  0.75000000  0.68595200  0.64063300  1
  O  O12  1  0.75000000  0.41373800  0.48273000  1
  O  O13  1  0.25000000  0.58626200  0.51727000  1
  O  O14  1  0.75000000  0.75846200  0.95508800  1
  O  O15  1  0.25000000  0.04913800  0.26325200  1
loop_
_geom_bond_atom_site_label_1
_geom_bond_atom_site_label_2
_geom_bond_distance
_geom_bond_site_symmetry_2
Cr0 O5 1.587753 1_555
Cr0 O9 1.803858 1_556
Cr0 O7 1.857059 1_555
Cr0 O6 1.941660 1_455
Cr0 O6 1.941660 1_555
Cr1 O2 1.587753 1_555
Cr1 O14 1.803858 1_554
Cr1 O10 1.857059 1_555
Cr1 O0 1.941660 1_555
Cr1 O0 1.941660 1_655
Cr2 O4 1.739800 1_555
Cr2 O14 1.799818 1_555
Cr2 O6 1.862226 1_565
Cr2 O7 1.943677 1_665
Cr2 O7 1.943677 1_565
Cr3 O15 1.739800 1_555
Cr3 O9 1.799818 1_555
Cr3 O0 1.862226 1_545
Cr3 O10 1.943677 1_445
Cr3 O10 1.943677 1_545
Cr4 O1 1.587040 1_555
Cr4 O3 1.640871 1_555
Cr4 O13 1.923649 1_555
Cr4 O12 1.966126 1_455
Cr4 O12 1.966126 1_555
Cr5 O8 1.587040 1_555
Cr5 O11 1.640871 1_555
Cr5 O12 1.923649 1_555
Cr5 O13 1.966126 1_655
Cr5 O13 1.966126 1_555
H0 O15 1.034863 1_555
H0 O3 1.459461 1_555
H1 O4 1.034863 1_555
H1 O11 1.459461 1_555
