# generated using pymatgen
data_Pb2OF2
_symmetry_space_group_name_H-M   'P 1'
_cell_length_a   6.12996100
_cell_length_b   8.16721700
_cell_length_c   8.27352500
_cell_angle_alpha   90.00000000
_cell_angle_beta   90.00000000
_cell_angle_gamma   90.00000000
_symmetry_Int_Tables_number   1
_chemical_formula_structural   Pb2OF2
_chemical_formula_sum   'Pb8 O4 F8'
_cell_volume   414.21172651
_cell_formula_units_Z   4
loop_
 _symmetry_equiv_pos_site_id
 _symmetry_equiv_pos_as_xyz
  1  'x, y, z'
loop_
 _atom_site_type_symbol
 _atom_site_label
 _atom_site_symmetry_multiplicity
 _atom_site_fract_x
 _atom_site_fract_y
 _atom_site_fract_z
 _atom_site_occupancy
  Pb  Pb0  1  0.21436600  0.74006200  0.00000000  1
  Pb  Pb1  1  0.69305700  0.50000000  0.25023100  1
  Pb  Pb2  1  0.69305700  0.50000000  0.74976900  1
  Pb  Pb3  1  0.21436600  0.25993800  0.00000000  1
  Pb  Pb4  1  0.28269600  0.24101300  0.50000000  1
  Pb  Pb5  1  0.28269600  0.75898700  0.50000000  1
  Pb  Pb6  1  0.74920600  0.00000000  0.24857700  1
  Pb  Pb7  1  0.74920600  0.00000000  0.75142300  1
  O  O0  1  0.57171600  0.50000000  0.00000000  1
  O  O1  1  0.16706500  0.00000000  0.00000000  1
  O  O2  1  0.62869200  0.00000000  0.50000000  1
  O  O3  1  0.41235400  0.50000000  0.50000000  1
  F  F0  1  0.47636000  0.22924200  0.77057600  1
  F  F1  1  0.47636000  0.77075800  0.22942400  1
  F  F2  1  0.47636000  0.77075800  0.77057600  1
  F  F3  1  0.98399000  0.25604300  0.71504700  1
  F  F4  1  0.98399000  0.25604300  0.28495300  1
  F  F5  1  0.98399000  0.74395700  0.28495300  1
  F  F6  1  0.98399000  0.74395700  0.71504700  1
  F  F7  1  0.47636000  0.22924200  0.22942400  1
loop_
_geom_bond_atom_site_label_1
_geom_bond_atom_site_label_2
_geom_bond_distance
_geom_bond_site_symmetry_2
O0 Pb1 2.199857 1_555
O0 Pb2 2.199857 1_554
O1 Pb0 2.142679 1_545
O1 Pb3 2.142679 1_555
O2 Pb7 2.207439 1_555
O2 Pb6 2.207439 1_555
O3 Pb5 2.259599 1_555
O3 Pb4 2.259599 1_555
O3 Pb1 2.689071 1_555
O3 Pb2 2.689071 1_555
F0 Pb3 2.499017 1_556
F0 Pb7 2.515527 1_555
F0 Pb4 2.535741 1_555
F0 Pb2 2.585373 1_555
F1 Pb0 2.499017 1_555
F1 Pb6 2.515527 1_565
F1 Pb5 2.535741 1_555
F1 Pb1 2.585373 1_555
F2 Pb0 2.499017 1_556
F2 Pb7 2.515527 1_565
F2 Pb5 2.535741 1_555
F2 Pb2 2.585373 1_555
F3 Pb4 2.556047 1_655
F3 Pb7 2.556338 1_555
F3 Pb2 2.689410 1_555
F3 Pb3 2.748350 1_656
F4 Pb4 2.556047 1_655
F4 Pb6 2.556338 1_555
F4 Pb1 2.689410 1_555
F4 Pb3 2.748350 1_655
F5 Pb5 2.556047 1_655
F5 Pb6 2.556338 1_565
F5 Pb1 2.689410 1_555
F5 Pb0 2.748350 1_655
F6 Pb5 2.556047 1_655
F6 Pb7 2.556338 1_565
F6 Pb2 2.689410 1_555
F6 Pb0 2.748350 1_656
F7 Pb3 2.499017 1_555
F7 Pb6 2.515527 1_555
F7 Pb4 2.535741 1_555
F7 Pb1 2.585373 1_555
