# generated using pymatgen
data_Sn6P7O24
_symmetry_space_group_name_H-M   'P 1'
_cell_length_a   27.60157100
_cell_length_b   6.09606900
_cell_length_c   7.22140697
_cell_angle_alpha   69.43952525
_cell_angle_beta   90.00000000
_cell_angle_gamma   90.00000000
_symmetry_Int_Tables_number   1
_chemical_formula_structural   Sn6P7O24
_chemical_formula_sum   'Sn12 P14 O48'
_cell_volume   1137.68350397
_cell_formula_units_Z   2
loop_
 _symmetry_equiv_pos_site_id
 _symmetry_equiv_pos_as_xyz
  1  'x, y, z'
loop_
 _atom_site_type_symbol
 _atom_site_label
 _atom_site_symmetry_multiplicity
 _atom_site_fract_x
 _atom_site_fract_y
 _atom_site_fract_z
 _atom_site_occupancy
  Sn  Sn0  1  0.68523100  0.14388900  0.69614000  1
  Sn  Sn1  1  0.39778000  0.22261000  0.91340700  1
  Sn  Sn2  1  0.60222000  0.77739000  0.08659300  1
  Sn  Sn3  1  0.45437000  0.82361900  0.69037700  1
  Sn  Sn4  1  0.04563000  0.82361900  0.69037700  1
  Sn  Sn5  1  0.89778000  0.77739000  0.08659300  1
  Sn  Sn6  1  0.31476900  0.85611100  0.30386000  1
  Sn  Sn7  1  0.95437000  0.17638100  0.30962300  1
  Sn  Sn8  1  0.18523100  0.85611100  0.30386000  1
  Sn  Sn9  1  0.10222000  0.22261000  0.91340700  1
  Sn  Sn10  1  0.54563000  0.17638100  0.30962300  1
  Sn  Sn11  1  0.81476900  0.14388900  0.69614000  1
  P  P0  1  0.10517800  0.33201900  0.38273400  1
  P  P1  1  0.47345200  0.70564100  0.19310600  1
  P  P2  1  0.66972400  0.23778600  0.18376600  1
  P  P3  1  0.52654800  0.29435900  0.80689400  1
  P  P4  1  0.75000000  0.52589600  0.91830200  1
  P  P5  1  0.02654800  0.70564100  0.19310600  1
  P  P6  1  0.39482200  0.33201900  0.38273400  1
  P  P7  1  0.25000000  0.47410400  0.08169800  1
  P  P8  1  0.16972400  0.76221400  0.81623400  1
  P  P9  1  0.97345200  0.29435900  0.80689400  1
  P  P10  1  0.60517800  0.66798100  0.61726600  1
  P  P11  1  0.33027600  0.76221400  0.81623400  1
  P  P12  1  0.83027600  0.23778600  0.18376600  1
  P  P13  1  0.89482200  0.66798100  0.61726600  1
  O  O0  1  0.16381500  0.90767000  0.95083400  1
  O  O1  1  0.75000000  0.36645100  0.79631600  1
  O  O2  1  0.52666100  0.17075100  0.65783800  1
  O  O3  1  0.20324300  0.53346400  0.93809700  1
  O  O4  1  0.47333900  0.82924900  0.34216200  1
  O  O5  1  0.61936500  0.81766700  0.74200700  1
  O  O6  1  0.88063500  0.81766700  0.74200700  1
  O  O7  1  0.09022300  0.16932900  0.59568300  1
  O  O8  1  0.69343900  0.11290100  0.38157000  1
  O  O9  1  0.35912200  0.51551000  0.39136300  1
  O  O10  1  0.55476200  0.54365100  0.71963500  1
  O  O11  1  0.12067900  0.64463700  0.79240200  1
  O  O12  1  0.40977700  0.16932900  0.59568300  1
  O  O13  1  0.25000000  0.21342200  0.18799700  1
  O  O14  1  0.11936500  0.18233300  0.25799300  1
  O  O15  1  0.59022300  0.83067100  0.40431700  1
  O  O16  1  0.85912200  0.48449000  0.60863700  1
  O  O17  1  0.94523800  0.54365100  0.71963500  1
  O  O18  1  0.25000000  0.63354900  0.20368400  1
  O  O19  1  0.52367500  0.62294400  0.14788400  1
  O  O20  1  0.80656100  0.11290100  0.38157000  1
  O  O21  1  0.87932100  0.35536300  0.20759800  1
  O  O22  1  0.02666100  0.82924900  0.34216200  1
  O  O23  1  0.66381500  0.09233000  0.04916600  1
  O  O24  1  0.94741100  0.14332900  0.00118800  1
  O  O25  1  0.02367500  0.37705600  0.85211600  1
  O  O26  1  0.90977700  0.83067100  0.40431700  1
  O  O27  1  0.38063500  0.18233300  0.25799300  1
  O  O28  1  0.29675700  0.53346400  0.93809700  1
  O  O29  1  0.83618500  0.09233000  0.04916600  1
  O  O30  1  0.37932100  0.64463700  0.79240200  1
  O  O31  1  0.05258900  0.85667100  0.99881200  1
  O  O32  1  0.33618500  0.90767000  0.95083400  1
  O  O33  1  0.14087800  0.51551000  0.39136300  1
  O  O34  1  0.64087800  0.48449000  0.60863700  1
  O  O35  1  0.55258900  0.14332900  0.00118800  1
  O  O36  1  0.05476200  0.45634900  0.28036500  1
  O  O37  1  0.30656100  0.88709900  0.61843000  1
  O  O38  1  0.44523800  0.45634900  0.28036500  1
  O  O39  1  0.19343900  0.88709900  0.61843000  1
  O  O40  1  0.97632500  0.62294400  0.14788400  1
  O  O41  1  0.97333900  0.17075100  0.65783800  1
  O  O42  1  0.70324300  0.46653600  0.06190300  1
  O  O43  1  0.62067900  0.35536300  0.20759800  1
  O  O44  1  0.44741100  0.85667100  0.99881200  1
  O  O45  1  0.79675700  0.46653600  0.06190300  1
  O  O46  1  0.75000000  0.78657800  0.81200300  1
  O  O47  1  0.47632500  0.37705600  0.85211600  1
loop_
_geom_bond_atom_site_label_1
_geom_bond_atom_site_label_2
_geom_bond_distance
_geom_bond_site_symmetry_2
O0 P8 1.537212 1_555
O0 Sn9 2.506987 1_565
O0 Sn8 2.526767 1_556
O1 P4 1.523869 1_555
O1 Sn11 2.499892 1_555
O1 Sn0 2.499892 1_555
O2 P3 1.515299 1_555
O2 Sn10 2.556934 1_555
O3 P7 1.615025 1_556
O3 P8 1.647119 1_555
O4 P1 1.515299 1_555
O4 Sn3 2.556934 1_555
O5 P10 1.541036 1_555
O5 Sn2 2.459105 1_556
O5 Sn0 2.628118 1_565
O6 P13 1.541036 1_555
O6 Sn5 2.459105 1_556
O6 Sn11 2.628118 1_565
O7 P0 1.564467 1_555
O7 Sn4 2.326321 1_545
O7 Sn9 2.450089 1_555
O8 P2 1.511495 1_555
O8 Sn0 2.355581 1_555
O9 P6 1.508315 1_555
O9 Sn6 2.299472 1_555
O10 P3 1.624928 1_555
O10 P10 1.632125 1_555
O11 P8 1.569254 1_555
O11 Sn4 2.336589 1_555
O11 Sn9 2.462302 1_555
O12 P6 1.564467 1_555
O12 Sn3 2.326321 1_545
O12 Sn1 2.450089 1_555
O13 P7 1.502592 1_555
O13 Sn8 2.713015 1_545
O13 Sn6 2.713015 1_545
O14 P0 1.541036 1_555
O14 Sn9 2.459105 1_554
O14 Sn8 2.628118 1_545
O15 P10 1.564467 1_555
O15 Sn10 2.326321 1_565
O15 Sn2 2.450089 1_555
O16 P13 1.508315 1_555
O16 Sn11 2.299472 1_555
O17 P9 1.624928 1_555
O17 P13 1.632125 1_555
O18 P7 1.523869 1_555
O18 Sn8 2.499892 1_555
O18 Sn6 2.499892 1_555
O19 P1 1.548570 1_555
O19 Sn2 2.343015 1_555
O19 Sn10 2.628480 1_555
O20 P12 1.511495 1_555
O20 Sn11 2.355581 1_555
O21 P12 1.569254 1_555
O21 Sn7 2.336589 1_555
O21 Sn5 2.462302 1_555
O22 P5 1.515299 1_555
O22 Sn4 2.556934 1_555
O23 P2 1.537212 1_555
O23 Sn2 2.506987 1_545
O23 Sn0 2.526767 1_554
O24 P9 1.557427 1_554
O24 Sn7 2.313813 1_555
O24 Sn5 2.503405 1_545
O25 P9 1.548570 1_455
O25 Sn9 2.343015 1_555
O25 Sn4 2.628480 1_555
O26 P13 1.564467 1_555
O26 Sn7 2.326321 1_565
O26 Sn5 2.450089 1_555
O27 P6 1.541036 1_555
O27 Sn1 2.459105 1_554
O27 Sn6 2.628118 1_545
O28 P7 1.615025 1_556
O28 P11 1.647119 1_555
O29 P12 1.537212 1_555
O29 Sn5 2.506987 1_545
O29 Sn11 2.526767 1_554
O30 P11 1.569254 1_555
O30 Sn3 2.336589 1_555
O30 Sn1 2.462302 1_555
O31 P5 1.557427 1_556
O31 Sn4 2.313813 1_555
O31 Sn9 2.503405 1_565
O32 P11 1.537212 1_555
O32 Sn1 2.506987 1_565
O32 Sn6 2.526767 1_556
O33 P0 1.508315 1_555
O33 Sn8 2.299472 1_555
O34 P10 1.508315 1_555
O34 Sn0 2.299472 1_555
O35 P3 1.557427 1_554
O35 Sn10 2.313813 1_555
O35 Sn2 2.503405 1_545
O36 P5 1.624928 1_555
O36 P0 1.632125 1_555
O37 P11 1.511495 1_555
O37 Sn6 2.355581 1_555
O38 P1 1.624928 1_555
O38 P6 1.632125 1_555
O39 P8 1.511495 1_555
O39 Sn8 2.355581 1_555
O40 P5 1.548570 1_655
O40 Sn5 2.343015 1_555
O40 Sn7 2.628480 1_555
O41 P9 1.515299 1_555
O41 Sn7 2.556934 1_555
O42 P4 1.615025 1_554
O42 P2 1.647119 1_555
O43 P2 1.569254 1_555
O43 Sn10 2.336589 1_555
O43 Sn2 2.462302 1_555
O44 P1 1.557427 1_556
O44 Sn3 2.313813 1_555
O44 Sn1 2.503405 1_565
O45 P4 1.615025 1_554
O45 P12 1.647119 1_555
O46 P4 1.502592 1_555
O46 Sn11 2.713015 1_565
O46 Sn0 2.713015 1_565
O47 P3 1.548570 1_555
O47 Sn1 2.343015 1_555
O47 Sn3 2.628480 1_555
