# generated using pymatgen
data_Ba3La7Ti3Cr7O30
_symmetry_space_group_name_H-M   'P 1'
_cell_length_a   5.60867100
_cell_length_b   7.95282572
_cell_length_c   14.82252673
_cell_angle_alpha   105.43657801
_cell_angle_beta   100.80292956
_cell_angle_gamma   90.46304981
_symmetry_Int_Tables_number   1
_chemical_formula_structural   Ba3La7Ti3Cr7O30
_chemical_formula_sum   'Ba3 La7 Ti3 Cr7 O30'
_cell_volume   624.83591063
_cell_formula_units_Z   1
loop_
 _symmetry_equiv_pos_site_id
 _symmetry_equiv_pos_as_xyz
  1  'x, y, z'
loop_
 _atom_site_type_symbol
 _atom_site_label
 _atom_site_symmetry_multiplicity
 _atom_site_fract_x
 _atom_site_fract_y
 _atom_site_fract_z
 _atom_site_occupancy
  Ba  Ba0  1  0.50252100  0.75188600  0.00143500  1
  Ba  Ba1  1  0.50186600  0.24855200  0.00172900  1
  Ba  Ba2  1  0.89977800  0.64917900  0.79653900  1
  La  La0  1  0.89852200  0.14485400  0.79975500  1
  La  La1  1  0.30359500  0.54949900  0.59671000  1
  La  La2  1  0.69897400  0.95016500  0.39677000  1
  La  La3  1  0.10079200  0.35052400  0.20548000  1
  La  La4  1  0.29610000  0.04592900  0.59913400  1
  La  La5  1  0.70419600  0.45178400  0.40423300  1
  La  La6  1  0.10963400  0.85297300  0.20168400  1
  Ti  Ti0  1  0.99849400  0.00127100  0.00034600  1
  Ti  Ti1  1  0.00601900  0.49890000  0.00389900  1
  Ti  Ti2  1  0.40293300  0.39288800  0.79732500  1
  Cr  Cr0  1  0.39489700  0.90044900  0.79717400  1
  Cr  Cr1  1  0.79754600  0.29684600  0.59681300  1
  Cr  Cr2  1  0.80083200  0.79878900  0.59652300  1
  Cr  Cr3  1  0.20048900  0.70032200  0.40046600  1
  Cr  Cr4  1  0.20136500  0.19995600  0.40115100  1
  Cr  Cr5  1  0.60656500  0.10104800  0.20332300  1
  Cr  Cr6  1  0.59947700  0.60259200  0.20376300  1
  O  O0  1  0.18291600  0.44541100  0.89167500  1
  O  O1  1  0.99440700  0.24710800  0.99069100  1
  O  O2  1  0.71605100  0.94687900  0.89332200  1
  O  O3  1  0.55833200  0.86838400  0.68380700  1
  O  O4  1  0.69574900  0.45757100  0.90295800  1
  O  O5  1  0.38952900  0.63302700  0.77795700  1
  O  O6  1  0.40389000  0.15445100  0.80550800  1
  O  O7  1  0.12209500  0.31742200  0.68766800  1
  O  O8  1  0.20603400  0.94863700  0.90568600  1
  O  O9  1  0.95696300  0.26964800  0.48439800  1
  O  O10  1  0.07571400  0.89590600  0.70765000  1
  O  O11  1  0.78846900  0.03571100  0.57123000  1
  O  O12  1  0.80307000  0.55373700  0.60783100  1
  O  O13  1  0.53035700  0.71251200  0.48254800  1
  O  O14  1  0.62404100  0.31655600  0.70647200  1
  O  O15  1  0.34784500  0.66433700  0.28504700  1
  O  O16  1  0.46789900  0.28887200  0.51412400  1
  O  O17  1  0.18249000  0.43790300  0.37659300  1
  O  O18  1  0.21784900  0.96162200  0.42376200  1
  O  O19  1  0.93497700  0.11171900  0.28756700  1
  O  O20  1  0.05326900  0.72891000  0.51562700  1
  O  O21  1  0.79807300  0.06114500  0.09759600  1
  O  O22  1  0.86875700  0.68637500  0.31737800  1
  O  O23  1  0.58137300  0.84738500  0.19489900  1
  O  O24  1  0.62497700  0.36286100  0.22554500  1
  O  O25  1  0.30324200  0.53189200  0.09610000  1
  O  O26  1  0.44609700  0.13769800  0.31668000  1
  O  O27  1  0.27705300  0.07514600  0.11436400  1
  O  O28  1  0.01011100  0.75637700  0.01421200  1
  O  O29  1  0.83813800  0.54352600  0.11346800  1
loop_
_geom_bond_atom_site_label_1
_geom_bond_atom_site_label_2
_geom_bond_distance
_geom_bond_site_symmetry_2
Ba0 O23 2.712092 1_555
Ba0 O8 2.750890 1_554
Ba0 O4 2.756624 1_554
Ba0 O28 2.803312 1_555
Ba0 O28 2.816852 1_655
Ba0 O21 2.830318 1_565
Ba0 O25 2.853474 1_555
Ba0 O2 2.901632 1_554
Ba0 O0 2.919930 1_554
Ba0 O29 3.064351 1_555
Ba0 O27 3.092807 1_565
Ba0 O5 3.131193 1_554
Ba1 O25 2.687394 1_555
Ba1 O21 2.698715 1_555
Ba1 O6 2.748974 1_554
Ba1 O8 2.776995 1_544
Ba1 O1 2.797722 1_554
Ba1 O1 2.819840 1_454
Ba1 O4 2.819969 1_554
Ba1 O27 2.875021 1_555
Ba1 O29 2.914209 1_555
Ba1 O2 2.915305 1_544
Ba1 O0 2.936519 1_554
Ba1 O24 3.136048 1_555
Ba2 O12 2.643606 1_555
Ba2 O2 2.740563 1_555
Ba2 O0 2.748662 1_655
Ba2 O5 2.812124 1_655
Ba2 O5 2.821722 1_555
Ba2 O4 2.836860 1_555
Ba2 O8 2.842647 1_655
Ba2 O10 2.896919 1_655
Ba2 O14 2.907149 1_555
Ba2 O28 3.049351 1_656
Ba2 O7 3.108219 1_655
Ba2 O3 3.147031 1_555
La0 O10 2.423386 1_645
La0 O14 2.527369 1_555
La0 O2 2.668008 1_545
La0 O1 2.675348 1_555
La0 O0 2.739353 1_655
La0 O6 2.792504 1_555
La0 O6 2.819503 1_655
La0 O3 2.849549 1_545
La0 O7 2.860616 1_655
La0 O8 2.864944 1_645
La0 O4 2.913968 1_555
La0 O11 3.201675 1_555
La1 O16 2.397275 1_555
La1 O20 2.400876 1_555
La1 O5 2.539777 1_555
La1 O3 2.765239 1_555
La1 O12 2.774619 1_555
La1 O7 2.840645 1_555
La1 O12 2.842740 1_455
La1 O13 2.847741 1_555
La1 O9 2.872081 1_455
La1 O17 3.084186 1_555
La1 O14 3.141864 1_555
La1 O10 3.218751 1_555
La2 O22 2.414715 1_555
La2 O11 2.444020 1_565
La2 O26 2.447601 1_565
La2 O19 2.811704 1_565
La3 O17 2.397237 1_555
La3 O27 2.560963 1_555
La3 O29 2.604607 1_455
La3 O15 2.702605 1_555
La3 O24 2.739747 1_455
La3 O19 2.752814 1_455
La3 O21 2.774198 1_455
La3 O25 2.811919 1_555
La3 O24 2.897171 1_555
La3 O1 3.009076 1_454
La3 O26 3.110282 1_555
La3 O22 3.175801 1_455
La4 O3 2.452968 1_545
La4 O18 2.457458 1_545
La4 O7 2.518381 1_555
La4 O10 2.698457 1_545
La4 O20 2.719328 1_545
La4 O14 2.750042 1_555
La4 O11 2.796567 1_455
La4 O16 2.823159 1_555
La4 O11 2.866645 1_555
La4 O6 2.891476 1_555
La4 O9 3.182565 1_455
La4 O13 3.195578 1_545
La5 O13 2.402761 1_555
La5 O9 2.416169 1_555
La5 O24 2.503860 1_555
La5 O26 2.744217 1_555
La5 O22 2.772400 1_555
La5 O17 2.787301 1_655
La5 O16 2.827220 1_555
La5 O12 2.852205 1_555
La5 O20 2.863209 1_655
La5 O17 2.874592 1_555
La6 O19 2.433121 1_465
La6 O15 2.441878 1_555
La6 O28 2.626542 1_555
La6 O23 2.666790 1_555
La6 O27 2.706488 1_565
La6 O29 2.750435 1_455
La6 O26 2.874792 1_565
La6 O22 2.927543 1_455
La6 O21 2.927569 1_465
La6 O23 2.945219 1_455
La6 O25 2.950132 1_555
La6 O18 3.111124 1_555
Cr0 O6 1.990356 1_565
Cr0 O10 2.012432 1_555
Cr0 O3 2.020409 1_555
Cr0 O2 2.039294 1_555
Cr0 O8 2.042803 1_555
Cr0 O5 2.068432 1_555
Cr1 O9 1.998112 1_555
Cr1 O12 2.005238 1_555
Cr1 O11 2.007772 1_555
Cr1 O16 2.007954 1_555
Cr1 O14 2.018250 1_555
Cr1 O7 2.027996 1_655
Cr2 O12 1.999947 1_555
Cr2 O13 2.007873 1_555
Cr2 O10 2.009525 1_655
Cr2 O20 2.011373 1_655
Cr2 O11 2.015932 1_565
Cr2 O3 2.029941 1_555
Cr3 O15 1.991234 1_555
Cr3 O20 1.993000 1_555
Cr3 O13 2.000780 1_555
Cr3 O18 2.012272 1_555
Cr3 O22 2.013899 1_455
Cr3 O17 2.020132 1_555
Cr4 O16 1.988224 1_555
Cr4 O19 1.992587 1_455
Cr4 O9 1.997762 1_455
Cr4 O26 2.005528 1_555
Cr4 O18 2.010700 1_545
Cr4 O17 2.019949 1_555
Cr5 O23 1.989948 1_545
Cr5 O26 2.007134 1_555
Cr5 O19 2.009509 1_555
Cr5 O24 2.018216 1_555
Cr5 O21 2.020421 1_555
Cr5 O27 2.032838 1_555
Cr6 O23 1.987950 1_555
Cr6 O22 1.998498 1_555
Cr6 O15 2.004558 1_555
Cr6 O24 2.018507 1_555
Cr6 O25 2.033882 1_555
Cr6 O29 2.037353 1_555
O0 Ti2 1.999334 1_555
O0 Ti1 2.044793 1_556
O1 Ti1 1.958781 1_656
O1 Ti0 1.997964 1_556
O2 Ti0 1.973507 1_566
O4 Ti2 2.001749 1_555
O4 Ti1 2.031720 1_656
O5 Ti2 2.005352 1_555
O6 Ti2 1.932060 1_555
O7 Ti2 1.997204 1_555
O8 Ti0 1.950979 1_466
O14 Ti2 1.980644 1_555
O21 Ti0 1.954199 1_555
O25 Ti1 1.914045 1_555
O27 Ti0 2.027094 1_455
O28 Ti1 2.011999 1_555
O28 Ti0 2.012400 1_465
O29 Ti1 1.980410 1_655
