# generated using pymatgen
data_LaH3(CO2)3
_symmetry_space_group_name_H-M   'P 1'
_cell_length_a   6.42243882
_cell_length_b   6.42243882
_cell_length_c   6.42243855
_cell_angle_alpha   115.45490450
_cell_angle_beta   115.45490450
_cell_angle_gamma   115.45490120
_symmetry_Int_Tables_number   1
_chemical_formula_structural   LaH3(CO2)3
_chemical_formula_sum   'La1 H3 C3 O6'
_cell_volume   141.92444812
_cell_formula_units_Z   1
loop_
 _symmetry_equiv_pos_site_id
 _symmetry_equiv_pos_as_xyz
  1  'x, y, z'
loop_
 _atom_site_type_symbol
 _atom_site_label
 _atom_site_symmetry_multiplicity
 _atom_site_fract_x
 _atom_site_fract_y
 _atom_site_fract_z
 _atom_site_occupancy
  La  La0  1  0.00243000  0.00243000  0.00243000  1
  H  H0  1  0.38292800  0.86910600  0.38292800  1
  H  H1  1  0.38292800  0.38292800  0.86910600  1
  H  H2  1  0.86910600  0.38292800  0.38292800  1
  C  C0  1  0.61530900  0.15819800  0.61530900  1
  C  C1  1  0.61530900  0.61530900  0.15819800  1
  C  C2  1  0.15819800  0.61530900  0.61530900  1
  O  O0  1  0.88419800  0.29040800  0.88419800  1
  O  O1  1  0.88419800  0.88419800  0.29040800  1
  O  O2  1  0.29040800  0.88419800  0.88419800  1
  O  O3  1  0.59131400  0.33636100  0.59131400  1
  O  O4  1  0.59131400  0.59131400  0.33636100  1
  O  O5  1  0.33636100  0.59131400  0.59131400  1
loop_
_geom_bond_atom_site_label_1
_geom_bond_atom_site_label_2
_geom_bond_distance
_geom_bond_site_symmetry_2
La0 O1 2.548086 1_445
La0 O2 2.548086 1_544
La0 O0 2.548086 1_454
La0 O4 2.613720 1_444
La0 O3 2.613720 1_444
La0 O5 2.613720 1_444
La0 O5 2.639514 1_555
La0 O3 2.639514 1_555
La0 O4 2.639514 1_555
C0 H0 1.106108 1_545
C0 O0 1.265310 1_555
C0 O3 1.280440 1_555
C1 H1 1.106108 1_554
C1 O1 1.265310 1_555
C1 O4 1.280440 1_555
C2 H2 1.106108 1_455
C2 O2 1.265310 1_555
C2 O5 1.280440 1_555
