# generated using pymatgen
data_Ni6Mo2P3
_symmetry_space_group_name_H-M   'P 1'
_cell_length_a   3.52751400
_cell_length_b   5.67483200
_cell_length_c   12.84886000
_cell_angle_alpha   90.00000000
_cell_angle_beta   90.00000000
_cell_angle_gamma   90.00000000
_symmetry_Int_Tables_number   1
_chemical_formula_structural   Ni6Mo2P3
_chemical_formula_sum   'Ni12 Mo4 P6'
_cell_volume   257.20911328
_cell_formula_units_Z   2
loop_
 _symmetry_equiv_pos_site_id
 _symmetry_equiv_pos_as_xyz
  1  'x, y, z'
loop_
 _atom_site_type_symbol
 _atom_site_label
 _atom_site_symmetry_multiplicity
 _atom_site_fract_x
 _atom_site_fract_y
 _atom_site_fract_z
 _atom_site_occupancy
  Ni  Ni0  1  0.50000000  0.45186800  0.09859300  1
  Ni  Ni1  1  0.50000000  0.06284800  0.00000000  1
  Ni  Ni2  1  0.50000000  0.36226600  0.71001200  1
  Ni  Ni3  1  0.00000000  0.93715200  0.50000000  1
  Ni  Ni4  1  0.00000000  0.63773400  0.78998800  1
  Ni  Ni5  1  0.00000000  0.63773400  0.21001200  1
  Ni  Ni6  1  0.50000000  0.26862600  0.50000000  1
  Ni  Ni7  1  0.00000000  0.73137400  0.00000000  1
  Ni  Ni8  1  0.50000000  0.45186800  0.90140700  1
  Ni  Ni9  1  0.50000000  0.36226600  0.28998800  1
  Ni  Ni10  1  0.00000000  0.54813200  0.59859300  1
  Ni  Ni11  1  0.00000000  0.54813200  0.40140700  1
  Mo  Mo0  1  0.50000000  0.88382800  0.66764100  1
  Mo  Mo1  1  0.00000000  0.11617200  0.83235900  1
  Mo  Mo2  1  0.00000000  0.11617200  0.16764100  1
  Mo  Mo3  1  0.50000000  0.88382800  0.33235900  1
  P  P0  1  0.00000000  0.17549700  0.36201400  1
  P  P1  1  0.50000000  0.82450300  0.86201400  1
  P  P2  1  0.00000000  0.32792900  0.00000000  1
  P  P3  1  0.50000000  0.67207100  0.50000000  1
  P  P4  1  0.50000000  0.82450300  0.13798600  1
  P  P5  1  0.00000000  0.17549700  0.63798600  1
loop_
_geom_bond_atom_site_label_1
_geom_bond_atom_site_label_2
_geom_bond_distance
_geom_bond_site_symmetry_2
Ni0 P4 2.174373 1_555
Ni0 P2 2.282612 1_655
Ni0 P2 2.282612 1_555
Ni1 P4 2.229986 1_545
Ni1 P1 2.229986 1_544
Ni1 P2 2.318130 1_655
Ni1 P2 2.318130 1_555
Ni2 P5 2.256247 1_555
Ni2 P5 2.256247 1_655
Ni3 P5 2.229986 1_565
Ni3 P0 2.229986 1_565
Ni3 P3 2.318130 1_555
Ni3 P3 2.318130 1_455
Ni4 P1 2.256247 1_555
Ni4 P1 2.256247 1_455
Ni5 P4 2.256247 1_455
Ni5 P4 2.256247 1_555
Ni6 P3 2.289483 1_555
Ni6 P0 2.556079 1_555
Ni6 P0 2.556079 1_655
Ni6 P5 2.556079 1_555
Ni6 P5 2.556079 1_655
Ni7 P2 2.289483 1_555
Ni7 P4 2.556079 1_555
Ni7 P4 2.556079 1_455
Ni7 P1 2.556079 1_554
Ni7 P1 2.556079 1_454
Ni8 P1 2.174373 1_555
Ni8 P2 2.282612 1_556
Ni8 P2 2.282612 1_656
Ni9 P0 2.256247 1_655
Ni9 P0 2.256247 1_555
Ni10 P5 2.174373 1_555
Ni10 P3 2.282612 1_455
Ni10 P3 2.282612 1_555
Ni11 P0 2.174373 1_555
Ni11 P3 2.282612 1_555
Ni11 P3 2.282612 1_455
Mo0 P5 2.448596 1_665
Mo0 P5 2.448596 1_565
Mo0 P3 2.466525 1_555
Mo0 P1 2.520060 1_555
Mo0 Ni10 2.743545 1_555
Mo0 Ni10 2.743545 1_655
Mo0 Ni4 2.744524 1_655
Mo0 Ni4 2.744524 1_555
Mo0 Ni2 2.769100 1_565
Mo0 Ni3 2.800376 1_555
Mo0 Ni3 2.800376 1_655
Mo0 Ni2 3.009430 1_555
Mo0 Mo1 3.054280 1_565
Mo0 Mo1 3.054280 1_665
Mo0 Ni6 3.067260 1_565
Mo1 P1 2.448596 1_545
Mo1 P1 2.448596 1_445
Mo1 P2 2.466525 1_556
Mo1 P5 2.520060 1_555
Mo1 Ni8 2.743545 1_555
Mo1 Ni8 2.743545 1_455
Mo1 Ni2 2.744524 1_455
Mo1 Ni2 2.744524 1_555
Mo1 Ni4 2.769100 1_545
Mo1 Ni1 2.800376 1_556
Mo1 Ni1 2.800376 1_456
Mo1 Ni4 3.009430 1_555
Mo1 Ni7 3.067260 1_546
Mo2 P4 2.448596 1_445
Mo2 P4 2.448596 1_545
Mo2 P2 2.466525 1_555
Mo2 P0 2.520060 1_555
Mo2 Ni0 2.743545 1_455
Mo2 Ni0 2.743545 1_555
Mo2 Ni9 2.744524 1_455
Mo2 Ni9 2.744524 1_555
Mo2 Ni5 2.769100 1_545
Mo2 Ni1 2.800376 1_555
Mo2 Ni1 2.800376 1_455
Mo2 Ni5 3.009430 1_555
Mo2 Mo3 3.054280 1_445
Mo2 Mo3 3.054280 1_545
Mo2 Ni7 3.067260 1_545
Mo3 P0 2.448596 1_565
Mo3 P0 2.448596 1_665
Mo3 P3 2.466525 1_555
Mo3 P4 2.520060 1_555
Mo3 Ni11 2.743545 1_655
Mo3 Ni11 2.743545 1_555
Mo3 Ni5 2.744524 1_655
Mo3 Ni5 2.744524 1_555
Mo3 Ni9 2.769100 1_565
Mo3 Ni3 2.800376 1_655
Mo3 Ni3 2.800376 1_555
Mo3 Ni9 3.009430 1_555
Mo3 Ni6 3.067260 1_565
