# generated using pymatgen
data_Li7Mn10O20
_symmetry_space_group_name_H-M   'P 1'
_cell_length_a   5.71673100
_cell_length_b   6.12420098
_cell_length_c   12.34195817
_cell_angle_alpha   94.38992594
_cell_angle_beta   92.13263426
_cell_angle_gamma   116.25484202
_symmetry_Int_Tables_number   1
_chemical_formula_structural   Li7Mn10O20
_chemical_formula_sum   'Li7 Mn10 O20'
_cell_volume   385.16058468
_cell_formula_units_Z   1
loop_
 _symmetry_equiv_pos_site_id
 _symmetry_equiv_pos_as_xyz
  1  'x, y, z'
loop_
 _atom_site_type_symbol
 _atom_site_label
 _atom_site_symmetry_multiplicity
 _atom_site_fract_x
 _atom_site_fract_y
 _atom_site_fract_z
 _atom_site_occupancy
  Li  Li0  1  0.18141000  0.16527300  0.99108400  1
  Li  Li1  1  0.62483000  0.51805600  0.44016100  1
  Li  Li2  1  0.74439200  0.86714900  0.32847200  1
  Li  Li3  1  0.11282600  0.55672000  0.41394000  1
  Li  Li4  1  0.37631400  0.02607300  0.79724300  1
  Li  Li5  1  0.61303300  0.59507800  0.64238100  1
  Li  Li6  1  0.93389500  0.41956000  0.75429100  1
  Mn  Mn0  1  0.66439000  0.09923300  0.01104700  1
  Mn  Mn1  1  0.50052700  0.53445200  0.15962900  1
  Mn  Mn2  1  0.30862500  0.94480300  0.25172000  1
  Mn  Mn3  1  0.98538700  0.30464800  0.22713700  1
  Mn  Mn4  1  0.67078900  0.13913700  0.51966600  1
  Mn  Mn5  1  0.15894100  0.13581500  0.51001300  1
  Mn  Mn6  1  0.17140800  0.70687000  0.61444000  1
  Mn  Mn7  1  0.87792600  0.00054700  0.78760200  1
  Mn  Mn8  1  0.47841000  0.58260000  0.88691700  1
  Mn  Mn9  1  0.95886500  0.62834800  0.99471300  1
  O  O0  1  0.22452500  0.26345400  0.83338700  1
  O  O1  1  0.83441500  0.85486300  0.94689800  1
  O  O2  1  0.64488900  0.02345100  0.17010700  1
  O  O3  1  0.80141400  0.49525300  0.27960500  1
  O  O4  1  0.33080600  0.63928500  0.28316700  1
  O  O5  1  0.22695900  0.17606700  0.18321400  1
  O  O6  1  0.90628900  0.72511800  0.22608500  1
  O  O7  1  0.91742400  0.17826800  0.40764600  1
  O  O8  1  0.81643000  0.46286000  0.56865400  1
  O  O9  1  0.42714800  0.15199500  0.40914900  1
  O  O10  1  0.33810600  0.53350900  0.53161100  1
  O  O11  1  0.39398100  0.06791200  0.61293800  1
  O  O12  1  0.90864900  0.10693400  0.61994500  1
  O  O13  1  0.98783200  0.80621100  0.46626800  1
  O  O14  1  0.73726500  0.20954700  0.85966400  1
  O  O15  1  0.01259700  0.76507000  0.74040600  1
  O  O16  1  0.31869200  0.82529600  0.96670200  1
  O  O17  1  0.50873000  0.74244600  0.75755700  1
  O  O18  1  0.01054500  0.37654200  0.05970700  1
  O  O19  1  0.57333700  0.43555500  0.01283500  1
loop_
_geom_bond_atom_site_label_1
_geom_bond_atom_site_label_2
_geom_bond_distance
_geom_bond_site_symmetry_2
Li0 O1 2.066566 1_445
Li0 O0 2.072214 1_555
Li0 O18 2.087449 1_556
Li0 O19 2.106659 1_556
Li0 O5 2.368516 1_556
Li0 O16 2.531580 1_545
Li1 O9 2.011075 1_555
Li1 O8 2.027141 1_555
Li1 O13 2.036578 1_555
Li1 O10 2.056250 1_555
Li1 O3 2.279570 1_555
Li2 O7 1.881291 1_565
Li2 O6 1.959856 1_555
Li2 O4 2.171009 1_555
Li2 O13 2.312759 1_555
Li2 O2 2.396968 1_565
Li3 O10 1.960183 1_555
Li3 O13 2.027682 1_455
Li3 O4 2.032403 1_555
Li3 O7 2.073899 1_455
Li3 O3 2.269741 1_455
Li4 O14 1.952380 1_555
Li4 O0 2.027563 1_555
Li4 O15 2.037097 1_545
Li4 O17 2.211499 1_545
Li4 O11 2.309431 1_555
Li4 O16 2.466013 1_545
Li5 O17 1.879765 1_555
Li5 O8 1.906467 1_555
Li5 O10 1.928273 1_555
Li5 O15 2.294053 1_655
Li6 O14 1.922203 1_555
Li6 O15 1.981946 1_655
Li6 O12 2.384842 1_555
Li6 O8 2.430340 1_555
Li6 O0 2.460657 1_655
Mn0 O16 1.966036 1_544
Mn0 O18 1.985678 1_655
Mn0 O14 2.030495 1_554
Mn0 O2 2.047344 1_555
Mn0 O1 2.230284 1_544
Mn0 O19 2.335862 1_555
Mn1 O19 1.983334 1_555
Mn1 O4 2.046862 1_555
Mn1 O5 2.107758 1_555
Mn1 O6 2.175388 1_555
Mn1 O3 2.332191 1_555
Mn1 O2 2.722569 1_565
Mn1 O18 2.732388 1_555
Mn2 O5 1.917732 1_565
Mn2 O4 1.996239 1_555
Mn2 O2 2.083540 1_565
Mn2 O6 2.084061 1_455
Mn2 O9 2.146693 1_565
Mn3 O5 1.942579 1_655
Mn3 O3 1.977166 1_555
Mn3 O2 1.999201 1_555
Mn3 O18 2.142426 1_655
Mn3 O4 2.162992 1_655
Mn3 O7 2.403244 1_555
Mn4 O8 1.818763 1_555
Mn4 O12 1.889187 1_555
Mn4 O11 1.902972 1_555
Mn4 O9 1.943899 1_555
Mn4 O7 1.963077 1_555
Mn5 O13 1.835718 1_445
Mn5 O7 1.951446 1_455
Mn5 O12 1.968954 1_455
Mn5 O9 1.984169 1_555
Mn5 O11 2.010024 1_555
Mn5 O10 2.173779 1_555
Mn6 O15 1.916974 1_555
Mn6 O8 1.942415 1_455
Mn6 O10 1.970248 1_555
Mn6 O11 2.006792 1_565
Mn6 O13 2.325534 1_455
Mn6 O17 2.490372 1_555
Mn7 O0 1.947456 1_655
Mn7 O14 1.966079 1_555
Mn7 O15 1.974521 1_645
Mn7 O17 1.997761 1_545
Mn7 O1 2.198118 1_545
Mn7 O12 2.206625 1_555
Mn8 O0 1.893233 1_555
Mn8 O17 1.909732 1_555
Mn8 O19 2.025942 1_556
Mn8 O1 2.041278 1_555
Mn8 O16 2.248556 1_555
Mn9 O18 1.919286 1_656
Mn9 O16 1.930640 1_655
Mn9 O1 1.935471 1_555
Mn9 O19 2.019004 1_556
O3 O6 1.484120 1_555
