# generated using pymatgen
data_SiO2
_symmetry_space_group_name_H-M   'P 1'
_cell_length_a   8.55015700
_cell_length_b   12.56760500
_cell_length_c   29.31916700
_cell_angle_alpha   90.00000000
_cell_angle_beta   90.00000000
_cell_angle_gamma   90.00000000
_symmetry_Int_Tables_number   1
_chemical_formula_structural   SiO2
_chemical_formula_sum   'Si56 O112'
_cell_volume   3150.49096872
_cell_formula_units_Z   56
loop_
 _symmetry_equiv_pos_site_id
 _symmetry_equiv_pos_as_xyz
  1  'x, y, z'
loop_
 _atom_site_type_symbol
 _atom_site_label
 _atom_site_symmetry_multiplicity
 _atom_site_fract_x
 _atom_site_fract_y
 _atom_site_fract_z
 _atom_site_occupancy
  Si  Si0  1  0.18896000  0.72272400  0.29881300  1
  Si  Si1  1  0.31158700  0.03598700  0.70050000  1
  Si  Si2  1  0.31104000  0.72272400  0.20118700  1
  Si  Si3  1  0.18841300  0.96401300  0.20050000  1
  Si  Si4  1  0.81446900  0.96131500  0.60766600  1
  Si  Si5  1  0.68222100  0.79334000  0.53800700  1
  Si  Si6  1  0.31158700  0.96401300  0.29950000  1
  Si  Si7  1  0.81400500  0.43998400  0.45331900  1
  Si  Si8  1  0.18553100  0.03868500  0.39233400  1
  Si  Si9  1  0.18437400  0.38310700  0.88895400  1
  Si  Si10  1  0.68553100  0.03868500  0.10766600  1
  Si  Si11  1  0.18599500  0.43998400  0.45331900  1
  Si  Si12  1  0.31446900  0.03868500  0.10766600  1
  Si  Si13  1  0.81158700  0.96401300  0.20050000  1
  Si  Si14  1  0.68896000  0.72272400  0.20118700  1
  Si  Si15  1  0.68214800  0.18562200  0.94092400  1
  Si  Si16  1  0.81104000  0.27727600  0.70118700  1
  Si  Si17  1  0.68553100  0.96131500  0.89233400  1
  Si  Si18  1  0.68214800  0.81437800  0.05907600  1
  Si  Si19  1  0.81562600  0.61689300  0.11104600  1
  Si  Si20  1  0.81785200  0.81437800  0.44092400  1
  Si  Si21  1  0.31562600  0.61689300  0.38895400  1
  Si  Si22  1  0.18214800  0.81437800  0.44092400  1
  Si  Si23  1  0.81785200  0.18562200  0.55907600  1
  Si  Si24  1  0.81777900  0.20666000  0.03800700  1
  Si  Si25  1  0.31400500  0.43998400  0.04668100  1
  Si  Si26  1  0.68599500  0.43998400  0.04668100  1
  Si  Si27  1  0.18214800  0.18562200  0.55907600  1
  Si  Si28  1  0.18841300  0.03598700  0.79950000  1
  Si  Si29  1  0.18896000  0.27727600  0.70118700  1
  Si  Si30  1  0.18222100  0.79334000  0.96199300  1
  Si  Si31  1  0.81446900  0.03868500  0.39233400  1
  Si  Si32  1  0.18553100  0.96131500  0.60766600  1
  Si  Si33  1  0.81562600  0.38310700  0.88895400  1
  Si  Si34  1  0.31400500  0.56001600  0.95331900  1
  Si  Si35  1  0.68599500  0.56001600  0.95331900  1
  Si  Si36  1  0.31562600  0.38310700  0.61104600  1
  Si  Si37  1  0.18599500  0.56001600  0.54668100  1
  Si  Si38  1  0.31446900  0.96131500  0.89233400  1
  Si  Si39  1  0.81400500  0.56001600  0.54668100  1
  Si  Si40  1  0.31777900  0.79334000  0.53800700  1
  Si  Si41  1  0.81777900  0.79334000  0.96199300  1
  Si  Si42  1  0.31777900  0.20666000  0.46199300  1
  Si  Si43  1  0.31785200  0.81437800  0.05907600  1
  Si  Si44  1  0.68222100  0.20666000  0.46199300  1
  Si  Si45  1  0.68841300  0.96401300  0.29950000  1
  Si  Si46  1  0.68437400  0.38310700  0.61104600  1
  Si  Si47  1  0.18437400  0.61689300  0.11104600  1
  Si  Si48  1  0.18222100  0.20666000  0.03800700  1
  Si  Si49  1  0.31104000  0.27727600  0.79881300  1
  Si  Si50  1  0.31785200  0.18562200  0.94092400  1
  Si  Si51  1  0.81158700  0.03598700  0.79950000  1
  Si  Si52  1  0.68437400  0.61689300  0.38895400  1
  Si  Si53  1  0.68896000  0.27727600  0.79881300  1
  Si  Si54  1  0.81104000  0.72272400  0.29881300  1
  Si  Si55  1  0.68841300  0.03598700  0.70050000  1
  O  O0  1  0.00000000  0.02655300  0.80159400  1
  O  O1  1  0.00000000  0.73001600  0.29844700  1
  O  O2  1  0.28180100  0.32945700  0.44832900  1
  O  O3  1  0.74013800  0.50000000  0.00000000  1
  O  O4  1  0.27646700  0.51475000  0.09047000  1
  O  O5  1  0.00000000  0.06280300  0.39673300  1
  O  O6  1  0.78180100  0.32945700  0.05167100  1
  O  O7  1  0.25456500  0.64260300  0.16132100  1
  O  O8  1  0.28255200  0.86912200  0.58156500  1
  O  O9  1  0.75986200  0.50000000  0.50000000  1
  O  O10  1  0.70667000  0.71906100  0.42249100  1
  O  O11  1  0.00000000  0.58903200  0.11513300  1
  O  O12  1  0.21744800  0.13087800  0.08156500  1
  O  O13  1  0.73932200  0.84066100  0.30788400  1
  O  O14  1  0.50000000  0.78352500  0.06888700  1
  O  O15  1  0.22353300  0.48525000  0.59047000  1
  O  O16  1  0.72720200  0.07626400  0.91474900  1
  O  O17  1  0.23527200  0.03858000  0.33877700  1
  O  O18  1  0.29333000  0.28093900  0.57750900  1
  O  O19  1  0.25986200  0.50000000  0.00000000  1
  O  O20  1  0.78255200  0.86912200  0.91843500  1
  O  O21  1  0.25456500  0.35739700  0.83867900  1
  O  O22  1  0.24543500  0.64260300  0.33867900  1
  O  O23  1  0.50000000  0.41096800  0.61513300  1
  O  O24  1  0.71819900  0.32945700  0.44832900  1
  O  O25  1  0.29215900  0.82986900  0.00458700  1
  O  O26  1  0.50000000  0.80515100  0.52329200  1
  O  O27  1  0.27279800  0.92373600  0.08525100  1
  O  O28  1  0.25000000  0.32269000  0.75000000  1
  O  O29  1  0.23932200  0.84066100  0.19211600  1
  O  O30  1  0.00000000  0.41435800  0.45518600  1
  O  O31  1  0.26472800  0.96142000  0.83877700  1
  O  O32  1  0.75000000  0.32269000  0.75000000  1
  O  O33  1  0.75456500  0.35739700  0.66132100  1
  O  O34  1  0.00000000  0.80515100  0.97670800  1
  O  O35  1  0.00000000  0.41096800  0.88486700  1
  O  O36  1  0.25000000  0.67731000  0.25000000  1
  O  O37  1  0.50000000  0.06280300  0.10326700  1
  O  O38  1  0.70784100  0.82986900  0.00458700  1
  O  O39  1  0.70667000  0.28093900  0.57750900  1
  O  O40  1  0.50000000  0.19484900  0.47670800  1
  O  O41  1  0.27646700  0.48525000  0.90953000  1
  O  O42  1  0.71819900  0.67054300  0.55167100  1
  O  O43  1  0.75000000  0.00467600  0.25000000  1
  O  O44  1  0.77279800  0.07626400  0.58525100  1
  O  O45  1  0.76067800  0.84066100  0.19211600  1
  O  O46  1  0.20667000  0.28093900  0.92249100  1
  O  O47  1  0.72353300  0.51475000  0.09047000  1
  O  O48  1  0.50000000  0.97344700  0.30159400  1
  O  O49  1  0.79215900  0.82986900  0.49541300  1
  O  O50  1  0.28180100  0.67054300  0.55167100  1
  O  O51  1  0.78255200  0.13087800  0.08156500  1
  O  O52  1  0.73932200  0.15933900  0.69211600  1
  O  O53  1  0.50000000  0.58903200  0.38486700  1
  O  O54  1  0.21819900  0.32945700  0.05167100  1
  O  O55  1  0.74543500  0.35739700  0.83867900  1
  O  O56  1  0.76472800  0.03858000  0.33877700  1
  O  O57  1  0.75456500  0.64260300  0.33867900  1
  O  O58  1  0.50000000  0.02655300  0.69840600  1
  O  O59  1  0.79333000  0.28093900  0.92249100  1
  O  O60  1  0.25000000  0.99532400  0.75000000  1
  O  O61  1  0.50000000  0.93719700  0.89673300  1
  O  O62  1  0.70784100  0.17013100  0.99541300  1
  O  O63  1  0.79333000  0.71906100  0.07750900  1
  O  O64  1  0.50000000  0.41435800  0.04481400  1
  O  O65  1  0.50000000  0.21647500  0.93111300  1
  O  O66  1  0.20784100  0.82986900  0.49541300  1
  O  O67  1  0.20667000  0.71906100  0.07750900  1
  O  O68  1  0.77279800  0.92373600  0.41474900  1
  O  O69  1  0.29333000  0.71906100  0.42249100  1
  O  O70  1  0.24543500  0.35739700  0.66132100  1
  O  O71  1  0.73527200  0.96142000  0.83877700  1
  O  O72  1  0.76067800  0.15933900  0.80788400  1
  O  O73  1  0.50000000  0.58564200  0.95518600  1
  O  O74  1  0.50000000  0.26998400  0.79844700  1
  O  O75  1  0.21819900  0.67054300  0.94832900  1
  O  O76  1  0.29215900  0.17013100  0.99541300  1
  O  O77  1  0.23932200  0.15933900  0.80788400  1
  O  O78  1  0.23527200  0.96142000  0.66122300  1
  O  O79  1  0.26067800  0.15933900  0.69211600  1
  O  O80  1  0.71744800  0.13087800  0.41843500  1
  O  O81  1  0.71744800  0.86912200  0.58156500  1
  O  O82  1  0.00000000  0.97344700  0.19840600  1
  O  O83  1  0.77646700  0.48525000  0.59047000  1
  O  O84  1  0.20784100  0.17013100  0.50458700  1
  O  O85  1  0.26067800  0.84066100  0.30788400  1
  O  O86  1  0.73527200  0.03858000  0.16122300  1
  O  O87  1  0.22720200  0.07626400  0.58525100  1
  O  O88  1  0.00000000  0.26998400  0.70155300  1
  O  O89  1  0.00000000  0.58564200  0.54481400  1
  O  O90  1  0.00000000  0.19484900  0.02329200  1
  O  O91  1  0.22720200  0.92373600  0.41474900  1
  O  O92  1  0.79215900  0.17013100  0.50458700  1
  O  O93  1  0.50000000  0.73001600  0.20155300  1
  O  O94  1  0.27279800  0.07626400  0.91474900  1
  O  O95  1  0.77646700  0.51475000  0.40953000  1
  O  O96  1  0.75000000  0.67731000  0.25000000  1
  O  O97  1  0.72720200  0.92373600  0.08525100  1
  O  O98  1  0.72353300  0.48525000  0.90953000  1
  O  O99  1  0.22353300  0.51475000  0.40953000  1
  O  O100  1  0.25000000  0.00467600  0.25000000  1
  O  O101  1  0.74543500  0.64260300  0.16132100  1
  O  O102  1  0.28255200  0.13087800  0.41843500  1
  O  O103  1  0.00000000  0.21647500  0.56888700  1
  O  O104  1  0.76472800  0.96142000  0.66122300  1
  O  O105  1  0.26472800  0.03858000  0.16122300  1
  O  O106  1  0.21744800  0.86912200  0.91843500  1
  O  O107  1  0.75000000  0.99532400  0.75000000  1
  O  O108  1  0.00000000  0.78352500  0.43111300  1
  O  O109  1  0.00000000  0.93719700  0.60326700  1
  O  O110  1  0.24013800  0.50000000  0.50000000  1
  O  O111  1  0.78180100  0.67054300  0.94832900  1
loop_
_geom_bond_atom_site_label_1
_geom_bond_atom_site_label_2
_geom_bond_distance
_geom_bond_site_symmetry_2
O0 Si28 1.616484 1_555
O0 Si51 1.616484 1_455
O1 Si54 1.618270 1_455
O1 Si0 1.618270 1_555
O2 Si11 1.619231 1_555
O2 Si42 1.623819 1_555
O3 Si26 1.629849 1_555
O3 Si35 1.629849 1_554
O4 Si47 1.622288 1_555
O4 Si25 1.623023 1_555
O5 Si8 1.620159 1_555
O5 Si31 1.620159 1_455
O6 Si26 1.619231 1_555
O6 Si24 1.623819 1_555
O7 Si2 1.616556 1_555
O7 Si47 1.623981 1_555
O8 Si32 1.617475 1_555
O8 Si40 1.621335 1_555
O9 Si39 1.629849 1_555
O9 Si7 1.629849 1_555
O10 Si20 1.621956 1_555
O10 Si52 1.628450 1_555
O11 Si47 1.619284 1_555
O11 Si19 1.619284 1_455
O12 Si12 1.617475 1_555
O12 Si48 1.621335 1_555
O13 Si54 1.625921 1_555
O13 Si45 1.628844 1_555
O14 Si18 1.630511 1_555
O14 Si43 1.630511 1_555
O15 Si36 1.622288 1_555
O15 Si37 1.623023 1_555
O16 Si15 1.620564 1_555
O16 Si17 1.626594 1_545
O17 Si6 1.621753 1_545
O17 Si8 1.626822 1_555
O18 Si27 1.621956 1_555
O18 Si36 1.628450 1_555
O19 Si25 1.629849 1_555
O19 Si34 1.629849 1_554
O20 Si17 1.617475 1_555
O20 Si41 1.621335 1_555
O21 Si49 1.616556 1_555
O21 Si9 1.623981 1_555
O22 Si0 1.616556 1_555
O22 Si21 1.623981 1_555
O23 Si46 1.619284 1_555
O23 Si36 1.619284 1_555
O24 Si7 1.619231 1_555
O24 Si44 1.623819 1_555
O25 Si43 1.624315 1_555
O25 Si30 1.629075 1_554
O26 Si5 1.623449 1_555
O26 Si40 1.623449 1_555
O27 Si43 1.620564 1_555
O27 Si12 1.626594 1_565
O28 Si49 1.626758 1_555
O28 Si29 1.626758 1_555
O29 Si2 1.625921 1_555
O29 Si3 1.628844 1_555
O30 Si11 1.623493 1_555
O30 Si7 1.623493 1_455
O31 Si28 1.621753 1_565
O31 Si38 1.626822 1_555
O32 Si53 1.626758 1_555
O32 Si16 1.626758 1_555
O33 Si16 1.616556 1_555
O33 Si46 1.623981 1_555
O34 Si30 1.623449 1_555
O34 Si41 1.623449 1_455
O35 Si9 1.619284 1_555
O35 Si33 1.619284 1_455
O36 Si2 1.626758 1_555
O36 Si0 1.626758 1_555
O37 Si10 1.620159 1_555
O37 Si12 1.620159 1_555
O38 Si18 1.624315 1_555
O38 Si41 1.629075 1_554
O39 Si23 1.621956 1_555
O39 Si46 1.628450 1_555
O40 Si44 1.623449 1_555
O40 Si42 1.623449 1_555
O41 Si9 1.622288 1_555
O41 Si34 1.623023 1_555
O42 Si39 1.619231 1_555
O42 Si5 1.623819 1_555
O43 Si13 1.626257 1_545
O43 Si45 1.626257 1_545
O44 Si23 1.620564 1_555
O44 Si4 1.626594 1_545
O45 Si14 1.625921 1_555
O45 Si13 1.628844 1_555
O46 Si50 1.621956 1_555
O46 Si9 1.628450 1_555
O47 Si19 1.622288 1_555
O47 Si26 1.623023 1_555
O48 Si45 1.616484 1_555
O48 Si6 1.616484 1_555
O49 Si20 1.624315 1_555
O49 Si5 1.629075 1_555
O50 Si37 1.619231 1_555
O50 Si40 1.623819 1_555
O51 Si10 1.617475 1_555
O51 Si24 1.621335 1_555
O52 Si16 1.625921 1_555
O52 Si55 1.628844 1_555
O53 Si52 1.619284 1_555
O53 Si21 1.619284 1_555
O54 Si25 1.619231 1_555
O54 Si48 1.623819 1_555
O55 Si53 1.616556 1_555
O55 Si33 1.623981 1_555
O56 Si45 1.621753 1_545
O56 Si31 1.626822 1_555
O57 Si54 1.616556 1_555
O57 Si52 1.623981 1_555
O58 Si55 1.616484 1_555
O58 Si1 1.616484 1_555
O59 Si15 1.621956 1_555
O59 Si33 1.628450 1_555
O60 Si28 1.626257 1_565
O60 Si1 1.626257 1_565
O61 Si17 1.620159 1_555
O61 Si38 1.620159 1_555
O62 Si15 1.624315 1_555
O62 Si24 1.629075 1_556
O63 Si18 1.621956 1_555
O63 Si19 1.628450 1_555
O64 Si26 1.623493 1_555
O64 Si25 1.623493 1_555
O65 Si15 1.630511 1_555
O65 Si50 1.630511 1_555
O66 Si22 1.624315 1_555
O66 Si40 1.629075 1_555
O67 Si43 1.621956 1_555
O67 Si47 1.628450 1_555
O68 Si20 1.620564 1_555
O68 Si31 1.626594 1_565
O69 Si22 1.621956 1_555
O69 Si21 1.628450 1_555
O70 Si29 1.616556 1_555
O70 Si36 1.623981 1_555
O71 Si51 1.621753 1_565
O71 Si17 1.626822 1_555
O72 Si53 1.625921 1_555
O72 Si51 1.628844 1_555
O73 Si34 1.623493 1_555
O73 Si35 1.623493 1_555
O74 Si49 1.618270 1_555
O74 Si53 1.618270 1_555
O75 Si34 1.619231 1_555
O75 Si30 1.623819 1_555
O76 Si50 1.624315 1_555
O76 Si48 1.629075 1_556
O77 Si49 1.625921 1_555
O77 Si28 1.628844 1_555
O78 Si1 1.621753 1_565
O78 Si32 1.626822 1_555
O79 Si29 1.625921 1_555
O79 Si1 1.628844 1_555
O80 Si31 1.617475 1_555
O80 Si44 1.621335 1_555
O81 Si4 1.617475 1_555
O81 Si5 1.621335 1_555
O82 Si3 1.616484 1_555
O82 Si13 1.616484 1_455
O83 Si46 1.622288 1_555
O83 Si39 1.623023 1_555
O84 Si27 1.624315 1_555
O84 Si42 1.629075 1_555
O85 Si0 1.625921 1_555
O85 Si6 1.628844 1_555
O86 Si13 1.621753 1_545
O86 Si10 1.626822 1_555
O87 Si27 1.620564 1_555
O87 Si32 1.626594 1_545
O88 Si16 1.618270 1_455
O88 Si29 1.618270 1_555
O89 Si37 1.623493 1_555
O89 Si39 1.623493 1_455
O90 Si48 1.623449 1_555
O90 Si24 1.623449 1_455
O91 Si22 1.620564 1_555
O91 Si8 1.626594 1_565
O92 Si23 1.624315 1_555
O92 Si44 1.629075 1_555
O93 Si2 1.618270 1_555
O93 Si14 1.618270 1_555
O94 Si50 1.620564 1_555
O94 Si38 1.626594 1_545
O95 Si52 1.622288 1_555
O95 Si7 1.623023 1_555
O96 Si14 1.626758 1_555
O96 Si54 1.626758 1_555
O97 Si18 1.620564 1_555
O97 Si10 1.626594 1_565
O98 Si33 1.622288 1_555
O98 Si35 1.623023 1_555
O99 Si21 1.622288 1_555
O99 Si11 1.623023 1_555
O100 Si6 1.626257 1_545
O100 Si3 1.626257 1_545
O101 Si14 1.616556 1_555
O101 Si19 1.623981 1_555
O102 Si8 1.617475 1_555
O102 Si42 1.621335 1_555
O103 Si27 1.630511 1_555
O103 Si23 1.630511 1_455
O104 Si55 1.621753 1_565
O104 Si4 1.626822 1_555
O105 Si3 1.621753 1_545
O105 Si12 1.626822 1_555
O106 Si38 1.617475 1_555
O106 Si30 1.621335 1_555
O107 Si51 1.626257 1_565
O107 Si55 1.626257 1_565
O108 Si22 1.630511 1_555
O108 Si20 1.630511 1_455
O109 Si4 1.620159 1_455
O109 Si32 1.620159 1_555
O110 Si37 1.629849 1_555
O110 Si11 1.629849 1_555
O111 Si35 1.619231 1_555
O111 Si41 1.623819 1_555
