# generated using pymatgen
data_SrZn13
_symmetry_space_group_name_H-M   'P 1'
_cell_length_a   8.56256781
_cell_length_b   8.56256831
_cell_length_c   8.56256928
_cell_angle_alpha   59.99998844
_cell_angle_beta   59.99998653
_cell_angle_gamma   59.99999066
_symmetry_Int_Tables_number   1
_chemical_formula_structural   SrZn13
_chemical_formula_sum   'Sr2 Zn26'
_cell_volume   443.91217946
_cell_formula_units_Z   2
loop_
 _symmetry_equiv_pos_site_id
 _symmetry_equiv_pos_as_xyz
  1  'x, y, z'
loop_
 _atom_site_type_symbol
 _atom_site_label
 _atom_site_symmetry_multiplicity
 _atom_site_fract_x
 _atom_site_fract_y
 _atom_site_fract_z
 _atom_site_occupancy
  Sr  Sr0  1  0.75000000  0.75000000  0.75000000  1
  Sr  Sr1  1  0.25000000  0.25000000  0.25000000  1
  Zn  Zn0  1  0.79910867  0.55902645  0.44097355  1
  Zn  Zn1  1  0.94097355  0.70089133  0.05902645  1
  Zn  Zn2  1  0.44097355  0.79910867  0.55902645  1
  Zn  Zn3  1  0.55902645  0.44097355  0.79910867  1
  Zn  Zn4  1  0.79910867  0.44097355  0.20089133  1
  Zn  Zn5  1  0.05902645  0.94097355  0.70089133  1
  Zn  Zn6  1  0.55902645  0.20089133  0.44097355  1
  Zn  Zn7  1  0.94097355  0.29910867  0.70089133  1
  Zn  Zn8  1  0.20089133  0.79910867  0.44097355  1
  Zn  Zn9  1  0.70089133  0.05902645  0.94097355  1
  Zn  Zn10  1  0.29910867  0.94097355  0.05902645  1
  Zn  Zn11  1  0.29910867  0.70089133  0.94097355  1
  Zn  Zn12  1  0.29910867  0.05902645  0.70089133  1
  Zn  Zn13  1  0.44097355  0.55902645  0.20089133  1
  Zn  Zn14  1  0.44097355  0.20089133  0.79910867  1
  Zn  Zn15  1  0.70089133  0.94097355  0.29910867  1
  Zn  Zn16  1  0.70089133  0.29910867  0.05902645  1
  Zn  Zn17  1  0.79910867  0.20089133  0.55902645  1
  Zn  Zn18  1  0.94097355  0.05902645  0.29910867  1
  Zn  Zn19  1  0.55902645  0.79910867  0.20089133  1
  Zn  Zn20  1  0.05902645  0.70089133  0.29910867  1
  Zn  Zn21  1  0.20089133  0.55902645  0.79910867  1
  Zn  Zn22  1  0.05902645  0.29910867  0.94097355  1
  Zn  Zn23  1  0.20089133  0.44097355  0.55902645  1
  Zn  Zn24  1  -0.00000000  -0.00000000  0.00000000  1
  Zn  Zn25  1  0.50000000  0.50000000  0.50000000  1
loop_
_geom_bond_atom_site_label_1
_geom_bond_atom_site_label_2
_geom_bond_distance
_geom_bond_site_symmetry_2
Sr0 Zn8 3.518386 1_655
Sr0 Zn23 3.518386 1_655
Sr0 Zn10 3.518386 1_556
Sr0 Zn13 3.518386 1_556
Sr0 Zn11 3.518386 1_555
Sr0 Zn12 3.518386 1_565
Sr0 Zn18 3.518386 1_565
Sr0 Zn22 3.518386 1_655
Sr0 Zn16 3.518386 1_556
Sr0 Zn6 3.518386 1_565
Sr0 Zn14 3.518386 1_565
Sr0 Zn21 3.518386 1_655
Sr0 Zn17 3.518386 1_565
Sr0 Zn20 3.518387 1_655
Sr0 Zn7 3.518387 1_555
Sr0 Zn4 3.518387 1_556
Sr0 Zn5 3.518387 1_655
Sr0 Zn3 3.518387 1_555
Sr0 Zn19 3.518387 1_556
Sr0 Zn15 3.518387 1_555
Sr0 Zn2 3.518387 1_555
Sr0 Zn9 3.518387 1_565
Sr0 Zn1 3.518387 1_556
Sr0 Zn0 3.518387 1_555
Sr1 Zn17 3.518386 1_455
Sr1 Zn0 3.518386 1_455
Sr1 Zn9 3.518386 1_554
Sr1 Zn3 3.518386 1_554
Sr1 Zn16 3.518386 1_555
Sr1 Zn15 3.518386 1_545
Sr1 Zn5 3.518386 1_545
Sr1 Zn1 3.518386 1_455
Sr1 Zn11 3.518386 1_554
Sr1 Zn2 3.518386 1_545
Sr1 Zn19 3.518386 1_545
Sr1 Zn4 3.518386 1_455
Sr1 Zn8 3.518386 1_545
Sr1 Zn7 3.518387 1_455
Sr1 Zn20 3.518387 1_555
Sr1 Zn21 3.518387 1_554
Sr1 Zn18 3.518387 1_455
Sr1 Zn13 3.518387 1_555
Sr1 Zn14 3.518387 1_554
Sr1 Zn12 3.518387 1_555
Sr1 Zn6 3.518387 1_555
Sr1 Zn10 3.518387 1_545
Sr1 Zn22 3.518387 1_554
Sr1 Zn23 3.518387 1_555
Zn0 Zn20 2.535487 1_655
Zn0 Zn7 2.535487 1_555
Zn0 Zn25 2.610532 1_555
Zn0 Zn15 2.679013 1_555
Zn0 Zn1 2.679013 1_555
Zn0 Zn2 2.706616 1_555
Zn0 Zn3 2.706616 1_555
Zn0 Zn17 2.706616 1_555
Zn0 Zn4 2.706617 1_555
Zn0 Zn19 2.907228 1_555
Zn1 Zn4 2.535487 1_555
Zn1 Zn21 2.535487 1_654
Zn1 Zn24 2.610532 1_665
Zn1 Zn19 2.679013 1_555
Zn1 Zn11 2.706616 1_654
Zn1 Zn9 2.706616 1_564
Zn1 Zn5 2.706616 1_654
Zn1 Zn20 2.706617 1_655
Zn1 Zn15 2.907228 1_555
Zn2 Zn25 2.610532 1_555
Zn2 Zn5 2.679013 1_555
Zn2 Zn3 2.706616 1_555
Zn2 Zn8 2.706616 1_555
Zn2 Zn21 2.907227 1_555
Zn3 Zn7 2.679013 1_555
Zn3 Zn9 2.679013 1_555
Zn4 Zn6 2.907227 1_555
Zn5 Zn8 2.535488 1_555
Zn5 Zn9 2.706616 1_465
Zn5 Zn7 2.706616 1_465
Zn7 Zn9 2.907227 1_555
Zn10 Zn14 2.535487 1_564
Zn10 Zn19 2.535488 1_555
Zn10 Zn24 2.610532 1_565
Zn10 Zn13 2.679013 1_555
Zn10 Zn8 2.679013 1_555
Zn10 Zn18 2.706616 1_465
Zn10 Zn22 2.706616 1_564
Zn10 Zn12 2.706616 1_564
Zn10 Zn11 2.706617 1_554
Zn10 Zn20 2.907227 1_555
Zn11 Zn3 2.535487 1_555
Zn11 Zn13 2.535488 1_556
Zn11 Zn24 2.610532 1_566
Zn11 Zn2 2.679013 1_555
Zn11 Zn21 2.679014 1_555
Zn11 Zn12 2.706616 1_565
Zn11 Zn20 2.706616 1_556
Zn11 Zn5 2.907228 1_555
Zn12 Zn6 2.535487 1_555
Zn12 Zn2 2.535488 1_545
Zn12 Zn24 2.610532 1_556
Zn12 Zn23 2.679013 1_555
Zn12 Zn14 2.679014 1_555
Zn12 Zn7 2.706616 1_455
Zn12 Zn5 2.706616 1_545
Zn12 Zn22 2.907228 1_555
Zn13 Zn16 2.535487 1_555
Zn13 Zn25 2.610532 1_555
Zn13 Zn20 2.679013 1_555
Zn13 Zn23 2.706616 1_555
Zn13 Zn6 2.706616 1_555
Zn13 Zn4 2.706616 1_555
Zn13 Zn19 2.706616 1_555
Zn13 Zn8 2.907228 1_555
Zn14 Zn9 2.535488 1_555
Zn14 Zn25 2.610532 1_555
Zn14 Zn22 2.679013 1_555
Zn14 Zn17 2.706616 1_555
Zn14 Zn21 2.706616 1_555
Zn14 Zn3 2.706616 1_555
Zn14 Zn6 2.706616 1_555
Zn14 Zn23 2.907228 1_555
Zn15 Zn2 2.535487 1_555
Zn15 Zn6 2.535488 1_565
Zn15 Zn24 2.610532 1_665
Zn15 Zn19 2.679014 1_555
Zn15 Zn20 2.706616 1_655
Zn15 Zn16 2.706616 1_565
Zn15 Zn18 2.706616 1_565
Zn15 Zn9 2.706616 1_564
Zn16 Zn3 2.535488 1_554
Zn16 Zn24 2.610532 1_655
Zn16 Zn6 2.679013 1_555
Zn16 Zn4 2.679014 1_555
Zn16 Zn22 2.706616 1_654
Zn16 Zn7 2.706616 1_554
Zn16 Zn9 2.706617 1_554
Zn16 Zn18 2.907228 1_555
Zn17 Zn5 2.535487 1_645
Zn17 Zn18 2.535488 1_555
Zn17 Zn25 2.610532 1_555
Zn17 Zn9 2.679013 1_555
Zn17 Zn7 2.679014 1_555
Zn17 Zn4 2.706616 1_555
Zn17 Zn6 2.706616 1_555
Zn17 Zn3 2.907228 1_555
Zn18 Zn8 2.535487 1_645
Zn18 Zn24 2.610532 1_655
Zn18 Zn6 2.679013 1_555
Zn18 Zn4 2.679013 1_555
Zn18 Zn22 2.706616 1_654
Zn18 Zn20 2.706616 1_645
Zn19 Zn9 2.535487 1_564
Zn19 Zn25 2.610532 1_555
Zn19 Zn8 2.706616 1_555
Zn19 Zn4 2.706616 1_555
Zn19 Zn2 2.706616 1_555
Zn20 Zn23 2.535487 1_555
Zn20 Zn24 2.610532 1_565
Zn20 Zn8 2.679014 1_555
Zn21 Zn22 2.535487 1_555
Zn21 Zn25 2.610532 1_555
Zn21 Zn5 2.679013 1_555
Zn21 Zn3 2.706616 1_555
Zn21 Zn8 2.706616 1_555
Zn21 Zn23 2.706617 1_555
Zn22 Zn4 2.535487 1_456
Zn22 Zn24 2.610532 1_556
Zn22 Zn23 2.679013 1_555
Zn22 Zn7 2.706617 1_455
Zn23 Zn7 2.535487 1_455
Zn23 Zn25 2.610532 1_555
Zn23 Zn6 2.706616 1_555
Zn23 Zn8 2.706616 1_555
Zn24 Zn7 2.610532 1_454
Zn24 Zn9 2.610532 1_454
Zn24 Zn5 2.610532 1_544
Zn25 Zn8 2.610532 1_555
Zn25 Zn4 2.610532 1_555
Zn25 Zn6 2.610532 1_555
Zn25 Zn3 2.610532 1_555
