# generated using pymatgen
data_Ba2CaWN4
_symmetry_space_group_name_H-M   'P 1'
_cell_length_a   10.87968981
_cell_length_b   10.56941814
_cell_length_c   8.16401349
_cell_angle_alpha   69.65656209
_cell_angle_beta   65.62808296
_cell_angle_gamma   44.71535495
_symmetry_Int_Tables_number   1
_chemical_formula_structural   Ba2CaWN4
_chemical_formula_sum   'Ba8 Ca4 W4 N16'
_cell_volume   599.48922739
_cell_formula_units_Z   4
loop_
 _symmetry_equiv_pos_site_id
 _symmetry_equiv_pos_as_xyz
  1  'x, y, z'
loop_
 _atom_site_type_symbol
 _atom_site_label
 _atom_site_symmetry_multiplicity
 _atom_site_fract_x
 _atom_site_fract_y
 _atom_site_fract_z
 _atom_site_occupancy
  Ba  Ba0  1  0.56986900  0.93013100  0.93013100  1
  Ba  Ba1  1  0.93013100  0.56986900  0.56986900  1
  Ba  Ba2  1  0.31986900  0.68013100  0.68013100  1
  Ba  Ba3  1  0.11149400  0.11149400  0.88850600  1
  Ba  Ba4  1  0.13850600  0.13850600  0.36149400  1
  Ba  Ba5  1  0.36149400  0.36149400  0.13850600  1
  Ba  Ba6  1  0.68013100  0.31986900  0.31986900  1
  Ba  Ba7  1  0.88850600  0.88850600  0.11149400  1
  Ca  Ca0  1  0.33838900  0.33838900  0.66161100  1
  Ca  Ca1  1  0.91161100  0.91161100  0.58838900  1
  Ca  Ca2  1  0.66161100  0.66161100  0.33838900  1
  Ca  Ca3  1  0.58838900  0.58838900  0.91161100  1
  W  W0  1  0.49267000  0.00733000  0.49267000  1
  W  W1  1  0.00733000  0.49267000  0.00733000  1
  W  W2  1  0.75733000  0.24267000  0.75733000  1
  W  W3  1  0.24267000  0.75733000  0.24267000  1
  N  N0  1  0.01075400  0.65885800  0.82243700  1
  N  N1  1  0.70112300  0.28280900  0.99660500  1
  N  N2  1  0.65885800  0.01075400  0.50795100  1
  N  N3  1  0.50795100  0.82243700  0.65885800  1
  N  N4  1  0.23924600  0.59114200  0.42756300  1
  N  N5  1  0.74204900  0.42756300  0.59114200  1
  N  N6  1  0.99660500  0.01946300  0.70112300  1
  N  N7  1  0.54887700  0.96719100  0.25339500  1
  N  N8  1  0.42756300  0.74204900  0.23924600  1
  N  N9  1  0.96719100  0.54887700  0.23053700  1
  N  N10  1  0.28280900  0.70112300  0.01946300  1
  N  N11  1  0.82243700  0.50795100  0.01075400  1
  N  N12  1  0.23053700  0.25339500  0.96719100  1
  N  N13  1  0.59114200  0.23924600  0.74204900  1
  N  N14  1  0.25339500  0.23053700  0.54887700  1
  N  N15  1  0.01946300  0.99660500  0.28280900  1
loop_
_geom_bond_atom_site_label_1
_geom_bond_atom_site_label_2
_geom_bond_distance
_geom_bond_site_symmetry_2
Ba0 N12 2.695325 1_565
Ba0 N7 2.695325 1_556
Ba0 N11 3.149520 1_556
Ba0 N2 3.149520 1_565
Ba0 N13 3.221642 1_565
Ba0 N8 3.221642 1_556
Ba0 N3 3.275373 1_555
Ba0 N0 3.275373 1_655
Ba1 N14 2.695325 1_655
Ba1 N9 2.695325 1_555
Ba1 N0 3.149520 1_655
Ba1 N3 3.149520 1_555
Ba1 N4 3.221642 1_655
Ba1 N5 3.221642 1_555
Ba1 N2 3.275373 1_565
Ba1 N11 3.275373 1_556
Ba2 N10 2.695325 1_556
Ba2 N6 2.695325 1_465
Ba2 N5 3.149520 1_555
Ba2 N4 3.149520 1_555
Ba2 N3 3.221642 1_555
Ba2 N0 3.221642 1_555
Ba2 N8 3.275373 1_555
Ba2 N13 3.275373 1_555
Ba3 N12 2.908048 1_555
Ba3 N14 2.908048 1_555
Ba3 N15 3.031440 1_546
Ba3 N6 3.031440 1_455
Ba3 N11 3.167579 1_456
Ba3 N3 3.167579 1_545
Ba3 N10 3.218812 1_546
Ba3 N1 3.218812 1_455
Ba4 N15 2.908048 1_545
Ba4 N6 2.908048 1_455
Ba4 N12 3.031440 1_554
Ba4 N14 3.031440 1_555
Ba4 N5 3.167579 1_455
Ba4 N8 3.167579 1_545
Ba4 N7 3.218812 1_545
Ba4 N9 3.218812 1_455
Ba5 N1 2.908048 1_554
Ba5 N10 2.908048 1_555
Ba5 N9 3.031440 1_455
Ba5 N7 3.031440 1_545
Ba5 N4 3.167579 1_555
Ba5 N13 3.167579 1_554
Ba5 N14 3.218812 1_555
Ba5 N12 3.218812 1_554
Ba6 N15 2.695325 1_645
Ba6 N1 2.695325 1_554
Ba6 N13 3.149520 1_555
Ba6 N8 3.149520 1_555
Ba6 N11 3.221642 1_555
Ba6 N2 3.221642 1_555
Ba6 N5 3.275373 1_555
Ba6 N4 3.275373 1_555
Ba7 N7 2.908048 1_555
Ba7 N9 2.908048 1_555
Ba7 N10 3.031440 1_655
Ba7 N1 3.031440 1_564
Ba7 N2 3.167579 1_565
Ba7 N0 3.167579 1_654
Ba7 N6 3.218812 1_564
Ba7 N15 3.218812 1_655
Ca0 N14 2.435484 1_555
Ca0 N12 2.435484 1_555
Ca0 N13 2.451066 1_555
Ca0 N4 2.451066 1_555
Ca0 N2 2.823644 1_555
Ca0 N0 2.823644 1_555
Ca1 N15 2.435484 1_655
Ca1 N6 2.435484 1_565
Ca1 N0 2.451066 1_655
Ca1 N2 2.451066 1_565
Ca1 N13 2.823644 1_565
Ca1 N4 2.823644 1_655
Ca2 N7 2.435484 1_555
Ca2 N9 2.435484 1_555
Ca2 N5 2.451066 1_555
Ca2 N8 2.451066 1_555
Ca2 N11 2.823644 1_555
Ca2 N3 2.823644 1_555
Ca3 N1 2.435484 1_555
Ca3 N10 2.435484 1_556
Ca3 N3 2.451066 1_555
Ca3 N11 2.451066 1_556
Ca3 N8 2.823644 1_556
Ca3 N5 2.823644 1_555
N0 W1 1.888995 1_556
N1 W2 1.895124 1_555
N2 W0 1.888995 1_555
N3 W0 1.888995 1_565
N4 W3 1.888995 1_555
N5 W2 1.888995 1_555
N6 W2 1.895124 1_555
N7 W0 1.895124 1_565
N8 W3 1.888995 1_555
N9 W1 1.895124 1_655
N10 W3 1.895124 1_555
N11 W1 1.888995 1_655
N12 W1 1.895124 1_556
N13 W2 1.888995 1_555
N14 W0 1.895124 1_555
N15 W3 1.895124 1_555
