# generated using pymatgen
data_Eu2GeSe4
_symmetry_space_group_name_H-M   'P 1'
_cell_length_a   7.13106300
_cell_length_b   6.97736800
_cell_length_c   8.34932227
_cell_angle_alpha   72.21338079
_cell_angle_beta   90.00000000
_cell_angle_gamma   90.00000000
_symmetry_Int_Tables_number   1
_chemical_formula_structural   Eu2GeSe4
_chemical_formula_sum   'Eu4 Ge2 Se8'
_cell_volume   395.57209737
_cell_formula_units_Z   2
loop_
 _symmetry_equiv_pos_site_id
 _symmetry_equiv_pos_as_xyz
  1  'x, y, z'
loop_
 _atom_site_type_symbol
 _atom_site_label
 _atom_site_symmetry_multiplicity
 _atom_site_fract_x
 _atom_site_fract_y
 _atom_site_fract_z
 _atom_site_occupancy
  Eu  Eu0  1  0.27763300  0.22609300  0.44433000  1
  Eu  Eu1  1  0.29441800  0.25120500  0.93701800  1
  Eu  Eu2  1  0.77763300  0.77390700  0.55567000  1
  Eu  Eu3  1  0.79441800  0.74879500  0.06298200  1
  Ge  Ge0  1  0.75182600  0.23344500  0.69451000  1
  Ge  Ge1  1  0.25182600  0.76655500  0.30549000  1
  Se  Se0  1  0.52351000  0.98080400  0.25021300  1
  Se  Se1  1  0.71683700  0.42813300  0.88564600  1
  Se  Se2  1  0.02351000  0.01919600  0.74978700  1
  Se  Se3  1  0.70222000  0.42015000  0.40511800  1
  Se  Se4  1  0.51045200  0.98329400  0.76203000  1
  Se  Se5  1  0.21683700  0.57186700  0.11435400  1
  Se  Se6  1  0.20222000  0.57985000  0.59488200  1
  Se  Se7  1  0.01045200  0.01670600  0.23797000  1
loop_
_geom_bond_atom_site_label_1
_geom_bond_atom_site_label_2
_geom_bond_distance
_geom_bond_site_symmetry_2
Eu0 Se5 3.088385 1_555
Eu0 Se2 3.102086 1_555
Eu0 Se6 3.139633 1_555
Eu0 Se4 3.149149 1_545
Eu0 Se7 3.204845 1_555
Eu0 Se0 3.213241 1_545
Eu0 Se3 3.291960 1_555
Eu1 Se5 3.086764 1_556
Eu1 Se4 3.109794 1_545
Eu1 Se6 3.138265 1_555
Eu1 Se0 3.170542 1_546
Eu1 Se2 3.215971 1_555
Eu1 Se1 3.233942 1_555
Eu1 Se7 3.252651 1_556
Eu2 Se1 3.088385 1_555
Eu2 Se0 3.102086 1_555
Eu2 Se3 3.139633 1_555
Eu2 Se7 3.149149 1_665
Eu2 Se4 3.204845 1_555
Eu2 Se2 3.213241 1_665
Eu2 Se6 3.291960 1_655
Eu3 Se1 3.086764 1_554
Eu3 Se7 3.109794 1_665
Eu3 Se3 3.138265 1_555
Eu3 Se2 3.170542 1_664
Eu3 Se0 3.215971 1_555
Eu3 Se5 3.233942 1_655
Eu3 Se4 3.252651 1_554
Ge0 Se4 2.392861 1_545
Ge0 Se3 2.395266 1_555
Ge0 Se1 2.403895 1_555
Ge0 Se2 2.404102 1_655
Ge1 Se7 2.392861 1_565
Ge1 Se6 2.395266 1_555
Ge1 Se5 2.403895 1_555
Ge1 Se0 2.404102 1_555
