# generated using pymatgen
data_H4N2O3
_symmetry_space_group_name_H-M   'P 1'
_cell_length_a   6.84534900
_cell_length_b   8.37404400
_cell_length_c   8.72801800
_cell_angle_alpha   90.00000000
_cell_angle_beta   90.00000000
_cell_angle_gamma   90.00000000
_symmetry_Int_Tables_number   1
_chemical_formula_structural   H4N2O3
_chemical_formula_sum   'H16 N8 O12'
_cell_volume   500.31839030
_cell_formula_units_Z   4
loop_
 _symmetry_equiv_pos_site_id
 _symmetry_equiv_pos_as_xyz
  1  'x, y, z'
loop_
 _atom_site_type_symbol
 _atom_site_label
 _atom_site_symmetry_multiplicity
 _atom_site_fract_x
 _atom_site_fract_y
 _atom_site_fract_z
 _atom_site_occupancy
  H  H0  1  0.98568300  0.43812900  0.23118700  1
  H  H1  1  0.47742300  0.93912200  0.84412200  1
  H  H2  1  0.59215800  0.09144200  0.87707200  1
  H  H3  1  0.48568300  0.56187100  0.76881300  1
  H  H4  1  0.97742300  0.06087800  0.15587800  1
  H  H5  1  0.09215800  0.90855800  0.12292800  1
  H  H6  1  0.97742300  0.43912200  0.65587800  1
  H  H7  1  0.09215800  0.59144200  0.62292800  1
  H  H8  1  0.48568300  0.93812900  0.26881300  1
  H  H9  1  0.47742300  0.56087800  0.34412200  1
  H  H10  1  0.59215800  0.40855800  0.37707200  1
  H  H11  1  0.98568300  0.06187100  0.73118700  1
  H  H12  1  0.19763300  0.94419600  0.44819500  1
  H  H13  1  0.19763300  0.55580400  0.94819500  1
  H  H14  1  0.69763300  0.05580400  0.55180500  1
  H  H15  1  0.69763300  0.44419600  0.05180500  1
  N  N0  1  0.15613100  0.28890200  0.33044100  1
  N  N1  1  0.15613100  0.21109800  0.83044100  1
  N  N2  1  0.65613100  0.71109800  0.66955900  1
  N  N3  1  0.65613100  0.78890200  0.16955900  1
  N  N4  1  0.74031600  0.17342500  0.52790200  1
  N  N5  1  0.74031600  0.32657500  0.02790200  1
  N  N6  1  0.24031600  0.82657500  0.47209800  1
  N  N7  1  0.24031600  0.67342500  0.97209800  1
  O  O0  1  0.01961400  0.42139300  0.33930800  1
  O  O1  1  0.52851900  0.03414400  0.79363300  1
  O  O2  1  0.51961400  0.57860700  0.66069200  1
  O  O3  1  0.02851900  0.96585600  0.20636700  1
  O  O4  1  0.02851900  0.53414400  0.70636700  1
  O  O5  1  0.51961400  0.92139300  0.16069200  1
  O  O6  1  0.52851900  0.46585600  0.29363300  1
  O  O7  1  0.01961400  0.07860700  0.83930800  1
  O  O8  1  0.20546700  0.24902100  0.45526500  1
  O  O9  1  0.20546700  0.25097900  0.95526500  1
  O  O10  1  0.70546700  0.75097900  0.54473500  1
  O  O11  1  0.70546700  0.74902100  0.04473500  1
loop_
_geom_bond_atom_site_label_1
_geom_bond_atom_site_label_2
_geom_bond_distance
_geom_bond_site_symmetry_2
H0 O0 0.981899 1_655
H1 O1 0.974523 1_565
H2 O1 0.974862 1_555
H3 O2 0.981899 1_555
H4 O3 0.974523 1_645
H5 O3 0.974862 1_555
H6 O4 0.974523 1_655
H7 O4 0.974862 1_555
H8 O5 0.981899 1_555
H9 O6 0.974523 1_555
H10 O6 0.974862 1_555
H11 O7 0.981899 1_655
H12 N6 1.048354 1_555
H13 N7 1.048354 1_555
H14 N4 1.048354 1_555
H15 N5 1.048354 1_555
N0 O8 1.188497 1_555
N0 O0 1.452670 1_555
N1 O9 1.188497 1_555
N1 O7 1.452670 1_555
N2 O10 1.188497 1_555
N2 O2 1.452670 1_555
N3 O11 1.188497 1_555
N3 O5 1.452670 1_555
