# generated using pymatgen
data_KYH4C4O9
_symmetry_space_group_name_H-M   'P 1'
_cell_length_a   6.25021300
_cell_length_b   6.67613406
_cell_length_c   7.36286564
_cell_angle_alpha   108.02460408
_cell_angle_beta   113.67807180
_cell_angle_gamma   97.94563611
_symmetry_Int_Tables_number   1
_chemical_formula_structural   KYH4C4O9
_chemical_formula_sum   'K1 Y1 H4 C4 O9'
_cell_volume   255.11598895
_cell_formula_units_Z   1
loop_
 _symmetry_equiv_pos_site_id
 _symmetry_equiv_pos_as_xyz
  1  'x, y, z'
loop_
 _atom_site_type_symbol
 _atom_site_label
 _atom_site_symmetry_multiplicity
 _atom_site_fract_x
 _atom_site_fract_y
 _atom_site_fract_z
 _atom_site_occupancy
  K  K0  1  0.15005700  0.66394500  0.39330100  1
  Y  Y0  1  0.99734300  0.00254700  0.99829200  1
  H  H0  1  0.56081300  0.38542900  0.21180000  1
  H  H1  1  0.91288300  0.41056300  0.71620100  1
  H  H2  1  0.34550800  0.19201900  0.69474000  1
  H  H3  1  0.63053400  0.81247100  0.37153800  1
  C  C0  1  0.59066700  0.22584400  0.13999600  1
  C  C1  1  0.03529400  0.47443100  0.89283000  1
  C  C2  1  0.31727400  0.23667400  0.55545000  1
  C  C3  1  0.73245600  0.86084100  0.54926100  1
  O  O0  1  0.41370700  0.05358000  0.05814100  1
  O  O1  1  0.79909300  0.23612700  0.14826200  1
  O  O2  1  0.10461700  0.33494700  0.96898000  1
  O  O3  1  0.09456300  0.67847100  0.00641500  1
  O  O4  1  0.19103600  0.08075000  0.36712100  1
  O  O5  1  0.40881500  0.43365100  0.58915400  1
  O  O6  1  0.63444700  0.94129200  0.66495800  1
  O  O7  1  0.94338100  0.83397200  0.63035200  1
  O  O8  1  0.67071100  0.75284700  0.99240700  1
loop_
_geom_bond_atom_site_label_1
_geom_bond_atom_site_label_2
_geom_bond_distance
_geom_bond_site_symmetry_2
K0 O7 2.644563 1_455
K0 O5 2.691696 1_555
K0 O3 2.762399 1_555
K0 O6 2.808835 1_555
K0 O4 2.832036 1_565
K0 O1 2.850400 1_455
K0 O2 3.087708 1_554
C0 H0 1.111325 1_555
C0 O0 1.262208 1_555
C0 O1 1.270618 1_555
C1 H1 1.107218 1_455
C1 O3 1.264467 1_556
C1 O2 1.268383 1_555
C2 H2 1.109149 1_555
C2 O5 1.262645 1_555
C2 O4 1.276645 1_555
C3 H3 1.111074 1_555
C3 O6 1.271355 1_555
C3 O7 1.275183 1_555
O0 Y0 2.413183 1_454
O1 Y0 2.398745 1_554
O2 Y0 2.328519 1_455
O3 Y0 2.338423 1_464
O4 Y0 2.328117 1_454
O6 Y0 2.446764 1_565
O7 Y0 2.448243 1_565
O8 Y0 2.427350 1_565
