# generated using pymatgen
data_Ca5(PPd)6
_symmetry_space_group_name_H-M   'P 1'
_cell_length_a   4.08651006
_cell_length_b   8.23049942
_cell_length_c   19.08767305
_cell_angle_alpha   90.00000000
_cell_angle_beta   90.00000000
_cell_angle_gamma   90.00000000
_symmetry_Int_Tables_number   1
_chemical_formula_structural   Ca5(PPd)6
_chemical_formula_sum   'Ca10 P12 Pd12'
_cell_volume   641.99515190
_cell_formula_units_Z   2
loop_
 _symmetry_equiv_pos_site_id
 _symmetry_equiv_pos_as_xyz
  1  'x, y, z'
loop_
 _atom_site_type_symbol
 _atom_site_label
 _atom_site_symmetry_multiplicity
 _atom_site_fract_x
 _atom_site_fract_y
 _atom_site_fract_z
 _atom_site_occupancy
  Ca  Ca0  1  0.50000000  0.99172623  0.68230468  1
  Ca  Ca1  1  0.00000000  0.00166983  0.12965802  1
  Ca  Ca2  1  0.50000000  0.49172623  0.31769532  1
  Ca  Ca3  1  0.50000000  0.50827377  0.68230468  1
  Ca  Ca4  1  0.00000000  0.99833017  0.87034198  1
  Ca  Ca5  1  0.50000000  0.00827377  0.31769532  1
  Ca  Ca6  1  0.00000000  -0.00000000  0.50000000  1
  Ca  Ca7  1  -0.00000000  0.49833017  0.12965802  1
  Ca  Ca8  1  -0.00000000  0.50166983  0.87034198  1
  Ca  Ca9  1  -0.00000000  0.50000000  0.50000000  1
  P  P0  1  0.50000000  0.75000000  0.55790510  1
  P  P1  1  -0.00000000  0.75000000  0.25769482  1
  P  P2  1  0.00000000  0.25000000  0.74230518  1
  P  P3  1  0.50000000  0.75000000  0.07526491  1
  P  P4  1  -0.00000000  0.25000000  0.25463040  1
  P  P5  1  0.50000000  0.25000000  0.92473509  1
  P  P6  1  0.50000000  0.25000000  0.07177193  1
  P  P7  1  0.50000000  0.75000000  0.92822807  1
  P  P8  1  0.00000000  0.75000000  0.74536960  1
  P  P9  1  -0.00000000  0.75000000  0.37318541  1
  P  P10  1  0.00000000  0.25000000  0.62681459  1
  P  P11  1  0.50000000  0.25000000  0.44209490  1
  Pd  Pd0  1  -0.00000000  0.75000000  0.62062733  1
  Pd  Pd1  1  0.50000000  0.25000000  0.19348997  1
  Pd  Pd2  1  0.50000000  0.25000000  0.56750509  1
  Pd  Pd3  1  -0.00000000  0.25000000  0.37937267  1
  Pd  Pd4  1  0.50000000  0.25000000  0.80137937  1
  Pd  Pd5  1  -0.00000000  0.25000000  0.99866395  1
  Pd  Pd6  1  0.50000000  0.75000000  0.80651003  1
  Pd  Pd7  1  0.50000000  0.75000000  0.19862063  1
  Pd  Pd8  1  0.00000000  0.75000000  0.00133605  1
  Pd  Pd9  1  0.50000000  -0.00000000  0.00000000  1
  Pd  Pd10  1  0.50000000  0.50000000  0.00000000  1
  Pd  Pd11  1  0.50000000  0.75000000  0.43249491  1
loop_
_geom_bond_atom_site_label_1
_geom_bond_atom_site_label_2
_geom_bond_distance
_geom_bond_site_symmetry_2
Ca0 Pd2 3.052917 1_565
Ca0 Pd0 3.085303 1_555
Ca0 Pd0 3.085303 1_655
Ca0 Pd6 3.094975 1_555
Ca0 P8 3.095506 1_555
Ca0 P8 3.095506 1_655
Ca0 P0 3.097816 1_555
Ca0 Pd4 3.112006 1_565
Ca0 P10 3.132960 1_665
Ca0 P10 3.132960 1_565
Ca0 P2 3.163104 1_565
Ca0 P2 3.163104 1_665
Ca1 P3 3.089239 1_445
Ca1 P3 3.089239 1_545
Ca1 P6 3.094054 1_455
Ca1 P6 3.094054 1_555
Ca1 Pd1 3.136375 1_455
Ca1 Pd1 3.136375 1_555
Ca1 P4 3.141295 1_555
Ca1 Pd7 3.193462 1_545
Ca1 Pd7 3.193462 1_445
Ca1 P1 3.203644 1_545
Ca1 Pd8 3.207798 1_545
Ca1 Pd9 3.209371 1_555
Ca1 Pd9 3.209371 1_455
Ca1 Pd5 3.229444 1_554
Ca2 Pd11 3.052917 1_555
Ca2 Pd3 3.085303 1_555
Ca2 Pd3 3.085303 1_655
Ca2 Pd1 3.094975 1_555
Ca2 P4 3.095506 1_655
Ca2 P4 3.095506 1_555
Ca2 P11 3.097816 1_555
Ca2 Pd7 3.112006 1_555
Ca2 P9 3.132960 1_655
Ca2 P9 3.132960 1_555
Ca2 P1 3.163104 1_555
Ca2 P1 3.163104 1_655
Ca3 Pd2 3.052917 1_555
Ca3 Pd0 3.085303 1_555
Ca3 Pd0 3.085303 1_655
Ca3 Pd6 3.094975 1_555
Ca3 P8 3.095506 1_555
Ca3 P8 3.095506 1_655
Ca3 P0 3.097816 1_555
Ca3 Pd4 3.112006 1_555
Ca3 P10 3.132960 1_555
Ca3 P10 3.132960 1_655
Ca3 P2 3.163104 1_555
Ca3 P2 3.163104 1_655
Ca4 P5 3.089239 1_465
Ca4 P5 3.089239 1_565
Ca4 P7 3.094054 1_555
Ca4 P7 3.094054 1_455
Ca4 Pd6 3.136375 1_555
Ca4 Pd6 3.136375 1_455
Ca4 P8 3.141295 1_555
Ca4 Pd4 3.193462 1_465
Ca4 Pd4 3.193462 1_565
Ca4 P2 3.203644 1_565
Ca4 Pd5 3.207798 1_565
Ca4 Pd9 3.209371 1_466
Ca4 Pd9 3.209371 1_566
Ca4 Pd8 3.229444 1_556
Ca5 Pd11 3.052917 1_545
Ca5 Pd3 3.085303 1_555
Ca5 Pd3 3.085303 1_655
Ca5 Pd1 3.094975 1_555
Ca5 P4 3.095506 1_655
Ca5 P4 3.095506 1_555
Ca5 P11 3.097816 1_555
Ca5 Pd7 3.112006 1_545
Ca5 P9 3.132960 1_645
Ca5 P9 3.132960 1_545
Ca5 P1 3.163104 1_545
Ca5 P1 3.163104 1_645
Ca6 Pd3 3.087929 1_555
Ca6 Pd0 3.087929 1_545
Ca6 P11 3.103279 1_555
Ca6 P11 3.103279 1_455
Ca6 P0 3.103279 1_545
Ca6 P0 3.103279 1_445
Ca6 Pd11 3.173166 1_445
Ca6 Pd11 3.173166 1_545
Ca6 Pd2 3.173166 1_555
Ca6 Pd2 3.173166 1_455
Ca6 P10 3.176964 1_555
Ca6 P9 3.176964 1_545
Ca7 P3 3.089239 1_555
Ca7 P3 3.089239 1_455
Ca7 P6 3.094054 1_555
Ca7 P6 3.094054 1_455
Ca7 Pd1 3.136375 1_455
Ca7 Pd1 3.136375 1_555
Ca7 P4 3.141295 1_555
Ca7 Pd7 3.193462 1_555
Ca7 Pd7 3.193462 1_455
Ca7 P1 3.203644 1_555
Ca7 Pd8 3.207798 1_555
Ca7 Pd10 3.209371 1_555
Ca7 Pd10 3.209371 1_455
Ca7 Pd5 3.229444 1_554
Ca8 P5 3.089239 1_455
Ca8 P5 3.089239 1_555
Ca8 P7 3.094054 1_555
Ca8 P7 3.094054 1_455
Ca8 Pd6 3.136375 1_555
Ca8 Pd6 3.136375 1_455
Ca8 P8 3.141295 1_555
Ca8 Pd4 3.193462 1_455
Ca8 Pd4 3.193462 1_555
Ca8 P2 3.203644 1_555
Ca8 Pd5 3.207798 1_555
Ca8 Pd10 3.209371 1_456
Ca8 Pd10 3.209371 1_556
Ca8 Pd8 3.229444 1_556
Ca9 Pd3 3.087929 1_555
Ca9 Pd0 3.087929 1_555
Ca9 P11 3.103279 1_555
Ca9 P11 3.103279 1_455
Ca9 P0 3.103279 1_455
Ca9 P0 3.103279 1_555
Ca9 Pd11 3.173166 1_555
Ca9 Pd11 3.173166 1_455
Ca9 Pd2 3.173166 1_555
Ca9 Pd2 3.173166 1_455
Ca9 P10 3.176964 1_555
Ca9 P9 3.176964 1_555
P0 Pd0 2.368170 1_555
P0 Pd0 2.368170 1_655
P0 Pd11 2.393789 1_555
P1 P9 2.204447 1_555
P1 Pd7 2.333741 1_555
P1 Pd7 2.333741 1_455
P2 Pd4 2.333741 1_455
P2 Pd4 2.333741 1_555
P3 Pd7 2.354574 1_555
P3 Pd8 2.483179 1_555
P3 Pd8 2.483179 1_655
P3 Pd9 2.509528 1_565
P3 Pd10 2.509528 1_555
P4 Pd1 2.353051 1_455
P4 Pd1 2.353051 1_555
P4 Pd3 2.381040 1_555
P5 Pd4 2.354574 1_555
P5 Pd5 2.483179 1_655
P5 Pd5 2.483179 1_555
P5 Pd10 2.509528 1_556
P5 Pd9 2.509528 1_556
P6 Pd1 2.323314 1_555
P6 Pd9 2.471964 1_555
P6 Pd10 2.471964 1_555
P6 Pd5 2.474309 1_554
P6 Pd5 2.474309 1_654
P7 Pd6 2.323314 1_555
P7 Pd10 2.471964 1_556
P7 Pd9 2.471964 1_566
P7 Pd8 2.474309 1_656
P7 Pd8 2.474309 1_556
P8 Pd6 2.353051 1_455
P8 Pd6 2.353051 1_555
P8 Pd0 2.381040 1_555
P9 Pd11 2.335915 1_455
P9 Pd11 2.335915 1_555
P10 P2 2.204447 1_555
P10 Pd2 2.335915 1_455
P10 Pd2 2.335915 1_555
P11 Pd3 2.368170 1_655
P11 Pd3 2.368170 1_555
P11 Pd2 2.393789 1_555
Pd5 Pd9 2.899890 1_456
Pd5 Pd9 2.899890 1_556
Pd8 Pd9 2.899890 1_565
Pd8 Pd9 2.899890 1_465
Pd10 Pd5 2.899890 1_554
Pd10 Pd5 2.899890 1_654
Pd10 Pd8 2.899890 1_555
Pd10 Pd8 2.899890 1_655
