# generated using pymatgen
data_Ce3Si2S8Br
_symmetry_space_group_name_H-M   'P 1'
_cell_length_a   8.81677297
_cell_length_b   8.81677297
_cell_length_c   10.99693011
_cell_angle_alpha   83.30643306
_cell_angle_beta   83.30643306
_cell_angle_gamma   52.36216957
_symmetry_Int_Tables_number   1
_chemical_formula_structural   Ce3Si2S8Br
_chemical_formula_sum   'Ce6 Si4 S16 Br2'
_cell_volume   671.21126653
_cell_formula_units_Z   2
loop_
 _symmetry_equiv_pos_site_id
 _symmetry_equiv_pos_as_xyz
  1  'x, y, z'
loop_
 _atom_site_type_symbol
 _atom_site_label
 _atom_site_symmetry_multiplicity
 _atom_site_fract_x
 _atom_site_fract_y
 _atom_site_fract_z
 _atom_site_occupancy
  Ce  Ce0  1  0.39171700  0.60828300  0.75000000  1
  Ce  Ce1  1  0.92452500  0.68511000  0.18390800  1
  Ce  Ce2  1  0.07547500  0.31489000  0.81609200  1
  Ce  Ce3  1  0.68511000  0.92452500  0.68390800  1
  Ce  Ce4  1  0.31489000  0.07547500  0.31609200  1
  Ce  Ce5  1  0.60828300  0.39171700  0.25000000  1
  Si  Si0  1  0.69226400  0.62756400  0.47021800  1
  Si  Si1  1  0.37243600  0.30773600  0.02978200  1
  Si  Si2  1  0.62756400  0.69226400  0.97021800  1
  Si  Si3  1  0.30773600  0.37243600  0.52978200  1
  S  S0  1  0.74360000  0.55432200  0.66054700  1
  S  S1  1  0.60290500  0.10799000  0.14391200  1
  S  S2  1  0.71082300  0.85692600  0.41435200  1
  S  S3  1  0.89201000  0.39709500  0.35608800  1
  S  S4  1  0.28917700  0.14307400  0.58564800  1
  S  S5  1  0.44567800  0.25640000  0.83945300  1
  S  S6  1  0.85692600  0.71082300  0.91435200  1
  S  S7  1  0.10799000  0.60290500  0.64391200  1
  S  S8  1  0.25640000  0.44567800  0.33945300  1
  S  S9  1  0.14307400  0.28917700  0.08564800  1
  S  S10  1  0.72395300  0.40796000  0.95251100  1
  S  S11  1  0.40796000  0.72395300  0.45251100  1
  S  S12  1  0.59204000  0.27604700  0.54748900  1
  S  S13  1  0.55432200  0.74360000  0.16054700  1
  S  S14  1  0.39709500  0.89201000  0.85608800  1
  S  S15  1  0.27604700  0.59204000  0.04748900  1
  Br  Br0  1  0.00759000  0.99241000  0.25000000  1
  Br  Br1  1  0.99241000  0.00759000  0.75000000  1
loop_
_geom_bond_atom_site_label_1
_geom_bond_atom_site_label_2
_geom_bond_distance
_geom_bond_site_symmetry_2
Ce0 S0 2.900736 1_555
Ce0 S5 2.900736 1_555
Ce0 S14 2.908469 1_555
Ce0 S7 2.908469 1_555
Ce0 S12 3.308253 1_555
Ce0 S10 3.308253 1_555
Ce0 S15 3.324824 1_556
Ce0 S11 3.324824 1_555
Ce1 S2 2.926220 1_555
Ce1 S15 2.937088 1_655
Ce1 S8 2.953805 1_655
Ce1 S13 3.015695 1_555
Ce1 S1 3.021827 1_565
Ce1 S9 3.040593 1_655
Ce1 S6 3.046932 1_554
Ce1 S3 3.123684 1_555
Ce2 S4 2.926220 1_555
Ce2 S10 2.937088 1_455
Ce2 S0 2.953805 1_455
Ce2 S5 3.015695 1_555
Ce2 S14 3.021827 1_545
Ce2 S6 3.040593 1_455
Ce2 S9 3.046932 1_556
Ce2 S7 3.123684 1_555
Ce3 S6 2.926220 1_555
Ce3 S12 2.937088 1_565
Ce3 S5 2.953805 1_565
Ce3 S0 3.015695 1_555
Ce3 S7 3.021827 1_655
Ce3 S4 3.040593 1_565
Ce3 S2 3.046932 1_555
Ce3 S14 3.123684 1_555
Ce4 S9 2.926220 1_555
Ce4 S11 2.937088 1_545
Ce4 S13 2.953805 1_545
Ce4 S8 3.015695 1_555
Ce4 S3 3.021827 1_455
Ce4 S2 3.040593 1_545
Ce4 S4 3.046932 1_555
Ce4 S1 3.123684 1_555
Ce5 S13 2.900736 1_555
Ce5 S8 2.900736 1_555
Ce5 S3 2.908469 1_555
Ce5 S1 2.908469 1_555
Ce5 S11 3.308253 1_555
Ce5 S15 3.308253 1_555
Ce5 S12 3.324824 1_555
Ce5 S10 3.324824 1_554
S0 Si0 2.133412 1_555
S1 Si1 2.124702 1_555
S2 Si0 2.141195 1_555
S3 Si0 2.124702 1_555
S4 Si3 2.141195 1_555
S5 Si1 2.133412 1_556
S6 Si2 2.141195 1_555
S7 Si3 2.124702 1_555
S8 Si3 2.133412 1_555
S9 Si1 2.141195 1_555
S10 Si2 2.125293 1_555
S11 Si0 2.125293 1_555
S12 Si3 2.125293 1_555
S13 Si2 2.133412 1_554
S14 Si2 2.124702 1_555
S15 Si1 2.125293 1_555
Br0 Ce5 3.106644 1_465
Br0 Ce4 3.378170 1_565
Br0 Ce1 3.378170 1_455
Br1 Ce0 3.106644 1_645
Br1 Ce2 3.378170 1_655
Br1 Ce3 3.378170 1_545
