# generated using pymatgen
data_RbTi2(PO4)3
_symmetry_space_group_name_H-M   'P 1'
_cell_length_a   9.31094390
_cell_length_b   9.31094390
_cell_length_c   9.31094337
_cell_angle_alpha   53.89556013
_cell_angle_beta   53.89556013
_cell_angle_gamma   53.89555789
_symmetry_Int_Tables_number   1
_chemical_formula_structural   RbTi2(PO4)3
_chemical_formula_sum   'Rb2 Ti4 P6 O24'
_cell_volume   489.36145314
_cell_formula_units_Z   2
loop_
 _symmetry_equiv_pos_site_id
 _symmetry_equiv_pos_as_xyz
  1  'x, y, z'
loop_
 _atom_site_type_symbol
 _atom_site_label
 _atom_site_symmetry_multiplicity
 _atom_site_fract_x
 _atom_site_fract_y
 _atom_site_fract_z
 _atom_site_occupancy
  Rb  Rb0  1  0.00000000  0.00000000  0.00000000  1
  Rb  Rb1  1  0.50000000  0.50000000  0.50000000  1
  Ti  Ti0  1  0.15084300  0.15084300  0.15084300  1
  Ti  Ti1  1  0.34915700  0.34915700  0.34915700  1
  Ti  Ti2  1  0.84915700  0.84915700  0.84915700  1
  Ti  Ti3  1  0.65084300  0.65084300  0.65084300  1
  P  P0  1  0.25000000  0.97015300  0.52984700  1
  P  P1  1  0.52984700  0.25000000  0.97015300  1
  P  P2  1  0.97015300  0.52984700  0.25000000  1
  P  P3  1  0.75000000  0.02984700  0.47015300  1
  P  P4  1  0.47015300  0.75000000  0.02984700  1
  P  P5  1  0.02984700  0.47015300  0.75000000  1
  O  O0  1  0.98817400  0.34771600  0.26144000  1
  O  O1  1  0.26144000  0.98817400  0.34771600  1
  O  O2  1  0.34771600  0.26144000  0.98817400  1
  O  O3  1  0.51182600  0.23856000  0.15228400  1
  O  O4  1  0.15228400  0.51182600  0.23856000  1
  O  O5  1  0.23856000  0.15228400  0.51182600  1
  O  O6  1  0.01182600  0.65228400  0.73856000  1
  O  O7  1  0.73856000  0.01182600  0.65228400  1
  O  O8  1  0.65228400  0.73856000  0.01182600  1
  O  O9  1  0.48817400  0.76144000  0.84771600  1
  O  O10  1  0.84771600  0.48817400  0.76144000  1
  O  O11  1  0.76144000  0.84771600  0.48817400  1
  O  O12  1  0.93168500  0.07035600  0.30229200  1
  O  O13  1  0.07035600  0.30229200  0.93168500  1
  O  O14  1  0.30229200  0.93168500  0.07035600  1
  O  O15  1  0.42964400  0.56831500  0.19770800  1
  O  O16  1  0.56831500  0.19770800  0.42964400  1
  O  O17  1  0.19770800  0.42964400  0.56831500  1
  O  O18  1  0.06831500  0.92964400  0.69770800  1
  O  O19  1  0.92964400  0.69770800  0.06831500  1
  O  O20  1  0.69770800  0.06831500  0.92964400  1
  O  O21  1  0.57035600  0.43168500  0.80229200  1
  O  O22  1  0.43168500  0.80229200  0.57035600  1
  O  O23  1  0.80229200  0.57035600  0.43168500  1
loop_
_geom_bond_atom_site_label_1
_geom_bond_atom_site_label_2
_geom_bond_distance
_geom_bond_site_symmetry_2
O0 P2 1.545354 1_555
O0 Ti0 1.956802 1_655
O0 Rb1 3.438353 1_555
O1 P0 1.545354 1_555
O1 Ti0 1.956802 1_565
O1 Rb1 3.438352 1_555
O2 P1 1.545354 1_555
O2 Ti0 1.956802 1_556
O2 Rb1 3.438352 1_555
O3 P1 1.545354 1_554
O3 Ti1 1.956802 1_555
O3 Rb0 3.438352 1_655
O4 P2 1.545354 1_455
O4 Ti1 1.956802 1_555
O4 Rb0 3.438353 1_565
O5 P0 1.545354 1_545
O5 Ti1 1.956802 1_555
O5 Rb0 3.438352 1_556
O6 P5 1.545354 1_555
O6 Ti2 1.956802 1_455
O6 Rb1 3.438353 1_555
O7 P3 1.545354 1_555
O7 Ti2 1.956802 1_545
O7 Rb1 3.438352 1_555
O8 P4 1.545354 1_555
O8 Ti2 1.956802 1_554
O8 Rb1 3.438352 1_555
O9 P4 1.545354 1_556
O9 Ti3 1.956802 1_555
O9 Rb0 3.438352 1_566
O10 P5 1.545354 1_655
O10 Ti3 1.956802 1_555
O10 Rb0 3.438353 1_656
O11 P3 1.545354 1_565
O11 Ti3 1.956802 1_555
O11 Rb0 3.438352 1_665
O12 P3 1.545321 1_555
O12 Ti0 1.969683 1_655
O12 Rb0 2.885793 1_655
O13 P5 1.545321 1_555
O13 Ti0 1.969683 1_556
O13 Rb0 2.885793 1_556
O14 P4 1.545321 1_555
O14 Ti0 1.969683 1_565
O14 Rb0 2.885793 1_565
O15 P4 1.545321 1_555
O15 Ti1 1.969683 1_555
O15 Rb1 2.885793 1_555
O16 P3 1.545321 1_555
O16 Ti1 1.969683 1_555
O16 Rb1 2.885793 1_555
O17 P5 1.545321 1_555
O17 Ti1 1.969683 1_555
O17 Rb1 2.885793 1_555
O18 P0 1.545321 1_555
O18 Ti2 1.969683 1_455
O18 Rb0 2.885793 1_566
O19 P2 1.545321 1_555
O19 Ti2 1.969683 1_554
O19 Rb0 2.885793 1_665
O20 P1 1.545321 1_555
O20 Ti2 1.969683 1_545
O20 Rb0 2.885793 1_656
O21 P1 1.545321 1_555
O21 Ti3 1.969683 1_555
O21 Rb1 2.885793 1_555
O22 P0 1.545321 1_555
O22 Ti3 1.969683 1_555
O22 Rb1 2.885793 1_555
O23 P2 1.545321 1_555
O23 Ti3 1.969683 1_555
O23 Rb1 2.885793 1_555
