# generated using pymatgen
data_RhC2ClO2
_symmetry_space_group_name_H-M   'P 1'
_cell_length_a   11.21322020
_cell_length_b   11.21322020
_cell_length_c   11.21322020
_cell_angle_alpha   100.20077219
_cell_angle_beta   100.20077219
_cell_angle_gamma   130.22598273
_symmetry_Int_Tables_number   1
_chemical_formula_structural   RhC2ClO2
_chemical_formula_sum   'Rh8 C16 Cl8 O16'
_cell_volume   976.50843190
_cell_formula_units_Z   8
loop_
 _symmetry_equiv_pos_site_id
 _symmetry_equiv_pos_as_xyz
  1  'x, y, z'
loop_
 _atom_site_type_symbol
 _atom_site_label
 _atom_site_symmetry_multiplicity
 _atom_site_fract_x
 _atom_site_fract_y
 _atom_site_fract_z
 _atom_site_occupancy
  Rh  Rh0  1  0.76808200  0.68773200  0.37638200  1
  Rh  Rh1  1  0.93773200  0.51808200  0.87638200  1
  Rh  Rh2  1  0.64169900  0.06135000  0.12361800  1
  Rh  Rh3  1  0.31135000  0.39169900  0.62361800  1
  Rh  Rh4  1  0.31226800  0.68865000  0.08035000  1
  Rh  Rh5  1  0.93865000  0.06226800  0.58035000  1
  Rh  Rh6  1  0.48191800  0.35830100  0.41965000  1
  Rh  Rh7  1  0.60830100  0.23191800  0.91965000  1
  C  C0  1  0.87386500  0.97963300  0.70879300  1
  C  C1  1  0.75329600  0.73980000  0.22998500  1
  C  C2  1  0.50981500  0.52331100  0.77001500  1
  C  C3  1  0.02036700  0.72915900  0.89423200  1
  C  C4  1  0.83492700  0.12613500  0.10576800  1
  C  C5  1  0.49670400  0.22668900  0.48650400  1
  C  C6  1  0.41507300  0.02084100  0.79120700  1
  C  C7  1  0.37613500  0.58492700  0.60576800  1
  C  C8  1  0.47668900  0.24670400  0.98650400  1
  C  C9  1  0.97915900  0.77036700  0.39423200  1
  C  C10  1  0.22963300  0.62386500  0.20879300  1
  C  C11  1  0.26020000  0.49018500  0.01349600  1
  C  C12  1  0.27084100  0.16507300  0.29120700  1
  C  C13  1  0.74018500  0.01020000  0.51349600  1
  C  C14  1  0.98980000  0.50329600  0.72998500  1
  C  C15  1  0.77331100  0.25981500  0.27001500  1
  Cl  Cl0  1  0.79495500  0.23051500  0.84206200  1
  Cl  Cl1  1  0.76948500  0.61154700  0.56444000  1
  Cl  Cl2  1  0.48051500  0.54495500  0.34206200  1
  Cl  Cl3  1  0.38845300  0.95289300  0.15793800  1
  Cl  Cl4  1  0.04710700  0.20504500  0.43556000  1
  Cl  Cl5  1  0.86154700  0.51948500  0.06444000  1
  Cl  Cl6  1  0.20289300  0.13845300  0.65793800  1
  Cl  Cl7  1  0.45504500  0.79710700  0.93556000  1
  O  O0  1  0.83364400  0.93256800  0.79082700  1
  O  O1  1  0.63382800  0.60117700  0.86015600  1
  O  O2  1  0.50897900  0.14882300  0.53265000  1
  O  O3  1  0.02367100  0.49102100  0.63984400  1
  O  O4  1  0.95718300  0.16635600  0.09892400  1
  O  O5  1  0.41635600  0.70718300  0.59892400  1
  O  O6  1  0.06743200  0.85825900  0.90107600  1
  O  O7  1  0.29281700  0.89174100  0.70917300  1
  O  O8  1  0.39882300  0.25897900  0.03265000  1
  O  O9  1  0.74102100  0.77367100  0.13984400  1
  O  O10  1  0.61617200  0.97632900  0.46735000  1
  O  O11  1  0.22632900  0.36617200  0.96735000  1
  O  O12  1  0.85117700  0.38382800  0.36015600  1
  O  O13  1  0.10825900  0.81743200  0.40107600  1
  O  O14  1  0.14174100  0.04281700  0.20917300  1
  O  O15  1  0.18256800  0.58364400  0.29082700  1
loop_
_geom_bond_atom_site_label_1
_geom_bond_atom_site_label_2
_geom_bond_distance
_geom_bond_site_symmetry_2
C0 O0 1.157387 1_555
C0 Rh5 1.853248 1_565
C1 O9 1.157182 1_555
C1 Rh0 1.852367 1_555
C2 O1 1.157189 1_555
C2 Rh3 1.852365 1_555
C3 O6 1.157397 1_555
C3 Rh1 1.853238 1_455
C4 O4 1.157397 1_555
C4 Rh2 1.853248 1_555
C5 O2 1.157182 1_555
C5 Rh6 1.852377 1_555
C6 O7 1.157393 1_545
C6 Rh7 1.853244 1_555
C7 O5 1.157397 1_555
C7 Rh3 1.853248 1_555
C8 O8 1.157182 1_556
C8 Rh7 1.852377 1_555
C9 O13 1.157397 1_655
C9 Rh0 1.853238 1_555
C10 O15 1.157387 1_555
C10 Rh4 1.853248 1_555
C11 O11 1.157193 1_554
C11 Rh4 1.852367 1_555
C12 O14 1.157393 1_555
C12 Rh6 1.853244 1_555
C13 O10 1.157193 1_545
C13 Rh5 1.852367 1_555
C14 O3 1.157182 1_655
C14 Rh1 1.852367 1_555
C15 O12 1.157189 1_555
C15 Rh2 1.852365 1_555
Cl0 Rh1 2.404860 1_555
Cl0 Rh7 2.412557 1_555
Cl1 Rh6 2.404858 1_555
Cl1 Rh0 2.412567 1_555
Cl2 Rh0 2.404860 1_555
Cl2 Rh6 2.412557 1_555
Cl3 Rh2 2.404850 1_565
Cl3 Rh4 2.412567 1_555
Cl4 Rh5 2.404860 1_455
Cl4 Rh3 2.412568 1_555
Cl5 Rh7 2.404858 1_554
Cl5 Rh1 2.412567 1_554
Cl6 Rh3 2.404850 1_555
Cl6 Rh5 2.412567 1_455
Cl7 Rh4 2.404860 1_556
Cl7 Rh2 2.412568 1_566
