# generated using pymatgen
data_Nd3O2F5
_symmetry_space_group_name_H-M   'P 1'
_cell_length_a   3.84161300
_cell_length_b   5.61409200
_cell_length_c   14.99465288
_cell_angle_alpha   86.68331458
_cell_angle_beta   90.00000000
_cell_angle_gamma   90.00000000
_symmetry_Int_Tables_number   1
_chemical_formula_structural   Nd3O2F5
_chemical_formula_sum   'Nd6 O4 F10'
_cell_volume   322.85053149
_cell_formula_units_Z   2
loop_
 _symmetry_equiv_pos_site_id
 _symmetry_equiv_pos_as_xyz
  1  'x, y, z'
loop_
 _atom_site_type_symbol
 _atom_site_label
 _atom_site_symmetry_multiplicity
 _atom_site_fract_x
 _atom_site_fract_y
 _atom_site_fract_z
 _atom_site_occupancy
  Nd  Nd0  1  0.00000000  0.92926300  0.09332200  1
  Nd  Nd1  1  0.00000000  0.83442600  0.73835100  1
  Nd  Nd2  1  0.00000000  0.80264000  0.36484400  1
  Nd  Nd3  1  0.50000000  0.34395300  0.51505600  1
  Nd  Nd4  1  0.50000000  0.41910300  0.21665800  1
  Nd  Nd5  1  0.50000000  0.42433600  0.90610900  1
  O  O0  1  0.00000000  0.66298500  0.22706700  1
  O  O1  1  0.50000000  0.62164600  0.77372800  1
  O  O2  1  0.50000000  0.56654700  0.37122900  1
  O  O3  1  0.50000000  0.04443100  0.15652000  1
  F  F0  1  0.00000000  0.19124500  0.95279100  1
  F  F1  1  0.00000000  0.10012400  0.48438200  1
  F  F2  1  0.00000000  0.57038900  0.50078700  1
  F  F3  1  0.00000000  0.67608300  0.89557700  1
  F  F4  1  0.00000000  0.35692600  0.11339800  1
  F  F5  1  0.50000000  0.68099500  0.03443000  1
  F  F6  1  0.50000000  0.09399800  0.64810300  1
  F  F7  1  0.50000000  0.08214900  0.82269300  1
  F  F8  1  0.50000000  0.64362400  0.60584400  1
  F  F9  1  0.50000000  0.08913700  0.34044400  1
loop_
_geom_bond_atom_site_label_1
_geom_bond_atom_site_label_2
_geom_bond_distance
_geom_bond_site_symmetry_2
Nd0 O3 2.253097 1_465
Nd0 O3 2.253097 1_565
Nd0 O0 2.430993 1_555
Nd1 O1 2.307500 1_455
Nd1 O1 2.307500 1_555
Nd2 O0 2.251700 1_555
Nd2 O2 2.332551 1_555
Nd2 O2 2.332551 1_455
Nd3 O2 2.429175 1_555
Nd4 O3 2.336043 1_555
Nd4 O0 2.369225 1_655
Nd4 O0 2.369225 1_555
Nd4 O2 2.505813 1_555
Nd5 O1 2.216498 1_555
F0 Nd5 2.405390 1_555
F0 Nd5 2.405390 1_455
F0 Nd0 2.498992 1_546
F1 Nd3 2.418208 1_555
F1 Nd3 2.418208 1_455
F1 Nd2 2.519610 1_545
F2 Nd3 2.306477 1_555
F2 Nd3 2.306477 1_455
F2 Nd2 2.355358 1_555
F3 Nd5 2.384558 1_455
F3 Nd5 2.384558 1_555
F3 Nd1 2.470987 1_555
F4 Nd0 2.436957 1_545
F4 Nd4 2.504249 1_455
F4 Nd4 2.504249 1_555
F5 Nd5 2.469674 1_554
F5 Nd0 2.560155 1_555
F5 Nd0 2.560155 1_655
F5 Nd4 3.027068 1_555
F6 Nd3 2.371758 1_555
F6 Nd1 2.723266 1_645
F6 Nd1 2.723266 1_545
F7 Nd5 2.352239 1_555
F7 Nd1 2.725176 1_645
F7 Nd1 2.725176 1_545
F8 Nd3 2.224555 1_555
F8 Nd1 3.005154 1_655
F8 Nd1 3.005154 1_555
F9 Nd2 2.518389 1_645
F9 Nd2 2.518389 1_545
F9 Nd4 2.545380 1_555
