# generated using pymatgen
data_Ce9SmO20
_symmetry_space_group_name_H-M   'P 1'
_cell_length_a   6.66676113
_cell_length_b   7.69700287
_cell_length_c   8.60659316
_cell_angle_alpha   102.92777629
_cell_angle_beta   97.41975022
_cell_angle_gamma   106.76859509
_symmetry_Int_Tables_number   1
_chemical_formula_structural   Ce9SmO20
_chemical_formula_sum   'Ce9 Sm1 O20'
_cell_volume   403.16741243
_cell_formula_units_Z   1
loop_
 _symmetry_equiv_pos_site_id
 _symmetry_equiv_pos_as_xyz
  1  'x, y, z'
loop_
 _atom_site_type_symbol
 _atom_site_label
 _atom_site_symmetry_multiplicity
 _atom_site_fract_x
 _atom_site_fract_y
 _atom_site_fract_z
 _atom_site_occupancy
  Ce  Ce0  1  0.80018985  0.60055052  0.60085063  1
  Ce  Ce1  1  0.60019508  0.19963921  0.19940892  1
  Ce  Ce2  1  0.00000000  0.50000000  0.00000000  1
  Ce  Ce3  1  0.79955561  0.09984947  0.60102038  1
  Ce  Ce4  1  0.39980492  0.80036079  0.80059108  1
  Ce  Ce5  1  0.19981015  0.39944948  0.39914937  1
  Ce  Ce6  1  0.60221371  0.70076087  0.19987218  1
  Ce  Ce7  1  0.39778629  0.29923913  0.80012782  1
  Ce  Ce8  1  0.20044439  0.90015053  0.39897962  1
  Sm  Sm0  1  0.00000000  -0.00000000  0.00000000  1
  O  O0  1  0.84994484  0.32523667  0.45206414  1
  O  O1  1  0.64336645  0.92313216  0.05183914  1
  O  O2  1  0.95037081  0.77011152  0.15326883  1
  O  O3  1  0.44769505  0.52320537  0.64934368  1
  O  O4  1  0.85177933  0.82602129  0.45109553  1
  O  O5  1  0.64829930  0.42514367  0.04925127  1
  O  O6  1  0.74599351  0.37431918  0.75013647  1
  O  O7  1  0.25629377  0.12812259  0.25503268  1
  O  O8  1  0.94894487  0.28139647  0.15380466  1
  O  O9  1  0.44782937  0.02509845  0.64861141  1
  O  O10  1  0.55217063  0.97490155  0.35138859  1
  O  O11  1  0.05105513  0.71860353  0.84619534  1
  O  O12  1  0.74370623  0.87187741  0.74496732  1
  O  O13  1  0.35170070  0.57485633  0.95074873  1
  O  O14  1  0.25400649  0.62568082  0.24986353  1
  O  O15  1  0.55230495  0.47679463  0.35065632  1
  O  O16  1  0.14822067  0.17397871  0.54890447  1
  O  O17  1  0.04962919  0.22988848  0.84673117  1
  O  O18  1  0.35663355  0.07686784  0.94816086  1
  O  O19  1  0.15005516  0.67476333  0.54793586  1
loop_
_geom_bond_atom_site_label_1
_geom_bond_atom_site_label_2
_geom_bond_distance
_geom_bond_site_symmetry_2
Ce0 O11 2.331105 1_655
Ce0 O12 2.336037 1_555
Ce0 O15 2.351598 1_555
Ce0 O0 2.354036 1_555
Ce0 O4 2.358434 1_555
Ce0 O6 2.360390 1_555
Ce0 O19 2.365601 1_655
Ce0 O3 2.368192 1_555
Ce1 O8 2.336194 1_555
Ce1 O7 2.337065 1_555
Ce1 O1 2.337491 1_545
Ce1 O18 2.344989 1_554
Ce1 O5 2.361191 1_555
Ce1 O15 2.367502 1_555
Ce1 O10 2.367841 1_545
Ce1 O0 2.372938 1_555
Ce2 O17 2.335491 1_554
Ce2 O2 2.335491 1_455
Ce2 O8 2.341313 1_455
Ce2 O11 2.341313 1_554
Ce2 O5 2.365534 1_455
Ce2 O13 2.365534 1_554
Ce2 O6 2.368830 1_454
Ce2 O14 2.368830 1_555
Ce3 O17 2.330852 1_655
Ce3 O12 2.338229 1_545
Ce3 O10 2.346488 1_545
Ce3 O0 2.352878 1_555
Ce3 O16 2.355504 1_655
Ce3 O4 2.356054 1_545
Ce3 O9 2.360567 1_555
Ce3 O6 2.361808 1_555
Ce4 O11 2.336194 1_555
Ce4 O12 2.337065 1_555
Ce4 O18 2.337491 1_565
Ce4 O1 2.344989 1_556
Ce4 O13 2.361191 1_555
Ce4 O3 2.367502 1_555
Ce4 O9 2.367841 1_565
Ce4 O19 2.372938 1_555
Ce5 O8 2.331105 1_455
Ce5 O7 2.336037 1_555
Ce5 O3 2.351598 1_555
Ce5 O19 2.354036 1_555
Ce5 O16 2.358434 1_555
Ce5 O14 2.360390 1_555
Ce5 O0 2.365601 1_455
Ce5 O15 2.368192 1_555
Ce6 O1 2.328755 1_555
Ce6 O2 2.335501 1_555
Ce6 O14 2.345886 1_555
Ce6 O5 2.350272 1_555
Ce6 O13 2.353110 1_554
Ce6 O15 2.355442 1_555
Ce6 O10 2.356175 1_555
Ce6 O4 2.363323 1_555
Ce7 O18 2.328755 1_555
Ce7 O17 2.335501 1_555
Ce7 O6 2.345886 1_555
Ce7 O13 2.350272 1_555
Ce7 O5 2.353110 1_556
Ce7 O3 2.355442 1_555
Ce7 O9 2.356175 1_555
Ce7 O16 2.363323 1_555
Ce8 O2 2.330852 1_455
Ce8 O7 2.338229 1_565
Ce8 O9 2.346488 1_565
Ce8 O19 2.352878 1_555
Ce8 O4 2.355504 1_455
Ce8 O16 2.356054 1_565
Ce8 O10 2.360567 1_555
Ce8 O14 2.361808 1_555
O1 Sm0 2.404671 1_665
O2 Sm0 2.408282 1_665
O7 Sm0 2.408405 1_555
O8 Sm0 2.412090 1_655
O11 Sm0 2.412090 1_566
O12 Sm0 2.408405 1_666
O17 Sm0 2.408282 1_556
O18 Sm0 2.404671 1_556
