# generated using pymatgen
data_RbBiF3
_symmetry_space_group_name_H-M   'P 1'
_cell_length_a   5.02689600
_cell_length_b   5.16167337
_cell_length_c   8.67250514
_cell_angle_alpha   96.27132868
_cell_angle_beta   92.60776584
_cell_angle_gamma   96.62099661
_symmetry_Int_Tables_number   1
_chemical_formula_structural   RbBiF3
_chemical_formula_sum   'Rb2 Bi2 F6'
_cell_volume   221.80384189
_cell_formula_units_Z   2
loop_
 _symmetry_equiv_pos_site_id
 _symmetry_equiv_pos_as_xyz
  1  'x, y, z'
loop_
 _atom_site_type_symbol
 _atom_site_label
 _atom_site_symmetry_multiplicity
 _atom_site_fract_x
 _atom_site_fract_y
 _atom_site_fract_z
 _atom_site_occupancy
  Rb  Rb0  1  0.49525100  0.49277200  0.25181900  1
  Rb  Rb1  1  0.01280500  0.01454600  0.49894900  1
  Bi  Bi0  1  0.89727200  0.99129700  0.99907900  1
  Bi  Bi1  1  0.60100400  0.51062700  0.74955400  1
  F  F0  1  0.83123000  0.50856400  0.53720100  1
  F  F1  1  0.52054100  0.19404800  0.95873400  1
  F  F2  1  0.96805200  0.29240800  0.79225200  1
  F  F3  1  0.03777000  0.65690800  0.12105100  1
  F  F4  1  0.68228400  0.99951900  0.21889700  1
  F  F5  1  0.46068200  0.83470500  0.62092700  1
loop_
_geom_bond_atom_site_label_1
_geom_bond_atom_site_label_2
_geom_bond_distance
_geom_bond_site_symmetry_2
Bi0 F4 2.232576 1_556
Bi0 F3 2.282296 1_656
Bi0 F1 2.298005 1_565
Bi0 F2 2.509833 1_565
Bi1 F0 2.218924 1_555
Bi1 F5 2.268994 1_555
Bi1 F2 2.306185 1_555
Bi1 F1 2.585889 1_555
F0 Rb1 2.726050 1_665
F0 Rb1 2.797310 1_655
F0 Rb0 2.920351 1_555
F1 Rb0 2.841246 1_556
F2 Rb1 2.811999 1_655
F3 Rb0 2.777494 1_555
F3 Rb0 3.065945 1_455
F4 Rb0 2.725373 1_555
F4 Rb0 2.804510 1_565
F4 Rb1 2.868334 1_665
F5 Rb1 2.743987 1_565
F5 Rb1 3.093792 1_665
