# generated using pymatgen
data_BaNa2Al4(SiO4)4
_symmetry_space_group_name_H-M   'P 1'
_cell_length_a   10.77495580
_cell_length_b   10.77495580
_cell_length_c   10.77495580
_cell_angle_alpha   132.45226230
_cell_angle_beta   124.22383830
_cell_angle_gamma   76.26667847
_symmetry_Int_Tables_number   1
_chemical_formula_structural   BaNa2Al4(SiO4)4
_chemical_formula_sum   'Ba2 Na4 Al8 Si8 O32'
_cell_volume   742.16429633
_cell_formula_units_Z   2
loop_
 _symmetry_equiv_pos_site_id
 _symmetry_equiv_pos_as_xyz
  1  'x, y, z'
loop_
 _atom_site_type_symbol
 _atom_site_label
 _atom_site_symmetry_multiplicity
 _atom_site_fract_x
 _atom_site_fract_y
 _atom_site_fract_z
 _atom_site_occupancy
  Ba  Ba0  1  0.15391200  0.65391200  0.50000000  1
  Ba  Ba1  1  0.65391200  0.15391200  0.50000000  1
  Na  Na0  1  0.23174900  0.86437300  0.28661500  1
  Na  Na1  1  0.07775800  0.36437300  0.63262400  1
  Na  Na2  1  0.57775800  0.94513400  0.71338500  1
  Na  Na3  1  0.73174900  0.44513400  0.36737600  1
  Al  Al0  1  0.24906300  0.13369000  0.25676000  1
  Al  Al1  1  0.87693000  0.99230300  0.74324000  1
  Al  Al2  1  0.75427700  0.03212000  0.16458100  1
  Al  Al3  1  0.74906300  0.49230300  0.11537300  1
  Al  Al4  1  0.36753900  0.53212000  0.27784300  1
  Al  Al5  1  0.25427700  0.08969600  0.72215700  1
  Al  Al6  1  0.86753900  0.58969600  0.83541900  1
  Al  Al7  1  0.37693000  0.63369000  0.88462700  1
  Si  Si0  1  0.93935600  0.82272400  0.27009100  1
  Si  Si1  1  0.55828100  0.73070000  0.29446300  1
  Si  Si2  1  0.43623700  0.26381800  0.70553700  1
  Si  Si3  1  0.05828100  0.76381800  0.82758100  1
  Si  Si4  1  0.93623700  0.23070000  0.17241900  1
  Si  Si5  1  0.05263300  0.32272400  0.88336800  1
  Si  Si6  1  0.43935600  0.16926500  0.11663200  1
  Si  Si7  1  0.55263300  0.66926500  0.72990900  1
  O  O0  1  0.87997400  0.40790100  0.22403800  1
  O  O1  1  0.18386300  0.65593600  0.77596200  1
  O  O2  1  0.37997400  0.15593600  0.47207300  1
  O  O3  1  0.68386300  0.90790100  0.52792700  1
  O  O4  1  0.11658300  0.90036000  0.47303600  1
  O  O5  1  0.42732400  0.64354700  0.52696400  1
  O  O6  1  0.61658300  0.14354700  0.21622300  1
  O  O7  1  0.92732400  0.40036000  0.78377700  1
  O  O8  1  0.46109300  0.36351400  0.20158800  1
  O  O9  1  0.16192600  0.25950500  0.79841200  1
  O  O10  1  0.96109300  0.75950500  0.09757900  1
  O  O11  1  0.66192600  0.86351400  0.90242100  1
  O  O12  1  0.48566900  0.77688300  0.15235200  1
  O  O13  1  0.62453100  0.33331700  0.84764800  1
  O  O14  1  0.98566900  0.83331700  0.70878600  1
  O  O15  1  0.12453100  0.27688300  0.29121400  1
  O  O16  1  0.83648600  0.96948300  0.30573100  1
  O  O17  1  0.66375200  0.53075500  0.69426900  1
  O  O18  1  0.33648600  0.03075500  0.86700300  1
  O  O19  1  0.16375200  0.46948300  0.13299700  1
  O  O20  1  0.34782000  0.41939300  0.77740500  1
  O  O21  1  0.64198800  0.57041500  0.22259500  1
  O  O22  1  0.89145600  0.19309700  0.26957300  1
  O  O23  1  0.92352400  0.62188300  0.73042700  1
  O  O24  1  0.39145600  0.12188300  0.69835900  1
  O  O25  1  0.42352400  0.69309700  0.30164100  1
  O  O26  1  0.36666000  0.15460400  0.20537700  1
  O  O27  1  0.94922700  0.16128300  0.79462300  1
  O  O28  1  0.86666000  0.66128300  0.21205600  1
  O  O29  1  0.44922700  0.65460400  0.78794400  1
  O  O30  1  0.14198800  0.91939300  0.07157300  1
  O  O31  1  0.84782000  0.07041500  0.92842700  1
loop_
_geom_bond_atom_site_label_1
_geom_bond_atom_site_label_2
_geom_bond_distance
_geom_bond_site_symmetry_2
Ba0 O5 2.774998 1_555
Ba0 O4 2.774998 1_555
Ba0 O0 2.789728 1_455
Ba0 O1 2.789728 1_555
Ba0 O28 2.937042 1_455
Ba0 O29 2.937042 1_555
Ba0 O15 3.022738 1_555
Ba0 O14 3.022738 1_455
Ba0 O19 3.059591 1_555
Ba0 O18 3.059591 1_565
Ba1 O6 2.774998 1_555
Ba1 O7 2.774998 1_555
Ba1 O3 2.789728 1_545
Ba1 O2 2.789728 1_555
Ba1 O27 2.937042 1_555
Ba1 O26 2.937042 1_555
Ba1 O12 3.022738 1_545
Ba1 O13 3.022738 1_555
Ba1 O16 3.059591 1_545
Ba1 O17 3.059591 1_555
Na0 O10 2.388789 1_455
Na0 O30 2.391024 1_555
Na0 O25 2.432756 1_555
Na0 O2 2.594433 1_565
Na0 O4 2.692374 1_555
Na0 O24 2.721103 1_565
Na1 O9 2.388789 1_555
Na1 O20 2.391024 1_555
Na1 O22 2.432756 1_455
Na1 O1 2.594433 1_555
Na1 O7 2.692374 1_455
Na1 O23 2.721103 1_455
Na2 O11 2.388789 1_555
Na2 O31 2.391024 1_565
Na2 O24 2.432756 1_565
Na2 O3 2.594433 1_555
Na2 O5 2.692374 1_555
Na2 O25 2.721103 1_555
Na3 O8 2.388789 1_555
Na3 O21 2.391024 1_555
Na3 O23 2.432756 1_555
Na3 O0 2.594433 1_555
Na3 O6 2.692374 1_555
Na3 O22 2.721103 1_555
Al0 O26 1.748136 1_555
Al0 O30 1.760637 1_545
Al0 O15 1.767191 1_555
Al0 O2 1.777144 1_555
Al1 O27 1.748136 1_565
Al1 O31 1.760637 1_565
Al1 O14 1.767191 1_555
Al1 O3 1.777144 1_555
Al2 O11 1.743212 1_544
Al2 O6 1.770119 1_555
Al2 O16 1.771906 1_545
Al2 O22 1.777806 1_555
Al3 O28 1.748136 1_555
Al3 O21 1.760637 1_555
Al3 O13 1.767191 1_554
Al3 O0 1.777144 1_555
Al4 O8 1.743212 1_555
Al4 O5 1.770119 1_555
Al4 O19 1.771906 1_555
Al4 O25 1.777806 1_555
Al5 O9 1.743212 1_555
Al5 O4 1.770119 1_545
Al5 O18 1.771906 1_555
Al5 O24 1.777806 1_555
Al6 O10 1.743212 1_556
Al6 O7 1.770119 1_555
Al6 O17 1.771906 1_555
Al6 O23 1.777806 1_555
Al7 O29 1.748136 1_555
Al7 O20 1.760637 1_555
Al7 O12 1.767191 1_556
Al7 O1 1.777144 1_555
O0 Si4 1.648794 1_555
O1 Si3 1.648794 1_555
O2 Si2 1.648794 1_555
O3 Si1 1.648794 1_555
O4 Si0 1.649263 1_455
O5 Si7 1.649263 1_555
O6 Si6 1.649263 1_555
O7 Si5 1.649263 1_655
O8 Si6 1.636677 1_555
O9 Si5 1.636677 1_555
O10 Si0 1.636677 1_555
O11 Si7 1.636677 1_555
O12 Si1 1.643356 1_555
O13 Si2 1.643356 1_555
O14 Si3 1.643356 1_655
O15 Si4 1.643356 1_455
O16 Si0 1.644217 1_555
O17 Si7 1.644217 1_555
O18 Si6 1.644217 1_556
O19 Si5 1.644217 1_554
O20 Si2 1.623735 1_555
O21 Si1 1.623735 1_555
O22 Si4 1.651184 1_555
O23 Si3 1.651184 1_655
O24 Si2 1.651184 1_555
O25 Si1 1.651184 1_555
O26 Si6 1.630357 1_555
O27 Si5 1.630357 1_655
O28 Si0 1.630357 1_555
O29 Si7 1.630357 1_555
O30 Si3 1.623735 1_554
O31 Si4 1.623735 1_556
