# generated using pymatgen
data_Na3Pr5Cl18
_symmetry_space_group_name_H-M   'P 1'
_cell_length_a   7.57508558
_cell_length_b   7.57516323
_cell_length_c   12.84002234
_cell_angle_alpha   90.00005152
_cell_angle_beta   89.99994861
_cell_angle_gamma   120.00378296
_symmetry_Int_Tables_number   1
_chemical_formula_structural   Na3Pr5Cl18
_chemical_formula_sum   'Na3 Pr5 Cl18'
_cell_volume   638.05687690
_cell_formula_units_Z   1
loop_
 _symmetry_equiv_pos_site_id
 _symmetry_equiv_pos_as_xyz
  1  'x, y, z'
loop_
 _atom_site_type_symbol
 _atom_site_label
 _atom_site_symmetry_multiplicity
 _atom_site_fract_x
 _atom_site_fract_y
 _atom_site_fract_z
 _atom_site_occupancy
  Na  Na0  1  -0.00014181  -0.00015191  0.50000135  1
  Na  Na1  1  0.66668560  0.33334701  0.34654961  1
  Na  Na2  1  0.66668633  0.33334746  0.65345141  1
  Pr  Pr0  1  0.00001715  0.00000278  0.83275905  1
  Pr  Pr1  1  0.00001539  0.00000292  0.16724064  1
  Pr  Pr2  1  0.33334440  0.66668029  -0.00000045  1
  Pr  Pr3  1  0.33334120  0.66668276  0.33583057  1
  Pr  Pr4  1  0.33334035  0.66668220  0.66416889  1
  Cl  Cl0  1  0.97410481  0.24794957  0.00000004  1
  Cl  Cl1  1  0.97792179  0.25240480  0.32887027  1
  Cl  Cl2  1  0.97792190  0.25240490  0.67112989  1
  Cl  Cl3  1  0.75205757  0.72614649  -0.00000017  1
  Cl  Cl4  1  0.74759140  0.72551296  0.32887283  1
  Cl  Cl5  1  0.74759250  0.72551373  0.67112725  1
  Cl  Cl6  1  0.05463212  0.63438338  0.83407709  1
  Cl  Cl7  1  0.05463185  0.63438288  0.16592224  1
  Cl  Cl8  1  0.04580836  0.61569721  0.50000002  1
  Cl  Cl9  1  0.27389426  0.02590233  0.00000017  1
  Cl  Cl10  1  0.27451574  0.02209933  0.32886982  1
  Cl  Cl11  1  0.27452083  0.02210339  0.67113117  1
  Cl  Cl12  1  0.57975545  0.94535471  0.83407743  1
  Cl  Cl13  1  0.57975336  0.94535317  0.16592258  1
  Cl  Cl14  1  0.56985812  0.95414890  0.49999969  1
  Cl  Cl15  1  0.36561889  0.42028116  0.83407726  1
  Cl  Cl16  1  0.36561859  0.42028024  0.16592260  1
  Cl  Cl17  1  0.38424783  0.43015334  0.49999974  1
loop_
_geom_bond_atom_site_label_1
_geom_bond_atom_site_label_2
_geom_bond_distance
_geom_bond_site_symmetry_2
Cl0 Pr1 2.923390 1_655
Cl0 Pr0 2.923397 1_654
Cl0 Pr2 2.972183 1_655
Cl1 Na1 2.726116 1_555
Cl1 Pr1 2.882829 1_655
Cl1 Pr3 2.941935 1_655
Cl1 Na0 2.972202 1_655
Cl2 Na2 2.726112 1_555
Cl2 Pr0 2.882834 1_655
Cl2 Pr4 2.941929 1_655
Cl2 Na0 2.972176 1_655
Cl3 Pr1 2.923324 1_665
Cl3 Pr0 2.923327 1_664
Cl3 Pr2 2.972240 1_555
Cl4 Na1 2.726067 1_555
Cl4 Pr1 2.882798 1_665
Cl4 Pr3 2.941923 1_555
Cl4 Na0 2.970992 1_665
Cl5 Na2 2.726067 1_555
Cl5 Pr0 2.882793 1_665
Cl5 Pr4 2.941934 1_555
Cl5 Na0 2.970963 1_665
Cl6 Pr2 2.922249 1_556
Cl6 Pr4 2.959740 1_555
Cl6 Pr0 2.998039 1_565
Cl7 Pr2 2.922249 1_555
Cl7 Pr3 2.959747 1_555
Cl7 Pr1 2.998051 1_565
Cl8 Pr4 2.914664 1_555
Cl8 Pr3 2.914670 1_555
Cl8 Na0 3.098759 1_565
Cl8 Na1 3.249813 1_455
Cl8 Na2 3.249816 1_455
Cl9 Pr0 2.923492 1_554
Cl9 Pr1 2.923492 1_555
Cl9 Pr2 2.972060 1_545
Cl10 Na1 2.725928 1_555
Cl10 Pr1 2.882820 1_555
Cl10 Pr3 2.941956 1_545
Cl10 Na0 2.972314 1_555
Cl11 Na2 2.725898 1_555
Cl11 Pr0 2.882813 1_555
Cl11 Pr4 2.941964 1_545
Cl11 Na0 2.972317 1_555
Cl12 Pr2 2.922063 1_556
Cl12 Pr4 2.959591 1_555
Cl12 Pr0 2.998069 1_665
Cl13 Pr2 2.922062 1_555
Cl13 Pr3 2.959574 1_555
Cl13 Pr1 2.998067 1_665
Cl14 Pr3 2.914341 1_555
Cl14 Pr4 2.914346 1_555
Cl14 Na0 3.098714 1_665
Cl14 Na1 3.250251 1_565
Cl14 Na2 3.250262 1_565
Cl15 Pr2 2.922126 1_556
Cl15 Pr4 2.959673 1_555
Cl15 Pr0 2.997988 1_555
Cl16 Pr2 2.922139 1_555
Cl16 Pr3 2.959670 1_555
Cl16 Pr1 2.997987 1_555
Cl17 Pr4 2.914356 1_555
Cl17 Pr3 2.914359 1_555
Cl17 Na0 3.100203 1_555
Cl17 Na1 3.250598 1_555
Cl17 Na2 3.250615 1_555
