# generated using pymatgen
data_AsXe2F9
_symmetry_space_group_name_H-M   'P 1'
_cell_length_a   8.88966500
_cell_length_b   13.97083170
_cell_length_c   13.98213110
_cell_angle_alpha   68.29634558
_cell_angle_beta   71.51903895
_cell_angle_gamma   71.45672258
_symmetry_Int_Tables_number   1
_chemical_formula_structural   AsXe2F9
_chemical_formula_sum   'As6 Xe12 F54'
_cell_volume   1489.95827685
_cell_formula_units_Z   6
loop_
 _symmetry_equiv_pos_site_id
 _symmetry_equiv_pos_as_xyz
  1  'x, y, z'
loop_
 _atom_site_type_symbol
 _atom_site_label
 _atom_site_symmetry_multiplicity
 _atom_site_fract_x
 _atom_site_fract_y
 _atom_site_fract_z
 _atom_site_occupancy
  As  As0  1  0.34900100  0.49041800  0.33873300  1
  As  As1  1  0.17603200  0.01130600  0.16089800  1
  As  As2  1  0.65173900  0.50889100  0.66235000  1
  As  As3  1  0.82304500  0.99014000  0.83868000  1
  As  As4  1  0.00216700  0.49917000  0.99847600  1
  As  As5  1  0.49969000  0.00060900  0.50028700  1
  Xe  Xe0  1  0.74097900  0.91869100  0.19440700  1
  Xe  Xe1  1  0.49677500  0.72820600  0.05104200  1
  Xe  Xe2  1  0.27588300  0.77234300  0.44915200  1
  Xe  Xe3  1  0.50632000  0.26932200  0.94848400  1
  Xe  Xe4  1  0.82405000  0.76811800  0.67413000  1
  Xe  Xe5  1  0.17503600  0.23213000  0.32708800  1
  Xe  Xe6  1  0.26343700  0.73281900  0.82739400  1
  Xe  Xe7  1  0.73422200  0.26640900  0.17361700  1
  Xe  Xe8  1  0.25916400  0.08217300  0.80305700  1
  Xe  Xe9  1  0.72477400  0.22940100  0.55140000  1
  Xe  Xe10  1  0.85255900  0.58348200  0.30456900  1
  Xe  Xe11  1  0.14747700  0.41860000  0.69377500  1
  F  F0  1  0.32918600  0.99911600  0.04586300  1
  F  F1  1  0.16645600  0.87730700  0.19259200  1
  F  F2  1  0.81524100  0.85638500  0.86937600  1
  F  F3  1  0.21499100  0.48024900  0.94241600  1
  F  F4  1  0.54096600  0.64270300  0.63077000  1
  F  F5  1  0.67048900  0.03206300  0.76520000  1
  F  F6  1  0.65619100  0.90022800  0.45561100  1
  F  F7  1  0.76298900  0.37453300  0.69439500  1
  F  F8  1  0.99334800  0.39910400  0.95177000  1
  F  F9  1  0.02197000  0.02246200  0.27652500  1
  F  F10  1  0.78945100  0.51795500  0.05469200  1
  F  F11  1  0.46739100  0.46741600  0.73558700  1
  F  F12  1  0.85693500  0.42835900  0.35368100  1
  F  F13  1  0.83577200  0.55099500  0.58882700  1
  F  F14  1  0.64168600  0.74357700  0.80249100  1
  F  F15  1  0.16396800  0.44893300  0.41158100  1
  F  F16  1  0.37006600  0.25017200  0.86933300  1
  F  F17  1  0.67913500  0.51983700  0.77806200  1
  F  F18  1  0.36403400  0.98049200  0.44335600  1
  F  F19  1  0.98997300  0.19850900  0.47856000  1
  F  F20  1  0.35566500  0.25593000  0.19747800  1
  F  F21  1  0.56103000  0.09711200  0.37996100  1
  F  F22  1  0.18421600  0.14516000  0.13000400  1
  F  F23  1  0.83143700  0.12447200  0.80749300  1
  F  F24  1  0.14002700  0.57393300  0.64629300  1
  F  F25  1  0.33685500  0.69684400  0.97745800  1
  F  F26  1  0.66874300  0.29889400  0.02173900  1
  F  F27  1  0.45832400  0.35596200  0.36909100  1
  F  F28  1  0.18410100  0.75771600  0.69895300  1
  F  F29  1  0.49059500  0.24805200  0.63018700  1
  F  F30  1  0.23967900  0.62493800  0.30799800  1
  F  F31  1  0.34246000  0.10104400  0.54527200  1
  F  F32  1  0.97697900  0.97971000  0.72310400  1
  F  F33  1  0.97549000  0.94797000  0.91253400  1
  F  F34  1  0.13167500  0.25032600  0.74577100  1
  F  F35  1  0.32845900  0.96950100  0.23449400  1
  F  F36  1  0.43778100  0.90399400  0.62126600  1
  F  F37  1  0.63382000  0.74679400  0.13008000  1
  F  F38  1  0.80755300  0.24342100  0.30384200  1
  F  F39  1  0.02342100  0.05388900  0.08702000  1
  F  F40  1  0.03966000  0.40168900  0.11886500  1
  F  F41  1  0.66969900  0.00185100  0.95400700  1
  F  F42  1  0.01091700  0.59910600  0.04494400  1
  F  F43  1  0.35747500  0.92655700  0.85409800  1
  F  F44  1  0.62638800  0.49612500  0.54725100  1
  F  F45  1  0.63487500  0.02078900  0.55770900  1
  F  F46  1  0.96496500  0.59627700  0.87798400  1
  F  F47  1  0.37528800  0.50060100  0.45471700  1
  F  F48  1  0.50904400  0.75439100  0.36839500  1
  F  F49  1  0.32061800  0.48121600  0.22240200  1
  F  F50  1  0.53412400  0.53081200  0.26611400  1
  F  F51  1  0.01134800  0.80285100  0.52389400  1
  F  F52  1  0.63981600  0.07390400  0.14386700  1
  F  F53  1  0.87142100  0.75118300  0.25086500  1
loop_
_geom_bond_atom_site_label_1
_geom_bond_atom_site_label_2
_geom_bond_distance
_geom_bond_site_symmetry_2
As0 F47 1.771103 1_555
As0 F49 1.778019 1_555
As0 F27 1.778745 1_555
As0 F50 1.779116 1_555
As0 F30 1.779572 1_555
As0 F15 1.785101 1_555
As1 F0 1.771018 1_545
As1 F22 1.777114 1_555
As1 F9 1.777806 1_555
As1 F1 1.781056 1_545
As1 F35 1.781075 1_545
As1 F39 1.783836 1_555
As2 F44 1.772096 1_555
As2 F4 1.775894 1_555
As2 F17 1.776734 1_555
As2 F11 1.780787 1_555
As2 F13 1.782663 1_555
As2 F7 1.783378 1_555
As3 F41 1.773402 1_565
As3 F32 1.775003 1_555
As3 F2 1.775200 1_555
As3 F5 1.780697 1_565
As3 F33 1.783081 1_555
As3 F23 1.783530 1_565
As4 F42 1.774704 1_556
As4 F10 1.776822 1_456
As4 F3 1.777266 1_555
As4 F8 1.778890 1_455
As4 F46 1.779222 1_455
As4 F40 1.780663 1_556
As5 F6 1.774399 1_545
As5 F21 1.775928 1_555
As5 F18 1.776666 1_545
As5 F45 1.778461 1_555
As5 F31 1.779349 1_555
As5 F36 1.783180 1_545
F12 Xe10 2.008091 1_555
F14 Xe4 2.005157 1_555
F16 Xe3 2.009588 1_555
F19 Xe9 2.221981 1_555
F19 Xe5 2.226978 1_655
F20 Xe5 2.005534 1_555
F24 Xe11 2.006361 1_555
F25 Xe1 2.220019 1_556
F25 Xe6 2.227253 1_555
F26 Xe3 2.221398 1_554
F26 Xe7 2.226478 1_555
F28 Xe6 2.007117 1_555
F29 Xe9 2.007137 1_555
F34 Xe8 2.221549 1_555
F34 Xe11 2.226282 1_555
F37 Xe1 2.009973 1_555
F38 Xe7 2.007572 1_555
F43 Xe8 2.009753 1_565
F48 Xe2 2.007263 1_555
F51 Xe2 2.222122 1_555
F51 Xe4 2.227768 1_455
F52 Xe0 2.009853 1_545
F53 Xe0 2.220905 1_555
F53 Xe10 2.224882 1_555
