# generated using pymatgen
data_BaY2ZnO5
_symmetry_space_group_name_H-M   'P 1'
_cell_length_a   5.77159900
_cell_length_b   7.17136200
_cell_length_c   12.46346400
_cell_angle_alpha   90.00000000
_cell_angle_beta   90.00000000
_cell_angle_gamma   90.00000000
_symmetry_Int_Tables_number   1
_chemical_formula_structural   BaY2ZnO5
_chemical_formula_sum   'Ba4 Y8 Zn4 O20'
_cell_volume   515.86558856
_cell_formula_units_Z   4
loop_
 _symmetry_equiv_pos_site_id
 _symmetry_equiv_pos_as_xyz
  1  'x, y, z'
loop_
 _atom_site_type_symbol
 _atom_site_label
 _atom_site_symmetry_multiplicity
 _atom_site_fract_x
 _atom_site_fract_y
 _atom_site_fract_z
 _atom_site_occupancy
  Ba  Ba0  1  0.25000000  0.57712900  0.39850900  1
  Ba  Ba1  1  0.75000000  0.42287100  0.60149100  1
  Ba  Ba2  1  0.75000000  0.07712900  0.10149100  1
  Ba  Ba3  1  0.25000000  0.92287100  0.89850900  1
  Y  Y0  1  0.25000000  0.10083500  0.57445000  1
  Y  Y1  1  0.75000000  0.89916500  0.42555000  1
  Y  Y2  1  0.75000000  0.60083500  0.92555000  1
  Y  Y3  1  0.25000000  0.39916500  0.07445000  1
  Y  Y4  1  0.25000000  0.38178200  0.79193400  1
  Y  Y5  1  0.75000000  0.61821800  0.20806600  1
  Y  Y6  1  0.75000000  0.88178200  0.70806600  1
  Y  Y7  1  0.25000000  0.11821800  0.29193400  1
  Zn  Zn0  1  0.25000000  0.80835700  0.14973200  1
  Zn  Zn1  1  0.75000000  0.19164300  0.85026800  1
  Zn  Zn2  1  0.75000000  0.30835700  0.35026800  1
  Zn  Zn3  1  0.25000000  0.69164300  0.64973200  1
  O  O0  1  0.25000000  0.42568000  0.60013800  1
  O  O1  1  0.75000000  0.57432000  0.39986200  1
  O  O2  1  0.75000000  0.92568000  0.89986200  1
  O  O3  1  0.25000000  0.07432000  0.10013800  1
  O  O4  1  0.00072800  0.85742700  0.27520600  1
  O  O5  1  0.50072800  0.14257300  0.72479400  1
  O  O6  1  0.99927200  0.35742700  0.22479400  1
  O  O7  1  0.49927200  0.64257300  0.77520600  1
  O  O8  1  0.99927200  0.14257300  0.72479400  1
  O  O9  1  0.49927200  0.85742700  0.27520600  1
  O  O10  1  0.00072800  0.64257300  0.77520600  1
  O  O11  1  0.50072800  0.35742700  0.22479400  1
  O  O12  1  0.49789300  0.66336700  0.06612500  1
  O  O13  1  0.99789300  0.33663300  0.93387500  1
  O  O14  1  0.50210700  0.16336700  0.43387500  1
  O  O15  1  0.00210700  0.83663300  0.56612500  1
  O  O16  1  0.99789300  0.16336700  0.43387500  1
  O  O17  1  0.49789300  0.83663300  0.56612500  1
  O  O18  1  0.00210700  0.66336700  0.06612500  1
  O  O19  1  0.50210700  0.33663300  0.93387500  1
loop_
_geom_bond_atom_site_label_1
_geom_bond_atom_site_label_2
_geom_bond_distance
_geom_bond_site_symmetry_2
Ba0 O0 2.737654 1_555
Ba0 O1 2.885919 1_455
Ba0 O1 2.885919 1_555
Ba0 O9 2.910692 1_555
Ba0 O4 2.910692 1_555
Ba0 O11 3.043701 1_555
Ba0 O6 3.043701 1_455
Ba0 O15 3.142382 1_555
Ba0 O17 3.142382 1_555
Ba0 O14 3.334065 1_555
Ba0 O16 3.334065 1_455
Ba1 O1 2.737654 1_555
Ba1 O0 2.885919 1_555
Ba1 O0 2.885919 1_655
Ba1 O8 2.910692 1_555
Ba1 O5 2.910692 1_555
Ba1 O10 3.043701 1_655
Ba1 O7 3.043701 1_555
Ba1 O16 3.142382 1_555
Ba1 O14 3.142382 1_555
Ba1 O15 3.334065 1_655
Ba1 O17 3.334065 1_555
Ba2 O2 2.737654 1_544
Ba2 O3 2.885919 1_655
Ba2 O3 2.885919 1_555
Ba2 O6 2.910692 1_555
Ba2 O11 2.910692 1_555
Ba2 O4 3.043701 1_645
Ba2 O9 3.043701 1_545
Ba2 O13 3.142382 1_554
Ba2 O19 3.142382 1_554
Ba2 O18 3.334065 1_645
Ba2 O12 3.334065 1_545
Ba3 O3 2.737654 1_566
Ba3 O2 2.885919 1_555
Ba3 O2 2.885919 1_455
Ba3 O7 2.910692 1_555
Ba3 O10 2.910692 1_555
Ba3 O5 3.043701 1_565
Ba3 O8 3.043701 1_465
Ba3 O12 3.142382 1_556
Ba3 O18 3.142382 1_556
Ba3 O19 3.334065 1_565
Ba3 O13 3.334065 1_465
O0 Zn3 2.004974 1_555
O0 Y0 2.351479 1_555
O0 Y4 2.411083 1_555
O1 Zn2 2.004974 1_555
O1 Y1 2.351479 1_555
O1 Y5 2.411083 1_555
O2 Zn1 2.004974 1_565
O2 Y2 2.351479 1_555
O2 Y6 2.411083 1_555
O3 Zn0 2.004974 1_545
O3 Y3 2.351479 1_555
O3 Y7 2.411083 1_555
O4 Zn0 2.153899 1_555
O4 Y7 2.368769 1_565
O4 Y1 2.386388 1_455
O4 Y5 2.395228 1_455
O5 Zn1 2.153899 1_555
O5 Y6 2.368769 1_545
O5 Y0 2.386388 1_555
O5 Y4 2.395228 1_555
O6 Zn2 2.153899 1_555
O6 Y5 2.368769 1_555
O6 Y3 2.386388 1_655
O6 Y7 2.395228 1_655
O7 Zn3 2.153899 1_555
O7 Y4 2.368769 1_555
O7 Y2 2.386388 1_555
O7 Y6 2.395228 1_555
O8 Zn1 2.153899 1_555
O8 Y6 2.368769 1_545
O8 Y0 2.386388 1_655
O8 Y4 2.395228 1_655
O9 Zn0 2.153899 1_555
O9 Y7 2.368769 1_565
O9 Y1 2.386388 1_555
O9 Y5 2.395228 1_555
O10 Zn3 2.153899 1_555
O10 Y4 2.368769 1_555
O10 Y2 2.386388 1_455
O10 Y6 2.395228 1_455
O11 Zn2 2.153899 1_555
O11 Y5 2.368769 1_555
O11 Y3 2.386388 1_555
O11 Y7 2.395228 1_555
O12 Zn0 2.052798 1_555
O12 Y5 2.313367 1_555
O12 Y2 2.321203 1_554
O12 Y3 2.376473 1_555
O13 Zn1 2.052798 1_555
O13 Y4 2.313367 1_655
O13 Y3 2.321203 1_656
O13 Y2 2.376473 1_555
O14 Zn2 2.052798 1_555
O14 Y7 2.313367 1_555
O14 Y0 2.321203 1_555
O14 Y1 2.376473 1_545
O15 Zn3 2.052798 1_555
O15 Y6 2.313367 1_455
O15 Y1 2.321203 1_455
O15 Y0 2.376473 1_565
O16 Zn2 2.052798 1_555
O16 Y7 2.313367 1_655
O16 Y0 2.321203 1_655
O16 Y1 2.376473 1_545
O17 Zn3 2.052798 1_555
O17 Y6 2.313367 1_555
O17 Y1 2.321203 1_555
O17 Y0 2.376473 1_565
O18 Zn0 2.052798 1_555
O18 Y5 2.313367 1_455
O18 Y2 2.321203 1_454
O18 Y3 2.376473 1_555
O19 Zn1 2.052798 1_555
O19 Y4 2.313367 1_555
O19 Y3 2.321203 1_556
O19 Y2 2.376473 1_555
