# generated using pymatgen
data_K10Co4O9
_symmetry_space_group_name_H-M   'P 1'
_cell_length_a   6.67221697
_cell_length_b   8.97256347
_cell_length_c   9.14532637
_cell_angle_alpha   119.56768952
_cell_angle_beta   110.46560600
_cell_angle_gamma   90.19722438
_symmetry_Int_Tables_number   1
_chemical_formula_structural   K10Co4O9
_chemical_formula_sum   'K10 Co4 O9'
_cell_volume   435.61859686
_cell_formula_units_Z   1
loop_
 _symmetry_equiv_pos_site_id
 _symmetry_equiv_pos_as_xyz
  1  'x, y, z'
loop_
 _atom_site_type_symbol
 _atom_site_label
 _atom_site_symmetry_multiplicity
 _atom_site_fract_x
 _atom_site_fract_y
 _atom_site_fract_z
 _atom_site_occupancy
  K  K0  1  0.07815759  0.22035200  0.94013760  1
  K  K1  1  0.05220622  0.60088203  0.33444365  1
  K  K2  1  0.25681354  0.04732214  0.51066174  1
  K  K3  1  0.44338572  0.48265045  0.66675842  1
  K  K4  1  0.55923898  0.94018062  0.80357504  1
  K  K5  1  0.45087832  0.06834567  0.16165297  1
  K  K6  1  0.56195541  0.51617405  0.33248414  1
  K  K7  1  0.73790586  0.93596575  0.46924880  1
  K  K8  1  0.92583588  0.39715051  0.66738065  1
  K  K9  1  0.90522331  0.78171401  0.06548099  1
  Co  Co0  1  0.03109014  0.78112141  0.74005752  1
  Co  Co1  1  0.65107744  0.35349934  0.95322170  1
  Co  Co2  1  0.37185909  0.67494417  0.06886379  1
  Co  Co3  1  0.97758828  0.22149975  0.26676543  1
  O  O0  1  0.12735766  0.91615439  0.67653868  1
  O  O1  1  0.26761399  0.70655742  0.87457867  1
  O  O2  1  0.23541468  0.31426626  0.29579708  1
  O  O3  1  0.31282954  0.75036989  0.26630097  1
  O  O4  1  0.66306921  0.22628585  0.73332573  1
  O  O5  1  0.77054501  0.68189814  0.70262973  1
  O  O6  1  0.63643336  0.58617360  0.09396156  1
  O  O7  1  0.73590233  0.26851842  0.10914665  1
  O  O8  1  0.87331746  0.10367514  0.34328849  1
loop_
_geom_bond_atom_site_label_1
_geom_bond_atom_site_label_2
_geom_bond_distance
_geom_bond_site_symmetry_2
K0 O2 2.700550 1_556
K0 O0 2.726707 1_545
K0 O4 2.772705 1_455
K1 O3 2.603458 1_555
K1 O2 2.767575 1_555
K1 O6 2.827482 1_455
K1 O0 2.863657 1_555
K1 O7 2.905929 1_455
K2 O3 2.635823 1_545
K2 O4 2.637369 1_555
K2 O0 2.665289 1_545
K2 O8 2.679515 1_455
K3 O1 2.613509 1_555
K3 O5 2.638605 1_555
K3 O2 2.711590 1_555
K3 O4 2.931120 1_555
K4 O5 2.651770 1_555
K4 O0 2.665958 1_555
K4 O7 2.725002 1_566
K4 O4 3.067460 1_565
K5 O8 2.646585 1_555
K5 O2 2.650324 1_555
K5 O1 2.870956 1_544
K5 O7 2.922202 1_555
K6 O2 2.646376 1_555
K6 O5 2.707507 1_555
K6 O6 2.740033 1_555
K6 O7 2.766372 1_555
K6 O3 2.849677 1_555
K7 O8 2.614735 1_565
K7 O0 2.696041 1_655
K7 O3 2.738260 1_555
K7 O4 2.740629 1_565
K7 O6 3.133357 1_555
K8 O5 2.672837 1_555
K8 O8 2.721476 1_555
K8 O4 2.724208 1_555
K8 O1 2.870730 1_655
K9 O6 2.668046 1_555
K9 O5 2.756360 1_554
K9 O3 2.805476 1_655
K9 O8 2.825697 1_565
Co0 O0 1.779925 1_555
Co0 O5 1.790070 1_455
Co0 O1 1.978258 1_555
Co1 O4 1.789201 1_555
Co1 O7 1.856562 1_556
Co1 O6 1.860669 1_556
Co2 O3 1.779491 1_555
Co2 O1 1.831884 1_554
Co2 O6 1.926170 1_555
Co3 O8 1.776795 1_555
Co3 O2 1.781936 1_655
Co3 O7 1.958468 1_555
