# generated using pymatgen
data_NbTe2(SeI3)2
_symmetry_space_group_name_H-M   'P 1'
_cell_length_a   11.54993700
_cell_length_b   12.30994538
_cell_length_c   15.90818891
_cell_angle_alpha   98.11624576
_cell_angle_beta   95.68527462
_cell_angle_gamma   117.71363625
_symmetry_Int_Tables_number   1
_chemical_formula_structural   NbTe2(SeI3)2
_chemical_formula_sum   'Nb4 Te8 Se8 I24'
_cell_volume   1946.96080429
_cell_formula_units_Z   4
loop_
 _symmetry_equiv_pos_site_id
 _symmetry_equiv_pos_as_xyz
  1  'x, y, z'
loop_
 _atom_site_type_symbol
 _atom_site_label
 _atom_site_symmetry_multiplicity
 _atom_site_fract_x
 _atom_site_fract_y
 _atom_site_fract_z
 _atom_site_occupancy
  Nb  Nb0  1  0.66419000  0.41588700  0.25022300  1
  Nb  Nb1  1  0.52942400  0.49155700  0.75049800  1
  Nb  Nb2  1  0.33581000  0.58411300  0.74977700  1
  Nb  Nb3  1  0.47057600  0.50844300  0.24950200  1
  Te  Te0  1  0.45517100  0.22548500  0.73927900  1
  Te  Te1  1  0.59380600  0.15240400  0.24797000  1
  Te  Te2  1  0.95095500  0.57572900  0.25394100  1
  Te  Te3  1  0.81798000  0.65159100  0.76219600  1
  Te  Te4  1  0.40619400  0.84759600  0.75203000  1
  Te  Te5  1  0.54482900  0.77451500  0.26072100  1
  Te  Te6  1  0.18202000  0.34840900  0.23780400  1
  Te  Te7  1  0.04904500  0.42427100  0.74605900  1
  Se  Se0  1  0.62530300  0.53466000  0.13359800  1
  Se  Se1  1  0.50839000  0.38875700  0.36550400  1
  Se  Se2  1  0.37469700  0.46534000  0.86640200  1
  Se  Se3  1  0.49161000  0.61124300  0.63449600  1
  Se  Se4  1  0.45327400  0.32991600  0.12671600  1
  Se  Se5  1  0.68055300  0.59324100  0.37318900  1
  Se  Se6  1  0.31944700  0.40675900  0.62681100  1
  Se  Se7  1  0.54672600  0.67008400  0.87328400  1
  I  I0  1  0.70635000  0.86781300  0.14014300  1
  I  I1  1  0.94345800  0.21853200  0.60518600  1
  I  I2  1  0.13991700  0.19926900  0.36051700  1
  I  I3  1  0.84168600  0.38076800  0.37967300  1
  I  I4  1  0.98316000  0.70413300  0.11828100  1
  I  I5  1  0.22307800  0.68791600  0.87863400  1
  I  I6  1  0.15831400  0.61923200  0.62032700  1
  I  I7  1  0.77692200  0.31208400  0.12136600  1
  I  I8  1  0.25803200  0.07697500  0.58989200  1
  I  I9  1  0.54256800  0.92402900  0.61681000  1
  I  I10  1  0.38152700  0.99683600  0.11100500  1
  I  I11  1  0.29365000  0.13218700  0.85985700  1
  I  I12  1  0.05654200  0.78146800  0.39481400  1
  I  I13  1  0.74196800  0.92302500  0.41010800  1
  I  I14  1  0.69754700  0.44422500  0.87866000  1
  I  I15  1  0.30245300  0.55577500  0.12134000  1
  I  I16  1  0.92627900  0.84718800  0.91272600  1
  I  I17  1  0.86008300  0.80073100  0.63948300  1
  I  I18  1  0.45743200  0.07597100  0.38319000  1
  I  I19  1  0.07372100  0.15281200  0.08727400  1
  I  I20  1  0.65039900  0.39577700  0.62289900  1
  I  I21  1  0.34960100  0.60422300  0.37710100  1
  I  I22  1  0.01684000  0.29586700  0.88171900  1
  I  I23  1  0.61847300  0.00316400  0.88899500  1
loop_
_geom_bond_atom_site_label_1
_geom_bond_atom_site_label_2
_geom_bond_distance
_geom_bond_site_symmetry_2
Nb0 Se5 2.639285 1_555
Nb0 Se1 2.642103 1_555
Nb0 Se4 2.642239 1_555
Nb0 Se0 2.644461 1_555
Nb0 Te1 2.948079 1_555
Nb0 Te2 2.951612 1_555
Nb1 Se6 2.638725 1_555
Nb1 Se3 2.640720 1_555
Nb1 Se2 2.642338 1_555
Nb1 Se7 2.643314 1_555
Nb1 Te0 2.947393 1_555
Nb1 Te3 2.947880 1_555
Nb2 Se6 2.639285 1_555
Nb2 Se3 2.642103 1_555
Nb2 Se7 2.642239 1_555
Nb2 Se2 2.644461 1_555
Nb2 Te4 2.948079 1_555
Nb2 Te7 2.951612 1_555
Nb3 Se5 2.638725 1_555
Nb3 Se1 2.640720 1_555
Nb3 Se0 2.642338 1_555
Nb3 Se4 2.643314 1_555
Nb3 Te5 2.947393 1_555
Nb3 Te6 2.947880 1_555
Se0 Se4 2.352317 1_555
Se1 Se5 2.348325 1_555
Se2 Se7 2.352317 1_555
Se3 Se6 2.348325 1_555
I0 Te5 2.795884 1_555
I1 Te7 2.811918 1_655
I2 Te6 2.790621 1_555
I3 Nb0 2.978206 1_555
I3 Te1 3.186172 1_555
I3 Te2 3.223609 1_555
I4 Te2 2.805283 1_555
I5 Nb2 2.977720 1_555
I5 Te7 3.190783 1_555
I5 Te4 3.238572 1_555
I6 Nb2 2.978206 1_555
I6 Te4 3.186172 1_555
I6 Te7 3.223609 1_555
I7 Nb0 2.977720 1_555
I7 Te2 3.190783 1_555
I7 Te1 3.238572 1_555
I8 Te0 2.829091 1_555
I9 Te4 2.803190 1_555
I10 Te1 2.796861 1_565
I11 Te0 2.795884 1_555
I12 Te2 2.811918 1_455
I13 Te5 2.829091 1_555
I14 Nb1 2.978302 1_555
I14 Te0 3.174424 1_555
I14 Te3 3.229090 1_555
I15 Nb3 2.978302 1_555
I15 Te5 3.174424 1_555
I15 Te6 3.229090 1_555
I16 Te3 2.841419 1_555
I17 Te3 2.790621 1_555
I18 Te1 2.803190 1_555
I19 Te6 2.841419 1_555
I20 Nb1 2.980146 1_555
I20 Te3 3.175544 1_555
I20 Te0 3.230021 1_555
I21 Nb3 2.980146 1_555
I21 Te6 3.175544 1_555
I21 Te5 3.230021 1_555
I22 Te7 2.805283 1_555
I23 Te4 2.796861 1_545
