# generated using pymatgen
data_V3(H3O5)2
_symmetry_space_group_name_H-M   'P 1'
_cell_length_a   8.95753300
_cell_length_b   5.94510500
_cell_length_c   9.07775406
_cell_angle_alpha   88.32257950
_cell_angle_beta   90.00000000
_cell_angle_gamma   90.00000000
_symmetry_Int_Tables_number   1
_chemical_formula_structural   V3(H3O5)2
_chemical_formula_sum   'V6 H12 O20'
_cell_volume   483.21478265
_cell_formula_units_Z   2
loop_
 _symmetry_equiv_pos_site_id
 _symmetry_equiv_pos_as_xyz
  1  'x, y, z'
loop_
 _atom_site_type_symbol
 _atom_site_label
 _atom_site_symmetry_multiplicity
 _atom_site_fract_x
 _atom_site_fract_y
 _atom_site_fract_z
 _atom_site_occupancy
  V  V0  1  0.74880500  0.25292300  0.49916300  1
  V  V1  1  0.25119500  0.25292300  0.99916300  1
  V  V2  1  0.61079300  0.26744400  0.13618700  1
  V  V3  1  0.88640400  0.27427800  0.86347600  1
  V  V4  1  0.38920700  0.26744400  0.63618700  1
  V  V5  1  0.11359600  0.27427800  0.36347600  1
  H  H0  1  0.68887100  0.65011200  0.17638800  1
  H  H1  1  0.81765300  0.66489700  0.89049000  1
  H  H2  1  0.31112900  0.65011200  0.67638800  1
  H  H3  1  0.18234700  0.66489700  0.39049000  1
  H  H4  1  0.53765300  0.81719800  0.90812800  1
  H  H5  1  0.60840300  0.85397400  0.75342100  1
  H  H6  1  0.88671300  0.92381000  0.14033100  1
  H  H7  1  0.95500400  0.71704600  0.22656800  1
  H  H8  1  0.39159700  0.85397400  0.25342100  1
  H  H9  1  0.46234700  0.81719800  0.40812800  1
  H  H10  1  0.11328700  0.92381000  0.64033100  1
  H  H11  1  0.04499600  0.71704600  0.72656800  1
  O  O0  1  0.74215200  0.52509200  0.49300800  1
  O  O1  1  0.25784800  0.52509200  0.99300800  1
  O  O2  1  0.66244100  0.16399100  0.30501500  1
  O  O3  1  0.83599400  0.17140100  0.69606100  1
  O  O4  1  0.33755900  0.16399100  0.80501500  1
  O  O5  1  0.16400600  0.17140100  0.19606100  1
  O  O6  1  0.55539600  0.14760400  0.58626700  1
  O  O7  1  0.94328100  0.16665900  0.41167000  1
  O  O8  1  0.05671900  0.16665900  0.91167000  1
  O  O9  1  0.44460400  0.14760400  0.08626700  1
  O  O10  1  0.60018400  0.56308200  0.14004200  1
  O  O11  1  0.90213900  0.57312200  0.85394200  1
  O  O12  1  0.39981600  0.56308200  0.64004200  1
  O  O13  1  0.09786100  0.57312200  0.35394200  1
  O  O14  1  0.75572400  0.19717700  0.00526100  1
  O  O15  1  0.24427600  0.19717700  0.50526100  1
  O  O16  1  0.61951700  0.76810700  0.84594900  1
  O  O17  1  0.87186800  0.76286700  0.16208000  1
  O  O18  1  0.38048300  0.76810700  0.34594900  1
  O  O19  1  0.12813200  0.76286700  0.66208000  1
loop_
_geom_bond_atom_site_label_1
_geom_bond_atom_site_label_2
_geom_bond_distance
_geom_bond_site_symmetry_2
H0 O10 1.008790 1_555
H1 O11 0.995535 1_555
H2 O12 1.008790 1_555
H3 O13 0.995535 1_555
H4 O16 0.975268 1_555
H5 O16 0.975149 1_555
H6 O17 0.980363 1_555
H7 O17 0.980887 1_555
H8 O18 0.975149 1_555
H9 O18 0.975268 1_555
H10 O19 0.980363 1_555
H11 O19 0.980887 1_555
O0 V0 1.618500 1_555
O1 V1 1.618500 1_555
O2 V2 1.698800 1_555
O2 V0 2.009654 1_555
O3 V3 1.715236 1_555
O3 V0 1.997224 1_555
O4 V4 1.698800 1_555
O4 V1 2.009654 1_555
O5 V5 1.715236 1_555
O5 V1 1.997224 1_554
O6 V4 1.716950 1_555
O6 V0 1.997429 1_555
O7 V5 1.706408 1_655
O7 V0 1.988047 1_555
O8 V3 1.706408 1_455
O8 V1 1.988047 1_555
O9 V2 1.716950 1_555
O9 V1 1.997429 1_554
O10 V2 1.761536 1_555
O11 V3 1.781817 1_555
O12 V4 1.761536 1_555
O13 V5 1.781817 1_555
O14 V3 1.789525 1_554
O14 V2 1.817011 1_555
O15 V5 1.789525 1_555
O15 V4 1.817011 1_555
