# generated using pymatgen
data_LaCu6
_symmetry_space_group_name_H-M   'P 1'
_cell_length_a   5.15500700
_cell_length_b   8.12047300
_cell_length_c   10.22604400
_cell_angle_alpha   90.00000000
_cell_angle_beta   90.00000000
_cell_angle_gamma   90.00000000
_symmetry_Int_Tables_number   1
_chemical_formula_structural   LaCu6
_chemical_formula_sum   'La4 Cu24'
_cell_volume   428.07340098
_cell_formula_units_Z   4
loop_
 _symmetry_equiv_pos_site_id
 _symmetry_equiv_pos_as_xyz
  1  'x, y, z'
loop_
 _atom_site_type_symbol
 _atom_site_label
 _atom_site_symmetry_multiplicity
 _atom_site_fract_x
 _atom_site_fract_y
 _atom_site_fract_z
 _atom_site_occupancy
  La  La0  1  0.75000000  0.23787300  0.06485800  1
  La  La1  1  0.75000000  0.73787300  0.43514200  1
  La  La2  1  0.25000000  0.76212700  0.93514200  1
  La  La3  1  0.25000000  0.26212700  0.56485800  1
  Cu  Cu0  1  0.75000000  0.35292900  0.35881800  1
  Cu  Cu1  1  0.00518600  0.93550800  0.69031000  1
  Cu  Cu2  1  0.75000000  0.59930800  0.98415600  1
  Cu  Cu3  1  0.25000000  0.81783900  0.24664900  1
  Cu  Cu4  1  0.25000000  0.40069200  0.01584400  1
  Cu  Cu5  1  0.75000000  0.93941500  0.90160900  1
  Cu  Cu6  1  0.99481400  0.06449200  0.30969000  1
  Cu  Cu7  1  0.25000000  0.56058500  0.40160900  1
  Cu  Cu8  1  0.75000000  0.09930800  0.51584400  1
  Cu  Cu9  1  0.25000000  0.64707100  0.64118200  1
  Cu  Cu10  1  0.00518600  0.43550800  0.80969000  1
  Cu  Cu11  1  0.99481400  0.56449200  0.19031000  1
  Cu  Cu12  1  0.75000000  0.43941500  0.59839100  1
  Cu  Cu13  1  0.25000000  0.06058500  0.09839100  1
  Cu  Cu14  1  0.50518600  0.06449200  0.30969000  1
  Cu  Cu15  1  0.75000000  0.85292900  0.14118200  1
  Cu  Cu16  1  0.49481400  0.43550800  0.80969000  1
  Cu  Cu17  1  0.75000000  0.68216100  0.74664900  1
  Cu  Cu18  1  0.25000000  0.31783900  0.25335100  1
  Cu  Cu19  1  0.25000000  0.14707100  0.85881800  1
  Cu  Cu20  1  0.75000000  0.18216100  0.75335100  1
  Cu  Cu21  1  0.50518600  0.56449200  0.19031000  1
  Cu  Cu22  1  0.49481400  0.93550800  0.69031000  1
  Cu  Cu23  1  0.25000000  0.90069200  0.48415600  1
loop_
_geom_bond_atom_site_label_1
_geom_bond_atom_site_label_2
_geom_bond_distance
_geom_bond_site_symmetry_2
Cu0 Cu12 2.548562 1_555
Cu0 Cu8 2.611529 1_555
Cu0 Cu14 2.707617 1_555
Cu0 Cu6 2.707617 1_555
Cu0 Cu21 2.741076 1_555
Cu0 Cu11 2.741076 1_555
Cu0 Cu18 2.808541 1_655
Cu0 Cu18 2.808541 1_555
Cu0 Cu7 3.111028 1_655
Cu0 Cu7 3.111028 1_555
Cu0 La0 3.147897 1_555
Cu0 La1 3.221892 1_555
Cu0 La3 3.409774 1_555
Cu0 La3 3.409774 1_655
Cu1 Cu23 2.473232 1_555
Cu1 Cu20 2.481502 1_465
Cu1 Cu17 2.508963 1_455
Cu1 Cu22 2.524036 1_555
Cu1 Cu5 2.529894 1_455
Cu1 Cu8 2.585103 1_465
Cu1 Cu22 2.630971 1_455
Cu1 Cu9 2.707617 1_555
Cu1 Cu19 2.741076 1_565
Cu1 La2 3.137403 1_555
Cu1 La3 3.205178 1_565
Cu1 La1 3.333906 1_455
Cu2 Cu21 2.473232 1_556
Cu2 Cu5 2.887950 1_555
Cu2 La2 2.939876 1_555
Cu2 La2 2.939876 1_655
Cu2 La0 3.048839 1_556
Cu2 Cu4 3.057750 1_556
Cu2 Cu4 3.057750 1_656
Cu3 Cu6 2.481502 1_465
Cu3 Cu7 2.622035 1_555
Cu3 La2 3.217450 1_554
Cu3 La1 3.283382 1_555
Cu3 La1 3.283382 1_455
Cu4 La0 2.939876 1_455
Cu4 La0 2.939876 1_555
Cu4 La2 3.048839 1_554
Cu5 La0 2.942924 1_566
Cu5 La2 2.972161 1_655
Cu5 La2 2.972161 1_555
Cu6 Cu8 2.473232 1_555
Cu6 La0 3.137403 1_555
Cu6 La1 3.205178 1_545
Cu6 La3 3.333906 1_655
Cu7 Cu9 2.548562 1_555
Cu7 La3 2.942924 1_555
Cu7 La1 2.972161 1_455
Cu7 La1 2.972161 1_555
Cu8 La3 2.939876 1_555
Cu8 La3 2.939876 1_655
Cu8 La1 3.048839 1_545
Cu9 La2 3.147897 1_555
Cu9 La3 3.221892 1_555
Cu9 La1 3.409774 1_455
Cu9 La1 3.409774 1_555
Cu10 Cu4 2.473232 1_556
Cu10 Cu17 2.481502 1_455
Cu10 Cu20 2.508963 1_455
Cu10 Cu16 2.524036 1_555
Cu10 Cu12 2.529894 1_455
Cu10 Cu2 2.585103 1_455
Cu10 Cu16 2.630971 1_455
Cu10 Cu19 2.707617 1_555
Cu10 Cu9 2.741076 1_555
Cu10 La3 3.137403 1_555
Cu10 La2 3.205178 1_555
Cu10 La0 3.333906 1_456
Cu11 Cu2 2.473232 1_554
Cu11 Cu18 2.481502 1_655
Cu11 Cu3 2.508963 1_655
Cu11 Cu21 2.524036 1_555
Cu11 Cu7 2.529894 1_655
Cu11 Cu4 2.585103 1_655
Cu11 Cu21 2.630971 1_655
Cu11 Cu15 2.707617 1_555
Cu11 La1 3.137403 1_555
Cu11 La0 3.205178 1_555
Cu11 La2 3.333906 1_654
Cu12 Cu17 2.486808 1_555
Cu12 Cu16 2.529894 1_555
Cu12 Cu20 2.622035 1_555
Cu12 Cu8 2.887950 1_555
Cu12 La1 2.942924 1_555
Cu12 La3 2.972161 1_555
Cu12 La3 2.972161 1_655
Cu12 Cu9 3.111028 1_555
Cu12 Cu9 3.111028 1_655
Cu13 Cu3 2.486808 1_545
Cu13 Cu6 2.529894 1_455
Cu13 Cu14 2.529894 1_555
Cu13 Cu19 2.548562 1_554
Cu13 Cu18 2.622035 1_555
Cu13 Cu4 2.887950 1_555
Cu13 La2 2.942924 1_544
Cu13 La0 2.972161 1_555
Cu13 La0 2.972161 1_455
Cu13 Cu15 3.111028 1_545
Cu13 Cu15 3.111028 1_445
Cu14 Cu8 2.473232 1_555
Cu14 Cu3 2.481502 1_545
Cu14 Cu18 2.508963 1_555
Cu14 Cu6 2.524036 1_555
Cu14 Cu23 2.585103 1_545
Cu14 Cu6 2.630971 1_455
Cu14 Cu15 2.741076 1_545
Cu14 La0 3.137403 1_555
Cu14 La1 3.205178 1_545
Cu14 La3 3.333906 1_555
Cu15 Cu5 2.548562 1_554
Cu15 Cu2 2.611529 1_554
Cu15 Cu21 2.707617 1_555
Cu15 Cu6 2.741076 1_565
Cu15 Cu3 2.808541 1_555
Cu15 Cu3 2.808541 1_655
Cu15 La1 3.147897 1_555
Cu15 La0 3.221892 1_565
Cu15 La2 3.409774 1_654
Cu15 La2 3.409774 1_554
Cu16 Cu4 2.473232 1_556
Cu16 Cu17 2.481502 1_555
Cu16 Cu20 2.508963 1_555
Cu16 Cu2 2.585103 1_555
Cu16 Cu19 2.707617 1_555
Cu16 Cu9 2.741076 1_555
Cu16 La3 3.137403 1_555
Cu16 La2 3.205178 1_555
Cu16 La0 3.333906 1_556
Cu17 Cu22 2.508963 1_555
Cu17 Cu2 2.520224 1_555
Cu17 Cu5 2.622035 1_555
Cu17 Cu9 2.808541 1_655
Cu17 Cu9 2.808541 1_555
Cu17 La1 3.217450 1_555
Cu17 La2 3.283382 1_655
Cu17 La2 3.283382 1_555
Cu18 Cu21 2.481502 1_555
Cu18 Cu7 2.486808 1_555
Cu18 Cu6 2.508963 1_455
Cu18 Cu4 2.520224 1_555
Cu18 La3 3.217450 1_555
Cu18 La0 3.283382 1_455
Cu18 La0 3.283382 1_555
Cu19 Cu4 2.611529 1_556
Cu19 Cu22 2.741076 1_545
Cu19 Cu20 2.808541 1_455
Cu19 Cu20 2.808541 1_555
Cu19 Cu5 3.111028 1_545
Cu19 Cu5 3.111028 1_445
Cu19 La3 3.147897 1_555
Cu19 La2 3.221892 1_545
Cu19 La0 3.409774 1_456
Cu19 La0 3.409774 1_556
Cu20 Cu22 2.481502 1_545
Cu20 Cu5 2.486808 1_545
Cu20 Cu8 2.520224 1_555
Cu20 La0 3.217450 1_556
Cu20 La3 3.283382 1_555
Cu20 La3 3.283382 1_655
Cu21 Cu3 2.508963 1_555
Cu21 Cu7 2.529894 1_555
Cu21 Cu4 2.585103 1_555
Cu21 La1 3.137403 1_555
Cu21 La0 3.205178 1_555
Cu21 La2 3.333906 1_554
Cu22 Cu23 2.473232 1_555
Cu22 Cu5 2.529894 1_555
Cu22 Cu8 2.585103 1_565
Cu22 Cu9 2.707617 1_555
Cu22 La2 3.137403 1_555
Cu22 La3 3.205178 1_565
Cu22 La1 3.333906 1_555
Cu23 Cu3 2.520224 1_555
Cu23 Cu6 2.585103 1_465
Cu23 Cu9 2.611529 1_555
Cu23 Cu7 2.887950 1_555
Cu23 La1 2.939876 1_455
Cu23 La1 2.939876 1_555
Cu23 La3 3.048839 1_565
Cu23 Cu8 3.057750 1_565
Cu23 Cu8 3.057750 1_465
