# generated using pymatgen
data_Sr(H8O5)2
_symmetry_space_group_name_H-M   'P 1'
_cell_length_a   6.44184753
_cell_length_b   6.44184753
_cell_length_c   11.47879074
_cell_angle_alpha   89.71842262
_cell_angle_beta   89.71842262
_cell_angle_gamma   93.40440593
_symmetry_Int_Tables_number   1
_chemical_formula_structural   Sr(H8O5)2
_chemical_formula_sum   'Sr2 H32 O20'
_cell_volume   475.48714219
_cell_formula_units_Z   2
loop_
 _symmetry_equiv_pos_site_id
 _symmetry_equiv_pos_as_xyz
  1  'x, y, z'
loop_
 _atom_site_type_symbol
 _atom_site_label
 _atom_site_symmetry_multiplicity
 _atom_site_fract_x
 _atom_site_fract_y
 _atom_site_fract_z
 _atom_site_occupancy
  Sr  Sr0  1  0.00154900  0.99997000  0.24133500  1
  Sr  Sr1  1  0.99997000  0.00154900  0.74133500  1
  H  H0  1  0.72878700  0.38752700  0.35289900  1
  H  H1  1  0.85822100  0.30832200  0.46001900  1
  H  H2  1  0.28223500  0.61153900  0.35414700  1
  H  H3  1  0.04367500  0.56308800  0.36950300  1
  H  H4  1  0.36948200  0.02170800  0.39214000  1
  H  H5  1  0.38897500  0.27248700  0.35738200  1
  H  H6  1  0.61006800  0.96070000  0.34258100  1
  H  H7  1  0.60847600  0.70935700  0.35170900  1
  H  H8  1  0.27248700  0.38897500  0.85738200  1
  H  H9  1  0.02170800  0.36948200  0.89214000  1
  H  H10  1  0.96070000  0.61006800  0.84258100  1
  H  H11  1  0.70935700  0.60847600  0.85170900  1
  H  H12  1  0.56308800  0.04367500  0.86950300  1
  H  H13  1  0.61153900  0.28223500  0.85414700  1
  H  H14  1  0.38752700  0.72878700  0.85289900  1
  H  H15  1  0.30832200  0.85822100  0.96001900  1
  H  H16  1  0.14362600  0.68849700  0.54882200  1
  H  H17  1  0.27506600  0.60428800  0.65499200  1
  H  H18  1  0.71736400  0.37059600  0.64097300  1
  H  H19  1  0.95334900  0.44751000  0.62475300  1
  H  H20  1  0.61776400  0.71729800  0.64675900  1
  H  H21  1  0.68909400  0.86002100  0.53867000  1
  H  H22  1  0.37901800  0.28080700  0.65026500  1
  H  H23  1  0.29465300  0.15690500  0.53953600  1
  H  H24  1  0.71729800  0.61776400  0.14675900  1
  H  H25  1  0.86002100  0.68909400  0.03867000  1
  H  H26  1  0.28080700  0.37901800  0.15026500  1
  H  H27  1  0.15690500  0.29465300  0.03953600  1
  H  H28  1  0.44751000  0.95334900  0.12475300  1
  H  H29  1  0.37059600  0.71736400  0.14097300  1
  H  H30  1  0.68849700  0.14362600  0.04882200  1
  H  H31  1  0.60428800  0.27506600  0.15499200  1
  O  O0  1  0.50191600  0.48958100  0.32012200  1
  O  O1  1  0.48958100  0.50191600  0.82012200  1
  O  O2  1  0.48779300  0.50199600  0.68954500  1
  O  O3  1  0.50199600  0.48779300  0.18954500  1
  O  O4  1  0.86379200  0.32357500  0.37352000  1
  O  O5  1  0.15049700  0.67975400  0.37770400  1
  O  O6  1  0.29174700  0.14554900  0.38185500  1
  O  O7  1  0.68385800  0.84819600  0.37763100  1
  O  O8  1  0.14554900  0.29174700  0.88185500  1
  O  O9  1  0.84819600  0.68385800  0.87763100  1
  O  O10  1  0.67975400  0.15049700  0.87770400  1
  O  O11  1  0.32357500  0.86379200  0.87352000  1
  O  O12  1  0.13379900  0.66041100  0.63367000  1
  O  O13  1  0.85601200  0.32062100  0.61831100  1
  O  O14  1  0.70706100  0.84511700  0.62355600  1
  O  O15  1  0.30247800  0.14628500  0.62518200  1
  O  O16  1  0.84511700  0.70706100  0.12355600  1
  O  O17  1  0.14628500  0.30247800  0.12518200  1
  O  O18  1  0.32062100  0.85601200  0.11831100  1
  O  O19  1  0.66041100  0.13379900  0.13367000  1
loop_
_geom_bond_atom_site_label_1
_geom_bond_atom_site_label_2
_geom_bond_distance
_geom_bond_site_symmetry_2
H0 O4 1.012773 1_555
H0 O0 1.681287 1_555
H1 O4 0.997533 1_555
H2 O5 1.014694 1_555
H2 O0 1.703539 1_555
H3 O5 0.993537 1_555
H4 O6 0.973769 1_555
H5 O6 1.036845 1_555
H5 O0 1.593186 1_555
H6 O7 0.976212 1_555
H7 O7 1.037648 1_555
H7 O0 1.580862 1_555
H8 O8 1.036845 1_555
H8 O1 1.593186 1_555
H9 O8 0.973769 1_555
H10 O9 0.976212 1_555
H11 O9 1.037648 1_555
H11 O1 1.580862 1_555
H12 O10 0.993537 1_555
H13 O10 1.014694 1_555
H13 O1 1.703539 1_555
H14 O11 1.012773 1_555
H14 O1 1.681287 1_555
H15 O11 0.997533 1_555
H16 O12 0.990771 1_555
H17 O12 1.029146 1_555
H17 O2 1.606057 1_555
H18 O13 1.000856 1_555
H19 O13 1.003471 1_555
H20 O14 1.009898 1_555
H20 O2 1.648382 1_555
H21 O14 0.986689 1_555
H22 O15 1.014915 1_555
H22 O2 1.617214 1_555
H23 O15 0.986898 1_555
H24 O16 1.009898 1_555
H24 O3 1.648382 1_555
H25 O16 0.986689 1_555
H26 O17 1.014915 1_555
H26 O3 1.617214 1_555
H27 O17 0.986898 1_555
H28 O18 1.003471 1_555
H29 O18 1.000856 1_555
H30 O19 0.990771 1_555
H31 O19 1.029146 1_555
H31 O3 1.606057 1_555
O0 O3 1.498965 1_555
O1 O2 1.498965 1_555
O4 Sr0 2.770008 1_645
O5 Sr0 2.800737 1_555
O6 Sr0 2.610024 1_545
O7 Sr0 2.703275 1_655
O8 Sr1 2.610024 1_455
O9 Sr1 2.703275 1_565
O10 Sr1 2.800737 1_555
O11 Sr1 2.770008 1_465
O12 Sr1 2.709443 1_465
O13 Sr1 2.699935 1_555
O14 Sr1 2.493234 1_565
O15 Sr1 2.488155 1_455
O16 Sr0 2.493234 1_655
O17 Sr0 2.488155 1_545
O18 Sr0 2.699935 1_555
O19 Sr0 2.709443 1_645
