# generated using pymatgen
data_K4Zr6CBr18
_symmetry_space_group_name_H-M   'P 1'
_cell_length_a   10.24659448
_cell_length_b   10.41837033
_cell_length_c   10.51199309
_cell_angle_alpha   118.51662427
_cell_angle_beta   100.16129462
_cell_angle_gamma   103.98655482
_symmetry_Int_Tables_number   1
_chemical_formula_structural   K4Zr6CBr18
_chemical_formula_sum   'K4 Zr6 C1 Br18'
_cell_volume   899.02527517
_cell_formula_units_Z   1
loop_
 _symmetry_equiv_pos_site_id
 _symmetry_equiv_pos_as_xyz
  1  'x, y, z'
loop_
 _atom_site_type_symbol
 _atom_site_label
 _atom_site_symmetry_multiplicity
 _atom_site_fract_x
 _atom_site_fract_y
 _atom_site_fract_z
 _atom_site_occupancy
  K  K0  1  0.18634274  0.72569105  0.56521160  1
  K  K1  1  0.84816849  0.96231386  0.77309591  1
  K  K2  1  0.15183151  0.03768614  0.22690409  1
  K  K3  1  0.81365726  0.27430895  0.43478840  1
  Zr  Zr0  1  0.35068165  0.44410996  0.77204459  1
  Zr  Zr1  1  0.36348674  0.62568817  0.13217826  1
  Zr  Zr2  1  0.64438346  0.73643664  0.04455721  1
  Zr  Zr3  1  0.64931835  0.55589004  0.22795541  1
  Zr  Zr4  1  0.35561654  0.26356336  0.95544279  1
  Zr  Zr5  1  0.63651326  0.37431183  0.86782174  1
  C  C0  1  0.50000000  0.50000000  -0.00000000  1
  Br  Br0  1  0.82527892  0.42130808  0.11106126  1
  Br  Br1  1  0.51600206  0.70816190  0.41493099  1
  Br  Br2  1  0.17531722  0.97322243  0.89982156  1
  Br  Br3  1  0.17472108  0.57869192  0.88893874  1
  Br  Br4  1  0.83508087  0.83821019  0.31542163  1
  Br  Br5  1  0.50468730  0.29301100  0.21186247  1
  Br  Br6  1  0.79887875  0.22067598  0.70768472  1
  Br  Br7  1  0.16491913  0.16178981  0.68457837  1
  Br  Br8  1  0.50932584  0.91602224  0.20072035  1
  Br  Br9  1  0.82171223  0.62899784  0.90141844  1
  Br  Br10  1  0.20112125  0.77932402  0.29231528  1
  Br  Br11  1  0.16397752  0.37839615  0.49357535  1
  Br  Br12  1  0.49531270  0.70698900  0.78813753  1
  Br  Br13  1  0.82468278  0.02677757  0.10017844  1
  Br  Br14  1  0.48399794  0.29183810  0.58506901  1
  Br  Br15  1  0.17828777  0.37100216  0.09858156  1
  Br  Br16  1  0.83602248  0.62160385  0.50642465  1
  Br  Br17  1  0.49067416  0.08397776  0.79927965  1
loop_
_geom_bond_atom_site_label_1
_geom_bond_atom_site_label_2
_geom_bond_distance
_geom_bond_site_symmetry_2
C0 Zr0 2.316359 1_554
C0 Zr3 2.316359 1_555
C0 Zr4 2.316926 1_554
C0 Zr2 2.316926 1_555
C0 Zr5 2.331489 1_554
C0 Zr1 2.331489 1_555
Br0 Zr3 2.661827 1_555
Br0 Zr5 2.668445 1_554
Br1 Zr3 2.695107 1_555
Br1 Zr1 2.699718 1_555
Br2 Zr4 2.851956 1_565
Br2 K2 3.239754 1_566
Br2 K0 3.264262 1_555
Br2 K1 3.334689 1_455
Br3 Zr0 2.661827 1_555
Br3 Zr1 2.668445 1_556
Br4 Zr2 2.683722 1_555
Br4 Zr3 2.685844 1_555
Br5 Zr4 2.687757 1_554
Br5 Zr3 2.689409 1_555
Br5 K3 3.697132 1_555
Br6 Zr5 2.804690 1_555
Br6 K3 3.194902 1_555
Br6 K1 3.205467 1_545
Br7 Zr4 2.683722 1_555
Br7 Zr0 2.685844 1_555
Br8 Zr2 2.689062 1_555
Br8 Zr1 2.693668 1_555
Br8 K3 3.550810 1_565
Br9 Zr2 2.675474 1_556
Br9 Zr5 2.683506 1_555
Br10 Zr1 2.804690 1_555
Br10 K0 3.194902 1_555
Br10 K2 3.205467 1_565
Br11 Zr0 2.859172 1_555
Br11 K2 3.261283 1_555
Br11 K0 3.263125 1_555
Br11 K3 3.337485 1_455
Br12 Zr2 2.687757 1_556
Br12 Zr0 2.689409 1_555
Br12 K0 3.697132 1_555
Br13 Zr2 2.851956 1_545
Br13 K1 3.239754 1_544
Br13 K3 3.264262 1_555
Br13 K2 3.334689 1_655
Br14 Zr0 2.695107 1_555
Br14 Zr5 2.699718 1_555
Br15 Zr4 2.675474 1_554
Br15 Zr1 2.683506 1_555
Br16 Zr3 2.859172 1_555
Br16 K1 3.261283 1_555
Br16 K3 3.263125 1_555
Br16 K0 3.337485 1_655
Br17 Zr4 2.689062 1_555
Br17 Zr5 2.693668 1_555
Br17 K0 3.550810 1_545
