# generated using pymatgen
data_Sr2IrO4
_symmetry_space_group_name_H-M   'P 1'
_cell_length_a   7.81537200
_cell_length_b   7.86830057
_cell_length_c   15.47705750
_cell_angle_alpha   81.85123504
_cell_angle_beta   84.69344124
_cell_angle_gamma   89.02313627
_symmetry_Int_Tables_number   1
_chemical_formula_structural   Sr2IrO4
_chemical_formula_sum   'Sr16 Ir8 O32'
_cell_volume   938.08673359
_cell_formula_units_Z   8
loop_
 _symmetry_equiv_pos_site_id
 _symmetry_equiv_pos_as_xyz
  1  'x, y, z'
loop_
 _atom_site_type_symbol
 _atom_site_label
 _atom_site_symmetry_multiplicity
 _atom_site_fract_x
 _atom_site_fract_y
 _atom_site_fract_z
 _atom_site_occupancy
  Sr  Sr0  1  0.96444600  0.19950200  0.95958800  1
  Sr  Sr1  1  0.09073500  0.94225100  0.78484800  1
  Sr  Sr2  1  0.71554100  0.68475900  0.87148800  1
  Sr  Sr3  1  0.96273100  0.18877100  0.43639600  1
  Sr  Sr4  1  0.56632600  0.22182400  0.59101500  1
  Sr  Sr5  1  0.03213400  0.49367100  0.23041700  1
  Sr  Sr6  1  0.73721400  0.59714300  0.44861300  1
  Sr  Sr7  1  0.50180500  0.28377500  0.03157300  1
  Sr  Sr8  1  0.48469900  0.78697300  0.07846300  1
  Sr  Sr9  1  0.29639100  0.45493300  0.78386300  1
  Sr  Sr10  1  0.88844900  0.44486300  0.68214000  1
  Sr  Sr11  1  0.48426800  0.03929500  0.40089600  1
  Sr  Sr12  1  0.25096400  0.52460100  0.49985000  1
  Sr  Sr13  1  0.47603600  0.43600100  0.29694100  1
  Sr  Sr14  1  0.18509800  0.05593300  0.19338500  1
  Sr  Sr15  1  0.15324800  0.62716500  0.99858000  1
  Ir  Ir0  1  0.54891100  0.78305400  0.67846000  1
  Ir  Ir1  1  0.75998900  0.10122100  0.17423500  1
  Ir  Ir2  1  0.87961400  0.83729100  0.10787500  1
  Ir  Ir3  1  0.62013300  0.12449700  0.83033800  1
  Ir  Ir4  1  0.66437800  0.80084800  0.24204100  1
  Ir  Ir5  1  0.36565300  0.02538500  0.91690000  1
  Ir  Ir6  1  0.92541400  0.85525100  0.55731500  1
  Ir  Ir7  1  0.19949400  0.89440500  0.59680700  1
  O  O0  1  0.52094700  0.99879300  0.18616900  1
  O  O1  1  0.19040100  0.03927400  0.34506100  1
  O  O2  1  0.94859900  0.24786600  0.12818800  1
  O  O3  1  0.56071500  0.95346100  0.75314600  1
  O  O4  1  0.70926800  0.21489100  0.27652800  1
  O  O5  1  0.85344500  0.36197900  0.54528400  1
  O  O6  1  0.24838700  0.38798400  0.11505500  1
  O  O7  1  0.13250100  0.93970800  0.94700400  1
  O  O8  1  0.26959400  0.09563900  0.52979400  1
  O  O9  1  0.58041000  0.31043700  0.74253800  1
  O  O10  1  0.75915000  0.58726200  0.28463900  1
  O  O11  1  0.80011700  0.78040800  0.67135100  1
  O  O12  1  0.28104100  0.26209000  0.93111200  1
  O  O13  1  0.39999500  0.49576500  0.12879100  1
  O  O14  1  0.20576700  0.36971800  0.65227700  1
  O  O15  1  0.68909400  0.30452200  0.89816600  1
  O  O16  1  0.12587700  0.24228000  0.72494200  1
  O  O17  1  0.99812800  0.61669400  0.79914900  1
  O  O18  1  0.07193000  0.60295500  0.37464400  1
  O  O19  1  0.54201100  0.62685600  0.60045600  1
  O  O20  1  0.15756200  0.43411700  0.36770400  1
  O  O21  1  0.71390300  0.98477400  0.52079900  1
  O  O22  1  0.10780500  0.78439500  0.14064900  1
  O  O23  1  0.50968000  0.37149500  0.44954500  1
  O  O24  1  0.50701100  0.76087000  0.34723400  1
  O  O25  1  0.01100800  0.52305700  0.88962800  1
  O  O26  1  0.96497000  0.84093600  0.44234000  1
  O  O27  1  0.29130000  0.76806200  0.69620100  1
  O  O28  1  0.77918800  0.73864100  0.02383700  1
  O  O29  1  0.28595300  0.19486500  0.30250600  1
  O  O30  1  0.42179500  0.75830200  0.92962400  1
  O  O31  1  0.81637600  0.99849200  0.86360800  1
loop_
_geom_bond_atom_site_label_1
_geom_bond_atom_site_label_2
_geom_bond_distance
_geom_bond_site_symmetry_2
Ir0 O19 1.845485 1_555
Ir0 O3 1.898882 1_555
Ir0 O11 1.956083 1_555
Ir0 O27 2.009839 1_555
Ir1 O2 1.908579 1_555
Ir1 O4 1.933085 1_555
Ir1 O0 2.029566 1_545
Ir2 O28 1.845545 1_555
Ir2 O22 1.921769 1_655
Ir3 O31 1.884114 1_545
Ir3 O9 1.892712 1_555
Ir3 O15 1.987758 1_555
Ir3 O3 2.008421 1_545
Ir4 O10 1.881843 1_555
Ir4 O24 1.939029 1_555
Ir4 O0 2.041585 1_555
Ir5 O7 1.946188 1_545
Ir5 O12 2.000421 1_555
Ir5 O30 2.124801 1_545
Ir6 O26 1.796849 1_555
Ir6 O11 1.956032 1_555
Ir6 O21 2.010631 1_555
Ir7 O8 1.828071 1_565
Ir7 O27 1.901528 1_555
O0 Sr8 2.554970 1_555
O0 Sr14 2.650260 1_565
O0 Sr7 3.051094 1_565
O1 O29 1.483857 1_555
O1 Sr14 2.336713 1_555
O1 Sr11 2.527583 1_555
O1 Sr3 2.546111 1_455
O2 Sr14 2.555970 1_655
O2 Sr0 2.681306 1_554
O2 Sr5 2.787799 1_655
O3 Sr2 2.917834 1_555
O3 Sr4 3.039404 1_565
O4 Sr13 2.527910 1_555
O4 Sr11 2.721948 1_555
O5 Sr10 2.343390 1_555
O5 Sr3 2.402533 1_555
O5 Sr6 2.428324 1_555
O5 Sr4 2.514297 1_555
O6 Sr7 2.456817 1_555
O6 Sr5 2.559425 1_555
O6 Sr15 2.565687 1_554
O6 Sr14 2.752396 1_555
O7 Sr0 2.432177 1_465
O7 Sr15 2.482924 1_555
O7 Sr1 2.557851 1_555
O8 Sr11 2.568569 1_555
O8 Sr4 2.830779 1_555
O8 Sr3 2.942643 1_455
O9 Sr9 2.546827 1_555
O9 Sr4 2.551819 1_555
O9 Sr10 2.679290 1_555
O10 Sr5 2.364042 1_655
O10 Sr13 2.509215 1_555
O10 Sr6 2.539891 1_555
O11 Sr10 2.703544 1_555
O11 Sr2 3.094414 1_555
O12 Sr7 2.450497 1_556
O12 Sr0 2.517393 1_455
O12 Sr9 2.546728 1_555
O13 O6 1.516667 1_555
O13 Sr8 2.396969 1_555
O13 Sr7 2.474689 1_555
O13 Sr13 2.697547 1_555
O14 O16 1.493947 1_555
O14 Sr9 2.401852 1_555
O14 Sr12 2.494172 1_555
O14 Sr10 2.555164 1_455
O14 Sr4 3.146504 1_555
O15 Sr7 2.405394 1_556
O15 Sr0 2.512490 1_555
O15 Sr2 2.969729 1_555
O16 Sr1 2.421276 1_545
O16 Sr9 2.478011 1_555
O16 Sr10 2.500001 1_455
O17 O25 1.498330 1_655
O17 Sr2 2.467827 1_555
O17 Sr10 2.619737 1_555
O17 Sr9 2.644215 1_655
O17 Sr1 2.647143 1_655
O18 O20 1.490334 1_555
O18 Sr12 2.495292 1_555
O18 Sr5 2.549619 1_555
O18 Sr6 2.755194 1_455
O19 Sr6 2.717607 1_555
O19 Sr12 3.052625 1_555
O19 Sr4 3.212492 1_555
O20 Sr5 2.404707 1_555
O20 Sr12 2.435030 1_555
O20 Sr3 2.528728 1_455
O20 Sr13 2.624350 1_555
O21 Sr4 2.501916 1_565
O21 Sr3 2.665849 1_565
O21 Sr11 2.685668 1_565
O22 Sr14 2.495087 1_565
O22 Sr5 2.550664 1_555
O22 Sr15 2.665168 1_554
O22 Sr8 3.012510 1_555
O23 Sr13 2.382356 1_555
O23 Sr4 2.409873 1_555
O23 Sr12 2.457116 1_555
O23 Sr6 2.531868 1_555
O23 Sr11 2.835818 1_555
O24 Sr11 2.448651 1_565
O24 Sr6 2.688578 1_555
O24 Sr13 2.796156 1_555
O25 Sr15 2.349387 1_555
O25 Sr2 2.635987 1_455
O25 Sr0 2.638811 1_455
O25 Sr9 2.733878 1_555
O26 Sr6 2.624712 1_555
O26 Sr3 2.725164 1_565
O27 Sr1 2.505971 1_555
O27 Sr9 2.640387 1_555
O28 Sr8 2.420306 1_555
O28 Sr2 2.548424 1_554
O28 Sr15 3.044162 1_654
O29 Sr14 2.338282 1_555
O29 Sr13 2.416674 1_555
O29 Sr11 2.462294 1_555
O30 Sr15 2.440481 1_555
O30 Sr8 2.441246 1_556
O30 Sr2 2.476905 1_555
O31 Sr1 2.432384 1_655
O31 Sr2 2.587053 1_555
O31 Sr0 2.663407 1_565
