# generated using pymatgen
data_Mg3MnH7
_symmetry_space_group_name_H-M   'P 1'
_cell_length_a   4.64250561
_cell_length_b   4.64250570
_cell_length_c   10.18875954
_cell_angle_alpha   89.99998990
_cell_angle_beta   89.99999480
_cell_angle_gamma   120.00334106
_symmetry_Int_Tables_number   1
_chemical_formula_structural   Mg3MnH7
_chemical_formula_sum   'Mg6 Mn2 H14'
_cell_volume   190.17008727
_cell_formula_units_Z   2
loop_
 _symmetry_equiv_pos_site_id
 _symmetry_equiv_pos_as_xyz
  1  'x, y, z'
loop_
 _atom_site_type_symbol
 _atom_site_label
 _atom_site_symmetry_multiplicity
 _atom_site_fract_x
 _atom_site_fract_y
 _atom_site_fract_z
 _atom_site_occupancy
  Mg  Mg0  1  -0.00000001  -0.00000035  0.24999971  1
  Mg  Mg1  1  0.00000026  0.00000035  0.75000031  1
  Mg  Mg2  1  0.33334035  0.66666017  0.43430489  1
  Mg  Mg3  1  0.66665953  0.33334042  0.56569438  1
  Mg  Mg4  1  0.66665872  0.33333975  0.93430701  1
  Mg  Mg5  1  0.33333994  0.66665880  0.06569382  1
  Mn  Mn0  1  -0.00000450  -0.00000418  0.50000212  1
  Mn  Mn1  1  -0.00000291  0.00000151  -0.00000236  1
  H  H0  1  0.16349947  0.83650026  0.90687125  1
  H  H1  1  0.16350216  0.32700327  0.90686867  1
  H  H2  1  0.67299658  0.83649754  0.90686871  1
  H  H3  1  0.83650127  0.16349824  0.09312875  1
  H  H4  1  0.83649631  0.67299288  0.09313259  1
  H  H5  1  0.32700678  0.16350347  0.09313258  1
  H  H6  1  0.83649992  0.16350082  0.40687024  1
  H  H7  1  0.83649651  0.67299378  0.40686792  1
  H  H8  1  0.32700987  0.16350554  0.40686707  1
  H  H9  1  0.16349987  0.83650075  0.59312901  1
  H  H10  1  0.16350457  0.32700846  0.59313196  1
  H  H11  1  0.67299525  0.83649748  0.59313135  1
  H  H12  1  0.33333376  0.66666627  0.25000173  1
  H  H13  1  0.66666630  0.33333376  0.74999828  1
loop_
_geom_bond_atom_site_label_1
_geom_bond_atom_site_label_2
_geom_bond_distance
_geom_bond_site_symmetry_2
H0 Mn1 1.621378 1_566
H0 Mg1 2.069577 1_565
H0 Mg5 2.117496 1_556
H0 Mg4 2.338043 1_565
H0 Mg4 2.338048 1_455
H1 Mn1 1.621334 1_556
H1 Mg1 2.069524 1_555
H1 Mg5 2.117403 1_556
H1 Mg4 2.338110 1_555
H1 Mg4 2.338221 1_455
H2 Mn1 1.621330 1_666
H2 Mg1 2.069526 1_665
H2 Mg5 2.117405 1_556
H2 Mg4 2.338113 1_555
H2 Mg4 2.338219 1_565
H3 Mn1 1.621370 1_655
H3 Mg0 2.069572 1_655
H3 Mg4 2.117495 1_554
H3 Mg5 2.338043 1_655
H3 Mg5 2.338046 1_545
H4 Mn1 1.621392 1_665
H4 Mg0 2.069524 1_665
H4 Mg4 2.117400 1_554
H4 Mg5 2.338115 1_555
H4 Mg5 2.338217 1_655
H5 Mn1 1.621395 1_555
H5 Mg0 2.069523 1_555
H5 Mg4 2.117397 1_554
H5 Mg5 2.338113 1_555
H5 Mg5 2.338219 1_545
H6 Mn0 1.621401 1_655
H6 Mg0 2.069578 1_655
H6 Mg3 2.117503 1_555
H6 Mg2 2.338044 1_655
H6 Mg2 2.338045 1_545
H7 Mn0 1.621366 1_665
H7 Mg0 2.069530 1_665
H7 Mg3 2.117407 1_555
H7 Mg2 2.338113 1_555
H7 Mg2 2.338214 1_655
H8 Mn0 1.621411 1_555
H8 Mg0 2.069534 1_555
H8 Mg3 2.117405 1_555
H8 Mg2 2.338115 1_555
H8 Mg2 2.338215 1_545
H9 Mn0 1.621368 1_565
H9 Mg1 2.069579 1_565
H9 Mg2 2.117506 1_555
H9 Mg3 2.338043 1_565
H9 Mg3 2.338046 1_455
H10 Mn0 1.621375 1_555
H10 Mg1 2.069536 1_555
H10 Mg2 2.117408 1_555
H10 Mg3 2.338112 1_555
H10 Mg3 2.338217 1_455
H11 Mn0 1.621330 1_665
H11 Mg1 2.069534 1_665
H11 Mg2 2.117412 1_555
H11 Mg3 2.338113 1_555
H11 Mg3 2.338215 1_565
H12 Mg2 1.877821 1_555
H12 Mg5 1.877869 1_555
H13 Mg3 1.877828 1_555
H13 Mg4 1.877877 1_555
