# generated using pymatgen
data_Sr2V3O9
_symmetry_space_group_name_H-M   'P 1'
_cell_length_a   6.96216206
_cell_length_b   7.29281080
_cell_length_c   8.96616095
_cell_angle_alpha   103.56038010
_cell_angle_beta   102.13670536
_cell_angle_gamma   115.95269453
_symmetry_Int_Tables_number   1
_chemical_formula_structural   Sr2V3O9
_chemical_formula_sum   'Sr4 V6 O18'
_cell_volume   371.56368636
_cell_formula_units_Z   2
loop_
 _symmetry_equiv_pos_site_id
 _symmetry_equiv_pos_as_xyz
  1  'x, y, z'
loop_
 _atom_site_type_symbol
 _atom_site_label
 _atom_site_symmetry_multiplicity
 _atom_site_fract_x
 _atom_site_fract_y
 _atom_site_fract_z
 _atom_site_occupancy
  Sr  Sr0  1  0.12021258  0.87511164  0.74932158  1
  Sr  Sr1  1  0.29793012  0.55073361  0.09707194  1
  Sr  Sr2  1  0.70098984  0.45327421  0.90287598  1
  Sr  Sr3  1  0.87573312  0.12125797  0.25080177  1
  V  V0  1  0.09025562  0.34096285  0.67985927  1
  V  V1  1  0.66861323  0.92097699  0.84184716  1
  V  V2  1  0.49525300  0.52684302  0.49032915  1
  V  V3  1  0.33031820  0.08052913  0.15813673  1
  V  V4  1  0.50459862  0.03625409  0.50960133  1
  V  V5  1  0.91079703  0.65860667  0.32018526  1
  O  O0  1  0.04302096  0.51883935  0.80511020  1
  O  O1  1  0.17005646  0.89407571  0.44816515  1
  O  O2  1  0.07476455  0.85568883  0.03809593  1
  O  O3  1  0.21866456  0.44154307  0.54780422  1
  O  O4  1  0.26500311  0.28880401  0.80363689  1
  O  O5  1  0.53805653  0.81891056  0.96524248  1
  O  O6  1  0.48839145  0.00043637  0.28045255  1
  O  O7  1  0.47049633  0.71521447  0.42635093  1
  O  O8  1  0.29228192  0.28264545  0.27731612  1
  O  O9  1  0.70316387  0.71716320  0.72072034  1
  O  O10  1  0.54319757  0.28794146  0.57380488  1
  O  O11  1  0.50838884  0.00056113  0.72120609  1
  O  O12  1  0.46336325  0.18235269  0.03608136  1
  O  O13  1  0.73573142  0.70786519  0.19354846  1
  O  O14  1  0.77781632  0.55824092  0.45012641  1
  O  O15  1  0.92486570  0.14472674  0.96055239  1
  O  O16  1  0.82817611  0.10831786  0.55386606  1
  O  O17  1  0.96112068  0.48118780  0.19788937  1
loop_
_geom_bond_atom_site_label_1
_geom_bond_atom_site_label_2
_geom_bond_distance
_geom_bond_site_symmetry_2
O0 V0 1.702240 1_555
O0 Sr2 2.597152 1_455
O0 Sr0 2.605792 1_555
O0 Sr1 2.730590 1_556
O1 V5 1.736584 1_455
O1 V4 1.970361 1_565
O1 Sr0 2.820966 1_555
O2 V3 1.681184 1_565
O2 Sr2 2.678605 1_454
O2 Sr0 2.702106 1_554
O3 V0 1.737128 1_555
O3 V2 1.969725 1_555
O3 Sr3 2.788586 1_455
O4 V0 1.700530 1_555
O4 Sr2 2.573187 1_555
O4 Sr0 2.607332 1_545
O4 Sr1 2.762221 1_556
O5 V1 1.679647 1_555
O5 Sr1 2.658995 1_556
O5 Sr3 2.688633 1_566
O6 V3 1.763695 1_555
O6 V4 1.981749 1_555
O6 Sr3 2.539882 1_555
O6 Sr1 2.822362 1_545
O7 V2 1.667691 1_555
O7 V4 2.171301 1_565
O7 Sr1 2.680517 1_555
O8 V3 1.762575 1_555
O8 V2 1.970696 1_555
O8 Sr3 2.538425 1_455
O8 Sr1 2.806585 1_555
O9 V1 1.764217 1_555
O9 V2 1.982076 1_555
O9 Sr0 2.538560 1_655
O9 Sr2 2.798252 1_555
O10 V4 1.667459 1_555
O10 V2 2.173145 1_555
O10 Sr2 2.678724 1_555
O11 V1 1.762089 1_545
O11 V4 1.970961 1_555
O11 Sr0 2.536701 1_545
O11 Sr2 2.834850 1_555
O12 V3 1.677010 1_555
O12 Sr2 2.672758 1_554
O12 Sr0 2.714610 1_544
O13 V5 1.701888 1_555
O13 Sr1 2.592554 1_555
O13 Sr3 2.606614 1_565
O13 Sr2 2.714930 1_554
O14 V5 1.735122 1_555
O14 V2 1.998765 1_555
O14 Sr0 2.793144 1_655
O15 V1 1.678529 1_545
O15 Sr1 2.691454 1_656
O15 Sr3 2.729626 1_556
O16 V0 1.734631 1_655
O16 V4 1.999696 1_555
O16 Sr3 2.823756 1_555
O17 V5 1.700662 1_555
O17 Sr1 2.576501 1_655
O17 Sr3 2.608707 1_555
O17 Sr2 2.780038 1_554
