# generated using pymatgen
data_MnHO2
_symmetry_space_group_name_H-M   'P 1'
_cell_length_a   2.89514027
_cell_length_b   4.55706889
_cell_length_c   10.62338690
_cell_angle_alpha   89.99794594
_cell_angle_beta   89.99999881
_cell_angle_gamma   89.99997642
_symmetry_Int_Tables_number   1
_chemical_formula_structural   MnHO2
_chemical_formula_sum   'Mn4 H4 O8'
_cell_volume   140.15810036
_cell_formula_units_Z   4
loop_
 _symmetry_equiv_pos_site_id
 _symmetry_equiv_pos_as_xyz
  1  'x, y, z'
loop_
 _atom_site_type_symbol
 _atom_site_label
 _atom_site_symmetry_multiplicity
 _atom_site_fract_x
 _atom_site_fract_y
 _atom_site_fract_z
 _atom_site_occupancy
  Mn  Mn0  1  0.24999966  0.94394667  0.13962378  1
  Mn  Mn1  1  0.74999993  0.05605304  0.86037653  1
  Mn  Mn2  1  0.25000062  0.55606115  0.63963618  1
  Mn  Mn3  1  0.75000033  0.44393815  0.36036401  1
  H  H0  1  0.25000043  0.89790085  0.39363051  1
  H  H1  1  0.24999949  0.60207170  0.89365807  1
  H  H2  1  0.75000154  0.10210008  0.60637065  1
  H  H3  1  0.74999738  0.39792848  0.10634166  1
  O  O0  1  0.25000033  0.19571261  0.31207505  1
  O  O1  1  0.24999991  0.30428536  0.81209079  1
  O  O2  1  0.75000057  0.80428668  0.68792628  1
  O  O3  1  0.74999976  0.69571386  0.18790860  1
  O  O4  1  0.25000035  0.69312074  0.42974241  1
  O  O5  1  0.24999977  0.80687350  0.92975756  1
  O  O6  1  0.75000082  0.30687887  0.57025785  1
  O  O7  1  0.74999910  0.19312825  0.07024308  1
loop_
_geom_bond_atom_site_label_1
_geom_bond_atom_site_label_2
_geom_bond_distance
_geom_bond_site_symmetry_2
Mn0 O3 1.907401 1_555
Mn0 O3 1.907401 1_455
Mn0 O7 1.981943 1_565
Mn0 O7 1.981944 1_465
Mn0 O0 2.161658 1_565
Mn0 O5 2.315365 1_554
Mn1 O1 1.907402 1_555
Mn1 O1 1.907403 1_655
Mn1 O5 1.981939 1_645
Mn1 O5 1.981940 1_545
Mn1 O2 2.161650 1_545
Mn1 O7 2.315371 1_556
Mn2 O2 1.907418 1_455
Mn2 O2 1.907419 1_555
Mn2 O6 1.981966 1_455
Mn2 O6 1.981966 1_555
Mn2 O1 2.161642 1_555
Mn2 O4 2.315587 1_555
Mn3 O0 1.907415 1_655
Mn3 O0 1.907415 1_555
Mn3 O4 1.981967 1_555
Mn3 O4 1.981968 1_655
Mn3 O3 2.161649 1_555
Mn3 O6 2.315587 1_555
H0 O4 1.008962 1_555
H0 O0 1.610096 1_565
H1 O5 1.009028 1_555
H1 O1 1.610118 1_555
H2 O6 1.008960 1_555
H2 O2 1.610103 1_545
H3 O7 1.009018 1_555
H3 O3 1.610113 1_555
