# generated using pymatgen
data_Ba7Al64O103
_symmetry_space_group_name_H-M   'P 1'
_cell_length_a   9.80636234
_cell_length_b   9.80636234
_cell_length_c   23.17700900
_cell_angle_alpha   90.00000000
_cell_angle_beta   90.00000000
_cell_angle_gamma   120.00000227
_symmetry_Int_Tables_number   1
_chemical_formula_structural   Ba7Al64O103
_chemical_formula_sum   'Ba7 Al64 O103'
_cell_volume   1930.20698641
_cell_formula_units_Z   1
loop_
 _symmetry_equiv_pos_site_id
 _symmetry_equiv_pos_as_xyz
  1  'x, y, z'
loop_
 _atom_site_type_symbol
 _atom_site_label
 _atom_site_symmetry_multiplicity
 _atom_site_fract_x
 _atom_site_fract_y
 _atom_site_fract_z
 _atom_site_occupancy
  Ba  Ba0  1  0.00000000  0.33077300  0.50000000  1
  Ba  Ba1  1  0.33333300  0.66666700  0.00000000  1
  Ba  Ba2  1  0.00000000  0.00000000  0.77683500  1
  Ba  Ba3  1  0.66922700  0.66922700  0.50000000  1
  Ba  Ba4  1  0.33077300  0.00000000  0.50000000  1
  Ba  Ba5  1  0.66666700  0.33333300  0.00000000  1
  Ba  Ba6  1  0.00000000  0.00000000  0.22316500  1
  Al  Al0  1  0.66666700  0.33333300  0.57517800  1
  Al  Al1  1  0.49070200  0.32068800  0.84786400  1
  Al  Al2  1  0.00000000  0.00000000  0.57585000  1
  Al  Al3  1  0.83867400  0.66991200  0.64296800  1
  Al  Al4  1  0.00000000  0.81088600  0.06960300  1
  Al  Al5  1  0.00000000  0.00000000  0.42415000  1
  Al  Al6  1  0.66666700  0.33333300  0.72266800  1
  Al  Al7  1  0.16132600  0.83123800  0.35703200  1
  Al  Al8  1  0.16876200  0.33008800  0.35703200  1
  Al  Al9  1  0.50929800  0.82998600  0.84786400  1
  Al  Al10  1  0.00000000  0.66778300  0.25414300  1
  Al  Al11  1  0.32068800  0.49070200  0.84786400  1
  Al  Al12  1  0.34200300  0.00000000  0.76858900  1
  Al  Al13  1  0.67931200  0.17001400  0.15213600  1
  Al  Al14  1  0.49647100  0.00000000  0.64200800  1
  Al  Al15  1  0.50929800  0.82998600  0.15213600  1
  Al  Al16  1  0.17001400  0.67931200  0.84786400  1
  Al  Al17  1  0.66778300  0.00000000  0.74585700  1
  Al  Al18  1  0.49647100  0.00000000  0.35799200  1
  Al  Al19  1  0.66666700  0.33333300  0.42482200  1
  Al  Al20  1  0.65799700  0.65799700  0.23141100  1
  Al  Al21  1  0.33221700  0.33221700  0.74585700  1
  Al  Al22  1  0.83123800  0.16132600  0.64296800  1
  Al  Al23  1  0.66666700  0.33333300  0.27733200  1
  Al  Al24  1  0.00000000  0.34200300  0.76858900  1
  Al  Al25  1  0.66991200  0.83867400  0.64296800  1
  Al  Al26  1  0.82998600  0.50929800  0.84786400  1
  Al  Al27  1  0.50352900  0.50352900  0.35799200  1
  Al  Al28  1  0.18911400  0.18911400  0.06960300  1
  Al  Al29  1  0.00000000  0.49647100  0.35799200  1
  Al  Al30  1  0.33008800  0.16876200  0.64296800  1
  Al  Al31  1  0.33333300  0.66666700  0.27733200  1
  Al  Al32  1  0.33008800  0.16876200  0.35703200  1
  Al  Al33  1  0.00000000  0.81088600  0.93039700  1
  Al  Al34  1  0.83123800  0.16132600  0.35703200  1
  Al  Al35  1  0.17001400  0.67931200  0.15213600  1
  Al  Al36  1  0.65799700  0.65799700  0.76858900  1
  Al  Al37  1  0.66991200  0.83867400  0.35703200  1
  Al  Al38  1  0.34200300  0.00000000  0.23141100  1
  Al  Al39  1  0.67931200  0.17001400  0.84786400  1
  Al  Al40  1  0.49070200  0.32068800  0.15213600  1
  Al  Al41  1  0.16132600  0.83123800  0.64296800  1
  Al  Al42  1  0.33333300  0.66666700  0.42482200  1
  Al  Al43  1  0.35967300  0.00000000  0.92602800  1
  Al  Al44  1  0.64032700  0.64032700  0.92602800  1
  Al  Al45  1  0.00000000  0.35967300  0.07397200  1
  Al  Al46  1  0.00000000  0.66778300  0.74585700  1
  Al  Al47  1  0.81088600  0.00000000  0.93039700  1
  Al  Al48  1  0.33333300  0.66666700  0.72266800  1
  Al  Al49  1  0.16876200  0.33008800  0.64296800  1
  Al  Al50  1  0.66778300  0.00000000  0.25414300  1
  Al  Al51  1  0.35967300  0.00000000  0.07397200  1
  Al  Al52  1  0.83867400  0.66991200  0.35703200  1
  Al  Al53  1  0.50352900  0.50352900  0.64200800  1
  Al  Al54  1  0.33221700  0.33221700  0.25414300  1
  Al  Al55  1  0.00000000  0.34200300  0.23141100  1
  Al  Al56  1  0.64032700  0.64032700  0.07397200  1
  Al  Al57  1  0.00000000  0.35967300  0.92602800  1
  Al  Al58  1  0.32068800  0.49070200  0.15213600  1
  Al  Al59  1  0.82998600  0.50929800  0.15213600  1
  Al  Al60  1  0.18911400  0.18911400  0.93039700  1
  Al  Al61  1  0.00000000  0.49647100  0.64200800  1
  Al  Al62  1  0.81088600  0.00000000  0.06960300  1
  Al  Al63  1  0.33333300  0.66666700  0.57517800  1
  O  O0  1  0.50730700  0.67083800  0.39932200  1
  O  O1  1  0.00000000  0.33232600  0.68966700  1
  O  O2  1  0.82906000  0.33728200  0.89179400  1
  O  O3  1  0.00000000  0.51553400  0.20303900  1
  O  O4  1  0.66598400  0.00000000  0.11345600  1
  O  O5  1  0.34323100  0.49929700  0.69605900  1
  O  O6  1  0.00000000  0.66598400  0.88654400  1
  O  O7  1  0.65676900  0.15606600  0.30394100  1
  O  O8  1  0.40011100  0.00000000  0.00000000  1
  O  O9  1  0.59988900  0.59988900  0.00000000  1
  O  O10  1  0.16976500  0.82504900  0.20838900  1
  O  O11  1  0.17094000  0.50822100  0.89179400  1
  O  O12  1  0.32916200  0.83647000  0.39932200  1
  O  O13  1  0.49269300  0.16353000  0.60067800  1
  O  O14  1  0.65528400  0.83023500  0.79161100  1
  O  O15  1  0.67083800  0.50730700  0.60067800  1
  O  O16  1  0.66598400  0.00000000  0.88654400  1
  O  O17  1  0.48446600  0.48446600  0.20303900  1
  O  O18  1  0.82860900  0.82860900  0.60048900  1
  O  O19  1  0.33232600  0.00000000  0.68966700  1
  O  O20  1  0.34471600  0.17495100  0.20838900  1
  O  O21  1  0.66767400  0.66767400  0.31033300  1
  O  O22  1  0.83023500  0.65528400  0.79161100  1
  O  O23  1  0.16976500  0.82504900  0.79161100  1
  O  O24  1  0.33333300  0.66666700  0.80199000  1
  O  O25  1  0.34471600  0.17495100  0.79161100  1
  O  O26  1  0.00000000  0.75577000  0.00000000  1
  O  O27  1  0.80716400  0.00000000  0.30639000  1
  O  O28  1  0.84393400  0.50070300  0.30394100  1
  O  O29  1  0.00000000  0.40011100  0.00000000  1
  O  O30  1  0.80716400  0.00000000  0.69361000  1
  O  O31  1  0.33728200  0.82906000  0.10820600  1
  O  O32  1  0.34323100  0.49929700  0.30394100  1
  O  O33  1  0.00000000  0.66598400  0.11345600  1
  O  O34  1  0.15606600  0.65676900  0.30394100  1
  O  O35  1  0.66271800  0.49177900  0.10820600  1
  O  O36  1  0.48446600  0.48446600  0.79696100  1
  O  O37  1  0.49929700  0.34323100  0.69605900  1
  O  O38  1  0.83023500  0.65528400  0.20838900  1
  O  O39  1  0.33919500  0.33919500  0.60382900  1
  O  O40  1  0.33401600  0.33401600  0.11345600  1
  O  O41  1  0.00000000  0.33232600  0.31033300  1
  O  O42  1  0.33728200  0.82906000  0.89179400  1
  O  O43  1  0.49177900  0.66271800  0.10820600  1
  O  O44  1  0.66666700  0.33333300  0.19801000  1
  O  O45  1  0.17265700  0.00000000  0.91552600  1
  O  O46  1  0.66666700  0.33333300  0.50000000  1
  O  O47  1  0.00000000  0.17265700  0.08447400  1
  O  O48  1  0.00000000  0.17265700  0.91552600  1
  O  O49  1  0.00000000  0.17139100  0.60048900  1
  O  O50  1  0.83647000  0.32916200  0.60067800  1
  O  O51  1  0.17139100  0.00000000  0.60048900  1
  O  O52  1  0.00000000  0.51553400  0.79696100  1
  O  O53  1  0.33333300  0.66666700  0.50000000  1
  O  O54  1  0.82504900  0.16976500  0.79161100  1
  O  O55  1  0.17094000  0.50822100  0.10820600  1
  O  O56  1  0.19283600  0.19283600  0.69361000  1
  O  O57  1  0.82734300  0.82734300  0.91552600  1
  O  O58  1  0.00000000  0.17139100  0.39951100  1
  O  O59  1  0.33232600  0.00000000  0.31033300  1
  O  O60  1  0.33401600  0.33401600  0.88654400  1
  O  O61  1  0.84393400  0.50070300  0.69605900  1
  O  O62  1  0.17495100  0.34471600  0.20838900  1
  O  O63  1  0.66080500  0.00000000  0.60382900  1
  O  O64  1  0.75577000  0.00000000  0.00000000  1
  O  O65  1  0.66767400  0.66767400  0.68966700  1
  O  O66  1  0.33919500  0.33919500  0.39617100  1
  O  O67  1  0.19283600  0.19283600  0.30639000  1
  O  O68  1  0.17495100  0.34471600  0.79161100  1
  O  O69  1  0.33333300  0.66666700  0.19801000  1
  O  O70  1  0.82906000  0.33728200  0.10820600  1
  O  O71  1  0.50730700  0.67083800  0.60067800  1
  O  O72  1  0.82860900  0.82860900  0.39951100  1
  O  O73  1  0.16353000  0.49269300  0.39932200  1
  O  O74  1  0.66666700  0.33333300  0.80199000  1
  O  O75  1  0.82504900  0.16976500  0.20838900  1
  O  O76  1  0.65676900  0.15606600  0.69605900  1
  O  O77  1  0.51553400  0.00000000  0.79696100  1
  O  O78  1  0.00000000  0.66080500  0.39617100  1
  O  O79  1  0.49929700  0.34323100  0.30394100  1
  O  O80  1  0.17139100  0.00000000  0.39951100  1
  O  O81  1  0.17265700  0.00000000  0.08447400  1
  O  O82  1  0.82734300  0.82734300  0.08447400  1
  O  O83  1  0.00000000  0.80716400  0.30639000  1
  O  O84  1  0.00000000  0.80716400  0.69361000  1
  O  O85  1  0.66080500  0.00000000  0.39617100  1
  O  O86  1  0.50070300  0.84393400  0.69605900  1
  O  O87  1  0.49269300  0.16353000  0.39932200  1
  O  O88  1  0.50822100  0.17094000  0.89179400  1
  O  O89  1  0.83647000  0.32916200  0.39932200  1
  O  O90  1  0.50822100  0.17094000  0.10820600  1
  O  O91  1  0.51553400  0.00000000  0.20303900  1
  O  O92  1  0.32916200  0.83647000  0.60067800  1
  O  O93  1  0.24423000  0.24423000  0.00000000  1
  O  O94  1  0.67083800  0.50730700  0.39932200  1
  O  O95  1  0.00000000  0.00000000  0.50000000  1
  O  O96  1  0.66271800  0.49177900  0.89179400  1
  O  O97  1  0.16353000  0.49269300  0.60067800  1
  O  O98  1  0.50070300  0.84393400  0.30394100  1
  O  O99  1  0.15606600  0.65676900  0.69605900  1
  O  O100  1  0.65528400  0.83023500  0.20838900  1
  O  O101  1  0.49177900  0.66271800  0.89179400  1
  O  O102  1  0.00000000  0.66080500  0.60382900  1
loop_
_geom_bond_atom_site_label_1
_geom_bond_atom_site_label_2
_geom_bond_distance
_geom_bond_site_symmetry_2
Ba0 O58 2.804860 1_555
Ba0 O49 2.804860 1_555
Ba0 O89 2.826904 1_455
Ba0 O50 2.826904 1_455
Ba0 O73 2.826906 1_555
Ba0 O97 2.826906 1_555
Ba0 O95 3.243680 1_555
Ba0 O46 3.281408 1_455
Ba0 O53 3.281413 1_555
Ba1 O31 2.960635 1_555
Ba1 O42 2.960635 1_554
Ba1 O55 2.960640 1_555
Ba1 O11 2.960640 1_554
Ba1 O43 2.960645 1_555
Ba1 O101 2.960645 1_554
Ba1 O8 2.995533 1_565
Ba1 O29 2.995536 1_555
Ba1 O9 2.995542 1_555
Ba2 O56 2.701229 1_555
Ba2 O30 2.701229 1_455
Ba2 O84 2.701229 1_545
Ba2 O25 2.947593 1_555
Ba2 O68 2.947593 1_555
Ba2 O14 2.947593 1_445
Ba2 O22 2.947593 1_445
Ba2 O54 2.947593 1_455
Ba2 O23 2.947593 1_545
Ba3 O72 2.804860 1_555
Ba3 O18 2.804860 1_555
Ba3 O94 2.826909 1_555
Ba3 O0 2.826909 1_555
Ba3 O15 2.826909 1_555
Ba3 O71 2.826909 1_555
Ba3 O95 3.243680 1_665
Ba3 O46 3.281418 1_555
Ba3 O53 3.281418 1_555
Ba4 O80 2.804860 1_555
Ba4 O51 2.804860 1_555
Ba4 O12 2.826904 1_545
Ba4 O92 2.826904 1_545
Ba4 O87 2.826906 1_555
Ba4 O13 2.826906 1_555
Ba4 O95 3.243680 1_555
Ba4 O53 3.281408 1_545
Ba4 O46 3.281413 1_555
Ba5 O70 2.960635 1_555
Ba5 O2 2.960635 1_554
Ba5 O88 2.960640 1_554
Ba5 O90 2.960640 1_555
Ba5 O35 2.960645 1_555
Ba5 O96 2.960645 1_554
Ba5 O29 2.995533 1_655
Ba5 O8 2.995536 1_555
Ba5 O9 2.995542 1_555
Ba6 O67 2.701229 1_555
Ba6 O83 2.701229 1_545
Ba6 O27 2.701229 1_455
Ba6 O20 2.947593 1_555
Ba6 O62 2.947593 1_555
Ba6 O38 2.947593 1_445
Ba6 O100 2.947593 1_445
Ba6 O75 2.947593 1_455
Ba6 O10 2.947593 1_545
Al0 O46 1.742401 1_555
Al0 O13 1.786562 1_555
Al0 O15 1.786562 1_555
Al0 O50 1.786562 1_555
Al1 O60 1.839153 1_555
Al1 O88 1.864109 1_555
Al1 O25 1.935406 1_555
Al1 O96 1.966446 1_555
Al1 O74 1.977235 1_555
Al1 O36 2.018238 1_555
Al2 O95 1.757976 1_555
Al2 O18 1.775087 1_445
Al2 O51 1.775087 1_555
Al2 O49 1.775087 1_555
Al3 O102 1.864116 1_655
Al3 O18 1.885349 1_555
Al3 O84 1.887508 1_655
Al3 O15 1.894140 1_555
Al3 O65 1.986731 1_555
Al3 O61 2.087035 1_555
Al4 O26 1.701325 1_555
Al4 O33 1.747044 1_555
Al4 O81 1.812401 1_565
Al4 O82 1.812401 1_455
Al5 O95 1.757976 1_555
Al5 O72 1.775087 1_445
Al5 O58 1.775087 1_555
Al5 O80 1.775087 1_555
Al6 O76 1.800798 1_555
Al6 O61 1.800802 1_555
Al6 O37 1.800807 1_555
Al6 O74 1.838447 1_555
Al7 O78 1.864116 1_555
Al7 O80 1.885349 1_565
Al7 O83 1.887508 1_555
Al7 O12 1.894136 1_555
Al7 O59 1.986731 1_565
Al7 O34 2.087035 1_555
Al8 O66 1.864116 1_555
Al8 O58 1.885349 1_555
Al8 O67 1.887508 1_555
Al8 O73 1.894144 1_555
Al8 O41 1.986731 1_555
Al8 O32 2.087035 1_555
Al9 O16 1.839153 1_565
Al9 O101 1.864117 1_555
Al9 O14 1.935406 1_555
Al9 O42 1.966442 1_555
Al9 O24 1.977231 1_555
Al9 O77 2.018238 1_565
Al10 O83 1.826074 1_555
Al10 O3 1.905772 1_555
Al10 O10 1.925354 1_555
Al10 O38 1.925354 1_455
Al10 O28 1.962477 1_455
Al10 O34 1.962477 1_555
Al11 O60 1.839153 1_555
Al11 O11 1.864109 1_555
Al11 O68 1.935406 1_555
Al11 O101 1.966446 1_555
Al11 O24 1.977235 1_555
Al11 O36 2.018238 1_555
Al12 O23 1.784144 1_545
Al12 O25 1.784144 1_555
Al12 O77 1.824341 1_555
Al12 O19 1.831636 1_555
Al13 O4 1.839153 1_555
Al13 O70 1.864113 1_555
Al13 O75 1.935406 1_555
Al13 O90 1.966450 1_555
Al13 O44 1.977227 1_555
Al13 O91 2.018238 1_555
Al14 O63 1.838477 1_555
Al14 O13 1.884147 1_555
Al14 O92 1.884152 1_545
Al14 O19 1.952216 1_555
Al14 O76 1.994202 1_555
Al14 O86 1.994202 1_545
Al15 O4 1.839153 1_565
Al15 O43 1.864117 1_555
Al15 O100 1.935406 1_555
Al15 O31 1.966442 1_555
Al15 O69 1.977231 1_555
Al15 O91 2.018238 1_565
Al16 O6 1.839153 1_555
Al16 O42 1.864113 1_555
Al16 O23 1.935406 1_555
Al16 O11 1.966450 1_555
Al16 O24 1.977227 1_555
Al16 O52 2.018238 1_555
Al17 O30 1.826074 1_555
Al17 O77 1.905772 1_555
Al17 O54 1.925354 1_555
Al17 O14 1.925354 1_545
Al17 O86 1.962477 1_545
Al17 O76 1.962477 1_555
Al18 O85 1.838477 1_555
Al18 O87 1.884147 1_555
Al18 O12 1.884152 1_545
Al18 O59 1.952216 1_555
Al18 O7 1.994202 1_555
Al18 O98 1.994202 1_545
Al19 O46 1.742401 1_555
Al19 O87 1.786562 1_555
Al19 O94 1.786562 1_555
Al19 O89 1.786562 1_555
Al20 O100 1.784144 1_555
Al20 O38 1.784144 1_555
Al20 O17 1.824341 1_555
Al20 O21 1.831636 1_555
Al21 O56 1.826074 1_555
Al21 O36 1.905772 1_555
Al21 O68 1.925354 1_555
Al21 O25 1.925354 1_555
Al21 O5 1.962477 1_555
Al21 O37 1.962477 1_555
Al22 O63 1.864116 1_555
Al22 O49 1.885349 1_655
Al22 O30 1.887508 1_555
Al22 O50 1.894136 1_555
Al22 O1 1.986731 1_655
Al22 O76 2.087035 1_555
Al23 O7 1.800798 1_555
Al23 O28 1.800802 1_555
Al23 O79 1.800807 1_555
Al23 O44 1.838447 1_555
Al24 O54 1.784144 1_455
Al24 O68 1.784144 1_555
Al24 O52 1.824341 1_555
Al24 O1 1.831636 1_555
Al25 O63 1.864116 1_565
Al25 O18 1.885349 1_555
Al25 O30 1.887508 1_565
Al25 O71 1.894140 1_555
Al25 O65 1.986731 1_555
Al25 O86 2.087035 1_555
Al26 O6 1.839153 1_655
Al26 O96 1.864117 1_555
Al26 O22 1.935406 1_555
Al26 O2 1.966442 1_555
Al26 O74 1.977231 1_555
Al26 O52 2.018238 1_655
Al27 O66 1.838477 1_555
Al27 O94 1.884156 1_555
Al27 O0 1.884156 1_555
Al27 O21 1.952216 1_555
Al27 O79 1.994202 1_555
Al27 O32 1.994202 1_555
Al28 O93 1.701325 1_555
Al28 O40 1.747044 1_555
Al28 O47 1.812401 1_555
Al28 O81 1.812401 1_555
Al29 O78 1.838477 1_555
Al29 O73 1.884147 1_555
Al29 O89 1.884152 1_455
Al29 O41 1.952216 1_555
Al29 O34 1.994202 1_555
Al29 O28 1.994202 1_455
Al30 O39 1.864116 1_555
Al30 O51 1.885349 1_555
Al30 O56 1.887508 1_555
Al30 O13 1.894144 1_555
Al30 O19 1.986731 1_555
Al30 O37 2.087035 1_555
Al31 O34 1.800798 1_555
Al31 O98 1.800802 1_555
Al31 O32 1.800807 1_555
Al31 O69 1.838447 1_555
Al32 O66 1.864116 1_555
Al32 O80 1.885349 1_555
Al32 O67 1.887508 1_555
Al32 O87 1.894144 1_555
Al32 O59 1.986731 1_555
Al32 O79 2.087035 1_555
Al33 O26 1.701325 1_556
Al33 O6 1.747044 1_555
Al33 O45 1.812401 1_565
Al33 O57 1.812401 1_455
Al34 O85 1.864116 1_555
Al34 O58 1.885349 1_655
Al34 O27 1.887508 1_555
Al34 O89 1.894136 1_555
Al34 O41 1.986731 1_655
Al34 O7 2.087035 1_555
Al35 O33 1.839153 1_555
Al35 O31 1.864113 1_555
Al35 O10 1.935406 1_555
Al35 O55 1.966450 1_555
Al35 O69 1.977227 1_555
Al35 O3 2.018238 1_555
Al36 O22 1.784144 1_555
Al36 O14 1.784144 1_555
Al36 O36 1.824341 1_555
Al36 O65 1.831636 1_555
Al37 O85 1.864116 1_565
Al37 O72 1.885349 1_555
Al37 O27 1.887508 1_565
Al37 O0 1.894140 1_555
Al37 O21 1.986731 1_555
Al37 O98 2.087035 1_555
Al38 O10 1.784144 1_545
Al38 O20 1.784144 1_555
Al38 O91 1.824341 1_555
Al38 O59 1.831636 1_555
Al39 O16 1.839153 1_555
Al39 O2 1.864113 1_555
Al39 O54 1.935406 1_555
Al39 O88 1.966450 1_555
Al39 O74 1.977227 1_555
Al39 O77 2.018238 1_555
Al40 O40 1.839153 1_555
Al40 O90 1.864109 1_555
Al40 O20 1.935406 1_555
Al40 O35 1.966446 1_555
Al40 O44 1.977235 1_555
Al40 O17 2.018238 1_555
Al41 O102 1.864116 1_555
Al41 O51 1.885349 1_565
Al41 O84 1.887508 1_555
Al41 O92 1.894136 1_555
Al41 O19 1.986731 1_565
Al41 O99 2.087035 1_555
Al42 O53 1.742401 1_555
Al42 O73 1.786562 1_555
Al42 O0 1.786562 1_555
Al42 O12 1.786562 1_555
Al43 O8 1.759713 1_556
Al43 O88 1.766255 1_555
Al43 O42 1.766259 1_545
Al43 O45 1.850029 1_555
Al44 O9 1.759713 1_556
Al44 O96 1.766250 1_555
Al44 O101 1.766250 1_555
Al44 O57 1.850029 1_555
Al45 O29 1.759713 1_555
Al45 O55 1.766255 1_555
Al45 O70 1.766259 1_455
Al45 O47 1.850029 1_555
Al46 O84 1.826074 1_555
Al46 O52 1.905772 1_555
Al46 O23 1.925354 1_555
Al46 O22 1.925354 1_455
Al46 O61 1.962477 1_455
Al46 O99 1.962477 1_555
Al47 O64 1.701325 1_556
Al47 O16 1.747044 1_555
Al47 O48 1.812401 1_655
Al47 O57 1.812401 1_545
Al48 O99 1.800798 1_555
Al48 O86 1.800802 1_555
Al48 O5 1.800807 1_555
Al48 O24 1.838447 1_555
Al49 O39 1.864116 1_555
Al49 O49 1.885349 1_555
Al49 O56 1.887508 1_555
Al49 O97 1.894144 1_555
Al49 O1 1.986731 1_555
Al49 O5 2.087035 1_555
Al50 O27 1.826074 1_555
Al50 O91 1.905772 1_555
Al50 O75 1.925354 1_555
Al50 O100 1.925354 1_545
Al50 O98 1.962477 1_545
Al50 O7 1.962477 1_555
Al51 O8 1.759713 1_555
Al51 O90 1.766255 1_555
Al51 O31 1.766259 1_545
Al51 O81 1.850029 1_555
Al52 O78 1.864116 1_655
Al52 O72 1.885349 1_555
Al52 O83 1.887508 1_655
Al52 O94 1.894140 1_555
Al52 O21 1.986731 1_555
Al52 O28 2.087035 1_555
Al53 O39 1.838477 1_555
Al53 O71 1.884156 1_555
Al53 O15 1.884156 1_555
Al53 O65 1.952216 1_555
Al53 O5 1.994202 1_555
Al53 O37 1.994202 1_555
Al54 O67 1.826074 1_555
Al54 O17 1.905772 1_555
Al54 O20 1.925354 1_555
Al54 O62 1.925354 1_555
Al54 O32 1.962477 1_555
Al54 O79 1.962477 1_555
Al55 O75 1.784144 1_455
Al55 O62 1.784144 1_555
Al55 O3 1.824341 1_555
Al55 O41 1.831636 1_555
Al56 O9 1.759713 1_555
Al56 O43 1.766250 1_555
Al56 O35 1.766250 1_555
Al56 O82 1.850029 1_555
Al57 O29 1.759713 1_556
Al57 O11 1.766255 1_555
Al57 O2 1.766259 1_455
Al57 O48 1.850029 1_555
Al58 O40 1.839153 1_555
Al58 O55 1.864109 1_555
Al58 O62 1.935406 1_555
Al58 O43 1.966446 1_555
Al58 O69 1.977235 1_555
Al58 O17 2.018238 1_555
Al59 O33 1.839153 1_655
Al59 O35 1.864117 1_555
Al59 O38 1.935406 1_555
Al59 O70 1.966442 1_555
Al59 O44 1.977231 1_555
Al59 O3 2.018238 1_655
Al60 O93 1.701325 1_556
Al60 O60 1.747044 1_555
Al60 O45 1.812401 1_555
Al60 O48 1.812401 1_555
Al61 O102 1.838477 1_555
Al61 O97 1.884147 1_555
Al61 O50 1.884152 1_455
Al61 O1 1.952216 1_555
Al61 O99 1.994202 1_555
Al61 O61 1.994202 1_455
Al62 O64 1.701325 1_555
Al62 O4 1.747044 1_555
Al62 O47 1.812401 1_655
Al62 O82 1.812401 1_545
Al63 O53 1.742401 1_555
Al63 O97 1.786562 1_555
Al63 O71 1.786562 1_555
Al63 O92 1.786562 1_555
