# generated using pymatgen
data_MnGaNi2
_symmetry_space_group_name_H-M   'P 1'
_cell_length_a   4.21490300
_cell_length_b   5.47428000
_cell_length_c   29.34303500
_cell_angle_alpha   90.00000000
_cell_angle_beta   90.00000000
_cell_angle_gamma   90.00000000
_symmetry_Int_Tables_number   1
_chemical_formula_structural   MnGaNi2
_chemical_formula_sum   'Mn14 Ga14 Ni28'
_cell_volume   677.04825503
_cell_formula_units_Z   14
loop_
 _symmetry_equiv_pos_site_id
 _symmetry_equiv_pos_as_xyz
  1  'x, y, z'
loop_
 _atom_site_type_symbol
 _atom_site_label
 _atom_site_symmetry_multiplicity
 _atom_site_fract_x
 _atom_site_fract_y
 _atom_site_fract_z
 _atom_site_occupancy
  Mn  Mn0  1  0.44792700  0.50000000  0.42860500  1
  Mn  Mn1  1  0.03326300  0.00000000  0.64303500  1
  Mn  Mn2  1  0.96673700  0.00000000  0.35696500  1
  Mn  Mn3  1  0.00000000  0.00000000  0.50000000  1
  Mn  Mn4  1  0.55302400  0.50000000  0.28604300  1
  Mn  Mn5  1  0.53326300  0.50000000  0.85696500  1
  Mn  Mn6  1  0.94792700  0.00000000  0.07139500  1
  Mn  Mn7  1  0.46673700  0.50000000  0.14303500  1
  Mn  Mn8  1  0.05302400  0.00000000  0.21395700  1
  Mn  Mn9  1  0.44697600  0.50000000  0.71395700  1
  Mn  Mn10  1  0.94697600  0.00000000  0.78604300  1
  Mn  Mn11  1  0.50000000  0.50000000  0.00000000  1
  Mn  Mn12  1  0.05207300  0.00000000  0.92860500  1
  Mn  Mn13  1  0.55207300  0.50000000  0.57139500  1
  Ga  Ga0  1  0.44902400  0.00000000  0.42848700  1
  Ga  Ga1  1  0.44431700  0.00000000  0.71486000  1
  Ga  Ga2  1  0.50000000  0.00000000  0.00000000  1
  Ga  Ga3  1  0.55568300  0.00000000  0.28514000  1
  Ga  Ga4  1  0.03789000  0.50000000  0.64290300  1
  Ga  Ga5  1  0.00000000  0.50000000  0.50000000  1
  Ga  Ga6  1  0.05097600  0.50000000  0.92848700  1
  Ga  Ga7  1  0.05568300  0.50000000  0.21486000  1
  Ga  Ga8  1  0.94431700  0.50000000  0.78514000  1
  Ga  Ga9  1  0.53789000  0.00000000  0.85709700  1
  Ga  Ga10  1  0.94902400  0.50000000  0.07151300  1
  Ga  Ga11  1  0.55097600  0.00000000  0.57151300  1
  Ga  Ga12  1  0.96211000  0.50000000  0.35709700  1
  Ga  Ga13  1  0.46211000  0.00000000  0.14290300  1
  Ni  Ni0  1  0.44109100  0.75030100  0.78585800  1
  Ni  Ni1  1  0.05890900  0.74969900  0.28585800  1
  Ni  Ni2  1  0.03828600  0.74942100  0.85734800  1
  Ni  Ni3  1  0.44109100  0.24969900  0.78585800  1
  Ni  Ni4  1  0.46171400  0.24942100  0.35734800  1
  Ni  Ni5  1  0.96171400  0.74942100  0.14265200  1
  Ni  Ni6  1  0.94310500  0.25042600  0.42873400  1
  Ni  Ni7  1  0.94109100  0.25030100  0.71414200  1
  Ni  Ni8  1  0.44310500  0.75042600  0.07126600  1
  Ni  Ni9  1  0.94109100  0.74969900  0.71414200  1
  Ni  Ni10  1  0.96171400  0.25057900  0.14265200  1
  Ni  Ni11  1  0.05890900  0.25030100  0.28585800  1
  Ni  Ni12  1  0.55689500  0.75042600  0.92873400  1
  Ni  Ni13  1  0.44310500  0.24957400  0.07126600  1
  Ni  Ni14  1  0.94310500  0.74957400  0.42873400  1
  Ni  Ni15  1  0.05689500  0.74957400  0.57126600  1
  Ni  Ni16  1  0.05689500  0.25042600  0.57126600  1
  Ni  Ni17  1  0.00000000  0.74965800  0.00000000  1
  Ni  Ni18  1  0.53828600  0.75057900  0.64265200  1
  Ni  Ni19  1  0.55689500  0.24957400  0.92873400  1
  Ni  Ni20  1  0.03828600  0.25057900  0.85734800  1
  Ni  Ni21  1  0.46171400  0.75057900  0.35734800  1
  Ni  Ni22  1  0.55890900  0.75030100  0.21414200  1
  Ni  Ni23  1  0.55890900  0.24969900  0.21414200  1
  Ni  Ni24  1  0.00000000  0.25034200  0.00000000  1
  Ni  Ni25  1  0.53828600  0.24942100  0.64265200  1
  Ni  Ni26  1  0.50000000  0.75034200  0.50000000  1
  Ni  Ni27  1  0.50000000  0.24965800  0.50000000  1
loop_
_geom_bond_atom_site_label_1
_geom_bond_atom_site_label_2
_geom_bond_distance
_geom_bond_site_symmetry_2
Mn0 Ni6 2.494538 1_555
Mn0 Ni14 2.494538 1_555
Mn0 Ni21 2.501379 1_555
Mn0 Ni4 2.501379 1_555
Mn0 Ni26 2.512983 1_555
Mn0 Ni27 2.512983 1_555
Mn0 Ni14 2.528646 1_455
Mn0 Ni6 2.528646 1_455
Mn1 Ni25 2.493393 1_455
Mn1 Ni18 2.493393 1_445
Mn1 Ni16 2.514795 1_555
Mn1 Ni15 2.514795 1_545
Mn1 Ni7 2.526240 1_455
Mn1 Ni9 2.526240 1_445
Mn1 Ni25 2.528929 1_555
Mn1 Ni18 2.528929 1_545
Mn2 Ni4 2.493393 1_655
Mn2 Ni21 2.493393 1_645
Mn2 Ni6 2.514795 1_555
Mn2 Ni14 2.514795 1_545
Mn2 Ni11 2.526240 1_655
Mn2 Ni1 2.526240 1_645
Mn2 Ni4 2.528929 1_555
Mn2 Ni21 2.528929 1_545
Mn3 Ni26 2.511815 1_545
Mn3 Ni26 2.511815 1_445
Mn3 Ni27 2.511815 1_555
Mn3 Ni27 2.511815 1_455
Mn3 Ni16 2.511938 1_555
Mn3 Ni15 2.511938 1_545
Mn3 Ni6 2.511938 1_455
Mn3 Ni14 2.511938 1_445
Mn4 Ni1 2.491169 1_555
Mn4 Ni11 2.491169 1_555
Mn4 Ni22 2.515818 1_555
Mn4 Ni23 2.515818 1_555
Mn4 Ni21 2.531310 1_555
Mn4 Ni4 2.531310 1_555
Mn4 Ni1 2.532789 1_655
Mn4 Ni11 2.532789 1_655
Mn5 Ni2 2.493393 1_555
Mn5 Ni20 2.493393 1_555
Mn5 Ni12 2.514795 1_555
Mn5 Ni19 2.514795 1_555
Mn5 Ni0 2.526240 1_555
Mn5 Ni3 2.526240 1_555
Mn5 Ni2 2.528929 1_655
Mn5 Ni20 2.528929 1_655
Mn6 Ni13 2.494538 1_655
Mn6 Ni8 2.494538 1_645
Mn6 Ni5 2.501379 1_545
Mn6 Ni10 2.501379 1_555
Mn6 Ni24 2.512983 1_655
Mn6 Ni17 2.512983 1_645
Mn6 Ni13 2.528646 1_555
Mn6 Ni8 2.528646 1_545
Mn7 Ni10 2.493393 1_555
Mn7 Ni5 2.493393 1_555
Mn7 Ni8 2.514795 1_555
Mn7 Ni13 2.514795 1_555
Mn7 Ni22 2.526240 1_555
Mn7 Ni23 2.526240 1_555
Mn7 Ni10 2.528929 1_455
Mn7 Ni5 2.528929 1_455
Mn8 Ni23 2.491169 1_455
Mn8 Ni22 2.491169 1_445
Mn8 Ni11 2.515818 1_555
Mn8 Ni1 2.515818 1_545
Mn8 Ni5 2.531310 1_445
Mn8 Ni10 2.531310 1_455
Mn8 Ni23 2.532789 1_555
Mn8 Ni22 2.532789 1_545
Mn9 Ni9 2.491169 1_555
Mn9 Ni7 2.491169 1_555
Mn9 Ni0 2.515818 1_555
Mn9 Ni3 2.515818 1_555
Mn9 Ni18 2.531310 1_555
Mn9 Ni25 2.531310 1_555
Mn9 Ni7 2.532789 1_455
Mn9 Ni9 2.532789 1_455
Mn10 Ni3 2.491169 1_655
Mn10 Ni0 2.491169 1_645
Mn10 Ni7 2.515818 1_555
Mn10 Ni9 2.515818 1_545
Mn10 Ni2 2.531310 1_645
Mn10 Ni20 2.531310 1_655
Mn10 Ni3 2.532789 1_555
Mn10 Ni0 2.532789 1_545
Mn11 Ni17 2.511815 1_655
Mn11 Ni17 2.511815 1_555
Mn11 Ni24 2.511815 1_655
Mn11 Ni24 2.511815 1_555
Mn11 Ni8 2.511938 1_555
Mn11 Ni12 2.511938 1_554
Mn11 Ni13 2.511938 1_555
Mn11 Ni19 2.511938 1_554
Mn12 Ni19 2.494538 1_455
Mn12 Ni12 2.494538 1_445
Mn12 Ni20 2.501379 1_555
Mn12 Ni2 2.501379 1_545
Mn12 Ni24 2.512983 1_556
Mn12 Ni17 2.512983 1_546
Mn12 Ni19 2.528646 1_555
Mn12 Ni12 2.528646 1_545
Mn13 Ni15 2.494538 1_555
Mn13 Ni16 2.494538 1_555
Mn13 Ni18 2.501379 1_555
Mn13 Ni25 2.501379 1_555
Mn13 Ni26 2.512983 1_555
Mn13 Ni27 2.512983 1_555
Mn13 Ni16 2.528646 1_655
Mn13 Ni15 2.528646 1_655
Ga0 Ni6 2.493240 1_555
Ga0 Ni14 2.493240 1_545
Ga0 Ni4 2.494907 1_555
Ga0 Ni21 2.494907 1_545
Ga0 Ni26 2.513433 1_545
Ga0 Ni27 2.513433 1_555
Ga0 Ni14 2.535065 1_445
Ga0 Ni6 2.535065 1_455
Ga0 Mn3 2.825814 1_555
Ga1 Ni3 2.491744 1_555
Ga1 Ni0 2.491744 1_545
Ga1 Ni9 2.502432 1_545
Ga1 Ni7 2.502432 1_555
Ga1 Ni9 2.525230 1_445
Ga1 Ni7 2.525230 1_455
Ga1 Ni25 2.551570 1_555
Ga1 Ni18 2.551570 1_545
Ga1 Mn1 2.728289 1_555
Ga1 Mn9 2.737291 1_555
Ga1 Mn9 2.737291 1_545
Ga2 Ni13 2.509396 1_555
Ga2 Ni19 2.509396 1_554
Ga2 Ni8 2.509396 1_545
Ga2 Ni12 2.509396 1_544
Ga2 Ni24 2.513854 1_655
Ga2 Ni24 2.513854 1_555
Ga2 Ni17 2.513854 1_645
Ga2 Ni17 2.513854 1_545
Ga2 Mn11 2.737140 1_555
Ga2 Mn11 2.737140 1_545
Ga2 Mn6 2.820146 1_555
Ga2 Mn12 2.820146 1_554
Ga3 Ni23 2.491744 1_555
Ga3 Ni22 2.491744 1_545
Ga3 Ni1 2.502432 1_545
Ga3 Ni11 2.502432 1_555
Ga3 Ni11 2.525230 1_655
Ga3 Ni1 2.525230 1_645
Ga3 Ni4 2.551570 1_555
Ga3 Ni21 2.551570 1_545
Ga3 Mn2 2.728289 1_555
Ga3 Mn4 2.737291 1_555
Ga3 Mn4 2.737291 1_545
Ga4 Ni15 2.508311 1_555
Ga4 Ni16 2.508311 1_555
Ga4 Ni18 2.513174 1_455
Ga4 Ni25 2.513174 1_455
Ga4 Ni18 2.515972 1_555
Ga4 Ni25 2.515972 1_555
Ga4 Ni7 2.530727 1_455
Ga4 Ni9 2.530727 1_455
Ga4 Mn9 2.705557 1_555
Ga5 Ni15 2.509396 1_555
Ga5 Ni16 2.509396 1_555
Ga5 Ni14 2.509396 1_455
Ga5 Ni6 2.509396 1_455
Ga5 Ni27 2.513854 1_555
Ga5 Ni26 2.513854 1_555
Ga5 Ni26 2.513854 1_455
Ga5 Ni27 2.513854 1_455
Ga5 Mn3 2.737140 1_565
Ga5 Mn3 2.737140 1_555
Ga5 Mn13 2.820146 1_455
Ga5 Mn0 2.820146 1_555
Ga6 Ni12 2.493240 1_455
Ga6 Ni19 2.493240 1_455
Ga6 Ni2 2.494907 1_555
Ga6 Ni20 2.494907 1_555
Ga6 Ni17 2.513433 1_556
Ga6 Ni24 2.513433 1_556
Ga6 Ni12 2.535065 1_555
Ga6 Ni19 2.535065 1_555
Ga6 Mn11 2.825814 1_556
Ga7 Ni1 2.491744 1_555
Ga7 Ni11 2.491744 1_555
Ga7 Ni22 2.502432 1_455
Ga7 Ni23 2.502432 1_455
Ga7 Ni22 2.525230 1_555
Ga7 Ni23 2.525230 1_555
Ga7 Ni10 2.551570 1_455
Ga7 Ni5 2.551570 1_455
Ga7 Mn7 2.728289 1_555
Ga7 Mn8 2.737291 1_565
Ga7 Mn8 2.737291 1_555
Ga8 Ni9 2.491744 1_555
Ga8 Ni7 2.491744 1_555
Ga8 Ni0 2.502432 1_655
Ga8 Ni3 2.502432 1_655
Ga8 Ni0 2.525230 1_555
Ga8 Ni3 2.525230 1_555
Ga8 Ni20 2.551570 1_655
Ga8 Ni2 2.551570 1_655
Ga8 Mn5 2.728289 1_555
Ga8 Mn10 2.737291 1_555
Ga8 Mn10 2.737291 1_565
Ga9 Ni19 2.508311 1_555
Ga9 Ni12 2.508311 1_545
Ga9 Ni20 2.513174 1_555
Ga9 Ni2 2.513174 1_545
Ga9 Ni2 2.515972 1_645
Ga9 Ni20 2.515972 1_655
Ga9 Ni3 2.530727 1_555
Ga9 Ni0 2.530727 1_545
Ga9 Mn10 2.705557 1_555
Ga10 Ni8 2.493240 1_655
Ga10 Ni13 2.493240 1_655
Ga10 Ni10 2.494907 1_555
Ga10 Ni5 2.494907 1_555
Ga10 Ni17 2.513433 1_655
Ga10 Ni24 2.513433 1_655
Ga10 Ni8 2.535065 1_555
Ga10 Ni13 2.535065 1_555
Ga10 Mn11 2.825814 1_555
Ga11 Ni15 2.493240 1_545
Ga11 Ni16 2.493240 1_555
Ga11 Ni25 2.494907 1_555
Ga11 Ni18 2.494907 1_545
Ga11 Ni27 2.513433 1_555
Ga11 Ni26 2.513433 1_545
Ga11 Ni15 2.535065 1_645
Ga11 Ni16 2.535065 1_655
Ga11 Mn3 2.825814 1_655
Ga12 Ni14 2.508311 1_555
Ga12 Ni6 2.508311 1_555
Ga12 Ni21 2.513174 1_655
Ga12 Ni4 2.513174 1_655
Ga12 Ni21 2.515972 1_555
Ga12 Ni4 2.515972 1_555
Ga12 Ni11 2.530727 1_655
Ga12 Ni1 2.530727 1_655
Ga12 Mn4 2.705557 1_555
Ga13 Ni13 2.508311 1_555
Ga13 Ni8 2.508311 1_545
Ga13 Ni5 2.513174 1_545
Ga13 Ni10 2.513174 1_555
Ga13 Ni5 2.515972 1_445
Ga13 Ni10 2.515972 1_455
Ga13 Ni23 2.530727 1_555
Ga13 Ni22 2.530727 1_545
Ga13 Mn8 2.705557 1_555
Ni0 Ni2 2.698700 1_555
Ni0 Ni3 2.733844 1_565
Ni0 Ni3 2.740436 1_555
Ni1 Ni21 2.698700 1_555
Ni1 Ni11 2.733844 1_555
Ni1 Ni11 2.740436 1_565
Ni7 Ni9 2.733844 1_555
Ni7 Ni9 2.740436 1_545
Ni10 Ni23 2.698700 1_555
Ni11 Ni4 2.698700 1_555
Ni12 Ni17 2.803759 1_656
Ni13 Ni24 2.803759 1_555
Ni14 Ni26 2.803759 1_555
Ni15 Ni26 2.803759 1_555
Ni16 Ni27 2.803759 1_555
Ni17 Ni24 2.733396 1_555
Ni17 Ni24 2.740884 1_565
Ni17 Ni8 2.803759 1_555
Ni18 Ni9 2.698700 1_555
Ni19 Ni24 2.803759 1_656
Ni20 Ni3 2.698700 1_555
Ni22 Ni5 2.698700 1_555
Ni22 Ni23 2.733844 1_565
Ni22 Ni23 2.740436 1_555
Ni25 Ni7 2.698700 1_555
Ni26 Ni27 2.733396 1_565
Ni26 Ni27 2.740884 1_555
Ni27 Ni6 2.803759 1_555
