# generated using pymatgen
data_PuNi3
_symmetry_space_group_name_H-M   'P 1'
_cell_length_a   8.73149206
_cell_length_b   8.73149206
_cell_length_c   8.73149198
_cell_angle_alpha   33.15407708
_cell_angle_beta   33.15407708
_cell_angle_gamma   33.15407469
_symmetry_Int_Tables_number   1
_chemical_formula_structural   PuNi3
_chemical_formula_sum   'Pu3 Ni9'
_cell_volume   177.22526483
_cell_formula_units_Z   3
loop_
 _symmetry_equiv_pos_site_id
 _symmetry_equiv_pos_as_xyz
  1  'x, y, z'
loop_
 _atom_site_type_symbol
 _atom_site_label
 _atom_site_symmetry_multiplicity
 _atom_site_fract_x
 _atom_site_fract_y
 _atom_site_fract_z
 _atom_site_occupancy
  Pu  Pu0  1  0.14261300  0.14261300  0.14261300  1
  Pu  Pu1  1  0.00000000  0.00000000  0.00000000  1
  Pu  Pu2  1  0.85738700  0.85738700  0.85738700  1
  Ni  Ni0  1  0.41751800  0.41751800  0.91846000  1
  Ni  Ni1  1  0.41751800  0.91846000  0.41751800  1
  Ni  Ni2  1  0.66736600  0.66736600  0.66736600  1
  Ni  Ni3  1  0.58248200  0.58248200  0.08154000  1
  Ni  Ni4  1  0.91846000  0.41751800  0.41751800  1
  Ni  Ni5  1  0.50000000  0.50000000  0.50000000  1
  Ni  Ni6  1  0.58248200  0.08154000  0.58248200  1
  Ni  Ni7  1  0.33263400  0.33263400  0.33263400  1
  Ni  Ni8  1  0.08154000  0.58248200  0.58248200  1
loop_
_geom_bond_atom_site_label_1
_geom_bond_atom_site_label_2
_geom_bond_distance
_geom_bond_site_symmetry_2
Ni0 Ni7 2.473987 1_556
Ni0 Ni1 2.486439 1_546
Ni0 Ni4 2.486439 1_456
Ni0 Ni4 2.495825 1_555
Ni0 Ni1 2.495825 1_555
Ni0 Ni2 2.505354 1_555
Ni0 Ni5 2.538465 1_555
Ni0 Pu2 2.905269 1_545
Ni0 Pu2 2.905269 1_455
Ni0 Pu0 3.044439 1_556
Ni0 Pu1 3.214897 1_656
Ni0 Pu1 3.214897 1_566
Ni1 Ni7 2.473987 1_565
Ni1 Ni4 2.486439 1_465
Ni1 Ni4 2.495825 1_555
Ni1 Ni2 2.505354 1_555
Ni1 Ni5 2.538465 1_555
Ni1 Pu2 2.905269 1_554
Ni1 Pu2 2.905269 1_455
Ni1 Pu0 3.044439 1_565
Ni1 Pu1 3.214897 1_566
Ni1 Pu1 3.214897 1_665
Ni2 Ni3 2.473987 1_556
Ni2 Ni8 2.473987 1_655
Ni2 Ni6 2.473987 1_565
Ni2 Ni4 2.505354 1_555
Ni2 Pu1 2.876564 1_656
Ni2 Pu1 2.876564 1_566
Ni2 Pu1 2.876564 1_665
Ni2 Ni7 2.876720 1_655
Ni2 Ni7 2.876720 1_565
Ni2 Ni7 2.876720 1_556
Ni3 Ni6 2.486439 1_564
Ni3 Ni8 2.486439 1_654
Ni3 Ni8 2.495825 1_555
Ni3 Ni6 2.495825 1_555
Ni3 Ni7 2.505354 1_555
Ni3 Ni5 2.538465 1_555
Ni3 Pu0 2.905269 1_655
Ni3 Pu0 2.905269 1_565
Ni3 Pu2 3.044439 1_554
Ni3 Pu1 3.214897 1_655
Ni3 Pu1 3.214897 1_565
Ni4 Ni7 2.473987 1_655
Ni4 Ni5 2.538465 1_555
Ni4 Pu2 2.905269 1_554
Ni4 Pu2 2.905269 1_545
Ni4 Pu0 3.044439 1_655
Ni4 Pu1 3.214897 1_656
Ni4 Pu1 3.214897 1_665
Ni5 Ni8 2.538465 1_555
Ni5 Ni6 2.538465 1_555
Ni5 Pu0 2.937384 1_565
Ni5 Pu2 2.937384 1_455
Ni5 Pu0 2.937384 1_655
Ni5 Pu2 2.937384 1_545
Ni5 Pu0 2.937384 1_556
Ni5 Pu2 2.937384 1_554
Ni6 Ni8 2.486439 1_645
Ni6 Ni8 2.495825 1_555
Ni6 Ni7 2.505354 1_555
Ni6 Pu0 2.905269 1_556
Ni6 Pu0 2.905269 1_655
Ni6 Pu2 3.044439 1_545
Ni6 Pu1 3.214897 1_655
Ni6 Pu1 3.214897 1_556
Ni7 Ni8 2.505354 1_555
Ni7 Pu1 2.876564 1_565
Ni7 Pu1 2.876564 1_655
Ni7 Pu1 2.876564 1_556
Ni8 Pu0 2.905269 1_556
Ni8 Pu0 2.905269 1_565
Ni8 Pu2 3.044439 1_455
Ni8 Pu1 3.214897 1_565
Ni8 Pu1 3.214897 1_556
