# generated using pymatgen
data_Cr(PO3)4
_symmetry_space_group_name_H-M   'P 1'
_cell_length_a   7.33081977
_cell_length_b   7.33173010
_cell_length_c   9.79990039
_cell_angle_alpha   83.53047136
_cell_angle_beta   67.85308867
_cell_angle_gamma   110.21624691
_symmetry_Int_Tables_number   1
_chemical_formula_structural   Cr(PO3)4
_chemical_formula_sum   'Cr2 P8 O24'
_cell_volume   439.55716427
_cell_formula_units_Z   2
loop_
 _symmetry_equiv_pos_site_id
 _symmetry_equiv_pos_as_xyz
  1  'x, y, z'
loop_
 _atom_site_type_symbol
 _atom_site_label
 _atom_site_symmetry_multiplicity
 _atom_site_fract_x
 _atom_site_fract_y
 _atom_site_fract_z
 _atom_site_occupancy
  Cr  Cr0  1  0.00000000  0.50000000  0.00000000  1
  Cr  Cr1  1  0.00000000  0.00000000  0.50000000  1
  P  P0  1  0.73638100  0.27176300  0.53015800  1
  P  P1  1  0.48528800  0.30567200  0.19658600  1
  P  P2  1  0.30189700  0.26651400  0.96984200  1
  P  P3  1  0.00222900  0.68189800  0.30341500  1
  P  P4  1  0.51471200  0.69432800  0.80341400  1
  P  P5  1  0.69810300  0.73348600  0.03015800  1
  P  P6  1  0.99777100  0.31810200  0.69658500  1
  P  P7  1  0.26361900  0.72823700  0.46984200  1
  O  O0  1  0.29548100  0.68926300  0.83505900  1
  O  O1  1  0.19871900  0.66757000  0.33457900  1
  O  O2  1  0.58177300  0.78141100  0.92966900  1
  O  O3  1  0.30697300  0.18941500  0.35451400  1
  O  O4  1  0.04394300  0.66153500  0.14545000  1
  O  O5  1  0.80128100  0.33243000  0.66542100  1
  O  O6  1  0.76309900  0.90573900  0.09563700  1
  O  O7  1  0.21108400  0.51138600  0.57033800  1
  O  O8  1  0.50114200  0.85841600  0.40435900  1
  O  O9  1  0.78891600  0.48861400  0.42966200  1
  O  O10  1  0.50224700  0.53338000  0.16540400  1
  O  O11  1  0.70451900  0.31073700  0.16494100  1
  O  O12  1  0.41822700  0.21858900  0.07033100  1
  O  O13  1  0.49885800  0.14158400  0.59564100  1
  O  O14  1  0.12902300  0.33160500  0.06541300  1
  O  O15  1  0.95605700  0.33846500  0.85455000  1
  O  O16  1  0.97563000  0.86943800  0.33505100  1
  O  O17  1  0.10292300  0.80538700  0.56535800  1
  O  O18  1  0.23690100  0.09426100  0.90436300  1
  O  O19  1  0.02437000  0.13056200  0.66494900  1
  O  O20  1  0.49775300  0.46662000  0.83459600  1
  O  O21  1  0.69302700  0.81058500  0.64548600  1
  O  O22  1  0.87097700  0.66839500  0.93458700  1
  O  O23  1  0.89707700  0.19461300  0.43464200  1
loop_
_geom_bond_atom_site_label_1
_geom_bond_atom_site_label_2
_geom_bond_distance
_geom_bond_site_symmetry_2
Cr0 O22 1.978820 1_454
Cr0 O14 1.978820 1_555
Cr0 O4 2.000278 1_555
Cr0 O15 2.000278 1_454
Cr0 O11 2.001909 1_455
Cr0 O0 2.001909 1_554
Cr1 O23 1.979368 1_455
Cr1 O17 1.979368 1_545
Cr1 O3 2.000087 1_555
Cr1 O21 2.000087 1_445
Cr1 O19 2.002373 1_555
Cr1 O16 2.002373 1_445
O0 P4 1.503608 1_555
O1 P3 1.614987 1_555
O1 P7 1.625862 1_555
O2 P5 1.607118 1_556
O2 P4 1.612421 1_555
O3 P1 1.495959 1_555
O4 P3 1.496312 1_555
O5 P6 1.614987 1_555
O5 P0 1.625862 1_555
O6 P5 1.493653 1_555
O7 P7 1.607483 1_555
O7 P6 1.612103 1_455
O8 P7 1.491838 1_555
O9 P0 1.607483 1_555
O9 P3 1.612103 1_655
O10 P1 1.615236 1_555
O10 P5 1.625356 1_555
O11 P1 1.503608 1_555
O12 P2 1.607118 1_554
O12 P1 1.612421 1_555
O13 P0 1.491838 1_555
O14 P2 1.528010 1_554
O15 P6 1.496312 1_555
O16 P3 1.503506 1_655
O17 P7 1.527204 1_555
O18 P2 1.493653 1_555
O19 P6 1.503506 1_455
O20 P4 1.615236 1_555
O20 P2 1.625356 1_555
O21 P4 1.495959 1_555
O22 P5 1.528010 1_556
O23 P0 1.527204 1_555
