# generated using pymatgen
data_CaCdPb
_symmetry_space_group_name_H-M   'P 1'
_cell_length_a   7.80393318
_cell_length_b   7.80393318
_cell_length_c   4.75199756
_cell_angle_alpha   90.00000000
_cell_angle_beta   90.00000000
_cell_angle_gamma   120.00000360
_symmetry_Int_Tables_number   1
_chemical_formula_structural   CaCdPb
_chemical_formula_sum   'Ca3 Cd3 Pb3'
_cell_volume   250.63049379
_cell_formula_units_Z   3
loop_
 _symmetry_equiv_pos_site_id
 _symmetry_equiv_pos_as_xyz
  1  'x, y, z'
loop_
 _atom_site_type_symbol
 _atom_site_label
 _atom_site_symmetry_multiplicity
 _atom_site_fract_x
 _atom_site_fract_y
 _atom_site_fract_z
 _atom_site_occupancy
  Ca  Ca0  1  0.00000000  0.57558164  0.50000000  1
  Ca  Ca1  1  0.57558164  0.00000000  0.50000000  1
  Ca  Ca2  1  0.42441836  0.42441836  0.50000000  1
  Cd  Cd0  1  0.25084096  0.00000000  -0.00000000  1
  Cd  Cd1  1  0.74915904  0.74915904  -0.00000000  1
  Cd  Cd2  1  0.00000000  0.25084096  0.00000000  1
  Pb  Pb0  1  -0.00000000  -0.00000000  0.50000000  1
  Pb  Pb1  1  0.66666700  0.33333300  0.00000000  1
  Pb  Pb2  1  0.33333300  0.66666700  0.00000000  1
loop_
_geom_bond_atom_site_label_1
_geom_bond_atom_site_label_2
_geom_bond_distance
_geom_bond_site_symmetry_2
Ca0 Pb0 3.312133 1_565
Ca0 Pb2 3.326917 1_556
Ca0 Pb2 3.326917 1_555
Ca0 Pb1 3.326918 1_456
Ca0 Pb1 3.326918 1_455
Ca0 Cd2 3.473876 1_555
Ca0 Cd2 3.473876 1_556
Ca0 Cd0 3.736834 1_566
Ca0 Cd0 3.736834 1_565
Ca0 Cd1 3.736834 1_456
Ca0 Cd1 3.736834 1_455
Ca1 Pb0 3.312133 1_655
Ca1 Pb1 3.326917 1_555
Ca1 Pb1 3.326917 1_556
Ca1 Pb2 3.326918 1_545
Ca1 Pb2 3.326918 1_546
Ca1 Cd0 3.473876 1_556
Ca1 Cd0 3.473876 1_555
Ca1 Cd2 3.736834 1_655
Ca1 Cd2 3.736834 1_656
Ca1 Cd1 3.736834 1_546
Ca1 Cd1 3.736834 1_545
Ca2 Pb0 3.312132 1_555
Ca2 Pb2 3.326922 1_556
Ca2 Pb1 3.326922 1_555
Ca2 Pb1 3.326922 1_556
Ca2 Pb2 3.326922 1_555
Ca2 Cd1 3.473876 1_555
Ca2 Cd1 3.473876 1_556
Ca2 Cd2 3.736834 1_555
Ca2 Cd2 3.736834 1_556
Ca2 Cd0 3.736834 1_556
Ca2 Cd0 3.736834 1_555
Cd0 Pb2 2.975880 1_545
Cd0 Pb1 2.975885 1_555
Cd0 Pb0 3.078532 1_555
Cd0 Pb0 3.078532 1_554
Cd1 Pb1 2.975887 1_555
Cd1 Pb2 2.975887 1_555
Cd1 Pb0 3.078532 1_665
Cd1 Pb0 3.078532 1_664
Cd2 Pb1 2.975880 1_455
Cd2 Pb2 2.975885 1_555
Cd2 Pb0 3.078532 1_554
Cd2 Pb0 3.078532 1_555
