# generated using pymatgen
data_Na3Sr4La3Ti10O30
_symmetry_space_group_name_H-M   'P 1'
_cell_length_a   5.54360800
_cell_length_b   5.54882950
_cell_length_c   19.90459225
_cell_angle_alpha   97.93838560
_cell_angle_beta   97.92666537
_cell_angle_gamma   90.43714451
_symmetry_Int_Tables_number   1
_chemical_formula_structural   Na3Sr4La3Ti10O30
_chemical_formula_sum   'Na3 Sr4 La3 Ti10 O30'
_cell_volume   600.39246699
_cell_formula_units_Z   1
loop_
 _symmetry_equiv_pos_site_id
 _symmetry_equiv_pos_as_xyz
  1  'x, y, z'
loop_
 _atom_site_type_symbol
 _atom_site_label
 _atom_site_symmetry_multiplicity
 _atom_site_fract_x
 _atom_site_fract_y
 _atom_site_fract_z
 _atom_site_occupancy
  Na  Na0  1  0.14880700  0.64303900  0.30011600  1
  Na  Na1  1  0.74608700  0.24639200  0.49904300  1
  Na  Na2  1  0.34718000  0.84963700  0.69849200  1
  Sr  Sr0  1  0.04891300  0.55092400  0.10053200  1
  Sr  Sr1  1  0.54959000  0.04989100  0.09893000  1
  Sr  Sr2  1  0.44824700  0.95260300  0.89732100  1
  Sr  Sr3  1  0.94934600  0.45310400  0.89890000  1
  La  La0  1  0.64921300  0.14059700  0.29966000  1
  La  La1  1  0.24603900  0.74557600  0.49853900  1
  La  La2  1  0.84621500  0.35011400  0.69727100  1
  Ti  Ti0  1  0.09735900  0.09520800  0.20048200  1
  Ti  Ti1  1  0.69673000  0.69017800  0.39920700  1
  Ti  Ti2  1  0.59979300  0.59599000  0.20106400  1
  Ti  Ti3  1  0.29531400  0.29716900  0.59766200  1
  Ti  Ti4  1  0.19708600  0.19131600  0.39971800  1
  Ti  Ti5  1  0.79361100  0.79679200  0.59808300  1
  Ti  Ti6  1  0.39336000  0.40203200  0.79627700  1
  Ti  Ti7  1  0.99873300  0.00240100  0.99828500  1
  Ti  Ti8  1  0.89772500  0.90601100  0.79618000  1
  Ti  Ti9  1  0.49918600  0.50318600  0.99848500  1
  O  O0  1  0.75299000  0.25165400  0.00034000  1
  O  O1  1  0.52780700  0.52951800  0.10148800  1
  O  O2  1  0.11068000  0.12289500  0.30165700  1
  O  O3  1  0.84819200  0.34944300  0.20247000  1
  O  O4  1  0.75557500  0.75536000  0.00912200  1
  O  O5  1  0.84340000  0.85245500  0.19069800  1
  O  O6  1  0.70403800  0.71926100  0.50027700  1
  O  O7  1  0.44758500  0.95071200  0.40145200  1
  O  O8  1  0.45435200  0.43639900  0.38470900  1
  O  O9  1  0.36740800  0.35226100  0.21428100  1
  O  O10  1  0.35906100  0.86016400  0.20281100  1
  O  O11  1  0.07537400  0.07570200  0.10136400  1
  O  O12  1  0.30969200  0.31842900  0.69902600  1
  O  O13  1  0.14789600  0.64609900  0.79813800  1
  O  O14  1  0.04593000  0.54790100  0.60016200  1
  O  O15  1  0.96144100  0.96142600  0.41621200  1
  O  O16  1  0.05263500  0.03500200  0.58378200  1
  O  O17  1  0.95731700  0.46105200  0.40128300  1
  O  O18  1  0.68328200  0.69682300  0.30150300  1
  O  O19  1  0.92586600  0.92814500  0.89940900  1
  O  O20  1  0.65431900  0.15212100  0.79806500  1
  O  O21  1  0.56014900  0.55910000  0.61536000  1
  O  O22  1  0.65569900  0.63254700  0.78613800  1
  O  O23  1  0.55537400  0.05731200  0.59999300  1
  O  O24  1  0.28464700  0.30161200  0.50042700  1
  O  O25  1  0.15219200  0.16002500  0.80993500  1
  O  O26  1  0.24918400  0.24401900  0.99108800  1
  O  O27  1  0.88277100  0.89271900  0.69900300  1
  O  O28  1  0.47337400  0.47460100  0.89938300  1
  O  O29  1  0.25003100  0.74888200  0.00012400  1
loop_
_geom_bond_atom_site_label_1
_geom_bond_atom_site_label_2
_geom_bond_distance
_geom_bond_site_symmetry_2
Na0 O18 2.603633 1_455
Na0 O8 2.606757 1_555
Na0 O9 2.613489 1_555
Na0 O2 2.668910 1_565
Na0 O17 2.708586 1_455
Na0 O3 2.720189 1_455
Na0 O10 2.794113 1_555
Na0 O7 2.794765 1_555
Na0 O2 2.897006 1_555
Na0 O5 2.944844 1_455
Na0 O18 2.971598 1_555
Na0 O15 3.017012 1_455
Na1 O15 2.548605 1_545
Na1 O24 2.582110 1_555
Na1 O16 2.625836 1_655
Na1 O6 2.633010 1_555
Na1 O7 2.719402 1_545
Na1 O23 2.721652 1_555
Na1 O14 2.778083 1_655
Na1 O17 2.797093 1_555
Na1 O8 2.929147 1_555
Na1 O6 2.936214 1_545
Na1 O24 2.994874 1_655
Na1 O21 3.001579 1_555
Na2 O21 2.561627 1_555
Na2 O27 2.588677 1_455
Na2 O12 2.609791 1_565
Na2 O22 2.684892 1_555
Na2 O14 2.752007 1_555
Na2 O13 2.762969 1_555
Na2 O23 2.780596 1_565
Na2 O20 2.784085 1_565
Na2 O16 2.929743 1_565
Na2 O25 2.947832 1_565
Na2 O12 2.954905 1_555
Na2 O27 2.975401 1_555
La0 O18 2.476024 1_545
La0 O8 2.547681 1_555
La0 O2 2.555864 1_655
La0 O9 2.560290 1_555
La0 O10 2.646282 1_545
La0 O3 2.736851 1_555
La0 O7 2.767858 1_545
La0 O5 2.851569 1_545
La0 O17 2.859712 1_555
La0 O15 2.987000 1_545
La0 O2 2.992202 1_555
La0 O18 3.085583 1_555
La1 O24 2.479386 1_555
La1 O16 2.526443 1_565
La1 O6 2.540019 1_555
La1 O15 2.542997 1_455
La1 O17 2.657909 1_455
La1 O7 2.731694 1_555
La1 O14 2.781809 1_555
La1 O23 2.836460 1_565
La1 O6 3.012267 1_455
La1 O21 3.014134 1_555
La1 O8 3.014724 1_555
La1 O24 3.085819 1_565
La2 O21 2.520914 1_555
La2 O22 2.544634 1_555
La2 O27 2.552220 1_545
La2 O12 2.572440 1_655
La2 O23 2.686713 1_555
La2 O14 2.706298 1_655
La2 O20 2.746521 1_555
La2 O13 2.765217 1_655
La2 O25 2.941114 1_655
La2 O12 2.983422 1_555
La2 O27 3.011213 1_555
La2 O16 3.020276 1_655
O0 Ti7 1.949076 1_554
O0 Ti9 1.989687 1_554
O0 Sr0 2.750867 1_655
O0 Sr1 2.752031 1_555
O0 Sr3 2.778899 1_554
O0 Sr2 2.806102 1_544
O1 Ti2 1.949710 1_555
O1 Ti9 2.019197 1_554
O1 Sr0 2.655925 1_555
O1 Sr1 2.658802 1_555
O1 Sr0 2.893135 1_655
O1 Sr1 2.896824 1_565
O2 Ti4 1.928218 1_555
O2 Ti0 1.989469 1_555
O3 Ti2 1.948648 1_555
O3 Ti0 1.982169 1_655
O3 Sr1 2.796639 1_555
O3 Sr0 2.799163 1_655
O4 Ti9 1.956466 1_554
O4 Ti7 1.968831 1_564
O4 Sr1 2.637211 1_565
O4 Sr0 2.650262 1_655
O4 Sr3 2.905376 1_554
O4 Sr2 2.950962 1_554
O5 Ti0 1.912419 1_665
O5 Ti2 2.005021 1_555
O5 Sr1 2.636090 1_565
O5 Sr0 2.661202 1_655
O6 Ti5 1.928837 1_555
O6 Ti1 1.990628 1_555
O7 Ti4 1.933857 1_565
O7 Ti1 2.007282 1_555
O8 Ti1 1.903567 1_555
O8 Ti4 2.042738 1_555
O9 Ti2 1.929503 1_555
O9 Ti0 2.024065 1_555
O9 Sr1 2.950941 1_555
O9 Sr0 3.012532 1_555
O10 Ti0 1.958291 1_565
O10 Ti2 1.989841 1_555
O10 Sr1 2.772361 1_565
O10 Sr0 2.840729 1_555
O11 Ti0 1.947669 1_555
O11 Ti7 2.020404 1_454
O11 Sr1 2.640599 1_555
O11 Sr0 2.644327 1_555
O11 Sr1 2.910556 1_455
O11 Sr0 2.912124 1_545
O12 Ti6 1.917934 1_555
O12 Ti3 1.995188 1_555
O13 Ti6 1.927508 1_555
O13 Ti8 2.008973 1_455
O13 Sr3 2.750456 1_455
O13 Sr2 2.772190 1_555
O14 Ti3 1.969410 1_555
O14 Ti5 1.973536 1_455
O15 Ti4 1.910501 1_665
O15 Ti1 2.054733 1_555
O16 Ti3 1.938821 1_555
O16 Ti5 2.019341 1_445
O17 Ti1 1.931589 1_555
O17 Ti4 2.009172 1_655
O18 Ti1 1.941356 1_555
O18 Ti2 1.988951 1_555
O19 Ti7 1.939203 1_565
O19 Ti8 2.025570 1_555
O19 Sr3 2.638816 1_555
O19 Sr2 2.647135 1_555
O19 Sr2 2.904307 1_655
O19 Sr3 2.916300 1_565
O20 Ti8 1.927433 1_545
O20 Ti6 2.011739 1_555
O20 Sr3 2.760358 1_555
O20 Sr2 2.764276 1_545
O21 Ti5 1.937729 1_555
O21 Ti3 2.018740 1_555
O22 Ti6 1.978804 1_555
O22 Ti8 1.988420 1_555
O22 Sr3 2.883288 1_555
O22 Sr2 3.003607 1_555
O23 Ti5 1.965497 1_545
O23 Ti3 1.969725 1_555
O24 Ti3 1.931736 1_555
O24 Ti4 2.004173 1_555
O25 Ti8 1.951439 1_445
O25 Ti6 1.959149 1_555
O25 Sr3 2.612781 1_455
O25 Sr2 2.614986 1_545
O26 Ti7 1.955800 1_455
O26 Ti9 1.966040 1_555
O26 Sr2 2.660380 1_545
O26 Sr3 2.692988 1_455
O26 Sr1 2.867305 1_556
O26 Sr0 2.923950 1_556
O27 Ti8 1.915720 1_555
O27 Ti5 1.997396 1_555
O28 Ti9 1.942191 1_555
O28 Ti6 2.022052 1_555
O28 Sr3 2.643487 1_555
O28 Sr2 2.662740 1_555
O28 Sr2 2.893113 1_545
O28 Sr3 2.905180 1_455
O29 Ti9 1.948425 1_554
O29 Ti7 1.987718 1_464
O29 Sr1 2.750433 1_565
O29 Sr0 2.765176 1_555
O29 Sr3 2.765895 1_454
O29 Sr2 2.812923 1_554
