# generated using pymatgen
data_Rb2ZnCl4
_symmetry_space_group_name_H-M   'P 1'
_cell_length_a   7.22689508
_cell_length_b   9.28489480
_cell_length_c   12.77547047
_cell_angle_alpha   90.00000000
_cell_angle_beta   90.00000000
_cell_angle_gamma   90.00000000
_symmetry_Int_Tables_number   1
_chemical_formula_structural   Rb2ZnCl4
_chemical_formula_sum   'Rb8 Zn4 Cl16'
_cell_volume   857.24634000
_cell_formula_units_Z   4
loop_
 _symmetry_equiv_pos_site_id
 _symmetry_equiv_pos_as_xyz
  1  'x, y, z'
loop_
 _atom_site_type_symbol
 _atom_site_label
 _atom_site_symmetry_multiplicity
 _atom_site_fract_x
 _atom_site_fract_y
 _atom_site_fract_z
 _atom_site_occupancy
  Rb  Rb0  1  0.75000000  0.87341079  0.08134742  1
  Rb  Rb1  1  0.75000000  0.01602850  0.67749255  1
  Rb  Rb2  1  0.75000000  0.51602850  0.82250745  1
  Rb  Rb3  1  0.75000000  0.37341079  0.41865258  1
  Rb  Rb4  1  0.25000000  0.12658921  0.91865258  1
  Rb  Rb5  1  0.25000000  0.98397150  0.32250745  1
  Rb  Rb6  1  0.25000000  0.48397150  0.17749255  1
  Rb  Rb7  1  0.25000000  0.62658921  0.58134742  1
  Zn  Zn0  1  0.75000000  0.77536469  0.42267596  1
  Zn  Zn1  1  0.25000000  0.72463531  0.92267596  1
  Zn  Zn2  1  0.25000000  0.22463531  0.57732404  1
  Zn  Zn3  1  0.75000000  0.27536469  0.07732404  1
  Cl  Cl0  1  0.25000000  0.48300570  0.91397603  1
  Cl  Cl1  1  0.99691090  0.31978950  0.65456973  1
  Cl  Cl2  1  0.25000000  0.81684750  0.08803406  1
  Cl  Cl3  1  0.25000000  0.31684750  0.41196594  1
  Cl  Cl4  1  0.75000000  0.68315250  0.58803406  1
  Cl  Cl5  1  0.49691090  0.68021050  0.34543027  1
  Cl  Cl6  1  0.25000000  0.98300570  0.58602397  1
  Cl  Cl7  1  0.00308910  0.18021050  0.15456973  1
  Cl  Cl8  1  0.75000000  0.51699430  0.08602397  1
  Cl  Cl9  1  0.99691090  0.81978950  0.84543027  1
  Cl  Cl10  1  0.00308910  0.68021050  0.34543027  1
  Cl  Cl11  1  0.50308910  0.31978950  0.65456973  1
  Cl  Cl12  1  0.75000000  0.18315250  0.91196594  1
  Cl  Cl13  1  0.49691090  0.18021050  0.15456973  1
  Cl  Cl14  1  0.75000000  0.01699430  0.41397603  1
  Cl  Cl15  1  0.50308910  0.81978950  0.84543027  1
loop_
_geom_bond_atom_site_label_1
_geom_bond_atom_site_label_2
_geom_bond_distance
_geom_bond_site_symmetry_2
Cl0 Zn1 2.246257 1_555
Cl0 Rb4 3.309829 1_555
Cl0 Rb6 3.366559 1_556
Cl0 Rb2 3.810057 1_555
Cl0 Rb2 3.810057 1_455
Cl1 Zn2 2.258286 1_655
Cl1 Rb2 3.332728 1_555
Cl1 Rb1 3.350289 1_555
Cl1 Rb7 3.512125 1_655
Cl1 Rb3 3.537777 1_555
Cl2 Zn1 2.279434 1_554
Cl2 Rb6 3.295255 1_555
Cl2 Rb5 3.373563 1_555
Cl2 Rb4 3.599097 1_564
Cl2 Rb0 3.652413 1_455
Cl2 Rb0 3.652413 1_555
Cl3 Zn2 2.279434 1_555
Cl3 Rb5 3.295255 1_545
Cl3 Rb6 3.373563 1_555
Cl3 Rb7 3.599097 1_555
Cl3 Rb3 3.652413 1_555
Cl3 Rb3 3.652413 1_455
Cl4 Zn0 2.279434 1_555
Cl4 Rb1 3.295255 1_565
Cl4 Rb2 3.373563 1_555
Cl4 Rb3 3.599097 1_555
Cl4 Rb7 3.652413 1_655
Cl4 Rb7 3.652413 1_555
Cl5 Zn0 2.258286 1_555
Cl5 Rb6 3.332728 1_555
Cl5 Rb5 3.350289 1_555
Cl5 Rb3 3.512125 1_555
Cl5 Rb7 3.537777 1_555
Cl6 Zn2 2.246257 1_565
Cl6 Rb7 3.309829 1_555
Cl6 Rb5 3.366559 1_555
Cl6 Rb1 3.810057 1_465
Cl6 Rb1 3.810057 1_565
Cl7 Zn3 2.258286 1_455
Cl7 Rb5 3.332728 1_545
Cl7 Rb6 3.350289 1_555
Cl7 Rb0 3.512125 1_445
Cl7 Rb4 3.537777 1_554
Cl8 Zn3 2.246257 1_555
Cl8 Rb0 3.309829 1_555
Cl8 Rb2 3.366559 1_554
Cl8 Rb6 3.810057 1_555
Cl8 Rb6 3.810057 1_655
Cl9 Zn1 2.258286 1_655
Cl9 Rb1 3.332728 1_565
Cl9 Rb2 3.350289 1_555
Cl9 Rb4 3.512125 1_665
Cl9 Rb0 3.537777 1_556
Cl10 Zn0 2.258286 1_455
Cl10 Rb6 3.332728 1_555
Cl10 Rb5 3.350289 1_555
Cl10 Rb3 3.512125 1_455
Cl10 Rb7 3.537777 1_555
Cl11 Zn2 2.258286 1_555
Cl11 Rb2 3.332728 1_555
Cl11 Rb1 3.350289 1_555
Cl11 Rb7 3.512125 1_555
Cl11 Rb3 3.537777 1_555
Cl12 Zn3 2.279434 1_556
Cl12 Rb2 3.295255 1_555
Cl12 Rb1 3.373563 1_555
Cl12 Rb0 3.599097 1_546
Cl12 Rb4 3.652413 1_555
Cl12 Rb4 3.652413 1_655
Cl13 Zn3 2.258286 1_555
Cl13 Rb5 3.332728 1_545
Cl13 Rb6 3.350289 1_555
Cl13 Rb0 3.512125 1_545
Cl13 Rb4 3.537777 1_554
Cl14 Zn0 2.246257 1_545
Cl14 Rb3 3.309829 1_555
Cl14 Rb1 3.366559 1_555
Cl14 Rb5 3.810057 1_545
Cl14 Rb5 3.810057 1_645
Cl15 Zn1 2.258286 1_555
Cl15 Rb1 3.332728 1_565
Cl15 Rb2 3.350289 1_555
Cl15 Rb4 3.512125 1_565
Cl15 Rb0 3.537777 1_556
