# generated using pymatgen
data_Cu2GeP2(H5O7)2
_symmetry_space_group_name_H-M   'P 1'
_cell_length_a   8.69438300
_cell_length_b   5.14088800
_cell_length_c   13.48988321
_cell_angle_alpha   68.17465406
_cell_angle_beta   90.00000000
_cell_angle_gamma   90.00000000
_symmetry_Int_Tables_number   1
_chemical_formula_structural   Cu2GeP2(H5O7)2
_chemical_formula_sum   'Cu4 Ge2 P4 H20 O28'
_cell_volume   559.73631870
_cell_formula_units_Z   2
loop_
 _symmetry_equiv_pos_site_id
 _symmetry_equiv_pos_as_xyz
  1  'x, y, z'
loop_
 _atom_site_type_symbol
 _atom_site_label
 _atom_site_symmetry_multiplicity
 _atom_site_fract_x
 _atom_site_fract_y
 _atom_site_fract_z
 _atom_site_occupancy
  Cu  Cu0  1  0.94456800  0.46823200  0.26588800  1
  Cu  Cu1  1  0.44456800  0.53176800  0.23411200  1
  Cu  Cu2  1  0.05543200  0.53176800  0.73411200  1
  Cu  Cu3  1  0.55543200  0.46823200  0.76588800  1
  Ge  Ge0  1  0.00000000  0.50000000  0.00000000  1
  Ge  Ge1  1  0.50000000  0.50000000  0.50000000  1
  P  P0  1  0.16962800  0.89846300  0.09993300  1
  P  P1  1  0.33037200  0.89846300  0.59993300  1
  P  P2  1  0.66962800  0.10153700  0.40006700  1
  P  P3  1  0.83037200  0.10153700  0.90006700  1
  H  H0  1  0.77264500  0.69644400  0.61391000  1
  H  H1  1  0.95710400  0.14258700  0.16871900  1
  H  H2  1  0.22735500  0.30355600  0.38609000  1
  H  H3  1  0.14656400  0.50741600  0.56527400  1
  H  H4  1  0.40541200  0.19942200  0.13301200  1
  H  H5  1  0.64656400  0.49258400  0.93472600  1
  H  H6  1  0.45710400  0.85741300  0.33128100  1
  H  H7  1  0.35343600  0.50741600  0.06527400  1
  H  H8  1  0.72735500  0.69644400  0.11391000  1
  H  H9  1  0.69450100  0.95344800  0.14281600  1
  H  H10  1  0.90541200  0.80057800  0.36698800  1
  H  H11  1  0.04289600  0.85741300  0.83128100  1
  H  H12  1  0.09458800  0.19942200  0.63301200  1
  H  H13  1  0.54289600  0.14258700  0.66871900  1
  H  H14  1  0.80549900  0.95344800  0.64281600  1
  H  H15  1  0.27264500  0.30355600  0.88609000  1
  H  H16  1  0.85343600  0.49258400  0.43472600  1
  H  H17  1  0.19450100  0.04655200  0.35718400  1
  H  H18  1  0.30549900  0.04655200  0.85718400  1
  H  H19  1  0.59458800  0.80057800  0.86698800  1
  O  O0  1  0.83294400  0.11927000  0.35265500  1
  O  O1  1  0.85221200  0.79343400  0.98090600  1
  O  O2  1  0.66705600  0.11927000  0.85265500  1
  O  O3  1  0.53994700  0.16955800  0.31657100  1
  O  O4  1  0.16705600  0.88073000  0.64734500  1
  O  O5  1  0.83276400  0.29903500  0.96484100  1
  O  O6  1  0.14778800  0.20656600  0.01909400  1
  O  O7  1  0.68572400  0.75006600  0.17131600  1
  O  O8  1  0.93692700  0.59953100  0.38732000  1
  O  O9  1  0.43160200  0.65359300  0.35752400  1
  O  O10  1  0.66723600  0.29903500  0.46484100  1
  O  O11  1  0.96005300  0.16955800  0.81657100  1
  O  O12  1  0.56839800  0.34640700  0.64247600  1
  O  O13  1  0.33294400  0.88073000  0.14734500  1
  O  O14  1  0.33276400  0.70096500  0.53515900  1
  O  O15  1  0.35221200  0.20656600  0.51909400  1
  O  O16  1  0.03994700  0.83044200  0.18342900  1
  O  O17  1  0.93160200  0.34640700  0.14247600  1
  O  O18  1  0.43692700  0.40046900  0.11268000  1
  O  O19  1  0.56307300  0.59953100  0.88732000  1
  O  O20  1  0.64778800  0.79343400  0.48090600  1
  O  O21  1  0.81427600  0.75006600  0.67131600  1
  O  O22  1  0.18572400  0.24993400  0.32868400  1
  O  O23  1  0.31427600  0.24993400  0.82868400  1
  O  O24  1  0.06839800  0.65359300  0.85752400  1
  O  O25  1  0.46005300  0.83044200  0.68342900  1
  O  O26  1  0.16723600  0.70096500  0.03515900  1
  O  O27  1  0.06307300  0.40046900  0.61268000  1
loop_
_geom_bond_atom_site_label_1
_geom_bond_atom_site_label_2
_geom_bond_distance
_geom_bond_site_symmetry_2
Cu0 O16 1.962711 1_655
Cu0 O17 1.987919 1_555
Cu0 O8 1.991374 1_555
Cu0 O0 1.992212 1_555
Cu0 O22 2.380403 1_655
Cu1 O3 1.962711 1_555
Cu1 O9 1.987919 1_555
Cu1 O18 1.991374 1_555
Cu1 O13 1.992212 1_555
Cu1 O7 2.380403 1_555
Cu2 O11 1.962711 1_455
Cu2 O24 1.987919 1_555
Cu2 O27 1.991374 1_555
Cu2 O4 1.992212 1_555
Cu2 O21 2.380403 1_455
Cu3 O25 1.962711 1_555
Cu3 O12 1.987919 1_555
Cu3 O19 1.991374 1_555
Cu3 O2 1.992212 1_555
Cu3 O23 2.380403 1_555
Ge0 O24 1.882210 1_554
Ge0 O17 1.882210 1_455
Ge0 O6 1.924596 1_555
Ge0 O1 1.924596 1_454
Ge0 O26 1.941863 1_555
Ge0 O5 1.941863 1_454
Ge1 O12 1.882210 1_555
Ge1 O9 1.882210 1_555
Ge1 O20 1.924596 1_555
Ge1 O15 1.924596 1_555
Ge1 O10 1.941863 1_555
Ge1 O14 1.941863 1_555
H0 O21 0.982563 1_555
H1 O17 0.998293 1_555
H1 O16 1.701900 1_645
H2 O22 0.982563 1_555
H3 O27 0.988304 1_555
H4 O18 1.003876 1_555
H4 O13 1.697954 1_545
H5 O19 0.988304 1_555
H6 O9 0.998293 1_555
H6 O3 1.701900 1_565
H7 O18 0.988304 1_555
H8 O7 0.982563 1_555
H9 O7 0.973624 1_555
H10 O8 1.003876 1_555
H10 O0 1.697954 1_565
H11 O24 0.998293 1_555
H11 O11 1.701900 1_465
H12 O27 1.003876 1_555
H12 O4 1.697954 1_545
H13 O12 0.998293 1_555
H13 O25 1.701900 1_545
H14 O21 0.973624 1_555
H15 O23 0.982563 1_555
H16 O8 0.988304 1_555
H17 O22 0.973624 1_555
H18 O23 0.973624 1_555
H19 O19 1.003876 1_555
H19 O2 1.697954 1_565
O0 P2 1.546036 1_555
O1 P3 1.565166 1_565
O2 P3 1.546036 1_555
O3 P2 1.539263 1_555
O4 P1 1.546036 1_555
O5 P3 1.566678 1_555
O6 P0 1.565166 1_545
O10 P2 1.566678 1_555
O11 P3 1.539263 1_555
O13 P0 1.546036 1_555
O14 P1 1.566678 1_555
O15 P1 1.565166 1_545
O16 P0 1.539263 1_555
O20 P2 1.565166 1_565
O25 P1 1.539263 1_555
O26 P0 1.566678 1_555
