# generated using pymatgen
data_Ca2Al4Si4H18O25
_symmetry_space_group_name_H-M   'P 1'
_cell_length_a   9.87706000
_cell_length_b   10.42864878
_cell_length_c   10.71937844
_cell_angle_alpha   91.24429947
_cell_angle_beta   90.23049588
_cell_angle_gamma   92.30497962
_symmetry_Int_Tables_number   1
_chemical_formula_structural   Ca2Al4Si4H18O25
_chemical_formula_sum   'Ca4 Al8 Si8 H36 O50'
_cell_volume   1102.97627286
_cell_formula_units_Z   2
loop_
 _symmetry_equiv_pos_site_id
 _symmetry_equiv_pos_as_xyz
  1  'x, y, z'
loop_
 _atom_site_type_symbol
 _atom_site_label
 _atom_site_symmetry_multiplicity
 _atom_site_fract_x
 _atom_site_fract_y
 _atom_site_fract_z
 _atom_site_occupancy
  Ca  Ca0  1  0.15283500  0.27251900  0.57076500  1
  Ca  Ca1  1  0.42643700  0.73872600  0.11553400  1
  Ca  Ca2  1  0.64247400  0.31274600  0.87602300  1
  Ca  Ca3  1  0.84913500  0.73123200  0.34976600  1
  Al  Al0  1  0.20055900  0.59625800  0.88098900  1
  Al  Al1  1  0.16443800  0.07895200  0.12766700  1
  Al  Al2  1  0.31573900  0.90535000  0.61776000  1
  Al  Al3  1  0.36463000  0.40224000  0.34650000  1
  Al  Al4  1  0.64808500  0.57034000  0.64265000  1
  Al  Al5  1  0.69179200  0.10575600  0.36686900  1
  Al  Al6  1  0.80699800  0.90882600  0.90393300  1
  Al  Al7  1  0.83985300  0.41892300  0.12648200  1
  Si  Si0  1  0.14360000  0.90559500  0.87846500  1
  Si  Si1  1  0.17048600  0.40089700  0.10899700  1
  Si  Si2  1  0.32236500  0.60196400  0.58043400  1
  Si  Si3  1  0.35057300  0.09362000  0.37618800  1
  Si  Si4  1  0.64229100  0.91276300  0.66222500  1
  Si  Si5  1  0.69661800  0.40977700  0.40374300  1
  Si  Si6  1  0.03186200  0.57450500  0.66678700  1
  Si  Si7  1  0.83705500  0.02321600  0.18492200  1
  H  H0  1  0.96447300  0.90950300  0.70711000  1
  H  H1  1  0.02834300  0.52948700  0.28597000  1
  H  H2  1  0.07947600  0.75666200  0.57412200  1
  H  H3  1  0.13195200  0.90862800  0.41915000  1
  H  H4  1  0.12909700  0.58360000  0.38703300  1
  H  H5  1  0.12422000  0.26219200  0.33531000  1
  H  H6  1  0.36665400  0.79211500  0.87056600  1
  H  H7  1  0.34243300  0.39050700  0.89555100  1
  H  H8  1  0.41593500  0.07304000  0.93848800  1
  H  H9  1  0.35543400  0.25472300  0.08678800  1
  H  H10  1  0.34700000  0.32705200  0.71254000  1
  H  H11  1  0.44778700  0.47661900  0.82343900  1
  H  H12  1  0.48288200  0.00333400  0.17159100  1
  H  H13  1  0.43521300  0.79467000  0.37011200  1
  H  H14  1  0.50708700  0.24108800  0.66050400  1
  H  H15  1  0.49204400  0.04813800  0.81489100  1
  H  H16  1  0.55899000  0.53467800  0.26422300  1
  H  H17  1  0.50242900  0.78316300  0.33675000  1
  H  H18  1  0.67081400  0.71040900  0.89445600  1
  H  H19  1  0.60151300  0.96174400  0.08096600  1
  H  H20  1  0.68257000  0.55779900  0.06513100  1
  H  H21  1  0.57753200  0.98735100  0.48637300  1
  H  H22  1  0.64782600  0.23711900  0.59257500  1
  H  H23  1  0.76733800  0.21768900  0.09235900  1
  H  H24  1  0.78796600  0.75960700  0.68651000  1
  H  H25  1  0.84771900  0.68789500  0.08175500  1
  H  H26  1  0.97381100  0.14006800  0.91224800  1
  H  H27  1  0.85750500  0.36918100  0.61159800  1
  H  H28  1  0.90332100  0.11297800  0.56957400  1
  H  H29  1  0.96477200  0.25540400  0.33586200  1
  H  H30  1  0.90708800  0.58700600  0.85463400  1
  H  H31  1  0.00483100  0.01643000  0.62190100  1
  H  H32  1  0.88865400  0.38298000  0.74914600  1
  H  H33  1  0.02851200  0.94917600  0.32114500  1
  H  H34  1  0.01357300  0.20182800  0.92338900  1
  H  H35  1  0.98571600  0.77392700  0.09662900  1
  O  O0  1  0.97986000  0.91516500  0.86580300  1
  O  O1  1  0.99742800  0.71703300  0.61254200  1
  O  O2  1  0.04277500  0.88299600  0.38465100  1
  O  O3  1  0.01730000  0.43595300  0.14327000  1
  O  O4  1  0.03865500  0.59645700  0.35317200  1
  O  O5  1  0.17993900  0.75829400  0.91661200  1
  O  O6  1  0.20628200  0.99653000  0.99066100  1
  O  O7  1  0.21054700  0.93932800  0.74360700  1
  O  O8  1  0.20489200  0.56439600  0.70263900  1
  O  O9  1  0.20401100  0.45469200  0.96729100  1
  O  O10  1  0.19746500  0.24547100  0.10310500  1
  O  O11  1  0.27716700  0.74784800  0.55344900  1
  O  O12  1  0.27760400  0.49526900  0.47314300  1
  O  O13  1  0.27621800  0.46225800  0.21541900  1
  O  O14  1  0.27613900  0.03971200  0.24917600  1
  O  O15  1  0.29084400  0.01793800  0.49964100  1
  O  O16  1  0.31129100  0.24603200  0.40347900  1
  O  O17  1  0.42128200  0.38462500  0.83652500  1
  O  O18  1  0.47217300  0.58919500  0.63324700  1
  O  O19  1  0.48136500  0.90673100  0.67742400  1
  O  O20  1  0.44843300  0.74390100  0.89091300  1
  O  O21  1  0.47661900  0.11476500  0.87774200  1
  O  O22  1  0.50271400  0.94816000  0.09937900  1
  O  O23  1  0.46084400  0.26796300  0.08282500  1
  O  O24  1  0.51310100  0.07387500  0.36265800  1
  O  O25  1  0.53569700  0.44218900  0.38349900  1
  O  O26  1  0.55380800  0.58579900  0.18552500  1
  O  O27  1  0.60070600  0.21812800  0.67352400  1
  O  O28  1  0.62928100  0.71001700  0.21466900  1
  O  O29  1  0.70271700  0.75844100  0.63755200  1
  O  O30  1  0.66898600  0.98813100  0.52750400  1
  O  O31  1  0.72789900  0.97948300  0.77426900  1
  O  O32  1  0.70398200  0.48629200  0.76596400  1
  O  O33  1  0.74442300  0.52021900  0.51084300  1
  O  O34  1  0.71605600  0.26026900  0.45405700  1
  O  O35  1  0.76256400  0.74684100  0.88999400  1
  O  O36  1  0.77223800  0.53757000  0.03349400  1
  O  O37  1  0.78489900  0.44221200  0.28141800  1
  O  O38  1  0.77711200  0.94912700  0.30983700  1
  O  O39  1  0.77099400  0.97946100  0.04941000  1
  O  O40  1  0.79054700  0.28432900  0.03010500  1
  O  O41  1  0.49881900  0.30603300  0.20027700  1
  O  O42  1  0.90687400  0.74193900  0.14122400  1
  O  O43  1  0.38618900  0.61699000  0.92231500  1
  O  O44  1  0.77452600  0.16205000  0.22849200  1
  O  O45  1  0.92683700  0.34452000  0.67256400  1
  O  O46  1  0.99909200  0.57006500  0.82108600  1
  O  O47  1  0.99993100  0.09927800  0.57661000  1
  O  O48  1  0.04496700  0.28804100  0.38269600  1
  O  O49  1  0.00207400  0.03439100  0.18241400  1
loop_
_geom_bond_atom_site_label_1
_geom_bond_atom_site_label_2
_geom_bond_distance
_geom_bond_site_symmetry_2
Ca0 O48 2.288290 1_555
Ca0 O47 2.309765 1_455
Ca0 O16 2.403578 1_555
Ca0 H10 2.482377 1_555
Ca0 O45 2.618417 1_455
Ca0 O12 2.809922 1_555
Ca1 O26 2.212419 1_555
Ca1 O22 2.291955 1_555
Ca1 O28 2.297358 1_555
Ca1 O20 2.420023 1_554
Ca1 O43 2.428614 1_554
Ca1 H17 2.512201 1_555
Ca2 O40 2.234163 1_556
Ca2 O32 2.246450 1_555
Ca2 O17 2.377449 1_555
Ca2 O27 2.392207 1_555
Ca2 O21 2.583916 1_555
Ca2 O23 2.891395 1_556
Ca3 O42 2.313195 1_555
Ca3 O4 2.386240 1_655
Ca3 O38 2.454108 1_555
Ca3 O2 2.455163 1_655
Ca3 O28 2.604554 1_555
Ca3 O33 2.981584 1_555
Al0 O5 1.744436 1_555
Al0 O9 1.760590 1_555
Al0 O43 1.887339 1_555
Al0 O8 1.934279 1_555
Al0 O46 2.094045 1_455
Al1 O6 1.745026 1_544
Al1 O49 1.758298 1_555
Al1 O14 1.768925 1_555
Al1 O10 1.779434 1_555
Al2 O7 1.744990 1_555
Al2 O19 1.753481 1_555
Al2 O15 1.768479 1_565
Al2 O11 1.793508 1_555
Al3 O25 1.765376 1_555
Al3 O13 1.789117 1_555
Al3 O16 1.811391 1_555
Al3 O12 1.882083 1_555
Al3 O41 2.296841 1_555
Al4 O32 1.704035 1_555
Al4 O18 1.759159 1_555
Al4 O33 1.787075 1_555
Al4 O29 2.015425 1_555
Al5 O24 1.783004 1_555
Al5 O44 1.794889 1_555
Al5 O34 1.851791 1_555
Al5 O38 1.955376 1_545
Al6 O35 1.731328 1_555
Al6 O39 1.754002 1_556
Al6 O0 1.756202 1_555
Al6 O31 1.779678 1_555
Al7 O36 1.756480 1_555
Al7 O3 1.762601 1_655
Al7 O37 1.764158 1_555
Al7 O40 1.775568 1_555
H0 O0 1.706789 1_555
H1 O4 0.994438 1_555
H2 O1 0.990093 1_455
H3 O2 0.978866 1_555
H4 O4 0.978187 1_555
H5 O48 0.978601 1_555
H6 O20 0.994403 1_555
H7 O17 1.008338 1_555
H7 O9 1.722898 1_555
H8 O21 0.983399 1_555
H9 O23 1.045892 1_555
H9 O10 1.570083 1_555
H10 O17 1.608479 1_555
H11 O17 0.997269 1_555
H12 O22 0.979575 1_545
H13 H17 0.767793 1_555
H14 O27 0.974714 1_555
H15 O21 0.974122 1_555
H16 O26 1.009886 1_555
H16 O25 1.629743 1_555
H18 O35 0.970215 1_555
H19 O22 1.001469 1_555
H19 O39 1.712641 1_555
H20 O36 0.978896 1_555
H21 O30 1.003221 1_555
H22 O27 1.006017 1_555
H22 O34 1.651571 1_555
H23 O40 0.994689 1_555
H23 O44 1.584429 1_555
H24 O29 0.989892 1_555
H25 O42 1.010105 1_555
H26 H34 0.747841 1_655
H27 O45 0.989969 1_555
H28 O47 0.973395 1_555
H29 O48 0.981317 1_655
H30 O46 0.999554 1_555
H31 O47 1.002955 1_455
H32 O45 0.988613 1_555
H33 O2 0.993502 1_555
H35 O42 0.967077 1_555
O0 Si0 1.629647 1_655
O1 Si6 1.655204 1_655
O3 Si1 1.612765 1_555
O5 Si0 1.651134 1_555
O6 Si0 1.620585 1_555
O7 Si0 1.631503 1_555
O8 Si6 1.757997 1_555
O8 Si2 1.792684 1_555
O9 Si1 1.660679 1_556
O10 Si1 1.653085 1_555
O11 Si2 1.634089 1_555
O12 Si2 1.630031 1_555
O13 Si1 1.645121 1_555
O14 Si3 1.623475 1_555
O15 Si3 1.654203 1_555
O16 Si3 1.671166 1_555
O18 Si2 1.593742 1_555
O19 Si4 1.597317 1_555
O20 O43 1.482738 1_555
O23 O41 1.358652 1_555
O24 Si3 1.633274 1_555
O25 Si5 1.652648 1_555
O26 O28 1.494756 1_555
O29 Si4 1.753931 1_555
O30 Si4 1.675853 1_555
O31 Si4 1.596813 1_555
O33 Si5 1.661919 1_555
O34 Si5 1.678842 1_555
O37 Si5 1.612090 1_555
O38 Si7 1.659815 1_565
O39 Si7 1.638186 1_565
O44 Si7 1.655510 1_555
O46 Si6 1.687903 1_655
O49 Si7 1.629753 1_455
