# generated using pymatgen
data_Na5YbH4(C2O7)2
_symmetry_space_group_name_H-M   'P 1'
_cell_length_a   7.78099300
_cell_length_b   7.78099300
_cell_length_c   11.58244600
_cell_angle_alpha   90.00000000
_cell_angle_beta   90.00000000
_cell_angle_gamma   90.00000000
_symmetry_Int_Tables_number   1
_chemical_formula_structural   Na5YbH4(C2O7)2
_chemical_formula_sum   'Na10 Yb2 H8 C8 O28'
_cell_volume   701.24589719
_cell_formula_units_Z   2
loop_
 _symmetry_equiv_pos_site_id
 _symmetry_equiv_pos_as_xyz
  1  'x, y, z'
loop_
 _atom_site_type_symbol
 _atom_site_label
 _atom_site_symmetry_multiplicity
 _atom_site_fract_x
 _atom_site_fract_y
 _atom_site_fract_z
 _atom_site_occupancy
  Na  Na0  1  0.00000000  0.00000000  0.50000000  1
  Na  Na1  1  0.50000000  0.50000000  0.00000000  1
  Na  Na2  1  0.67989600  0.82264500  0.70697500  1
  Na  Na3  1  0.17989600  0.67735500  0.79302500  1
  Na  Na4  1  0.32010400  0.17735500  0.70697500  1
  Na  Na5  1  0.82010400  0.32264500  0.79302500  1
  Na  Na6  1  0.82264500  0.32010400  0.29302500  1
  Na  Na7  1  0.67735500  0.82010400  0.20697500  1
  Na  Na8  1  0.17735500  0.67989600  0.29302500  1
  Na  Na9  1  0.32264500  0.17989600  0.20697500  1
  Yb  Yb0  1  0.50000000  0.50000000  0.50000000  1
  Yb  Yb1  1  0.00000000  0.00000000  0.00000000  1
  H  H0  1  0.92253300  0.56603400  0.61489200  1
  H  H1  1  0.42253300  0.93396600  0.88510800  1
  H  H2  1  0.07746700  0.43396600  0.61489200  1
  H  H3  1  0.57746700  0.06603400  0.88510800  1
  H  H4  1  0.56603400  0.07746700  0.38510800  1
  H  H5  1  0.93396600  0.57746700  0.11489200  1
  H  H6  1  0.43396600  0.92253300  0.38510800  1
  H  H7  1  0.06603400  0.42253300  0.11489200  1
  C  C0  1  0.78848700  0.68281800  0.42073300  1
  C  C1  1  0.28848700  0.81718200  0.07926700  1
  C  C2  1  0.21151300  0.31718200  0.42073300  1
  C  C3  1  0.71151300  0.18281800  0.07926700  1
  C  C4  1  0.68281800  0.21151300  0.57926700  1
  C  C5  1  0.81718200  0.71151300  0.92073300  1
  C  C6  1  0.31718200  0.78848700  0.57926700  1
  C  C7  1  0.18281800  0.28848700  0.92073300  1
  O  O0  1  0.68728100  0.59734100  0.35201100  1
  O  O1  1  0.18728100  0.90265900  0.14798900  1
  O  O2  1  0.31271900  0.40265900  0.35201100  1
  O  O3  1  0.81271900  0.09734100  0.14798900  1
  O  O4  1  0.59734100  0.31271900  0.64798900  1
  O  O5  1  0.90265900  0.81271900  0.85201100  1
  O  O6  1  0.40265900  0.68728100  0.64798900  1
  O  O7  1  0.09734100  0.18728100  0.85201100  1
  O  O8  1  0.75983300  0.67098000  0.53172100  1
  O  O9  1  0.25983300  0.82902000  0.96827900  1
  O  O10  1  0.24016700  0.32902000  0.53172100  1
  O  O11  1  0.74016700  0.17098000  0.96827900  1
  O  O12  1  0.67098000  0.24016700  0.46827900  1
  O  O13  1  0.82902000  0.74016700  0.03172100  1
  O  O14  1  0.32902000  0.75983300  0.46827900  1
  O  O15  1  0.17098000  0.25983300  0.03172100  1
  O  O16  1  0.90984900  0.77585500  0.37977300  1
  O  O17  1  0.40984900  0.72414500  0.12022700  1
  O  O18  1  0.09015100  0.22414500  0.37977300  1
  O  O19  1  0.59015100  0.27585500  0.12022700  1
  O  O20  1  0.77585500  0.09015100  0.62022700  1
  O  O21  1  0.72414500  0.59015100  0.87977300  1
  O  O22  1  0.22414500  0.90984900  0.62022700  1
  O  O23  1  0.27585500  0.40984900  0.87977300  1
  O  O24  1  0.00000000  0.50000000  0.66652500  1
  O  O25  1  0.50000000  0.00000000  0.83347500  1
  O  O26  1  0.50000000  0.00000000  0.33347500  1
  O  O27  1  0.00000000  0.50000000  0.16652500  1
loop_
_geom_bond_atom_site_label_1
_geom_bond_atom_site_label_2
_geom_bond_distance
_geom_bond_site_symmetry_2
Na0 O18 2.339435 1_555
Na0 O22 2.339435 1_545
Na0 O16 2.339435 1_445
Na0 O20 2.339435 1_455
Na1 O21 2.339435 1_554
Na1 O23 2.339435 1_554
Na1 O19 2.339435 1_555
Na1 O17 2.339435 1_555
Na2 O5 2.415020 1_555
Na2 O20 2.428891 1_565
Na2 O8 2.428969 1_555
Na2 O25 2.451632 1_565
Na2 O6 2.495908 1_555
Na2 O21 2.719714 1_555
Na3 O6 2.415020 1_555
Na3 O23 2.428891 1_555
Na3 O9 2.428969 1_555
Na3 O24 2.451632 1_555
Na3 O5 2.495908 1_455
Na3 O22 2.719714 1_555
Na4 O7 2.415020 1_555
Na4 O22 2.428891 1_545
Na4 O10 2.428969 1_555
Na4 O25 2.451632 1_555
Na4 O4 2.495908 1_555
Na4 O23 2.719714 1_555
Na5 O4 2.415020 1_555
Na5 O21 2.428891 1_555
Na5 O11 2.428969 1_555
Na5 O24 2.451632 1_655
Na5 O7 2.495908 1_655
Na5 O20 2.719714 1_555
Na6 O3 2.415020 1_555
Na6 O18 2.428891 1_655
Na6 O12 2.428969 1_555
Na6 O27 2.451632 1_655
Na6 O0 2.495908 1_555
Na6 O19 2.719714 1_555
Na7 O0 2.415020 1_555
Na7 O17 2.428891 1_555
Na7 O13 2.428969 1_555
Na7 O26 2.451632 1_565
Na7 O3 2.495908 1_565
Na7 O16 2.719714 1_555
Na8 O1 2.415020 1_555
Na8 O16 2.428891 1_455
Na8 O14 2.428969 1_555
Na8 O27 2.451632 1_555
Na8 O2 2.495908 1_555
Na8 O17 2.719714 1_555
Na9 O2 2.415020 1_555
Na9 O19 2.428891 1_555
Na9 O15 2.428969 1_555
Na9 O26 2.451632 1_555
Na9 O1 2.495908 1_545
Na9 O18 2.719714 1_555
H0 O24 0.992462 1_655
H1 O25 0.992462 1_565
H2 O24 0.992462 1_555
H3 O25 0.992462 1_555
H4 O26 0.992462 1_555
H5 O27 0.992462 1_655
H6 O26 0.992462 1_565
H7 O27 0.992462 1_555
C0 O16 1.280963 1_555
C0 O0 1.302324 1_555
C0 O8 1.307951 1_555
C1 O17 1.280963 1_555
C1 O1 1.302324 1_555
C1 O9 1.307951 1_554
C2 O18 1.280963 1_555
C2 O2 1.302324 1_555
C2 O10 1.307951 1_555
C3 O19 1.280963 1_555
C3 O3 1.302324 1_555
C3 O11 1.307951 1_554
C4 O20 1.280963 1_555
C4 O4 1.302324 1_555
C4 O12 1.307951 1_555
C5 O21 1.280963 1_555
C5 O5 1.302324 1_555
C5 O13 1.307951 1_556
C6 O22 1.280963 1_555
C6 O6 1.302324 1_555
C6 O14 1.307951 1_555
C7 O23 1.280963 1_555
C7 O7 1.302324 1_555
C7 O15 1.307951 1_556
O0 Yb0 2.373867 1_555
O1 Yb1 2.373867 1_565
O2 Yb0 2.373867 1_555
O3 Yb1 2.373867 1_655
O4 Yb0 2.373867 1_555
O5 Yb1 2.373867 1_666
O6 Yb0 2.373867 1_555
O7 Yb1 2.373867 1_556
O8 Yb0 2.447947 1_555
O9 Yb1 2.447947 1_566
O10 Yb0 2.447947 1_555
O11 Yb1 2.447947 1_656
O12 Yb0 2.447947 1_555
O13 Yb1 2.447947 1_665
O14 Yb0 2.447947 1_555
O15 Yb1 2.447947 1_555
