# generated using pymatgen
data_La4B14O27
_symmetry_space_group_name_H-M   'P 1'
_cell_length_a   6.51472217
_cell_length_b   6.51472217
_cell_length_c   25.61675891
_cell_angle_alpha   81.10980254
_cell_angle_beta   81.10980254
_cell_angle_gamma   59.66904594
_symmetry_Int_Tables_number   1
_chemical_formula_structural   La4B14O27
_chemical_formula_sum   'La8 B28 O54'
_cell_volume   923.38955019
_cell_formula_units_Z   2
loop_
 _symmetry_equiv_pos_site_id
 _symmetry_equiv_pos_as_xyz
  1  'x, y, z'
loop_
 _atom_site_type_symbol
 _atom_site_label
 _atom_site_symmetry_multiplicity
 _atom_site_fract_x
 _atom_site_fract_y
 _atom_site_fract_z
 _atom_site_occupancy
  La  La0  1  0.85015300  0.34725300  0.05560700  1
  La  La1  1  0.08585600  0.25560300  0.31544700  1
  La  La2  1  0.34725300  0.85015300  0.55560700  1
  La  La3  1  0.91414400  0.74439700  0.68455300  1
  La  La4  1  0.25560300  0.08585600  0.81544700  1
  La  La5  1  0.14984700  0.65274700  0.94439300  1
  La  La6  1  0.74439700  0.91414400  0.18455300  1
  La  La7  1  0.65274700  0.14984700  0.44439300  1
  B  B0  1  0.17558500  0.64329400  0.79452300  1
  B  B1  1  0.36605000  0.84496100  0.05476900  1
  B  B2  1  0.97357400  0.68959000  0.54633500  1
  B  B3  1  0.83346100  0.96819300  0.85042400  1
  B  B4  1  0.63395000  0.15503900  0.94523100  1
  B  B5  1  0.45169900  0.79129800  0.42154200  1
  B  B6  1  0.64329400  0.17558500  0.29452300  1
  B  B7  1  0.20539300  0.35761800  0.17550900  1
  B  B8  1  0.31041000  0.02642600  0.95366500  1
  B  B9  1  0.40564700  0.60364500  0.31293200  1
  B  B10  1  0.82441500  0.35670600  0.20547700  1
  B  B11  1  0.59435300  0.39635500  0.68706800  1
  B  B12  1  0.03180700  0.16653900  0.64957600  1
  B  B13  1  0.02642600  0.31041000  0.45366500  1
  B  B14  1  0.60364500  0.40564700  0.81293200  1
  B  B15  1  0.16653900  0.03180700  0.14957600  1
  B  B16  1  0.35761800  0.20539300  0.67550900  1
  B  B17  1  0.35670600  0.82441500  0.70547700  1
  B  B18  1  0.84496100  0.36605000  0.55476900  1
  B  B19  1  0.54830100  0.20870200  0.57845800  1
  B  B20  1  0.20870200  0.54830100  0.07845800  1
  B  B21  1  0.39635500  0.59435300  0.18706800  1
  B  B22  1  0.68959000  0.97357400  0.04633500  1
  B  B23  1  0.15503900  0.63395000  0.44523100  1
  B  B24  1  0.79460700  0.64238200  0.82449100  1
  B  B25  1  0.79129800  0.45169900  0.92154200  1
  B  B26  1  0.96819300  0.83346100  0.35042400  1
  B  B27  1  0.64238200  0.79460700  0.32449100  1
  O  O0  1  0.60302100  0.39920200  0.92616800  1
  O  O1  1  0.38005000  0.39977200  0.69123000  1
  O  O2  1  0.51380400  0.10134900  0.62755900  1
  O  O3  1  0.79841500  0.20158500  0.25000000  1
  O  O4  1  0.02011500  0.20627300  0.59162100  1
  O  O5  1  0.19149900  0.39022300  0.45110600  1
  O  O6  1  0.81134300  0.19451400  0.82135700  1
  O  O7  1  0.42863600  0.99910300  0.71698400  1
  O  O8  1  0.60545600  0.59033000  0.19319700  1
  O  O9  1  0.79372700  0.97988500  0.90837900  1
  O  O10  1  0.89865100  0.48619600  0.87244100  1
  O  O11  1  0.39454400  0.40967000  0.80680300  1
  O  O12  1  0.03265000  0.73318500  0.59029600  1
  O  O13  1  0.39920200  0.60302100  0.42616800  1
  O  O14  1  0.20627300  0.02011500  0.09162100  1
  O  O15  1  0.20158500  0.79841500  0.75000000  1
  O  O16  1  0.80850100  0.60977700  0.54889400  1
  O  O17  1  0.39977200  0.38005000  0.19123000  1
  O  O18  1  0.92389400  0.25794800  0.50256000  1
  O  O19  1  0.10113200  0.31701600  0.66972400  1
  O  O20  1  0.21675500  0.90866700  0.65820200  1
  O  O21  1  0.57136400  0.00089700  0.28301600  1
  O  O22  1  0.96735000  0.26681500  0.40970400  1
  O  O23  1  0.19451400  0.81134300  0.32135700  1
  O  O24  1  0.68298400  0.89886800  0.83027600  1
  O  O25  1  0.10134900  0.51380400  0.12755900  1
  O  O26  1  0.61995000  0.60022800  0.30877000  1
  O  O27  1  0.60079800  0.39697900  0.57383200  1
  O  O28  1  0.97988500  0.79372700  0.40837900  1
  O  O29  1  0.39697900  0.60079800  0.07383200  1
  O  O30  1  0.74205200  0.07610600  0.99744000  1
  O  O31  1  0.07610600  0.74205200  0.49744000  1
  O  O32  1  0.25794800  0.92389400  0.00256000  1
  O  O33  1  0.31701600  0.10113200  0.16972400  1
  O  O34  1  0.99910300  0.42863600  0.21698400  1
  O  O35  1  0.18865700  0.80548600  0.17864300  1
  O  O36  1  0.39022300  0.19149900  0.95110600  1
  O  O37  1  0.40967000  0.39454400  0.30680300  1
  O  O38  1  0.80548600  0.18865700  0.67864300  1
  O  O39  1  0.73318500  0.03265000  0.09029600  1
  O  O40  1  0.60977700  0.80850100  0.04889400  1
  O  O41  1  0.78324500  0.09133300  0.34179800  1
  O  O42  1  0.48619600  0.89865100  0.37244100  1
  O  O43  1  0.00089700  0.57136400  0.78301600  1
  O  O44  1  0.12242700  0.53328000  0.03538000  1
  O  O45  1  0.53328000  0.12242700  0.53538000  1
  O  O46  1  0.26681500  0.96735000  0.90970400  1
  O  O47  1  0.59033000  0.60545600  0.69319700  1
  O  O48  1  0.46672000  0.87757300  0.46462000  1
  O  O49  1  0.89886800  0.68298400  0.33027600  1
  O  O50  1  0.90866700  0.21675500  0.15820200  1
  O  O51  1  0.09133300  0.78324500  0.84179800  1
  O  O52  1  0.60022800  0.61995000  0.80877000  1
  O  O53  1  0.87757300  0.46672000  0.96462000  1
loop_
_geom_bond_atom_site_label_1
_geom_bond_atom_site_label_2
_geom_bond_distance
_geom_bond_site_symmetry_2
La0 O53 2.349741 1_554
La0 O14 2.415717 1_655
La0 O39 2.525102 1_555
La0 O29 2.559200 1_555
La0 O44 2.564475 1_655
La0 O40 2.584997 1_555
La0 O50 2.658384 1_555
La0 O30 2.868949 1_554
La0 O32 3.025483 1_645
La0 O25 3.255216 1_655
La1 O22 2.419267 1_455
La1 O49 2.477636 1_455
La1 O23 2.594041 1_545
La1 O34 2.621161 1_455
La1 O41 2.642669 1_455
La1 O37 2.653455 1_555
La1 O26 2.727963 1_455
La1 O21 2.785844 1_555
La1 O3 2.873942 1_455
La1 O42 2.888507 1_545
La2 O48 2.349741 1_555
La2 O4 2.415717 1_565
La2 O12 2.525102 1_555
La2 O27 2.559200 1_555
La2 O45 2.564475 1_565
La2 O16 2.584997 1_555
La2 O20 2.658384 1_555
La2 O31 2.868949 1_555
La2 O18 3.025483 1_465
La2 O2 3.255216 1_565
La3 O12 2.419267 1_655
La3 O19 2.477636 1_655
La3 O38 2.594041 1_565
La3 O43 2.621161 1_655
La3 O20 2.642669 1_655
La3 O47 2.653455 1_555
La3 O1 2.727963 1_655
La3 O7 2.785844 1_555
La3 O15 2.873942 1_655
La3 O2 2.888507 1_565
La4 O46 2.419267 1_545
La4 O24 2.477636 1_545
La4 O6 2.594041 1_455
La4 O7 2.621161 1_545
La4 O51 2.642669 1_545
La4 O11 2.653455 1_555
La4 O52 2.727963 1_545
La4 O43 2.785844 1_555
La4 O15 2.873942 1_545
La4 O10 2.888507 1_455
La5 O44 2.349741 1_556
La5 O9 2.415717 1_455
La5 O46 2.525102 1_555
La5 O0 2.559200 1_555
La5 O53 2.564475 1_455
La5 O36 2.584997 1_555
La5 O51 2.658384 1_555
La5 O32 2.868949 1_556
La5 O30 3.025483 1_465
La5 O10 3.255216 1_455
La6 O39 2.419267 1_565
La6 O33 2.477636 1_565
La6 O35 2.594041 1_655
La6 O21 2.621161 1_565
La6 O50 2.642669 1_565
La6 O8 2.653455 1_555
La6 O17 2.727963 1_565
La6 O34 2.785844 1_555
La6 O3 2.873942 1_565
La6 O25 2.888507 1_655
La7 O45 2.349741 1_555
La7 O28 2.415717 1_545
La7 O22 2.525102 1_555
La7 O13 2.559200 1_555
La7 O48 2.564475 1_545
La7 O5 2.584997 1_555
La7 O41 2.658384 1_555
La7 O18 2.868949 1_555
La7 O31 3.025483 1_645
La7 O42 3.255216 1_545
B0 O15 1.451788 1_555
B0 O51 1.493161 1_555
B0 O11 1.499390 1_555
B0 O43 1.512158 1_555
B1 O14 1.451325 1_565
B1 O40 1.468501 1_555
B1 O32 1.503961 1_555
B1 O29 1.508598 1_555
B2 O12 1.356532 1_655
B2 O16 1.401277 1_555
B2 O31 1.404099 1_655
B3 O24 1.451543 1_555
B3 O9 1.474164 1_555
B3 O6 1.492771 1_565
B3 O51 1.498675 1_655
B4 O9 1.451325 1_545
B4 O36 1.468501 1_555
B4 O30 1.503961 1_555
B4 O0 1.508598 1_555
B5 O48 1.350508 1_555
B5 O42 1.386072 1_555
B5 O13 1.414821 1_555
B6 O3 1.451788 1_555
B6 O41 1.493161 1_555
B6 O37 1.499390 1_555
B6 O21 1.512158 1_555
B7 O17 1.466234 1_555
B7 O33 1.469283 1_555
B7 O25 1.475805 1_555
B7 O34 1.493857 1_455
B8 O46 1.356532 1_545
B8 O36 1.401277 1_555
B8 O32 1.404099 1_546
B9 O26 1.372721 1_555
B9 O23 1.374097 1_555
B9 O37 1.381954 1_555
B10 O3 1.451788 1_555
B10 O50 1.493161 1_555
B10 O8 1.499390 1_555
B10 O34 1.512158 1_555
B11 O1 1.372721 1_555
B11 O38 1.374097 1_555
B11 O47 1.381954 1_555
B12 O19 1.451543 1_555
B12 O4 1.474164 1_555
B12 O38 1.492771 1_455
B12 O20 1.498675 1_545
B13 O22 1.356532 1_455
B13 O5 1.401277 1_555
B13 O18 1.404099 1_455
B14 O52 1.372721 1_555
B14 O6 1.374097 1_555
B14 O11 1.381954 1_555
B15 O33 1.451543 1_555
B15 O14 1.474164 1_555
B15 O35 1.492771 1_545
B15 O50 1.498675 1_455
B16 O1 1.466234 1_555
B16 O19 1.469283 1_555
B16 O2 1.475805 1_555
B16 O7 1.493857 1_545
B17 O15 1.451788 1_555
B17 O20 1.493161 1_555
B17 O47 1.499390 1_555
B17 O7 1.512158 1_555
B18 O4 1.451325 1_655
B18 O16 1.468501 1_555
B18 O18 1.503961 1_555
B18 O27 1.508598 1_555
B19 O45 1.350508 1_555
B19 O2 1.386072 1_555
B19 O27 1.414821 1_555
B20 O44 1.350508 1_555
B20 O25 1.386072 1_555
B20 O29 1.414821 1_555
B21 O17 1.372721 1_555
B21 O35 1.374097 1_555
B21 O8 1.381954 1_555
B22 O39 1.356532 1_565
B22 O40 1.401277 1_555
B22 O30 1.404099 1_564
B23 O28 1.451325 1_455
B23 O5 1.468501 1_555
B23 O31 1.503961 1_555
B23 O13 1.508598 1_555
B24 O52 1.466234 1_555
B24 O24 1.469283 1_555
B24 O10 1.475805 1_555
B24 O43 1.493857 1_655
B25 O53 1.350508 1_555
B25 O10 1.386072 1_555
B25 O0 1.414821 1_555
B26 O49 1.451543 1_555
B26 O28 1.474164 1_555
B26 O23 1.492771 1_655
B26 O41 1.498675 1_565
B27 O26 1.466234 1_555
B27 O49 1.469283 1_555
B27 O42 1.475805 1_555
B27 O21 1.493857 1_565
