# generated using pymatgen
data_In4Br7
_symmetry_space_group_name_H-M   'P 1'
_cell_length_a   7.68606365
_cell_length_b   7.68606365
_cell_length_c   31.68531365
_cell_angle_alpha   82.86851527
_cell_angle_beta   82.86851527
_cell_angle_gamma   59.09352354
_symmetry_Int_Tables_number   1
_chemical_formula_structural   In4Br7
_chemical_formula_sum   'In16 Br28'
_cell_volume   1589.60392550
_cell_formula_units_Z   4
loop_
 _symmetry_equiv_pos_site_id
 _symmetry_equiv_pos_as_xyz
  1  'x, y, z'
loop_
 _atom_site_type_symbol
 _atom_site_label
 _atom_site_symmetry_multiplicity
 _atom_site_fract_x
 _atom_site_fract_y
 _atom_site_fract_z
 _atom_site_occupancy
  In  In0  1  0.17408424  0.67586268  0.97566714  1
  In  In1  1  0.45481585  0.96273446  0.12573753  1
  In  In2  1  0.03726554  0.54518415  0.37426247  1
  In  In3  1  0.67586268  0.17408424  0.47566714  1
  In  In4  1  0.36703938  0.91501251  0.31527749  1
  In  In5  1  0.18354136  0.81645864  0.75000000  1
  In  In6  1  0.54518415  0.03726554  0.87426247  1
  In  In7  1  0.82591576  0.32413732  0.02433286  1
  In  In8  1  0.63296062  0.08498749  0.68472251  1
  In  In9  1  0.50000000  -0.00000000  0.00000000  1
  In  In10  1  0.91501251  0.36703938  0.81527749  1
  In  In11  1  0.96273446  0.45481585  0.62573753  1
  In  In12  1  0.32413732  0.82591576  0.52433286  1
  In  In13  1  0.00000000  0.50000000  0.50000000  1
  In  In14  1  0.81645864  0.18354136  0.25000000  1
  In  In15  1  0.08498749  0.63296062  0.18472251  1
  Br  Br0  1  0.31377505  0.99669644  0.23604744  1
  Br  Br1  1  0.51045224  0.86374940  0.66296860  1
  Br  Br2  1  0.99669644  0.31377505  0.73604744  1
  Br  Br3  1  0.74077535  0.68784358  0.95041288  1
  Br  Br4  1  0.01963442  0.01382873  0.84921084  1
  Br  Br5  1  0.13625060  0.48954776  0.83703140  1
  Br  Br6  1  0.54739664  0.60779866  0.83477036  1
  Br  Br7  1  0.00330356  0.68622495  0.26395256  1
  Br  Br8  1  0.12387929  0.19242313  0.45025726  1
  Br  Br9  1  0.62042761  0.23613324  0.95011820  1
  Br  Br10  1  0.23613324  0.62042761  0.45011820  1
  Br  Br11  1  0.60779866  0.54739664  0.33477036  1
  Br  Br12  1  0.48954776  0.13625060  0.33703140  1
  Br  Br13  1  0.98617127  0.98036558  0.65078916  1
  Br  Br14  1  0.01382873  0.01963442  0.34921084  1
  Br  Br15  1  0.80757687  0.87612071  0.04974274  1
  Br  Br16  1  0.86374940  0.51045224  0.16296860  1
  Br  Br17  1  0.76386676  0.37957239  0.54988180  1
  Br  Br18  1  0.87612071  0.80757687  0.54974274  1
  Br  Br19  1  0.45260336  0.39220134  0.16522964  1
  Br  Br20  1  0.68784358  0.74077535  0.45041288  1
  Br  Br21  1  0.98036558  0.98617127  0.15078916  1
  Br  Br22  1  0.37957239  0.76386676  0.04988180  1
  Br  Br23  1  0.31215642  0.25922465  0.54958712  1
  Br  Br24  1  0.39220134  0.45260336  0.66522964  1
  Br  Br25  1  0.25922465  0.31215642  0.04958712  1
  Br  Br26  1  0.68622495  0.00330356  0.76395256  1
  Br  Br27  1  0.19242313  0.12387929  0.95025726  1
loop_
_geom_bond_atom_site_label_1
_geom_bond_atom_site_label_2
_geom_bond_distance
_geom_bond_site_symmetry_2
Br0 In4 2.542406 1_555
Br0 In14 3.311734 1_465
Br1 In8 2.519973 1_565
Br2 In10 2.542406 1_555
Br2 In5 3.311734 1_645
Br3 In9 2.702340 1_566
Br3 In6 3.230911 1_565
Br3 In7 3.256425 1_556
Br4 In10 2.533795 1_455
Br5 In10 2.519973 1_455
Br6 In10 2.503719 1_555
Br7 In15 2.542406 1_555
Br7 In14 3.311734 1_465
Br8 In13 2.686948 1_555
Br8 In2 3.242745 1_555
Br8 In12 3.258017 1_545
Br9 In9 2.701678 1_556
Br9 In6 3.257771 1_555
Br9 In7 3.300935 1_556
Br10 In13 2.701678 1_555
Br10 In2 3.257771 1_555
Br10 In12 3.300935 1_555
Br11 In4 2.503719 1_555
Br12 In4 2.519973 1_545
Br13 In8 2.533795 1_565
Br14 In4 2.533795 1_545
Br15 In9 2.686948 1_565
Br15 In1 3.242745 1_555
Br15 In0 3.258017 1_654
Br16 In15 2.519973 1_655
Br17 In13 2.701678 1_655
Br17 In11 3.257771 1_555
Br17 In3 3.300935 1_555
Br18 In13 2.686948 1_655
Br18 In11 3.242745 1_555
Br18 In3 3.258017 1_565
Br19 In15 2.503719 1_555
Br20 In13 2.702340 1_655
Br20 In2 3.230911 1_655
Br20 In12 3.256425 1_555
Br21 In15 2.533795 1_655
Br22 In9 2.701678 1_565
Br22 In1 3.257771 1_555
Br22 In0 3.300935 1_554
Br23 In13 2.702340 1_555
Br23 In11 3.230911 1_455
Br23 In3 3.256425 1_555
Br24 In8 2.503719 1_555
Br25 In9 2.702340 1_555
Br25 In1 3.230911 1_545
Br25 In0 3.256425 1_554
Br26 In8 2.542406 1_555
Br26 In5 3.311734 1_645
Br27 In9 2.686948 1_556
Br27 In6 3.242745 1_555
Br27 In7 3.258017 1_456
