# generated using pymatgen
data_CaTiSiO5
_symmetry_space_group_name_H-M   'P 1'
_cell_length_a   8.77274500
_cell_length_b   6.66462800
_cell_length_c   7.14235574
_cell_angle_alpha   65.87183501
_cell_angle_beta   90.00000000
_cell_angle_gamma   90.00000000
_symmetry_Int_Tables_number   1
_chemical_formula_structural   CaTiSiO5
_chemical_formula_sum   'Ca4 Ti4 Si4 O20'
_cell_volume   381.10902065
_cell_formula_units_Z   4
loop_
 _symmetry_equiv_pos_site_id
 _symmetry_equiv_pos_as_xyz
  1  'x, y, z'
loop_
 _atom_site_type_symbol
 _atom_site_label
 _atom_site_symmetry_multiplicity
 _atom_site_fract_x
 _atom_site_fract_y
 _atom_site_fract_z
 _atom_site_occupancy
  Ca  Ca0  1  0.92152700  0.25036900  0.25363400  1
  Ca  Ca1  1  0.57847300  0.25036900  0.75363400  1
  Ca  Ca2  1  0.42152700  0.74963100  0.24636600  1
  Ca  Ca3  1  0.07847300  0.74963100  0.74636600  1
  Ti  Ti0  1  0.25207100  0.25021700  0.50705700  1
  Ti  Ti1  1  0.74792900  0.74978300  0.49294300  1
  Ti  Ti2  1  0.24792900  0.25021700  0.00705700  1
  Ti  Ti3  1  0.75207100  0.74978300  0.99294300  1
  Si  Si0  1  0.06958200  0.75043900  0.24903700  1
  Si  Si1  1  0.56958200  0.24956100  0.25096300  1
  Si  Si2  1  0.93041800  0.24956100  0.75096300  1
  Si  Si3  1  0.43041800  0.75043900  0.74903700  1
  O  O0  1  0.46327900  0.15083900  0.11651400  1
  O  O1  1  0.96327900  0.84916100  0.38348600  1
  O  O2  1  0.53672100  0.84916100  0.88348600  1
  O  O3  1  0.03672100  0.15083900  0.61651400  1
  O  O4  1  0.03639300  0.34903300  0.88485400  1
  O  O5  1  0.53639300  0.65096700  0.61514600  1
  O  O6  1  0.96360700  0.65096700  0.11514600  1
  O  O7  1  0.46360700  0.34903300  0.38485400  1
  O  O8  1  0.31319000  0.93649800  0.59167800  1
  O  O9  1  0.81319000  0.06350200  0.90832200  1
  O  O10  1  0.68681000  0.06350200  0.40832200  1
  O  O11  1  0.18681000  0.93649800  0.09167800  1
  O  O12  1  0.31918100  0.24979500  0.74986600  1
  O  O13  1  0.81918100  0.75020500  0.75013400  1
  O  O14  1  0.68081900  0.75020500  0.25013400  1
  O  O15  1  0.18081900  0.24979500  0.24986600  1
  O  O16  1  0.31348500  0.56418100  0.90679100  1
  O  O17  1  0.81348500  0.43581900  0.59320900  1
  O  O18  1  0.68651500  0.43581900  0.09320900  1
  O  O19  1  0.18651500  0.56418100  0.40679100  1
loop_
_geom_bond_atom_site_label_1
_geom_bond_atom_site_label_2
_geom_bond_distance
_geom_bond_site_symmetry_2
Ca0 O15 2.274884 1_655
Ca0 O10 2.426252 1_555
Ca0 O18 2.435832 1_555
Ca0 O6 2.466508 1_555
Ca0 O1 2.473177 1_545
Ca0 O3 2.602538 1_655
Ca0 O4 2.639993 1_654
Ca1 O12 2.274884 1_555
Ca1 O9 2.426252 1_555
Ca1 O17 2.435832 1_555
Ca1 O5 2.466508 1_555
Ca1 O2 2.473177 1_545
Ca1 O0 2.602538 1_556
Ca1 O7 2.639993 1_555
Ca2 O14 2.274884 1_555
Ca2 O11 2.426252 1_555
Ca2 O19 2.435832 1_555
Ca2 O7 2.466508 1_555
Ca2 O0 2.473177 1_565
Ca2 O2 2.602538 1_554
Ca2 O5 2.639993 1_555
Ca3 O13 2.274884 1_455
Ca3 O8 2.426252 1_555
Ca3 O16 2.435832 1_555
Ca3 O4 2.466508 1_555
Ca3 O3 2.473177 1_565
Ca3 O1 2.602538 1_455
Ca3 O6 2.639993 1_456
O0 Si1 1.655676 1_555
O0 Ti2 2.048326 1_555
O1 Si0 1.655676 1_655
O1 Ti1 2.048326 1_555
O2 Si3 1.655676 1_555
O2 Ti3 2.048326 1_555
O3 Si2 1.655676 1_455
O3 Ti0 2.048326 1_555
O4 Si2 1.654277 1_455
O4 Ti2 2.041910 1_556
O5 Si3 1.654277 1_555
O5 Ti1 2.041910 1_555
O6 Si0 1.654277 1_655
O6 Ti3 2.041910 1_554
O7 Si1 1.654277 1_555
O7 Ti0 2.041910 1_555
O8 Si3 1.648952 1_555
O8 Ti0 1.997794 1_565
O9 Si2 1.648952 1_555
O9 Ti3 1.997794 1_545
O10 Si1 1.648952 1_555
O10 Ti1 1.997794 1_545
O11 Si0 1.648952 1_555
O11 Ti2 1.997794 1_565
O12 Ti0 1.830350 1_555
O12 Ti2 1.941478 1_556
O13 Ti3 1.830350 1_555
O13 Ti1 1.941478 1_555
O14 Ti1 1.830350 1_555
O14 Ti3 1.941478 1_554
O15 Ti2 1.830350 1_555
O15 Ti0 1.941478 1_555
O16 Si3 1.649025 1_555
O16 Ti2 1.999216 1_556
O17 Si2 1.649025 1_555
O17 Ti1 1.999216 1_555
O18 Si1 1.649025 1_555
O18 Ti3 1.999216 1_554
O19 Si0 1.649025 1_555
O19 Ti0 1.999216 1_555
