# generated using pymatgen
data_KCuP2Se5
_symmetry_space_group_name_H-M   'P 1'
_cell_length_a   7.85722200
_cell_length_b   10.76485000
_cell_length_c   13.30895203
_cell_angle_alpha   59.15041374
_cell_angle_beta   90.00000000
_cell_angle_gamma   90.00000000
_symmetry_Int_Tables_number   1
_chemical_formula_structural   KCuP2Se5
_chemical_formula_sum   'K4 Cu4 P8 Se20'
_cell_volume   966.42794167
_cell_formula_units_Z   4
loop_
 _symmetry_equiv_pos_site_id
 _symmetry_equiv_pos_as_xyz
  1  'x, y, z'
loop_
 _atom_site_type_symbol
 _atom_site_label
 _atom_site_symmetry_multiplicity
 _atom_site_fract_x
 _atom_site_fract_y
 _atom_site_fract_z
 _atom_site_occupancy
  K  K0  1  0.62641400  0.62038700  0.77858000  1
  K  K1  1  0.37358600  0.37961300  0.22142000  1
  K  K2  1  0.87358600  0.62038700  0.27858000  1
  K  K3  1  0.12641400  0.37961300  0.72142000  1
  Cu  Cu0  1  0.33666600  0.85259800  0.33051200  1
  Cu  Cu1  1  0.83666600  0.14740200  0.16948800  1
  Cu  Cu2  1  0.16333400  0.85259800  0.83051200  1
  Cu  Cu3  1  0.66333400  0.14740200  0.66948800  1
  P  P0  1  0.65196500  0.19507500  0.92154000  1
  P  P1  1  0.93448400  0.82857100  0.45715500  1
  P  P2  1  0.06551600  0.17142900  0.54284500  1
  P  P3  1  0.84803500  0.19507500  0.42154000  1
  P  P4  1  0.34803500  0.80492500  0.07846000  1
  P  P5  1  0.15196500  0.80492500  0.57846000  1
  P  P6  1  0.56551600  0.82857100  0.95715500  1
  P  P7  1  0.43448400  0.17142900  0.04284500  1
  Se  Se0  1  0.69003300  0.61946600  0.03482000  1
  Se  Se1  1  0.56411400  0.30524900  0.74029600  1
  Se  Se2  1  0.13235000  0.70729900  0.03897500  1
  Se  Se3  1  0.46790500  0.92907500  0.77528000  1
  Se  Se4  1  0.19003300  0.38053400  0.46518000  1
  Se  Se5  1  0.36765000  0.70729900  0.53897500  1
  Se  Se6  1  0.30996700  0.38053400  0.96518000  1
  Se  Se7  1  0.96790500  0.07092500  0.72472000  1
  Se  Se8  1  0.75701200  0.96446300  0.99181300  1
  Se  Se9  1  0.25701200  0.03553700  0.50818700  1
  Se  Se10  1  0.86765000  0.29270100  0.96102500  1
  Se  Se11  1  0.74298800  0.96446300  0.49181300  1
  Se  Se12  1  0.06411400  0.69475100  0.75970400  1
  Se  Se13  1  0.03209500  0.92907500  0.27528000  1
  Se  Se14  1  0.63235000  0.29270100  0.46102500  1
  Se  Se15  1  0.43588600  0.69475100  0.25970400  1
  Se  Se16  1  0.93588600  0.30524900  0.24029600  1
  Se  Se17  1  0.53209500  0.07092500  0.22472000  1
  Se  Se18  1  0.24298800  0.03553700  0.00818700  1
  Se  Se19  1  0.80996700  0.61946600  0.53482000  1
loop_
_geom_bond_atom_site_label_1
_geom_bond_atom_site_label_2
_geom_bond_distance
_geom_bond_site_symmetry_2
K0 Se0 3.441706 1_556
K0 Se5 3.481139 1_555
K0 Se12 3.510718 1_655
K0 Se6 3.527055 1_555
K0 Se3 3.527828 1_555
K0 Se19 3.554975 1_555
K0 Se10 3.625949 1_555
K0 Se1 3.712196 1_555
K0 Se11 3.824453 1_555
K1 Se6 3.441706 1_554
K1 Se14 3.481139 1_555
K1 Se16 3.510718 1_455
K1 Se0 3.527055 1_555
K1 Se17 3.527828 1_555
K1 Se4 3.554975 1_555
K1 Se2 3.625949 1_555
K1 Se15 3.712196 1_555
K1 Se9 3.824453 1_555
K2 Se19 3.441706 1_555
K2 Se2 3.481139 1_655
K2 Se15 3.510718 1_555
K2 Se4 3.527055 1_655
K2 Se13 3.527828 1_655
K2 Se0 3.554975 1_555
K2 Se14 3.625949 1_555
K2 Se16 3.712196 1_555
K2 Se8 3.824453 1_554
K3 Se4 3.441706 1_555
K3 Se10 3.481139 1_455
K3 Se1 3.510718 1_555
K3 Se19 3.527055 1_455
K3 Se7 3.527828 1_455
K3 Se6 3.554975 1_555
K3 Se5 3.625949 1_555
K3 Se12 3.712196 1_555
K3 Se18 3.824453 1_556
Cu0 Se5 2.398471 1_555
Cu0 Se15 2.454662 1_555
Cu0 Se13 2.514817 1_555
Cu0 Se17 2.543665 1_565
Cu1 Se10 2.398471 1_554
Cu1 Se16 2.454662 1_555
Cu1 Se17 2.514817 1_555
Cu1 Se13 2.543665 1_645
Cu2 Se2 2.398471 1_556
Cu2 Se12 2.454662 1_555
Cu2 Se3 2.514817 1_555
Cu2 Se7 2.543665 1_465
Cu3 Se14 2.398471 1_555
Cu3 Se1 2.454662 1_555
Cu3 Se7 2.514817 1_555
Cu3 Se3 2.543665 1_545
P0 Se1 2.183489 1_555
P0 Se10 2.195212 1_555
P0 P7 2.273707 1_556
P0 Se8 2.310330 1_545
P1 Se19 2.169405 1_555
P1 Se13 2.220828 1_655
P1 P5 2.273707 1_655
P1 Se11 2.304046 1_555
P2 Se4 2.169405 1_555
P2 Se7 2.220828 1_455
P2 P3 2.273707 1_455
P2 Se9 2.304046 1_555
P3 Se16 2.183489 1_555
P3 Se14 2.195212 1_555
P3 Se11 2.310330 1_545
P4 Se15 2.183489 1_555
P4 Se2 2.195212 1_555
P4 P6 2.273707 1_554
P4 Se18 2.310330 1_565
P5 Se12 2.183489 1_555
P5 Se5 2.195212 1_555
P5 Se9 2.310330 1_565
P6 Se0 2.169405 1_556
P6 Se3 2.220828 1_555
P6 Se8 2.304046 1_555
P7 Se6 2.169405 1_554
P7 Se17 2.220828 1_555
P7 Se18 2.304046 1_555
