# generated using pymatgen
data_TlOF
_symmetry_space_group_name_H-M   'P 1'
_cell_length_a   9.36754367
_cell_length_b   9.36754367
_cell_length_c   9.80786761
_cell_angle_alpha   70.60259889
_cell_angle_beta   70.60259889
_cell_angle_gamma   106.94500010
_symmetry_Int_Tables_number   1
_chemical_formula_structural   TlOF
_chemical_formula_sum   'Tl16 O16 F16'
_cell_volume   683.20211600
_cell_formula_units_Z   16
loop_
 _symmetry_equiv_pos_site_id
 _symmetry_equiv_pos_as_xyz
  1  'x, y, z'
loop_
 _atom_site_type_symbol
 _atom_site_label
 _atom_site_symmetry_multiplicity
 _atom_site_fract_x
 _atom_site_fract_y
 _atom_site_fract_z
 _atom_site_occupancy
  Tl  Tl0  1  0.96361000  0.70577200  0.78825000  1
  Tl  Tl1  1  0.24783600  0.74181800  0.97896300  1
  Tl  Tl2  1  0.73221200  0.73221200  0.52692100  1
  Tl  Tl3  1  0.70577200  0.96361000  0.78825000  1
  Tl  Tl4  1  0.96645500  0.96645500  0.00366700  1
  Tl  Tl5  1  0.25849300  0.52080200  0.73089200  1
  Tl  Tl6  1  0.52080200  0.25849300  0.73089200  1
  Tl  Tl7  1  0.02928600  0.26996200  0.22936700  1
  Tl  Tl8  1  0.28052500  0.28052500  0.48300800  1
  Tl  Tl9  1  0.99014900  0.47638900  0.52937900  1
  Tl  Tl10  1  0.47638900  0.99014900  0.52937900  1
  Tl  Tl11  1  0.49541000  0.76100400  0.26568400  1
  Tl  Tl12  1  0.76100400  0.49541000  0.26568400  1
  Tl  Tl13  1  0.26996200  0.02928600  0.22936700  1
  Tl  Tl14  1  0.50825800  0.50825800  0.96187600  1
  Tl  Tl15  1  0.74181800  0.24783600  0.97896300  1
  O  O0  1  0.47547400  0.72161500  0.00652200  1
  O  O1  1  0.76173600  0.76173600  0.73222400  1
  O  O2  1  0.22533000  0.48179000  0.99043100  1
  O  O3  1  0.48179000  0.22533000  0.99043100  1
  O  O4  1  0.71789000  0.97467500  0.03335300  1
  O  O5  1  0.22632000  0.76562400  0.74021500  1
  O  O6  1  0.76562400  0.22632000  0.74021500  1
  O  O7  1  0.48987400  0.48987400  0.73698000  1
  O  O8  1  0.99716700  0.47287100  0.76525300  1
  O  O9  1  0.47287100  0.99716700  0.76525300  1
  O  O10  1  0.50034200  0.76827900  0.49649000  1
  O  O11  1  0.76827900  0.50034200  0.49649000  1
  O  O12  1  0.25384400  0.51092400  0.47691300  1
  O  O13  1  0.51092400  0.25384400  0.47691300  1
  O  O14  1  0.72161500  0.47547400  0.00652200  1
  O  O15  1  0.97467500  0.71789000  0.03335300  1
  F  F0  1  0.99091200  0.20048800  0.02234600  1
  F  F1  1  0.20048800  0.99091200  0.02234600  1
  F  F2  1  0.23719000  0.23719000  0.74479400  1
  F  F3  1  0.03979900  0.50815700  0.26335600  1
  F  F4  1  0.77336600  0.77336600  0.27518200  1
  F  F5  1  0.99087000  0.99087000  0.76003900  1
  F  F6  1  0.02797500  0.75256900  0.48869600  1
  F  F7  1  0.75256900  0.02797500  0.48869600  1
  F  F8  1  0.02674500  0.22993200  0.47693100  1
  F  F9  1  0.22993200  0.02674500  0.47693100  1
  F  F10  1  0.54026200  0.54026200  0.24827100  1
  F  F11  1  0.28057900  0.79827300  0.22118200  1
  F  F12  1  0.79827300  0.28057900  0.22118200  1
  F  F13  1  0.50815700  0.03979900  0.26335600  1
  F  F14  1  0.29829600  0.29829600  0.22720100  1
  F  F15  1  0.01285800  0.01285800  0.29139000  1
loop_
_geom_bond_atom_site_label_1
_geom_bond_atom_site_label_2
_geom_bond_distance
_geom_bond_site_symmetry_2
O0 Tl14 2.265029 1_554
O0 Tl3 2.287789 1_554
O0 Tl1 2.289139 1_554
O0 Tl11 2.744088 1_555
O1 Tl2 2.214211 1_555
O1 Tl3 2.286846 1_555
O1 Tl0 2.286846 1_555
O1 Tl14 2.440900 1_555
O2 Tl7 2.174906 1_556
O2 Tl1 2.343770 1_555
O2 Tl5 2.345293 1_555
O2 Tl14 2.498401 1_555
O3 Tl13 2.174906 1_556
O3 Tl15 2.343770 1_555
O3 Tl6 2.345293 1_555
O3 Tl14 2.498401 1_555
O4 Tl11 2.219579 1_555
O4 Tl4 2.276278 1_555
O4 Tl15 2.358403 1_564
O4 Tl3 2.478398 1_554
O5 Tl0 2.200617 1_455
O5 Tl10 2.282260 1_555
O5 Tl1 2.359305 1_555
O5 Tl5 2.425422 1_555
O6 Tl3 2.200617 1_545
O6 Tl9 2.282260 1_555
O6 Tl15 2.359305 1_555
O6 Tl6 2.425422 1_555
O7 Tl5 2.286034 1_555
O7 Tl6 2.286034 1_555
O7 Tl2 2.309588 1_555
O7 Tl14 2.326369 1_555
O8 Tl5 2.240223 1_655
O8 Tl15 2.313940 1_555
O8 Tl9 2.325719 1_555
O8 Tl0 2.364124 1_555
O9 Tl6 2.240223 1_565
O9 Tl1 2.313940 1_555
O9 Tl10 2.325719 1_555
O9 Tl3 2.364124 1_555
O10 Tl10 2.267847 1_555
O10 Tl11 2.302453 1_555
O10 Tl2 2.390070 1_555
O10 Tl5 2.393956 1_555
O11 Tl9 2.267847 1_555
O11 Tl12 2.302453 1_555
O11 Tl2 2.390070 1_555
O11 Tl6 2.393956 1_555
O12 Tl8 2.227744 1_555
O12 Tl9 2.247334 1_455
O12 Tl11 2.339405 1_555
O12 Tl5 2.537384 1_555
O13 Tl8 2.227744 1_555
O13 Tl10 2.247334 1_545
O13 Tl12 2.339405 1_555
O13 Tl6 2.537384 1_555
O14 Tl14 2.265029 1_554
O14 Tl0 2.287789 1_554
O14 Tl15 2.289139 1_554
O14 Tl12 2.744088 1_555
O15 Tl12 2.219579 1_555
O15 Tl4 2.276278 1_555
O15 Tl1 2.358403 1_654
O15 Tl0 2.478398 1_554
F0 Tl4 2.212279 1_545
F0 Tl7 2.429321 1_655
F0 Tl15 2.638167 1_554
F1 Tl4 2.212279 1_455
F1 Tl13 2.429321 1_565
F1 Tl1 2.638167 1_554
F2 Tl8 2.332650 1_555
F2 Tl6 2.559100 1_555
F2 Tl5 2.559100 1_555
F2 Tl4 2.647037 1_446
F3 Tl7 2.342505 1_555
F3 Tl9 2.389541 1_455
F3 Tl1 2.493290 1_554
F3 Tl12 2.571413 1_455
F4 Tl2 2.245482 1_555
F4 Tl4 2.308424 1_555
F4 Tl11 2.606569 1_555
F4 Tl12 2.606569 1_555
F5 Tl4 2.248932 1_556
F5 Tl3 2.517724 1_555
F5 Tl0 2.517724 1_555
F6 Tl9 2.379923 1_455
F6 Tl13 2.587040 1_565
F6 Tl2 2.609136 1_455
F6 Tl0 2.645989 1_455
F7 Tl10 2.379923 1_545
F7 Tl7 2.587040 1_655
F7 Tl2 2.609136 1_545
F7 Tl3 2.645989 1_545
F8 Tl8 2.309941 1_555
F8 Tl7 2.321283 1_555
F8 Tl9 2.616347 1_455
F9 Tl8 2.309941 1_555
F9 Tl13 2.321283 1_555
F9 Tl10 2.616347 1_545
F10 Tl11 2.274835 1_555
F10 Tl12 2.274835 1_555
F10 Tl8 2.499589 1_555
F11 Tl13 2.221459 1_565
F11 Tl11 2.292175 1_555
F11 Tl1 2.690993 1_554
F12 Tl7 2.221459 1_655
F12 Tl12 2.292175 1_555
F12 Tl15 2.690993 1_554
F13 Tl13 2.342505 1_555
F13 Tl10 2.389541 1_545
F13 Tl15 2.493290 1_554
F13 Tl11 2.571413 1_545
F14 Tl14 2.335444 1_554
F14 Tl8 2.403977 1_555
F14 Tl7 2.447842 1_555
F14 Tl13 2.447842 1_555
F15 Tl7 2.223261 1_555
F15 Tl13 2.223261 1_555
F15 Tl2 2.657562 1_445
