# generated using pymatgen
data_Y2Ti2O7
_symmetry_space_group_name_H-M   'P 1'
_cell_length_a   7.36587500
_cell_length_b   7.39743107
_cell_length_c   10.69679628
_cell_angle_alpha   86.13988558
_cell_angle_beta   88.87738194
_cell_angle_gamma   89.17811148
_symmetry_Int_Tables_number   1
_chemical_formula_structural   Y2Ti2O7
_chemical_formula_sum   'Y8 Ti8 O28'
_cell_volume   581.36948970
_cell_formula_units_Z   4
loop_
 _symmetry_equiv_pos_site_id
 _symmetry_equiv_pos_as_xyz
  1  'x, y, z'
loop_
 _atom_site_type_symbol
 _atom_site_label
 _atom_site_symmetry_multiplicity
 _atom_site_fract_x
 _atom_site_fract_y
 _atom_site_fract_z
 _atom_site_occupancy
  Y  Y0  1  0.00854100  0.99578700  0.00549100  1
  Y  Y1  1  0.72162500  0.25561800  0.75433100  1
  Y  Y2  1  0.98453100  0.03031900  0.51063400  1
  Y  Y3  1  0.29055600  0.21579200  0.24202900  1
  Y  Y4  1  0.22591100  0.76184700  0.76326900  1
  Y  Y5  1  0.47601700  0.99337900  0.52839000  1
  Y  Y6  1  0.51518300  0.50009600  0.00631900  1
  Y  Y7  1  0.80224800  0.69823400  0.24591500  1
  Ti  Ti0  1  0.52129600  0.94534300  0.01852000  1
  Ti  Ti1  1  0.70192700  0.73073300  0.72496000  1
  Ti  Ti2  1  0.75672600  0.21200800  0.24497100  1
  Ti  Ti3  1  0.01459100  0.47579400  0.98567800  1
  Ti  Ti4  1  0.97822100  0.53827300  0.56562900  1
  Ti  Ti5  1  0.23670100  0.72446000  0.32617100  1
  Ti  Ti6  1  0.26141600  0.27986500  0.71611000  1
  Ti  Ti7  1  0.53929600  0.50336700  0.46369400  1
  O  O0  1  0.29649800  0.03617000  0.07131300  1
  O  O1  1  0.60178600  0.10849400  0.35944800  1
  O  O2  1  0.81610300  0.99501400  0.16020300  1
  O  O3  1  0.72449800  0.99598100  0.64667900  1
  O  O4  1  0.72706400  0.53267900  0.60607000  1
  O  O5  1  0.99088700  0.19877100  0.32086100  1
  O  O6  1  0.02635000  0.27549700  0.87463300  1
  O  O7  1  0.04273400  0.72173300  0.92955800  1
  O  O8  1  0.97170800  0.28517800  0.60140900  1
  O  O9  1  0.19664800  0.51621500  0.66005000  1
  O  O10  1  0.21994700  0.42407000  0.07066400  1
  O  O11  1  0.24445200  0.95946500  0.39462200  1
  O  O12  1  0.21981100  0.03368600  0.66707200  1
  O  O13  1  0.42068600  0.30783800  0.83832500  1
  O  O14  1  0.45888600  0.28986800  0.59050800  1
  O  O15  1  0.44779900  0.79429800  0.89807300  1
  O  O16  1  0.54294500  0.74149200  0.40120400  1
  O  O17  1  0.55245700  0.26879700  0.13758500  1
  O  O18  1  0.56002900  0.73823900  0.12453700  1
  O  O19  1  0.72928500  0.54239900  0.85073600  1
  O  O20  1  0.71400400  0.44038700  0.35849100  1
  O  O21  1  0.84396200  0.45892300  0.11165300  1
  O  O22  1  0.11121200  0.75055800  0.19078800  1
  O  O23  1  0.00548400  0.69007400  0.41880100  1
  O  O24  1  0.95520800  0.75195000  0.66094900  1
  O  O25  1  0.32032100  0.47700800  0.36359700  1
  O  O26  1  0.47840300  0.73750000  0.65224500  1
  O  O27  1  0.71815800  0.04288200  0.91625700  1
loop_
_geom_bond_atom_site_label_1
_geom_bond_atom_site_label_2
_geom_bond_distance
_geom_bond_site_symmetry_2
O0 Ti0 1.869399 1_545
O0 Y0 2.277908 1_545
O0 Y3 2.328961 1_555
O1 Ti2 1.797888 1_555
O1 Y5 2.144515 1_545
O1 Y3 2.718350 1_555
O2 Ti2 1.936602 1_565
O2 Y0 2.157562 1_655
O2 Y7 2.324347 1_555
O3 Ti1 2.088430 1_555
O3 Y5 2.246408 1_555
O3 Y1 2.304565 1_565
O3 Y2 2.388697 1_565
O4 Ti4 1.892020 1_555
O4 Ti1 2.007974 1_555
O4 Ti7 2.101177 1_555
O4 Y1 2.505909 1_555
O5 Ti2 1.919070 1_555
O5 Y2 2.309351 1_555
O5 Y3 2.349457 1_655
O6 Ti3 1.960375 1_555
O6 Ti6 2.398658 1_555
O6 Y0 2.422497 1_546
O6 Y1 2.619886 1_455
O7 Ti3 1.890012 1_555
O7 Y4 2.217863 1_555
O7 Y0 2.243243 1_556
O8 Ti4 1.886662 1_555
O8 Y2 2.178051 1_555
O8 Y1 2.441754 1_555
O8 Ti6 2.480798 1_655
O9 Ti6 1.868195 1_555
O9 Ti4 1.915532 1_455
O9 Y4 2.204056 1_555
O10 Ti3 1.803139 1_554
O10 Y6 2.333140 1_555
O10 Y3 2.374559 1_555
O11 Ti5 1.933237 1_555
O11 Y5 2.275075 1_555
O11 Y2 2.333639 1_465
O11 Y3 2.440297 1_565
O12 Ti6 1.958666 1_555
O12 Y4 2.196642 1_545
O12 Y5 2.405141 1_545
O12 Y2 2.434084 1_455
O13 Ti6 1.797685 1_555
O13 Y1 2.411277 1_555
O13 Y6 2.481512 1_556
O14 Ti6 1.959435 1_555
O14 Ti7 2.095743 1_555
O14 Y5 2.335124 1_545
O14 Y1 2.634288 1_555
O15 Ti0 1.854729 1_556
O15 Y4 2.226741 1_555
O15 Y6 2.444534 1_556
O15 Ti1 2.666492 1_555
O16 Ti7 1.841897 1_555
O16 Ti5 2.416858 1_555
O16 Y5 2.419624 1_555
O16 Y7 2.537602 1_555
O17 Ti2 1.935060 1_555
O17 Y6 2.157009 1_555
O17 Y3 2.236454 1_555
O18 Ti0 1.865691 1_555
O18 Y7 2.231681 1_555
O18 Y6 2.268174 1_555
O19 Ti1 1.881988 1_555
O19 Y6 2.279451 1_556
O19 Y1 2.422270 1_555
O19 Ti3 2.595404 1_655
O20 Ti7 1.770912 1_555
O20 Ti2 2.161868 1_555
O20 Y7 2.281760 1_555
O21 Ti3 1.823878 1_654
O21 Ti2 2.330209 1_555
O21 Y7 2.366504 1_555
O21 Y6 2.695682 1_555
O22 Ti5 1.731629 1_555
O22 Y7 2.370384 1_455
O22 Y0 2.706784 1_555
O23 Ti4 1.877422 1_455
O23 Ti5 1.964548 1_555
O23 Y7 2.399073 1_455
O23 Y2 2.763975 1_465
O24 Ti4 1.941490 1_555
O24 Ti1 1.979379 1_555
O24 Y4 2.297753 1_655
O24 Y2 2.534893 1_565
O25 Ti5 1.941406 1_555
O25 Ti7 1.972522 1_555
O25 Y3 2.415495 1_555
O26 Ti1 1.833269 1_555
O26 Y4 2.198732 1_555
O26 Y5 2.236230 1_555
O27 Ti0 1.918717 1_546
O27 Y1 2.260472 1_555
O27 Y0 2.370933 1_646
