# generated using pymatgen
data_Y2Zr9O22
_symmetry_space_group_name_H-M   'P 1'
_cell_length_a   3.68130200
_cell_length_b   6.39041500
_cell_length_c   33.16453238
_cell_angle_alpha   85.97700227
_cell_angle_beta   90.00000000
_cell_angle_gamma   90.00000000
_symmetry_Int_Tables_number   1
_chemical_formula_structural   Y2Zr9O22
_chemical_formula_sum   'Y4 Zr18 O44'
_cell_volume   778.27477146
_cell_formula_units_Z   2
loop_
 _symmetry_equiv_pos_site_id
 _symmetry_equiv_pos_as_xyz
  1  'x, y, z'
loop_
 _atom_site_type_symbol
 _atom_site_label
 _atom_site_symmetry_multiplicity
 _atom_site_fract_x
 _atom_site_fract_y
 _atom_site_fract_z
 _atom_site_occupancy
  Y  Y0  1  0.50000000  0.41349600  0.27249000  1
  Y  Y1  1  0.50000000  0.32345200  0.54529200  1
  Y  Y2  1  0.50000000  0.59142400  0.72735600  1
  Y  Y3  1  0.50000000  0.85913900  0.90957700  1
  Zr  Zr0  1  0.00000000  0.99757300  0.00017600  1
  Zr  Zr1  1  0.00000000  0.63521300  0.09115000  1
  Zr  Zr2  1  0.00000000  0.27276600  0.18204400  1
  Zr  Zr3  1  0.00000000  0.54706700  0.36318600  1
  Zr  Zr4  1  0.00000000  0.18112600  0.45489300  1
  Zr  Zr5  1  0.00000000  0.09114300  0.72695000  1
  Zr  Zr6  1  0.00000000  0.72398200  0.81871600  1
  Zr  Zr7  1  0.00000000  0.36038500  0.90902500  1
  Zr  Zr8  1  0.50000000  0.13397800  0.09112700  1
  Zr  Zr9  1  0.50000000  0.77433300  0.18124600  1
  Zr  Zr10  1  0.50000000  0.04677500  0.36402100  1
  Zr  Zr11  1  0.50000000  0.68172400  0.45367500  1
  Zr  Zr12  1  0.50000000  0.95565000  0.63589700  1
  Zr  Zr13  1  0.50000000  0.22455100  0.81827600  1
  Zr  Zr14  1  0.50000000  0.49631100  0.00109300  1
  Zr  Zr15  1  0.00000000  0.91443300  0.27178300  1
  Zr  Zr16  1  0.00000000  0.82322800  0.54456200  1
  Zr  Zr17  1  0.00000000  0.45540200  0.63639100  1
  O  O0  1  0.00000000  0.67277000  0.02672000  1
  O  O1  1  0.00000000  0.94532200  0.20430500  1
  O  O2  1  0.00000000  0.59551000  0.29842800  1
  O  O3  1  0.00000000  0.21881600  0.38915900  1
  O  O4  1  0.00000000  0.85116600  0.47676400  1
  O  O5  1  0.00000000  0.50275000  0.57066000  1
  O  O6  1  0.00000000  0.11753300  0.65924300  1
  O  O7  1  0.00000000  0.81074500  0.61522800  1
  O  O8  1  0.00000000  0.38389400  0.84177900  1
  O  O9  1  0.00000000  0.07710600  0.79721000  1
  O  O10  1  0.50000000  0.13565400  0.02161900  1
  O  O11  1  0.50000000  0.45531700  0.06678300  1
  O  O12  1  0.50000000  0.77978500  0.10955900  1
  O  O13  1  0.50000000  0.42624600  0.19854500  1
  O  O14  1  0.50000000  0.09826400  0.15632200  1
  O  O15  1  0.50000000  0.75751500  0.24540200  1
  O  O16  1  0.50000000  0.04140400  0.29650900  1
  O  O17  1  0.50000000  0.37085100  0.34214600  1
  O  O18  1  0.50000000  0.69287900  0.38379200  1
  O  O19  1  0.50000000  0.33697500  0.47168400  1
  O  O20  1  0.50000000  0.00949600  0.43018900  1
  O  O21  1  0.50000000  0.66810400  0.51840400  1
  O  O22  1  0.50000000  0.95773800  0.56821200  1
  O  O23  1  0.50000000  0.61317100  0.65505500  1
  O  O24  1  0.50000000  0.28603900  0.61527000  1
  O  O25  1  0.50000000  0.93988600  0.70178300  1
  O  O26  1  0.50000000  0.22924200  0.75088900  1
  O  O27  1  0.50000000  0.88245900  0.83757600  1
  O  O28  1  0.50000000  0.55554100  0.79787700  1
  O  O29  1  0.50000000  0.20796100  0.88431400  1
  O  O30  1  0.50000000  0.49132500  0.93412400  1
  O  O31  1  0.50000000  0.81809200  0.97925600  1
  O  O32  1  0.00000000  0.31286300  0.11614400  1
  O  O33  1  0.00000000  0.99627400  0.07147800  1
  O  O34  1  0.00000000  0.63648900  0.15951800  1
  O  O35  1  0.00000000  0.24792600  0.24915800  1
  O  O36  1  0.00000000  0.90269300  0.34534600  1
  O  O37  1  0.00000000  0.54169400  0.43216400  1
  O  O38  1  0.00000000  0.15729600  0.52137700  1
  O  O39  1  0.00000000  0.76801600  0.75283800  1
  O  O40  1  0.00000000  0.42323600  0.70325600  1
  O  O41  1  0.00000000  0.03976200  0.93587500  1
  O  O42  1  0.00000000  0.69038800  0.88599800  1
  O  O43  1  0.00000000  0.35066100  0.98311700  1
loop_
_geom_bond_atom_site_label_1
_geom_bond_atom_site_label_2
_geom_bond_distance
_geom_bond_site_symmetry_2
O0 Zr1 2.133429 1_555
O0 Zr0 2.196998 1_555
O0 Zr14 2.348702 1_455
O0 Zr14 2.348702 1_555
O1 Zr2 2.169529 1_565
O1 Zr15 2.232728 1_555
O1 Zr9 2.298706 1_455
O1 Zr9 2.298706 1_555
O2 Zr3 2.148261 1_555
O2 Zr15 2.163751 1_555
O2 Y0 2.370923 1_555
O2 Y0 2.370923 1_455
O3 Zr4 2.176442 1_555
O3 Zr3 2.211024 1_555
O3 Zr10 2.328165 1_555
O3 Zr10 2.328165 1_455
O4 Zr4 2.181200 1_565
O4 Zr16 2.243045 1_555
O4 Zr11 2.294156 1_555
O4 Zr11 2.294156 1_455
O5 Zr16 2.166719 1_555
O5 Zr17 2.179709 1_555
O5 Y1 2.354549 1_455
O5 Y1 2.354549 1_555
O6 Zr17 2.237540 1_555
O6 Zr5 2.239966 1_555
O6 Zr12 2.273774 1_445
O6 Zr12 2.273774 1_545
O7 Zr12 2.191899 1_555
O7 Zr12 2.191899 1_455
O7 Zr17 2.329262 1_555
O7 Zr16 2.339362 1_555
O8 Zr7 2.224696 1_555
O8 Zr6 2.252784 1_555
O8 Zr13 2.267995 1_455
O8 Zr13 2.267995 1_555
O9 Zr13 2.203695 1_455
O9 Zr13 2.203695 1_555
O9 Zr6 2.318438 1_545
O9 Zr5 2.325569 1_555
O10 Zr0 2.181833 1_645
O10 Zr0 2.181833 1_545
O10 Zr8 2.304474 1_555
O10 Zr14 2.356931 1_555
O11 Zr8 2.153142 1_555
O11 Zr14 2.175948 1_555
O11 Zr1 2.343718 1_655
O11 Zr1 2.343718 1_555
O12 Zr1 2.166432 1_555
O12 Zr1 2.166432 1_655
O12 Zr8 2.302758 1_565
O12 Zr9 2.375276 1_555
O13 Zr2 2.173651 1_555
O13 Zr2 2.173651 1_655
O13 Zr9 2.257903 1_555
O13 Y0 2.447985 1_555
O14 Zr8 2.158192 1_555
O14 Zr9 2.174463 1_545
O14 Zr2 2.343655 1_555
O14 Zr2 2.343655 1_655
O15 Zr9 2.122873 1_555
O15 Zr15 2.298287 1_655
O15 Zr15 2.298287 1_555
O15 Y0 2.315816 1_555
O16 Zr15 2.193665 1_545
O16 Zr15 2.193665 1_645
O16 Zr10 2.241673 1_555
O16 Y0 2.454140 1_555
O17 Zr10 2.145800 1_555
O17 Zr3 2.291994 1_555
O17 Zr3 2.291994 1_655
O17 Y0 2.307062 1_555
O18 Zr3 2.193767 1_555
O18 Zr3 2.193767 1_655
O18 Zr10 2.310074 1_565
O18 Zr11 2.313729 1_555
O19 Zr4 2.183532 1_555
O19 Zr4 2.183532 1_655
O19 Zr11 2.241806 1_555
O19 Y1 2.436637 1_555
O20 Zr11 2.182914 1_545
O20 Zr10 2.190645 1_555
O20 Zr4 2.321265 1_555
O20 Zr4 2.321265 1_655
O21 Zr11 2.142361 1_555
O21 Zr16 2.289965 1_655
O21 Zr16 2.289965 1_555
O21 Y1 2.317428 1_555
O22 Zr16 2.199240 1_655
O22 Zr16 2.199240 1_555
O22 Zr12 2.243845 1_555
O22 Y1 2.406326 1_565
O23 Zr17 2.207983 1_655
O23 Zr17 2.207983 1_555
O23 Zr12 2.235726 1_555
O23 Y2 2.392099 1_555
O24 Zr12 2.173246 1_545
O24 Zr17 2.270771 1_655
O24 Zr17 2.270771 1_555
O24 Y1 2.316325 1_555
O25 Zr12 2.180328 1_555
O25 Zr5 2.265424 1_565
O25 Zr5 2.265424 1_665
O25 Y2 2.326589 1_555
O26 Zr5 2.212566 1_555
O26 Zr5 2.212566 1_655
O26 Zr13 2.232955 1_555
O26 Y2 2.390092 1_555
O27 Zr6 2.212179 1_555
O27 Zr6 2.212179 1_655
O27 Zr13 2.234376 1_565
O27 Y3 2.382068 1_555
O28 Zr13 2.175044 1_555
O28 Zr6 2.264657 1_555
O28 Zr6 2.264657 1_655
O28 Y2 2.333945 1_555
O29 Zr13 2.185242 1_555
O29 Zr7 2.262832 1_655
O29 Zr7 2.262832 1_555
O29 Y3 2.325699 1_545
O30 Zr7 2.208796 1_555
O30 Zr7 2.208796 1_655
O30 Zr14 2.223458 1_556
O30 Y3 2.432905 1_555
O31 Zr14 2.131656 1_556
O31 Zr0 2.301418 1_656
O31 Zr0 2.301418 1_556
O31 Y3 2.307353 1_555
O32 Zr1 2.165850 1_555
O32 Zr2 2.182585 1_555
O32 Zr8 2.348666 1_555
O32 Zr8 2.348666 1_455
O33 Zr8 2.160435 1_465
O33 Zr8 2.160435 1_565
O33 Zr1 2.353337 1_555
O33 Zr0 2.364130 1_555
O34 Zr9 2.184554 1_555
O34 Zr9 2.184554 1_455
O34 Zr1 2.267979 1_555
O34 Zr2 2.391029 1_555
O35 Zr15 2.209181 1_545
O35 Zr2 2.220321 1_555
O35 Y0 2.284978 1_555
O35 Y0 2.284978 1_455
O36 Zr10 2.167804 1_465
O36 Zr10 2.167804 1_565
O36 Zr3 2.307833 1_555
O36 Zr15 2.435569 1_555
O37 Zr11 2.187983 1_455
O37 Zr11 2.187983 1_555
O37 Zr3 2.285471 1_555
O37 Zr4 2.373551 1_555
O38 Zr4 2.199479 1_555
O38 Zr16 2.217752 1_545
O38 Y1 2.294046 1_555
O38 Y1 2.294046 1_455
O39 Zr5 2.179966 1_565
O39 Zr6 2.183192 1_555
O39 Y2 2.347234 1_455
O39 Y2 2.347234 1_555
O40 Zr5 2.210718 1_555
O40 Zr17 2.212647 1_555
O40 Y2 2.302723 1_455
O40 Y2 2.302723 1_555
O41 Zr0 2.130640 1_546
O41 Zr7 2.176001 1_555
O41 Y3 2.371122 1_445
O41 Y3 2.371122 1_545
O42 Zr7 2.191919 1_555
O42 Zr6 2.226637 1_555
O42 Y3 2.297987 1_555
O42 Y3 2.297987 1_455
O43 Zr14 2.165084 1_456
O43 Zr14 2.165084 1_556
O43 Zr0 2.287401 1_546
O43 Zr7 2.453650 1_555
