# generated using pymatgen
data_Ba2Sm(CuO2)3
_symmetry_space_group_name_H-M   'P 1'
_cell_length_a   3.90866700
_cell_length_b   3.90866700
_cell_length_c   12.16006000
_cell_angle_alpha   90.00000000
_cell_angle_beta   90.00000000
_cell_angle_gamma   90.00000000
_symmetry_Int_Tables_number   1
_chemical_formula_structural   Ba2Sm(CuO2)3
_chemical_formula_sum   'Ba2 Sm1 Cu3 O6'
_cell_volume   185.77747770
_cell_formula_units_Z   1
loop_
 _symmetry_equiv_pos_site_id
 _symmetry_equiv_pos_as_xyz
  1  'x, y, z'
loop_
 _atom_site_type_symbol
 _atom_site_label
 _atom_site_symmetry_multiplicity
 _atom_site_fract_x
 _atom_site_fract_y
 _atom_site_fract_z
 _atom_site_occupancy
  Ba  Ba0  1  0.00000000  0.00000000  0.19514100  1
  Ba  Ba1  1  0.00000000  0.00000000  0.80485900  1
  Sm  Sm0  1  0.00000000  0.00000000  0.50000000  1
  Cu  Cu0  1  0.50000000  0.50000000  0.36247000  1
  Cu  Cu1  1  0.50000000  0.50000000  0.00000000  1
  Cu  Cu2  1  0.50000000  0.50000000  0.63753000  1
  O  O0  1  0.00000000  0.50000000  0.37542400  1
  O  O1  1  0.50000000  0.00000000  0.37542400  1
  O  O2  1  0.00000000  0.50000000  0.62457600  1
  O  O3  1  0.50000000  0.50000000  0.14866500  1
  O  O4  1  0.50000000  0.50000000  0.85133500  1
  O  O5  1  0.50000000  0.00000000  0.62457600  1
loop_
_geom_bond_atom_site_label_1
_geom_bond_atom_site_label_2
_geom_bond_distance
_geom_bond_site_symmetry_2
Ba0 O3 2.821034 1_455
Ba0 O3 2.821034 1_555
Ba0 O3 2.821034 1_445
Ba0 O3 2.821034 1_545
Ba0 O0 2.936901 1_545
Ba0 O0 2.936901 1_555
Ba0 O1 2.936901 1_555
Ba0 O1 2.936901 1_455
Ba1 O4 2.821034 1_445
Ba1 O4 2.821034 1_455
Ba1 O4 2.821034 1_555
Ba1 O4 2.821034 1_545
Ba1 O5 2.936901 1_455
Ba1 O5 2.936901 1_555
Ba1 O2 2.936901 1_555
Ba1 O2 2.936901 1_545
Cu0 O0 1.960671 1_655
Cu0 O1 1.960671 1_555
Cu0 O0 1.960671 1_555
Cu0 O1 1.960671 1_565
Cu0 O3 2.599882 1_555
Cu1 O3 1.807775 1_555
Cu1 O4 1.807775 1_554
Cu2 O5 1.960671 1_555
Cu2 O2 1.960671 1_555
Cu2 O5 1.960671 1_565
Cu2 O2 1.960671 1_655
Cu2 O4 2.599882 1_555
O0 Sm0 2.472690 1_565
O0 Sm0 2.472690 1_555
O1 Sm0 2.472690 1_555
O1 Sm0 2.472690 1_655
O2 Sm0 2.472690 1_565
O2 Sm0 2.472690 1_555
O5 Sm0 2.472690 1_555
O5 Sm0 2.472690 1_655
