# generated using pymatgen
data_BaCu2(PO4)2
_symmetry_space_group_name_H-M   'P 1'
_cell_length_a   9.35421997
_cell_length_b   9.38852575
_cell_length_c   10.70157718
_cell_angle_alpha   106.92935782
_cell_angle_beta   101.71213901
_cell_angle_gamma   115.37064051
_symmetry_Int_Tables_number   1
_chemical_formula_structural   BaCu2(PO4)2
_chemical_formula_sum   'Ba4 Cu8 P8 O32'
_cell_volume   751.72739162
_cell_formula_units_Z   4
loop_
 _symmetry_equiv_pos_site_id
 _symmetry_equiv_pos_as_xyz
  1  'x, y, z'
loop_
 _atom_site_type_symbol
 _atom_site_label
 _atom_site_symmetry_multiplicity
 _atom_site_fract_x
 _atom_site_fract_y
 _atom_site_fract_z
 _atom_site_occupancy
  Ba  Ba0  1  0.75928400  0.75636200  0.00250900  1
  Ba  Ba1  1  0.24071600  0.24363800  0.99749100  1
  Ba  Ba2  1  0.73598500  0.75117900  0.51362500  1
  Ba  Ba3  1  0.26401500  0.24882100  0.48637500  1
  Cu  Cu0  1  0.09920400  0.76324300  0.29288100  1
  Cu  Cu1  1  0.02977000  0.68702200  0.80108100  1
  Cu  Cu2  1  0.36318000  0.70878100  0.68888300  1
  Cu  Cu3  1  0.48425500  0.83226300  0.19592200  1
  Cu  Cu4  1  0.90079600  0.23675700  0.70711900  1
  Cu  Cu5  1  0.97023000  0.31297800  0.19891900  1
  Cu  Cu6  1  0.51574500  0.16773700  0.80407800  1
  Cu  Cu7  1  0.63682000  0.29121900  0.31111700  1
  P  P0  1  0.21301100  0.94375700  0.13468400  1
  P  P1  1  0.28872600  0.57004700  0.86725200  1
  P  P2  1  0.19520000  0.91977700  0.62840200  1
  P  P3  1  0.29706800  0.57670000  0.35951300  1
  P  P4  1  0.80480000  0.08022300  0.37159800  1
  P  P5  1  0.70293200  0.42330000  0.64048700  1
  P  P6  1  0.71127400  0.42995300  0.13274800  1
  P  P7  1  0.78698900  0.05624300  0.86531600  1
  O  O0  1  0.27292000  0.10949100  0.74328900  1
  O  O1  1  0.63782200  0.87230200  0.81812700  1
  O  O2  1  0.86521900  0.40611100  0.65799000  1
  O  O3  1  0.26200800  0.80862000  0.14929700  1
  O  O4  1  0.74703400  0.28927600  0.16165300  1
  O  O5  1  0.64204200  0.09883700  0.34293800  1
  O  O6  1  0.35795800  0.90116300  0.65706200  1
  O  O7  1  0.89662000  0.05542200  0.77066400  1
  O  O8  1  0.10338000  0.94457800  0.22933600  1
  O  O9  1  0.73799200  0.19138000  0.85070300  1
  O  O10  1  0.90864900  0.11878300  0.01888100  1
  O  O11  1  0.78430300  0.61838700  0.74764300  1
  O  O12  1  0.13478100  0.59388900  0.34201000  1
  O  O13  1  0.04377200  0.78135000  0.64149200  1
  O  O14  1  0.09135100  0.88121700  0.98111900  1
  O  O15  1  0.86224500  0.07834100  0.51715100  1
  O  O16  1  0.62399500  0.41003900  0.49103800  1
  O  O17  1  0.21569700  0.38161300  0.25235700  1
  O  O18  1  0.55971000  0.29565600  0.66782700  1
  O  O19  1  0.44029000  0.70434400  0.33217300  1
  O  O20  1  0.95622800  0.21865000  0.35850800  1
  O  O21  1  0.13775500  0.92165900  0.48284900  1
  O  O22  1  0.35009600  0.51705400  0.74528500  1
  O  O23  1  0.37600500  0.58996100  0.50896200  1
  O  O24  1  0.25296600  0.71072400  0.83834700  1
  O  O25  1  0.86692300  0.58134700  0.13464400  1
  O  O26  1  0.64990400  0.48294600  0.25471500  1
  O  O27  1  0.13307700  0.41865300  0.86535600  1
  O  O28  1  0.56239400  0.34773200  0.98998800  1
  O  O29  1  0.72708000  0.89050900  0.25671100  1
  O  O30  1  0.43760600  0.65226800  0.01001200  1
  O  O31  1  0.36217800  0.12769800  0.18187300  1
loop_
_geom_bond_atom_site_label_1
_geom_bond_atom_site_label_2
_geom_bond_distance
_geom_bond_site_symmetry_2
Ba0 O11 2.762821 1_554
Ba0 O30 2.763995 1_555
Ba0 O29 2.782051 1_555
Ba0 O1 2.787414 1_554
Ba0 O25 2.811781 1_555
Ba0 O14 2.898242 1_654
Ba0 O8 2.971689 1_655
Ba0 O10 3.006652 1_565
Ba1 O17 2.762821 1_556
Ba1 O28 2.763995 1_555
Ba1 O0 2.782051 1_555
Ba1 O31 2.787414 1_556
Ba1 O27 2.811781 1_555
Ba1 O10 2.898242 1_456
Ba1 O7 2.971689 1_455
Ba1 O14 3.006652 1_545
Ba2 O15 2.763426 1_565
Ba2 O13 2.778105 1_655
Ba2 O19 2.809740 1_555
Ba2 O26 2.821376 1_555
Ba2 O16 2.825758 1_555
Ba2 O7 2.837482 1_565
Ba2 O23 3.025314 1_555
Ba2 O11 3.141990 1_555
Ba3 O21 2.763426 1_545
Ba3 O20 2.778105 1_455
Ba3 O18 2.809740 1_555
Ba3 O22 2.821376 1_555
Ba3 O23 2.825758 1_555
Ba3 O8 2.837482 1_545
Ba3 O16 3.025314 1_555
Ba3 O17 3.141990 1_555
Cu0 O12 1.945372 1_555
Cu0 O21 1.989183 1_555
Cu0 O8 1.997601 1_555
Cu0 O25 2.036486 1_455
Cu0 O3 2.374257 1_555
Cu1 O24 1.944149 1_555
Cu1 O14 1.992906 1_555
Cu1 O11 1.999732 1_455
Cu1 O13 2.142538 1_555
Cu1 O2 2.209527 1_455
Cu2 O6 1.951335 1_555
Cu2 O23 1.980833 1_555
Cu2 O22 2.023209 1_555
Cu2 O24 2.071289 1_555
Cu2 O1 2.193376 1_555
Cu3 O3 1.933691 1_555
Cu3 O29 2.002535 1_555
Cu3 O30 2.015430 1_555
Cu3 O5 2.125087 1_565
Cu3 O19 2.139523 1_555
Cu4 O2 1.945372 1_555
Cu4 O15 1.989183 1_555
Cu4 O7 1.997601 1_555
Cu4 O27 2.036486 1_655
Cu4 O9 2.374257 1_555
Cu5 O4 1.944149 1_555
Cu5 O10 1.992906 1_555
Cu5 O17 1.999732 1_655
Cu5 O20 2.142538 1_555
Cu5 O12 2.209527 1_655
Cu6 O9 1.933691 1_555
Cu6 O0 2.002535 1_555
Cu6 O28 2.015430 1_555
Cu6 O6 2.125087 1_545
Cu6 O18 2.139523 1_555
Cu7 O5 1.951335 1_555
Cu7 O16 1.980833 1_555
Cu7 O26 2.023209 1_555
Cu7 O4 2.071289 1_555
Cu7 O31 2.193376 1_555
O0 P2 1.569936 1_545
O1 P7 1.524920 1_565
O2 P5 1.574090 1_555
O3 P0 1.558518 1_555
O4 P6 1.589490 1_555
O5 P4 1.584985 1_555
O6 P2 1.584985 1_555
O7 P7 1.581679 1_555
O8 P0 1.581679 1_555
O9 P7 1.558518 1_555
O10 P7 1.564203 1_554
O11 P5 1.573783 1_555
O12 P3 1.574090 1_555
O13 P2 1.524509 1_555
O14 P0 1.564203 1_556
O15 P4 1.549088 1_555
O16 P5 1.563464 1_555
O17 P3 1.573783 1_555
O18 P5 1.517932 1_555
O19 P3 1.517932 1_555
O20 P4 1.524509 1_555
O21 P2 1.549088 1_555
O22 P1 1.565728 1_555
O23 P3 1.563464 1_555
O24 P1 1.589490 1_555
O25 P6 1.529164 1_555
O26 P6 1.565728 1_555
O27 P1 1.529164 1_555
O28 P6 1.548401 1_556
O29 P4 1.569936 1_565
O30 P1 1.548401 1_554
O31 P0 1.524920 1_545
