# generated using pymatgen
data_In4SnS4
_symmetry_space_group_name_H-M   'P 1'
_cell_length_a   12.53180144
_cell_length_b   12.53180144
_cell_length_c   12.53180144
_cell_angle_alpha   90.00000000
_cell_angle_beta   90.00000000
_cell_angle_gamma   90.00000000
_symmetry_Int_Tables_number   1
_chemical_formula_structural   In4SnS4
_chemical_formula_sum   'In32 Sn8 S32'
_cell_volume   1968.06988210
_cell_formula_units_Z   8
loop_
 _symmetry_equiv_pos_site_id
 _symmetry_equiv_pos_as_xyz
  1  'x, y, z'
loop_
 _atom_site_type_symbol
 _atom_site_label
 _atom_site_symmetry_multiplicity
 _atom_site_fract_x
 _atom_site_fract_y
 _atom_site_fract_z
 _atom_site_occupancy
  In  In0  1  0.76977283  0.02795880  0.43341455  1
  In  In1  1  0.52795880  0.43341455  0.73022717  1
  In  In2  1  0.23022717  0.97204120  0.56658545  1
  In  In3  1  0.22891031  0.72891031  0.77108969  1
  In  In4  1  0.56658545  0.26977283  0.47204120  1
  In  In5  1  0.76977283  0.47204120  0.93341455  1
  In  In6  1  0.22891031  0.77108969  0.27108969  1
  In  In7  1  0.43341455  0.76977283  0.02795880  1
  In  In8  1  0.93341455  0.76977283  0.47204120  1
  In  In9  1  0.47204120  0.56658545  0.26977283  1
  In  In10  1  0.26977283  0.02795880  0.06658545  1
  In  In11  1  0.93341455  0.73022717  0.97204120  1
  In  In12  1  0.77108969  0.27108969  0.22891031  1
  In  In13  1  0.02795880  0.43341455  0.76977283  1
  In  In14  1  0.56658545  0.23022717  0.97204120  1
  In  In15  1  0.26977283  0.47204120  0.56658545  1
  In  In16  1  0.73022717  0.52795880  0.43341455  1
  In  In17  1  0.72891031  0.72891031  0.72891031  1
  In  In18  1  0.23022717  0.52795880  0.06658545  1
  In  In19  1  0.02795880  0.06658545  0.26977283  1
  In  In20  1  0.52795880  0.06658545  0.23022717  1
  In  In21  1  0.97204120  0.93341455  0.73022717  1
  In  In22  1  0.27108969  0.22891031  0.77108969  1
  In  In23  1  0.43341455  0.73022717  0.52795880  1
  In  In24  1  0.72891031  0.77108969  0.22891031  1
  In  In25  1  0.47204120  0.93341455  0.76977283  1
  In  In26  1  0.73022717  0.97204120  0.93341455  1
  In  In27  1  0.77108969  0.22891031  0.72891031  1
  In  In28  1  0.06658545  0.23022717  0.52795880  1
  In  In29  1  0.97204120  0.56658545  0.23022717  1
  In  In30  1  0.06658545  0.26977283  0.02795880  1
  In  In31  1  0.27108969  0.27108969  0.27108969  1
  Sn  Sn0  1  0.60050689  0.89949311  0.10050689  1
  Sn  Sn1  1  0.60050689  0.60050689  0.60050689  1
  Sn  Sn2  1  0.39949311  0.10050689  0.89949311  1
  Sn  Sn3  1  0.89949311  0.10050689  0.60050689  1
  Sn  Sn4  1  0.89949311  0.39949311  0.10050689  1
  Sn  Sn5  1  0.10050689  0.89949311  0.39949311  1
  Sn  Sn6  1  0.10050689  0.60050689  0.89949311  1
  Sn  Sn7  1  0.39949311  0.39949311  0.39949311  1
  S  S0  1  0.07530020  0.25538747  0.32627329  1
  S  S1  1  0.42469980  0.75538747  0.32627329  1
  S  S2  1  0.75538747  0.17372671  0.92469980  1
  S  S3  1  0.25538747  0.32627329  0.07530020  1
  S  S4  1  0.92469980  0.75538747  0.17372671  1
  S  S5  1  0.57632256  0.42367744  0.92367744  1
  S  S6  1  0.74461253  0.82627329  0.42469980  1
  S  S7  1  0.92469980  0.74461253  0.67372671  1
  S  S8  1  0.67372671  0.92469980  0.74461253  1
  S  S9  1  0.42469980  0.74461253  0.82627329  1
  S  S10  1  0.17372671  0.92469980  0.75538747  1
  S  S11  1  0.57530020  0.25538747  0.17372671  1
  S  S12  1  0.07530020  0.24461253  0.82627329  1
  S  S13  1  0.75538747  0.32627329  0.42469980  1
  S  S14  1  0.82627329  0.07530020  0.24461253  1
  S  S15  1  0.07632256  0.42367744  0.57632256  1
  S  S16  1  0.17372671  0.57530020  0.25538747  1
  S  S17  1  0.82627329  0.42469980  0.74461253  1
  S  S18  1  0.57632256  0.07632256  0.42367744  1
  S  S19  1  0.07632256  0.07632256  0.07632256  1
  S  S20  1  0.25538747  0.17372671  0.57530020  1
  S  S21  1  0.67372671  0.57530020  0.24461253  1
  S  S22  1  0.42367744  0.57632256  0.07632256  1
  S  S23  1  0.24461253  0.67372671  0.57530020  1
  S  S24  1  0.74461253  0.67372671  0.92469980  1
  S  S25  1  0.32627329  0.42469980  0.75538747  1
  S  S26  1  0.32627329  0.07530020  0.25538747  1
  S  S27  1  0.24461253  0.82627329  0.07530020  1
  S  S28  1  0.42367744  0.92367744  0.57632256  1
  S  S29  1  0.92367744  0.92367744  0.92367744  1
  S  S30  1  0.57530020  0.24461253  0.67372671  1
  S  S31  1  0.92367744  0.57632256  0.42367744  1
loop_
_geom_bond_atom_site_label_1
_geom_bond_atom_site_label_2
_geom_bond_distance
_geom_bond_site_symmetry_2
In0 S18 2.501872 1_555
In0 S14 2.539962 1_555
In0 S6 2.549414 1_545
In0 Sn3 2.802488 1_555
In1 S5 2.501872 1_555
In1 S30 2.539962 1_555
In1 S25 2.549414 1_555
In1 Sn1 2.802488 1_555
In2 S28 2.501872 1_555
In2 S10 2.539962 1_555
In2 S20 2.549414 1_565
In2 Sn5 2.802488 1_555
In3 S23 2.556774 1_555
In3 S9 2.556774 1_555
In3 S10 2.556774 1_555
In3 Sn6 2.787088 1_555
In4 S18 2.501872 1_555
In4 S13 2.539962 1_555
In4 S30 2.549414 1_555
In4 Sn7 2.802488 1_555
In5 S5 2.501872 1_555
In5 S17 2.539962 1_555
In5 S24 2.549414 1_555
In5 Sn4 2.802488 1_556
In6 S1 2.556774 1_555
In6 S27 2.556774 1_555
In6 S16 2.556774 1_555
In6 Sn5 2.787088 1_555
In7 S22 2.501872 1_555
In7 S27 2.539962 1_555
In7 S9 2.549414 1_554
In7 Sn0 2.802488 1_555
In8 S31 2.501872 1_555
In8 S6 2.539962 1_555
In8 S7 2.549414 1_555
In8 Sn5 2.802488 1_655
In9 S22 2.501872 1_555
In9 S1 2.539962 1_555
In9 S21 2.549414 1_555
In9 Sn7 2.802488 1_555
In10 S19 2.501872 1_555
In10 S26 2.539962 1_555
In10 S27 2.549414 1_545
In10 Sn2 2.802488 1_554
In11 S29 2.501872 1_555
In11 S24 2.539962 1_555
In11 S4 2.549414 1_556
In11 Sn6 2.802488 1_655
In12 S11 2.556774 1_555
In12 S13 2.556774 1_555
In12 S14 2.556774 1_555
In12 Sn4 2.787088 1_555
In13 S15 2.501872 1_555
In13 S12 2.539962 1_555
In13 S17 2.549414 1_455
In13 Sn6 2.802488 1_555
In14 S5 2.501872 1_555
In14 S2 2.539962 1_555
In14 S11 2.549414 1_556
In14 Sn2 2.802488 1_555
In15 S15 2.501872 1_555
In15 S25 2.539962 1_555
In15 S23 2.549414 1_555
In15 Sn7 2.802488 1_555
In16 S31 2.501872 1_555
In16 S21 2.539962 1_555
In16 S13 2.549414 1_555
In16 Sn1 2.802488 1_555
In17 S7 2.556774 1_555
In17 S8 2.556774 1_555
In17 S24 2.556774 1_555
In17 Sn1 2.787088 1_555
In18 S22 2.501872 1_555
In18 S16 2.539962 1_555
In18 S3 2.549414 1_555
In18 Sn6 2.802488 1_554
In19 S19 2.501872 1_555
In19 S0 2.539962 1_555
In19 S14 2.549414 1_455
In19 Sn5 2.802488 1_545
In20 S18 2.501872 1_555
In20 S11 2.539962 1_555
In20 S26 2.549414 1_555
In20 Sn0 2.802488 1_545
In21 S29 2.501872 1_555
In21 S7 2.539962 1_555
In21 S10 2.549414 1_655
In21 Sn3 2.802488 1_565
In22 S20 2.556774 1_555
In22 S12 2.556774 1_555
In22 S25 2.556774 1_555
In22 Sn2 2.787088 1_555
In23 S28 2.501872 1_555
In23 S23 2.539962 1_555
In23 S1 2.549414 1_555
In23 Sn1 2.802488 1_555
In24 S4 2.556774 1_555
In24 S6 2.556774 1_555
In24 S21 2.556774 1_555
In24 Sn0 2.787088 1_555
In25 S28 2.501872 1_555
In25 S9 2.539962 1_555
In25 S8 2.549414 1_555
In25 Sn2 2.802488 1_565
In26 S29 2.501872 1_555
In26 S8 2.539962 1_555
In26 S2 2.549414 1_565
In26 Sn0 2.802488 1_556
In27 S30 2.556774 1_555
In27 S2 2.556774 1_555
In27 S17 2.556774 1_555
In27 Sn3 2.787088 1_555
In28 S15 2.501872 1_555
In28 S20 2.539962 1_555
In28 S0 2.549414 1_555
In28 Sn3 2.802488 1_455
In29 S31 2.501872 1_555
In29 S4 2.539962 1_555
In29 S16 2.549414 1_655
In29 Sn4 2.802488 1_555
In30 S19 2.501872 1_555
In30 S3 2.539962 1_555
In30 S12 2.549414 1_554
In30 Sn4 2.802488 1_455
In31 S3 2.556774 1_555
In31 S0 2.556774 1_555
In31 S26 2.556774 1_555
In31 Sn7 2.787088 1_555
