# generated using pymatgen
data_TaNi2TeSe
_symmetry_space_group_name_H-M   'P 1'
_cell_length_a   3.51448100
_cell_length_b   6.49518200
_cell_length_c   16.55313600
_cell_angle_alpha   90.00000000
_cell_angle_beta   90.00000000
_cell_angle_gamma   90.00000000
_symmetry_Int_Tables_number   1
_chemical_formula_structural   TaNi2TeSe
_chemical_formula_sum   'Ta4 Ni8 Te4 Se4'
_cell_volume   377.86164232
_cell_formula_units_Z   4
loop_
 _symmetry_equiv_pos_site_id
 _symmetry_equiv_pos_as_xyz
  1  'x, y, z'
loop_
 _atom_site_type_symbol
 _atom_site_label
 _atom_site_symmetry_multiplicity
 _atom_site_fract_x
 _atom_site_fract_y
 _atom_site_fract_z
 _atom_site_occupancy
  Ta  Ta0  1  0.25000000  0.90816100  0.72129600  1
  Ta  Ta1  1  0.75000000  0.09183900  0.27870400  1
  Ta  Ta2  1  0.25000000  0.40816100  0.77870400  1
  Ta  Ta3  1  0.75000000  0.59183900  0.22129600  1
  Ni  Ni0  1  0.75000000  0.60333900  0.68045000  1
  Ni  Ni1  1  0.25000000  0.39666100  0.31955000  1
  Ni  Ni2  1  0.25000000  0.89666100  0.18045000  1
  Ni  Ni3  1  0.25000000  0.78562900  0.32071400  1
  Ni  Ni4  1  0.75000000  0.71437100  0.82071400  1
  Ni  Ni5  1  0.75000000  0.10333900  0.81955000  1
  Ni  Ni6  1  0.75000000  0.21437100  0.67928600  1
  Ni  Ni7  1  0.25000000  0.28562900  0.17928600  1
  Te  Te0  1  0.25000000  0.90965100  0.90291100  1
  Te  Te1  1  0.75000000  0.59034900  0.40291100  1
  Te  Te2  1  0.75000000  0.09034900  0.09708900  1
  Te  Te3  1  0.25000000  0.40965100  0.59708900  1
  Se  Se0  1  0.75000000  0.90895400  0.59988700  1
  Se  Se1  1  0.25000000  0.59104600  0.09988700  1
  Se  Se2  1  0.75000000  0.40895400  0.90011300  1
  Se  Se3  1  0.25000000  0.09104600  0.40011300  1
loop_
_geom_bond_atom_site_label_1
_geom_bond_atom_site_label_2
_geom_bond_distance
_geom_bond_site_symmetry_2
Ta0 Te0 3.006313 1_555
Ta1 Te2 3.006313 1_555
Ta2 Te3 3.006313 1_555
Ta3 Te1 3.006313 1_555
Ni0 Se0 2.391387 1_555
Ni0 Ni4 2.431232 1_555
Ni0 Ni6 2.526491 1_555
Ni0 Te3 2.564106 1_555
Ni0 Te3 2.564106 1_655
Ni0 Ta2 2.709283 1_655
Ni0 Ta2 2.709283 1_555
Ni0 Ta0 2.732206 1_555
Ni0 Ta0 2.732206 1_655
Ni1 Se3 2.391387 1_555
Ni1 Ni7 2.431232 1_555
Ni1 Ni3 2.526491 1_555
Ni1 Te1 2.564106 1_455
Ni1 Te1 2.564106 1_555
Ni1 Ta3 2.709283 1_455
Ni1 Ta3 2.709283 1_555
Ni1 Ta1 2.732206 1_455
Ni1 Ta1 2.732206 1_555
Ni2 Se1 2.391387 1_555
Ni2 Ni3 2.431232 1_555
Ni2 Ni7 2.526491 1_565
Ni2 Te2 2.564106 1_565
Ni2 Te2 2.564106 1_465
Ni2 Ta1 2.709283 1_565
Ni2 Ta1 2.709283 1_465
Ni2 Ta3 2.732206 1_555
Ni2 Ta3 2.732206 1_455
Ni3 Se3 2.379624 1_565
Ni3 Te1 2.558898 1_455
Ni3 Te1 2.558898 1_555
Ni3 Ta3 2.716705 1_455
Ni3 Ta3 2.716705 1_555
Ni3 Ta1 2.743566 1_465
Ni3 Ta1 2.743566 1_565
Ni4 Se2 2.379624 1_555
Ni4 Ni5 2.526491 1_565
Ni4 Te0 2.558898 1_655
Ni4 Te0 2.558898 1_555
Ni4 Ta0 2.716705 1_555
Ni4 Ta0 2.716705 1_655
Ni4 Ta2 2.743566 1_555
Ni4 Ta2 2.743566 1_655
Ni5 Se2 2.391387 1_555
Ni5 Ni6 2.431232 1_555
Ni5 Te0 2.564106 1_545
Ni5 Te0 2.564106 1_645
Ni5 Ta0 2.709283 1_545
Ni5 Ta0 2.709283 1_645
Ni5 Ta2 2.732206 1_655
Ni5 Ta2 2.732206 1_555
Ni6 Se0 2.379624 1_545
Ni6 Te3 2.558898 1_555
Ni6 Te3 2.558898 1_655
Ni6 Ta2 2.716705 1_555
Ni6 Ta2 2.716705 1_655
Ni6 Ta0 2.743566 1_645
Ni6 Ta0 2.743566 1_545
Ni7 Se1 2.379624 1_555
Ni7 Te2 2.558898 1_555
Ni7 Te2 2.558898 1_455
Ni7 Ta1 2.716705 1_455
Ni7 Ta1 2.716705 1_555
Ni7 Ta3 2.743566 1_455
Ni7 Ta3 2.743566 1_555
Se0 Ta0 2.669609 1_655
Se0 Ta0 2.669609 1_555
Se1 Ta3 2.669609 1_455
Se1 Ta3 2.669609 1_555
Se2 Ta2 2.669609 1_555
Se2 Ta2 2.669609 1_655
Se3 Ta1 2.669609 1_455
Se3 Ta1 2.669609 1_555
