# generated using pymatgen
data_Ba3NdRu2O9
_symmetry_space_group_name_H-M   'P 1'
_cell_length_a   6.01184509
_cell_length_b   6.01184509
_cell_length_c   14.91353468
_cell_angle_alpha   89.71606995
_cell_angle_beta   89.71606995
_cell_angle_gamma   120.00901375
_symmetry_Int_Tables_number   1
_chemical_formula_structural   Ba3NdRu2O9
_chemical_formula_sum   'Ba6 Nd2 Ru4 O18'
_cell_volume   466.73029621
_cell_formula_units_Z   2
loop_
 _symmetry_equiv_pos_site_id
 _symmetry_equiv_pos_as_xyz
  1  'x, y, z'
loop_
 _atom_site_type_symbol
 _atom_site_label
 _atom_site_symmetry_multiplicity
 _atom_site_fract_x
 _atom_site_fract_y
 _atom_site_fract_z
 _atom_site_occupancy
  Ba  Ba0  1  0.33531800  0.66819500  0.89782500  1
  Ba  Ba1  1  0.00040400  0.99959600  0.25000000  1
  Ba  Ba2  1  0.66468200  0.33180500  0.10217500  1
  Ba  Ba3  1  0.33180500  0.66468200  0.60217500  1
  Ba  Ba4  1  0.66819500  0.33531800  0.39782500  1
  Ba  Ba5  1  0.99959600  0.00040400  0.75000000  1
  Nd  Nd0  1  0.00000000  0.00000000  0.00000000  1
  Nd  Nd1  1  0.00000000  0.00000000  0.50000000  1
  Ru  Ru0  1  0.32780600  0.66132300  0.16628800  1
  Ru  Ru1  1  0.33867700  0.67219400  0.33371200  1
  Ru  Ru2  1  0.67219400  0.33867700  0.83371200  1
  Ru  Ru3  1  0.66132300  0.32780600  0.66628800  1
  O  O0  1  0.83430300  0.65460700  0.90373600  1
  O  O1  1  0.34539300  0.16569700  0.59626400  1
  O  O2  1  0.16569700  0.34539300  0.09626400  1
  O  O3  1  0.65460700  0.83430300  0.40373600  1
  O  O4  1  0.36962300  0.19005000  0.91224800  1
  O  O5  1  0.80995000  0.63037700  0.58775200  1
  O  O6  1  0.63037700  0.80995000  0.08775200  1
  O  O7  1  0.19005000  0.36962300  0.41224800  1
  O  O8  1  0.83446100  0.18905500  0.90678800  1
  O  O9  1  0.81094500  0.16553900  0.59321200  1
  O  O10  1  0.16553900  0.81094500  0.09321200  1
  O  O11  1  0.18905500  0.83446100  0.40678800  1
  O  O12  1  0.49088000  0.50912000  0.25000000  1
  O  O13  1  0.50912000  0.49088000  0.75000000  1
  O  O14  1  0.01904800  0.50830200  0.25361300  1
  O  O15  1  0.49169800  0.98095200  0.24638700  1
  O  O16  1  0.98095200  0.49169800  0.74638700  1
  O  O17  1  0.50830200  0.01904800  0.75361300  1
loop_
_geom_bond_atom_site_label_1
_geom_bond_atom_site_label_2
_geom_bond_distance
_geom_bond_site_symmetry_2
Ba0 O17 2.809773 1_565
Ba0 O13 2.864072 1_555
Ba0 O16 2.928393 1_455
Ba0 O8 2.949270 1_455
Ba0 O0 2.972863 1_455
Ba0 O4 2.989825 1_555
Ba0 O0 3.043195 1_555
Ba0 O4 3.048188 1_565
Ba0 O8 3.071950 1_565
Ba0 O6 3.233787 1_556
Ba0 O10 3.337762 1_556
Ba0 O2 3.390845 1_556
Ba1 O3 2.903394 1_455
Ba1 O2 2.903394 1_565
Ba1 O10 2.978062 1_555
Ba1 O11 2.978062 1_555
Ba1 O14 3.004538 1_565
Ba1 O15 3.004538 1_455
Ba1 O12 3.007149 1_455
Ba1 O12 3.007149 1_565
Ba1 O15 3.011436 1_555
Ba1 O14 3.011436 1_555
Ba1 O7 3.105983 1_565
Ba1 O6 3.105983 1_455
Ba2 O15 2.809773 1_545
Ba2 O12 2.864072 1_555
Ba2 O14 2.928393 1_655
Ba2 O10 2.949270 1_655
Ba2 O2 2.972863 1_655
Ba2 O6 2.989825 1_555
Ba2 O2 3.043195 1_555
Ba2 O6 3.048188 1_545
Ba2 O10 3.071950 1_545
Ba2 O4 3.233787 1_554
Ba2 O8 3.337762 1_554
Ba2 O0 3.390845 1_554
Ba3 O16 2.809773 1_455
Ba3 O13 2.864072 1_555
Ba3 O17 2.928393 1_565
Ba3 O9 2.949270 1_565
Ba3 O1 2.972863 1_565
Ba3 O5 2.989825 1_555
Ba3 O1 3.043195 1_555
Ba3 O5 3.048188 1_455
Ba3 O9 3.071950 1_455
Ba3 O7 3.233787 1_555
Ba3 O11 3.337762 1_555
Ba3 O3 3.390845 1_555
Ba4 O14 2.809773 1_655
Ba4 O12 2.864072 1_555
Ba4 O15 2.928393 1_545
Ba4 O11 2.949270 1_545
Ba4 O3 2.972863 1_545
Ba4 O7 2.989825 1_555
Ba4 O3 3.043195 1_555
Ba4 O7 3.048188 1_655
Ba4 O11 3.071950 1_655
Ba4 O5 3.233787 1_555
Ba4 O9 3.337762 1_555
Ba4 O1 3.390845 1_555
Ba5 O0 2.903394 1_545
Ba5 O1 2.903394 1_655
Ba5 O8 2.978062 1_555
Ba5 O9 2.978062 1_555
Ba5 O17 3.004538 1_655
Ba5 O16 3.004538 1_545
Ba5 O13 3.007149 1_545
Ba5 O13 3.007149 1_655
Ba5 O17 3.011436 1_555
Ba5 O16 3.011436 1_555
Ba5 O4 3.105983 1_655
Ba5 O5 3.105983 1_545
Nd0 O0 2.310781 1_444
Nd0 O2 2.310781 1_555
Nd0 O8 2.311732 1_454
Nd0 O10 2.311732 1_545
Nd0 O6 2.317905 1_445
Nd0 O4 2.317905 1_554
Nd1 O3 2.310781 1_445
Nd1 O1 2.310781 1_555
Nd1 O9 2.311732 1_455
Nd1 O11 2.311732 1_545
Nd1 O7 2.317905 1_555
Nd1 O5 2.317905 1_445
O0 Ru2 1.956017 1_555
O1 Ru3 1.956017 1_555
O2 Ru0 1.956017 1_555
O3 Ru1 1.956017 1_555
O4 Ru2 1.954929 1_555
O5 Ru3 1.954929 1_555
O6 Ru0 1.954929 1_555
O7 Ru1 1.954929 1_555
O8 Ru2 1.956276 1_555
O9 Ru3 1.956276 1_555
O10 Ru0 1.956276 1_555
O11 Ru1 1.956276 1_555
O12 Ru0 2.062795 1_555
O12 Ru1 2.062795 1_555
O13 Ru2 2.062795 1_555
O13 Ru3 2.062795 1_555
O14 Ru1 2.056883 1_555
O14 Ru0 2.060083 1_555
O15 Ru0 2.056883 1_555
O15 Ru1 2.060083 1_555
O16 Ru3 2.056883 1_555
O16 Ru2 2.060083 1_555
O17 Ru2 2.056883 1_555
O17 Ru3 2.060083 1_555
