# generated using pymatgen
data_Re2Cl7O3
_symmetry_space_group_name_H-M   'P 1'
_cell_length_a   11.10006100
_cell_length_b   6.30431700
_cell_length_c   17.15808797
_cell_angle_alpha   73.43593291
_cell_angle_beta   90.00000000
_cell_angle_gamma   90.00000000
_symmetry_Int_Tables_number   1
_chemical_formula_structural   Re2Cl7O3
_chemical_formula_sum   'Re8 Cl28 O12'
_cell_volume   1150.86695430
_cell_formula_units_Z   4
loop_
 _symmetry_equiv_pos_site_id
 _symmetry_equiv_pos_as_xyz
  1  'x, y, z'
loop_
 _atom_site_type_symbol
 _atom_site_label
 _atom_site_symmetry_multiplicity
 _atom_site_fract_x
 _atom_site_fract_y
 _atom_site_fract_z
 _atom_site_occupancy
  Re  Re0  1  0.08453800  0.47869200  0.69066800  1
  Re  Re1  1  0.66054000  0.66717100  0.46810600  1
  Re  Re2  1  0.33946000  0.33282900  0.53189400  1
  Re  Re3  1  0.91546200  0.52130800  0.30933200  1
  Re  Re4  1  0.83946000  0.66717100  0.96810600  1
  Re  Re5  1  0.58453800  0.52130800  0.80933200  1
  Re  Re6  1  0.41546200  0.47869200  0.19066800  1
  Re  Re7  1  0.16054000  0.33282900  0.03189400  1
  Cl  Cl0  1  0.02478700  0.66994500  0.05355400  1
  Cl  Cl1  1  0.50286400  0.18394000  0.15775400  1
  Cl  Cl2  1  0.72512100  0.25722800  0.80556500  1
  Cl  Cl3  1  0.02413300  0.70340600  0.56612700  1
  Cl  Cl4  1  0.47586700  0.70340600  0.06612700  1
  Cl  Cl5  1  0.52478700  0.33005500  0.44644600  1
  Cl  Cl6  1  0.47521300  0.66994500  0.55355400  1
  Cl  Cl7  1  0.46011100  0.13246300  0.63380100  1
  Cl  Cl8  1  0.00286400  0.81606000  0.34224600  1
  Cl  Cl9  1  0.22512100  0.74277200  0.69443500  1
  Cl  Cl10  1  0.22309900  0.60518500  0.92124600  1
  Cl  Cl11  1  0.70519900  0.77371000  0.71882700  1
  Cl  Cl12  1  0.27690100  0.60518500  0.42124600  1
  Cl  Cl13  1  0.97586700  0.29659400  0.43387300  1
  Cl  Cl14  1  0.77690100  0.39481500  0.07875400  1
  Cl  Cl15  1  0.52413300  0.29659400  0.93387300  1
  Cl  Cl16  1  0.20519900  0.22629000  0.78117300  1
  Cl  Cl17  1  0.79480100  0.77371000  0.21882700  1
  Cl  Cl18  1  0.77487900  0.25722800  0.30556500  1
  Cl  Cl19  1  0.49713600  0.81606000  0.84224600  1
  Cl  Cl20  1  0.53988900  0.86753700  0.36619900  1
  Cl  Cl21  1  0.97521300  0.33005500  0.94644600  1
  Cl  Cl22  1  0.03988900  0.13246300  0.13380100  1
  Cl  Cl23  1  0.99713600  0.18394000  0.65775400  1
  Cl  Cl24  1  0.72309900  0.39481500  0.57875400  1
  Cl  Cl25  1  0.29480100  0.22629000  0.28117300  1
  Cl  Cl26  1  0.27487900  0.74277200  0.19443500  1
  Cl  Cl27  1  0.96011100  0.86753700  0.86619900  1
  O  O0  1  0.26357300  0.39879100  0.09829400  1
  O  O1  1  0.02233900  0.46721500  0.24770700  1
  O  O2  1  0.52233900  0.53278500  0.25229300  1
  O  O3  1  0.72267300  0.88439100  0.49499500  1
  O  O4  1  0.27732700  0.11560900  0.50500500  1
  O  O5  1  0.23642700  0.39879100  0.59829400  1
  O  O6  1  0.22267300  0.11560900  0.00500500  1
  O  O7  1  0.73642700  0.60120900  0.90170600  1
  O  O8  1  0.77732700  0.88439100  0.99499500  1
  O  O9  1  0.97766100  0.53278500  0.75229300  1
  O  O10  1  0.76357300  0.60120900  0.40170600  1
  O  O11  1  0.47766100  0.46721500  0.74770700  1
loop_
_geom_bond_atom_site_label_1
_geom_bond_atom_site_label_2
_geom_bond_distance
_geom_bond_site_symmetry_2
Cl0 Re4 2.529086 1_454
Cl0 Re7 2.715872 1_555
Cl1 Re6 2.304658 1_555
Cl2 Re5 2.296157 1_555
Cl3 Re0 2.301463 1_555
Cl4 Re6 2.301463 1_555
Cl5 Re2 2.529086 1_555
Cl5 Re1 2.715872 1_555
Cl6 Re1 2.529086 1_555
Cl6 Re2 2.715872 1_555
Cl7 Re2 2.277534 1_555
Cl8 Re3 2.304658 1_455
Cl9 Re0 2.296157 1_555
Cl10 Re7 2.275093 1_556
Cl11 Re5 2.308334 1_555
Cl12 Re2 2.275093 1_555
Cl13 Re3 2.301463 1_555
Cl14 Re4 2.275093 1_554
Cl15 Re5 2.301463 1_555
Cl16 Re0 2.308334 1_555
Cl17 Re3 2.308334 1_555
Cl18 Re3 2.296157 1_555
Cl19 Re5 2.304658 1_555
Cl20 Re1 2.277534 1_555
Cl21 Re7 2.529086 1_656
Cl21 Re4 2.715872 1_555
Cl22 Re7 2.277534 1_555
Cl23 Re0 2.304658 1_655
Cl24 Re1 2.275093 1_555
Cl25 Re6 2.308334 1_555
Cl26 Re6 2.296157 1_555
Cl27 Re4 2.277534 1_555
O0 Re7 1.746151 1_555
O0 Re6 2.462432 1_555
O1 Re3 1.687400 1_455
O2 Re6 1.687400 1_555
O3 Re1 1.709993 1_555
O4 Re2 1.709993 1_555
O5 Re2 1.746151 1_555
O5 Re0 2.462432 1_555
O6 Re7 1.709993 1_555
O7 Re4 1.746151 1_555
O7 Re5 2.462432 1_555
O8 Re4 1.709993 1_555
O9 Re0 1.687400 1_655
O10 Re1 1.746151 1_555
O10 Re3 2.462432 1_555
O11 Re5 1.687400 1_555
