# generated using pymatgen
data_RbTaPS6
_symmetry_space_group_name_H-M   'P 1'
_cell_length_a   18.03059600
_cell_length_b   14.45882700
_cell_length_c   16.15232728
_cell_angle_alpha   73.30877380
_cell_angle_beta   90.00000000
_cell_angle_gamma   90.00000000
_symmetry_Int_Tables_number   1
_chemical_formula_structural   RbTaPS6
_chemical_formula_sum   'Rb16 Ta16 P16 S96'
_cell_volume   4033.51084350
_cell_formula_units_Z   16
loop_
 _symmetry_equiv_pos_site_id
 _symmetry_equiv_pos_as_xyz
  1  'x, y, z'
loop_
 _atom_site_type_symbol
 _atom_site_label
 _atom_site_symmetry_multiplicity
 _atom_site_fract_x
 _atom_site_fract_y
 _atom_site_fract_z
 _atom_site_occupancy
  Rb  Rb0  1  0.37419000  0.05312100  0.48890300  1
  Rb  Rb1  1  0.62581000  0.94687900  0.51109700  1
  Rb  Rb2  1  0.93240100  0.85187000  0.45542300  1
  Rb  Rb3  1  0.43240100  0.64813000  0.04457700  1
  Rb  Rb4  1  0.48458200  0.48900600  0.37121200  1
  Rb  Rb5  1  0.32757600  0.14430400  0.02278200  1
  Rb  Rb6  1  0.67242400  0.85569600  0.97721800  1
  Rb  Rb7  1  0.98458200  0.01099400  0.12878800  1
  Rb  Rb8  1  0.01541800  0.98900600  0.87121200  1
  Rb  Rb9  1  0.82757600  0.35569600  0.47721800  1
  Rb  Rb10  1  0.87419000  0.44687900  0.01109700  1
  Rb  Rb11  1  0.56759900  0.35187000  0.95542300  1
  Rb  Rb12  1  0.06759900  0.14813000  0.54457700  1
  Rb  Rb13  1  0.51541800  0.51099400  0.62878800  1
  Rb  Rb14  1  0.17242400  0.64430400  0.52278200  1
  Rb  Rb15  1  0.12581000  0.55312100  0.98890300  1
  Ta  Ta0  1  0.38785900  0.75183000  0.75376600  1
  Ta  Ta1  1  0.88785900  0.74817000  0.74623400  1
  Ta  Ta2  1  0.28702700  0.29256300  0.73063200  1
  Ta  Ta3  1  0.87784600  0.67229900  0.16446500  1
  Ta  Ta4  1  0.12215400  0.32770100  0.83553500  1
  Ta  Ta5  1  0.61214100  0.24817000  0.24623400  1
  Ta  Ta6  1  0.72310700  0.63716600  0.69480900  1
  Ta  Ta7  1  0.77689300  0.13716600  0.19480900  1
  Ta  Ta8  1  0.71297300  0.70743700  0.26936800  1
  Ta  Ta9  1  0.27689300  0.36283400  0.30519100  1
  Ta  Ta10  1  0.37784600  0.82770100  0.33553500  1
  Ta  Ta11  1  0.78702700  0.20743700  0.76936800  1
  Ta  Ta12  1  0.11214100  0.25183000  0.25376600  1
  Ta  Ta13  1  0.62215400  0.17229900  0.66446500  1
  Ta  Ta14  1  0.22310700  0.86283400  0.80519100  1
  Ta  Ta15  1  0.21297300  0.79256300  0.23063200  1
  P  P0  1  0.55866200  0.69254900  0.83231300  1
  P  P1  1  0.94133800  0.19254900  0.33231300  1
  P  P2  1  0.21242100  0.84005300  0.01535200  1
  P  P3  1  0.44133800  0.30745100  0.16768700  1
  P  P4  1  0.05866200  0.80745100  0.66768700  1
  P  P5  1  0.61037000  0.25119800  0.45138300  1
  P  P6  1  0.28757900  0.34005300  0.51535200  1
  P  P7  1  0.11037000  0.24880200  0.04861700  1
  P  P8  1  0.38963000  0.74880200  0.54861700  1
  P  P9  1  0.71242100  0.65994700  0.48464800  1
  P  P10  1  0.95517500  0.28605600  0.69782300  1
  P  P11  1  0.45517500  0.21394400  0.80217700  1
  P  P12  1  0.04482500  0.71394400  0.30217700  1
  P  P13  1  0.78757900  0.15994700  0.98464800  1
  P  P14  1  0.88963000  0.75119800  0.95138300  1
  P  P15  1  0.54482500  0.78605600  0.19782300  1
  S  S0  1  0.20003400  0.18858800  0.35589400  1
  S  S1  1  0.28620500  0.86269200  0.66677800  1
  S  S2  1  0.95744400  0.55471500  0.17101700  1
  S  S3  1  0.55062900  0.28024200  0.73866300  1
  S  S4  1  0.21133700  0.41163200  0.42493600  1
  S  S5  1  0.34657800  0.64663100  0.65388100  1
  S  S6  1  0.44098600  0.69641500  0.45818400  1
  S  S7  1  0.13627800  0.74208500  0.76249800  1
  S  S8  1  0.26505300  0.93683700  0.27445300  1
  S  S9  1  0.65342200  0.35336900  0.34611900  1
  S  S10  1  0.25647000  0.72369500  0.10801100  1
  S  S11  1  0.33245700  0.42404600  0.58496300  1
  S  S12  1  0.47839100  0.61353700  0.78854500  1
  S  S13  1  0.71646100  0.31439300  0.67017700  1
  S  S14  1  0.89152200  0.16883000  0.68376800  1
  S  S15  1  0.45744400  0.94528500  0.32898300  1
  S  S16  1  0.23494700  0.43683700  0.77445300  1
  S  S17  1  0.54302700  0.17159400  0.39508200  1
  S  S18  1  0.29996600  0.68858800  0.85589400  1
  S  S19  1  0.36033600  0.29529000  0.43529300  1
  S  S20  1  0.04302700  0.32840600  0.10491800  1
  S  S21  1  0.13966400  0.79529000  0.93529300  1
  S  S22  1  0.71379500  0.13730800  0.33322200  1
  S  S23  1  0.30794000  0.83195900  0.47070000  1
  S  S24  1  0.44937100  0.71975800  0.26133700  1
  S  S25  1  0.05901400  0.19641500  0.95818400  1
  S  S26  1  0.10192600  0.87505600  0.55341200  1
  S  S27  1  0.54255600  0.05471500  0.67101700  1
  S  S28  1  0.98917800  0.69055900  0.66883900  1
  S  S29  1  0.11650400  0.67672000  0.21633200  1
  S  S30  1  0.16138500  0.99506600  0.73844800  1
  S  S31  1  0.45697300  0.82840600  0.60491800  1
  S  S32  1  0.97916200  0.38496400  0.58846200  1
  S  S33  1  0.19206000  0.33195900  0.97070000  1
  S  S34  1  0.21379500  0.36269200  0.16677800  1
  S  S35  1  0.10847800  0.83117000  0.31623200  1
  S  S36  1  0.02160900  0.11353700  0.28854500  1
  S  S37  1  0.76505300  0.56316300  0.22554700  1
  S  S38  1  0.71133700  0.08836800  0.07506400  1
  S  S39  1  0.79996600  0.81141200  0.64410600  1
  S  S40  1  0.80794000  0.66804100  0.02930000  1
  S  S41  1  0.66138500  0.50493400  0.76155200  1
  S  S42  1  0.66754300  0.57595400  0.41503700  1
  S  S43  1  0.60192600  0.62494400  0.94658800  1
  S  S44  1  0.84657800  0.85336900  0.84611900  1
  S  S45  1  0.21646100  0.18560700  0.82982300  1
  S  S46  1  0.28866300  0.91163200  0.92493600  1
  S  S47  1  0.86372200  0.25791500  0.23750200  1
  S  S48  1  0.15342200  0.14663100  0.15388100  1
  S  S49  1  0.86033600  0.20471000  0.06470700  1
  S  S50  1  0.48917800  0.80944100  0.83116100  1
  S  S51  1  0.39807400  0.37505600  0.05341200  1
  S  S52  1  0.51082200  0.19055900  0.16883900  1
  S  S53  1  0.95697300  0.67159400  0.89508200  1
  S  S54  1  0.55901400  0.30358500  0.54181600  1
  S  S55  1  0.69206000  0.16804100  0.52930000  1
  S  S56  1  0.02083800  0.61503600  0.41153800  1
  S  S57  1  0.70003400  0.31141200  0.14410600  1
  S  S58  1  0.94098600  0.80358500  0.04181600  1
  S  S59  1  0.16754300  0.92404600  0.08496300  1
  S  S60  1  0.78620500  0.63730800  0.83322200  1
  S  S61  1  0.85014300  0.57454300  0.75904500  1
  S  S62  1  0.89807400  0.12494400  0.44658800  1
  S  S63  1  0.83861500  0.00493400  0.26155200  1
  S  S64  1  0.75647000  0.77630500  0.39198900  1
  S  S65  1  0.38349600  0.17672000  0.71633200  1
  S  S66  1  0.01082200  0.30944100  0.33116100  1
  S  S67  1  0.83008800  0.60043500  0.31534800  1
  S  S68  1  0.52160900  0.38646300  0.21145500  1
  S  S69  1  0.35014300  0.92545700  0.74095500  1
  S  S70  1  0.73494700  0.06316300  0.72554700  1
  S  S71  1  0.60847800  0.66883000  0.18376800  1
  S  S72  1  0.66991200  0.10043500  0.81534800  1
  S  S73  1  0.61650400  0.82328000  0.28366800  1
  S  S74  1  0.64985700  0.07454300  0.25904500  1
  S  S75  1  0.33008800  0.89956500  0.18465200  1
  S  S76  1  0.94937100  0.78024200  0.23866300  1
  S  S77  1  0.05062900  0.21975800  0.76133700  1
  S  S78  1  0.33861500  0.49506600  0.23844800  1
  S  S79  1  0.28353900  0.68560700  0.32982300  1
  S  S80  1  0.78866300  0.58836800  0.57506400  1
  S  S81  1  0.16991200  0.39956500  0.68465200  1
  S  S82  1  0.36372200  0.24208500  0.26249800  1
  S  S83  1  0.63966400  0.70471000  0.56470700  1
  S  S84  1  0.97839100  0.88646300  0.71145500  1
  S  S85  1  0.14985700  0.42545700  0.24095500  1
  S  S86  1  0.47916200  0.11503600  0.91153800  1
  S  S87  1  0.88349600  0.32328000  0.78366800  1
  S  S88  1  0.83245700  0.07595400  0.91503700  1
  S  S89  1  0.52083800  0.88496400  0.08846200  1
  S  S90  1  0.24353000  0.22369500  0.60801100  1
  S  S91  1  0.74353000  0.27630500  0.89198900  1
  S  S92  1  0.39152200  0.33117000  0.81623200  1
  S  S93  1  0.78353900  0.81439300  0.17017700  1
  S  S94  1  0.63627800  0.75791500  0.73750200  1
  S  S95  1  0.04255600  0.44528500  0.82898300  1
loop_
_geom_bond_atom_site_label_1
_geom_bond_atom_site_label_2
_geom_bond_distance
_geom_bond_site_symmetry_2
Rb0 S19 3.366141 1_555
Rb0 S23 3.504138 1_545
Rb0 S31 3.577541 1_545
Rb0 S17 3.606524 1_555
Rb0 S15 3.697325 1_545
Rb0 S1 3.715962 1_545
Rb0 S82 3.890310 1_555
Rb0 S69 3.981623 1_545
Rb0 S0 3.986898 1_555
Rb1 S83 3.366141 1_555
Rb1 S55 3.504138 1_565
Rb1 S17 3.577541 1_565
Rb1 S31 3.606524 1_555
Rb1 S27 3.697325 1_565
Rb1 S22 3.715962 1_565
Rb1 S94 3.890310 1_555
Rb1 S74 3.981623 1_565
Rb1 S39 3.986898 1_555
Rb2 S26 3.502186 1_655
Rb2 S64 3.598483 1_555
Rb2 S63 3.685456 1_565
Rb2 S28 3.708432 1_555
Rb2 S39 3.782641 1_555
Rb3 S43 3.502186 1_554
Rb3 S10 3.598483 1_555
Rb3 S78 3.685456 1_555
Rb3 S50 3.708432 1_554
Rb3 S18 3.782641 1_554
Rb4 S24 3.359021 1_555
Rb4 S78 3.380111 1_555
Rb4 S68 3.391222 1_555
Rb4 S19 3.502817 1_555
Rb4 S54 3.512628 1_555
Rb4 S42 3.670894 1_555
Rb4 S9 3.706031 1_555
Rb4 S6 3.742282 1_555
Rb5 S86 3.363755 1_554
Rb5 S33 3.567739 1_554
Rb5 S45 3.607686 1_554
Rb5 S51 3.733671 1_555
Rb5 S75 3.747719 1_545
Rb5 S48 3.792931 1_555
Rb5 S92 3.818655 1_554
Rb6 S89 3.363755 1_556
Rb6 S40 3.567739 1_556
Rb6 S93 3.607686 1_556
Rb6 S43 3.733671 1_555
Rb6 S72 3.747719 1_565
Rb6 S44 3.792931 1_555
Rb6 S71 3.818655 1_556
Rb7 S76 3.359021 1_545
Rb7 S63 3.380111 1_555
Rb7 S36 3.391222 1_655
Rb7 S49 3.502817 1_555
Rb7 S25 3.512628 1_654
Rb7 S59 3.670894 1_645
Rb7 S48 3.706031 1_655
Rb7 S58 3.742282 1_545
Rb8 S77 3.359021 1_565
Rb8 S30 3.380111 1_555
Rb8 S84 3.391222 1_455
Rb8 S21 3.502817 1_555
Rb8 S58 3.512628 1_456
Rb8 S88 3.670894 1_465
Rb8 S44 3.706031 1_455
Rb8 S25 3.742282 1_565
Rb9 S32 3.363755 1_555
Rb9 S55 3.567739 1_555
Rb9 S13 3.607686 1_555
Rb9 S62 3.733671 1_555
Rb9 S67 3.747719 1_555
Rb9 S9 3.792931 1_555
Rb9 S14 3.818655 1_555
Rb10 S49 3.366141 1_555
Rb10 S40 3.504138 1_555
Rb10 S53 3.577541 1_554
Rb10 S20 3.606524 1_655
Rb10 S2 3.697325 1_555
Rb10 S60 3.715962 1_554
Rb10 S47 3.890310 1_555
Rb10 S61 3.981623 1_554
Rb10 S57 3.986898 1_555
Rb11 S51 3.502186 1_556
Rb11 S91 3.598483 1_555
Rb11 S41 3.685456 1_555
Rb11 S52 3.708432 1_556
Rb11 S57 3.782641 1_556
Rb12 S62 3.502186 1_455
Rb12 S90 3.598483 1_555
Rb12 S30 3.685456 1_545
Rb12 S66 3.708432 1_555
Rb12 S0 3.782641 1_555
Rb13 S3 3.359021 1_555
Rb13 S41 3.380111 1_555
Rb13 S12 3.391222 1_555
Rb13 S83 3.502817 1_555
Rb13 S6 3.512628 1_555
Rb13 S11 3.670894 1_555
Rb13 S5 3.706031 1_555
Rb13 S54 3.742282 1_555
Rb14 S56 3.363755 1_555
Rb14 S23 3.567739 1_555
Rb14 S79 3.607686 1_555
Rb14 S26 3.733671 1_555
Rb14 S81 3.747719 1_555
Rb14 S5 3.792931 1_555
Rb14 S35 3.818655 1_555
Rb15 S21 3.366141 1_555
Rb15 S33 3.504138 1_555
Rb15 S20 3.577541 1_556
Rb15 S53 3.606524 1_455
Rb15 S95 3.697325 1_555
Rb15 S34 3.715962 1_556
Rb15 S7 3.890310 1_555
Rb15 S85 3.981623 1_556
Rb15 S18 3.986898 1_555
P0 S43 1.983581 1_555
P0 S12 2.088927 1_555
P0 S94 2.089396 1_555
P0 S50 2.099618 1_555
P1 S62 1.983581 1_555
P1 S36 2.088927 1_655
P1 S47 2.089396 1_555
P1 S66 2.099618 1_655
P2 S59 2.044074 1_555
P2 S46 2.055605 1_554
P2 S10 2.062732 1_555
P2 S21 2.071913 1_554
P3 S51 1.983581 1_555
P3 S68 2.088927 1_555
P3 S82 2.089396 1_555
P3 S52 2.099618 1_555
P4 S26 1.983581 1_555
P4 S84 2.088927 1_455
P4 S7 2.089396 1_555
P4 S28 2.099618 1_455
P5 S54 2.049484 1_555
P5 S17 2.056056 1_555
P5 S9 2.057418 1_555
P5 S55 2.080826 1_555
P6 S11 2.044074 1_555
P6 S4 2.055605 1_555
P6 S90 2.062732 1_555
P6 S19 2.071913 1_555
P7 S25 2.049484 1_554
P7 S20 2.056056 1_555
P7 S48 2.057418 1_555
P7 S33 2.080826 1_554
P8 S6 2.049484 1_555
P8 S31 2.056056 1_555
P8 S5 2.057418 1_555
P8 S23 2.080826 1_555
P9 S42 2.044074 1_555
P9 S80 2.055605 1_555
P9 S64 2.062732 1_555
P9 S83 2.071913 1_555
P10 S32 1.975200 1_555
P10 S87 2.076379 1_555
P10 S77 2.090125 1_655
P10 S14 2.112498 1_555
P11 S86 1.975200 1_555
P11 S65 2.076379 1_555
P11 S3 2.090125 1_555
P11 S92 2.112498 1_555
P12 S56 1.975200 1_555
P12 S29 2.076379 1_555
P12 S76 2.090125 1_455
P12 S35 2.112498 1_555
P13 S88 2.044074 1_555
P13 S38 2.055605 1_556
P13 S91 2.062732 1_555
P13 S49 2.071913 1_556
P14 S58 2.049484 1_556
P14 S53 2.056056 1_555
P14 S44 2.057418 1_555
P14 S40 2.080826 1_556
P15 S89 1.975200 1_555
P15 S73 2.076379 1_555
P15 S24 2.090125 1_555
P15 S71 2.112498 1_555
S0 Ta12 2.280863 1_555
S0 Ta9 2.784477 1_555
S1 S69 2.052490 1_555
S1 Ta14 2.509045 1_555
S1 Ta0 2.570858 1_555
S2 Ta3 2.204104 1_555
S3 Ta13 2.570960 1_555
S4 Ta9 2.533743 1_555
S5 Ta0 2.623025 1_555
S6 Ta10 2.581445 1_555
S7 Ta14 2.581915 1_555
S8 Ta15 2.565632 1_555
S8 Ta10 2.589433 1_555
S9 Ta5 2.623025 1_555
S10 Ta15 2.581149 1_555
S11 Ta2 2.692912 1_555
S12 Ta0 2.516567 1_555
S13 Ta11 2.270261 1_555
S13 Ta13 2.688832 1_555
S14 Ta11 2.493291 1_555
S15 Ta10 2.204104 1_555
S16 S81 2.053879 1_555
S16 Ta2 2.565632 1_555
S16 Ta4 2.589433 1_555
S17 Ta5 2.651431 1_555
S18 Ta0 2.280863 1_555
S18 Ta14 2.784477 1_555
S19 Ta9 2.540583 1_555
S20 Ta12 2.651431 1_555
S21 Ta14 2.540583 1_555
S22 S74 2.052490 1_555
S22 Ta7 2.509045 1_555
S22 Ta5 2.570858 1_555
S23 Ta10 2.536970 1_555
S24 Ta10 2.570960 1_555
S25 Ta4 2.581445 1_555
S27 Ta13 2.204104 1_555
S28 Ta1 2.488405 1_555
S29 Ta15 2.471142 1_555
S30 Ta14 2.207298 1_555
S31 Ta0 2.651431 1_555
S33 Ta4 2.536970 1_555
S34 S85 2.052490 1_555
S34 Ta9 2.509045 1_555
S34 Ta12 2.570858 1_555
S35 Ta15 2.493291 1_555
S36 Ta12 2.516567 1_555
S37 S67 2.053879 1_555
S37 Ta8 2.565632 1_555
S37 Ta3 2.589433 1_555
S38 Ta7 2.533743 1_555
S39 Ta1 2.280863 1_555
S39 Ta6 2.784477 1_555
S40 Ta3 2.536970 1_555
S41 Ta6 2.207298 1_555
S42 Ta8 2.692912 1_555
S44 Ta1 2.623025 1_555
S45 Ta2 2.270261 1_555
S45 Ta4 2.688832 1_555
S46 Ta14 2.533743 1_555
S47 Ta7 2.581915 1_555
S48 Ta12 2.623025 1_555
S49 Ta7 2.540583 1_555
S50 Ta0 2.488405 1_555
S52 Ta5 2.488405 1_555
S53 Ta1 2.651431 1_555
S54 Ta13 2.581445 1_555
S55 Ta13 2.536970 1_555
S57 Ta5 2.280863 1_555
S57 Ta7 2.784477 1_555
S58 Ta3 2.581445 1_555
S59 Ta15 2.692912 1_555
S60 S61 2.052490 1_555
S60 Ta6 2.509045 1_555
S60 Ta1 2.570858 1_555
S61 Ta1 2.551312 1_555
S61 Ta6 2.569684 1_555
S63 Ta7 2.207298 1_555
S64 Ta8 2.581149 1_555
S65 Ta2 2.471142 1_555
S66 Ta12 2.488405 1_555
S67 Ta3 2.511183 1_555
S67 Ta8 2.596963 1_555
S68 Ta5 2.516567 1_555
S69 Ta0 2.551312 1_555
S69 Ta14 2.569684 1_555
S70 S72 2.053879 1_555
S70 Ta11 2.565632 1_555
S70 Ta13 2.589433 1_555
S71 Ta8 2.493291 1_555
S72 Ta13 2.511183 1_555
S72 Ta11 2.596963 1_555
S73 Ta8 2.471142 1_555
S74 Ta5 2.551312 1_555
S74 Ta7 2.569684 1_555
S75 S8 2.053879 1_555
S75 Ta10 2.511183 1_555
S75 Ta15 2.596963 1_555
S76 Ta3 2.570960 1_555
S77 Ta4 2.570960 1_555
S78 Ta9 2.207298 1_555
S79 Ta15 2.270261 1_555
S79 Ta10 2.688832 1_555
S80 Ta6 2.533743 1_555
S81 Ta4 2.511183 1_555
S81 Ta2 2.596963 1_555
S82 Ta9 2.581915 1_555
S83 Ta6 2.540583 1_555
S84 Ta1 2.516567 1_555
S85 Ta12 2.551312 1_555
S85 Ta9 2.569684 1_555
S87 Ta11 2.471142 1_555
S88 Ta11 2.692912 1_555
S90 Ta2 2.581149 1_555
S91 Ta11 2.581149 1_555
S92 Ta2 2.493291 1_555
S93 Ta8 2.270261 1_555
S93 Ta3 2.688832 1_555
S94 Ta6 2.581915 1_555
S95 Ta4 2.204104 1_555
