# generated using pymatgen
data_Gd6Ta4Al43
_symmetry_space_group_name_H-M   'P 1'
_cell_length_a   10.91499707
_cell_length_b   10.91499683
_cell_length_c   17.26109006
_cell_angle_alpha   90.00000000
_cell_angle_beta   90.00000000
_cell_angle_gamma   120.00000077
_symmetry_Int_Tables_number   1
_chemical_formula_structural   Gd6Ta4Al43
_chemical_formula_sum   'Gd12 Ta8 Al86'
_cell_volume   1780.92686013
_cell_formula_units_Z   2
loop_
 _symmetry_equiv_pos_site_id
 _symmetry_equiv_pos_as_xyz
  1  'x, y, z'
loop_
 _atom_site_type_symbol
 _atom_site_label
 _atom_site_symmetry_multiplicity
 _atom_site_fract_x
 _atom_site_fract_y
 _atom_site_fract_z
 _atom_site_occupancy
  Gd  Gd0  1  0.52997652  0.00000000  0.09489567  1
  Gd  Gd1  1  0.52997652  0.52997652  0.59489567  1
  Gd  Gd2  1  0.52997652  0.52997652  0.90510433  1
  Gd  Gd3  1  0.47002348  0.00000000  0.90510433  1
  Gd  Gd4  1  0.47002348  0.47002348  0.40510433  1
  Gd  Gd5  1  0.00000000  0.47002348  0.59489567  1
  Gd  Gd6  1  0.47002348  0.47002348  0.09489567  1
  Gd  Gd7  1  0.47002348  0.00000000  0.59489567  1
  Gd  Gd8  1  0.00000000  0.52997652  0.09489567  1
  Gd  Gd9  1  0.52997652  0.00000000  0.40510433  1
  Gd  Gd10  1  0.00000000  0.52997652  0.40510433  1
  Gd  Gd11  1  0.00000000  0.47002348  0.90510433  1
  Ta  Ta0  1  0.72782833  0.00000000  0.25000000  1
  Ta  Ta1  1  0.72782833  0.72782833  0.75000000  1
  Ta  Ta2  1  0.27217167  0.00000000  0.75000000  1
  Ta  Ta3  1  0.00000000  0.72782833  0.25000000  1
  Ta  Ta4  1  0.00000000  0.00000000  0.00000000  1
  Ta  Ta5  1  0.27217167  0.27217167  0.25000000  1
  Ta  Ta6  1  0.00000000  0.27217167  0.75000000  1
  Ta  Ta7  1  0.00000000  0.00000000  0.50000000  1
  Al  Al0  1  0.76304367  0.60491648  0.33685197  1
  Al  Al1  1  0.23695633  0.84187281  0.33685197  1
  Al  Al2  1  0.75316428  0.24683572  0.50000000  1
  Al  Al3  1  0.55371371  0.40435745  0.25000000  1
  Al  Al4  1  0.74513142  0.74513142  0.03017139  1
  Al  Al5  1  0.49367143  0.24683572  0.50000000  1
  Al  Al6  1  0.23695633  0.84187281  0.16314803  1
  Al  Al7  1  0.85064374  0.40435745  0.75000000  1
  Al  Al8  1  0.39508352  0.23695633  0.83685197  1
  Al  Al9  1  0.75316428  0.50632857  0.50000000  1
  Al  Al10  1  0.15868784  0.00000000  0.61534666  1
  Al  Al11  1  0.60491648  0.84187281  0.83685197  1
  Al  Al12  1  0.84131216  0.00000000  0.38465334  1
  Al  Al13  1  0.74513142  0.00000000  0.53017139  1
  Al  Al14  1  0.60491648  0.76304367  0.33685197  1
  Al  Al15  1  0.00000000  0.15868784  0.88465334  1
  Al  Al16  1  0.00000000  0.25486858  0.03017139  1
  Al  Al17  1  0.24683572  0.75316428  0.50000000  1
  Al  Al18  1  0.76304367  0.15812719  0.66314803  1
  Al  Al19  1  0.33333300  0.66666700  0.37437996  1
  Al  Al20  1  0.14879493  0.00000000  0.25000000  1
  Al  Al21  1  0.60491648  0.76304367  0.16314803  1
  Al  Al22  1  0.15868784  0.00000000  0.88465334  1
  Al  Al23  1  0.33333300  0.66666700  0.87437996  1
  Al  Al24  1  0.14935626  0.59564255  0.25000000  1
  Al  Al25  1  0.84131216  0.00000000  0.11534666  1
  Al  Al26  1  0.76304367  0.15812719  0.83685197  1
  Al  Al27  1  0.60491648  0.84187281  0.66314803  1
  Al  Al28  1  0.49367143  0.24683572  0.00000000  1
  Al  Al29  1  0.84187281  0.23695633  0.16314803  1
  Al  Al30  1  0.00000000  0.15868784  0.61534666  1
  Al  Al31  1  0.25486858  0.25486858  0.53017139  1
  Al  Al32  1  0.74513142  0.00000000  0.96982861  1
  Al  Al33  1  0.75316428  0.24683572  0.00000000  1
  Al  Al34  1  0.75316428  0.50632857  0.00000000  1
  Al  Al35  1  0.44628629  0.85064374  0.25000000  1
  Al  Al36  1  0.00000000  0.74513142  0.96982861  1
  Al  Al37  1  0.39508352  0.23695633  0.66314803  1
  Al  Al38  1  0.00000000  0.25486858  0.46982861  1
  Al  Al39  1  0.50632857  0.75316428  0.00000000  1
  Al  Al40  1  0.33333300  0.66666700  0.12562004  1
  Al  Al41  1  0.40435745  0.85064374  0.75000000  1
  Al  Al42  1  0.24683572  0.49367143  0.50000000  1
  Al  Al43  1  0.25486858  0.00000000  0.46982861  1
  Al  Al44  1  0.00000000  0.84131216  0.11534666  1
  Al  Al45  1  0.15868784  0.15868784  0.38465334  1
  Al  Al46  1  0.24683572  0.75316428  0.00000000  1
  Al  Al47  1  0.59564255  0.14935626  0.25000000  1
  Al  Al48  1  0.39508352  0.15812719  0.16314803  1
  Al  Al49  1  0.14935626  0.55371371  0.75000000  1
  Al  Al50  1  0.15812719  0.39508352  0.16314803  1
  Al  Al51  1  0.55371371  0.14935626  0.75000000  1
  Al  Al52  1  0.39508352  0.15812719  0.33685197  1
  Al  Al53  1  0.15812719  0.76304367  0.83685197  1
  Al  Al54  1  0.84187281  0.60491648  0.83685197  1
  Al  Al55  1  0.84187281  0.23695633  0.33685197  1
  Al  Al56  1  0.15812719  0.39508352  0.33685197  1
  Al  Al57  1  0.66666700  0.33333300  0.37437996  1
  Al  Al58  1  0.66666700  0.33333300  0.12562004  1
  Al  Al59  1  0.23695633  0.39508352  0.66314803  1
  Al  Al60  1  0.74513142  0.74513142  0.46982861  1
  Al  Al61  1  0.00000000  0.74513142  0.53017139  1
  Al  Al62  1  0.85064374  0.44628629  0.25000000  1
  Al  Al63  1  0.66666700  0.33333300  0.87437996  1
  Al  Al64  1  0.84131216  0.84131216  0.88465334  1
  Al  Al65  1  0.84131216  0.84131216  0.61534666  1
  Al  Al66  1  0.66666700  0.33333300  0.62562004  1
  Al  Al67  1  0.24683572  0.49367143  0.00000000  1
  Al  Al68  1  0.40435745  0.55371371  0.25000000  1
  Al  Al69  1  0.23695633  0.39508352  0.83685197  1
  Al  Al70  1  0.14879493  0.14879493  0.75000000  1
  Al  Al71  1  0.85120507  0.00000000  0.75000000  1
  Al  Al72  1  0.76304367  0.60491648  0.16314803  1
  Al  Al73  1  0.84187281  0.60491648  0.66314803  1
  Al  Al74  1  0.33333300  0.66666700  0.62562004  1
  Al  Al75  1  0.15812719  0.76304367  0.66314803  1
  Al  Al76  1  0.25486858  0.00000000  0.03017139  1
  Al  Al77  1  0.59564255  0.44628629  0.75000000  1
  Al  Al78  1  0.15868784  0.15868784  0.11534666  1
  Al  Al79  1  0.00000000  0.85120507  0.75000000  1
  Al  Al80  1  0.00000000  0.84131216  0.38465334  1
  Al  Al81  1  0.00000000  0.14879493  0.25000000  1
  Al  Al82  1  0.25486858  0.25486858  0.96982861  1
  Al  Al83  1  0.50632857  0.75316428  0.50000000  1
  Al  Al84  1  0.44628629  0.59564255  0.75000000  1
  Al  Al85  1  0.85120507  0.85120507  0.25000000  1
loop_
_geom_bond_atom_site_label_1
_geom_bond_atom_site_label_2
_geom_bond_distance
_geom_bond_site_symmetry_2
Gd0 Gd3 3.340724 1_554
Gd0 Ta0 3.439686 1_555
Gd1 Gd4 3.340724 1_555
Gd1 Ta1 3.439686 1_555
Gd2 Gd6 3.340724 1_556
Gd2 Ta1 3.439686 1_555
Gd3 Ta2 3.439686 1_555
Gd4 Ta5 3.439686 1_555
Gd5 Ta6 3.439686 1_555
Gd6 Ta5 3.439686 1_555
Gd7 Gd9 3.340724 1_555
Gd7 Ta2 3.439686 1_555
Gd8 Ta3 3.439686 1_555
Gd9 Ta0 3.439686 1_555
Gd10 Gd5 3.340724 1_555
Gd10 Ta3 3.439686 1_555
Gd11 Gd8 3.340724 1_556
Gd11 Ta6 3.439686 1_555
Al0 Al57 2.682377 1_555
Al0 Al3 2.694138 1_555
Al0 Ta3 2.695707 1_655
Al0 Al80 2.711891 1_655
Al0 Al85 2.795220 1_555
Al0 Al62 2.795560 1_555
Al0 Al60 2.819257 1_555
Al0 Al14 2.989447 1_555
Al0 Al9 2.997339 1_555
Al0 Al72 2.998319 1_555
Al0 Gd4 3.012629 1_555
Al0 Gd10 3.295746 1_655
Al1 Al19 2.682367 1_555
Al1 Al35 2.694138 1_555
Al1 Ta3 2.695707 1_555
Al1 Al80 2.711892 1_555
Al1 Al20 2.795220 1_565
Al1 Al24 2.795560 1_555
Al1 Al43 2.819257 1_565
Al1 Al52 2.989447 1_565
Al1 Al17 2.997340 1_555
Al1 Al6 2.998319 1_555
Al1 Gd9 3.012629 1_565
Al1 Gd10 3.295746 1_555
Al2 Al38 2.702121 1_655
Al2 Al57 2.715836 1_555
Al2 Al66 2.715836 1_555
Al2 Al9 2.832364 1_555
Al2 Al5 2.832364 1_555
Al2 Al55 2.997340 1_555
Al2 Gd9 3.051725 1_555
Al2 Gd5 3.051725 1_655
Al2 Gd10 3.341630 1_655
Al2 Gd7 3.341630 1_555
Al3 Ta5 2.662972 1_555
Al3 Al72 2.694138 1_555
Al3 Al58 2.772379 1_555
Al3 Al57 2.772379 1_555
Al3 Al52 2.795560 1_555
Al3 Al48 2.795560 1_555
Al3 Al68 2.823629 1_555
Al3 Gd6 3.028311 1_555
Al3 Gd4 3.028311 1_555
Al3 Al47 3.038127 1_555
Al3 Al62 3.038127 1_555
Al4 Al64 2.722360 1_554
Al4 Al72 2.819257 1_555
Al4 Ta4 2.830218 1_665
Al4 Al44 2.842903 1_655
Al4 Gd2 3.189897 1_554
Al4 Gd6 3.203901 1_555
Al5 Al57 2.715842 1_555
Al5 Al66 2.715842 1_555
Al5 Al9 2.832364 1_555
Al5 Al52 2.997340 1_555
Al5 Gd4 3.051725 1_555
Al5 Gd7 3.051725 1_555
Al5 Gd1 3.341630 1_555
Al5 Gd9 3.341630 1_555
Al6 Ta3 2.695707 1_555
Al6 Al76 2.819257 1_565
Al6 Gd0 3.012629 1_565
Al6 Gd8 3.295746 1_555
Al7 Ta6 2.662972 1_655
Al7 Al73 2.694138 1_555
Al7 Gd11 3.028311 1_655
Al7 Gd5 3.028311 1_655
Al7 Al77 3.038127 1_555
Al8 Ta2 2.695706 1_555
Al8 Al82 2.819257 1_555
Al8 Gd2 3.012629 1_555
Al8 Gd3 3.295746 1_555
Al9 Gd1 3.051725 1_555
Al9 Gd10 3.051726 1_655
Al9 Gd4 3.341630 1_555
Al9 Gd5 3.341630 1_655
Al10 Ta2 2.633727 1_555
Al10 Ta7 2.638979 1_555
Al10 Al37 2.711891 1_555
Al10 Al75 2.711891 1_545
Al10 Al43 2.722360 1_555
Al10 Al61 2.842903 1_545
Al10 Al31 2.842903 1_555
Al10 Al79 2.868261 1_545
Al10 Al70 2.868261 1_555
Al10 Al65 3.000046 1_445
Al10 Al30 3.000046 1_555
Al10 Gd7 3.416513 1_555
Al11 Al23 2.682376 1_555
Al11 Al41 2.694138 1_555
Al11 Ta1 2.695707 1_555
Al11 Al64 2.711892 1_555
Al11 Al71 2.795220 1_565
Al11 Al84 2.795560 1_555
Al11 Al32 2.819257 1_565
Al11 Al26 2.989447 1_565
Al11 Al39 2.997340 1_556
Al11 Al27 2.998319 1_555
Al11 Gd3 3.012629 1_565
Al11 Gd2 3.295746 1_555
Al12 Ta0 2.633727 1_555
Al12 Ta7 2.638979 1_655
Al12 Al14 2.711891 1_545
Al12 Al55 2.711891 1_555
Al12 Al13 2.722360 1_555
Al12 Al38 2.842903 1_655
Al12 Al60 2.842903 1_545
Al12 Al81 2.868261 1_655
Al12 Al85 2.868261 1_545
Al12 Al45 3.000046 1_655
Al12 Al80 3.000046 1_645
Al12 Gd9 3.416513 1_555
Al13 Al83 2.702121 1_545
Al13 Al2 2.702121 1_555
Al13 Al27 2.819257 1_545
Al13 Al18 2.819257 1_555
Al13 Ta7 2.830218 1_655
Al13 Al30 2.842903 1_655
Al13 Al65 2.842903 1_545
Al13 Al38 2.970489 1_655
Al13 Al60 2.970489 1_545
Al13 Gd9 3.189897 1_555
Al13 Gd7 3.203901 1_555
Al14 Al19 2.682377 1_555
Al14 Al68 2.694138 1_555
Al14 Ta0 2.695706 1_565
Al14 Al85 2.795220 1_555
Al14 Al35 2.795560 1_555
Al14 Al60 2.819257 1_555
Al14 Al83 2.997339 1_555
Al14 Al21 2.998319 1_555
Al14 Gd4 3.012629 1_555
Al14 Gd9 3.295746 1_565
Al15 Ta6 2.633727 1_555
Al15 Ta4 2.638979 1_556
Al15 Al69 2.711891 1_555
Al15 Al26 2.711892 1_455
Al15 Al16 2.722360 1_556
Al15 Al32 2.842903 1_455
Al15 Al82 2.842903 1_555
Al15 Al71 2.868261 1_455
Al15 Al70 2.868261 1_555
Al15 Al64 3.000046 1_445
Al15 Al22 3.000046 1_555
Al15 Gd11 3.416513 1_555
Al16 Al67 2.702121 1_555
Al16 Al33 2.702121 1_455
Al16 Al50 2.819257 1_555
Al16 Al29 2.819257 1_455
Al16 Ta4 2.830218 1_555
Al16 Al25 2.842903 1_455
Al16 Al78 2.842903 1_555
Al16 Al32 2.970489 1_454
Al16 Al82 2.970489 1_554
Al16 Gd11 3.189897 1_554
Al16 Gd8 3.203901 1_555
Al17 Al43 2.702121 1_565
Al17 Al61 2.702121 1_555
Al17 Al19 2.715836 1_555
Al17 Al74 2.715836 1_555
Al17 Al42 2.832364 1_555
Al17 Al83 2.832364 1_555
Al17 Al75 2.997340 1_555
Al17 Gd7 3.051725 1_565
Al17 Gd10 3.051725 1_555
Al17 Gd5 3.341630 1_555
Al17 Gd9 3.341630 1_565
Al18 Al66 2.682367 1_555
Al18 Al51 2.694138 1_555
Al18 Ta6 2.695707 1_655
Al18 Al30 2.711892 1_655
Al18 Al71 2.795220 1_555
Al18 Al7 2.795560 1_555
Al18 Al27 2.989447 1_545
Al18 Al2 2.997340 1_555
Al18 Al26 2.998319 1_555
Al18 Gd7 3.012629 1_555
Al18 Gd5 3.295746 1_655
Al19 Al56 2.682376 1_555
Al19 Al42 2.715842 1_555
Al19 Al83 2.715842 1_555
Al19 Al24 2.772373 1_555
Al19 Al35 2.772373 1_555
Al19 Al68 2.772379 1_555
Al19 Gd10 3.211913 1_555
Al19 Gd9 3.211914 1_565
Al19 Gd4 3.211923 1_555
Al20 Ta3 2.576485 1_545
Al20 Ta5 2.576485 1_555
Al20 Al52 2.795220 1_555
Al20 Al48 2.795220 1_555
Al20 Al6 2.795220 1_545
Al20 Al85 2.813017 1_445
Al20 Al81 2.813017 1_555
Al20 Al44 2.868261 1_545
Al20 Al80 2.868261 1_545
Al20 Al45 2.868261 1_555
Al20 Al78 2.868261 1_555
Al21 Al40 2.682377 1_555
Al21 Al68 2.694138 1_555
Al21 Ta0 2.695706 1_565
Al21 Al25 2.711891 1_565
Al21 Al85 2.795220 1_555
Al21 Al35 2.795560 1_555
Al21 Al4 2.819257 1_555
Al21 Al72 2.989447 1_555
Al21 Al39 2.997339 1_555
Al21 Gd6 3.012629 1_555
Al21 Gd0 3.295746 1_565
Al22 Ta2 2.633727 1_555
Al22 Ta4 2.638979 1_556
Al22 Al8 2.711891 1_555
Al22 Al53 2.711891 1_545
Al22 Al76 2.722360 1_556
Al22 Al36 2.842903 1_545
Al22 Al82 2.842903 1_555
Al22 Al79 2.868261 1_545
Al22 Al70 2.868261 1_555
Al22 Al64 3.000046 1_445
Al22 Gd3 3.416513 1_555
Al23 Al53 2.682367 1_555
Al23 Al69 2.682377 1_555
Al23 Al46 2.715836 1_556
Al23 Al67 2.715842 1_556
Al23 Al39 2.715842 1_556
Al23 Al41 2.772372 1_555
Al23 Al49 2.772373 1_555
Al23 Al84 2.772379 1_555
Al23 Gd3 3.211913 1_565
Al23 Gd11 3.211914 1_555
Al23 Gd2 3.211923 1_555
Al24 Ta3 2.662972 1_555
Al24 Al56 2.694138 1_555
Al24 Al50 2.694138 1_555
Al24 Al40 2.772373 1_555
Al24 Al6 2.795560 1_555
Al24 Al62 2.823629 1_455
Al24 Gd8 3.028311 1_555
Al24 Gd10 3.028311 1_555
Al24 Al35 3.038127 1_555
Al24 Al68 3.038127 1_555
Al25 Ta0 2.633727 1_555
Al25 Ta4 2.638979 1_655
Al25 Al29 2.711891 1_555
Al25 Al32 2.722360 1_554
Al25 Al4 2.842903 1_545
Al25 Al81 2.868261 1_655
Al25 Al85 2.868261 1_545
Al25 Al78 3.000046 1_655
Al25 Al44 3.000046 1_645
Al25 Gd0 3.416513 1_555
Al26 Al63 2.682367 1_555
Al26 Al51 2.694138 1_555
Al26 Ta6 2.695707 1_655
Al26 Al71 2.795220 1_555
Al26 Al7 2.795560 1_555
Al26 Al32 2.819257 1_555
Al26 Al33 2.997340 1_556
Al26 Gd3 3.012629 1_555
Al26 Gd11 3.295746 1_655
Al27 Al74 2.682376 1_555
Al27 Al41 2.694138 1_555
Al27 Ta1 2.695707 1_555
Al27 Al65 2.711892 1_555
Al27 Al71 2.795220 1_565
Al27 Al84 2.795560 1_555
Al27 Al83 2.997340 1_555
Al27 Gd7 3.012629 1_565
Al27 Gd1 3.295746 1_555
Al28 Al76 2.702121 1_555
Al28 Al82 2.702121 1_554
Al28 Al58 2.715842 1_555
Al28 Al63 2.715842 1_554
Al28 Al34 2.832364 1_555
Al28 Al33 2.832364 1_555
Al28 Al8 2.997339 1_554
Al28 Al48 2.997340 1_555
Al28 Gd6 3.051725 1_555
Al28 Gd3 3.051725 1_554
Al28 Gd2 3.341630 1_554
Al28 Gd0 3.341630 1_555
Al29 Al58 2.682367 1_555
Al29 Al62 2.694138 1_555
Al29 Ta0 2.695706 1_555
Al29 Al81 2.795220 1_655
Al29 Al47 2.795560 1_555
Al29 Al50 2.989447 1_655
Al29 Al33 2.997340 1_555
Al29 Al55 2.998319 1_555
Al29 Gd8 3.012629 1_655
Al29 Gd0 3.295746 1_555
Al30 Ta6 2.633727 1_555
Al30 Ta7 2.638979 1_555
Al30 Al59 2.711891 1_555
Al30 Al38 2.722360 1_555
Al30 Al31 2.842903 1_555
Al30 Al71 2.868261 1_455
Al30 Al70 2.868261 1_555
Al30 Al65 3.000046 1_445
Al30 Gd5 3.416513 1_555
Al31 Al42 2.702121 1_555
Al31 Al5 2.702121 1_555
Al31 Al45 2.722360 1_555
Al31 Al59 2.819257 1_555
Al31 Al37 2.819257 1_555
Al31 Ta7 2.830218 1_555
Al31 Al43 2.970489 1_555
Al31 Al38 2.970489 1_555
Al31 Gd4 3.189897 1_555
Al31 Gd1 3.203901 1_555
Al32 Al39 2.702121 1_546
Al32 Al33 2.702121 1_556
Al32 Ta4 2.830218 1_656
Al32 Al64 2.842903 1_545
Al32 Al4 2.970489 1_546
Al32 Gd0 3.189897 1_556
Al32 Gd3 3.203901 1_555
Al33 Al58 2.715836 1_555
Al33 Al63 2.715836 1_554
Al33 Al34 2.832364 1_555
Al33 Gd0 3.051725 1_555
Al33 Gd11 3.051725 1_654
Al33 Gd8 3.341630 1_655
Al33 Gd3 3.341630 1_554
Al34 Al4 2.702121 1_555
Al34 Al36 2.702121 1_654
Al34 Al58 2.715842 1_555
Al34 Al63 2.715842 1_554
Al34 Al72 2.997339 1_555
Al34 Al54 2.997340 1_554
Al34 Gd2 3.051725 1_554
Al34 Gd8 3.051726 1_655
Al34 Gd6 3.341630 1_555
Al34 Gd11 3.341630 1_654
Al35 Ta0 2.662972 1_565
Al35 Al6 2.694138 1_555
Al35 Al40 2.772373 1_555
Al35 Al47 2.823629 1_565
Al35 Gd9 3.028311 1_565
Al35 Gd0 3.028311 1_565
Al35 Al68 3.038127 1_555
Al36 Al46 2.702121 1_556
Al36 Al44 2.722360 1_556
Al36 Al54 2.819257 1_455
Al36 Al53 2.819257 1_555
Al36 Ta4 2.830218 1_566
Al36 Al64 2.842903 1_455
Al36 Al76 2.970489 1_566
Al36 Al4 2.970489 1_456
Al36 Gd8 3.189897 1_556
Al36 Gd11 3.203901 1_555
Al37 Al66 2.682377 1_555
Al37 Al77 2.694138 1_555
Al37 Ta2 2.695706 1_555
Al37 Al70 2.795220 1_555
Al37 Al51 2.795560 1_555
Al37 Al59 2.989447 1_555
Al37 Al5 2.997339 1_555
Al37 Al8 2.998319 1_555
Al37 Gd1 3.012629 1_555
Al37 Gd7 3.295746 1_555
Al38 Al42 2.702121 1_555
Al38 Al56 2.819257 1_555
Al38 Al55 2.819257 1_455
Al38 Ta7 2.830218 1_555
Al38 Al45 2.842903 1_555
Al38 Gd5 3.189897 1_555
Al38 Gd10 3.203901 1_555
Al39 Al4 2.702121 1_555
Al39 Al40 2.715842 1_555
Al39 Al67 2.832364 1_555
Al39 Al46 2.832364 1_555
Al39 Gd2 3.051725 1_554
Al39 Gd0 3.051725 1_565
Al39 Gd6 3.341630 1_555
Al39 Gd3 3.341630 1_564
Al40 Al6 2.682367 1_555
Al40 Al50 2.682376 1_555
Al40 Al46 2.715836 1_555
Al40 Al67 2.715842 1_555
Al40 Al68 2.772379 1_555
Al40 Gd8 3.211913 1_555
Al40 Gd0 3.211914 1_565
Al40 Gd6 3.211923 1_555
Al41 Ta2 2.662972 1_565
Al41 Al74 2.772372 1_555
Al41 Al53 2.795560 1_555
Al41 Al75 2.795560 1_555
Al41 Al51 2.823629 1_565
Al41 Gd3 3.028311 1_565
Al41 Gd7 3.028311 1_565
Al41 Al49 3.038127 1_555
Al41 Al84 3.038127 1_555
Al42 Al74 2.715842 1_555
Al42 Al83 2.832364 1_555
Al42 Al59 2.997339 1_555
Al42 Al56 2.997340 1_555
Al42 Gd4 3.051725 1_555
Al42 Gd5 3.051726 1_555
Al42 Gd1 3.341630 1_555
Al42 Gd10 3.341630 1_555
Al43 Al5 2.702121 1_555
Al43 Al52 2.819257 1_555
Al43 Ta7 2.830218 1_555
Al43 Al80 2.842903 1_545
Al43 Al45 2.842903 1_555
Al43 Al61 2.970489 1_545
Al43 Gd7 3.189897 1_555
Al43 Gd9 3.203901 1_555
Al44 Ta3 2.633727 1_555
Al44 Ta4 2.638979 1_565
Al44 Al72 2.711891 1_455
Al44 Al6 2.711892 1_555
Al44 Al76 2.842903 1_565
Al44 Al85 2.868261 1_455
Al44 Al78 3.000046 1_565
Al44 Gd8 3.416513 1_555
Al45 Ta5 2.633727 1_555
Al45 Ta7 2.638979 1_555
Al45 Al56 2.711891 1_555
Al45 Al52 2.711892 1_555
Al45 Al81 2.868261 1_555
Al45 Al80 3.000046 1_545
Al45 Gd4 3.416513 1_555
Al46 Al76 2.702121 1_565
Al46 Al67 2.832364 1_555
Al46 Al6 2.997340 1_555
Al46 Al53 2.997340 1_554
Al46 Gd3 3.051725 1_564
Al46 Gd8 3.051725 1_555
Al46 Gd11 3.341630 1_554
Al46 Gd0 3.341630 1_565
Al47 Ta0 2.662972 1_555
Al47 Al48 2.694138 1_555
Al47 Al52 2.694138 1_555
Al47 Al58 2.772372 1_555
Al47 Al57 2.772372 1_555
Al47 Al55 2.795560 1_555
Al47 Gd9 3.028311 1_555
Al47 Gd0 3.028311 1_555
Al47 Al62 3.038127 1_555
Al48 Al58 2.682376 1_555
Al48 Ta5 2.695707 1_555
Al48 Al78 2.711892 1_555
Al48 Al76 2.819257 1_555
Al48 Al6 2.989447 1_545
Al48 Al52 2.998319 1_555
Al48 Gd0 3.012629 1_555
Al48 Gd6 3.295746 1_555
Al49 Ta6 2.662972 1_555
Al49 Al53 2.694138 1_555
Al49 Al75 2.694138 1_555
Al49 Al74 2.772373 1_555
Al49 Al69 2.795560 1_555
Al49 Al59 2.795560 1_555
Al49 Al7 2.823629 1_455
Al49 Gd5 3.028311 1_555
Al49 Gd11 3.028311 1_555
Al49 Al84 3.038127 1_555
Al50 Ta5 2.695707 1_555
Al50 Al78 2.711891 1_555
Al50 Al81 2.795220 1_555
Al50 Al68 2.795560 1_555
Al50 Al67 2.997340 1_555
Al50 Al56 2.998319 1_555
Al50 Gd8 3.012629 1_555
Al50 Gd6 3.295746 1_555
Al51 Ta2 2.662972 1_555
Al51 Al66 2.772373 1_555
Al51 Al63 2.772373 1_555
Al51 Al8 2.795560 1_555
Al51 Gd7 3.028311 1_555
Al51 Gd3 3.028311 1_555
Al51 Al77 3.038127 1_555
Al51 Al7 3.038127 1_555
Al52 Al57 2.682376 1_555
Al52 Ta5 2.695707 1_555
Al52 Gd9 3.012629 1_555
Al52 Gd4 3.295746 1_555
Al53 Ta2 2.695706 1_565
Al53 Al79 2.795220 1_555
Al53 Al54 2.989447 1_455
Al53 Al75 2.998319 1_555
Al53 Gd11 3.012629 1_555
Al53 Gd3 3.295746 1_565
Al54 Al63 2.682376 1_555
Al54 Al7 2.694138 1_555
Al54 Ta1 2.695707 1_555
Al54 Al64 2.711891 1_555
Al54 Al79 2.795220 1_655
Al54 Al77 2.795560 1_555
Al54 Al73 2.998319 1_555
Al54 Gd11 3.012629 1_655
Al54 Gd2 3.295746 1_555
Al55 Al57 2.682367 1_555
Al55 Al62 2.694138 1_555
Al55 Ta0 2.695706 1_555
Al55 Al81 2.795220 1_655
Al55 Al56 2.989447 1_655
Al55 Gd10 3.012629 1_655
Al55 Gd9 3.295746 1_555
Al56 Ta5 2.695707 1_555
Al56 Al81 2.795220 1_555
Al56 Al68 2.795560 1_555
Al56 Gd10 3.012629 1_555
Al56 Gd4 3.295746 1_555
Al57 Al9 2.715842 1_555
Al57 Al62 2.772373 1_555
Al57 Gd9 3.211913 1_555
Al57 Gd10 3.211914 1_655
Al57 Gd4 3.211923 1_555
Al58 Al72 2.682377 1_555
Al58 Al62 2.772373 1_555
Al58 Gd0 3.211913 1_555
Al58 Gd8 3.211914 1_655
Al58 Gd6 3.211923 1_555
Al59 Al74 2.682377 1_555
Al59 Al84 2.694138 1_555
Al59 Ta6 2.695707 1_555
Al59 Al70 2.795220 1_555
Al59 Al69 2.998319 1_555
Al59 Gd1 3.012629 1_555
Al59 Gd5 3.295746 1_555
Al60 Al9 2.702121 1_555
Al60 Al83 2.702121 1_555
Al60 Al65 2.722360 1_555
Al60 Ta7 2.830218 1_665
Al60 Al80 2.842903 1_655
Al60 Al61 2.970489 1_655
Al60 Gd1 3.189897 1_555
Al60 Gd4 3.203901 1_555
Al61 Al9 2.702121 1_455
Al61 Al80 2.722360 1_555
Al61 Al73 2.819257 1_455
Al61 Al75 2.819257 1_555
Al61 Ta7 2.830218 1_565
Al61 Al65 2.842903 1_455
Al61 Gd10 3.189897 1_555
Al61 Gd5 3.203901 1_555
Al62 Ta3 2.662972 1_655
Al62 Al72 2.795560 1_555
Al62 Gd8 3.028311 1_655
Al62 Gd10 3.028311 1_655
Al63 Al8 2.682377 1_555
Al63 Al7 2.772373 1_555
Al63 Al77 2.772379 1_555
Al63 Gd11 3.211913 1_655
Al63 Gd3 3.211914 1_555
Al63 Gd2 3.211923 1_555
Al64 Ta1 2.633727 1_555
Al64 Ta4 2.638979 1_666
Al64 Al71 2.868261 1_565
Al64 Al79 2.868261 1_655
Al64 Gd2 3.416513 1_555
Al65 Ta1 2.633727 1_555
Al65 Ta7 2.638979 1_665
Al65 Al73 2.711891 1_555
Al65 Al71 2.868261 1_565
Al65 Al79 2.868261 1_655
Al65 Gd1 3.416513 1_555
Al66 Al73 2.682376 1_555
Al66 Al9 2.715842 1_555
Al66 Al7 2.772373 1_555
Al66 Al77 2.772379 1_555
Al66 Gd5 3.211913 1_655
Al66 Gd7 3.211914 1_555
Al66 Gd1 3.211923 1_555
Al67 Al82 2.702121 1_554
Al67 Al69 2.997339 1_554
Al67 Gd6 3.051725 1_555
Al67 Gd11 3.051726 1_554
Al67 Gd2 3.341630 1_554
Al67 Gd8 3.341630 1_555
Al68 Ta5 2.662972 1_555
Al68 Gd6 3.028311 1_555
Al68 Gd4 3.028311 1_555
Al69 Al84 2.694138 1_555
Al69 Ta6 2.695707 1_555
Al69 Al70 2.795220 1_555
Al69 Al82 2.819257 1_555
Al69 Al8 2.989447 1_555
Al69 Gd2 3.012629 1_555
Al69 Gd11 3.295746 1_555
Al70 Ta2 2.576485 1_555
Al70 Ta6 2.576485 1_555
Al70 Al8 2.795220 1_555
Al70 Al79 2.813017 1_545
Al70 Al71 2.813017 1_455
Al71 Ta6 2.576485 1_655
Al71 Ta1 2.576485 1_545
Al71 Al79 2.813017 1_645
Al72 Ta3 2.695707 1_655
Al72 Al85 2.795220 1_555
Al72 Gd6 3.012629 1_555
Al72 Gd8 3.295746 1_655
Al73 Ta1 2.695707 1_555
Al73 Al79 2.795220 1_655
Al73 Al77 2.795560 1_555
Al73 Al75 2.989447 1_655
Al73 Al9 2.997340 1_555
Al73 Gd5 3.012629 1_655
Al73 Gd1 3.295746 1_555
Al74 Al75 2.682367 1_555
Al74 Al83 2.715842 1_555
Al74 Al84 2.772379 1_555
Al74 Gd7 3.211913 1_565
Al74 Gd5 3.211914 1_555
Al74 Gd1 3.211923 1_555
Al75 Ta2 2.695706 1_565
Al75 Al79 2.795220 1_555
Al75 Gd5 3.012629 1_555
Al75 Gd7 3.295746 1_565
Al76 Ta4 2.830218 1_555
Al76 Al78 2.842903 1_555
Al76 Al82 2.970489 1_554
Al76 Gd3 3.189897 1_554
Al76 Gd0 3.203901 1_555
Al77 Ta1 2.662972 1_555
Al77 Al8 2.694138 1_555
Al77 Al84 2.823629 1_555
Al77 Gd2 3.028311 1_555
Al77 Gd1 3.028311 1_555
Al78 Ta5 2.633727 1_555
Al78 Ta4 2.638979 1_555
Al78 Al82 2.722360 1_554
Al78 Al81 2.868261 1_555
Al78 Gd6 3.416513 1_555
Al79 Ta2 2.576485 1_565
Al79 Ta1 2.576485 1_455
Al80 Ta3 2.633727 1_555
Al80 Ta7 2.638979 1_565
Al80 Al85 2.868261 1_455
Al80 Gd10 3.416513 1_555
Al81 Ta0 2.576485 1_455
Al81 Ta5 2.576485 1_555
Al81 Al85 2.813017 1_445
Al82 Ta4 2.830218 1_556
Al82 Gd6 3.189897 1_556
Al82 Gd2 3.203901 1_555
Al83 Gd1 3.051725 1_555
Al83 Gd9 3.051725 1_565
Al83 Gd4 3.341630 1_555
Al83 Gd7 3.341630 1_565
Al84 Ta1 2.662972 1_555
Al84 Gd1 3.028311 1_555
Al84 Gd2 3.028311 1_555
Al85 Ta0 2.576485 1_565
Al85 Ta3 2.576485 1_655
