# generated using pymatgen
data_Ce3MoO7
_symmetry_space_group_name_H-M   'P 1'
_cell_length_a   7.59098200
_cell_length_b   7.64566500
_cell_length_c   10.79855400
_cell_angle_alpha   90.00000000
_cell_angle_beta   90.00000000
_cell_angle_gamma   90.00000000
_symmetry_Int_Tables_number   1
_chemical_formula_structural   Ce3MoO7
_chemical_formula_sum   'Ce12 Mo4 O28'
_cell_volume   626.72761514
_cell_formula_units_Z   4
loop_
 _symmetry_equiv_pos_site_id
 _symmetry_equiv_pos_as_xyz
  1  'x, y, z'
loop_
 _atom_site_type_symbol
 _atom_site_label
 _atom_site_symmetry_multiplicity
 _atom_site_fract_x
 _atom_site_fract_y
 _atom_site_fract_z
 _atom_site_occupancy
  Ce  Ce0  1  0.99522100  0.53639900  0.28017200  1
  Ce  Ce1  1  0.00920300  0.04649400  0.77188600  1
  Ce  Ce2  1  0.50477900  0.46360100  0.78017200  1
  Ce  Ce3  1  0.50920300  0.45350600  0.22811400  1
  Ce  Ce4  1  0.99079700  0.54649400  0.72811400  1
  Ce  Ce5  1  0.49522100  0.96360100  0.71982800  1
  Ce  Ce6  1  0.74284000  0.78301600  0.99356800  1
  Ce  Ce7  1  0.25716000  0.28301600  0.50643200  1
  Ce  Ce8  1  0.49079700  0.95350600  0.27188600  1
  Ce  Ce9  1  0.75716000  0.21698400  0.49356800  1
  Ce  Ce10  1  0.00477900  0.03639900  0.21982800  1
  Ce  Ce11  1  0.24284000  0.71698400  0.00643200  1
  Mo  Mo0  1  0.25046600  0.74632200  0.50066200  1
  Mo  Mo1  1  0.24953400  0.25367800  0.00066200  1
  Mo  Mo2  1  0.75046600  0.75367800  0.49933800  1
  Mo  Mo3  1  0.74953400  0.24632200  0.99933800  1
  O  O0  1  0.79800500  0.41596200  0.14997100  1
  O  O1  1  0.71228100  0.53489300  0.37621500  1
  O  O2  1  0.78872300  0.96261300  0.36425200  1
  O  O3  1  0.21068800  0.47366700  0.87778000  1
  O  O4  1  0.49949100  0.86253000  0.49240900  1
  O  O5  1  0.21127700  0.46261300  0.13574800  1
  O  O6  1  0.28872300  0.53738700  0.63574800  1
  O  O7  1  0.98815900  0.76371200  0.13098100  1
  O  O8  1  0.48815900  0.73628800  0.86901900  1
  O  O9  1  0.29800500  0.08403800  0.85002900  1
  O  O10  1  0.99508100  0.28032700  0.63662500  1
  O  O11  1  0.00050900  0.13747000  0.99240900  1
  O  O12  1  0.28771900  0.03489300  0.12378500  1
  O  O13  1  0.50050900  0.36253000  0.00759100  1
  O  O14  1  0.00491900  0.78032700  0.86337500  1
  O  O15  1  0.71127700  0.03738700  0.86425200  1
  O  O16  1  0.28931200  0.52633300  0.37778000  1
  O  O17  1  0.21228100  0.96510700  0.62378500  1
  O  O18  1  0.01184100  0.26371200  0.36901900  1
  O  O19  1  0.20199500  0.91596200  0.35002900  1
  O  O20  1  0.49508100  0.21967300  0.36337500  1
  O  O21  1  0.70199500  0.58403800  0.64997100  1
  O  O22  1  0.78931200  0.97366700  0.62222000  1
  O  O23  1  0.71068800  0.02633300  0.12222000  1
  O  O24  1  0.78771900  0.46510700  0.87621500  1
  O  O25  1  0.50491900  0.71967300  0.13662500  1
  O  O26  1  0.99949100  0.63747000  0.50759100  1
  O  O27  1  0.51184100  0.23628800  0.63098100  1
loop_
_geom_bond_atom_site_label_1
_geom_bond_atom_site_label_2
_geom_bond_distance
_geom_bond_site_symmetry_2
Ce0 O0 2.250755 1_555
Ce0 O18 2.298499 1_655
Ce0 O5 2.332460 1_655
Ce0 O7 2.370411 1_555
Ce0 O1 2.385115 1_555
Ce0 O16 2.469955 1_655
Ce0 O26 2.574711 1_555
Ce1 O14 2.262393 1_545
Ce1 O17 2.306795 1_545
Ce1 O10 2.311098 1_455
Ce1 O9 2.366556 1_555
Ce1 O22 2.389195 1_445
Ce1 O15 2.472712 1_455
Ce1 O11 2.481714 1_555
Ce2 O21 2.250755 1_555
Ce2 O8 2.298499 1_555
Ce2 O6 2.332460 1_555
Ce2 O27 2.370411 1_555
Ce2 O24 2.385115 1_555
Ce2 O3 2.469955 1_555
Ce2 O13 2.574711 1_556
Ce3 O25 2.262393 1_555
Ce3 O1 2.306795 1_555
Ce3 O20 2.311098 1_555
Ce3 O0 2.366556 1_555
Ce3 O16 2.389195 1_555
Ce3 O5 2.472712 1_555
Ce3 O13 2.481714 1_555
Ce4 O10 2.262393 1_555
Ce4 O24 2.306795 1_555
Ce4 O14 2.311098 1_655
Ce4 O21 2.366556 1_555
Ce4 O3 2.389195 1_655
Ce4 O6 2.472712 1_655
Ce4 O26 2.481714 1_555
Ce5 O9 2.250755 1_565
Ce5 O27 2.298499 1_565
Ce5 O15 2.332460 1_565
Ce5 O8 2.370411 1_555
Ce5 O17 2.385115 1_555
Ce5 O22 2.469955 1_555
Ce5 O4 2.574711 1_555
Ce6 O23 2.334607 1_566
Ce6 O8 2.382036 1_555
Ce6 O7 2.385679 1_556
Ce6 O15 2.406199 1_565
Ce6 O25 2.425451 1_556
Ce6 O14 2.436150 1_655
Ce6 O24 2.762228 1_555
Ce7 O16 2.334607 1_555
Ce7 O27 2.382036 1_555
Ce7 O18 2.385679 1_555
Ce7 O6 2.406199 1_555
Ce7 O20 2.425451 1_555
Ce7 O10 2.436150 1_455
Ce7 O17 2.762228 1_545
Ce8 O20 2.262393 1_565
Ce8 O12 2.306795 1_565
Ce8 O25 2.311098 1_555
Ce8 O19 2.366556 1_555
Ce8 O23 2.389195 1_565
Ce8 O2 2.472712 1_555
Ce8 O4 2.481714 1_555
Ce9 O22 2.334607 1_545
Ce9 O18 2.382036 1_655
Ce9 O27 2.385679 1_555
Ce9 O2 2.406199 1_545
Ce9 O10 2.425451 1_555
Ce9 O20 2.436150 1_555
Ce9 O1 2.762228 1_555
Ce10 O19 2.250755 1_545
Ce10 O7 2.298499 1_445
Ce10 O2 2.332460 1_445
Ce10 O18 2.370411 1_555
Ce10 O12 2.385115 1_555
Ce10 O23 2.469955 1_455
Ce10 O11 2.574711 1_554
Ce11 O3 2.334607 1_554
Ce11 O7 2.382036 1_455
Ce11 O8 2.385679 1_554
Ce11 O5 2.406199 1_555
Ce11 O14 2.425451 1_554
Ce11 O25 2.436150 1_555
Ce11 O12 2.762228 1_565
Mo0 O26 2.080340 1_455
Mo0 O4 2.090635 1_555
Mo0 O19 2.112701 1_555
Mo0 O17 2.156349 1_555
Mo0 O16 2.162577 1_555
Mo0 O6 2.182677 1_555
Mo1 O13 2.080340 1_555
Mo1 O11 2.090635 1_554
Mo1 O9 2.112701 1_554
Mo1 O12 2.156349 1_555
Mo1 O3 2.162577 1_554
Mo1 O5 2.182677 1_555
Mo2 O4 2.080340 1_555
Mo2 O26 2.090635 1_555
Mo2 O21 2.112701 1_555
Mo2 O1 2.156349 1_555
Mo2 O22 2.162577 1_555
Mo2 O2 2.182677 1_555
Mo3 O11 2.080340 1_655
Mo3 O13 2.090635 1_556
Mo3 O0 2.112701 1_556
Mo3 O24 2.156349 1_555
Mo3 O23 2.162577 1_556
Mo3 O15 2.182677 1_555
