# generated using pymatgen
data_Al(HO)3
_symmetry_space_group_name_H-M   'P 1'
_cell_length_a   8.86588500
_cell_length_b   5.04203056
_cell_length_c   9.74343682
_cell_angle_alpha   90.03700105
_cell_angle_beta   90.84259869
_cell_angle_gamma   90.12267050
_symmetry_Int_Tables_number   1
_chemical_formula_structural   Al(HO)3
_chemical_formula_sum   'Al8 H24 O24'
_cell_volume   435.50353182
_cell_formula_units_Z   8
loop_
 _symmetry_equiv_pos_site_id
 _symmetry_equiv_pos_as_xyz
  1  'x, y, z'
loop_
 _atom_site_type_symbol
 _atom_site_label
 _atom_site_symmetry_multiplicity
 _atom_site_fract_x
 _atom_site_fract_y
 _atom_site_fract_z
 _atom_site_occupancy
  Al  Al0  1  0.01913100  0.32856000  0.50293900  1
  Al  Al1  1  0.46785900  0.83837500  0.00045400  1
  Al  Al2  1  0.96016000  0.66069900  0.49891900  1
  Al  Al3  1  0.52504900  0.17166900  0.99981700  1
  Al  Al4  1  0.51193300  0.15737600  0.50327000  1
  Al  Al5  1  0.97418500  0.66660300  0.00277900  1
  Al  Al6  1  0.46483100  0.83025900  0.49887600  1
  Al  Al7  1  0.02127100  0.34111000  0.00052800  1
  H  H0  1  0.62754300  0.40667700  0.62603900  1
  H  H1  1  0.86436500  0.91627900  0.12202600  1
  H  H2  1  0.38476500  0.59767200  0.36972000  1
  H  H3  1  0.10131300  0.10860900  0.86866800  1
  H  H4  1  0.15928600  0.80886700  0.70148700  1
  H  H5  1  0.32948100  0.32067400  0.20311000  1
  H  H6  1  0.94269300  0.07905500  0.39513400  1
  H  H7  1  0.54111500  0.58830100  0.89711100  1
  H  H8  1  0.82054100  0.97313800  0.60626400  1
  H  H9  1  0.66281900  0.48399500  0.10771800  1
  H  H10  1  0.38948100  0.00036100  0.29794000  1
  H  H11  1  0.09105000  0.50545800  0.79798700  1
  H  H12  1  0.30523900  0.53665000  0.61865900  1
  H  H13  1  0.18523500  0.04872000  0.11890300  1
  H  H14  1  0.87066500  0.48290500  0.29921700  1
  H  H15  1  0.60919200  0.99245600  0.79614700  1
  H  H16  1  0.21729000  0.20518800  0.70435000  1
  H  H17  1  0.27494800  0.70352200  0.20472500  1
  H  H18  1  0.77281800  0.79456900  0.29280300  1
  H  H19  1  0.71451200  0.29460000  0.79605200  1
  H  H20  1  0.65942000  0.68534700  0.70647100  1
  H  H21  1  0.83074400  0.19141100  0.20733300  1
  H  H22  1  0.48210700  0.39554000  0.39319400  1
  H  H23  1  0.00033500  0.89938800  0.88717800  1
  O  O0  1  0.70605300  0.30703200  0.61556000  1
  O  O1  1  0.78035800  0.81810900  0.11192600  1
  O  O2  1  0.27282200  0.68551000  0.38443400  1
  O  O3  1  0.21160400  0.19641700  0.88620200  1
  O  O4  1  0.14676400  0.81475500  0.60069200  1
  O  O5  1  0.34034700  0.32824800  0.10255900  1
  O  O6  1  0.83772700  0.17222000  0.39877500  1
  O  O7  1  0.64903000  0.68068500  0.89612900  1
  O  O8  1  0.62815200  0.98921200  0.61154000  1
  O  O9  1  0.85559300  0.49963200  0.11227200  1
  O  O10  1  0.35629100  0.00034000  0.39785600  1
  O  O11  1  0.12712600  0.50993100  0.89755400  1
  O  O12  1  0.11989700  0.50471900  0.61017600  1
  O  O13  1  0.36909200  0.01564800  0.10913700  1
  O  O14  1  0.84235200  0.48080600  0.39980200  1
  O  O15  1  0.64125500  0.99226200  0.89676200  1
  O  O16  1  0.20083500  0.18628100  0.60482800  1
  O  O17  1  0.28557600  0.69662700  0.10371400  1
  O  O18  1  0.77501300  0.79796200  0.39438300  1
  O  O19  1  0.71083600  0.30855300  0.89649900  1
  O  O20  1  0.64030900  0.66897100  0.60590500  1
  O  O21  1  0.84647600  0.17952600  0.10645300  1
  O  O22  1  0.34410300  0.31601900  0.39222500  1
  O  O23  1  0.14065900  0.82242900  0.89140600  1
loop_
_geom_bond_atom_site_label_1
_geom_bond_atom_site_label_2
_geom_bond_distance
_geom_bond_site_symmetry_2
Al0 O12 1.626868 1_555
Al0 Al2 1.755730 1_455
Al0 H6 1.766037 1_455
Al0 O14 2.003836 1_455
Al0 O16 2.013510 1_555
Al0 O6 2.045387 1_455
Al1 O13 1.648165 1_565
Al1 H7 1.745458 1_554
Al1 O15 2.006905 1_554
Al1 O17 2.044169 1_555
Al2 O14 1.676728 1_555
Al2 O12 1.939070 1_655
Al3 O15 1.709149 1_545
Al3 O13 1.924832 1_556
Al4 H22 1.629999 1_555
Al4 O8 1.693043 1_545
Al4 O10 1.881107 1_555
Al5 H23 1.645671 1_654
Al5 Al7 1.694482 1_655
Al5 O9 1.727062 1_555
Al5 O11 1.886321 1_654
Al5 H1 1.979734 1_555
Al5 O23 2.004119 1_654
Al5 O1 2.173910 1_555
Al6 O10 1.614622 1_565
Al7 O11 1.623992 1_554
H0 O0 0.866525 1_555
H0 O20 1.341877 1_555
H1 O1 0.897558 1_555
H1 O21 1.345494 1_565
H2 O2 1.098948 1_555
H2 O22 1.481645 1_555
H3 O3 1.083734 1_555
H3 O23 1.501035 1_545
H4 O4 0.987194 1_555
H5 O5 0.986602 1_555
H6 O6 1.044406 1_555
H7 O7 1.063402 1_555
H8 O8 1.709323 1_555
H10 O10 1.021159 1_555
H11 O11 1.017235 1_555
H12 O12 1.651600 1_555
H13 O13 1.643060 1_555
H14 O14 1.015306 1_555
H15 O15 1.016697 1_555
H16 O16 0.983017 1_555
H17 O17 0.990668 1_555
H18 O18 0.989780 1_555
H19 O19 0.982203 1_555
H20 O20 0.995290 1_555
H21 O21 0.996576 1_555
H22 O22 1.286632 1_555
H23 O23 1.304078 1_555
