# generated using pymatgen
data_Li5TiN3
_symmetry_space_group_name_H-M   'P 1'
_cell_length_a   8.45156900
_cell_length_b   8.46718167
_cell_length_c   21.30684828
_cell_angle_alpha   97.60744840
_cell_angle_beta   97.60378767
_cell_angle_gamma   109.44378500
_symmetry_Int_Tables_number   1
_chemical_formula_structural   Li5TiN3
_chemical_formula_sum   'Li80 Ti16 N48'
_cell_volume   1399.51767765
_cell_formula_units_Z   16
loop_
 _symmetry_equiv_pos_site_id
 _symmetry_equiv_pos_as_xyz
  1  'x, y, z'
loop_
 _atom_site_type_symbol
 _atom_site_label
 _atom_site_symmetry_multiplicity
 _atom_site_fract_x
 _atom_site_fract_y
 _atom_site_fract_z
 _atom_site_occupancy
  Li  Li0  1  0.51755400  0.52654600  0.74580400  1
  Li  Li1  1  0.85557100  0.31379900  0.91819500  1
  Li  Li2  1  0.58527300  0.12356800  0.92189100  1
  Li  Li3  1  0.81702300  0.83012900  0.92206700  1
  Li  Li4  1  0.33657200  0.61763200  0.67895500  1
  Li  Li5  1  0.39843900  0.12413700  0.83243700  1
  Li  Li6  1  0.34981500  0.07729200  0.64752100  1
  Li  Li7  1  0.83447100  0.84295700  0.41370600  1
  Li  Li8  1  0.17785500  0.63482600  0.58602100  1
  Li  Li9  1  0.07033400  0.36330000  0.66149600  1
  Li  Li10  1  0.54992500  0.57864500  0.91121700  1
  Li  Li11  1  0.26346100  0.78004000  0.76272200  1
  Li  Li12  1  0.01780200  0.51750600  0.75859500  1
  Li  Li13  1  0.89973800  0.46620500  0.58490500  1
  Li  Li14  1  0.13668900  0.14581600  0.58992000  1
  Li  Li15  1  0.32327200  0.30516300  0.91974400  1
  Li  Li16  1  0.13240400  0.92183300  0.83489000  1
  Li  Li17  1  0.67512600  0.94178300  0.34188900  1
  Li  Li18  1  0.40283200  0.64718100  0.82381000  1
  Li  Li19  1  0.88354800  0.91458400  0.57891500  1
  Li  Li20  1  0.92243300  0.67554100  0.84033300  1
  Li  Li21  1  0.17529800  0.42509900  0.84336600  1
  Li  Li22  1  0.71386900  0.47133300  0.48857400  1
  Li  Li23  1  0.67522400  0.42900600  0.32677900  1
  Li  Li24  1  0.97499400  0.00031100  0.75315900  1
  Li  Li25  1  0.42112400  0.69232500  0.33893600  1
  Li  Li26  1  0.59755400  0.09341500  0.42321900  1
  Li  Li27  1  0.81953900  0.56762800  0.67597800  1
  Li  Li28  1  0.51196000  0.96830300  0.25285800  1
  Li  Li29  1  0.07107900  0.08236000  0.92215700  1
  Li  Li30  1  0.34056600  0.83561100  0.42381500  1
  Li  Li31  1  0.57870900  0.58161600  0.40832000  1
  Li  Li32  1  0.24942500  0.78263900  0.25924100  1
  Li  Li33  1  0.68364900  0.65947900  0.58295100  1
  Li  Li34  1  0.85947600  0.08582000  0.66597800  1
  Li  Li35  1  0.46990800  0.23199700  0.48620300  1
  Li  Li36  1  0.95122400  0.18483600  0.83834200  1
  Li  Li37  1  0.47493100  0.48558400  0.25805000  1
  Li  Li38  1  0.58627600  0.32262300  0.68200700  1
  Li  Li39  1  0.07891800  0.55939100  0.91714500  1
  Li  Li40  1  0.76469500  0.74660500  0.75225800  1
  Li  Li41  1  0.74255500  0.97913000  0.49290900  1
  Li  Li42  1  0.60526900  0.83231600  0.66762200  1
  Li  Li43  1  0.25722100  0.00305500  0.50817000  1
  Li  Li44  1  0.22001800  0.25154500  0.24752500  1
  Li  Li45  1  0.01507800  0.75428100  0.98574500  1
  Li  Li46  1  0.51622700  0.73494300  0.49433300  1
  Li  Li47  1  0.33505900  0.35708300  0.41800300  1
  Li  Li48  1  0.06679600  0.78838300  0.16518800  1
  Li  Li49  1  0.93766600  0.42584500  0.08677400  1
  Li  Li50  1  0.15272600  0.90211600  0.34286000  1
  Li  Li51  1  0.78193400  0.23959000  0.74649100  1
  Li  Li52  1  0.68259800  0.18149400  0.09035100  1
  Li  Li53  1  0.49881300  0.01185800  0.73700400  1
  Li  Li54  1  0.41816000  0.87637800  0.57922400  1
  Li  Li55  1  0.26214400  0.52861100  0.49425900  1
  Li  Li56  1  0.19197500  0.42311200  0.33792200  1
  Li  Li57  1  0.02065800  0.99181000  0.25115800  1
  Li  Li58  1  0.91589700  0.66497000  0.34491200  1
  Li  Li59  1  0.80546900  0.56411800  0.15308200  1
  Li  Li60  1  0.09732700  0.08338300  0.41880700  1
  Li  Li61  1  0.07526500  0.31489600  0.15899800  1
  Li  Li62  1  0.93977600  0.16835900  0.33283600  1
  Li  Li63  1  0.58959400  0.33999100  0.17533100  1
  Li  Li64  1  0.64215700  0.66888500  0.08642600  1
  Li  Li65  1  0.84434700  0.09164400  0.17520800  1
  Li  Li66  1  0.74572300  0.02628900  0.99765200  1
  Li  Li67  1  0.48654200  0.22977500  0.00566400  1
  Li  Li68  1  0.10155000  0.57704600  0.40820400  1
  Li  Li69  1  0.82358300  0.33714500  0.40381200  1
  Li  Li70  1  0.52602600  0.75072000  0.99981800  1
  Li  Li71  1  0.59672400  0.86486300  0.16185500  1
  Li  Li72  1  0.73657300  0.22479400  0.25384000  1
  Li  Li73  1  0.42794000  0.41069100  0.08338200  1
  Li  Li74  1  0.26609800  0.50232400  0.99541000  1
  Li  Li75  1  0.17727500  0.18765600  0.07905600  1
  Li  Li76  1  0.43567300  0.91610600  0.07117200  1
  Li  Li77  1  0.16747900  0.67890300  0.06969700  1
  Li  Li78  1  0.24140200  0.00089100  0.00604400  1
  Li  Li79  1  0.01261500  0.26621900  0.00095800  1
  Ti  Ti0  1  0.66231500  0.92645400  0.83204000  1
  Ti  Ti1  1  0.66272400  0.40006700  0.83115800  1
  Ti  Ti2  1  0.99351200  0.26338700  0.50104400  1
  Ti  Ti3  1  0.25171500  0.24906700  0.74401800  1
  Ti  Ti4  1  0.99405500  0.73658200  0.49955000  1
  Ti  Ti5  1  0.07633600  0.83257600  0.66473900  1
  Ti  Ti6  1  0.33183800  0.83568700  0.91486000  1
  Ti  Ti7  1  0.32884600  0.59451900  0.16696200  1
  Ti  Ti8  1  0.32809100  0.06861900  0.16542600  1
  Ti  Ti9  1  0.41045700  0.16070800  0.33229200  1
  Ti  Ti10  1  0.99093900  0.49665500  0.24833000  1
  Ti  Ti11  1  0.65941400  0.16633400  0.58116600  1
  Ti  Ti12  1  0.40613900  0.41112600  0.58706000  1
  Ti  Ti13  1  0.91642500  0.91388300  0.07971400  1
  Ti  Ti14  1  0.74308700  0.49719500  0.99781700  1
  Ti  Ti15  1  0.74264700  0.74711000  0.25138100  1
  N  N0  1  0.66524000  0.16715500  0.82991800  1
  N  N1  1  0.32968800  0.33307600  0.66609000  1
  N  N2  1  0.57210600  0.84223900  0.90822000  1
  N  N3  1  0.80149600  0.55620500  0.91262800  1
  N  N4  1  0.42342100  0.39563500  0.82094200  1
  N  N5  1  0.17612100  0.68482700  0.84018600  1
  N  N6  1  0.67180900  0.67899200  0.32657400  1
  N  N7  1  0.90046700  0.17830400  0.57627700  1
  N  N8  1  0.14471400  0.89146600  0.58212800  1
  N  N9  1  0.23562100  0.00984400  0.74017100  1
  N  N10  1  0.32583800  0.06001100  0.91719600  1
  N  N11  1  0.07912500  0.61124200  0.66943700  1
  N  N12  1  0.26472100  0.75971900  0.99156200  1
  N  N13  1  0.03546700  0.25692500  0.74749600  1
  N  N14  1  0.09428100  0.33019800  0.91957000  1
  N  N15  1  0.77130900  0.74131500  0.49773600  1
  N  N16  1  0.85265000  0.82911700  0.66616900  1
  N  N17  1  0.51241100  0.01237100  0.50877900  1
  N  N18  1  0.23188100  0.50861500  0.24088500  1
  N  N19  1  0.63474700  0.39563700  0.58398200  1
  N  N20  1  0.47131200  0.22281500  0.24646200  1
  N  N21  1  0.56699900  0.31842600  0.40564300  1
  N  N22  1  0.88465700  0.91747300  0.83472800  1
  N  N23  1  0.41725800  0.93962500  0.33696100  1
  N  N24  1  0.59850900  0.08375300  0.65665700  1
  N  N25  1  0.34371800  0.59323600  0.41574900  1
  N  N26  1  0.09042000  0.06435200  0.15944400  1
  N  N27  1  0.51815600  0.77457600  0.75617300  1
  N  N28  1  0.42274300  0.63564100  0.58778400  1
  N  N29  1  0.74851100  0.48628800  0.76074300  1
  N  N30  1  0.18443000  0.16078800  0.33378400  1
  N  N31  1  0.84350800  0.34445000  0.17411300  1
  N  N32  1  0.98909600  0.99392200  0.00659000  1
  N  N33  1  0.90248500  0.67002400  0.07457000  1
  N  N34  1  0.23442000  0.26275000  0.51106400  1
  N  N35  1  0.97563000  0.72809500  0.24979100  1
  N  N36  1  0.75099200  0.27852400  0.00383800  1
  N  N37  1  0.92260200  0.41865100  0.32322800  1
  N  N38  1  0.75737400  0.97675700  0.25217000  1
  N  N39  1  0.69582200  0.92500700  0.08271600  1
  N  N40  1  0.85889000  0.11115500  0.42670900  1
  N  N41  1  0.07598800  0.82606600  0.42860200  1
  N  N42  1  0.99185100  0.49569700  0.49915000  1
  N  N43  1  0.52066300  0.49472600  0.00091900  1
  N  N44  1  0.56721700  0.59569400  0.17341600  1
  N  N45  1  0.19288800  0.44367500  0.09258800  1
  N  N46  1  0.41279000  0.15739800  0.09541500  1
  N  N47  1  0.33092900  0.83189100  0.16542100  1
loop_
_geom_bond_atom_site_label_1
_geom_bond_atom_site_label_2
_geom_bond_distance
_geom_bond_site_symmetry_2
Li0 N27 2.080639 1_555
Li0 N29 2.082040 1_555
Li0 N4 2.155102 1_555
Li0 N1 2.215235 1_555
Li1 N14 1.971578 1_655
Li1 N36 2.143741 1_556
Li1 N0 2.217721 1_555
Li1 N3 2.260596 1_555
Li2 N10 2.061401 1_555
Li2 N36 2.062659 1_556
Li2 N0 2.192978 1_555
Li2 N2 2.324368 1_545
Li3 N2 2.090426 1_555
Li3 N32 2.141135 1_556
Li3 N22 2.168216 1_555
Li3 N3 2.259202 1_555
Li4 N27 2.055041 1_555
Li4 N11 2.140149 1_555
Li4 N28 2.169356 1_555
Li4 N1 2.368809 1_555
Li5 N10 2.064904 1_555
Li5 N9 2.142106 1_555
Li5 N0 2.170361 1_555
Li5 N4 2.286651 1_555
Li6 N24 2.066646 1_555
Li6 N8 2.094356 1_545
Li6 N1 2.216357 1_555
Li6 N9 2.364391 1_555
Li7 N41 2.079087 1_655
Li7 N15 2.141556 1_555
Li7 N6 2.153012 1_555
Li7 N40 2.186897 1_565
Li8 N28 2.062744 1_555
Li8 N11 2.066534 1_555
Li8 N42 2.169040 1_455
Li8 N8 2.292189 1_555
Li9 N11 2.059194 1_555
Li9 N13 2.158453 1_555
Li9 N7 2.207154 1_455
Li9 N1 2.281013 1_555
Li10 N43 2.141651 1_556
Li10 N2 2.186993 1_555
Li10 N4 2.192634 1_555
Li10 N3 2.193434 1_555
Li11 N5 2.048794 1_555
Li11 N9 2.143542 1_565
Li11 N27 2.190722 1_555
Li11 N11 2.316550 1_555
Li12 N5 2.071218 1_555
Li12 N29 2.209543 1_455
Li12 N11 2.212060 1_555
Li12 N13 2.244294 1_555
Li13 N42 2.091599 1_555
Li13 N19 2.113644 1_555
Li13 N11 2.121989 1_655
Li13 N7 2.422377 1_555
Li14 N7 2.092650 1_455
Li14 N8 2.162367 1_545
Li14 N1 2.169061 1_555
Li14 N34 2.179171 1_555
Li15 N14 2.015415 1_555
Li15 N10 2.076677 1_555
Li15 N43 2.251548 1_556
Li15 N4 2.490340 1_555
Li16 N22 2.081388 1_455
Li16 N10 2.131081 1_565
Li16 N5 2.172313 1_555
Li16 N9 2.412596 1_565
Li17 N38 2.142363 1_555
Li17 N23 2.161832 1_555
Li17 N6 2.195937 1_555
Li17 N40 2.196134 1_565
Li18 N27 2.067304 1_555
Li18 N5 2.109206 1_555
Li18 N4 2.187584 1_555
Li18 N2 2.229040 1_555
Li19 N15 2.002833 1_555
Li19 N16 2.099296 1_555
Li19 N7 2.198300 1_565
Li19 N8 2.272932 1_655
Li20 N5 2.119623 1_655
Li20 N3 2.140009 1_555
Li20 N29 2.157983 1_555
Li20 N22 2.191477 1_555
Li21 N14 2.006035 1_555
Li21 N5 2.206888 1_555
Li21 N13 2.251112 1_555
Li21 N4 2.295635 1_555
Li22 N21 2.020688 1_555
Li22 N15 2.148824 1_555
Li22 N42 2.266684 1_555
Li22 N19 2.325896 1_555
Li23 N6 2.127031 1_555
Li23 N37 2.132304 1_555
Li23 N21 2.188603 1_555
Li23 N20 2.317741 1_555
Li24 N13 2.084041 1_655
Li24 N16 2.095064 1_545
Li24 N22 2.100679 1_545
Li24 N9 2.232459 1_655
Li25 N25 2.022871 1_555
Li25 N23 2.110904 1_555
Li25 N6 2.206804 1_555
Li25 N18 2.437461 1_555
Li26 N21 2.080293 1_555
Li26 N40 2.153868 1_555
Li26 N17 2.159102 1_555
Li26 N23 2.167846 1_545
Li27 N29 2.106565 1_555
Li27 N11 2.127014 1_655
Li27 N16 2.179362 1_555
Li27 N19 2.306929 1_555
Li28 N38 2.053496 1_555
Li28 N23 2.067876 1_555
Li28 N47 2.155264 1_555
Li28 N20 2.310598 1_565
Li29 N14 2.050530 1_555
Li29 N32 2.149036 1_446
Li29 N22 2.229779 1_445
Li29 N10 2.238096 1_555
Li30 N25 2.046004 1_555
Li30 N17 2.183170 1_565
Li30 N41 2.226948 1_555
Li30 N23 2.233684 1_555
Li31 N25 2.046525 1_555
Li31 N6 2.154905 1_555
Li31 N21 2.190246 1_555
Li31 N15 2.267062 1_555
Li32 N23 2.015291 1_555
Li32 N35 2.179220 1_455
Li32 N47 2.244622 1_555
Li32 N18 2.252482 1_555
Li33 N16 2.129961 1_555
Li33 N19 2.136056 1_555
Li33 N15 2.161706 1_555
Li33 N28 2.164010 1_555
Li34 N13 2.131546 1_655
Li34 N16 2.155595 1_545
Li34 N24 2.182153 1_555
Li34 N7 2.185629 1_555
Li35 N17 2.110552 1_555
Li35 N21 2.112044 1_555
Li35 N34 2.212910 1_555
Li35 N19 2.320243 1_555
Li36 N14 1.965592 1_655
Li36 N22 2.131136 1_545
Li36 N13 2.239290 1_655
Li36 N0 2.352393 1_555
Li37 N18 2.116150 1_555
Li37 N6 2.119443 1_555
Li37 N20 2.195309 1_555
Li37 N44 2.250029 1_555
Li38 N29 2.031134 1_555
Li38 N24 2.063470 1_555
Li38 N1 2.183266 1_555
Li38 N19 2.304774 1_555
Li39 N14 1.994507 1_555
Li39 N12 2.170898 1_555
Li39 N5 2.174497 1_555
Li39 N3 2.324836 1_455
Li40 N22 2.021779 1_555
Li40 N16 2.181670 1_555
Li40 N27 2.184930 1_555
Li40 N29 2.195680 1_555
Li41 N40 2.063653 1_565
Li41 N17 2.119014 1_565
Li41 N15 2.120924 1_555
Li41 N7 2.204889 1_565
Li42 N16 2.104179 1_555
Li42 N27 2.170962 1_555
Li42 N24 2.190769 1_565
Li42 N28 2.211742 1_555
Li43 N8 2.114869 1_545
Li43 N17 2.130034 1_555
Li43 N41 2.139626 1_545
Li43 N34 2.263931 1_555
Li44 N30 2.103630 1_555
Li44 N18 2.169771 1_555
Li44 N26 2.178676 1_555
Li44 N20 2.219363 1_555
Li45 N12 2.081745 1_555
Li45 N32 2.108673 1_456
Li45 N3 2.246482 1_455
Li45 N33 2.319155 1_456
Li46 N25 2.006551 1_555
Li46 N15 2.129786 1_555
Li46 N17 2.339950 1_565
Li46 N28 2.390227 1_555
Li47 N25 1.983632 1_555
Li47 N21 2.135430 1_555
Li47 N30 2.190942 1_555
Li47 N34 2.388813 1_555
Li48 N35 2.110224 1_455
Li48 N33 2.124211 1_455
Li48 N47 2.137323 1_555
Li48 N26 2.299238 1_565
Li49 N45 2.097244 1_655
Li49 N36 2.129810 1_555
Li49 N31 2.222074 1_555
Li49 N33 2.227502 1_555
Li50 N41 2.125982 1_555
Li50 N30 2.154393 1_565
Li50 N23 2.174230 1_555
Li50 N35 2.305704 1_455
Li51 N13 2.095477 1_655
Li51 N29 2.186969 1_555
Li51 N0 2.204198 1_555
Li51 N24 2.234317 1_555
Li52 N31 2.096386 1_555
Li52 N36 2.184883 1_555
Li52 N39 2.197316 1_545
Li52 N46 2.239251 1_555
Li53 N24 2.080253 1_555
Li53 N27 2.155998 1_545
Li53 N9 2.228791 1_555
Li53 N0 2.229166 1_555
Li54 N28 2.082984 1_555
Li54 N17 2.092049 1_565
Li54 N24 2.216765 1_565
Li54 N8 2.365038 1_555
Li55 N25 1.967078 1_555
Li55 N28 2.149803 1_555
Li55 N42 2.225725 1_455
Li55 N34 2.266051 1_555
Li56 N25 2.011047 1_555
Li56 N30 2.190363 1_555
Li56 N37 2.243536 1_455
Li56 N18 2.308886 1_555
Li57 N30 2.105236 1_565
Li57 N35 2.132071 1_455
Li57 N38 2.189216 1_455
Li57 N26 2.219269 1_565
Li58 N41 2.087997 1_655
Li58 N6 2.093910 1_555
Li58 N37 2.096902 1_555
Li58 N35 2.241901 1_555
Li59 N31 2.084296 1_555
Li59 N33 2.132013 1_555
Li59 N44 2.207354 1_555
Li59 N35 2.317494 1_555
Li60 N40 2.130571 1_455
Li60 N30 2.144609 1_555
Li60 N41 2.166053 1_545
Li60 N34 2.224478 1_555
Li61 N45 2.058760 1_555
Li61 N31 2.115374 1_455
Li61 N18 2.161547 1_555
Li61 N26 2.168584 1_555
Li62 N30 2.087458 1_655
Li62 N38 2.204082 1_545
Li62 N37 2.205918 1_555
Li62 N40 2.258405 1_555
Li63 N20 2.102247 1_555
Li63 N31 2.137370 1_555
Li63 N46 2.148037 1_555
Li63 N44 2.240306 1_555
Li64 N39 2.077248 1_555
Li64 N43 2.081745 1_555
Li64 N44 2.138710 1_555
Li64 N33 2.244617 1_555
Li65 N38 2.107341 1_545
Li65 N31 2.146125 1_555
Li65 N39 2.209106 1_545
Li65 N26 2.230617 1_655
Li66 N36 2.107427 1_556
Li66 N39 2.138058 1_546
Li66 N32 2.151184 1_546
Li66 N2 2.272453 1_545
Li67 N36 2.140155 1_555
Li67 N43 2.182483 1_555
Li67 N10 2.183876 1_554
Li67 N46 2.189166 1_555
Li68 N25 1.988445 1_555
Li68 N37 2.155502 1_455
Li68 N41 2.183303 1_555
Li68 N42 2.343642 1_455
Li69 N37 2.105747 1_555
Li69 N21 2.127063 1_555
Li69 N40 2.139466 1_555
Li69 N42 2.278922 1_555
Li70 N39 2.141508 1_556
Li70 N43 2.156201 1_556
Li70 N12 2.219620 1_555
Li70 N2 2.227511 1_555
Li71 N39 2.030079 1_555
Li71 N38 2.100844 1_555
Li71 N47 2.182479 1_555
Li71 N44 2.259133 1_555
Li72 N37 2.091927 1_555
Li72 N38 2.161153 1_545
Li72 N20 2.220812 1_555
Li72 N31 2.231890 1_555
Li73 N45 2.126235 1_555
Li73 N43 2.128783 1_555
Li73 N46 2.157133 1_555
Li73 N44 2.213273 1_555
Li74 N14 2.047041 1_555
Li74 N43 2.161960 1_556
Li74 N12 2.195594 1_555
Li74 N45 2.307243 1_556
Li75 N46 2.080542 1_555
Li75 N45 2.105642 1_555
Li75 N32 2.132342 1_445
Li75 N26 2.204218 1_555
Li76 N12 2.049662 1_554
Li76 N46 2.118585 1_565
Li76 N39 2.154523 1_555
Li76 N47 2.398777 1_555
Li77 N12 2.050507 1_554
Li77 N45 2.182931 1_555
Li77 N33 2.232446 1_455
Li77 N47 2.260455 1_555
Li78 N12 2.102667 1_544
Li78 N32 2.115099 1_445
Li78 N10 2.171207 1_554
Li78 N46 2.191858 1_555
Li79 N14 2.023259 1_554
Li79 N36 2.256387 1_455
Li79 N32 2.268062 1_445
Li79 N45 2.302742 1_555
N0 Ti1 1.976014 1_555
N0 Ti0 2.036539 1_545
N1 Ti3 1.996843 1_555
N1 Ti12 1.996990 1_555
N2 Ti0 1.999092 1_555
N2 Ti6 2.037083 1_555
N3 Ti1 1.989447 1_555
N3 Ti14 2.025092 1_555
N4 Ti3 1.991330 1_555
N4 Ti1 1.992496 1_555
N5 Ti6 1.919293 1_555
N6 Ti15 1.877901 1_555
N7 Ti2 1.992262 1_555
N7 Ti11 2.023143 1_555
N8 Ti5 1.997642 1_555
N8 Ti4 2.030112 1_455
N9 Ti3 1.974263 1_555
N9 Ti5 2.022805 1_545
N10 Ti6 1.911152 1_545
N11 Ti5 1.897680 1_555
N12 Ti6 1.920190 1_555
N13 Ti3 1.861629 1_555
N15 Ti4 1.891689 1_555
N16 Ti5 1.885308 1_655
N17 Ti11 1.871916 1_555
N18 Ti7 1.982313 1_555
N18 Ti10 2.033357 1_455
N19 Ti12 1.988580 1_555
N19 Ti11 2.014602 1_555
N20 Ti8 1.987180 1_555
N20 Ti9 2.051568 1_555
N21 Ti9 1.923606 1_555
N22 Ti0 1.899482 1_555
N23 Ti9 1.907046 1_565
N24 Ti11 1.902195 1_555
N26 Ti8 1.983710 1_555
N26 Ti13 2.046966 1_445
N27 Ti0 1.906953 1_555
N28 Ti12 1.856832 1_555
N29 Ti1 1.880185 1_555
N30 Ti9 1.914972 1_555
N31 Ti10 1.893126 1_555
N32 Ti13 1.876086 1_555
N33 Ti13 2.015935 1_555
N33 Ti14 2.025233 1_554
N34 Ti12 1.982957 1_555
N34 Ti2 2.020814 1_455
N35 Ti10 2.002906 1_555
N35 Ti15 2.032631 1_555
N36 Ti14 1.895271 1_554
N37 Ti10 1.893549 1_555
N38 Ti15 1.904304 1_555
N39 Ti13 1.906826 1_555
N40 Ti2 1.862986 1_555
N41 Ti4 1.889373 1_455
N42 Ti2 1.977425 1_555
N42 Ti4 2.032368 1_555
N43 Ti14 1.882991 1_554
N44 Ti7 1.997658 1_555
N44 Ti15 2.029848 1_555
N45 Ti7 1.862250 1_555
N46 Ti8 1.877217 1_555
N47 Ti7 2.008741 1_555
N47 Ti8 2.012517 1_565
