# generated using pymatgen
data_Ag33(PbO3)14
_symmetry_space_group_name_H-M   'P 1'
_cell_length_a   8.87997900
_cell_length_b   8.88152481
_cell_length_c   19.24777758
_cell_angle_alpha   85.93515344
_cell_angle_beta   85.73684141
_cell_angle_gamma   72.03119345
_symmetry_Int_Tables_number   1
_chemical_formula_structural   Ag33(PbO3)14
_chemical_formula_sum   'Ag33 Pb14 O42'
_cell_volume   1438.15015898
_cell_formula_units_Z   1
loop_
 _symmetry_equiv_pos_site_id
 _symmetry_equiv_pos_as_xyz
  1  'x, y, z'
loop_
 _atom_site_type_symbol
 _atom_site_label
 _atom_site_symmetry_multiplicity
 _atom_site_fract_x
 _atom_site_fract_y
 _atom_site_fract_z
 _atom_site_occupancy
  Ag  Ag0  1  0.92872500  0.43046300  0.85796500  1
  Ag  Ag1  1  0.21292900  0.21541300  0.92993500  1
  Ag  Ag2  1  0.04216200  0.04172900  0.81945500  1
  Ag  Ag3  1  0.42844300  0.92898500  0.85718000  1
  Ag  Ag4  1  0.35813100  0.85694500  0.71371700  1
  Ag  Ag5  1  0.64173000  0.64275900  0.78599000  1
  Ag  Ag6  1  0.47092100  0.47110000  0.67793600  1
  Ag  Ag7  1  0.85758600  0.35818900  0.71371200  1
  Ag  Ag8  1  0.78409400  0.28891600  0.57124700  1
  Ag  Ag9  1  0.82015600  0.81261000  0.89640500  1
  Ag  Ag10  1  0.07169300  0.07155300  0.64268300  1
  Ag  Ag11  1  0.89921700  0.89929000  0.53323300  1
  Ag  Ag12  1  0.28901500  0.78399200  0.57118900  1
  Ag  Ag13  1  0.21590600  0.71108400  0.42875300  1
  Ag  Ag14  1  0.24347700  0.24318100  0.75258300  1
  Ag  Ag15  1  0.32844300  0.32868200  0.39321200  1
  Ag  Ag16  1  0.71098500  0.21600800  0.42881100  1
  Ag  Ag17  1  0.64186900  0.14305500  0.28628300  1
  Ag  Ag18  1  0.67155700  0.67131800  0.60678800  1
  Ag  Ag19  1  0.92830700  0.92844700  0.35731700  1
  Ag  Ag20  1  0.75652300  0.75681900  0.24741700  1
  Ag  Ag21  1  0.14241400  0.64181100  0.28628800  1
  Ag  Ag22  1  0.07127500  0.56953700  0.14203500  1
  Ag  Ag23  1  0.10078300  0.10071000  0.46676700  1
  Ag  Ag24  1  0.35827000  0.35724100  0.21401000  1
  Ag  Ag25  1  0.17984400  0.18739000  0.10359500  1
  Ag  Ag26  1  0.57155700  0.07101500  0.14282000  1
  Ag  Ag27  1  0.50000000  0.00000000  0.00000000  1
  Ag  Ag28  1  0.52907900  0.52890000  0.32206400  1
  Ag  Ag29  1  0.78707100  0.78458700  0.07006500  1
  Ag  Ag30  1  0.61241600  0.61408200  0.96215500  1
  Ag  Ag31  1  0.95783800  0.95827100  0.18054500  1
  Ag  Ag32  1  0.38758400  0.38591800  0.03784500  1
  Pb  Pb0  1  0.25645300  0.59642700  0.85931400  1
  Pb  Pb1  1  0.59554400  0.26302400  0.85804200  1
  Pb  Pb2  1  0.68958300  0.02433800  0.71362000  1
  Pb  Pb3  1  0.02482900  0.68947500  0.71387200  1
  Pb  Pb4  1  0.12468600  0.45142800  0.56978200  1
  Pb  Pb5  1  0.45146200  0.12494200  0.56976800  1
  Pb  Pb6  1  0.54853800  0.87505800  0.43023200  1
  Pb  Pb7  1  0.87531400  0.54857200  0.43021800  1
  Pb  Pb8  1  0.97517100  0.31052500  0.28612800  1
  Pb  Pb9  1  0.31041700  0.97566200  0.28638000  1
  Pb  Pb10  1  0.40445600  0.73697600  0.14195800  1
  Pb  Pb11  1  0.74354700  0.40357300  0.14068600  1
  Pb  Pb12  1  0.83671800  0.17050000  0.00096600  1
  Pb  Pb13  1  0.16328200  0.82950000  0.99903400  1
  O  O0  1  0.36841400  0.74332200  0.91887800  1
  O  O1  1  0.11367700  0.49028000  0.79550100  1
  O  O2  1  0.36236500  0.36457000  0.92074900  1
  O  O3  1  0.48917600  0.49438400  0.79617400  1
  O  O4  1  0.74405900  0.36889800  0.91934900  1
  O  O5  1  0.49029100  0.11453600  0.79563000  1
  O  O6  1  0.79520400  0.17234900  0.77563800  1
  O  O7  1  0.54162600  0.92202700  0.65082000  1
  O  O8  1  0.79202000  0.79320400  0.77701400  1
  O  O9  1  0.92177100  0.92099100  0.65141600  1
  O  O10  1  0.17241500  0.79448800  0.77579200  1
  O  O11  1  0.92164300  0.54212000  0.65107500  1
  O  O12  1  0.22684700  0.59980700  0.63277500  1
  O  O13  1  0.97077300  0.34796900  0.50989700  1
  O  O14  1  0.22107900  0.22187900  0.63501300  1
  O  O15  1  0.34763500  0.34705500  0.50823400  1
  O  O16  1  0.59978500  0.22672300  0.63297300  1
  O  O17  1  0.34763200  0.97087500  0.51006100  1
  O  O18  1  0.65236800  0.02912500  0.48993900  1
  O  O19  1  0.40021500  0.77327700  0.36702700  1
  O  O20  1  0.65236500  0.65294500  0.49176600  1
  O  O21  1  0.77892100  0.77812100  0.36498700  1
  O  O22  1  0.02922700  0.65203100  0.49010300  1
  O  O23  1  0.77315300  0.40019300  0.36722500  1
  O  O24  1  0.07835700  0.45788000  0.34892500  1
  O  O25  1  0.82758500  0.20551200  0.22420800  1
  O  O26  1  0.07822900  0.07900900  0.34858400  1
  O  O27  1  0.20798000  0.20679600  0.22298600  1
  O  O28  1  0.45837400  0.07797300  0.34918000  1
  O  O29  1  0.20479600  0.82765100  0.22436200  1
  O  O30  1  0.50970900  0.88546400  0.20437000  1
  O  O31  1  0.25594100  0.63110200  0.08065100  1
  O  O32  1  0.51082400  0.50561600  0.20382600  1
  O  O33  1  0.63763500  0.63543000  0.07925100  1
  O  O34  1  0.88632300  0.50972000  0.20449900  1
  O  O35  1  0.63158600  0.25667800  0.08112200  1
  O  O36  1  0.93892300  0.31049400  0.06283900  1
  O  O37  1  0.68791300  0.06386400  0.93929400  1
  O  O38  1  0.93505600  0.93594300  0.06244100  1
  O  O39  1  0.06494400  0.06405700  0.93755900  1
  O  O40  1  0.31208700  0.93613600  0.06070600  1
  O  O41  1  0.06107700  0.68950600  0.93716100  1
loop_
_geom_bond_atom_site_label_1
_geom_bond_atom_site_label_2
_geom_bond_distance
_geom_bond_site_symmetry_2
Ag0 O4 2.134845 1_555
Ag0 O1 2.139943 1_655
Ag1 O2 2.136268 1_555
Ag1 O39 2.142141 1_555
Ag2 O39 2.324846 1_555
Ag2 O10 2.327236 1_545
Ag2 O6 2.330852 1_455
Ag3 O0 2.141058 1_555
Ag3 O5 2.146132 1_565
Ag4 O10 2.152324 1_555
Ag4 O7 2.154859 1_555
Ag5 O8 2.151640 1_555
Ag5 O3 2.153025 1_555
Ag6 O16 2.314280 1_555
Ag6 O12 2.317410 1_555
Ag6 O3 2.321777 1_555
Ag7 O11 2.153567 1_555
Ag7 O6 2.153816 1_555
Ag8 O16 2.137984 1_555
Ag8 O13 2.138944 1_555
Ag9 O41 2.252204 1_655
Ag9 O37 2.353797 1_565
Ag9 O8 2.353948 1_555
Ag10 O14 2.144709 1_555
Ag10 O9 2.149897 1_445
Ag11 O22 2.322987 1_655
Ag11 O18 2.324827 1_565
Ag11 O9 2.324973 1_555
Ag12 O12 2.137964 1_555
Ag12 O17 2.139013 1_555
Ag13 O19 2.137984 1_555
Ag13 O22 2.138944 1_555
Ag14 O14 2.312397 1_555
Ag14 O1 2.319914 1_555
Ag14 O5 2.320827 1_555
Ag15 O15 2.254235 1_555
Ag15 O28 2.354703 1_555
Ag15 O24 2.354909 1_555
Ag16 O23 2.137964 1_555
Ag16 O18 2.139013 1_555
Ag17 O25 2.152324 1_555
Ag17 O28 2.154859 1_555
Ag18 O20 2.254235 1_555
Ag18 O7 2.354703 1_555
Ag18 O11 2.354909 1_555
Ag19 O21 2.144709 1_555
Ag19 O26 2.149897 1_665
Ag20 O21 2.312397 1_555
Ag20 O34 2.319914 1_555
Ag20 O30 2.320827 1_555
Ag21 O24 2.153567 1_555
Ag21 O29 2.153816 1_555
Ag22 O31 2.134845 1_555
Ag22 O34 2.139943 1_455
Ag23 O13 2.322987 1_455
Ag23 O17 2.324827 1_545
Ag23 O26 2.324973 1_555
Ag24 O27 2.151640 1_555
Ag24 O32 2.153025 1_555
Ag25 O36 2.252204 1_455
Ag25 O40 2.353797 1_545
Ag25 O27 2.353948 1_555
Ag26 O35 2.141058 1_555
Ag26 O30 2.146132 1_545
Ag27 O40 2.161386 1_545
Ag27 O37 2.161386 1_554
Ag28 O19 2.314280 1_555
Ag28 O23 2.317410 1_555
Ag28 O32 2.321777 1_555
Ag29 O33 2.136268 1_555
Ag29 O38 2.142141 1_555
Ag30 O0 2.303131 1_555
Ag30 O33 2.308183 1_556
Ag30 O4 2.308222 1_555
Ag31 O38 2.324846 1_555
Ag31 O25 2.327236 1_565
Ag31 O29 2.330852 1_655
Ag32 O35 2.303131 1_555
Ag32 O2 2.308183 1_554
Ag32 O31 2.308222 1_555
O0 Pb13 2.274554 1_555
O0 Pb0 2.277455 1_555
O1 Pb0 2.266713 1_555
O1 Pb3 2.269359 1_555
O2 Pb0 2.269025 1_555
O2 Pb1 2.277761 1_555
O3 Pb1 2.270540 1_555
O3 Pb0 2.279524 1_555
O4 Pb12 2.270458 1_556
O4 Pb1 2.273708 1_555
O5 Pb2 2.270363 1_555
O5 Pb1 2.282093 1_555
O6 Pb2 2.276476 1_555
O6 Pb1 2.278097 1_555
O7 Pb2 2.267479 1_565
O7 Pb5 2.284644 1_565
O8 Pb2 2.277754 1_565
O8 Pb3 2.282488 1_655
O9 Pb2 2.268972 1_565
O9 Pb3 2.272169 1_655
O10 Pb3 2.269776 1_555
O10 Pb0 2.281050 1_555
O11 Pb3 2.267633 1_655
O11 Pb4 2.282797 1_655
O12 Pb4 2.271004 1_555
O12 Pb3 2.273177 1_555
O13 Pb7 2.262520 1_555
O13 Pb4 2.280388 1_655
O14 Pb4 2.277221 1_555
O14 Pb5 2.277758 1_555
O15 Pb5 2.203022 1_555
O15 Pb4 2.203843 1_555
O16 Pb5 2.271714 1_555
O16 Pb2 2.276066 1_555
O17 Pb6 2.260314 1_555
O17 Pb5 2.280812 1_565
O18 Pb5 2.260314 1_555
O18 Pb6 2.280812 1_545
O19 Pb6 2.271714 1_555
O19 Pb9 2.276066 1_555
O20 Pb6 2.203022 1_555
O20 Pb7 2.203843 1_555
O21 Pb7 2.277221 1_555
O21 Pb6 2.277758 1_555
O22 Pb4 2.262520 1_555
O22 Pb7 2.280388 1_455
O23 Pb7 2.271004 1_555
O23 Pb8 2.273177 1_555
O24 Pb8 2.267633 1_455
O24 Pb7 2.282797 1_455
O25 Pb8 2.269776 1_555
O25 Pb11 2.281050 1_555
O26 Pb9 2.268972 1_545
O26 Pb8 2.272169 1_455
O27 Pb9 2.277754 1_545
O27 Pb8 2.282488 1_455
O28 Pb9 2.267479 1_545
O28 Pb6 2.284644 1_545
O29 Pb9 2.276476 1_555
O29 Pb10 2.278097 1_555
O30 Pb9 2.270363 1_555
O30 Pb10 2.282093 1_555
O31 Pb13 2.270458 1_554
O31 Pb10 2.273708 1_555
O32 Pb10 2.270540 1_555
O32 Pb11 2.279524 1_555
O33 Pb11 2.269025 1_555
O33 Pb10 2.277761 1_555
O34 Pb11 2.266713 1_555
O34 Pb8 2.269359 1_555
O35 Pb12 2.274554 1_555
O35 Pb11 2.277455 1_555
O36 Pb11 2.200623 1_555
O36 Pb12 2.203361 1_555
O37 Pb1 2.269536 1_555
O37 Pb12 2.284047 1_556
O38 Pb13 2.259249 1_654
O38 Pb12 2.276886 1_565
O39 Pb12 2.259249 1_456
O39 Pb13 2.276886 1_545
O40 Pb10 2.269536 1_555
O40 Pb13 2.284047 1_554
O41 Pb0 2.200623 1_555
O41 Pb13 2.203361 1_555
