# generated using pymatgen
data_KZr2Nb
_symmetry_space_group_name_H-M   'P 1'
_cell_length_a   5.10452607
_cell_length_b   5.10452607
_cell_length_c   5.10452607
_cell_angle_alpha   60.00000000
_cell_angle_beta   60.00000000
_cell_angle_gamma   60.00000000
_symmetry_Int_Tables_number   1
_chemical_formula_structural   KZr2Nb
_chemical_formula_sum   'K1 Zr2 Nb1'
_cell_volume   94.04837178
_cell_formula_units_Z   1
loop_
 _symmetry_equiv_pos_site_id
 _symmetry_equiv_pos_as_xyz
  1  'x, y, z'
loop_
 _atom_site_type_symbol
 _atom_site_label
 _atom_site_symmetry_multiplicity
 _atom_site_fract_x
 _atom_site_fract_y
 _atom_site_fract_z
 _atom_site_occupancy
  K  K0  1  0.00000000  0.00000000  0.00000000  1
  Zr  Zr0  1  0.25000000  0.25000000  0.25000000  1
  Zr  Zr1  1  0.75000000  0.75000000  0.75000000  1
  Nb  Nb0  1  0.50000000  0.50000000  0.50000000  1
loop_
_geom_bond_atom_site_label_1
_geom_bond_atom_site_label_2
_geom_bond_distance
_geom_bond_site_symmetry_2
K0 Zr0 3.125871 1_545
K0 Zr0 3.125871 1_455
K0 Zr0 3.125871 1_554
K0 Zr1 3.125871 1_454
K0 Zr1 3.125871 1_544
K0 Zr1 3.125871 1_445
K0 Zr0 3.125871 1_555
K0 Zr1 3.125871 1_444
K0 Nb0 3.609445 1_554
K0 Nb0 3.609445 1_454
K0 Nb0 3.609445 1_455
K0 Nb0 3.609445 1_545
K0 Nb0 3.609445 1_544
K0 Nb0 3.609445 1_445
Nb0 Zr0 3.125871 1_556
Nb0 Zr1 3.125871 1_455
Nb0 Zr1 3.125871 1_554
Nb0 Zr0 3.125871 1_565
Nb0 Zr0 3.125871 1_655
Nb0 Zr1 3.125871 1_555
Nb0 Zr0 3.125871 1_555
Nb0 Zr1 3.125871 1_545
