# generated using pymatgen
data_H9BrO4
_symmetry_space_group_name_H-M   'P 1'
_cell_length_a   11.33227300
_cell_length_b   7.22761600
_cell_length_c   7.95181535
_cell_angle_alpha   69.88084347
_cell_angle_beta   90.00000000
_cell_angle_gamma   90.00000000
_symmetry_Int_Tables_number   1
_chemical_formula_structural   H9BrO4
_chemical_formula_sum   'H36 Br4 O16'
_cell_volume   611.55342572
_cell_formula_units_Z   4
loop_
 _symmetry_equiv_pos_site_id
 _symmetry_equiv_pos_as_xyz
  1  'x, y, z'
loop_
 _atom_site_type_symbol
 _atom_site_label
 _atom_site_symmetry_multiplicity
 _atom_site_fract_x
 _atom_site_fract_y
 _atom_site_fract_z
 _atom_site_occupancy
  H  H0  1  0.68195400  0.65963700  0.04916200  1
  H  H1  1  0.81932700  0.65319800  0.08398000  1
  H  H2  1  0.18195400  0.34036300  0.95083800  1
  H  H3  1  0.31932700  0.34680200  0.91602000  1
  H  H4  1  0.82812700  0.05376900  0.12921400  1
  H  H5  1  0.74766300  0.92497100  0.03777700  1
  H  H6  1  0.32812700  0.94623100  0.87078600  1
  H  H7  1  0.24766300  0.07502900  0.96222300  1
  H  H8  1  0.74833000  0.19321400  0.94617100  1
  H  H9  1  0.74683700  0.33619100  0.68378500  1
  H  H10  1  0.81822300  0.44543500  0.79358300  1
  H  H11  1  0.31822300  0.55456500  0.20641700  1
  H  H12  1  0.24833000  0.80678600  0.05382900  1
  H  H13  1  0.24683700  0.66380900  0.31621500  1
  H  H14  1  0.68163500  0.31300200  0.42249100  1
  H  H15  1  0.81829400  0.36132400  0.41540800  1
  H  H16  1  0.18163500  0.68699800  0.57750900  1
  H  H17  1  0.31829400  0.63867600  0.58459200  1
  H  H18  1  0.85385600  0.87227200  0.47977800  1
  H  H19  1  0.76960100  0.02452100  0.52297900  1
  H  H20  1  0.35385600  0.12772800  0.52022200  1
  H  H21  1  0.26960100  0.97547900  0.47702100  1
  H  H22  1  0.59713400  0.64906500  0.39342100  1
  H  H23  1  0.68027800  0.81008600  0.47933200  1
  H  H24  1  0.09713400  0.35093500  0.60657900  1
  H  H25  1  0.18027800  0.18991400  0.52066800  1
  H  H26  1  0.48997900  0.55819300  0.73031600  1
  H  H27  1  0.45310600  0.35814600  0.70859400  1
  H  H28  1  0.95310600  0.64185400  0.29140600  1
  H  H29  1  0.98997900  0.44180700  0.26968400  1
  H  H30  1  0.49381600  0.00930600  0.06869300  1
  H  H31  1  0.39590200  0.01767400  0.20828000  1
  H  H32  1  0.55036300  0.87140400  0.34114600  1
  H  H33  1  0.89590200  0.98232600  0.79172000  1
  H  H34  1  0.99381600  0.99069400  0.93130700  1
  H  H35  1  0.05036300  0.12859600  0.65885400  1
  Br  Br0  1  0.49772800  0.03328100  0.75495200  1
  Br  Br1  1  0.99772800  0.96671900  0.24504800  1
  Br  Br2  1  0.53581200  0.47685100  0.23573800  1
  Br  Br3  1  0.03581200  0.52314900  0.76426200  1
  O  O0  1  0.75590200  0.73684200  0.01022000  1
  O  O1  1  0.25590200  0.26315800  0.98978000  1
  O  O2  1  0.75042400  0.06007900  0.06446600  1
  O  O3  1  0.25042400  0.93992100  0.93553400  1
  O  O4  1  0.74602100  0.36789300  0.79732500  1
  O  O5  1  0.24602100  0.63210700  0.20267500  1
  O  O6  1  0.75620600  0.27430400  0.49247600  1
  O  O7  1  0.25620600  0.72569600  0.50752400  1
  O  O8  1  0.77940300  0.88090500  0.54191800  1
  O  O9  1  0.27940300  0.11909500  0.45808200  1
  O  O10  1  0.59597600  0.76180600  0.44193800  1
  O  O11  1  0.09597600  0.23819400  0.55806200  1
  O  O12  1  0.42128400  0.47898100  0.72606400  1
  O  O13  1  0.92128400  0.52101900  0.27393600  1
  O  O14  1  0.48020900  0.00480600  0.19304900  1
  O  O15  1  0.98020900  0.99519400  0.80695100  1
loop_
_geom_bond_atom_site_label_1
_geom_bond_atom_site_label_2
_geom_bond_distance
_geom_bond_site_symmetry_2
H0 O0 0.995305 1_555
H1 O0 0.991038 1_555
H2 O1 0.995305 1_555
H3 O1 0.991038 1_555
H4 O2 1.013105 1_555
H5 O2 1.068718 1_565
H5 O0 1.452777 1_555
H6 O3 1.013105 1_555
H7 O3 1.068718 1_545
H7 O1 1.452777 1_555
H8 O2 1.090244 1_556
H8 O4 1.402683 1_555
H9 O4 1.005006 1_555
H10 O4 0.986399 1_555
H11 O5 0.986399 1_555
H12 O3 1.090244 1_554
H12 O5 1.402683 1_555
H13 O5 1.005006 1_555
H14 O6 0.997484 1_555
H15 O6 1.000512 1_555
H16 O7 0.997484 1_555
H17 O7 1.000512 1_555
H18 O8 0.990520 1_555
H19 O8 1.002459 1_545
H20 O9 0.990520 1_555
H21 O9 1.002459 1_565
H22 O10 1.014524 1_555
H23 O10 1.092806 1_555
H23 O8 1.395258 1_555
H24 O11 1.014524 1_555
H25 O11 1.092806 1_555
H25 O9 1.395258 1_555
H26 O12 0.973781 1_555
H27 O12 0.997770 1_555
H28 O13 0.997770 1_555
H29 O13 0.973781 1_555
H30 O14 0.990225 1_555
H31 O14 0.971513 1_555
H32 O10 1.048935 1_555
H32 O14 1.472201 1_565
H33 O15 0.971513 1_555
H34 O15 0.990225 1_555
H35 O11 1.048935 1_555
H35 O15 1.472201 1_445
Br0 H6 2.130617 1_545
Br1 H4 2.130617 1_565
Br2 H22 2.162875 1_555
Br2 H14 2.264653 1_555
Br2 H0 2.311016 1_555
Br3 H24 2.162875 1_555
Br3 H16 2.264653 1_555
Br3 H2 2.311016 1_555
