# generated using pymatgen
data_Ba7SiB3NO13
_symmetry_space_group_name_H-M   'P 1'
_cell_length_a   11.33753360
_cell_length_b   11.33753360
_cell_length_c   7.47908000
_cell_angle_alpha   90.00000000
_cell_angle_beta   90.00000000
_cell_angle_gamma   119.99999767
_symmetry_Int_Tables_number   1
_chemical_formula_structural   Ba7SiB3NO13
_chemical_formula_sum   'Ba14 Si2 B6 N2 O26'
_cell_volume   832.56086920
_cell_formula_units_Z   2
loop_
 _symmetry_equiv_pos_site_id
 _symmetry_equiv_pos_as_xyz
  1  'x, y, z'
loop_
 _atom_site_type_symbol
 _atom_site_label
 _atom_site_symmetry_multiplicity
 _atom_site_fract_x
 _atom_site_fract_y
 _atom_site_fract_z
 _atom_site_occupancy
  Ba  Ba0  1  0.12435700  0.86165300  0.19460800  1
  Ba  Ba1  1  0.04675700  0.52428100  0.85215800  1
  Ba  Ba2  1  0.47752300  0.95324300  0.85215800  1
  Ba  Ba3  1  0.13834700  0.26270400  0.19460800  1
  Ba  Ba4  1  0.33333300  0.66666700  0.49048000  1
  Ba  Ba5  1  0.47571900  0.52247700  0.85215800  1
  Ba  Ba6  1  0.26270400  0.12435700  0.69460800  1
  Ba  Ba7  1  0.73729600  0.87564300  0.19460800  1
  Ba  Ba8  1  0.52428100  0.47752300  0.35215800  1
  Ba  Ba9  1  0.86165300  0.73729600  0.69460800  1
  Ba  Ba10  1  0.52247700  0.04675700  0.35215800  1
  Ba  Ba11  1  0.66666700  0.33333300  0.99048000  1
  Ba  Ba12  1  0.95324300  0.47571900  0.35215800  1
  Ba  Ba13  1  0.87564300  0.13834700  0.69460800  1
  Si  Si0  1  0.33333300  0.66666700  0.08270400  1
  Si  Si1  1  0.66666700  0.33333300  0.58270400  1
  B  B0  1  0.17465100  0.81420200  0.63995700  1
  B  B1  1  0.18579800  0.36045000  0.63995700  1
  B  B2  1  0.63955000  0.82534900  0.63995700  1
  B  B3  1  0.36045000  0.17465100  0.13995700  1
  B  B4  1  0.81420200  0.63955000  0.13995700  1
  B  B5  1  0.82534900  0.18579800  0.13995700  1
  N  N0  1  0.00000000  0.00000000  0.47957300  1
  N  N1  1  0.00000000  0.00000000  0.97957300  1
  O  O0  1  0.14983100  0.85575600  0.80339300  1
  O  O1  1  0.07901900  0.68880300  0.56625200  1
  O  O2  1  0.29468500  0.89601000  0.54452800  1
  O  O3  1  0.18681200  0.64321700  0.16116800  1
  O  O4  1  0.10399000  0.39867500  0.54452800  1
  O  O5  1  0.14424400  0.29407600  0.80339300  1
  O  O6  1  0.33333300  0.66666700  0.85957900  1
  O  O7  1  0.45640500  0.81318800  0.16116800  1
  O  O8  1  0.35678300  0.54359500  0.16116800  1
  O  O9  1  0.31119700  0.39021700  0.56625200  1
  O  O10  1  0.60978300  0.92098100  0.56625200  1
  O  O11  1  0.29407600  0.14983100  0.30339300  1
  O  O12  1  0.39867500  0.29468500  0.04452800  1
  O  O13  1  0.60132500  0.70531500  0.54452800  1
  O  O14  1  0.70592400  0.85016900  0.80339300  1
  O  O15  1  0.39021700  0.07901900  0.06625200  1
  O  O16  1  0.68880300  0.60978300  0.06625200  1
  O  O17  1  0.64321700  0.45640500  0.66116800  1
  O  O18  1  0.54359500  0.18681200  0.66116800  1
  O  O19  1  0.85575600  0.70592400  0.30339300  1
  O  O20  1  0.66666700  0.33333300  0.35957900  1
  O  O21  1  0.89601000  0.60132500  0.04452800  1
  O  O22  1  0.81318800  0.35678300  0.66116800  1
  O  O23  1  0.70531500  0.10399000  0.04452800  1
  O  O24  1  0.92098100  0.31119700  0.06625200  1
  O  O25  1  0.85016900  0.14424400  0.30339300  1
loop_
_geom_bond_atom_site_label_1
_geom_bond_atom_site_label_2
_geom_bond_distance
_geom_bond_site_symmetry_2
Ba0 O19 2.770605 1_455
Ba0 O3 2.907010 1_555
Ba0 O15 2.941432 1_565
Ba0 O0 2.944189 1_554
Ba0 O11 2.958460 1_565
Ba0 O21 3.005402 1_455
Ba0 N1 3.040727 1_564
Ba0 O2 3.158761 1_555
Ba0 O1 3.289866 1_555
Ba0 N0 3.346916 1_565
Ba1 O24 2.643618 1_456
Ba1 O21 2.692004 1_456
Ba1 O1 2.739189 1_555
Ba1 O3 2.745855 1_556
Ba1 O22 2.762301 1_455
Ba1 O6 2.814339 1_555
Ba1 O4 2.943922 1_555
Ba2 O15 2.643603 1_566
Ba2 O23 2.692011 1_566
Ba2 O10 2.739189 1_555
Ba2 O7 2.745858 1_556
Ba2 O18 2.762299 1_565
Ba2 O6 2.814339 1_555
Ba2 O2 2.943916 1_555
Ba3 O11 2.770614 1_555
Ba3 O8 2.907010 1_555
Ba3 O24 2.941425 1_455
Ba3 O5 2.944190 1_554
Ba3 O25 2.958459 1_455
Ba3 O12 3.005402 1_555
Ba3 N1 3.040727 1_554
Ba3 O4 3.158761 1_555
Ba3 O9 3.289867 1_555
Ba3 N0 3.346916 1_555
Ba4 O6 2.760521 1_555
Ba4 O2 2.873271 1_555
Ba4 O4 2.873278 1_555
Ba4 O13 2.873282 1_555
Ba4 O3 2.907697 1_555
Ba4 O7 2.907699 1_555
Ba4 O8 2.907703 1_555
Ba4 O1 3.069387 1_555
Ba4 O9 3.069387 1_555
Ba4 O10 3.069387 1_555
Ba5 O16 2.643620 1_556
Ba5 O12 2.692013 1_556
Ba5 O9 2.739189 1_555
Ba5 O8 2.745852 1_556
Ba5 O17 2.762308 1_555
Ba5 O6 2.814339 1_555
Ba5 O13 2.943917 1_555
Ba6 O0 2.770604 1_545
Ba6 O18 2.907010 1_555
Ba6 O9 2.941436 1_555
Ba6 O11 2.944190 1_555
Ba6 O5 2.958469 1_555
Ba6 O2 3.005402 1_545
Ba6 N0 3.040727 1_555
Ba6 O12 3.158761 1_556
Ba6 O15 3.289872 1_556
Ba6 N1 3.346916 1_555
Ba7 O25 2.770604 1_565
Ba7 O7 2.907010 1_555
Ba7 O16 2.941436 1_555
Ba7 O14 2.944190 1_554
Ba7 O19 2.958469 1_555
Ba7 O23 3.005402 1_565
Ba7 N1 3.040727 1_664
Ba7 O13 3.158761 1_555
Ba7 O10 3.289872 1_555
Ba7 N0 3.346916 1_665
Ba8 O9 2.643620 1_555
Ba8 O13 2.692013 1_555
Ba8 O16 2.739189 1_555
Ba8 O17 2.745852 1_555
Ba8 O8 2.762308 1_555
Ba8 O20 2.814339 1_555
Ba8 O12 2.943917 1_555
Ba9 O14 2.770614 1_555
Ba9 O17 2.907010 1_555
Ba9 O1 2.941425 1_655
Ba9 O19 2.944190 1_555
Ba9 O0 2.958459 1_655
Ba9 O13 3.005402 1_555
Ba9 N0 3.040727 1_665
Ba9 O21 3.158761 1_556
Ba9 O16 3.289867 1_556
Ba9 N1 3.346916 1_665
Ba10 O10 2.643603 1_545
Ba10 O2 2.692011 1_545
Ba10 O15 2.739189 1_555
Ba10 O18 2.745858 1_555
Ba10 O7 2.762299 1_545
Ba10 O20 2.814339 1_555
Ba10 O23 2.943916 1_555
Ba11 O20 2.760521 1_556
Ba11 O23 2.873271 1_556
Ba11 O21 2.873278 1_556
Ba11 O12 2.873282 1_556
Ba11 O22 2.907697 1_555
Ba11 O18 2.907699 1_555
Ba11 O17 2.907703 1_555
Ba11 O24 3.069387 1_556
Ba11 O16 3.069387 1_556
Ba11 O15 3.069387 1_556
Ba12 O1 2.643618 1_655
Ba12 O4 2.692004 1_655
Ba12 O24 2.739189 1_555
Ba12 O22 2.745855 1_555
Ba12 O3 2.762301 1_655
Ba12 O20 2.814339 1_555
Ba12 O21 2.943922 1_555
Ba13 O5 2.770605 1_655
Ba13 O22 2.907010 1_555
Ba13 O10 2.941432 1_545
Ba13 O25 2.944189 1_555
Ba13 O14 2.958460 1_545
Ba13 O4 3.005402 1_655
Ba13 N0 3.040727 1_655
Ba13 O23 3.158761 1_556
Ba13 O24 3.289866 1_556
Ba13 N1 3.346916 1_655
B0 O0 1.388471 1_555
B0 O1 1.399727 1_555
B0 O2 1.399804 1_555
B1 O5 1.388471 1_555
B1 O9 1.399727 1_555
B1 O4 1.399796 1_555
B2 O14 1.388471 1_555
B2 O10 1.399727 1_555
B2 O13 1.399806 1_555
B3 O11 1.388471 1_555
B3 O15 1.399727 1_555
B3 O12 1.399806 1_555
B4 O19 1.388471 1_555
B4 O16 1.399727 1_555
B4 O21 1.399796 1_555
B5 O25 1.388471 1_555
B5 O24 1.399727 1_555
B5 O23 1.399804 1_555
O3 Si0 1.653165 1_555
O6 Si0 1.668770 1_556
O7 Si0 1.653169 1_555
O8 Si0 1.653175 1_555
O17 Si1 1.653175 1_555
O18 Si1 1.653169 1_555
O20 Si1 1.668770 1_555
O22 Si1 1.653165 1_555
