# generated using pymatgen
data_Ca2Al2SiO7
_symmetry_space_group_name_H-M   'P 1'
_cell_length_a   6.77935800
_cell_length_b   7.48280700
_cell_length_c   13.21802100
_cell_angle_alpha   90.00000000
_cell_angle_beta   90.00000000
_cell_angle_gamma   90.00000000
_symmetry_Int_Tables_number   1
_chemical_formula_structural   Ca2Al2SiO7
_chemical_formula_sum   'Ca8 Al8 Si4 O28'
_cell_volume   670.53206357
_cell_formula_units_Z   4
loop_
 _symmetry_equiv_pos_site_id
 _symmetry_equiv_pos_as_xyz
  1  'x, y, z'
loop_
 _atom_site_type_symbol
 _atom_site_label
 _atom_site_symmetry_multiplicity
 _atom_site_fract_x
 _atom_site_fract_y
 _atom_site_fract_z
 _atom_site_occupancy
  Ca  Ca0  1  0.07940500  0.65761400  0.02891800  1
  Ca  Ca1  1  0.66918600  0.36938200  0.03558100  1
  Ca  Ca2  1  0.16918600  0.13061800  0.96441900  1
  Ca  Ca3  1  0.57940500  0.84238600  0.97108200  1
  Ca  Ca4  1  0.83081400  0.63061800  0.53558100  1
  Ca  Ca5  1  0.42059500  0.34238600  0.52891800  1
  Ca  Ca6  1  0.92059500  0.15761400  0.47108200  1
  Ca  Ca7  1  0.33081400  0.86938200  0.46441900  1
  Al  Al0  1  0.76001200  0.12230500  0.74803900  1
  Al  Al1  1  0.23998800  0.62230500  0.75196100  1
  Al  Al2  1  0.57883700  0.15590900  0.35173200  1
  Al  Al3  1  0.07883700  0.34409100  0.64826800  1
  Al  Al4  1  0.73998800  0.87769500  0.24803900  1
  Al  Al5  1  0.26001200  0.37769500  0.25196100  1
  Al  Al6  1  0.92116300  0.84409100  0.85173200  1
  Al  Al7  1  0.42116300  0.65590900  0.14826800  1
  Si  Si0  1  0.12810700  0.95323300  0.64934500  1
  Si  Si1  1  0.62810700  0.54676700  0.35065500  1
  Si  Si2  1  0.37189300  0.04676700  0.14934500  1
  Si  Si3  1  0.87189300  0.45323300  0.85065500  1
  O  O0  1  0.28658400  0.86408100  0.09899400  1
  O  O1  1  0.70763700  0.29646000  0.83610100  1
  O  O2  1  0.50998100  0.11958300  0.05561300  1
  O  O3  1  0.17304700  0.73937200  0.86221700  1
  O  O4  1  0.42352500  0.55160300  0.02901600  1
  O  O5  1  0.97425800  0.51660500  0.74150900  1
  O  O6  1  0.68000700  0.91784300  0.79694200  1
  O  O7  1  0.47425800  0.98339500  0.25849100  1
  O  O8  1  0.18000700  0.58215700  0.20305800  1
  O  O9  1  0.92352500  0.94839700  0.97098400  1
  O  O10  1  0.20763700  0.20354000  0.16389900  1
  O  O11  1  0.00998100  0.38041700  0.94438700  1
  O  O12  1  0.67304700  0.76062800  0.13778300  1
  O  O13  1  0.78658400  0.63591900  0.90100600  1
  O  O14  1  0.21341600  0.13591900  0.59899400  1
  O  O15  1  0.79236300  0.70354000  0.33610100  1
  O  O16  1  0.07647500  0.44839700  0.52901600  1
  O  O17  1  0.32695300  0.26062800  0.36221700  1
  O  O18  1  0.99001900  0.88041700  0.55561300  1
  O  O19  1  0.81999300  0.08215700  0.29694200  1
  O  O20  1  0.52574200  0.48339500  0.24150900  1
  O  O21  1  0.31999300  0.41784300  0.70305800  1
  O  O22  1  0.02574200  0.01660500  0.75849100  1
  O  O23  1  0.82695300  0.23937200  0.63778300  1
  O  O24  1  0.49001900  0.61958300  0.44438700  1
  O  O25  1  0.29236300  0.79646000  0.66389900  1
  O  O26  1  0.57647500  0.05160300  0.47098400  1
  O  O27  1  0.71341600  0.36408100  0.40100600  1
loop_
_geom_bond_atom_site_label_1
_geom_bond_atom_site_label_2
_geom_bond_distance
_geom_bond_site_symmetry_2
Ca0 O0 2.284203 1_555
Ca0 O3 2.373291 1_554
Ca0 O11 2.402561 1_554
Ca0 O4 2.464091 1_555
Ca0 O8 2.466206 1_555
Ca0 O9 2.537240 1_454
Ca0 O13 2.612612 1_454
Ca1 O4 2.154151 1_555
Ca1 O2 2.174607 1_555
Ca1 O11 2.607227 1_654
Ca1 O13 2.788445 1_554
Ca2 O9 2.154151 1_445
Ca2 O11 2.174607 1_555
Ca2 O2 2.607227 1_556
Ca2 O0 2.788445 1_546
Ca3 O13 2.284203 1_555
Ca3 O12 2.373291 1_556
Ca3 O2 2.402561 1_566
Ca3 O9 2.464091 1_555
Ca3 O6 2.466206 1_555
Ca3 O4 2.537240 1_556
Ca3 O0 2.612612 1_556
Ca4 O16 2.154151 1_655
Ca4 O18 2.174607 1_555
Ca4 O24 2.607227 1_555
Ca4 O27 2.788445 1_555
Ca5 O14 2.284203 1_555
Ca5 O17 2.373291 1_555
Ca5 O24 2.402561 1_555
Ca5 O16 2.464091 1_555
Ca5 O21 2.466206 1_555
Ca5 O26 2.537240 1_555
Ca5 O27 2.612612 1_555
Ca6 O27 2.284203 1_555
Ca6 O23 2.373291 1_555
Ca6 O18 2.402561 1_545
Ca6 O26 2.464091 1_555
Ca6 O19 2.466206 1_555
Ca6 O16 2.537240 1_655
Ca6 O14 2.612612 1_655
Ca7 O26 2.154151 1_565
Ca7 O24 2.174607 1_555
Ca7 O18 2.607227 1_455
Ca7 O14 2.788445 1_565
Al0 O6 1.747215 1_545
Al0 O23 1.759893 1_555
Al0 O1 1.783040 1_555
Al0 O22 1.972305 1_655
Al1 O21 1.747215 1_555
Al1 O3 1.759893 1_555
Al1 O25 1.783040 1_555
Al1 O5 1.972305 1_455
Al2 O26 1.759001 1_555
Al2 O19 1.871334 1_555
Al2 O17 1.883922 1_555
Al2 O27 1.919130 1_555
Al2 O7 1.920418 1_545
Al3 O16 1.759001 1_555
Al3 O21 1.871334 1_555
Al3 O23 1.883922 1_455
Al3 O14 1.919130 1_555
Al3 O5 1.920418 1_455
Al4 O19 1.747215 1_565
Al4 O12 1.759893 1_555
Al4 O15 1.783040 1_555
Al4 O7 1.972305 1_555
Al5 O8 1.747215 1_555
Al5 O17 1.759893 1_555
Al5 O10 1.783040 1_555
Al5 O20 1.972305 1_555
Al6 O9 1.759001 1_555
Al6 O6 1.871334 1_555
Al6 O3 1.883922 1_655
Al6 O13 1.919130 1_555
Al6 O22 1.920418 1_665
Al7 O4 1.759001 1_555
Al7 O8 1.871334 1_555
Al7 O12 1.883922 1_555
Al7 O0 1.919130 1_555
Al7 O20 1.920418 1_555
O0 Si2 1.626690 1_565
O1 Si3 1.628856 1_555
O2 Si2 1.645678 1_555
O5 Si3 1.669678 1_555
O7 Si2 1.669678 1_565
O10 Si2 1.628856 1_555
O11 Si3 1.645678 1_455
O13 Si3 1.626690 1_555
O14 Si0 1.626690 1_545
O15 Si1 1.628856 1_555
O18 Si0 1.645678 1_655
O20 Si1 1.669678 1_555
O22 Si0 1.669678 1_545
O24 Si1 1.645678 1_555
O25 Si0 1.628856 1_555
O27 Si1 1.626690 1_555
