# generated using pymatgen
data_BaLa3TiCr3O12
_symmetry_space_group_name_H-M   'P 1'
_cell_length_a   11.17721600
_cell_length_b   5.60077600
_cell_length_c   7.92704114
_cell_angle_alpha   89.40242338
_cell_angle_beta   90.00000000
_cell_angle_gamma   90.00000000
_symmetry_Int_Tables_number   1
_chemical_formula_structural   BaLa3TiCr3O12
_chemical_formula_sum   'Ba2 La6 Ti2 Cr6 O24'
_cell_volume   496.21437147
_cell_formula_units_Z   2
loop_
 _symmetry_equiv_pos_site_id
 _symmetry_equiv_pos_as_xyz
  1  'x, y, z'
loop_
 _atom_site_type_symbol
 _atom_site_label
 _atom_site_symmetry_multiplicity
 _atom_site_fract_x
 _atom_site_fract_y
 _atom_site_fract_z
 _atom_site_occupancy
  Ba  Ba0  1  0.00263200  0.50000000  0.75000000  1
  Ba  Ba1  1  0.99736800  0.50000000  0.25000000  1
  La  La0  1  0.74843200  0.00000000  0.25000000  1
  La  La1  1  0.49344700  0.50000000  0.75000000  1
  La  La2  1  0.25417900  0.00000000  0.25000000  1
  La  La3  1  0.74582100  0.00000000  0.75000000  1
  La  La4  1  0.50655300  0.50000000  0.25000000  1
  La  La5  1  0.25156800  0.00000000  0.75000000  1
  Ti  Ti0  1  0.00000000  0.00000000  0.50000000  1
  Ti  Ti1  1  0.00000000  0.00000000  0.00000000  1
  Cr  Cr0  1  0.74710500  0.50357500  0.99945900  1
  Cr  Cr1  1  0.50000000  0.00000000  0.50000000  1
  Cr  Cr2  1  0.74710500  0.49642500  0.50054100  1
  Cr  Cr3  1  0.50000000  0.00000000  0.00000000  1
  Cr  Cr4  1  0.25289500  0.50357500  0.49945900  1
  Cr  Cr5  1  0.25289500  0.49642500  0.00054100  1
  O  O0  1  0.86008100  0.22052400  0.97932200  1
  O  O1  1  0.97725400  0.00000000  0.25000000  1
  O  O2  1  0.86008100  0.77947600  0.52067800  1
  O  O3  1  0.60667500  0.71601800  0.47190400  1
  O  O4  1  0.88072700  0.74824300  0.97951400  1
  O  O5  1  0.71530700  0.50000000  0.75000000  1
  O  O6  1  0.75923900  0.50000000  0.25000000  1
  O  O7  1  0.60667500  0.28398200  0.02809600  1
  O  O8  1  0.88072700  0.25175700  0.52048600  1
  O  O9  1  0.35894000  0.21118300  0.96916200  1
  O  O10  1  0.64106000  0.21118300  0.46916200  1
  O  O11  1  0.46821700  0.00000000  0.25000000  1
  O  O12  1  0.53178300  0.00000000  0.75000000  1
  O  O13  1  0.35894000  0.78881700  0.53083800  1
  O  O14  1  0.64106000  0.78881700  0.03083800  1
  O  O15  1  0.11927300  0.74824300  0.47951400  1
  O  O16  1  0.39332500  0.71601800  0.97190400  1
  O  O17  1  0.24076100  0.50000000  0.75000000  1
  O  O18  1  0.28469300  0.50000000  0.25000000  1
  O  O19  1  0.11927300  0.25175700  0.02048600  1
  O  O20  1  0.39332500  0.28398200  0.52809600  1
  O  O21  1  0.13991900  0.22052400  0.47932200  1
  O  O22  1  0.02274600  0.00000000  0.75000000  1
  O  O23  1  0.13991900  0.77947600  0.02067800  1
loop_
_geom_bond_atom_site_label_1
_geom_bond_atom_site_label_2
_geom_bond_distance
_geom_bond_site_symmetry_2
Ba0 O17 2.661619 1_555
Ba0 O4 2.674417 1_455
Ba0 O8 2.674417 1_455
Ba0 O22 2.809398 1_555
Ba0 O22 2.809398 1_565
Ba0 O15 2.857969 1_555
Ba0 O19 2.857969 1_556
Ba0 O0 2.869494 1_455
Ba0 O2 2.869494 1_455
Ba0 O23 3.078756 1_556
Ba0 O21 3.078756 1_555
Ba0 O5 3.211494 1_455
Ba1 O6 2.661619 1_555
Ba1 O15 2.674417 1_655
Ba1 O19 2.674417 1_655
Ba1 O1 2.809398 1_555
Ba1 O1 2.809398 1_565
Ba1 O4 2.857969 1_554
Ba1 O8 2.857969 1_555
Ba1 O23 2.869494 1_655
Ba1 O21 2.869494 1_655
Ba1 O2 3.078756 1_555
Ba1 O0 3.078756 1_554
Ba1 O18 3.211494 1_655
La0 O14 2.429068 1_545
La0 O10 2.429068 1_555
La0 O1 2.557593 1_555
La0 O0 2.762507 1_554
La0 O2 2.762507 1_545
La0 O6 2.802992 1_545
La0 O6 2.802992 1_555
La0 O3 2.841848 1_545
La0 O7 2.841848 1_555
La0 O4 2.972403 1_544
La0 O8 2.972403 1_555
La0 O11 3.132024 1_555
La1 O20 2.419660 1_555
La1 O16 2.419660 1_555
La1 O5 2.479777 1_555
La1 O17 2.824326 1_555
La2 O11 2.392349 1_555
La2 O21 2.551056 1_555
La2 O23 2.551056 1_545
La2 O19 2.741982 1_555
La2 O15 2.741982 1_545
La2 O9 2.769691 1_554
La2 O13 2.769691 1_545
La2 O18 2.821081 1_555
La2 O18 2.821081 1_545
La3 O12 2.392349 1_555
La3 O0 2.551056 1_555
La3 O2 2.551056 1_545
La3 O8 2.741982 1_555
La3 O4 2.741982 1_545
La3 O14 2.769691 1_546
La3 O10 2.769691 1_555
La3 O5 2.821081 1_555
La3 O5 2.821081 1_545
La4 O7 2.419660 1_555
La4 O3 2.419660 1_555
La4 O18 2.479777 1_555
La4 O6 2.824326 1_555
La5 O13 2.429068 1_545
La5 O9 2.429068 1_555
La5 O22 2.557593 1_555
La5 O21 2.762507 1_555
La5 O23 2.762507 1_546
La5 O17 2.802992 1_545
La5 O17 2.802992 1_555
La5 O20 2.841848 1_555
La5 O16 2.841848 1_545
La5 O19 2.972403 1_556
La5 O15 2.972403 1_545
La5 O12 3.132024 1_555
Cr0 O6 1.990567 1_556
Cr0 O7 2.005502 1_556
Cr0 O14 2.006818 1_556
Cr0 O5 2.009463 1_555
Cr0 O4 2.031967 1_555
Cr0 O0 2.034332 1_555
Cr1 O10 1.984582 1_555
Cr1 O13 1.984582 1_545
Cr1 O3 2.002098 1_545
Cr1 O20 2.002098 1_555
Cr1 O12 2.013349 1_555
Cr1 O11 2.013349 1_555
Cr2 O6 1.990567 1_555
Cr2 O3 2.005502 1_555
Cr2 O10 2.006818 1_555
Cr2 O5 2.009463 1_555
Cr2 O8 2.031967 1_555
Cr2 O2 2.034332 1_555
Cr3 O14 1.984582 1_545
Cr3 O9 1.984582 1_554
Cr3 O16 2.002098 1_544
Cr3 O7 2.002098 1_555
Cr3 O12 2.013349 1_554
Cr3 O11 2.013349 1_555
Cr4 O17 1.990567 1_555
Cr4 O20 2.005502 1_555
Cr4 O13 2.006818 1_555
Cr4 O18 2.009463 1_555
Cr4 O15 2.031967 1_555
Cr4 O21 2.034332 1_555
Cr5 O17 1.990567 1_554
Cr5 O16 2.005502 1_554
Cr5 O9 2.006818 1_554
Cr5 O18 2.009463 1_555
Cr5 O19 2.031967 1_555
Cr5 O23 2.034332 1_555
O0 Ti1 1.998482 1_656
O1 Ti0 1.998002 1_655
O1 Ti1 1.998002 1_655
O2 Ti0 1.998482 1_665
O4 Ti1 1.948489 1_666
O8 Ti0 1.948489 1_655
O15 Ti0 1.948489 1_565
O19 Ti1 1.948489 1_555
O21 Ti0 1.998482 1_555
O22 Ti0 1.998002 1_555
O22 Ti1 1.998002 1_556
O23 Ti1 1.998482 1_565
