# generated using pymatgen
data_NdInPd
_symmetry_space_group_name_H-M   'P 1'
_cell_length_a   8.18370215
_cell_length_b   8.18370215
_cell_length_c   3.77942700
_cell_angle_alpha   90.00000000
_cell_angle_beta   90.00000000
_cell_angle_gamma   120.00000120
_symmetry_Int_Tables_number   1
_chemical_formula_structural   NdInPd
_chemical_formula_sum   'Nd3 In3 Pd3'
_cell_volume   219.20790770
_cell_formula_units_Z   3
loop_
 _symmetry_equiv_pos_site_id
 _symmetry_equiv_pos_as_xyz
  1  'x, y, z'
loop_
 _atom_site_type_symbol
 _atom_site_label
 _atom_site_symmetry_multiplicity
 _atom_site_fract_x
 _atom_site_fract_y
 _atom_site_fract_z
 _atom_site_occupancy
  Nd  Nd0  1  0.00000000  0.71831500  0.50000000  1
  Nd  Nd1  1  0.28168500  0.28168500  0.50000000  1
  Nd  Nd2  1  0.71831500  0.00000000  0.50000000  1
  In  In0  1  0.61692200  0.61692200  0.00000000  1
  In  In1  1  0.00000000  0.38307800  0.00000000  1
  In  In2  1  0.38307800  0.00000000  0.00000000  1
  Pd  Pd0  1  0.00000000  0.00000000  0.00000000  1
  Pd  Pd1  1  0.66666700  0.33333300  0.50000000  1
  Pd  Pd2  1  0.33333300  0.66666700  0.50000000  1
loop_
_geom_bond_atom_site_label_1
_geom_bond_atom_site_label_2
_geom_bond_distance
_geom_bond_site_symmetry_2
Nd0 Pd2 2.961939 1_555
Nd0 Pd1 2.961944 1_455
Nd0 Pd0 2.980786 1_565
Nd0 Pd0 2.980786 1_566
Nd1 Pd1 2.961947 1_555
Nd1 Pd2 2.961947 1_555
Nd1 Pd0 2.980786 1_555
Nd1 Pd0 2.980786 1_556
Nd2 Pd1 2.961939 1_555
Nd2 Pd2 2.961944 1_545
Nd2 Pd0 2.980786 1_655
Nd2 Pd0 2.980786 1_656
In0 Pd0 3.134996 1_665
In0 Pd1 3.172963 1_554
In0 Pd2 3.172963 1_554
In0 Pd1 3.172963 1_555
In0 Pd2 3.172963 1_555
In0 Nd1 3.331321 1_555
In0 Nd1 3.331321 1_554
In0 Nd2 3.389161 1_564
In0 Nd0 3.389161 1_655
In0 Nd0 3.389161 1_654
In0 Nd2 3.389161 1_565
In1 Pd0 3.134996 1_555
In1 Pd1 3.172956 1_454
In1 Pd1 3.172956 1_455
In1 Pd2 3.172959 1_554
In1 Pd2 3.172959 1_555
In1 Nd0 3.331321 1_554
In1 Nd0 3.331321 1_555
In1 Nd2 3.389161 1_455
In1 Nd2 3.389161 1_454
In1 Nd1 3.389161 1_554
In1 Nd1 3.389161 1_555
In2 Pd0 3.134996 1_555
In2 Pd2 3.172956 1_544
In2 Pd2 3.172956 1_545
In2 Pd1 3.172959 1_555
In2 Pd1 3.172959 1_554
In2 Nd2 3.331321 1_555
In2 Nd2 3.331321 1_554
In2 Nd0 3.389161 1_544
In2 Nd0 3.389161 1_545
In2 Nd1 3.389161 1_554
In2 Nd1 3.389161 1_555
