# generated using pymatgen
data_KMg4Al9(SiO4)9
_symmetry_space_group_name_H-M   'P 1'
_cell_length_a   9.50690200
_cell_length_b   9.85865156
_cell_length_c   9.88681820
_cell_angle_alpha   60.34303834
_cell_angle_beta   89.98783015
_cell_angle_gamma   89.98076900
_symmetry_Int_Tables_number   1
_chemical_formula_structural   KMg4Al9(SiO4)9
_chemical_formula_sum   'K1 Mg4 Al9 Si9 O36'
_cell_volume   805.25708099
_cell_formula_units_Z   1
loop_
 _symmetry_equiv_pos_site_id
 _symmetry_equiv_pos_as_xyz
  1  'x, y, z'
loop_
 _atom_site_type_symbol
 _atom_site_label
 _atom_site_symmetry_multiplicity
 _atom_site_fract_x
 _atom_site_fract_y
 _atom_site_fract_z
 _atom_site_occupancy
  K  K0  1  0.83539200  0.99637200  0.00913200  1
  Mg  Mg0  1  0.75091600  0.66676100  0.66798000  1
  Mg  Mg1  1  0.24965900  0.66655400  0.66800300  1
  Mg  Mg2  1  0.75155700  0.33486600  0.32233100  1
  Mg  Mg3  1  0.24954700  0.33463000  0.32317700  1
  Al  Al0  1  0.74995900  0.49748000  0.00191700  1
  Al  Al1  1  0.74835200  0.00123000  0.49650900  1
  Al  Al2  1  0.24951800  0.50193200  0.49686100  1
  Al  Al3  1  0.75092000  0.50177000  0.49665000  1
  Al  Al4  1  0.25221400  0.00096800  0.49781600  1
  Al  Al5  1  0.00040500  0.63045000  0.10687900  1
  Al  Al6  1  0.00057800  0.11610600  0.26286800  1
  Al  Al7  1  0.25068800  0.49720300  0.00219600  1
  Al  Al8  1  0.50014400  0.25766900  0.10849500  1
  Si  Si0  1  0.50015000  0.73252400  0.89506900  1
  Si  Si1  1  0.99932700  0.89662700  0.72979400  1
  Si  Si2  1  0.99933200  0.37856400  0.88643700  1
  Si  Si3  1  0.50046500  0.37318000  0.73158500  1
  Si  Si4  1  0.50046900  0.88415900  0.37899000  1
  Si  Si5  1  0.99988900  0.26883100  0.62174300  1
  Si  Si6  1  0.99883800  0.73566200  0.37856800  1
  Si  Si7  1  0.50035000  0.10287100  0.63288400  1
  Si  Si8  1  0.50013800  0.62432900  0.26516800  1
  O  O0  1  0.99355100  0.78959600  0.91500900  1
  O  O1  1  0.50196500  0.92239600  0.78006600  1
  O  O2  1  0.35820600  0.65626800  0.86312800  1
  O  O3  1  0.64194700  0.65618200  0.86324700  1
  O  O4  1  0.14157300  0.48714500  0.85722200  1
  O  O5  1  0.85834800  0.48935000  0.85572800  1
  O  O6  1  0.85832200  0.86629400  0.65023200  1
  O  O7  1  0.14160400  0.86612200  0.65187000  1
  O  O8  1  0.50344000  0.30267000  0.91417000  1
  O  O9  1  0.99607600  0.30605400  0.76668800  1
  O  O10  1  0.35956100  0.85477500  0.48991200  1
  O  O11  1  0.64073700  0.85418000  0.49064200  1
  O  O12  1  0.35958500  0.48371400  0.64957100  1
  O  O13  1  0.64068600  0.48385700  0.64888000  1
  O  O14  1  0.14012300  0.65146300  0.48939900  1
  O  O15  1  0.85957300  0.64981100  0.49230500  1
  O  O16  1  0.50194400  0.22926200  0.69294700  1
  O  O17  1  0.99333600  0.92027400  0.30971100  1
  O  O18  1  0.99611600  0.08016700  0.69358300  1
  O  O19  1  0.50193400  0.76362700  0.30945800  1
  O  O20  1  0.14322500  0.34475700  0.51830600  1
  O  O21  1  0.85691600  0.34494200  0.51732400  1
  O  O22  1  0.35829300  0.51781700  0.34354100  1
  O  O23  1  0.64199400  0.51779100  0.34344900  1
  O  O24  1  0.35973400  0.13093200  0.52711600  1
  O  O25  1  0.64106600  0.13053800  0.52729600  1
  O  O26  1  0.99296600  0.70127200  0.23633300  1
  O  O27  1  0.50192100  0.69888800  0.07598500  1
  O  O28  1  0.85071600  0.14256300  0.35023800  1
  O  O29  1  0.14957700  0.14188900  0.35115400  1
  O  O30  1  0.14846600  0.51592800  0.13738100  1
  O  O31  1  0.85144000  0.51660900  0.13711900  1
  O  O32  1  0.35467400  0.34721500  0.13758000  1
  O  O33  1  0.64626900  0.34686600  0.13703100  1
  O  O34  1  0.50365100  0.05762700  0.23641400  1
  O  O35  1  0.99335900  0.23041700  0.05891400  1
loop_
_geom_bond_atom_site_label_1
_geom_bond_atom_site_label_2
_geom_bond_distance
_geom_bond_site_symmetry_2
K0 O35 2.991325 1_565
K0 O0 3.026064 1_554
K0 O26 3.047162 1_555
K0 O17 3.073066 1_555
K0 O9 3.187433 1_564
K0 O18 3.193513 1_564
Mg0 O5 2.081965 1_555
Mg0 O11 2.092559 1_555
Mg0 O15 2.097152 1_555
Mg0 O6 2.145391 1_555
Mg0 O3 2.147359 1_555
Mg0 O13 2.173398 1_555
Mg1 O10 2.098186 1_555
Mg1 O4 2.099993 1_555
Mg1 O14 2.117912 1_555
Mg1 O2 2.145706 1_555
Mg1 O7 2.154024 1_555
Mg1 O12 2.167553 1_555
Mg2 O28 2.010050 1_555
Mg2 O33 2.039231 1_555
Mg2 O31 2.053947 1_555
Mg2 O23 2.179915 1_555
Mg2 O21 2.218151 1_555
Mg2 O25 2.286601 1_555
Mg3 O29 2.017766 1_555
Mg3 O32 2.038468 1_555
Mg3 O30 2.059822 1_555
Mg3 O22 2.175334 1_555
Mg3 O20 2.223334 1_555
Mg3 O24 2.277734 1_555
Al0 O33 1.731620 1_555
Al0 O31 1.733002 1_555
Al0 O3 1.805208 1_554
Al0 O5 1.808649 1_554
Al1 O28 1.728029 1_555
Al1 O25 1.772310 1_555
Al1 O6 1.780870 1_545
Al1 O11 1.798883 1_545
Al2 O12 1.771705 1_555
Al2 O20 1.772848 1_555
Al2 O14 1.775281 1_555
Al2 O22 1.776577 1_555
Al3 O13 1.769496 1_555
Al3 O21 1.770308 1_555
Al3 O15 1.771407 1_555
Al3 O23 1.776328 1_555
Al4 O29 1.729426 1_555
Al4 O24 1.771648 1_555
Al4 O7 1.785890 1_545
Al4 O10 1.798691 1_545
Al5 O30 1.734696 1_555
Al5 O26 1.736343 1_455
Al5 O31 1.738799 1_455
Al5 O0 1.766082 1_454
Al6 O29 1.747389 1_555
Al6 O17 1.749808 1_445
Al6 O28 1.751067 1_455
Al6 O35 1.758405 1_455
Al7 O32 1.730989 1_555
Al7 O30 1.734463 1_555
Al7 O2 1.805870 1_554
Al7 O4 1.811549 1_554
Al8 O34 1.738289 1_555
Al8 O32 1.739214 1_555
Al8 O33 1.740473 1_555
Al8 O8 1.745138 1_554
O0 Si1 1.599219 1_555
O1 Si0 1.640368 1_555
O1 Si7 1.649615 1_565
O2 Si0 1.649762 1_555
O3 Si0 1.648073 1_555
O4 Si2 1.659150 1_455
O5 Si2 1.659088 1_555
O6 Si1 1.654899 1_555
O7 Si1 1.655937 1_455
O8 Si3 1.581424 1_555
O9 Si5 1.646204 1_555
O9 Si2 1.658690 1_555
O10 Si4 1.663239 1_555
O11 Si4 1.661825 1_555
O12 Si3 1.662480 1_555
O13 Si3 1.659464 1_555
O14 Si6 1.671416 1_455
O15 Si6 1.670935 1_555
O16 Si7 1.624120 1_555
O16 Si3 1.641824 1_555
O17 Si6 1.597647 1_555
O18 Si5 1.630320 1_555
O18 Si1 1.661965 1_545
O19 Si8 1.634956 1_555
O19 Si4 1.641092 1_555
O20 Si5 1.644867 1_455
O21 Si5 1.646099 1_555
O22 Si8 1.648278 1_555
O23 Si8 1.648019 1_555
O24 Si7 1.634379 1_555
O25 Si7 1.634531 1_555
O26 Si6 1.602334 1_555
O27 Si8 1.636605 1_555
O27 Si0 1.650051 1_554
O34 Si4 1.589647 1_545
O35 Si2 1.606102 1_554
