# generated using pymatgen
data_Na3Ca7Ta3Ti7O30
_symmetry_space_group_name_H-M   'P 1'
_cell_length_a   5.45653800
_cell_length_b   5.54607348
_cell_length_c   38.66733393
_cell_angle_alpha   90.05648916
_cell_angle_beta   90.01897396
_cell_angle_gamma   90.08054984
_symmetry_Int_Tables_number   1
_chemical_formula_structural   Na3Ca7Ta3Ti7O30
_chemical_formula_sum   'Na6 Ca14 Ta6 Ti14 O60'
_cell_volume   1170.16301687
_cell_formula_units_Z   2
loop_
 _symmetry_equiv_pos_site_id
 _symmetry_equiv_pos_as_xyz
  1  'x, y, z'
loop_
 _atom_site_type_symbol
 _atom_site_label
 _atom_site_symmetry_multiplicity
 _atom_site_fract_x
 _atom_site_fract_y
 _atom_site_fract_z
 _atom_site_occupancy
  Na  Na0  1  0.00888700  0.96286300  0.34861100  1
  Na  Na1  1  0.01722400  0.96629500  0.74757000  1
  Na  Na2  1  0.00760000  0.97964100  0.95070200  1
  Na  Na3  1  0.48428800  0.46505500  0.14822000  1
  Na  Na4  1  0.49054500  0.47087100  0.54717500  1
  Na  Na5  1  0.49046200  0.48609100  0.95133100  1
  Ca  Ca0  1  0.00616700  0.95114600  0.14832300  1
  Ca  Ca1  1  0.00799200  0.95415500  0.54749400  1
  Ca  Ca2  1  0.48498200  0.45930100  0.34766600  1
  Ca  Ca3  1  0.50188900  0.46421400  0.74675900  1
  Ca  Ca4  1  0.50443000  0.54135700  0.05223200  1
  Ca  Ca5  1  0.50375300  0.53789000  0.25228000  1
  Ca  Ca6  1  0.51691000  0.54206300  0.65139400  1
  Ca  Ca7  1  0.50516700  0.53143400  0.45186600  1
  Ca  Ca8  1  0.51209400  0.53741500  0.85030100  1
  Ca  Ca9  1  0.98359400  0.04705200  0.05161300  1
  Ca  Ca10  1  0.98602800  0.04929700  0.25214600  1
  Ca  Ca11  1  0.98746400  0.03835200  0.45198200  1
  Ca  Ca12  1  0.99565300  0.04754300  0.65150300  1
  Ca  Ca13  1  0.99172300  0.05203900  0.85042900  1
  Ta  Ta0  1  0.49245300  0.01039200  0.00073700  1
  Ta  Ta1  1  0.49754700  0.00034300  0.19975900  1
  Ta  Ta2  1  0.49917700  0.99494900  0.39925100  1
  Ta  Ta3  1  0.50278400  0.00710500  0.59918700  1
  Ta  Ta4  1  0.49608000  0.00633100  0.90107100  1
  Ta  Ta5  1  0.50151800  0.00146300  0.79811400  1
  Ti  Ti0  1  0.00283000  0.51316800  0.00012500  1
  Ti  Ti1  1  0.98351200  0.49988000  0.09991200  1
  Ti  Ti2  1  0.99748700  0.49783700  0.19905800  1
  Ti  Ti3  1  0.98709300  0.51134800  0.29947200  1
  Ti  Ti4  1  0.99685300  0.49914100  0.39906600  1
  Ti  Ti5  1  0.98736900  0.49703800  0.49958000  1
  Ti  Ti6  1  0.00944900  0.50312100  0.59891300  1
  Ti  Ti7  1  0.01887000  0.50108900  0.70094500  1
  Ti  Ti8  1  0.00671900  0.50816700  0.80010800  1
  Ti  Ti9  1  0.99996300  0.51082000  0.90293100  1
  Ti  Ti10  1  0.48050100  0.99832600  0.10159000  1
  Ti  Ti11  1  0.48306600  0.00103400  0.30096900  1
  Ti  Ti12  1  0.48423700  0.99655300  0.50047100  1
  Ti  Ti13  1  0.51435500  0.00233600  0.69888800  1
  O  O0  1  0.07861000  0.48259300  0.05035500  1
  O  O1  1  0.08012900  0.48160900  0.24989800  1
  O  O2  1  0.08146500  0.48108800  0.44980400  1
  O  O3  1  0.08161300  0.48136600  0.64920800  1
  O  O4  1  0.08255600  0.48180900  0.84866900  1
  O  O5  1  0.20289300  0.20474600  0.19264000  1
  O  O6  1  0.20980800  0.20692500  0.10738800  1
  O  O7  1  0.22602600  0.21865200  0.30702100  1
  O  O8  1  0.22268200  0.21728500  0.39237900  1
  O  O9  1  0.21411700  0.20970900  0.50673000  1
  O  O10  1  0.19929000  0.20033600  0.59232500  1
  O  O11  1  0.21971500  0.21951800  0.70667700  1
  O  O12  1  0.21537200  0.20832800  0.79260300  1
  O  O13  1  0.20961500  0.21213300  0.90575800  1
  O  O14  1  0.20829200  0.21424000  0.99398600  1
  O  O15  1  0.28664100  0.71207200  0.19242400  1
  O  O16  1  0.29463500  0.71209300  0.30714600  1
  O  O17  1  0.28741300  0.71914900  0.10774400  1
  O  O18  1  0.29644700  0.70404800  0.39180300  1
  O  O19  1  0.28479300  0.71272000  0.59182900  1
  O  O20  1  0.28151000  0.72294900  0.50702800  1
  O  O21  1  0.29020200  0.71184600  0.70706100  1
  O  O22  1  0.28497100  0.71163800  0.90656500  1
  O  O23  1  0.30270000  0.69969500  0.79177900  1
  O  O24  1  0.28140000  0.71374200  0.99390200  1
  O  O25  1  0.41662600  0.98050200  0.05084700  1
  O  O26  1  0.41956100  0.98050000  0.25024500  1
  O  O27  1  0.41798300  0.97858500  0.64987300  1
  O  O28  1  0.41932700  0.97806300  0.44976900  1
  O  O29  1  0.41716800  0.97679000  0.84954000  1
  O  O30  1  0.58089700  0.01976000  0.34972900  1
  O  O31  1  0.58260400  0.02129100  0.15014600  1
  O  O32  1  0.58164200  0.01958400  0.54963500  1
  O  O33  1  0.58014400  0.01821800  0.74921200  1
  O  O34  1  0.57529200  0.01321900  0.95047300  1
  O  O35  1  0.71437000  0.28048000  0.01008800  1
  O  O36  1  0.71813600  0.28455600  0.09103300  1
  O  O37  1  0.71894500  0.28628600  0.29212200  1
  O  O38  1  0.71180300  0.28677300  0.21036800  1
  O  O39  1  0.71095100  0.28521600  0.60997300  1
  O  O40  1  0.71991000  0.28169600  0.40922600  1
  O  O41  1  0.72178100  0.27707900  0.49058300  1
  O  O42  1  0.71819100  0.27708600  0.89024800  1
  O  O43  1  0.71242400  0.28299800  0.69175900  1
  O  O44  1  0.71531900  0.28468800  0.80871300  1
  O  O45  1  0.77686100  0.77766100  0.00996200  1
  O  O46  1  0.78984200  0.78573500  0.09249300  1
  O  O47  1  0.79257900  0.79067600  0.20837900  1
  O  O48  1  0.79038700  0.78120200  0.40961900  1
  O  O49  1  0.78820900  0.78721100  0.60808100  1
  O  O50  1  0.78721400  0.78121500  0.29088600  1
  O  O51  1  0.78338000  0.77943100  0.49208300  1
  O  O52  1  0.77967100  0.78239200  0.69059700  1
  O  O53  1  0.79117900  0.78376100  0.80944800  1
  O  O54  1  0.77933800  0.77744300  0.89046200  1
  O  O55  1  0.92866600  0.51613800  0.15084100  1
  O  O56  1  0.92332700  0.51398800  0.35067700  1
  O  O57  1  0.93068600  0.51483300  0.55022100  1
  O  O58  1  0.92701500  0.51454800  0.75014400  1
  O  O59  1  0.92696500  0.51559500  0.95005300  1
loop_
_geom_bond_atom_site_label_1
_geom_bond_atom_site_label_2
_geom_bond_distance
_geom_bond_site_symmetry_2
Na0 O30 2.357411 1_465
Na0 O7 2.450219 1_565
Na0 O8 2.491084 1_565
Na0 O56 2.533588 1_455
Na0 O16 2.634282 1_555
Na0 O18 2.705741 1_555
Na0 O50 2.729555 1_455
Na0 O48 2.829252 1_455
Na1 O11 2.386329 1_565
Na1 O33 2.403520 1_465
Na1 O12 2.448074 1_565
Na1 O58 2.554680 1_455
Na1 O21 2.582005 1_555
Na1 O23 2.746737 1_555
Na1 O52 2.750200 1_455
Na1 O53 2.876492 1_455
Na2 O34 2.366520 1_465
Na2 O14 2.384063 1_565
Na2 O13 2.428896 1_565
Na2 O59 2.610458 1_455
Na2 O24 2.684491 1_555
Na2 O22 2.723167 1_555
Na2 O45 2.844934 1_456
Na2 O54 2.867683 1_455
Na3 O17 2.365791 1_555
Na3 O15 2.441766 1_555
Na3 O55 2.442923 1_555
Na3 O31 2.520840 1_555
Na3 O6 2.602576 1_555
Na3 O5 2.718896 1_555
Na3 O36 2.742463 1_555
Na3 O38 2.880951 1_555
Na4 O20 2.381801 1_555
Na4 O57 2.416471 1_555
Na4 O19 2.458014 1_555
Na4 O32 2.554296 1_555
Na4 O9 2.608952 1_555
Na4 O41 2.745298 1_555
Na4 O10 2.797345 1_555
Na4 O39 2.899888 1_555
Na5 O24 2.367755 1_555
Na5 O59 2.387711 1_555
Na5 O22 2.413550 1_555
Na5 O34 2.663935 1_555
Na5 O14 2.713705 1_555
Na5 O13 2.783639 1_555
Na5 O35 2.821725 1_556
Na5 O42 2.909807 1_555
Na5 O34 2.959485 1_565
Ca0 O31 2.345311 1_465
Ca0 O6 2.398669 1_565
Ca0 O55 2.450818 1_455
Ca0 O5 2.461048 1_565
Ca0 O17 2.544759 1_555
Ca0 O46 2.624246 1_455
Ca0 O15 2.648890 1_555
Ca0 O47 2.746985 1_455
Ca1 O32 2.356499 1_465
Ca1 O9 2.399881 1_565
Ca1 O10 2.439027 1_565
Ca1 O57 2.474528 1_455
Ca1 O20 2.514556 1_555
Ca1 O19 2.649826 1_555
Ca1 O51 2.650032 1_455
Ca1 O49 2.790503 1_455
Ca2 O16 2.346612 1_555
Ca2 O18 2.411229 1_555
Ca2 O56 2.413334 1_555
Ca2 O30 2.495341 1_555
Ca2 O7 2.497401 1_555
Ca2 O8 2.615359 1_555
Ca2 O37 2.676658 1_555
Ca2 O40 2.878501 1_555
Ca3 O58 2.339669 1_555
Ca3 O21 2.363072 1_555
Ca3 O23 2.432713 1_555
Ca3 O33 2.512582 1_555
Ca3 O11 2.569602 1_555
Ca3 O43 2.617889 1_555
Ca3 O12 2.757012 1_555
Ca3 O44 2.844751 1_555
Ca4 O0 2.346884 1_555
Ca4 O36 2.376331 1_555
Ca4 O35 2.462206 1_555
Ca4 O25 2.483494 1_555
Ca4 O45 2.568887 1_555
Ca4 O46 2.583447 1_555
Ca4 O17 2.642497 1_555
Ca4 O24 2.736403 1_554
Ca5 O1 2.333841 1_555
Ca5 O37 2.388929 1_555
Ca5 O38 2.419926 1_555
Ca5 O26 2.499310 1_555
Ca5 O50 2.535849 1_555
Ca5 O16 2.595567 1_555
Ca5 O47 2.707608 1_555
Ca5 O15 2.774755 1_555
Ca6 O43 2.376184 1_555
Ca6 O39 2.390886 1_555
Ca6 O3 2.399932 1_555
Ca6 O52 2.473730 1_555
Ca6 O27 2.481922 1_555
Ca6 O49 2.616372 1_555
Ca6 O21 2.655411 1_555
Ca6 O19 2.794734 1_555
Ca7 O2 2.329686 1_555
Ca7 O41 2.374019 1_555
Ca7 O40 2.451777 1_555
Ca7 O28 2.522957 1_555
Ca7 O51 2.569621 1_555
Ca7 O48 2.647573 1_555
Ca7 O20 2.677310 1_555
Ca7 O18 2.759192 1_555
Ca8 O4 2.364376 1_555
Ca8 O42 2.396451 1_555
Ca8 O44 2.404445 1_555
Ca8 O29 2.492160 1_555
Ca8 O54 2.509796 1_555
Ca8 O53 2.584775 1_555
Ca8 O22 2.683966 1_555
Ca8 O23 2.690976 1_555
Ca9 O46 2.391259 1_545
Ca9 O25 2.392210 1_645
Ca9 O45 2.467355 1_545
Ca9 O0 2.470372 1_655
Ca9 O36 2.481816 1_555
Ca9 O35 2.533791 1_555
Ca9 O6 2.636741 1_655
Ca9 O14 2.707573 1_654
Ca10 O50 2.373248 1_545
Ca10 O26 2.397832 1_645
Ca10 O1 2.452923 1_655
Ca10 O47 2.454659 1_545
Ca10 O37 2.498733 1_555
Ca10 O38 2.567374 1_555
Ca10 O7 2.662752 1_655
Ca10 O5 2.727766 1_655
Ca11 O28 2.382100 1_645
Ca11 O51 2.389051 1_545
Ca11 O48 2.421473 1_545
Ca11 O41 2.466862 1_555
Ca11 O2 2.509241 1_655
Ca11 O40 2.587355 1_555
Ca11 O9 2.627778 1_655
Ca11 O8 2.818971 1_655
Ca12 O27 2.337370 1_645
Ca12 O52 2.416032 1_545
Ca12 O3 2.452358 1_655
Ca12 O49 2.484819 1_545
Ca12 O43 2.553409 1_555
Ca12 O39 2.595746 1_555
Ca12 O11 2.635712 1_655
Ca12 O10 2.681739 1_655
Ca13 O29 2.359505 1_645
Ca13 O53 2.431444 1_545
Ca13 O4 2.434861 1_655
Ca13 O54 2.461588 1_545
Ca13 O42 2.481758 1_555
Ca13 O44 2.559184 1_555
Ca13 O13 2.602050 1_655
Ca13 O12 2.691250 1_655
O0 Ti1 1.987676 1_455
O0 Ti0 1.993094 1_555
O1 Ti3 1.989889 1_455
O1 Ti2 2.018880 1_455
O2 Ti5 1.994086 1_455
O2 Ti4 2.017960 1_455
O3 Ti6 1.987924 1_555
O3 Ti7 2.032592 1_555
O4 Ti8 1.928381 1_555
O4 Ti9 2.152083 1_455
O5 Ta1 1.987798 1_555
O5 Ti2 1.991122 1_455
O6 Ti10 1.890733 1_545
O6 Ti1 2.062625 1_455
O7 Ti11 1.866278 1_555
O7 Ti3 2.103982 1_455
O8 Ta2 1.967975 1_545
O8 Ti4 2.008405 1_455
O9 Ti12 1.906078 1_545
O9 Ti5 2.037849 1_455
O10 Ti6 1.990500 1_555
O10 Ta3 1.991625 1_555
O11 Ti7 1.922013 1_555
O11 Ti13 2.032571 1_555
O12 Ta5 1.950601 1_555
O12 Ti8 2.037247 1_555
O13 Ta4 1.945180 1_555
O13 Ti9 2.017512 1_455
O14 Ta0 1.937964 1_556
O14 Ti0 2.016537 1_556
O15 Ta1 1.988620 1_565
O15 Ti2 1.990608 1_455
O16 Ti11 1.917930 1_565
O16 Ti3 2.034066 1_455
O17 Ti10 1.886884 1_555
O17 Ti1 2.076927 1_455
O18 Ta2 1.975704 1_555
O18 Ti4 2.009589 1_455
O19 Ti6 1.918227 1_555
O19 Ta3 2.038344 1_565
O20 Ti12 1.893871 1_555
O20 Ti5 2.054768 1_455
O21 Ti7 1.899613 1_555
O21 Ti13 2.046250 1_565
O22 Ti9 1.916606 1_455
O22 Ta4 2.009687 1_565
O23 Ti8 1.958718 1_555
O23 Ta5 2.007949 1_565
O24 Ti0 1.897849 1_556
O24 Ta0 2.023984 1_566
O25 Ta0 1.988471 1_565
O25 Ti10 1.995029 1_555
O26 Ti11 1.994739 1_565
O26 Ta1 2.001239 1_565
O27 Ti13 1.970942 1_565
O27 Ta3 2.020226 1_565
O28 Ti12 1.994645 1_555
O28 Ta2 2.003790 1_555
O29 Ta4 2.044788 1_565
O29 Ta5 2.045895 1_565
O30 Ti11 1.961975 1_555
O30 Ta2 1.971157 1_545
O31 Ti10 1.962237 1_545
O31 Ta1 1.977384 1_555
O32 Ta3 1.965169 1_555
O32 Ti12 1.977731 1_545
O33 Ta5 1.941394 1_555
O33 Ti13 1.980465 1_555
O34 Ta4 1.958716 1_555
O34 Ta0 1.995662 1_556
O35 Ta0 1.958148 1_555
O35 Ti0 2.070492 1_655
O36 Ti1 1.906514 1_555
O36 Ti10 2.088976 1_545
O37 Ti3 1.942557 1_555
O37 Ti11 2.066895 1_555
O38 Ti2 1.996956 1_555
O38 Ta1 2.012901 1_555
O39 Ta3 1.958752 1_555
O39 Ti6 2.071770 1_655
O40 Ti4 1.971921 1_555
O40 Ta2 2.030186 1_545
O41 Ti5 1.924375 1_555
O41 Ti12 2.059766 1_545
O42 Ta4 1.973657 1_555
O42 Ti9 2.068204 1_555
O43 Ti13 1.913971 1_555
O43 Ti7 2.092434 1_655
O44 Ta5 1.997394 1_555
O44 Ti8 2.042238 1_655
O45 Ti0 1.954757 1_655
O45 Ta0 2.051285 1_565
O46 Ti1 1.928177 1_555
O46 Ti10 2.090015 1_555
O47 Ti2 2.005483 1_555
O47 Ta1 2.015085 1_565
O48 Ti4 1.971509 1_555
O48 Ta2 2.024045 1_555
O49 Ta3 2.009223 1_565
O49 Ti6 2.017426 1_655
O50 Ti3 1.882865 1_555
O50 Ti11 2.097076 1_565
O51 Ti5 1.944594 1_555
O51 Ti12 2.055406 1_555
O52 Ti13 1.921226 1_565
O52 Ti7 2.074670 1_655
O53 Ti8 1.963186 1_655
O53 Ta5 2.038121 1_565
O54 Ti9 1.968331 1_555
O54 Ta4 2.042926 1_565
O55 Ti2 1.904576 1_555
O55 Ti1 1.993967 1_555
O56 Ti4 1.915347 1_555
O56 Ti3 2.010457 1_555
O57 Ti6 1.932254 1_655
O57 Ti5 1.984910 1_555
O58 Ti7 1.968843 1_655
O58 Ti8 1.980542 1_655
O59 Ti9 1.865410 1_555
O59 Ti0 1.979838 1_656
