# generated using pymatgen
data_CsK5Zn4Sn5S17
_symmetry_space_group_name_H-M   'P 1'
_cell_length_a   11.02066020
_cell_length_b   11.02066020
_cell_length_c   11.02066020
_cell_angle_alpha   101.16440848
_cell_angle_beta   101.16440848
_cell_angle_gamma   127.78861912
_symmetry_Int_Tables_number   1
_chemical_formula_structural   CsK5Zn4Sn5S17
_chemical_formula_sum   'Cs1 K5 Zn4 Sn5 S17'
_cell_volume   949.88400655
_cell_formula_units_Z   1
loop_
 _symmetry_equiv_pos_site_id
 _symmetry_equiv_pos_as_xyz
  1  'x, y, z'
loop_
 _atom_site_type_symbol
 _atom_site_label
 _atom_site_symmetry_multiplicity
 _atom_site_fract_x
 _atom_site_fract_y
 _atom_site_fract_z
 _atom_site_occupancy
  Cs  Cs0  1  0.75000000  0.25000000  0.50000000  1
  K  K0  1  0.76061900  0.76061900  0.52123800  1
  K  K1  1  0.76061900  0.23938100  0.00000000  1
  K  K2  1  0.23938100  0.23938100  0.47876200  1
  K  K3  1  0.50000000  0.50000000  0.00000000  1
  K  K4  1  0.23938100  0.76061900  0.00000000  1
  Zn  Zn0  1  0.27800400  0.13941600  0.13858800  1
  Zn  Zn1  1  0.86058400  0.72199600  0.86141200  1
  Zn  Zn2  1  0.00082900  0.13941600  0.86141200  1
  Zn  Zn3  1  0.86058400  0.99917100  0.13858800  1
  Sn  Sn0  1  0.22408700  0.44830000  0.22421300  1
  Sn  Sn1  1  0.25000000  0.75000000  0.50000000  1
  Sn  Sn2  1  0.22408700  0.99987500  0.77578700  1
  Sn  Sn3  1  0.55170000  0.77591300  0.77578700  1
  Sn  Sn4  1  0.00012500  0.77591300  0.22421300  1
  S  S0  1  0.13930800  0.14515300  0.72133500  1
  S  S1  1  0.99036400  0.27159500  0.28123100  1
  S  S2  1  0.85484700  0.57618200  0.99415500  1
  S  S3  1  0.42381800  0.14515300  0.00584500  1
  S  S4  1  0.85484700  0.86069200  0.27866500  1
  S  S5  1  0.99036400  0.70913200  0.71876900  1
  S  S6  1  0.72840500  0.00963600  0.71876900  1
  S  S7  1  0.39405500  0.75138900  0.35733400  1
  S  S8  1  0.96327900  0.60594500  0.35733400  1
  S  S9  1  0.42381800  0.41797300  0.27866500  1
  S  S10  1  0.39405500  0.03672100  0.64266600  1
  S  S11  1  0.24861100  0.60594500  0.64266600  1
  S  S12  1  0.13930800  0.41797300  0.99415500  1
  S  S13  1  0.58202700  0.86069200  0.00584500  1
  S  S14  1  0.29086800  0.00963600  0.28123100  1
  S  S15  1  0.00000000  0.00000000  0.00000000  1
  S  S16  1  0.58202700  0.57618200  0.72133500  1
loop_
_geom_bond_atom_site_label_1
_geom_bond_atom_site_label_2
_geom_bond_distance
_geom_bond_site_symmetry_2
Cs0 S5 3.848280 1_555
Cs0 S14 3.848280 1_555
Cs0 S1 3.848288 1_555
Cs0 S6 3.848288 1_555
Cs0 S11 3.988077 1_655
Cs0 S8 3.988077 1_555
Cs0 S7 3.988077 1_545
Cs0 S10 3.988077 1_555
K0 S9 3.202275 1_555
K0 S4 3.202275 1_555
K0 S16 3.373734 1_555
K0 S0 3.373734 1_665
K0 S6 3.402375 1_565
K0 S5 3.402384 1_555
K1 S3 3.202275 1_555
K1 S2 3.202275 1_554
K1 S13 3.373734 1_545
K1 S12 3.373734 1_654
K1 S1 3.402375 1_555
K1 S6 3.402375 1_554
K2 S0 3.202275 1_555
K2 S16 3.202275 1_555
K2 S4 3.373734 1_445
K2 S9 3.373734 1_555
K2 S1 3.402375 1_455
K2 S14 3.402384 1_555
K3 S2 3.478079 1_554
K3 S3 3.478079 1_555
K3 S4 3.478079 1_555
K3 S12 3.478079 1_554
K3 S9 3.478079 1_555
K3 S0 3.478079 1_554
K3 S16 3.478079 1_554
K3 S13 3.478079 1_555
K4 S12 3.202275 1_554
K4 S13 3.202275 1_555
K4 S2 3.373734 1_454
K4 S3 3.373734 1_565
K4 S14 3.402370 1_565
K4 S5 3.402370 1_454
S0 Zn2 2.355440 1_555
S0 Sn2 2.405127 1_545
S1 Zn3 2.360063 1_545
S1 Sn0 2.403194 1_655
S2 Zn1 2.355448 1_555
S2 Sn4 2.405138 1_656
S3 Zn0 2.355448 1_555
S3 Sn2 2.405138 1_544
S4 Zn3 2.355440 1_555
S4 Sn4 2.405127 1_655
S5 Zn1 2.360058 1_555
S5 Sn2 2.403208 1_655
S6 Zn2 2.360063 1_655
S6 Sn3 2.403194 1_545
S7 Sn1 2.436975 1_555
S7 Sn0 2.487705 1_555
S8 Sn1 2.436975 1_655
S8 Sn4 2.487707 1_655
S9 Zn0 2.355448 1_555
S9 Sn0 2.405137 1_555
S10 Sn1 2.436975 1_545
S10 Sn2 2.487707 1_545
S11 Sn1 2.436975 1_555
S11 Sn3 2.487705 1_555
S12 Zn2 2.355451 1_555
S12 Sn0 2.405137 1_556
S13 Zn3 2.355451 1_555
S13 Sn3 2.405137 1_554
S14 Zn0 2.360058 1_555
S14 Sn4 2.403208 1_545
S15 Zn2 2.364418 1_554
S15 Zn3 2.364418 1_445
S15 Zn1 2.364421 1_444
S15 Zn0 2.364421 1_555
S16 Zn1 2.355448 1_555
S16 Sn3 2.405137 1_555
