# generated using pymatgen
data_Zr6Co16Ge7
_symmetry_space_group_name_H-M   'P 1'
_cell_length_a   8.18104111
_cell_length_b   8.18106231
_cell_length_c   8.18104495
_cell_angle_alpha   59.99974719
_cell_angle_beta   59.99983345
_cell_angle_gamma   59.99988789
_symmetry_Int_Tables_number   1
_chemical_formula_structural   Zr6Co16Ge7
_chemical_formula_sum   'Zr6 Co16 Ge7'
_cell_volume   387.17767911
_cell_formula_units_Z   1
loop_
 _symmetry_equiv_pos_site_id
 _symmetry_equiv_pos_as_xyz
  1  'x, y, z'
loop_
 _atom_site_type_symbol
 _atom_site_label
 _atom_site_symmetry_multiplicity
 _atom_site_fract_x
 _atom_site_fract_y
 _atom_site_fract_z
 _atom_site_occupancy
  Zr  Zr0  1  0.70930874  0.29069176  0.29068706  1
  Zr  Zr1  1  0.29068498  0.29068405  0.70931085  1
  Zr  Zr2  1  0.29068505  0.70931807  0.70931580  1
  Zr  Zr3  1  0.70931531  0.70931136  0.29068599  1
  Zr  Zr4  1  0.29069038  0.70930890  0.29068405  1
  Zr  Zr5  1  0.70931840  0.29068679  0.70931074  1
  Co  Co0  1  0.12055357  0.12055029  0.63833999  1
  Co  Co1  1  0.67404422  0.97788377  0.67403761  1
  Co  Co2  1  0.36169898  0.87943240  0.87943606  1
  Co  Co3  1  0.02208338  0.32597042  0.32597534  1
  Co  Co4  1  0.97788398  0.67404217  0.67403644  1
  Co  Co5  1  0.32597525  0.32597196  0.02207851  1
  Co  Co6  1  0.67403535  0.67404148  0.97788699  1
  Co  Co7  1  0.63834306  0.12054893  0.12055530  1
  Co  Co8  1  0.67404037  0.67403655  0.67402901  1
  Co  Co9  1  0.87943560  0.87943571  0.36169476  1
  Co  Co10  1  0.12054913  0.12054841  0.12055652  1
  Co  Co11  1  0.87943193  0.36169665  0.87943695  1
  Co  Co12  1  0.87943337  0.87943733  0.87943558  1
  Co  Co13  1  0.32598108  0.32597188  0.32597055  1
  Co  Co14  1  0.12054963  0.63834416  0.12055373  1
  Co  Co15  1  0.32597564  0.02208217  0.32596862  1
  Ge  Ge0  1  -0.00004003  0.50004072  -0.00003252  1
  Ge  Ge1  1  -0.00004223  -0.00003760  0.50004151  1
  Ge  Ge2  1  -0.00000169  -0.00000043  0.99999694  1
  Ge  Ge3  1  0.50003110  0.50003383  -0.00003042  1
  Ge  Ge4  1  0.50003806  -0.00003558  0.50003514  1
  Ge  Ge5  1  0.50003766  -0.00003688  -0.00003314  1
  Ge  Ge6  1  -0.00003923  0.50003972  0.50003507  1
loop_
_geom_bond_atom_site_label_1
_geom_bond_atom_site_label_2
_geom_bond_distance
_geom_bond_site_symmetry_2
Co0 Ge2 2.415787 1_555
Co0 Co3 2.532558 1_555
Co0 Co15 2.532600 1_555
Co0 Co13 2.532627 1_555
Co0 Ge1 2.536247 1_555
Co0 Ge4 2.536254 1_555
Co0 Ge6 2.536291 1_555
Co0 Zr2 2.786585 1_545
Co0 Zr5 2.786606 1_455
Co0 Zr1 2.786621 1_555
Co0 Co12 2.789653 1_445
Co0 Co2 2.789701 1_545
Co0 Co11 2.789718 1_455
Co1 Ge1 2.365834 1_665
Co1 Ge4 2.365947 1_565
Co1 Ge5 2.365948 1_566
Co1 Co4 2.485732 1_555
Co1 Co6 2.485770 1_555
Co1 Co8 2.485844 1_555
Co1 Co12 2.532302 1_555
Co1 Co9 2.532324 1_555
Co1 Co2 2.532350 1_555
Co1 Zr5 2.876733 1_565
Co1 Zr0 2.876734 1_565
Co1 Zr1 2.876757 1_565
Co2 Ge2 2.416082 1_565
Co2 Co6 2.532289 1_555
Co2 Co8 2.532368 1_555
Co2 Ge3 2.535698 1_556
Co2 Ge4 2.535709 1_565
Co2 Ge5 2.535716 1_566
Co2 Zr4 2.786647 1_556
Co2 Zr2 2.786659 1_555
Co2 Zr1 2.786673 1_565
Co3 Ge6 2.366623 1_555
Co3 Ge0 2.366624 1_555
Co3 Ge1 2.366636 1_555
Co3 Co5 2.486166 1_555
Co3 Zr5 2.876522 1_455
Co3 Zr3 2.876566 1_455
Co3 Zr0 2.876592 1_455
Co4 Ge1 2.365871 1_665
Co4 Ge6 2.365934 1_655
Co4 Ge0 2.365949 1_656
Co4 Co6 2.485800 1_555
Co4 Co8 2.485810 1_555
Co4 Co9 2.532313 1_555
Co4 Zr4 2.876739 1_655
Co4 Zr2 2.876749 1_655
Co4 Zr1 2.876756 1_655
Co5 Ge3 2.366599 1_555
Co5 Ge5 2.366607 1_555
Co5 Ge0 2.366644 1_555
Co5 Co7 2.532607 1_555
Co5 Zr2 2.876569 1_554
Co5 Zr5 2.876570 1_554
Co5 Zr1 2.876592 1_554
Co6 Ge5 2.365902 1_566
Co6 Ge0 2.365918 1_656
Co6 Ge3 2.365964 1_556
Co6 Co8 2.485875 1_555
Co6 Zr4 2.876673 1_556
Co6 Zr0 2.876707 1_556
Co6 Zr3 2.876708 1_556
Co7 Ge2 2.415778 1_654
Co7 Ge4 2.536221 1_555
Co7 Ge5 2.536232 1_555
Co7 Ge3 2.536263 1_555
Co7 Zr3 2.786625 1_545
Co7 Zr0 2.786658 1_555
Co7 Zr5 2.786663 1_554
Co7 Co9 2.789646 1_545
Co8 Ge6 2.365861 1_655
Co8 Ge4 2.365907 1_565
Co8 Ge3 2.366002 1_556
Co8 Co9 2.532307 1_555
Co8 Zr3 2.876657 1_555
Co8 Zr5 2.876686 1_555
Co8 Zr2 2.876696 1_555
Co9 Ge2 2.416060 1_664
Co9 Ge6 2.535683 1_655
Co9 Ge1 2.535687 1_665
Co9 Ge4 2.535689 1_565
Co9 Zr4 2.786695 1_655
Co9 Zr3 2.786698 1_555
Co9 Zr0 2.786714 1_565
Co10 Ge2 2.415814 1_554
Co10 Co15 2.532599 1_555
Co10 Co3 2.532622 1_555
Co10 Co5 2.532643 1_555
Co10 Ge1 2.536256 1_555
Co10 Ge5 2.536283 1_555
Co10 Ge0 2.536313 1_555
Co10 Zr4 2.786638 1_545
Co10 Zr0 2.786647 1_455
Co10 Zr1 2.786671 1_554
Co10 Co9 2.789613 1_445
Co10 Co11 2.789673 1_454
Co10 Co2 2.789679 1_544
Co11 Ge2 2.416062 1_655
Co11 Co8 2.532346 1_555
Co11 Co6 2.532350 1_555
Co11 Co4 2.532357 1_555
Co11 Ge3 2.535710 1_556
Co11 Ge6 2.535716 1_655
Co11 Ge0 2.535733 1_656
Co11 Zr0 2.786668 1_556
Co11 Zr5 2.786668 1_555
Co11 Zr1 2.786680 1_655
Co11 Co7 2.789673 1_556
Co12 Ge2 2.416010 1_665
Co12 Co6 2.532337 1_555
Co12 Co4 2.532346 1_555
Co12 Ge1 2.535665 1_665
Co12 Ge5 2.535677 1_566
Co12 Ge0 2.535687 1_656
Co12 Zr5 2.786662 1_565
Co12 Zr3 2.786665 1_556
Co12 Zr2 2.786671 1_655
Co12 Co7 2.789649 1_566
Co12 Co14 2.789660 1_656
Co13 Ge3 2.366539 1_555
Co13 Ge4 2.366597 1_555
Co13 Ge6 2.366683 1_555
Co13 Co15 2.486171 1_555
Co13 Co5 2.486178 1_555
Co13 Co3 2.486186 1_555
Co13 Co7 2.532568 1_555
Co13 Co14 2.532634 1_555
Co13 Zr0 2.876487 1_555
Co13 Zr1 2.876525 1_555
Co13 Zr4 2.876527 1_555
Co14 Ge2 2.415784 1_564
Co14 Co3 2.532608 1_555
Co14 Co5 2.532639 1_555
Co14 Ge0 2.536230 1_555
Co14 Ge6 2.536231 1_555
Co14 Ge3 2.536236 1_555
Co14 Zr3 2.786603 1_455
Co14 Zr2 2.786620 1_554
Co14 Zr4 2.786626 1_555
Co14 Co9 2.789656 1_455
Co14 Co2 2.789679 1_554
Co15 Ge5 2.366571 1_555
Co15 Ge4 2.366638 1_555
Co15 Ge1 2.366685 1_555
Co15 Co5 2.486130 1_555
Co15 Co3 2.486138 1_555
Co15 Co7 2.532563 1_555
Co15 Zr3 2.876567 1_545
Co15 Zr2 2.876576 1_545
Co15 Zr4 2.876602 1_545
Ge0 Zr3 2.930430 1_455
Ge0 Zr0 2.930483 1_455
Ge0 Zr2 2.930499 1_554
Ge0 Zr1 2.930562 1_554
Ge1 Zr5 2.930454 1_455
Ge1 Zr2 2.930492 1_545
Ge1 Zr0 2.930507 1_455
Ge1 Zr4 2.930557 1_545
Ge3 Zr4 2.930434 1_555
Ge3 Zr0 2.930461 1_555
Ge3 Zr2 2.930482 1_554
Ge3 Zr5 2.930526 1_554
Ge4 Zr1 2.930463 1_555
Ge4 Zr2 2.930478 1_545
Ge4 Zr0 2.930483 1_555
Ge4 Zr3 2.930511 1_545
Ge5 Zr3 2.930467 1_545
Ge5 Zr4 2.930491 1_545
Ge5 Zr5 2.930513 1_554
Ge5 Zr1 2.930530 1_554
Ge6 Zr5 2.930455 1_455
Ge6 Zr3 2.930456 1_455
Ge6 Zr1 2.930483 1_555
Ge6 Zr4 2.930486 1_555
