# generated using pymatgen
data_NaTeH6O6F
_symmetry_space_group_name_H-M   'P 1'
_cell_length_a   5.70912742
_cell_length_b   5.70912742
_cell_length_c   5.70912816
_cell_angle_alpha   64.62446311
_cell_angle_beta   64.62446311
_cell_angle_gamma   64.62446836
_symmetry_Int_Tables_number   1
_chemical_formula_structural   NaTeH6O6F
_chemical_formula_sum   'Na1 Te1 H6 O6 F1'
_cell_volume   144.91237523
_cell_formula_units_Z   1
loop_
 _symmetry_equiv_pos_site_id
 _symmetry_equiv_pos_as_xyz
  1  'x, y, z'
loop_
 _atom_site_type_symbol
 _atom_site_label
 _atom_site_symmetry_multiplicity
 _atom_site_fract_x
 _atom_site_fract_y
 _atom_site_fract_z
 _atom_site_occupancy
  Na  Na0  1  0.62378200  0.62378200  0.62378200  1
  Te  Te0  1  0.99718200  0.99718200  0.99718200  1
  H  H0  1  0.04496300  0.98352400  0.54478000  1
  H  H1  1  0.98352400  0.54478000  0.04496300  1
  H  H2  1  0.54478000  0.04496300  0.98352400  1
  H  H3  1  0.67936700  0.20118000  0.38219100  1
  H  H4  1  0.20118000  0.38219100  0.67936700  1
  H  H5  1  0.38219100  0.67936700  0.20118000  1
  O  O0  1  0.17643700  0.93520500  0.64306000  1
  O  O1  1  0.93520400  0.64306000  0.17643700  1
  O  O2  1  0.64306000  0.17643700  0.93520500  1
  O  O3  1  0.84229900  0.02899400  0.36607500  1
  O  O4  1  0.02899400  0.36607500  0.84229900  1
  O  O5  1  0.36607500  0.84229900  0.02899400  1
  F  F0  1  0.44386300  0.44386300  0.44386300  1
loop_
_geom_bond_atom_site_label_1
_geom_bond_atom_site_label_2
_geom_bond_distance
_geom_bond_site_symmetry_2
Na0 O1 2.393901 1_555
Na0 O2 2.393903 1_555
Na0 O0 2.393903 1_555
Na0 O3 2.656323 1_565
Na0 O4 2.656323 1_655
Na0 O5 2.656323 1_556
H0 O0 1.002579 1_555
H1 O1 1.002578 1_555
H2 O2 1.002579 1_555
H3 O3 1.029811 1_555
H4 O4 1.029811 1_555
H5 O5 1.029811 1_555
O0 Te0 1.946619 1_455
O1 Te0 1.946621 1_554
O2 Te0 1.946619 1_545
O3 Te0 1.960713 1_544
O4 Te0 1.960713 1_445
O5 Te0 1.960713 1_454
F0 H4 1.505679 1_555
F0 H3 1.505679 1_555
F0 H5 1.505679 1_555
F0 Na0 2.424515 1_555
