# generated using pymatgen
data_AlSiHO4
_symmetry_space_group_name_H-M   'P 1'
_cell_length_a   4.40730700
_cell_length_b   7.07360500
_cell_length_c   9.28883328
_cell_angle_alpha   50.07367649
_cell_angle_beta   90.00000000
_cell_angle_gamma   90.00000000
_symmetry_Int_Tables_number   1
_chemical_formula_structural   AlSiHO4
_chemical_formula_sum   'Al4 Si4 H4 O16'
_cell_volume   222.07375344
_cell_formula_units_Z   4
loop_
 _symmetry_equiv_pos_site_id
 _symmetry_equiv_pos_as_xyz
  1  'x, y, z'
loop_
 _atom_site_type_symbol
 _atom_site_label
 _atom_site_symmetry_multiplicity
 _atom_site_fract_x
 _atom_site_fract_y
 _atom_site_fract_z
 _atom_site_occupancy
  Al  Al0  1  0.47306200  0.64089300  0.56430600  1
  Al  Al1  1  0.02693800  0.64089300  0.06430600  1
  Al  Al2  1  0.52693800  0.35910700  0.43569400  1
  Al  Al3  1  0.97306200  0.35910700  0.93569400  1
  Si  Si0  1  0.47700300  0.90638900  0.18047600  1
  Si  Si1  1  0.02299700  0.90638900  0.68047600  1
  Si  Si2  1  0.52299700  0.09361100  0.81952400  1
  Si  Si3  1  0.97700300  0.09361100  0.31952400  1
  H  H0  1  0.96631600  0.63824800  0.31275200  1
  H  H1  1  0.53368400  0.63824800  0.81275200  1
  H  H2  1  0.03368400  0.36175200  0.68724800  1
  H  H3  1  0.46631600  0.36175200  0.18724800  1
  O  O0  1  0.29556400  0.10748700  0.65313700  1
  O  O1  1  0.20443600  0.10748700  0.15313700  1
  O  O2  1  0.70443600  0.89251300  0.34686300  1
  O  O3  1  0.79556400  0.89251300  0.84686300  1
  O  O4  1  0.30942100  0.87439600  0.02039300  1
  O  O5  1  0.19057900  0.87439600  0.52039300  1
  O  O6  1  0.69057900  0.12560400  0.97960700  1
  O  O7  1  0.80942100  0.12560400  0.47960700  1
  O  O8  1  0.30508600  0.63796800  0.37557000  1
  O  O9  1  0.19491400  0.63796800  0.87557000  1
  O  O10  1  0.69491400  0.36203200  0.62443000  1
  O  O11  1  0.80508600  0.36203200  0.12443000  1
  O  O12  1  0.29660800  0.36984800  0.25794000  1
  O  O13  1  0.20339200  0.36984800  0.75794000  1
  O  O14  1  0.70339200  0.63015200  0.74206000  1
  O  O15  1  0.79660800  0.63015200  0.24206000  1
loop_
_geom_bond_atom_site_label_1
_geom_bond_atom_site_label_2
_geom_bond_distance
_geom_bond_site_symmetry_2
Al0 O5 1.892013 1_555
Al0 O14 1.897753 1_555
Al0 O8 1.915347 1_555
Al0 O2 1.916464 1_555
Al0 O10 1.935158 1_555
Al0 O13 1.974110 1_555
Al1 O4 1.892013 1_555
Al1 O15 1.897753 1_455
Al1 O9 1.915347 1_554
Al1 O3 1.916464 1_454
Al1 O11 1.935158 1_455
Al1 O12 1.974110 1_555
Al2 O7 1.892013 1_555
Al2 O12 1.897753 1_555
Al2 O10 1.915347 1_555
Al2 O0 1.916464 1_555
Al2 O8 1.935158 1_555
Al2 O15 1.974110 1_555
Al3 O6 1.892013 1_555
Al3 O13 1.897753 1_655
Al3 O11 1.915347 1_556
Al3 O1 1.916464 1_656
Al3 O9 1.935158 1_655
Al3 O14 1.974110 1_555
H0 O15 1.020868 1_555
H0 O8 1.602572 1_655
H1 O14 1.020868 1_555
H1 O9 1.602572 1_555
H2 O13 1.020868 1_555
H2 O10 1.602572 1_455
H3 O12 1.020868 1_555
H3 O11 1.602572 1_555
O0 Si1 1.751389 1_545
O0 Si2 1.791186 1_555
O1 Si0 1.751389 1_545
O1 Si3 1.791186 1_455
O2 Si3 1.751389 1_565
O2 Si0 1.791186 1_555
O3 Si2 1.751389 1_565
O3 Si1 1.791186 1_655
O4 Si2 1.748741 1_564
O4 Si0 1.799943 1_555
O5 Si3 1.748741 1_465
O5 Si1 1.799943 1_555
O6 Si0 1.748741 1_546
O6 Si2 1.799943 1_555
O7 Si1 1.748741 1_645
O7 Si3 1.799943 1_555
O8 Si0 1.745443 1_555
O9 Si1 1.745443 1_555
O10 Si2 1.745443 1_555
O11 Si3 1.745443 1_555
O12 Si3 2.166724 1_455
O13 Si2 2.166724 1_555
O14 Si1 2.166724 1_655
O15 Si0 2.166724 1_555
