# generated using pymatgen
data_KNaMg5(Si2O5)6
_symmetry_space_group_name_H-M   'P 1'
_cell_length_a   10.35252109
_cell_length_b   10.35252109
_cell_length_c   14.17783900
_cell_angle_alpha   90.00000000
_cell_angle_beta   90.00000000
_cell_angle_gamma   119.99999422
_symmetry_Int_Tables_number   1
_chemical_formula_structural   KNaMg5(Si2O5)6
_chemical_formula_sum   'K2 Na2 Mg10 Si24 O60'
_cell_volume   1315.93047769
_cell_formula_units_Z   2
loop_
 _symmetry_equiv_pos_site_id
 _symmetry_equiv_pos_as_xyz
  1  'x, y, z'
loop_
 _atom_site_type_symbol
 _atom_site_label
 _atom_site_symmetry_multiplicity
 _atom_site_fract_x
 _atom_site_fract_y
 _atom_site_fract_z
 _atom_site_occupancy
  K  K0  1  0.00000000  0.00000000  0.50000000  1
  K  K1  1  0.00000000  0.00000000  0.00000000  1
  Na  Na0  1  0.33333300  0.66666700  0.25000000  1
  Na  Na1  1  0.66666700  0.33333300  0.75000000  1
  Mg  Mg0  1  0.00000000  0.50458200  0.50000000  1
  Mg  Mg1  1  0.33333300  0.66666700  0.99483300  1
  Mg  Mg2  1  0.50458200  0.00000000  0.50000000  1
  Mg  Mg3  1  0.33333300  0.66666700  0.50516700  1
  Mg  Mg4  1  0.49541800  0.49541800  0.00000000  1
  Mg  Mg5  1  0.49541800  0.49541800  0.50000000  1
  Mg  Mg6  1  0.66666700  0.33333300  0.00516700  1
  Mg  Mg7  1  0.50458200  0.00000000  0.00000000  1
  Mg  Mg8  1  0.66666700  0.33333300  0.49483300  1
  Mg  Mg9  1  0.00000000  0.50458200  0.00000000  1
  Si  Si0  1  0.11502900  0.76892200  0.13600400  1
  Si  Si1  1  0.11502900  0.76892200  0.36399600  1
  Si  Si2  1  0.23365300  0.88674500  0.63634200  1
  Si  Si3  1  0.23365300  0.88674500  0.86365800  1
  Si  Si4  1  0.11325500  0.34690700  0.86365800  1
  Si  Si5  1  0.11325500  0.34690700  0.63634200  1
  Si  Si6  1  0.23107800  0.34610700  0.13600400  1
  Si  Si7  1  0.23107800  0.34610700  0.36399600  1
  Si  Si8  1  0.65389300  0.88497100  0.36399600  1
  Si  Si9  1  0.65389300  0.88497100  0.13600400  1
  Si  Si10  1  0.34610700  0.23107800  0.86399600  1
  Si  Si11  1  0.34610700  0.23107800  0.63600400  1
  Si  Si12  1  0.65309300  0.76634700  0.86365800  1
  Si  Si13  1  0.65309300  0.76634700  0.63634200  1
  Si  Si14  1  0.34690700  0.11325500  0.36365800  1
  Si  Si15  1  0.34690700  0.11325500  0.13634200  1
  Si  Si16  1  0.76634700  0.65309300  0.13634200  1
  Si  Si17  1  0.76634700  0.65309300  0.36365800  1
  Si  Si18  1  0.88497100  0.65389300  0.86399600  1
  Si  Si19  1  0.88497100  0.65389300  0.63600400  1
  Si  Si20  1  0.76892200  0.11502900  0.63600400  1
  Si  Si21  1  0.76892200  0.11502900  0.86399600  1
  Si  Si22  1  0.88674500  0.23365300  0.13634200  1
  Si  Si23  1  0.88674500  0.23365300  0.36365800  1
  O  O0  1  0.05746000  0.77670600  0.60809500  1
  O  O1  1  0.05746000  0.77670600  0.89190500  1
  O  O2  1  0.21284000  0.94473700  0.10519000  1
  O  O3  1  0.21284000  0.94473700  0.39481000  1
  O  O4  1  0.13639400  0.75860900  0.25000000  1
  O  O5  1  0.15980900  0.66002600  0.08224800  1
  O  O6  1  0.15980900  0.66002600  0.41775200  1
  O  O7  1  0.24754200  0.88294000  0.75000000  1
  O  O8  1  0.15242200  0.49601600  0.92076400  1
  O  O9  1  0.15242200  0.49601600  0.57923600  1
  O  O10  1  0.34359400  0.84757800  0.92076400  1
  O  O11  1  0.34359400  0.84757800  0.57923600  1
  O  O12  1  0.05526300  0.26810300  0.10519000  1
  O  O13  1  0.05526300  0.26810300  0.39481000  1
  O  O14  1  0.11706000  0.36460100  0.75000000  1
  O  O15  1  0.24139100  0.37778400  0.25000000  1
  O  O16  1  0.22329400  0.28075500  0.89190500  1
  O  O17  1  0.22329400  0.28075500  0.60809500  1
  O  O18  1  0.50021700  0.84019100  0.41775200  1
  O  O19  1  0.50021700  0.84019100  0.08224800  1
  O  O20  1  0.33997400  0.49978300  0.08224800  1
  O  O21  1  0.33997400  0.49978300  0.41775200  1
  O  O22  1  0.28075500  0.22329400  0.39190500  1
  O  O23  1  0.28075500  0.22329400  0.10809500  1
  O  O24  1  0.62221600  0.86360600  0.25000000  1
  O  O25  1  0.50398400  0.65640600  0.92076400  1
  O  O26  1  0.50398400  0.65640600  0.57923600  1
  O  O27  1  0.63539900  0.75245800  0.75000000  1
  O  O28  1  0.26810300  0.05526300  0.89481000  1
  O  O29  1  0.26810300  0.05526300  0.60519000  1
  O  O30  1  0.71924500  0.94254000  0.89190500  1
  O  O31  1  0.71924500  0.94254000  0.60809500  1
  O  O32  1  0.37778400  0.24139100  0.75000000  1
  O  O33  1  0.49978300  0.33997400  0.91775200  1
  O  O34  1  0.49978300  0.33997400  0.58224800  1
  O  O35  1  0.36460100  0.11706000  0.25000000  1
  O  O36  1  0.73189700  0.78716000  0.39481000  1
  O  O37  1  0.73189700  0.78716000  0.10519000  1
  O  O38  1  0.65640600  0.50398400  0.07923600  1
  O  O39  1  0.65640600  0.50398400  0.42076400  1
  O  O40  1  0.49601600  0.15242200  0.42076400  1
  O  O41  1  0.49601600  0.15242200  0.07923600  1
  O  O42  1  0.78716000  0.73189700  0.89481000  1
  O  O43  1  0.78716000  0.73189700  0.60519000  1
  O  O44  1  0.75245800  0.63539900  0.25000000  1
  O  O45  1  0.86360600  0.62221600  0.75000000  1
  O  O46  1  0.94254000  0.71924500  0.10809500  1
  O  O47  1  0.94254000  0.71924500  0.39190500  1
  O  O48  1  0.66002600  0.15980900  0.91775200  1
  O  O49  1  0.66002600  0.15980900  0.58224800  1
  O  O50  1  0.84019100  0.50021700  0.91775200  1
  O  O51  1  0.84019100  0.50021700  0.58224800  1
  O  O52  1  0.75860900  0.13639400  0.75000000  1
  O  O53  1  0.84757800  0.34359400  0.07923600  1
  O  O54  1  0.84757800  0.34359400  0.42076400  1
  O  O55  1  0.88294000  0.24754200  0.25000000  1
  O  O56  1  0.77670600  0.05746000  0.10809500  1
  O  O57  1  0.77670600  0.05746000  0.39190500  1
  O  O58  1  0.94473700  0.21284000  0.60519000  1
  O  O59  1  0.94473700  0.21284000  0.89481000  1
loop_
_geom_bond_atom_site_label_1
_geom_bond_atom_site_label_2
_geom_bond_distance
_geom_bond_site_symmetry_2
K0 O58 2.944011 1_455
K0 O3 2.944011 1_545
K0 O13 2.944011 1_555
K0 O29 2.944011 1_555
K0 O36 2.944011 1_445
K0 O43 2.944011 1_445
K0 O57 3.069435 1_455
K0 O0 3.069435 1_545
K0 O17 3.069441 1_555
K0 O22 3.069441 1_555
K0 O31 3.069443 1_445
K0 O47 3.069443 1_445
K1 O59 2.944011 1_454
K1 O2 2.944011 1_545
K1 O12 2.944011 1_555
K1 O28 2.944011 1_554
K1 O37 2.944011 1_445
K1 O42 2.944011 1_444
K1 O56 3.069435 1_455
K1 O1 3.069435 1_544
K1 O23 3.069441 1_555
K1 O16 3.069441 1_554
K1 O30 3.069443 1_444
K1 O46 3.069443 1_445
Na0 O4 2.646386 1_555
Na0 O24 2.646402 1_555
Na0 O15 2.646406 1_555
Na0 O5 2.960560 1_555
Na0 O6 2.960560 1_555
Na0 O19 2.960563 1_555
Na0 O18 2.960563 1_555
Na0 O21 2.960566 1_555
Na0 O20 2.960566 1_555
Na1 O52 2.646386 1_555
Na1 O45 2.646402 1_555
Na1 O32 2.646406 1_555
Na1 O49 2.960560 1_555
Na1 O48 2.960560 1_555
Na1 O50 2.960563 1_555
Na1 O51 2.960563 1_555
Na1 O34 2.960566 1_555
Na1 O33 2.960566 1_555
Mg0 O9 1.974777 1_555
Mg0 O54 1.974777 1_455
Mg0 O51 2.006039 1_455
Mg0 O6 2.006039 1_555
Mg1 O10 2.103051 1_555
Mg1 O8 2.103055 1_555
Mg1 O25 2.103059 1_555
Mg1 O5 2.155068 1_556
Mg1 O19 2.155072 1_556
Mg1 O20 2.155076 1_556
Mg2 O40 1.974777 1_555
Mg2 O11 1.974777 1_545
Mg2 O18 2.006039 1_545
Mg2 O49 2.006039 1_555
Mg3 O11 2.103051 1_555
Mg3 O9 2.103055 1_555
Mg3 O26 2.103059 1_555
Mg3 O6 2.155068 1_555
Mg3 O18 2.155072 1_555
Mg3 O21 2.155076 1_555
Mg4 O25 1.974777 1_554
Mg4 O38 1.974777 1_555
Mg4 O20 2.006039 1_555
Mg4 O33 2.006039 1_554
Mg5 O26 1.974777 1_555
Mg5 O39 1.974777 1_555
Mg5 O34 2.006039 1_555
Mg5 O21 2.006039 1_555
Mg6 O53 2.103051 1_555
Mg6 O41 2.103055 1_555
Mg6 O38 2.103059 1_555
Mg6 O48 2.155068 1_554
Mg6 O50 2.155072 1_554
Mg6 O33 2.155076 1_554
Mg7 O41 1.974777 1_555
Mg7 O10 1.974777 1_544
Mg7 O19 2.006039 1_545
Mg7 O48 2.006039 1_554
Mg8 O54 2.103051 1_555
Mg8 O40 2.103055 1_555
Mg8 O39 2.103059 1_555
Mg8 O49 2.155068 1_555
Mg8 O51 2.155072 1_555
Mg8 O34 2.155076 1_555
Mg9 O8 1.974777 1_554
Mg9 O53 1.974777 1_455
Mg9 O50 2.006039 1_454
Mg9 O5 2.006039 1_555
O0 Si19 1.640556 1_455
O0 Si2 1.645398 1_555
O1 Si18 1.640556 1_455
O1 Si3 1.645398 1_555
O2 Si0 1.638909 1_555
O2 Si15 1.656394 1_565
O3 Si1 1.638909 1_555
O3 Si14 1.656394 1_565
O4 Si1 1.641978 1_555
O4 Si0 1.641978 1_555
O5 Si0 1.609134 1_555
O6 Si1 1.609134 1_555
O7 Si3 1.620056 1_555
O7 Si2 1.620056 1_555
O8 Si4 1.605266 1_555
O9 Si5 1.605266 1_555
O10 Si3 1.605258 1_555
O11 Si2 1.605258 1_555
O12 Si6 1.638909 1_555
O12 Si22 1.656397 1_455
O13 Si7 1.638909 1_555
O13 Si23 1.656397 1_455
O14 Si4 1.620056 1_555
O14 Si5 1.620056 1_555
O15 Si7 1.641976 1_555
O15 Si6 1.641976 1_555
O16 Si10 1.640563 1_555
O16 Si4 1.645382 1_555
O17 Si11 1.640563 1_555
O17 Si5 1.645382 1_555
O18 Si8 1.609134 1_555
O19 Si9 1.609134 1_555
O20 Si6 1.609134 1_555
O21 Si7 1.609134 1_555
O22 Si7 1.640563 1_555
O22 Si14 1.645382 1_555
O23 Si6 1.640563 1_555
O23 Si15 1.645382 1_555
O24 Si9 1.641977 1_555
O24 Si8 1.641977 1_555
O25 Si12 1.605264 1_555
O26 Si13 1.605264 1_555
O27 Si12 1.620056 1_555
O27 Si13 1.620056 1_555
O28 Si10 1.638909 1_555
O28 Si3 1.656397 1_545
O29 Si11 1.638909 1_555
O29 Si2 1.656397 1_545
O30 Si21 1.640553 1_565
O30 Si12 1.645401 1_555
O31 Si20 1.640553 1_565
O31 Si13 1.645401 1_555
O32 Si10 1.641976 1_555
O32 Si11 1.641976 1_555
O33 Si10 1.609134 1_555
O34 Si11 1.609134 1_555
O35 Si14 1.620056 1_555
O35 Si15 1.620056 1_555
O36 Si8 1.638909 1_555
O36 Si17 1.656387 1_555
O37 Si9 1.638909 1_555
O37 Si16 1.656387 1_555
O38 Si16 1.605264 1_555
O39 Si17 1.605264 1_555
O40 Si14 1.605266 1_555
O41 Si15 1.605266 1_555
O42 Si18 1.638909 1_555
O42 Si12 1.656387 1_555
O43 Si19 1.638909 1_555
O43 Si13 1.656387 1_555
O44 Si17 1.620056 1_555
O44 Si16 1.620056 1_555
O45 Si19 1.641977 1_555
O45 Si18 1.641977 1_555
O46 Si0 1.640553 1_655
O46 Si16 1.645401 1_555
O47 Si1 1.640553 1_655
O47 Si17 1.645401 1_555
O48 Si21 1.609134 1_555
O49 Si20 1.609134 1_555
O50 Si18 1.609134 1_555
O51 Si19 1.609134 1_555
O52 Si20 1.641978 1_555
O52 Si21 1.641978 1_555
O53 Si22 1.605258 1_555
O54 Si23 1.605258 1_555
O55 Si23 1.620056 1_555
O55 Si22 1.620056 1_555
O56 Si9 1.640556 1_545
O56 Si22 1.645398 1_555
O57 Si8 1.640556 1_545
O57 Si23 1.645398 1_555
O58 Si20 1.638909 1_555
O58 Si5 1.656394 1_655
O59 Si21 1.638909 1_555
O59 Si4 1.656394 1_655
