# generated using pymatgen
data_Sr8Ru7O24
_symmetry_space_group_name_H-M   'P 1'
_cell_length_a   5.59062300
_cell_length_b   5.59062300
_cell_length_c   48.37201600
_cell_angle_alpha   90.00000000
_cell_angle_beta   90.00000000
_cell_angle_gamma   90.00000000
_symmetry_Int_Tables_number   1
_chemical_formula_structural   Sr8Ru7O24
_chemical_formula_sum   'Sr24 Ru21 O72'
_cell_volume   1511.87052981
_cell_formula_units_Z   3
loop_
 _symmetry_equiv_pos_site_id
 _symmetry_equiv_pos_as_xyz
  1  'x, y, z'
loop_
 _atom_site_type_symbol
 _atom_site_label
 _atom_site_symmetry_multiplicity
 _atom_site_fract_x
 _atom_site_fract_y
 _atom_site_fract_z
 _atom_site_occupancy
  Sr  Sr0  1  0.00000000  0.50000000  0.03792000  1
  Sr  Sr1  1  0.50000000  0.00000000  0.12819600  1
  Sr  Sr2  1  0.50000000  0.00000000  0.03792000  1
  Sr  Sr3  1  0.00000000  0.50000000  0.20362000  1
  Sr  Sr4  1  0.00000000  0.50000000  0.12819600  1
  Sr  Sr5  1  0.50000000  0.00000000  0.29117200  1
  Sr  Sr6  1  0.50000000  0.00000000  0.20362000  1
  Sr  Sr7  1  0.00000000  0.50000000  0.37498800  1
  Sr  Sr8  1  0.00000000  0.50000000  0.29117200  1
  Sr  Sr9  1  0.50000000  0.00000000  0.45832400  1
  Sr  Sr10  1  0.50000000  0.00000000  0.37498800  1
  Sr  Sr11  1  0.00000000  0.50000000  0.54167600  1
  Sr  Sr12  1  0.00000000  0.50000000  0.45832400  1
  Sr  Sr13  1  0.50000000  0.00000000  0.62501200  1
  Sr  Sr14  1  0.50000000  0.00000000  0.54167600  1
  Sr  Sr15  1  0.00000000  0.50000000  0.70882800  1
  Sr  Sr16  1  0.00000000  0.50000000  0.62501200  1
  Sr  Sr17  1  0.50000000  0.00000000  0.79638000  1
  Sr  Sr18  1  0.50000000  0.00000000  0.70882800  1
  Sr  Sr19  1  0.00000000  0.50000000  0.87180400  1
  Sr  Sr20  1  0.00000000  0.50000000  0.79638000  1
  Sr  Sr21  1  0.50000000  0.00000000  0.96208000  1
  Sr  Sr22  1  0.50000000  0.00000000  0.87180400  1
  Sr  Sr23  1  0.00000000  0.50000000  0.96208000  1
  Ru  Ru0  1  0.50000000  0.50000000  0.08252900  1
  Ru  Ru1  1  0.00000000  0.00000000  0.08367600  1
  Ru  Ru2  1  0.50000000  0.50000000  0.24954400  1
  Ru  Ru3  1  0.50000000  0.50000000  0.16582400  1
  Ru  Ru4  1  0.00000000  0.00000000  0.33317400  1
  Ru  Ru5  1  0.00000000  0.00000000  0.24903100  1
  Ru  Ru6  1  0.50000000  0.50000000  0.41675400  1
  Ru  Ru7  1  0.50000000  0.50000000  0.33307500  1
  Ru  Ru8  1  0.00000000  0.00000000  0.50000000  1
  Ru  Ru9  1  0.00000000  0.00000000  0.41682000  1
  Ru  Ru10  1  0.50000000  0.50000000  0.58324600  1
  Ru  Ru11  1  0.50000000  0.50000000  0.50000000  1
  Ru  Ru12  1  0.00000000  0.00000000  0.66682600  1
  Ru  Ru13  1  0.00000000  0.00000000  0.58318000  1
  Ru  Ru14  1  0.50000000  0.50000000  0.75045600  1
  Ru  Ru15  1  0.50000000  0.50000000  0.66692500  1
  Ru  Ru16  1  0.00000000  0.00000000  0.75096900  1
  Ru  Ru17  1  0.50000000  0.50000000  0.91747100  1
  Ru  Ru18  1  0.50000000  0.50000000  0.83417600  1
  Ru  Ru19  1  0.00000000  0.00000000  0.00000000  1
  Ru  Ru20  1  0.00000000  0.00000000  0.91632400  1
  O  O0  1  0.50000000  0.50000000  0.04483900  1
  O  O1  1  0.80005900  0.69891000  0.08350800  1
  O  O2  1  0.30109000  0.80005900  0.08350800  1
  O  O3  1  0.00000000  0.00000000  0.12179200  1
  O  O4  1  0.00000000  0.00000000  0.04153300  1
  O  O5  1  0.28405400  0.23796600  0.16688700  1
  O  O6  1  0.69891000  0.19994100  0.08350800  1
  O  O7  1  0.76203400  0.28405400  0.16688700  1
  O  O8  1  0.19994100  0.30109000  0.08350800  1
  O  O9  1  0.50000000  0.50000000  0.20930700  1
  O  O10  1  0.50000000  0.50000000  0.12533400  1
  O  O11  1  0.79466300  0.70510500  0.25099800  1
  O  O12  1  0.23796600  0.71594600  0.16688700  1
  O  O13  1  0.29489500  0.79466300  0.25099800  1
  O  O14  1  0.71594600  0.76203400  0.16688700  1
  O  O15  1  0.00000000  0.00000000  0.29271500  1
  O  O16  1  0.00000000  0.00000000  0.21099800  1
  O  O17  1  0.29442900  0.20536500  0.33368000  1
  O  O18  1  0.70510500  0.20533700  0.25099800  1
  O  O19  1  0.79463500  0.29442900  0.33368000  1
  O  O20  1  0.20533700  0.29489500  0.25099800  1
  O  O21  1  0.50000000  0.50000000  0.37514700  1
  O  O22  1  0.50000000  0.50000000  0.29168900  1
  O  O23  1  0.79557900  0.70399500  0.41686900  1
  O  O24  1  0.20536500  0.70557100  0.33368000  1
  O  O25  1  0.29600500  0.79557900  0.41686900  1
  O  O26  1  0.70557100  0.79463500  0.33368000  1
  O  O27  1  0.00000000  0.00000000  0.45854400  1
  O  O28  1  0.00000000  0.00000000  0.37547700  1
  O  O29  1  0.29553200  0.20447100  0.50000000  1
  O  O30  1  0.70399500  0.20442100  0.41686900  1
  O  O31  1  0.79552900  0.29553200  0.50000000  1
  O  O32  1  0.20442100  0.29600500  0.41686900  1
  O  O33  1  0.50000000  0.50000000  0.54156400  1
  O  O34  1  0.50000000  0.50000000  0.45843600  1
  O  O35  1  0.79557900  0.70399500  0.58313100  1
  O  O36  1  0.20447100  0.70446800  0.50000000  1
  O  O37  1  0.29600500  0.79557900  0.58313100  1
  O  O38  1  0.70446800  0.79552900  0.50000000  1
  O  O39  1  0.00000000  0.00000000  0.62452300  1
  O  O40  1  0.00000000  0.00000000  0.54145600  1
  O  O41  1  0.29442900  0.20536500  0.66632000  1
  O  O42  1  0.70399500  0.20442100  0.58313100  1
  O  O43  1  0.79463500  0.29442900  0.66632000  1
  O  O44  1  0.20442100  0.29600500  0.58313100  1
  O  O45  1  0.50000000  0.50000000  0.70831100  1
  O  O46  1  0.50000000  0.50000000  0.62485300  1
  O  O47  1  0.79466300  0.70510500  0.74900200  1
  O  O48  1  0.20536500  0.70557100  0.66632000  1
  O  O49  1  0.29489500  0.79466300  0.74900200  1
  O  O50  1  0.70557100  0.79463500  0.66632000  1
  O  O51  1  0.00000000  0.00000000  0.78900200  1
  O  O52  1  0.00000000  0.00000000  0.70728500  1
  O  O53  1  0.28405400  0.23796600  0.83311300  1
  O  O54  1  0.70510500  0.20533700  0.74900200  1
  O  O55  1  0.76203400  0.28405400  0.83311300  1
  O  O56  1  0.20533700  0.29489500  0.74900200  1
  O  O57  1  0.50000000  0.50000000  0.87466600  1
  O  O58  1  0.50000000  0.50000000  0.79069300  1
  O  O59  1  0.80005900  0.69891000  0.91649200  1
  O  O60  1  0.23796600  0.71594600  0.83311300  1
  O  O61  1  0.30109000  0.80005900  0.91649200  1
  O  O62  1  0.71594600  0.76203400  0.83311300  1
  O  O63  1  0.00000000  0.00000000  0.95846700  1
  O  O64  1  0.00000000  0.00000000  0.87820800  1
  O  O65  1  0.26371800  0.21410800  0.00000000  1
  O  O66  1  0.69891000  0.19994100  0.91649200  1
  O  O67  1  0.78589200  0.26371800  0.00000000  1
  O  O68  1  0.19994100  0.30109000  0.91649200  1
  O  O69  1  0.50000000  0.50000000  0.95516100  1
  O  O70  1  0.21410800  0.73628200  0.00000000  1
  O  O71  1  0.73628200  0.78589200  0.00000000  1
loop_
_geom_bond_atom_site_label_1
_geom_bond_atom_site_label_2
_geom_bond_distance
_geom_bond_site_symmetry_2
O0 Ru0 1.823141 1_555
O0 Sr0 2.815276 1_655
O0 Sr2 2.815276 1_565
O0 Sr2 2.815276 1_555
O0 Sr0 2.815276 1_555
O1 Ru0 2.013186 1_555
O1 Ru1 2.020635 1_665
O1 Sr4 2.675594 1_655
O1 Sr0 2.710888 1_655
O2 Ru0 2.013186 1_555
O2 Ru1 2.020635 1_565
O2 Sr1 2.675594 1_565
O2 Sr2 2.710888 1_565
O3 Ru1 1.843748 1_555
O3 Sr4 2.812424 1_545
O3 Sr4 2.812424 1_555
O3 Sr1 2.812424 1_455
O3 Sr1 2.812424 1_555
O4 Ru19 2.009035 1_555
O4 Ru1 2.038542 1_555
O4 Sr0 2.800770 1_545
O4 Sr2 2.800770 1_555
O4 Sr0 2.800770 1_555
O4 Sr2 2.800770 1_455
O5 Ru3 1.898995 1_555
O5 Sr6 2.526778 1_555
O5 Sr1 2.594255 1_555
O5 Sr3 2.797336 1_555
O5 Sr4 2.858433 1_555
O6 Ru0 2.013186 1_555
O6 Ru1 2.020635 1_655
O6 Sr1 2.675594 1_555
O6 Sr2 2.710888 1_555
O7 Ru3 1.898995 1_555
O7 Sr3 2.526778 1_655
O7 Sr4 2.594255 1_655
O7 Sr6 2.797336 1_555
O7 Sr1 2.858433 1_555
O8 Ru0 2.013186 1_555
O8 Ru1 2.020635 1_555
O8 Sr4 2.675594 1_555
O8 Sr0 2.710888 1_555
O9 Ru2 1.946345 1_555
O9 Ru3 2.103360 1_555
O9 Sr3 2.808815 1_555
O9 Sr6 2.808815 1_555
O9 Sr3 2.808815 1_655
O9 Sr6 2.808815 1_565
O10 Ru3 1.958583 1_555
O10 Ru0 2.070564 1_555
O10 Sr4 2.798738 1_555
O10 Sr1 2.798738 1_555
O10 Sr1 2.798738 1_565
O10 Sr4 2.798738 1_655
O11 Ru2 2.008369 1_555
O11 Ru5 2.011195 1_665
O11 Sr8 2.531612 1_655
O11 Sr3 2.808000 1_655
O11 Sr5 3.034502 1_565
O12 Ru3 1.898995 1_555
O12 Sr3 2.526778 1_555
O12 Sr4 2.594255 1_555
O12 Sr6 2.797336 1_565
O12 Sr1 2.858433 1_565
O13 Ru2 2.008369 1_555
O13 Ru5 2.011195 1_565
O13 Sr5 2.531612 1_565
O13 Sr6 2.808000 1_565
O13 Sr8 3.034502 1_555
O14 Ru3 1.898995 1_555
O14 Sr6 2.526778 1_565
O14 Sr1 2.594255 1_565
O14 Sr3 2.797336 1_655
O14 Sr4 2.858433 1_655
O15 Ru4 1.957083 1_555
O15 Ru5 2.113083 1_555
O15 Sr8 2.796308 1_555
O15 Sr5 2.796308 1_455
O15 Sr5 2.796308 1_555
O15 Sr8 2.796308 1_545
O16 Ru5 1.839733 1_555
O16 Sr6 2.818002 1_555
O16 Sr3 2.818002 1_545
O16 Sr6 2.818002 1_455
O16 Sr3 2.818002 1_555
O17 Ru4 2.007044 1_555
O17 Ru7 2.008712 1_555
O17 Sr10 2.575190 1_555
O17 Sr5 2.620486 1_555
O17 Sr7 3.068437 1_555
O17 Sr8 3.106549 1_555
O18 Ru2 2.008369 1_555
O18 Ru5 2.011195 1_655
O18 Sr5 2.531612 1_555
O18 Sr6 2.808000 1_555
O18 Sr8 3.034502 1_655
O19 Ru4 2.007044 1_655
O19 Ru7 2.008712 1_555
O19 Sr7 2.575190 1_655
O19 Sr8 2.620486 1_655
O19 Sr10 3.068437 1_555
O19 Sr5 3.106549 1_555
O20 Ru2 2.008369 1_555
O20 Ru5 2.011195 1_555
O20 Sr8 2.531612 1_555
O20 Sr3 2.808000 1_555
O20 Sr5 3.034502 1_555
O21 Ru6 2.012614 1_555
O21 Ru7 2.035107 1_555
O21 Sr10 2.795322 1_565
O21 Sr10 2.795322 1_555
O21 Sr7 2.795322 1_555
O21 Sr7 2.795322 1_655
O22 Ru7 2.001924 1_555
O22 Ru2 2.038639 1_555
O22 Sr8 2.795423 1_555
O22 Sr5 2.795423 1_555
O22 Sr5 2.795423 1_565
O22 Sr8 2.795423 1_655
O23 Ru6 2.007819 1_555
O23 Ru9 2.011126 1_665
O23 Sr12 2.574453 1_655
O23 Sr7 2.590536 1_655
O23 Sr9 3.080628 1_565
O23 Sr10 3.094081 1_565
O24 Ru4 2.007044 1_565
O24 Ru7 2.008712 1_555
O24 Sr7 2.575190 1_555
O24 Sr8 2.620486 1_555
O24 Sr10 3.068437 1_565
O24 Sr5 3.106549 1_565
O25 Ru6 2.007819 1_555
O25 Ru9 2.011126 1_565
O25 Sr9 2.574453 1_565
O25 Sr10 2.590536 1_565
O25 Sr12 3.080628 1_555
O25 Sr7 3.094081 1_555
O26 Ru4 2.007044 1_665
O26 Ru7 2.008712 1_555
O26 Sr10 2.575190 1_565
O26 Sr5 2.620486 1_565
O26 Sr7 3.068437 1_655
O26 Sr8 3.106549 1_655
O27 Ru8 2.005310 1_555
O27 Ru9 2.018274 1_555
O27 Sr9 2.795332 1_555
O27 Sr9 2.795332 1_455
O27 Sr12 2.795332 1_555
O27 Sr12 2.795332 1_545
O28 Ru9 1.999844 1_555
O28 Ru4 2.046281 1_555
O28 Sr10 2.795412 1_455
O28 Sr10 2.795412 1_555
O28 Sr7 2.795412 1_545
O28 Sr7 2.795412 1_555
O29 Ru11 2.009085 1_555
O29 Ru8 2.009108 1_555
O29 Sr14 2.584081 1_555
O29 Sr9 2.584081 1_555
O29 Sr11 3.086031 1_555
O29 Sr12 3.086031 1_555
O30 Ru6 2.007819 1_555
O30 Ru9 2.011126 1_655
O30 Sr9 2.574453 1_555
O30 Sr10 2.590536 1_555
O30 Sr12 3.080628 1_655
O30 Sr7 3.094081 1_655
O31 Ru11 2.009085 1_555
O31 Ru8 2.009108 1_655
O31 Sr11 2.584081 1_655
O31 Sr12 2.584081 1_655
O31 Sr14 3.086031 1_555
O31 Sr9 3.086031 1_555
O32 Ru6 2.007819 1_555
O32 Ru9 2.011126 1_555
O32 Sr12 2.574453 1_555
O32 Sr7 2.590536 1_555
O32 Sr9 3.080628 1_555
O32 Sr10 3.094081 1_555
O33 Ru11 2.010534 1_555
O33 Ru10 2.016242 1_555
O33 Sr14 2.795317 1_555
O33 Sr11 2.795317 1_555
O33 Sr14 2.795317 1_565
O33 Sr11 2.795317 1_655
O34 Ru11 2.010534 1_555
O34 Ru6 2.016242 1_555
O34 Sr9 2.795317 1_555
O34 Sr12 2.795317 1_555
O34 Sr12 2.795317 1_655
O34 Sr9 2.795317 1_565
O35 Ru10 2.007819 1_555
O35 Ru13 2.011126 1_665
O35 Sr11 2.574453 1_655
O35 Sr16 2.590536 1_655
O35 Sr14 3.080628 1_565
O35 Sr13 3.094081 1_565
O36 Ru11 2.009085 1_555
O36 Ru8 2.009108 1_565
O36 Sr11 2.584081 1_555
O36 Sr12 2.584081 1_555
O36 Sr14 3.086031 1_565
O36 Sr9 3.086031 1_565
O37 Ru10 2.007819 1_555
O37 Ru13 2.011126 1_565
O37 Sr14 2.574453 1_565
O37 Sr13 2.590536 1_565
O37 Sr11 3.080628 1_555
O37 Sr16 3.094081 1_555
O38 Ru11 2.009085 1_555
O38 Ru8 2.009108 1_665
O38 Sr14 2.584081 1_565
O38 Sr9 2.584081 1_565
O38 Sr11 3.086031 1_655
O38 Sr12 3.086031 1_655
O39 Ru13 1.999844 1_555
O39 Ru12 2.046281 1_555
O39 Sr13 2.795412 1_455
O39 Sr13 2.795412 1_555
O39 Sr16 2.795412 1_555
O39 Sr16 2.795412 1_545
O40 Ru8 2.005310 1_555
O40 Ru13 2.018274 1_555
O40 Sr11 2.795332 1_545
O40 Sr14 2.795332 1_455
O40 Sr14 2.795332 1_555
O40 Sr11 2.795332 1_555
O41 Ru12 2.007044 1_555
O41 Ru15 2.008712 1_555
O41 Sr13 2.575190 1_555
O41 Sr18 2.620486 1_555
O41 Sr16 3.068437 1_555
O41 Sr15 3.106549 1_555
O42 Ru10 2.007819 1_555
O42 Ru13 2.011126 1_655
O42 Sr14 2.574453 1_555
O42 Sr13 2.590536 1_555
O42 Sr11 3.080628 1_655
O42 Sr16 3.094081 1_655
O43 Ru12 2.007044 1_655
O43 Ru15 2.008712 1_555
O43 Sr16 2.575190 1_655
O43 Sr15 2.620486 1_655
O43 Sr13 3.068437 1_555
O43 Sr18 3.106549 1_555
O44 Ru10 2.007819 1_555
O44 Ru13 2.011126 1_555
O44 Sr11 2.574453 1_555
O44 Sr16 2.590536 1_555
O44 Sr14 3.080628 1_555
O44 Sr13 3.094081 1_555
O45 Ru15 2.001924 1_555
O45 Ru14 2.038639 1_555
O45 Sr18 2.795423 1_555
O45 Sr15 2.795423 1_555
O45 Sr18 2.795423 1_565
O45 Sr15 2.795423 1_655
O46 Ru10 2.012614 1_555
O46 Ru15 2.035107 1_555
O46 Sr13 2.795322 1_555
O46 Sr16 2.795322 1_555
O46 Sr13 2.795322 1_565
O46 Sr16 2.795322 1_655
O47 Ru14 2.008369 1_555
O47 Ru16 2.011195 1_665
O47 Sr15 2.531612 1_655
O47 Sr20 2.808000 1_655
O47 Sr18 3.034502 1_565
O48 Ru12 2.007044 1_565
O48 Ru15 2.008712 1_555
O48 Sr16 2.575190 1_555
O48 Sr15 2.620486 1_555
O48 Sr13 3.068437 1_565
O48 Sr18 3.106549 1_565
O49 Ru14 2.008369 1_555
O49 Ru16 2.011195 1_565
O49 Sr18 2.531612 1_565
O49 Sr17 2.808000 1_565
O49 Sr15 3.034502 1_555
O50 Ru12 2.007044 1_665
O50 Ru15 2.008712 1_555
O50 Sr13 2.575190 1_565
O50 Sr18 2.620486 1_565
O50 Sr16 3.068437 1_655
O50 Sr15 3.106549 1_655
O51 Ru16 1.839733 1_555
O51 Sr17 2.818002 1_455
O51 Sr20 2.818002 1_555
O51 Sr20 2.818002 1_545
O51 Sr17 2.818002 1_555
O52 Ru12 1.957083 1_555
O52 Ru16 2.113083 1_555
O52 Sr15 2.796308 1_545
O52 Sr18 2.796308 1_455
O52 Sr18 2.796308 1_555
O52 Sr15 2.796308 1_555
O53 Ru18 1.898995 1_555
O53 Sr17 2.526778 1_555
O53 Sr22 2.594255 1_555
O53 Sr20 2.797336 1_555
O53 Sr19 2.858433 1_555
O54 Ru14 2.008369 1_555
O54 Ru16 2.011195 1_655
O54 Sr18 2.531612 1_555
O54 Sr17 2.808000 1_555
O54 Sr15 3.034502 1_655
O55 Ru18 1.898995 1_555
O55 Sr20 2.526778 1_655
O55 Sr19 2.594255 1_655
O55 Sr17 2.797336 1_555
O55 Sr22 2.858433 1_555
O56 Ru14 2.008369 1_555
O56 Ru16 2.011195 1_555
O56 Sr15 2.531612 1_555
O56 Sr20 2.808000 1_555
O56 Sr18 3.034502 1_555
O57 Ru18 1.958583 1_555
O57 Ru17 2.070564 1_555
O57 Sr22 2.798738 1_555
O57 Sr19 2.798738 1_555
O57 Sr19 2.798738 1_655
O57 Sr22 2.798738 1_565
O58 Ru14 1.946345 1_555
O58 Ru18 2.103360 1_555
O58 Sr20 2.808815 1_555
O58 Sr17 2.808815 1_555
O58 Sr17 2.808815 1_565
O58 Sr20 2.808815 1_655
O59 Ru17 2.013186 1_555
O59 Ru20 2.020635 1_665
O59 Sr19 2.675594 1_655
O59 Sr23 2.710888 1_655
O60 Ru18 1.898995 1_555
O60 Sr20 2.526778 1_555
O60 Sr19 2.594255 1_555
O60 Sr17 2.797336 1_565
O60 Sr22 2.858433 1_565
O61 Ru17 2.013186 1_555
O61 Ru20 2.020635 1_565
O61 Sr22 2.675594 1_565
O61 Sr21 2.710888 1_565
O62 Ru18 1.898995 1_555
O62 Sr17 2.526778 1_565
O62 Sr22 2.594255 1_565
O62 Sr20 2.797336 1_655
O62 Sr19 2.858433 1_655
O63 Ru19 2.009035 1_556
O63 Ru20 2.038542 1_555
O63 Sr21 2.800770 1_555
O63 Sr23 2.800770 1_545
O63 Sr23 2.800770 1_555
O63 Sr21 2.800770 1_455
O64 Ru20 1.843748 1_555
O64 Sr22 2.812424 1_455
O64 Sr22 2.812424 1_555
O64 Sr19 2.812424 1_545
O64 Sr19 2.812424 1_555
O65 Ru19 1.899080 1_555
O65 Sr21 2.557788 1_554
O65 Sr2 2.557788 1_555
O65 Sr23 2.844793 1_554
O65 Sr0 2.844793 1_555
O66 Ru17 2.013186 1_555
O66 Ru20 2.020635 1_655
O66 Sr22 2.675594 1_555
O66 Sr21 2.710888 1_555
O67 Ru19 1.899080 1_655
O67 Sr23 2.557788 1_654
O67 Sr0 2.557788 1_655
O67 Sr21 2.844793 1_554
O67 Sr2 2.844793 1_555
O68 Ru17 2.013186 1_555
O68 Ru20 2.020635 1_555
O68 Sr19 2.675594 1_555
O68 Sr23 2.710888 1_555
O69 Ru17 1.823141 1_555
O69 Sr21 2.815276 1_565
O69 Sr21 2.815276 1_555
O69 Sr23 2.815276 1_555
O69 Sr23 2.815276 1_655
O70 Ru19 1.899080 1_565
O70 Sr23 2.557788 1_554
O70 Sr0 2.557788 1_555
O70 Sr21 2.844793 1_564
O70 Sr2 2.844793 1_565
O71 Ru19 1.899080 1_665
O71 Sr21 2.557788 1_564
O71 Sr2 2.557788 1_565
O71 Sr23 2.844793 1_654
O71 Sr0 2.844793 1_655
