# generated using pymatgen
data_Nb6HI11
_symmetry_space_group_name_H-M   'P 1'
_cell_length_a   11.56044900
_cell_length_b   13.87533400
_cell_length_c   15.91985600
_cell_angle_alpha   90.00000000
_cell_angle_beta   90.00000000
_cell_angle_gamma   90.00000000
_symmetry_Int_Tables_number   1
_chemical_formula_structural   Nb6HI11
_chemical_formula_sum   'Nb24 H4 I44'
_cell_volume   2553.62595142
_cell_formula_units_Z   4
loop_
 _symmetry_equiv_pos_site_id
 _symmetry_equiv_pos_as_xyz
  1  'x, y, z'
loop_
 _atom_site_type_symbol
 _atom_site_label
 _atom_site_symmetry_multiplicity
 _atom_site_fract_x
 _atom_site_fract_y
 _atom_site_fract_z
 _atom_site_occupancy
  Nb  Nb0  1  0.10087500  0.47509800  0.39737100  1
  Nb  Nb1  1  0.39912500  0.47509800  0.10262900  1
  Nb  Nb2  1  0.60087500  0.02490200  0.60262900  1
  Nb  Nb3  1  0.89912500  0.02490200  0.89737100  1
  Nb  Nb4  1  0.89912500  0.52490200  0.60262900  1
  Nb  Nb5  1  0.60087500  0.52490200  0.89737100  1
  Nb  Nb6  1  0.39912500  0.97509800  0.39737100  1
  Nb  Nb7  1  0.10087500  0.97509800  0.10262900  1
  Nb  Nb8  1  0.13311400  0.58026900  0.55056900  1
  Nb  Nb9  1  0.36688600  0.58026900  0.94943100  1
  Nb  Nb10  1  0.63311400  0.91973100  0.44943100  1
  Nb  Nb11  1  0.86688600  0.91973100  0.05056900  1
  Nb  Nb12  1  0.86688600  0.41973100  0.44943100  1
  Nb  Nb13  1  0.63311400  0.41973100  0.05056900  1
  Nb  Nb14  1  0.36688600  0.08026900  0.55056900  1
  Nb  Nb15  1  0.13311400  0.08026900  0.94943100  1
  Nb  Nb16  1  0.93156800  0.62324000  0.44945600  1
  Nb  Nb17  1  0.56843200  0.62324000  0.05054400  1
  Nb  Nb18  1  0.43156800  0.87676000  0.55054400  1
  Nb  Nb19  1  0.06843200  0.87676000  0.94945600  1
  Nb  Nb20  1  0.06843200  0.37676000  0.55054400  1
  Nb  Nb21  1  0.43156800  0.37676000  0.94945600  1
  Nb  Nb22  1  0.56843200  0.12324000  0.44945600  1
  Nb  Nb23  1  0.93156800  0.12324000  0.05054400  1
  H  H0  1  0.00000000  0.50000000  0.50000000  1
  H  H1  1  0.50000000  0.50000000  0.00000000  1
  H  H2  1  0.50000000  0.00000000  0.50000000  1
  H  H3  1  0.00000000  0.00000000  0.00000000  1
  I  I0  1  0.15879800  0.67644000  0.39069700  1
  I  I1  1  0.34120200  0.67644000  0.10930300  1
  I  I2  1  0.65879800  0.82356000  0.60930300  1
  I  I3  1  0.84120200  0.82356000  0.89069700  1
  I  I4  1  0.84120200  0.32356000  0.60930300  1
  I  I5  1  0.65879800  0.32356000  0.89069700  1
  I  I6  1  0.34120200  0.17644000  0.39069700  1
  I  I7  1  0.15879800  0.17644000  0.10930300  1
  I  I8  1  0.02614100  0.27604600  0.39431300  1
  I  I9  1  0.47385900  0.27604600  0.10568700  1
  I  I10  1  0.52614100  0.22395400  0.60568700  1
  I  I11  1  0.97385900  0.22395400  0.89431300  1
  I  I12  1  0.97385900  0.72395400  0.60568700  1
  I  I13  1  0.52614100  0.72395400  0.89431300  1
  I  I14  1  0.47385900  0.77604600  0.39431300  1
  I  I15  1  0.02614100  0.77604600  0.10568700  1
  I  I16  1  0.90718000  0.52138700  0.29074700  1
  I  I17  1  0.59282000  0.52138700  0.20925300  1
  I  I18  1  0.40718000  0.97861300  0.70925300  1
  I  I19  1  0.09282000  0.97861300  0.79074700  1
  I  I20  1  0.09282000  0.47861300  0.70925300  1
  I  I21  1  0.40718000  0.47861300  0.79074700  1
  I  I22  1  0.59282000  0.02138700  0.29074700  1
  I  I23  1  0.90718000  0.02138700  0.20925300  1
  I  I24  1  0.29804700  0.43602800  0.50411900  1
  I  I25  1  0.20195300  0.43602800  0.99588100  1
  I  I26  1  0.79804700  0.06397200  0.49588100  1
  I  I27  1  0.70195300  0.06397200  0.00411900  1
  I  I28  1  0.70195300  0.56397200  0.49588100  1
  I  I29  1  0.79804700  0.56397200  0.00411900  1
  I  I30  1  0.20195300  0.93602800  0.50411900  1
  I  I31  1  0.29804700  0.93602800  0.99588100  1
  I  I32  1  0.83076700  0.80364500  0.37728300  1
  I  I33  1  0.66923300  0.80364500  0.12271700  1
  I  I34  1  0.33076700  0.69635500  0.62271700  1
  I  I35  1  0.16923300  0.69635500  0.87728300  1
  I  I36  1  0.16923300  0.19635500  0.62271700  1
  I  I37  1  0.33076700  0.19635500  0.87728300  1
  I  I38  1  0.66923300  0.30364500  0.37728300  1
  I  I39  1  0.83076700  0.30364500  0.12271700  1
  I  I40  1  0.25000000  0.42356600  0.25000000  1
  I  I41  1  0.75000000  0.07643400  0.75000000  1
  I  I42  1  0.75000000  0.57643400  0.75000000  1
  I  I43  1  0.25000000  0.92356600  0.25000000  1
loop_
_geom_bond_atom_site_label_1
_geom_bond_atom_site_label_2
_geom_bond_distance
_geom_bond_site_symmetry_2
H0 Nb0 2.036847 1_555
H0 Nb4 2.036847 1_455
H0 Nb20 2.048756 1_555
H0 Nb16 2.048756 1_455
H0 Nb8 2.063165 1_555
H0 Nb12 2.063165 1_455
H1 Nb1 2.036847 1_555
H1 Nb5 2.036847 1_554
H1 Nb17 2.048756 1_555
H1 Nb21 2.048756 1_554
H1 Nb9 2.063165 1_554
H1 Nb13 2.063165 1_555
H2 Nb2 2.036847 1_555
H2 Nb6 2.036847 1_545
H2 Nb18 2.048756 1_545
H2 Nb22 2.048756 1_555
H2 Nb14 2.063165 1_555
H2 Nb10 2.063165 1_545
H3 Nb7 2.036847 1_545
H3 Nb3 2.036847 1_454
H3 Nb19 2.048756 1_544
H3 Nb23 2.048756 1_455
H3 Nb15 2.063165 1_554
H3 Nb11 2.063165 1_445
I0 Nb0 2.874781 1_555
I0 Nb16 2.884516 1_455
I0 Nb8 2.889036 1_555
I1 Nb1 2.874781 1_555
I1 Nb17 2.884516 1_555
I1 Nb9 2.889036 1_554
I2 Nb2 2.874781 1_565
I2 Nb18 2.884516 1_555
I2 Nb10 2.889036 1_555
I3 Nb3 2.874781 1_565
I3 Nb19 2.884516 1_655
I3 Nb11 2.889036 1_556
I4 Nb4 2.874781 1_555
I4 Nb20 2.884516 1_655
I4 Nb12 2.889036 1_555
I5 Nb5 2.874781 1_555
I5 Nb21 2.884516 1_555
I5 Nb13 2.889036 1_556
I6 Nb6 2.874781 1_545
I6 Nb22 2.884516 1_555
I6 Nb14 2.889036 1_555
I7 Nb7 2.874781 1_545
I7 Nb23 2.884516 1_455
I7 Nb15 2.889036 1_554
I8 Nb12 2.852053 1_455
I8 Nb0 2.894297 1_555
I8 Nb20 2.894461 1_555
I9 Nb13 2.852053 1_555
I9 Nb1 2.894297 1_555
I9 Nb21 2.894461 1_554
I10 Nb14 2.852053 1_555
I10 Nb2 2.894297 1_555
I10 Nb22 2.894461 1_555
I11 Nb15 2.852053 1_655
I11 Nb3 2.894297 1_555
I11 Nb23 2.894461 1_556
I12 Nb8 2.852053 1_655
I12 Nb4 2.894297 1_555
I12 Nb16 2.894461 1_555
I13 Nb9 2.852053 1_555
I13 Nb5 2.894297 1_555
I13 Nb17 2.894461 1_556
I14 Nb10 2.852053 1_555
I14 Nb6 2.894297 1_555
I14 Nb18 2.894461 1_555
I15 Nb11 2.852053 1_455
I15 Nb7 2.894297 1_555
I15 Nb19 2.894461 1_554
I16 Nb0 2.882332 1_655
I16 Nb16 2.908707 1_555
I16 Nb12 2.930588 1_555
I17 Nb1 2.882332 1_555
I17 Nb17 2.908707 1_555
I17 Nb13 2.930588 1_555
I18 Nb2 2.882332 1_565
I18 Nb18 2.908707 1_555
I18 Nb14 2.930588 1_565
I19 Nb3 2.882332 1_465
I19 Nb19 2.908707 1_555
I19 Nb15 2.930588 1_565
I20 Nb4 2.882332 1_455
I20 Nb20 2.908707 1_555
I20 Nb8 2.930588 1_555
I21 Nb5 2.882332 1_555
I21 Nb21 2.908707 1_555
I21 Nb9 2.930588 1_555
I22 Nb6 2.882332 1_545
I22 Nb22 2.908707 1_555
I22 Nb10 2.930588 1_545
I23 Nb7 2.882332 1_645
I23 Nb23 2.908707 1_555
I23 Nb11 2.930588 1_545
I24 Nb8 2.861451 1_555
I24 Nb20 2.875524 1_555
I24 Nb0 2.894397 1_555
I25 Nb9 2.861451 1_555
I25 Nb21 2.875524 1_555
I25 Nb1 2.894397 1_556
I26 Nb10 2.861451 1_545
I26 Nb22 2.875524 1_555
I26 Nb2 2.894397 1_555
I27 Nb11 2.861451 1_545
I27 Nb23 2.875524 1_555
I27 Nb3 2.894397 1_554
I28 Nb12 2.861451 1_555
I28 Nb16 2.875524 1_555
I28 Nb4 2.894397 1_555
I29 Nb13 2.861451 1_555
I29 Nb17 2.875524 1_555
I29 Nb5 2.894397 1_554
I30 Nb14 2.861451 1_565
I30 Nb18 2.875524 1_555
I30 Nb6 2.894397 1_555
I31 Nb15 2.861451 1_565
I31 Nb19 2.875524 1_555
I31 Nb7 2.894397 1_556
I32 Nb16 2.990653 1_555
I32 Nb10 3.022373 1_555
I33 Nb17 2.990653 1_555
I33 Nb11 3.022373 1_555
I34 Nb18 2.990653 1_555
I34 Nb8 3.022373 1_555
I35 Nb19 2.990653 1_555
I35 Nb9 3.022373 1_555
I36 Nb20 2.990653 1_555
I36 Nb14 3.022373 1_555
I37 Nb21 2.990653 1_555
I37 Nb15 3.022373 1_555
I38 Nb22 2.990653 1_555
I38 Nb12 3.022373 1_555
I39 Nb23 2.990653 1_555
I39 Nb13 3.022373 1_555
I40 Nb1 2.997928 1_555
I40 Nb0 2.997928 1_555
I41 Nb3 2.997928 1_555
I41 Nb2 2.997928 1_555
I42 Nb5 2.997928 1_555
I42 Nb4 2.997928 1_555
I43 Nb6 2.997928 1_555
I43 Nb7 2.997928 1_555
