# generated using pymatgen
data_KCSN
_symmetry_space_group_name_H-M   'P 1'
_cell_length_a   6.70334100
_cell_length_b   6.84992200
_cell_length_c   7.76653600
_cell_angle_alpha   90.00000000
_cell_angle_beta   90.00000000
_cell_angle_gamma   90.00000000
_symmetry_Int_Tables_number   1
_chemical_formula_structural   KCSN
_chemical_formula_sum   'K4 C4 S4 N4'
_cell_volume   356.61885268
_cell_formula_units_Z   4
loop_
 _symmetry_equiv_pos_site_id
 _symmetry_equiv_pos_as_xyz
  1  'x, y, z'
loop_
 _atom_site_type_symbol
 _atom_site_label
 _atom_site_symmetry_multiplicity
 _atom_site_fract_x
 _atom_site_fract_y
 _atom_site_fract_z
 _atom_site_occupancy
  K  K0  1  0.75000000  0.80124200  0.50000000  1
  K  K1  1  0.25000000  0.19875800  0.00000000  1
  K  K2  1  0.25000000  0.19875800  0.50000000  1
  K  K3  1  0.75000000  0.80124200  0.00000000  1
  C  C0  1  0.71278500  0.23169400  0.25000000  1
  C  C1  1  0.78721500  0.23169400  0.75000000  1
  C  C2  1  0.28721500  0.76830600  0.75000000  1
  C  C3  1  0.21278500  0.76830600  0.25000000  1
  S  S0  1  0.88966900  0.39518100  0.25000000  1
  S  S1  1  0.61033100  0.39518100  0.75000000  1
  S  S2  1  0.38966900  0.60481900  0.25000000  1
  S  S3  1  0.11033100  0.60481900  0.75000000  1
  N  N0  1  0.08376200  0.88828700  0.25000000  1
  N  N1  1  0.41623800  0.88828700  0.75000000  1
  N  N2  1  0.58376200  0.11171300  0.25000000  1
  N  N3  1  0.91623800  0.11171300  0.75000000  1
loop_
_geom_bond_atom_site_label_1
_geom_bond_atom_site_label_2
_geom_bond_distance
_geom_bond_site_symmetry_2
K0 N1 3.021765 1_555
K0 N0 3.021765 1_655
K0 N2 3.087812 1_565
K0 N3 3.087812 1_565
K0 S3 3.378539 1_655
K0 S2 3.378539 1_555
K0 S0 3.518973 1_555
K0 S1 3.518973 1_555
K1 N3 3.021765 1_454
K1 N2 3.021765 1_555
K1 N1 3.087812 1_544
K1 N0 3.087812 1_545
K1 S1 3.378539 1_554
K1 S0 3.378539 1_455
K1 S2 3.518973 1_555
K1 S3 3.518973 1_554
K2 N3 3.021765 1_455
K2 N2 3.021765 1_555
K2 N1 3.087812 1_545
K2 N0 3.087812 1_545
K2 S1 3.378539 1_555
K2 S0 3.378539 1_455
K2 S2 3.518973 1_555
K2 S3 3.518973 1_555
K3 N1 3.021765 1_554
K3 N0 3.021765 1_655
K3 N3 3.087812 1_564
K3 N2 3.087812 1_565
K3 S3 3.378539 1_654
K3 S2 3.378539 1_555
K3 S0 3.518973 1_555
K3 S1 3.518973 1_554
C0 N2 1.193097 1_555
C0 S0 1.630961 1_555
C1 N3 1.193097 1_555
C1 S1 1.630961 1_555
C2 N1 1.193097 1_555
C2 S3 1.630961 1_555
C3 N0 1.193097 1_555
C3 S2 1.630961 1_555
