# generated using pymatgen
data_MnC5ClO5
_symmetry_space_group_name_H-M   'P 1'
_cell_length_a   6.03125400
_cell_length_b   11.62908500
_cell_length_c   11.67973100
_cell_angle_alpha   90.00000000
_cell_angle_beta   90.00000000
_cell_angle_gamma   90.00000000
_symmetry_Int_Tables_number   1
_chemical_formula_structural   MnC5ClO5
_chemical_formula_sum   'Mn4 C20 Cl4 O20'
_cell_volume   819.19256902
_cell_formula_units_Z   4
loop_
 _symmetry_equiv_pos_site_id
 _symmetry_equiv_pos_as_xyz
  1  'x, y, z'
loop_
 _atom_site_type_symbol
 _atom_site_label
 _atom_site_symmetry_multiplicity
 _atom_site_fract_x
 _atom_site_fract_y
 _atom_site_fract_z
 _atom_site_occupancy
  Mn  Mn0  1  0.94975100  0.75000000  0.87770700  1
  Mn  Mn1  1  0.44975100  0.25000000  0.62229300  1
  Mn  Mn2  1  0.05024900  0.25000000  0.12229300  1
  Mn  Mn3  1  0.55024900  0.75000000  0.37770700  1
  C  C0  1  0.42645500  0.63481100  0.28191400  1
  C  C1  1  0.31205800  0.36678300  0.53468000  1
  C  C2  1  0.18794200  0.13321700  0.03468000  1
  C  C3  1  0.69288600  0.25000000  0.52834400  1
  C  C4  1  0.68794200  0.86678300  0.46532000  1
  C  C5  1  0.42645500  0.86518900  0.28191400  1
  C  C6  1  0.92645500  0.36518900  0.21808600  1
  C  C7  1  0.92645500  0.13481100  0.21808600  1
  C  C8  1  0.19288600  0.75000000  0.97165600  1
  C  C9  1  0.07354500  0.86518900  0.78191400  1
  C  C10  1  0.57354500  0.13481100  0.71808600  1
  C  C11  1  0.80711400  0.25000000  0.02834400  1
  C  C12  1  0.18794200  0.36678300  0.03468000  1
  C  C13  1  0.07354500  0.63481100  0.78191400  1
  C  C14  1  0.81205800  0.86678300  0.96532000  1
  C  C15  1  0.68794200  0.63321700  0.46532000  1
  C  C16  1  0.30711400  0.75000000  0.47165600  1
  C  C17  1  0.81205800  0.63321700  0.96532000  1
  C  C18  1  0.31205800  0.13321700  0.53468000  1
  C  C19  1  0.57354500  0.36518900  0.71808600  1
  Cl  Cl0  1  0.87058300  0.75000000  0.25491300  1
  Cl  Cl1  1  0.12941700  0.25000000  0.74508700  1
  Cl  Cl2  1  0.62941700  0.75000000  0.75491300  1
  Cl  Cl3  1  0.37058300  0.25000000  0.24508700  1
  O  O0  1  0.14612400  0.56344500  0.72471400  1
  O  O1  1  0.73495000  0.55910600  0.01747600  1
  O  O2  1  0.26505000  0.44089400  0.98252400  1
  O  O3  1  0.34570900  0.75000000  0.03174300  1
  O  O4  1  0.85387600  0.06344500  0.27528600  1
  O  O5  1  0.65429100  0.25000000  0.96825700  1
  O  O6  1  0.23495000  0.05910600  0.48252400  1
  O  O7  1  0.76505000  0.94089400  0.51747600  1
  O  O8  1  0.14612400  0.93655500  0.72471400  1
  O  O9  1  0.26505000  0.05910600  0.98252400  1
  O  O10  1  0.23495000  0.44089400  0.48252400  1
  O  O11  1  0.76505000  0.55910600  0.51747600  1
  O  O12  1  0.35387600  0.56344500  0.22471400  1
  O  O13  1  0.64612400  0.06344500  0.77528600  1
  O  O14  1  0.85387600  0.43655500  0.27528600  1
  O  O15  1  0.84570900  0.25000000  0.46825700  1
  O  O16  1  0.15429100  0.75000000  0.53174300  1
  O  O17  1  0.64612400  0.43655500  0.77528600  1
  O  O18  1  0.73495000  0.94089400  0.01747600  1
  O  O19  1  0.35387600  0.93655500  0.22471400  1
loop_
_geom_bond_atom_site_label_1
_geom_bond_atom_site_label_2
_geom_bond_distance
_geom_bond_site_symmetry_2
C0 O12 1.151833 1_555
C0 Mn3 1.898323 1_555
C1 O10 1.153316 1_555
C1 Mn1 1.892401 1_555
C2 O9 1.153316 1_554
C2 Mn2 1.892401 1_555
C3 O15 1.158482 1_555
C3 Mn1 1.831508 1_555
C4 O7 1.153316 1_555
C4 Mn3 1.892401 1_555
C5 O19 1.151833 1_555
C5 Mn3 1.898323 1_555
C6 O14 1.151833 1_555
C6 Mn2 1.898323 1_655
C7 O4 1.151833 1_555
C7 Mn2 1.898323 1_655
C8 O3 1.158482 1_556
C8 Mn0 1.831508 1_455
C9 O8 1.151833 1_555
C9 Mn0 1.898323 1_455
C10 O13 1.151833 1_555
C10 Mn1 1.898323 1_555
C11 O5 1.158482 1_554
C11 Mn2 1.831508 1_655
C12 O2 1.153316 1_554
C12 Mn2 1.892401 1_555
C13 O0 1.151833 1_555
C13 Mn0 1.898323 1_455
C14 O18 1.153316 1_556
C14 Mn0 1.892401 1_555
C15 O11 1.153316 1_555
C15 Mn3 1.892401 1_555
C16 O16 1.158482 1_555
C16 Mn3 1.831508 1_555
C17 O1 1.153316 1_556
C17 Mn0 1.892401 1_555
C18 O6 1.153316 1_555
C18 Mn1 1.892401 1_555
C19 O17 1.151833 1_555
C19 Mn1 1.898323 1_555
Cl0 Mn3 2.406162 1_555
Cl1 Mn1 2.406162 1_555
Cl2 Mn0 2.406162 1_555
Cl3 Mn2 2.406162 1_555
