# generated using pymatgen
data_Na11N7O16
_symmetry_space_group_name_H-M   'P 1'
_cell_length_a   4.82230500
_cell_length_b   5.66862029
_cell_length_c   16.96245686
_cell_angle_alpha   92.69995232
_cell_angle_beta   93.80794799
_cell_angle_gamma   91.97848836
_symmetry_Int_Tables_number   1
_chemical_formula_structural   Na11N7O16
_chemical_formula_sum   'Na11 N7 O16'
_cell_volume   461.81542226
_cell_formula_units_Z   1
loop_
 _symmetry_equiv_pos_site_id
 _symmetry_equiv_pos_as_xyz
  1  'x, y, z'
loop_
 _atom_site_type_symbol
 _atom_site_label
 _atom_site_symmetry_multiplicity
 _atom_site_fract_x
 _atom_site_fract_y
 _atom_site_fract_z
 _atom_site_occupancy
  Na  Na0  1  0.05457800  0.00581800  0.00024900  1
  Na  Na1  1  0.04138000  0.05871100  0.67629400  1
  Na  Na2  1  0.97667000  0.02556000  0.35828600  1
  Na  Na3  1  0.57369600  0.75311500  0.73965500  1
  Na  Na4  1  0.55291800  0.67674200  0.07707700  1
  Na  Na5  1  0.53867200  0.20885300  0.89828700  1
  Na  Na6  1  0.49775800  0.14436200  0.23479700  1
  Na  Na7  1  0.58219600  0.29885600  0.57137400  1
  Na  Na8  1  0.02591700  0.50908500  0.82536500  1
  Na  Na9  1  0.06953400  0.57423900  0.48884100  1
  Na  Na10  1  0.03875900  0.47445200  0.18060400  1
  N  N0  1  0.91325500  0.98091800  0.84195800  1
  N  N1  1  0.83375100  0.99536800  0.15101900  1
  N  N2  1  0.61617600  0.87893000  0.50952700  1
  N  N3  1  0.25604300  0.55449900  0.33172800  1
  N  N4  1  0.08835200  0.58055800  0.97582700  1
  N  N5  1  0.20267100  0.56155700  0.64872700  1
  N  N6  1  0.48623300  0.65770200  0.31186400  1
  O  O0  1  0.64709100  0.23097500  0.72370600  1
  O  O1  1  0.87082400  0.95454600  0.51249000  1
  O  O2  1  0.09012000  0.02413800  0.15906800  1
  O  O3  1  0.71286600  0.16582300  0.07538600  1
  O  O4  1  0.54729300  0.02537600  0.01740600  1
  O  O5  1  0.51777000  0.05942500  0.66742200  1
  O  O6  1  0.50277000  0.88650300  0.33133100  1
  O  O7  1  0.52996100  0.54543800  0.84036300  1
  O  O8  1  0.58277300  0.65437100  0.50933000  1
  O  O9  1  0.54461900  0.49227200  0.18507100  1
  O  O10  1  0.10483000  0.36680100  0.95215200  1
  O  O11  1  0.10222800  0.38894800  0.60179600  1
  O  O12  1  0.02820100  0.65558800  0.69226800  1
  O  O13  1  0.20885600  0.32783200  0.31350300  1
  O  O14  1  0.06751300  0.66218700  0.36933800  1
  O  O15  1  0.03912800  0.61545300  0.04862300  1
loop_
_geom_bond_atom_site_label_1
_geom_bond_atom_site_label_2
_geom_bond_distance
_geom_bond_site_symmetry_2
Na0 O10 2.249637 1_554
Na0 O3 2.331450 1_455
Na0 O4 2.372634 1_555
Na0 O15 2.396510 1_545
Na0 O4 2.488280 1_455
Na0 O2 2.684896 1_555
Na1 O5 2.312050 1_555
Na1 O12 2.313000 1_545
Na1 O11 2.328408 1_555
Na1 O0 2.339424 1_455
Na1 O5 2.519646 1_455
Na1 O1 2.872916 1_445
Na2 O14 2.134878 1_645
Na2 O13 2.206760 1_655
Na2 O6 2.399132 1_545
Na2 O6 2.743184 1_645
Na2 O1 2.743483 1_545
Na3 O7 2.137449 1_555
Na3 O5 2.185812 1_565
Na3 O12 2.455881 1_655
Na4 O9 2.153610 1_555
Na4 O4 2.262605 1_565
Na4 O15 2.458009 1_655
Na4 O15 2.501668 1_555
Na5 O7 2.187272 1_555
Na5 O4 2.314281 1_556
Na5 O10 2.513879 1_555
Na5 O10 2.917737 1_655
Na6 O9 2.191628 1_555
Na6 O13 2.240806 1_555
Na6 O6 2.245238 1_545
Na6 O2 2.338447 1_555
Na7 O5 2.199863 1_555
Na7 O8 2.317059 1_555
Na7 O11 2.469754 1_555
Na7 O11 2.555539 1_655
Na7 O0 2.630066 1_555
Na7 O1 2.633028 1_545
Na8 O10 2.344443 1_555
Na8 O7 2.427675 1_555
Na8 O7 2.436614 1_455
Na8 O12 2.442561 1_555
Na8 O0 2.814734 1_455
Na9 O14 2.109633 1_555
Na9 O11 2.227110 1_555
Na9 O1 2.416383 1_455
Na9 O8 2.450324 1_455
Na9 O8 2.499193 1_555
Na10 O9 2.394579 1_455
Na10 O15 2.412414 1_555
Na10 O9 2.434006 1_555
Na10 O13 2.534449 1_555
Na10 O2 2.584314 1_555
N0 Na5 2.473744 1_565
N0 Na3 2.574016 1_555
N0 Na0 2.721805 1_666
N0 Na8 2.752784 1_655
N0 Na1 2.966688 1_665
N0 Na8 3.053797 1_665
N1 O2 1.239036 1_665
N1 O3 1.725017 1_565
N1 Na6 2.375983 1_565
N1 Na4 2.462003 1_555
N2 O8 1.277381 1_555
N2 O1 1.283606 1_555
N2 Na7 2.570646 1_565
N3 O14 1.298019 1_555
N3 N6 1.308201 1_555
N3 O13 1.315802 1_555
N4 O10 1.265252 1_555
N4 O15 1.280377 1_556
N4 Na0 2.439528 1_566
N4 Na8 2.561376 1_555
N5 O12 1.270382 1_555
N5 O11 1.291659 1_555
N5 Na3 2.469967 1_555
N5 Na7 2.758953 1_555
N6 O6 1.321583 1_555
O0 O5 1.427455 1_555
O3 O4 1.420081 1_555
