# generated using pymatgen
data_Li3In2(PO4)3
_symmetry_space_group_name_H-M   'P 1'
_cell_length_a   9.17069604
_cell_length_b   9.17069720
_cell_length_c   9.17069734
_cell_angle_alpha   55.29093677
_cell_angle_beta   55.29094945
_cell_angle_gamma   55.29094914
_symmetry_Int_Tables_number   1
_chemical_formula_structural   Li3In2(PO4)3
_chemical_formula_sum   'Li6 In4 P6 O24'
_cell_volume   485.68927968
_cell_formula_units_Z   2
loop_
 _symmetry_equiv_pos_site_id
 _symmetry_equiv_pos_as_xyz
  1  'x, y, z'
loop_
 _atom_site_type_symbol
 _atom_site_label
 _atom_site_symmetry_multiplicity
 _atom_site_fract_x
 _atom_site_fract_y
 _atom_site_fract_z
 _atom_site_occupancy
  Li  Li0  1  0.92755808  0.66407688  0.26767594  1
  Li  Li1  1  0.66407688  0.26767594  0.92755808  1
  Li  Li2  1  0.26767594  0.92755808  0.66407688  1
  Li  Li3  1  0.07244192  0.33592312  0.73232406  1
  Li  Li4  1  0.33592312  0.73232406  0.07244192  1
  Li  Li5  1  0.73232406  0.07244192  0.33592312  1
  In  In0  1  0.34570925  0.34570925  0.34570925  1
  In  In1  1  0.65429075  0.65429075  0.65429075  1
  In  In2  1  0.85400469  0.85400469  0.85400469  1
  In  In3  1  0.14599531  0.14599531  0.14599531  1
  P  P0  1  0.04581089  0.74978828  0.45120671  1
  P  P1  1  0.74978828  0.45120671  0.04581089  1
  P  P2  1  0.45120671  0.04581089  0.74978828  1
  P  P3  1  0.95418911  0.25021172  0.54879329  1
  P  P4  1  0.25021172  0.54879329  0.95418911  1
  P  P5  1  0.54879329  0.95418911  0.25021172  1
  O  O0  1  0.84639936  0.13902749  0.75099228  1
  O  O1  1  0.13902749  0.75099228  0.84639936  1
  O  O2  1  0.75099228  0.84639936  0.13902749  1
  O  O3  1  0.15360064  0.86097251  0.24900772  1
  O  O4  1  0.40333236  0.99605689  0.19099008  1
  O  O5  1  0.19099008  0.40333236  0.99605689  1
  O  O6  1  0.99605689  0.19099008  0.40333236  1
  O  O7  1  0.59666764  0.00394311  0.80900992  1
  O  O8  1  0.80900992  0.59666764  0.00394311  1
  O  O9  1  0.00394311  0.80900992  0.59666764  1
  O  O10  1  0.44297733  0.85592300  0.79685935  1
  O  O11  1  0.79685935  0.44297733  0.85592300  1
  O  O12  1  0.85592300  0.79685935  0.44297733  1
  O  O13  1  0.55702267  0.14407700  0.20314065  1
  O  O14  1  0.20314065  0.55702267  0.14407700  1
  O  O15  1  0.14407700  0.20314065  0.55702267  1
  O  O16  1  0.50119291  0.84403383  0.46543367  1
  O  O17  1  0.46543367  0.50119291  0.84403383  1
  O  O18  1  0.84403383  0.46543367  0.50119291  1
  O  O19  1  0.49880709  0.15596617  0.53456633  1
  O  O20  1  0.53456633  0.49880709  0.15596617  1
  O  O21  1  0.15596617  0.53456633  0.49880709  1
  O  O22  1  0.24900772  0.15360064  0.86097251  1
  O  O23  1  0.86097251  0.24900772  0.15360064  1
loop_
_geom_bond_atom_site_label_1
_geom_bond_atom_site_label_2
_geom_bond_distance
_geom_bond_site_symmetry_2
Li0 O2 1.911892 1_555
Li0 O18 1.941559 1_555
Li0 O14 1.953246 1_655
Li0 O12 2.148143 1_555
Li1 O0 1.911892 1_555
Li1 O17 1.941559 1_555
Li1 O13 1.953246 1_556
Li1 O11 2.148142 1_555
Li2 O1 1.911892 1_555
Li2 O16 1.941559 1_555
Li2 O15 1.953246 1_565
Li2 O10 2.148142 1_555
Li3 O22 1.911892 1_555
Li3 O21 1.941559 1_555
Li3 O11 1.953246 1_455
Li3 O15 2.148143 1_555
Li4 O3 1.911892 1_555
Li4 O20 1.941559 1_555
Li4 O10 1.953246 1_554
Li4 O14 2.148142 1_555
Li5 O23 1.911892 1_555
Li5 O19 1.941559 1_555
Li5 O12 1.953246 1_545
Li5 O13 2.148142 1_555
In0 O20 2.133938 1_555
In0 O19 2.133938 1_555
In0 O21 2.133939 1_555
In0 O14 2.161262 1_555
In0 O15 2.161262 1_555
In0 O13 2.161263 1_555
In1 O17 2.133938 1_555
In1 O16 2.133938 1_555
In1 O18 2.133939 1_555
In1 O11 2.161262 1_555
In1 O12 2.161262 1_555
In1 O10 2.161263 1_555
In2 O7 2.097076 1_565
In2 O8 2.097076 1_556
In2 O9 2.097077 1_655
In2 O1 2.187442 1_655
In2 O0 2.187442 1_565
In2 O2 2.187442 1_556
In3 O4 2.097076 1_545
In3 O5 2.097076 1_554
In3 O6 2.097077 1_455
In3 O23 2.187442 1_455
In3 O3 2.187442 1_545
In3 O22 2.187442 1_554
O0 P3 1.537029 1_555
O1 P4 1.537029 1_555
O2 P5 1.537029 1_555
O3 P0 1.537029 1_555
O4 P5 1.492037 1_555
O5 P4 1.492037 1_555
O6 P3 1.492038 1_555
O7 P2 1.492037 1_555
O8 P1 1.492037 1_555
O9 P0 1.492038 1_555
O10 P2 1.575125 1_565
O11 P1 1.575126 1_556
O12 P0 1.575125 1_655
O13 P5 1.575125 1_545
O14 P4 1.575126 1_554
O15 P3 1.575125 1_455
O16 P5 1.535265 1_555
O17 P4 1.535265 1_555
O18 P3 1.535265 1_555
O19 P2 1.535265 1_555
O20 P1 1.535265 1_555
O21 P0 1.535265 1_555
O22 P2 1.537029 1_555
O23 P1 1.537029 1_555
