# generated using pymatgen
data_Ce4Y6O17
_symmetry_space_group_name_H-M   'P 1'
_cell_length_a   3.78911265
_cell_length_b   3.78911217
_cell_length_c   38.88225543
_cell_angle_alpha   60.83970442
_cell_angle_beta   60.83970824
_cell_angle_gamma   59.99999459
_symmetry_Int_Tables_number   1
_chemical_formula_structural   Ce4Y6O17
_chemical_formula_sum   'Ce4 Y6 O17'
_cell_volume   399.67638601
_cell_formula_units_Z   1
loop_
 _symmetry_equiv_pos_site_id
 _symmetry_equiv_pos_as_xyz
  1  'x, y, z'
loop_
 _atom_site_type_symbol
 _atom_site_label
 _atom_site_symmetry_multiplicity
 _atom_site_fract_x
 _atom_site_fract_y
 _atom_site_fract_z
 _atom_site_occupancy
  Ce  Ce0  1  0.00635700  0.00635700  0.69809300  1
  Ce  Ce1  1  0.00660300  0.00660300  0.79801900  1
  Ce  Ce2  1  0.00685800  0.00685800  0.59794300  1
  Ce  Ce3  1  0.00752900  0.00752900  0.89774100  1
  Y  Y0  1  0.00807000  0.00807000  0.99757900  1
  Y  Y1  1  0.98856100  0.98856100  0.10343200  1
  Y  Y2  1  0.01032900  0.01032900  0.19690100  1
  Y  Y3  1  0.01045400  0.01045400  0.39686400  1
  Y  Y4  1  0.98983500  0.98983500  0.50304900  1
  Y  Y5  1  0.98933700  0.98933700  0.30319900  1
  O  O0  1  0.24852200  0.24852200  0.12544300  1
  O  O1  1  0.78335400  0.78335400  0.06499400  1
  O  O2  1  0.24922900  0.24922900  0.32523100  1
  O  O3  1  0.71701900  0.71701900  0.18489400  1
  O  O4  1  0.78467600  0.78467600  0.26459700  1
  O  O5  1  0.24768900  0.24768900  0.52569300  1
  O  O6  1  0.71717200  0.71717200  0.38484800  1
  O  O7  1  0.24657100  0.24657100  0.62602900  1
  O  O8  1  0.78457300  0.78457300  0.46462800  1
  O  O9  1  0.24653500  0.24653500  0.72603900  1
  O  O10  1  0.74819600  0.74819600  0.57554100  1
  O  O11  1  0.24643400  0.24643400  0.82607000  1
  O  O12  1  0.74772900  0.74772900  0.67568100  1
  O  O13  1  0.24912600  0.24912600  0.92526200  1
  O  O14  1  0.74798500  0.74798500  0.77560500  1
  O  O15  1  0.74937800  0.74937800  0.87518700  1
  O  O16  1  0.71187900  0.71187900  0.98643600  1
loop_
_geom_bond_atom_site_label_1
_geom_bond_atom_site_label_2
_geom_bond_distance
_geom_bond_site_symmetry_2
Ce0 O12 2.303209 1_455
Ce0 O12 2.303209 1_545
Ce0 O12 2.303221 1_445
Ce0 O7 2.316441 1_555
Ce0 O9 2.364885 1_555
Ce0 O9 2.364903 1_545
Ce0 O9 2.364903 1_455
Ce0 O14 2.491563 1_445
Ce1 O14 2.303221 1_445
Ce1 O14 2.303239 1_455
Ce1 O14 2.303240 1_545
Ce1 O9 2.313741 1_555
Ce1 O11 2.366178 1_545
Ce1 O11 2.366178 1_455
Ce1 O11 2.366187 1_555
Ce1 O15 2.480505 1_445
Ce2 O10 2.303106 1_455
Ce2 O10 2.303106 1_545
Ce2 O10 2.303125 1_445
Ce2 O5 2.322420 1_555
Ce2 O7 2.366608 1_555
Ce2 O7 2.366611 1_545
Ce2 O7 2.366611 1_455
Ce2 O12 2.498827 1_445
Ce3 O11 2.303808 1_555
Ce3 O15 2.304630 1_445
Ce3 O15 2.304652 1_455
Ce3 O15 2.304652 1_545
Ce3 O13 2.359740 1_545
Ce3 O13 2.359741 1_455
Ce3 O13 2.359744 1_555
Ce3 O16 2.851032 1_445
O0 Y2 2.296962 1_555
O0 Y1 2.299199 1_445
O0 Y1 2.299221 1_455
O0 Y1 2.299221 1_545
O1 Y0 2.167003 1_664
O1 Y1 2.512448 1_545
O1 Y1 2.512448 1_455
O1 Y1 2.512450 1_555
O2 Y5 2.299413 1_445
O2 Y5 2.299426 1_455
O2 Y5 2.299426 1_545
O2 Y3 2.302587 1_555
O3 Y2 2.221430 1_655
O3 Y2 2.221430 1_665
O3 Y2 2.221430 1_565
O3 Y1 2.618533 1_555
O4 Y2 2.176035 1_665
O4 Y5 2.515042 1_545
O4 Y5 2.515043 1_455
O4 Y5 2.515051 1_555
O5 Y4 2.305554 1_455
O5 Y4 2.305555 1_545
O5 Y4 2.305561 1_445
O6 Y3 2.221474 1_655
O6 Y3 2.221474 1_565
O6 Y3 2.221494 1_665
O6 Y5 2.624543 1_555
O8 Y3 2.178221 1_665
O8 Y4 2.512172 1_555
O8 Y4 2.512184 1_545
O8 Y4 2.512184 1_455
O10 Y4 2.330199 1_555
O13 Y0 2.324574 1_555
O16 Y0 2.216770 1_655
O16 Y0 2.216771 1_565
O16 Y0 2.216780 1_665
