# generated using pymatgen
data_La9B3C6Br5
_symmetry_space_group_name_H-M   'P 1'
_cell_length_a   3.88929600
_cell_length_b   7.98151100
_cell_length_c   33.32192100
_cell_angle_alpha   90.00000000
_cell_angle_beta   90.00000000
_cell_angle_gamma   90.00000000
_symmetry_Int_Tables_number   1
_chemical_formula_structural   La9B3C6Br5
_chemical_formula_sum   'La18 B6 C12 Br10'
_cell_volume   1034.39435999
_cell_formula_units_Z   2
loop_
 _symmetry_equiv_pos_site_id
 _symmetry_equiv_pos_as_xyz
  1  'x, y, z'
loop_
 _atom_site_type_symbol
 _atom_site_label
 _atom_site_symmetry_multiplicity
 _atom_site_fract_x
 _atom_site_fract_y
 _atom_site_fract_z
 _atom_site_occupancy
  La  La0  1  0.00000000  0.80474200  0.74079100  1
  La  La1  1  0.00000000  0.65028900  0.61694800  1
  La  La2  1  0.00000000  0.08474900  0.65440300  1
  La  La3  1  0.50000000  0.95002100  0.44450000  1
  La  La4  1  0.00000000  0.45129100  0.00000000  1
  La  La5  1  0.50000000  0.34971100  0.88305200  1
  La  La6  1  0.50000000  0.19525800  0.75920900  1
  La  La7  1  0.50000000  0.91525100  0.84559700  1
  La  La8  1  0.50000000  0.34971100  0.11694800  1
  La  La9  1  0.50000000  0.91525100  0.15440300  1
  La  La10  1  0.00000000  0.04997900  0.94450000  1
  La  La11  1  0.00000000  0.04997900  0.05550000  1
  La  La12  1  0.50000000  0.19525800  0.24079100  1
  La  La13  1  0.50000000  0.95002100  0.55550000  1
  La  La14  1  0.00000000  0.08474900  0.34559700  1
  La  La15  1  0.00000000  0.65028900  0.38305200  1
  La  La16  1  0.00000000  0.80474200  0.25920900  1
  La  La17  1  0.50000000  0.54870900  0.50000000  1
  B  B0  1  0.50000000  0.86299500  0.67014300  1
  B  B1  1  0.00000000  0.13700500  0.17014300  1
  B  B2  1  0.50000000  0.22681300  0.00000000  1
  B  B3  1  0.00000000  0.13700500  0.82985700  1
  B  B4  1  0.50000000  0.86299500  0.32985700  1
  B  B5  1  0.00000000  0.77318700  0.50000000  1
  C  C0  1  0.00000000  0.72807400  0.54341300  1
  C  C1  1  0.00000000  0.02707100  0.79356500  1
  C  C2  1  0.50000000  0.86489800  0.62541300  1
  C  C3  1  0.50000000  0.97292900  0.29356500  1
  C  C4  1  0.00000000  0.13510200  0.12541300  1
  C  C5  1  0.50000000  0.27192600  0.04341300  1
  C  C6  1  0.00000000  0.13510200  0.87458700  1
  C  C7  1  0.50000000  0.97292900  0.70643500  1
  C  C8  1  0.50000000  0.27192600  0.95658700  1
  C  C9  1  0.00000000  0.02707100  0.20643500  1
  C  C10  1  0.00000000  0.72807400  0.45658700  1
  C  C11  1  0.50000000  0.86489800  0.37458700  1
  Br  Br0  1  0.50000000  0.57426800  0.20197200  1
  Br  Br1  1  0.50000000  0.32676300  0.59797900  1
  Br  Br2  1  0.00000000  0.21439200  0.50000000  1
  Br  Br3  1  0.00000000  0.42573200  0.29802800  1
  Br  Br4  1  0.00000000  0.42573200  0.70197200  1
  Br  Br5  1  0.00000000  0.67323700  0.09797900  1
  Br  Br6  1  0.50000000  0.78560800  0.00000000  1
  Br  Br7  1  0.00000000  0.67323700  0.90202100  1
  Br  Br8  1  0.50000000  0.57426800  0.79802800  1
  Br  Br9  1  0.50000000  0.32676300  0.40202100  1
loop_
_geom_bond_atom_site_label_1
_geom_bond_atom_site_label_2
_geom_bond_distance
_geom_bond_site_symmetry_2
B0 C2 1.490567 1_555
B0 C7 1.494106 1_555
B0 La2 2.681306 1_565
B0 La2 2.681306 1_665
B1 C4 1.490567 1_555
B1 C9 1.494106 1_555
B1 La9 2.681306 1_445
B1 La9 2.681306 1_545
B2 C5 1.490743 1_555
B2 C8 1.490743 1_554
B2 La4 2.644192 1_655
B2 La4 2.644192 1_555
B3 C6 1.490567 1_555
B3 C1 1.494106 1_555
B3 La7 2.681306 1_545
B3 La7 2.681306 1_445
B4 C11 1.490567 1_555
B4 C3 1.494106 1_555
B4 La14 2.681306 1_565
B4 La14 2.681306 1_665
B5 C0 1.490743 1_555
B5 C10 1.490743 1_555
B5 La17 2.644192 1_455
B5 La17 2.644192 1_555
C0 La1 2.527756 1_555
C0 La13 2.661200 1_455
C0 La13 2.661200 1_555
C0 La17 2.814926 1_455
C0 La17 2.814926 1_555
C1 La0 2.498271 1_545
C1 La6 2.625689 1_455
C1 La6 2.625689 1_555
C1 La7 2.753958 1_545
C1 La7 2.753958 1_445
C2 La13 2.426685 1_555
C2 La1 2.606772 1_555
C2 La1 2.606772 1_655
C2 La2 2.791763 1_565
C2 La2 2.791763 1_665
C3 La12 2.498271 1_565
C3 La16 2.625689 1_655
C3 La16 2.625689 1_555
C3 La14 2.753958 1_665
C3 La14 2.753958 1_565
C4 La11 2.426685 1_555
C4 La8 2.606772 1_455
C4 La8 2.606772 1_555
C4 La9 2.791763 1_445
C4 La9 2.791763 1_545
C5 La8 2.527756 1_555
C5 La11 2.661200 1_555
C5 La11 2.661200 1_655
C5 La4 2.814926 1_555
C5 La4 2.814926 1_655
C6 La10 2.426685 1_555
C6 La5 2.606772 1_455
C6 La5 2.606772 1_555
C6 La7 2.791763 1_545
C6 La7 2.791763 1_445
C7 La6 2.498271 1_565
C7 La0 2.625689 1_555
C7 La0 2.625689 1_655
C7 La2 2.753958 1_565
C7 La2 2.753958 1_665
C8 La5 2.527756 1_555
C8 La10 2.661200 1_555
C8 La10 2.661200 1_655
C8 La4 2.814926 1_556
C8 La4 2.814926 1_656
C9 La16 2.498271 1_545
C9 La12 2.625689 1_555
C9 La12 2.625689 1_455
C9 La9 2.753958 1_545
C9 La9 2.753958 1_445
C10 La15 2.527756 1_555
C10 La3 2.661200 1_455
C10 La3 2.661200 1_555
C10 La17 2.814926 1_455
C10 La17 2.814926 1_555
C11 La3 2.426685 1_555
C11 La15 2.606772 1_555
C11 La15 2.606772 1_655
C11 La14 2.791763 1_565
C11 La14 2.791763 1_665
Br0 La9 3.149508 1_555
Br0 La16 3.286810 1_555
Br0 La16 3.286810 1_655
Br0 La12 3.290025 1_555
Br0 La8 3.352487 1_555
Br1 La1 3.293794 1_555
Br1 La1 3.293794 1_655
Br1 La13 3.323471 1_545
Br1 La2 3.323833 1_655
Br1 La2 3.323833 1_555
Br1 La17 3.714475 1_555
Br2 La17 3.301783 1_555
Br2 La17 3.301783 1_455
Br2 La13 3.413832 1_445
Br2 La3 3.413832 1_545
Br2 La3 3.413832 1_445
Br2 La13 3.413832 1_545
Br3 La14 3.149508 1_555
Br3 La12 3.286810 1_555
Br3 La12 3.286810 1_455
Br3 La16 3.290025 1_555
Br3 La15 3.352487 1_555
Br4 La2 3.149508 1_555
Br4 La6 3.286810 1_455
Br4 La6 3.286810 1_555
Br4 La0 3.290025 1_555
Br4 La1 3.352487 1_555
Br5 La8 3.293794 1_555
Br5 La8 3.293794 1_455
Br5 La11 3.323471 1_565
Br5 La9 3.323833 1_455
Br5 La9 3.323833 1_555
Br5 La4 3.714475 1_555
Br6 La4 3.301783 1_555
Br6 La4 3.301783 1_655
Br6 La10 3.413832 1_564
Br6 La10 3.413832 1_664
Br6 La11 3.413832 1_565
Br6 La11 3.413832 1_665
Br7 La5 3.293794 1_555
Br7 La5 3.293794 1_455
Br7 La10 3.323471 1_565
Br7 La7 3.323833 1_455
Br7 La7 3.323833 1_555
Br7 La4 3.714475 1_556
Br8 La7 3.149508 1_555
Br8 La0 3.286810 1_555
Br8 La0 3.286810 1_655
Br8 La6 3.290025 1_555
Br8 La5 3.352487 1_555
Br9 La15 3.293794 1_655
Br9 La15 3.293794 1_555
Br9 La3 3.323471 1_545
Br9 La14 3.323833 1_555
Br9 La14 3.323833 1_655
Br9 La17 3.714475 1_555
