# generated using pymatgen
data_Yb3(Bi7Te12)2
_symmetry_space_group_name_H-M   'P 1'
_cell_length_a   8.33818082
_cell_length_b   8.29500937
_cell_length_c   25.48300292
_cell_angle_alpha   108.94888528
_cell_angle_beta   109.74088562
_cell_angle_gamma   108.79345200
_symmetry_Int_Tables_number   1
_chemical_formula_structural   Yb3(Bi7Te12)2
_chemical_formula_sum   'Yb3 Bi14 Te24'
_cell_volume   1372.08074326
_cell_formula_units_Z   1
loop_
 _symmetry_equiv_pos_site_id
 _symmetry_equiv_pos_as_xyz
  1  'x, y, z'
loop_
 _atom_site_type_symbol
 _atom_site_label
 _atom_site_symmetry_multiplicity
 _atom_site_fract_x
 _atom_site_fract_y
 _atom_site_fract_z
 _atom_site_occupancy
  Yb  Yb0  1  0.11593096  0.73863668  0.95530043  1
  Yb  Yb1  1  0.25786239  0.62542082  0.79846591  1
  Yb  Yb2  1  0.62556479  0.37852164  0.07614497  1
  Bi  Bi0  1  0.04868055  0.73957125  0.61110755  1
  Bi  Bi1  1  0.36108295  0.25086006  0.88129667  1
  Bi  Bi2  1  0.09918878  0.72644148  0.28676794  1
  Bi  Bi3  1  0.43887507  0.26931383  0.56507517  1
  Bi  Bi4  1  0.76206800  0.90279113  0.71971400  1
  Bi  Bi5  1  0.56828906  0.31672083  0.74597101  1
  Bi  Bi6  1  0.83574748  0.09486371  0.91349047  1
  Bi  Bi7  1  0.24741460  0.59680856  0.11321798  1
  Bi  Bi8  1  0.43602796  0.27987577  0.22570427  1
  Bi  Bi9  1  0.75225695  0.84449585  0.36612128  1
  Bi  Bi10  1  0.61351010  0.32386427  0.42479677  1
  Bi  Bi11  1  0.88552023  0.14680601  0.56830432  1
  Bi  Bi12  1  0.78014533  0.90865595  0.05038334  1
  Bi  Bi13  1  0.92254906  0.14993411  0.24825423  1
  Te  Te0  1  0.00701038  0.88139132  0.83626548  1
  Te  Te1  1  0.99752703  0.35746239  0.83262976  1
  Te  Te2  1  0.01709593  0.89453154  0.49848046  1
  Te  Te3  1  0.48633131  0.99960165  0.94881015  1
  Te  Te4  1  0.12800282  0.15036753  0.70650645  1
  Te  Te5  1  0.01325133  0.38177678  0.50569441  1
  Te  Te6  1  0.39467172  0.52010740  0.67517636  1
  Te  Te7  1  0.65577340  0.64693968  0.87949503  1
  Te  Te8  1  0.00350659  0.86762500  0.16371590  1
  Te  Te9  1  0.48607944  0.99249255  0.78726748  1
  Te  Te10  1  0.10742973  0.10753800  0.36778952  1
  Te  Te11  1  0.99084378  0.36193699  0.15904399  1
  Te  Te12  1  0.35054005  0.48921860  0.33294264  1
  Te  Te13  1  0.62594216  0.63362536  0.54052057  1
  Te  Te14  1  0.48742930  0.99497525  0.62329313  1
  Te  Te15  1  0.88564436  0.51525093  0.67033108  1
  Te  Te16  1  0.48463652  0.99940946  0.45613004  1
  Te  Te17  1  0.13956143  0.14211230  0.03902138  1
  Te  Te18  1  0.38618208  0.53807058  0.00237744  1
  Te  Te19  1  0.63982369  0.62066725  0.20761567  1
  Te  Te20  1  0.48099530  0.98334837  0.29182010  1
  Te  Te21  1  0.85055302  0.49038549  0.33586545  1
  Te  Te22  1  0.50317407  0.00140127  0.12639088  1
  Te  Te23  1  0.87728029  0.51118235  0.00436731  1
loop_
_geom_bond_atom_site_label_1
_geom_bond_atom_site_label_2
_geom_bond_distance
_geom_bond_site_symmetry_2
Bi0 Te13 3.021070 1_455
Bi0 Te15 3.027867 1_455
Bi0 Te5 3.135748 1_555
Bi0 Te4 3.168688 1_565
Bi0 Te14 3.432199 1_555
Bi0 Te2 3.473095 1_555
Bi1 Te0 3.003863 1_545
Bi1 Te18 3.115844 1_556
Bi1 Te3 3.303311 1_545
Bi1 Te9 3.348440 1_545
Bi1 Te1 3.377724 1_455
Bi1 Te7 3.436110 1_555
Bi2 Te10 3.128279 1_565
Bi2 Te20 3.141138 1_555
Bi2 Te11 3.227105 1_455
Bi2 Te21 3.228816 1_455
Bi2 Te19 3.312929 1_455
Bi2 Te12 3.484839 1_555
Bi3 Te6 3.120504 1_555
Bi3 Te14 3.150218 1_545
Bi3 Te15 3.167555 1_555
Bi3 Te16 3.177254 1_545
Bi3 Te2 3.226526 1_545
Bi3 Te13 3.287414 1_555
Bi4 Te0 3.082594 1_655
Bi4 Te6 3.129717 1_555
Bi4 Te14 3.226996 1_555
Bi4 Te1 3.274639 1_565
Bi4 Te4 3.278111 1_665
Bi4 Te9 3.429332 1_555
Bi5 Te14 3.057570 1_545
Bi5 Te4 3.119896 1_555
Bi5 Te9 3.154079 1_545
Bi5 Te6 3.159534 1_555
Bi5 Te7 3.255092 1_555
Bi5 Te1 3.346244 1_555
Bi6 Te9 3.140630 1_545
Bi6 Te17 3.142570 1_656
Bi6 Te7 3.201010 1_545
Bi6 Te0 3.211242 1_645
Bi6 Te3 3.266947 1_545
Bi6 Te23 3.301889 1_556
Bi7 Te23 3.041152 1_455
Bi7 Te22 3.177617 1_565
Bi7 Te11 3.196243 1_455
Bi7 Te19 3.238544 1_555
Bi7 Te17 3.262502 1_555
Bi7 Te18 3.351346 1_555
Bi8 Te21 3.041280 1_555
Bi8 Te19 3.061302 1_555
Bi8 Te12 3.165914 1_555
Bi8 Te22 3.169869 1_555
Bi8 Te20 3.447934 1_545
Bi8 Te8 3.448588 1_545
Bi9 Te10 3.037168 1_665
Bi9 Te2 3.145467 1_655
Bi9 Te20 3.198331 1_555
Bi9 Te21 3.225132 1_555
Bi9 Te12 3.275356 1_555
Bi9 Te19 3.477236 1_555
Bi10 Te16 3.024484 1_545
Bi10 Te5 3.045270 1_655
Bi10 Te20 3.150494 1_545
Bi10 Te13 3.163898 1_555
Bi10 Te10 3.524776 1_555
Bi10 Te12 3.567062 1_555
Bi11 Te2 3.021328 1_645
Bi11 Te5 3.051042 1_655
Bi11 Te16 3.079208 1_545
Bi11 Te15 3.306959 1_555
Bi11 Te4 3.402300 1_655
Bi12 Te8 3.055908 1_655
Bi12 Te17 3.166423 1_665
Bi12 Te18 3.173906 1_555
Bi12 Te11 3.253795 1_565
Bi12 Te3 3.383195 1_554
Bi13 Te8 3.050412 1_645
Bi13 Te10 3.106734 1_655
Bi13 Te12 3.113686 1_655
Bi13 Te22 3.285269 1_555
Bi13 Te21 3.350086 1_555
Bi13 Te11 3.377959 1_555
Te0 Yb0 3.548669 1_555
Te0 Yb1 3.564466 1_555
Te1 Yb1 3.136093 1_655
Te1 Yb0 3.198227 1_655
Te3 Yb2 3.199470 1_566
Te3 Yb0 3.243743 1_555
Te3 Yb1 3.387931 1_555
Te4 Yb1 3.425136 1_555
Te6 Yb1 3.635375 1_555
Te7 Yb1 3.170914 1_555
Te7 Yb0 3.345176 1_655
Te8 Yb2 3.535912 1_455
Te9 Yb1 3.189299 1_555
Te11 Yb2 3.141734 1_555
Te15 Yb1 3.243173 1_655
Te17 Yb0 3.231970 1_544
Te17 Yb2 3.499648 1_555
Te18 Yb2 3.170557 1_555
Te18 Yb0 3.342224 1_554
Te19 Yb2 3.237219 1_555
Te22 Yb2 3.727436 1_555
Te22 Yb0 3.737525 1_544
Te23 Yb0 3.142746 1_654
Te23 Yb2 3.372569 1_555
