# generated using pymatgen
data_YMgZn
_symmetry_space_group_name_H-M   'P 1'
_cell_length_a   7.49783198
_cell_length_b   7.49784157
_cell_length_c   4.17437004
_cell_angle_alpha   90.00000000
_cell_angle_beta   90.00000000
_cell_angle_gamma   120.00003904
_symmetry_Int_Tables_number   1
_chemical_formula_structural   YMgZn
_chemical_formula_sum   'Y3 Mg3 Zn3'
_cell_volume   203.23259814
_cell_formula_units_Z   3
loop_
 _symmetry_equiv_pos_site_id
 _symmetry_equiv_pos_as_xyz
  1  'x, y, z'
loop_
 _atom_site_type_symbol
 _atom_site_label
 _atom_site_symmetry_multiplicity
 _atom_site_fract_x
 _atom_site_fract_y
 _atom_site_fract_z
 _atom_site_occupancy
  Y  Y0  1  -0.00000000  0.58701088  0.00000000  1
  Y  Y1  1  0.41298912  0.41298912  0.00000000  1
  Y  Y2  1  0.58701088  0.00000000  -0.00000000  1
  Mg  Mg0  1  0.75662736  0.75662736  0.50000000  1
  Mg  Mg1  1  0.24337264  0.00000000  0.50000000  1
  Mg  Mg2  1  -0.00000000  0.24337264  0.50000000  1
  Zn  Zn0  1  0.66666700  0.33333300  0.50000000  1
  Zn  Zn1  1  -0.00000000  -0.00000000  -0.00000000  1
  Zn  Zn2  1  0.33333300  0.66666700  0.50000000  1
loop_
_geom_bond_atom_site_label_1
_geom_bond_atom_site_label_2
_geom_bond_distance
_geom_bond_site_symmetry_2
Y0 Zn2 3.076805 1_555
Y0 Zn2 3.076805 1_554
Y0 Zn0 3.076807 1_455
Y0 Zn0 3.076807 1_454
Y0 Zn1 3.096527 1_565
Y1 Zn0 3.076812 1_554
Y1 Zn0 3.076812 1_555
Y1 Zn2 3.076813 1_555
Y1 Zn2 3.076813 1_554
Y1 Zn1 3.096523 1_555
Y2 Zn0 3.076808 1_554
Y2 Zn0 3.076808 1_555
Y2 Zn2 3.076808 1_544
Y2 Zn2 3.076808 1_545
Y2 Zn1 3.096523 1_655
Mg0 Zn1 2.772385 1_666
Mg0 Zn1 2.772385 1_665
Mg0 Zn2 2.896058 1_555
Mg0 Zn0 2.896063 1_555
Mg0 Mg1 3.160588 1_665
Mg0 Mg2 3.160592 1_665
Mg0 Y1 3.315857 1_556
Mg0 Y1 3.315857 1_555
Mg0 Y0 3.409420 1_656
Mg0 Y0 3.409420 1_655
Mg0 Y2 3.409421 1_565
Mg0 Y2 3.409421 1_566
Mg1 Zn1 2.772385 1_556
Mg1 Zn1 2.772385 1_555
Mg1 Zn2 2.896055 1_545
Mg1 Zn0 2.896056 1_555
Mg1 Mg2 3.160592 1_555
Mg1 Y2 3.315857 1_556
Mg1 Y2 3.315857 1_555
Mg1 Y0 3.409421 1_545
Mg1 Y0 3.409421 1_546
Mg1 Y1 3.409421 1_556
Mg1 Y1 3.409421 1_555
Mg2 Zn1 2.772386 1_556
Mg2 Zn1 2.772386 1_555
Mg2 Zn0 2.896053 1_455
Mg2 Zn2 2.896058 1_555
Mg2 Y0 3.315860 1_556
Mg2 Y0 3.315860 1_555
Mg2 Y1 3.409418 1_556
Mg2 Y1 3.409418 1_555
Mg2 Y2 3.409418 1_456
Mg2 Y2 3.409418 1_455
