# generated using pymatgen
data_K3P2H(O3F)2
_symmetry_space_group_name_H-M   'P 1'
_cell_length_a   7.17173948
_cell_length_b   7.17173948
_cell_length_c   9.44805201
_cell_angle_alpha   77.94810621
_cell_angle_beta   77.94810621
_cell_angle_gamma   111.35332201
_symmetry_Int_Tables_number   1
_chemical_formula_structural   K3P2H(O3F)2
_chemical_formula_sum   'K6 P4 H2 O12 F4'
_cell_volume   420.41714530
_cell_formula_units_Z   2
loop_
 _symmetry_equiv_pos_site_id
 _symmetry_equiv_pos_as_xyz
  1  'x, y, z'
loop_
 _atom_site_type_symbol
 _atom_site_label
 _atom_site_symmetry_multiplicity
 _atom_site_fract_x
 _atom_site_fract_y
 _atom_site_fract_z
 _atom_site_occupancy
  K  K0  1  0.14000400  0.85119400  0.25405700  1
  K  K1  1  0.46250600  0.72132100  0.56331700  1
  K  K2  1  0.27713400  0.53762200  0.94003600  1
  K  K3  1  0.72132100  0.46250600  0.06331700  1
  K  K4  1  0.53762200  0.27713400  0.44003600  1
  K  K5  1  0.85119400  0.14000400  0.75405700  1
  P  P0  1  0.67465400  0.90743200  0.18261800  1
  P  P1  1  0.90743200  0.67465400  0.68261800  1
  P  P2  1  0.09754000  0.32335300  0.32114900  1
  P  P3  1  0.32335300  0.09754000  0.82114900  1
  H  H0  1  0.00535000  0.00143900  0.50100000  1
  H  H1  1  0.00143900  0.00535000  0.00100000  1
  O  O0  1  0.11302500  0.93398100  0.94643300  1
  O  O1  1  0.43979700  0.99290500  0.74106300  1
  O  O2  1  0.07626000  0.88191600  0.55850800  1
  O  O3  1  0.00284300  0.55138900  0.76827200  1
  O  O4  1  0.72078600  0.69901300  0.77144900  1
  O  O5  1  0.69901300  0.72078600  0.27144900  1
  O  O6  1  0.30226900  0.28334700  0.72774500  1
  O  O7  1  0.28334700  0.30226900  0.22774500  1
  O  O8  1  0.99290500  0.43979700  0.24106300  1
  O  O9  1  0.93398100  0.11302500  0.44643300  1
  O  O10  1  0.55138900  0.00284300  0.26827200  1
  O  O11  1  0.88191600  0.07626000  0.05850800  1
  F  F0  1  0.53157100  0.81110700  0.07563700  1
  F  F1  1  0.19498500  0.46525900  0.42671500  1
  F  F2  1  0.81110700  0.53157100  0.57563700  1
  F  F3  1  0.46525900  0.19498500  0.92671500  1
loop_
_geom_bond_atom_site_label_1
_geom_bond_atom_site_label_2
_geom_bond_distance
_geom_bond_site_symmetry_2
K0 O8 2.787778 1_455
K0 O10 2.791981 1_565
K0 O2 2.884525 1_555
K0 O0 2.904353 1_554
K0 O5 2.910146 1_455
K0 O7 2.952862 1_565
K1 O1 2.850108 1_555
K1 O6 2.861512 1_555
K1 O10 2.867724 1_565
K1 O5 2.921848 1_555
K1 O4 2.988157 1_555
K1 O3 3.086334 1_555
K1 O9 3.282097 1_565
K1 O2 3.369846 1_555
K2 O3 2.814362 1_555
K2 O7 2.903344 1_556
K2 O4 2.903826 1_555
K2 O8 2.905279 1_456
K2 O6 2.999465 1_555
K2 O1 3.050130 1_555
K2 O11 3.245538 1_456
K3 O8 2.850108 1_555
K3 O7 2.861512 1_555
K3 O3 2.867724 1_654
K3 O4 2.921848 1_554
K3 O5 2.988157 1_555
K3 O10 3.086334 1_555
K3 O0 3.282097 1_654
K3 O11 3.369846 1_555
K4 O10 2.814362 1_555
K4 O6 2.903344 1_555
K4 O5 2.903826 1_555
K4 O1 2.905279 1_545
K4 O7 2.999465 1_555
K4 O8 3.050130 1_555
K4 O2 3.245538 1_545
K5 O1 2.787778 1_545
K5 O3 2.791981 1_655
K5 O11 2.884525 1_556
K5 O9 2.904353 1_555
K5 O4 2.910146 1_545
K5 O6 2.952862 1_655
H0 O9 1.185072 1_455
H0 O2 1.235701 1_545
H0 K0 2.898938 1_545
H0 K5 2.935072 1_455
H1 O0 1.185072 1_544
H1 O11 1.235701 1_455
H1 K5 2.898938 1_454
H1 K0 2.935072 1_545
O0 P3 1.561544 1_565
O1 P3 1.504215 1_565
O2 P1 1.555337 1_455
O3 P1 1.509181 1_455
O4 P1 1.512969 1_555
O5 P0 1.512969 1_555
O6 P3 1.512859 1_555
O7 P2 1.512859 1_555
O8 P2 1.504215 1_655
O9 P2 1.561544 1_655
O10 P0 1.509181 1_545
O11 P0 1.555337 1_545
F0 P0 1.661427 1_555
F0 K2 2.870071 1_554
F0 K0 3.102236 1_555
F0 K5 3.195446 1_564
F0 K3 3.263248 1_555
F1 P2 1.648011 1_555
F1 K1 2.859559 1_555
F1 K0 3.107302 1_555
F1 K4 3.216687 1_555
F1 K5 3.271098 1_455
F2 P1 1.661427 1_555
F2 K4 2.870071 1_555
F2 K5 3.102236 1_555
F2 K0 3.195446 1_655
F2 K1 3.263248 1_555
F3 P3 1.648011 1_555
F3 K3 2.859559 1_556
F3 K5 3.107302 1_555
F3 K2 3.216687 1_555
F3 K0 3.271098 1_546
