# generated using pymatgen
data_Ce(SiAu2)2
_symmetry_space_group_name_H-M   'P 1'
_cell_length_a   4.32762500
_cell_length_b   4.32762500
_cell_length_c   27.67340600
_cell_angle_alpha   90.00000000
_cell_angle_beta   90.00000000
_cell_angle_gamma   90.00000000
_symmetry_Int_Tables_number   1
_chemical_formula_structural   Ce(SiAu2)2
_chemical_formula_sum   'Ce4 Si8 Au16'
_cell_volume   518.27690507
_cell_formula_units_Z   4
loop_
 _symmetry_equiv_pos_site_id
 _symmetry_equiv_pos_as_xyz
  1  'x, y, z'
loop_
 _atom_site_type_symbol
 _atom_site_label
 _atom_site_symmetry_multiplicity
 _atom_site_fract_x
 _atom_site_fract_y
 _atom_site_fract_z
 _atom_site_occupancy
  Ce  Ce0  1  0.00000000  0.50000000  0.74827300  1
  Ce  Ce1  1  0.50000000  0.00000000  0.25172700  1
  Ce  Ce2  1  0.50000000  0.50000000  0.00000000  1
  Ce  Ce3  1  0.50000000  0.50000000  0.50000000  1
  Si  Si0  1  0.00000000  0.00000000  0.95799000  1
  Si  Si1  1  0.00000000  0.00000000  0.45804600  1
  Si  Si2  1  0.50000000  0.00000000  0.79012100  1
  Si  Si3  1  0.50000000  0.00000000  0.70615300  1
  Si  Si4  1  0.00000000  0.50000000  0.20987900  1
  Si  Si5  1  0.00000000  0.50000000  0.29384700  1
  Si  Si6  1  0.00000000  0.00000000  0.04201000  1
  Si  Si7  1  0.00000000  0.00000000  0.54195400  1
  Au  Au0  1  0.50000000  0.00000000  0.08714900  1
  Au  Au1  1  0.50000000  0.50000000  0.66239700  1
  Au  Au2  1  0.50000000  0.50000000  0.83629800  1
  Au  Au3  1  0.00000000  0.50000000  0.08693400  1
  Au  Au4  1  0.50000000  0.00000000  0.91306600  1
  Au  Au5  1  0.00000000  0.00000000  0.66180400  1
  Au  Au6  1  0.00000000  0.50000000  0.41278600  1
  Au  Au7  1  0.50000000  0.50000000  0.33760300  1
  Au  Au8  1  0.50000000  0.00000000  0.41311800  1
  Au  Au9  1  0.00000000  0.00000000  0.33819600  1
  Au  Au10  1  0.00000000  0.00000000  0.16302200  1
  Au  Au11  1  0.50000000  0.00000000  0.58721400  1
  Au  Au12  1  0.00000000  0.00000000  0.83697800  1
  Au  Au13  1  0.50000000  0.50000000  0.16370200  1
  Au  Au14  1  0.00000000  0.50000000  0.58688200  1
  Au  Au15  1  0.00000000  0.50000000  0.91285100  1
loop_
_geom_bond_atom_site_label_1
_geom_bond_atom_site_label_2
_geom_bond_distance
_geom_bond_site_symmetry_2
Ce0 Si2 3.271897 1_555
Ce0 Si2 3.271897 1_465
Ce0 Si2 3.271897 1_455
Ce0 Si2 3.271897 1_565
Ce0 Si3 3.274569 1_565
Ce0 Si3 3.274569 1_465
Ce0 Si3 3.274569 1_555
Ce0 Si3 3.274569 1_455
Ce1 Si4 3.271897 1_645
Ce1 Si4 3.271897 1_545
Ce1 Si4 3.271897 1_655
Ce1 Si4 3.271897 1_555
Ce1 Si5 3.274569 1_545
Ce1 Si5 3.274569 1_645
Ce1 Si5 3.274569 1_555
Ce1 Si5 3.274569 1_655
Ce2 Si6 3.273487 1_565
Ce2 Si6 3.273487 1_665
Ce2 Si6 3.273487 1_655
Ce2 Si0 3.273487 1_564
Ce2 Si6 3.273487 1_555
Ce2 Si0 3.273487 1_654
Ce2 Si0 3.273487 1_664
Ce2 Si0 3.273487 1_554
Ce3 Si1 3.272937 1_555
Ce3 Si1 3.272937 1_655
Ce3 Si1 3.272937 1_565
Ce3 Si1 3.272937 1_665
Ce3 Si7 3.272937 1_555
Ce3 Si7 3.272937 1_565
Ce3 Si7 3.272937 1_655
Ce3 Si7 3.272937 1_665
Si0 Si6 2.325120 1_556
Si1 Si7 2.322020 1_555
Si2 Si3 2.323681 1_555
Si4 Si5 2.323681 1_555
Au0 Si6 2.498492 1_655
Au0 Si6 2.498492 1_555
Au0 Ce2 3.240128 1_555
Au0 Ce2 3.240128 1_545
Au1 Si3 2.479578 1_555
Au1 Si3 2.479578 1_565
Au1 Ce0 3.213993 1_555
Au1 Ce0 3.213993 1_655
Au2 Si2 2.512976 1_565
Au2 Si2 2.512976 1_555
Au2 Ce0 3.258212 1_555
Au2 Ce0 3.258212 1_655
Au3 Si6 2.495522 1_555
Au3 Si6 2.495522 1_565
Au3 Ce2 3.235702 1_555
Au3 Ce2 3.235702 1_455
Au4 Si0 2.495522 1_655
Au4 Si0 2.495522 1_555
Au4 Ce2 3.235702 1_546
Au4 Ce2 3.235702 1_556
Au5 Si3 2.487633 1_555
Au5 Si3 2.487633 1_455
Au5 Ce0 3.226146 1_555
Au5 Ce0 3.226146 1_545
Au6 Si1 2.500167 1_565
Au6 Si1 2.500167 1_555
Au6 Ce3 3.241467 1_555
Au6 Ce3 3.241467 1_455
Au7 Si5 2.479578 1_555
Au7 Si5 2.479578 1_655
Au7 Ce1 3.213993 1_565
Au7 Ce1 3.213993 1_555
Au8 Si1 2.495577 1_555
Au8 Si1 2.495577 1_655
Au8 Ce3 3.234632 1_545
Au8 Ce3 3.234632 1_555
Au9 Si5 2.487633 1_545
Au9 Si5 2.487633 1_555
Au9 Ce1 3.226146 1_555
Au9 Ce1 3.226146 1_455
Au10 Si4 2.522597 1_545
Au10 Si4 2.522597 1_555
Au10 Ce1 3.272305 1_555
Au10 Ce1 3.272305 1_455
Au11 Si7 2.500167 1_655
Au11 Si7 2.500167 1_555
Au11 Ce3 3.241467 1_545
Au11 Ce3 3.241467 1_555
Au12 Si2 2.522597 1_555
Au12 Si2 2.522597 1_455
Au12 Ce0 3.272305 1_555
Au12 Ce0 3.272305 1_545
Au13 Si4 2.512976 1_555
Au13 Si4 2.512976 1_655
Au13 Ce1 3.258212 1_565
Au13 Ce1 3.258212 1_555
Au14 Si7 2.495577 1_565
Au14 Si7 2.495577 1_555
Au14 Ce3 3.234632 1_555
Au14 Ce3 3.234632 1_455
Au15 Si0 2.498492 1_565
Au15 Si0 2.498492 1_555
Au15 Ce2 3.240128 1_556
Au15 Ce2 3.240128 1_456
