# generated using pymatgen
data_Al(HO)3
_symmetry_space_group_name_H-M   'P 1'
_cell_length_a   4.96907000
_cell_length_b   5.08269134
_cell_length_c   5.18657721
_cell_angle_alpha   100.17156278
_cell_angle_beta   101.78427352
_cell_angle_gamma   117.19748195
_symmetry_Int_Tables_number   1
_chemical_formula_structural   Al(HO)3
_chemical_formula_sum   'Al2 H6 O6'
_cell_volume   108.43490085
_cell_formula_units_Z   2
loop_
 _symmetry_equiv_pos_site_id
 _symmetry_equiv_pos_as_xyz
  1  'x, y, z'
loop_
 _atom_site_type_symbol
 _atom_site_label
 _atom_site_symmetry_multiplicity
 _atom_site_fract_x
 _atom_site_fract_y
 _atom_site_fract_z
 _atom_site_occupancy
  Al  Al0  1  0.67337700  0.34141900  0.99960100  1
  Al  Al1  1  0.34335600  0.69718200  0.00352100  1
  H  H0  1  0.22670500  0.86296700  0.58524500  1
  H  H1  1  0.79618700  0.16864300  0.40910300  1
  H  H2  1  0.73765900  0.73121600  0.76158000  1
  H  H3  1  0.45275000  0.46033000  0.38852600  1
  H  H4  1  0.00632300  0.16117500  0.80361500  1
  H  H5  1  0.04487300  0.90395000  0.21367900  1
  O  O0  1  0.28308200  0.94688100  0.78867000  1
  O  O1  1  0.72637200  0.08772400  0.20414700  1
  O  O2  1  0.54763800  0.55919200  0.77321400  1
  O  O3  1  0.45750900  0.46718900  0.20132300  1
  O  O4  1  0.93488500  0.30944500  0.78093100  1
  O  O5  1  0.08243300  0.73020100  0.21361700  1
loop_
_geom_bond_atom_site_label_1
_geom_bond_atom_site_label_2
_geom_bond_distance
_geom_bond_site_symmetry_2
Al0 O3 1.871595 1_556
Al0 O1 1.880685 1_556
Al0 O4 1.931629 1_555
Al0 O0 1.944954 1_545
Al0 O2 1.945712 1_555
Al0 O5 1.974991 1_656
Al1 O3 1.879575 1_555
Al1 O5 1.899469 1_555
Al1 O0 1.911240 1_554
Al1 O1 1.911386 1_565
Al1 O2 1.949187 1_554
Al1 O4 1.979698 1_454
H0 O0 0.992318 1_555
H1 O1 0.991990 1_555
H2 O2 0.973095 1_555
H3 O3 0.982387 1_555
H4 O4 0.983148 1_455
H5 O5 0.982504 1_555
