# generated using pymatgen
data_ZnH8C4(NO3)2
_symmetry_space_group_name_H-M   'P 1'
_cell_length_a   8.75696500
_cell_length_b   10.81890000
_cell_length_c   10.95019700
_cell_angle_alpha   90.00000000
_cell_angle_beta   90.00000000
_cell_angle_gamma   90.00000000
_symmetry_Int_Tables_number   1
_chemical_formula_structural   ZnH8C4(NO3)2
_chemical_formula_sum   'Zn4 H32 C16 N8 O24'
_cell_volume   1037.42964252
_cell_formula_units_Z   4
loop_
 _symmetry_equiv_pos_site_id
 _symmetry_equiv_pos_as_xyz
  1  'x, y, z'
loop_
 _atom_site_type_symbol
 _atom_site_label
 _atom_site_symmetry_multiplicity
 _atom_site_fract_x
 _atom_site_fract_y
 _atom_site_fract_z
 _atom_site_occupancy
  Zn  Zn0  1  0.79197100  0.75000000  0.75000000  1
  Zn  Zn1  1  0.70802900  0.25000000  0.75000000  1
  Zn  Zn2  1  0.20802900  0.25000000  0.25000000  1
  Zn  Zn3  1  0.29197100  0.75000000  0.25000000  1
  H  H0  1  0.25000000  0.50000000  0.05834800  1
  H  H1  1  0.58885800  0.68758900  0.46293900  1
  H  H2  1  0.25000000  0.00000000  0.44165200  1
  H  H3  1  0.75000000  0.50000000  0.00959900  1
  H  H4  1  0.08885800  0.81241100  0.96293900  1
  H  H5  1  0.85212300  0.49784700  0.77903200  1
  H  H6  1  0.54910200  0.12235200  0.38943100  1
  H  H7  1  0.04910200  0.37764800  0.88943100  1
  H  H8  1  0.64787700  0.50215300  0.77903200  1
  H  H9  1  0.08885800  0.68758900  0.53706100  1
  H  H10  1  0.85212300  0.00215300  0.72096800  1
  H  H11  1  0.45089800  0.87764800  0.61056900  1
  H  H12  1  0.91114200  0.18758900  0.03706100  1
  H  H13  1  0.45089800  0.62235200  0.88943100  1
  H  H14  1  0.64787700  0.99784700  0.72096800  1
  H  H15  1  0.14787700  0.99784700  0.27903200  1
  H  H16  1  0.41114200  0.31241100  0.53706100  1
  H  H17  1  0.35212300  0.00215300  0.27903200  1
  H  H18  1  0.95089800  0.62235200  0.11056900  1
  H  H19  1  0.35212300  0.49784700  0.22096800  1
  H  H20  1  0.25000000  0.50000000  0.99040100  1
  H  H21  1  0.91114200  0.31241100  0.46293900  1
  H  H22  1  0.75000000  0.00000000  0.55834800  1
  H  H23  1  0.75000000  0.50000000  0.94165200  1
  H  H24  1  0.25000000  0.00000000  0.50959900  1
  H  H25  1  0.58885800  0.81241100  0.03706100  1
  H  H26  1  0.75000000  0.00000000  0.49040100  1
  H  H27  1  0.95089800  0.87764800  0.38943100  1
  H  H28  1  0.54910200  0.37764800  0.11056900  1
  H  H29  1  0.04910200  0.12235200  0.61056900  1
  H  H30  1  0.41114200  0.18758900  0.96293900  1
  H  H31  1  0.14787700  0.50215300  0.22096800  1
  C  C0  1  0.75000000  0.00000000  0.17501800  1
  C  C1  1  0.75000000  0.50000000  0.32498200  1
  C  C2  1  0.25000000  0.50000000  0.67501800  1
  C  C3  1  0.75000000  0.00000000  0.78261000  1
  C  C4  1  0.48252700  0.27025500  0.97700100  1
  C  C5  1  0.48252700  0.22974500  0.52299900  1
  C  C6  1  0.51747300  0.72974500  0.02299900  1
  C  C7  1  0.25000000  0.00000000  0.82498200  1
  C  C8  1  0.51747300  0.77025500  0.47700100  1
  C  C9  1  0.01747300  0.72974500  0.97700100  1
  C  C10  1  0.98252700  0.22974500  0.47700100  1
  C  C11  1  0.01747300  0.77025500  0.52299900  1
  C  C12  1  0.25000000  0.50000000  0.28261000  1
  C  C13  1  0.75000000  0.50000000  0.71739000  1
  C  C14  1  0.98252700  0.27025500  0.02299900  1
  C  C15  1  0.25000000  0.00000000  0.21739000  1
  N  N0  1  0.18598900  0.46463500  0.78525300  1
  N  N1  1  0.31401100  0.53536500  0.78525300  1
  N  N2  1  0.81401100  0.53536500  0.21474700  1
  N  N3  1  0.31401100  0.96463500  0.71474700  1
  N  N4  1  0.18598900  0.03536500  0.71474700  1
  N  N5  1  0.68598900  0.03536500  0.28525300  1
  N  N6  1  0.68598900  0.46463500  0.21474700  1
  N  N7  1  0.81401100  0.96463500  0.28525300  1
  O  O0  1  0.97727600  0.30808000  0.90789300  1
  O  O1  1  0.24550700  0.39138000  0.34907500  1
  O  O2  1  0.74550700  0.39138000  0.65092500  1
  O  O3  1  0.44363400  0.82225800  0.39563700  1
  O  O4  1  0.47727600  0.30808000  0.09210700  1
  O  O5  1  0.05636600  0.32225800  0.10436300  1
  O  O6  1  0.25449300  0.89138000  0.15092500  1
  O  O7  1  0.75449300  0.89138000  0.84907500  1
  O  O8  1  0.97727600  0.19192000  0.59210700  1
  O  O9  1  0.52272400  0.69192000  0.90789300  1
  O  O10  1  0.02272400  0.80808000  0.40789300  1
  O  O11  1  0.47727600  0.19192000  0.40789300  1
  O  O12  1  0.52272400  0.80808000  0.59210700  1
  O  O13  1  0.94363400  0.82225800  0.60436300  1
  O  O14  1  0.05636600  0.17774200  0.39563700  1
  O  O15  1  0.74550700  0.10862000  0.84907500  1
  O  O16  1  0.55636600  0.17774200  0.60436300  1
  O  O17  1  0.55636600  0.32225800  0.89563700  1
  O  O18  1  0.25449300  0.60862000  0.34907500  1
  O  O19  1  0.02272400  0.69192000  0.09210700  1
  O  O20  1  0.24550700  0.10862000  0.15092500  1
  O  O21  1  0.44363400  0.67774200  0.10436300  1
  O  O22  1  0.75449300  0.60862000  0.65092500  1
  O  O23  1  0.94363400  0.67774200  0.89563700  1
loop_
_geom_bond_atom_site_label_1
_geom_bond_atom_site_label_2
_geom_bond_distance
_geom_bond_site_symmetry_2
H0 H20 0.744033 1_554
H2 H24 0.744033 1_555
H6 O11 1.001481 1_555
H7 O0 1.001481 1_455
H11 O12 1.001481 1_555
H13 O9 1.001481 1_555
H18 O19 1.001481 1_655
H22 H26 0.744033 1_555
H23 H3 0.744033 1_556
H27 O10 1.001481 1_655
H28 O4 1.001481 1_555
H29 O8 1.001481 1_455
C0 N7 1.384802 1_545
C0 N5 1.384802 1_555
C1 N6 1.384802 1_555
C1 N2 1.384802 1_555
C2 N1 1.384802 1_555
C2 N0 1.384802 1_555
C3 H14 1.120673 1_545
C3 H10 1.120673 1_555
C3 O15 1.382831 1_555
C3 O7 1.382831 1_545
C4 H30 1.101976 1_555
C4 O17 1.236297 1_555
C4 O4 1.325998 1_556
C5 H16 1.101976 1_555
C5 O16 1.236297 1_555
C5 O11 1.325998 1_555
C6 H25 1.101976 1_555
C6 O21 1.236297 1_555
C6 O9 1.325998 1_554
C7 N4 1.384802 1_555
C7 N3 1.384802 1_545
C8 H1 1.101976 1_555
C8 O3 1.236297 1_555
C8 O12 1.325998 1_555
C9 H4 1.101976 1_555
C9 O23 1.236297 1_455
C9 O19 1.325998 1_556
C10 H21 1.101976 1_555
C10 O14 1.236297 1_655
C10 O8 1.325998 1_555
C11 H9 1.101976 1_555
C11 O13 1.236297 1_455
C11 O10 1.325998 1_555
C12 H31 1.120673 1_555
C12 H19 1.120673 1_555
C12 O1 1.382831 1_555
C12 O18 1.382831 1_555
C13 H8 1.120673 1_555
C13 H5 1.120673 1_555
C13 O2 1.382831 1_555
C13 O22 1.382831 1_555
C14 H12 1.101976 1_555
C14 O5 1.236297 1_655
C14 O0 1.325998 1_554
C15 H15 1.120673 1_545
C15 H17 1.120673 1_555
C15 O20 1.382831 1_555
C15 O6 1.382831 1_545
N0 N1 1.357348 1_555
N2 N6 1.357348 1_555
N3 N4 1.357348 1_565
N5 N7 1.357348 1_545
O1 Zn2 1.903760 1_555
O2 Zn1 1.903760 1_555
O3 Zn3 2.217712 1_555
O5 Zn2 2.217712 1_555
O6 Zn3 1.903760 1_555
O7 Zn0 1.903760 1_555
O13 Zn0 2.217712 1_555
O14 Zn2 2.217712 1_555
O15 Zn1 1.903760 1_555
O16 Zn1 2.217712 1_555
O17 Zn1 2.217712 1_555
O18 Zn3 1.903760 1_555
O20 Zn2 1.903760 1_555
O21 Zn3 2.217712 1_555
O22 Zn0 1.903760 1_555
O23 Zn0 2.217712 1_555
