# generated using pymatgen
data_Cs2TeO4
_symmetry_space_group_name_H-M   'P 1'
_cell_length_a   6.68130613
_cell_length_b   8.53800106
_cell_length_c   11.70049720
_cell_angle_alpha   90.00000000
_cell_angle_beta   90.00000000
_cell_angle_gamma   90.00000000
_symmetry_Int_Tables_number   1
_chemical_formula_structural   Cs2TeO4
_chemical_formula_sum   'Cs8 Te4 O16'
_cell_volume   667.45484897
_cell_formula_units_Z   4
loop_
 _symmetry_equiv_pos_site_id
 _symmetry_equiv_pos_as_xyz
  1  'x, y, z'
loop_
 _atom_site_type_symbol
 _atom_site_label
 _atom_site_symmetry_multiplicity
 _atom_site_fract_x
 _atom_site_fract_y
 _atom_site_fract_z
 _atom_site_occupancy
  Cs  Cs0  1  0.75000000  0.66740708  0.41686182  1
  Cs  Cs1  1  0.25000000  0.00149153  0.28767696  1
  Cs  Cs2  1  0.75000000  0.99850847  0.71232304  1
  Cs  Cs3  1  0.25000000  0.33259292  0.58313818  1
  Cs  Cs4  1  0.25000000  0.50149153  0.21232304  1
  Cs  Cs5  1  0.25000000  0.83259292  0.91686182  1
  Cs  Cs6  1  0.75000000  0.16740708  0.08313818  1
  Cs  Cs7  1  0.75000000  0.49850847  0.78767696  1
  Te  Te0  1  0.75000000  0.71941726  0.07899461  1
  Te  Te1  1  0.75000000  0.21941726  0.42100539  1
  Te  Te2  1  0.25000000  0.28058274  0.92100539  1
  Te  Te3  1  0.25000000  0.78058274  0.57899461  1
  O  O0  1  0.75000000  0.30713960  0.56372988  1
  O  O1  1  0.52724726  0.78848172  0.15412581  1
  O  O2  1  0.25000000  0.49359620  0.92888813  1
  O  O3  1  0.25000000  0.99359620  0.57111187  1
  O  O4  1  0.47275274  0.21151828  0.84587419  1
  O  O5  1  0.75000000  0.80713960  0.93627012  1
  O  O6  1  0.25000000  0.19286040  0.06372988  1
  O  O7  1  0.47275274  0.71151828  0.65412581  1
  O  O8  1  0.02724726  0.21151828  0.84587419  1
  O  O9  1  0.97275274  0.78848172  0.15412581  1
  O  O10  1  0.97275274  0.28848172  0.34587419  1
  O  O11  1  0.75000000  0.50640380  0.07111187  1
  O  O12  1  0.52724726  0.28848172  0.34587419  1
  O  O13  1  0.02724726  0.71151828  0.65412581  1
  O  O14  1  0.25000000  0.69286040  0.43627012  1
  O  O15  1  0.75000000  0.00640380  0.42888813  1
loop_
_geom_bond_atom_site_label_1
_geom_bond_atom_site_label_2
_geom_bond_distance
_geom_bond_site_symmetry_2
Cs0 O15 2.897773 1_565
Cs0 O14 3.355407 1_655
Cs0 O14 3.355407 1_555
Cs0 O7 3.358556 1_555
Cs0 O13 3.358556 1_655
Cs0 O0 3.523429 1_555
Cs0 O9 3.568464 1_555
Cs0 O1 3.568464 1_555
Cs0 O12 3.656747 1_555
Cs0 O10 3.656747 1_555
Cs1 O1 3.029958 1_545
Cs1 O9 3.029958 1_445
Cs1 O6 3.087974 1_555
Cs1 O10 3.146275 1_455
Cs1 O12 3.146275 1_555
Cs1 O14 3.156975 1_545
Cs1 O3 3.317014 1_545
Cs2 O8 3.029958 1_665
Cs2 O4 3.029958 1_565
Cs2 O5 3.087974 1_555
Cs2 O7 3.146275 1_555
Cs2 O13 3.146275 1_655
Cs2 O0 3.156975 1_565
Cs2 O15 3.317014 1_565
Cs3 O3 2.897773 1_545
Cs3 O0 3.355407 1_455
Cs3 O0 3.355407 1_555
Cs3 O10 3.358556 1_455
Cs3 O12 3.358556 1_555
Cs3 O14 3.523429 1_555
Cs3 O8 3.568464 1_555
Cs3 O4 3.568464 1_555
Cs3 O7 3.656747 1_555
Cs3 O13 3.656747 1_555
Cs4 O12 3.029958 1_555
Cs4 O10 3.029958 1_455
Cs4 O14 3.087974 1_555
Cs4 O9 3.146275 1_455
Cs4 O1 3.146275 1_555
Cs4 O6 3.156975 1_555
Cs4 O2 3.317014 1_554
Cs5 O2 2.897773 1_555
Cs5 O5 3.355407 1_455
Cs5 O5 3.355407 1_555
Cs5 O9 3.358556 1_456
Cs5 O1 3.358556 1_556
Cs5 O6 3.523429 1_566
Cs5 O13 3.568464 1_555
Cs5 O7 3.568464 1_555
Cs5 O8 3.656747 1_565
Cs5 O4 3.656747 1_565
Cs6 O11 2.897773 1_555
Cs6 O6 3.355407 1_655
Cs6 O6 3.355407 1_555
Cs6 O8 3.358556 1_654
Cs6 O4 3.358556 1_554
Cs6 O5 3.523429 1_544
Cs6 O10 3.568464 1_555
Cs6 O12 3.568464 1_555
Cs6 O1 3.656747 1_545
Cs6 O9 3.656747 1_545
Cs7 O13 3.029958 1_655
Cs7 O7 3.029958 1_555
Cs7 O0 3.087974 1_555
Cs7 O8 3.146275 1_655
Cs7 O4 3.146275 1_555
Cs7 O5 3.156975 1_555
Cs7 O11 3.317014 1_556
O0 Te1 1.830215 1_555
O1 Te0 1.826323 1_555
O2 Te2 1.821046 1_555
O3 Te3 1.821046 1_555
O4 Te2 1.826323 1_555
O5 Te0 1.830215 1_556
O6 Te2 1.830215 1_554
O7 Te3 1.826323 1_555
O8 Te2 1.826323 1_555
O9 Te0 1.826323 1_555
O10 Te1 1.826323 1_555
O11 Te0 1.821046 1_555
O12 Te1 1.826323 1_555
O13 Te3 1.826323 1_555
O14 Te3 1.830215 1_555
O15 Te1 1.821046 1_555
