# generated using pymatgen
data_Ca10Mg7Al6Si17O60
_symmetry_space_group_name_H-M   'P 1'
_cell_length_a   5.31594300
_cell_length_b   6.63168283
_cell_length_c   32.49377216
_cell_angle_alpha   86.15359045
_cell_angle_beta   87.50549156
_cell_angle_gamma   78.15416118
_symmetry_Int_Tables_number   1
_chemical_formula_structural   Ca10Mg7Al6Si17O60
_chemical_formula_sum   'Ca10 Mg7 Al6 Si17 O60'
_cell_volume   1118.08357180
_cell_formula_units_Z   1
loop_
 _symmetry_equiv_pos_site_id
 _symmetry_equiv_pos_as_xyz
  1  'x, y, z'
loop_
 _atom_site_type_symbol
 _atom_site_label
 _atom_site_symmetry_multiplicity
 _atom_site_fract_x
 _atom_site_fract_y
 _atom_site_fract_z
 _atom_site_occupancy
  Ca  Ca0  1  0.30512700  0.70005200  0.05963400  1
  Ca  Ca1  1  0.51109000  0.69926000  0.26088900  1
  Ca  Ca2  1  0.71183400  0.70001900  0.46094800  1
  Ca  Ca3  1  0.88937900  0.30008900  0.14032200  1
  Ca  Ca4  1  0.91097400  0.70203800  0.66200500  1
  Ca  Ca5  1  0.09056100  0.30115800  0.34029300  1
  Ca  Ca6  1  0.11008700  0.68542100  0.86118200  1
  Ca  Ca7  1  0.29233600  0.29913900  0.53979400  1
  Ca  Ca8  1  0.49068400  0.29973700  0.73821400  1
  Ca  Ca9  1  0.67990900  0.31814500  0.93715300  1
  Mg  Mg0  1  0.43097600  0.08914100  0.18165300  1
  Mg  Mg1  1  0.63201500  0.09053200  0.38175800  1
  Mg  Mg2  1  0.83708800  0.09036100  0.58201900  1
  Mg  Mg3  1  0.76232800  0.90955100  0.01615000  1
  Mg  Mg4  1  0.96778800  0.90624000  0.21853800  1
  Mg  Mg5  1  0.16891700  0.90706400  0.41860200  1
  Mg  Mg6  1  0.37991800  0.91141800  0.62055900  1
  Al  Al0  1  0.03348800  0.09510300  0.78229500  1
  Al  Al1  1  0.23166200  0.09904400  0.98013700  1
  Al  Al2  1  0.44779800  0.80862500  0.72582700  1
  Al  Al3  1  0.61912700  0.38054200  0.83731100  1
  Al  Al4  1  0.56937000  0.90226700  0.81864200  1
  Al  Al5  1  0.63537600  0.81920900  0.92190600  1
  Si  Si0  1  0.33994100  0.19313200  0.07481900  1
  Si  Si1  1  0.38961300  0.61903900  0.16132600  1
  Si  Si2  1  0.54455900  0.19191100  0.27588800  1
  Si  Si3  1  0.59253700  0.61959200  0.36152300  1
  Si  Si4  1  0.74578800  0.19229700  0.47565300  1
  Si  Si5  1  0.81067900  0.37945700  0.03766500  1
  Si  Si6  1  0.79546600  0.61974200  0.56172900  1
  Si  Si7  1  0.95709800  0.19116900  0.67722600  1
  Si  Si8  1  0.85045200  0.80759300  0.12340700  1
  Si  Si9  1  0.00696000  0.37922000  0.23833500  1
  Si  Si10  1  0.98564200  0.60893900  0.76121500  1
  Si  Si11  1  0.15271600  0.19513400  0.87786800  1
  Si  Si12  1  0.05447800  0.80761000  0.32391200  1
  Si  Si13  1  0.20743800  0.38020200  0.43810800  1
  Si  Si14  1  0.18054000  0.61982500  0.96057700  1
  Si  Si15  1  0.25659800  0.80746200  0.52423900  1
  Si  Si16  1  0.41555000  0.38076200  0.63837200  1
  O  O0  1  0.06607200  0.37364700  0.06684700  1
  O  O1  1  0.29926300  0.10620400  0.12125900  1
  O  O2  1  0.27094700  0.37067700  0.26569800  1
  O  O3  1  0.38039500  0.03632400  0.03737300  1
  O  O4  1  0.33498400  0.79529800  0.19438400  1
  O  O5  1  0.49749300  0.11078100  0.32243200  1
  O  O6  1  0.47156000  0.37079400  0.46559200  1
  O  O7  1  0.49827000  0.38390500  0.17670600  1
  O  O8  1  0.59875300  0.02689900  0.24030200  1
  O  O9  1  0.57825900  0.32613500  0.07195100  1
  O  O10  1  0.53610400  0.79597900  0.39450000  1
  O  O11  1  0.70083100  0.11073400  0.52231100  1
  O  O12  1  0.61879100  0.66674200  0.12560400  1
  O  O13  1  0.67768800  0.36129200  0.66764900  1
  O  O14  1  0.70206000  0.38473300  0.37691300  1
  O  O15  1  0.79949900  0.02736400  0.44016000  1
  O  O16  1  0.69613300  0.61352800  0.02202300  1
  O  O17  1  0.77843500  0.33050100  0.27376700  1
  O  O18  1  0.88760100  0.20008100  0.00451800  1
  O  O19  1  0.74295100  0.79719900  0.59457600  1
  O  O20  1  0.92690900  0.12012000  0.72594400  1
  O  O21  1  0.82064500  0.66917900  0.32560200  1
  O  O22  1  0.88697900  0.36859400  0.86912900  1
  O  O23  1  0.90640400  0.38534200  0.57733000  1
  O  O24  1  0.79887600  0.97263000  0.15872200  1
  O  O25  1  0.00853300  0.02520100  0.64222300  1
  O  O26  1  0.89585300  0.61264800  0.22176200  1
  O  O27  1  0.97877400  0.33152400  0.47350000  1
  O  O28  1  0.89143500  0.88651000  0.07619200  1
  O  O29  1  0.06323000  0.20226500  0.20511000  1
  O  O30  1  0.92356900  0.80334400  0.79298100  1
  O  O31  1  0.10304700  0.10988700  0.92594200  1
  O  O32  1  0.02303200  0.66855200  0.52565300  1
  O  O33  1  0.09770400  0.37440500  0.78126200  1
  O  O34  1  0.00069500  0.97353200  0.35892200  1
  O  O35  1  0.20379600  0.02933600  0.84066800  1
  O  O36  1  0.09656400  0.61347700  0.42152500  1
  O  O37  1  0.12701000  0.63096000  0.13302200  1
  O  O38  1  0.18373000  0.33390800  0.67368600  1
  O  O39  1  0.10142200  0.88665200  0.27683400  1
  O  O40  1  0.26420000  0.20281900  0.40508000  1
  O  O41  1  0.13842600  0.80806600  0.99317800  1
  O  O42  1  0.20806800  0.65439300  0.72675100  1
  O  O43  1  0.28556100  0.38293200  0.97992900  1
  O  O44  1  0.20401800  0.97279100  0.55947200  1
  O  O45  1  0.31088200  0.61662800  0.62351300  1
  O  O46  1  0.32959400  0.62972100  0.33337900  1
  O  O47  1  0.38419600  0.32521900  0.87604400  1
  O  O48  1  0.30212200  0.88702200  0.47718900  1
  O  O49  1  0.46915100  0.20867500  0.60458700  1
  O  O50  1  0.40274700  0.65925500  0.92554900  1
  O  O51  1  0.37836000  0.97808800  0.76730300  1
  O  O52  1  0.49839000  0.63791300  0.82210700  1
  O  O53  1  0.53218500  0.62954700  0.53365500  1
  O  O54  1  0.51995900  0.91140700  0.67803000  1
  O  O55  1  0.69404000  0.17606100  0.80336000  1
  O  O56  1  0.56595700  0.99692100  0.96100400  1
  O  O57  1  0.72811800  0.60752400  0.73562100  1
  O  O58  1  0.69696000  0.89093100  0.87077500  1
  O  O59  1  0.91888300  0.62996700  0.93520800  1
loop_
_geom_bond_atom_site_label_1
_geom_bond_atom_site_label_2
_geom_bond_distance
_geom_bond_site_symmetry_2
Ca0 O28 2.350451 1_455
Ca0 O16 2.350864 1_555
Ca0 O41 2.379050 1_554
Ca0 O3 2.404405 1_565
Ca0 O37 2.574497 1_555
Ca0 O9 2.618495 1_555
Ca0 O0 2.718602 1_555
Ca0 O12 2.742362 1_555
Ca1 O39 2.330781 1_555
Ca1 O26 2.349294 1_555
Ca1 O8 2.362050 1_565
Ca1 O4 2.387178 1_555
Ca1 O46 2.555566 1_555
Ca1 O17 2.581259 1_555
Ca1 O21 2.698057 1_555
Ca1 O2 2.735217 1_555
Ca2 O48 2.332163 1_555
Ca2 O36 2.354119 1_655
Ca2 O15 2.361619 1_565
Ca2 O10 2.384685 1_555
Ca2 O53 2.559429 1_555
Ca2 O27 2.577758 1_555
Ca2 O32 2.702408 1_655
Ca2 O6 2.739533 1_555
Ca3 O7 2.330049 1_555
Ca3 O29 2.333847 1_655
Ca3 O24 2.352553 1_545
Ca3 O1 2.371448 1_655
Ca3 O0 2.580106 1_655
Ca3 O12 2.584188 1_555
Ca3 O37 2.740211 1_655
Ca3 O9 2.802129 1_555
Ca4 O54 2.310302 1_555
Ca4 O25 2.348950 1_665
Ca4 O19 2.397930 1_555
Ca4 O45 2.402879 1_655
Ca4 O38 2.583946 1_655
Ca4 O57 2.627982 1_555
Ca4 O42 2.648670 1_655
Ca4 O13 2.784427 1_555
Ca5 O14 2.322278 1_455
Ca5 O40 2.333860 1_555
Ca5 O5 2.340529 1_555
Ca5 O34 2.353684 1_545
Ca5 O21 2.590134 1_455
Ca5 O2 2.614669 1_555
Ca5 O46 2.731123 1_555
Ca5 O17 2.754459 1_455
Ca6 O52 2.351769 1_555
Ca6 O58 2.355055 1_455
Ca6 O35 2.475443 1_565
Ca6 O30 2.479158 1_455
Ca6 O47 2.557348 1_555
Ca6 O59 2.603115 1_455
Ca6 O22 2.609903 1_455
Ca6 O50 2.636041 1_555
Ca7 O23 2.327592 1_455
Ca7 O49 2.333938 1_555
Ca7 O11 2.339512 1_555
Ca7 O44 2.349163 1_545
Ca7 O32 2.593959 1_555
Ca7 O6 2.603679 1_555
Ca7 O53 2.744612 1_555
Ca7 O27 2.751081 1_455
Ca8 O20 2.409257 1_555
Ca8 O55 2.434044 1_555
Ca8 O33 2.445372 1_555
Ca8 O51 2.450154 1_545
Ca8 O13 2.500997 1_555
Ca8 O42 2.531414 1_555
Ca8 O57 2.606124 1_555
Ca8 O38 2.681905 1_555
Ca9 O56 2.402708 1_545
Ca9 O31 2.412586 1_655
Ca9 O43 2.442923 1_555
Ca9 O50 2.448633 1_555
Ca9 O22 2.459572 1_555
Ca9 O18 2.499804 1_556
Ca9 O47 2.577820 1_555
Ca9 O59 2.635922 1_555
Mg0 O7 2.053026 1_555
Mg0 O24 2.075354 1_545
Mg0 O29 2.076140 1_555
Mg0 O1 2.100350 1_555
Mg0 O8 2.118707 1_555
Mg0 O4 2.123812 1_545
Mg1 O14 2.054744 1_555
Mg1 O5 2.071566 1_555
Mg1 O40 2.073857 1_555
Mg1 O34 2.078484 1_645
Mg1 O15 2.111100 1_555
Mg1 O10 2.128166 1_545
Mg2 O23 2.058363 1_555
Mg2 O44 2.068157 1_645
Mg2 O49 2.073965 1_555
Mg2 O11 2.086632 1_555
Mg2 O19 2.114685 1_545
Mg2 O25 2.173566 1_655
Mg3 O16 2.059523 1_555
Mg3 O28 2.081889 1_555
Mg3 O41 2.095818 1_654
Mg3 O56 2.100370 1_554
Mg3 O3 2.135355 1_565
Mg3 O18 2.169260 1_565
Mg4 O39 2.038621 1_655
Mg4 O26 2.054964 1_555
Mg4 O8 2.073552 1_565
Mg4 O4 2.078958 1_655
Mg4 O29 2.139268 1_665
Mg4 O24 2.157008 1_555
Mg5 O48 2.046451 1_555
Mg5 O36 2.055999 1_555
Mg5 O15 2.072609 1_465
Mg5 O10 2.078486 1_555
Mg5 O40 2.137617 1_565
Mg5 O34 2.151520 1_555
Mg6 O54 2.040232 1_555
Mg6 O45 2.057196 1_555
Mg6 O25 2.073957 1_565
Mg6 O19 2.086805 1_555
Mg6 O49 2.146082 1_565
Mg6 O44 2.208384 1_555
Al0 O55 1.885993 1_455
Al0 O51 1.894584 1_545
Al0 O20 1.926720 1_455
Al0 O33 1.949030 1_555
Al0 O35 2.117534 1_555
Al0 O30 2.135891 1_445
Al1 O56 1.862642 1_545
Al1 O31 1.908241 1_555
Al1 O43 1.961153 1_555
Al1 O18 1.965656 1_456
Al1 O3 2.036233 1_556
Al1 O41 2.100843 1_545
Al2 O54 1.713869 1_555
Al2 O42 1.788527 1_555
Al2 O51 1.790293 1_555
Al2 O57 1.808005 1_555
Al3 O52 1.741812 1_555
Al3 O55 1.776307 1_555
Al3 O22 1.781428 1_555
Al3 O47 1.807671 1_555
Al4 O58 1.843180 1_555
Al4 O52 1.862755 1_555
Al4 O51 1.972826 1_555
Al4 O30 2.024979 1_555
Al4 O35 2.070395 1_565
Al4 O55 2.080157 1_565
Al5 O58 1.733305 1_555
Al5 O56 1.766535 1_555
Al5 O50 1.782552 1_555
Al5 O59 1.800166 1_555
O0 Si5 1.682124 1_455
O0 Si0 1.701599 1_555
O1 Si0 1.600708 1_555
O2 Si9 1.682954 1_555
O2 Si2 1.706456 1_555
O3 Si0 1.631968 1_555
O4 Si1 1.614449 1_555
O5 Si2 1.597672 1_555
O6 Si13 1.684795 1_555
O6 Si4 1.707139 1_555
O7 Si1 1.601781 1_555
O8 Si2 1.621396 1_555
O9 Si0 1.682003 1_555
O9 Si5 1.702780 1_555
O10 Si3 1.613264 1_555
O11 Si4 1.599919 1_555
O12 Si8 1.688152 1_555
O12 Si1 1.708075 1_555
O13 Si7 1.697356 1_555
O13 Si16 1.699588 1_555
O14 Si3 1.601076 1_555
O15 Si4 1.618750 1_555
O16 Si5 1.603661 1_555
O17 Si2 1.687711 1_555
O17 Si9 1.701532 1_655
O18 Si5 1.635912 1_555
O19 Si6 1.615476 1_555
O20 Si7 1.631750 1_555
O21 Si12 1.687233 1_655
O21 Si3 1.711710 1_555
O22 Si11 1.650270 1_655
O23 Si6 1.601584 1_555
O24 Si8 1.614854 1_555
O25 Si7 1.611566 1_455
O26 Si9 1.604894 1_655
O27 Si4 1.686613 1_555
O27 Si13 1.701166 1_655
O28 Si8 1.607826 1_555
O29 Si9 1.621696 1_555
O30 Si10 1.676504 1_555
O31 Si11 1.654203 1_555
O32 Si15 1.688583 1_555
O32 Si6 1.711372 1_455
O33 Si10 1.647962 1_455
O34 Si12 1.611556 1_555
O35 Si11 1.664621 1_555
O36 Si13 1.603880 1_555
O37 Si1 1.690434 1_555
O37 Si8 1.707329 1_455
O38 Si7 1.674000 1_455
O38 Si16 1.708279 1_555
O39 Si12 1.609362 1_555
O40 Si13 1.619281 1_555
O41 Si14 1.665150 1_555
O42 Si10 1.651914 1_455
O43 Si14 1.647140 1_555
O44 Si15 1.614206 1_555
O45 Si16 1.598167 1_555
O46 Si3 1.690896 1_555
O46 Si12 1.705101 1_555
O47 Si11 1.638467 1_555
O48 Si15 1.608187 1_555
O49 Si16 1.611245 1_555
O50 Si14 1.651979 1_555
O53 Si6 1.691464 1_555
O53 Si15 1.706717 1_555
O57 Si10 1.634400 1_555
O59 Si14 1.634859 1_655
