# generated using pymatgen
data_Ta
_symmetry_space_group_name_H-M   'P 1'
_cell_length_a   10.51657700
_cell_length_b   10.51657700
_cell_length_c   4.76621000
_cell_angle_alpha   90.00000000
_cell_angle_beta   90.00000000
_cell_angle_gamma   90.00000000
_symmetry_Int_Tables_number   1
_chemical_formula_structural   Ta
_chemical_formula_sum   Ta22
_cell_volume   527.13516097
_cell_formula_units_Z   22
loop_
 _symmetry_equiv_pos_site_id
 _symmetry_equiv_pos_as_xyz
  1  'x, y, z'
loop_
 _atom_site_type_symbol
 _atom_site_label
 _atom_site_symmetry_multiplicity
 _atom_site_fract_x
 _atom_site_fract_y
 _atom_site_fract_z
 _atom_site_occupancy
  Ta  Ta0  1  0.50000000  0.50000000  0.50000000  1
  Ta  Ta1  1  0.00000000  0.00000000  0.00000000  1
  Ta  Ta2  1  0.75799300  0.43215000  0.50000000  1
  Ta  Ta3  1  0.24200700  0.56785000  0.50000000  1
  Ta  Ta4  1  0.93215000  0.74200700  0.00000000  1
  Ta  Ta5  1  0.06785000  0.25799300  0.00000000  1
  Ta  Ta6  1  0.43215000  0.75799300  0.50000000  1
  Ta  Ta7  1  0.56785000  0.24200700  0.50000000  1
  Ta  Ta8  1  0.25799300  0.06785000  0.00000000  1
  Ta  Ta9  1  0.74200700  0.93215000  0.00000000  1
  Ta  Ta10  1  0.03515100  0.37773200  0.50000000  1
  Ta  Ta11  1  0.96484900  0.62226800  0.50000000  1
  Ta  Ta12  1  0.87773200  0.46484900  0.00000000  1
  Ta  Ta13  1  0.12226800  0.53515100  0.00000000  1
  Ta  Ta14  1  0.37773200  0.03515100  0.50000000  1
  Ta  Ta15  1  0.62226800  0.96484900  0.50000000  1
  Ta  Ta16  1  0.53515100  0.12226800  0.00000000  1
  Ta  Ta17  1  0.46484900  0.87773200  0.00000000  1
  Ta  Ta18  1  0.10236000  0.10236000  0.50000000  1
  Ta  Ta19  1  0.89764000  0.89764000  0.50000000  1
  Ta  Ta20  1  0.60236000  0.39764000  0.00000000  1
  Ta  Ta21  1  0.39764000  0.60236000  0.00000000  1
loop_
_geom_bond_atom_site_label_1
_geom_bond_atom_site_label_2
_geom_bond_distance
_geom_bond_site_symmetry_2
Ta0 Ta6 2.805463 1_555
Ta0 Ta2 2.805463 1_555
Ta0 Ta3 2.805463 1_555
Ta0 Ta7 2.805463 1_555
Ta0 Ta20 2.827860 1_556
Ta0 Ta20 2.827860 1_555
Ta0 Ta21 2.827860 1_556
Ta0 Ta21 2.827860 1_555
Ta1 Ta8 2.805463 1_555
Ta1 Ta5 2.805463 1_555
Ta1 Ta9 2.805463 1_445
Ta1 Ta4 2.805463 1_445
Ta1 Ta19 2.827860 1_444
Ta1 Ta19 2.827860 1_445
Ta1 Ta18 2.827860 1_554
Ta1 Ta18 2.827860 1_555
Ta2 Ta7 2.827937 1_555
Ta2 Ta20 2.913723 1_555
Ta2 Ta20 2.913723 1_556
Ta3 Ta6 2.827937 1_555
Ta4 Ta9 2.827937 1_555
Ta5 Ta8 2.827937 1_555
Ta10 Ta11 2.675848 1_455
Ta10 Ta5 2.717193 1_555
Ta10 Ta5 2.717193 1_556
Ta10 Ta3 2.954658 1_555
Ta10 Ta2 2.970405 1_455
Ta10 Ta18 2.980977 1_555
Ta10 Ta13 3.042905 1_556
Ta10 Ta13 3.042905 1_555
Ta10 Ta12 3.042905 1_455
Ta10 Ta12 3.042905 1_456
Ta11 Ta4 2.717193 1_555
Ta11 Ta4 2.717193 1_556
Ta11 Ta2 2.954658 1_555
Ta11 Ta3 2.970405 1_655
Ta11 Ta19 2.980977 1_555
Ta11 Ta13 3.042905 1_655
Ta11 Ta13 3.042905 1_656
Ta11 Ta12 3.042905 1_556
Ta11 Ta12 3.042905 1_555
Ta12 Ta13 2.675848 1_655
Ta12 Ta2 2.717193 1_554
Ta12 Ta2 2.717193 1_555
Ta12 Ta5 2.954658 1_655
Ta12 Ta4 2.970405 1_555
Ta12 Ta20 2.980977 1_555
Ta13 Ta3 2.717193 1_554
Ta13 Ta3 2.717193 1_555
Ta13 Ta4 2.954658 1_455
Ta13 Ta5 2.970405 1_555
Ta13 Ta21 2.980977 1_555
Ta14 Ta15 2.675848 1_545
Ta14 Ta8 2.717193 1_556
Ta14 Ta8 2.717193 1_555
Ta14 Ta7 2.954658 1_555
Ta14 Ta6 2.970405 1_545
Ta14 Ta18 2.980977 1_555
Ta14 Ta16 3.042905 1_556
Ta14 Ta16 3.042905 1_555
Ta14 Ta17 3.042905 1_545
Ta14 Ta17 3.042905 1_546
Ta15 Ta9 2.717193 1_555
Ta15 Ta9 2.717193 1_556
Ta15 Ta6 2.954658 1_555
Ta15 Ta7 2.970405 1_565
Ta15 Ta19 2.980977 1_555
Ta15 Ta16 3.042905 1_566
Ta15 Ta16 3.042905 1_565
Ta15 Ta17 3.042905 1_556
Ta15 Ta17 3.042905 1_555
Ta16 Ta17 2.675848 1_545
Ta16 Ta7 2.717193 1_554
Ta16 Ta7 2.717193 1_555
Ta16 Ta9 2.954658 1_545
Ta16 Ta8 2.970405 1_555
Ta16 Ta20 2.980977 1_555
Ta17 Ta6 2.717193 1_554
Ta17 Ta6 2.717193 1_555
Ta17 Ta8 2.954658 1_565
Ta17 Ta9 2.970405 1_555
Ta17 Ta21 2.980977 1_555
Ta18 Ta8 2.913723 1_556
Ta18 Ta8 2.913723 1_555
Ta18 Ta5 2.913723 1_556
Ta18 Ta5 2.913723 1_555
Ta18 Ta19 3.044736 1_445
Ta19 Ta9 2.913723 1_556
Ta19 Ta4 2.913723 1_555
Ta19 Ta4 2.913723 1_556
Ta19 Ta9 2.913723 1_555
Ta20 Ta7 2.913723 1_555
Ta20 Ta7 2.913723 1_554
Ta20 Ta21 3.044736 1_555
Ta21 Ta6 2.913723 1_554
Ta21 Ta6 2.913723 1_555
Ta21 Ta3 2.913723 1_554
Ta21 Ta3 2.913723 1_555
