# generated using pymatgen
data_Ba5Ho8Zn4O21
_symmetry_space_group_name_H-M   'P 1'
_cell_length_a   10.20909234
_cell_length_b   10.20909234
_cell_length_c   10.20909234
_cell_angle_alpha   94.53245429
_cell_angle_beta   94.53245429
_cell_angle_gamma   147.34687226
_symmetry_Int_Tables_number   1
_chemical_formula_structural   Ba5Ho8Zn4O21
_chemical_formula_sum   'Ba5 Ho8 Zn4 O21'
_cell_volume   550.95824666
_cell_formula_units_Z   1
loop_
 _symmetry_equiv_pos_site_id
 _symmetry_equiv_pos_as_xyz
  1  'x, y, z'
loop_
 _atom_site_type_symbol
 _atom_site_label
 _atom_site_symmetry_multiplicity
 _atom_site_fract_x
 _atom_site_fract_y
 _atom_site_fract_z
 _atom_site_occupancy
  Ba  Ba0  1  0.53535800  0.86044600  0.39580400  1
  Ba  Ba1  1  0.86044600  0.46464200  0.32508800  1
  Ba  Ba2  1  0.13955400  0.53535800  0.67491200  1
  Ba  Ba3  1  0.46464200  0.13955400  0.60419600  1
  Ba  Ba4  1  0.00000000  0.00000000  0.00000000  1
  Ho  Ho0  1  0.41131400  0.64192600  0.05324000  1
  Ho  Ho1  1  0.64192600  0.58868600  0.23061200  1
  Ho  Ho2  1  0.35807400  0.41131400  0.76938800  1
  Ho  Ho3  1  0.58868600  0.35807400  0.94676000  1
  Ho  Ho4  1  0.24740700  0.83191800  0.07932400  1
  Ho  Ho5  1  0.83191800  0.75259300  0.58451100  1
  Ho  Ho6  1  0.16808200  0.24740700  0.41548900  1
  Ho  Ho7  1  0.75259300  0.16808200  0.92067600  1
  Zn  Zn0  1  0.04051600  0.74966600  0.79018200  1
  Zn  Zn1  1  0.74966600  0.95948400  0.70915000  1
  Zn  Zn2  1  0.25033400  0.04051600  0.29085000  1
  Zn  Zn3  1  0.95948400  0.25033400  0.20981800  1
  O  O0  1  0.89999600  0.49448100  0.89149200  1
  O  O1  1  0.49448100  0.60298900  0.59448500  1
  O  O2  1  0.00850500  0.89999600  0.40551500  1
  O  O3  1  0.60298900  0.00850500  0.10850800  1
  O  O4  1  0.10000400  0.50551900  0.10850800  1
  O  O5  1  0.50551900  0.39701100  0.40551500  1
  O  O6  1  0.99149500  0.10000400  0.59448500  1
  O  O7  1  0.39701100  0.99149500  0.89149200  1
  O  O8  1  0.07286100  0.29860900  0.87050600  1
  O  O9  1  0.29860900  0.42810300  0.22574800  1
  O  O10  1  0.20235500  0.07286100  0.77425200  1
  O  O11  1  0.42810300  0.20235500  0.12949400  1
  O  O12  1  0.92713900  0.70139100  0.12949400  1
  O  O13  1  0.70139100  0.57189700  0.77425200  1
  O  O14  1  0.79764500  0.92713900  0.22574800  1
  O  O15  1  0.57189700  0.79764500  0.87050600  1
  O  O16  1  0.62848700  0.03807700  0.66656400  1
  O  O17  1  0.50000000  0.50000000  0.00000000  1
  O  O18  1  0.37151300  0.96192300  0.33343600  1
  O  O19  1  0.96192300  0.62848700  0.59041000  1
  O  O20  1  0.03807700  0.37151300  0.40959000  1
loop_
_geom_bond_atom_site_label_1
_geom_bond_atom_site_label_2
_geom_bond_distance
_geom_bond_site_symmetry_2
Ba0 O18 2.670321 1_555
Ba0 O16 2.778936 1_565
Ba0 O20 2.874236 1_555
Ba0 O20 2.874236 1_665
Ba0 O14 2.915360 1_555
Ba0 O9 2.915360 1_555
Ba0 O6 3.213435 1_565
Ba0 O1 3.213443 1_555
Ba0 O4 3.259984 1_555
Ba0 O3 3.259988 1_565
Ba1 O19 2.670321 1_555
Ba1 O20 2.778936 1_655
Ba1 O18 2.874236 1_545
Ba1 O18 2.874236 1_655
Ba1 O11 2.915360 1_555
Ba1 O12 2.915360 1_555
Ba1 O3 3.213436 1_555
Ba1 O4 3.213443 1_655
Ba1 O2 3.259977 1_655
Ba1 O5 3.259984 1_555
Ba2 O20 2.670321 1_555
Ba2 O19 2.778936 1_455
Ba2 O16 2.874236 1_455
Ba2 O16 2.874236 1_565
Ba2 O8 2.915360 1_555
Ba2 O15 2.915360 1_555
Ba2 O7 3.213436 1_555
Ba2 O0 3.213443 1_455
Ba2 O6 3.259977 1_455
Ba2 O1 3.259984 1_555
Ba3 O16 2.670321 1_555
Ba3 O18 2.778936 1_545
Ba3 O19 2.874236 1_445
Ba3 O19 2.874236 1_555
Ba3 O13 2.915360 1_555
Ba3 O10 2.915360 1_555
Ba3 O2 3.213435 1_545
Ba3 O5 3.213443 1_555
Ba3 O0 3.259984 1_555
Ba3 O7 3.259988 1_545
Ba4 O17 2.869895 1_445
Ba4 O17 2.869895 1_555
Ba4 O9 2.927193 1_555
Ba4 O14 2.927193 1_445
Ba4 O15 2.927193 1_444
Ba4 O12 2.927193 1_445
Ba4 O11 2.927193 1_555
Ba4 O8 2.927193 1_554
Ba4 O10 2.927193 1_554
Ba4 O13 2.927193 1_444
Ho0 O8 2.293177 1_554
Ho0 O15 2.293177 1_554
Ho0 O4 2.305071 1_555
Ho0 O3 2.305080 1_565
Ho0 O17 2.318830 1_555
Ho0 O14 2.426760 1_555
Ho0 O9 2.426760 1_555
Ho1 O9 2.293177 1_555
Ho1 O14 2.293177 1_555
Ho1 O5 2.305071 1_555
Ho1 O2 2.305075 1_655
Ho1 O17 2.318830 1_555
Ho1 O12 2.426760 1_555
Ho1 O11 2.426760 1_555
Ho2 O10 2.293177 1_555
Ho2 O13 2.293177 1_555
Ho2 O1 2.305071 1_555
Ho2 O6 2.305075 1_455
Ho2 O17 2.318830 1_556
Ho2 O15 2.426760 1_555
Ho2 O8 2.426760 1_555
Ho3 O12 2.293177 1_556
Ho3 O11 2.293177 1_556
Ho3 O0 2.305071 1_555
Ho3 O7 2.305080 1_545
Ho3 O17 2.318830 1_556
Ho3 O10 2.426760 1_555
Ho3 O13 2.426760 1_555
Ho4 O3 2.289303 1_565
Ho4 O4 2.289312 1_555
Ho4 O7 2.330381 1_554
Ho4 O0 2.330387 1_454
Ho4 O11 2.400915 1_565
Ho4 O12 2.400918 1_455
Ho4 O18 2.490311 1_555
Ho5 O5 2.289309 1_555
Ho5 O2 2.289312 1_655
Ho5 O1 2.330393 1_555
Ho5 O6 2.330399 1_565
Ho5 O13 2.400915 1_555
Ho5 O10 2.400915 1_665
Ho5 O19 2.490301 1_555
Ho6 O1 2.289309 1_555
Ho6 O6 2.289312 1_455
Ho6 O5 2.330393 1_555
Ho6 O2 2.330399 1_545
Ho6 O14 2.400915 1_445
Ho6 O9 2.400915 1_555
Ho6 O20 2.490301 1_555
Ho7 O7 2.289303 1_545
Ho7 O0 2.289312 1_555
Ho7 O3 2.330381 1_556
Ho7 O4 2.330387 1_656
Ho7 O15 2.400915 1_545
Ho7 O8 2.400918 1_655
Ho7 O16 2.490311 1_555
O0 Zn0 2.069261 1_655
O1 Zn1 2.069261 1_555
O2 Zn2 2.069255 1_565
O3 Zn3 2.069265 1_555
O4 Zn3 2.069261 1_455
O5 Zn2 2.069261 1_555
O6 Zn1 2.069255 1_545
O7 Zn0 2.069265 1_555
O8 Zn1 2.142553 1_445
O9 Zn3 2.142553 1_455
O10 Zn0 2.142553 1_545
O11 Zn2 2.142553 1_555
O12 Zn2 2.142553 1_665
O13 Zn0 2.142553 1_655
O14 Zn3 2.142553 1_565
O15 Zn1 2.142553 1_555
O16 Zn1 2.001226 1_545
O18 Zn2 2.001226 1_565
O19 Zn0 2.001226 1_655
O20 Zn3 2.001226 1_455
