# generated using pymatgen
data_H7NO6
_symmetry_space_group_name_H-M   'P 1'
_cell_length_a   15.69749500
_cell_length_b   3.75082600
_cell_length_c   9.70352130
_cell_angle_alpha   89.09879701
_cell_angle_beta   90.00000000
_cell_angle_gamma   90.00000000
_symmetry_Int_Tables_number   1
_chemical_formula_structural   H7NO6
_chemical_formula_sum   'H28 N4 O24'
_cell_volume   571.25880926
_cell_formula_units_Z   4
loop_
 _symmetry_equiv_pos_site_id
 _symmetry_equiv_pos_as_xyz
  1  'x, y, z'
loop_
 _atom_site_type_symbol
 _atom_site_label
 _atom_site_symmetry_multiplicity
 _atom_site_fract_x
 _atom_site_fract_y
 _atom_site_fract_z
 _atom_site_occupancy
  H  H0  1  0.38331900  0.95762000  0.66306400  1
  H  H1  1  0.33839300  0.18728300  0.77883400  1
  H  H2  1  0.35468400  0.43577700  0.58768200  1
  H  H3  1  0.65131900  0.50340800  0.81230600  1
  H  H4  1  0.66201200  0.83370100  0.70863300  1
  H  H5  1  0.15131900  0.49659200  0.18769400  1
  H  H6  1  0.16201200  0.16629900  0.29136700  1
  H  H7  1  0.83839300  0.81271700  0.22116600  1
  H  H8  1  0.88331900  0.04238000  0.33693600  1
  H  H9  1  0.85468400  0.56422300  0.41231800  1
  H  H10  1  0.07131600  0.10710600  0.72050400  1
  H  H11  1  0.99776500  0.11381200  0.83125700  1
  H  H12  1  0.91779000  0.62156500  0.77811400  1
  H  H13  1  0.99616700  0.59590900  0.67913000  1
  H  H14  1  0.41779000  0.37843500  0.22188600  1
  H  H15  1  0.49616700  0.40409100  0.32087000  1
  H  H16  1  0.57131600  0.89289400  0.27949600  1
  H  H17  1  0.49776500  0.88618800  0.16874300  1
  H  H18  1  0.14582200  0.04119600  0.08706600  1
  H  H19  1  0.20294900  0.78412200  0.96860000  1
  H  H20  1  0.10940100  0.98817800  0.92021900  1
  H  H21  1  0.79735600  0.28032800  0.52481400  1
  H  H22  1  0.88915000  0.49277600  0.58027900  1
  H  H23  1  0.38915000  0.50722400  0.41972100  1
  H  H24  1  0.29735600  0.71967200  0.47518600  1
  H  H25  1  0.60940100  0.01182200  0.07978100  1
  H  H26  1  0.70294900  0.21587800  0.03140000  1
  H  H27  1  0.64582200  0.95880400  0.91293400  1
  N  N0  1  0.16274500  0.91613000  0.54132700  1
  N  N1  1  0.83431900  0.41009500  0.96113800  1
  N  N2  1  0.33431900  0.58990500  0.03886200  1
  N  N3  1  0.66274500  0.08387000  0.45867300  1
  O  O0  1  0.18976000  0.75598900  0.64646300  1
  O  O1  1  0.80576600  0.25327400  0.85715100  1
  O  O2  1  0.30576600  0.74672600  0.14284900  1
  O  O3  1  0.68976000  0.24401100  0.35353700  1
  O  O4  1  0.20940800  0.92284600  0.43065300  1
  O  O5  1  0.79093500  0.40742200  0.07379600  1
  O  O6  1  0.29093500  0.59257800  0.92620400  1
  O  O7  1  0.70940800  0.07715400  0.56934700  1
  O  O8  1  0.09147900  0.07286500  0.53934400  1
  O  O9  1  0.90501100  0.57215500  0.95663800  1
  O  O10  1  0.40501100  0.42784500  0.04336200  1
  O  O11  1  0.59147900  0.92713500  0.46065600  1
  O  O12  1  0.37593100  0.19876200  0.69862800  1
  O  O13  1  0.63384900  0.74941400  0.79492800  1
  O  O14  1  0.13384900  0.25058600  0.20507200  1
  O  O15  1  0.87593100  0.80123800  0.30137200  1
  O  O16  1  0.05728100  0.18059600  0.81621800  1
  O  O17  1  0.93685900  0.67601800  0.68144200  1
  O  O18  1  0.43685900  0.32398200  0.31855800  1
  O  O19  1  0.55728100  0.81940400  0.18378200  1
  O  O20  1  0.14417100  0.86774400  0.00029800  1
  O  O21  1  0.85585500  0.37557600  0.49621200  1
  O  O22  1  0.35585500  0.62442400  0.50378800  1
  O  O23  1  0.64417100  0.13225600  0.99970200  1
loop_
_geom_bond_atom_site_label_1
_geom_bond_atom_site_label_2
_geom_bond_distance
_geom_bond_site_symmetry_2
H0 O12 0.980024 1_565
H1 O12 0.976596 1_555
H2 O22 1.070325 1_555
H2 O12 1.424940 1_555
H3 O13 0.974766 1_555
H4 O13 0.994105 1_555
H5 O14 0.974766 1_555
H6 O14 0.994105 1_555
H7 O15 0.976596 1_555
H8 O15 0.980024 1_545
H9 O21 1.070325 1_555
H9 O15 1.424940 1_555
H10 O16 0.997584 1_555
H11 O16 0.977610 1_655
H12 O17 1.002619 1_555
H13 O17 0.978641 1_555
H14 O18 1.002619 1_555
H15 O18 0.978641 1_555
H16 O19 0.997584 1_555
H17 O19 0.977610 1_555
H18 O20 1.072407 1_545
H18 O14 1.411254 1_555
H19 O20 1.023393 1_556
H19 O6 1.613168 1_555
H20 O20 1.046288 1_556
H20 O16 1.478441 1_565
H21 O21 1.022152 1_555
H21 O7 1.631895 1_555
H22 O21 1.069172 1_555
H22 O17 1.420598 1_555
H23 O22 1.069172 1_555
H23 O18 1.420598 1_555
H24 O22 1.022152 1_555
H24 O4 1.631895 1_555
H25 O23 1.046288 1_554
H25 O19 1.478441 1_545
H26 O23 1.023393 1_554
H26 O5 1.613168 1_555
H27 O23 1.072407 1_565
H27 O13 1.411254 1_555
N0 O0 1.249855 1_555
N0 O8 1.263768 1_565
N0 O4 1.299865 1_555
N1 O1 1.258457 1_555
N1 O9 1.265690 1_555
N1 O5 1.287861 1_556
N2 O2 1.258457 1_555
N2 O10 1.265690 1_555
N2 O6 1.287861 1_554
N3 O3 1.249855 1_555
N3 O11 1.263768 1_545
N3 O7 1.299865 1_555
