# generated using pymatgen
data_ZrTcCl
_symmetry_space_group_name_H-M   'P 1'
_cell_length_a   4.23502656
_cell_length_b   4.23502656
_cell_length_c   4.23502656
_cell_angle_alpha   60.00000000
_cell_angle_beta   60.00000000
_cell_angle_gamma   60.00000000
_symmetry_Int_Tables_number   1
_chemical_formula_structural   ZrTcCl
_chemical_formula_sum   'Zr1 Tc1 Cl1'
_cell_volume   53.70978546
_cell_formula_units_Z   1
loop_
 _symmetry_equiv_pos_site_id
 _symmetry_equiv_pos_as_xyz
  1  'x, y, z'
loop_
 _atom_site_type_symbol
 _atom_site_label
 _atom_site_symmetry_multiplicity
 _atom_site_fract_x
 _atom_site_fract_y
 _atom_site_fract_z
 _atom_site_occupancy
  Zr  Zr0  1  0.50000000  0.50000000  0.50000000  1
  Tc  Tc0  1  0.00000000  0.00000000  0.00000000  1
  Cl  Cl0  1  0.75000000  0.75000000  0.75000000  1
loop_
_geom_bond_atom_site_label_1
_geom_bond_atom_site_label_2
_geom_bond_distance
_geom_bond_site_symmetry_2
Cl0 Zr0 2.593414 1_565
Cl0 Tc0 2.593414 1_656
Cl0 Tc0 2.593414 1_566
Cl0 Zr0 2.593414 1_655
Cl0 Tc0 2.593414 1_666
Cl0 Tc0 2.593414 1_665
Cl0 Zr0 2.593414 1_555
Cl0 Zr0 2.593414 1_556
