# generated using pymatgen
data_KMg2As2H31O23
_symmetry_space_group_name_H-M   'P 1'
_cell_length_a   8.37163200
_cell_length_b   8.49967340
_cell_length_c   15.89570578
_cell_angle_alpha   94.71984731
_cell_angle_beta   89.88804112
_cell_angle_gamma   91.75354477
_symmetry_Int_Tables_number   1
_chemical_formula_structural   KMg2As2H31O23
_chemical_formula_sum   'K2 Mg4 As4 H62 O46'
_cell_volume   1126.71341670
_cell_formula_units_Z   2
loop_
 _symmetry_equiv_pos_site_id
 _symmetry_equiv_pos_as_xyz
  1  'x, y, z'
loop_
 _atom_site_type_symbol
 _atom_site_label
 _atom_site_symmetry_multiplicity
 _atom_site_fract_x
 _atom_site_fract_y
 _atom_site_fract_z
 _atom_site_occupancy
  K  K0  1  0.39093800  0.72270500  0.68617100  1
  K  K1  1  0.60906200  0.27729500  0.31382900  1
  Mg  Mg0  1  0.50000000  0.50000000  0.00000000  1
  Mg  Mg1  1  0.54739400  0.15975600  0.62222100  1
  Mg  Mg2  1  0.50000000  0.50000000  0.50000000  1
  Mg  Mg3  1  0.45260600  0.84024400  0.37777900  1
  As  As0  1  0.19771500  0.10582800  0.61298500  1
  As  As1  1  0.86648400  0.95912500  0.91432400  1
  As  As2  1  0.13351600  0.04087500  0.08567600  1
  As  As3  1  0.80228500  0.89417200  0.38701500  1
  H  H0  1  0.00000000  0.00000000  0.00000000  1
  H  H1  1  0.68914900  0.18692900  0.94654200  1
  H  H2  1  0.76583900  0.35676700  0.08040300  1
  H  H3  1  0.23416100  0.64323300  0.91959700  1
  H  H4  1  0.03301200  0.52101500  0.92991300  1
  H  H5  1  0.34923200  0.41045200  0.17149300  1
  H  H6  1  0.05012200  0.33909700  0.92093200  1
  H  H7  1  0.74009100  0.66770600  0.95589000  1
  H  H8  1  0.75843700  0.25442000  0.79002100  1
  H  H9  1  0.43045700  0.83876000  0.91988900  1
  H  H10  1  0.38835300  0.00348400  0.89030000  1
  H  H11  1  0.98464300  0.78575400  0.71733900  1
  H  H12  1  0.74265500  0.46280100  0.87602000  1
  H  H13  1  0.18813200  0.41359400  0.79917800  1
  H  H14  1  0.15672400  0.04323300  0.80498800  1
  H  H15  1  0.76863900  0.31510000  0.75841000  1
  H  H16  1  0.00654000  0.28843300  0.66310600  1
  H  H17  1  0.14453700  0.65227000  0.80865800  1
  H  H18  1  0.23211700  0.80915600  0.85449100  1
  H  H19  1  0.69956500  0.82170200  0.73765900  1
  H  H20  1  0.68987800  0.68586900  0.66214100  1
  H  H21  1  0.27322600  0.39017800  0.70973500  1
  H  H22  1  0.01887900  0.15064400  0.79169600  1
  H  H23  1  0.74993700  0.92515500  0.60676600  1
  H  H24  1  0.86197600  0.07321600  0.64751800  1
  H  H25  1  0.04403200  0.80491900  0.68383400  1
  H  H26  1  0.32155900  0.27926200  0.47247700  1
  H  H27  1  0.02193800  0.55118100  0.60017400  1
  H  H28  1  0.07217600  0.82512400  0.53518800  1
  H  H29  1  0.96232500  0.39211400  0.54830000  1
  H  H30  1  0.00000000  0.00000000  0.50000000  1
  H  H31  1  0.78093700  0.28870700  0.49194300  1
  H  H32  1  0.77661200  0.42192800  0.62863900  1
  H  H33  1  0.22338800  0.57807200  0.37136100  1
  H  H34  1  0.21906300  0.71129300  0.50805700  1
  H  H35  1  0.03767500  0.60788600  0.45170000  1
  H  H36  1  0.92782400  0.17487600  0.46481200  1
  H  H37  1  0.97806200  0.44881900  0.39982600  1
  H  H38  1  0.67844100  0.72073800  0.52752300  1
  H  H39  1  0.95596800  0.19508100  0.31616600  1
  H  H40  1  0.13802400  0.92678400  0.35248200  1
  H  H41  1  0.25006300  0.07484500  0.39323400  1
  H  H42  1  0.98112100  0.84935600  0.20830400  1
  H  H43  1  0.72677400  0.60982200  0.29026500  1
  H  H44  1  0.31012200  0.31413100  0.33785900  1
  H  H45  1  0.30043500  0.17829800  0.26234100  1
  H  H46  1  0.76788300  0.19084400  0.14550900  1
  H  H47  1  0.85546300  0.34773000  0.19134200  1
  H  H48  1  0.99346000  0.71156700  0.33689400  1
  H  H49  1  0.23136100  0.68490000  0.24159000  1
  H  H50  1  0.84327600  0.95676700  0.19501200  1
  H  H51  1  0.81186800  0.58640600  0.20082200  1
  H  H52  1  0.25734500  0.53719900  0.12398000  1
  H  H53  1  0.01535700  0.21424600  0.28266100  1
  H  H54  1  0.61164700  0.99651600  0.10970000  1
  H  H55  1  0.56954300  0.16124000  0.08011100  1
  H  H56  1  0.24156300  0.74558000  0.20997900  1
  H  H57  1  0.25990900  0.33229400  0.04411000  1
  H  H58  1  0.94987800  0.66090300  0.07906800  1
  H  H59  1  0.65076800  0.58954800  0.82850700  1
  H  H60  1  0.96698800  0.47898500  0.07008700  1
  H  H61  1  0.31085100  0.81307100  0.05345800  1
  O  O0  1  0.65514600  0.53893000  0.88324900  1
  O  O1  1  0.78147600  0.73480800  0.00669500  1
  O  O2  1  0.58649200  0.28283200  0.00028400  1
  O  O3  1  0.22382100  0.86140200  0.09608700  1
  O  O4  1  0.71538700  0.88918400  0.99266800  1
  O  O5  1  0.40351800  0.89402900  0.86865100  1
  O  O6  1  0.70553200  0.40965000  0.03370600  1
  O  O7  1  0.00454600  0.42701100  0.89307300  1
  O  O8  1  0.11064500  0.71650300  0.54044400  1
  O  O9  1  0.07367200  0.10093400  0.83739500  1
  O  O10  1  0.13945900  0.72952800  0.85793200  1
  O  O11  1  0.32246900  0.27326700  0.61919600  1
  O  O12  1  0.02049500  0.17670300  0.67665600  1
  O  O13  1  0.70590700  0.70728700  0.72744400  1
  O  O14  1  0.28348100  0.00774500  0.70701700  1
  O  O15  1  0.96915700  0.44807100  0.60644400  1
  O  O16  1  0.33609300  0.62244000  0.36666000  1
  O  O17  1  0.75024000  0.02766200  0.63818300  1
  O  O18  1  0.46698700  0.97950900  0.53720900  1
  O  O19  1  0.54530300  0.96732900  0.28737000  1
  O  O20  1  0.37031400  0.67641900  0.45752600  1
  O  O21  1  0.36789300  0.34285200  0.42939600  1
  O  O22  1  0.25172200  0.46959400  0.75819300  1
  O  O23  1  0.74827800  0.53040600  0.24180700  1
  O  O24  1  0.63210700  0.65714800  0.57060400  1
  O  O25  1  0.62968600  0.32358100  0.54247400  1
  O  O26  1  0.45469700  0.03267100  0.71263000  1
  O  O27  1  0.53301300  0.02049100  0.46279100  1
  O  O28  1  0.24976000  0.97233800  0.36181700  1
  O  O29  1  0.66390700  0.37756000  0.63334000  1
  O  O30  1  0.03084300  0.55192900  0.39355600  1
  O  O31  1  0.71651900  0.99225500  0.29298300  1
  O  O32  1  0.29409300  0.29271300  0.27255600  1
  O  O33  1  0.97950500  0.82329700  0.32334400  1
  O  O34  1  0.67753100  0.72673300  0.38080400  1
  O  O35  1  0.86054100  0.27047200  0.14206800  1
  O  O36  1  0.92632800  0.89906600  0.16260500  1
  O  O37  1  0.88935500  0.28349700  0.45955600  1
  O  O38  1  0.99545400  0.57298900  0.10692700  1
  O  O39  1  0.29446800  0.59035000  0.96629400  1
  O  O40  1  0.59648200  0.10597100  0.13134900  1
  O  O41  1  0.28461300  0.11081600  0.00733200  1
  O  O42  1  0.77617900  0.13859800  0.90391300  1
  O  O43  1  0.41350800  0.71716800  0.99971600  1
  O  O44  1  0.21852400  0.26519200  0.99330500  1
  O  O45  1  0.34485400  0.46107000  0.11675100  1
loop_
_geom_bond_atom_site_label_1
_geom_bond_atom_site_label_2
_geom_bond_distance
_geom_bond_site_symmetry_2
K0 O14 2.605546 1_565
K0 O26 2.671222 1_565
K0 O22 2.746631 1_555
K0 O24 2.765375 1_555
K1 O31 2.605546 1_545
K1 O19 2.671222 1_545
K1 O23 2.746631 1_555
K1 O21 2.765375 1_555
Mg0 O6 1.997393 1_555
Mg0 O39 1.997393 1_554
Mg0 O43 2.003667 1_554
Mg0 O2 2.003667 1_555
Mg0 O45 2.303457 1_555
Mg0 O0 2.303457 1_554
Mg1 O26 2.008510 1_555
Mg1 O18 2.055744 1_545
Mg1 O29 2.060617 1_555
Mg1 O25 2.061264 1_555
Mg1 O17 2.091394 1_555
Mg1 O11 2.144291 1_555
Mg2 O24 1.983569 1_555
Mg2 O21 1.983569 1_555
Mg2 O20 2.037685 1_555
Mg2 O25 2.037685 1_555
Mg3 O19 2.008510 1_555
Mg3 O27 2.055744 1_565
Mg3 O16 2.060617 1_555
Mg3 O20 2.061264 1_555
Mg3 O28 2.091394 1_555
Mg3 O34 2.144291 1_555
As0 O11 1.735584 1_555
As0 O12 1.880655 1_555
As0 O14 1.921087 1_555
As1 O42 1.743150 1_565
As1 H0 1.768926 1_666
As1 O4 1.890491 1_555
As1 O9 2.462312 1_665
As2 O3 1.743150 1_545
As2 H0 1.768926 1_555
As2 O41 1.890491 1_555
As2 O36 2.462312 1_445
As3 O34 1.735584 1_555
As3 O33 1.880655 1_555
As3 O31 1.921087 1_555
H1 O42 1.062701 1_555
H1 O2 1.434650 1_556
H2 O6 1.038352 1_555
H2 O35 1.511388 1_555
H3 O39 1.038352 1_555
H3 O10 1.511388 1_555
H4 O7 0.974686 1_555
H5 O45 1.003160 1_555
H6 O7 0.986213 1_555
H7 O1 1.005344 1_556
H9 O5 1.002528 1_555
H9 O43 1.704259 1_555
H10 O5 0.976949 1_545
H11 H25 0.752103 1_655
H12 O0 0.992494 1_555
H13 O22 0.984154 1_555
H14 O9 0.983463 1_555
H15 H8 0.752046 1_555
H16 O12 1.001229 1_555
H17 O10 0.981544 1_555
H18 O10 1.018121 1_555
H18 O5 1.594119 1_555
H19 O13 0.975736 1_555
H20 O13 1.047196 1_555
H20 O24 1.532229 1_555
H20 K0 2.555691 1_555
H21 O22 1.001348 1_555
H21 O11 1.736675 1_555
H22 O9 0.990096 1_555
H23 O17 0.967878 1_565
H24 O17 1.007897 1_555
H24 O12 1.616553 1_655
H26 O21 0.979077 1_555
H27 O15 0.981712 1_455
H28 O8 0.997030 1_555
H29 O15 1.004939 1_555
H31 O37 1.042919 1_555
H31 O25 1.521892 1_555
H32 O29 1.010259 1_555
H33 O16 1.010259 1_555
H34 O8 1.042919 1_555
H34 O20 1.521892 1_555
H35 O30 1.004939 1_555
H36 O37 0.997030 1_555
H37 O30 0.981712 1_655
H38 O24 0.979077 1_555
H39 H53 0.752103 1_655
H40 O28 1.007897 1_555
H40 O33 1.616553 1_455
H41 O28 0.967878 1_545
H42 O36 0.990096 1_555
H43 O23 1.001348 1_555
H43 O34 1.736675 1_555
H44 O32 1.047196 1_555
H44 O21 1.532229 1_555
H44 K1 2.555691 1_555
H45 O32 0.975736 1_555
H46 O35 1.018121 1_555
H46 O40 1.594119 1_555
H47 O35 0.981544 1_555
H48 O33 1.001229 1_555
H49 H56 0.752046 1_555
H50 O36 0.983463 1_555
H51 O23 0.984154 1_555
H52 O45 0.992494 1_555
H54 O40 0.976949 1_565
H55 O40 1.002528 1_555
H55 O2 1.704259 1_555
H57 O44 1.005344 1_554
H58 O38 0.986213 1_555
H59 O0 1.003160 1_555
H60 O38 0.974686 1_555
H61 O3 1.062701 1_555
H61 O43 1.434650 1_554
O1 O4 1.473300 1_554
O2 O6 1.509753 1_555
O14 O26 1.444356 1_555
O16 O20 1.504434 1_555
O18 O27 1.371004 1_565
O19 O31 1.444356 1_555
O25 O29 1.504434 1_555
O39 O43 1.509753 1_555
O41 O44 1.473300 1_554
