# generated using pymatgen
data_SrH2O3
_symmetry_space_group_name_H-M   'P 1'
_cell_length_a   3.79273400
_cell_length_b   5.85127400
_cell_length_c   6.57545400
_cell_angle_alpha   90.00000000
_cell_angle_beta   90.00000000
_cell_angle_gamma   90.00000000
_symmetry_Int_Tables_number   1
_chemical_formula_structural   SrH2O3
_chemical_formula_sum   'Sr2 H4 O6'
_cell_volume   145.92461773
_cell_formula_units_Z   2
loop_
 _symmetry_equiv_pos_site_id
 _symmetry_equiv_pos_as_xyz
  1  'x, y, z'
loop_
 _atom_site_type_symbol
 _atom_site_label
 _atom_site_symmetry_multiplicity
 _atom_site_fract_x
 _atom_site_fract_y
 _atom_site_fract_z
 _atom_site_occupancy
  Sr  Sr0  1  0.50000000  0.64135300  0.74596500  1
  Sr  Sr1  1  0.50000000  0.35864700  0.24596500  1
  H  H0  1  0.71173400  0.11826600  0.82940400  1
  H  H1  1  0.28826600  0.11826600  0.82940400  1
  H  H2  1  0.28826600  0.88173400  0.32940400  1
  H  H3  1  0.71173400  0.88173400  0.32940400  1
  O  O0  1  0.50000000  0.21589900  0.86948600  1
  O  O1  1  0.50000000  0.78410100  0.36948600  1
  O  O2  1  0.00000000  0.93002500  0.76368700  1
  O  O3  1  0.00000000  0.06997500  0.26368700  1
  O  O4  1  0.00000000  0.43625000  0.52570700  1
  O  O5  1  0.00000000  0.56375000  0.02570700  1
loop_
_geom_bond_atom_site_label_1
_geom_bond_atom_site_label_2
_geom_bond_distance
_geom_bond_site_symmetry_2
H0 O0 1.020152 1_555
H0 O2 1.610981 1_645
H1 O0 1.020152 1_555
H1 O2 1.610981 1_545
H2 O1 1.020152 1_555
H2 O3 1.610981 1_565
H3 O1 1.020152 1_555
H3 O3 1.610981 1_665
O0 Sr1 2.612634 1_556
O0 Sr0 2.618593 1_555
O1 Sr0 2.612634 1_555
O1 Sr1 2.618593 1_555
O2 Sr0 2.542212 1_555
O2 Sr0 2.542212 1_455
O3 Sr1 2.542212 1_455
O3 Sr1 2.542212 1_555
O4 Sr0 2.670963 1_555
O4 Sr0 2.670963 1_455
O4 Sr1 2.680653 1_455
O4 Sr1 2.680653 1_555
O5 Sr1 2.670963 1_555
O5 Sr1 2.670963 1_455
O5 Sr0 2.680653 1_554
O5 Sr0 2.680653 1_454
