# generated using pymatgen
data_FeSiGe
_symmetry_space_group_name_H-M   'P 1'
_cell_length_a   6.44864749
_cell_length_b   6.44864749
_cell_length_c   8.02680100
_cell_angle_alpha   90.00000000
_cell_angle_beta   90.00000000
_cell_angle_gamma   103.79062504
_symmetry_Int_Tables_number   1
_chemical_formula_structural   FeSiGe
_chemical_formula_sum   'Fe8 Si8 Ge8'
_cell_volume   324.17274803
_cell_formula_units_Z   8
loop_
 _symmetry_equiv_pos_site_id
 _symmetry_equiv_pos_as_xyz
  1  'x, y, z'
loop_
 _atom_site_type_symbol
 _atom_site_label
 _atom_site_symmetry_multiplicity
 _atom_site_fract_x
 _atom_site_fract_y
 _atom_site_fract_z
 _atom_site_occupancy
  Fe  Fe0  1  0.71590600  0.28409400  0.50000000  1
  Fe  Fe1  1  0.30877900  0.30877900  0.31409400  1
  Fe  Fe2  1  0.28409400  0.71590600  0.50000000  1
  Fe  Fe3  1  0.78409400  0.21590600  0.00000000  1
  Fe  Fe4  1  0.69122100  0.69122100  0.68590600  1
  Fe  Fe5  1  0.80877900  0.80877900  0.18590600  1
  Fe  Fe6  1  0.21590600  0.78409400  0.00000000  1
  Fe  Fe7  1  0.19122100  0.19122100  0.81409400  1
  Si  Si0  1  0.08332100  0.83017000  0.72929300  1
  Si  Si1  1  0.41667900  0.66983000  0.22929300  1
  Si  Si2  1  0.91667900  0.16983000  0.27070700  1
  Si  Si3  1  0.33017000  0.58332100  0.77070700  1
  Si  Si4  1  0.83017000  0.08332100  0.72929300  1
  Si  Si5  1  0.58332100  0.33017000  0.77070700  1
  Si  Si6  1  0.16983000  0.91667900  0.27070700  1
  Si  Si7  1  0.66983000  0.41667900  0.22929300  1
  Ge  Ge0  1  0.14671700  0.40319400  0.05232600  1
  Ge  Ge1  1  0.85328300  0.59680600  0.94767400  1
  Ge  Ge2  1  0.90319400  0.64671700  0.44767400  1
  Ge  Ge3  1  0.09680600  0.35328300  0.55232600  1
  Ge  Ge4  1  0.40319400  0.14671700  0.05232600  1
  Ge  Ge5  1  0.64671700  0.90319400  0.44767400  1
  Ge  Ge6  1  0.35328300  0.09680600  0.55232600  1
  Ge  Ge7  1  0.59680600  0.85328300  0.94767400  1
loop_
_geom_bond_atom_site_label_1
_geom_bond_atom_site_label_2
_geom_bond_distance
_geom_bond_site_symmetry_2
Fe0 Si5 2.379487 1_555
Fe0 Si7 2.379487 1_555
Fe0 Ge2 2.399347 1_555
Fe0 Ge6 2.399347 1_555
Fe0 Ge3 2.426181 1_655
Fe0 Ge5 2.426181 1_545
Fe0 Si2 2.462002 1_555
Fe0 Si4 2.462002 1_555
Fe1 Si1 2.365599 1_555
Fe1 Si7 2.365599 1_555
Fe1 Ge6 2.407193 1_555
Fe1 Ge3 2.407193 1_555
Fe1 Ge0 2.486185 1_555
Fe1 Ge4 2.486185 1_555
Fe1 Si2 2.497480 1_455
Fe1 Si6 2.497480 1_545
Fe2 Si3 2.379487 1_555
Fe2 Si1 2.379487 1_555
Fe2 Ge5 2.399347 1_555
Fe2 Ge3 2.399347 1_555
Fe2 Ge6 2.426181 1_565
Fe2 Ge2 2.426181 1_455
Fe2 Si6 2.462002 1_555
Fe2 Si0 2.462002 1_555
Fe3 Si2 2.379487 1_555
Fe3 Si4 2.379487 1_554
Fe3 Ge0 2.399347 1_655
Fe3 Ge7 2.399347 1_544
Fe3 Ge4 2.426181 1_555
Fe3 Ge1 2.426181 1_554
Fe3 Si7 2.462002 1_555
Fe3 Si5 2.462002 1_554
Fe4 Si5 2.365599 1_555
Fe4 Si3 2.365599 1_555
Fe4 Ge5 2.407193 1_555
Fe4 Ge2 2.407193 1_555
Fe4 Ge1 2.486185 1_555
Fe4 Ge7 2.486185 1_555
Fe4 Si4 2.497480 1_565
Fe4 Si0 2.497480 1_655
Fe5 Si6 2.365599 1_655
Fe5 Si2 2.365599 1_565
Fe5 Ge7 2.407193 1_554
Fe5 Ge1 2.407193 1_554
Fe5 Ge5 2.486185 1_555
Fe5 Ge2 2.486185 1_555
Fe5 Si1 2.497480 1_555
Fe5 Si7 2.497480 1_555
Fe6 Si6 2.379487 1_555
Fe6 Si0 2.379487 1_554
Fe6 Ge4 2.399347 1_565
Fe6 Ge1 2.399347 1_454
Fe6 Ge0 2.426181 1_555
Fe6 Ge7 2.426181 1_554
Fe6 Si1 2.462002 1_555
Fe6 Si3 2.462002 1_554
Fe7 Si4 2.365599 1_455
Fe7 Si0 2.365599 1_545
Fe7 Ge4 2.407193 1_556
Fe7 Ge0 2.407193 1_556
Fe7 Ge3 2.486185 1_555
Fe7 Ge6 2.486185 1_555
Fe7 Si5 2.497480 1_555
Fe7 Si3 2.497480 1_555
Si0 Si3 2.527151 1_555
Si0 Si4 2.569149 1_465
Si1 Si6 2.527151 1_555
Si1 Si7 2.569149 1_555
Si2 Si7 2.527151 1_555
Si2 Si6 2.569149 1_645
Si3 Si5 2.569149 1_555
Si4 Si5 2.527151 1_555
Ge0 Si2 2.544330 1_455
Ge0 Si1 2.564733 1_555
Ge0 Ge4 2.602904 1_555
Ge0 Ge1 2.640348 1_454
Ge0 Si3 2.683939 1_554
Ge1 Si0 2.544330 1_655
Ge1 Si5 2.564733 1_555
Ge1 Ge7 2.602904 1_555
Ge1 Si7 2.683939 1_556
Ge2 Si7 2.544330 1_555
Ge2 Si6 2.564733 1_655
Ge2 Ge5 2.602904 1_555
Ge2 Ge3 2.640348 1_655
Ge2 Si0 2.683939 1_655
Ge3 Si3 2.544330 1_555
Ge3 Si4 2.564733 1_455
Ge3 Ge6 2.602904 1_555
Ge3 Si2 2.683939 1_455
Ge4 Si6 2.544330 1_545
Ge4 Si7 2.564733 1_555
Ge4 Ge7 2.640348 1_544
Ge4 Si5 2.683939 1_554
Ge5 Si1 2.544330 1_555
Ge5 Si2 2.564733 1_565
Ge5 Ge6 2.640348 1_565
Ge5 Si4 2.683939 1_565
Ge6 Si5 2.544330 1_555
Ge6 Si0 2.564733 1_545
Ge6 Si6 2.683939 1_545
Ge7 Si4 2.544330 1_565
Ge7 Si3 2.564733 1_555
Ge7 Si1 2.683939 1_556
