# generated using pymatgen
data_K3Ce2(NO3)9
_symmetry_space_group_name_H-M   'P 1'
_cell_length_a   13.67257600
_cell_length_b   13.67257600
_cell_length_c   13.67257600
_cell_angle_alpha   90.00000000
_cell_angle_beta   90.00000000
_cell_angle_gamma   90.00000000
_symmetry_Int_Tables_number   1
_chemical_formula_structural   K3Ce2(NO3)9
_chemical_formula_sum   'K12 Ce8 N36 O108'
_cell_volume   2555.94225801
_cell_formula_units_Z   4
loop_
 _symmetry_equiv_pos_site_id
 _symmetry_equiv_pos_as_xyz
  1  'x, y, z'
loop_
 _atom_site_type_symbol
 _atom_site_label
 _atom_site_symmetry_multiplicity
 _atom_site_fract_x
 _atom_site_fract_y
 _atom_site_fract_z
 _atom_site_occupancy
  K  K0  1  0.18747000  0.56253000  0.37500000  1
  K  K1  1  0.56253000  0.37500000  0.18747000  1
  K  K2  1  0.93747000  0.62500000  0.68747000  1
  K  K3  1  0.37500000  0.18747000  0.56253000  1
  K  K4  1  0.81253000  0.06253000  0.12500000  1
  K  K5  1  0.68747000  0.93747000  0.62500000  1
  K  K6  1  0.12500000  0.81253000  0.06253000  1
  K  K7  1  0.43747000  0.87500000  0.31253000  1
  K  K8  1  0.62500000  0.68747000  0.93747000  1
  K  K9  1  0.87500000  0.31253000  0.43747000  1
  K  K10  1  0.06253000  0.12500000  0.81253000  1
  K  K11  1  0.31253000  0.43747000  0.87500000  1
  Ce  Ce0  1  0.54913000  0.54913000  0.54913000  1
  Ce  Ce1  1  0.95087000  0.45087000  0.04913000  1
  Ce  Ce2  1  0.04913000  0.95087000  0.45087000  1
  Ce  Ce3  1  0.45087000  0.04913000  0.95087000  1
  Ce  Ce4  1  0.29913000  0.79913000  0.70087000  1
  Ce  Ce5  1  0.79913000  0.70087000  0.29913000  1
  Ce  Ce6  1  0.70087000  0.29913000  0.79913000  1
  Ce  Ce7  1  0.20087000  0.20087000  0.20087000  1
  N  N0  1  0.61080600  0.16249900  0.64941900  1
  N  N1  1  0.87500000  0.48725600  0.26274400  1
  N  N2  1  0.76274400  0.62500000  0.51274400  1
  N  N3  1  0.10058100  0.58750100  0.13919400  1
  N  N4  1  0.33750100  0.35058100  0.11080600  1
  N  N5  1  0.88919400  0.83750100  0.14941900  1
  N  N6  1  0.62500000  0.51274400  0.76274400  1
  N  N7  1  0.58750100  0.13919400  0.10058100  1
  N  N8  1  0.12500000  0.98725600  0.23725600  1
  N  N9  1  0.91249900  0.86080600  0.60058100  1
  N  N10  1  0.73725600  0.37500000  0.01274400  1
  N  N11  1  0.13919400  0.10058100  0.58750100  1
  N  N12  1  0.11080600  0.33750100  0.35058100  1
  N  N13  1  0.37500000  0.01274400  0.73725600  1
  N  N14  1  0.08750100  0.36080600  0.89941900  1
  N  N15  1  0.89941900  0.08750100  0.36080600  1
  N  N16  1  0.41249900  0.63919400  0.39941900  1
  N  N17  1  0.48725600  0.26274400  0.87500000  1
  N  N18  1  0.38919400  0.66249900  0.85058100  1
  N  N19  1  0.64941900  0.61080600  0.16249900  1
  N  N20  1  0.83750100  0.14941900  0.88919400  1
  N  N21  1  0.23725600  0.12500000  0.98725600  1
  N  N22  1  0.16249900  0.64941900  0.61080600  1
  N  N23  1  0.51274400  0.76274400  0.62500000  1
  N  N24  1  0.60058100  0.91249900  0.86080600  1
  N  N25  1  0.66249900  0.85058100  0.38919400  1
  N  N26  1  0.01274400  0.73725600  0.37500000  1
  N  N27  1  0.14941900  0.88919400  0.83750100  1
  N  N28  1  0.36080600  0.89941900  0.08750100  1
  N  N29  1  0.86080600  0.60058100  0.91249900  1
  N  N30  1  0.39941900  0.41249900  0.63919400  1
  N  N31  1  0.85058100  0.38919400  0.66249900  1
  N  N32  1  0.98725600  0.23725600  0.12500000  1
  N  N33  1  0.63919400  0.39941900  0.41249900  1
  N  N34  1  0.35058100  0.11080600  0.33750100  1
  N  N35  1  0.26274400  0.87500000  0.48725600  1
  O  O0  1  0.14505100  0.32142200  0.84104800  1
  O  O1  1  0.33275600  0.07446700  0.25305500  1
  O  O2  1  0.83275600  0.42553300  0.74694500  1
  O  O3  1  0.32142200  0.84104800  0.14505100  1
  O  O4  1  0.57142200  0.10494900  0.59104800  1
  O  O5  1  0.90895200  0.42857800  0.60494900  1
  O  O6  1  0.11003700  0.43982900  0.94468800  1
  O  O7  1  0.05418400  0.30418400  0.12500000  1
  O  O8  1  0.99694500  0.82446700  0.58275600  1
  O  O9  1  0.65895200  0.85494900  0.82142200  1
  O  O10  1  0.74141000  0.59291900  0.59595900  1
  O  O11  1  0.57446700  0.24694500  0.66724400  1
  O  O12  1  0.13996300  0.69468800  0.68982900  1
  O  O13  1  0.09291900  0.90404100  0.25859000  1
  O  O14  1  0.36003700  0.30531200  0.18982900  1
  O  O15  1  0.99141000  0.65404100  0.34291900  1
  O  O16  1  0.65708100  0.49141000  0.84595900  1
  O  O17  1  0.07446700  0.25305500  0.33275600  1
  O  O18  1  0.25305500  0.33275600  0.07446700  1
  O  O19  1  0.64505100  0.17857800  0.15895200  1
  O  O20  1  0.15895200  0.64505100  0.17857800  1
  O  O21  1  0.35494900  0.67857800  0.34104800  1
  O  O22  1  0.42857800  0.60494900  0.90895200  1
  O  O23  1  0.82446700  0.58275600  0.99694500  1
  O  O24  1  0.56017100  0.44468800  0.38996300  1
  O  O25  1  0.55531200  0.88996300  0.93982900  1
  O  O26  1  0.90708100  0.40404100  0.24141000  1
  O  O27  1  0.94468800  0.11003700  0.43982900  1
  O  O28  1  0.62500000  0.44581600  0.69581600  1
  O  O29  1  0.92857800  0.89505100  0.09104800  1
  O  O30  1  0.67553300  0.41724400  0.49694500  1
  O  O31  1  0.89505100  0.09104800  0.92857800  1
  O  O32  1  0.93982900  0.55531200  0.88996300  1
  O  O33  1  0.30531200  0.18982900  0.36003700  1
  O  O34  1  0.84595900  0.65708100  0.49141000  1
  O  O35  1  0.09595900  0.75859000  0.40708100  1
  O  O36  1  0.69581600  0.62500000  0.44581600  1
  O  O37  1  0.15404100  0.15708100  0.00859000  1
  O  O38  1  0.25859000  0.09291900  0.90404100  1
  O  O39  1  0.81017100  0.86003700  0.19468800  1
  O  O40  1  0.12500000  0.05418400  0.30418400  1
  O  O41  1  0.59595900  0.74141000  0.59291900  1
  O  O42  1  0.60494900  0.90895200  0.42857800  1
  O  O43  1  0.19468800  0.81017100  0.86003700  1
  O  O44  1  0.40708100  0.09595900  0.75859000  1
  O  O45  1  0.85494900  0.82142200  0.65895200  1
  O  O46  1  0.32446700  0.91724400  0.00305500  1
  O  O47  1  0.49141000  0.84595900  0.65708100  1
  O  O48  1  0.24694500  0.66724400  0.57446700  1
  O  O49  1  0.10494900  0.59104800  0.57142200  1
  O  O50  1  0.84104800  0.14505100  0.32142200  1
  O  O51  1  0.84291900  0.50859000  0.34595900  1
  O  O52  1  0.41724400  0.49694500  0.67553300  1
  O  O53  1  0.61003700  0.06017100  0.05531200  1
  O  O54  1  0.80418400  0.37500000  0.94581600  1
  O  O55  1  0.94581600  0.80418400  0.37500000  1
  O  O56  1  0.06017100  0.05531200  0.61003700  1
  O  O57  1  0.17857800  0.15895200  0.64505100  1
  O  O58  1  0.34291900  0.99141000  0.65404100  1
  O  O59  1  0.05531200  0.61003700  0.06017100  1
  O  O60  1  0.66724400  0.57446700  0.24694500  1
  O  O61  1  0.44581600  0.69581600  0.62500000  1
  O  O62  1  0.34595900  0.84291900  0.50859000  1
  O  O63  1  0.75859000  0.40708100  0.09595900  1
  O  O64  1  0.34104800  0.35494900  0.67857800  1
  O  O65  1  0.82142200  0.65895200  0.85494900  1
  O  O66  1  0.16724400  0.92553300  0.75305500  1
  O  O67  1  0.37500000  0.94581600  0.80418400  1
  O  O68  1  0.55418400  0.19581600  0.87500000  1
  O  O69  1  0.42553300  0.74694500  0.83275600  1
  O  O70  1  0.30418400  0.12500000  0.05418400  1
  O  O71  1  0.87500000  0.55418400  0.19581600  1
  O  O72  1  0.88996300  0.93982900  0.55531200  1
  O  O73  1  0.59104800  0.57142200  0.10494900  1
  O  O74  1  0.17553300  0.08275600  0.50305500  1
  O  O75  1  0.38996300  0.56017100  0.44468800  1
  O  O76  1  0.50305500  0.17553300  0.08275600  1
  O  O77  1  0.19581600  0.87500000  0.55418400  1
  O  O78  1  0.40404100  0.24141000  0.90708100  1
  O  O79  1  0.18982900  0.36003700  0.30531200  1
  O  O80  1  0.58275600  0.99694500  0.82446700  1
  O  O81  1  0.90404100  0.25859000  0.09291900  1
  O  O82  1  0.08275600  0.50305500  0.17553300  1
  O  O83  1  0.75305500  0.16724400  0.92553300  1
  O  O84  1  0.39505100  0.40895200  0.07142200  1
  O  O85  1  0.92553300  0.75305500  0.16724400  1
  O  O86  1  0.80531200  0.31017100  0.63996300  1
  O  O87  1  0.74694500  0.83275600  0.42553300  1
  O  O88  1  0.65404100  0.34291900  0.99141000  1
  O  O89  1  0.63996300  0.80531200  0.31017100  1
  O  O90  1  0.07142200  0.39505100  0.40895200  1
  O  O91  1  0.09104800  0.92857800  0.89505100  1
  O  O92  1  0.50859000  0.34595900  0.84291900  1
  O  O93  1  0.00305500  0.32446700  0.91724400  1
  O  O94  1  0.68982900  0.13996300  0.69468800  1
  O  O95  1  0.44468800  0.38996300  0.56017100  1
  O  O96  1  0.91724400  0.00305500  0.32446700  1
  O  O97  1  0.43982900  0.94468800  0.11003700  1
  O  O98  1  0.24141000  0.90708100  0.40404100  1
  O  O99  1  0.00859000  0.15404100  0.15708100  1
  O  O100  1  0.31017100  0.63996300  0.80531200  1
  O  O101  1  0.15708100  0.00859000  0.15404100  1
  O  O102  1  0.67857800  0.34104800  0.35494900  1
  O  O103  1  0.86003700  0.19468800  0.81017100  1
  O  O104  1  0.59291900  0.59595900  0.74141000  1
  O  O105  1  0.69468800  0.68982900  0.13996300  1
  O  O106  1  0.49694500  0.67553300  0.41724400  1
  O  O107  1  0.40895200  0.07142200  0.39505100  1
loop_
_geom_bond_atom_site_label_1
_geom_bond_atom_site_label_2
_geom_bond_distance
_geom_bond_site_symmetry_2
K0 O90 2.824275 1_555
K0 O21 2.824275 1_555
K0 O79 2.928147 1_555
K0 O75 2.928147 1_555
K0 O49 2.938955 1_555
K0 O20 2.938955 1_555
K0 O15 2.990608 1_455
K0 O35 2.990608 1_555
K0 O48 3.185721 1_555
K0 O82 3.185721 1_555
K1 O84 2.824275 1_555
K1 O102 2.824275 1_555
K1 O14 2.928147 1_555
K1 O24 2.928147 1_555
K1 O73 2.938955 1_555
K1 O19 2.938955 1_555
K1 O63 2.990608 1_555
K1 O88 2.990608 1_554
K1 O60 3.185721 1_555
K1 O76 3.185721 1_555
K2 O65 2.824275 1_555
K2 O49 2.824275 1_655
K2 O32 2.928147 1_555
K2 O12 2.928147 1_655
K2 O5 2.938955 1_555
K2 O45 2.938955 1_555
K2 O34 2.990608 1_555
K2 O10 2.990608 1_555
K2 O8 3.185721 1_555
K2 O2 3.185721 1_555
K3 O107 2.824275 1_555
K3 O64 2.824275 1_555
K3 O33 2.928147 1_555
K3 O95 2.928147 1_555
K3 O4 2.938955 1_555
K3 O57 2.938955 1_555
K3 O58 2.990608 1_545
K3 O44 2.990608 1_555
K3 O11 3.185721 1_555
K3 O74 3.185721 1_555
K4 O19 2.824275 1_555
K4 O29 2.824275 1_545
K4 O53 2.928147 1_555
K4 O39 2.928147 1_545
K4 O50 2.938955 1_555
K4 O31 2.938955 1_554
K4 O81 2.990608 1_555
K4 O99 2.990608 1_655
K4 O83 3.185721 1_554
K4 O96 3.185721 1_555
K5 O4 2.824275 1_565
K5 O45 2.824275 1_555
K5 O72 2.928147 1_555
K5 O94 2.928147 1_565
K5 O9 2.938955 1_555
K5 O42 2.938955 1_555
K5 O41 2.990608 1_555
K5 O47 2.990608 1_555
K5 O80 3.185721 1_555
K5 O87 3.185721 1_555
K6 O20 2.824275 1_555
K6 O91 2.824275 1_554
K6 O43 2.928147 1_554
K6 O59 2.928147 1_555
K6 O29 2.938955 1_455
K6 O3 2.938955 1_555
K6 O13 2.990608 1_555
K6 O101 2.990608 1_565
K6 O85 3.185721 1_455
K6 O46 3.185721 1_555
K7 O42 2.824275 1_555
K7 O3 2.824275 1_555
K7 O89 2.928147 1_555
K7 O97 2.928147 1_555
K7 O21 2.938955 1_555
K7 O107 2.938955 1_565
K7 O98 2.990608 1_555
K7 O62 2.990608 1_555
K7 O106 3.185721 1_555
K7 O1 3.185721 1_565
K8 O73 2.824275 1_556
K8 O9 2.824275 1_555
K8 O25 2.928147 1_555
K8 O105 2.928147 1_556
K8 O22 2.938955 1_555
K8 O65 2.938955 1_555
K8 O104 2.990608 1_555
K8 O16 2.990608 1_555
K8 O23 3.185721 1_555
K8 O69 3.185721 1_555
K9 O5 2.824275 1_555
K9 O50 2.824275 1_555
K9 O86 2.928147 1_555
K9 O27 2.928147 1_555
K9 O102 2.938955 1_555
K9 O90 2.938955 1_655
K9 O51 2.990608 1_555
K9 O26 2.990608 1_555
K9 O30 3.185721 1_555
K9 O17 3.185721 1_655
K10 O57 2.824275 1_555
K10 O31 2.824275 1_455
K10 O103 2.928147 1_455
K10 O56 2.928147 1_555
K10 O0 2.938955 1_555
K10 O91 2.938955 1_545
K10 O38 2.990608 1_555
K10 O37 2.990608 1_556
K10 O66 3.185721 1_545
K10 O93 3.185721 1_555
K11 O22 2.824275 1_555
K11 O0 2.824275 1_555
K11 O100 2.928147 1_555
K11 O6 2.928147 1_555
K11 O64 2.938955 1_555
K11 O84 2.938955 1_556
K11 O78 2.990608 1_555
K11 O92 2.990608 1_555
K11 O52 3.185721 1_555
K11 O18 3.185721 1_556
Ce0 O30 2.597606 1_555
Ce0 O52 2.597606 1_555
Ce0 O106 2.597606 1_555
Ce0 O24 2.607277 1_555
Ce0 O75 2.607277 1_555
Ce0 O95 2.607277 1_555
Ce0 O61 2.663410 1_555
Ce0 O36 2.663410 1_555
Ce0 O28 2.663410 1_555
Ce0 O10 2.771254 1_555
Ce0 O41 2.771254 1_555
Ce0 O104 2.771254 1_555
Ce1 O93 2.597606 1_654
Ce1 O82 2.597606 1_655
Ce1 O23 2.597606 1_554
Ce1 O6 2.607277 1_654
Ce1 O32 2.607277 1_554
Ce1 O59 2.607277 1_655
Ce1 O54 2.663410 1_554
Ce1 O71 2.663410 1_555
Ce1 O7 2.663410 1_655
Ce1 O26 2.771254 1_555
Ce1 O81 2.771254 1_555
Ce1 O63 2.771254 1_555
Ce2 O74 2.597606 1_565
Ce2 O8 2.597606 1_455
Ce2 O96 2.597606 1_465
Ce2 O27 2.607277 1_465
Ce2 O72 2.607277 1_455
Ce2 O56 2.607277 1_565
Ce2 O55 2.663410 1_455
Ce2 O77 2.663410 1_555
Ce2 O40 2.663410 1_565
Ce2 O13 2.771254 1_555
Ce2 O98 2.771254 1_555
Ce2 O35 2.771254 1_555
Ce3 O46 2.597606 1_546
Ce3 O76 2.597606 1_556
Ce3 O80 2.597606 1_545
Ce3 O97 2.607277 1_546
Ce3 O53 2.607277 1_556
Ce3 O25 2.607277 1_545
Ce3 O67 2.663410 1_545
Ce3 O70 2.663410 1_556
Ce3 O68 2.663410 1_555
Ce3 O78 2.771254 1_555
Ce3 O44 2.771254 1_555
Ce3 O38 2.771254 1_555
Ce4 O69 2.597606 1_555
Ce4 O66 2.597606 1_555
Ce4 O48 2.597606 1_555
Ce4 O43 2.607277 1_555
Ce4 O12 2.607277 1_555
Ce4 O100 2.607277 1_555
Ce4 O61 2.663410 1_555
Ce4 O67 2.663410 1_555
Ce4 O77 2.663410 1_555
Ce4 O58 2.771254 1_555
Ce4 O62 2.771254 1_555
Ce4 O47 2.771254 1_555
Ce5 O87 2.597606 1_555
Ce5 O60 2.597606 1_555
Ce5 O85 2.597606 1_555
Ce5 O105 2.607277 1_555
Ce5 O39 2.607277 1_555
Ce5 O89 2.607277 1_555
Ce5 O55 2.663410 1_555
Ce5 O36 2.663410 1_555
Ce5 O71 2.663410 1_555
Ce5 O51 2.771254 1_555
Ce5 O34 2.771254 1_555
Ce5 O15 2.771254 1_555
Ce6 O2 2.597606 1_555
Ce6 O83 2.597606 1_555
Ce6 O11 2.597606 1_555
Ce6 O94 2.607277 1_555
Ce6 O103 2.607277 1_555
Ce6 O86 2.607277 1_555
Ce6 O54 2.663410 1_555
Ce6 O68 2.663410 1_555
Ce6 O28 2.663410 1_555
Ce6 O92 2.771254 1_555
Ce6 O16 2.771254 1_555
Ce6 O88 2.771254 1_555
Ce7 O1 2.597606 1_555
Ce7 O17 2.597606 1_555
Ce7 O18 2.597606 1_555
Ce7 O14 2.607277 1_555
Ce7 O33 2.607277 1_555
Ce7 O79 2.607277 1_555
Ce7 O7 2.663410 1_555
Ce7 O70 2.663410 1_555
Ce7 O40 2.663410 1_555
Ce7 O37 2.771254 1_555
Ce7 O99 2.771254 1_555
Ce7 O101 2.771254 1_555
N0 O4 1.243398 1_555
N0 O11 1.280368 1_555
N0 O94 1.282732 1_555
N1 O51 1.253788 1_555
N1 O26 1.253788 1_555
N1 O71 1.294116 1_555
N2 O10 1.253788 1_555
N2 O34 1.253788 1_555
N2 O36 1.294116 1_555
N3 O20 1.243398 1_555
N3 O82 1.280368 1_555
N3 O59 1.282732 1_555
N4 O84 1.243398 1_555
N4 O18 1.280368 1_555
N4 O14 1.282732 1_555
N5 O29 1.243398 1_555
N5 O85 1.280368 1_555
N5 O39 1.282732 1_555
N6 O16 1.253788 1_555
N6 O104 1.253788 1_555
N6 O28 1.294116 1_555
N7 O19 1.243398 1_555
N7 O76 1.280368 1_555
N7 O53 1.282732 1_555
N8 O101 1.253788 1_565
N8 O13 1.253788 1_555
N8 O40 1.294116 1_565
N9 O45 1.243398 1_555
N9 O8 1.280368 1_555
N9 O72 1.282732 1_555
N10 O63 1.253788 1_555
N10 O88 1.253788 1_554
N10 O54 1.294116 1_554
N11 O57 1.243398 1_555
N11 O74 1.280368 1_555
N11 O56 1.282732 1_555
N12 O90 1.243398 1_555
N12 O17 1.280368 1_555
N12 O79 1.282732 1_555
N13 O44 1.253788 1_555
N13 O58 1.253788 1_545
N13 O67 1.294116 1_545
N14 O0 1.243398 1_555
N14 O93 1.280368 1_555
N14 O6 1.282732 1_555
N15 O50 1.243398 1_555
N15 O96 1.280368 1_555
N15 O27 1.282732 1_555
N16 O21 1.243398 1_555
N16 O106 1.280368 1_555
N16 O75 1.282732 1_555
N17 O78 1.253788 1_555
N17 O92 1.253788 1_555
N17 O68 1.294116 1_555
N18 O22 1.243398 1_555
N18 O69 1.280368 1_555
N18 O100 1.282732 1_555
N19 O73 1.243398 1_555
N19 O60 1.280368 1_555
N19 O105 1.282732 1_555
N20 O31 1.243398 1_555
N20 O83 1.280368 1_555
N20 O103 1.282732 1_555
N21 O37 1.253788 1_556
N21 O38 1.253788 1_555
N21 O70 1.294116 1_556
N22 O49 1.243398 1_555
N22 O48 1.280368 1_555
N22 O12 1.282732 1_555
N23 O41 1.253788 1_555
N23 O47 1.253788 1_555
N23 O61 1.294116 1_555
N24 O9 1.243398 1_555
N24 O80 1.280368 1_555
N24 O25 1.282732 1_555
N25 O42 1.243398 1_555
N25 O87 1.280368 1_555
N25 O89 1.282732 1_555
N26 O35 1.253788 1_555
N26 O15 1.253788 1_455
N26 O55 1.294116 1_455
N27 O91 1.243398 1_555
N27 O66 1.280368 1_555
N27 O43 1.282732 1_555
N28 O3 1.243398 1_555
N28 O46 1.280368 1_555
N28 O97 1.282732 1_555
N29 O65 1.243398 1_555
N29 O23 1.280368 1_555
N29 O32 1.282732 1_555
N30 O64 1.243398 1_555
N30 O52 1.280368 1_555
N30 O95 1.282732 1_555
N31 O5 1.243398 1_555
N31 O2 1.280368 1_555
N31 O86 1.282732 1_555
N32 O99 1.253788 1_655
N32 O81 1.253788 1_555
N32 O7 1.294116 1_655
N33 O102 1.243398 1_555
N33 O30 1.280368 1_555
N33 O24 1.282732 1_555
N34 O107 1.243398 1_555
N34 O1 1.280368 1_555
N34 O33 1.282732 1_555
N35 O98 1.253788 1_555
N35 O62 1.253788 1_555
N35 O77 1.294116 1_555
