# generated using pymatgen
data_SiO2
_symmetry_space_group_name_H-M   'P 1'
_cell_length_a   18.58173500
_cell_length_b   18.58173500
_cell_length_c   9.39174000
_cell_angle_alpha   90.00000000
_cell_angle_beta   90.00000000
_cell_angle_gamma   90.00000000
_symmetry_Int_Tables_number   1
_chemical_formula_structural   SiO2
_chemical_formula_sum   'Si48 O96'
_cell_volume   3242.78821070
_cell_formula_units_Z   48
loop_
 _symmetry_equiv_pos_site_id
 _symmetry_equiv_pos_as_xyz
  1  'x, y, z'
loop_
 _atom_site_type_symbol
 _atom_site_label
 _atom_site_symmetry_multiplicity
 _atom_site_fract_x
 _atom_site_fract_y
 _atom_site_fract_z
 _atom_site_occupancy
  Si  Si0  1  0.30470600  0.31574600  0.33726100  1
  Si  Si1  1  0.81574600  0.19529400  0.33726100  1
  Si  Si2  1  0.18425400  0.80470600  0.33726100  1
  Si  Si3  1  0.19529400  0.81574600  0.66273900  1
  Si  Si4  1  0.80470600  0.18425400  0.66273900  1
  Si  Si5  1  0.69529400  0.68425400  0.33726100  1
  Si  Si6  1  0.31574600  0.30470600  0.66273900  1
  Si  Si7  1  0.68425400  0.69529400  0.66273900  1
  Si  Si8  1  0.19529400  0.18425400  0.66273900  1
  Si  Si9  1  0.68425400  0.30470600  0.66273900  1
  Si  Si10  1  0.31574600  0.69529400  0.66273900  1
  Si  Si11  1  0.30470600  0.68425400  0.33726100  1
  Si  Si12  1  0.69529400  0.31574600  0.33726100  1
  Si  Si13  1  0.80470600  0.81574600  0.66273900  1
  Si  Si14  1  0.18425400  0.19529400  0.33726100  1
  Si  Si15  1  0.81574600  0.80470600  0.33726100  1
  Si  Si16  1  0.41576200  0.20327900  0.83945200  1
  Si  Si17  1  0.70327900  0.08423800  0.83945200  1
  Si  Si18  1  0.29672100  0.91576200  0.83945200  1
  Si  Si19  1  0.08423800  0.70327900  0.16054800  1
  Si  Si20  1  0.91576200  0.29672100  0.16054800  1
  Si  Si21  1  0.58423800  0.79672100  0.83945200  1
  Si  Si22  1  0.20327900  0.41576200  0.16054800  1
  Si  Si23  1  0.79672100  0.58423800  0.16054800  1
  Si  Si24  1  0.08423800  0.29672100  0.16054800  1
  Si  Si25  1  0.79672100  0.41576200  0.16054800  1
  Si  Si26  1  0.20327900  0.58423800  0.16054800  1
  Si  Si27  1  0.41576200  0.79672100  0.83945200  1
  Si  Si28  1  0.58423800  0.20327900  0.83945200  1
  Si  Si29  1  0.91576200  0.70327900  0.16054800  1
  Si  Si30  1  0.29672100  0.08423800  0.83945200  1
  Si  Si31  1  0.70327900  0.91576200  0.83945200  1
  Si  Si32  1  0.58410600  0.31460000  0.08728300  1
  Si  Si33  1  0.81460000  0.91589400  0.08728300  1
  Si  Si34  1  0.18540000  0.08410600  0.08728300  1
  Si  Si35  1  0.91589400  0.81460000  0.91271700  1
  Si  Si36  1  0.08410600  0.18540000  0.91271700  1
  Si  Si37  1  0.41589400  0.68540000  0.08728300  1
  Si  Si38  1  0.31460000  0.58410600  0.91271700  1
  Si  Si39  1  0.68540000  0.41589400  0.91271700  1
  Si  Si40  1  0.91589400  0.18540000  0.91271700  1
  Si  Si41  1  0.68540000  0.58410600  0.91271700  1
  Si  Si42  1  0.31460000  0.41589400  0.91271700  1
  Si  Si43  1  0.58410600  0.68540000  0.08728300  1
  Si  Si44  1  0.41589400  0.31460000  0.08728300  1
  Si  Si45  1  0.08410600  0.81460000  0.91271700  1
  Si  Si46  1  0.18540000  0.91589400  0.08728300  1
  Si  Si47  1  0.81460000  0.08410600  0.08728300  1
  O  O0  1  0.38232600  0.38232600  0.00000000  1
  O  O1  1  0.88232600  0.11767400  0.00000000  1
  O  O2  1  0.11767400  0.88232600  0.00000000  1
  O  O3  1  0.61767400  0.61767400  0.00000000  1
  O  O4  1  0.11767400  0.11767400  0.00000000  1
  O  O5  1  0.61767400  0.38232600  0.00000000  1
  O  O6  1  0.38232600  0.61767400  0.00000000  1
  O  O7  1  0.88232600  0.88232600  0.00000000  1
  O  O8  1  0.50000000  0.33084600  0.11698000  1
  O  O9  1  0.83084600  0.00000000  0.11698000  1
  O  O10  1  0.16915400  0.00000000  0.11698000  1
  O  O11  1  0.00000000  0.83084600  0.88302000  1
  O  O12  1  0.00000000  0.16915400  0.88302000  1
  O  O13  1  0.50000000  0.66915400  0.11698000  1
  O  O14  1  0.33084600  0.50000000  0.88302000  1
  O  O15  1  0.66915400  0.50000000  0.88302000  1
  O  O16  1  0.62706500  0.12706500  0.83867000  1
  O  O17  1  0.62706500  0.87293500  0.83867000  1
  O  O18  1  0.37293500  0.12706500  0.83867000  1
  O  O19  1  0.87293500  0.62706500  0.16133000  1
  O  O20  1  0.12706500  0.37293500  0.16133000  1
  O  O21  1  0.37293500  0.87293500  0.83867000  1
  O  O22  1  0.12706500  0.62706500  0.16133000  1
  O  O23  1  0.87293500  0.37293500  0.16133000  1
  O  O24  1  0.59359100  0.24035000  0.99617100  1
  O  O25  1  0.74035000  0.90640900  0.99617100  1
  O  O26  1  0.25965000  0.09359100  0.99617100  1
  O  O27  1  0.90640900  0.74035000  0.00382900  1
  O  O28  1  0.09359100  0.25965000  0.00382900  1
  O  O29  1  0.40640900  0.75965000  0.99617100  1
  O  O30  1  0.24035000  0.59359100  0.00382900  1
  O  O31  1  0.75965000  0.40640900  0.00382900  1
  O  O32  1  0.90640900  0.25965000  0.00382900  1
  O  O33  1  0.75965000  0.59359100  0.00382900  1
  O  O34  1  0.24035000  0.40640900  0.00382900  1
  O  O35  1  0.59359100  0.75965000  0.99617100  1
  O  O36  1  0.40640900  0.24035000  0.99617100  1
  O  O37  1  0.09359100  0.74035000  0.00382900  1
  O  O38  1  0.25965000  0.90640900  0.99617100  1
  O  O39  1  0.74035000  0.09359100  0.99617100  1
  O  O40  1  0.50000000  0.18784900  0.80528200  1
  O  O41  1  0.68784900  0.00000000  0.80528200  1
  O  O42  1  0.31215100  0.00000000  0.80528200  1
  O  O43  1  0.00000000  0.68784900  0.19471800  1
  O  O44  1  0.00000000  0.31215100  0.19471800  1
  O  O45  1  0.50000000  0.81215100  0.80528200  1
  O  O46  1  0.18784900  0.50000000  0.19471800  1
  O  O47  1  0.81215100  0.50000000  0.19471800  1
  O  O48  1  0.16963400  0.16963400  0.50000000  1
  O  O49  1  0.66963400  0.33036600  0.50000000  1
  O  O50  1  0.33036600  0.66963400  0.50000000  1
  O  O51  1  0.83036600  0.83036600  0.50000000  1
  O  O52  1  0.33036600  0.33036600  0.50000000  1
  O  O53  1  0.83036600  0.16963400  0.50000000  1
  O  O54  1  0.16963400  0.83036600  0.50000000  1
  O  O55  1  0.66963400  0.66963400  0.50000000  1
  O  O56  1  0.11599600  0.24322400  0.28338000  1
  O  O57  1  0.74322400  0.38400400  0.28338000  1
  O  O58  1  0.25677600  0.61599600  0.28338000  1
  O  O59  1  0.38400400  0.74322400  0.71662000  1
  O  O60  1  0.61599600  0.25677600  0.71662000  1
  O  O61  1  0.88400400  0.75677600  0.28338000  1
  O  O62  1  0.24322400  0.11599600  0.71662000  1
  O  O63  1  0.75677600  0.88400400  0.71662000  1
  O  O64  1  0.38400400  0.25677600  0.71662000  1
  O  O65  1  0.75677600  0.11599600  0.71662000  1
  O  O66  1  0.24322400  0.88400400  0.71662000  1
  O  O67  1  0.11599600  0.75677600  0.28338000  1
  O  O68  1  0.88400400  0.24322400  0.28338000  1
  O  O69  1  0.61599600  0.74322400  0.71662000  1
  O  O70  1  0.25677600  0.38400400  0.28338000  1
  O  O71  1  0.74322400  0.61599600  0.28338000  1
  O  O72  1  0.19449800  0.12443200  0.23910700  1
  O  O73  1  0.62443200  0.30550200  0.23910700  1
  O  O74  1  0.37556800  0.69449800  0.23910700  1
  O  O75  1  0.30550200  0.62443200  0.76089300  1
  O  O76  1  0.69449800  0.37556800  0.76089300  1
  O  O77  1  0.80550200  0.87556800  0.23910700  1
  O  O78  1  0.12443200  0.19449800  0.76089300  1
  O  O79  1  0.87556800  0.80550200  0.76089300  1
  O  O80  1  0.30550200  0.37556800  0.76089300  1
  O  O81  1  0.87556800  0.19449800  0.76089300  1
  O  O82  1  0.12443200  0.80550200  0.76089300  1
  O  O83  1  0.19449800  0.87556800  0.23910700  1
  O  O84  1  0.80550200  0.12443200  0.23910700  1
  O  O85  1  0.69449800  0.62443200  0.76089300  1
  O  O86  1  0.37556800  0.30550200  0.23910700  1
  O  O87  1  0.62443200  0.69449800  0.23910700  1
  O  O88  1  0.25812900  0.24187100  0.32841200  1
  O  O89  1  0.74187100  0.24187100  0.32841200  1
  O  O90  1  0.25812900  0.75812900  0.32841200  1
  O  O91  1  0.24187100  0.74187100  0.67158800  1
  O  O92  1  0.75812900  0.25812900  0.67158800  1
  O  O93  1  0.74187100  0.75812900  0.32841200  1
  O  O94  1  0.24187100  0.25812900  0.67158800  1
  O  O95  1  0.75812900  0.74187100  0.67158800  1
loop_
_geom_bond_atom_site_label_1
_geom_bond_atom_site_label_2
_geom_bond_distance
_geom_bond_site_symmetry_2
O0 Si44 1.626277 1_555
O0 Si42 1.626277 1_554
O1 Si47 1.626277 1_555
O1 Si40 1.626277 1_554
O2 Si45 1.626277 1_554
O2 Si46 1.626277 1_555
O3 Si41 1.626277 1_554
O3 Si43 1.626277 1_555
O4 Si34 1.626277 1_555
O4 Si36 1.626277 1_554
O5 Si32 1.626277 1_555
O5 Si39 1.626277 1_554
O6 Si38 1.626277 1_554
O6 Si37 1.626277 1_555
O7 Si33 1.626277 1_555
O7 Si35 1.626277 1_554
O8 Si32 1.615975 1_555
O8 Si44 1.615975 1_555
O9 Si47 1.615975 1_555
O9 Si33 1.615975 1_545
O10 Si34 1.615975 1_555
O10 Si46 1.615975 1_545
O11 Si45 1.615975 1_555
O11 Si35 1.615975 1_455
O12 Si36 1.615975 1_555
O12 Si40 1.615975 1_455
O13 Si37 1.615975 1_555
O13 Si43 1.615975 1_555
O14 Si38 1.615975 1_555
O14 Si42 1.615975 1_555
O15 Si39 1.615975 1_555
O15 Si41 1.615975 1_555
O16 Si17 1.624482 1_555
O16 Si28 1.624482 1_555
O17 Si21 1.624482 1_555
O17 Si31 1.624482 1_555
O18 Si30 1.624482 1_555
O18 Si16 1.624482 1_555
O19 Si23 1.624482 1_555
O19 Si29 1.624482 1_555
O20 Si24 1.624482 1_555
O20 Si22 1.624482 1_555
O21 Si27 1.624482 1_555
O21 Si18 1.624482 1_555
O22 Si19 1.624482 1_555
O22 Si26 1.624482 1_555
O23 Si25 1.624482 1_555
O23 Si20 1.624482 1_555
O24 Si32 1.633047 1_556
O24 Si28 1.634348 1_555
O25 Si33 1.633047 1_556
O25 Si31 1.634348 1_555
O26 Si34 1.633047 1_556
O26 Si30 1.634348 1_555
O27 Si35 1.633047 1_554
O27 Si29 1.634348 1_555
O28 Si36 1.633047 1_554
O28 Si24 1.634348 1_555
O29 Si37 1.633047 1_556
O29 Si27 1.634348 1_555
O30 Si38 1.633047 1_554
O30 Si26 1.634348 1_555
O31 Si39 1.633047 1_554
O31 Si25 1.634348 1_555
O32 Si40 1.633047 1_554
O32 Si20 1.634348 1_555
O33 Si41 1.633047 1_554
O33 Si23 1.634348 1_555
O34 Si42 1.633047 1_554
O34 Si22 1.634348 1_555
O35 Si43 1.633047 1_556
O35 Si21 1.634348 1_555
O36 Si44 1.633047 1_556
O36 Si16 1.634348 1_555
O37 Si45 1.633047 1_554
O37 Si19 1.634348 1_555
O38 Si46 1.633047 1_556
O38 Si18 1.634348 1_555
O39 Si47 1.633047 1_556
O39 Si17 1.634348 1_555
O40 Si28 1.623367 1_555
O40 Si16 1.623367 1_555
O41 Si17 1.623367 1_555
O41 Si31 1.623367 1_545
O42 Si30 1.623367 1_555
O42 Si18 1.623367 1_545
O43 Si19 1.623367 1_555
O43 Si29 1.623367 1_455
O44 Si24 1.623367 1_555
O44 Si20 1.623367 1_455
O45 Si21 1.623367 1_555
O45 Si27 1.623367 1_555
O46 Si26 1.623367 1_555
O46 Si22 1.623367 1_555
O47 Si23 1.623367 1_555
O47 Si25 1.623367 1_555
O48 Si8 1.623934 1_555
O48 Si14 1.623934 1_555
O49 Si9 1.623934 1_555
O49 Si12 1.623934 1_555
O50 Si11 1.623934 1_555
O50 Si10 1.623934 1_555
O51 Si13 1.623934 1_555
O51 Si15 1.623934 1_555
O52 Si6 1.623934 1_555
O52 Si0 1.623934 1_555
O53 Si4 1.623934 1_555
O53 Si1 1.623934 1_555
O54 Si3 1.623934 1_555
O54 Si2 1.623934 1_555
O55 Si7 1.623934 1_555
O55 Si5 1.623934 1_555
O56 Si14 1.630337 1_555
O56 Si24 1.633162 1_555
O57 Si12 1.630337 1_555
O57 Si25 1.633162 1_555
O58 Si11 1.630337 1_555
O58 Si26 1.633162 1_555
O59 Si10 1.630337 1_555
O59 Si27 1.633162 1_555
O60 Si9 1.630337 1_555
O60 Si28 1.633162 1_555
O61 Si15 1.630337 1_555
O61 Si29 1.633162 1_555
O62 Si8 1.630337 1_555
O62 Si30 1.633162 1_555
O63 Si13 1.630337 1_555
O63 Si31 1.633162 1_555
O64 Si6 1.630337 1_555
O64 Si16 1.633162 1_555
O65 Si4 1.630337 1_555
O65 Si17 1.633162 1_555
O66 Si3 1.630337 1_555
O66 Si18 1.633162 1_555
O67 Si2 1.630337 1_555
O67 Si19 1.633162 1_555
O68 Si1 1.630337 1_555
O68 Si20 1.633162 1_555
O69 Si7 1.630337 1_555
O69 Si21 1.633162 1_555
O70 Si0 1.630337 1_555
O70 Si22 1.633162 1_555
O71 Si5 1.630337 1_555
O71 Si23 1.633162 1_555
O72 Si14 1.618585 1_555
O72 Si34 1.619641 1_555
O73 Si12 1.618585 1_555
O73 Si32 1.619641 1_555
O74 Si11 1.618585 1_555
O74 Si37 1.619641 1_555
O75 Si10 1.618585 1_555
O75 Si38 1.619641 1_555
O76 Si9 1.618585 1_555
O76 Si39 1.619641 1_555
O77 Si15 1.618585 1_555
O77 Si33 1.619641 1_555
O78 Si8 1.618585 1_555
O78 Si36 1.619641 1_555
O79 Si13 1.618585 1_555
O79 Si35 1.619641 1_555
O80 Si6 1.618585 1_555
O80 Si42 1.619641 1_555
O81 Si4 1.618585 1_555
O81 Si40 1.619641 1_555
O82 Si3 1.618585 1_555
O82 Si45 1.619641 1_555
O83 Si2 1.618585 1_555
O83 Si46 1.619641 1_555
O84 Si1 1.618585 1_555
O84 Si47 1.619641 1_555
O85 Si7 1.618585 1_555
O85 Si41 1.619641 1_555
O86 Si0 1.618585 1_555
O86 Si44 1.619641 1_555
O87 Si5 1.618585 1_555
O87 Si43 1.619641 1_555
O88 Si0 1.624913 1_555
O88 Si14 1.624913 1_555
O89 Si12 1.624913 1_555
O89 Si1 1.624913 1_555
O90 Si2 1.624913 1_555
O90 Si11 1.624913 1_555
O91 Si10 1.624913 1_555
O91 Si3 1.624913 1_555
O92 Si4 1.624913 1_555
O92 Si9 1.624913 1_555
O93 Si5 1.624913 1_555
O93 Si15 1.624913 1_555
O94 Si6 1.624913 1_555
O94 Si8 1.624913 1_555
O95 Si7 1.624913 1_555
O95 Si13 1.624913 1_555
