# generated using pymatgen
data_Tb4In20Ni11
_symmetry_space_group_name_H-M   'P 1'
_cell_length_a   4.31358020
_cell_length_b   11.46682216
_cell_length_c   13.98580245
_cell_angle_alpha   80.05718212
_cell_angle_beta   81.12885643
_cell_angle_gamma   79.15868421
_symmetry_Int_Tables_number   1
_chemical_formula_structural   Tb4In20Ni11
_chemical_formula_sum   'Tb4 In20 Ni11'
_cell_volume   663.90897581
_cell_formula_units_Z   1
loop_
 _symmetry_equiv_pos_site_id
 _symmetry_equiv_pos_as_xyz
  1  'x, y, z'
loop_
 _atom_site_type_symbol
 _atom_site_label
 _atom_site_symmetry_multiplicity
 _atom_site_fract_x
 _atom_site_fract_y
 _atom_site_fract_z
 _atom_site_occupancy
  Tb  Tb0  1  0.11913965  0.09214305  0.66957766  1
  Tb  Tb1  1  0.77122513  0.63327093  0.82427882  1
  Tb  Tb2  1  0.88086035  0.90785695  0.33042234  1
  Tb  Tb3  1  0.22877487  0.36672907  0.17572118  1
  In  In0  1  0.11532378  0.32052821  0.44882423  1
  In  In1  1  0.75362380  0.20282649  0.28992591  1
  In  In2  1  0.61227679  0.46676174  0.30868468  1
  In  In3  1  0.93765465  0.33592467  0.78876603  1
  In  In4  1  0.06234535  0.66407533  0.21123397  1
  In  In5  1  0.98948726  0.92515410  0.09587139  1
  In  In6  1  0.60202739  0.78634680  0.00959843  1
  In  In7  1  0.54065284  0.29691060  0.62178372  1
  In  In8  1  0.01051274  0.07484590  0.90412861  1
  In  In9  1  0.45934716  0.70308940  0.37821628  1
  In  In10  1  0.88467622  0.67947179  0.55117577  1
  In  In11  1  0.24637620  0.79717351  0.71007409  1
  In  In12  1  0.20257943  0.59693846  0.99790269  1
  In  In13  1  0.70332218  0.09561610  0.49773953  1
  In  In14  1  0.62784619  0.93941093  0.80489669  1
  In  In15  1  0.39797261  0.21365320  0.99040157  1
  In  In16  1  0.37215381  0.06058907  0.19510331  1
  In  In17  1  0.38772321  0.53323826  0.69131532  1
  In  In18  1  0.79742057  0.40306154  0.00209731  1
  In  In19  1  0.29667782  0.90438390  0.50226047  1
  Ni  Ni0  1  0.13702256  0.82888324  0.89707165  1
  Ni  Ni1  1  0.97845109  0.44577276  0.59732506  1
  Ni  Ni2  1  0.25547855  0.10835425  0.38068865  1
  Ni  Ni3  1  0.34730366  0.42641215  0.87898054  1
  Ni  Ni4  1  0.50740782  0.18201906  0.80316531  1
  Ni  Ni5  1  0.74452145  0.89164575  0.61931135  1
  Ni  Ni6  1  0.49259218  0.81798094  0.19683469  1
  Ni  Ni7  1  0.65269634  0.57358785  0.12101946  1
  Ni  Ni8  1  0.86297744  0.17111676  0.10292835  1
  Ni  Ni9  1  0.50000000  0.50000000  0.50000000  1
  Ni  Ni10  1  0.02154891  0.55422724  0.40267494  1
loop_
_geom_bond_atom_site_label_1
_geom_bond_atom_site_label_2
_geom_bond_distance
_geom_bond_site_symmetry_2
In0 Ni10 2.614750 1_555
In0 Ni1 2.656601 1_455
In0 Ni2 2.694903 1_555
In0 Ni9 3.108128 1_555
In0 Ni9 3.108128 1_455
In0 In2 3.189022 1_455
In0 In2 3.189022 1_555
In0 In7 3.201025 1_555
In0 In7 3.201025 1_455
In0 In13 3.319302 1_455
In0 In13 3.319302 1_555
In0 In1 3.477346 1_455
In0 In1 3.477346 1_555
In0 Tb0 3.687557 1_555
In0 Tb3 3.732488 1_555
In1 Ni2 2.638501 1_655
In1 Ni2 2.638501 1_555
In1 Ni8 2.660442 1_555
In1 In13 2.945803 1_555
In1 In2 3.021751 1_555
In1 In16 3.091311 1_555
In1 In16 3.091311 1_655
In1 Tb3 3.112409 1_655
In1 Tb3 3.112409 1_555
In1 Tb2 3.286090 1_545
In2 Ni7 2.692329 1_555
In2 Ni9 2.724378 1_555
In2 Ni10 2.772682 1_655
In2 Ni10 2.772682 1_555
In2 In9 2.960447 1_555
In2 Tb3 3.147965 1_555
In2 Tb3 3.147965 1_655
In2 In4 3.243024 1_555
In2 In4 3.243024 1_655
In3 Ni1 2.749504 1_555
In3 Ni4 2.755646 1_555
In3 Ni4 2.755646 1_655
In3 Ni3 2.760527 1_655
In3 Ni3 2.760527 1_555
In3 In8 3.130318 1_655
In3 In7 3.235628 1_555
In3 In7 3.235628 1_655
In3 Tb0 3.404303 1_655
In3 Tb1 3.455660 1_555
In4 Ni10 2.749504 1_555
In4 Ni6 2.755646 1_555
In4 Ni6 2.755646 1_455
In4 Ni7 2.760527 1_455
In4 Ni7 2.760527 1_555
In4 In5 3.130318 1_455
In4 In9 3.235628 1_555
In4 In9 3.235628 1_455
In4 Tb2 3.404303 1_455
In4 Tb3 3.455660 1_555
In5 Ni6 2.748905 1_655
In5 Ni6 2.748905 1_555
In5 Ni8 2.786177 1_565
In5 In8 2.922314 1_664
In5 In6 3.011413 1_555
In5 In6 3.011413 1_655
In5 Ni0 3.099038 1_654
In5 Tb2 3.218075 1_555
In6 Ni7 2.649469 1_555
In6 Ni0 2.660555 1_554
In6 Ni0 2.660556 1_654
In6 Ni6 2.663475 1_555
In6 Tb1 3.291974 1_554
In7 Ni9 2.631311 1_555
In7 Ni4 2.645026 1_555
In7 Ni1 2.721928 1_555
In7 Ni1 2.721928 1_455
In7 Tb0 3.155184 1_555
In7 Tb0 3.155184 1_655
In8 Ni4 2.748905 1_455
In8 Ni4 2.748905 1_555
In8 Ni0 2.786177 1_545
In8 Ni8 3.099038 1_456
In8 Tb0 3.218075 1_555
In9 Ni9 2.631311 1_555
In9 Ni6 2.645026 1_555
In9 Ni10 2.721928 1_555
In9 Ni10 2.721928 1_655
In9 Tb2 3.155184 1_555
In9 Tb2 3.155184 1_455
In10 Ni1 2.614750 1_555
In10 Ni10 2.656601 1_655
In10 Ni5 2.694903 1_555
In10 Ni9 3.108128 1_555
In10 Ni9 3.108128 1_655
In10 In17 3.189022 1_655
In10 In17 3.189022 1_555
In10 In9 3.201025 1_555
In10 In9 3.201025 1_655
In10 In19 3.319302 1_655
In10 In19 3.319302 1_555
In10 In11 3.477346 1_655
In10 In11 3.477346 1_555
In10 Tb2 3.687557 1_555
In10 Tb1 3.732488 1_555
In11 Ni5 2.638501 1_455
In11 Ni5 2.638501 1_555
In11 Ni0 2.660442 1_555
In11 In19 2.945803 1_555
In11 In17 3.021751 1_555
In11 In14 3.091311 1_555
In11 In14 3.091311 1_455
In11 Tb1 3.112409 1_455
In11 Tb1 3.112409 1_555
In11 Tb0 3.286090 1_565
In12 Ni3 2.706151 1_555
In12 Ni7 2.735474 1_556
In12 Ni7 2.735474 1_456
In12 Ni0 2.772603 1_555
In12 In6 3.054547 1_556
In12 In6 3.054547 1_456
In12 In18 3.063525 1_556
In12 In18 3.063525 1_456
In12 In4 3.149900 1_556
In12 Tb1 3.206987 1_455
In12 Tb1 3.206987 1_555
In12 Tb3 3.297482 1_556
In13 Ni5 2.637514 1_545
In13 Ni2 2.686973 1_555
In13 Ni2 2.686973 1_655
In13 In7 3.037768 1_555
In13 In19 3.042068 1_545
In13 In19 3.042069 1_645
In13 Tb0 3.203785 1_655
In13 Tb0 3.203785 1_555
In13 Tb2 3.356287 1_545
In14 Ni5 2.697138 1_555
In14 Ni0 2.711853 1_555
In14 Ni0 2.711853 1_655
In14 Ni4 2.728852 1_565
In14 In8 3.078605 1_665
In14 In8 3.078605 1_565
In14 In6 3.086946 1_556
In14 Tb0 3.186643 1_565
In14 Tb0 3.186643 1_665
In14 Tb1 3.418426 1_555
In15 Ni3 2.649469 1_555
In15 Ni8 2.660555 1_556
In15 Ni8 2.660556 1_456
In15 Ni4 2.663475 1_555
In15 In8 3.011413 1_555
In15 In8 3.011413 1_655
In15 In18 3.054547 1_556
In15 In18 3.054547 1_456
In15 In16 3.086946 1_556
In15 Tb3 3.291974 1_556
In16 Ni2 2.697138 1_555
In16 Ni8 2.711853 1_555
In16 Ni8 2.711853 1_455
In16 Ni6 2.728852 1_545
In16 In5 3.078605 1_445
In16 In5 3.078605 1_545
In16 Tb2 3.186643 1_545
In16 Tb2 3.186643 1_445
In16 Tb3 3.418426 1_555
In17 Ni3 2.692329 1_555
In17 Ni9 2.724378 1_555
In17 Ni1 2.772682 1_455
In17 Ni1 2.772682 1_555
In17 In7 2.960447 1_555
In17 Tb1 3.147965 1_555
In17 Tb1 3.147965 1_455
In17 In3 3.243024 1_555
In17 In3 3.243024 1_455
In18 Ni7 2.706151 1_555
In18 Ni3 2.735474 1_554
In18 Ni3 2.735474 1_654
In18 Ni8 2.772603 1_555
In18 In3 3.149900 1_554
In18 Tb3 3.206987 1_655
In18 Tb3 3.206987 1_555
In18 Tb1 3.297482 1_554
In19 Ni2 2.637514 1_565
In19 Ni5 2.686973 1_555
In19 Ni5 2.686973 1_455
In19 In9 3.037768 1_555
In19 Tb2 3.203785 1_455
In19 Tb2 3.203785 1_555
In19 Tb0 3.356287 1_565
Ni0 Tb1 3.342597 1_455
Ni0 Tb1 3.342597 1_555
Ni1 Ni9 2.567149 1_555
Ni1 Ni9 2.567149 1_655
Ni1 Ni10 2.784606 1_655
Ni2 Tb2 3.270676 1_445
Ni2 Tb2 3.270676 1_545
Ni3 Ni4 3.086587 1_555
Ni3 Tb1 3.182628 1_555
Ni3 Tb1 3.182628 1_455
Ni4 Tb0 3.104378 1_555
Ni4 Tb0 3.104378 1_655
Ni5 Tb0 3.270676 1_665
Ni5 Tb0 3.270676 1_565
Ni6 Ni7 3.086587 1_555
Ni6 Tb2 3.104378 1_555
Ni6 Tb2 3.104378 1_455
Ni7 Tb3 3.182628 1_555
Ni7 Tb3 3.182628 1_655
Ni8 Tb3 3.342597 1_655
Ni8 Tb3 3.342597 1_555
Ni10 Ni9 2.567149 1_555
Ni10 Ni9 2.567149 1_455
