# generated using pymatgen
data_CdI2
_symmetry_space_group_name_H-M   'P 1'
_cell_length_a   4.34616362
_cell_length_b   4.34616362
_cell_length_c   80.83904800
_cell_angle_alpha   90.00000000
_cell_angle_beta   90.00000000
_cell_angle_gamma   119.99999429
_symmetry_Int_Tables_number   1
_chemical_formula_structural   CdI2
_chemical_formula_sum   'Cd11 I22'
_cell_volume   1322.40350738
_cell_formula_units_Z   11
loop_
 _symmetry_equiv_pos_site_id
 _symmetry_equiv_pos_as_xyz
  1  'x, y, z'
loop_
 _atom_site_type_symbol
 _atom_site_label
 _atom_site_symmetry_multiplicity
 _atom_site_fract_x
 _atom_site_fract_y
 _atom_site_fract_z
 _atom_site_occupancy
  Cd  Cd0  1  0.00000000  0.00000000  0.93181200  1
  Cd  Cd1  1  0.00000000  0.00000000  0.02273400  1
  Cd  Cd2  1  0.00000000  0.00000000  0.84090000  1
  Cd  Cd3  1  0.00000000  0.00000000  0.38639400  1
  Cd  Cd4  1  0.00000000  0.00000000  0.74999500  1
  Cd  Cd5  1  0.33333300  0.66666700  0.20454800  1
  Cd  Cd6  1  0.33333300  0.66666700  0.11364000  1
  Cd  Cd7  1  0.00000000  0.00000000  0.47727900  1
  Cd  Cd8  1  0.00000000  0.00000000  0.29546500  1
  Cd  Cd9  1  0.00000000  0.00000000  0.65907100  1
  Cd  Cd10  1  0.00000000  0.00000000  0.56817500  1
  I  I0  1  0.66666700  0.33333300  0.58955000  1
  I  I1  1  0.33333300  0.66666700  0.54678500  1
  I  I2  1  0.33333300  0.66666700  0.45588300  1
  I  I3  1  0.66666700  0.33333300  0.40778300  1
  I  I4  1  0.33333300  0.66666700  0.63768700  1
  I  I5  1  0.66666700  0.33333300  0.86229300  1
  I  I6  1  0.66666700  0.33333300  0.95319900  1
  I  I7  1  0.33333300  0.66666700  0.72859200  1
  I  I8  1  0.66666700  0.33333300  0.77137900  1
  I  I9  1  0.33333300  0.66666700  0.81951900  1
  I  I10  1  0.66666700  0.33333300  0.04412700  1
  I  I11  1  0.00000000  0.00000000  0.18314100  1
  I  I12  1  0.66666700  0.33333300  0.22592400  1
  I  I13  1  0.00000000  0.00000000  0.09224400  1
  I  I14  1  0.33333300  0.66666700  0.91039700  1
  I  I15  1  0.33333300  0.66666700  0.27408100  1
  I  I16  1  0.33333300  0.66666700  0.00137100  1
  I  I17  1  0.66666700  0.33333300  0.31686700  1
  I  I18  1  0.33333300  0.66666700  0.36500800  1
  I  I19  1  0.66666700  0.33333300  0.68046100  1
  I  I20  1  0.66666700  0.33333300  0.13503600  1
  I  I21  1  0.66666700  0.33333300  0.49866000  1
loop_
_geom_bond_atom_site_label_1
_geom_bond_atom_site_label_2
_geom_bond_distance
_geom_bond_site_symmetry_2
Cd0 I6 3.047208 1_455
Cd0 I6 3.047212 1_445
Cd0 I6 3.047212 1_555
Cd0 I14 3.048493 1_545
Cd0 I14 3.048496 1_555
Cd0 I14 3.048496 1_445
Cd1 I16 3.046108 1_545
Cd1 I16 3.046111 1_555
Cd1 I16 3.046111 1_445
Cd1 I10 3.047483 1_455
Cd1 I10 3.047487 1_445
Cd1 I10 3.047487 1_555
Cd2 I9 3.046933 1_545
Cd2 I9 3.046936 1_445
Cd2 I9 3.046936 1_555
Cd2 I5 3.047483 1_455
Cd2 I5 3.047487 1_555
Cd2 I5 3.047487 1_445
Cd3 I18 3.047162 1_545
Cd3 I18 3.047166 1_555
Cd3 I18 3.047166 1_445
Cd3 I3 3.047300 1_455
Cd3 I3 3.047303 1_555
Cd3 I3 3.047303 1_445
Cd4 I8 3.047071 1_455
Cd4 I8 3.047074 1_445
Cd4 I8 3.047074 1_555
Cd4 I7 3.047942 1_545
Cd4 I7 3.047946 1_445
Cd4 I7 3.047946 1_555
Cd5 I12 3.046704 1_455
Cd5 I12 3.046704 1_565
Cd5 I12 3.046710 1_555
Cd5 I11 3.048126 1_565
Cd5 I11 3.048129 1_665
Cd5 I11 3.048129 1_555
Cd6 I13 3.047621 1_565
Cd6 I20 3.047621 1_455
Cd6 I20 3.047621 1_565
Cd6 I13 3.047624 1_555
Cd6 I13 3.047624 1_665
Cd6 I20 3.047627 1_555
Cd7 I21 3.046933 1_455
Cd7 I21 3.046936 1_445
Cd7 I21 3.046936 1_555
Cd7 I2 3.047621 1_545
Cd7 I2 3.047624 1_555
Cd7 I2 3.047624 1_445
Cd8 I15 3.047071 1_545
Cd8 I15 3.047074 1_445
Cd8 I15 3.047074 1_555
Cd8 I17 3.047896 1_455
Cd8 I17 3.047900 1_555
Cd8 I17 3.047900 1_445
Cd9 I4 3.047071 1_545
Cd9 I4 3.047074 1_555
Cd9 I4 3.047074 1_445
Cd9 I19 3.047346 1_455
Cd9 I19 3.047349 1_555
Cd9 I19 3.047349 1_445
Cd10 I0 3.046658 1_455
Cd10 I0 3.046661 1_445
Cd10 I0 3.046661 1_555
Cd10 I1 3.047346 1_545
Cd10 I1 3.047349 1_445
Cd10 I1 3.047349 1_555
