# generated using pymatgen
data_Na3Sc2V3O12
_symmetry_space_group_name_H-M   'P 1'
_cell_length_a   11.07100376
_cell_length_b   11.07100376
_cell_length_c   11.07100376
_cell_angle_alpha   109.47122063
_cell_angle_beta   109.47122063
_cell_angle_gamma   109.47122063
_symmetry_Int_Tables_number   1
_chemical_formula_structural   Na3Sc2V3O12
_chemical_formula_sum   'Na12 Sc8 V12 O48'
_cell_volume   1044.57374028
_cell_formula_units_Z   4
loop_
 _symmetry_equiv_pos_site_id
 _symmetry_equiv_pos_as_xyz
  1  'x, y, z'
loop_
 _atom_site_type_symbol
 _atom_site_label
 _atom_site_symmetry_multiplicity
 _atom_site_fract_x
 _atom_site_fract_y
 _atom_site_fract_z
 _atom_site_occupancy
  Na  Na0  1  0.37500000  0.12500000  0.25000000  1
  Na  Na1  1  0.75000000  0.12500000  0.37500000  1
  Na  Na2  1  0.25000000  0.37500000  0.12500000  1
  Na  Na3  1  0.12500000  0.25000000  0.37500000  1
  Na  Na4  1  0.37500000  0.75000000  0.12500000  1
  Na  Na5  1  0.12500000  0.37500000  0.75000000  1
  Na  Na6  1  0.62500000  0.87500000  0.75000000  1
  Na  Na7  1  0.25000000  0.87500000  0.62500000  1
  Na  Na8  1  0.75000000  0.62500000  0.87500000  1
  Na  Na9  1  0.87500000  0.75000000  0.62500000  1
  Na  Na10  1  0.62500000  0.25000000  0.87500000  1
  Na  Na11  1  0.87500000  0.62500000  0.25000000  1
  Sc  Sc0  1  0.00000000  0.00000000  0.00000000  1
  Sc  Sc1  1  0.50000000  0.00000000  0.00000000  1
  Sc  Sc2  1  0.00000000  0.50000000  0.00000000  1
  Sc  Sc3  1  0.00000000  0.00000000  0.50000000  1
  Sc  Sc4  1  0.50000000  0.50000000  0.00000000  1
  Sc  Sc5  1  0.00000000  0.50000000  0.50000000  1
  Sc  Sc6  1  0.50000000  0.00000000  0.50000000  1
  Sc  Sc7  1  0.50000000  0.50000000  0.50000000  1
  V  V0  1  0.62500000  0.37500000  0.25000000  1
  V  V1  1  0.75000000  0.37500000  0.62500000  1
  V  V2  1  0.25000000  0.12500000  0.87500000  1
  V  V3  1  0.87500000  0.25000000  0.12500000  1
  V  V4  1  0.62500000  0.75000000  0.37500000  1
  V  V5  1  0.37500000  0.62500000  0.75000000  1
  V  V6  1  0.12500000  0.75000000  0.87500000  1
  V  V7  1  0.75000000  0.87500000  0.12500000  1
  V  V8  1  0.37500000  0.25000000  0.62500000  1
  V  V9  1  0.25000000  0.62500000  0.37500000  1
  V  V10  1  0.87500000  0.12500000  0.75000000  1
  V  V11  1  0.12500000  0.87500000  0.25000000  1
  O  O0  1  0.41208400  0.80607900  0.79915700  1
  O  O1  1  0.88707300  0.39399500  0.08791600  1
  O  O2  1  0.10600500  0.99307700  0.69392100  1
  O  O3  1  0.50692300  0.61292700  0.70084300  1
  O  O4  1  0.69392100  0.08791600  0.70084300  1
  O  O5  1  0.61292700  0.70084300  0.50692300  1
  O  O6  1  0.61292700  0.41208400  0.10600500  1
  O  O7  1  0.70084300  0.50692300  0.61292700  1
  O  O8  1  0.80607900  0.50692300  0.39399500  1
  O  O9  1  0.99307700  0.79915700  0.88707300  1
  O  O10  1  0.79915700  0.88707300  0.99307700  1
  O  O11  1  0.70084300  0.69392100  0.08791600  1
  O  O12  1  0.41208400  0.10600500  0.61292700  1
  O  O13  1  0.39399500  0.80607900  0.50692300  1
  O  O14  1  0.08791600  0.70084300  0.69392100  1
  O  O15  1  0.10600500  0.61292700  0.41208400  1
  O  O16  1  0.50692300  0.39399500  0.80607900  1
  O  O17  1  0.08791600  0.88707300  0.39399500  1
  O  O18  1  0.99307700  0.69392100  0.10600500  1
  O  O19  1  0.19392100  0.49307700  0.60600500  1
  O  O20  1  0.69392100  0.10600500  0.99307700  1
  O  O21  1  0.79915700  0.41208400  0.80607900  1
  O  O22  1  0.39399500  0.08791600  0.88707300  1
  O  O23  1  0.88707300  0.99307700  0.79915700  1
  O  O24  1  0.58791600  0.19392100  0.20084300  1
  O  O25  1  0.11292700  0.60600500  0.91208400  1
  O  O26  1  0.89399500  0.00692300  0.30607900  1
  O  O27  1  0.49307700  0.38707300  0.29915700  1
  O  O28  1  0.30607900  0.91208400  0.29915700  1
  O  O29  1  0.38707300  0.29915700  0.49307700  1
  O  O30  1  0.38707300  0.58791600  0.89399500  1
  O  O31  1  0.29915700  0.49307700  0.38707300  1
  O  O32  1  0.11292700  0.00692300  0.20084300  1
  O  O33  1  0.60600500  0.91208400  0.11292700  1
  O  O34  1  0.20084300  0.58791600  0.19392100  1
  O  O35  1  0.19392100  0.20084300  0.58791600  1
  O  O36  1  0.30607900  0.89399500  0.00692300  1
  O  O37  1  0.00692300  0.30607900  0.89399500  1
  O  O38  1  0.91208400  0.11292700  0.60600500  1
  O  O39  1  0.49307700  0.60600500  0.19392100  1
  O  O40  1  0.89399500  0.38707300  0.58791600  1
  O  O41  1  0.91208400  0.29915700  0.30607900  1
  O  O42  1  0.60600500  0.19392100  0.49307700  1
  O  O43  1  0.58791600  0.89399500  0.38707300  1
  O  O44  1  0.29915700  0.30607900  0.91208400  1
  O  O45  1  0.20084300  0.11292700  0.00692300  1
  O  O46  1  0.00692300  0.20084300  0.11292700  1
  O  O47  1  0.80607900  0.79915700  0.41208400  1
loop_
_geom_bond_atom_site_label_1
_geom_bond_atom_site_label_2
_geom_bond_distance
_geom_bond_site_symmetry_2
Na0 O27 2.523435 1_555
Na0 O32 2.523435 1_555
Na0 O24 2.523436 1_555
Na0 O28 2.523436 1_545
Na0 O29 2.665844 1_555
Na0 O45 2.665844 1_555
Na0 O42 2.665846 1_555
Na0 O36 2.665846 1_545
Na1 O42 2.523429 1_555
Na1 O26 2.523429 1_555
Na1 O40 2.523436 1_555
Na1 O33 2.523436 1_545
Na1 O24 2.665852 1_555
Na1 O38 2.665852 1_555
Na1 O41 2.665852 1_555
Na1 O43 2.665852 1_545
Na2 O31 2.523435 1_555
Na2 O45 2.523435 1_555
Na2 O34 2.523436 1_555
Na2 O44 2.523436 1_554
Na2 O27 2.665844 1_555
Na2 O46 2.665844 1_555
Na2 O39 2.665846 1_555
Na2 O37 2.665846 1_554
Na3 O29 2.523435 1_555
Na3 O46 2.523435 1_555
Na3 O35 2.523436 1_555
Na3 O41 2.523436 1_455
Na3 O31 2.665844 1_555
Na3 O32 2.665844 1_555
Na3 O19 2.665846 1_555
Na3 O26 2.665846 1_455
Na4 O39 2.523429 1_555
Na4 O36 2.523429 1_555
Na4 O43 2.523436 1_555
Na4 O25 2.523436 1_554
Na4 O34 2.665852 1_555
Na4 O33 2.665852 1_555
Na4 O28 2.665852 1_555
Na4 O30 2.665852 1_554
Na5 O19 2.523429 1_555
Na5 O37 2.523429 1_555
Na5 O30 2.523436 1_555
Na5 O38 2.523436 1_455
Na5 O35 2.665852 1_555
Na5 O25 2.665852 1_555
Na5 O44 2.665852 1_555
Na5 O40 2.665852 1_455
Na6 O23 2.523435 1_555
Na6 O3 2.523435 1_555
Na6 O4 2.523436 1_565
Na6 O0 2.523436 1_555
Na6 O10 2.665844 1_555
Na6 O5 2.665844 1_555
Na6 O20 2.665846 1_565
Na6 O13 2.665846 1_555
Na7 O13 2.523429 1_555
Na7 O2 2.523429 1_555
Na7 O22 2.523436 1_565
Na7 O15 2.523436 1_555
Na7 O12 2.665852 1_565
Na7 O0 2.665852 1_555
Na7 O17 2.665852 1_555
Na7 O14 2.665852 1_555
Na8 O10 2.523435 1_555
Na8 O7 2.523435 1_555
Na8 O11 2.523436 1_556
Na8 O21 2.523436 1_555
Na8 O3 2.665844 1_555
Na8 O9 2.665844 1_555
Na8 O18 2.665846 1_556
Na8 O16 2.665846 1_555
Na9 O9 2.523435 1_555
Na9 O5 2.523435 1_555
Na9 O14 2.523436 1_655
Na9 O47 2.523436 1_555
Na9 O23 2.665844 1_555
Na9 O7 2.665844 1_555
Na9 O2 2.665846 1_655
Na9 O8 2.665846 1_555
Na10 O20 2.523429 1_555
Na10 O16 2.523429 1_555
Na10 O1 2.523436 1_556
Na10 O12 2.523436 1_555
Na10 O6 2.665852 1_556
Na10 O21 2.665852 1_555
Na10 O22 2.665852 1_555
Na10 O4 2.665852 1_555
Na11 O8 2.523429 1_555
Na11 O18 2.523429 1_555
Na11 O17 2.523436 1_655
Na11 O6 2.523436 1_555
Na11 O15 2.665852 1_655
Na11 O1 2.665852 1_555
Na11 O11 2.665852 1_555
Na11 O47 2.665852 1_555
O0 V5 1.748903 1_555
O0 Sc1 2.117139 1_566
O1 V3 1.748903 1_555
O1 Sc2 2.117139 1_655
O2 V2 1.748905 1_565
O2 Sc3 2.117145 1_565
O3 V5 1.748914 1_555
O3 Sc7 2.117134 1_555
O4 V10 1.748903 1_555
O4 Sc6 2.117139 1_555
O5 V4 1.748914 1_555
O5 Sc7 2.117134 1_555
O6 V0 1.748903 1_555
O6 Sc4 2.117139 1_555
O7 V1 1.748914 1_555
O7 Sc7 2.117134 1_555
O8 V0 1.748905 1_555
O8 Sc5 2.117145 1_655
O9 V6 1.748914 1_655
O9 Sc0 2.117134 1_666
O10 V7 1.748914 1_556
O10 Sc0 2.117134 1_666
O11 V7 1.748903 1_555
O11 Sc4 2.117139 1_555
O12 V8 1.748903 1_555
O12 Sc6 2.117139 1_555
O13 V9 1.748905 1_555
O13 Sc6 2.117145 1_565
O14 V6 1.748903 1_555
O14 Sc5 2.117139 1_555
O15 V9 1.748903 1_555
O15 Sc5 2.117139 1_555
O16 V8 1.748905 1_555
O16 Sc4 2.117145 1_556
O17 V11 1.748903 1_555
O17 Sc3 2.117139 1_565
O18 V11 1.748905 1_655
O18 Sc2 2.117145 1_655
O19 V5 1.748905 1_555
O19 Sc5 2.117145 1_555
O20 V3 1.748905 1_556
O20 Sc1 2.117145 1_556
O21 V1 1.748903 1_555
O21 Sc2 2.117139 1_656
O22 V2 1.748903 1_555
O22 Sc1 2.117139 1_556
O23 V10 1.748914 1_565
O23 Sc0 2.117134 1_666
O24 V0 1.748903 1_555
O24 Sc1 2.117139 1_555
O25 V6 1.748903 1_555
O25 Sc2 2.117139 1_556
O26 V7 1.748905 1_545
O26 Sc3 2.117145 1_655
O27 V0 1.748914 1_555
O27 Sc7 2.117134 1_555
O28 V11 1.748903 1_555
O28 Sc6 2.117139 1_565
O29 V8 1.748914 1_555
O29 Sc7 2.117134 1_555
O30 V5 1.748903 1_555
O30 Sc4 2.117139 1_556
O31 V9 1.748914 1_555
O31 Sc7 2.117134 1_555
O32 V11 1.748914 1_545
O32 Sc0 2.117134 1_555
O33 V7 1.748903 1_555
O33 Sc1 2.117139 1_565
O34 V9 1.748903 1_555
O34 Sc2 2.117139 1_555
O35 V8 1.748903 1_555
O35 Sc3 2.117139 1_555
O36 V6 1.748905 1_554
O36 Sc1 2.117145 1_565
O37 V10 1.748905 1_455
O37 Sc2 2.117145 1_556
O38 V10 1.748903 1_555
O38 Sc3 2.117139 1_655
O39 V4 1.748905 1_555
O39 Sc4 2.117145 1_555
O40 V1 1.748903 1_555
O40 Sc5 2.117139 1_655
O41 V3 1.748903 1_555
O41 Sc5 2.117139 1_655
O42 V1 1.748905 1_555
O42 Sc6 2.117145 1_555
O43 V4 1.748903 1_555
O43 Sc6 2.117139 1_565
O44 V2 1.748903 1_555
O44 Sc4 2.117139 1_556
O45 V2 1.748914 1_554
O45 Sc0 2.117134 1_555
O46 V3 1.748914 1_455
O46 Sc0 2.117134 1_555
O47 V4 1.748903 1_555
O47 Sc3 2.117139 1_665
