# generated using pymatgen
data_Cs2SnBr6
_symmetry_space_group_name_H-M   'P 1'
_cell_length_a   7.76847479
_cell_length_b   7.76847517
_cell_length_c   7.76847615
_cell_angle_alpha   60.00000017
_cell_angle_beta   59.99999860
_cell_angle_gamma   60.00000066
_symmetry_Int_Tables_number   1
_chemical_formula_structural   Cs2SnBr6
_chemical_formula_sum   'Cs2 Sn1 Br6'
_cell_volume   331.50675332
_cell_formula_units_Z   1
loop_
 _symmetry_equiv_pos_site_id
 _symmetry_equiv_pos_as_xyz
  1  'x, y, z'
loop_
 _atom_site_type_symbol
 _atom_site_label
 _atom_site_symmetry_multiplicity
 _atom_site_fract_x
 _atom_site_fract_y
 _atom_site_fract_z
 _atom_site_occupancy
  Cs  Cs0  1  0.25000000  0.25000000  0.25000000  1
  Cs  Cs1  1  0.75000000  0.75000000  0.75000000  1
  Sn  Sn0  1  0.00000000  0.00000000  -0.00000000  1
  Br  Br0  1  0.76064939  0.23935161  0.23935161  1
  Br  Br1  1  0.23935161  0.76064939  0.76064939  1
  Br  Br2  1  0.23935161  0.23935161  0.76064939  1
  Br  Br3  1  0.76064939  0.23935161  0.76064939  1
  Br  Br4  1  0.76064939  0.76064939  0.23935161  1
  Br  Br5  1  0.23935161  0.76064939  0.23935161  1
loop_
_geom_bond_atom_site_label_1
_geom_bond_atom_site_label_2
_geom_bond_distance
_geom_bond_site_symmetry_2
Br0 Sn0 2.629585 1_655
Br0 Cs0 3.885991 1_655
Br0 Cs1 3.885999 1_554
Br0 Cs1 3.885999 1_545
Br0 Cs0 3.886006 1_555
Br1 Sn0 2.629574 1_566
Br1 Cs1 3.885991 1_555
Br1 Cs0 3.885999 1_556
Br1 Cs0 3.885999 1_565
Br1 Cs1 3.886007 1_455
Br2 Sn0 2.629584 1_556
Br2 Cs0 3.885992 1_556
Br2 Cs1 3.885999 1_545
Br2 Cs1 3.885999 1_455
Br2 Cs0 3.886007 1_555
Br3 Sn0 2.629574 1_656
Br3 Cs1 3.885991 1_555
Br3 Cs0 3.885999 1_556
Br3 Cs0 3.885999 1_655
Br3 Cs1 3.886007 1_545
Br4 Sn0 2.629573 1_665
Br4 Cs1 3.885992 1_555
Br4 Cs0 3.885999 1_565
Br4 Cs0 3.885999 1_655
Br4 Cs1 3.886007 1_554
Br5 Sn0 2.629585 1_565
Br5 Cs0 3.885991 1_565
Br5 Cs1 3.885999 1_554
Br5 Cs1 3.885999 1_455
Br5 Cs0 3.886007 1_555
