# generated using pymatgen
data_Rb2B10H6O19
_symmetry_space_group_name_H-M   'P 1'
_cell_length_a   7.72048800
_cell_length_b   9.32809933
_cell_length_c   12.26994301
_cell_angle_alpha   99.19406274
_cell_angle_beta   105.93714212
_cell_angle_gamma   91.59480887
_symmetry_Int_Tables_number   1
_chemical_formula_structural   Rb2B10H6O19
_chemical_formula_sum   'Rb4 B20 H12 O38'
_cell_volume   836.37331104
_cell_formula_units_Z   2
loop_
 _symmetry_equiv_pos_site_id
 _symmetry_equiv_pos_as_xyz
  1  'x, y, z'
loop_
 _atom_site_type_symbol
 _atom_site_label
 _atom_site_symmetry_multiplicity
 _atom_site_fract_x
 _atom_site_fract_y
 _atom_site_fract_z
 _atom_site_occupancy
  Rb  Rb0  1  0.07517300  0.26132100  0.79299600  1
  Rb  Rb1  1  0.51260100  0.94936000  0.74490200  1
  Rb  Rb2  1  0.48739900  0.05064000  0.25509800  1
  Rb  Rb3  1  0.92482700  0.73867900  0.20700400  1
  B  B0  1  0.00008200  0.85911300  0.73201200  1
  B  B1  1  0.17962600  0.94724400  0.93650200  1
  B  B2  1  0.00854800  0.75976000  0.53049700  1
  B  B3  1  0.17596500  0.04252300  0.44011500  1
  B  B4  1  0.04430300  0.25318600  0.10458100  1
  B  B5  1  0.36847300  0.82873400  0.44002600  1
  B  B6  1  0.57726600  0.33368300  0.92997300  1
  B  B7  1  0.23071200  0.48162200  0.10369700  1
  B  B8  1  0.41655600  0.35377500  0.52943500  1
  B  B9  1  0.58909500  0.33639100  0.73016700  1
  B  B10  1  0.41090500  0.66360900  0.26983300  1
  B  B11  1  0.58344400  0.64622500  0.47056500  1
  B  B12  1  0.76928800  0.51837800  0.89630300  1
  B  B13  1  0.42273400  0.66631700  0.07002700  1
  B  B14  1  0.63152700  0.17126600  0.55997400  1
  B  B15  1  0.95569700  0.74681400  0.89541900  1
  B  B16  1  0.82403500  0.95747700  0.55988500  1
  B  B17  1  0.99145200  0.24024000  0.46950300  1
  B  B18  1  0.82037400  0.05275600  0.06349800  1
  B  B19  1  0.99991800  0.14088700  0.26798800  1
  H  H0  1  0.37178700  0.55472900  0.72746100  1
  H  H1  1  0.13624800  0.58528100  0.47868200  1
  H  H2  1  0.22908800  0.67418700  0.72651800  1
  H  H3  1  0.42156800  0.69234500  0.91089500  1
  H  H4  1  0.26939000  0.38803600  0.37330900  1
  H  H5  1  0.62904200  0.88094800  0.00319000  1
  H  H6  1  0.37095800  0.11905200  0.99681000  1
  H  H7  1  0.73061000  0.61196400  0.62669100  1
  H  H8  1  0.57843100  0.30765500  0.08910500  1
  H  H9  1  0.77091200  0.32581300  0.27348200  1
  H  H10  1  0.86375200  0.41471900  0.52131800  1
  H  H11  1  0.62821300  0.44527100  0.27253900  1
  O  O0  1  0.08888800  0.84341600  0.97487500  1
  O  O1  1  0.14823800  0.95058600  0.82125100  1
  O  O2  1  0.07858800  0.77128900  0.64717400  1
  O  O3  1  0.05334000  0.65822900  0.45081000  1
  O  O4  1  0.11356300  0.14200700  0.51531700  1
  O  O5  1  0.12893600  0.04315000  0.32496900  1
  O  O6  1  0.09551100  0.24304600  0.21861000  1
  O  O7  1  0.33494200  0.63509400  0.77673400  1
  O  O8  1  0.47953200  0.73668600  0.99438400  1
  O  O9  1  0.29277100  0.94542000  0.49082500  1
  O  O10  1  0.29251400  0.42418600  0.45600300  1
  O  O11  1  0.11875600  0.35583700  0.05686100  1
  O  O12  1  0.51046600  0.28252100  0.81452300  1
  O  O13  1  0.26625800  0.54560500  0.21581600  1
  O  O14  1  0.44515300  0.39452600  0.64499200  1
  O  O15  1  0.33070800  0.78763700  0.32452400  1
  O  O16  1  0.70046500  0.95484600  0.97991000  1
  O  O17  1  0.49300600  0.75888900  0.51598900  1
  O  O18  1  0.69890700  0.45667200  0.97258100  1
  O  O19  1  0.30109300  0.54332800  0.02741900  1
  O  O20  1  0.50699400  0.24111100  0.48401100  1
  O  O21  1  0.29953500  0.04515400  0.02009000  1
  O  O22  1  0.66929200  0.21236300  0.67547600  1
  O  O23  1  0.55484700  0.60547400  0.35500800  1
  O  O24  1  0.73374200  0.45439500  0.78418400  1
  O  O25  1  0.48953400  0.71747900  0.18547700  1
  O  O26  1  0.88124400  0.64416300  0.94313900  1
  O  O27  1  0.70748600  0.57581400  0.54399700  1
  O  O28  1  0.70722900  0.05458000  0.50917500  1
  O  O29  1  0.52046800  0.26331400  0.00561600  1
  O  O30  1  0.66505800  0.36490600  0.22326600  1
  O  O31  1  0.90448900  0.75695400  0.78139000  1
  O  O32  1  0.87106400  0.95685000  0.67503100  1
  O  O33  1  0.88643700  0.85799300  0.48468300  1
  O  O34  1  0.94666000  0.34177100  0.54919000  1
  O  O35  1  0.92141200  0.22871100  0.35282600  1
  O  O36  1  0.85176200  0.04941400  0.17874900  1
  O  O37  1  0.91111200  0.15658400  0.02512500  1
loop_
_geom_bond_atom_site_label_1
_geom_bond_atom_site_label_2
_geom_bond_distance
_geom_bond_site_symmetry_2
B0 O32 1.477832 1_455
B0 O1 1.481443 1_555
B0 O31 1.486867 1_455
B0 O2 1.491209 1_555
B1 O21 1.369397 1_566
B1 O1 1.373229 1_555
B1 O0 1.392682 1_555
B2 O2 1.369649 1_555
B2 O3 1.371340 1_555
B2 O33 1.402176 1_455
B3 O5 1.359785 1_555
B3 O9 1.392214 1_545
B3 O4 1.392869 1_555
B4 O6 1.365069 1_555
B4 O11 1.386897 1_555
B4 O37 1.391768 1_455
B5 O15 1.354135 1_555
B5 O9 1.390504 1_555
B5 O17 1.398002 1_555
B6 O12 1.367281 1_555
B6 O29 1.373597 1_556
B6 O18 1.396498 1_555
B7 O13 1.358396 1_555
B7 O11 1.381799 1_555
B7 O19 1.391602 1_555
B8 O14 1.361911 1_555
B8 O10 1.382240 1_555
B8 O20 1.403571 1_555
B9 O12 1.478723 1_555
B9 O24 1.479875 1_555
B9 O22 1.480590 1_555
B9 O14 1.482610 1_555
B10 O25 1.478723 1_555
B10 O13 1.479875 1_555
B10 O15 1.480590 1_555
B10 O23 1.482610 1_555
B11 O23 1.361911 1_555
B11 O27 1.382240 1_555
B11 O17 1.403571 1_555
B12 O24 1.358396 1_555
B12 O26 1.381799 1_555
B12 O18 1.391602 1_555
B13 O25 1.367281 1_555
B13 O8 1.373597 1_554
B13 O19 1.396498 1_555
B14 O22 1.354135 1_555
B14 O28 1.390504 1_555
B14 O20 1.398002 1_555
B15 O31 1.365069 1_555
B15 O26 1.386897 1_555
B15 O0 1.391768 1_655
B16 O32 1.359785 1_555
B16 O28 1.392214 1_565
B16 O33 1.392869 1_555
B17 O35 1.369649 1_555
B17 O34 1.371340 1_555
B17 O4 1.402176 1_655
B18 O16 1.369397 1_544
B18 O36 1.373229 1_555
B18 O37 1.392682 1_555
B19 O5 1.477832 1_655
B19 O36 1.481443 1_555
B19 O6 1.486867 1_655
B19 O35 1.491209 1_555
H0 O7 0.984832 1_555
H1 O3 0.983921 1_555
H2 O7 0.996176 1_555
H2 O2 1.684480 1_555
H3 O8 1.011579 1_555
H3 O7 1.592761 1_555
H4 O10 0.981292 1_555
H5 O16 0.994532 1_554
H6 O21 0.994532 1_556
H7 O27 0.981292 1_555
H8 O29 1.011578 1_555
H8 O30 1.592762 1_555
H9 O30 0.996176 1_555
H9 O35 1.684480 1_555
H10 O34 0.983921 1_555
H11 O30 0.984832 1_555
O1 Rb0 3.024041 1_565
O1 Rb1 3.199468 1_555
O3 Rb3 3.102489 1_455
O5 Rb2 3.116138 1_555
O5 Rb3 3.135164 1_445
O9 Rb1 3.107243 1_555
O11 Rb0 3.137787 1_554
O12 Rb1 3.090372 1_545
O12 Rb0 3.295731 1_555
O13 Rb3 3.220850 1_455
O15 Rb2 3.045723 1_565
O15 Rb3 3.055446 1_455
O16 Rb1 2.841304 1_555
O17 Rb1 3.037385 1_555
O20 Rb2 3.037385 1_555
O21 Rb2 2.841304 1_555
O22 Rb1 3.045723 1_545
O22 Rb0 3.055446 1_655
O24 Rb0 3.220850 1_655
O25 Rb2 3.090372 1_565
O25 Rb3 3.295731 1_555
O26 Rb3 3.137787 1_556
O28 Rb2 3.107243 1_555
O32 Rb1 3.116138 1_555
O32 Rb0 3.135164 1_665
O34 Rb0 3.102489 1_655
O36 Rb3 3.024041 1_545
O36 Rb2 3.199468 1_555
