# generated using pymatgen
data_La8Al4I7
_symmetry_space_group_name_H-M   'P 1'
_cell_length_a   4.33090927
_cell_length_b   18.13862759
_cell_length_c   25.54661690
_cell_angle_alpha   77.18568167
_cell_angle_beta   85.16662638
_cell_angle_gamma   83.14162818
_symmetry_Int_Tables_number   1
_chemical_formula_structural   La8Al4I7
_chemical_formula_sum   'La24 Al12 I21'
_cell_volume   1939.41106340
_cell_formula_units_Z   3
loop_
 _symmetry_equiv_pos_site_id
 _symmetry_equiv_pos_as_xyz
  1  'x, y, z'
loop_
 _atom_site_type_symbol
 _atom_site_label
 _atom_site_symmetry_multiplicity
 _atom_site_fract_x
 _atom_site_fract_y
 _atom_site_fract_z
 _atom_site_occupancy
  La  La0  1  0.40234025  0.89932567  0.29771809  1
  La  La1  1  0.59807493  0.10012389  0.70209970  1
  La  La2  1  0.35503040  0.30285918  0.97827675  1
  La  La3  1  0.01405479  0.73827672  0.23698224  1
  La  La4  1  0.97191983  0.12863855  0.91872778  1
  La  La5  1  0.38719108  0.58885940  0.64101871  1
  La  La6  1  0.81074250  0.78009725  0.60197165  1
  La  La7  1  0.39384440  0.74283147  0.47394115  1
  La  La8  1  0.19079042  0.21998988  0.39742111  1
  La  La9  1  0.64095602  0.69711871  0.02138085  1
  La  La10  1  0.20685687  0.51404225  0.06536466  1
  La  La11  1  0.99776267  0.42794633  0.57686399  1
  La  La12  1  0.58562640  0.95336799  0.87670404  1
  La  La13  1  0.00418894  0.57076691  0.42361673  1
  La  La14  1  0.61529889  0.41109147  0.35896119  1
  La  La15  1  0.60742570  0.25578086  0.52600099  1
  La  La16  1  0.78836008  0.48550431  0.93432366  1
  La  La17  1  0.82870830  0.09585610  0.24544769  1
  La  La18  1  0.17064808  0.90448875  0.75343432  1
  La  La19  1  0.37231060  0.43868242  0.81235458  1
  La  La20  1  0.62655974  0.56151306  0.18744889  1
  La  La21  1  0.98319222  0.26211604  0.76250254  1
  La  La22  1  0.41535840  0.04732807  0.12173383  1
  La  La23  1  0.02285591  0.87142010  0.08064814  1
  Al  Al0  1  0.43641603  0.25665935  0.86065521  1
  Al  Al1  1  0.10452611  0.67247909  0.11757362  1
  Al  Al2  1  0.08868001  0.36686009  0.45417255  1
  Al  Al3  1  0.51952814  0.13360305  0.82197332  1
  Al  Al4  1  0.92997292  0.94152544  0.19947543  1
  Al  Al5  1  0.47794695  0.86725142  0.17748073  1
  Al  Al6  1  0.55805459  0.74389901  0.13884912  1
  Al  Al7  1  0.46139746  0.55762447  0.52335228  1
  Al  Al8  1  0.54032398  0.44099287  0.47717956  1
  Al  Al9  1  0.89037137  0.32766996  0.88217286  1
  Al  Al10  1  0.06877442  0.05956692  0.79975968  1
  Al  Al11  1  0.91311899  0.63223068  0.54596956  1
  I  I0  1  0.08262835  0.54680159  0.29469770  1
  I  I1  1  0.10833381  0.83211634  0.95844611  1
  I  I2  1  0.80481082  0.57873027  0.81042824  1
  I  I3  1  0.92101069  0.45284170  0.70542525  1
  I  I4  1  0.71121866  0.10963334  0.46886567  1
  I  I5  1  0.68481117  0.79952404  0.82859608  1
  I  I6  1  0.77798390  0.37651479  0.05699618  1
  I  I7  1  0.30107597  0.05759512  0.34265056  1
  I  I8  1  0.28306514  0.73544453  0.70065113  1
  I  I9  1  0.13301254  0.13287878  0.59937230  1
  I  I10  1  0.70098864  0.94261944  0.65608410  1
  I  I11  1  0.86797947  0.86674113  0.40067040  1
  I  I12  1  0.31173692  0.20091546  0.17047298  1
  I  I13  1  0.29201902  0.88988490  0.52993380  1
  I  I14  1  0.47692304  0.70566807  0.34788544  1
  I  I15  1  0.52368779  0.29325057  0.65219844  1
  I  I16  1  0.89268083  0.16816574  0.04037141  1
  I  I17  1  0.21579087  0.62288899  0.94258801  1
  I  I18  1  0.71643110  0.26434426  0.29897244  1
  I  I19  1  0.19809400  0.42114806  0.18933022  1
  I  I20  1  0.49688789  0.99945219  0.99948732  1
loop_
_geom_bond_atom_site_label_1
_geom_bond_atom_site_label_2
_geom_bond_distance
_geom_bond_site_symmetry_2
Al0 Al3 2.610523 1_555
Al0 Al9 2.630843 1_455
Al0 Al9 2.632017 1_555
Al0 La19 3.245332 1_555
Al0 La2 3.274667 1_555
Al0 La4 3.274857 1_455
Al0 La4 3.276798 1_555
Al0 La21 3.289830 1_455
Al0 La21 3.293945 1_555
Al1 Al6 2.632796 1_555
Al1 Al6 2.634063 1_455
Al1 La20 3.209577 1_455
Al1 La20 3.216959 1_555
Al1 La9 3.224789 1_455
Al1 La9 3.230275 1_555
Al1 La10 3.395686 1_555
Al1 La3 3.490735 1_555
Al1 La23 3.503968 1_555
Al2 Al8 2.673257 1_455
Al2 Al8 2.674345 1_555
Al2 La14 3.216359 1_455
Al2 La14 3.224626 1_555
Al2 La15 3.232285 1_555
Al2 La15 3.238715 1_455
Al2 La8 3.273894 1_555
Al2 La11 3.526368 1_455
Al2 La13 3.587063 1_555
Al3 La1 3.234595 1_555
Al3 La12 3.246686 1_545
Al3 La4 3.260614 1_555
Al3 La4 3.272117 1_455
Al3 La21 3.287444 1_555
Al3 La21 3.296674 1_455
Al4 Al5 2.666536 1_655
Al4 Al5 2.667271 1_555
Al4 La17 3.238259 1_565
Al4 La22 3.258172 1_665
Al4 La22 3.260115 1_565
Al4 La0 3.271968 1_555
Al4 La0 3.272481 1_655
Al4 La23 3.518275 1_655
Al4 La3 3.579572 1_655
Al5 Al6 2.614749 1_555
Al5 La0 3.233958 1_555
Al5 La22 3.249741 1_565
Al5 La23 3.266552 1_655
Al5 La23 3.273052 1_555
Al5 La3 3.293987 1_555
Al5 La3 3.300677 1_655
Al6 La20 3.252627 1_555
Al6 La23 3.270362 1_655
Al6 La23 3.272355 1_555
Al6 La9 3.275609 1_555
Al6 La3 3.285534 1_555
Al6 La3 3.296714 1_655
Al7 Al8 2.617243 1_555
Al7 La5 3.163756 1_555
Al7 La11 3.255990 1_555
Al7 La11 3.266889 1_455
Al7 La7 3.303181 1_555
Al7 La13 3.306039 1_655
Al7 La13 3.307204 1_555
Al8 La14 3.168558 1_555
Al8 La13 3.256694 1_555
Al8 La13 3.269041 1_655
Al8 La15 3.300830 1_555
Al8 La11 3.304504 1_455
Al8 La11 3.307102 1_555
Al9 La19 3.205034 1_555
Al9 La19 3.221144 1_655
Al9 La2 3.225762 1_555
Al9 La2 3.225850 1_655
Al9 La16 3.384815 1_555
Al9 La21 3.494710 1_555
Al9 La4 3.505086 1_555
Al10 Al3 2.662196 1_555
Al10 Al3 2.670482 1_455
Al10 La12 3.246975 1_445
Al10 La18 3.255755 1_545
Al10 La1 3.256700 1_455
Al10 La12 3.258396 1_545
Al10 La1 3.262720 1_555
Al10 La4 3.511590 1_455
Al10 La21 3.567123 1_455
Al11 Al7 2.674283 1_655
Al11 Al7 2.676216 1_555
Al11 La5 3.215193 1_655
Al11 La5 3.217402 1_555
Al11 La7 3.232733 1_555
Al11 La7 3.234135 1_655
Al11 La6 3.278449 1_555
Al11 La13 3.521578 1_655
Al11 La11 3.593694 1_555
I0 La13 3.400353 1_555
I0 La14 3.400885 1_555
I0 La14 3.418834 1_455
I0 La20 3.444637 1_555
I0 La3 3.446806 1_555
I0 La20 3.455591 1_455
I1 La23 3.334771 1_556
I1 La9 3.381060 1_556
I1 La9 3.401057 1_456
I1 La12 3.433928 1_555
I1 La12 3.448602 1_455
I2 La16 3.240227 1_555
I2 La19 3.312092 1_655
I2 La19 3.321058 1_555
I3 La11 3.396928 1_555
I3 La5 3.408409 1_555
I3 La5 3.420475 1_655
I3 La21 3.431161 1_555
I3 La19 3.437574 1_655
I3 La19 3.451930 1_555
I4 La8 3.222648 1_655
I4 La8 3.226976 1_555
I4 La15 3.268194 1_555
I5 La18 3.218188 1_555
I5 La18 3.223878 1_655
I5 La12 3.260058 1_555
I6 La16 3.313708 1_554
I6 La10 3.325737 1_555
I6 La10 3.335954 1_655
I6 La2 3.403168 1_554
I6 La2 3.409139 1_654
I7 La17 3.244661 1_555
I7 La17 3.253568 1_455
I7 La0 3.290533 1_545
I7 La8 3.498881 1_555
I8 La6 3.280716 1_455
I8 La6 3.286227 1_555
I8 La5 3.314851 1_555
I8 La18 3.581054 1_555
I9 La1 3.348166 1_555
I9 La1 3.349638 1_455
I9 La15 3.360946 1_555
I9 La15 3.364214 1_455
I10 La18 3.248725 1_655
I10 La18 3.254648 1_555
I10 La1 3.292393 1_565
I10 La6 3.491351 1_555
I11 La0 3.351705 1_655
I11 La0 3.354564 1_555
I11 La7 3.370484 1_555
I11 La7 3.372209 1_655
I12 La17 3.214668 1_455
I12 La17 3.224519 1_555
I12 La22 3.264764 1_555
I13 La6 3.225213 1_555
I13 La6 3.227430 1_455
I13 La7 3.265051 1_555
I14 La7 3.415247 1_555
I14 La0 3.447841 1_555
I14 La13 3.500717 1_655
I14 La3 3.501859 1_655
I14 La3 3.510845 1_555
I14 La13 3.514425 1_555
I15 La15 3.420987 1_555
I15 La1 3.437885 1_555
I15 La11 3.490704 1_455
I15 La21 3.491496 1_555
I15 La21 3.498175 1_455
I15 La11 3.512124 1_555
I16 La4 3.322459 1_554
I16 La2 3.377710 1_654
I16 La2 3.384076 1_554
I16 La22 3.425652 1_555
I16 La22 3.440298 1_655
I17 La10 3.314840 1_556
I17 La16 3.327602 1_555
I17 La16 3.329005 1_455
I17 La9 3.408762 1_456
I17 La9 3.416736 1_556
I18 La8 3.275689 1_555
I18 La8 3.282018 1_655
I18 La14 3.323175 1_555
I18 La17 3.582305 1_555
I19 La10 3.240035 1_555
I19 La20 3.314672 1_555
I19 La20 3.327481 1_455
I20 La12 3.401251 1_555
I20 La22 3.402320 1_566
I20 La23 3.491756 1_556
I20 La4 3.503080 1_565
I20 La23 3.503943 1_656
I20 La4 3.505735 1_465
