# generated using pymatgen
data_KAlH4
_symmetry_space_group_name_H-M   'P 1'
_cell_length_a   7.30367153
_cell_length_b   7.30367153
_cell_length_c   7.30367153
_cell_angle_alpha   137.10787733
_cell_angle_beta   137.10787733
_cell_angle_gamma   62.27211089
_symmetry_Int_Tables_number   1
_chemical_formula_structural   KAlH4
_chemical_formula_sum   'K2 Al2 H8'
_cell_volume   178.32002412
_cell_formula_units_Z   2
loop_
 _symmetry_equiv_pos_site_id
 _symmetry_equiv_pos_as_xyz
  1  'x, y, z'
loop_
 _atom_site_type_symbol
 _atom_site_label
 _atom_site_symmetry_multiplicity
 _atom_site_fract_x
 _atom_site_fract_y
 _atom_site_fract_z
 _atom_site_occupancy
  K  K0  1  0.37500000  0.12500000  0.25000000  1
  K  K1  1  0.62500000  0.87500000  0.75000000  1
  Al  Al0  1  0.87500000  0.62500000  0.25000000  1
  Al  Al1  1  0.12500000  0.37500000  0.75000000  1
  H  H0  1  0.18016398  0.60137911  0.38538820  1
  H  H1  1  0.71599291  0.79477777  0.11461180  1
  H  H2  1  0.29477777  0.68016398  0.07878487  1
  H  H3  1  0.10137911  0.21599291  0.42121513  1
  H  H4  1  0.81983602  0.39862089  0.61461180  1
  H  H5  1  0.28400709  0.20522223  0.88538820  1
  H  H6  1  0.70522223  0.31983602  0.92121513  1
  H  H7  1  0.89862089  0.78400709  0.57878487  1
loop_
_geom_bond_atom_site_label_1
_geom_bond_atom_site_label_2
_geom_bond_distance
_geom_bond_site_symmetry_2
Al0 H0 1.624187 1_655
Al0 H6 1.624192 1_554
Al0 H7 1.624192 1_555
Al0 H1 1.624201 1_555
Al1 H4 1.624187 1_455
Al1 H2 1.624192 1_556
Al1 H3 1.624192 1_555
Al1 H5 1.624201 1_555
H0 K1 2.684655 1_555
H0 K0 2.742585 1_555
H1 K1 2.684635 1_554
H1 K0 2.742593 1_565
H2 K0 2.684649 1_565
H2 K1 2.742587 1_555
H3 K0 2.684649 1_555
H3 K1 2.742587 1_444
H4 K0 2.684655 1_555
H4 K1 2.742585 1_555
H5 K0 2.684635 1_556
H5 K1 2.742593 1_545
H6 K1 2.684649 1_545
H6 K0 2.742587 1_555
H7 K1 2.684649 1_555
H7 K0 2.742587 1_666
