# generated using pymatgen
data_InOF
_symmetry_space_group_name_H-M   'P 1'
_cell_length_a   6.70803187
_cell_length_b   6.30240537
_cell_length_c   5.56630486
_cell_angle_alpha   68.50716864
_cell_angle_beta   60.95036934
_cell_angle_gamma   50.54246202
_symmetry_Int_Tables_number   1
_chemical_formula_structural   InOF
_chemical_formula_sum   'In4 O4 F4'
_cell_volume   158.25289531
_cell_formula_units_Z   4
loop_
 _symmetry_equiv_pos_site_id
 _symmetry_equiv_pos_as_xyz
  1  'x, y, z'
loop_
 _atom_site_type_symbol
 _atom_site_label
 _atom_site_symmetry_multiplicity
 _atom_site_fract_x
 _atom_site_fract_y
 _atom_site_fract_z
 _atom_site_occupancy
  In  In0  1  0.44676800  0.04477300  0.45902300  1
  In  In1  1  0.05572100  0.44063400  0.04757800  1
  In  In2  1  0.79349100  0.20794500  0.80583500  1
  In  In3  1  0.20533800  0.80409500  0.19772200  1
  O  O0  1  0.38874700  0.38276000  0.12213300  1
  O  O1  1  0.14102700  0.14139100  0.85968900  1
  O  O2  1  0.86801800  0.85340100  0.13820300  1
  O  O3  1  0.12090600  0.11540500  0.38034300  1
  F  F0  1  0.63150100  0.11663400  0.61976600  1
  F  F1  1  0.13131600  0.62572300  0.62649400  1
  F  F2  1  0.62817300  0.62787500  0.61495500  1
  F  F3  1  0.63416600  0.62372400  0.12065300  1
loop_
_geom_bond_atom_site_label_1
_geom_bond_atom_site_label_2
_geom_bond_distance
_geom_bond_site_symmetry_2
In0 O1 2.125280 1_555
In0 O3 2.172133 1_555
In0 O0 2.221133 1_555
In0 O2 2.230369 1_545
In1 O1 2.114357 1_554
In1 O3 2.165363 1_555
In1 O2 2.188339 1_455
In1 O0 2.247118 1_555
In2 O0 2.159238 1_556
In2 O1 2.245961 1_655
In2 O3 2.259602 1_655
In2 O2 2.261575 1_546
In3 O3 2.166451 1_565
In3 O0 2.214852 1_555
In3 O1 2.221971 1_564
In3 O2 2.255049 1_455
F0 In0 2.151351 1_555
F0 In2 2.215667 1_555
F1 In1 2.169272 1_556
F1 In3 2.190683 1_555
F2 In0 2.104401 1_565
F2 In2 2.171728 1_555
F3 In1 2.138455 1_655
F3 In3 2.180311 1_555
