# generated using pymatgen
data_Nb24I35Br9
_symmetry_space_group_name_H-M   'P 1'
_cell_length_a   11.51418407
_cell_length_b   13.63899024
_cell_length_c   15.37704453
_cell_angle_alpha   89.47044189
_cell_angle_beta   89.91374772
_cell_angle_gamma   90.44708271
_symmetry_Int_Tables_number   1
_chemical_formula_structural   Nb24I35Br9
_chemical_formula_sum   'Nb24 I35 Br9'
_cell_volume   2414.65976906
_cell_formula_units_Z   1
loop_
 _symmetry_equiv_pos_site_id
 _symmetry_equiv_pos_as_xyz
  1  'x, y, z'
loop_
 _atom_site_type_symbol
 _atom_site_label
 _atom_site_symmetry_multiplicity
 _atom_site_fract_x
 _atom_site_fract_y
 _atom_site_fract_z
 _atom_site_occupancy
  Nb  Nb0  1  0.07672400  0.37931300  0.55142900  1
  Nb  Nb1  1  0.07823700  0.88125100  0.94712300  1
  Nb  Nb2  1  0.10753300  0.47499400  0.39633900  1
  Nb  Nb3  1  0.10208800  0.98089200  0.10583600  1
  Nb  Nb4  1  0.13070900  0.08577900  0.94674800  1
  Nb  Nb5  1  0.12757500  0.58482300  0.55057100  1
  Nb  Nb6  1  0.36991300  0.58472900  0.94760600  1
  Nb  Nb7  1  0.36755900  0.09274600  0.54872100  1
  Nb  Nb8  1  0.39950500  0.47808000  0.10595700  1
  Nb  Nb9  1  0.39622900  0.98274400  0.39782900  1
  Nb  Nb10  1  0.42133000  0.87688400  0.54920100  1
  Nb  Nb11  1  0.42192200  0.38069700  0.94649500  1
  Nb  Nb12  1  0.56964500  0.61989600  0.05130600  1
  Nb  Nb13  1  0.57532900  0.12716600  0.45299200  1
  Nb  Nb14  1  0.60422400  0.02409400  0.60476100  1
  Nb  Nb15  1  0.59472100  0.52092100  0.89127000  1
  Nb  Nb16  1  0.62651000  0.91761900  0.45303100  1
  Nb  Nb17  1  0.62410500  0.41688300  0.04945600  1
  Nb  Nb18  1  0.87319100  0.41513100  0.45075400  1
  Nb  Nb19  1  0.87691700  0.91683900  0.04944200  1
  Nb  Nb20  1  0.90585500  0.02013600  0.89055000  1
  Nb  Nb21  1  0.90194800  0.51730400  0.60826900  1
  Nb  Nb22  1  0.93162500  0.12048800  0.04980200  1
  Nb  Nb23  1  0.92627100  0.61884500  0.45092700  1
  I  I0  1  0.03433900  0.27286700  0.39002000  1
  I  I1  1  0.04002700  0.77425400  0.11002000  1
  I  I2  1  0.09676800  0.48140200  0.71811000  1
  I  I3  1  0.10060100  0.98361900  0.78099200  1
  I  I4  1  0.14777900  0.68348200  0.38306400  1
  I  I5  1  0.15338900  0.18715800  0.11278400  1
  I  I6  1  0.19349500  0.94888700  0.50361600  1
  I  I7  1  0.19360400  0.44547000  0.99907600  1
  I  I8  1  0.30683300  0.94833400  0.99997600  1
  I  I9  1  0.30727400  0.44966100  0.50609400  1
  I  I10  1  0.34795100  0.68388200  0.11445500  1
  I  I11  1  0.35453300  0.19022900  0.38420400  1
  I  I12  1  0.39993300  0.48417700  0.78124100  1
  I  I13  1  0.40493700  0.98517200  0.71075800  1
  I  I14  1  0.46136000  0.77752000  0.38877200  1
  I  I15  1  0.46143300  0.27199000  0.10825600  1
  I  I16  1  0.53544300  0.72783700  0.88841400  1
  I  I17  1  0.53608700  0.22977100  0.61276600  1
  I  I18  1  0.59608800  0.51598700  0.21625700  1
  I  I19  1  0.59424900  0.02384400  0.28848500  1
  I  I20  1  0.64482800  0.31482200  0.88450700  1
  I  I21  1  0.64358100  0.81527200  0.61638100  1
  I  I22  1  0.67895800  0.79973900  0.12372900  1
  I  I23  1  0.69755900  0.55215100  0.50122600  1
  I  I24  1  0.70234500  0.05621600  0.99671000  1
  I  I25  1  0.80420900  0.05746300  0.49820000  1
  I  I26  1  0.79871100  0.55835100  0.99830000  1
  I  I27  1  0.82206000  0.29923500  0.12273300  1
  I  I28  1  0.82010900  0.79721400  0.37718700  1
  I  I29  1  0.85451700  0.81346400  0.88466900  1
  I  I30  1  0.85378400  0.31075700  0.61599200  1
  I  I31  1  0.90641700  0.01865000  0.21510300  1
  I  I32  1  0.91190100  0.51864300  0.28511600  1
  I  I33  1  0.96505200  0.22730600  0.88651500  1
  I  I34  1  0.96215300  0.72448000  0.61257200  1
  Br  Br0  1  0.18868700  0.70999800  0.88429800  1
  Br  Br1  1  0.18770700  0.20950100  0.61402700  1
  Br  Br2  1  0.25257600  0.94582800  0.25081500  1
  Br  Br3  1  0.25225300  0.43715400  0.25075800  1
  Br  Br4  1  0.31085600  0.20918500  0.88135600  1
  Br  Br5  1  0.31093800  0.70788900  0.61381700  1
  Br  Br6  1  0.68941000  0.29626900  0.38508600  1
  Br  Br7  1  0.75077500  0.05488300  0.74830300  1
  Br  Br8  1  0.74622400  0.55403500  0.74902600  1
loop_
_geom_bond_atom_site_label_1
_geom_bond_atom_site_label_2
_geom_bond_distance
_geom_bond_site_symmetry_2
I0 Nb18 2.857341 1_455
I0 Nb2 2.878999 1_555
I0 Nb0 2.926676 1_555
I1 Nb19 2.864540 1_455
I1 Nb3 2.902215 1_555
I1 Nb1 2.918338 1_554
I2 Nb21 2.852678 1_455
I2 Nb0 2.936670 1_555
I2 Nb5 2.945310 1_555
I3 Nb20 2.852343 1_465
I3 Nb1 2.910009 1_555
I3 Nb4 2.935808 1_565
I4 Nb2 2.882828 1_555
I4 Nb23 2.882882 1_455
I4 Nb5 2.903201 1_555
I5 Nb3 2.873077 1_545
I5 Nb22 2.876160 1_455
I5 Nb4 2.925789 1_554
I6 Nb9 2.875110 1_555
I6 Nb7 2.883690 1_565
I6 Nb10 2.893210 1_555
I7 Nb6 2.874415 1_555
I7 Nb11 2.896263 1_555
I7 Nb8 2.920334 1_556
I8 Nb4 2.886612 1_565
I8 Nb1 2.899686 1_555
I8 Nb3 2.902203 1_556
I9 Nb5 2.868073 1_555
I9 Nb2 2.875826 1_555
I9 Nb0 2.897544 1_555
I10 Nb12 2.874614 1_555
I10 Nb8 2.877647 1_555
I10 Nb6 2.922813 1_554
I11 Nb7 2.851691 1_555
I11 Nb9 2.879789 1_545
I11 Nb13 2.889164 1_555
I12 Nb15 2.855446 1_555
I12 Nb11 2.907671 1_555
I12 Nb6 2.935009 1_555
I13 Nb14 2.856134 1_565
I13 Nb10 2.908493 1_555
I13 Nb7 2.914057 1_565
I14 Nb10 2.864073 1_555
I14 Nb16 2.868339 1_555
I14 Nb9 2.907939 1_555
I15 Nb17 2.852233 1_555
I15 Nb8 2.905192 1_555
I15 Nb11 2.922017 1_554
I16 Nb6 2.859139 1_555
I16 Nb15 2.908614 1_555
I16 Nb12 2.922386 1_556
I17 Nb7 2.865514 1_555
I17 Nb13 2.875545 1_555
I17 Nb14 2.922395 1_555
I18 Nb8 2.876964 1_555
I18 Nb12 2.911603 1_555
I18 Nb17 2.928864 1_555
I19 Nb9 2.879403 1_545
I19 Nb13 2.915714 1_555
I19 Nb16 2.929598 1_545
I20 Nb15 2.876774 1_555
I20 Nb11 2.889223 1_555
I20 Nb17 2.914913 1_556
I21 Nb16 2.870104 1_555
I21 Nb10 2.889195 1_555
I21 Nb14 2.891376 1_565
I22 Nb12 2.974485 1_555
I22 Nb19 2.992105 1_555
I23 Nb18 2.874963 1_555
I23 Nb23 2.881685 1_555
I23 Nb21 2.913459 1_555
I24 Nb19 2.889207 1_546
I24 Nb22 2.896204 1_556
I24 Nb20 2.901574 1_555
I25 Nb14 2.855325 1_555
I25 Nb16 2.876553 1_545
I25 Nb13 2.892162 1_555
I26 Nb17 2.879274 1_556
I26 Nb12 2.892427 1_556
I26 Nb15 2.914534 1_555
I27 Nb22 2.981101 1_555
I27 Nb17 3.011799 1_555
I28 Nb23 2.949220 1_555
I28 Nb16 3.018398 1_555
I29 Nb20 2.877861 1_565
I29 Nb1 2.898155 1_655
I29 Nb19 2.921729 1_556
I30 Nb21 2.868257 1_555
I30 Nb0 2.896027 1_655
I30 Nb18 2.908426 1_555
I31 Nb3 2.861287 1_645
I31 Nb22 2.898389 1_555
I31 Nb19 2.931440 1_545
I32 Nb2 2.892600 1_655
I32 Nb23 2.908291 1_555
I32 Nb18 2.932483 1_555
I33 Nb4 2.872592 1_655
I33 Nb20 2.901546 1_555
I33 Nb22 2.914766 1_556
I34 Nb5 2.872237 1_655
I34 Nb21 2.905575 1_555
I34 Nb23 2.912866 1_555
Br0 Nb1 2.844389 1_555
Br0 Nb6 2.872629 1_555
Br1 Nb7 2.812014 1_555
Br1 Nb0 2.816444 1_555
Br2 Nb9 2.849417 1_555
Br2 Nb3 2.864607 1_555
Br3 Nb2 2.842169 1_555
Br3 Nb8 2.845161 1_555
Br4 Nb4 2.838043 1_555
Br4 Nb11 2.848032 1_555
Br5 Nb10 2.797084 1_555
Br5 Nb5 2.863863 1_555
Br6 Nb13 2.835363 1_555
Br6 Nb18 2.847594 1_555
Br7 Nb14 2.812999 1_555
Br7 Nb20 2.864138 1_555
Br8 Nb15 2.826523 1_555
Br8 Nb21 2.858858 1_555
