# generated using pymatgen
data_CuP10
_symmetry_space_group_name_H-M   'P 1'
_cell_length_a   7.17666391
_cell_length_b   11.90004009
_cell_length_c   12.30056229
_cell_angle_alpha   65.25731691
_cell_angle_beta   82.51809508
_cell_angle_gamma   82.48224976
_symmetry_Int_Tables_number   1
_chemical_formula_structural   CuP10
_chemical_formula_sum   'Cu4 P40'
_cell_volume   942.53263379
_cell_formula_units_Z   4
loop_
 _symmetry_equiv_pos_site_id
 _symmetry_equiv_pos_as_xyz
  1  'x, y, z'
loop_
 _atom_site_type_symbol
 _atom_site_label
 _atom_site_symmetry_multiplicity
 _atom_site_fract_x
 _atom_site_fract_y
 _atom_site_fract_z
 _atom_site_occupancy
  Cu  Cu0  1  0.22888402  0.82115168  0.24972187  1
  Cu  Cu1  1  0.77111598  0.17884832  0.75027813  1
  Cu  Cu2  1  0.22891164  0.11739163  0.96631218  1
  Cu  Cu3  1  0.77108836  0.88260837  0.03368782  1
  P  P0  1  0.74267014  0.09328031  0.95398389  1
  P  P1  1  0.52115867  0.08836006  0.22455133  1
  P  P2  1  0.53182457  0.56927166  0.20632397  1
  P  P3  1  0.51404506  0.35579595  0.98436404  1
  P  P4  1  0.17461865  0.14016449  0.51990195  1
  P  P5  1  0.48696289  0.14872038  0.52162204  1
  P  P6  1  0.06798165  0.55839122  0.19852589  1
  P  P7  1  0.50359996  0.37347757  0.25383683  1
  P  P8  1  0.25520043  0.20556796  0.76011051  1
  P  P9  1  0.52445838  0.34683286  0.43935381  1
  P  P10  1  0.49640004  0.62652243  0.74616317  1
  P  P11  1  0.51087791  0.11570162  0.71041617  1
  P  P12  1  0.17426515  0.64156821  0.00957813  1
  P  P13  1  0.06729660  0.33359914  0.42815100  1
  P  P14  1  0.48365477  0.15778876  0.02947856  1
  P  P15  1  0.51634523  0.84221124  0.97052144  1
  P  P16  1  0.25833274  0.61322287  0.29366286  1
  P  P17  1  0.93085163  0.16178769  0.03133797  1
  P  P18  1  0.46817543  0.43072834  0.79367603  1
  P  P19  1  0.25003696  0.44224077  0.47518414  1
  P  P20  1  0.07174067  0.11138756  0.70727106  1
  P  P21  1  0.48912209  0.88429838  0.28958383  1
  P  P22  1  0.82538135  0.85983551  0.48009805  1
  P  P23  1  0.51303711  0.85127962  0.47837796  1
  P  P24  1  0.92825933  0.88861244  0.29272894  1
  P  P25  1  0.16735147  0.90805651  0.77406248  1
  P  P26  1  0.93201835  0.44160878  0.80147411  1
  P  P27  1  0.18633752  0.36586416  0.24511419  1
  P  P28  1  0.93270340  0.66640086  0.57184900  1
  P  P29  1  0.47884133  0.91163994  0.77544867  1
  P  P30  1  0.82573485  0.35843179  0.99042187  1
  P  P31  1  0.48595494  0.64420405  0.01563596  1
  P  P32  1  0.74479957  0.79443204  0.23988949  1
  P  P33  1  0.25732986  0.90671969  0.04601611  1
  P  P34  1  0.06914837  0.83821231  0.96866203  1
  P  P35  1  0.81366248  0.63413584  0.75488581  1
  P  P36  1  0.74996304  0.55775923  0.52481586  1
  P  P37  1  0.47554162  0.65316714  0.56064619  1
  P  P38  1  0.83264853  0.09194349  0.22593752  1
  P  P39  1  0.74166726  0.38677713  0.70633714  1
loop_
_geom_bond_atom_site_label_1
_geom_bond_atom_site_label_2
_geom_bond_distance
_geom_bond_site_symmetry_2
Cu0 P33 2.267693 1_555
Cu0 P24 2.276863 1_455
Cu0 P21 2.281956 1_555
Cu0 P16 2.287503 1_555
Cu1 P0 2.267693 1_555
Cu1 P20 2.276863 1_655
Cu1 P11 2.281956 1_555
Cu1 P39 2.287503 1_555
Cu2 P14 2.256037 1_556
Cu2 P17 2.259862 1_456
Cu2 P33 2.269071 1_546
Cu2 P8 2.295485 1_555
Cu3 P15 2.256037 1_554
Cu3 P34 2.259862 1_654
Cu3 P0 2.269071 1_564
Cu3 P32 2.295485 1_555
P0 P17 2.160077 1_556
P0 P14 2.163520 1_556
P1 P14 2.227818 1_555
P1 P38 2.243850 1_555
P1 P21 2.249831 1_545
P2 P7 2.182680 1_555
P2 P31 2.186015 1_555
P3 P30 2.252543 1_555
P4 P5 2.260401 1_555
P5 P9 2.180025 1_555
P7 P9 2.191156 1_555
P10 P18 2.182680 1_555
P10 P37 2.191156 1_555
P10 P35 2.308607 1_555
P11 P8 2.150775 1_555
P11 P5 2.213398 1_555
P11 P29 2.249831 1_545
P12 P6 2.184820 1_555
P12 P34 2.224730 1_554
P12 P31 2.252543 1_555
P13 P4 2.180230 1_555
P13 P27 2.192628 1_555
P13 P19 2.234599 1_555
P14 P3 2.217212 1_554
P15 P33 2.163520 1_556
P15 P31 2.217212 1_556
P15 P29 2.227818 1_555
P16 P2 2.220974 1_555
P16 P6 2.224895 1_555
P16 P19 2.307183 1_555
P17 P30 2.224730 1_554
P17 P38 2.228403 1_555
P18 P3 2.186015 1_555
P18 P39 2.220974 1_555
P19 P9 2.229276 1_555
P20 P8 2.151925 1_555
P20 P4 2.221840 1_555
P20 P25 2.246956 1_545
P21 P32 2.150775 1_555
P21 P23 2.213398 1_555
P22 P28 2.180230 1_555
P22 P24 2.221840 1_555
P22 P23 2.260401 1_555
P23 P37 2.180025 1_555
P24 P32 2.151925 1_555
P24 P38 2.246956 1_565
P25 P34 2.228403 1_555
P25 P29 2.243850 1_555
P26 P30 2.184820 1_555
P26 P35 2.194867 1_555
P26 P39 2.224895 1_555
P27 P6 2.194867 1_555
P27 P7 2.308607 1_555
P28 P35 2.192628 1_555
P28 P36 2.234599 1_555
P33 P34 2.160077 1_554
P36 P37 2.229276 1_555
P36 P39 2.307183 1_555
