# generated using pymatgen
data_MnTcOs
_symmetry_space_group_name_H-M   'P 1'
_cell_length_a   4.13032809
_cell_length_b   4.13032809
_cell_length_c   4.13032809
_cell_angle_alpha   60.00000000
_cell_angle_beta   60.00000000
_cell_angle_gamma   60.00000000
_symmetry_Int_Tables_number   1
_chemical_formula_structural   MnTcOs
_chemical_formula_sum   'Mn1 Tc1 Os1'
_cell_volume   49.82400730
_cell_formula_units_Z   1
loop_
 _symmetry_equiv_pos_site_id
 _symmetry_equiv_pos_as_xyz
  1  'x, y, z'
loop_
 _atom_site_type_symbol
 _atom_site_label
 _atom_site_symmetry_multiplicity
 _atom_site_fract_x
 _atom_site_fract_y
 _atom_site_fract_z
 _atom_site_occupancy
  Mn  Mn0  1  0.00000000  0.00000000  0.00000000  1
  Tc  Tc0  1  0.75000000  0.75000000  0.75000000  1
  Os  Os0  1  0.50000000  0.50000000  0.50000000  1
loop_
_geom_bond_atom_site_label_1
_geom_bond_atom_site_label_2
_geom_bond_distance
_geom_bond_site_symmetry_2
Mn0 Tc0 2.529299 1_544
Mn0 Tc0 2.529299 1_445
Mn0 Tc0 2.529299 1_444
Mn0 Tc0 2.529299 1_454
Mn0 Os0 2.920583 1_455
Mn0 Os0 2.920583 1_554
Mn0 Os0 2.920583 1_454
Mn0 Os0 2.920583 1_544
Mn0 Os0 2.920583 1_545
Mn0 Os0 2.920583 1_445
Os0 Tc0 2.529299 1_554
Os0 Tc0 2.529299 1_555
Os0 Tc0 2.529299 1_455
Os0 Tc0 2.529299 1_545
