# generated using pymatgen
data_AlPd5
_symmetry_space_group_name_H-M   'P 1'
_cell_length_a   4.00296752
_cell_length_b   8.13279440
_cell_length_c   10.81612840
_cell_angle_alpha   90.00000000
_cell_angle_beta   90.00000000
_cell_angle_gamma   90.00000000
_symmetry_Int_Tables_number   1
_chemical_formula_structural   AlPd5
_chemical_formula_sum   'Al4 Pd20'
_cell_volume   352.12243286
_cell_formula_units_Z   4
loop_
 _symmetry_equiv_pos_site_id
 _symmetry_equiv_pos_as_xyz
  1  'x, y, z'
loop_
 _atom_site_type_symbol
 _atom_site_label
 _atom_site_symmetry_multiplicity
 _atom_site_fract_x
 _atom_site_fract_y
 _atom_site_fract_z
 _atom_site_occupancy
  Al  Al0  1  0.75000000  0.11276128  0.92082734  1
  Al  Al1  1  0.25000000  0.61276128  0.57917266  1
  Al  Al2  1  0.25000000  0.88723872  0.07917266  1
  Al  Al3  1  0.75000000  0.38723872  0.42082734  1
  Pd  Pd0  1  0.25000000  0.21805202  0.04347243  1
  Pd  Pd1  1  0.75000000  0.71620646  0.20280760  1
  Pd  Pd2  1  0.25000000  0.54547764  0.33571174  1
  Pd  Pd3  1  0.75000000  0.45452236  0.66428826  1
  Pd  Pd4  1  0.25000000  0.95452236  0.83571174  1
  Pd  Pd5  1  0.25000000  0.28379354  0.79719240  1
  Pd  Pd6  1  0.75000000  0.71805202  0.45652757  1
  Pd  Pd7  1  0.25000000  0.57251663  0.06956725  1
  Pd  Pd8  1  0.25000000  0.92748337  0.56956725  1
  Pd  Pd9  1  0.75000000  0.78379354  0.70280760  1
  Pd  Pd10  1  0.75000000  0.38630347  0.18445638  1
  Pd  Pd11  1  0.75000000  0.07251663  0.43043275  1
  Pd  Pd12  1  0.25000000  0.28194798  0.54347243  1
  Pd  Pd13  1  0.75000000  0.78194798  0.95652757  1
  Pd  Pd14  1  0.25000000  0.21620646  0.29719240  1
  Pd  Pd15  1  0.75000000  0.04547764  0.16428826  1
  Pd  Pd16  1  0.25000000  0.61369653  0.81554362  1
  Pd  Pd17  1  0.75000000  0.42748337  0.93043275  1
  Pd  Pd18  1  0.25000000  0.88630347  0.31554362  1
  Pd  Pd19  1  0.75000000  0.11369653  0.68445638  1
loop_
_geom_bond_atom_site_label_1
_geom_bond_atom_site_label_2
_geom_bond_distance
_geom_bond_site_symmetry_2
Al0 Pd0 2.549298 1_556
Al0 Pd0 2.549298 1_656
Al0 Pd4 2.551403 1_545
Al0 Pd4 2.551403 1_645
Al0 Pd19 2.556630 1_555
Al0 Pd17 2.561678 1_555
Al0 Pd15 2.689559 1_556
Al0 Pd13 2.718005 1_545
Al0 Pd5 2.780104 1_555
Al0 Pd5 2.780104 1_655
Al1 Pd6 2.549298 1_455
Al1 Pd6 2.549298 1_555
Al1 Pd3 2.551403 1_455
Al1 Pd3 2.551403 1_555
Al1 Pd16 2.556630 1_555
Al1 Pd8 2.561678 1_555
Al1 Pd2 2.689559 1_555
Al1 Pd12 2.718005 1_555
Al1 Pd9 2.780104 1_555
Al1 Pd9 2.780104 1_455
Al2 Pd13 2.549298 1_454
Al2 Pd13 2.549298 1_554
Al2 Pd15 2.551403 1_565
Al2 Pd15 2.551403 1_465
Al2 Pd18 2.556630 1_555
Al2 Pd7 2.561678 1_555
Al2 Pd4 2.689559 1_554
Al2 Pd0 2.718005 1_565
Al2 Pd1 2.780104 1_455
Al2 Pd1 2.780104 1_555
Al3 Pd12 2.549298 1_655
Al3 Pd12 2.549298 1_555
Al3 Pd2 2.551403 1_555
Al3 Pd2 2.551403 1_655
Al3 Pd10 2.556630 1_555
Al3 Pd11 2.561678 1_555
Al3 Pd3 2.689559 1_555
Al3 Pd6 2.718005 1_555
Al3 Pd14 2.780104 1_655
Al3 Pd14 2.780104 1_555
Pd0 Pd5 2.716924 1_554
Pd0 Pd14 2.744309 1_555
Pd0 Pd15 2.771895 1_455
Pd0 Pd15 2.771895 1_555
Pd0 Pd10 2.864202 1_455
Pd0 Pd10 2.864202 1_555
Pd0 Pd7 2.896572 1_555
Pd0 Pd17 2.898606 1_454
Pd0 Pd17 2.898606 1_554
Pd1 Pd10 2.690365 1_555
Pd1 Pd15 2.710111 1_565
Pd1 Pd13 2.716924 1_554
Pd1 Pd18 2.721487 1_555
Pd1 Pd18 2.721487 1_655
Pd1 Pd7 2.729187 1_555
Pd1 Pd7 2.729187 1_655
Pd1 Pd6 2.744309 1_555
Pd1 Pd2 2.828481 1_655
Pd1 Pd2 2.828481 1_555
Pd2 Pd6 2.771895 1_555
Pd2 Pd6 2.771895 1_455
Pd2 Pd7 2.887040 1_555
Pd3 Pd9 2.710111 1_555
Pd3 Pd5 2.828481 1_655
Pd3 Pd5 2.828481 1_555
Pd4 Pd5 2.710111 1_565
Pd4 Pd9 2.828481 1_455
Pd4 Pd9 2.828481 1_555
Pd4 Pd8 2.887040 1_555
Pd6 Pd9 2.716924 1_555
Pd6 Pd8 2.898606 1_655
Pd6 Pd8 2.898606 1_555
Pd8 Pd9 2.729187 1_455
Pd8 Pd9 2.729187 1_555
Pd10 Pd14 2.721487 1_555
Pd10 Pd14 2.721487 1_655
Pd10 Pd17 2.767888 1_554
Pd10 Pd15 2.780437 1_555
Pd10 Pd7 2.800650 1_555
Pd10 Pd7 2.800650 1_655
Pd10 Pd2 2.891061 1_655
Pd10 Pd2 2.891061 1_555
Pd11 Pd14 2.729187 1_655
Pd11 Pd14 2.729187 1_555
Pd11 Pd19 2.767888 1_555
Pd11 Pd8 2.768019 1_545
Pd11 Pd8 2.768019 1_645
Pd11 Pd18 2.800650 1_645
Pd11 Pd18 2.800650 1_545
Pd11 Pd15 2.887040 1_555
Pd11 Pd6 2.896572 1_545
Pd11 Pd12 2.898606 1_555
Pd11 Pd12 2.898606 1_655
Pd12 Pd14 2.716924 1_555
Pd12 Pd5 2.744309 1_555
Pd12 Pd3 2.771895 1_555
Pd12 Pd3 2.771895 1_455
Pd12 Pd19 2.864202 1_455
Pd12 Pd19 2.864202 1_555
Pd12 Pd8 2.896572 1_545
Pd13 Pd9 2.744309 1_555
Pd13 Pd4 2.771895 1_555
Pd13 Pd4 2.771895 1_655
Pd13 Pd16 2.864202 1_555
Pd13 Pd16 2.864202 1_655
Pd13 Pd17 2.896572 1_555
Pd13 Pd7 2.898606 1_656
Pd13 Pd7 2.898606 1_556
Pd14 Pd18 2.690365 1_545
Pd14 Pd2 2.710111 1_555
Pd14 Pd15 2.828481 1_455
Pd14 Pd15 2.828481 1_555
Pd15 Pd18 2.891061 1_545
Pd15 Pd18 2.891061 1_645
Pd16 Pd5 2.690365 1_555
Pd16 Pd9 2.721487 1_455
Pd16 Pd9 2.721487 1_555
Pd16 Pd7 2.767888 1_556
Pd16 Pd4 2.780437 1_555
Pd16 Pd17 2.800650 1_455
Pd16 Pd17 2.800650 1_555
Pd16 Pd3 2.891061 1_455
Pd16 Pd3 2.891061 1_555
Pd17 Pd5 2.729187 1_655
Pd17 Pd5 2.729187 1_555
Pd17 Pd7 2.768019 1_556
Pd17 Pd7 2.768019 1_656
Pd17 Pd3 2.887040 1_555
Pd18 Pd8 2.767888 1_555
Pd18 Pd2 2.780437 1_555
Pd18 Pd6 2.864202 1_455
Pd18 Pd6 2.864202 1_555
Pd19 Pd9 2.690365 1_545
Pd19 Pd5 2.721487 1_655
Pd19 Pd5 2.721487 1_555
Pd19 Pd3 2.780437 1_555
Pd19 Pd8 2.800650 1_545
Pd19 Pd8 2.800650 1_645
Pd19 Pd4 2.891061 1_545
Pd19 Pd4 2.891061 1_645
