# generated using pymatgen
data_KMn4(PO4)3
_symmetry_space_group_name_H-M   'P 1'
_cell_length_a   6.64476200
_cell_length_b   10.21018200
_cell_length_c   16.31597700
_cell_angle_alpha   90.00000000
_cell_angle_beta   90.00000000
_cell_angle_gamma   90.00000000
_symmetry_Int_Tables_number   1
_chemical_formula_structural   KMn4(PO4)3
_chemical_formula_sum   'K4 Mn16 P12 O48'
_cell_volume   1106.94488593
_cell_formula_units_Z   4
loop_
 _symmetry_equiv_pos_site_id
 _symmetry_equiv_pos_as_xyz
  1  'x, y, z'
loop_
 _atom_site_type_symbol
 _atom_site_label
 _atom_site_symmetry_multiplicity
 _atom_site_fract_x
 _atom_site_fract_y
 _atom_site_fract_z
 _atom_site_occupancy
  K  K0  1  0.25000000  0.25118900  0.78587800  1
  K  K1  1  0.75000000  0.24881100  0.28587800  1
  K  K2  1  0.25000000  0.75118900  0.71412200  1
  K  K3  1  0.75000000  0.74881100  0.21412200  1
  Mn  Mn0  1  0.50207900  0.25248900  0.55301600  1
  Mn  Mn1  1  0.00207900  0.24751100  0.05301600  1
  Mn  Mn2  1  0.99792100  0.25248900  0.55301600  1
  Mn  Mn3  1  0.49792100  0.74751100  0.44698400  1
  Mn  Mn4  1  0.25000000  0.93463800  0.12678500  1
  Mn  Mn5  1  0.75000000  0.06536200  0.87321500  1
  Mn  Mn6  1  0.25000000  0.43463800  0.37321500  1
  Mn  Mn7  1  0.75000000  0.56536200  0.62678500  1
  Mn  Mn8  1  0.25000000  0.54323200  0.13061900  1
  Mn  Mn9  1  0.75000000  0.45676800  0.86938100  1
  Mn  Mn10  1  0.25000000  0.04323200  0.36938100  1
  Mn  Mn11  1  0.75000000  0.95676800  0.63061900  1
  Mn  Mn12  1  0.00207900  0.74751100  0.44698400  1
  Mn  Mn13  1  0.99792100  0.75248900  0.94698400  1
  Mn  Mn14  1  0.49792100  0.24751100  0.05301600  1
  Mn  Mn15  1  0.50207900  0.75248900  0.94698400  1
  P  P0  1  0.25000000  0.70665900  0.27595800  1
  P  P1  1  0.75000000  0.29334100  0.72404200  1
  P  P2  1  0.25000000  0.20665900  0.22404200  1
  P  P3  1  0.75000000  0.79334100  0.77595800  1
  P  P4  1  0.25000000  0.54199900  0.55520900  1
  P  P5  1  0.75000000  0.45800100  0.44479100  1
  P  P6  1  0.25000000  0.04199900  0.94479100  1
  P  P7  1  0.75000000  0.52829000  0.05978200  1
  P  P8  1  0.75000000  0.95800100  0.05520900  1
  P  P9  1  0.75000000  0.02829000  0.44021800  1
  P  P10  1  0.25000000  0.47171000  0.94021800  1
  P  P11  1  0.25000000  0.97171000  0.55978200  1
  O  O0  1  0.25000000  0.55317900  0.26772700  1
  O  O1  1  0.75000000  0.44682100  0.73227300  1
  O  O2  1  0.25000000  0.05317900  0.23227300  1
  O  O3  1  0.75000000  0.94682100  0.76772700  1
  O  O4  1  0.55970800  0.24401900  0.67873300  1
  O  O5  1  0.05970800  0.75598100  0.32126700  1
  O  O6  1  0.94029200  0.74401900  0.82126700  1
  O  O7  1  0.44029200  0.25598100  0.17873300  1
  O  O8  1  0.44029200  0.75598100  0.32126700  1
  O  O9  1  0.94029200  0.24401900  0.67873300  1
  O  O10  1  0.05970800  0.25598100  0.17873300  1
  O  O11  1  0.55970800  0.74401900  0.82126700  1
  O  O12  1  0.25000000  0.74993100  0.18439100  1
  O  O13  1  0.75000000  0.25006900  0.81560900  1
  O  O14  1  0.25000000  0.24993100  0.31560900  1
  O  O15  1  0.75000000  0.75006900  0.68439100  1
  O  O16  1  0.55980800  0.41014500  0.40129400  1
  O  O17  1  0.05980800  0.58985500  0.59870600  1
  O  O18  1  0.94019200  0.91014500  0.09870600  1
  O  O19  1  0.56013100  0.06103300  0.39142000  1
  O  O20  1  0.44019200  0.08985500  0.90129400  1
  O  O21  1  0.94019200  0.41014500  0.40129400  1
  O  O22  1  0.05980800  0.08985500  0.90129400  1
  O  O23  1  0.55980800  0.91014500  0.09870600  1
  O  O24  1  0.25000000  0.60412400  0.46531500  1
  O  O25  1  0.75000000  0.39587600  0.53468500  1
  O  O26  1  0.25000000  0.10412400  0.03468500  1
  O  O27  1  0.75000000  0.89587600  0.96531500  1
  O  O28  1  0.25000000  0.88903800  0.95651500  1
  O  O29  1  0.75000000  0.11096200  0.04348500  1
  O  O30  1  0.25000000  0.38903800  0.54348500  1
  O  O31  1  0.75000000  0.61096200  0.45651500  1
  O  O32  1  0.75000000  0.61075600  0.97645800  1
  O  O33  1  0.25000000  0.38924400  0.02354200  1
  O  O34  1  0.75000000  0.11075600  0.52354200  1
  O  O35  1  0.25000000  0.88924400  0.47645800  1
  O  O36  1  0.75000000  0.87950200  0.46743300  1
  O  O37  1  0.25000000  0.12049800  0.53256700  1
  O  O38  1  0.75000000  0.37950200  0.03256700  1
  O  O39  1  0.25000000  0.62049800  0.96743300  1
  O  O40  1  0.56013100  0.56103300  0.10858000  1
  O  O41  1  0.06013100  0.43896700  0.89142000  1
  O  O42  1  0.93986900  0.06103300  0.39142000  1
  O  O43  1  0.43986900  0.93896700  0.60858000  1
  O  O44  1  0.43986900  0.43896700  0.89142000  1
  O  O45  1  0.93986900  0.56103300  0.10858000  1
  O  O46  1  0.06013100  0.93896700  0.60858000  1
  O  O47  1  0.44019200  0.58985500  0.59870600  1
loop_
_geom_bond_atom_site_label_1
_geom_bond_atom_site_label_2
_geom_bond_distance
_geom_bond_site_symmetry_2
K0 O4 2.701218 1_555
K0 O9 2.701218 1_455
K0 O20 2.802986 1_555
K0 O22 2.802986 1_555
K0 O44 2.869306 1_555
K0 O41 2.869306 1_555
K1 O10 2.701218 1_655
K1 O7 2.701218 1_555
K1 O21 2.802986 1_555
K1 O16 2.802986 1_555
K1 O42 2.869306 1_555
K1 O19 2.869306 1_555
K2 O11 2.701218 1_555
K2 O6 2.701218 1_455
K2 O47 2.802986 1_555
K2 O17 2.802986 1_555
K2 O43 2.869306 1_555
K2 O46 2.869306 1_555
K3 O5 2.701218 1_655
K3 O8 2.701218 1_555
K3 O18 2.802986 1_555
K3 O23 2.802986 1_555
K3 O45 2.869306 1_555
K3 O40 2.869306 1_555
Mn0 O4 2.088425 1_555
Mn0 O37 2.175575 1_555
Mn0 O30 2.184855 1_555
Mn0 O25 2.224100 1_555
Mn0 O34 2.244831 1_555
Mn1 O10 2.088425 1_555
Mn1 O38 2.175575 1_455
Mn1 O29 2.184855 1_455
Mn1 O26 2.224100 1_555
Mn1 O33 2.244831 1_555
Mn2 O9 2.088425 1_555
Mn2 O37 2.175575 1_655
Mn2 O30 2.184855 1_655
Mn2 O25 2.224100 1_555
Mn2 O34 2.244831 1_555
Mn3 O8 2.088425 1_555
Mn3 O36 2.175575 1_555
Mn3 O31 2.184855 1_555
Mn3 O24 2.224100 1_555
Mn3 O35 2.244831 1_555
Mn4 O2 2.104093 1_565
Mn4 O12 2.107130 1_555
Mn4 O23 2.123738 1_555
Mn4 O18 2.123738 1_455
Mn4 O26 2.291873 1_565
Mn5 O3 2.104093 1_545
Mn5 O13 2.107130 1_555
Mn5 O22 2.123738 1_655
Mn5 O20 2.123738 1_555
Mn5 O27 2.291873 1_545
Mn6 O0 2.104093 1_555
Mn6 O14 2.107130 1_555
Mn6 O16 2.123738 1_555
Mn6 O21 2.123738 1_455
Mn6 O24 2.291873 1_555
Mn7 O1 2.104093 1_555
Mn7 O15 2.107130 1_555
Mn7 O17 2.123738 1_655
Mn7 O47 2.123738 1_555
Mn7 O25 2.291873 1_555
Mn8 O40 2.099765 1_555
Mn8 O45 2.099765 1_455
Mn8 O0 2.239355 1_555
Mn8 O12 2.285534 1_555
Mn8 O33 2.350361 1_555
Mn9 O41 2.099765 1_655
Mn9 O44 2.099765 1_555
Mn9 O1 2.239355 1_555
Mn9 O13 2.285534 1_555
Mn9 O32 2.350361 1_555
Mn10 O19 2.099765 1_555
Mn10 O42 2.099765 1_455
Mn10 O2 2.239355 1_555
Mn10 O14 2.285534 1_555
Mn10 O35 2.350361 1_545
Mn11 O46 2.099765 1_655
Mn11 O43 2.099765 1_555
Mn11 O3 2.239355 1_555
Mn11 O15 2.285534 1_555
Mn11 O34 2.350361 1_565
Mn12 O5 2.088425 1_555
Mn12 O36 2.175575 1_455
Mn12 O31 2.184855 1_455
Mn12 O24 2.224100 1_555
Mn12 O35 2.244831 1_555
Mn13 O6 2.088425 1_555
Mn13 O39 2.175575 1_655
Mn13 O28 2.184855 1_655
Mn13 O27 2.224100 1_555
Mn13 O32 2.244831 1_555
Mn14 O7 2.088425 1_555
Mn14 O38 2.175575 1_555
Mn14 O29 2.184855 1_555
Mn14 O26 2.224100 1_555
Mn14 O33 2.244831 1_555
Mn15 O11 2.088425 1_555
Mn15 O39 2.175575 1_555
Mn15 O28 2.184855 1_555
Mn15 O27 2.224100 1_555
Mn15 O32 2.244831 1_555
O0 P0 1.572803 1_555
O1 P1 1.572803 1_555
O2 P2 1.572803 1_555
O3 P3 1.572803 1_555
O4 P1 1.548847 1_555
O5 P0 1.548847 1_555
O6 P3 1.548847 1_555
O7 P2 1.548847 1_555
O8 P0 1.548847 1_555
O9 P1 1.548847 1_555
O10 P2 1.548847 1_555
O11 P3 1.548847 1_555
O12 P0 1.557964 1_555
O13 P1 1.557964 1_555
O14 P2 1.557964 1_555
O15 P3 1.557964 1_555
O16 P5 1.529561 1_555
O17 P4 1.529561 1_555
O18 P8 1.529561 1_555
O19 P9 1.528856 1_555
O20 P6 1.529561 1_555
O21 P5 1.529561 1_555
O22 P6 1.529561 1_555
O23 P8 1.529561 1_555
O24 P4 1.597992 1_555
O25 P5 1.597992 1_555
O26 P6 1.597992 1_554
O27 P8 1.597992 1_556
O28 P6 1.573431 1_565
O29 P8 1.573431 1_545
O30 P4 1.573431 1_555
O31 P5 1.573431 1_555
O32 P7 1.599133 1_556
O33 P10 1.599133 1_554
O34 P9 1.599133 1_555
O35 P11 1.599133 1_555
O36 P9 1.582718 1_565
O37 P11 1.582718 1_545
O38 P7 1.582718 1_555
O39 P10 1.582718 1_555
O40 P7 1.528856 1_555
O41 P10 1.528856 1_555
O42 P9 1.528856 1_555
O43 P11 1.528856 1_555
O44 P10 1.528856 1_555
O45 P7 1.528856 1_555
O46 P11 1.528856 1_555
O47 P4 1.529561 1_555
