# generated using pymatgen
data_BePbF4
_symmetry_space_group_name_H-M   'P 1'
_cell_length_a   5.41008800
_cell_length_b   7.29948000
_cell_length_c   8.99220200
_cell_angle_alpha   90.00000000
_cell_angle_beta   90.00000000
_cell_angle_gamma   90.00000000
_symmetry_Int_Tables_number   1
_chemical_formula_structural   BePbF4
_chemical_formula_sum   'Be4 Pb4 F16'
_cell_volume   355.10951290
_cell_formula_units_Z   4
loop_
 _symmetry_equiv_pos_site_id
 _symmetry_equiv_pos_as_xyz
  1  'x, y, z'
loop_
 _atom_site_type_symbol
 _atom_site_label
 _atom_site_symmetry_multiplicity
 _atom_site_fract_x
 _atom_site_fract_y
 _atom_site_fract_z
 _atom_site_occupancy
  Be  Be0  1  0.25000000  0.75477500  0.63119100  1
  Be  Be1  1  0.25000000  0.74522500  0.13119100  1
  Be  Be2  1  0.75000000  0.24522500  0.36880900  1
  Be  Be3  1  0.75000000  0.25477500  0.86880900  1
  Pb  Pb0  1  0.25000000  0.27696400  0.67076000  1
  Pb  Pb1  1  0.25000000  0.22303600  0.17076000  1
  Pb  Pb2  1  0.75000000  0.72303600  0.32924000  1
  Pb  Pb3  1  0.75000000  0.77696400  0.82924000  1
  F  F0  1  0.00493400  0.71348300  0.54816900  1
  F  F1  1  0.49506600  0.78651700  0.04816900  1
  F  F2  1  0.50493400  0.28651700  0.45183100  1
  F  F3  1  0.99506600  0.21348300  0.95183100  1
  F  F4  1  0.99506600  0.28651700  0.45183100  1
  F  F5  1  0.50493400  0.21348300  0.95183100  1
  F  F6  1  0.49506600  0.71348300  0.54816900  1
  F  F7  1  0.00493400  0.78651700  0.04816900  1
  F  F8  1  0.25000000  0.95565100  0.69051200  1
  F  F9  1  0.25000000  0.54434900  0.19051200  1
  F  F10  1  0.75000000  0.04434900  0.30948800  1
  F  F11  1  0.75000000  0.45565100  0.80948800  1
  F  F12  1  0.25000000  0.62971500  0.77231600  1
  F  F13  1  0.25000000  0.87028500  0.27231600  1
  F  F14  1  0.75000000  0.37028500  0.22768400  1
  F  F15  1  0.75000000  0.12971500  0.72768400  1
loop_
_geom_bond_atom_site_label_1
_geom_bond_atom_site_label_2
_geom_bond_distance
_geom_bond_site_symmetry_2
Be0 F6 1.551131 1_555
Be0 F0 1.551131 1_555
Be0 F8 1.560305 1_555
Be0 F12 1.563253 1_555
Be1 F1 1.551131 1_555
Be1 F7 1.551131 1_555
Be1 F9 1.560305 1_555
Be1 F13 1.563253 1_555
Be2 F2 1.551131 1_555
Be2 F4 1.551131 1_555
Be2 F10 1.560305 1_555
Be2 F14 1.563253 1_555
Be3 F3 1.551131 1_555
Be3 F5 1.551131 1_555
Be3 F11 1.560305 1_555
Be3 F15 1.563253 1_555
F0 Pb2 2.404724 1_455
F1 Pb3 2.404724 1_554
F2 Pb0 2.404724 1_555
F3 Pb1 2.404724 1_656
F4 Pb0 2.404724 1_655
F5 Pb1 2.404724 1_556
F6 Pb2 2.404724 1_555
F7 Pb3 2.404724 1_454
F8 Pb0 2.352133 1_565
F9 Pb1 2.352133 1_555
F10 Pb2 2.352133 1_545
F11 Pb3 2.352133 1_555
F12 Pb0 2.732043 1_555
F13 Pb1 2.732043 1_565
F14 Pb2 2.732043 1_555
F15 Pb3 2.732043 1_545
