# generated using pymatgen
data_Sc4Ti3O12
_symmetry_space_group_name_H-M   'P 1'
_cell_length_a   5.92349900
_cell_length_b   6.08919899
_cell_length_c   12.15852111
_cell_angle_alpha   99.42346418
_cell_angle_beta   99.73031762
_cell_angle_gamma   98.60819883
_symmetry_Int_Tables_number   1
_chemical_formula_structural   Sc4Ti3O12
_chemical_formula_sum   'Sc8 Ti6 O24'
_cell_volume   419.25504006
_cell_formula_units_Z   2
loop_
 _symmetry_equiv_pos_site_id
 _symmetry_equiv_pos_as_xyz
  1  'x, y, z'
loop_
 _atom_site_type_symbol
 _atom_site_label
 _atom_site_symmetry_multiplicity
 _atom_site_fract_x
 _atom_site_fract_y
 _atom_site_fract_z
 _atom_site_occupancy
  Sc  Sc0  1  0.38512800  0.86319600  0.09322900  1
  Sc  Sc1  1  0.30541700  0.61442900  0.81756900  1
  Sc  Sc2  1  0.29863300  0.61593800  0.31609000  1
  Sc  Sc3  1  0.86498400  0.69101000  0.44789000  1
  Sc  Sc4  1  0.69458300  0.38557100  0.18243100  1
  Sc  Sc5  1  0.13501600  0.30899000  0.55211000  1
  Sc  Sc6  1  0.61487200  0.13680400  0.90677100  1
  Sc  Sc7  1  0.70136700  0.38406200  0.68391000  1
  Ti  Ti0  1  0.39619500  0.84708800  0.58753000  1
  Ti  Ti1  1  0.01069000  0.01469000  0.76023400  1
  Ti  Ti2  1  0.84585200  0.66082300  0.94394300  1
  Ti  Ti3  1  0.15414800  0.33917700  0.05605700  1
  Ti  Ti4  1  0.60380500  0.15291200  0.41247000  1
  Ti  Ti5  1  0.98931000  0.98531000  0.23976600  1
  O  O0  1  0.31086300  0.95301200  0.80383300  1
  O  O1  1  0.02756500  0.87411600  0.08967700  1
  O  O2  1  0.32327500  0.97082200  0.29823600  1
  O  O3  1  0.59674600  0.81709300  0.96016900  1
  O  O4  1  0.08683400  0.91052900  0.59525200  1
  O  O5  1  0.91548900  0.69286600  0.79468200  1
  O  O6  1  0.56923300  0.82604600  0.46348800  1
  O  O7  1  0.17856300  0.57537200  0.96416500  1
  O  O8  1  0.92463700  0.68654700  0.27751800  1
  O  O9  1  0.41610500  0.57857500  0.15934400  1
  O  O10  1  0.18504200  0.57613900  0.46140800  1
  O  O11  1  0.58389500  0.42142500  0.84065600  1
  O  O12  1  0.42166200  0.59238600  0.65952000  1
  O  O13  1  0.82143700  0.42462800  0.03583500  1
  O  O14  1  0.57833800  0.40761400  0.34048000  1
  O  O15  1  0.08451100  0.30713400  0.20531800  1
  O  O16  1  0.81495800  0.42386100  0.53859200  1
  O  O17  1  0.40325400  0.18290700  0.03983100  1
  O  O18  1  0.07536300  0.31345300  0.72248200  1
  O  O19  1  0.97243500  0.12588400  0.91032300  1
  O  O20  1  0.43076700  0.17395400  0.53651200  1
  O  O21  1  0.68913700  0.04698800  0.19616700  1
  O  O22  1  0.91316600  0.08947100  0.40474800  1
  O  O23  1  0.67672500  0.02917800  0.70176400  1
loop_
_geom_bond_atom_site_label_1
_geom_bond_atom_site_label_2
_geom_bond_distance
_geom_bond_site_symmetry_2
O0 Ti1 1.878856 1_565
O0 Sc6 2.058634 1_565
O0 Sc1 2.091459 1_555
O1 Ti5 1.902895 1_455
O1 Ti2 2.041646 1_454
O1 Sc0 2.122379 1_555
O2 Ti5 2.005995 1_455
O2 Ti4 2.020842 1_565
O2 Sc2 2.192731 1_555
O2 Sc0 2.573394 1_555
O3 Ti2 1.891817 1_555
O3 Sc6 2.144268 1_565
O3 Sc0 2.215751 1_556
O3 Sc1 2.271008 1_555
O4 Ti0 1.942754 1_555
O4 Ti1 2.145774 1_565
O4 Sc3 2.148933 1_455
O4 Sc5 2.550224 1_565
O5 Ti2 1.961274 1_555
O5 Ti1 2.086015 1_665
O5 Sc7 2.199491 1_555
O5 Sc1 2.407685 1_655
O6 Ti0 1.959633 1_555
O6 Sc3 2.067275 1_555
O6 Ti4 2.171043 1_565
O6 Sc2 2.254368 1_555
O7 Ti3 1.963743 1_556
O7 Sc1 2.082341 1_555
O7 Ti2 2.097707 1_455
O7 Sc0 2.199937 1_556
O8 Ti5 1.947123 1_555
O8 Sc4 2.139726 1_555
O8 Sc3 2.156027 1_555
O8 Sc2 2.304911 1_655
O9 Ti3 2.043179 1_555
O9 Sc0 2.045751 1_555
O9 Sc2 2.126430 1_555
O9 Sc4 2.170920 1_555
O10 Sc2 2.031375 1_555
O10 Sc3 2.107099 1_455
O10 Sc5 2.122221 1_555
O10 Ti0 2.131528 1_555
O11 Ti2 2.043179 1_555
O11 Sc6 2.045751 1_555
O11 Sc7 2.126430 1_555
O11 Sc1 2.170920 1_555
O12 Ti0 1.914215 1_555
O12 Sc1 2.139004 1_555
O12 Sc7 2.242422 1_555
O12 Sc5 2.280739 1_555
O13 Ti2 1.963743 1_554
O13 Sc4 2.082341 1_555
O13 Ti3 2.097707 1_655
O13 Sc6 2.199937 1_554
O14 Ti4 1.914215 1_555
O14 Sc4 2.139004 1_555
O14 Sc2 2.242422 1_555
O14 Sc3 2.280739 1_555
O15 Ti3 1.961274 1_555
O15 Ti5 2.086015 1_445
O15 Sc2 2.199491 1_555
O15 Sc4 2.407685 1_455
O16 Sc7 2.031375 1_555
O16 Sc5 2.107099 1_655
O16 Sc3 2.122221 1_555
O16 Ti4 2.131528 1_555
O17 Ti3 1.891817 1_555
O17 Sc0 2.144268 1_545
O17 Sc6 2.215751 1_554
O17 Sc4 2.271008 1_555
O18 Ti1 1.947123 1_555
O18 Sc1 2.139726 1_555
O18 Sc5 2.156027 1_555
O18 Sc7 2.304911 1_455
O19 Ti1 1.902895 1_655
O19 Ti3 2.041646 1_656
O19 Sc6 2.122379 1_555
O20 Ti4 1.959633 1_555
O20 Sc5 2.067275 1_555
O20 Ti0 2.171043 1_545
O20 Sc7 2.254368 1_555
O21 Ti5 1.878856 1_545
O21 Sc0 2.058634 1_545
O21 Sc4 2.091459 1_555
O22 Ti4 1.942754 1_555
O22 Ti5 2.145774 1_545
O22 Sc5 2.148933 1_655
O22 Sc3 2.550224 1_545
O23 Ti1 2.005995 1_655
O23 Ti0 2.020842 1_545
O23 Sc7 2.192731 1_555
O23 Sc6 2.573394 1_555
