# generated using pymatgen
data_LiMo(PO3)5
_symmetry_space_group_name_H-M   'P 1'
_cell_length_a   13.82708000
_cell_length_b   9.46586300
_cell_length_c   10.63651220
_cell_angle_alpha   68.13330380
_cell_angle_beta   90.00000000
_cell_angle_gamma   90.00000000
_symmetry_Int_Tables_number   1
_chemical_formula_structural   LiMo(PO3)5
_chemical_formula_sum   'Li4 Mo4 P20 O60'
_cell_volume   1292.00045087
_cell_formula_units_Z   4
loop_
 _symmetry_equiv_pos_site_id
 _symmetry_equiv_pos_as_xyz
  1  'x, y, z'
loop_
 _atom_site_type_symbol
 _atom_site_label
 _atom_site_symmetry_multiplicity
 _atom_site_fract_x
 _atom_site_fract_y
 _atom_site_fract_z
 _atom_site_occupancy
  Li  Li0  1  0.13280500  0.07329800  0.23451900  1
  Li  Li1  1  0.63280500  0.92670200  0.26548100  1
  Li  Li2  1  0.36719500  0.07329800  0.73451900  1
  Li  Li3  1  0.86719500  0.92670200  0.76548100  1
  Mo  Mo0  1  0.00077100  0.49820300  0.25180100  1
  Mo  Mo1  1  0.49922900  0.49820300  0.75180100  1
  Mo  Mo2  1  0.50077100  0.50179700  0.24819900  1
  Mo  Mo3  1  0.99922900  0.50179700  0.74819900  1
  P  P0  1  0.41305500  0.82335900  0.01587300  1
  P  P1  1  0.25118700  0.01528200  0.51403500  1
  P  P2  1  0.57573900  0.18301400  0.49416000  1
  P  P3  1  0.14176000  0.52333600  0.98991600  1
  P  P4  1  0.74881300  0.98471800  0.48596500  1
  P  P5  1  0.64338000  0.47402400  0.00756800  1
  P  P6  1  0.35824000  0.52333600  0.48991600  1
  P  P7  1  0.07573900  0.81698600  0.00584000  1
  P  P8  1  0.35662000  0.52597600  0.99243200  1
  P  P9  1  0.92426100  0.18301400  0.99416000  1
  P  P10  1  0.08694500  0.82335900  0.51587300  1
  P  P11  1  0.42426100  0.81698600  0.50584000  1
  P  P12  1  0.14338000  0.52597600  0.49243200  1
  P  P13  1  0.85662000  0.47402400  0.50756800  1
  P  P14  1  0.85824000  0.47666400  0.01008400  1
  P  P15  1  0.75118700  0.98471800  0.98596500  1
  P  P16  1  0.58694500  0.17664100  0.98412700  1
  P  P17  1  0.24881300  0.01528200  0.01403500  1
  P  P18  1  0.64176000  0.47666400  0.51008400  1
  P  P19  1  0.91305500  0.17664100  0.48412700  1
  O  O0  1  0.65600200  0.10520900  0.43881900  1
  O  O1  1  0.47805100  0.71467500  0.63628800  1
  O  O2  1  0.01949400  0.72268700  0.63025000  1
  O  O3  1  0.07788500  0.43484200  0.10883300  1
  O  O4  1  0.97805100  0.28532500  0.86371200  1
  O  O5  1  0.84399800  0.10520900  0.93881900  1
  O  O6  1  0.64964200  0.30064200  0.02967400  1
  O  O7  1  0.51949400  0.27731300  0.86975000  1
  O  O8  1  0.42229600  0.43846200  0.10875200  1
  O  O9  1  0.75083600  0.53341100  0.96546700  1
  O  O10  1  0.85035800  0.30064200  0.52967400  1
  O  O11  1  0.98050600  0.27731300  0.36975000  1
  O  O12  1  0.12309800  0.50461600  0.35979000  1
  O  O13  1  0.34399800  0.89479100  0.56118100  1
  O  O14  1  0.51461400  0.09068200  0.60785600  1
  O  O15  1  0.64348100  0.30203900  0.53796300  1
  O  O16  1  0.87690200  0.49538400  0.64021000  1
  O  O17  1  0.92211500  0.56515800  0.89116700  1
  O  O18  1  0.37792700  0.50153600  0.35736300  1
  O  O19  1  0.26670900  0.06954100  0.86602500  1
  O  O20  1  0.74916400  0.53341100  0.46546700  1
  O  O21  1  0.42211500  0.43484200  0.60883300  1
  O  O22  1  0.85651900  0.30203900  0.03796300  1
  O  O23  1  0.12207300  0.50153600  0.85736300  1
  O  O24  1  0.87792700  0.49846400  0.14263700  1
  O  O25  1  0.66605000  0.11543300  0.90893200  1
  O  O26  1  0.35651900  0.69796100  0.46203700  1
  O  O27  1  0.07770400  0.43846200  0.60875200  1
  O  O28  1  0.54425600  0.06466100  0.10797300  1
  O  O29  1  0.25083600  0.46658900  0.53453300  1
  O  O30  1  0.01461400  0.90931800  0.89214400  1
  O  O31  1  0.37690200  0.50461600  0.85979000  1
  O  O32  1  0.33395000  0.88456700  0.09106800  1
  O  O33  1  0.62207300  0.49846400  0.64263700  1
  O  O34  1  0.23331900  0.11545500  0.09070300  1
  O  O35  1  0.73331900  0.88454500  0.40929700  1
  O  O36  1  0.57770400  0.56153800  0.89124800  1
  O  O37  1  0.57788500  0.56515800  0.39116700  1
  O  O38  1  0.35035800  0.69935800  0.97032600  1
  O  O39  1  0.83395000  0.11543300  0.40893200  1
  O  O40  1  0.92229600  0.56153800  0.39124800  1
  O  O41  1  0.62309800  0.49538400  0.14021000  1
  O  O42  1  0.15600200  0.89479100  0.06118100  1
  O  O43  1  0.76668100  0.88454500  0.90929700  1
  O  O44  1  0.95574400  0.06466100  0.60797300  1
  O  O45  1  0.14348100  0.69796100  0.96203700  1
  O  O46  1  0.24916400  0.46658900  0.03453300  1
  O  O47  1  0.48538600  0.90931800  0.39214400  1
  O  O48  1  0.26668100  0.11545500  0.59070300  1
  O  O49  1  0.14964200  0.69935800  0.47032600  1
  O  O50  1  0.73329100  0.93045900  0.13397500  1
  O  O51  1  0.45574400  0.93533900  0.89202700  1
  O  O52  1  0.52194900  0.28532500  0.36371200  1
  O  O53  1  0.02194900  0.71467500  0.13628800  1
  O  O54  1  0.04425600  0.93533900  0.39202700  1
  O  O55  1  0.98538600  0.09068200  0.10785600  1
  O  O56  1  0.23329100  0.06954100  0.36602500  1
  O  O57  1  0.16605000  0.88456700  0.59106800  1
  O  O58  1  0.76670900  0.93045900  0.63397500  1
  O  O59  1  0.48050600  0.72268700  0.13025000  1
loop_
_geom_bond_atom_site_label_1
_geom_bond_atom_site_label_2
_geom_bond_distance
_geom_bond_site_symmetry_2
Li0 O56 1.962464 1_555
Li0 O34 1.994017 1_555
Li0 O54 2.093207 1_545
Li0 O55 2.414953 1_455
Li1 O50 1.962464 1_555
Li1 O35 1.994017 1_555
Li1 O28 2.093207 1_565
Li1 O47 2.414953 1_555
Li2 O19 1.962464 1_555
Li2 O48 1.994017 1_555
Li2 O51 2.093207 1_545
Li2 O14 2.414953 1_555
Li3 O58 1.962464 1_555
Li3 O43 1.994017 1_555
Li3 O44 2.093207 1_565
Li3 O30 2.414953 1_655
Mo0 O53 1.979585 1_555
Mo0 O11 2.017515 1_455
Mo0 O24 2.056996 1_455
Mo0 O12 2.058127 1_555
Mo0 O40 2.097421 1_455
Mo0 O3 2.118606 1_555
Mo1 O1 1.979585 1_555
Mo1 O7 2.017515 1_555
Mo1 O33 2.056996 1_555
Mo1 O31 2.058127 1_555
Mo1 O36 2.097421 1_555
Mo1 O21 2.118606 1_555
Mo2 O52 1.979585 1_555
Mo2 O59 2.017515 1_555
Mo2 O18 2.056996 1_555
Mo2 O41 2.058127 1_555
Mo2 O8 2.097421 1_555
Mo2 O37 2.118606 1_555
Mo3 O4 1.979585 1_555
Mo3 O2 2.017515 1_655
Mo3 O23 2.056996 1_655
Mo3 O16 2.058127 1_555
Mo3 O27 2.097421 1_655
Mo3 O17 2.118606 1_555
O0 P2 1.563171 1_555
O0 P4 1.665280 1_545
O1 P11 1.554132 1_555
O2 P10 1.547389 1_555
O3 P3 1.514059 1_554
O4 P9 1.554132 1_555
O5 P9 1.563171 1_555
O5 P15 1.665280 1_545
O6 P5 1.571273 1_555
O6 P16 1.669606 1_554
O7 P16 1.547389 1_555
O8 P8 1.509370 1_554
O9 P14 1.590390 1_556
O9 P5 1.592682 1_556
O10 P13 1.571273 1_555
O10 P19 1.669606 1_555
O11 P19 1.547389 1_555
O12 P12 1.523979 1_555
O13 P11 1.563171 1_555
O13 P1 1.665280 1_565
O14 P2 1.467434 1_555
O15 P18 1.567070 1_555
O15 P2 1.659773 1_555
O16 P13 1.523979 1_555
O17 P14 1.514059 1_556
O18 P6 1.523557 1_555
O19 P17 1.483634 1_556
O20 P18 1.590390 1_555
O20 P13 1.592682 1_555
O21 P6 1.514059 1_555
O22 P14 1.567070 1_555
O22 P9 1.659773 1_554
O23 P3 1.523557 1_555
O24 P14 1.523557 1_555
O25 P16 1.586491 1_555
O25 P15 1.683134 1_545
O26 P6 1.567070 1_555
O26 P11 1.659773 1_555
O27 P12 1.509370 1_555
O28 P16 1.472117 1_554
O29 P6 1.590390 1_555
O29 P12 1.592682 1_555
O30 P7 1.467434 1_556
O31 P8 1.523979 1_555
O32 P0 1.586491 1_555
O32 P17 1.683134 1_565
O33 P18 1.523557 1_555
O34 P17 1.478523 1_555
O35 P4 1.478523 1_555
O36 P5 1.509370 1_556
O37 P18 1.514059 1_555
O38 P8 1.571273 1_555
O38 P0 1.669606 1_556
O39 P19 1.586491 1_555
O39 P4 1.683134 1_545
O40 P13 1.509370 1_555
O41 P5 1.523979 1_555
O42 P7 1.563171 1_555
O42 P17 1.665280 1_565
O43 P15 1.478523 1_555
O44 P19 1.472117 1_555
O45 P3 1.567070 1_555
O45 P7 1.659773 1_556
O46 P3 1.590390 1_554
O46 P8 1.592682 1_554
O47 P11 1.467434 1_555
O48 P1 1.478523 1_555
O49 P12 1.571273 1_555
O49 P10 1.669606 1_555
O50 P15 1.483634 1_554
O51 P0 1.472117 1_556
O52 P2 1.554132 1_555
O53 P7 1.554132 1_555
O54 P10 1.472117 1_555
O55 P9 1.467434 1_554
O56 P1 1.483634 1_555
O57 P10 1.586491 1_555
O57 P1 1.683134 1_565
O58 P4 1.483634 1_555
O59 P0 1.547389 1_555
