# generated using pymatgen
data_FeHO2
_symmetry_space_group_name_H-M   'P 1'
_cell_length_a   10.01207000
_cell_length_b   3.02381500
_cell_length_c   4.65263400
_cell_angle_alpha   90.00000000
_cell_angle_beta   90.00000000
_cell_angle_gamma   90.00000000
_symmetry_Int_Tables_number   1
_chemical_formula_structural   FeHO2
_chemical_formula_sum   'Fe4 H4 O8'
_cell_volume   140.85685405
_cell_formula_units_Z   4
loop_
 _symmetry_equiv_pos_site_id
 _symmetry_equiv_pos_as_xyz
  1  'x, y, z'
loop_
 _atom_site_type_symbol
 _atom_site_label
 _atom_site_symmetry_multiplicity
 _atom_site_fract_x
 _atom_site_fract_y
 _atom_site_fract_z
 _atom_site_occupancy
  Fe  Fe0  1  0.64978800  0.25000000  0.54364600  1
  Fe  Fe1  1  0.14978800  0.25000000  0.95635400  1
  Fe  Fe2  1  0.36097900  0.75000000  0.45346900  1
  Fe  Fe3  1  0.86097900  0.75000000  0.04653100  1
  H  H0  1  0.43894300  0.25000000  0.90516300  1
  H  H1  1  0.93894300  0.25000000  0.59483700  1
  H  H2  1  0.59535700  0.75000000  0.09702200  1
  H  H3  1  0.09535700  0.75000000  0.40297800  1
  O  O0  1  0.30282400  0.25000000  0.20473300  1
  O  O1  1  0.80282400  0.25000000  0.29526700  1
  O  O2  1  0.70526900  0.75000000  0.79541700  1
  O  O3  1  0.20526900  0.75000000  0.70458300  1
  O  O4  1  0.46027200  0.25000000  0.69782100  1
  O  O5  1  0.96027200  0.25000000  0.80217900  1
  O  O6  1  0.55868100  0.75000000  0.29634500  1
  O  O7  1  0.05868100  0.75000000  0.20365500  1
loop_
_geom_bond_atom_site_label_1
_geom_bond_atom_site_label_2
_geom_bond_distance
_geom_bond_site_symmetry_2
Fe0 O1 1.919143 1_555
Fe0 O2 1.991631 1_555
Fe0 O2 1.991631 1_545
Fe0 O4 2.028510 1_555
Fe0 O6 2.107558 1_545
Fe0 O6 2.107558 1_555
Fe1 O0 1.919143 1_556
Fe1 O3 1.991631 1_545
Fe1 O3 1.991631 1_555
Fe1 O5 2.028510 1_455
Fe1 O7 2.107558 1_556
Fe1 O7 2.107558 1_546
Fe2 O3 1.948189 1_555
Fe2 O0 1.991023 1_555
Fe2 O0 1.991023 1_565
Fe2 O6 2.110088 1_555
Fe2 O4 2.136973 1_555
Fe2 O4 2.136973 1_565
Fe3 O2 1.948189 1_554
Fe3 O1 1.991023 1_555
Fe3 O1 1.991023 1_565
Fe3 O7 2.110088 1_655
Fe3 O5 2.136973 1_564
Fe3 O5 2.136973 1_554
H0 O4 0.988040 1_555
H1 O5 0.988040 1_555
H2 O6 0.997430 1_555
H3 O7 0.997430 1_555
