# generated using pymatgen
data_Fe6Ge5
_symmetry_space_group_name_H-M   'P 1'
_cell_length_a   6.30166754
_cell_length_b   6.30166754
_cell_length_c   7.79789335
_cell_angle_alpha   74.68624363
_cell_angle_beta   74.68624363
_cell_angle_gamma   76.65132412
_symmetry_Int_Tables_number   1
_chemical_formula_structural   Fe6Ge5
_chemical_formula_sum   'Fe12 Ge10'
_cell_volume   283.70900005
_cell_formula_units_Z   2
loop_
 _symmetry_equiv_pos_site_id
 _symmetry_equiv_pos_as_xyz
  1  'x, y, z'
loop_
 _atom_site_type_symbol
 _atom_site_label
 _atom_site_symmetry_multiplicity
 _atom_site_fract_x
 _atom_site_fract_y
 _atom_site_fract_z
 _atom_site_occupancy
  Fe  Fe0  1  0.12365600  0.12365600  0.98271000  1
  Fe  Fe1  1  0.97624700  0.45561600  0.17554800  1
  Fe  Fe2  1  0.42129100  0.42129100  0.27883000  1
  Fe  Fe3  1  0.25234300  0.74765700  0.50000000  1
  Fe  Fe4  1  0.57870900  0.57870900  0.72117000  1
  Fe  Fe5  1  0.02375300  0.54438400  0.82445200  1
  Fe  Fe6  1  0.87634400  0.87634400  0.01729000  1
  Fe  Fe7  1  0.45561600  0.97624700  0.17554800  1
  Fe  Fe8  1  0.74765700  0.25234300  0.50000000  1
  Fe  Fe9  1  0.54438400  0.02375300  0.82445200  1
  Fe  Fe10  1  0.50000000  0.00000000  0.50000000  1
  Fe  Fe11  1  0.00000000  0.50000000  0.50000000  1
  Ge  Ge0  1  0.34356100  0.34356100  0.62741600  1
  Ge  Ge1  1  0.36415500  0.36415500  0.99400900  1
  Ge  Ge2  1  0.24270900  0.84711000  0.78729200  1
  Ge  Ge3  1  0.14942600  0.14942600  0.39925700  1
  Ge  Ge4  1  0.84711000  0.24270900  0.78729200  1
  Ge  Ge5  1  0.63584500  0.63584500  0.00599100  1
  Ge  Ge6  1  0.15289000  0.75729100  0.21270800  1
  Ge  Ge7  1  0.85057400  0.85057400  0.60074300  1
  Ge  Ge8  1  0.65643900  0.65643900  0.37258400  1
  Ge  Ge9  1  0.75729100  0.15289000  0.21270800  1
loop_
_geom_bond_atom_site_label_1
_geom_bond_atom_site_label_2
_geom_bond_distance
_geom_bond_site_symmetry_2
Fe0 Fe6 2.368120 1_446
Fe0 Ge1 2.408977 1_555
Fe0 Ge4 2.473279 1_455
Fe0 Ge2 2.473279 1_545
Fe0 Ge6 2.524225 1_546
Fe0 Ge9 2.524225 1_456
Fe0 Fe9 2.619164 1_555
Fe0 Fe5 2.619164 1_555
Fe0 Fe1 2.743466 1_456
Fe0 Fe7 2.743466 1_546
Fe0 Ge0 2.889189 1_555
Fe1 Ge3 2.492479 1_655
Fe1 Ge8 2.497520 1_555
Fe1 Ge1 2.502832 1_654
Fe1 Ge9 2.517790 1_555
Fe1 Ge6 2.524987 1_655
Fe1 Fe5 2.594915 1_654
Fe1 Fe6 2.619164 1_555
Fe1 Fe11 2.663624 1_655
Fe1 Ge5 2.686915 1_555
Fe1 Fe8 2.707786 1_555
Fe2 Ge9 2.416640 1_555
Fe2 Ge6 2.416640 1_555
Fe2 Ge5 2.447009 1_555
Fe2 Ge1 2.469167 1_554
Fe2 Ge3 2.531338 1_555
Fe2 Ge0 2.563762 1_555
Fe2 Ge8 2.661666 1_555
Fe3 Ge3 2.430674 1_565
Fe3 Ge7 2.430674 1_455
Fe3 Ge2 2.463228 1_555
Fe3 Ge6 2.463228 1_555
Fe3 Ge0 2.468099 1_555
Fe3 Ge8 2.468099 1_555
Fe3 Fe5 2.707786 1_555
Fe3 Fe7 2.707786 1_555
Fe4 Ge2 2.416640 1_555
Fe4 Ge4 2.416640 1_555
Fe4 Ge1 2.447009 1_555
Fe4 Ge5 2.469167 1_556
Fe4 Ge7 2.531338 1_555
Fe4 Ge8 2.563762 1_555
Fe4 Ge0 2.661666 1_555
Fe5 Ge7 2.492479 1_455
Fe5 Ge0 2.497520 1_555
Fe5 Ge5 2.502832 1_456
Fe5 Ge2 2.517790 1_555
Fe5 Ge4 2.524987 1_455
Fe5 Ge1 2.686915 1_555
Fe5 Fe6 2.743466 1_456
Fe6 Ge5 2.408977 1_555
Fe6 Ge9 2.473279 1_565
Fe6 Ge6 2.473279 1_655
Fe6 Ge4 2.524225 1_564
Fe6 Ge2 2.524225 1_654
Fe6 Fe7 2.619164 1_555
Fe6 Fe9 2.743466 1_564
Fe6 Ge8 2.889189 1_555
Fe7 Ge3 2.492479 1_565
Fe7 Ge8 2.497520 1_555
Fe7 Ge1 2.502832 1_564
Fe7 Ge6 2.517790 1_555
Fe7 Ge9 2.524987 1_565
Fe7 Fe9 2.594915 1_564
Fe7 Ge5 2.686915 1_555
Fe8 Ge3 2.430674 1_655
Fe8 Ge7 2.430674 1_545
Fe8 Ge4 2.463228 1_555
Fe8 Ge9 2.463228 1_555
Fe8 Ge0 2.468099 1_555
Fe8 Ge8 2.468099 1_555
Fe8 Fe9 2.707786 1_555
Fe9 Ge7 2.492479 1_545
Fe9 Ge0 2.497520 1_555
Fe9 Ge5 2.502832 1_546
Fe9 Ge4 2.517790 1_555
Fe9 Ge2 2.524987 1_545
Fe9 Ge1 2.686915 1_555
Fe10 Ge7 2.439221 1_545
Fe10 Ge3 2.439221 1_555
Fe10 Fe8 2.471893 1_555
Fe10 Fe3 2.471893 1_545
Fe10 Ge9 2.497699 1_555
Fe10 Ge2 2.497699 1_545
Fe10 Ge0 2.505919 1_555
Fe10 Ge8 2.505919 1_545
Fe10 Fe9 2.663624 1_555
Fe10 Fe7 2.663624 1_545
Fe10 Fe2 2.773793 1_555
Fe10 Fe4 2.773793 1_545
Fe11 Ge7 2.439221 1_455
Fe11 Ge3 2.439221 1_555
Fe11 Fe3 2.471893 1_555
Fe11 Fe8 2.471893 1_455
Fe11 Ge6 2.497699 1_555
Fe11 Ge4 2.497699 1_455
Fe11 Ge0 2.505919 1_555
Fe11 Ge8 2.505919 1_455
Fe11 Fe5 2.663624 1_555
Fe11 Fe2 2.773793 1_555
Fe11 Fe4 2.773793 1_455
