# generated using pymatgen
data_Be3Fe4Si3SO12
_symmetry_space_group_name_H-M   'P 1'
_cell_length_a   8.30618098
_cell_length_b   8.30618098
_cell_length_c   8.30618022
_cell_angle_alpha   89.55949869
_cell_angle_beta   89.55949869
_cell_angle_gamma   89.55950280
_symmetry_Int_Tables_number   1
_chemical_formula_structural   Be3Fe4Si3SO12
_chemical_formula_sum   'Be6 Fe8 Si6 S2 O24'
_cell_volume   573.01477215
_cell_formula_units_Z   2
loop_
 _symmetry_equiv_pos_site_id
 _symmetry_equiv_pos_as_xyz
  1  'x, y, z'
loop_
 _atom_site_type_symbol
 _atom_site_label
 _atom_site_symmetry_multiplicity
 _atom_site_fract_x
 _atom_site_fract_y
 _atom_site_fract_z
 _atom_site_occupancy
  Be  Be0  1  0.75132300  0.50038700  0.00217800  1
  Be  Be1  1  0.50038700  0.00217800  0.75132300  1
  Be  Be2  1  0.50217800  0.00038700  0.25132300  1
  Be  Be3  1  0.00038700  0.25132300  0.50217800  1
  Be  Be4  1  0.00217800  0.75132300  0.50038700  1
  Be  Be5  1  0.25132300  0.50217800  0.00038700  1
  Fe  Fe0  1  0.67008200  0.66731700  0.33040200  1
  Fe  Fe1  1  0.33108600  0.33108600  0.33108600  1
  Fe  Fe2  1  0.17008200  0.83040200  0.16731700  1
  Fe  Fe3  1  0.83108600  0.83108600  0.83108600  1
  Fe  Fe4  1  0.16731700  0.17008200  0.83040200  1
  Fe  Fe5  1  0.33040200  0.67008200  0.66731700  1
  Fe  Fe6  1  0.83040200  0.16731700  0.17008200  1
  Fe  Fe7  1  0.66731700  0.33040200  0.67008200  1
  Si  Si0  1  0.25290200  0.99714500  0.50344700  1
  Si  Si1  1  0.49714500  0.75290200  0.00344700  1
  Si  Si2  1  0.50344700  0.25290200  0.99714500  1
  Si  Si3  1  0.75290200  0.00344700  0.49714500  1
  Si  Si4  1  0.99714500  0.50344700  0.25290200  1
  Si  Si5  1  0.00344700  0.49714500  0.75290200  1
  S  S0  1  0.00021200  0.00021200  0.00021200  1
  S  S1  1  0.50021200  0.50021200  0.50021200  1
  O  O0  1  0.14539200  0.41463200  0.86196300  1
  O  O1  1  0.14030600  0.58762800  0.14147900  1
  O  O2  1  0.58865100  0.86437900  0.86465600  1
  O  O3  1  0.41463200  0.86196300  0.14539200  1
  O  O4  1  0.14709300  0.85647300  0.41580200  1
  O  O5  1  0.86196300  0.14539200  0.41463200  1
  O  O6  1  0.64539200  0.36196300  0.91463200  1
  O  O7  1  0.85647300  0.41580200  0.14709300  1
  O  O8  1  0.86465600  0.58865100  0.86437900  1
  O  O9  1  0.41580200  0.14709300  0.85647300  1
  O  O10  1  0.58762800  0.14147900  0.14030600  1
  O  O11  1  0.14147900  0.14030600  0.58762800  1
  O  O12  1  0.86437900  0.86465600  0.58865100  1
  O  O13  1  0.08865100  0.36465600  0.36437900  1
  O  O14  1  0.64709300  0.91580200  0.35647300  1
  O  O15  1  0.36437900  0.08865100  0.36465600  1
  O  O16  1  0.08762800  0.64030600  0.64147900  1
  O  O17  1  0.36196300  0.91463200  0.64539200  1
  O  O18  1  0.91463200  0.64539200  0.36196300  1
  O  O19  1  0.91580200  0.35647300  0.64709300  1
  O  O20  1  0.64147900  0.08762800  0.64030600  1
  O  O21  1  0.64030600  0.64147900  0.08762800  1
  O  O22  1  0.36465600  0.36437900  0.08865100  1
  O  O23  1  0.35647300  0.64709300  0.91580200  1
loop_
_geom_bond_atom_site_label_1
_geom_bond_atom_site_label_2
_geom_bond_distance
_geom_bond_site_symmetry_2
Be0 O6 1.631933 1_554
Be0 O7 1.642873 1_555
Be0 O21 1.647309 1_555
Be0 O8 1.647686 1_554
Be1 O17 1.631933 1_545
Be1 O9 1.642873 1_555
Be1 O20 1.647308 1_555
Be1 O2 1.647686 1_545
Be2 O3 1.631933 1_545
Be2 O14 1.642873 1_545
Be2 O10 1.647308 1_555
Be2 O15 1.647686 1_555
Be3 O5 1.631933 1_455
Be3 O19 1.642873 1_455
Be3 O11 1.647309 1_555
Be3 O13 1.647686 1_555
Be4 O18 1.631933 1_455
Be4 O4 1.642873 1_555
Be4 O16 1.647308 1_555
Be4 O12 1.647686 1_455
Be5 O0 1.631933 1_554
Be5 O23 1.642873 1_554
Be5 O1 1.647308 1_555
Be5 O22 1.647686 1_555
Fe0 O21 2.046641 1_555
Fe0 O18 2.056633 1_555
Fe0 O14 2.084099 1_555
Fe0 S1 2.424095 1_555
Fe1 O22 2.047739 1_555
Fe1 O15 2.047740 1_555
Fe1 O13 2.047740 1_555
Fe1 S1 2.451805 1_555
Fe2 O1 2.046641 1_555
Fe2 O3 2.056633 1_555
Fe2 O4 2.084099 1_555
Fe2 S0 2.424095 1_565
Fe3 O12 2.047739 1_555
Fe3 O2 2.047740 1_555
Fe3 O8 2.047740 1_555
Fe3 S0 2.451805 1_666
Fe4 O11 2.046641 1_555
Fe4 O0 2.056633 1_555
Fe4 O9 2.084099 1_555
Fe4 S0 2.424095 1_556
Fe5 O16 2.046641 1_555
Fe5 O17 2.056633 1_555
Fe5 O23 2.084099 1_555
Fe5 S1 2.424095 1_555
Fe6 O10 2.046641 1_555
Fe6 O5 2.056633 1_555
Fe6 O7 2.084099 1_555
Fe6 S0 2.424095 1_655
Fe7 O20 2.046641 1_555
Fe7 O6 2.056633 1_555
Fe7 O19 2.084099 1_555
Fe7 S1 2.424095 1_555
O0 Si5 1.635509 1_555
O1 Si4 1.656920 1_455
O2 Si1 1.656809 1_556
O3 Si1 1.635509 1_555
O4 Si0 1.645103 1_555
O5 Si3 1.635509 1_555
O6 Si2 1.635509 1_555
O7 Si4 1.645103 1_555
O8 Si5 1.656809 1_655
O9 Si2 1.645103 1_555
O10 Si2 1.656920 1_554
O11 Si0 1.656920 1_545
O12 Si3 1.656809 1_565
O13 Si4 1.656809 1_455
O14 Si3 1.645103 1_565
O15 Si0 1.656809 1_545
O16 Si5 1.656920 1_555
O17 Si0 1.635509 1_555
O18 Si4 1.635509 1_555
O19 Si5 1.645103 1_655
O20 Si3 1.656920 1_555
O21 Si1 1.656920 1_555
O22 Si2 1.656809 1_554
O23 Si1 1.645103 1_556
