# generated using pymatgen
data_Fe4P2O9
_symmetry_space_group_name_H-M   'P 1'
_cell_length_a   11.42507700
_cell_length_b   6.66623800
_cell_length_c   9.52567577
_cell_angle_alpha   75.66209258
_cell_angle_beta   90.00000000
_cell_angle_gamma   90.00000000
_symmetry_Int_Tables_number   1
_chemical_formula_structural   Fe4P2O9
_chemical_formula_sum   'Fe16 P8 O36'
_cell_volume   702.89949603
_cell_formula_units_Z   4
loop_
 _symmetry_equiv_pos_site_id
 _symmetry_equiv_pos_as_xyz
  1  'x, y, z'
loop_
 _atom_site_type_symbol
 _atom_site_label
 _atom_site_symmetry_multiplicity
 _atom_site_fract_x
 _atom_site_fract_y
 _atom_site_fract_z
 _atom_site_occupancy
  Fe  Fe0  1  0.13408100  0.53024900  0.68221400  1
  Fe  Fe1  1  0.59459900  0.95476600  0.88264800  1
  Fe  Fe2  1  0.11886900  0.77130600  0.25164300  1
  Fe  Fe3  1  0.89644500  0.81946100  0.03479600  1
  Fe  Fe4  1  0.09459900  0.04523400  0.61735200  1
  Fe  Fe5  1  0.36591900  0.53024900  0.18221400  1
  Fe  Fe6  1  0.60355500  0.81946100  0.53479600  1
  Fe  Fe7  1  0.86591900  0.46975100  0.31778600  1
  Fe  Fe8  1  0.39644500  0.18053900  0.46520400  1
  Fe  Fe9  1  0.10355500  0.18053900  0.96520400  1
  Fe  Fe10  1  0.40540100  0.04523400  0.11735200  1
  Fe  Fe11  1  0.61886900  0.22869400  0.24835700  1
  Fe  Fe12  1  0.90540100  0.95476600  0.38264800  1
  Fe  Fe13  1  0.88113100  0.22869400  0.74835700  1
  Fe  Fe14  1  0.38113100  0.77130600  0.75164300  1
  Fe  Fe15  1  0.63408100  0.46975100  0.81778600  1
  P  P0  1  0.86989500  0.75973600  0.68477600  1
  P  P1  1  0.32894200  0.70326800  0.42562900  1
  P  P2  1  0.13010500  0.24026400  0.31522400  1
  P  P3  1  0.36989500  0.24026400  0.81522400  1
  P  P4  1  0.17105800  0.70326800  0.92562900  1
  P  P5  1  0.63010500  0.75973600  0.18477600  1
  P  P6  1  0.82894200  0.29673200  0.07437100  1
  P  P7  1  0.67105800  0.29673200  0.57437100  1
  O  O0  1  0.39274900  0.50457600  0.41819700  1
  O  O1  1  0.33081700  0.46148700  0.74258200  1
  O  O2  1  0.59520600  0.16403300  0.49315000  1
  O  O3  1  0.78590000  0.86233500  0.55711700  1
  O  O4  1  0.61930300  0.89144100  0.29777200  1
  O  O5  1  0.40479400  0.83596700  0.50685000  1
  O  O6  1  0.55895500  0.75198000  0.76744500  1
  O  O7  1  0.19274500  0.82195100  0.76162600  1
  O  O8  1  0.28590000  0.13766500  0.94288300  1
  O  O9  1  0.49209500  0.23046400  0.89586400  1
  O  O10  1  0.11930300  0.10855900  0.20222800  1
  O  O11  1  0.83081700  0.53851300  0.75741800  1
  O  O12  1  0.50790500  0.76953600  0.10413600  1
  O  O13  1  0.05895500  0.24802000  0.73255500  1
  O  O14  1  0.94104500  0.75198000  0.26744500  1
  O  O15  1  0.79767300  0.32778400  0.51571700  1
  O  O16  1  0.69274500  0.17804900  0.73837400  1
  O  O17  1  0.00790500  0.23046400  0.39586400  1
  O  O18  1  0.60725100  0.49542400  0.58180300  1
  O  O19  1  0.80725500  0.17804900  0.23837400  1
  O  O20  1  0.99209500  0.76953600  0.60413600  1
  O  O21  1  0.16918300  0.46148700  0.24258200  1
  O  O22  1  0.71410000  0.86233500  0.05711700  1
  O  O23  1  0.10725100  0.50457600  0.91819700  1
  O  O24  1  0.88069700  0.89144100  0.79777200  1
  O  O25  1  0.30725500  0.82195100  0.26162600  1
  O  O26  1  0.09520600  0.83596700  0.00685000  1
  O  O27  1  0.44104500  0.24802000  0.23255500  1
  O  O28  1  0.38069700  0.10855900  0.70222800  1
  O  O29  1  0.89274900  0.49542400  0.08180300  1
  O  O30  1  0.21410000  0.13766500  0.44288300  1
  O  O31  1  0.20232700  0.67221600  0.48428300  1
  O  O32  1  0.70232700  0.32778400  0.01571700  1
  O  O33  1  0.90479400  0.16403300  0.99315000  1
  O  O34  1  0.66918300  0.53851300  0.25741800  1
  O  O35  1  0.29767300  0.67221600  0.98428300  1
loop_
_geom_bond_atom_site_label_1
_geom_bond_atom_site_label_2
_geom_bond_distance
_geom_bond_site_symmetry_2
Fe0 O13 2.014823 1_555
Fe0 O31 2.043205 1_555
Fe0 O23 2.232881 1_555
Fe0 O20 2.267507 1_455
Fe0 O1 2.337200 1_555
Fe0 O7 2.351867 1_555
Fe1 O6 1.982989 1_555
Fe1 O16 2.085295 1_565
Fe1 O22 2.120984 1_556
Fe1 O9 2.209008 1_565
Fe1 O12 2.380508 1_556
Fe2 O14 2.038937 1_455
Fe2 O21 2.166047 1_555
Fe2 O10 2.179886 1_565
Fe2 O25 2.184360 1_555
Fe2 O26 2.280012 1_555
Fe2 O31 2.351895 1_555
Fe3 O29 2.095065 1_555
Fe3 O22 2.120650 1_555
Fe3 O24 2.196306 1_554
Fe3 O14 2.208965 1_555
Fe3 O33 2.234136 1_564
Fe3 O26 2.285885 1_655
Fe4 O13 1.982989 1_555
Fe4 O7 2.085295 1_545
Fe4 O30 2.120984 1_555
Fe4 O20 2.209008 1_445
Fe4 O17 2.380508 1_555
Fe5 O27 2.014823 1_555
Fe5 O35 2.043205 1_554
Fe5 O0 2.232881 1_555
Fe5 O12 2.267507 1_555
Fe5 O21 2.337200 1_555
Fe5 O25 2.351867 1_555
Fe6 O18 2.095065 1_555
Fe6 O3 2.120650 1_555
Fe6 O4 2.196306 1_555
Fe6 O6 2.208965 1_555
Fe6 O2 2.234136 1_565
Fe6 O5 2.285885 1_555
Fe7 O14 2.014823 1_555
Fe7 O15 2.043205 1_555
Fe7 O29 2.232881 1_555
Fe7 O17 2.267507 1_655
Fe7 O34 2.337200 1_555
Fe7 O19 2.351867 1_555
Fe8 O0 2.095065 1_555
Fe8 O30 2.120650 1_555
Fe8 O28 2.196306 1_555
Fe8 O27 2.208965 1_555
Fe8 O5 2.234136 1_545
Fe8 O2 2.285885 1_555
Fe9 O23 2.095065 1_555
Fe9 O8 2.120650 1_555
Fe9 O10 2.196306 1_556
Fe9 O13 2.208965 1_555
Fe9 O26 2.234136 1_546
Fe9 O33 2.285885 1_455
Fe10 O27 1.982989 1_555
Fe10 O25 2.085295 1_545
Fe10 O8 2.120984 1_554
Fe10 O12 2.209008 1_545
Fe10 O9 2.380508 1_554
Fe11 O27 2.038937 1_555
Fe11 O34 2.166047 1_555
Fe11 O4 2.179886 1_545
Fe11 O19 2.184360 1_555
Fe11 O2 2.280012 1_555
Fe11 O32 2.351895 1_555
Fe12 O14 1.982989 1_555
Fe12 O19 2.085295 1_565
Fe12 O3 2.120984 1_555
Fe12 O17 2.209008 1_665
Fe12 O20 2.380508 1_555
Fe13 O13 2.038937 1_655
Fe13 O11 2.166047 1_555
Fe13 O24 2.179886 1_545
Fe13 O16 2.184360 1_555
Fe13 O33 2.280012 1_555
Fe13 O15 2.351895 1_555
Fe14 O6 2.038937 1_555
Fe14 O1 2.166047 1_555
Fe14 O28 2.179886 1_565
Fe14 O7 2.184360 1_555
Fe14 O5 2.280012 1_555
Fe14 O35 2.351895 1_555
Fe15 O6 2.014823 1_555
Fe15 O32 2.043205 1_556
Fe15 O18 2.232881 1_555
Fe15 O9 2.267507 1_555
Fe15 O11 2.337200 1_555
Fe15 O16 2.351867 1_555
O0 P1 1.528813 1_555
O1 P3 1.532172 1_555
O2 P7 1.571975 1_555
O3 P0 1.567014 1_555
O4 P5 1.553281 1_555
O5 P1 1.571975 1_555
O7 P4 1.586118 1_555
O8 P3 1.567014 1_555
O9 P3 1.587037 1_555
O10 P2 1.553281 1_555
O11 P0 1.532172 1_555
O12 P5 1.587037 1_555
O15 P7 1.546074 1_555
O16 P7 1.586118 1_555
O17 P2 1.587037 1_555
O18 P7 1.528813 1_555
O19 P6 1.586118 1_555
O20 P0 1.587037 1_555
O21 P2 1.532172 1_555
O22 P5 1.567014 1_555
O23 P4 1.528813 1_555
O24 P0 1.553281 1_555
O25 P1 1.586118 1_555
O26 P4 1.571975 1_554
O28 P3 1.553281 1_555
O29 P6 1.528813 1_555
O30 P2 1.567014 1_555
O31 P1 1.546074 1_555
O32 P6 1.546074 1_555
O33 P6 1.571975 1_556
O34 P5 1.532172 1_555
O35 P4 1.546074 1_555
