# generated using pymatgen
data_Sm4Si2S3O7
_symmetry_space_group_name_H-M   'P 1'
_cell_length_a   10.96803027
_cell_length_b   10.96803027
_cell_length_c   10.96803027
_cell_angle_alpha   114.14810074
_cell_angle_beta   114.14810074
_cell_angle_gamma   100.47501203
_symmetry_Int_Tables_number   1
_chemical_formula_structural   Sm4Si2S3O7
_chemical_formula_sum   'Sm16 Si8 S12 O28'
_cell_volume   997.34480258
_cell_formula_units_Z   4
loop_
 _symmetry_equiv_pos_site_id
 _symmetry_equiv_pos_as_xyz
  1  'x, y, z'
loop_
 _atom_site_type_symbol
 _atom_site_label
 _atom_site_symmetry_multiplicity
 _atom_site_fract_x
 _atom_site_fract_y
 _atom_site_fract_z
 _atom_site_occupancy
  Sm  Sm0  1  0.42172700  0.92172700  0.84345500  1
  Sm  Sm1  1  0.67172700  0.32827300  0.00000000  1
  Sm  Sm2  1  0.32827300  0.67172700  0.00000000  1
  Sm  Sm3  1  0.07827300  0.57827300  0.15654500  1
  Sm  Sm4  1  0.32827300  0.32827300  0.65654500  1
  Sm  Sm5  1  0.07827300  0.92172700  0.50000000  1
  Sm  Sm6  1  0.42172700  0.57827300  0.50000000  1
  Sm  Sm7  1  0.67172700  0.67172700  0.34345500  1
  Sm  Sm8  1  0.03237000  0.79597800  0.76360800  1
  Sm  Sm9  1  0.03237000  0.26876200  0.23639200  1
  Sm  Sm10  1  0.20402200  0.96763000  0.23639200  1
  Sm  Sm11  1  0.01876200  0.28237000  0.73639200  1
  Sm  Sm12  1  0.54597800  0.28237000  0.26360800  1
  Sm  Sm13  1  0.71763000  0.98123800  0.26360800  1
  Sm  Sm14  1  0.71763000  0.45402200  0.73639200  1
  Sm  Sm15  1  0.73123800  0.96763000  0.76360800  1
  Si  Si0  1  0.27789600  0.40246300  0.12456700  1
  Si  Si1  1  0.27789600  0.15332900  0.87543300  1
  Si  Si2  1  0.59753700  0.72210400  0.87543300  1
  Si  Si3  1  0.90332900  0.52789600  0.37543300  1
  Si  Si4  1  0.15246300  0.52789600  0.62456700  1
  Si  Si5  1  0.47210400  0.09667100  0.62456700  1
  Si  Si6  1  0.47210400  0.84753700  0.37543300  1
  Si  Si7  1  0.84667100  0.72210400  0.12456700  1
  S  S0  1  0.50000000  0.50000000  0.00000000  1
  S  S1  1  0.25000000  0.75000000  0.50000000  1
  S  S2  1  0.75000000  0.25000000  0.50000000  1
  S  S3  1  0.00000000  0.00000000  0.00000000  1
  S  S4  1  0.87500000  0.97722700  0.60222700  1
  S  S5  1  0.72722700  0.62500000  0.60222700  1
  S  S6  1  0.02277300  0.12500000  0.39777300  1
  S  S7  1  0.37500000  0.27277300  0.39777300  1
  S  S8  1  0.87500000  0.27277300  0.89777300  1
  S  S9  1  0.02277300  0.62500000  0.89777300  1
  S  S10  1  0.72722700  0.12500000  0.10222700  1
  S  S11  1  0.37500000  0.97722700  0.10222700  1
  O  O0  1  0.77263600  0.77263600  0.00000000  1
  O  O1  1  0.52263600  0.02263600  0.50000000  1
  O  O2  1  0.97736400  0.47736400  0.50000000  1
  O  O3  1  0.22736400  0.22736400  0.00000000  1
  O  O4  1  0.20047500  0.97110900  0.77063400  1
  O  O5  1  0.20047500  0.42984200  0.22936600  1
  O  O6  1  0.02889100  0.79952500  0.22936600  1
  O  O7  1  0.17984200  0.45047500  0.72936600  1
  O  O8  1  0.72110900  0.45047500  0.27063400  1
  O  O9  1  0.54952500  0.82015800  0.27063400  1
  O  O10  1  0.54952500  0.27889100  0.72936600  1
  O  O11  1  0.57015800  0.79952500  0.77063400  1
  O  O12  1  0.29705500  0.05877100  0.52008300  1
  O  O13  1  0.53868800  0.77697200  0.47991700  1
  O  O14  1  0.94122900  0.70294500  0.47991700  1
  O  O15  1  0.52697200  0.54705500  0.73828400  1
  O  O16  1  0.80877100  0.78868800  0.26171600  1
  O  O17  1  0.45294500  0.47302800  0.26171600  1
  O  O18  1  0.21131200  0.19122900  0.73828400  1
  O  O19  1  0.22302800  0.46131200  0.52008300  1
  O  O20  1  0.45294500  0.19122900  0.97991700  1
  O  O21  1  0.21131200  0.47302800  0.02008300  1
  O  O22  1  0.80877100  0.54705500  0.02008300  1
  O  O23  1  0.22302800  0.70294500  0.76171600  1
  O  O24  1  0.94122900  0.46131200  0.23828400  1
  O  O25  1  0.29705500  0.77697200  0.23828400  1
  O  O26  1  0.53868800  0.05877100  0.76171600  1
  O  O27  1  0.52697200  0.78868800  0.97991700  1
loop_
_geom_bond_atom_site_label_1
_geom_bond_atom_site_label_2
_geom_bond_distance
_geom_bond_site_symmetry_2
S0 Sm2 2.895713 1_555
S0 Sm1 2.895713 1_555
S0 Sm4 2.895721 1_554
S0 Sm7 2.895721 1_555
S1 Sm5 2.895713 1_555
S1 Sm6 2.895713 1_555
S1 Sm0 2.895721 1_555
S1 Sm3 2.895721 1_555
S2 Sm13 2.854963 1_545
S2 Sm12 2.854963 1_555
S2 Sm11 2.854963 1_655
S2 Sm14 2.854963 1_555
S3 Sm9 2.854963 1_555
S3 Sm10 2.854963 1_545
S3 Sm15 2.854963 1_444
S3 Sm8 2.854963 1_544
S4 Sm15 2.829484 1_555
S4 Sm11 2.829484 1_665
S4 Sm7 2.928947 1_555
S4 Sm5 2.928949 1_655
S4 Sm8 3.419225 1_655
S4 Sm13 3.419225 1_555
S5 Sm8 2.829484 1_655
S5 Sm14 2.829484 1_555
S5 Sm7 2.928939 1_555
S5 Sm6 2.928949 1_555
S5 Sm15 3.419225 1_555
S5 Sm12 3.419225 1_555
S6 Sm9 2.829484 1_555
S6 Sm13 2.829484 1_445
S6 Sm4 2.928947 1_555
S6 Sm5 2.928949 1_545
S6 Sm10 3.419225 1_545
S6 Sm11 3.419225 1_555
S7 Sm12 2.829484 1_555
S7 Sm10 2.829484 1_545
S7 Sm4 2.928939 1_555
S7 Sm6 2.928949 1_555
S7 Sm9 3.419225 1_555
S7 Sm14 3.419225 1_555
S8 Sm11 2.829484 1_655
S8 Sm15 2.829484 1_545
S8 Sm3 2.928947 1_656
S8 Sm1 2.928949 1_556
S8 Sm9 3.419225 1_656
S8 Sm14 3.419225 1_555
S9 Sm14 2.829484 1_455
S9 Sm8 2.829484 1_555
S9 Sm3 2.928939 1_556
S9 Sm2 2.928949 1_556
S9 Sm10 3.419225 1_556
S9 Sm11 3.419225 1_555
S10 Sm13 2.829484 1_545
S10 Sm9 2.829484 1_655
S10 Sm0 2.928947 1_544
S10 Sm1 2.928949 1_555
S10 Sm12 3.419225 1_555
S10 Sm15 3.419225 1_544
S11 Sm10 2.829484 1_555
S11 Sm12 2.829484 1_565
S11 Sm0 2.928939 1_554
S11 Sm2 2.928949 1_555
S11 Sm13 3.419225 1_555
S11 Sm8 3.419225 1_554
O0 Si2 1.645808 1_554
O0 Si7 1.645808 1_555
O1 Si5 1.645808 1_555
O1 Si6 1.645808 1_545
O2 Si3 1.645808 1_555
O2 Si4 1.645808 1_655
O3 Si1 1.645808 1_554
O3 Si0 1.645808 1_555
O4 Si1 1.655704 1_565
O4 Sm8 2.360076 1_555
O4 Sm5 2.462962 1_555
O4 Sm0 2.462962 1_555
O5 Si0 1.655704 1_555
O5 Sm9 2.360083 1_555
O5 Sm3 2.462956 1_555
O5 Sm6 2.462962 1_555
O6 Si7 1.655704 1_455
O6 Sm10 2.360076 1_555
O6 Sm5 2.462962 1_555
O6 Sm3 2.462962 1_555
O7 Si4 1.655704 1_555
O7 Sm11 2.360083 1_555
O7 Sm4 2.462956 1_555
O7 Sm2 2.462962 1_556
O8 Si3 1.655704 1_555
O8 Sm12 2.360076 1_555
O8 Sm1 2.462962 1_555
O8 Sm7 2.462962 1_555
O9 Si6 1.655704 1_555
O9 Sm13 2.360083 1_555
O9 Sm7 2.462956 1_555
O9 Sm2 2.462962 1_555
O10 Si5 1.655704 1_555
O10 Sm14 2.360076 1_555
O10 Sm1 2.462962 1_556
O10 Sm4 2.462962 1_555
O11 Si2 1.655704 1_555
O11 Sm15 2.360083 1_555
O11 Sm0 2.462956 1_555
O11 Sm6 2.462962 1_555
O12 Si5 1.640757 1_555
O12 Sm5 2.459896 1_545
O12 Sm10 2.491697 1_545
O12 Sm4 2.586049 1_555
O13 Si6 1.640757 1_555
O13 Sm6 2.459896 1_555
O13 Sm15 2.491697 1_555
O13 Sm7 2.586043 1_555
O14 Si3 1.640757 1_555
O14 Sm5 2.459896 1_655
O14 Sm8 2.491697 1_655
O14 Sm7 2.586049 1_555
O15 Si2 1.640757 1_555
O15 Sm4 2.459892 1_555
O15 Sm14 2.491697 1_555
O15 Sm6 2.586050 1_555
O16 Si7 1.640757 1_555
O16 Sm7 2.459905 1_555
O16 Sm13 2.491697 1_555
O16 Sm5 2.586050 1_655
O17 Si0 1.640757 1_555
O17 Sm7 2.459892 1_555
O17 Sm12 2.491697 1_555
O17 Sm6 2.586050 1_555
O18 Si1 1.640757 1_555
O18 Sm4 2.459905 1_555
O18 Sm11 2.491697 1_555
O18 Sm5 2.586050 1_545
O19 Si4 1.640757 1_555
O19 Sm6 2.459896 1_555
O19 Sm9 2.491697 1_555
O19 Sm4 2.586043 1_555
O20 Si1 1.640757 1_555
O20 Sm1 2.459896 1_556
O20 Sm12 2.491697 1_556
O20 Sm0 2.586049 1_545
O21 Si0 1.640757 1_555
O21 Sm2 2.459896 1_555
O21 Sm11 2.491697 1_554
O21 Sm3 2.586043 1_555
O22 Si7 1.640757 1_555
O22 Sm1 2.459896 1_555
O22 Sm14 2.491697 1_554
O22 Sm3 2.586049 1_655
O23 Si4 1.640757 1_555
O23 Sm0 2.459892 1_555
O23 Sm8 2.491697 1_555
O23 Sm2 2.586050 1_556
O24 Si3 1.640757 1_555
O24 Sm3 2.459905 1_655
O24 Sm9 2.491697 1_655
O24 Sm1 2.586050 1_555
O25 Si6 1.640757 1_555
O25 Sm3 2.459892 1_555
O25 Sm10 2.491697 1_555
O25 Sm2 2.586050 1_555
O26 Si5 1.640757 1_555
O26 Sm0 2.459905 1_545
O26 Sm15 2.491697 1_545
O26 Sm1 2.586050 1_556
O27 Si2 1.640757 1_555
O27 Sm2 2.459896 1_556
O27 Sm13 2.491697 1_556
O27 Sm0 2.586043 1_555
