# generated using pymatgen
data_PHOF2
_symmetry_space_group_name_H-M   'P 1'
_cell_length_a   6.00662200
_cell_length_b   6.49445500
_cell_length_c   14.86730500
_cell_angle_alpha   90.00000000
_cell_angle_beta   90.00000000
_cell_angle_gamma   90.00000000
_symmetry_Int_Tables_number   1
_chemical_formula_structural   PHOF2
_chemical_formula_sum   'P8 H8 O8 F16'
_cell_volume   579.96964726
_cell_formula_units_Z   8
loop_
 _symmetry_equiv_pos_site_id
 _symmetry_equiv_pos_as_xyz
  1  'x, y, z'
loop_
 _atom_site_type_symbol
 _atom_site_label
 _atom_site_symmetry_multiplicity
 _atom_site_fract_x
 _atom_site_fract_y
 _atom_site_fract_z
 _atom_site_occupancy
  P  P0  1  0.54739300  0.31097800  0.64484900  1
  P  P1  1  0.95260700  0.68902200  0.14484900  1
  P  P2  1  0.04739300  0.18902200  0.35515100  1
  P  P3  1  0.45260700  0.81097800  0.85515100  1
  P  P4  1  0.45260700  0.68902200  0.35515100  1
  P  P5  1  0.04739300  0.31097800  0.85515100  1
  P  P6  1  0.95260700  0.81097800  0.64484900  1
  P  P7  1  0.54739300  0.18902200  0.14484900  1
  H  H0  1  0.41533100  0.14914100  0.67610200  1
  H  H1  1  0.08466900  0.85085900  0.17610200  1
  H  H2  1  0.91533100  0.35085900  0.32389800  1
  H  H3  1  0.58466900  0.64914100  0.82389800  1
  H  H4  1  0.58466900  0.85085900  0.32389800  1
  H  H5  1  0.91533100  0.14914100  0.82389800  1
  H  H6  1  0.08466900  0.64914100  0.67610200  1
  H  H7  1  0.41533100  0.35085900  0.17610200  1
  O  O0  1  0.70801600  0.40817300  0.70605900  1
  O  O1  1  0.79198400  0.59182700  0.20605900  1
  O  O2  1  0.20801600  0.09182700  0.29394100  1
  O  O3  1  0.29198400  0.90817300  0.79394100  1
  O  O4  1  0.29198400  0.59182700  0.29394100  1
  O  O5  1  0.20801600  0.40817300  0.79394100  1
  O  O6  1  0.79198400  0.90817300  0.70605900  1
  O  O7  1  0.70801600  0.09182700  0.20605900  1
  F  F0  1  0.37828000  0.46571300  0.60080600  1
  F  F1  1  0.12172000  0.53428700  0.10080600  1
  F  F2  1  0.87828000  0.03428700  0.39919400  1
  F  F3  1  0.62172000  0.96571300  0.89919400  1
  F  F4  1  0.62172000  0.53428700  0.39919400  1
  F  F5  1  0.87828000  0.46571300  0.89919400  1
  F  F6  1  0.12172000  0.96571300  0.60080600  1
  F  F7  1  0.37828000  0.03428700  0.10080600  1
  F  F8  1  0.65439600  0.22446800  0.55628500  1
  F  F9  1  0.84560400  0.77553200  0.05628500  1
  F  F10  1  0.15439600  0.27553200  0.44371500  1
  F  F11  1  0.34560400  0.72446800  0.94371500  1
  F  F12  1  0.34560400  0.77553200  0.44371500  1
  F  F13  1  0.15439600  0.22446800  0.94371500  1
  F  F14  1  0.84560400  0.72446800  0.55628500  1
  F  F15  1  0.65439600  0.27553200  0.05628500  1
loop_
_geom_bond_atom_site_label_1
_geom_bond_atom_site_label_2
_geom_bond_distance
_geom_bond_site_symmetry_2
H0 P0 1.396363 1_555
H1 P1 1.396363 1_455
H2 P2 1.396363 1_655
H3 P3 1.396363 1_555
H4 P4 1.396363 1_555
H5 P5 1.396363 1_655
H6 P6 1.396363 1_455
H7 P7 1.396363 1_555
O0 P0 1.468823 1_555
O1 P1 1.468823 1_555
O2 P2 1.468823 1_555
O3 P3 1.468823 1_555
O4 P4 1.468823 1_555
O5 P5 1.468823 1_555
O6 P6 1.468823 1_555
O7 P7 1.468823 1_555
F0 P0 1.571774 1_555
F1 P1 1.571774 1_455
F2 P2 1.571774 1_655
F3 P3 1.571774 1_555
F4 P4 1.571774 1_555
F5 P5 1.571774 1_655
F6 P6 1.571774 1_455
F7 P7 1.571774 1_555
F8 P0 1.569228 1_555
F9 P1 1.569228 1_555
F10 P2 1.569228 1_555
F11 P3 1.569228 1_555
F12 P4 1.569228 1_555
F13 P5 1.569228 1_555
F14 P6 1.569228 1_555
F15 P7 1.569228 1_555
