# generated using pymatgen
data_Tl3AgTe2
_symmetry_space_group_name_H-M   'P 1'
_cell_length_a   7.65003215
_cell_length_b   9.88990276
_cell_length_c   11.22588308
_cell_angle_alpha   64.17407642
_cell_angle_beta   90.00000000
_cell_angle_gamma   90.00000000
_symmetry_Int_Tables_number   1
_chemical_formula_structural   Tl3AgTe2
_chemical_formula_sum   'Tl12 Ag4 Te8'
_cell_volume   764.49923739
_cell_formula_units_Z   4
loop_
 _symmetry_equiv_pos_site_id
 _symmetry_equiv_pos_as_xyz
  1  'x, y, z'
loop_
 _atom_site_type_symbol
 _atom_site_label
 _atom_site_symmetry_multiplicity
 _atom_site_fract_x
 _atom_site_fract_y
 _atom_site_fract_z
 _atom_site_occupancy
  Tl  Tl0  1  0.70988411  0.66570355  0.41642261  1
  Tl  Tl1  1  0.79011589  0.16570355  0.41642261  1
  Tl  Tl2  1  0.98904774  0.98774951  0.20777618  1
  Tl  Tl3  1  0.00750025  0.46246987  0.76615838  1
  Tl  Tl4  1  0.29011589  0.33429645  0.58357739  1
  Tl  Tl5  1  0.49249975  0.96246987  0.76615838  1
  Tl  Tl6  1  0.01095226  0.01225049  0.79222382  1
  Tl  Tl7  1  0.99249975  0.53753013  0.23384162  1
  Tl  Tl8  1  0.48904774  0.51225049  0.79222382  1
  Tl  Tl9  1  0.51095226  0.48774951  0.20777618  1
  Tl  Tl10  1  0.50750025  0.03753013  0.23384162  1
  Tl  Tl11  1  0.20988411  0.83429645  0.58357739  1
  Ag  Ag0  1  0.16547952  0.32391958  0.09412907  1
  Ag  Ag1  1  0.83452048  0.67608042  0.90587093  1
  Ag  Ag2  1  0.33452048  0.82391958  0.09412907  1
  Ag  Ag3  1  0.66547952  0.17608042  0.90587093  1
  Te  Te0  1  0.77459150  0.80847854  0.62879598  1
  Te  Te1  1  0.22540850  0.19152146  0.37120402  1
  Te  Te2  1  0.72540850  0.30847854  0.62879598  1
  Te  Te3  1  0.27459150  0.69152146  0.37120402  1
  Te  Te4  1  0.77375311  0.35534914  0.03599836  1
  Te  Te5  1  0.27375311  0.14465086  0.96400164  1
  Te  Te6  1  0.72624689  0.85534914  0.03599836  1
  Te  Te7  1  0.22624689  0.64465086  0.96400164  1
loop_
_geom_bond_atom_site_label_1
_geom_bond_atom_site_label_2
_geom_bond_distance
_geom_bond_site_symmetry_2
Ag0 Te1 2.837403 1_555
Ag0 Te5 2.867034 1_554
Ag0 Te7 2.893861 1_554
Ag0 Te4 3.053860 1_455
Ag0 Tl2 3.287446 1_445
Ag0 Tl7 3.400130 1_455
Ag0 Tl3 3.535251 1_554
Ag0 Tl9 3.610916 1_555
Ag0 Tl10 3.668463 1_555
Ag1 Te0 2.837403 1_555
Ag1 Te6 2.867034 1_556
Ag1 Te4 2.893861 1_556
Ag1 Te7 3.053860 1_655
Ag1 Tl6 3.287446 1_665
Ag1 Tl3 3.400130 1_655
Ag1 Tl7 3.535251 1_556
Ag1 Tl8 3.610916 1_555
Ag1 Tl5 3.668463 1_555
Ag2 Te3 2.837403 1_555
Ag2 Te7 2.867034 1_554
Ag2 Te5 2.893861 1_564
Ag2 Te6 3.053860 1_555
Ag2 Tl9 3.287446 1_555
Ag2 Tl10 3.400130 1_565
Ag2 Tl5 3.535251 1_554
Ag2 Tl2 3.610916 1_455
Ag2 Tl7 3.668463 1_455
Ag3 Te2 2.837403 1_555
Ag3 Te4 2.867034 1_556
Ag3 Te6 2.893861 1_546
Ag3 Te5 3.053860 1_555
Ag3 Tl8 3.287446 1_555
Ag3 Tl5 3.400130 1_545
Ag3 Tl10 3.535251 1_556
Ag3 Tl6 3.610916 1_655
Ag3 Tl3 3.668463 1_655
Te0 Tl1 3.292553 1_565
Te0 Tl0 3.294808 1_555
Te0 Tl11 3.361378 1_655
Te0 Tl5 3.376441 1_555
Te0 Tl8 3.469511 1_555
Te0 Tl3 3.558790 1_655
Te1 Tl11 3.292553 1_545
Te1 Tl4 3.294808 1_555
Te1 Tl1 3.361378 1_455
Te1 Tl10 3.376441 1_555
Te1 Tl9 3.469511 1_555
Te1 Tl7 3.558790 1_455
Te2 Tl0 3.292553 1_555
Te2 Tl1 3.294808 1_555
Te2 Tl4 3.361378 1_555
Te2 Tl3 3.376441 1_655
Te2 Tl6 3.469511 1_655
Te2 Tl5 3.558790 1_545
Te3 Tl4 3.292553 1_555
Te3 Tl11 3.294808 1_555
Te3 Tl0 3.361378 1_555
Te3 Tl7 3.376441 1_455
Te3 Tl2 3.469511 1_455
Te3 Tl10 3.558790 1_565
Te4 Tl3 3.271063 1_654
Te4 Tl8 3.307665 1_554
Te4 Tl9 3.416873 1_555
Te5 Tl10 3.271063 1_556
Te5 Tl2 3.307665 1_446
Te5 Tl6 3.416873 1_555
Te6 Tl5 3.271063 1_554
Te6 Tl6 3.307665 1_664
Te6 Tl2 3.416873 1_555
Te7 Tl7 3.271063 1_456
Te7 Tl9 3.307665 1_556
Te7 Tl8 3.416873 1_555
