# generated using pymatgen
data_Nd12Cu6O25
_symmetry_space_group_name_H-M   'P 1'
_cell_length_a   8.82276182
_cell_length_b   8.82276182
_cell_length_c   18.44607429
_cell_angle_alpha   69.76646427
_cell_angle_beta   69.76646427
_cell_angle_gamma   24.69786973
_symmetry_Int_Tables_number   1
_chemical_formula_structural   Nd12Cu6O25
_chemical_formula_sum   'Nd12 Cu6 O25'
_cell_volume   561.09304821
_cell_formula_units_Z   1
loop_
 _symmetry_equiv_pos_site_id
 _symmetry_equiv_pos_as_xyz
  1  'x, y, z'
loop_
 _atom_site_type_symbol
 _atom_site_label
 _atom_site_symmetry_multiplicity
 _atom_site_fract_x
 _atom_site_fract_y
 _atom_site_fract_z
 _atom_site_occupancy
  Nd  Nd0  1  0.83072300  0.83072300  0.42169900  1
  Nd  Nd1  1  0.55241300  0.55241300  0.07092200  1
  Nd  Nd2  1  0.03157200  0.03157200  0.26442000  1
  Nd  Nd3  1  0.34841800  0.34841800  0.23339800  1
  Nd  Nd4  1  0.14310800  0.14310800  0.39714000  1
  Nd  Nd5  1  0.76102900  0.76102900  0.90227400  1
  Nd  Nd6  1  0.65158200  0.65158200  0.76660200  1
  Nd  Nd7  1  0.85689200  0.85689200  0.60286000  1
  Nd  Nd8  1  0.96842800  0.96842800  0.73558000  1
  Nd  Nd9  1  0.44758700  0.44758700  0.92907800  1
  Nd  Nd10  1  0.23897100  0.23897100  0.09772600  1
  Nd  Nd11  1  0.16927700  0.16927700  0.57830100  1
  Cu  Cu0  1  0.10394900  0.10394900  0.91915100  1
  Cu  Cu1  1  0.89605100  0.89605100  0.08084900  1
  Cu  Cu2  1  0.48376800  0.48376800  0.42600400  1
  Cu  Cu3  1  0.31053500  0.31053500  0.75195800  1
  Cu  Cu4  1  0.68946500  0.68946500  0.24804200  1
  Cu  Cu5  1  0.51623200  0.51623200  0.57399600  1
  O  O0  1  0.81204000  0.81204000  0.75263700  1
  O  O1  1  0.18796000  0.18796000  0.24736300  1
  O  O2  1  0.57062600  0.57062600  0.69019500  1
  O  O3  1  0.77758500  0.77758500  0.31370300  1
  O  O4  1  0.39645900  0.39645900  0.08202600  1
  O  O5  1  0.24986300  0.24986300  0.44289300  1
  O  O6  1  0.83079100  0.83079100  0.98905000  1
  O  O7  1  0.21061500  0.21061500  0.84254900  1
  O  O8  1  0.22241500  0.22241500  0.68629700  1
  O  O9  1  0.01824600  0.01824600  0.58919200  1
  O  O10  1  0.62308100  0.62308100  0.15876300  1
  O  O11  1  0.42937400  0.42937400  0.30980500  1
  O  O12  1  0.41414900  0.41414900  0.66354000  1
  O  O13  1  0.58585100  0.58585100  0.33646000  1
  O  O14  1  0.02814500  0.02814500  0.83411500  1
  O  O15  1  0.78938500  0.78938500  0.15745100  1
  O  O16  1  0.75013700  0.75013700  0.55710700  1
  O  O17  1  0.38550600  0.38550600  0.51365200  1
  O  O18  1  0.00000000  0.00000000  0.00000000  1
  O  O19  1  0.60354100  0.60354100  0.91797400  1
  O  O20  1  0.97185500  0.97185500  0.16588500  1
  O  O21  1  0.37691900  0.37691900  0.84123700  1
  O  O22  1  0.61449400  0.61449400  0.48634800  1
  O  O23  1  0.98175400  0.98175400  0.41080800  1
  O  O24  1  0.16920900  0.16920900  0.01095000  1
loop_
_geom_bond_atom_site_label_1
_geom_bond_atom_site_label_2
_geom_bond_distance
_geom_bond_site_symmetry_2
Nd0 O5 2.295650 1_565
Nd0 O5 2.295650 1_655
Nd0 O16 2.389886 1_555
Nd0 O3 2.469707 1_555
Nd0 O23 2.539197 1_555
Nd0 O11 2.868246 1_565
Nd0 O11 2.868246 1_655
Nd0 O17 2.909151 1_655
Nd0 O17 2.909151 1_565
Nd1 O10 2.346665 1_555
Nd1 O20 2.614311 1_455
Nd1 O20 2.614311 1_545
Nd1 O4 2.622709 1_555
Nd1 O18 2.631523 1_655
Nd1 O18 2.631523 1_565
Nd1 O19 2.641174 1_554
Nd1 O24 2.694485 1_565
Nd1 O24 2.694485 1_655
Nd2 O20 2.384945 1_445
Nd2 O11 2.514000 1_455
Nd2 O11 2.514000 1_545
Nd2 O23 2.527261 1_445
Nd2 O1 2.601007 1_555
Nd2 O13 2.661186 1_545
Nd2 O13 2.661186 1_455
Nd2 O10 2.769483 1_545
Nd2 O10 2.769483 1_455
Nd3 O11 2.307893 1_555
Nd3 O3 2.442274 1_545
Nd3 O3 2.442274 1_455
Nd3 O4 2.616294 1_555
Nd3 O1 2.685485 1_555
Nd3 O15 2.750951 1_545
Nd3 O15 2.750951 1_455
Nd3 O20 2.786064 1_545
Nd3 O20 2.786064 1_455
Nd4 O5 2.279944 1_555
Nd4 O22 2.436531 1_545
Nd4 O22 2.436531 1_455
Nd4 O13 2.563095 1_545
Nd4 O13 2.563095 1_455
Nd4 O1 2.591974 1_555
Nd4 O23 2.702347 1_445
Nd4 O3 2.962454 1_545
Nd4 O3 2.962454 1_455
Nd5 O6 2.317566 1_555
Nd5 O7 2.491402 1_655
Nd5 O7 2.491402 1_565
Nd5 O0 2.583295 1_555
Nd5 O19 2.626136 1_555
Nd5 O21 2.688105 1_655
Nd5 O21 2.688105 1_565
Nd5 O24 2.799525 1_566
Nd5 O24 2.799525 1_656
Nd6 O2 2.307893 1_555
Nd6 O8 2.442274 1_565
Nd6 O8 2.442274 1_655
Nd6 O19 2.616294 1_555
Nd6 O0 2.685485 1_555
Nd6 O7 2.750951 1_655
Nd6 O7 2.750951 1_565
Nd6 O14 2.786064 1_655
Nd6 O14 2.786064 1_565
Nd7 O16 2.279944 1_555
Nd7 O17 2.436531 1_565
Nd7 O17 2.436531 1_655
Nd7 O12 2.563095 1_655
Nd7 O12 2.563095 1_565
Nd7 O0 2.591974 1_555
Nd7 O9 2.702347 1_665
Nd7 O8 2.962454 1_655
Nd7 O8 2.962454 1_565
Nd8 O14 2.384945 1_665
Nd8 O2 2.514000 1_655
Nd8 O2 2.514000 1_565
Nd8 O9 2.527261 1_665
Nd8 O0 2.601007 1_555
Nd8 O12 2.661186 1_565
Nd8 O12 2.661186 1_655
Nd8 O21 2.769483 1_565
Nd8 O21 2.769483 1_655
Nd9 O21 2.346665 1_555
Nd9 O14 2.614311 1_565
Nd9 O14 2.614311 1_655
Nd9 O19 2.622709 1_555
Nd9 O18 2.631523 1_656
Nd9 O18 2.631523 1_566
Nd9 O4 2.641174 1_556
Nd9 O6 2.694485 1_545
Nd9 O6 2.694485 1_455
Nd10 O24 2.317566 1_555
Nd10 O15 2.491402 1_455
Nd10 O15 2.491402 1_545
Nd10 O1 2.583295 1_555
Nd10 O4 2.626136 1_555
Nd10 O10 2.688105 1_545
Nd10 O10 2.688105 1_455
Nd10 O6 2.799525 1_544
Nd10 O6 2.799525 1_454
Nd11 O16 2.295650 1_545
Nd11 O16 2.295650 1_455
Nd11 O5 2.389886 1_555
Nd11 O8 2.469707 1_555
Nd11 O9 2.539197 1_555
Nd11 O2 2.868246 1_545
Nd11 O2 2.868246 1_455
Nd11 O22 2.909151 1_455
Nd11 O22 2.909151 1_545
Cu0 O7 1.880841 1_555
Cu0 O18 1.882161 1_556
Cu0 O19 1.887045 1_455
Cu0 O19 1.887045 1_545
Cu0 O24 2.341271 1_556
Cu0 O14 2.370455 1_555
Cu1 O15 1.880841 1_555
Cu1 O18 1.882161 1_665
Cu1 O4 1.887045 1_565
Cu1 O4 1.887045 1_655
Cu1 O6 2.341271 1_554
Cu1 O20 2.370455 1_555
Cu2 O17 1.882486 1_555
Cu2 O23 1.909706 1_545
Cu2 O23 1.909706 1_455
Cu2 O13 1.940759 1_555
Cu2 O11 2.626087 1_555
Cu3 O0 1.887159 1_545
Cu3 O0 1.887159 1_455
Cu3 O7 1.928976 1_555
Cu3 O12 1.946107 1_555
Cu3 O8 2.253187 1_555
Cu3 O21 2.314264 1_555
Cu4 O1 1.887159 1_655
Cu4 O1 1.887159 1_565
Cu4 O15 1.928976 1_555
Cu4 O13 1.946107 1_555
Cu4 O3 2.253187 1_555
Cu4 O10 2.314264 1_555
Cu5 O22 1.882486 1_555
Cu5 O9 1.909706 1_565
Cu5 O9 1.909706 1_655
Cu5 O12 1.940759 1_555
Cu5 O2 2.626087 1_555
