# generated using pymatgen
data_Ca3Zr17O37
_symmetry_space_group_name_H-M   'P 1'
_cell_length_a   3.64856036
_cell_length_b   3.64848086
_cell_length_c   73.82089985
_cell_angle_alpha   60.37868298
_cell_angle_beta   60.37836996
_cell_angle_gamma   59.99788725
_symmetry_Int_Tables_number   1
_chemical_formula_structural   Ca3Zr17O37
_chemical_formula_sum   'Ca3 Zr17 O37'
_cell_volume   698.79882292
_cell_formula_units_Z   1
loop_
 _symmetry_equiv_pos_site_id
 _symmetry_equiv_pos_as_xyz
  1  'x, y, z'
loop_
 _atom_site_type_symbol
 _atom_site_label
 _atom_site_symmetry_multiplicity
 _atom_site_fract_x
 _atom_site_fract_y
 _atom_site_fract_z
 _atom_site_occupancy
  Ca  Ca0  1  0.00863000  0.00864500  0.04870700  1
  Ca  Ca1  1  0.01268500  0.01267900  0.09809900  1
  Ca  Ca2  1  0.02723400  0.02716800  0.94592100  1
  Zr  Zr0  1  0.00184100  0.00147200  0.99974800  1
  Zr  Zr1  1  0.97884300  0.97870200  0.15318400  1
  Zr  Zr2  1  0.98515600  0.98530800  0.20221600  1
  Zr  Zr3  1  0.98743500  0.98746600  0.25188200  1
  Zr  Zr4  1  0.98849500  0.98850400  0.30172400  1
  Zr  Zr5  1  0.98855000  0.98856400  0.35171600  1
  Zr  Zr6  1  0.98884500  0.98886100  0.40167200  1
  Zr  Zr7  1  0.98922200  0.98925400  0.45161300  1
  Zr  Zr8  1  0.98963500  0.98968200  0.50155000  1
  Zr  Zr9  1  0.98988800  0.98989800  0.55151500  1
  Zr  Zr10  1  0.99020000  0.99017900  0.60147100  1
  Zr  Zr11  1  0.99008800  0.99006600  0.65148900  1
  Zr  Zr12  1  0.99041800  0.99041500  0.70143700  1
  Zr  Zr13  1  0.99101800  0.99101800  0.75134700  1
  Zr  Zr14  1  0.99365300  0.99361700  0.80095400  1
  Zr  Zr15  1  0.99887400  0.99877400  0.85017700  1
  Zr  Zr16  1  0.00157600  0.00152100  0.89976800  1
  O  O0  1  0.74893400  0.74893500  0.03766400  1
  O  O1  1  0.75715000  0.75714900  0.08643000  1
  O  O2  1  0.25079300  0.25076100  0.16238300  1
  O  O3  1  0.25417300  0.25422100  0.21187000  1
  O  O4  1  0.76023700  0.76033700  0.13596000  1
  O  O5  1  0.25347200  0.25347900  0.26197800  1
  O  O6  1  0.75060400  0.75046200  0.18742100  1
  O  O7  1  0.75183700  0.75183800  0.23722500  1
  O  O8  1  0.25397400  0.25398200  0.31190300  1
  O  O9  1  0.25416200  0.25416700  0.36187500  1
  O  O10  1  0.75271700  0.75273100  0.28709100  1
  O  O11  1  0.75356200  0.75357200  0.33696500  1
  O  O12  1  0.25448900  0.25450200  0.41182500  1
  O  O13  1  0.75417500  0.75418500  0.38687300  1
  O  O14  1  0.25463400  0.25467800  0.46179900  1
  O  O15  1  0.25501300  0.25507300  0.51174100  1
  O  O16  1  0.75435400  0.75439100  0.43684300  1
  O  O17  1  0.75460300  0.75468100  0.48680200  1
  O  O18  1  0.25513300  0.25514600  0.56172700  1
  O  O19  1  0.75481300  0.75484300  0.53677400  1
  O  O20  1  0.25552000  0.25548900  0.61167300  1
  O  O21  1  0.75514800  0.75513800  0.58672800  1
  O  O22  1  0.25523900  0.25519900  0.66171600  1
  O  O23  1  0.75508600  0.75504300  0.63674000  1
  O  O24  1  0.25585300  0.25584000  0.71162200  1
  O  O25  1  0.25674000  0.25674300  0.76148800  1
  O  O26  1  0.75522800  0.75520600  0.68671700  1
  O  O27  1  0.75556800  0.75557800  0.73666400  1
  O  O28  1  0.26006200  0.26002100  0.81099300  1
  O  O29  1  0.75691200  0.75689900  0.78646400  1
  O  O30  1  0.26899400  0.26890700  0.85965700  1
  O  O31  1  0.28649400  0.28644000  0.90702900  1
  O  O32  1  0.76165100  0.76157200  0.83575900  1
  O  O33  1  0.20738400  0.20745700  0.96888700  1
  O  O34  1  0.76963200  0.76958200  0.88455700  1
  O  O35  1  0.77696300  0.77688800  0.93346400  1
  O  O36  1  0.64641000  0.64706900  0.00300200  1
loop_
_geom_bond_atom_site_label_1
_geom_bond_atom_site_label_2
_geom_bond_distance
_geom_bond_site_symmetry_2
Ca0 O0 2.210216 1_455
Ca0 O0 2.210253 1_445
Ca0 O0 2.210300 1_545
Ca0 O1 2.286669 1_445
Ca1 O1 2.222023 1_455
Ca1 O1 2.222049 1_545
Ca1 O1 2.222057 1_445
Ca1 O4 2.295035 1_445
Ca2 O35 2.237676 1_455
Ca2 O35 2.237700 1_445
Ca2 O35 2.237744 1_545
Ca2 O31 2.357531 1_555
Ca2 O33 2.524699 1_545
Ca2 O33 2.524942 1_555
Ca2 O33 2.525101 1_455
O0 Zr0 2.298369 1_664
O2 Zr1 2.178799 1_455
O2 Zr1 2.179052 1_445
O2 Zr1 2.179175 1_545
O2 Zr2 2.414572 1_445
O3 Zr2 2.186089 1_545
O3 Zr2 2.186236 1_445
O3 Zr2 2.186363 1_455
O3 Zr3 2.425423 1_445
O4 Zr1 2.350713 1_455
O4 Zr1 2.350950 1_555
O4 Zr1 2.351356 1_545
O5 Zr3 2.193514 1_545
O5 Zr3 2.193544 1_455
O5 Zr3 2.193601 1_445
O5 Zr4 2.409298 1_445
O6 Zr1 2.075357 1_555
O6 Zr2 2.288946 1_545
O6 Zr2 2.289478 1_555
O6 Zr2 2.289841 1_455
O7 Zr2 2.122154 1_555
O7 Zr3 2.286083 1_545
O7 Zr3 2.286179 1_555
O7 Zr3 2.286211 1_455
O8 Zr4 2.194898 1_455
O8 Zr4 2.194937 1_545
O8 Zr4 2.195051 1_445
O8 Zr5 2.413360 1_445
O9 Zr5 2.194583 1_455
O9 Zr5 2.194598 1_545
O9 Zr5 2.194684 1_445
O9 Zr6 2.412390 1_445
O10 Zr3 2.134277 1_555
O10 Zr4 2.285562 1_545
O10 Zr4 2.285588 1_455
O10 Zr4 2.285628 1_555
O11 Zr4 2.136217 1_555
O11 Zr5 2.288331 1_545
O11 Zr5 2.288383 1_455
O11 Zr5 2.288420 1_555
O12 Zr6 2.194487 1_455
O12 Zr6 2.194520 1_545
O12 Zr6 2.194552 1_445
O12 Zr7 2.411844 1_445
O13 Zr5 2.131125 1_555
O13 Zr6 2.289458 1_545
O13 Zr6 2.289516 1_455
O13 Zr6 2.289576 1_555
O14 Zr7 2.195039 1_455
O14 Zr7 2.195087 1_445
O14 Zr7 2.195118 1_545
O14 Zr8 2.409602 1_445
O15 Zr8 2.195124 1_455
O15 Zr8 2.195171 1_445
O15 Zr8 2.195206 1_545
O15 Zr9 2.410996 1_445
O16 Zr6 2.131974 1_555
O16 Zr7 2.288788 1_545
O16 Zr7 2.288814 1_455
O16 Zr7 2.288883 1_555
O17 Zr7 2.133065 1_555
O17 Zr8 2.288242 1_455
O17 Zr8 2.288292 1_545
O17 Zr8 2.288387 1_555
O18 Zr9 2.195491 1_455
O18 Zr9 2.195542 1_445
O18 Zr9 2.195543 1_545
O18 Zr10 2.409177 1_445
O19 Zr8 2.135187 1_555
O19 Zr9 2.288087 1_455
O19 Zr9 2.288105 1_545
O19 Zr9 2.288232 1_555
O20 Zr10 2.195335 1_455
O20 Zr10 2.195347 1_545
O20 Zr10 2.195382 1_445
O20 Zr11 2.413542 1_445
O21 Zr9 2.134520 1_555
O21 Zr10 2.288154 1_545
O21 Zr10 2.288162 1_455
O21 Zr10 2.288249 1_555
O22 Zr11 2.195771 1_445
O22 Zr11 2.195781 1_545
O22 Zr11 2.195793 1_455
O22 Zr12 2.407783 1_445
O23 Zr10 2.137914 1_555
O23 Zr11 2.288232 1_545
O23 Zr11 2.288334 1_455
O23 Zr11 2.288426 1_555
O24 Zr12 2.195039 1_455
O24 Zr12 2.195052 1_545
O24 Zr12 2.195102 1_445
O24 Zr13 2.408025 1_445
O25 Zr13 2.194271 1_455
O25 Zr13 2.194322 1_545
O25 Zr13 2.194354 1_445
O25 Zr14 2.392326 1_445
O26 Zr11 2.135429 1_555
O26 Zr12 2.287567 1_545
O26 Zr12 2.287663 1_455
O26 Zr12 2.287703 1_555
O27 Zr12 2.135368 1_555
O27 Zr13 2.286739 1_545
O27 Zr13 2.286750 1_455
O27 Zr13 2.286823 1_555
O28 Zr14 2.192550 1_455
O28 Zr14 2.192577 1_545
O28 Zr14 2.192648 1_445
O28 Zr15 2.375231 1_445
O29 Zr13 2.128701 1_555
O29 Zr14 2.282210 1_455
O29 Zr14 2.282236 1_545
O29 Zr14 2.282282 1_555
O30 Zr15 2.183381 1_455
O30 Zr15 2.183445 1_445
O30 Zr15 2.183463 1_545
O30 Zr16 2.431424 1_555
O31 Zr16 2.151919 1_565
O31 Zr16 2.151949 1_555
O31 Zr16 2.151966 1_655
O32 Zr14 2.109788 1_555
O32 Zr15 2.280528 1_455
O32 Zr15 2.280549 1_545
O32 Zr15 2.280623 1_555
O33 Zr0 1.870713 1_555
O34 Zr15 2.084026 1_555
O34 Zr16 2.299330 1_655
O34 Zr16 2.299356 1_565
O34 Zr16 2.299565 1_665
O35 Zr16 2.042563 1_665
O36 Zr0 2.114399 1_564
O36 Zr0 2.115018 1_664
O36 Zr0 2.117586 1_654
