# generated using pymatgen
data_BaCa2(PN2)6
_symmetry_space_group_name_H-M   'P 1'
_cell_length_a   10.01648600
_cell_length_b   10.01648600
_cell_length_c   10.01648600
_cell_angle_alpha   90.00000000
_cell_angle_beta   90.00000000
_cell_angle_gamma   90.00000000
_symmetry_Int_Tables_number   1
_chemical_formula_structural   BaCa2(PN2)6
_chemical_formula_sum   'Ba4 Ca8 P24 N48'
_cell_volume   1004.95395813
_cell_formula_units_Z   4
loop_
 _symmetry_equiv_pos_site_id
 _symmetry_equiv_pos_as_xyz
  1  'x, y, z'
loop_
 _atom_site_type_symbol
 _atom_site_label
 _atom_site_symmetry_multiplicity
 _atom_site_fract_x
 _atom_site_fract_y
 _atom_site_fract_z
 _atom_site_occupancy
  Ba  Ba0  1  0.00000000  0.50000000  0.50000000  1
  Ba  Ba1  1  0.50000000  0.50000000  0.00000000  1
  Ba  Ba2  1  0.50000000  0.00000000  0.50000000  1
  Ba  Ba3  1  0.00000000  0.00000000  0.00000000  1
  Ca  Ca0  1  0.37509100  0.12490900  0.87509100  1
  Ca  Ca1  1  0.12490900  0.87509100  0.37509100  1
  Ca  Ca2  1  0.87509100  0.37509100  0.12490900  1
  Ca  Ca3  1  0.62490900  0.62490900  0.62490900  1
  Ca  Ca4  1  0.62490900  0.87509100  0.12490900  1
  Ca  Ca5  1  0.87509100  0.12490900  0.62490900  1
  Ca  Ca6  1  0.12490900  0.62490900  0.87509100  1
  Ca  Ca7  1  0.37509100  0.37509100  0.37509100  1
  P  P0  1  0.68988800  0.34671800  0.38046300  1
  P  P1  1  0.18988800  0.15328200  0.61953700  1
  P  P2  1  0.31011200  0.84671800  0.11953700  1
  P  P3  1  0.15328200  0.61953700  0.18988800  1
  P  P4  1  0.11953700  0.31011200  0.84671800  1
  P  P5  1  0.61953700  0.18988800  0.15328200  1
  P  P6  1  0.34671800  0.38046300  0.68988800  1
  P  P7  1  0.38046300  0.68988800  0.34671800  1
  P  P8  1  0.84671800  0.11953700  0.31011200  1
  P  P9  1  0.65328200  0.88046300  0.81011200  1
  P  P10  1  0.88046300  0.81011200  0.65328200  1
  P  P11  1  0.81011200  0.65328200  0.88046300  1
  P  P12  1  0.31011200  0.65328200  0.61953700  1
  P  P13  1  0.81011200  0.84671800  0.38046300  1
  P  P14  1  0.68988800  0.15328200  0.88046300  1
  P  P15  1  0.84671800  0.38046300  0.81011200  1
  P  P16  1  0.88046300  0.68988800  0.15328200  1
  P  P17  1  0.38046300  0.81011200  0.84671800  1
  P  P18  1  0.65328200  0.61953700  0.31011200  1
  P  P19  1  0.61953700  0.31011200  0.65328200  1
  P  P20  1  0.15328200  0.88046300  0.68988800  1
  P  P21  1  0.34671800  0.11953700  0.18988800  1
  P  P22  1  0.11953700  0.18988800  0.34671800  1
  P  P23  1  0.18988800  0.34671800  0.11953700  1
  N  N0  1  0.71513400  0.50696900  0.41147100  1
  N  N1  1  0.21513400  0.99303100  0.58852900  1
  N  N2  1  0.28486600  0.00696900  0.08852900  1
  N  N3  1  0.99303100  0.58852900  0.21513400  1
  N  N4  1  0.08852900  0.28486600  0.00696900  1
  N  N5  1  0.58852900  0.21513400  0.99303100  1
  N  N6  1  0.50696900  0.41147100  0.71513400  1
  N  N7  1  0.41147100  0.71513400  0.50696900  1
  N  N8  1  0.00696900  0.08852900  0.28486600  1
  N  N9  1  0.49303100  0.91147100  0.78486600  1
  N  N10  1  0.91147100  0.78486600  0.49303100  1
  N  N11  1  0.78486600  0.49303100  0.91147100  1
  N  N12  1  0.28486600  0.49303100  0.58852900  1
  N  N13  1  0.78486600  0.00696900  0.41147100  1
  N  N14  1  0.71513400  0.99303100  0.91147100  1
  N  N15  1  0.00696900  0.41147100  0.78486600  1
  N  N16  1  0.91147100  0.71513400  0.99303100  1
  N  N17  1  0.41147100  0.78486600  0.00696900  1
  N  N18  1  0.49303100  0.58852900  0.28486600  1
  N  N19  1  0.58852900  0.28486600  0.49303100  1
  N  N20  1  0.16548000  0.73105600  0.62109700  1
  N  N21  1  0.99303100  0.91147100  0.71513400  1
  N  N22  1  0.08852900  0.21513400  0.50696900  1
  N  N23  1  0.21513400  0.50696900  0.08852900  1
  N  N24  1  0.83452000  0.26894400  0.37890300  1
  N  N25  1  0.33452000  0.23105600  0.62109700  1
  N  N26  1  0.16548000  0.76894400  0.12109700  1
  N  N27  1  0.23105600  0.62109700  0.33452000  1
  N  N28  1  0.12109700  0.16548000  0.76894400  1
  N  N29  1  0.62109700  0.33452000  0.23105600  1
  N  N30  1  0.26894400  0.37890300  0.83452000  1
  N  N31  1  0.37890300  0.83452000  0.26894400  1
  N  N32  1  0.76894400  0.12109700  0.16548000  1
  N  N33  1  0.73105600  0.87890300  0.66548000  1
  N  N34  1  0.87890300  0.66548000  0.73105600  1
  N  N35  1  0.66548000  0.73105600  0.87890300  1
  N  N36  1  0.33452000  0.26894400  0.12109700  1
  N  N37  1  0.12109700  0.33452000  0.26894400  1
  N  N38  1  0.26894400  0.12109700  0.33452000  1
  N  N39  1  0.23105600  0.87890300  0.83452000  1
  N  N40  1  0.62109700  0.16548000  0.73105600  1
  N  N41  1  0.73105600  0.62109700  0.16548000  1
  N  N42  1  0.37890300  0.66548000  0.76894400  1
  N  N43  1  0.87890300  0.83452000  0.23105600  1
  N  N44  1  0.76894400  0.37890300  0.66548000  1
  N  N45  1  0.83452000  0.23105600  0.87890300  1
  N  N46  1  0.66548000  0.76894400  0.37890300  1
  N  N47  1  0.50696900  0.08852900  0.21513400  1
loop_
_geom_bond_atom_site_label_1
_geom_bond_atom_site_label_2
_geom_bond_distance
_geom_bond_site_symmetry_2
Ba0 N10 2.988786 1_455
Ba0 N0 2.988786 1_455
Ba0 N15 2.988786 1_555
Ba0 N12 2.988786 1_555
Ba0 N22 2.988786 1_555
Ba0 N3 2.988786 1_455
Ba0 N24 3.094348 1_455
Ba0 N37 3.094348 1_555
Ba0 N20 3.094348 1_555
Ba0 N34 3.094348 1_455
Ba0 N27 3.094348 1_555
Ba0 N44 3.094348 1_455
Ba1 N17 2.988786 1_555
Ba1 N11 2.988786 1_554
Ba1 N6 2.988786 1_554
Ba1 N23 2.988786 1_555
Ba1 N5 2.988786 1_554
Ba1 N18 2.988786 1_555
Ba1 N30 3.094348 1_554
Ba1 N36 3.094348 1_555
Ba1 N41 3.094348 1_555
Ba1 N29 3.094348 1_555
Ba1 N42 3.094348 1_554
Ba1 N35 3.094348 1_554
Ba2 N13 2.988786 1_555
Ba2 N9 2.988786 1_545
Ba2 N7 2.988786 1_545
Ba2 N1 2.988786 1_545
Ba2 N19 2.988786 1_555
Ba2 N47 2.988786 1_555
Ba2 N31 3.094348 1_545
Ba2 N38 3.094348 1_555
Ba2 N46 3.094348 1_545
Ba2 N40 3.094348 1_555
Ba2 N25 3.094348 1_555
Ba2 N33 3.094348 1_545
Ba3 N16 2.988786 1_444
Ba3 N21 2.988786 1_444
Ba3 N14 2.988786 1_444
Ba3 N2 2.988786 1_555
Ba3 N4 2.988786 1_555
Ba3 N8 2.988786 1_555
Ba3 N26 3.094348 1_545
Ba3 N43 3.094348 1_445
Ba3 N45 3.094348 1_454
Ba3 N32 3.094348 1_455
Ba3 N28 3.094348 1_554
Ba3 N39 3.094348 1_544
Ca0 N5 2.604405 1_555
Ca0 N9 2.604405 1_545
Ca0 N2 2.604405 1_556
Ca0 N28 2.787143 1_555
Ca0 N25 2.787143 1_555
Ca0 N30 2.787143 1_555
Ca0 N40 2.884175 1_555
Ca0 N39 2.884175 1_545
Ca0 N36 2.884175 1_556
Ca1 N10 2.604405 1_455
Ca1 N1 2.604405 1_555
Ca1 N8 2.604405 1_565
Ca1 N27 2.787143 1_555
Ca1 N31 2.787143 1_555
Ca1 N26 2.787143 1_555
Ca1 N20 2.884175 1_555
Ca1 N43 2.884175 1_455
Ca1 N38 2.884175 1_565
Ca2 N11 2.604405 1_554
Ca2 N3 2.604405 1_555
Ca2 N4 2.604405 1_655
Ca2 N24 2.787143 1_555
Ca2 N29 2.787143 1_555
Ca2 N32 2.787143 1_555
Ca2 N41 2.884175 1_555
Ca2 N45 2.884175 1_554
Ca2 N37 2.884175 1_655
Ca3 N0 2.604405 1_555
Ca3 N6 2.604405 1_555
Ca3 N7 2.604405 1_555
Ca3 N35 2.787143 1_555
Ca3 N33 2.787143 1_555
Ca3 N34 2.787143 1_555
Ca3 N46 2.884175 1_555
Ca3 N44 2.884175 1_555
Ca3 N42 2.884175 1_555
Ca4 N14 2.604405 1_554
Ca4 N17 2.604405 1_555
Ca4 N47 2.604405 1_565
Ca4 N43 2.787143 1_555
Ca4 N46 2.787143 1_555
Ca4 N41 2.787143 1_555
Ca4 N35 2.884175 1_554
Ca4 N32 2.884175 1_565
Ca4 N31 2.884175 1_555
Ca5 N21 2.604405 1_545
Ca5 N22 2.604405 1_655
Ca5 N13 2.604405 1_555
Ca5 N45 2.787143 1_555
Ca5 N44 2.787143 1_555
Ca5 N40 2.787143 1_555
Ca5 N33 2.884175 1_545
Ca5 N28 2.884175 1_655
Ca5 N24 2.884175 1_555
Ca6 N16 2.604405 1_455
Ca6 N15 2.604405 1_555
Ca6 N23 2.604405 1_556
Ca6 N39 2.787143 1_555
Ca6 N42 2.787143 1_555
Ca6 N20 2.787143 1_555
Ca6 N34 2.884175 1_455
Ca6 N26 2.884175 1_556
Ca6 N30 2.884175 1_555
Ca7 N18 2.604405 1_555
Ca7 N12 2.604405 1_555
Ca7 N19 2.604405 1_555
Ca7 N37 2.787143 1_555
Ca7 N38 2.787143 1_555
Ca7 N36 2.787143 1_555
Ca7 N27 2.884175 1_555
Ca7 N29 2.884175 1_555
Ca7 N25 2.884175 1_555
N0 P18 1.638878 1_555
N0 P0 1.654366 1_555
N1 P20 1.638878 1_555
N1 P1 1.654366 1_565
N2 P21 1.638878 1_555
N2 P2 1.654366 1_545
N3 P16 1.638878 1_555
N3 P3 1.654366 1_655
N4 P23 1.638878 1_555
N4 P4 1.654366 1_554
N5 P14 1.638878 1_555
N5 P5 1.654366 1_556
N6 P19 1.638878 1_555
N6 P6 1.654366 1_555
N7 P12 1.638878 1_555
N7 P7 1.654366 1_555
N8 P22 1.638878 1_555
N8 P8 1.654366 1_455
N9 P17 1.638878 1_555
N9 P9 1.654366 1_555
N10 P13 1.638878 1_555
N10 P10 1.654366 1_555
N11 P15 1.638878 1_555
N11 P11 1.654366 1_555
N12 P6 1.638878 1_555
N12 P12 1.654366 1_555
N13 P8 1.638878 1_555
N13 P13 1.654366 1_545
N14 P9 1.638878 1_555
N14 P14 1.654366 1_565
N15 P4 1.638878 1_555
N15 P15 1.654366 1_455
N16 P11 1.638878 1_555
N16 P16 1.654366 1_556
N17 P2 1.638878 1_555
N17 P17 1.654366 1_554
N18 P7 1.638878 1_555
N18 P18 1.654366 1_555
N19 P0 1.638878 1_555
N19 P19 1.654366 1_555
N20 P12 1.644951 1_555
N20 P20 1.652066 1_555
N21 P10 1.638878 1_555
N21 P20 1.654366 1_655
N22 P1 1.638878 1_555
N22 P22 1.654366 1_555
N23 P3 1.638878 1_555
N23 P23 1.654366 1_555
N24 P0 1.644951 1_555
N24 P8 1.652066 1_555
N25 P1 1.644951 1_555
N25 P6 1.652066 1_555
N26 P2 1.644951 1_555
N26 P3 1.652066 1_555
N27 P3 1.644951 1_555
N27 P7 1.652066 1_555
N28 P4 1.644951 1_555
N28 P1 1.652066 1_555
N29 P5 1.644951 1_555
N29 P0 1.652066 1_555
N30 P6 1.644951 1_555
N30 P4 1.652066 1_555
N31 P7 1.644951 1_555
N31 P2 1.652066 1_555
N32 P8 1.644951 1_555
N32 P5 1.652066 1_555
N33 P9 1.644951 1_555
N33 P10 1.652066 1_555
N34 P10 1.644951 1_555
N34 P11 1.652066 1_555
N35 P11 1.644951 1_555
N35 P9 1.652066 1_555
N36 P23 1.644951 1_555
N36 P21 1.652066 1_555
N37 P22 1.644951 1_555
N37 P23 1.652066 1_555
N38 P21 1.644951 1_555
N38 P22 1.652066 1_555
N39 P20 1.644951 1_555
N39 P17 1.652066 1_555
N40 P19 1.644951 1_555
N40 P14 1.652066 1_555
N41 P18 1.644951 1_555
N41 P16 1.652066 1_555
N42 P17 1.644951 1_555
N42 P12 1.652066 1_555
N43 P16 1.644951 1_555
N43 P13 1.652066 1_555
N44 P15 1.644951 1_555
N44 P19 1.652066 1_555
N45 P14 1.644951 1_555
N45 P15 1.652066 1_555
N46 P13 1.644951 1_555
N46 P18 1.652066 1_555
N47 P5 1.638878 1_555
N47 P21 1.654366 1_555
