# generated using pymatgen
data_Sr2TlCuO5
_symmetry_space_group_name_H-M   'P 1'
_cell_length_a   3.74078100
_cell_length_b   3.74078100
_cell_length_c   9.12004200
_cell_angle_alpha   90.00000000
_cell_angle_beta   90.00000000
_cell_angle_gamma   90.00000000
_symmetry_Int_Tables_number   1
_chemical_formula_structural   Sr2TlCuO5
_chemical_formula_sum   'Sr2 Tl1 Cu1 O5'
_cell_volume   127.62078323
_cell_formula_units_Z   1
loop_
 _symmetry_equiv_pos_site_id
 _symmetry_equiv_pos_as_xyz
  1  'x, y, z'
loop_
 _atom_site_type_symbol
 _atom_site_label
 _atom_site_symmetry_multiplicity
 _atom_site_fract_x
 _atom_site_fract_y
 _atom_site_fract_z
 _atom_site_occupancy
  Sr  Sr0  1  0.50000000  0.50000000  0.28608500  1
  Sr  Sr1  1  0.50000000  0.50000000  0.71391500  1
  Tl  Tl0  1  0.00000000  0.00000000  0.00000000  1
  Cu  Cu0  1  0.00000000  0.00000000  0.50000000  1
  O  O0  1  0.00000000  0.00000000  0.23118500  1
  O  O1  1  0.00000000  0.00000000  0.76881500  1
  O  O2  1  0.00000000  0.50000000  0.50000000  1
  O  O3  1  0.50000000  0.50000000  0.00000000  1
  O  O4  1  0.50000000  0.00000000  0.50000000  1
loop_
_geom_bond_atom_site_label_1
_geom_bond_atom_site_label_2
_geom_bond_distance
_geom_bond_site_symmetry_2
Cu0 O2 1.870391 1_545
Cu0 O2 1.870391 1_555
Cu0 O4 1.870391 1_455
Cu0 O4 1.870391 1_555
Cu0 O0 2.451604 1_555
Cu0 O1 2.451604 1_555
O0 Tl0 2.108417 1_555
O0 Sr0 2.692102 1_455
O0 Sr0 2.692102 1_555
O0 Sr0 2.692102 1_445
O0 Sr0 2.692102 1_545
O1 Tl0 2.108417 1_556
O1 Sr1 2.692102 1_445
O1 Sr1 2.692102 1_545
O1 Sr1 2.692102 1_555
O1 Sr1 2.692102 1_455
O2 Sr1 2.702670 1_455
O2 Sr1 2.702670 1_555
O2 Sr0 2.702670 1_455
O2 Sr0 2.702670 1_555
O3 Sr0 2.609107 1_555
O3 Sr1 2.609107 1_554
O3 Tl0 2.645132 1_565
O3 Tl0 2.645132 1_665
O3 Tl0 2.645132 1_655
O3 Tl0 2.645132 1_555
O4 Sr1 2.702670 1_545
O4 Sr1 2.702670 1_555
O4 Sr0 2.702670 1_545
O4 Sr0 2.702670 1_555
