# generated using pymatgen
data_Yb2Ga10Ru3
_symmetry_space_group_name_H-M   'P 1'
_cell_length_a   8.94103500
_cell_length_b   8.94103500
_cell_length_c   6.37818800
_cell_angle_alpha   90.00000000
_cell_angle_beta   90.00000000
_cell_angle_gamma   90.00000000
_symmetry_Int_Tables_number   1
_chemical_formula_structural   Yb2Ga10Ru3
_chemical_formula_sum   'Yb4 Ga20 Ru6'
_cell_volume   509.88578674
_cell_formula_units_Z   2
loop_
 _symmetry_equiv_pos_site_id
 _symmetry_equiv_pos_as_xyz
  1  'x, y, z'
loop_
 _atom_site_type_symbol
 _atom_site_label
 _atom_site_symmetry_multiplicity
 _atom_site_fract_x
 _atom_site_fract_y
 _atom_site_fract_z
 _atom_site_occupancy
  Yb  Yb0  1  0.18355400  0.68355400  0.00000000  1
  Yb  Yb1  1  0.81644600  0.31644600  0.00000000  1
  Yb  Yb2  1  0.68355400  0.81644600  0.00000000  1
  Yb  Yb3  1  0.31644600  0.18355400  0.00000000  1
  Ga  Ga0  1  0.06072100  0.20652300  0.70808600  1
  Ga  Ga1  1  0.93927900  0.79347700  0.70808600  1
  Ga  Ga2  1  0.56072100  0.29347700  0.70808600  1
  Ga  Ga3  1  0.43927900  0.70652300  0.70808600  1
  Ga  Ga4  1  0.79347700  0.06072100  0.70808600  1
  Ga  Ga5  1  0.20652300  0.93927900  0.70808600  1
  Ga  Ga6  1  0.70652300  0.56072100  0.70808600  1
  Ga  Ga7  1  0.29347700  0.43927900  0.70808600  1
  Ga  Ga8  1  0.93927900  0.79347700  0.29191400  1
  Ga  Ga9  1  0.06072100  0.20652300  0.29191400  1
  Ga  Ga10  1  0.43927900  0.70652300  0.29191400  1
  Ga  Ga11  1  0.56072100  0.29347700  0.29191400  1
  Ga  Ga12  1  0.20652300  0.93927900  0.29191400  1
  Ga  Ga13  1  0.79347700  0.06072100  0.29191400  1
  Ga  Ga14  1  0.29347700  0.43927900  0.29191400  1
  Ga  Ga15  1  0.70652300  0.56072100  0.29191400  1
  Ga  Ga16  1  0.00000000  0.50000000  0.71520800  1
  Ga  Ga17  1  0.50000000  0.00000000  0.71520800  1
  Ga  Ga18  1  0.00000000  0.50000000  0.28479200  1
  Ga  Ga19  1  0.50000000  0.00000000  0.28479200  1
  Ru  Ru0  1  0.17931200  0.67931200  0.50000000  1
  Ru  Ru1  1  0.82068800  0.32068800  0.50000000  1
  Ru  Ru2  1  0.67931200  0.82068800  0.50000000  1
  Ru  Ru3  1  0.32068800  0.17931200  0.50000000  1
  Ru  Ru4  1  0.00000000  0.00000000  0.00000000  1
  Ru  Ru5  1  0.50000000  0.50000000  0.00000000  1
loop_
_geom_bond_atom_site_label_1
_geom_bond_atom_site_label_2
_geom_bond_distance
_geom_bond_site_symmetry_2
Ga0 Ga9 2.654423 1_555
Ga0 Ru4 2.677877 1_556
Ga0 Ga16 2.679949 1_555
Ga0 Ru3 2.687638 1_555
Ga0 Ga5 2.721919 1_545
Ga0 Ga4 2.721919 1_455
Ga0 Ru1 2.722014 1_455
Ga0 Ga7 2.943091 1_555
Ga0 Yb3 2.955777 1_556
Ga0 Yb1 3.033598 1_456
Ga1 Ga8 2.654423 1_555
Ga1 Ru4 2.677877 1_666
Ga1 Ga16 2.679949 1_655
Ga1 Ru2 2.687638 1_555
Ga1 Ga4 2.721919 1_565
Ga1 Ga5 2.721919 1_655
Ga1 Ru0 2.722014 1_655
Ga1 Ga6 2.943091 1_555
Ga1 Yb2 2.955777 1_556
Ga1 Yb0 3.033598 1_656
Ga2 Ru5 2.677877 1_556
Ga2 Ru1 2.687638 1_555
Ga2 Ga7 2.721919 1_555
Ga2 Ga6 2.721919 1_555
Ga2 Ru3 2.722014 1_555
Ga2 Ga4 2.943091 1_555
Ga2 Yb1 2.955777 1_556
Ga2 Yb3 3.033598 1_556
Ga3 Ru5 2.677877 1_556
Ga3 Ru0 2.687638 1_555
Ga3 Ga7 2.721919 1_555
Ga3 Ga6 2.721919 1_555
Ga3 Ru2 2.722014 1_555
Ga3 Ga5 2.943091 1_555
Ga3 Yb0 2.955777 1_556
Ga3 Yb2 3.033598 1_556
Ga4 Ru4 2.677877 1_656
Ga4 Ru1 2.687638 1_555
Ga4 Ru2 2.722014 1_545
Ga4 Yb1 2.955777 1_556
Ga4 Yb2 3.033598 1_546
Ga5 Ru4 2.677877 1_566
Ga5 Ru0 2.687638 1_555
Ga5 Ru3 2.722014 1_565
Ga5 Yb0 2.955777 1_556
Ga5 Yb3 3.033598 1_566
Ga6 Ru5 2.677877 1_556
Ga6 Ru2 2.687638 1_555
Ga6 Ru1 2.722014 1_555
Ga6 Yb2 2.955777 1_556
Ga6 Yb1 3.033598 1_556
Ga7 Ru5 2.677877 1_556
Ga7 Ru3 2.687638 1_555
Ga7 Ru0 2.722014 1_555
Ga7 Yb3 2.955777 1_556
Ga7 Yb0 3.033598 1_556
Ga8 Ru4 2.677877 1_665
Ga8 Ru2 2.687638 1_555
Ga8 Ru0 2.722014 1_655
Ga8 Yb2 2.955777 1_555
Ga8 Yb0 3.033598 1_655
Ga9 Ru4 2.677877 1_555
Ga9 Ru3 2.687638 1_555
Ga9 Ru1 2.722014 1_455
Ga9 Yb3 2.955777 1_555
Ga9 Yb1 3.033598 1_455
Ga10 Ga3 2.654423 1_555
Ga10 Ru5 2.677877 1_555
Ga10 Ga19 2.679949 1_565
Ga10 Ru0 2.687638 1_555
Ga10 Ga15 2.721919 1_555
Ga10 Ga14 2.721919 1_555
Ga10 Ru2 2.722014 1_555
Ga10 Ga12 2.943091 1_555
Ga10 Yb0 2.955777 1_555
Ga10 Yb2 3.033598 1_555
Ga11 Ga2 2.654423 1_555
Ga11 Ru5 2.677877 1_555
Ga11 Ga19 2.679949 1_555
Ga11 Ru1 2.687638 1_555
Ga11 Ga15 2.721919 1_555
Ga11 Ga14 2.721919 1_555
Ga11 Ru3 2.722014 1_555
Ga11 Ga13 2.943091 1_555
Ga11 Yb1 2.955777 1_555
Ga11 Yb3 3.033598 1_555
Ga12 Ga5 2.654423 1_555
Ga12 Ru4 2.677877 1_565
Ga12 Ga19 2.679949 1_565
Ga12 Ru0 2.687638 1_555
Ga12 Ga8 2.721919 1_455
Ga12 Ga9 2.721919 1_565
Ga12 Ru3 2.722014 1_565
Ga12 Yb0 2.955777 1_555
Ga12 Yb3 3.033598 1_565
Ga13 Ga4 2.654423 1_555
Ga13 Ru4 2.677877 1_655
Ga13 Ga19 2.679949 1_555
Ga13 Ru1 2.687638 1_555
Ga13 Ga8 2.721919 1_545
Ga13 Ga9 2.721919 1_655
Ga13 Ru2 2.722014 1_545
Ga13 Yb1 2.955777 1_555
Ga13 Yb2 3.033598 1_545
Ga14 Ga7 2.654423 1_555
Ga14 Ru5 2.677877 1_555
Ga14 Ga18 2.679949 1_555
Ga14 Ru3 2.687638 1_555
Ga14 Ru0 2.722014 1_555
Ga14 Ga9 2.943091 1_555
Ga14 Yb3 2.955777 1_555
Ga14 Yb0 3.033598 1_555
Ga15 Ga6 2.654423 1_555
Ga15 Ru5 2.677877 1_555
Ga15 Ga18 2.679949 1_655
Ga15 Ru2 2.687638 1_555
Ga15 Ru1 2.722014 1_555
Ga15 Ga8 2.943091 1_555
Ga15 Yb2 2.955777 1_555
Ga15 Yb1 3.033598 1_555
Ga16 Ru1 2.650445 1_455
Ga16 Ru0 2.650445 1_555
Ga16 Ga6 2.679949 1_455
Ga16 Ga7 2.679949 1_555
Ga16 Ga18 2.745274 1_555
Ga16 Yb0 2.947261 1_556
Ga16 Yb1 2.947261 1_456
Ga17 Ru3 2.650445 1_555
Ga17 Ru2 2.650445 1_545
Ga17 Ga4 2.679949 1_555
Ga17 Ga3 2.679949 1_545
Ga17 Ga2 2.679949 1_555
Ga17 Ga5 2.679949 1_545
Ga17 Ga19 2.745274 1_555
Ga17 Yb3 2.947261 1_556
Ga17 Yb2 2.947261 1_546
Ga18 Ru1 2.650445 1_455
Ga18 Ru0 2.650445 1_555
Ga18 Ga8 2.679949 1_455
Ga18 Ga9 2.679949 1_555
Ga18 Yb1 2.947261 1_455
Ga18 Yb0 2.947261 1_555
Ga19 Ru3 2.650445 1_555
Ga19 Ru2 2.650445 1_545
Ga19 Yb3 2.947261 1_555
Ga19 Yb2 2.947261 1_545
Ru0 Yb0 3.189545 1_555
Ru0 Yb0 3.189545 1_556
Ru1 Yb1 3.189545 1_556
Ru1 Yb1 3.189545 1_555
Ru2 Yb2 3.189545 1_556
Ru2 Yb2 3.189545 1_555
Ru3 Yb3 3.189545 1_555
Ru3 Yb3 3.189545 1_556
Ru4 Yb0 3.270881 1_545
Ru4 Yb2 3.270881 1_445
Ru4 Yb3 3.270881 1_555
Ru4 Yb1 3.270881 1_455
Ru5 Yb1 3.270881 1_555
Ru5 Yb2 3.270881 1_555
Ru5 Yb3 3.270881 1_555
Ru5 Yb0 3.270881 1_555
