# generated using pymatgen
data_CsRe3(S2Br)2
_symmetry_space_group_name_H-M   'P 1'
_cell_length_a   18.92505100
_cell_length_b   6.47086800
_cell_length_c   10.14817408
_cell_angle_alpha   65.75251661
_cell_angle_beta   90.00000000
_cell_angle_gamma   90.00000000
_symmetry_Int_Tables_number   1
_chemical_formula_structural   CsRe3(S2Br)2
_chemical_formula_sum   'Cs4 Re12 S16 Br8'
_cell_volume   1133.12444471
_cell_formula_units_Z   4
loop_
 _symmetry_equiv_pos_site_id
 _symmetry_equiv_pos_as_xyz
  1  'x, y, z'
loop_
 _atom_site_type_symbol
 _atom_site_label
 _atom_site_symmetry_multiplicity
 _atom_site_fract_x
 _atom_site_fract_y
 _atom_site_fract_z
 _atom_site_occupancy
  Cs  Cs0  1  0.69007400  0.05029400  0.94144100  1
  Cs  Cs1  1  0.19007400  0.94970600  0.55855900  1
  Cs  Cs2  1  0.80992600  0.05029400  0.44144100  1
  Cs  Cs3  1  0.30992600  0.94970600  0.05855900  1
  Re  Re0  1  0.49417100  0.78047400  0.42806800  1
  Re  Re1  1  0.05777600  0.82552800  0.15507800  1
  Re  Re2  1  0.50582900  0.21952600  0.57193200  1
  Re  Re3  1  0.58038400  0.85992200  0.60458900  1
  Re  Re4  1  0.91961600  0.85992200  0.10458900  1
  Re  Re5  1  0.00582900  0.78047400  0.92806800  1
  Re  Re6  1  0.08038400  0.14007800  0.89541100  1
  Re  Re7  1  0.44222400  0.82552800  0.65507800  1
  Re  Re8  1  0.41961600  0.14007800  0.39541100  1
  Re  Re9  1  0.99417100  0.21952600  0.07193200  1
  Re  Re10  1  0.55777600  0.17447200  0.34492200  1
  Re  Re11  1  0.94222400  0.17447200  0.84492200  1
  S  S0  1  0.36911300  0.76719500  0.47766900  1
  S  S1  1  0.11982200  0.17056900  0.11354100  1
  S  S2  1  0.63088700  0.23280500  0.52233100  1
  S  S3  1  0.02569600  0.08510800  0.69506400  1
  S  S4  1  0.51626900  0.50338500  0.68408000  1
  S  S5  1  0.86911300  0.23280500  0.02233100  1
  S  S6  1  0.52569600  0.91489200  0.80493600  1
  S  S7  1  0.13088700  0.76719500  0.97766900  1
  S  S8  1  0.47430400  0.08510800  0.19506400  1
  S  S9  1  0.61982200  0.82943100  0.38645900  1
  S  S10  1  0.97430400  0.91489200  0.30493600  1
  S  S11  1  0.48373100  0.49661500  0.31592000  1
  S  S12  1  0.88017800  0.82943100  0.88645900  1
  S  S13  1  0.98373100  0.50338500  0.18408000  1
  S  S14  1  0.01626900  0.49661500  0.81592000  1
  S  S15  1  0.38017800  0.17056900  0.61354100  1
  Br  Br0  1  0.36108800  0.59256800  0.86776200  1
  Br  Br1  1  0.63891200  0.40743200  0.13223800  1
  Br  Br2  1  0.86108800  0.40743200  0.63223800  1
  Br  Br3  1  0.69588400  0.68052900  0.74186300  1
  Br  Br4  1  0.80411600  0.68052900  0.24186300  1
  Br  Br5  1  0.19588400  0.31947100  0.75813700  1
  Br  Br6  1  0.30411600  0.31947100  0.25813700  1
  Br  Br7  1  0.13891200  0.59256800  0.36776200  1
loop_
_geom_bond_atom_site_label_1
_geom_bond_atom_site_label_2
_geom_bond_distance
_geom_bond_site_symmetry_2
Cs0 S6 3.655275 1_545
Cs0 S5 3.787563 1_556
Cs0 S12 3.994057 1_545
Cs0 S2 4.075958 1_555
Cs1 S3 3.655275 1_565
Cs1 S0 3.787563 1_555
Cs1 S15 3.994057 1_565
Cs1 S7 4.075958 1_555
Cs2 S10 3.655275 1_545
Cs2 S2 3.787563 1_555
Cs2 S9 3.994057 1_545
Cs2 S5 4.075958 1_555
Cs3 S8 3.655275 1_565
Cs3 S7 3.787563 1_554
Cs3 S1 3.994057 1_565
Cs3 S0 4.075958 1_555
Re0 S8 2.406217 1_565
Re0 S9 2.413181 1_555
Re0 S0 2.413842 1_555
Re0 S4 2.512668 1_555
Re0 S11 2.534801 1_555
Re1 S1 2.401767 1_565
Re1 S7 2.420010 1_554
Re1 S10 2.421772 1_455
Re1 S13 2.427280 1_455
Re2 S6 2.406217 1_545
Re2 S15 2.413181 1_555
Re2 S2 2.413842 1_555
Re2 S11 2.512668 1_555
Re2 S4 2.534801 1_555
Re3 S2 2.403734 1_565
Re3 S9 2.419678 1_555
Re3 S4 2.432514 1_555
Re3 S6 2.434220 1_555
Re4 S5 2.403734 1_565
Re4 S12 2.419678 1_554
Re4 S13 2.432514 1_555
Re4 S10 2.434220 1_555
Re5 S3 2.406217 1_565
Re5 S12 2.413181 1_455
Re5 S7 2.413842 1_555
Re5 S13 2.512668 1_456
Re5 S14 2.534801 1_555
Re6 S7 2.403734 1_545
Re6 S1 2.419678 1_556
Re6 S14 2.432514 1_555
Re6 S3 2.434220 1_555
Re7 S15 2.401767 1_565
Re7 S0 2.420010 1_555
Re7 S6 2.421772 1_555
Re7 S4 2.427280 1_555
Re8 S0 2.403734 1_545
Re8 S15 2.419678 1_555
Re8 S11 2.432514 1_555
Re8 S8 2.434220 1_555
Re9 S10 2.406217 1_545
Re9 S1 2.413181 1_655
Re9 S5 2.413842 1_555
Re9 S14 2.512668 1_654
Re9 S13 2.534801 1_555
Re10 S9 2.401767 1_545
Re10 S2 2.420010 1_555
Re10 S8 2.421772 1_555
Re10 S11 2.427280 1_555
Re11 S12 2.401767 1_545
Re11 S5 2.420010 1_556
Re11 S3 2.421772 1_655
Re11 S14 2.427280 1_655
Br0 Re7 2.572216 1_555
Br0 Cs3 3.701688 1_556
Br0 Cs3 3.921153 1_546
Br1 Re10 2.572216 1_555
Br1 Cs0 3.701688 1_554
Br1 Cs0 3.921153 1_564
Br2 Re11 2.572216 1_555
Br2 Cs2 3.701688 1_555
Br2 Cs2 3.921153 1_565
Br3 Re3 2.595740 1_555
Br3 Cs2 3.699497 1_565
Br3 Cs0 3.717460 1_565
Br3 Cs0 3.736496 1_555
Br4 Re4 2.595740 1_555
Br4 Cs0 3.699497 1_564
Br4 Cs2 3.717460 1_565
Br4 Cs2 3.736496 1_555
Br5 Re6 2.595740 1_555
Br5 Cs3 3.699497 1_546
Br5 Cs1 3.717460 1_545
Br5 Cs1 3.736496 1_555
Br6 Re8 2.595740 1_555
Br6 Cs1 3.699497 1_545
Br6 Cs3 3.717460 1_545
Br6 Cs3 3.736496 1_555
Br7 Re1 2.572216 1_555
Br7 Cs1 3.701688 1_555
Br7 Cs1 3.921153 1_545
