# generated using pymatgen
data_GaSe2
_symmetry_space_group_name_H-M   'P 1'
_cell_length_a   19.14660578
_cell_length_b   19.14660578
_cell_length_c   19.14660578
_cell_angle_alpha   109.47122063
_cell_angle_beta   109.47122063
_cell_angle_gamma   109.47122063
_symmetry_Int_Tables_number   1
_chemical_formula_structural   GaSe2
_chemical_formula_sum   'Ga24 Se48'
_cell_volume   5403.23050835
_cell_formula_units_Z   24
loop_
 _symmetry_equiv_pos_site_id
 _symmetry_equiv_pos_as_xyz
  1  'x, y, z'
loop_
 _atom_site_type_symbol
 _atom_site_label
 _atom_site_symmetry_multiplicity
 _atom_site_fract_x
 _atom_site_fract_y
 _atom_site_fract_z
 _atom_site_occupancy
  Ga  Ga0  1  0.74390900  0.38076900  0.25689800  1
  Ga  Ga1  1  0.48701100  0.12387100  0.74310200  1
  Ga  Ga2  1  0.63686000  0.51298900  0.25609100  1
  Ga  Ga3  1  0.74390900  0.25689800  0.38076900  1
  Ga  Ga4  1  0.51298900  0.63686000  0.25609100  1
  Ga  Ga5  1  0.38076900  0.74390900  0.25689800  1
  Ga  Ga6  1  0.36314000  0.61923100  0.87612900  1
  Ga  Ga7  1  0.38076900  0.25689800  0.74390900  1
  Ga  Ga8  1  0.25689800  0.38076900  0.74390900  1
  Ga  Ga9  1  0.25609100  0.63686000  0.51298900  1
  Ga  Ga10  1  0.36314000  0.87612900  0.61923100  1
  Ga  Ga11  1  0.87612900  0.36314000  0.61923100  1
  Ga  Ga12  1  0.25689800  0.74390900  0.38076900  1
  Ga  Ga13  1  0.74310200  0.12387100  0.48701100  1
  Ga  Ga14  1  0.51298900  0.25609100  0.63686000  1
  Ga  Ga15  1  0.12387100  0.48701100  0.74310200  1
  Ga  Ga16  1  0.48701100  0.74310200  0.12387100  1
  Ga  Ga17  1  0.63686000  0.25609100  0.51298900  1
  Ga  Ga18  1  0.25609100  0.51298900  0.63686000  1
  Ga  Ga19  1  0.61923100  0.36314000  0.87612900  1
  Ga  Ga20  1  0.74310200  0.48701100  0.12387100  1
  Ga  Ga21  1  0.61923100  0.87612900  0.36314000  1
  Ga  Ga22  1  0.87612900  0.61923100  0.36314000  1
  Ga  Ga23  1  0.12387100  0.74310200  0.48701100  1
  Se  Se0  1  0.00000000  0.75034900  0.48769700  1
  Se  Se1  1  0.38349800  0.62031800  0.26151300  1
  Se  Se2  1  0.23681900  0.87801500  0.61650200  1
  Se  Se3  1  0.87801500  0.23681900  0.61650200  1
  Se  Se4  1  0.00000000  0.48769700  0.75034900  1
  Se  Se5  1  0.50000000  0.12028100  0.62028100  1
  Se  Se6  1  0.64119500  0.76318100  0.37968200  1
  Se  Se7  1  0.50000000  0.87971900  0.37971900  1
  Se  Se8  1  0.87801500  0.61650200  0.23681900  1
  Se  Se9  1  0.26265300  0.51230300  0.51230300  1
  Se  Se10  1  0.12198500  0.73848700  0.35880500  1
  Se  Se11  1  0.73848700  0.35880500  0.12198500  1
  Se  Se12  1  0.38349800  0.26151300  0.62031800  1
  Se  Se13  1  0.12028100  0.62028100  0.50000000  1
  Se  Se14  1  0.26151300  0.62031800  0.38349800  1
  Se  Se15  1  0.61650200  0.23681900  0.87801500  1
  Se  Se16  1  0.12028100  0.50000000  0.62028100  1
  Se  Se17  1  0.62031800  0.26151300  0.38349800  1
  Se  Se18  1  0.62028100  0.12028100  0.50000000  1
  Se  Se19  1  0.51230300  0.51230300  0.26265300  1
  Se  Se20  1  0.37968200  0.76318100  0.64119500  1
  Se  Se21  1  0.73734700  0.24965100  0.24965100  1
  Se  Se22  1  0.76318100  0.64119500  0.37968200  1
  Se  Se23  1  0.37971900  0.50000000  0.87971900  1
  Se  Se24  1  0.75034900  0.00000000  0.48769700  1
  Se  Se25  1  0.75034900  0.48769700  0.00000000  1
  Se  Se26  1  0.37968200  0.64119500  0.76318100  1
  Se  Se27  1  0.12198500  0.35880500  0.73848700  1
  Se  Se28  1  0.64119500  0.37968200  0.76318100  1
  Se  Se29  1  0.23681900  0.61650200  0.87801500  1
  Se  Se30  1  0.35880500  0.12198500  0.73848700  1
  Se  Se31  1  0.24965100  0.73734700  0.24965100  1
  Se  Se32  1  0.73848700  0.12198500  0.35880500  1
  Se  Se33  1  0.48769700  0.00000000  0.75034900  1
  Se  Se34  1  0.35880500  0.73848700  0.12198500  1
  Se  Se35  1  0.50000000  0.62028100  0.12028100  1
  Se  Se36  1  0.62031800  0.38349800  0.26151300  1
  Se  Se37  1  0.50000000  0.37971900  0.87971900  1
  Se  Se38  1  0.87971900  0.50000000  0.37971900  1
  Se  Se39  1  0.62028100  0.50000000  0.12028100  1
  Se  Se40  1  0.26151300  0.38349800  0.62031800  1
  Se  Se41  1  0.61650200  0.87801500  0.23681900  1
  Se  Se42  1  0.24965100  0.24965100  0.73734700  1
  Se  Se43  1  0.37971900  0.87971900  0.50000000  1
  Se  Se44  1  0.87971900  0.37971900  0.50000000  1
  Se  Se45  1  0.48769700  0.75034900  0.00000000  1
  Se  Se46  1  0.51230300  0.26265300  0.51230300  1
  Se  Se47  1  0.76318100  0.37968200  0.64119500  1
loop_
_geom_bond_atom_site_label_1
_geom_bond_atom_site_label_2
_geom_bond_distance
_geom_bond_site_symmetry_2
Ga0 Se36 2.414309 1_555
Ga0 Se21 2.425561 1_555
Ga0 Se38 2.426962 1_555
Ga0 Se11 2.434767 1_555
Ga1 Se30 2.414309 1_555
Ga1 Se33 2.425567 1_555
Ga1 Se5 2.426962 1_555
Ga1 Se15 2.434763 1_555
Ga2 Se22 2.414316 1_555
Ga2 Se19 2.425574 1_555
Ga2 Se39 2.426962 1_555
Ga2 Se36 2.434767 1_555
Ga3 Se17 2.414309 1_555
Ga3 Se21 2.425561 1_555
Ga3 Se44 2.426962 1_555
Ga3 Se32 2.434767 1_555
Ga4 Se6 2.414316 1_555
Ga4 Se19 2.425574 1_555
Ga4 Se35 2.426962 1_555
Ga4 Se1 2.434767 1_555
Ga5 Se1 2.414309 1_555
Ga5 Se31 2.425561 1_555
Ga5 Se7 2.426962 1_555
Ga5 Se34 2.434767 1_555
Ga6 Se29 2.414328 1_555
Ga6 Se45 2.425567 1_556
Ga6 Se23 2.426962 1_555
Ga6 Se26 2.434748 1_555
Ga7 Se12 2.414309 1_555
Ga7 Se42 2.425561 1_555
Ga7 Se37 2.426962 1_555
Ga7 Se30 2.434767 1_555
Ga8 Se40 2.414309 1_555
Ga8 Se42 2.425561 1_555
Ga8 Se23 2.426962 1_555
Ga8 Se27 2.434767 1_555
Ga9 Se20 2.414316 1_555
Ga9 Se9 2.425574 1_555
Ga9 Se13 2.426962 1_555
Ga9 Se14 2.434767 1_555
Ga10 Se2 2.414328 1_555
Ga10 Se33 2.425567 1_565
Ga10 Se43 2.426962 1_555
Ga10 Se20 2.434748 1_555
Ga11 Se3 2.414328 1_555
Ga11 Se4 2.425567 1_655
Ga11 Se44 2.426962 1_555
Ga11 Se47 2.434748 1_555
Ga12 Se14 2.414309 1_555
Ga12 Se31 2.425561 1_555
Ga12 Se43 2.426962 1_555
Ga12 Se10 2.434767 1_555
Ga13 Se32 2.414309 1_555
Ga13 Se24 2.425567 1_555
Ga13 Se18 2.426962 1_555
Ga13 Se3 2.434763 1_555
Ga14 Se28 2.414316 1_555
Ga14 Se46 2.425574 1_555
Ga14 Se5 2.426962 1_555
Ga14 Se12 2.434767 1_555
Ga15 Se27 2.414309 1_555
Ga15 Se4 2.425567 1_555
Ga15 Se16 2.426962 1_555
Ga15 Se29 2.434763 1_555
Ga16 Se34 2.414309 1_555
Ga16 Se45 2.425567 1_555
Ga16 Se35 2.426962 1_555
Ga16 Se41 2.434763 1_555
Ga17 Se47 2.414316 1_555
Ga17 Se46 2.425574 1_555
Ga17 Se18 2.426962 1_555
Ga17 Se17 2.434767 1_555
Ga18 Se26 2.414316 1_555
Ga18 Se9 2.425574 1_555
Ga18 Se16 2.426962 1_555
Ga18 Se40 2.434767 1_555
Ga19 Se15 2.414328 1_555
Ga19 Se25 2.425567 1_556
Ga19 Se37 2.426962 1_555
Ga19 Se28 2.434748 1_555
Ga20 Se11 2.414309 1_555
Ga20 Se25 2.425567 1_555
Ga20 Se39 2.426962 1_555
Ga20 Se8 2.434763 1_555
Ga21 Se41 2.414328 1_555
Ga21 Se24 2.425567 1_565
Ga21 Se7 2.426962 1_555
Ga21 Se6 2.434748 1_555
Ga22 Se8 2.414328 1_555
Ga22 Se0 2.425567 1_655
Ga22 Se38 2.426962 1_555
Ga22 Se22 2.434748 1_555
Ga23 Se10 2.414309 1_555
Ga23 Se0 2.425567 1_555
Ga23 Se13 2.426962 1_555
Ga23 Se2 2.434763 1_555
