# generated using pymatgen
data_Ag2HgI4
_symmetry_space_group_name_H-M   'P 1'
_cell_length_a   4.65620990
_cell_length_b   4.65620990
_cell_length_c   50.30854055
_cell_angle_alpha   88.14722467
_cell_angle_beta   88.14722467
_cell_angle_gamma   67.87971100
_symmetry_Int_Tables_number   1
_chemical_formula_structural   Ag2HgI4
_chemical_formula_sum   'Ag6 Hg3 I12'
_cell_volume   1009.65532681
_cell_formula_units_Z   3
loop_
 _symmetry_equiv_pos_site_id
 _symmetry_equiv_pos_as_xyz
  1  'x, y, z'
loop_
 _atom_site_type_symbol
 _atom_site_label
 _atom_site_symmetry_multiplicity
 _atom_site_fract_x
 _atom_site_fract_y
 _atom_site_fract_z
 _atom_site_occupancy
  Ag  Ag0  1  0.74639800  0.74639800  0.25100500  1
  Ag  Ag1  1  0.34456000  0.34456000  0.32662300  1
  Ag  Ag2  1  0.93671600  0.93671600  0.40065100  1
  Ag  Ag3  1  0.24431100  0.24431100  0.76748300  1
  Ag  Ag4  1  0.42764300  0.42764300  0.91493900  1
  Ag  Ag5  1  0.83732000  0.83732000  0.84099300  1
  Hg  Hg0  1  0.55821800  0.55821800  0.47966800  1
  Hg  Hg1  1  0.07315100  0.07315100  0.57861300  1
  Hg  Hg2  1  0.61680000  0.61680000  0.67973900  1
  I  I0  1  0.68731100  0.68731100  0.05540600  1
  I  I1  1  0.18178800  0.18178800  0.07639500  1
  I  I2  1  0.80136600  0.80136600  0.19739400  1
  I  I3  1  0.39049700  0.39049700  0.27100500  1
  I  I4  1  0.98264000  0.98264000  0.34493700  1
  I  I5  1  0.57307600  0.57307600  0.41893000  1
  I  I6  1  0.14646400  0.14646400  0.49703600  1
  I  I7  1  0.74536900  0.74536900  0.62925300  1
  I  I8  1  0.28897000  0.28897000  0.70820600  1
  I  I9  1  0.88038200  0.88038200  0.78057200  1
  I  I10  1  0.47225700  0.47225700  0.85392400  1
  I  I11  1  0.06407300  0.06407300  0.92722700  1
loop_
_geom_bond_atom_site_label_1
_geom_bond_atom_site_label_2
_geom_bond_distance
_geom_bond_site_symmetry_2
Ag0 I2 2.713922 1_555
Ag0 I3 2.890877 1_555
Ag0 I3 3.016181 1_655
Ag0 I3 3.016181 1_565
Ag1 I3 2.806724 1_555
Ag1 I4 2.909708 1_445
Ag1 I4 2.970148 1_455
Ag1 I4 2.970148 1_545
Ag2 I4 2.811506 1_555
Ag2 I5 2.921828 1_555
Ag2 I5 2.964669 1_565
Ag2 I5 2.964669 1_655
Ag3 I9 2.862630 1_445
Ag3 I9 2.889804 1_455
Ag3 I9 2.889804 1_545
Ag3 I8 2.988646 1_555
Ag4 I11 2.852469 1_555
Ag4 I11 2.881353 1_655
Ag4 I11 2.881353 1_565
Ag4 I10 3.075489 1_555
Ag5 I10 2.869649 1_555
Ag5 I10 2.884636 1_655
Ag5 I10 2.884636 1_565
Ag5 I9 3.044929 1_555
Hg0 I6 2.834248 1_565
Hg0 I6 2.834248 1_655
Hg0 I5 3.053322 1_555
Hg0 I6 3.265948 1_555
Hg2 I7 2.690907 1_555
Hg2 I8 2.860616 1_555
Hg2 I8 3.275218 1_565
Hg2 I8 3.275218 1_655
I0 I1 2.805629 1_655
I0 I1 2.805629 1_565
