# generated using pymatgen
data_SiO2
_symmetry_space_group_name_H-M   'P 1'
_cell_length_a   7.03493700
_cell_length_b   13.68115900
_cell_length_c   22.42252100
_cell_angle_alpha   90.00000000
_cell_angle_beta   90.00000000
_cell_angle_gamma   90.00000000
_symmetry_Int_Tables_number   1
_chemical_formula_structural   SiO2
_chemical_formula_sum   'Si32 O64'
_cell_volume   2158.08001123
_cell_formula_units_Z   32
loop_
 _symmetry_equiv_pos_site_id
 _symmetry_equiv_pos_as_xyz
  1  'x, y, z'
loop_
 _atom_site_type_symbol
 _atom_site_label
 _atom_site_symmetry_multiplicity
 _atom_site_fract_x
 _atom_site_fract_y
 _atom_site_fract_z
 _atom_site_occupancy
  Si  Si0  1  0.55854500  0.88731500  0.83890600  1
  Si  Si1  1  0.44145500  0.61268500  0.33890600  1
  Si  Si2  1  0.44145500  0.38731500  0.66109400  1
  Si  Si3  1  0.55854500  0.11268500  0.16109400  1
  Si  Si4  1  0.44145500  0.61268500  0.66109400  1
  Si  Si5  1  0.55854500  0.88731500  0.16109400  1
  Si  Si6  1  0.55854500  0.11268500  0.83890600  1
  Si  Si7  1  0.44145500  0.38731500  0.33890600  1
  Si  Si8  1  0.89022800  0.88568000  0.93092900  1
  Si  Si9  1  0.10977200  0.61432000  0.43092900  1
  Si  Si10  1  0.10977200  0.38568000  0.56907100  1
  Si  Si11  1  0.89022800  0.11432000  0.06907100  1
  Si  Si12  1  0.10977200  0.61432000  0.56907100  1
  Si  Si13  1  0.89022800  0.88568000  0.06907100  1
  Si  Si14  1  0.89022800  0.11432000  0.93092900  1
  Si  Si15  1  0.10977200  0.38568000  0.43092900  1
  Si  Si16  1  0.87783700  0.88721400  0.74208500  1
  Si  Si17  1  0.12216300  0.61278600  0.24208500  1
  Si  Si18  1  0.12216300  0.38721400  0.75791500  1
  Si  Si19  1  0.87783700  0.11278600  0.25791500  1
  Si  Si20  1  0.12216300  0.61278600  0.75791500  1
  Si  Si21  1  0.87783700  0.88721400  0.25791500  1
  Si  Si22  1  0.87783700  0.11278600  0.74208500  1
  Si  Si23  1  0.12216300  0.38721400  0.24208500  1
  Si  Si24  1  0.15118000  0.79710500  0.83468000  1
  Si  Si25  1  0.84882000  0.70289500  0.33468000  1
  Si  Si26  1  0.84882000  0.29710500  0.66532000  1
  Si  Si27  1  0.15118000  0.20289500  0.16532000  1
  Si  Si28  1  0.84882000  0.70289500  0.66532000  1
  Si  Si29  1  0.15118000  0.79710500  0.16532000  1
  Si  Si30  1  0.15118000  0.20289500  0.83468000  1
  Si  Si31  1  0.84882000  0.29710500  0.33468000  1
  O  O0  1  0.68332700  0.87204300  0.89938200  1
  O  O1  1  0.31667300  0.62795700  0.39938200  1
  O  O2  1  0.31667300  0.37204300  0.60061800  1
  O  O3  1  0.68332700  0.12795700  0.10061800  1
  O  O4  1  0.31667300  0.62795700  0.60061800  1
  O  O5  1  0.68332700  0.87204300  0.10061800  1
  O  O6  1  0.68332700  0.12795700  0.89938200  1
  O  O7  1  0.31667300  0.37204300  0.39938200  1
  O  O8  1  0.68714100  0.86129300  0.78048800  1
  O  O9  1  0.31285900  0.63870700  0.28048800  1
  O  O10  1  0.31285900  0.36129300  0.71951200  1
  O  O11  1  0.68714100  0.13870700  0.21951200  1
  O  O12  1  0.31285900  0.63870700  0.71951200  1
  O  O13  1  0.68714100  0.86129300  0.21951200  1
  O  O14  1  0.68714100  0.13870700  0.78048800  1
  O  O15  1  0.31285900  0.36129300  0.28048800  1
  O  O16  1  0.37810500  0.81443900  0.84097100  1
  O  O17  1  0.62189500  0.68556100  0.34097100  1
  O  O18  1  0.62189500  0.31443900  0.65902900  1
  O  O19  1  0.37810500  0.18556100  0.15902900  1
  O  O20  1  0.62189500  0.68556100  0.65902900  1
  O  O21  1  0.37810500  0.81443900  0.15902900  1
  O  O22  1  0.37810500  0.18556100  0.84097100  1
  O  O23  1  0.62189500  0.31443900  0.34097100  1
  O  O24  1  0.48396500  0.00000000  0.83487500  1
  O  O25  1  0.51603500  0.50000000  0.33487500  1
  O  O26  1  0.51603500  0.50000000  0.66512500  1
  O  O27  1  0.48396500  0.00000000  0.16512500  1
  O  O28  1  0.04832300  0.81732000  0.89845500  1
  O  O29  1  0.95167700  0.68268000  0.39845500  1
  O  O30  1  0.95167700  0.31732000  0.60154500  1
  O  O31  1  0.04832300  0.18268000  0.10154500  1
  O  O32  1  0.95167700  0.68268000  0.60154500  1
  O  O33  1  0.04832300  0.81732000  0.10154500  1
  O  O34  1  0.04832300  0.18268000  0.89845500  1
  O  O35  1  0.95167700  0.31732000  0.39845500  1
  O  O36  1  0.95708200  0.00000000  0.92648100  1
  O  O37  1  0.04291800  0.50000000  0.42648100  1
  O  O38  1  0.04291800  0.50000000  0.57351900  1
  O  O39  1  0.95708200  0.00000000  0.07351900  1
  O  O40  1  0.87271700  0.85201600  0.00000000  1
  O  O41  1  0.12728300  0.64798400  0.50000000  1
  O  O42  1  0.12728300  0.35201600  0.50000000  1
  O  O43  1  0.87271700  0.14798400  0.00000000  1
  O  O44  1  0.87443900  0.00000000  0.71945700  1
  O  O45  1  0.12556100  0.50000000  0.21945700  1
  O  O46  1  0.12556100  0.50000000  0.78054300  1
  O  O47  1  0.87443900  0.00000000  0.28054300  1
  O  O48  1  0.06551900  0.87084900  0.78391000  1
  O  O49  1  0.93448100  0.62915100  0.28391000  1
  O  O50  1  0.93448100  0.37084900  0.71609000  1
  O  O51  1  0.06551900  0.12915100  0.21609000  1
  O  O52  1  0.93448100  0.62915100  0.71609000  1
  O  O53  1  0.06551900  0.87084900  0.21609000  1
  O  O54  1  0.06551900  0.12915100  0.78391000  1
  O  O55  1  0.93448100  0.37084900  0.28391000  1
  O  O56  1  0.88658000  0.81637100  0.68405900  1
  O  O57  1  0.11342000  0.68362900  0.18405900  1
  O  O58  1  0.11342000  0.31637100  0.81594100  1
  O  O59  1  0.88658000  0.18362900  0.31594100  1
  O  O60  1  0.11342000  0.68362900  0.81594100  1
  O  O61  1  0.88658000  0.81637100  0.31594100  1
  O  O62  1  0.88658000  0.18362900  0.68405900  1
  O  O63  1  0.11342000  0.31637100  0.18405900  1
loop_
_geom_bond_atom_site_label_1
_geom_bond_atom_site_label_2
_geom_bond_distance
_geom_bond_site_symmetry_2
O0 Si0 1.628818 1_555
O0 Si8 1.629035 1_555
O1 Si1 1.628818 1_555
O1 Si9 1.629035 1_555
O2 Si2 1.628818 1_555
O2 Si10 1.629035 1_555
O3 Si3 1.628818 1_555
O3 Si11 1.629035 1_555
O4 Si4 1.628818 1_555
O4 Si12 1.629035 1_555
O5 Si5 1.628818 1_555
O5 Si13 1.629035 1_555
O6 Si6 1.628818 1_555
O6 Si14 1.629035 1_555
O7 Si7 1.628818 1_555
O7 Si15 1.629035 1_555
O8 Si0 1.631240 1_555
O8 Si16 1.633082 1_555
O9 Si1 1.631240 1_555
O9 Si17 1.633082 1_555
O10 Si2 1.631240 1_555
O10 Si18 1.633082 1_555
O11 Si3 1.631240 1_555
O11 Si19 1.633082 1_555
O12 Si4 1.631240 1_555
O12 Si20 1.633082 1_555
O13 Si5 1.631240 1_555
O13 Si21 1.633082 1_555
O14 Si6 1.631240 1_555
O14 Si22 1.633082 1_555
O15 Si7 1.631240 1_555
O15 Si23 1.633082 1_555
O16 Si0 1.614789 1_555
O16 Si24 1.620074 1_555
O17 Si1 1.614789 1_555
O17 Si25 1.620074 1_555
O18 Si2 1.614789 1_555
O18 Si26 1.620074 1_555
O19 Si3 1.614789 1_555
O19 Si27 1.620074 1_555
O20 Si4 1.614789 1_555
O20 Si28 1.620074 1_555
O21 Si5 1.614789 1_555
O21 Si29 1.620074 1_555
O22 Si6 1.614789 1_555
O22 Si30 1.620074 1_555
O23 Si7 1.614789 1_555
O23 Si31 1.620074 1_555
O24 Si6 1.631001 1_555
O24 Si0 1.631001 1_545
O25 Si1 1.631001 1_555
O25 Si7 1.631001 1_555
O26 Si4 1.631001 1_555
O26 Si2 1.631001 1_555
O27 Si3 1.631001 1_555
O27 Si5 1.631001 1_545
O28 Si8 1.625375 1_455
O28 Si24 1.626334 1_555
O29 Si9 1.625375 1_655
O29 Si25 1.626334 1_555
O30 Si10 1.625375 1_655
O30 Si26 1.626334 1_555
O31 Si11 1.625375 1_455
O31 Si27 1.626334 1_555
O32 Si12 1.625375 1_655
O32 Si28 1.626334 1_555
O33 Si13 1.625375 1_455
O33 Si29 1.626334 1_555
O34 Si14 1.625375 1_455
O34 Si30 1.626334 1_555
O35 Si15 1.625375 1_655
O35 Si31 1.626334 1_555
O36 Si8 1.636256 1_545
O36 Si14 1.636256 1_555
O37 Si15 1.636256 1_555
O37 Si9 1.636256 1_555
O38 Si10 1.636256 1_555
O38 Si12 1.636256 1_555
O39 Si13 1.636256 1_545
O39 Si11 1.636256 1_555
O40 Si8 1.620465 1_554
O40 Si13 1.620465 1_555
O41 Si12 1.620465 1_555
O41 Si9 1.620465 1_555
O42 Si10 1.620465 1_555
O42 Si15 1.620465 1_555
O43 Si14 1.620465 1_554
O43 Si11 1.620465 1_555
O44 Si22 1.624495 1_555
O44 Si16 1.624495 1_545
O45 Si17 1.624495 1_555
O45 Si23 1.624495 1_555
O46 Si20 1.624495 1_555
O46 Si18 1.624495 1_555
O47 Si19 1.624495 1_555
O47 Si21 1.624495 1_545
O48 Si16 1.634904 1_455
O48 Si24 1.636145 1_555
O49 Si17 1.634904 1_655
O49 Si25 1.636145 1_555
O50 Si18 1.634904 1_655
O50 Si26 1.636145 1_555
O51 Si19 1.634904 1_455
O51 Si27 1.636145 1_555
O52 Si20 1.634904 1_655
O52 Si28 1.636145 1_555
O53 Si21 1.634904 1_455
O53 Si29 1.636145 1_555
O54 Si22 1.634904 1_455
O54 Si30 1.636145 1_555
O55 Si23 1.634904 1_655
O55 Si31 1.636145 1_555
O56 Si16 1.623574 1_555
O56 Si28 1.630128 1_555
O57 Si17 1.623574 1_555
O57 Si29 1.630128 1_555
O58 Si18 1.623574 1_555
O58 Si30 1.630128 1_555
O59 Si19 1.623574 1_555
O59 Si31 1.630128 1_555
O60 Si20 1.623574 1_555
O60 Si24 1.630128 1_555
O61 Si21 1.623574 1_555
O61 Si25 1.630128 1_555
O62 Si22 1.623574 1_555
O62 Si26 1.630128 1_555
O63 Si23 1.623574 1_555
O63 Si27 1.630128 1_555
