# generated using pymatgen
data_Rb5Tc3S7
_symmetry_space_group_name_H-M   'P 1'
_cell_length_a   10.65505073
_cell_length_b   10.65505073
_cell_length_c   10.84704299
_cell_angle_alpha   59.42351878
_cell_angle_beta   59.42351878
_cell_angle_gamma   59.63443770
_symmetry_Int_Tables_number   1
_chemical_formula_structural   Rb5Tc3S7
_chemical_formula_sum   'Rb10 Tc6 S14'
_cell_volume   860.74543356
_cell_formula_units_Z   2
loop_
 _symmetry_equiv_pos_site_id
 _symmetry_equiv_pos_as_xyz
  1  'x, y, z'
loop_
 _atom_site_type_symbol
 _atom_site_label
 _atom_site_symmetry_multiplicity
 _atom_site_fract_x
 _atom_site_fract_y
 _atom_site_fract_z
 _atom_site_occupancy
  Rb  Rb0  1  0.00773212  0.00773212  0.99022206  1
  Rb  Rb1  1  0.41774115  0.99385577  0.00448686  1
  Rb  Rb2  1  0.41562650  0.99694158  0.58028124  1
  Rb  Rb3  1  0.84425932  0.84425932  0.86967199  1
  Rb  Rb4  1  0.84030375  0.84030375  0.43586727  1
  Rb  Rb5  1  0.99694158  0.41562650  0.58028124  1
  Rb  Rb6  1  0.02460164  0.02460164  0.46629903  1
  Rb  Rb7  1  0.99385577  0.41774115  0.00448686  1
  Rb  Rb8  1  0.19490158  0.57902463  0.11061823  1
  Rb  Rb9  1  0.57902463  0.19490158  0.11061823  1
  Tc  Tc0  1  0.37433980  0.62265201  0.61969846  1
  Tc  Tc1  1  0.37517081  0.37517081  0.62344713  1
  Tc  Tc2  1  0.37371513  0.62217540  0.38020488  1
  Tc  Tc3  1  0.62265201  0.37433980  0.61969846  1
  Tc  Tc4  1  0.62171937  0.62171937  0.37572998  1
  Tc  Tc5  1  0.62217540  0.37371513  0.38020488  1
  S  S0  1  0.21397453  0.21397453  0.78566582  1
  S  S1  1  0.20088293  0.79098216  0.77117986  1
  S  S2  1  0.38565810  0.38565810  0.83616980  1
  S  S3  1  0.15593400  0.61148341  0.61485499  1
  S  S4  1  0.61145436  0.61145436  0.60901303  1
  S  S5  1  0.19883908  0.79037908  0.23494326  1
  S  S6  1  0.38489530  0.38489530  0.39022305  1
  S  S7  1  0.38995745  0.83923700  0.38333679  1
  S  S8  1  0.61148341  0.15593400  0.61485499  1
  S  S9  1  0.79098216  0.20088293  0.77117986  1
  S  S10  1  0.83923700  0.38995745  0.38333679  1
  S  S11  1  0.61032998  0.61032998  0.16448544  1
  S  S12  1  0.78603307  0.78603307  0.20879825  1
  S  S13  1  0.79037908  0.19883908  0.23494326  1
loop_
_geom_bond_atom_site_label_1
_geom_bond_atom_site_label_2
_geom_bond_distance
_geom_bond_site_symmetry_2
Rb0 S0 3.089092 1_555
Rb0 S1 3.319155 1_545
Rb0 S9 3.319155 1_455
Rb0 S12 3.320709 1_446
Rb0 S5 3.321612 1_546
Rb0 S13 3.321612 1_456
Rb1 S5 3.171186 1_555
Rb1 S0 3.206149 1_564
Rb1 S11 3.442667 1_555
Rb1 S7 3.472267 1_555
Rb1 S2 3.509403 1_564
Rb1 S8 3.522569 1_564
Rb2 S1 3.157896 1_555
Rb2 S0 3.205514 1_565
Rb2 S4 3.466395 1_555
Rb2 S6 3.477481 1_565
Rb2 S7 3.489003 1_555
Rb2 S8 3.518864 1_565
Rb3 S12 3.169668 1_556
Rb3 S9 3.195072 1_565
Rb3 S1 3.195072 1_655
Rb3 S11 3.565728 1_556
Rb3 S3 3.758761 1_655
Rb3 S8 3.758761 1_565
Rb4 S12 3.157746 1_555
Rb4 S5 3.206441 1_655
Rb4 S13 3.206441 1_565
Rb4 S4 3.480224 1_555
Rb4 S8 3.815880 1_565
Rb4 S3 3.815880 1_655
Rb5 S9 3.157896 1_555
Rb5 S0 3.205514 1_655
Rb5 S4 3.466395 1_555
Rb5 S6 3.477481 1_655
Rb5 S10 3.489003 1_555
Rb5 S3 3.518864 1_655
Rb6 S7 3.214951 1_545
Rb6 S10 3.214951 1_455
Rb6 S3 3.575023 1_545
Rb6 S8 3.575023 1_455
Rb6 S5 3.594460 1_545
Rb6 S13 3.594460 1_455
Rb6 S9 3.725352 1_455
Rb6 S1 3.725352 1_545
Rb7 S13 3.171186 1_555
Rb7 S0 3.206149 1_654
Rb7 S11 3.442667 1_555
Rb7 S10 3.472267 1_555
Rb7 S2 3.509403 1_654
Rb7 S3 3.522569 1_654
Rb8 S1 3.179300 1_554
Rb8 S5 3.183495 1_555
Rb8 S12 3.596243 1_455
Rb8 S2 3.617834 1_554
Rb8 S6 3.633944 1_555
Rb9 S9 3.179300 1_554
Rb9 S13 3.183495 1_555
Rb9 S12 3.596243 1_545
Rb9 S2 3.617834 1_554
Rb9 S6 3.633944 1_555
S0 Tc1 2.414387 1_555
S1 Tc0 2.426895 1_555
S2 Tc0 2.419173 1_555
S2 Tc3 2.419173 1_555
S2 Tc1 2.426186 1_555
S3 Tc2 2.416474 1_555
S3 Tc1 2.416914 1_555
S3 Tc0 2.417264 1_555
S4 Tc0 2.412902 1_555
S4 Tc3 2.412902 1_555
S4 Tc4 2.424037 1_555
S5 Tc2 2.429887 1_555
S6 Tc2 2.418081 1_555
S6 Tc5 2.418081 1_555
S6 Tc1 2.428748 1_555
S7 Tc4 2.382706 1_555
S7 Tc0 2.421008 1_555
S7 Tc2 2.422963 1_555
S8 Tc5 2.416474 1_555
S8 Tc1 2.416914 1_555
S8 Tc3 2.417264 1_555
S9 Tc3 2.426895 1_555
S10 Tc4 2.382706 1_555
S10 Tc3 2.421008 1_555
S10 Tc5 2.422963 1_555
S11 Tc2 2.413355 1_555
S11 Tc5 2.413355 1_555
S11 Tc4 2.420860 1_555
S12 Tc4 2.461226 1_555
S13 Tc5 2.429887 1_555
