# generated using pymatgen
data_MnTlH2OF4
_symmetry_space_group_name_H-M   'P 1'
_cell_length_a   7.69699510
_cell_length_b   7.69699510
_cell_length_c   10.75447843
_cell_angle_alpha   77.99378758
_cell_angle_beta   77.99378758
_cell_angle_gamma   51.83495279
_symmetry_Int_Tables_number   1
_chemical_formula_structural   MnTlH2OF4
_chemical_formula_sum   'Mn4 Tl4 H8 O4 F16'
_cell_volume   487.35590618
_cell_formula_units_Z   4
loop_
 _symmetry_equiv_pos_site_id
 _symmetry_equiv_pos_as_xyz
  1  'x, y, z'
loop_
 _atom_site_type_symbol
 _atom_site_label
 _atom_site_symmetry_multiplicity
 _atom_site_fract_x
 _atom_site_fract_y
 _atom_site_fract_z
 _atom_site_occupancy
  Mn  Mn0  1  0.00000000  0.50000000  0.50000000  1
  Mn  Mn1  1  0.50000000  0.00000000  0.00000000  1
  Mn  Mn2  1  0.24289000  0.75711000  0.25000000  1
  Mn  Mn3  1  0.75711000  0.24289000  0.75000000  1
  Tl  Tl0  1  0.65536300  0.17972000  0.43703600  1
  Tl  Tl1  1  0.82028000  0.34463700  0.06296400  1
  Tl  Tl2  1  0.34463700  0.82028000  0.56296400  1
  Tl  Tl3  1  0.17972000  0.65536300  0.93703600  1
  H  H0  1  0.08782100  0.27268400  0.29569400  1
  H  H1  1  0.72731600  0.91217900  0.20430600  1
  H  H2  1  0.91217900  0.72731600  0.70430600  1
  H  H3  1  0.27268400  0.08782100  0.79569400  1
  H  H4  1  0.17457400  0.41634900  0.24732500  1
  H  H5  1  0.58365100  0.82542600  0.25267500  1
  H  H6  1  0.82542600  0.58365100  0.75267500  1
  H  H7  1  0.41634900  0.17457400  0.74732500  1
  O  O0  1  0.04988900  0.42083200  0.29831500  1
  O  O1  1  0.57916800  0.95011100  0.20168500  1
  O  O2  1  0.95011100  0.57916800  0.70168500  1
  O  O3  1  0.42083200  0.04988900  0.79831500  1
  F  F0  1  0.14808200  0.63710500  0.43734800  1
  F  F1  1  0.36289500  0.85191800  0.06265200  1
  F  F2  1  0.85191800  0.36289500  0.56265200  1
  F  F3  1  0.63710500  0.14808200  0.93734800  1
  F  F4  1  0.72776000  0.77321200  0.46671400  1
  F  F5  1  0.22678800  0.27224000  0.03328600  1
  F  F6  1  0.27224000  0.22678800  0.53328600  1
  F  F7  1  0.77321200  0.72776000  0.96671400  1
  F  F8  1  0.97403600  0.88413400  0.18491700  1
  F  F9  1  0.11586600  0.02596400  0.31508300  1
  F  F10  1  0.02596400  0.11586600  0.81508300  1
  F  F11  1  0.88413400  0.97403600  0.68491700  1
  F  F12  1  0.36689900  0.48617900  0.18872500  1
  F  F13  1  0.51382100  0.63310100  0.31127500  1
  F  F14  1  0.63310100  0.51382100  0.81127500  1
  F  F15  1  0.48617900  0.36689900  0.68872500  1
loop_
_geom_bond_atom_site_label_1
_geom_bond_atom_site_label_2
_geom_bond_distance
_geom_bond_site_symmetry_2
Mn0 O2 2.266624 1_455
Mn0 O0 2.266624 1_555
Mn1 O1 2.266624 1_545
Mn1 O3 2.266624 1_554
H0 O0 0.992376 1_555
H1 O1 0.992376 1_555
H2 O2 0.992376 1_555
H3 O3 0.992376 1_555
H4 O0 0.985355 1_555
H5 O1 0.985355 1_555
H6 O2 0.985355 1_555
H7 O3 0.985355 1_555
F0 Mn0 1.933374 1_555
F0 Mn2 2.211854 1_555
F1 Mn1 1.933374 1_565
F1 Mn2 2.211854 1_555
F2 Mn0 1.933374 1_655
F2 Mn3 2.211854 1_555
F3 Mn1 1.933374 1_556
F3 Mn3 2.211854 1_555
F4 Mn0 1.869300 1_655
F4 Tl2 2.732121 1_555
F4 Tl0 2.775985 1_565
F5 Mn1 1.869300 1_555
F5 Tl3 2.732121 1_554
F5 Tl1 2.775985 1_455
F6 Mn0 1.869300 1_555
F6 Tl0 2.732121 1_555
F6 Tl2 2.775985 1_545
F7 Mn1 1.869300 1_566
F7 Tl1 2.732121 1_556
F7 Tl3 2.775985 1_655
F8 Mn2 1.882966 1_655
F9 Mn2 1.882966 1_545
F10 Mn3 1.882966 1_455
F11 Mn3 1.882966 1_565
F12 Mn2 1.882585 1_555
F13 Mn2 1.882585 1_555
F14 Mn3 1.882585 1_555
F15 Mn3 1.882585 1_555
