# generated using pymatgen
data_Ba(H8O5)2
_symmetry_space_group_name_H-M   'P 1'
_cell_length_a   6.44560250
_cell_length_b   6.44560250
_cell_length_c   11.18765057
_cell_angle_alpha   90.20317141
_cell_angle_beta   90.20317141
_cell_angle_gamma   90.00781554
_symmetry_Int_Tables_number   1
_chemical_formula_structural   Ba(H8O5)2
_chemical_formula_sum   'Ba2 H32 O20'
_cell_volume   464.79394966
_cell_formula_units_Z   2
loop_
 _symmetry_equiv_pos_site_id
 _symmetry_equiv_pos_as_xyz
  1  'x, y, z'
loop_
 _atom_site_type_symbol
 _atom_site_label
 _atom_site_symmetry_multiplicity
 _atom_site_fract_x
 _atom_site_fract_y
 _atom_site_fract_z
 _atom_site_occupancy
  Ba  Ba0  1  0.00129752  0.99870248  0.75000000  1
  Ba  Ba1  1  0.99870248  0.00129752  0.25000000  1
  H  H0  1  0.71814913  0.59766096  0.64427133  1
  H  H1  1  0.84955866  0.66639040  0.53057322  1
  H  H2  1  0.27655283  0.40557113  0.64867006  1
  H  H3  1  0.03677686  0.46113744  0.62946567  1
  H  H4  1  0.40291348  0.71964075  0.64507649  1
  H  H5  1  0.33319595  0.85000756  0.53112778  1
  H  H6  1  0.54138052  0.03748018  0.62890370  1
  H  H7  1  0.59546145  0.27759978  0.64788981  1
  H  H8  1  0.27759978  0.59546145  0.14788981  1
  H  H9  1  0.03748018  0.54138052  0.12890370  1
  H  H10  1  0.71964075  0.40291348  0.14507649  1
  H  H11  1  0.85000756  0.33319595  0.03112778  1
  H  H12  1  0.59766096  0.71814913  0.14427133  1
  H  H13  1  0.66639040  0.84955866  0.03057322  1
  H  H14  1  0.40557113  0.27655283  0.14867006  1
  H  H15  1  0.46113744  0.03677686  0.12946567  1
  H  H16  1  0.28185087  0.40233904  0.35572867  1
  H  H17  1  0.15044134  0.33360960  0.46942678  1
  H  H18  1  0.72344717  0.59442887  0.35132994  1
  H  H19  1  0.96322314  0.53886256  0.37053433  1
  H  H20  1  0.59708652  0.28035925  0.35492351  1
  H  H21  1  0.66680405  0.14999244  0.46887222  1
  H  H22  1  0.45861948  0.96251982  0.37109630  1
  H  H23  1  0.40453855  0.72240022  0.35211019  1
  H  H24  1  0.96251982  0.45861948  0.87109630  1
  H  H25  1  0.72240022  0.40453855  0.85211019  1
  H  H26  1  0.28035925  0.59708652  0.85492351  1
  H  H27  1  0.14999244  0.66680405  0.96887222  1
  H  H28  1  0.40233904  0.28185087  0.85572867  1
  H  H29  1  0.33360960  0.15044134  0.96942678  1
  H  H30  1  0.53886256  0.96322314  0.87053433  1
  H  H31  1  0.59442887  0.72344717  0.85132994  1
  O  O0  1  0.49892816  0.49754374  0.68377243  1
  O  O1  1  0.49754374  0.49892816  0.18377243  1
  O  O2  1  0.50107184  0.50245626  0.31622757  1
  O  O3  1  0.50245626  0.50107184  0.81622757  1
  O  O4  1  0.85526388  0.65747811  0.61892355  1
  O  O5  1  0.13829714  0.34616863  0.62333374  1
  O  O6  1  0.34259575  0.85666052  0.61958085  1
  O  O7  1  0.65511289  0.13998206  0.62197522  1
  O  O8  1  0.13998206  0.65511289  0.12197522  1
  O  O9  1  0.85666052  0.34259575  0.11958085  1
  O  O10  1  0.65747811  0.85526388  0.11892355  1
  O  O11  1  0.34616863  0.13829714  0.12333374  1
  O  O12  1  0.14473612  0.34252189  0.38107645  1
  O  O13  1  0.86170286  0.65383137  0.37666626  1
  O  O14  1  0.65740425  0.14333948  0.38041915  1
  O  O15  1  0.34488711  0.86001794  0.37802478  1
  O  O16  1  0.86001794  0.34488711  0.87802478  1
  O  O17  1  0.14333948  0.65740425  0.88041915  1
  O  O18  1  0.34252189  0.14473612  0.88107645  1
  O  O19  1  0.65383137  0.86170286  0.87666626  1
loop_
_geom_bond_atom_site_label_1
_geom_bond_atom_site_label_2
_geom_bond_distance
_geom_bond_site_symmetry_2
Ba0 O6 2.796503 1_555
Ba0 O17 2.796503 1_555
Ba0 O5 2.799056 1_565
Ba0 O19 2.799056 1_455
Ba0 O18 2.800099 1_565
Ba0 O4 2.800099 1_455
Ba0 O7 2.801226 1_465
Ba0 O16 2.801226 1_465
Ba1 O9 2.796503 1_555
Ba1 O14 2.796503 1_555
Ba1 O13 2.799056 1_545
Ba1 O11 2.799056 1_655
Ba1 O12 2.800099 1_655
Ba1 O10 2.800099 1_545
Ba1 O8 2.801226 1_645
Ba1 O15 2.801226 1_645
H0 O4 1.006287 1_555
H0 O0 1.616952 1_555
H1 O4 0.990857 1_555
H2 O5 1.009171 1_555
H2 O0 1.598204 1_555
H3 O5 0.991024 1_555
H4 O6 1.006779 1_555
H4 O0 1.619410 1_555
H5 O6 0.991996 1_555
H6 O7 0.990225 1_555
H7 O7 1.008845 1_555
H7 O0 1.598773 1_555
H8 O8 1.008845 1_555
H8 O1 1.598773 1_555
H9 O8 0.990225 1_555
H10 O9 1.006779 1_555
H10 O1 1.619410 1_555
H11 O9 0.991996 1_555
H12 O10 1.006287 1_555
H12 O1 1.616952 1_555
H13 O10 0.990857 1_555
H14 O11 1.009171 1_555
H14 O1 1.598204 1_555
H15 O11 0.991024 1_555
H16 O12 1.006287 1_555
H16 O2 1.616952 1_555
H17 O12 0.990857 1_555
H18 O13 1.009171 1_555
H18 O2 1.598204 1_555
H19 O13 0.991024 1_555
H20 O14 1.006779 1_555
H20 O2 1.619410 1_555
H21 O14 0.991996 1_555
H22 O15 0.990225 1_555
H23 O15 1.008845 1_555
H23 O2 1.598773 1_555
H24 O16 0.990225 1_555
H25 O16 1.008845 1_555
H25 O3 1.598773 1_555
H26 O17 1.006779 1_555
H26 O3 1.619410 1_555
H27 O17 0.991996 1_555
H28 O18 1.006287 1_555
H28 O3 1.616952 1_555
H29 O18 0.990857 1_555
H30 O19 0.991024 1_555
H31 O19 1.009171 1_555
H31 O3 1.598204 1_555
O0 O3 1.482049 1_555
O1 O2 1.482049 1_555
