# generated using pymatgen
data_Cs4CO4
_symmetry_space_group_name_H-M   'P 1'
_cell_length_a   6.93944787
_cell_length_b   6.93944787
_cell_length_c   6.60171970
_cell_angle_alpha   68.69794037
_cell_angle_beta   68.69794037
_cell_angle_gamma   52.22486326
_symmetry_Int_Tables_number   1
_chemical_formula_structural   Cs4CO4
_chemical_formula_sum   'Cs4 C1 O4'
_cell_volume   229.80021776
_cell_formula_units_Z   1
loop_
 _symmetry_equiv_pos_site_id
 _symmetry_equiv_pos_as_xyz
  1  'x, y, z'
loop_
 _atom_site_type_symbol
 _atom_site_label
 _atom_site_symmetry_multiplicity
 _atom_site_fract_x
 _atom_site_fract_y
 _atom_site_fract_z
 _atom_site_occupancy
  Cs  Cs0  1  0.83917200  0.44242200  0.10238400  1
  Cs  Cs1  1  0.15832500  0.56723000  0.43198300  1
  Cs  Cs2  1  0.55757800  0.16082800  0.89761600  1
  Cs  Cs3  1  0.43277000  0.84167500  0.56801700  1
  C  C0  1  0.07433100  0.92566900  0.00000000  1
  O  O0  1  0.86570800  0.99353100  0.18391200  1
  O  O1  1  0.00646900  0.13429200  0.81608800  1
  O  O2  1  0.13262100  0.71588600  0.93813800  1
  O  O3  1  0.28411400  0.86737900  0.06186200  1
loop_
_geom_bond_atom_site_label_1
_geom_bond_atom_site_label_2
_geom_bond_distance
_geom_bond_site_symmetry_2
Cs0 O1 2.791598 1_654
Cs0 O0 2.859764 1_545
Cs0 O3 3.140665 1_555
Cs0 O2 3.249432 1_654
Cs1 O0 2.663370 1_455
Cs1 O3 2.837373 1_555
Cs1 O2 3.078725 1_554
Cs1 O1 3.601201 1_555
Cs1 O2 3.756010 1_555
Cs2 O0 2.791598 1_546
Cs2 O1 2.859764 1_655
Cs2 O2 3.140665 1_555
Cs2 O3 3.249432 1_546
Cs3 O1 2.663370 1_565
Cs3 O2 2.837373 1_555
Cs3 O3 3.078725 1_556
Cs3 O0 3.601201 1_555
Cs3 O3 3.756010 1_555
C0 O2 1.428359 1_554
C0 O3 1.428359 1_555
C0 O0 1.447365 1_455
C0 O1 1.447365 1_564
