# generated using pymatgen
data_Ca3UN4
_symmetry_space_group_name_H-M   'P 1'
_cell_length_a   6.07905374
_cell_length_b   6.07899054
_cell_length_c   4.89455708
_cell_angle_alpha   66.26125720
_cell_angle_beta   66.25990285
_cell_angle_gamma   47.47883995
_symmetry_Int_Tables_number   1
_chemical_formula_structural   Ca3UN4
_chemical_formula_sum   'Ca3 U1 N4'
_cell_volume   119.72633212
_cell_formula_units_Z   1
loop_
 _symmetry_equiv_pos_site_id
 _symmetry_equiv_pos_as_xyz
  1  'x, y, z'
loop_
 _atom_site_type_symbol
 _atom_site_label
 _atom_site_symmetry_multiplicity
 _atom_site_fract_x
 _atom_site_fract_y
 _atom_site_fract_z
 _atom_site_occupancy
  Ca  Ca0  1  0.74828600  0.75171400  0.75171400  1
  Ca  Ca1  1  0.24828600  0.25171400  0.25171400  1
  Ca  Ca2  1  0.49872200  0.50127800  0.50127800  1
  U  U0  1  0.00053200  0.99946800  0.99946800  1
  N  N0  1  0.99949300  0.00050700  0.51565800  1
  N  N1  1  0.20033600  0.20406300  0.79966400  1
  N  N2  1  0.48434200  0.51565800  0.00050700  1
  N  N3  1  0.79593700  0.79966400  0.20406300  1
loop_
_geom_bond_atom_site_label_1
_geom_bond_atom_site_label_2
_geom_bond_distance
_geom_bond_site_symmetry_2
Ca0 N3 2.492762 1_555
Ca0 N1 2.492762 1_655
Ca0 N1 2.494198 1_565
Ca0 N3 2.494198 1_556
Ca0 N0 2.499747 1_565
Ca0 N2 2.499747 1_556
Ca1 N3 2.492762 1_545
Ca1 N1 2.492762 1_554
Ca1 N3 2.494198 1_455
Ca1 N1 2.494198 1_555
Ca1 N2 2.499747 1_555
Ca1 N0 2.499747 1_455
Ca2 N2 2.444516 1_556
Ca2 N0 2.444516 1_465
Ca2 N2 2.452065 1_555
Ca2 N0 2.452065 1_555
Ca2 N3 2.976588 1_555
Ca2 N1 2.976588 1_555
N0 U0 2.368041 1_645
N0 U0 2.526526 1_644
N1 U0 2.021099 1_545
N2 U0 2.368041 1_554
N2 U0 2.526526 1_644
N3 U0 2.021099 1_654
