# generated using pymatgen
data_GdSi
_symmetry_space_group_name_H-M   'P 1'
_cell_length_a   3.89026396
_cell_length_b   5.76425591
_cell_length_c   7.94415030
_cell_angle_alpha   89.97035387
_cell_angle_beta   89.99931667
_cell_angle_gamma   89.99964022
_symmetry_Int_Tables_number   1
_chemical_formula_structural   GdSi
_chemical_formula_sum   'Gd4 Si4'
_cell_volume   178.14339224
_cell_formula_units_Z   4
loop_
 _symmetry_equiv_pos_site_id
 _symmetry_equiv_pos_as_xyz
  1  'x, y, z'
loop_
 _atom_site_type_symbol
 _atom_site_label
 _atom_site_symmetry_multiplicity
 _atom_site_fract_x
 _atom_site_fract_y
 _atom_site_fract_z
 _atom_site_occupancy
  Gd  Gd0  1  0.75000000  0.61540494  0.67924308  1
  Gd  Gd1  1  0.25000000  0.11606768  0.82077221  1
  Gd  Gd2  1  0.25000100  0.38442457  0.32082377  1
  Gd  Gd3  1  0.75000100  0.88430429  0.17915327  1
  Si  Si0  1  0.75000200  0.12018905  0.53354225  1
  Si  Si1  1  0.75000000  0.37884004  0.03393748  1
  Si  Si2  1  0.25000100  0.87920511  0.46626045  1
  Si  Si3  1  0.24999900  0.62156431  0.96626649  1
loop_
_geom_bond_atom_site_label_1
_geom_bond_atom_site_label_2
_geom_bond_distance
_geom_bond_site_symmetry_2
Gd0 Si2 2.992634 1_655
Gd0 Si2 2.992643 1_555
Gd0 Si3 2.997317 1_555
Gd0 Si3 2.997347 1_655
Gd0 Si0 3.080847 1_555
Gd0 Si1 3.129724 1_556
Gd0 Si0 3.130916 1_565
Gd1 Si1 2.991323 1_456
Gd1 Si1 2.991362 1_556
Gd1 Si0 2.998429 1_555
Gd1 Si0 2.998454 1_455
Gd1 Si3 3.075315 1_545
Gd1 Si2 3.130437 1_545
Gd1 Si3 3.135239 1_555
Gd2 Si0 2.992719 1_455
Gd2 Si0 2.992738 1_555
Gd2 Si1 2.996444 1_555
Gd2 Si1 2.996485 1_455
Gd2 Si2 3.077732 1_555
Gd2 Si3 3.130188 1_554
Gd2 Si2 3.132474 1_545
Gd3 Si3 2.989971 1_654
Gd3 Si3 2.990020 1_554
Gd3 Si2 2.997729 1_555
Gd3 Si2 2.997764 1_655
Gd3 Si1 3.074658 1_565
Gd3 Si0 3.127102 1_565
Gd3 Si1 3.134250 1_555
Si0 Si2 2.449388 1_645
Si0 Si2 2.449418 1_545
Si1 Si3 2.455464 1_654
Si1 Si3 2.455467 1_554
