# generated using pymatgen
data_BaLa2MnS5
_symmetry_space_group_name_H-M   'P 1'
_cell_length_a   8.92655177
_cell_length_b   8.92655177
_cell_length_c   8.92655177
_cell_angle_alpha   126.55157452
_cell_angle_beta   126.55157452
_cell_angle_gamma   78.98346549
_symmetry_Int_Tables_number   1
_chemical_formula_structural   BaLa2MnS5
_chemical_formula_sum   'Ba2 La4 Mn2 S10'
_cell_volume   444.02546322
_cell_formula_units_Z   2
loop_
 _symmetry_equiv_pos_site_id
 _symmetry_equiv_pos_as_xyz
  1  'x, y, z'
loop_
 _atom_site_type_symbol
 _atom_site_label
 _atom_site_symmetry_multiplicity
 _atom_site_fract_x
 _atom_site_fract_y
 _atom_site_fract_z
 _atom_site_occupancy
  Ba  Ba0  1  0.25000000  0.25000000  0.00000000  1
  Ba  Ba1  1  0.75000000  0.75000000  0.00000000  1
  La  La0  1  0.33711300  0.16288700  0.50000000  1
  La  La1  1  0.16288700  0.66288700  0.82577400  1
  La  La2  1  0.83711300  0.33711300  0.17422600  1
  La  La3  1  0.66288700  0.83711300  0.50000000  1
  Mn  Mn0  1  0.75000000  0.25000000  0.50000000  1
  Mn  Mn1  1  0.25000000  0.75000000  0.50000000  1
  S  S0  1  0.48469100  0.98469100  0.19899000  1
  S  S1  1  0.21429800  0.71429800  0.19899000  1
  S  S2  1  0.51530900  0.01530900  0.80101000  1
  S  S3  1  0.01530900  0.21429800  0.50000000  1
  S  S4  1  0.71429800  0.51530900  0.50000000  1
  S  S5  1  0.98469100  0.78570200  0.50000000  1
  S  S6  1  0.28570200  0.48469100  0.50000000  1
  S  S7  1  0.78570200  0.28570200  0.80101000  1
  S  S8  1  0.50000000  0.50000000  0.00000000  1
  S  S9  1  0.00000000  0.00000000  0.00000000  1
loop_
_geom_bond_atom_site_label_1
_geom_bond_atom_site_label_2
_geom_bond_distance
_geom_bond_site_symmetry_2
Ba0 S7 3.440201 1_454
Ba0 S1 3.440201 1_555
Ba0 S6 3.440202 1_555
Ba0 S5 3.440202 1_444
Ba0 S3 3.440202 1_554
Ba0 S4 3.440202 1_555
Ba0 S2 3.440207 1_554
Ba0 S0 3.440207 1_545
Ba0 S8 3.444383 1_555
Ba0 S9 3.444383 1_555
Ba1 S1 3.440201 1_655
Ba1 S7 3.440201 1_554
Ba1 S3 3.440202 1_665
Ba1 S5 3.440202 1_555
Ba1 S6 3.440202 1_554
Ba1 S4 3.440202 1_554
Ba1 S2 3.440207 1_564
Ba1 S0 3.440207 1_555
Ba1 S8 3.444383 1_555
Ba1 S9 3.444383 1_665
La0 S3 2.821100 1_555
La0 S6 2.821100 1_555
La0 S8 3.005883 1_556
La0 S9 3.005883 1_555
La0 S0 3.132088 1_545
La0 S2 3.132088 1_555
La0 S7 3.132096 1_555
La0 S1 3.132096 1_545
La1 S0 2.821100 1_556
La1 S1 2.821109 1_556
La1 S9 3.005883 1_566
La1 S8 3.005883 1_556
La1 S5 3.132095 1_455
La1 S6 3.132095 1_555
La1 S4 3.132095 1_455
La1 S3 3.132095 1_555
La2 S2 2.821100 1_554
La2 S7 2.821109 1_554
La2 S8 3.005883 1_555
La2 S9 3.005883 1_655
La2 S5 3.132095 1_555
La2 S4 3.132095 1_555
La2 S3 3.132095 1_655
La2 S6 3.132095 1_655
La3 S4 2.821100 1_555
La3 S5 2.821100 1_555
La3 S9 3.005883 1_666
La3 S8 3.005883 1_555
La3 S0 3.132088 1_555
La3 S2 3.132088 1_565
La3 S1 3.132096 1_555
La3 S7 3.132096 1_565
Mn0 S7 2.328494 1_555
Mn0 S3 2.328503 1_655
Mn0 S4 2.328503 1_555
Mn0 S0 2.328504 1_545
Mn1 S1 2.328494 1_555
Mn1 S5 2.328503 1_455
Mn1 S6 2.328503 1_555
Mn1 S2 2.328504 1_565
