# generated using pymatgen
data_SiO2
_symmetry_space_group_name_H-M   'P 1'
_cell_length_a   22.92815328
_cell_length_b   22.92815328
_cell_length_c   9.83369500
_cell_angle_alpha   90.00000000
_cell_angle_beta   90.00000000
_cell_angle_gamma   119.99999794
_symmetry_Int_Tables_number   1
_chemical_formula_structural   SiO2
_chemical_formula_sum   'Si48 O96'
_cell_volume   4476.98385187
_cell_formula_units_Z   48
loop_
 _symmetry_equiv_pos_site_id
 _symmetry_equiv_pos_as_xyz
  1  'x, y, z'
loop_
 _atom_site_type_symbol
 _atom_site_label
 _atom_site_symmetry_multiplicity
 _atom_site_fract_x
 _atom_site_fract_y
 _atom_site_fract_z
 _atom_site_occupancy
  Si  Si0  1  0.46928400  0.66699100  0.33755100  1
  Si  Si1  1  0.19770700  0.53071600  0.66244900  1
  Si  Si2  1  0.92546900  0.39212500  0.15408900  1
  Si  Si3  1  0.53334400  0.92546900  0.84591100  1
  Si  Si4  1  0.66699100  0.19770700  0.66244900  1
  Si  Si5  1  0.46665600  0.39212500  0.84591100  1
  Si  Si6  1  0.92546900  0.39212500  0.84591100  1
  Si  Si7  1  0.80229300  0.33300900  0.33755100  1
  Si  Si8  1  0.80229300  0.46928400  0.33755100  1
  Si  Si9  1  0.53071600  0.33300900  0.33755100  1
  Si  Si10  1  0.53334400  0.92546900  0.15408900  1
  Si  Si11  1  0.46928400  0.80229300  0.33755100  1
  Si  Si12  1  0.53334400  0.60787500  0.84591100  1
  Si  Si13  1  0.33300900  0.53071600  0.66244900  1
  Si  Si14  1  0.07453100  0.46665600  0.84591100  1
  Si  Si15  1  0.19770700  0.66699100  0.33755100  1
  Si  Si16  1  0.60787500  0.07453100  0.84591100  1
  Si  Si17  1  0.07453100  0.46665600  0.15408900  1
  Si  Si18  1  0.46665600  0.07453100  0.84591100  1
  Si  Si19  1  0.53334400  0.60787500  0.15408900  1
  Si  Si20  1  0.53071600  0.19770700  0.33755100  1
  Si  Si21  1  0.39212500  0.46665600  0.84591100  1
  Si  Si22  1  0.66699100  0.19770700  0.33755100  1
  Si  Si23  1  0.66699100  0.46928400  0.33755100  1
  Si  Si24  1  0.39212500  0.46665600  0.15408900  1
  Si  Si25  1  0.07453100  0.60787500  0.15408900  1
  Si  Si26  1  0.39212500  0.92546900  0.15408900  1
  Si  Si27  1  0.46928400  0.66699100  0.66244900  1
  Si  Si28  1  0.60787500  0.53334400  0.15408900  1
  Si  Si29  1  0.33300900  0.80229300  0.33755100  1
  Si  Si30  1  0.39212500  0.92546900  0.84591100  1
  Si  Si31  1  0.19770700  0.53071600  0.33755100  1
  Si  Si32  1  0.80229300  0.46928400  0.66244900  1
  Si  Si33  1  0.60787500  0.53334400  0.84591100  1
  Si  Si34  1  0.46928400  0.80229300  0.66244900  1
  Si  Si35  1  0.80229300  0.33300900  0.66244900  1
  Si  Si36  1  0.46665600  0.39212500  0.15408900  1
  Si  Si37  1  0.19770700  0.66699100  0.66244900  1
  Si  Si38  1  0.92546900  0.53334400  0.15408900  1
  Si  Si39  1  0.07453100  0.60787500  0.84591100  1
  Si  Si40  1  0.92546900  0.53334400  0.84591100  1
  Si  Si41  1  0.33300900  0.53071600  0.33755100  1
  Si  Si42  1  0.53071600  0.33300900  0.66244900  1
  Si  Si43  1  0.66699100  0.46928400  0.66244900  1
  Si  Si44  1  0.46665600  0.07453100  0.15408900  1
  Si  Si45  1  0.60787500  0.07453100  0.15408900  1
  Si  Si46  1  0.53071600  0.19770700  0.66244900  1
  Si  Si47  1  0.33300900  0.80229300  0.66244900  1
  O  O0  1  0.39438100  0.60561900  0.29784900  1
  O  O1  1  0.39438100  0.60561900  0.70215100  1
  O  O2  1  0.59537000  0.59537000  0.80294800  1
  O  O3  1  0.60561900  0.39438100  0.70215100  1
  O  O4  1  0.47224800  0.13153500  0.74070700  1
  O  O5  1  0.86846500  0.52775200  0.25929300  1
  O  O6  1  0.46389000  0.53611000  0.84096900  1
  O  O7  1  0.33304200  0.81506100  0.50000000  1
  O  O8  1  0.90613600  0.54481600  0.00000000  1
  O  O9  1  0.59537000  0.59537000  0.19705200  1
  O  O10  1  0.53611000  0.07222000  0.84096900  1
  O  O11  1  0.21123700  0.60561900  0.29784900  1
  O  O12  1  0.65928700  0.13153500  0.25929300  1
  O  O13  1  0.09386400  0.63868000  0.00000000  1
  O  O14  1  0.65928700  0.52775200  0.25929300  1
  O  O15  1  0.73723600  0.26276400  0.70927300  1
  O  O16  1  0.39438100  0.78876300  0.70215100  1
  O  O17  1  0.18493900  0.66695800  0.50000000  1
  O  O18  1  0.78876300  0.39438100  0.29784900  1
  O  O19  1  0.00000000  0.40463000  0.19705200  1
  O  O20  1  0.59537000  0.00000000  0.19705200  1
  O  O21  1  0.07222000  0.53611000  0.15903100  1
  O  O22  1  0.52552900  0.26276400  0.29072700  1
  O  O23  1  0.21123700  0.60561900  0.70215100  1
  O  O24  1  0.45518400  0.36132000  0.00000000  1
  O  O25  1  0.07222000  0.53611000  0.84096900  1
  O  O26  1  0.63868000  0.09386400  0.00000000  1
  O  O27  1  0.13153500  0.47224800  0.74070700  1
  O  O28  1  0.73723600  0.26276400  0.29072700  1
  O  O29  1  0.78876300  0.39438100  0.70215100  1
  O  O30  1  0.34071300  0.86846500  0.74070700  1
  O  O31  1  0.92778000  0.46389000  0.84096900  1
  O  O32  1  0.47224800  0.34071300  0.25929300  1
  O  O33  1  0.66695800  0.18493900  0.50000000  1
  O  O34  1  0.26276400  0.73723600  0.70927300  1
  O  O35  1  0.13153500  0.65928700  0.25929300  1
  O  O36  1  0.36132000  0.90613600  0.00000000  1
  O  O37  1  0.18493900  0.51798100  0.50000000  1
  O  O38  1  0.66695800  0.48201900  0.50000000  1
  O  O39  1  0.48201900  0.66695800  0.50000000  1
  O  O40  1  0.39438100  0.78876300  0.29784900  1
  O  O41  1  0.52775200  0.65928700  0.74070700  1
  O  O42  1  0.00000000  0.59537000  0.80294800  1
  O  O43  1  0.09386400  0.45518400  0.00000000  1
  O  O44  1  0.51798100  0.18493900  0.50000000  1
  O  O45  1  0.52775200  0.86846500  0.74070700  1
  O  O46  1  0.53611000  0.46389000  0.84096900  1
  O  O47  1  0.73723600  0.47447100  0.70927300  1
  O  O48  1  0.00000000  0.59537000  0.19705200  1
  O  O49  1  0.65928700  0.13153500  0.74070700  1
  O  O50  1  0.52552900  0.26276400  0.70927300  1
  O  O51  1  0.53611000  0.07222000  0.15903100  1
  O  O52  1  0.40463000  0.00000000  0.19705200  1
  O  O53  1  0.40463000  0.00000000  0.80294800  1
  O  O54  1  0.90613600  0.36132000  0.00000000  1
  O  O55  1  0.40463000  0.40463000  0.19705200  1
  O  O56  1  0.86846500  0.52775200  0.74070700  1
  O  O57  1  0.65928700  0.52775200  0.74070700  1
  O  O58  1  0.63868000  0.54481600  0.00000000  1
  O  O59  1  0.81506100  0.33304200  0.50000000  1
  O  O60  1  0.46389000  0.53611000  0.15903100  1
  O  O61  1  0.26276400  0.73723600  0.29072700  1
  O  O62  1  0.40463000  0.40463000  0.80294800  1
  O  O63  1  0.00000000  0.40463000  0.80294800  1
  O  O64  1  0.47224800  0.13153500  0.25929300  1
  O  O65  1  0.59537000  0.00000000  0.80294800  1
  O  O66  1  0.54481600  0.63868000  0.00000000  1
  O  O67  1  0.60561900  0.21123700  0.70215100  1
  O  O68  1  0.26276400  0.52552900  0.29072700  1
  O  O69  1  0.34071300  0.47224800  0.74070700  1
  O  O70  1  0.46389000  0.92778000  0.84096900  1
  O  O71  1  0.52775200  0.86846500  0.25929300  1
  O  O72  1  0.33304200  0.51798100  0.50000000  1
  O  O73  1  0.60561900  0.21123700  0.29784900  1
  O  O74  1  0.47447100  0.73723600  0.29072700  1
  O  O75  1  0.13153500  0.65928700  0.74070700  1
  O  O76  1  0.51798100  0.33304200  0.50000000  1
  O  O77  1  0.47224800  0.34071300  0.74070700  1
  O  O78  1  0.81506100  0.48201900  0.50000000  1
  O  O79  1  0.45518400  0.09386400  0.00000000  1
  O  O80  1  0.47447100  0.73723600  0.70927300  1
  O  O81  1  0.34071300  0.86846500  0.25929300  1
  O  O82  1  0.86846500  0.34071300  0.74070700  1
  O  O83  1  0.92778000  0.46389000  0.15903100  1
  O  O84  1  0.52775200  0.65928700  0.25929300  1
  O  O85  1  0.36132000  0.45518400  0.00000000  1
  O  O86  1  0.53611000  0.46389000  0.15903100  1
  O  O87  1  0.86846500  0.34071300  0.25929300  1
  O  O88  1  0.48201900  0.81506100  0.50000000  1
  O  O89  1  0.13153500  0.47224800  0.25929300  1
  O  O90  1  0.54481600  0.90613600  0.00000000  1
  O  O91  1  0.34071300  0.47224800  0.25929300  1
  O  O92  1  0.26276400  0.52552900  0.70927300  1
  O  O93  1  0.60561900  0.39438100  0.29784900  1
  O  O94  1  0.46389000  0.92778000  0.15903100  1
  O  O95  1  0.73723600  0.47447100  0.29072700  1
loop_
_geom_bond_atom_site_label_1
_geom_bond_atom_site_label_2
_geom_bond_distance
_geom_bond_site_symmetry_2
O0 Si0 1.632572 1_555
O0 Si41 1.632572 1_555
O1 Si27 1.632572 1_555
O1 Si13 1.632572 1_555
O2 Si12 1.640408 1_555
O2 Si33 1.640408 1_555
O3 Si43 1.632572 1_555
O3 Si42 1.632572 1_555
O4 Si18 1.620921 1_555
O4 Si46 1.630134 1_555
O5 Si38 1.620921 1_555
O5 Si8 1.630134 1_555
O6 Si12 1.620325 1_555
O6 Si21 1.620325 1_555
O7 Si47 1.624008 1_555
O7 Si29 1.624008 1_555
O8 Si38 1.636549 1_555
O8 Si40 1.636549 1_554
O9 Si28 1.640408 1_555
O9 Si19 1.640408 1_555
O10 Si18 1.620325 1_555
O10 Si16 1.620325 1_555
O11 Si15 1.632558 1_555
O11 Si31 1.632580 1_555
O12 Si45 1.620921 1_555
O12 Si22 1.630134 1_555
O13 Si25 1.636549 1_555
O13 Si39 1.636549 1_554
O14 Si28 1.620921 1_555
O14 Si23 1.630134 1_555
O15 Si35 1.621289 1_555
O15 Si4 1.621289 1_555
O16 Si47 1.632558 1_555
O16 Si34 1.632580 1_555
O17 Si37 1.624008 1_555
O17 Si15 1.624008 1_555
O18 Si7 1.632558 1_555
O18 Si8 1.632580 1_555
O19 Si2 1.640408 1_455
O19 Si17 1.640408 1_555
O20 Si45 1.640408 1_555
O20 Si10 1.640408 1_545
O21 Si17 1.620325 1_555
O21 Si25 1.620325 1_555
O22 Si20 1.621277 1_555
O22 Si9 1.621299 1_555
O23 Si37 1.632558 1_555
O23 Si1 1.632580 1_555
O24 Si36 1.636549 1_555
O24 Si5 1.636549 1_554
O25 Si14 1.620325 1_555
O25 Si39 1.620325 1_555
O26 Si45 1.636549 1_555
O26 Si16 1.636549 1_554
O27 Si14 1.620921 1_555
O27 Si1 1.630134 1_555
O28 Si7 1.621289 1_555
O28 Si22 1.621289 1_555
O29 Si35 1.632558 1_555
O29 Si32 1.632580 1_555
O30 Si30 1.620921 1_555
O30 Si47 1.630134 1_555
O31 Si40 1.620325 1_555
O31 Si6 1.620325 1_555
O32 Si36 1.620921 1_555
O32 Si9 1.630134 1_555
O33 Si4 1.624008 1_555
O33 Si22 1.624008 1_555
O34 Si47 1.621289 1_555
O34 Si37 1.621289 1_555
O35 Si25 1.620921 1_555
O35 Si15 1.630134 1_555
O36 Si26 1.636549 1_555
O36 Si30 1.636549 1_554
O37 Si1 1.624008 1_555
O37 Si31 1.624008 1_555
O38 Si43 1.624008 1_555
O38 Si23 1.624008 1_555
O39 Si27 1.624008 1_555
O39 Si0 1.624008 1_555
O40 Si29 1.632558 1_555
O40 Si11 1.632580 1_555
O41 Si12 1.620921 1_555
O41 Si27 1.630134 1_555
O42 Si39 1.640408 1_555
O42 Si40 1.640408 1_455
O43 Si17 1.636549 1_555
O43 Si14 1.636549 1_554
O44 Si46 1.624008 1_555
O44 Si20 1.624008 1_555
O45 Si3 1.620921 1_555
O45 Si34 1.630134 1_555
O46 Si33 1.620325 1_555
O46 Si5 1.620325 1_555
O47 Si32 1.621277 1_555
O47 Si43 1.621299 1_555
O48 Si25 1.640408 1_555
O48 Si38 1.640408 1_455
O49 Si16 1.620921 1_555
O49 Si4 1.630134 1_555
O50 Si46 1.621277 1_555
O50 Si42 1.621299 1_555
O51 Si44 1.620325 1_555
O51 Si45 1.620325 1_555
O52 Si26 1.640408 1_545
O52 Si44 1.640408 1_555
O53 Si30 1.640408 1_545
O53 Si18 1.640408 1_555
O54 Si2 1.636549 1_555
O54 Si6 1.636549 1_554
O55 Si36 1.640408 1_555
O55 Si24 1.640408 1_555
O56 Si40 1.620921 1_555
O56 Si32 1.630134 1_555
O57 Si33 1.620921 1_555
O57 Si43 1.630134 1_555
O58 Si28 1.636549 1_555
O58 Si33 1.636549 1_554
O59 Si35 1.624008 1_555
O59 Si7 1.624008 1_555
O60 Si19 1.620325 1_555
O60 Si24 1.620325 1_555
O61 Si29 1.621289 1_555
O61 Si15 1.621289 1_555
O62 Si21 1.640408 1_555
O62 Si5 1.640408 1_555
O63 Si6 1.640408 1_455
O63 Si14 1.640408 1_555
O64 Si44 1.620921 1_555
O64 Si20 1.630134 1_555
O65 Si16 1.640408 1_555
O65 Si3 1.640408 1_545
O66 Si19 1.636549 1_555
O66 Si12 1.636549 1_554
O67 Si4 1.632558 1_555
O67 Si46 1.632580 1_555
O68 Si31 1.621277 1_555
O68 Si41 1.621299 1_555
O69 Si21 1.620921 1_555
O69 Si13 1.630134 1_555
O70 Si3 1.620325 1_555
O70 Si30 1.620325 1_555
O71 Si10 1.620921 1_555
O71 Si11 1.630134 1_555
O72 Si13 1.624008 1_555
O72 Si41 1.624008 1_555
O73 Si22 1.632558 1_555
O73 Si20 1.632580 1_555
O74 Si11 1.621277 1_555
O74 Si0 1.621299 1_555
O75 Si39 1.620921 1_555
O75 Si37 1.630134 1_555
O76 Si42 1.624008 1_555
O76 Si9 1.624008 1_555
O77 Si5 1.620921 1_555
O77 Si42 1.630134 1_555
O78 Si32 1.624008 1_555
O78 Si8 1.624008 1_555
O79 Si44 1.636549 1_555
O79 Si18 1.636549 1_554
O80 Si34 1.621277 1_555
O80 Si27 1.621299 1_555
O81 Si26 1.620921 1_555
O81 Si29 1.630134 1_555
O82 Si6 1.620921 1_555
O82 Si35 1.630134 1_555
O83 Si38 1.620325 1_555
O83 Si2 1.620325 1_555
O84 Si19 1.620921 1_555
O84 Si0 1.630134 1_555
O85 Si24 1.636549 1_555
O85 Si21 1.636549 1_554
O86 Si28 1.620325 1_555
O86 Si36 1.620325 1_555
O87 Si2 1.620921 1_555
O87 Si7 1.630134 1_555
O88 Si34 1.624008 1_555
O88 Si11 1.624008 1_555
O89 Si17 1.620921 1_555
O89 Si31 1.630134 1_555
O90 Si10 1.636549 1_555
O90 Si3 1.636549 1_554
O91 Si24 1.620921 1_555
O91 Si41 1.630134 1_555
O92 Si1 1.621277 1_555
O92 Si13 1.621299 1_555
O93 Si23 1.632572 1_555
O93 Si9 1.632572 1_555
O94 Si10 1.620325 1_555
O94 Si26 1.620325 1_555
O95 Si8 1.621277 1_555
O95 Si23 1.621299 1_555
