# generated using pymatgen
data_Cr2CdH14(NO2)4
_symmetry_space_group_name_H-M   'P 1'
_cell_length_a   7.03145654
_cell_length_b   7.03145654
_cell_length_c   7.67058476
_cell_angle_alpha   72.69594095
_cell_angle_beta   72.69594095
_cell_angle_gamma   51.97788597
_symmetry_Int_Tables_number   1
_chemical_formula_structural   Cr2CdH14(NO2)4
_chemical_formula_sum   'Cr2 Cd1 H14 N4 O8'
_cell_volume   281.92772328
_cell_formula_units_Z   1
loop_
 _symmetry_equiv_pos_site_id
 _symmetry_equiv_pos_as_xyz
  1  'x, y, z'
loop_
 _atom_site_type_symbol
 _atom_site_label
 _atom_site_symmetry_multiplicity
 _atom_site_fract_x
 _atom_site_fract_y
 _atom_site_fract_z
 _atom_site_occupancy
  Cr  Cr0  1  0.65903000  0.65903000  0.77958400  1
  Cr  Cr1  1  0.34097000  0.34097000  0.22041600  1
  Cd  Cd0  1  0.00000000  0.00000000  0.00000000  1
  H  H0  1  0.92418500  0.92418500  0.69341600  1
  H  H1  1  0.07581500  0.07581500  0.30658500  1
  H  H2  1  0.91105200  0.17966400  0.64129800  1
  H  H3  1  0.17966400  0.91105200  0.64129800  1
  H  H4  1  0.08894800  0.82033600  0.35870200  1
  H  H5  1  0.82033600  0.08894800  0.35870200  1
  H  H6  1  0.40062100  0.40062100  0.77147600  1
  H  H7  1  0.59937900  0.59937900  0.22852400  1
  H  H8  1  0.35334400  0.35334400  0.59139800  1
  H  H9  1  0.64665600  0.64665600  0.40860200  1
  H  H10  1  0.14458600  0.41317000  0.79071700  1
  H  H11  1  0.41317000  0.14458600  0.79071700  1
  H  H12  1  0.85541400  0.58683000  0.20928300  1
  H  H13  1  0.58683000  0.85541400  0.20928300  1
  N  N0  1  0.00271000  0.00271000  0.70689200  1
  N  N1  1  0.99729000  0.99729000  0.29310800  1
  N  N2  1  0.32858200  0.32858200  0.73541000  1
  N  N3  1  0.67141800  0.67141800  0.26459000  1
  O  O0  1  0.86439000  0.41914700  0.91171000  1
  O  O1  1  0.41914700  0.86439000  0.91171000  1
  O  O2  1  0.13561000  0.58085300  0.08829000  1
  O  O3  1  0.58085300  0.13561000  0.08829000  1
  O  O4  1  0.56864900  0.56864900  0.66178500  1
  O  O5  1  0.43135100  0.43135100  0.33821500  1
  O  O6  1  0.78836900  0.78836900  0.63274700  1
  O  O7  1  0.21163100  0.21163100  0.36725300  1
loop_
_geom_bond_atom_site_label_1
_geom_bond_atom_site_label_2
_geom_bond_distance
_geom_bond_site_symmetry_2
Cr0 O6 1.650144 1_555
Cr0 O4 1.674805 1_555
Cr0 O0 1.676434 1_555
Cr0 O1 1.676434 1_555
Cr1 O7 1.650144 1_555
Cr1 O5 1.674805 1_555
Cr1 O3 1.676434 1_555
Cr1 O2 1.676434 1_555
Cd0 N1 2.237208 1_445
Cd0 N0 2.237208 1_554
Cd0 O0 2.405967 1_454
Cd0 O1 2.405967 1_544
Cd0 O2 2.405967 1_545
Cd0 O3 2.405967 1_455
H0 N0 1.031451 1_665
H1 N1 1.031454 1_445
H2 N0 1.024335 1_655
H3 N0 1.024335 1_565
H4 N1 1.024335 1_455
H5 N1 1.024335 1_545
H6 N2 1.035623 1_555
H7 N3 1.035623 1_555
H8 N2 1.043747 1_555
H9 N3 1.043747 1_555
H10 N2 1.040758 1_555
H11 N2 1.040758 1_555
H12 N3 1.040758 1_555
H13 N3 1.040758 1_555
