# generated using pymatgen
data_SrNd10Se12(Cl2O9)4
_symmetry_space_group_name_H-M   'P 1'
_cell_length_a   15.64684200
_cell_length_b   13.41195700
_cell_length_c   13.55671168
_cell_angle_alpha   74.31016397
_cell_angle_beta   90.00000000
_cell_angle_gamma   90.00000000
_symmetry_Int_Tables_number   1
_chemical_formula_structural   SrNd10Se12(Cl2O9)4
_chemical_formula_sum   'Sr2 Nd20 Se24 Cl16 O72'
_cell_volume   2738.93739559
_cell_formula_units_Z   2
loop_
 _symmetry_equiv_pos_site_id
 _symmetry_equiv_pos_as_xyz
  1  'x, y, z'
loop_
 _atom_site_type_symbol
 _atom_site_label
 _atom_site_symmetry_multiplicity
 _atom_site_fract_x
 _atom_site_fract_y
 _atom_site_fract_z
 _atom_site_occupancy
  Sr  Sr0  1  0.60155800  0.02280800  0.83352900  1
  Sr  Sr1  1  0.39844200  0.52280800  0.33352900  1
  Nd  Nd0  1  0.00884400  0.01280800  0.49727400  1
  Nd  Nd1  1  0.24737500  0.04914300  0.46334400  1
  Nd  Nd2  1  0.75427900  0.25058600  0.25116300  1
  Nd  Nd3  1  0.41015600  0.25492400  0.24816600  1
  Nd  Nd4  1  0.07242600  0.25619900  0.23538300  1
  Nd  Nd5  1  0.11098600  0.19519900  0.99396400  1
  Nd  Nd6  1  0.10989000  0.31542700  0.50634200  1
  Nd  Nd7  1  0.23433800  0.46559900  0.00108700  1
  Nd  Nd8  1  0.61721700  0.47481500  0.69563900  1
  Nd  Nd9  1  0.99115600  0.51280800  0.99727400  1
  Nd  Nd10  1  0.49967500  0.50086800  0.98131300  1
  Nd  Nd11  1  0.75262500  0.54914300  0.96334400  1
  Nd  Nd12  1  0.88901400  0.69519900  0.49396400  1
  Nd  Nd13  1  0.89011000  0.81542700  0.00634200  1
  Nd  Nd14  1  0.92757400  0.75619900  0.73538300  1
  Nd  Nd15  1  0.58984400  0.75492400  0.74816600  1
  Nd  Nd16  1  0.24572100  0.75058600  0.75116300  1
  Nd  Nd17  1  0.38278300  0.97481500  0.19563900  1
  Nd  Nd18  1  0.76566200  0.96559900  0.50108700  1
  Nd  Nd19  1  0.50032500  0.00086800  0.48131300  1
  Se  Se0  1  0.66234000  0.98697400  0.28290200  1
  Se  Se1  1  0.93599400  0.07861400  0.20936400  1
  Se  Se2  1  0.23412900  0.05212600  0.71798300  1
  Se  Se3  1  0.86234500  0.29796300  0.96589200  1
  Se  Se4  1  0.54842100  0.20909200  0.08507700  1
  Se  Se5  1  0.70424000  0.20323600  0.63614400  1
  Se  Se6  1  0.55998300  0.28950300  0.41377000  1
  Se  Se7  1  0.83071800  0.19177200  0.52671900  1
  Se  Se8  1  0.72881800  0.26078200  0.94094600  1
  Se  Se9  1  0.94441200  0.42366300  0.29426600  1
  Se  Se10  1  0.63378000  0.50448500  0.19226400  1
  Se  Se11  1  0.76587100  0.55212600  0.21798300  1
  Se  Se12  1  0.22717800  0.35991300  0.77362300  1
  Se  Se13  1  0.33766000  0.48697400  0.78290200  1
  Se  Se14  1  0.06400600  0.57861400  0.70936400  1
  Se  Se15  1  0.29576000  0.70323600  0.13614400  1
  Se  Se16  1  0.13765500  0.79796300  0.46589200  1
  Se  Se17  1  0.45157900  0.70909200  0.58507700  1
  Se  Se18  1  0.27118200  0.76078200  0.44094600  1
  Se  Se19  1  0.44001700  0.78950300  0.91377000  1
  Se  Se20  1  0.16928200  0.69177200  0.02671900  1
  Se  Se21  1  0.77282200  0.85991300  0.27362300  1
  Se  Se22  1  0.05558800  0.92366300  0.79426600  1
  Se  Se23  1  0.36622000  0.00448500  0.69226400  1
  Cl  Cl0  1  0.50182800  0.97223200  0.03748000  1
  Cl  Cl1  1  0.74910400  0.94461400  0.95694500  1
  Cl  Cl2  1  0.00379200  0.96991800  0.02217900  1
  Cl  Cl3  1  0.77689300  0.33612500  0.69440800  1
  Cl  Cl4  1  0.31849300  0.23448200  0.78666600  1
  Cl  Cl5  1  0.07110800  0.21717500  0.79136400  1
  Cl  Cl6  1  0.56347300  0.24657400  0.76614000  1
  Cl  Cl7  1  0.73965500  0.58010000  0.54049300  1
  Cl  Cl8  1  0.49817200  0.47223200  0.53748000  1
  Cl  Cl9  1  0.99620800  0.46991800  0.52217900  1
  Cl  Cl10  1  0.25089600  0.44461400  0.45694500  1
  Cl  Cl11  1  0.92889200  0.71717500  0.29136400  1
  Cl  Cl12  1  0.68150700  0.73448200  0.28666600  1
  Cl  Cl13  1  0.43652700  0.74657400  0.26614000  1
  Cl  Cl14  1  0.22310700  0.83612500  0.19440800  1
  Cl  Cl15  1  0.26034500  0.08010000  0.04049300  1
  O  O0  1  0.48096000  0.97120100  0.31975800  1
  O  O1  1  0.31669500  0.09335100  0.28925900  1
  O  O2  1  0.75023100  0.05973400  0.30104100  1
  O  O3  1  0.96344400  0.10122300  0.32501400  1
  O  O4  1  0.38547300  0.07216800  0.56370300  1
  O  O5  1  0.12746600  0.13252300  0.37730300  1
  O  O6  1  0.63378300  0.09794300  0.57169100  1
  O  O7  1  0.03111800  0.12964200  0.14533100  1
  O  O8  1  0.62898700  0.17456700  0.17333200  1
  O  O9  1  0.10115500  0.12963000  0.57870000  1
  O  O10  1  0.46038700  0.14126200  0.15037500  1
  O  O11  1  0.87041300  0.06592300  0.57035300  1
  O  O12  1  0.37017600  0.11035200  0.37553300  1
  O  O13  1  0.86977500  0.18245900  0.16089600  1
  O  O14  1  0.76662700  0.16270700  0.43392500  1
  O  O15  1  0.53007000  0.17639000  0.38285200  1
  O  O16  1  0.18070100  0.22055400  0.39340600  1
  O  O17  1  0.02013200  0.17570400  0.53220200  1
  O  O18  1  0.03476900  0.33197000  0.02428900  1
  O  O19  1  0.19222600  0.26574500  0.11489200  1
  O  O20  1  0.51695700  0.32866500  0.10350900  1
  O  O21  1  0.79397300  0.40398900  0.11517300  1
  O  O22  1  0.87233800  0.32478900  0.33002000  1
  O  O23  1  0.34564200  0.38642900  0.11534800  1
  O  O24  1  0.47840700  0.36546700  0.34095700  1
  O  O25  1  0.64623600  0.32870800  0.33540100  1
  O  O26  1  0.03772300  0.35877600  0.35251600  1
  O  O27  1  0.17217800  0.36105200  0.14395400  1
  O  O28  1  0.97500400  0.41185100  0.17411000  1
  O  O29  1  0.70657600  0.38399700  0.09955400  1
  O  O30  1  0.87009300  0.43307200  0.92334500  1
  O  O31  1  0.32536800  0.40783300  0.20954700  1
  O  O32  1  0.09983800  0.39081800  0.94956900  1
  O  O33  1  0.43240900  0.55618800  0.13776400  1
  O  O34  1  0.58884300  0.41320000  0.88173900  1
  O  O35  1  0.61452700  0.57216800  0.06370300  1
  O  O36  1  0.36565700  0.44239600  0.91180900  1
  O  O37  1  0.36621700  0.59794300  0.07169100  1
  O  O38  1  0.51904000  0.47120100  0.81975800  1
  O  O39  1  0.89884500  0.62963000  0.07870000  1
  O  O40  1  0.68330500  0.59335100  0.78925900  1
  O  O41  1  0.12958700  0.56592300  0.07035300  1
  O  O42  1  0.24976900  0.55973400  0.80104100  1
  O  O43  1  0.03655600  0.60122300  0.82501400  1
  O  O44  1  0.87253400  0.63252300  0.87730300  1
  O  O45  1  0.96888200  0.62964200  0.64533100  1
  O  O46  1  0.37101300  0.67456700  0.67333200  1
  O  O47  1  0.53961300  0.64126200  0.65037500  1
  O  O48  1  0.62982400  0.61035200  0.87553300  1
  O  O49  1  0.13022500  0.68245900  0.66089600  1
  O  O50  1  0.23337300  0.66270700  0.93392500  1
  O  O51  1  0.46993000  0.67639000  0.88285200  1
  O  O52  1  0.81929900  0.72055400  0.89340600  1
  O  O53  1  0.97986800  0.67570400  0.03220200  1
  O  O54  1  0.96523100  0.83197000  0.52428900  1
  O  O55  1  0.80777400  0.76574500  0.61489200  1
  O  O56  1  0.48304300  0.82866500  0.60350900  1
  O  O57  1  0.20602700  0.90398900  0.61517300  1
  O  O58  1  0.12766200  0.82478900  0.83002000  1
  O  O59  1  0.65435800  0.88642900  0.61534800  1
  O  O60  1  0.12990700  0.93307200  0.42334500  1
  O  O61  1  0.52159300  0.86546700  0.84095700  1
  O  O62  1  0.90016200  0.89081800  0.44956900  1
  O  O63  1  0.35376400  0.82870800  0.83540100  1
  O  O64  1  0.96227700  0.85877600  0.85251600  1
  O  O65  1  0.41115700  0.91320000  0.38173900  1
  O  O66  1  0.82782200  0.86105200  0.64395400  1
  O  O67  1  0.63434300  0.94239600  0.41180900  1
  O  O68  1  0.02499600  0.91185100  0.67411000  1
  O  O69  1  0.29342400  0.88399700  0.59955400  1
  O  O70  1  0.67463200  0.90783300  0.70954700  1
  O  O71  1  0.56759100  0.05618800  0.63776400  1
loop_
_geom_bond_atom_site_label_1
_geom_bond_atom_site_label_2
_geom_bond_distance
_geom_bond_site_symmetry_2
Nd0 O17 2.363911 1_555
Nd0 O3 2.422098 1_455
Nd0 O68 2.426672 1_545
Nd0 O54 2.449878 1_445
Nd0 O60 2.513169 1_545
Nd0 O62 2.561103 1_445
Nd0 O11 2.561698 1_455
Nd0 O9 2.587488 1_555
Nd0 O5 2.693654 1_555
Nd1 O12 2.292259 1_555
Nd1 O5 2.329324 1_555
Nd1 O16 2.468518 1_555
Nd1 O57 2.505578 1_545
Nd1 O1 2.518108 1_555
Nd1 O60 2.559746 1_545
Nd1 O69 2.573468 1_545
Nd1 O4 2.615858 1_555
Nd1 O9 3.123839 1_555
Nd2 O25 2.430436 1_555
Nd2 O21 2.442552 1_555
Nd2 O14 2.446593 1_555
Nd2 O29 2.448264 1_555
Nd2 O2 2.465190 1_555
Nd2 O22 2.474076 1_555
Nd2 O13 2.490565 1_555
Nd2 O8 2.564746 1_555
Nd3 O12 2.306866 1_555
Nd3 O23 2.377853 1_555
Nd3 O31 2.378916 1_555
Nd3 O10 2.406704 1_555
Nd3 O24 2.435090 1_555
Nd3 O1 2.547915 1_555
Nd3 O20 2.562716 1_555
Nd3 O15 2.631266 1_555
Nd4 O27 2.237699 1_555
Nd4 O5 2.338516 1_555
Nd4 O26 2.427071 1_555
Nd4 O7 2.431044 1_555
Nd4 O19 2.466819 1_555
Nd4 O28 2.536493 1_455
Nd4 O16 2.670981 1_555
Nd4 O3 2.708975 1_455
Nd4 O18 2.827815 1_555
Nd5 O18 2.316025 1_556
Nd5 O7 2.360042 1_556
Nd5 O19 2.457146 1_556
Nd5 O32 2.534180 1_555
Nd6 O17 2.291663 1_555
Nd6 O26 2.303501 1_555
Nd6 O9 2.422481 1_555
Nd6 O16 2.498887 1_555
Nd7 O27 2.279135 1_555
Nd7 O23 2.381242 1_555
Nd7 O36 2.446902 1_554
Nd7 O41 2.462113 1_555
Nd7 O32 2.510278 1_554
Nd7 O50 2.552651 1_554
Nd7 O42 2.674916 1_554
Nd8 O38 2.269211 1_555
Nd8 O47 2.468519 1_555
Nd8 O34 2.473343 1_555
Nd8 O40 2.509759 1_555
Nd9 O53 2.363911 1_556
Nd9 O43 2.422098 1_655
Nd9 O28 2.426672 1_556
Nd9 O18 2.449878 1_656
Nd9 O30 2.513169 1_555
Nd9 O32 2.561103 1_655
Nd9 O41 2.561698 1_656
Nd9 O39 2.587488 1_556
Nd9 O44 2.693654 1_555
Nd10 O38 2.349092 1_555
Nd10 O51 2.416724 1_555
Nd10 O35 2.443187 1_556
Nd10 O34 2.451480 1_555
Nd10 O20 2.466211 1_556
Nd10 O36 2.509926 1_555
Nd10 O33 2.647233 1_556
Nd10 O48 2.687142 1_555
Nd11 O48 2.292259 1_555
Nd11 O44 2.329324 1_555
Nd11 O52 2.468518 1_555
Nd11 O21 2.505578 1_556
Nd11 O40 2.518108 1_555
Nd11 O30 2.559746 1_555
Nd11 O29 2.573468 1_556
Nd11 O35 2.615858 1_556
Nd11 O39 3.123839 1_556
Nd12 O54 2.316025 1_555
Nd12 O45 2.360042 1_555
Nd12 O55 2.457146 1_555
Nd12 O62 2.534180 1_555
Nd13 O53 2.291663 1_555
Nd13 O64 2.303501 1_554
Nd13 O39 2.422481 1_555
Nd13 O52 2.498887 1_554
Nd14 O66 2.237699 1_555
Nd14 O44 2.338516 1_555
Nd14 O64 2.427071 1_555
Nd14 O45 2.431044 1_555
Nd14 O55 2.466819 1_555
Nd14 O68 2.536493 1_655
Nd14 O52 2.670981 1_555
Nd14 O43 2.708975 1_655
Nd14 O54 2.827815 1_555
Nd15 O48 2.306866 1_555
Nd15 O59 2.377853 1_555
Nd15 O70 2.378916 1_555
Nd15 O47 2.406704 1_555
Nd15 O61 2.435090 1_555
Nd15 O40 2.547915 1_555
Nd15 O56 2.562716 1_555
Nd15 O51 2.631266 1_555
Nd16 O63 2.430436 1_555
Nd16 O57 2.442552 1_555
Nd16 O50 2.446593 1_555
Nd16 O69 2.448264 1_555
Nd16 O42 2.465190 1_555
Nd16 O58 2.474076 1_555
Nd16 O49 2.490565 1_555
Nd16 O46 2.564746 1_555
Nd17 O0 2.269211 1_555
Nd17 O10 2.468519 1_565
Nd17 O65 2.473343 1_555
Nd17 O1 2.509759 1_565
Nd18 O66 2.279135 1_555
Nd18 O59 2.381242 1_555
Nd18 O67 2.446902 1_555
Nd18 O11 2.462113 1_565
Nd18 O62 2.510278 1_555
Nd18 O14 2.552651 1_565
Nd18 O2 2.674916 1_565
Nd19 O0 2.349092 1_545
Nd19 O15 2.416724 1_555
Nd19 O4 2.443187 1_555
Nd19 O65 2.451480 1_545
Nd19 O56 2.466211 1_545
Nd19 O67 2.509926 1_545
Nd19 O71 2.647233 1_555
Nd19 O12 2.687142 1_555
Se2 Se23 2.218563 1_555
Se3 Se8 2.195297 1_555
Se10 Se11 2.218563 1_555
Se16 Se18 2.195297 1_555
Cl0 Nd17 2.847486 1_555
Cl0 Sr0 3.086337 1_564
Cl1 Nd13 2.773216 1_556
Cl1 Sr0 2.877482 1_565
Cl2 Nd13 2.782804 1_455
Cl2 Nd5 3.385794 1_564
Cl3 Se5 2.419544 1_555
Cl3 Nd8 3.117561 1_555
Cl4 Se12 2.177585 1_555
Cl5 Nd5 2.753564 1_555
Cl6 Sr0 2.951891 1_555
Cl6 Nd8 3.067395 1_555
Cl7 Nd12 2.777733 1_555
Cl7 Nd8 2.912307 1_555
Cl8 Nd8 2.847486 1_555
Cl8 Sr1 3.086337 1_555
Cl9 Nd6 2.782804 1_655
Cl9 Nd12 3.385794 1_555
Cl10 Nd6 2.773216 1_555
Cl10 Sr1 2.877482 1_555
Cl11 Nd12 2.753564 1_555
Cl12 Se21 2.177585 1_555
Cl13 Sr1 2.951891 1_555
Cl13 Nd17 3.067395 1_555
Cl14 Se15 2.419544 1_555
Cl14 Nd17 3.117561 1_555
Cl15 Nd5 2.777733 1_554
Cl15 Nd17 2.912307 1_545
O0 O65 1.466471 1_555
O1 O12 1.504801 1_555
O2 Se0 1.741772 1_545
O3 Se1 1.729642 1_555
O4 Se23 1.759733 1_555
O6 O71 1.384670 1_555
O6 Se5 2.154176 1_555
O7 Se1 1.765197 1_455
O8 Se4 1.713295 1_555
O10 Se4 1.753013 1_555
O11 Se7 1.744880 1_555
O13 Se1 1.717588 1_555
O14 Se7 1.733596 1_555
O15 Se6 1.743605 1_555
O16 O5 1.508263 1_555
O17 O9 1.475035 1_555
O18 O32 1.501062 1_554
O19 O27 1.469673 1_555
O20 Se4 1.758814 1_555
O21 O29 1.420372 1_555
O22 Se9 1.708097 1_555
O23 O31 1.418492 1_555
O24 Se6 1.760017 1_555
O24 Sr1 2.431844 1_555
O25 Se6 1.710108 1_555
O26 Se9 1.772264 1_455
O28 Se9 1.745616 1_555
O29 Se10 2.566502 1_555
O30 Se3 1.750916 1_555
O31 Sr1 2.812840 1_555
O33 O37 1.384670 1_555
O33 Sr1 2.623665 1_555
O34 O38 1.466471 1_555
O35 Se10 1.759733 1_555
O36 Se13 1.743045 1_555
O37 Se15 2.154176 1_555
O39 O53 1.475035 1_555
O40 O48 1.504801 1_555
O41 Se20 1.744880 1_555
O42 Se13 1.741772 1_555
O43 Se14 1.729642 1_555
O44 O52 1.508263 1_555
O45 Se14 1.765197 1_655
O46 Se17 1.713295 1_555
O47 Se17 1.753013 1_555
O49 Se14 1.717588 1_555
O50 Se20 1.733596 1_556
O51 Se19 1.743605 1_555
O54 O62 1.501062 1_555
O55 O66 1.469673 1_555
O56 Se17 1.758814 1_555
O57 O69 1.420372 1_555
O58 Se22 1.708097 1_555
O59 O70 1.418492 1_555
O60 Se16 1.750916 1_555
O61 Se19 1.760017 1_555
O61 Sr0 2.431844 1_565
O63 Se19 1.710108 1_555
O64 Se22 1.772264 1_655
O67 Se0 1.743045 1_555
O68 Se22 1.745616 1_555
O69 Se23 2.566502 1_565
O70 Sr0 2.812840 1_565
O71 Sr0 2.623665 1_555
