# generated using pymatgen
data_Pr27Se40
_symmetry_space_group_name_H-M   'P 1'
_cell_length_a   7.80015582
_cell_length_b   12.73729339
_cell_length_c   19.62697503
_cell_angle_alpha   108.96708796
_cell_angle_beta   97.66108677
_cell_angle_gamma   89.75956508
_symmetry_Int_Tables_number   1
_chemical_formula_structural   Pr27Se40
_chemical_formula_sum   'Pr27 Se40'
_cell_volume   1826.06766561
_cell_formula_units_Z   1
loop_
 _symmetry_equiv_pos_site_id
 _symmetry_equiv_pos_as_xyz
  1  'x, y, z'
loop_
 _atom_site_type_symbol
 _atom_site_label
 _atom_site_symmetry_multiplicity
 _atom_site_fract_x
 _atom_site_fract_y
 _atom_site_fract_z
 _atom_site_occupancy
  Pr  Pr0  1  0.65663535  0.47443418  0.20061612  1
  Pr  Pr1  1  0.92264561  0.32550642  0.02417251  1
  Pr  Pr2  1  0.05440351  0.06835622  0.39517738  1
  Pr  Pr3  1  0.15461586  0.21694907  0.20046781  1
  Pr  Pr4  1  0.27670469  0.60429263  0.07342787  1
  Pr  Pr5  1  0.42786491  0.20551335  0.02254045  1
  Pr  Pr6  1  0.54349178  0.82389413  0.39402990  1
  Pr  Pr7  1  0.84823947  0.28073789  0.80354268  1
  Pr  Pr8  1  0.71467688  0.53064630  0.43113095  1
  Pr  Pr9  1  0.66344198  0.19120352  0.27526417  1
  Pr  Pr10  1  0.82676692  0.80544400  0.22380665  1
  Pr  Pr11  1  0.77256708  0.97172863  0.07441149  1
  Pr  Pr12  1  0.94844505  0.42473349  0.60248066  1
  Pr  Pr13  1  0.25671798  0.87861274  0.00794640  1
  Pr  Pr14  1  0.12675027  0.12589461  0.62692468  1
  Pr  Pr15  1  0.07943621  0.79771239  0.47770132  1
  Pr  Pr16  1  0.23229762  0.40765172  0.43063014  1
  Pr  Pr17  1  0.17825766  0.57427956  0.27399526  1
  Pr  Pr18  1  0.35020175  0.03451829  0.80111313  1
  Pr  Pr19  1  0.52189398  0.72356741  0.81848832  1
  Pr  Pr20  1  0.47061971  0.40395142  0.67785986  1
  Pr  Pr21  1  0.57955166  0.17720265  0.47469290  1
  Pr  Pr22  1  0.61984641  0.99150574  0.62404755  1
  Pr  Pr23  1  0.73750893  0.62094211  0.99380393  1
  Pr  Pr24  1  0.87922365  0.00165453  0.87637746  1
  Pr  Pr25  1  0.97473186  0.77034465  0.67175057  1
  Pr  Pr26  1  0.03122867  0.59120856  0.82389128  1
  Se  Se0  1  0.56334439  0.44131405  0.03470745  1
  Se  Se1  1  0.76133276  0.24112476  0.12952513  1
  Se  Se2  1  0.93283686  0.57358310  0.14319542  1
  Se  Se3  1  0.94948857  0.04373206  0.22870628  1
  Se  Se4  1  0.05630346  0.08793050  0.03169006  1
  Se  Se5  1  0.32783300  0.17924739  0.34540998  1
  Se  Se6  1  0.25515634  0.38474133  0.12994882  1
  Se  Se7  1  0.35691423  0.63978605  0.42579415  1
  Se  Se8  1  0.43481954  0.07195839  0.13719888  1
  Se  Se9  1  0.46243968  0.67993310  0.22752673  1
  Se  Se10  1  0.55652315  0.79609412  0.09802431  1
  Se  Se11  1  0.75481181  0.23948084  0.62872249  1
  Se  Se12  1  0.73270142  0.77072531  0.53604743  1
  Se  Se13  1  0.66391830  0.99173028  0.33189718  1
  Se  Se14  1  0.82856418  0.66870959  0.34188604  1
  Se  Se15  1  0.95375711  0.04550923  0.72988989  1
  Se  Se16  1  0.86420158  0.28577959  0.42829607  1
  Se  Se17  1  0.95930193  0.39845843  0.30042994  1
  Se  Se18  1  0.12618522  0.36369025  0.73777417  1
  Se  Se19  1  0.04647106  0.58482129  0.52862886  1
  Se  Se20  1  0.16231751  0.84427032  0.82675588  1
  Se  Se21  1  0.03947313  0.79746678  0.09713399  1
  Se  Se22  1  0.22913580  0.26969516  0.54130425  1
  Se  Se23  1  0.15745994  0.83465166  0.33083372  1
  Se  Se24  1  0.35782275  0.65176357  0.92972464  1
  Se  Se25  1  0.25654640  0.89497879  0.63169367  1
  Se  Se26  1  0.35767557  -0.00025191  0.49884434  1
  Se  Se27  1  0.52583042  0.97223285  0.94186352  1
  Se  Se28  1  0.46422147  0.18451851  0.72519881  1
  Se  Se29  1  0.45746446  0.39920211  0.29945021  1
  Se  Se30  1  0.56307742  0.43562586  0.53184665  1
  Se  Se31  1  0.63363178  0.87893808  0.74564613  1
  Se  Se32  1  0.66108787  0.49310883  0.82901816  1
  Se  Se33  1  0.76166830  0.60049470  0.70229933  1
  Se  Se34  1  0.85688319  0.78814753  0.92545916  1
  Se  Se35  1  0.86099104  0.00178418  0.50018237  1
  Se  Se36  1  0.02338051  0.47356218  0.94457900  1
  Se  Se37  1  0.14334075  0.19913048  0.90149368  1
  Se  Se38  1  0.24390079  0.59762951  0.69983026  1
  Se  Se39  1  0.65842386  0.19721292  0.90125352  1
loop_
_geom_bond_atom_site_label_1
_geom_bond_atom_site_label_2
_geom_bond_distance
_geom_bond_site_symmetry_2
Pr0 Se9 2.950612 1_555
Pr0 Se1 3.005498 1_555
Pr0 Se2 3.016937 1_555
Pr0 Se29 3.019773 1_555
Pr0 Se0 3.128691 1_555
Pr0 Se14 3.191557 1_555
Pr0 Se17 3.213720 1_555
Pr0 Se6 3.298139 1_555
Pr1 Se36 2.978074 1_654
Pr1 Se39 2.979607 1_554
Pr1 Se1 3.027168 1_555
Pr1 Se6 3.028003 1_655
Pr1 Se37 3.148728 1_654
Pr1 Se0 3.161447 1_555
Pr1 Se4 3.238604 1_655
Pr1 Se2 3.256104 1_555
Pr2 Se23 2.984799 1_545
Pr2 Se5 2.995918 1_555
Pr2 Se35 3.036149 1_455
Pr2 Se16 3.057050 1_455
Pr2 Se13 3.162381 1_445
Pr2 Se3 3.172785 1_455
Pr2 Se26 3.217861 1_555
Pr2 Se22 3.296338 1_555
Pr3 Se3 2.965813 1_455
Pr3 Se8 2.988082 1_555
Pr3 Se6 3.053646 1_555
Pr3 Se17 3.055180 1_455
Pr3 Se5 3.163332 1_555
Pr3 Se4 3.171201 1_555
Pr3 Se1 3.252091 1_455
Pr3 Se29 3.261013 1_555
Pr4 Se36 3.005075 1_554
Pr4 Se9 3.020583 1_555
Pr4 Se21 3.023560 1_555
Pr4 Se0 3.045397 1_555
Pr4 Se10 3.156339 1_555
Pr4 Se24 3.210696 1_554
Pr4 Se2 3.249405 1_455
Pr4 Se6 3.339087 1_555
Pr5 Se37 3.007743 1_554
Pr5 Se6 3.012217 1_555
Pr5 Se27 3.027423 1_544
Pr5 Se1 3.052063 1_555
Pr5 Se0 3.112503 1_555
Pr5 Se39 3.144584 1_554
Pr5 Se8 3.227427 1_555
Pr5 Se4 3.320411 1_555
Pr6 Se13 2.992746 1_555
Pr6 Se26 3.020319 1_565
Pr6 Se14 3.025520 1_555
Pr6 Se7 3.037563 1_555
Pr6 Se23 3.120133 1_555
Pr6 Se9 3.163086 1_555
Pr6 Se12 3.244707 1_555
Pr6 Se35 3.348238 1_565
Pr7 Se32 2.996750 1_555
Pr7 Se39 3.016356 1_555
Pr7 Se18 3.022406 1_655
Pr7 Se15 3.037305 1_555
Pr7 Se36 3.187698 1_655
Pr7 Se37 3.189657 1_655
Pr7 Se28 3.227471 1_555
Pr7 Se11 3.277914 1_555
Pr8 Se19 2.944849 1_655
Pr8 Se30 2.993514 1_555
Pr8 Se29 3.056269 1_555
Pr8 Se14 3.062697 1_555
Pr8 Se12 3.073149 1_555
Pr8 Se7 3.116907 1_555
Pr8 Se16 3.311364 1_555
Pr8 Se17 3.395118 1_555
Pr9 Se3 2.955385 1_555
Pr9 Se8 2.981428 1_555
Pr9 Se29 3.029155 1_555
Pr9 Se16 3.055237 1_555
Pr9 Se13 3.086353 1_545
Pr9 Se5 3.141989 1_555
Pr9 Se1 3.307276 1_555
Pr9 Se17 3.382040 1_555
Pr10 Se10 2.995948 1_555
Pr10 Se13 3.027426 1_555
Pr10 Se2 3.033270 1_555
Pr10 Se23 3.043016 1_655
Pr10 Se21 3.143002 1_655
Pr10 Se3 3.154011 1_565
Pr10 Se9 3.287291 1_555
Pr10 Se14 3.319545 1_555
Pr11 Se10 2.995512 1_555
Pr11 Se3 3.001221 1_565
Pr11 Se4 3.020097 1_665
Pr11 Se27 3.024525 1_554
Pr11 Se21 3.133227 1_655
Pr11 Se8 3.147010 1_565
Pr11 Se34 3.240837 1_554
Pr11 Se1 3.249931 1_565
Pr12 Se33 2.975763 1_555
Pr12 Se19 3.012211 1_655
Pr12 Se11 3.023512 1_555
Pr12 Se22 3.042748 1_655
Pr12 Se18 3.151082 1_655
Pr12 Se38 3.153566 1_655
Pr12 Se30 3.160254 1_555
Pr12 Se16 3.275582 1_555
Pr13 Se24 2.957683 1_554
Pr13 Se21 2.997608 1_555
Pr13 Se4 3.020078 1_565
Pr13 Se27 3.043487 1_554
Pr13 Se8 3.075428 1_565
Pr13 Se10 3.127953 1_555
Pr13 Se34 3.338684 1_454
Pr13 Se20 3.416659 1_554
Pr14 Se28 2.988912 1_555
Pr14 Se15 3.006148 1_455
Pr14 Se35 3.013393 1_455
Pr14 Se22 3.031106 1_555
Pr14 Se18 3.102626 1_555
Pr14 Se25 3.132632 1_545
Pr14 Se11 3.235759 1_455
Pr14 Se26 3.271531 1_555
Pr15 Se7 2.997996 1_555
Pr15 Se25 3.007543 1_555
Pr15 Se35 3.045028 1_465
Pr15 Se14 3.069815 1_455
Pr15 Se12 3.135890 1_455
Pr15 Se23 3.201992 1_555
Pr15 Se19 3.202282 1_555
Pr15 Se26 3.258426 1_565
Pr16 Se19 2.964352 1_555
Pr16 Se30 2.985210 1_555
Pr16 Se5 2.994604 1_555
Pr16 Se17 3.071654 1_455
Pr16 Se7 3.150786 1_555
Pr16 Se22 3.209774 1_555
Pr16 Se16 3.257566 1_455
Pr16 Se29 3.278592 1_555
Pr17 Se7 2.966733 1_555
Pr17 Se9 2.986360 1_555
Pr17 Se2 2.988354 1_455
Pr17 Se17 3.037274 1_455
Pr17 Se23 3.147745 1_555
Pr17 Se6 3.191290 1_555
Pr17 Se29 3.218538 1_555
Pr17 Se14 3.249935 1_455
Pr18 Se28 2.979842 1_555
Pr18 Se37 3.002537 1_555
Pr18 Se31 3.033540 1_545
Pr18 Se20 3.048351 1_545
Pr18 Se39 3.173602 1_555
Pr18 Se25 3.204834 1_545
Pr18 Se15 3.241487 1_455
Pr18 Se27 3.247161 1_545
Pr19 Se31 2.984285 1_555
Pr19 Se38 2.992178 1_555
Pr19 Se24 3.048540 1_555
Pr19 Se34 3.056941 1_555
Pr19 Se33 3.153488 1_555
Pr19 Se32 3.185278 1_555
Pr19 Se20 3.190555 1_555
Pr19 Se27 3.300276 1_555
Pr20 Se38 2.978977 1_555
Pr20 Se32 2.991240 1_555
Pr20 Se22 3.058967 1_555
Pr20 Se11 3.074149 1_555
Pr20 Se18 3.179589 1_555
Pr20 Se30 3.193862 1_555
Pr20 Se28 3.221693 1_555
Pr20 Se33 3.260049 1_555
Pr21 Se11 2.997622 1_555
Pr21 Se5 3.001421 1_555
Pr21 Se16 3.009183 1_555
Pr21 Se26 3.045794 1_555
Pr21 Se30 3.121572 1_555
Pr21 Se13 3.169166 1_545
Pr21 Se35 3.233340 1_555
Pr21 Se22 3.239231 1_555
Pr22 Se12 2.982192 1_555
Pr22 Se28 2.983912 1_565
Pr22 Se26 3.009585 1_565
Pr22 Se15 3.035762 1_565
Pr22 Se25 3.134828 1_555
Pr22 Se31 3.149286 1_555
Pr22 Se35 3.300547 1_565
Pr22 Se11 3.302542 1_565
Pr23 Se36 2.964774 1_655
Pr23 Se10 2.988534 1_556
Pr23 Se0 3.039044 1_556
Pr23 Se34 3.067400 1_555
Pr23 Se32 3.088320 1_555
Pr23 Se24 3.134503 1_555
Pr23 Se21 3.243901 1_656
Pr23 Se2 3.351622 1_556
Pr24 Se31 2.967162 1_545
Pr24 Se39 2.967616 1_555
Pr24 Se20 3.018327 1_645
Pr24 Se4 3.019975 1_656
Pr24 Se37 3.127414 1_655
Pr24 Se34 3.178956 1_545
Pr24 Se15 3.226243 1_555
Pr24 Se27 3.264545 1_545
Pr25 Se33 2.990150 1_555
Pr25 Se20 3.040658 1_655
Pr25 Se25 3.044952 1_655
Pr25 Se12 3.053797 1_555
Pr25 Se19 3.143397 1_655
Pr25 Se38 3.161076 1_655
Pr25 Se31 3.284752 1_555
Pr25 Se15 3.325361 1_565
Pr26 Se18 2.989207 1_555
Pr26 Se24 2.993900 1_555
Pr26 Se33 2.995627 1_455
Pr26 Se34 3.091812 1_455
Pr26 Se38 3.145643 1_555
Pr26 Se32 3.177511 1_455
Pr26 Se36 3.194833 1_555
Pr26 Se20 3.366456 1_555
