# generated using pymatgen
data_H3NO
_symmetry_space_group_name_H-M   'P 1'
_cell_length_a   5.25160700
_cell_length_b   5.62459751
_cell_length_c   7.92479082
_cell_angle_alpha   87.60940489
_cell_angle_beta   87.70838668
_cell_angle_gamma   88.12468070
_symmetry_Int_Tables_number   1
_chemical_formula_structural   H3NO
_chemical_formula_sum   'H12 N4 O4'
_cell_volume   233.57998817
_cell_formula_units_Z   4
loop_
 _symmetry_equiv_pos_site_id
 _symmetry_equiv_pos_as_xyz
  1  'x, y, z'
loop_
 _atom_site_type_symbol
 _atom_site_label
 _atom_site_symmetry_multiplicity
 _atom_site_fract_x
 _atom_site_fract_y
 _atom_site_fract_z
 _atom_site_occupancy
  H  H0  1  0.57157300  0.83269700  0.62055200  1
  H  H1  1  0.75181200  0.79119100  0.97425600  1
  H  H2  1  0.40918000  0.29478700  0.91701900  1
  H  H3  1  0.51038800  0.35120900  0.86050600  1
  H  H4  1  0.18710800  0.32577200  0.66479800  1
  H  H5  1  0.64102000  0.74157200  0.56769300  1
  H  H6  1  0.94571400  0.17196300  0.12026900  1
  H  H7  1  0.58510400  0.24384300  0.39737100  1
  H  H8  1  0.08156000  0.69051800  0.41589200  1
  H  H9  1  0.99420100  0.65910400  0.34791200  1
  H  H10  1  0.36914100  0.67899800  0.19154100  1
  H  H11  1  0.83011900  0.23177200  0.08233400  1
  N  N0  1  0.23813200  0.18104300  0.38274600  1
  N  N1  1  0.55199000  0.64223200  0.14666700  1
  N  N2  1  0.21482700  0.87264700  0.82000300  1
  N  N3  1  0.00554500  0.27412300  0.63741200  1
  O  O0  1  0.02670700  0.19361700  0.48050100  1
  O  O1  1  0.06979300  0.73021700  0.87245600  1
  O  O2  1  0.58381500  0.82430000  0.02910100  1
  O  O3  1  0.43227100  0.26839400  0.47097000  1
loop_
_geom_bond_atom_site_label_1
_geom_bond_atom_site_label_2
_geom_bond_distance
_geom_bond_site_symmetry_2
H0 H5 0.751428 1_555
H1 O2 0.983511 1_556
H2 H3 0.750952 1_555
H4 N3 1.039514 1_555
H7 O3 0.982589 1_555
H8 H9 0.751620 1_455
H10 N1 1.028173 1_555
H11 H6 0.751569 1_555
N0 O0 1.329887 1_555
N0 O3 1.374089 1_555
N1 O2 1.365219 1_555
N2 O1 1.175386 1_555
N3 O0 1.340253 1_555
