# generated using pymatgen
data_Ta9Mn11O34
_symmetry_space_group_name_H-M   'P 1'
_cell_length_a   3.47568697
_cell_length_b   3.47568596
_cell_length_c   70.14201273
_cell_angle_alpha   61.83647218
_cell_angle_beta   61.83648106
_cell_angle_gamma   60.61432269
_symmetry_Int_Tables_number   1
_chemical_formula_structural   Ta9Mn11O34
_chemical_formula_sum   'Ta9 Mn11 O34'
_cell_volume   618.21419199
_cell_formula_units_Z   1
loop_
 _symmetry_equiv_pos_site_id
 _symmetry_equiv_pos_as_xyz
  1  'x, y, z'
loop_
 _atom_site_type_symbol
 _atom_site_label
 _atom_site_symmetry_multiplicity
 _atom_site_fract_x
 _atom_site_fract_y
 _atom_site_fract_z
 _atom_site_occupancy
  Ta  Ta0  1  0.93232400  0.93232400  0.00335700  1
  Ta  Ta1  1  0.95151200  0.95151200  0.15426900  1
  Ta  Ta2  1  0.03336700  0.03336700  0.34385100  1
  Ta  Ta3  1  0.06244100  0.06244100  0.25078200  1
  Ta  Ta4  1  0.04815500  0.04815500  0.28914300  1
  Ta  Ta5  1  0.00337500  0.00337500  0.44884300  1
  Ta  Ta6  1  0.01825600  0.01825600  0.39699000  1
  Ta  Ta7  1  0.99023100  0.99023100  0.50197600  1
  Ta  Ta8  1  0.96840000  0.96840000  0.60572200  1
  Mn  Mn0  1  0.96441500  0.96441500  0.05148700  1
  Mn  Mn1  1  0.99620600  0.99620600  0.09886100  1
  Mn  Mn2  1  0.02145600  0.02145600  0.19559100  1
  Mn  Mn3  1  0.95992700  0.95992700  0.65629100  1
  Mn  Mn4  1  0.93965300  0.93965300  0.55822000  1
  Mn  Mn5  1  0.97269300  0.97269300  0.70395000  1
  Mn  Mn6  1  0.99176500  0.99176500  0.75124900  1
  Mn  Mn7  1  0.06140500  0.06140500  0.89331500  1
  Mn  Mn8  1  0.00987500  0.00987500  0.79841700  1
  Mn  Mn9  1  0.03016600  0.03016600  0.84577200  1
  Mn  Mn10  1  0.14913800  0.14913800  0.94045200  1
  O  O0  1  0.69772100  0.69772100  0.04042900  1
  O  O1  1  0.73457400  0.73457400  0.08737700  1
  O  O2  1  0.74910600  0.74910600  0.13495500  1
  O  O3  1  0.73404400  0.73404400  0.18800200  1
  O  O4  1  0.78132400  0.78132400  0.23161200  1
  O  O5  1  0.25609800  0.25609800  0.30964600  1
  O  O6  1  0.74489300  0.74489300  0.28404200  1
  O  O7  1  0.25570500  0.25570500  0.36061900  1
  O  O8  1  0.73536600  0.73536600  0.33802200  1
  O  O9  1  0.26484300  0.26484300  0.41010300  1
  O  O10  1  0.75582000  0.75582000  0.38561000  1
  O  O11  1  0.28776600  0.28776600  0.45695300  1
  O  O12  1  0.77069400  0.77069400  0.43388600  1
  O  O13  1  0.30516500  0.30516500  0.50504600  1
  O  O14  1  0.77444200  0.77444200  0.48406400  1
  O  O15  1  0.20408700  0.20408700  0.56923800  1
  O  O16  1  0.78968700  0.78968700  0.53277300  1
  O  O17  1  0.23871600  0.23871600  0.61517800  1
  O  O18  1  0.69480100  0.69480100  0.59600700  1
  O  O19  1  0.20017000  0.20017000  0.66907600  1
  O  O20  1  0.74067300  0.74067300  0.64101300  1
  O  O21  1  0.22605300  0.22605300  0.71578800  1
  O  O22  1  0.71146000  0.71146000  0.69323500  1
  O  O23  1  0.24426500  0.24426500  0.76316800  1
  O  O24  1  0.73989200  0.73989200  0.73919100  1
  O  O25  1  0.26182300  0.26182300  0.81031700  1
  O  O26  1  0.75814900  0.75814900  0.78653400  1
  O  O27  1  0.29126900  0.29126900  0.85701400  1
  O  O28  1  0.77611300  0.77611300  0.83382600  1
  O  O29  1  0.31036900  0.31036900  0.90823900  1
  O  O30  1  0.80324900  0.80324900  0.88165700  1
  O  O31  1  0.09133700  0.09133700  0.97298700  1
  O  O32  1  0.78422300  0.78422300  0.93873200  1
  O  O33  1  0.57934300  0.57934300  0.00611800  1
loop_
_geom_bond_atom_site_label_1
_geom_bond_atom_site_label_2
_geom_bond_distance
_geom_bond_site_symmetry_2
Mn0 O1 2.107880 1_555
Mn0 O0 2.109723 1_565
Mn0 O0 2.109724 1_655
Mn0 O0 2.126183 1_555
Mn1 O1 2.120640 1_555
Mn1 O2 2.122161 1_555
Mn1 O1 2.124069 1_565
Mn1 O1 2.124070 1_655
Mn2 O3 2.060302 1_455
Mn2 O3 2.060303 1_545
Mn2 O3 2.064561 1_445
Mn2 O4 2.116417 1_445
Mn3 O19 2.072834 1_665
Mn3 O20 2.102751 1_555
Mn3 O22 2.171057 1_555
Mn3 O19 2.186810 1_655
Mn3 O19 2.186811 1_565
Mn3 O20 2.255943 1_565
Mn3 O20 2.255944 1_655
Mn3 O17 2.416562 1_665
Mn4 O15 2.111092 1_665
Mn4 O15 2.116031 1_655
Mn4 O15 2.116032 1_565
Mn4 O18 2.219385 1_555
Mn4 O16 2.398405 1_555
Mn4 O16 2.564238 1_565
Mn4 O16 2.564239 1_655
Mn5 O19 2.048395 1_665
Mn5 O24 2.070266 1_555
Mn5 O22 2.076305 1_555
Mn5 O21 2.093290 1_665
Mn5 O22 2.125309 1_565
Mn5 O22 2.125310 1_655
Mn5 O21 2.147760 1_655
Mn5 O21 2.147761 1_565
Mn6 O26 2.072922 1_555
Mn6 O21 2.083194 1_665
Mn6 O23 2.092938 1_665
Mn6 O24 2.097158 1_555
Mn6 O23 2.150287 1_655
Mn6 O23 2.150288 1_565
Mn6 O24 2.152210 1_565
Mn6 O24 2.152211 1_655
Mn7 O30 2.110487 1_445
Mn7 O27 2.132053 1_555
Mn7 O30 2.133977 1_455
Mn7 O30 2.133978 1_545
Mn7 O29 2.171974 1_545
Mn7 O29 2.171975 1_455
Mn7 O29 2.244622 1_555
Mn7 O32 2.668558 1_445
Mn8 O23 2.070960 1_555
Mn8 O28 2.080115 1_445
Mn8 O26 2.086552 1_445
Mn8 O25 2.088756 1_555
Mn8 O25 2.151860 1_545
Mn8 O25 2.151861 1_455
Mn8 O26 2.152489 1_455
Mn8 O26 2.152489 1_545
Mn9 O25 2.082555 1_555
Mn9 O28 2.103228 1_445
Mn9 O27 2.104333 1_555
Mn9 O30 2.107632 1_445
Mn9 O27 2.125445 1_545
Mn9 O27 2.125446 1_455
Mn9 O28 2.145872 1_455
Mn9 O28 2.145873 1_545
Mn10 O32 1.908191 1_455
Mn10 O32 1.908191 1_545
Mn10 O29 1.910763 1_555
Mn10 O31 2.112490 1_555
Mn10 O32 2.258199 1_445
O0 Ta0 2.177341 1_555
O2 Ta1 2.260554 1_555
O2 Ta1 2.335765 1_545
O2 Ta1 2.335766 1_455
O3 Ta1 1.981227 1_555
O4 Ta3 2.163010 1_655
O4 Ta3 2.163010 1_565
O4 Ta3 2.671075 1_665
O5 Ta2 2.009070 1_555
O5 Ta4 2.336776 1_565
O5 Ta4 2.336777 1_655
O5 Ta4 2.363869 1_555
O6 Ta4 2.033839 1_655
O6 Ta4 2.033840 1_565
O6 Ta4 2.037732 1_665
O6 Ta3 2.052581 1_665
O7 Ta6 2.136342 1_555
O7 Ta2 2.209003 1_555
O7 Ta2 2.256865 1_565
O7 Ta2 2.256865 1_655
O8 Ta2 2.040851 1_665
O8 Ta2 2.042343 1_655
O8 Ta2 2.042344 1_565
O9 Ta6 2.127022 1_555
O9 Ta6 2.169275 1_565
O9 Ta6 2.169276 1_655
O9 Ta5 2.276798 1_555
O10 Ta6 2.119500 1_665
O10 Ta6 2.121747 1_655
O10 Ta6 2.121748 1_565
O10 Ta2 2.453416 1_665
O11 Ta5 2.066257 1_565
O11 Ta5 2.066258 1_655
O11 Ta5 2.073182 1_555
O11 Ta7 2.644934 1_445
O12 Ta5 2.156943 1_665
O12 Ta6 2.168119 1_665
O12 Ta5 2.215943 1_655
O12 Ta5 2.215944 1_565
O13 Ta7 2.015833 1_445
O13 Ta7 2.023550 1_455
O13 Ta7 2.023551 1_545
O14 Ta5 2.068717 1_665
O14 Ta7 2.243797 1_555
O14 Ta7 2.284943 1_545
O14 Ta7 2.284944 1_455
O15 Ta8 2.142819 1_445
O16 Ta7 1.808898 1_555
O17 Ta8 2.061102 1_445
O17 Ta8 2.101581 1_455
O17 Ta8 2.101582 1_545
O18 Ta8 2.091517 1_545
O18 Ta8 2.091518 1_455
O18 Ta8 2.093749 1_555
O20 Ta8 2.072740 1_555
O31 Ta0 1.796035 1_446
O33 Ta0 2.019007 1_555
O33 Ta0 2.019695 1_545
O33 Ta0 2.019696 1_455
