# generated using pymatgen
data_Ce5Ir4
_symmetry_space_group_name_H-M   'P 1'
_cell_length_a   7.38447200
_cell_length_b   7.59306600
_cell_length_c   14.86063300
_cell_angle_alpha   90.00000000
_cell_angle_beta   90.00000000
_cell_angle_gamma   90.00000000
_symmetry_Int_Tables_number   1
_chemical_formula_structural   Ce5Ir4
_chemical_formula_sum   'Ce20 Ir16'
_cell_volume   833.24733222
_cell_formula_units_Z   4
loop_
 _symmetry_equiv_pos_site_id
 _symmetry_equiv_pos_as_xyz
  1  'x, y, z'
loop_
 _atom_site_type_symbol
 _atom_site_label
 _atom_site_symmetry_multiplicity
 _atom_site_fract_x
 _atom_site_fract_y
 _atom_site_fract_z
 _atom_site_occupancy
  Ce  Ce0  1  0.51070100  0.32111800  0.90744400  1
  Ce  Ce1  1  0.32061100  0.02141900  0.75000000  1
  Ce  Ce2  1  0.34085100  0.16601700  0.37894100  1
  Ce  Ce3  1  0.65914900  0.83398300  0.87894100  1
  Ce  Ce4  1  0.01070100  0.17888200  0.90744400  1
  Ce  Ce5  1  0.15914900  0.66601700  0.87894100  1
  Ce  Ce6  1  0.98929900  0.82111800  0.40744400  1
  Ce  Ce7  1  0.82061100  0.47858100  0.75000000  1
  Ce  Ce8  1  0.84085100  0.33398300  0.37894100  1
  Ce  Ce9  1  0.48929900  0.67888200  0.09255600  1
  Ce  Ce10  1  0.48929900  0.67888200  0.40744400  1
  Ce  Ce11  1  0.65914900  0.83398300  0.62105900  1
  Ce  Ce12  1  0.84085100  0.33398300  0.12105900  1
  Ce  Ce13  1  0.51070100  0.32111800  0.59255600  1
  Ce  Ce14  1  0.01070100  0.17888200  0.59255600  1
  Ce  Ce15  1  0.67938900  0.97858100  0.25000000  1
  Ce  Ce16  1  0.98929900  0.82111800  0.09255600  1
  Ce  Ce17  1  0.34085100  0.16601700  0.12105900  1
  Ce  Ce18  1  0.17938900  0.52141900  0.25000000  1
  Ce  Ce19  1  0.15914900  0.66601700  0.62105900  1
  Ir  Ir0  1  0.69209500  0.13991000  0.75000000  1
  Ir  Ir1  1  0.31407400  0.96275100  0.96152500  1
  Ir  Ir2  1  0.68592600  0.03724900  0.03847500  1
  Ir  Ir3  1  0.81407400  0.53724900  0.53847500  1
  Ir  Ir4  1  0.30790500  0.86009000  0.25000000  1
  Ir  Ir5  1  0.18592600  0.46275100  0.03847500  1
  Ir  Ir6  1  0.46039900  0.62065400  0.75000000  1
  Ir  Ir7  1  0.03960100  0.12065400  0.25000000  1
  Ir  Ir8  1  0.96039900  0.87934600  0.75000000  1
  Ir  Ir9  1  0.31407400  0.96275100  0.53847500  1
  Ir  Ir10  1  0.53960100  0.37934600  0.25000000  1
  Ir  Ir11  1  0.80790500  0.63991000  0.25000000  1
  Ir  Ir12  1  0.68592600  0.03724900  0.46152500  1
  Ir  Ir13  1  0.19209500  0.36009000  0.75000000  1
  Ir  Ir14  1  0.81407400  0.53724900  0.96152500  1
  Ir  Ir15  1  0.18592600  0.46275100  0.46152500  1
loop_
_geom_bond_atom_site_label_1
_geom_bond_atom_site_label_2
_geom_bond_distance
_geom_bond_site_symmetry_2
Ce0 Ir14 2.890989 1_555
Ce0 Ir0 3.026831 1_555
Ce0 Ir2 3.179905 1_556
Ce0 Ir1 3.187251 1_545
Ce0 Ir5 3.271078 1_556
Ce0 Ir6 3.284073 1_555
Ce0 Ir13 3.331249 1_555
Ce1 Ir13 2.741080 1_555
Ce1 Ir8 2.870403 1_445
Ce1 Ir0 2.886987 1_555
Ce1 Ir9 3.175171 1_545
Ce1 Ir1 3.175171 1_545
Ce1 Ir6 3.213351 1_545
Ce2 Ir15 2.809186 1_555
Ce2 Ir9 2.835807 1_545
Ce2 Ir10 2.906797 1_555
Ce2 Ir7 2.956176 1_555
Ce2 Ir12 2.992563 1_555
Ce2 Ir4 3.021055 1_545
Ce3 Ir14 2.809186 1_555
Ce3 Ir2 2.835807 1_566
Ce3 Ir6 2.906797 1_555
Ce3 Ir8 2.956176 1_555
Ce3 Ir1 2.992563 1_555
Ce3 Ir0 3.021055 1_565
Ce4 Ir1 2.890989 1_545
Ce4 Ir13 3.026831 1_555
Ce4 Ir5 3.179905 1_556
Ce4 Ir14 3.187251 1_455
Ce4 Ir2 3.271078 1_456
Ce4 Ir8 3.284073 1_445
Ce4 Ir0 3.331249 1_455
Ce5 Ir1 2.809186 1_555
Ce5 Ir5 2.835807 1_556
Ce5 Ir8 2.906797 1_455
Ce5 Ir6 2.956176 1_555
Ce5 Ir14 2.992563 1_455
Ce5 Ir13 3.021055 1_555
Ce6 Ir12 2.890989 1_565
Ce6 Ir11 3.026831 1_555
Ce6 Ir3 3.179905 1_555
Ce6 Ir15 3.187251 1_655
Ce6 Ir9 3.271078 1_655
Ce6 Ir7 3.284073 1_665
Ce6 Ir4 3.331249 1_655
Ce7 Ir0 2.741080 1_555
Ce7 Ir6 2.870403 1_555
Ce7 Ir13 2.886987 1_655
Ce7 Ir14 3.175171 1_555
Ce7 Ir3 3.175171 1_555
Ce7 Ir8 3.213351 1_555
Ce8 Ir12 2.809186 1_555
Ce8 Ir3 2.835807 1_555
Ce8 Ir7 2.906797 1_655
Ce8 Ir10 2.956176 1_555
Ce8 Ir15 2.992563 1_655
Ce8 Ir11 3.021055 1_555
Ce9 Ir5 2.890989 1_555
Ce9 Ir4 3.026831 1_555
Ce9 Ir1 3.179905 1_554
Ce9 Ir2 3.187251 1_565
Ce9 Ir14 3.271078 1_554
Ce9 Ir10 3.284073 1_555
Ce9 Ir11 3.331249 1_555
Ce10 Ir15 2.890989 1_555
Ce10 Ir4 3.026831 1_555
Ce10 Ir9 3.179905 1_555
Ce10 Ir12 3.187251 1_565
Ce10 Ir3 3.271078 1_555
Ce10 Ir10 3.284073 1_555
Ce10 Ir11 3.331249 1_555
Ce11 Ir3 2.809186 1_555
Ce11 Ir12 2.835807 1_565
Ce11 Ir6 2.906797 1_555
Ce11 Ir8 2.956176 1_555
Ce11 Ir9 2.992563 1_555
Ce11 Ir0 3.021055 1_565
Ce12 Ir2 2.809186 1_555
Ce12 Ir14 2.835807 1_554
Ce12 Ir7 2.906797 1_655
Ce12 Ir10 2.956176 1_555
Ce12 Ir5 2.992563 1_655
Ce12 Ir11 3.021055 1_555
Ce13 Ir3 2.890989 1_555
Ce13 Ir0 3.026831 1_555
Ce13 Ir12 3.179905 1_555
Ce13 Ir9 3.187251 1_545
Ce13 Ir15 3.271078 1_555
Ce13 Ir6 3.284073 1_555
Ce13 Ir13 3.331249 1_555
Ce14 Ir9 2.890989 1_545
Ce14 Ir13 3.026831 1_555
Ce14 Ir15 3.179905 1_555
Ce14 Ir3 3.187251 1_455
Ce14 Ir12 3.271078 1_455
Ce14 Ir8 3.284073 1_445
Ce14 Ir0 3.331249 1_455
Ce15 Ir11 2.741080 1_555
Ce15 Ir7 2.870403 1_665
Ce15 Ir4 2.886987 1_555
Ce15 Ir2 3.175171 1_565
Ce15 Ir12 3.175171 1_565
Ce15 Ir10 3.213351 1_565
Ce16 Ir2 2.890989 1_565
Ce16 Ir11 3.026831 1_555
Ce16 Ir14 3.179905 1_554
Ce16 Ir5 3.187251 1_655
Ce16 Ir1 3.271078 1_654
Ce16 Ir7 3.284073 1_665
Ce16 Ir4 3.331249 1_655
Ce17 Ir5 2.809186 1_555
Ce17 Ir1 2.835807 1_544
Ce17 Ir10 2.906797 1_555
Ce17 Ir7 2.956176 1_555
Ce17 Ir2 2.992563 1_555
Ce17 Ir4 3.021055 1_545
Ce18 Ir4 2.741080 1_555
Ce18 Ir10 2.870403 1_555
Ce18 Ir11 2.886987 1_455
Ce18 Ir5 3.175171 1_555
Ce18 Ir15 3.175171 1_555
Ce18 Ir7 3.213351 1_555
Ce19 Ir9 2.809186 1_555
Ce19 Ir15 2.835807 1_555
Ce19 Ir8 2.906797 1_455
Ce19 Ir6 2.956176 1_555
Ce19 Ir3 2.992563 1_455
Ce19 Ir13 3.021055 1_555
Ir0 Ir8 2.799976 1_545
Ir4 Ir7 2.799976 1_565
Ir10 Ir11 2.799976 1_555
Ir13 Ir6 2.799976 1_555
