# generated using pymatgen
data_Li10Ge(PO6)2
_symmetry_space_group_name_H-M   'P 1'
_cell_length_a   6.83682400
_cell_length_b   7.14601780
_cell_length_c   10.52699023
_cell_angle_alpha   89.89309253
_cell_angle_beta   89.84989966
_cell_angle_gamma   89.75412351
_symmetry_Int_Tables_number   1
_chemical_formula_structural   Li10Ge(PO6)2
_chemical_formula_sum   'Li20 Ge2 P4 O24'
_cell_volume   514.29994431
_cell_formula_units_Z   2
loop_
 _symmetry_equiv_pos_site_id
 _symmetry_equiv_pos_as_xyz
  1  'x, y, z'
loop_
 _atom_site_type_symbol
 _atom_site_label
 _atom_site_symmetry_multiplicity
 _atom_site_fract_x
 _atom_site_fract_y
 _atom_site_fract_z
 _atom_site_occupancy
  Li  Li0  1  0.01612900  0.45436200  0.93623700  1
  Li  Li1  1  0.21013200  0.35746100  0.43017300  1
  Li  Li2  1  0.50894300  0.07538200  0.56142200  1
  Li  Li3  1  0.52173200  0.96653200  0.06363400  1
  Li  Li4  1  0.72197900  0.74113200  0.17891700  1
  Li  Li5  1  0.48267300  0.43710400  0.24763800  1
  Li  Li6  1  0.86214700  0.10774700  0.76372700  1
  Li  Li7  1  0.95267000  0.08070700  0.24200800  1
  Li  Li8  1  0.22168200  0.76403900  0.33232000  1
  Li  Li9  1  0.55353000  0.47884600  0.74022200  1
  Li  Li10  1  0.74999300  0.70867500  0.42611700  1
  Li  Li11  1  0.23010700  0.74949700  0.82646600  1
  Li  Li12  1  0.74375500  0.23486800  0.01313000  1
  Li  Li13  1  0.22047900  0.80209600  0.07476100  1
  Li  Li14  1  0.22412900  0.26324400  0.68672600  1
  Li  Li15  1  0.81995000  0.75315900  0.92863400  1
  Li  Li16  1  0.23693900  0.18341600  0.06470100  1
  Li  Li17  1  0.74316500  0.35038000  0.43517800  1
  Li  Li18  1  0.29624400  0.77788000  0.57518000  1
  Li  Li19  1  0.73026100  0.78842400  0.66788400  1
  Ge  Ge0  1  0.98428000  0.49379100  0.19754600  1
  Ge  Ge1  1  0.47936000  0.01453500  0.82089700  1
  P  P0  1  0.98614400  0.02721100  0.50152200  1
  P  P1  1  0.48360200  0.50762800  0.99447300  1
  P  P2  1  0.97448300  0.52352000  0.67216500  1
  P  P3  1  0.48181800  0.02037100  0.31302500  1
  O  O0  1  0.99173500  0.85056900  0.41690700  1
  O  O1  1  0.97543700  0.20229100  0.41343900  1
  O  O2  1  0.67383600  0.50369000  0.91277600  1
  O  O3  1  0.29897800  0.51615300  0.91115800  1
  O  O4  1  0.48367800  0.32394200  0.07602700  1
  O  O5  1  0.48824000  0.68237200  0.08370800  1
  O  O6  1  0.80008800  0.02055900  0.58807900  1
  O  O7  1  0.17187400  0.03781700  0.58543800  1
  O  O8  1  0.96815100  0.68852200  0.08691600  1
  O  O9  1  0.98237300  0.28566900  0.10242600  1
  O  O10  1  0.78190900  0.53501200  0.59052800  1
  O  O11  1  0.16564300  0.51739400  0.59114600  1
  O  O12  1  0.48224700  0.21043500  0.38686100  1
  O  O13  1  0.47624300  0.85606600  0.41322100  1
  O  O14  1  0.70413100  0.00707400  0.91007700  1
  O  O15  1  0.28453900  0.98636900  0.93284400  1
  O  O16  1  0.97729100  0.34647100  0.75832500  1
  O  O17  1  0.97109000  0.70122400  0.75895400  1
  O  O18  1  0.20489800  0.51326600  0.28232100  1
  O  O19  1  0.76339000  0.52392700  0.28974800  1
  O  O20  1  0.46834500  0.80816400  0.72268500  1
  O  O21  1  0.48566500  0.21428800  0.72291300  1
  O  O22  1  0.29918500  0.99944800  0.22407500  1
  O  O23  1  0.66731000  0.00017300  0.22793000  1
loop_
_geom_bond_atom_site_label_1
_geom_bond_atom_site_label_2
_geom_bond_distance
_geom_bond_site_symmetry_2
Li0 O3 2.002107 1_555
Li0 O16 2.045081 1_455
Li0 O9 2.135298 1_456
Li0 O8 2.329389 1_456
Li0 O2 2.378528 1_455
Li1 O18 1.912298 1_555
Li1 O1 1.962828 1_455
Li1 O11 2.066829 1_555
Li1 O12 2.180233 1_555
Li2 O21 1.975906 1_555
Li2 O6 2.046990 1_555
Li2 O12 2.082095 1_555
Li2 O13 2.225784 1_545
Li2 O7 2.334227 1_555
Li2 O20 2.568127 1_545
Li3 O23 2.013042 1_565
Li3 O5 2.054899 1_555
Li3 O14 2.059820 1_564
Li3 O15 2.134122 1_554
Li3 O22 2.282076 1_555
Li4 O5 1.936564 1_555
Li4 O23 1.956819 1_565
Li4 O19 1.960040 1_555
Li4 O8 1.974668 1_555
Li5 O4 1.980638 1_555
Li5 O18 2.006073 1_555
Li5 O19 2.068945 1_555
Li5 O12 2.182393 1_555
Li5 O5 2.457705 1_555
Li6 O16 1.882568 1_555
Li6 O6 1.999463 1_555
Li6 O14 2.012958 1_555
Li7 O1 2.011061 1_555
Li7 O23 2.042268 1_555
Li7 O9 2.082908 1_555
Li7 O22 2.443673 1_645
Li7 O0 2.480589 1_545
Li8 O18 1.872743 1_555
Li8 O0 1.906081 1_455
Li8 O13 2.050952 1_555
Li8 O22 2.099159 1_555
Li9 O21 1.957515 1_555
Li9 O2 2.004472 1_555
Li9 O10 2.252195 1_555
Li9 O20 2.428688 1_555
Li9 O3 2.513802 1_555
Li10 O0 1.944814 1_555
Li10 O19 1.953846 1_555
Li10 O10 2.138887 1_555
Li10 O13 2.148133 1_555
Li11 O17 1.942360 1_455
Li11 O3 1.946016 1_555
Li11 O20 2.004272 1_555
Li11 O15 2.066978 1_555
Li12 O9 1.921261 1_555
Li12 O14 1.977871 1_554
Li12 O4 1.997722 1_555
Li12 O2 2.240982 1_554
Li13 O8 1.913528 1_455
Li13 O5 2.019708 1_555
Li13 O15 2.037626 1_554
Li13 O22 2.183644 1_555
Li14 O21 1.860758 1_555
Li14 O16 1.938082 1_455
Li14 O7 1.967969 1_555
Li14 O11 2.111814 1_555
Li15 O14 1.986117 1_565
Li15 O8 2.004560 1_556
Li15 O2 2.054533 1_555
Li15 O17 2.094176 1_555
Li16 O9 1.925424 1_455
Li16 O4 1.970874 1_555
Li16 O15 2.004084 1_544
Li16 O22 2.171373 1_545
Li17 O1 1.917964 1_555
Li17 O19 1.973372 1_555
Li17 O12 2.112556 1_555
Li17 O10 2.121011 1_555
Li18 O20 1.963524 1_555
Li18 O7 2.042483 1_565
Li18 O11 2.074313 1_555
Li18 O13 2.173654 1_555
Li19 O20 1.884658 1_555
Li19 O6 1.919618 1_565
Li19 O17 2.003897 1_555
Li19 O10 2.016341 1_555
Ge0 O18 1.760726 1_655
Ge0 O9 1.794578 1_555
Ge0 O19 1.805389 1_555
Ge0 O8 1.816089 1_555
Ge1 O21 1.760166 1_555
Ge1 O15 1.787902 1_545
Ge1 O14 1.803430 1_555
Ge1 O20 1.804565 1_545
O0 P0 1.546562 1_565
O1 P0 1.557467 1_555
O2 P1 1.557530 1_555
O3 P1 1.539849 1_555
O4 P1 1.567107 1_554
O5 P1 1.564486 1_554
O6 P0 1.563607 1_555
O7 P0 1.550956 1_455
O10 P2 1.575899 1_555
O11 P2 1.559230 1_455
O12 P3 1.566159 1_555
O13 P3 1.577372 1_565
O16 P2 1.555425 1_555
O17 P2 1.565823 1_555
O22 P3 1.570504 1_565
O23 P3 1.557084 1_555
