# generated using pymatgen
data_Li4Nd3SbTeO12
_symmetry_space_group_name_H-M   'P 1'
_cell_length_a   11.04911100
_cell_length_b   11.08887430
_cell_length_c   11.09076671
_cell_angle_alpha   108.95576460
_cell_angle_beta   109.37960133
_cell_angle_gamma   109.50213608
_symmetry_Int_Tables_number   1
_chemical_formula_structural   Li4Nd3SbTeO12
_chemical_formula_sum   'Li16 Nd12 Sb4 Te4 O48'
_cell_volume   1053.40749495
_cell_formula_units_Z   4
loop_
 _symmetry_equiv_pos_site_id
 _symmetry_equiv_pos_as_xyz
  1  'x, y, z'
loop_
 _atom_site_type_symbol
 _atom_site_label
 _atom_site_symmetry_multiplicity
 _atom_site_fract_x
 _atom_site_fract_y
 _atom_site_fract_z
 _atom_site_occupancy
  Li  Li0  1  0.12994800  0.75553800  0.88100300  1
  Li  Li1  1  0.12748300  0.87188100  0.24817900  1
  Li  Li2  1  0.24822100  0.12684600  0.87281100  1
  Li  Li3  1  0.28033900  0.64282300  0.39175600  1
  Li  Li4  1  0.36558200  0.64360100  0.75283900  1
  Li  Li5  1  0.40662900  0.45113000  0.69832400  1
  Li  Li6  1  0.36849600  0.22085600  0.61182800  1
  Li  Li7  1  0.60789600  0.72378200  0.35428100  1
  Li  Li8  1  0.75143100  0.87484100  0.12905600  1
  Li  Li9  1  0.62781500  0.37441000  0.25099900  1
  Li  Li10  1  0.74708000  0.37571200  0.62159900  1
  Li  Li11  1  0.89391200  0.14062200  0.75366400  1
  Li  Li12  1  0.74361600  0.94637200  0.54362500  1
  Li  Li13  1  0.83886800  0.21025300  0.13352800  1
  Li  Li14  1  0.05009900  0.44914300  0.25054100  1
  Li  Li15  1  0.89807500  0.20461700  0.95864600  1
  Nd  Nd0  1  0.25975800  0.88157600  0.63012200  1
  Nd  Nd1  1  0.12992900  0.37840100  0.75542900  1
  Nd  Nd2  1  0.13075800  0.25023700  0.37661000  1
  Nd  Nd3  1  0.61826300  0.87272200  0.74907200  1
  Nd  Nd4  1  0.26808900  0.38128200  0.13142800  1
  Nd  Nd5  1  0.38610900  0.76145500  0.12795600  1
  Nd  Nd6  1  0.61768900  0.25169700  0.87871200  1
  Nd  Nd7  1  0.38025100  0.12261300  0.24761300  1
  Nd  Nd8  1  0.75379000  0.62852400  0.87709500  1
  Nd  Nd9  1  0.87525100  0.74630500  0.62641200  1
  Nd  Nd10  1  0.74198400  0.12606300  0.36767800  1
  Nd  Nd11  1  0.86472900  0.63459000  0.25161900  1
  Sb  Sb0  1  0.50291100  0.00015600  0.49867800  1
  Sb  Sb1  1  0.50363700  0.50512200  0.50234900  1
  Sb  Sb2  1  0.49907200  0.49688100  0.99528100  1
  Sb  Sb3  1  0.49682700  0.00109700  0.99656200  1
  Te  Te0  1  0.00341700  0.00395700  0.00522200  1
  Te  Te1  1  0.00404000  0.00526000  0.50194600  1
  Te  Te2  1  0.00479500  0.50676800  0.50583400  1
  Te  Te3  1  0.00160800  0.50081200  0.00131400  1
  O  O0  1  0.09277000  0.97690200  0.66752600  1
  O  O1  1  0.02531200  0.33008800  0.90976000  1
  O  O2  1  0.12526200  0.59704800  0.93422600  1
  O  O3  1  0.07926000  0.69310100  0.67365600  1
  O  O4  1  0.07277000  0.88674900  0.40340000  1
  O  O5  1  0.09818800  0.61779500  0.42358900  1
  O  O6  1  0.17289100  0.47895100  0.59728900  1
  O  O7  1  0.41494700  0.83240000  0.79785900  1
  O  O8  1  0.30015200  0.32707100  0.91830900  1
  O  O9  1  0.37916300  0.56554000  0.88364800  1
  O  O10  1  0.17461200  0.19764900  0.58134500  1
  O  O11  1  0.01562900  0.19489900  0.12022700  1
  O  O12  1  0.32971200  0.91850600  0.30066700  1
  O  O13  1  0.17850600  0.56003600  0.17638500  1
  O  O14  1  0.41411800  0.83235600  0.53266400  1
  O  O15  1  0.30102900  0.47486400  0.37854600  1
  O  O16  1  0.32814200  0.91121800  0.02931200  1
  O  O17  1  0.12070200  0.02813800  0.19694900  1
  O  O18  1  0.40554800  0.08364100  0.88065900  1
  O  O19  1  0.52475200  0.62211600  0.70157800  1
  O  O20  1  0.52525000  0.40599100  0.82089900  1
  O  O21  1  0.38206200  0.31957200  0.49889000  1
  O  O22  1  0.19333800  0.12284600  0.02711900  1
  O  O23  1  0.58456400  0.90568200  0.37689200  1
  O  O24  1  0.43181300  0.09125100  0.62778500  1
  O  O25  1  0.81378400  0.88522500  0.98332500  1
  O  O26  1  0.62588200  0.70629200  0.52763100  1
  O  O27  1  0.46580100  0.58996400  0.16141700  1
  O  O28  1  0.47618100  0.37906500  0.30728600  1
  O  O29  1  0.59396100  0.92212100  0.11657600  1
  O  O30  1  0.88860400  0.00210700  0.82557300  1
  O  O31  1  0.66877700  0.08728100  0.96027700  1
  O  O32  1  0.70397000  0.53490800  0.62624400  1
  O  O33  1  0.59235500  0.17208300  0.46949200  1
  O  O34  1  0.81391800  0.42825200  0.83334600  1
  O  O35  1  0.68777200  0.06497800  0.67989600  1
  O  O36  1  0.98111300  0.81599600  0.88360600  1
  O  O37  1  0.82646000  0.81911000  0.43181300  1
  O  O38  1  0.69846400  0.67176700  0.07796400  1
  O  O39  1  0.62383500  0.42221200  0.09250400  1
  O  O40  1  0.58601100  0.17427400  0.19647900  1
  O  O41  1  0.83614500  0.53356200  0.41149100  1
  O  O42  1  0.90537800  0.38198400  0.57024600  1
  O  O43  1  0.92323500  0.11574100  0.59433300  1
  O  O44  1  0.93998000  0.32560500  0.33154500  1
  O  O45  1  0.88419200  0.38321100  0.06563100  1
  O  O46  1  0.97420200  0.66281200  0.09909600  1
  O  O47  1  0.91059200  0.03279400  0.33624000  1
loop_
_geom_bond_atom_site_label_1
_geom_bond_atom_site_label_2
_geom_bond_distance
_geom_bond_site_symmetry_2
Li0 O16 1.929213 1_556
Li0 O36 1.977294 1_455
Li0 O3 1.983261 1_555
Li0 O2 2.018253 1_555
Li1 O12 1.941349 1_555
Li1 O4 1.982193 1_555
Li1 O46 2.001636 1_455
Li1 O17 2.007180 1_565
Li2 O18 1.934326 1_555
Li2 O8 1.934638 1_555
Li2 O0 1.984170 1_545
Li2 O22 2.004661 1_556
Li3 O14 1.817473 1_555
Li3 O15 1.916188 1_555
Li3 O13 1.978989 1_555
Li3 O5 2.101078 1_555
Li4 O7 1.818663 1_555
Li4 O9 1.906476 1_555
Li4 O6 1.939911 1_555
Li4 O19 2.080451 1_555
Li5 O20 1.874593 1_555
Li5 O19 1.889900 1_555
Li5 O21 2.082082 1_555
Li5 O9 2.214309 1_555
Li5 O10 2.601583 1_555
Li5 O6 2.618515 1_555
Li6 O24 1.827735 1_555
Li6 O21 1.922365 1_555
Li6 O10 1.965829 1_555
Li6 O20 2.111640 1_555
Li7 O27 1.842795 1_555
Li7 O26 1.946242 1_555
Li7 O37 2.003906 1_555
Li7 O23 2.063826 1_555
Li8 O38 1.950762 1_555
Li8 O29 1.953888 1_555
Li8 O25 1.976654 1_554
Li8 O47 2.021721 1_565
Li9 O40 1.939739 1_555
Li9 O28 1.982507 1_555
Li9 O39 1.985571 1_555
Li9 O41 2.027089 1_555
Li10 O32 1.965826 1_555
Li10 O33 1.975099 1_555
Li10 O42 1.998504 1_555
Li10 O34 2.018121 1_555
Li11 O43 1.851119 1_555
Li11 O1 1.857776 1_655
Li11 O35 1.898039 1_555
Li11 O30 1.940475 1_555
Li12 O23 1.866363 1_555
Li12 O43 1.966396 1_565
Li12 O35 2.064946 1_565
Li12 O37 2.201362 1_555
Li12 O26 2.457408 1_555
Li13 O31 1.809321 1_554
Li13 O44 1.816569 1_555
Li13 O11 2.064478 1_655
Li13 O45 2.245772 1_555
Li14 O45 1.933076 1_455
Li14 O5 1.947095 1_555
Li14 O13 2.113775 1_555
Li14 O44 2.139217 1_455
Li14 O15 2.525987 1_555
Li14 O11 2.540234 1_555
Li15 O11 1.893228 1_656
Li15 O1 1.973865 1_655
Li15 O45 2.037257 1_556
Li15 O30 2.195300 1_555
Li15 O31 2.440654 1_555
Nd0 O14 2.415940 1_555
Nd0 O7 2.421731 1_555
Nd0 O18 2.431256 1_565
Nd0 O24 2.478150 1_565
Nd0 O0 2.493798 1_555
Nd0 O5 2.537019 1_555
Nd0 O3 2.662734 1_555
Nd0 O4 2.705506 1_555
Nd1 O9 2.362283 1_555
Nd1 O6 2.452406 1_555
Nd1 O1 2.459319 1_555
Nd1 O8 2.500543 1_555
Nd1 O43 2.522119 1_455
Nd1 O10 2.601536 1_555
Nd1 O2 2.615559 1_555
Nd1 O42 2.666950 1_455
Nd2 O21 2.353384 1_555
Nd2 O11 2.454553 1_555
Nd2 O10 2.459574 1_555
Nd2 O44 2.477917 1_455
Nd2 O17 2.555463 1_555
Nd2 O15 2.560052 1_555
Nd2 O47 2.567395 1_455
Nd2 O6 2.657438 1_555
Nd3 O7 2.415055 1_555
Nd3 O19 2.416244 1_555
Nd3 O14 2.466548 1_555
Nd3 O35 2.466561 1_565
Nd3 O31 2.466603 1_565
Nd3 O30 2.523186 1_565
Nd3 O26 2.596345 1_555
Nd3 O25 2.697641 1_555
Nd4 O8 2.418373 1_554
Nd4 O22 2.421727 1_555
Nd4 O27 2.424915 1_555
Nd4 O15 2.441106 1_555
Nd4 O13 2.480484 1_555
Nd4 O28 2.486752 1_555
Nd4 O1 2.694791 1_554
Nd4 O11 2.796780 1_555
Nd5 O23 2.400128 1_555
Nd5 O16 2.406368 1_555
Nd5 O27 2.426709 1_555
Nd5 O29 2.463916 1_555
Nd5 O2 2.466582 1_554
Nd5 O12 2.537676 1_555
Nd5 O9 2.827305 1_554
Nd5 O13 2.952119 1_555
Nd6 O24 2.382998 1_555
Nd6 O20 2.413824 1_555
Nd6 O31 2.425026 1_555
Nd6 O39 2.469147 1_556
Nd6 O18 2.471984 1_555
Nd6 O45 2.492518 1_556
Nd6 O34 2.704952 1_555
Nd6 O35 2.997715 1_555
Nd7 O28 2.438781 1_555
Nd7 O40 2.452667 1_555
Nd7 O12 2.453581 1_545
Nd7 O16 2.484924 1_545
Nd7 O17 2.485885 1_555
Nd7 O33 2.507207 1_555
Nd7 O22 2.627039 1_555
Nd7 O21 2.918307 1_555
Nd8 O32 2.417987 1_555
Nd8 O38 2.443803 1_556
Nd8 O25 2.444019 1_555
Nd8 O34 2.471375 1_555
Nd8 O20 2.578764 1_555
Nd8 O19 2.592183 1_555
Nd8 O36 2.632748 1_555
Nd8 O46 2.632852 1_556
Nd9 O36 2.419105 1_555
Nd9 O26 2.419393 1_555
Nd9 O3 2.451243 1_655
Nd9 O32 2.471719 1_555
Nd9 O37 2.500177 1_555
Nd9 O41 2.533047 1_555
Nd9 O0 2.633368 1_655
Nd9 O30 2.894920 1_565
Nd10 O33 2.386771 1_555
Nd10 O29 2.441506 1_545
Nd10 O40 2.442125 1_555
Nd10 O42 2.470941 1_555
Nd10 O47 2.478945 1_555
Nd10 O23 2.539683 1_545
Nd10 O43 2.709581 1_555
Nd10 O44 2.787190 1_555
Nd11 O39 2.396322 1_555
Nd11 O46 2.423142 1_555
Nd11 O41 2.434049 1_555
Nd11 O38 2.434658 1_555
Nd11 O4 2.453285 1_655
Nd11 O37 2.615571 1_555
Nd11 O5 2.759122 1_655
Nd11 O45 3.005068 1_555
O0 Te1 1.954130 1_565
O1 Te3 1.985519 1_556
O2 Te3 1.943228 1_556
O3 Te2 1.939238 1_555
O4 Te1 1.944804 1_565
O5 Te2 1.979558 1_555
O6 Te2 1.977148 1_555
O7 Sb3 2.010727 1_565
O8 Sb2 2.013043 1_555
O9 Sb2 2.016222 1_555
O10 Te1 1.967800 1_555
O11 Te0 2.017094 1_555
O12 Sb0 2.016695 1_565
O13 Te3 1.953864 1_555
O14 Sb0 2.012228 1_565
O15 Sb1 2.041726 1_555
O16 Sb3 2.010787 1_564
O17 Te0 1.960008 1_555
O18 Sb3 2.006931 1_555
O19 Sb1 2.052629 1_555
O20 Sb2 2.034563 1_555
O21 Sb1 2.026945 1_555
O22 Te0 1.951200 1_555
O23 Sb0 2.063083 1_565
O24 Sb0 2.006108 1_555
O25 Te0 1.948146 1_666
O26 Sb1 2.051769 1_555
O27 Sb2 2.015665 1_554
O28 Sb1 2.010697 1_555
O29 Sb3 2.031576 1_564
O30 Te0 1.964230 1_656
O31 Sb3 2.056657 1_555
O32 Sb1 2.023679 1_555
O33 Sb0 2.017759 1_555
O34 Te3 1.940793 1_656
O35 Sb0 2.021109 1_555
O36 Te0 1.958124 1_666
O37 Te1 1.988861 1_665
O38 Sb2 2.026489 1_554
O39 Sb2 2.025894 1_554
O40 Sb3 2.023653 1_554
O41 Te2 1.983216 1_655
O42 Te2 1.944161 1_655
O43 Te1 1.967187 1_655
O44 Te2 1.970512 1_655
O45 Te3 1.995348 1_655
O46 Te3 1.951999 1_655
O47 Te1 1.962794 1_655
