# generated using pymatgen
data_CdI2
_symmetry_space_group_name_H-M   'P 1'
_cell_length_a   4.33985108
_cell_length_b   4.33985135
_cell_length_c   211.42583947
_cell_angle_alpha   90.00000000
_cell_angle_beta   90.00000000
_cell_angle_gamma   119.99999798
_symmetry_Int_Tables_number   1
_chemical_formula_structural   CdI2
_chemical_formula_sum   'Cd29 I58'
_cell_volume   3448.56475259
_cell_formula_units_Z   29
loop_
 _symmetry_equiv_pos_site_id
 _symmetry_equiv_pos_as_xyz
  1  'x, y, z'
loop_
 _atom_site_type_symbol
 _atom_site_label
 _atom_site_symmetry_multiplicity
 _atom_site_fract_x
 _atom_site_fract_y
 _atom_site_fract_z
 _atom_site_occupancy
  Cd  Cd0  1  0.33333300  0.66666700  0.56034639  1
  Cd  Cd1  1  0.66666700  0.33333300  0.52586052  1
  Cd  Cd2  1  0.66666700  0.33333300  0.00861167  1
  Cd  Cd3  1  0.66666700  0.33333300  0.90517711  1
  Cd  Cd4  1  0.33333300  0.66666700  0.62930968  1
  Cd  Cd5  1  0.33333300  0.66666700  0.73276266  1
  Cd  Cd6  1  0.33333300  0.66666700  0.45691310  1
  Cd  Cd7  1  0.33333300  0.66666700  0.87070355  1
  Cd  Cd8  1  0.66666700  0.33333300  0.59482787  1
  Cd  Cd9  1  0.33333300  0.66666700  0.49137993  1
  Cd  Cd10  1  0.33333300  0.66666700  0.93965863  1
  Cd  Cd11  1  0.66666700  0.33333300  0.42240295  1
  Cd  Cd12  1  0.33333300  0.66666700  0.11207619  1
  Cd  Cd13  1  0.33333300  0.66666700  0.80171828  1
  Cd  Cd14  1  0.66666700  0.33333300  0.69828679  1
  Cd  Cd15  1  0.33333300  0.66666700  0.66378895  1
  Cd  Cd16  1  0.33333300  0.66666700  0.97413267  1
  Cd  Cd17  1  0.33333300  0.66666700  0.14654525  1
  Cd  Cd18  1  0.66666700  0.33333300  0.18103597  1
  Cd  Cd19  1  0.33333300  0.66666700  0.21551786  1
  Cd  Cd20  1  0.33333300  0.66666700  0.31896428  1
  Cd  Cd21  1  0.66666700  0.33333300  0.24999849  1
  Cd  Cd22  1  0.66666700  0.33333300  0.35345149  1
  Cd  Cd23  1  0.33333300  0.66666700  0.28448113  1
  Cd  Cd24  1  0.66666700  0.33333300  0.07759559  1
  Cd  Cd25  1  0.66666700  0.33333300  0.83621457  1
  Cd  Cd26  1  0.33333300  0.66666700  0.38792811  1
  Cd  Cd27  1  0.66666700  0.33333300  0.76723671  1
  Cd  Cd28  1  0.33333300  0.66666700  0.04310037  1
  I  I0  1  0.33333300  0.66666700  0.60293855  1
  I  I1  1  0.00000000  0.00000000  0.34533475  1
  I  I2  1  0.00000000  0.00000000  0.44880361  1
  I  I3  1  0.00000000  0.00000000  0.48326698  1
  I  I4  1  0.66666700  0.33333300  0.32706873  1
  I  I5  1  0.66666700  0.33333300  0.74087016  1
  I  I6  1  0.00000000  0.00000000  0.31085490  1
  I  I7  1  0.00000000  0.00000000  0.24189096  1
  I  I8  1  0.66666700  0.33333300  0.46502041  1
  I  I9  1  0.33333300  0.66666700  0.08570343  1
  I  I10  1  0.66666700  0.33333300  0.56845516  1
  I  I11  1  0.00000000  0.00000000  0.82810407  1
  I  I12  1  0.00000000  0.00000000  0.20741080  1
  I  I13  1  0.33333300  0.66666700  0.70639499  1
  I  I14  1  0.00000000  0.00000000  0.69017658  1
  I  I15  1  0.00000000  0.00000000  0.58671738  1
  I  I16  1  0.33333300  0.66666700  0.91328460  1
  I  I17  1  0.66666700  0.33333300  0.87881276  1
  I  I18  1  0.66666700  0.33333300  0.63741655  1
  I  I19  1  0.33333300  0.66666700  0.77534247  1
  I  I20  1  0.66666700  0.33333300  0.94776719  1
  I  I21  1  0.00000000  0.00000000  0.96602064  1
  I  I22  1  0.00000000  0.00000000  0.62120184  1
  I  I23  1  0.66666700  0.33333300  0.49949022  1
  I  I24  1  0.33333300  0.66666700  0.01671821  1
  I  I25  1  0.00000000  0.00000000  0.93154754  1
  I  I26  1  0.33333300  0.66666700  0.18914653  1
  I  I27  1  0.00000000  0.00000000  0.51775088  1
  I  I28  1  0.33333300  0.66666700  0.53396415  1
  I  I29  1  0.00000000  0.00000000  0.03499060  1
  I  I30  1  0.66666700  0.33333300  0.15465391  1
  I  I31  1  0.66666700  0.33333300  0.12018349  1
  I  I32  1  0.00000000  0.00000000  0.65568002  1
  I  I33  1  0.00000000  0.00000000  0.86259061  1
  I  I34  1  0.66666700  0.33333300  0.98224525  1
  I  I35  1  0.33333300  0.66666700  0.36156498  1
  I  I36  1  0.00000000  0.00000000  0.10396003  1
  I  I37  1  0.00000000  0.00000000  0.89706384  1
  I  I38  1  0.66666700  0.33333300  0.22362364  1
  I  I39  1  0.66666700  0.33333300  0.39603446  1
  I  I40  1  0.00000000  0.00000000  0.27637160  1
  I  I41  1  0.00000000  0.00000000  0.41429199  1
  I  I42  1  0.66666700  0.33333300  0.29258684  1
  I  I43  1  0.33333300  0.66666700  0.25810253  1
  I  I44  1  0.33333300  0.66666700  0.84432262  1
  I  I45  1  0.33333300  0.66666700  0.43051368  1
  I  I46  1  0.00000000  0.00000000  0.55223884  1
  I  I47  1  0.00000000  0.00000000  0.37982215  1
  I  I48  1  0.00000000  0.00000000  0.06948238  1
  I  I49  1  0.66666700  0.33333300  0.05120689  1
  I  I50  1  0.66666700  0.33333300  0.67189684  1
  I  I51  1  0.66666700  0.33333300  0.80982973  1
  I  I52  1  0.00000000  0.00000000  0.13843454  1
  I  I53  1  0.00000000  0.00000000  0.17292408  1
  I  I54  1  0.00000000  0.00000000  0.79360395  1
  I  I55  1  0.00000000  0.00000000  0.00050313  1
  I  I56  1  0.00000000  0.00000000  0.75912802  1
  I  I57  1  0.00000000  0.00000000  0.72464755  1
loop_
_geom_bond_atom_site_label_1
_geom_bond_atom_site_label_2
_geom_bond_distance
_geom_bond_site_symmetry_2
Cd0 I46 3.035850 1_565
Cd0 I46 3.035853 1_665
Cd0 I46 3.035853 1_555
Cd0 I10 3.035996 1_455
Cd0 I10 3.035996 1_565
Cd0 I10 3.036002 1_555
Cd1 I28 3.035382 1_655
Cd1 I28 3.035382 1_545
Cd1 I28 3.035388 1_555
Cd1 I27 3.036100 1_655
Cd1 I27 3.036103 1_555
Cd1 I27 3.036103 1_665
Cd2 I24 3.035729 1_655
Cd2 I24 3.035730 1_545
Cd2 I24 3.035736 1_555
Cd2 I55 3.035968 1_655
Cd2 I55 3.035971 1_555
Cd2 I55 3.035971 1_665
Cd3 I16 3.035843 1_655
Cd3 I16 3.035843 1_545
Cd3 I16 3.035849 1_555
Cd3 I37 3.036533 1_655
Cd3 I37 3.036536 1_555
Cd3 I37 3.036536 1_665
Cd4 I18 3.035769 1_455
Cd4 I18 3.035769 1_565
Cd4 I18 3.035775 1_555
Cd4 I22 3.035885 1_565
Cd4 I22 3.035888 1_665
Cd4 I22 3.035888 1_555
Cd5 I5 3.035844 1_455
Cd5 I5 3.035844 1_565
Cd5 I5 3.035850 1_555
Cd5 I57 3.036753 1_565
Cd5 I57 3.036756 1_665
Cd5 I57 3.036756 1_555
Cd6 I8 3.035821 1_455
Cd6 I8 3.035821 1_565
Cd6 I8 3.035828 1_555
Cd6 I2 3.036082 1_565
Cd6 I2 3.036085 1_665
Cd6 I2 3.036085 1_555
Cd7 I17 3.036048 1_455
Cd7 I17 3.036048 1_565
Cd7 I17 3.036054 1_555
Cd7 I33 3.036494 1_565
Cd7 I33 3.036497 1_665
Cd7 I33 3.036497 1_555
Cd8 I15 3.036201 1_655
Cd8 I15 3.036204 1_555
Cd8 I15 3.036204 1_665
Cd8 I0 3.036224 1_655
Cd8 I0 3.036224 1_545
Cd8 I0 3.036230 1_555
Cd9 I23 3.036177 1_455
Cd9 I23 3.036177 1_565
Cd9 I23 3.036183 1_555
Cd9 I3 3.036495 1_565
Cd9 I3 3.036498 1_665
Cd9 I3 3.036498 1_555
Cd10 I20 3.035971 1_455
Cd10 I20 3.035971 1_565
Cd10 I20 3.035977 1_555
Cd10 I25 3.036273 1_565
Cd10 I25 3.036276 1_665
Cd10 I25 3.036276 1_555
Cd11 I45 3.036230 1_655
Cd11 I45 3.036230 1_545
Cd11 I45 3.036236 1_555
Cd11 I41 3.036257 1_655
Cd11 I41 3.036260 1_555
Cd11 I41 3.036260 1_665
Cd12 I31 3.035820 1_455
Cd12 I31 3.035820 1_565
Cd12 I31 3.035826 1_555
Cd12 I36 3.036878 1_565
Cd12 I36 3.036881 1_665
Cd12 I36 3.036881 1_555
Cd13 I51 3.036316 1_455
Cd13 I51 3.036316 1_565
Cd13 I51 3.036322 1_555
Cd13 I54 3.036660 1_565
Cd13 I54 3.036663 1_665
Cd13 I54 3.036663 1_555
Cd14 I13 3.035928 1_655
Cd14 I13 3.035928 1_545
Cd14 I13 3.035934 1_555
Cd14 I14 3.036168 1_655
Cd14 I14 3.036171 1_555
Cd14 I14 3.036171 1_665
Cd15 I50 3.035891 1_455
Cd15 I50 3.035891 1_565
Cd15 I50 3.035897 1_555
Cd15 I32 3.036015 1_565
Cd15 I32 3.036018 1_665
Cd15 I32 3.036018 1_555
Cd16 I21 3.036385 1_565
Cd16 I21 3.036388 1_665
Cd16 I21 3.036388 1_555
Cd16 I34 3.036451 1_455
Cd16 I34 3.036451 1_565
Cd16 I34 3.036457 1_555
Cd17 I30 3.035983 1_455
Cd17 I30 3.035983 1_565
Cd17 I30 3.035989 1_555
Cd17 I52 3.036227 1_565
Cd17 I52 3.036230 1_665
Cd17 I52 3.036231 1_555
Cd18 I26 3.036209 1_655
Cd18 I26 3.036209 1_545
Cd18 I26 3.036216 1_555
Cd18 I53 3.036368 1_655
Cd18 I53 3.036371 1_555
Cd18 I53 3.036371 1_665
Cd19 I38 3.035639 1_455
Cd19 I38 3.035639 1_565
Cd19 I38 3.035645 1_555
Cd19 I12 3.035791 1_565
Cd19 I12 3.035795 1_665
Cd19 I12 3.035795 1_555
Cd20 I4 3.035480 1_455
Cd20 I4 3.035480 1_565
Cd20 I4 3.035486 1_555
Cd20 I6 3.036068 1_565
Cd20 I6 3.036072 1_665
Cd20 I6 3.036072 1_555
Cd21 I43 3.035431 1_655
Cd21 I43 3.035431 1_545
Cd21 I43 3.035437 1_555
Cd21 I7 3.035848 1_655
Cd21 I7 3.035851 1_555
Cd21 I7 3.035851 1_665
Cd22 I35 3.036559 1_655
Cd22 I35 3.036559 1_545
Cd22 I35 3.036565 1_555
Cd22 I1 3.036948 1_655
Cd22 I1 3.036951 1_555
Cd22 I1 3.036951 1_665
Cd23 I42 3.035630 1_455
Cd23 I42 3.035630 1_565
Cd23 I42 3.035637 1_555
Cd23 I40 3.036086 1_565
Cd23 I40 3.036089 1_665
Cd23 I40 3.036090 1_555
Cd24 I9 3.035885 1_655
Cd24 I9 3.035885 1_545
Cd24 I9 3.035891 1_555
Cd24 I48 3.036526 1_655
Cd24 I48 3.036529 1_555
Cd24 I48 3.036529 1_665
Cd25 I44 3.035910 1_655
Cd25 I44 3.035910 1_545
Cd25 I44 3.035916 1_555
Cd25 I11 3.036202 1_655
Cd25 I11 3.036205 1_555
Cd25 I11 3.036205 1_665
Cd26 I47 3.035660 1_565
Cd26 I47 3.035663 1_665
Cd26 I47 3.035663 1_555
Cd26 I39 3.035707 1_455
Cd26 I39 3.035707 1_565
Cd26 I39 3.035713 1_555
Cd27 I19 3.035636 1_655
Cd27 I19 3.035636 1_545
Cd27 I19 3.035643 1_555
Cd27 I56 3.035986 1_655
Cd27 I56 3.035989 1_555
Cd27 I56 3.035989 1_665
Cd28 I49 3.035727 1_455
Cd28 I49 3.035727 1_565
Cd28 I49 3.035733 1_555
Cd28 I29 3.036115 1_565
Cd28 I29 3.036118 1_665
Cd28 I29 3.036118 1_555
