# generated using pymatgen
data_Ce5B4C5
_symmetry_space_group_name_H-M   'P 1'
_cell_length_a   8.29700461
_cell_length_b   8.35482234
_cell_length_c   23.95831400
_cell_angle_alpha   89.99841209
_cell_angle_beta   90.00934654
_cell_angle_gamma   90.00217177
_symmetry_Int_Tables_number   1
_chemical_formula_structural   Ce5B4C5
_chemical_formula_sum   'Ce40 B32 C40'
_cell_volume   1660.79029029
_cell_formula_units_Z   8
loop_
 _symmetry_equiv_pos_site_id
 _symmetry_equiv_pos_as_xyz
  1  'x, y, z'
loop_
 _atom_site_type_symbol
 _atom_site_label
 _atom_site_symmetry_multiplicity
 _atom_site_fract_x
 _atom_site_fract_y
 _atom_site_fract_z
 _atom_site_occupancy
  Ce  Ce0  1  0.83965963  0.20024338  0.58582525  1
  Ce  Ce1  1  0.14074384  0.29375938  0.93597296  1
  Ce  Ce2  1  0.25515482  0.98983689  0.05218755  1
  Ce  Ce3  1  0.33973399  0.70024819  0.91424125  1
  Ce  Ce4  1  0.57237351  0.49475874  0.19566021  1
  Ce  Ce5  1  0.95422646  0.29035847  0.19654548  1
  Ce  Ce6  1  0.75502895  0.48994580  0.44784019  1
  Ce  Ce7  1  0.24195744  0.41195748  0.80016223  1
  Ce  Ce8  1  0.92758389  0.49472445  0.69569999  1
  Ce  Ce9  1  0.42759380  0.99465006  0.80429084  1
  Ce  Ce10  1  0.85915939  0.79365206  0.06405618  1
  Ce  Ce11  1  0.62988114  0.60675883  0.80282283  1
  Ce  Ce12  1  0.94770359  0.91086649  0.93880587  1
  Ce  Ce13  1  0.66538789  0.20090084  0.31808815  1
  Ce  Ce14  1  0.16545795  0.70088787  0.18187041  1
  Ce  Ce15  1  0.44775613  0.41092725  0.56123861  1
  Ce  Ce16  1  0.74191809  0.91186293  0.69979120  1
  Ce  Ce17  1  0.74482872  0.48994875  0.94783892  1
  Ce  Ce18  1  0.75804053  0.91189505  0.19978117  1
  Ce  Ce19  1  0.24496590  0.98983656  0.55218575  1
  Ce  Ce20  1  0.04550459  0.59602702  0.55873162  1
  Ce  Ce21  1  0.45427758  0.79035119  0.30340467  1
  Ce  Ce22  1  0.54576469  0.29034544  0.69657160  1
  Ce  Ce23  1  0.83454612  0.20094479  0.81810163  1
  Ce  Ce24  1  0.16035072  0.70026339  0.41418462  1
  Ce  Ce25  1  0.25810634  0.41186379  0.30016415  1
  Ce  Ce26  1  0.33460479  0.70089952  0.68188488  1
  Ce  Ce27  1  0.54554142  0.09602889  0.94132247  1
  Ce  Ce28  1  0.64080308  0.79370028  0.56406673  1
  Ce  Ce29  1  0.87009327  0.60675868  0.30278703  1
  Ce  Ce30  1  0.35923826  0.29368991  0.43594874  1
  Ce  Ce31  1  0.95444929  0.09599682  0.44128500  1
  Ce  Ce32  1  0.37009250  0.10679307  0.19713889  1
  Ce  Ce33  1  0.66028954  0.20028323  0.08579147  1
  Ce  Ce34  1  0.05229233  0.41096346  0.06128536  1
  Ce  Ce35  1  0.12986561  0.10678288  0.69720334  1
  Ce  Ce36  1  0.07239329  0.99475376  0.30426000  1
  Ce  Ce37  1  0.04577755  0.79028570  0.80340606  1
  Ce  Ce38  1  0.55231338  0.91083382  0.43881850  1
  Ce  Ce39  1  0.45447945  0.59603814  0.05871786  1
  B  B0  1  0.30133231  0.37939520  0.13866903  1
  B  B1  1  0.35707956  0.69961565  0.51548282  1
  B  B2  1  0.93766002  0.89845312  0.52839943  1
  B  B3  1  0.95312909  0.09960589  0.03220128  1
  B  B4  1  0.85689846  0.19961324  0.98454957  1
  B  B5  1  0.14314860  0.69959045  0.01545032  1
  B  B6  1  0.36860975  0.29039234  0.02416636  1
  B  B7  1  0.65851233  0.56035522  0.64074827  1
  B  B8  1  0.69867316  0.87928008  0.86131237  1
  B  B9  1  0.45783072  0.01347063  0.64317459  1
  B  B10  1  0.51858198  0.32886658  0.85750270  1
  B  B11  1  0.86847357  0.79036639  0.47585434  1
  B  B12  1  0.15856893  0.06025403  0.85926675  1
  B  B13  1  0.54687406  0.09955938  0.53221526  1
  B  B14  1  0.01858813  0.82882001  0.64253217  1
  B  B15  1  0.34155324  0.06030529  0.35923881  1
  B  B16  1  0.13145121  0.29039493  0.52416389  1
  B  B17  1  0.45318434  0.59959058  0.46779142  1
  B  B18  1  0.04680712  0.59962346  0.96780548  1
  B  B19  1  0.84152018  0.56033915  0.14072300  1
  B  B20  1  0.54220377  0.51354698  0.35684224  1
  B  B21  1  0.19868767  0.37931130  0.63871207  1
  B  B22  1  0.48137731  0.82880512  0.14250415  1
  B  B23  1  0.43774557  0.39859265  0.97164938  1
  B  B24  1  0.95768940  0.51354915  0.85685261  1
  B  B25  1  0.63138643  0.79027989  0.97585501  1
  B  B26  1  0.80127732  0.87926253  0.36130110  1
  B  B27  1  0.64295747  0.19955393  0.48453182  1
  B  B28  1  0.56224687  0.89844688  0.02837327  1
  B  B29  1  0.06230707  0.39846863  0.47162386  1
  B  B30  1  0.98144526  0.32887432  0.35745935  1
  B  B31  1  0.04226515  0.01354921  0.14313066  1
  C  C0  1  0.56497829  0.49822583  0.29619608  1
  C  C1  1  0.53728866  0.30511154  0.79710656  1
  C  C2  1  0.64849218  0.80210999  0.91374641  1
  C  C3  1  0.46776326  0.59400604  0.40554946  1
  C  C4  1  0.44904885  0.38759766  0.90985478  1
  C  C5  1  0.24511860  0.99232350  0.90820645  1
  C  C6  1  0.66136811  0.19742578  0.19247660  1
  C  C7  1  0.83832378  0.19876640  0.92287782  1
  C  C8  1  0.03729352  0.80511849  0.70291688  1
  C  C9  1  0.83863346  0.19747326  0.69249959  1
  C  C10  1  0.74515657  0.49241561  0.59180148  1
  C  C11  1  0.14855868  0.30215468  0.58625022  1
  C  C12  1  0.76501485  0.89891748  0.30160893  1
  C  C13  1  0.33839072  0.69873182  0.57715118  1
  C  C14  1  0.03223361  0.59398793  0.90554864  1
  C  C15  1  0.63274096  0.60512484  0.69951742  1
  C  C16  1  0.85142940  0.80212791  0.41375783  1
  C  C17  1  0.23491800  0.39898053  0.69837789  1
  C  C18  1  0.35150779  0.30209889  0.08624498  1
  C  C19  1  0.16139626  0.69736587  0.30747245  1
  C  C20  1  0.43502962  0.99816262  0.70378871  1
  C  C21  1  0.73491353  0.89896827  0.80164502  1
  C  C22  1  0.66166908  0.19871933  0.42287595  1
  C  C23  1  0.13275778  0.10509265  0.80050048  1
  C  C24  1  0.05092611  0.38756905  0.40984077  1
  C  C25  1  0.25490362  0.99233684  0.40818146  1
  C  C26  1  0.53226950  0.09394197  0.59446827  1
  C  C27  1  0.16174008  0.69873838  0.07712341  1
  C  C28  1  0.06494753  0.99825049  0.20375662  1
  C  C29  1  0.46273660  0.80523261  0.20290975  1
  C  C30  1  0.55094963  0.88758315  0.09013815  1
  C  C31  1  0.36728696  0.10511065  0.30045058  1
  C  C32  1  0.93504507  0.49821070  0.79622078  1
  C  C33  1  0.96773544  0.09400558  0.09444720  1
  C  C34  1  0.33861060  0.69746350  0.80753603  1
  C  C35  1  0.96270235  0.30520544  0.29704756  1
  C  C36  1  0.94901926  0.88754699  0.59016691  1
  C  C37  1  0.26505777  0.39885729  0.19834972  1
  C  C38  1  0.75479282  0.49231634  0.09179783  1
  C  C39  1  0.86724561  0.60506859  0.19953005  1
loop_
_geom_bond_atom_site_label_1
_geom_bond_atom_site_label_2
_geom_bond_distance
_geom_bond_site_symmetry_2
B0 C37 1.470254 1_555
B0 C18 1.472452 1_555
B0 Ce34 2.788389 1_555
B0 Ce39 2.925796 1_555
B1 C13 1.485628 1_555
B1 Ce28 2.741050 1_555
B1 Ce19 2.741982 1_555
B1 Ce15 2.754074 1_555
B1 Ce20 2.916551 1_555
B1 Ce24 2.924554 1_555
B1 Ce38 3.018656 1_555
B2 C36 1.485622 1_555
B2 Ce31 2.664451 1_565
B2 Ce19 2.721792 1_655
B2 Ce28 2.750117 1_555
B2 Ce20 2.777211 1_655
B2 Ce0 2.985337 1_565
B3 C33 1.496934 1_555
B3 Ce2 2.711032 1_645
B3 Ce12 2.737807 1_544
B3 Ce10 2.779277 1_545
B3 Ce34 2.815879 1_655
B3 Ce33 2.874131 1_555
B4 C7 1.485559 1_555
B4 Ce1 2.742299 1_655
B4 Ce17 2.742624 1_555
B4 Ce12 2.754828 1_545
B4 Ce27 2.914471 1_555
B4 Ce33 2.923322 1_556
B4 Ce34 3.020793 1_656
B5 C27 1.485605 1_555
B5 Ce2 2.741972 1_555
B5 Ce10 2.743488 1_455
B5 Ce34 2.754836 1_555
B5 Ce39 2.914584 1_555
B5 Ce3 2.922560 1_554
B5 Ce12 3.019340 1_454
B6 C18 1.497276 1_555
B6 Ce2 2.764472 1_545
B6 Ce39 2.777335 1_555
B6 Ce1 2.835224 1_554
B6 Ce33 2.932964 1_555
B6 Ce34 2.948655 1_555
B6 Ce27 2.955120 1_554
B7 C15 1.472499 1_555
B7 C10 1.488127 1_555
B7 Ce28 2.682770 1_555
B7 Ce22 2.784406 1_555
B7 Ce15 2.871230 1_555
B8 C21 1.470084 1_555
B8 C2 1.472163 1_555
B8 Ce12 2.790090 1_555
B8 Ce27 2.927337 1_565
B9 C20 1.470083 1_545
B9 C26 1.481667 1_555
B9 Ce22 2.742212 1_555
B9 Ce19 2.812315 1_545
B10 C4 1.465294 1_555
B10 C1 1.468792 1_555
B10 Ce27 2.804773 1_555
B11 C16 1.497636 1_555
B11 Ce6 2.763338 1_555
B11 Ce31 2.777597 1_565
B11 Ce28 2.834940 1_555
B11 Ce24 2.935258 1_655
B11 Ce38 2.946323 1_555
B11 Ce20 2.955574 1_655
B12 C23 1.472541 1_555
B12 C5 1.487376 1_545
B12 Ce1 2.684307 1_555
B12 Ce37 2.784591 1_545
B12 Ce12 2.872436 1_445
B13 C26 1.497145 1_555
B13 Ce19 2.710013 1_545
B13 Ce38 2.737782 1_545
B13 Ce28 2.778416 1_545
B13 Ce15 2.815613 1_555
B13 Ce0 2.873572 1_555
B14 C36 1.465485 1_455
B14 C8 1.468400 1_555
B14 Ce20 2.804285 1_555
B15 C31 1.472943 1_555
B15 C25 1.488117 1_545
B15 Ce30 2.683531 1_555
B15 Ce21 2.784206 1_545
B15 Ce38 2.872533 1_545
B16 C11 1.497447 1_555
B16 Ce19 2.764657 1_545
B16 Ce20 2.777628 1_555
B16 Ce30 2.835629 1_555
B16 Ce0 2.934608 1_455
B16 Ce15 2.947806 1_555
B16 Ce31 2.955749 1_455
B17 C3 1.496859 1_555
B17 Ce6 2.709297 1_555
B17 Ce15 2.738396 1_555
B17 Ce30 2.778702 1_555
B17 Ce38 2.814286 1_555
B17 Ce24 2.873881 1_555
B18 C14 1.497184 1_555
B18 Ce17 2.710264 1_455
B18 Ce34 2.739018 1_556
B18 Ce1 2.778457 1_555
B18 Ce12 2.814372 1_455
B18 Ce3 2.874262 1_555
B19 C39 1.473156 1_555
B19 C38 1.488112 1_555
B19 Ce10 2.682326 1_555
B19 Ce5 2.783995 1_555
B19 Ce34 2.870412 1_655
B20 C0 1.470831 1_555
B20 C3 1.481694 1_555
B20 Ce21 2.742137 1_555
B20 Ce6 2.812260 1_555
B21 C17 1.469927 1_555
B21 C11 1.472475 1_555
B21 Ce15 2.790466 1_555
B21 Ce20 2.926549 1_555
B22 C30 1.465801 1_555
B22 C29 1.468740 1_555
B22 Ce39 2.803814 1_555
B23 C4 1.486321 1_555
B23 Ce39 2.663093 1_556
B23 Ce17 2.720283 1_555
B23 Ce1 2.751240 1_555
B23 Ce27 2.778207 1_555
B23 Ce3 2.984029 1_555
B24 C32 1.470304 1_555
B24 C14 1.481585 1_655
B24 Ce37 2.742183 1_655
B24 Ce17 2.812665 1_555
B25 C2 1.498055 1_555
B25 Ce17 2.762803 1_555
B25 Ce27 2.777948 1_565
B25 Ce10 2.834849 1_556
B25 Ce3 2.932448 1_555
B25 Ce12 2.948108 1_555
B25 Ce39 2.954643 1_556
B26 C12 1.470576 1_555
B26 C16 1.472327 1_555
B26 Ce38 2.790514 1_555
B26 Ce31 2.926665 1_565
B27 C22 1.485348 1_555
B27 Ce30 2.741166 1_555
B27 Ce6 2.742934 1_555
B27 Ce38 2.753831 1_545
B27 Ce31 2.915920 1_555
B27 Ce0 2.924337 1_555
B27 Ce15 3.020020 1_555
B28 C30 1.485536 1_555
B28 Ce27 2.663390 1_564
B28 Ce2 2.720514 1_555
B28 Ce10 2.750568 1_555
B28 Ce39 2.776965 1_555
B28 Ce33 2.985499 1_565
B29 C24 1.486007 1_555
B29 Ce20 2.664486 1_555
B29 Ce6 2.721828 1_455
B29 Ce30 2.750871 1_555
B29 Ce31 2.777611 1_455
B29 Ce24 2.985498 1_555
B30 C24 1.465448 1_655
B30 C35 1.469045 1_555
B30 Ce31 2.805169 1_555
B31 C28 1.470171 1_545
B31 C33 1.481356 1_455
B31 Ce5 2.742338 1_455
B31 Ce2 2.812098 1_545
C0 Ce4 2.409636 1_555
C0 Ce21 2.613520 1_555
C0 Ce25 2.648077 1_555
C0 Ce13 2.672047 1_555
C0 Ce29 2.693617 1_555
C1 Ce22 2.412846 1_555
C1 Ce7 2.608975 1_555
C1 Ce11 2.638227 1_555
C1 Ce23 2.663274 1_555
C1 Ce9 2.754249 1_545
C2 Ce27 2.682671 1_565
C2 Ce3 2.699427 1_555
C2 Ce12 2.710822 1_555
C2 Ce17 2.847422 1_555
C3 Ce24 2.708662 1_555
C3 Ce6 2.731776 1_555
C3 Ce30 2.763455 1_555
C3 Ce38 2.852026 1_555
C3 Ce21 2.948237 1_555
C4 Ce27 2.672698 1_555
C4 Ce1 2.747720 1_555
C4 Ce17 2.753380 1_555
C4 Ce3 2.767159 1_555
C5 Ce3 2.567492 1_555
C5 Ce12 2.662773 1_455
C5 Ce1 2.745086 1_565
C5 Ce27 2.755456 1_565
C6 Ce18 2.522884 1_545
C6 Ce32 2.535018 1_555
C6 Ce5 2.552704 1_555
C6 Ce33 2.556121 1_555
C6 Ce4 2.592735 1_555
C6 Ce13 3.009761 1_555
C7 Ce23 2.510517 1_555
C7 Ce12 2.599029 1_545
C7 Ce27 2.614061 1_555
C7 Ce17 2.622626 1_555
C7 Ce1 2.650265 1_655
C8 Ce37 2.411751 1_555
C8 Ce16 2.609053 1_455
C8 Ce35 2.638317 1_565
C8 Ce26 2.664158 1_555
C8 Ce8 2.753798 1_455
C9 Ce16 2.523565 1_545
C9 Ce35 2.534882 1_655
C9 Ce22 2.552722 1_555
C9 Ce0 2.555857 1_555
C9 Ce8 2.591927 1_555
C9 Ce23 3.009550 1_555
C10 Ce0 2.567920 1_555
C10 Ce15 2.662276 1_555
C10 Ce28 2.743585 1_555
C10 Ce20 2.754550 1_655
C11 Ce20 2.682147 1_555
C11 Ce0 2.700656 1_455
C11 Ce15 2.710676 1_555
C11 Ce19 2.848710 1_545
C12 Ce18 2.442703 1_555
C12 Ce29 2.592143 1_555
C12 Ce36 2.673776 1_655
C12 Ce13 2.684230 1_565
C12 Ce21 2.733406 1_555
C13 Ce26 2.509510 1_555
C13 Ce15 2.598258 1_555
C13 Ce20 2.614544 1_555
C13 Ce19 2.621788 1_555
C13 Ce28 2.650204 1_555
C14 Ce3 2.709335 1_555
C14 Ce17 2.732954 1_455
C14 Ce1 2.762894 1_555
C14 Ce12 2.852413 1_455
C14 Ce37 2.948016 1_555
C15 Ce11 2.475179 1_555
C15 Ce8 2.616073 1_555
C15 Ce26 2.633898 1_555
C15 Ce16 2.718100 1_555
C15 Ce22 2.728023 1_555
C16 Ce31 2.682055 1_565
C16 Ce24 2.700770 1_655
C16 Ce38 2.710205 1_555
C16 Ce6 2.847680 1_555
C17 Ce7 2.441682 1_555
C17 Ce35 2.592315 1_555
C17 Ce8 2.673266 1_455
C17 Ce26 2.683847 1_555
C17 Ce22 2.734523 1_555
C18 Ce39 2.682500 1_555
C18 Ce33 2.699548 1_555
C18 Ce34 2.710679 1_555
C18 Ce2 2.847976 1_545
C19 Ce25 2.522790 1_555
C19 Ce29 2.535162 1_455
C19 Ce21 2.553047 1_555
C19 Ce24 2.556775 1_555
C19 Ce36 2.593204 1_555
C19 Ce14 3.009550 1_555
C20 Ce9 2.408840 1_555
C20 Ce22 2.614008 1_565
C20 Ce16 2.648146 1_555
C20 Ce26 2.671629 1_555
C20 Ce35 2.694299 1_565
C21 Ce16 2.443320 1_555
C21 Ce11 2.592354 1_555
C21 Ce9 2.672999 1_555
C21 Ce23 2.684013 1_565
C21 Ce37 2.734759 1_655
C22 Ce13 2.510799 1_555
C22 Ce38 2.598878 1_545
C22 Ce31 2.613786 1_555
C22 Ce6 2.622542 1_555
C22 Ce30 2.650384 1_555
C23 Ce35 2.474978 1_555
C23 Ce9 2.616092 1_545
C23 Ce23 2.634699 1_455
C23 Ce7 2.719165 1_555
C23 Ce37 2.728231 1_545
C24 Ce31 2.672545 1_455
C24 Ce30 2.747683 1_555
C24 Ce6 2.754758 1_455
C24 Ce24 2.767688 1_555
C25 Ce24 2.567234 1_555
C25 Ce38 2.662905 1_555
C25 Ce30 2.744222 1_565
C25 Ce31 2.755781 1_465
C26 Ce0 2.708555 1_555
C26 Ce19 2.732058 1_545
C26 Ce28 2.763027 1_545
C26 Ce15 2.852918 1_555
C26 Ce22 2.947757 1_555
C27 Ce14 2.509811 1_555
C27 Ce34 2.597899 1_555
C27 Ce39 2.613537 1_555
C27 Ce2 2.621556 1_555
C27 Ce10 2.651301 1_455
C28 Ce36 2.408850 1_555
C28 Ce5 2.613419 1_465
C28 Ce18 2.648319 1_455
C28 Ce14 2.672653 1_555
C28 Ce32 2.693961 1_565
C29 Ce21 2.411926 1_555
C29 Ce18 2.608223 1_555
C29 Ce32 2.637776 1_565
C29 Ce14 2.664071 1_555
C29 Ce4 2.754360 1_555
C30 Ce39 2.672124 1_555
C30 Ce10 2.747074 1_555
C30 Ce2 2.753015 1_555
C30 Ce33 2.767511 1_565
C31 Ce32 2.475327 1_555
C31 Ce36 2.616265 1_545
C31 Ce13 2.633633 1_555
C31 Ce25 2.718293 1_555
C31 Ce21 2.727948 1_545
C32 Ce8 2.409271 1_555
C32 Ce37 2.613098 1_655
C32 Ce7 2.648152 1_655
C32 Ce23 2.671761 1_555
C32 Ce11 2.694170 1_555
C33 Ce33 2.708949 1_555
C33 Ce2 2.733207 1_645
C33 Ce10 2.763784 1_545
C33 Ce34 2.852355 1_655
C33 Ce5 2.947461 1_555
C34 Ce7 2.522705 1_555
C34 Ce11 2.535268 1_555
C34 Ce37 2.552334 1_555
C34 Ce3 2.556599 1_555
C34 Ce9 2.591522 1_555
C34 Ce26 3.010704 1_555
C35 Ce5 2.412071 1_555
C35 Ce25 2.608961 1_655
C35 Ce29 2.637614 1_555
C35 Ce13 2.664385 1_555
C35 Ce36 2.754250 1_645
C36 Ce20 2.672201 1_655
C36 Ce28 2.746776 1_555
C36 Ce19 2.754679 1_655
C36 Ce0 2.767585 1_565
C37 Ce25 2.442415 1_555
C37 Ce32 2.591291 1_555
C37 Ce4 2.673483 1_555
C37 Ce14 2.684472 1_555
C37 Ce5 2.733946 1_455
C38 Ce33 2.566785 1_555
C38 Ce34 2.662686 1_655
C38 Ce10 2.744058 1_555
C38 Ce39 2.754475 1_555
C39 Ce29 2.474013 1_555
C39 Ce4 2.615984 1_555
C39 Ce14 2.634782 1_655
C39 Ce18 2.718937 1_555
C39 Ce5 2.727558 1_555
