# generated using pymatgen
data_Na3Al2P2O8F3
_symmetry_space_group_name_H-M   'P 1'
_cell_length_a   10.44684400
_cell_length_b   6.27212100
_cell_length_c   6.28109142
_cell_angle_alpha   89.83699060
_cell_angle_beta   90.00000000
_cell_angle_gamma   90.00000000
_symmetry_Int_Tables_number   1
_chemical_formula_structural   Na3Al2P2O8F3
_chemical_formula_sum   'Na6 Al4 P4 O16 F6'
_cell_volume   411.55974976
_cell_formula_units_Z   2
loop_
 _symmetry_equiv_pos_site_id
 _symmetry_equiv_pos_as_xyz
  1  'x, y, z'
loop_
 _atom_site_type_symbol
 _atom_site_label
 _atom_site_symmetry_multiplicity
 _atom_site_fract_x
 _atom_site_fract_y
 _atom_site_fract_z
 _atom_site_occupancy
  Na  Na0  1  0.00000000  0.85483800  0.75191100  1
  Na  Na1  1  0.50000000  0.35351200  0.24771400  1
  Na  Na2  1  0.00000000  0.23309300  0.20467700  1
  Na  Na3  1  0.00000000  0.76651700  0.21943100  1
  Na  Na4  1  0.50000000  0.75076600  0.64841200  1
  Na  Na5  1  0.50000000  0.27578300  0.72541400  1
  Al  Al0  1  0.81970100  0.49562200  0.50679000  1
  Al  Al1  1  0.31997300  0.99353700  0.00698700  1
  Al  Al2  1  0.68002700  0.99353700  0.00698700  1
  Al  Al3  1  0.18029900  0.49562200  0.50679000  1
  P  P0  1  0.74949000  0.00402900  0.49769600  1
  P  P1  1  0.24881300  0.50309400  0.99814600  1
  P  P2  1  0.75118700  0.50309400  0.99814600  1
  P  P3  1  0.25051000  0.00402900  0.49769600  1
  O  O0  1  0.65950200  0.00856100  0.30217200  1
  O  O1  1  0.84052800  0.19628800  0.49828300  1
  O  O2  1  0.83611300  0.80231800  0.49781100  1
  O  O3  1  0.66270800  0.00514500  0.69674500  1
  O  O4  1  0.16024400  0.51014300  0.80101400  1
  O  O5  1  0.83975600  0.51014300  0.80101400  1
  O  O6  1  0.33966100  0.69544300  0.00031200  1
  O  O7  1  0.33515900  0.30101900  0.99848500  1
  O  O8  1  0.66033900  0.69544300  0.00031200  1
  O  O9  1  0.66484100  0.30101900  0.99848500  1
  O  O10  1  0.16167700  0.50261200  0.19730700  1
  O  O11  1  0.83832300  0.50261200  0.19730700  1
  O  O12  1  0.34049800  0.00856100  0.30217200  1
  O  O13  1  0.15947200  0.19628800  0.49828300  1
  O  O14  1  0.16388700  0.80231800  0.49781100  1
  O  O15  1  0.33729200  0.00514500  0.69674500  1
  F  F0  1  0.00000000  0.50572600  0.49369500  1
  F  F1  1  0.64369100  0.49543800  0.50451400  1
  F  F2  1  0.50000000  0.00612200  0.99331200  1
  F  F3  1  0.14377300  0.99537700  0.00877100  1
  F  F4  1  0.85622700  0.99537700  0.00877100  1
  F  F5  1  0.35630900  0.49543800  0.50451400  1
loop_
_geom_bond_atom_site_label_1
_geom_bond_atom_site_label_2
_geom_bond_distance
_geom_bond_site_symmetry_2
Na0 O14 2.364338 1_555
Na0 O2 2.364338 1_455
Na0 O4 2.750975 1_555
Na0 O5 2.750975 1_455
Na1 O9 2.351047 1_554
Na1 O7 2.351047 1_554
Na1 O0 2.751432 1_555
Na1 O12 2.751432 1_555
Na2 O10 2.390002 1_555
Na2 O11 2.390002 1_455
Na2 O13 2.495456 1_555
Na2 O1 2.495456 1_455
Na3 O10 2.369224 1_555
Na3 O11 2.369224 1_455
Na3 O2 2.457907 1_455
Na3 O14 2.457907 1_555
Na4 O3 2.351552 1_565
Na4 O15 2.351552 1_565
Na4 O8 2.794152 1_556
Na4 O6 2.794152 1_556
Na5 O3 2.409326 1_555
Na5 O15 2.409326 1_555
Na5 O7 2.435975 1_555
Na5 O9 2.435975 1_555
Al0 F1 1.838805 1_555
Al0 O5 1.862372 1_555
Al0 F0 1.886407 1_655
Al0 O1 1.890930 1_555
Al0 O2 1.931924 1_555
Al0 O11 1.953969 1_555
Al1 F3 1.840804 1_555
Al1 O12 1.869085 1_565
Al1 O6 1.881546 1_555
Al1 F2 1.884318 1_564
Al1 O7 1.935664 1_564
Al1 O15 1.958187 1_564
Al2 F4 1.840804 1_555
Al2 O0 1.869085 1_565
Al2 O8 1.881546 1_555
Al2 F2 1.884318 1_564
Al2 O9 1.935664 1_564
Al2 O3 1.958187 1_564
Al3 F5 1.838805 1_555
Al3 O4 1.862372 1_555
Al3 F0 1.886407 1_555
Al3 O13 1.890930 1_555
Al3 O14 1.931924 1_555
Al3 O10 1.953969 1_555
O0 P0 1.546809 1_555
O1 P0 1.535800 1_555
O2 P0 1.555482 1_565
O3 P0 1.544387 1_555
O4 P1 1.546257 1_555
O5 P2 1.546257 1_555
O6 P1 1.535093 1_554
O7 P1 1.555658 1_555
O8 P2 1.535093 1_554
O9 P2 1.555658 1_555
O10 P1 1.547094 1_554
O11 P2 1.547094 1_554
O12 P3 1.546809 1_555
O13 P3 1.535800 1_555
O14 P3 1.555482 1_565
O15 P3 1.544387 1_555
F0 Na3 2.372159 1_555
F0 Na2 2.497441 1_555
F0 Na0 2.728619 1_555
F1 Na4 2.375531 1_555
F1 Na1 2.378163 1_555
F1 Na5 2.462860 1_555
F2 Na5 2.382417 1_555
F2 Na4 2.697778 1_545
F2 Na1 2.705670 1_556
F3 Na0 2.375701 1_554
F3 Na2 2.450211 1_565
F3 Na3 2.460974 1_555
F4 Na0 2.375701 1_654
F4 Na2 2.450211 1_665
F4 Na3 2.460974 1_655
F5 Na4 2.375531 1_555
F5 Na1 2.378163 1_555
F5 Na5 2.462860 1_555
