# generated using pymatgen
data_VMoO5
_symmetry_space_group_name_H-M   'P 1'
_cell_length_a   5.17214461
_cell_length_b   5.29826433
_cell_length_c   7.47436310
_cell_angle_alpha   102.28218747
_cell_angle_beta   71.60399602
_cell_angle_gamma   77.09325305
_symmetry_Int_Tables_number   1
_chemical_formula_structural   VMoO5
_chemical_formula_sum   'V2 Mo2 O10'
_cell_volume   180.34567052
_cell_formula_units_Z   2
loop_
 _symmetry_equiv_pos_site_id
 _symmetry_equiv_pos_as_xyz
  1  'x, y, z'
loop_
 _atom_site_type_symbol
 _atom_site_label
 _atom_site_symmetry_multiplicity
 _atom_site_fract_x
 _atom_site_fract_y
 _atom_site_fract_z
 _atom_site_occupancy
  V  V0  1  0.04382000  0.64691700  0.18259600  1
  V  V1  1  0.54379500  0.64693300  0.68263700  1
  Mo  Mo0  1  0.55895300  0.33599500  0.25070900  1
  Mo  Mo1  1  0.05895900  0.33597500  0.75072300  1
  O  O0  1  0.75825700  0.75229300  0.78908400  1
  O  O1  1  0.25832500  0.75226800  0.28909100  1
  O  O2  1  0.23245700  0.58563800  0.89173200  1
  O  O3  1  0.73244600  0.58564000  0.39175600  1
  O  O4  1  0.77623800  0.00312900  0.21218300  1
  O  O5  1  0.27622700  0.00311900  0.71217000  1
  O  O6  1  0.30583600  0.26767100  0.14364900  1
  O  O7  1  0.80579600  0.26764100  0.64361600  1
  O  O8  1  0.82445000  0.40838700  0.03002100  1
  O  O9  1  0.32443700  0.40839600  0.53003200  1
loop_
_geom_bond_atom_site_label_1
_geom_bond_atom_site_label_2
_geom_bond_distance
_geom_bond_site_symmetry_2
Mo0 O4 1.774965 1_555
Mo0 O6 1.798594 1_555
Mo0 O8 1.956639 1_555
Mo0 O9 1.957096 1_555
Mo0 O3 2.049427 1_555
Mo0 O1 2.298172 1_555
Mo1 O5 1.774840 1_555
Mo1 O7 1.799047 1_455
Mo1 O9 1.956689 1_555
Mo1 O8 1.956922 1_456
Mo1 O2 2.049360 1_555
Mo1 O0 2.298566 1_455
O0 V1 1.679195 1_555
O1 V0 1.679593 1_555
O2 V1 2.000533 1_555
O2 V0 2.000779 1_556
O3 V0 2.000868 1_655
O3 V1 2.000887 1_555
O4 V0 1.997152 1_645
O5 V1 1.997139 1_545
O6 V0 2.060199 1_555
O7 V1 2.060212 1_555
O8 V0 2.242568 1_655
O9 V1 2.242663 1_555
