# generated using pymatgen
data_NaLaCoWO6
_symmetry_space_group_name_H-M   'P 1'
_cell_length_a   11.84309300
_cell_length_b   7.28547500
_cell_length_c   14.41044200
_cell_angle_alpha   87.80889405
_cell_angle_beta   90.00000000
_cell_angle_gamma   90.00000000
_symmetry_Int_Tables_number   1
_chemical_formula_structural   NaLaCoWO6
_chemical_formula_sum   'Na8 La8 Co8 W8 O48'
_cell_volume   1242.46072427
_cell_formula_units_Z   8
loop_
 _symmetry_equiv_pos_site_id
 _symmetry_equiv_pos_as_xyz
  1  'x, y, z'
loop_
 _atom_site_type_symbol
 _atom_site_label
 _atom_site_symmetry_multiplicity
 _atom_site_fract_x
 _atom_site_fract_y
 _atom_site_fract_z
 _atom_site_occupancy
  Na  Na0  1  0.00000000  0.50151900  0.31940300  1
  Na  Na1  1  0.00000000  0.05912000  0.79652700  1
  Na  Na2  1  0.25432300  0.94652600  0.70737300  1
  Na  Na3  1  0.27531000  0.97516600  0.20360900  1
  Na  Na4  1  0.50000000  0.03919800  0.29626600  1
  Na  Na5  1  0.50000000  0.05478500  0.79547000  1
  Na  Na6  1  0.72469000  0.97516600  0.20360900  1
  Na  Na7  1  0.74567700  0.94652600  0.70737300  1
  La  La0  1  0.00000000  0.02412600  0.29737200  1
  La  La1  1  0.00000000  0.51334300  0.81839000  1
  La  La2  1  0.23202100  0.51194100  0.19640700  1
  La  La3  1  0.25037000  0.48919500  0.68115500  1
  La  La4  1  0.50000000  0.49157500  0.31092900  1
  La  La5  1  0.50000000  0.51041200  0.81745600  1
  La  La6  1  0.76797900  0.51194100  0.19640700  1
  La  La7  1  0.74963000  0.48919500  0.68115500  1
  Co  Co0  1  0.00000000  0.75346900  0.12993500  1
  Co  Co1  1  0.00000000  0.74107500  0.62557400  1
  Co  Co2  1  0.24998900  0.24447000  0.37207600  1
  Co  Co3  1  0.25142200  0.26199300  0.87575600  1
  Co  Co4  1  0.50000000  0.74492700  0.12682300  1
  Co  Co5  1  0.50000000  0.73902300  0.62180700  1
  Co  Co6  1  0.75001100  0.24447000  0.37207600  1
  Co  Co7  1  0.74857800  0.26199300  0.87575600  1
  W  W0  1  0.00000000  0.25806000  0.05327400  1
  W  W1  1  0.00000000  0.22598000  0.55545000  1
  W  W2  1  0.25081200  0.75291900  0.44202200  1
  W  W3  1  0.25020200  0.76825400  0.94671200  1
  W  W4  1  0.50000000  0.23722200  0.05375800  1
  W  W5  1  0.50000000  0.22906800  0.55406800  1
  W  W6  1  0.74918800  0.75291900  0.44202200  1
  W  W7  1  0.74979800  0.76825400  0.94671200  1
  O  O0  1  0.87474300  0.75437800  0.51395800  1
  O  O1  1  0.87418500  0.74440200  0.02033800  1
  O  O2  1  0.87233100  0.26091900  0.27326400  1
  O  O3  1  0.86737600  0.30168100  0.77796200  1
  O  O4  1  0.00000000  0.04474300  0.12376400  1
  O  O5  1  0.00000000  0.46140400  0.12280700  1
  O  O6  1  0.00000000  0.02971100  0.63794900  1
  O  O7  1  0.00000000  0.44091000  0.61595400  1
  O  O8  1  0.12766900  0.26091900  0.27326400  1
  O  O9  1  0.13262400  0.30168100  0.77796200  1
  O  O10  1  0.12525700  0.75437800  0.51395800  1
  O  O11  1  0.12581500  0.74440200  0.02033800  1
  O  O12  1  0.12363900  0.26883100  0.97984600  1
  O  O13  1  0.12436000  0.21901000  0.48250700  1
  O  O14  1  0.11975900  0.70096200  0.72380900  1
  O  O15  1  0.11679800  0.75793500  0.23212000  1
  O  O16  1  0.25030800  0.53849900  0.38025000  1
  O  O17  1  0.25439300  0.95893100  0.36704700  1
  O  O18  1  0.26110400  0.56140500  0.88072500  1
  O  O19  1  0.24174400  0.97057100  0.86850300  1
  O  O20  1  0.38114400  0.70215900  0.22854400  1
  O  O21  1  0.38365000  0.70200100  0.72194700  1
  O  O22  1  0.37727000  0.23838000  0.97940700  1
  O  O23  1  0.37525200  0.23587500  0.48051900  1
  O  O24  1  0.37314500  0.74816200  0.51775300  1
  O  O25  1  0.37479300  0.77419000  0.01917800  1
  O  O26  1  0.36374100  0.28717500  0.26616700  1
  O  O27  1  0.36750600  0.29486900  0.77577900  1
  O  O28  1  0.50000000  0.03500500  0.13395700  1
  O  O29  1  0.50000000  0.45549900  0.11097800  1
  O  O30  1  0.50000000  0.03018700  0.63429500  1
  O  O31  1  0.50000000  0.43804100  0.61833100  1
  O  O32  1  0.63625900  0.28717500  0.26616700  1
  O  O33  1  0.63249400  0.29486900  0.77577900  1
  O  O34  1  0.62685500  0.74816200  0.51775300  1
  O  O35  1  0.62520700  0.77419000  0.01917800  1
  O  O36  1  0.62273000  0.23838000  0.97940700  1
  O  O37  1  0.62474800  0.23587500  0.48051900  1
  O  O38  1  0.61885600  0.70215900  0.22854400  1
  O  O39  1  0.61635000  0.70200100  0.72194700  1
  O  O40  1  0.74969200  0.53849900  0.38025000  1
  O  O41  1  0.74560700  0.95893100  0.36704700  1
  O  O42  1  0.73889600  0.56140500  0.88072500  1
  O  O43  1  0.75825600  0.97057100  0.86850300  1
  O  O44  1  0.88320200  0.75793500  0.23212000  1
  O  O45  1  0.88024100  0.70096200  0.72380900  1
  O  O46  1  0.87636100  0.26883100  0.97984600  1
  O  O47  1  0.87564000  0.21901000  0.48250700  1
loop_
_geom_bond_atom_site_label_1
_geom_bond_atom_site_label_2
_geom_bond_distance
_geom_bond_site_symmetry_2
Na0 O8 2.426917 1_555
Na0 O2 2.426917 1_455
Na0 O15 2.608751 1_555
Na0 O44 2.608751 1_455
Na0 O5 2.859163 1_555
Na1 O6 2.303343 1_555
Na1 O9 2.371782 1_555
Na1 O3 2.371782 1_455
Na2 O19 2.339969 1_555
Na2 O21 2.352672 1_555
Na2 O14 2.400860 1_555
Na3 O17 2.366662 1_555
Na3 O20 2.366758 1_555
Na3 O15 2.479507 1_555
Na3 O26 2.689487 1_565
Na3 O28 2.871427 1_565
Na3 O8 2.925534 1_565
Na4 O28 2.340311 1_555
Na4 O32 2.448723 1_555
Na4 O26 2.448723 1_555
Na5 O30 2.336328 1_555
Na5 O33 2.358856 1_555
Na5 O27 2.358856 1_555
Na6 O41 2.366662 1_555
Na6 O38 2.366758 1_555
Na6 O44 2.479507 1_555
Na6 O32 2.689487 1_565
Na6 O28 2.871427 1_565
Na6 O2 2.925534 1_565
Na7 O43 2.339969 1_555
Na7 O39 2.352672 1_555
Na7 O45 2.400860 1_555
La0 O8 2.310224 1_555
La0 O2 2.310224 1_455
La0 O4 2.500534 1_555
La0 O15 2.588049 1_545
La0 O44 2.588049 1_445
La1 O9 2.291959 1_555
La1 O3 2.291959 1_455
La1 O14 2.365419 1_555
La1 O45 2.365419 1_455
La2 O20 2.302845 1_555
La2 O15 2.325817 1_555
La2 O8 2.437962 1_555
La2 O26 2.449430 1_555
La2 O16 2.672473 1_555
La2 O5 2.973377 1_555
La2 O11 3.249507 1_555
La3 O14 2.285462 1_555
La3 O21 2.304441 1_555
La3 O9 2.368810 1_555
La3 O27 2.374985 1_555
La4 O32 2.304607 1_555
La4 O26 2.304607 1_555
La4 O38 2.367565 1_555
La4 O20 2.367565 1_555
La5 O27 2.315375 1_555
La5 O33 2.315375 1_555
La5 O21 2.365251 1_555
La5 O39 2.365251 1_555
La6 O38 2.302845 1_555
La6 O44 2.325817 1_555
La6 O2 2.437962 1_555
La6 O32 2.449430 1_555
La6 O40 2.672473 1_555
La6 O5 2.973377 1_655
La6 O1 3.249507 1_555
La7 O45 2.285462 1_555
La7 O39 2.304441 1_555
La7 O3 2.368810 1_555
La7 O33 2.374985 1_555
Co0 O15 2.021497 1_555
Co0 O44 2.021497 1_455
Co0 O4 2.120532 1_565
Co0 O5 2.134229 1_555
Co0 O11 2.174138 1_555
Co0 O1 2.174138 1_455
Co1 O14 2.017262 1_555
Co1 O45 2.017262 1_455
Co1 O6 2.117181 1_565
Co1 O10 2.187488 1_555
Co1 O0 2.187488 1_455
Co1 O7 2.196517 1_555
Co2 O8 2.031613 1_555
Co2 O26 2.050523 1_555
Co2 O17 2.084969 1_545
Co2 O16 2.149872 1_555
Co2 O23 2.153899 1_555
Co2 O13 2.181265 1_555
Co3 O27 1.999173 1_555
Co3 O9 2.004474 1_555
Co3 O22 2.112425 1_555
Co3 O12 2.132689 1_555
Co3 O19 2.132788 1_545
Co3 O18 2.188274 1_555
Co4 O38 2.047502 1_555
Co4 O20 2.047502 1_555
Co4 O28 2.119777 1_565
Co4 O29 2.129608 1_555
Co4 O35 2.150635 1_555
Co4 O25 2.150635 1_555
Co5 O21 2.006027 1_555
Co5 O39 2.006027 1_555
Co5 O34 2.121854 1_555
Co5 O24 2.121854 1_555
Co5 O30 2.135732 1_565
Co5 O31 2.195283 1_555
Co6 O2 2.031613 1_555
Co6 O32 2.050523 1_555
Co6 O41 2.084969 1_545
Co6 O40 2.149872 1_555
Co6 O37 2.153899 1_555
Co6 O47 2.181265 1_555
Co7 O33 1.999173 1_555
Co7 O3 2.004474 1_555
Co7 O36 2.112425 1_555
Co7 O46 2.132689 1_555
Co7 O43 2.132788 1_545
Co7 O42 2.188274 1_555
O0 W6 1.812900 1_555
O1 W7 1.819859 1_554
O4 W0 1.823841 1_555
O5 W0 1.819953 1_555
O6 W1 1.824286 1_555
O7 W1 1.821133 1_555
O10 W2 1.812900 1_555
O11 W3 1.819859 1_554
O12 W0 1.806524 1_556
O13 W1 1.811275 1_555
O16 W2 1.827313 1_555
O17 W2 1.815985 1_555
O18 W3 1.817000 1_555
O19 W3 1.823678 1_555
O22 W4 1.805551 1_556
O23 W5 1.817825 1_555
O24 W2 1.813369 1_555
O25 W3 1.809156 1_554
O28 W4 1.837366 1_555
O29 W4 1.819086 1_555
O30 W5 1.818771 1_555
O31 W5 1.811988 1_555
O34 W6 1.813369 1_555
O35 W7 1.809156 1_554
O36 W4 1.805551 1_556
O37 W5 1.817825 1_555
O40 W6 1.827313 1_555
O41 W6 1.815985 1_555
O42 W7 1.817000 1_555
O43 W7 1.823678 1_555
O46 W0 1.806524 1_656
O47 W1 1.811275 1_655
