# generated using pymatgen
data_Cu2H4C4N3O
_symmetry_space_group_name_H-M   'P 1'
_cell_length_a   8.40522600
_cell_length_b   8.17302600
_cell_length_c   8.85787005
_cell_angle_alpha   83.71901023
_cell_angle_beta   90.00000000
_cell_angle_gamma   90.00000000
_symmetry_Int_Tables_number   1
_chemical_formula_structural   Cu2H4C4N3O
_chemical_formula_sum   'Cu8 H16 C16 N12 O4'
_cell_volume   604.84875270
_cell_formula_units_Z   4
loop_
 _symmetry_equiv_pos_site_id
 _symmetry_equiv_pos_as_xyz
  1  'x, y, z'
loop_
 _atom_site_type_symbol
 _atom_site_label
 _atom_site_symmetry_multiplicity
 _atom_site_fract_x
 _atom_site_fract_y
 _atom_site_fract_z
 _atom_site_occupancy
  Cu  Cu0  1  0.23845700  0.24040300  0.58377600  1
  Cu  Cu1  1  0.20301100  0.27021800  0.87877500  1
  Cu  Cu2  1  0.73845700  0.75959700  0.41622400  1
  Cu  Cu3  1  0.70301100  0.72978200  0.12122500  1
  Cu  Cu4  1  0.31714600  0.86357500  0.41487400  1
  Cu  Cu5  1  0.26562200  0.95507400  0.13892200  1
  Cu  Cu6  1  0.81714600  0.13642500  0.58512600  1
  Cu  Cu7  1  0.76562200  0.04492600  0.86107800  1
  H  H0  1  0.38449500  0.72227700  0.65687800  1
  H  H1  1  0.15680400  0.70233200  0.85220700  1
  H  H2  1  0.31096500  0.33087100  0.72632500  1
  H  H3  1  0.72251700  0.37106800  0.87255100  1
  H  H4  1  0.68601000  0.95214700  0.64046700  1
  H  H5  1  0.98612500  0.88247400  0.04279000  1
  H  H6  1  0.28042700  0.87522400  0.86343800  1
  H  H7  1  0.17389000  0.78588500  0.58897200  1
  H  H8  1  0.67389000  0.21411500  0.41102800  1
  H  H9  1  0.78042700  0.12477600  0.13656200  1
  H  H10  1  0.18601000  0.04785300  0.35953300  1
  H  H11  1  0.48612500  0.11752600  0.95721000  1
  H  H12  1  0.22251700  0.62893200  0.12744900  1
  H  H13  1  0.81096500  0.66912900  0.27367500  1
  H  H14  1  0.88449500  0.27772300  0.34312200  1
  H  H15  1  0.65680400  0.29766800  0.14779300  1
  C  C0  1  0.76130200  0.25293900  0.08554100  1
  C  C1  1  0.58965100  0.25654400  0.49607000  1
  C  C2  1  0.08269000  0.43144200  0.55745500  1
  C  C3  1  0.48780000  0.56464100  0.98402500  1
  C  C4  1  0.58269000  0.56855800  0.44254500  1
  C  C5  1  0.98780000  0.43535900  0.01597500  1
  C  C6  1  0.08965100  0.74345600  0.50393000  1
  C  C7  1  0.26130200  0.74706100  0.91445900  1
  C  C8  1  0.39964100  0.64843300  0.87129300  1
  C  C9  1  0.62734700  0.91613400  0.53323500  1
  C  C10  1  0.95901800  0.84864100  0.46771500  1
  C  C11  1  0.54019000  0.91065000  0.11009700  1
  C  C12  1  0.45901800  0.15135900  0.53228500  1
  C  C13  1  0.04019000  0.08935000  0.88990300  1
  C  C14  1  0.12734700  0.08386600  0.46676500  1
  C  C15  1  0.89964100  0.35156700  0.12870700  1
  N  N0  1  0.72489000  0.25506800  0.92727700  1
  N  N1  1  0.57863900  0.42523700  0.47971200  1
  N  N2  1  0.06536300  0.47387900  0.90513300  1
  N  N3  1  0.07863900  0.57476300  0.52028800  1
  N  N4  1  0.56536300  0.52612100  0.09486700  1
  N  N5  1  0.22489000  0.74493200  0.07272300  1
  N  N6  1  0.77054500  0.80854700  0.89591200  1
  N  N7  1  0.48983000  0.99265600  0.50416200  1
  N  N8  1  0.03661900  0.99434800  0.00664300  1
  N  N9  1  0.98983000  0.00734400  0.49583800  1
  N  N10  1  0.53661900  0.00565200  0.99335700  1
  N  N11  1  0.27054500  0.19145300  0.10408800  1
  O  O0  1  0.28832400  0.29504700  0.19261000  1
  O  O1  1  0.94547900  0.35702200  0.27467100  1
  O  O2  1  0.44547900  0.64297800  0.72532900  1
  O  O3  1  0.78832400  0.70495300  0.80739000  1
loop_
_geom_bond_atom_site_label_1
_geom_bond_atom_site_label_2
_geom_bond_distance
_geom_bond_site_symmetry_2
Cu0 H2 1.648266 1_555
Cu1 H2 1.657145 1_555
Cu1 N2 2.061251 1_555
Cu1 N11 2.106821 1_556
Cu2 H13 1.648266 1_555
Cu3 H13 1.657145 1_555
Cu3 N4 2.061251 1_555
Cu3 N6 2.106821 1_554
Cu4 H10 1.887332 1_565
Cu4 H7 2.004236 1_555
Cu4 N7 2.006934 1_555
Cu5 N5 1.905574 1_555
Cu5 N11 1.923238 1_565
Cu6 H4 1.887332 1_545
Cu6 H8 2.004236 1_555
Cu6 N9 2.006934 1_555
Cu7 N0 1.905574 1_555
Cu7 N6 1.923238 1_545
H0 O2 0.982061 1_555
H3 N0 1.016693 1_555
H5 N8 1.026947 1_655
H11 N10 1.026947 1_555
H12 N5 1.016693 1_555
H14 O1 0.982061 1_555
C0 H9 1.106218 1_555
C0 H15 1.119499 1_555
C0 N0 1.433145 1_554
C1 H8 1.116328 1_555
C1 N1 1.373591 1_555
C1 C12 1.409686 1_555
C2 N3 1.182059 1_555
C2 Cu0 2.031434 1_555
C3 N4 1.191838 1_556
C4 N1 1.182059 1_555
C4 Cu2 2.031434 1_555
C5 N2 1.191838 1_654
C6 H7 1.116328 1_555
C6 N3 1.373591 1_555
C7 H6 1.106218 1_555
C7 H1 1.119499 1_555
C7 N5 1.433145 1_556
C8 O2 1.354514 1_555
C9 H4 1.137163 1_555
C9 N7 1.325986 1_555
C9 Cu2 1.968098 1_555
C10 N9 1.371953 1_565
C10 C6 1.409686 1_655
C10 Cu2 2.060851 1_555
C11 N10 1.223681 1_564
C11 Cu3 2.008966 1_555
C11 Cu5 2.354415 1_555
C12 N7 1.371953 1_545
C12 Cu0 2.060851 1_555
C13 N8 1.223681 1_546
C13 Cu1 2.008966 1_555
C13 Cu7 2.354415 1_455
C14 H10 1.137163 1_555
C14 N9 1.325986 1_455
C14 Cu0 1.968098 1_555
C15 O1 1.354514 1_555
N6 O3 1.224458 1_555
N11 O0 1.224458 1_555
