# generated using pymatgen
data_CoSiO3
_symmetry_space_group_name_H-M   'P 1'
_cell_length_a   5.26457500
_cell_length_b   9.04431400
_cell_length_c   18.46385800
_cell_angle_alpha   90.00000000
_cell_angle_beta   90.00000000
_cell_angle_gamma   90.00000000
_symmetry_Int_Tables_number   1
_chemical_formula_structural   CoSiO3
_chemical_formula_sum   'Co16 Si16 O48'
_cell_volume   879.14680131
_cell_formula_units_Z   16
loop_
 _symmetry_equiv_pos_site_id
 _symmetry_equiv_pos_as_xyz
  1  'x, y, z'
loop_
 _atom_site_type_symbol
 _atom_site_label
 _atom_site_symmetry_multiplicity
 _atom_site_fract_x
 _atom_site_fract_y
 _atom_site_fract_z
 _atom_site_occupancy
  Co  Co0  1  0.62486600  0.15332800  0.37607700  1
  Co  Co1  1  0.86392300  0.00945800  0.62305700  1
  Co  Co2  1  0.63607700  0.00945800  0.12305700  1
  Co  Co3  1  0.13607700  0.49054200  0.12305700  1
  Co  Co4  1  0.13607700  0.99054200  0.37694300  1
  Co  Co5  1  0.37513400  0.34667200  0.87607700  1
  Co  Co6  1  0.37513400  0.84667200  0.62392300  1
  Co  Co7  1  0.36392300  0.99054200  0.87694300  1
  Co  Co8  1  0.86392300  0.50945800  0.87694300  1
  Co  Co9  1  0.62486600  0.65332800  0.12392300  1
  Co  Co10  1  0.87513400  0.65332800  0.62392300  1
  Co  Co11  1  0.63607700  0.50945800  0.37694300  1
  Co  Co12  1  0.87513400  0.15332800  0.87607700  1
  Co  Co13  1  0.12486600  0.34667200  0.37607700  1
  Co  Co14  1  0.36392300  0.49054200  0.62305700  1
  Co  Co15  1  0.12486600  0.84667200  0.12392300  1
  Si  Si0  1  0.55440600  0.15982700  0.72791600  1
  Si  Si1  1  0.29076900  0.66476500  0.97256900  1
  Si  Si2  1  0.70923100  0.33523500  0.02743100  1
  Si  Si3  1  0.05440600  0.84017300  0.77208400  1
  Si  Si4  1  0.79076900  0.33523500  0.52743100  1
  Si  Si5  1  0.55440600  0.65982700  0.77208400  1
  Si  Si6  1  0.94559400  0.15982700  0.22791600  1
  Si  Si7  1  0.20923100  0.16476500  0.02743100  1
  Si  Si8  1  0.44559400  0.34017300  0.22791600  1
  Si  Si9  1  0.05440600  0.34017300  0.72791600  1
  Si  Si10  1  0.79076900  0.83523500  0.97256900  1
  Si  Si11  1  0.70923100  0.83523500  0.47256900  1
  Si  Si12  1  0.29076900  0.16476500  0.52743100  1
  Si  Si13  1  0.94559400  0.65982700  0.27208400  1
  Si  Si14  1  0.44559400  0.84017300  0.27208400  1
  Si  Si15  1  0.20923100  0.66476500  0.47256900  1
  O  O0  1  0.78930900  0.83856400  0.06153500  1
  O  O1  1  0.04228100  0.83936000  0.68344100  1
  O  O2  1  0.90857600  0.19933400  0.05257000  1
  O  O3  1  0.04228100  0.33936000  0.81655900  1
  O  O4  1  0.54228100  0.16064000  0.81655900  1
  O  O5  1  0.71069100  0.83856400  0.56153500  1
  O  O6  1  0.82654700  0.73078200  0.80257700  1
  O  O7  1  0.09142400  0.80066600  0.94743000  1
  O  O8  1  0.45771900  0.33936000  0.31655900  1
  O  O9  1  0.59142400  0.19933400  0.55257000  1
  O  O10  1  0.94075400  0.49860100  0.31035600  1
  O  O11  1  0.69118600  0.48224500  0.56836300  1
  O  O12  1  0.40857600  0.80066600  0.44743000  1
  O  O13  1  0.28930900  0.66143600  0.06153500  1
  O  O14  1  0.67345300  0.23078200  0.19742300  1
  O  O15  1  0.17345300  0.26921800  0.19742300  1
  O  O16  1  0.44075400  0.00139900  0.31035600  1
  O  O17  1  0.30881400  0.51775500  0.43163700  1
  O  O18  1  0.55924600  0.49860100  0.81035600  1
  O  O19  1  0.67345300  0.73078200  0.30257700  1
  O  O20  1  0.80881400  0.48224500  0.06836300  1
  O  O21  1  0.94075400  0.99860100  0.18964400  1
  O  O22  1  0.59142400  0.69933400  0.94743000  1
  O  O23  1  0.90857600  0.69933400  0.44743000  1
  O  O24  1  0.95771900  0.66064000  0.18344100  1
  O  O25  1  0.71069100  0.33856400  0.93846500  1
  O  O26  1  0.80881400  0.98224500  0.43163700  1
  O  O27  1  0.05924600  0.50139900  0.68964400  1
  O  O28  1  0.55924600  0.99860100  0.68964400  1
  O  O29  1  0.17345300  0.76921800  0.30257700  1
  O  O30  1  0.21069100  0.16143600  0.93846500  1
  O  O31  1  0.54228100  0.66064000  0.68344100  1
  O  O32  1  0.44075400  0.50139900  0.18964400  1
  O  O33  1  0.40857600  0.30066600  0.05257000  1
  O  O34  1  0.28930900  0.16143600  0.43846500  1
  O  O35  1  0.82654700  0.23078200  0.69742300  1
  O  O36  1  0.19118600  0.01775500  0.56836300  1
  O  O37  1  0.05924600  0.00139900  0.81035600  1
  O  O38  1  0.45771900  0.83936000  0.18344100  1
  O  O39  1  0.32654700  0.76921800  0.80257700  1
  O  O40  1  0.78930900  0.33856400  0.43846500  1
  O  O41  1  0.32654700  0.26921800  0.69742300  1
  O  O42  1  0.69118600  0.98224500  0.93163700  1
  O  O43  1  0.19118600  0.51775500  0.93163700  1
  O  O44  1  0.95771900  0.16064000  0.31655900  1
  O  O45  1  0.09142400  0.30066600  0.55257000  1
  O  O46  1  0.21069100  0.66143600  0.56153500  1
  O  O47  1  0.30881400  0.01775500  0.06836300  1
loop_
_geom_bond_atom_site_label_1
_geom_bond_atom_site_label_2
_geom_bond_distance
_geom_bond_site_symmetry_2
Co0 O44 2.069465 1_555
Co0 O16 2.073671 1_555
Co0 O26 2.093899 1_545
Co0 O34 2.110227 1_555
Co0 O8 2.193830 1_555
Co0 O40 2.209783 1_555
Co1 O36 1.998459 1_655
Co1 O28 2.023363 1_545
Co1 O5 2.080877 1_545
Co1 O1 2.119308 1_645
Co1 O35 2.435359 1_555
Co1 O9 2.588623 1_555
Co2 O47 1.998459 1_555
Co2 O21 2.023363 1_545
Co2 O0 2.080877 1_545
Co2 O38 2.119308 1_545
Co2 O14 2.435359 1_555
Co2 O2 2.588623 1_555
Co3 O20 1.998459 1_455
Co3 O32 2.023363 1_555
Co3 O13 2.080877 1_555
Co3 O24 2.119308 1_455
Co3 O15 2.435359 1_555
Co3 O33 2.588623 1_555
Co4 O26 1.998459 1_455
Co4 O16 2.023363 1_565
Co4 O34 2.080877 1_565
Co4 O44 2.119308 1_465
Co4 O29 2.435359 1_555
Co4 O12 2.588623 1_555
Co5 O3 2.069465 1_555
Co5 O18 2.073671 1_555
Co5 O43 2.093899 1_555
Co5 O25 2.110227 1_555
Co5 O4 2.193830 1_555
Co5 O30 2.209783 1_555
Co6 O1 2.069465 1_555
Co6 O28 2.073671 1_555
Co6 O36 2.093899 1_565
Co6 O5 2.110227 1_555
Co6 O31 2.193830 1_555
Co6 O46 2.209783 1_555
Co7 O42 1.998459 1_555
Co7 O37 2.023363 1_565
Co7 O30 2.080877 1_565
Co7 O4 2.119308 1_565
Co7 O39 2.435359 1_555
Co7 O7 2.588623 1_555
Co8 O43 1.998459 1_655
Co8 O18 2.023363 1_555
Co8 O25 2.080877 1_555
Co8 O3 2.119308 1_655
Co8 O6 2.435359 1_555
Co8 O22 2.588623 1_555
Co9 O24 2.069465 1_555
Co9 O32 2.073671 1_555
Co9 O20 2.093899 1_555
Co9 O13 2.110227 1_555
Co9 O38 2.193830 1_555
Co9 O0 2.209783 1_555
Co10 O31 2.069465 1_555
Co10 O27 2.073671 1_655
Co10 O11 2.093899 1_555
Co10 O46 2.110227 1_655
Co10 O1 2.193830 1_655
Co10 O5 2.209783 1_555
Co11 O17 1.998459 1_555
Co11 O10 2.023363 1_555
Co11 O40 2.080877 1_555
Co11 O8 2.119308 1_555
Co11 O19 2.435359 1_555
Co11 O23 2.588623 1_555
Co12 O4 2.069465 1_555
Co12 O37 2.073671 1_655
Co12 O42 2.093899 1_545
Co12 O30 2.110227 1_655
Co12 O3 2.193830 1_655
Co12 O25 2.209783 1_555
Co13 O8 2.069465 1_555
Co13 O10 2.073671 1_455
Co13 O17 2.093899 1_555
Co13 O40 2.110227 1_455
Co13 O44 2.193830 1_455
Co13 O34 2.209783 1_555
Co14 O11 1.998459 1_555
Co14 O27 2.023363 1_555
Co14 O46 2.080877 1_555
Co14 O31 2.119308 1_555
Co14 O41 2.435359 1_555
Co14 O45 2.588623 1_555
Co15 O38 2.069465 1_555
Co15 O21 2.073671 1_455
Co15 O47 2.093899 1_565
Co15 O0 2.110227 1_455
Co15 O24 2.193830 1_455
Co15 O13 2.209783 1_555
O0 Si10 1.642949 1_554
O1 Si3 1.637953 1_555
O2 Si7 1.678845 1_655
O2 Si2 1.681544 1_555
O3 Si9 1.637953 1_555
O4 Si0 1.637953 1_555
O5 Si11 1.642949 1_555
O6 Si3 1.653732 1_655
O6 Si5 1.667773 1_555
O7 Si10 1.678845 1_455
O7 Si1 1.681544 1_555
O8 Si8 1.637953 1_555
O9 Si12 1.678845 1_555
O9 Si4 1.681544 1_555
O10 Si13 1.620582 1_555
O11 Si4 1.616749 1_555
O12 Si11 1.678845 1_555
O12 Si15 1.681544 1_555
O13 Si1 1.642949 1_554
O14 Si8 1.653732 1_555
O14 Si6 1.667773 1_555
O15 Si6 1.653732 1_455
O15 Si8 1.667773 1_555
O16 Si14 1.620582 1_545
O17 Si15 1.616749 1_555
O18 Si5 1.620582 1_555
O19 Si14 1.653732 1_555
O19 Si13 1.667773 1_555
O20 Si2 1.616749 1_555
O21 Si6 1.620582 1_565
O22 Si1 1.678845 1_555
O22 Si10 1.681544 1_555
O23 Si15 1.678845 1_655
O23 Si11 1.681544 1_555
O24 Si13 1.637953 1_555
O25 Si2 1.642949 1_556
O26 Si11 1.616749 1_555
O27 Si9 1.620582 1_555
O28 Si0 1.620582 1_565
O29 Si13 1.653732 1_455
O29 Si14 1.667773 1_555
O30 Si7 1.642949 1_556
O31 Si5 1.637953 1_555
O32 Si8 1.620582 1_555
O33 Si2 1.678845 1_555
O33 Si7 1.681544 1_555
O34 Si12 1.642949 1_555
O35 Si9 1.653732 1_655
O35 Si0 1.667773 1_555
O36 Si12 1.616749 1_555
O37 Si3 1.620582 1_545
O38 Si14 1.637953 1_555
O39 Si5 1.653732 1_555
O39 Si3 1.667773 1_555
O40 Si4 1.642949 1_555
O41 Si0 1.653732 1_555
O41 Si9 1.667773 1_555
O42 Si10 1.616749 1_555
O43 Si1 1.616749 1_555
O44 Si6 1.637953 1_555
O45 Si4 1.678845 1_455
O45 Si12 1.681544 1_555
O46 Si15 1.642949 1_555
O47 Si7 1.616749 1_555
