# generated using pymatgen
data_Ca2TiAlSi2O9F
_symmetry_space_group_name_H-M   'P 1'
_cell_length_a   5.44499600
_cell_length_b   7.09132863
_cell_length_c   10.41858784
_cell_angle_alpha   106.50052385
_cell_angle_beta   94.11119575
_cell_angle_gamma   104.58026600
_symmetry_Int_Tables_number   1
_chemical_formula_structural   Ca2TiAlSi2O9F
_chemical_formula_sum   'Ca4 Ti2 Al2 Si4 O18 F2'
_cell_volume   368.82500576
_cell_formula_units_Z   2
loop_
 _symmetry_equiv_pos_site_id
 _symmetry_equiv_pos_as_xyz
  1  'x, y, z'
loop_
 _atom_site_type_symbol
 _atom_site_label
 _atom_site_symmetry_multiplicity
 _atom_site_fract_x
 _atom_site_fract_y
 _atom_site_fract_z
 _atom_site_occupancy
  Ca  Ca0  1  0.99771700  0.58366500  0.83506600  1
  Ca  Ca1  1  0.50380800  0.08424900  0.33229100  1
  Ca  Ca2  1  0.00228300  0.41633500  0.16493400  1
  Ca  Ca3  1  0.49619200  0.91575100  0.66770900  1
  Ti  Ti0  1  0.00000000  0.00000000  0.50000000  1
  Ti  Ti1  1  0.00000000  0.50000000  0.50000000  1
  Al  Al0  1  0.50000000  0.50000000  0.00000000  1
  Al  Al1  1  0.50000000  0.00000000  0.00000000  1
  Si  Si0  1  0.02726000  0.09332100  0.84774600  1
  Si  Si1  1  0.52354400  0.59034500  0.33530700  1
  Si  Si2  1  0.97274000  0.90667900  0.15225400  1
  Si  Si3  1  0.47645600  0.40965500  0.66469300  1
  O  O0  1  0.25114300  0.02142000  0.11705800  1
  O  O1  1  0.14562000  0.33496000  0.94758800  1
  O  O2  1  0.74580500  0.53675800  0.62778800  1
  O  O3  1  0.44087000  0.59127100  0.18066900  1
  O  O4  1  0.23910900  0.96174100  0.85178200  1
  O  O5  1  0.62782800  0.82638100  0.44099900  1
  O  O6  1  0.76089100  0.03825900  0.14821800  1
  O  O7  1  0.55913000  0.40872900  0.81933100  1
  O  O8  1  0.89277400  0.21579200  0.46669000  1
  O  O9  1  0.94435000  0.09543400  0.69218500  1
  O  O10  1  0.73333700  0.45879400  0.33964500  1
  O  O11  1  0.85438000  0.66504000  0.05241200  1
  O  O12  1  0.26666300  0.54120600  0.66035500  1
  O  O13  1  0.05565000  0.90456600  0.30781500  1
  O  O14  1  0.74885700  0.97858000  0.88294200  1
  O  O15  1  0.10722600  0.78420800  0.53331000  1
  O  O16  1  0.37217200  0.17361900  0.55900100  1
  O  O17  1  0.25419500  0.46324200  0.37221200  1
  F  F0  1  0.39968200  0.71514600  0.96421100  1
  F  F1  1  0.60031800  0.28485400  0.03578900  1
loop_
_geom_bond_atom_site_label_1
_geom_bond_atom_site_label_2
_geom_bond_distance
_geom_bond_site_symmetry_2
Ca0 F0 2.303867 1_655
Ca0 O2 2.365002 1_555
Ca0 O7 2.367621 1_555
Ca0 O11 2.409916 1_556
Ca0 O12 2.416879 1_655
Ca0 O4 2.621784 1_655
Ca0 O1 2.624414 1_655
Ca1 O8 2.270364 1_555
Ca1 O0 2.408568 1_555
Ca1 O13 2.409152 1_545
Ca1 O6 2.450145 1_555
Ca1 O16 2.472962 1_555
Ca1 O5 2.602144 1_545
Ca1 O10 2.611839 1_555
Ca2 F1 2.303867 1_455
Ca2 O17 2.365002 1_555
Ca2 O3 2.367621 1_555
Ca2 O1 2.409916 1_554
Ca2 O10 2.416879 1_455
Ca2 O6 2.621784 1_455
Ca2 O11 2.624414 1_455
Ca3 O15 2.270364 1_555
Ca3 O14 2.408568 1_555
Ca3 O9 2.409152 1_565
Ca3 O4 2.450145 1_555
Ca3 O5 2.472962 1_555
Ca3 O16 2.602144 1_565
Ca3 O12 2.611839 1_555
Al0 F0 1.865100 1_554
Al0 F1 1.865100 1_555
Al0 O7 1.888238 1_554
Al0 O3 1.888238 1_555
Al0 O11 1.933946 1_555
Al0 O1 1.933946 1_554
Al1 F1 1.872217 1_555
Al1 F0 1.872217 1_544
Al1 O14 1.892587 1_544
Al1 O0 1.892587 1_555
Al1 O4 1.931225 1_544
Al1 O6 1.931225 1_555
O0 Si2 1.650050 1_445
O1 Si0 1.664023 1_555
O2 Si3 1.650255 1_555
O2 Ti1 2.001232 1_655
O3 Si1 1.643736 1_555
O4 Si0 1.661395 1_565
O5 Si1 1.649685 1_555
O5 Ti0 2.033622 1_665
O6 Si2 1.661395 1_545
O7 Si3 1.643736 1_555
O8 Ti1 1.872006 1_655
O8 Ti0 1.877610 1_655
O9 Si0 1.656222 1_655
O9 Ti0 1.994869 1_655
O10 Si1 1.652349 1_555
O10 Ti1 2.036181 1_655
O11 Si2 1.664023 1_555
O12 Si3 1.652349 1_555
O12 Ti1 2.036181 1_555
O13 Si2 1.656222 1_455
O13 Ti0 1.994869 1_565
O14 Si0 1.650050 1_665
O15 Ti1 1.872006 1_555
O15 Ti0 1.877610 1_565
O16 Si3 1.649685 1_555
O16 Ti0 2.033622 1_555
O17 Si1 1.650255 1_555
O17 Ti1 2.001232 1_555
