# generated using pymatgen
data_Cs2K2Cd3O5
_symmetry_space_group_name_H-M   'P 1'
_cell_length_a   6.71165100
_cell_length_b   9.43887714
_cell_length_c   9.60841502
_cell_angle_alpha   65.64947203
_cell_angle_beta   73.90568060
_cell_angle_gamma   71.57345886
_symmetry_Int_Tables_number   1
_chemical_formula_structural   Cs2K2Cd3O5
_chemical_formula_sum   'Cs4 K4 Cd6 O10'
_cell_volume   518.46256423
_cell_formula_units_Z   2
loop_
 _symmetry_equiv_pos_site_id
 _symmetry_equiv_pos_as_xyz
  1  'x, y, z'
loop_
 _atom_site_type_symbol
 _atom_site_label
 _atom_site_symmetry_multiplicity
 _atom_site_fract_x
 _atom_site_fract_y
 _atom_site_fract_z
 _atom_site_occupancy
  Cs  Cs0  1  0.04914600  0.57510900  0.64903400  1
  Cs  Cs1  1  0.61065100  0.28804900  0.75448900  1
  Cs  Cs2  1  0.38934900  0.71195100  0.24551100  1
  Cs  Cs3  1  0.95085400  0.42489100  0.35096600  1
  K  K0  1  0.05680400  0.95183100  0.69440400  1
  K  K1  1  0.24132100  0.57142300  0.97706900  1
  K  K2  1  0.75867900  0.42857700  0.02293100  1
  K  K3  1  0.94319600  0.04816900  0.30559600  1
  Cd  Cd0  1  0.59884700  0.81888400  0.50310200  1
  Cd  Cd1  1  0.12625000  0.14041500  0.90840400  1
  Cd  Cd2  1  0.43247000  0.17020300  0.17081500  1
  Cd  Cd3  1  0.87375000  0.85958500  0.09159600  1
  Cd  Cd4  1  0.40115300  0.18111600  0.49689800  1
  Cd  Cd5  1  0.56753000  0.82979700  0.82918500  1
  O  O0  1  0.81756400  0.71771100  0.98060800  1
  O  O1  1  0.43565300  0.36425000  0.25834800  1
  O  O2  1  0.18243600  0.28228900  0.01939200  1
  O  O3  1  0.31980500  0.99854700  0.40489300  1
  O  O4  1  0.68019500  0.00145300  0.59510700  1
  O  O5  1  0.11032900  0.25287800  0.65437500  1
  O  O6  1  0.56434700  0.63575000  0.74165200  1
  O  O7  1  0.88967100  0.74712200  0.34562500  1
  O  O8  1  0.76764600  0.12185900  0.03958900  1
  O  O9  1  0.23235400  0.87814100  0.96041100  1
loop_
_geom_bond_atom_site_label_1
_geom_bond_atom_site_label_2
_geom_bond_distance
_geom_bond_site_symmetry_2
Cs0 O5 2.918113 1_555
Cs0 O7 3.001465 1_455
Cs0 O6 3.056800 1_455
Cs1 O8 2.843753 1_556
Cs1 O6 3.150455 1_555
Cs1 O5 3.170723 1_655
Cs1 O2 3.266549 1_556
Cs1 O4 3.478874 1_555
Cs2 O9 2.843753 1_554
Cs2 O1 3.150455 1_555
Cs2 O7 3.170723 1_455
Cs2 O0 3.266549 1_554
Cs2 O3 3.478874 1_555
Cs3 O7 2.918113 1_555
Cs3 O5 3.001465 1_655
Cs3 O1 3.056800 1_655
K0 O4 2.781891 1_465
K0 O3 2.794006 1_555
K0 O5 2.831755 1_565
K0 O9 2.844336 1_555
K0 O0 3.131712 1_455
K1 O6 2.676981 1_555
K1 O2 2.728940 1_556
K1 O0 2.738460 1_455
K1 O9 2.814919 1_555
K1 O1 2.968708 1_556
K2 O1 2.676981 1_555
K2 O0 2.728940 1_554
K2 O2 2.738460 1_655
K2 O8 2.814919 1_555
K2 O6 2.968708 1_554
K3 O3 2.781891 1_645
K3 O4 2.794006 1_555
K3 O7 2.831755 1_545
K3 O8 2.844336 1_555
K3 O2 3.131712 1_655
Cd0 O3 2.219503 1_555
Cd0 O7 2.220381 1_555
Cd0 O6 2.233111 1_555
Cd0 O4 2.483506 1_565
Cd1 O2 2.189195 1_556
Cd1 O9 2.224407 1_545
Cd1 O5 2.243237 1_555
Cd1 O8 2.411369 1_456
Cd2 O2 2.239259 1_555
Cd2 O3 2.254334 1_545
Cd2 O8 2.260871 1_555
Cd2 O1 2.316798 1_555
Cd3 O0 2.189195 1_554
Cd3 O8 2.224407 1_565
Cd3 O7 2.243237 1_555
Cd3 O9 2.411369 1_654
Cd4 O4 2.219503 1_555
Cd4 O5 2.220381 1_555
Cd4 O1 2.233111 1_555
Cd4 O3 2.483506 1_545
Cd5 O0 2.239259 1_555
Cd5 O4 2.254334 1_565
Cd5 O9 2.260871 1_555
Cd5 O6 2.316798 1_555
