# generated using pymatgen
data_VBi(PbO3)2
_symmetry_space_group_name_H-M   'P 1'
_cell_length_a   5.80228200
_cell_length_b   10.09110900
_cell_length_c   12.39029100
_cell_angle_alpha   90.00000000
_cell_angle_beta   90.00000000
_cell_angle_gamma   90.00000000
_symmetry_Int_Tables_number   1
_chemical_formula_structural   VBi(PbO3)2
_chemical_formula_sum   'V4 Bi4 Pb8 O24'
_cell_volume   725.46962925
_cell_formula_units_Z   4
loop_
 _symmetry_equiv_pos_site_id
 _symmetry_equiv_pos_as_xyz
  1  'x, y, z'
loop_
 _atom_site_type_symbol
 _atom_site_label
 _atom_site_symmetry_multiplicity
 _atom_site_fract_x
 _atom_site_fract_y
 _atom_site_fract_z
 _atom_site_occupancy
  V  V0  1  0.25000000  0.47338800  0.20732400  1
  V  V1  1  0.75000000  0.97338800  0.29267600  1
  V  V2  1  0.75000000  0.52661200  0.79267600  1
  V  V3  1  0.25000000  0.02661200  0.70732400  1
  Bi  Bi0  1  0.75000000  0.49945600  0.41057700  1
  Bi  Bi1  1  0.25000000  0.50054400  0.58942300  1
  Bi  Bi2  1  0.75000000  0.00054400  0.91057700  1
  Bi  Bi3  1  0.25000000  0.99945600  0.08942300  1
  Pb  Pb0  1  0.25000000  0.26200300  0.87425600  1
  Pb  Pb1  1  0.75000000  0.73799700  0.12574400  1
  Pb  Pb2  1  0.75000000  0.20264100  0.59858400  1
  Pb  Pb3  1  0.25000000  0.23799700  0.37425600  1
  Pb  Pb4  1  0.75000000  0.29735900  0.09858400  1
  Pb  Pb5  1  0.25000000  0.70264100  0.90141600  1
  Pb  Pb6  1  0.75000000  0.76200300  0.62574400  1
  Pb  Pb7  1  0.25000000  0.79735900  0.40141600  1
  O  O0  1  0.75000000  0.11066000  0.20959000  1
  O  O1  1  0.25000000  0.50734600  0.07386900  1
  O  O2  1  0.99211300  0.86389300  0.01203900  1
  O  O3  1  0.49211300  0.13610700  0.98796100  1
  O  O4  1  0.00788700  0.36389300  0.48796100  1
  O  O5  1  0.49211300  0.36389300  0.48796100  1
  O  O6  1  0.50788700  0.63610700  0.51203900  1
  O  O7  1  0.99211300  0.63610700  0.51203900  1
  O  O8  1  0.98759700  0.62865900  0.75442100  1
  O  O9  1  0.48759700  0.37134100  0.24557900  1
  O  O10  1  0.48759700  0.12865900  0.74557900  1
  O  O11  1  0.25000000  0.99265400  0.57386900  1
  O  O12  1  0.01240300  0.37134100  0.24557900  1
  O  O13  1  0.75000000  0.49265400  0.92613100  1
  O  O14  1  0.98759700  0.87134100  0.25442100  1
  O  O15  1  0.25000000  0.61066000  0.29041000  1
  O  O16  1  0.75000000  0.38934000  0.70959000  1
  O  O17  1  0.25000000  0.88934000  0.79041000  1
  O  O18  1  0.51240300  0.87134100  0.25442100  1
  O  O19  1  0.75000000  0.00734600  0.42613100  1
  O  O20  1  0.51240300  0.62865900  0.75442100  1
  O  O21  1  0.01240300  0.12865900  0.74557900  1
  O  O22  1  0.00788700  0.13610700  0.98796100  1
  O  O23  1  0.50788700  0.86389300  0.01203900  1
loop_
_geom_bond_atom_site_label_1
_geom_bond_atom_site_label_2
_geom_bond_distance
_geom_bond_site_symmetry_2
Bi0 O4 2.242700 1_655
Bi0 O5 2.242700 1_555
Bi0 O7 2.335685 1_555
Bi0 O6 2.335685 1_555
Bi1 O6 2.242700 1_555
Bi1 O7 2.242700 1_455
Bi1 O5 2.335685 1_555
Bi1 O4 2.335685 1_555
Bi2 O22 2.242700 1_655
Bi2 O3 2.242700 1_555
Bi2 O2 2.335685 1_546
Bi2 O23 2.335685 1_546
Bi3 O23 2.242700 1_555
Bi3 O2 2.242700 1_455
Bi3 O3 2.335685 1_564
Bi3 O22 2.335685 1_564
O0 V1 1.725874 1_545
O0 Pb4 2.332632 1_555
O1 V0 1.688680 1_555
O2 Pb1 2.360573 1_555
O2 Pb5 2.601060 1_654
O3 Pb0 2.360573 1_555
O3 Pb4 2.601060 1_556
O4 Pb3 2.360573 1_555
O4 Pb2 2.601060 1_455
O5 Pb3 2.360573 1_555
O5 Pb2 2.601060 1_555
O6 Pb6 2.360573 1_555
O6 Pb7 2.601060 1_555
O7 Pb6 2.360573 1_555
O7 Pb7 2.601060 1_655
O8 V2 1.784836 1_555
O8 Pb5 2.488502 1_655
O8 Pb6 2.500620 1_555
O9 V0 1.784836 1_555
O9 Pb4 2.488502 1_555
O9 Pb3 2.500620 1_555
O10 V3 1.784836 1_555
O10 Pb2 2.488502 1_555
O10 Pb0 2.500620 1_555
O11 V3 1.688680 1_565
O12 V0 1.784836 1_555
O12 Pb4 2.488502 1_455
O12 Pb3 2.500620 1_555
O13 V2 1.688680 1_555
O14 V1 1.784836 1_555
O14 Pb7 2.488502 1_655
O14 Pb1 2.500620 1_555
O15 V0 1.725874 1_555
O15 Pb7 2.332632 1_555
O16 V2 1.725874 1_555
O16 Pb2 2.332632 1_555
O17 V3 1.725874 1_565
O17 Pb5 2.332632 1_555
O18 V1 1.784836 1_555
O18 Pb7 2.488502 1_555
O18 Pb1 2.500620 1_555
O19 V1 1.688680 1_545
O20 V2 1.784836 1_555
O20 Pb5 2.488502 1_555
O20 Pb6 2.500620 1_555
O21 V3 1.784836 1_555
O21 Pb2 2.488502 1_455
O21 Pb0 2.500620 1_555
O22 Pb0 2.360573 1_555
O22 Pb4 2.601060 1_456
O23 Pb1 2.360573 1_555
O23 Pb5 2.601060 1_554
