# generated using pymatgen
data_NaHgCl3
_symmetry_space_group_name_H-M   'P 1'
_cell_length_a   4.19756300
_cell_length_b   7.49083200
_cell_length_c   18.24062500
_cell_angle_alpha   90.00000000
_cell_angle_beta   90.00000000
_cell_angle_gamma   90.00000000
_symmetry_Int_Tables_number   1
_chemical_formula_structural   NaHgCl3
_chemical_formula_sum   'Na4 Hg4 Cl12'
_cell_volume   573.54433581
_cell_formula_units_Z   4
loop_
 _symmetry_equiv_pos_site_id
 _symmetry_equiv_pos_as_xyz
  1  'x, y, z'
loop_
 _atom_site_type_symbol
 _atom_site_label
 _atom_site_symmetry_multiplicity
 _atom_site_fract_x
 _atom_site_fract_y
 _atom_site_fract_z
 _atom_site_occupancy
  Na  Na0  1  0.25000000  0.09582500  0.62528900  1
  Na  Na1  1  0.75000000  0.40417500  0.12528900  1
  Na  Na2  1  0.75000000  0.90417500  0.37471100  1
  Na  Na3  1  0.25000000  0.59582500  0.87471100  1
  Hg  Hg0  1  0.25000000  0.11224800  0.90481300  1
  Hg  Hg1  1  0.75000000  0.38775200  0.40481300  1
  Hg  Hg2  1  0.75000000  0.88775200  0.09518700  1
  Hg  Hg3  1  0.25000000  0.61224800  0.59518700  1
  Cl  Cl0  1  0.75000000  0.58148100  0.30066500  1
  Cl  Cl1  1  0.75000000  0.08148100  0.19933500  1
  Cl  Cl2  1  0.25000000  0.14856900  0.36768100  1
  Cl  Cl3  1  0.25000000  0.91851900  0.80066500  1
  Cl  Cl4  1  0.25000000  0.71147500  0.46849500  1
  Cl  Cl5  1  0.25000000  0.21147500  0.03150500  1
  Cl  Cl6  1  0.75000000  0.35143100  0.86768100  1
  Cl  Cl7  1  0.25000000  0.64856900  0.13231900  1
  Cl  Cl8  1  0.75000000  0.78852500  0.96849500  1
  Cl  Cl9  1  0.75000000  0.85143100  0.63231900  1
  Cl  Cl10  1  0.75000000  0.28852500  0.53150500  1
  Cl  Cl11  1  0.25000000  0.41851900  0.69933500  1
loop_
_geom_bond_atom_site_label_1
_geom_bond_atom_site_label_2
_geom_bond_distance
_geom_bond_site_symmetry_2
Cl0 Hg1 2.390588 1_555
Cl0 Na2 2.768993 1_555
Cl1 Hg2 2.390588 1_545
Cl1 Na1 2.768993 1_555
Cl2 Na2 2.787982 1_445
Cl2 Na2 2.787982 1_545
Cl2 Hg1 2.841434 1_455
Cl2 Hg1 2.841434 1_555
Cl3 Hg0 2.390588 1_565
Cl3 Na3 2.768993 1_555
Cl4 Hg3 2.427537 1_555
Cl4 Na2 3.068379 1_555
Cl4 Na2 3.068379 1_455
Cl5 Hg0 2.427537 1_554
Cl5 Na1 3.068379 1_455
Cl5 Na1 3.068379 1_555
Cl6 Na3 2.787982 1_555
Cl6 Na3 2.787982 1_655
Cl6 Hg0 2.841434 1_655
Cl6 Hg0 2.841434 1_555
Cl7 Na1 2.787982 1_555
Cl7 Na1 2.787982 1_455
Cl7 Hg2 2.841434 1_455
Cl7 Hg2 2.841434 1_555
Cl8 Hg2 2.427537 1_556
Cl8 Na3 3.068379 1_655
Cl8 Na3 3.068379 1_555
Cl9 Na0 2.787982 1_565
Cl9 Na0 2.787982 1_665
Cl9 Hg3 2.841434 1_555
Cl9 Hg3 2.841434 1_655
Cl10 Hg1 2.427537 1_555
Cl10 Na0 3.068379 1_555
Cl10 Na0 3.068379 1_655
Cl11 Hg3 2.390588 1_555
Cl11 Na0 2.768993 1_555
