# generated using pymatgen
data_LaGa6
_symmetry_space_group_name_H-M   'P 1'
_cell_length_a   6.06056003
_cell_length_b   6.06055065
_cell_length_c   7.69733138
_cell_angle_alpha   90.00237687
_cell_angle_beta   90.00048915
_cell_angle_gamma   90.00043147
_symmetry_Int_Tables_number   1
_chemical_formula_structural   LaGa6
_chemical_formula_sum   'La2 Ga12'
_cell_volume   282.72552951
_cell_formula_units_Z   2
loop_
 _symmetry_equiv_pos_site_id
 _symmetry_equiv_pos_as_xyz
  1  'x, y, z'
loop_
 _atom_site_type_symbol
 _atom_site_label
 _atom_site_symmetry_multiplicity
 _atom_site_fract_x
 _atom_site_fract_y
 _atom_site_fract_z
 _atom_site_occupancy
  La  La0  1  0.00001312  0.49998192  -0.00000208  1
  La  La1  1  0.50001532  -0.00002266  -0.00000420  1
  Ga  Ga0  1  0.50000540  0.49999015  0.16088011  1
  Ga  Ga1  1  0.00001597  -0.00004308  0.83912317  1
  Ga  Ga2  1  0.49998489  0.49997545  0.83903385  1
  Ga  Ga3  1  0.00004083  0.00003927  0.16098023  1
  Ga  Ga4  1  0.21752838  0.71750565  0.34411485  1
  Ga  Ga5  1  0.78240717  0.28253205  0.34415201  1
  Ga  Ga6  1  0.71760610  0.21745497  0.65592347  1
  Ga  Ga7  1  0.28248567  0.78249196  0.65588258  1
  Ga  Ga8  1  0.21759080  0.28234523  0.65592005  1
  Ga  Ga9  1  0.78248841  0.71750017  0.65583154  1
  Ga  Ga10  1  0.71738460  0.78257159  0.34407332  1
  Ga  Ga11  1  0.28243533  0.21767633  0.34409411  1
loop_
_geom_bond_atom_site_label_1
_geom_bond_atom_site_label_2
_geom_bond_distance
_geom_bond_site_symmetry_2
Ga0 Ga2 2.477357 1_554
Ga0 Ga11 2.579761 1_555
Ga0 Ga5 2.580002 1_555
Ga0 Ga10 2.580069 1_555
Ga0 Ga4 2.580283 1_555
Ga0 La0 3.273499 1_555
Ga0 La1 3.273529 1_565
Ga0 La1 3.273578 1_555
Ga0 La0 3.273605 1_655
Ga1 Ga3 2.477440 1_556
Ga1 Ga6 2.579855 1_455
Ga1 Ga8 2.580030 1_555
Ga1 Ga7 2.580121 1_545
Ga1 Ga9 2.580441 1_445
Ga1 La0 3.273433 1_546
Ga1 La1 3.273511 1_556
Ga1 La1 3.273537 1_456
Ga1 La0 3.273618 1_556
Ga2 Ga8 2.579767 1_555
Ga2 Ga7 2.580094 1_555
Ga2 Ga6 2.580250 1_555
Ga2 Ga9 2.580328 1_555
Ga2 La0 3.273642 1_556
Ga2 La1 3.273743 1_566
Ga2 La1 3.273817 1_556
Ga2 La0 3.273939 1_656
Ga3 Ga4 2.580056 1_545
Ga3 Ga5 2.580436 1_455
Ga3 La0 3.273565 1_555
Ga3 La1 3.273716 1_555
Ga3 La1 3.273983 1_455
Ga3 La0 3.274113 1_545
Ga4 Ga7 2.463523 1_555
Ga4 La0 3.239050 1_555
Ga4 La1 3.588635 1_565
Ga5 Ga6 2.463527 1_555
Ga5 La0 3.239433 1_655
Ga5 La1 3.588685 1_555
Ga6 Ga9 3.055413 1_545
Ga6 Ga8 3.055598 1_655
Ga6 Ga8 3.055788 1_555
Ga6 Ga9 3.055951 1_555
Ga6 La1 3.238949 1_556
Ga6 La0 3.588184 1_656
Ga7 Ga8 3.054813 1_565
Ga7 Ga9 3.055753 1_455
Ga7 Ga9 3.055792 1_555
Ga7 Ga8 3.056571 1_555
Ga7 La1 3.238967 1_566
Ga7 La0 3.588684 1_556
Ga8 La0 3.239263 1_556
Ga8 La1 3.587899 1_556
Ga9 La0 3.239468 1_656
Ga9 La1 3.588775 1_566
Ga10 Ga9 2.463709 1_555
Ga10 Ga3 2.580306 1_665
Ga10 Ga4 3.054963 1_555
Ga10 Ga5 3.055551 1_565
Ga10 Ga5 3.056032 1_555
Ga10 Ga4 3.056697 1_655
Ga10 La1 3.238248 1_565
Ga10 La0 3.589045 1_655
Ga11 Ga8 2.463551 1_555
Ga11 Ga3 2.579790 1_555
Ga11 Ga4 3.054678 1_555
Ga11 Ga5 3.055494 1_555
Ga11 Ga5 3.055838 1_455
Ga11 Ga4 3.056724 1_545
Ga11 La1 3.239551 1_555
Ga11 La0 3.587829 1_555
