# generated using pymatgen
data_Na3La9B8O27
_symmetry_space_group_name_H-M   'P 1'
_cell_length_a   8.94996830
_cell_length_b   8.94996830
_cell_length_c   8.74446100
_cell_angle_alpha   90.00000000
_cell_angle_beta   90.00000000
_cell_angle_gamma   120.00000223
_symmetry_Int_Tables_number   1
_chemical_formula_structural   Na3La9B8O27
_chemical_formula_sum   'Na3 La9 B8 O27'
_cell_volume   606.60594387
_cell_formula_units_Z   1
loop_
 _symmetry_equiv_pos_site_id
 _symmetry_equiv_pos_as_xyz
  1  'x, y, z'
loop_
 _atom_site_type_symbol
 _atom_site_label
 _atom_site_symmetry_multiplicity
 _atom_site_fract_x
 _atom_site_fract_y
 _atom_site_fract_z
 _atom_site_occupancy
  Na  Na0  1  0.66797100  0.00000000  0.00000000  1
  Na  Na1  1  0.00000000  0.66797100  0.00000000  1
  Na  Na2  1  0.33202900  0.33202900  0.00000000  1
  La  La0  1  0.34881300  0.00000000  0.76593900  1
  La  La1  1  0.65118700  0.65118700  0.23406100  1
  La  La2  1  0.00000000  0.34881300  0.23406100  1
  La  La3  1  0.00000000  0.34881300  0.76593900  1
  La  La4  1  0.65118700  0.65118700  0.76593900  1
  La  La5  1  0.34881300  0.00000000  0.23406100  1
  La  La6  1  0.71743300  0.00000000  0.50000000  1
  La  La7  1  0.00000000  0.71743300  0.50000000  1
  La  La8  1  0.28256700  0.28256700  0.50000000  1
  B  B0  1  0.66666700  0.33333300  0.67618000  1
  B  B1  1  0.33333300  0.66666700  0.32382000  1
  B  B2  1  0.33333300  0.66666700  0.67618000  1
  B  B3  1  0.66666700  0.33333300  0.32382000  1
  B  B4  1  0.33333300  0.66666700  0.00000000  1
  B  B5  1  0.66666700  0.33333300  0.00000000  1
  B  B6  1  0.00000000  0.00000000  0.79011900  1
  B  B7  1  0.00000000  0.00000000  0.20988100  1
  O  O0  1  0.48671300  0.82110100  0.68184700  1
  O  O1  1  0.17889900  0.66561200  0.68184700  1
  O  O2  1  0.82110100  0.48671300  0.31815300  1
  O  O3  1  0.66561200  0.17889900  0.31815300  1
  O  O4  1  0.33438800  0.51328700  0.68184700  1
  O  O5  1  0.51328700  0.33438800  0.68184700  1
  O  O6  1  0.33438800  0.51328700  0.31815300  1
  O  O7  1  0.17889900  0.66561200  0.31815300  1
  O  O8  1  0.48671300  0.82110100  0.31815300  1
  O  O9  1  0.00000000  0.25706000  0.50000000  1
  O  O10  1  0.25706000  0.00000000  0.50000000  1
  O  O11  1  0.74294000  0.74294000  0.50000000  1
  O  O12  1  0.15540700  0.15540700  0.21217500  1
  O  O13  1  0.00000000  0.84459300  0.78782500  1
  O  O14  1  0.84459300  0.00000000  0.78782500  1
  O  O15  1  0.84459300  0.00000000  0.21217500  1
  O  O16  1  0.00000000  0.84459300  0.21217500  1
  O  O17  1  0.15540700  0.15540700  0.78782500  1
  O  O18  1  0.50470200  0.18275100  0.00000000  1
  O  O19  1  0.67805000  0.49529800  0.00000000  1
  O  O20  1  0.81724900  0.32195000  0.00000000  1
  O  O21  1  0.32195000  0.81724900  0.00000000  1
  O  O22  1  0.49529800  0.67805000  0.00000000  1
  O  O23  1  0.18275100  0.50470200  0.00000000  1
  O  O24  1  0.51328700  0.33438800  0.31815300  1
  O  O25  1  0.82110100  0.48671300  0.68184700  1
  O  O26  1  0.66561200  0.17889900  0.68184700  1
loop_
_geom_bond_atom_site_label_1
_geom_bond_atom_site_label_2
_geom_bond_distance
_geom_bond_site_symmetry_2
Na0 O15 2.437448 1_555
Na0 O14 2.437448 1_554
Na0 O20 2.497597 1_555
Na0 O22 2.497598 1_545
Na0 O18 2.683383 1_555
Na0 O21 2.683391 1_545
Na1 O16 2.437448 1_555
Na1 O13 2.437448 1_554
Na1 O21 2.497597 1_555
Na1 O19 2.497598 1_455
Na1 O23 2.683383 1_555
Na1 O20 2.683391 1_455
Na2 O17 2.437448 1_554
Na2 O12 2.437448 1_555
Na2 O23 2.497605 1_555
Na2 O18 2.497605 1_555
Na2 O22 2.683391 1_555
Na2 O19 2.683391 1_555
La0 O10 2.466225 1_555
La0 O21 2.555178 1_546
La0 O18 2.555180 1_556
La0 O26 2.569777 1_555
La0 O0 2.569777 1_545
La0 O1 2.694213 1_545
La0 O5 2.694213 1_555
La0 O13 2.715709 1_545
La0 O17 2.715709 1_555
La1 O11 2.466225 1_555
La1 O22 2.555184 1_555
La1 O19 2.555184 1_555
La1 O6 2.569777 1_555
La1 O24 2.569777 1_555
La1 O2 2.694213 1_555
La1 O8 2.694213 1_555
La1 O15 2.715709 1_565
La1 O16 2.715709 1_655
La2 O9 2.466225 1_555
La2 O20 2.555178 1_455
La2 O23 2.555180 1_555
La2 O7 2.569777 1_555
La2 O2 2.569777 1_455
La2 O3 2.694213 1_455
La2 O6 2.694213 1_555
La2 O15 2.715709 1_455
La2 O12 2.715709 1_555
La3 O9 2.466225 1_555
La3 O20 2.555178 1_456
La3 O23 2.555180 1_556
La3 O1 2.569777 1_555
La3 O25 2.569777 1_455
La3 O26 2.694213 1_455
La3 O4 2.694213 1_555
La3 O14 2.715709 1_455
La3 O17 2.715709 1_555
La4 O11 2.466225 1_555
La4 O22 2.555184 1_556
La4 O19 2.555184 1_556
La4 O4 2.569777 1_555
La4 O5 2.569777 1_555
La4 O25 2.694213 1_555
La4 O0 2.694213 1_555
La4 O14 2.715709 1_565
La4 O13 2.715709 1_655
La5 O10 2.466225 1_555
La5 O21 2.555178 1_545
La5 O18 2.555180 1_555
La5 O3 2.569777 1_555
La5 O8 2.569777 1_545
La5 O7 2.694213 1_545
La5 O24 2.694213 1_555
La5 O16 2.715709 1_545
La5 O12 2.715709 1_555
La6 O9 2.422902 1_655
La6 O11 2.422902 1_545
La6 O0 2.459665 1_545
La6 O8 2.459665 1_545
La6 O26 2.459665 1_555
La6 O3 2.459665 1_555
La6 O15 2.762223 1_555
La6 O14 2.762223 1_555
La7 O10 2.422902 1_565
La7 O11 2.422902 1_455
La7 O25 2.459665 1_455
La7 O2 2.459665 1_455
La7 O1 2.459665 1_555
La7 O7 2.459665 1_555
La7 O13 2.762223 1_555
La7 O16 2.762223 1_555
La8 O10 2.422902 1_555
La8 O9 2.422902 1_555
La8 O4 2.459665 1_555
La8 O5 2.459665 1_555
La8 O6 2.459665 1_555
La8 O24 2.459665 1_555
La8 O12 2.762223 1_555
La8 O17 2.762223 1_555
B0 O26 1.378374 1_555
B0 O25 1.378378 1_555
B0 O5 1.378383 1_555
B1 O7 1.378374 1_555
B1 O8 1.378378 1_555
B1 O6 1.378383 1_555
B2 O1 1.378374 1_555
B2 O0 1.378378 1_555
B2 O4 1.378383 1_555
B3 O3 1.378374 1_555
B3 O2 1.378378 1_555
B3 O24 1.378383 1_555
B4 O23 1.401423 1_555
B4 O22 1.401423 1_555
B4 O21 1.401423 1_555
B5 O18 1.401423 1_555
B5 O19 1.401423 1_555
B5 O20 1.401423 1_555
B6 O17 1.391032 1_555
B6 O13 1.391032 1_545
B6 O14 1.391032 1_455
B7 O12 1.391032 1_555
B7 O16 1.391032 1_545
B7 O15 1.391032 1_455
