# generated using pymatgen
data_Sr2B5H2O11
_symmetry_space_group_name_H-M   'P 1'
_cell_length_a   6.56054556
_cell_length_b   6.56054556
_cell_length_c   6.40882017
_cell_angle_alpha   61.56195559
_cell_angle_beta   61.56195559
_cell_angle_gamma   76.88852492
_symmetry_Int_Tables_number   1
_chemical_formula_structural   Sr2B5H2O11
_chemical_formula_sum   'Sr2 B5 H2 O11'
_cell_volume   213.28696203
_cell_formula_units_Z   1
loop_
 _symmetry_equiv_pos_site_id
 _symmetry_equiv_pos_as_xyz
  1  'x, y, z'
loop_
 _atom_site_type_symbol
 _atom_site_label
 _atom_site_symmetry_multiplicity
 _atom_site_fract_x
 _atom_site_fract_y
 _atom_site_fract_z
 _atom_site_occupancy
  Sr  Sr0  1  0.16892500  0.24650600  0.08085400  1
  Sr  Sr1  1  0.75349400  0.83107500  0.91914600  1
  B  B0  1  0.24899900  0.90033200  0.74434200  1
  B  B1  1  0.09966800  0.75100100  0.25565800  1
  B  B2  1  0.34082100  0.65917900  0.50000000  1
  B  B3  1  0.19397600  0.34161200  0.49277900  1
  B  B4  1  0.65838800  0.80602400  0.50722100  1
  H  H0  1  0.70256300  0.35811900  0.71967000  1
  H  H1  1  0.64188100  0.29743700  0.28033000  1
  O  O0  1  0.59215800  0.69334600  0.41585800  1
  O  O1  1  0.30665400  0.40784200  0.58414200  1
  O  O2  1  0.17999900  0.11352800  0.54828600  1
  O  O3  1  0.88647200  0.82000100  0.45171400  1
  O  O4  1  0.29996500  0.80382000  0.26515200  1
  O  O5  1  0.19618000  0.70003500  0.73484800  1
  O  O6  1  0.09891400  0.90108600  0.00000000  1
  O  O7  1  0.09434300  0.49952500  0.32839100  1
  O  O8  1  0.50047500  0.90565700  0.67160900  1
  O  O9  1  0.61827500  0.24131100  0.89827900  1
  O  O10  1  0.75868900  0.38172500  0.10172100  1
loop_
_geom_bond_atom_site_label_1
_geom_bond_atom_site_label_2
_geom_bond_distance
_geom_bond_site_symmetry_2
B0 O6 1.457082 1_556
B0 O5 1.467428 1_555
B0 O8 1.489498 1_555
B0 O2 1.523368 1_565
B1 O6 1.457082 1_555
B1 O4 1.467428 1_555
B1 O7 1.489498 1_555
B1 O3 1.523368 1_455
B2 O5 1.464988 1_555
B2 O4 1.464988 1_555
B2 O1 1.505202 1_555
B2 O0 1.505202 1_555
B3 O1 1.370539 1_555
B3 O2 1.377767 1_555
B3 O7 1.385494 1_555
B4 O0 1.370539 1_555
B4 O3 1.377767 1_555
B4 O8 1.385494 1_555
H0 O9 0.978396 1_555
H1 O10 0.978396 1_555
O0 Sr1 2.560413 1_554
O1 Sr0 2.560413 1_556
O2 Sr0 2.725792 1_555
O2 Sr1 2.955659 1_445
O3 Sr1 2.725792 1_555
O3 Sr0 2.955659 1_665
O4 Sr0 2.671352 1_565
O4 Sr1 2.716984 1_554
O5 Sr1 2.671352 1_455
O5 Sr0 2.716984 1_556
O6 Sr1 2.726204 1_454
O6 Sr0 2.726204 1_565
O7 Sr0 2.629035 1_555
O8 Sr1 2.629035 1_555
O9 Sr1 2.595248 1_545
O9 Sr0 2.601537 1_556
O10 Sr0 2.595248 1_655
O10 Sr1 2.601537 1_554
