# generated using pymatgen
data_Cs3NaLi2(BO3)2
_symmetry_space_group_name_H-M   'P 1'
_cell_length_a   6.81487800
_cell_length_b   7.41804284
_cell_length_c   10.39734171
_cell_angle_alpha   96.60860169
_cell_angle_beta   101.48876141
_cell_angle_gamma   103.86843805
_symmetry_Int_Tables_number   1
_chemical_formula_structural   Cs3NaLi2(BO3)2
_chemical_formula_sum   'Cs6 Na2 Li4 B4 O12'
_cell_volume   492.69241286
_cell_formula_units_Z   2
loop_
 _symmetry_equiv_pos_site_id
 _symmetry_equiv_pos_as_xyz
  1  'x, y, z'
loop_
 _atom_site_type_symbol
 _atom_site_label
 _atom_site_symmetry_multiplicity
 _atom_site_fract_x
 _atom_site_fract_y
 _atom_site_fract_z
 _atom_site_occupancy
  Cs  Cs0  1  0.64704700  0.26879000  0.92441600  1
  Cs  Cs1  1  0.81692900  0.69634100  0.51706500  1
  Cs  Cs2  1  0.35295300  0.73121000  0.07558400  1
  Cs  Cs3  1  0.18307100  0.30365900  0.48293500  1
  Cs  Cs4  1  0.78589000  0.77418000  0.87091500  1
  Cs  Cs5  1  0.21411000  0.22582000  0.12908500  1
  Na  Na0  1  0.32696400  0.82654100  0.41632800  1
  Na  Na1  1  0.67303600  0.17345900  0.58367200  1
  Li  Li0  1  0.20234700  0.08966400  0.76393100  1
  Li  Li1  1  0.22624500  0.59795200  0.75884900  1
  Li  Li2  1  0.77375500  0.40204800  0.24115100  1
  Li  Li3  1  0.79765300  0.91033600  0.23606900  1
  B  B0  1  0.34934600  0.86862100  0.68661400  1
  B  B1  1  0.03232300  0.31325500  0.78150500  1
  B  B2  1  0.65065400  0.13137900  0.31338600  1
  B  B3  1  0.96767700  0.68674500  0.21849500  1
  O  O0  1  0.24803100  0.36941600  0.83746300  1
  O  O1  1  0.30659700  0.87494600  0.81477900  1
  O  O2  1  0.07230100  0.87835900  0.23748700  1
  O  O3  1  0.69340300  0.12505400  0.18522100  1
  O  O4  1  0.34751300  0.02504600  0.62432700  1
  O  O5  1  0.37796800  0.70267300  0.62557800  1
  O  O6  1  0.75196900  0.63058400  0.16253700  1
  O  O7  1  0.65248700  0.97495400  0.37567300  1
  O  O8  1  0.93161800  0.44671800  0.73937200  1
  O  O9  1  0.92769900  0.12164100  0.76251300  1
  O  O10  1  0.62203200  0.29732700  0.37442200  1
  O  O11  1  0.06838200  0.55328200  0.26062800  1
loop_
_geom_bond_atom_site_label_1
_geom_bond_atom_site_label_2
_geom_bond_distance
_geom_bond_site_symmetry_2
Cs0 O0 2.986286 1_555
Cs0 O3 3.012573 1_556
Cs0 O9 3.089288 1_555
Cs0 O8 3.169925 1_555
Cs0 O1 3.185643 1_545
Cs0 O6 3.269439 1_556
Cs1 O7 2.973543 1_555
Cs1 O10 3.007490 1_555
Cs1 O8 3.215839 1_555
Cs1 O5 3.409348 1_555
Cs2 O6 2.986286 1_555
Cs2 O1 3.012573 1_554
Cs2 O2 3.089288 1_555
Cs2 O11 3.169925 1_555
Cs2 O3 3.185643 1_565
Cs2 O0 3.269439 1_554
Cs3 O4 2.973543 1_555
Cs3 O5 3.007490 1_555
Cs3 O11 3.215839 1_555
Cs3 O10 3.409348 1_555
Cs4 O9 2.959079 1_565
Cs4 O8 3.112939 1_555
Cs4 O5 3.266977 1_555
Cs4 O6 3.359503 1_556
Cs4 O1 3.475585 1_555
Cs4 O1 3.625678 1_655
Cs5 O2 2.959079 1_545
Cs5 O11 3.112939 1_555
Cs5 O10 3.266977 1_555
Cs5 O0 3.359503 1_554
Cs5 O3 3.475585 1_555
Cs5 O3 3.625678 1_455
Na0 O7 2.371050 1_555
Na0 O2 2.411666 1_555
Na0 O4 2.431550 1_565
Na0 O5 2.451642 1_555
Na0 O11 2.496175 1_555
Na1 O4 2.371050 1_555
Na1 O9 2.411666 1_555
Na1 O7 2.431550 1_545
Na1 O10 2.451642 1_555
Na1 O8 2.496175 1_555
Li0 O9 1.939682 1_455
Li0 O1 1.976839 1_545
Li0 O4 1.988602 1_555
Li0 O0 2.053832 1_555
Li1 O1 1.979588 1_555
Li1 O0 1.988824 1_555
Li1 O5 2.006507 1_555
Li1 O8 2.009213 1_455
Li2 O3 1.979588 1_555
Li2 O6 1.988824 1_555
Li2 O10 2.006507 1_555
Li2 O11 2.009213 1_655
Li3 O2 1.939682 1_655
Li3 O3 1.976839 1_565
Li3 O7 1.988602 1_555
Li3 O6 2.053832 1_555
B0 O5 1.393114 1_555
B0 O4 1.393813 1_565
B0 O1 1.417618 1_555
B1 O8 1.396015 1_455
B1 O9 1.400433 1_455
B1 O0 1.408176 1_555
B2 O10 1.393114 1_555
B2 O7 1.393813 1_545
B2 O3 1.417618 1_555
B3 O11 1.396015 1_655
B3 O2 1.400433 1_655
B3 O6 1.408176 1_555
