# generated using pymatgen
data_K2MnH2OF5
_symmetry_space_group_name_H-M   'P 1'
_cell_length_a   5.83719355
_cell_length_b   8.23727375
_cell_length_c   6.07911956
_cell_angle_alpha   89.99803625
_cell_angle_beta   96.56008158
_cell_angle_gamma   89.99869721
_symmetry_Int_Tables_number   1
_chemical_formula_structural   K2MnH2OF5
_chemical_formula_sum   'K4 Mn2 H4 O2 F10'
_cell_volume   290.38583583
_cell_formula_units_Z   2
loop_
 _symmetry_equiv_pos_site_id
 _symmetry_equiv_pos_as_xyz
  1  'x, y, z'
loop_
 _atom_site_type_symbol
 _atom_site_label
 _atom_site_symmetry_multiplicity
 _atom_site_fract_x
 _atom_site_fract_y
 _atom_site_fract_z
 _atom_site_occupancy
  K  K0  1  0.08558039  0.24998591  0.52010664  1
  K  K1  1  0.91435335  0.74999078  0.47989345  1
  K  K2  1  0.49952181  0.24998506  0.09993479  1
  K  K3  1  0.50051400  0.74999149  0.90005020  1
  Mn  Mn0  1  -0.00000991  -0.00001948  -0.00000152  1
  Mn  Mn1  1  -0.00000251  0.49998939  -0.00000939  1
  H  H0  1  0.63389897  0.34584640  0.62599757  1
  H  H1  1  0.36611875  0.84576026  0.37405524  1
  H  H2  1  0.36613314  0.65421415  0.37407154  1
  H  H3  1  0.63383158  0.15430587  0.62592483  1
  O  O0  1  0.56711625  0.25011435  0.54808248  1
  O  O1  1  0.43285481  0.74999974  0.45195488  1
  F  F0  1  0.94942236  0.24998388  0.03238157  1
  F  F1  1  0.05057680  0.74998530  0.96760454  1
  F  F2  1  0.20565193  0.49376313  0.26357690  1
  F  F3  1  0.79438795  0.99377973  0.73642106  1
  F  F4  1  0.79438231  0.50620509  0.73641032  1
  F  F5  1  0.20563529  0.00619609  0.26358432  1
  F  F6  1  0.24275107  0.46466449  0.83675556  1
  F  F7  1  0.75725843  0.96466083  0.16321997  1
  F  F8  1  0.75728123  0.53529217  0.16322146  1
  F  F9  1  0.24274201  0.03530739  0.83676358  1
loop_
_geom_bond_atom_site_label_1
_geom_bond_atom_site_label_2
_geom_bond_distance
_geom_bond_site_symmetry_2
K0 O0 2.796497 1_555
K1 O1 2.796292 1_555
K2 O0 2.707788 1_555
K3 O1 2.707485 1_555
H0 O0 0.977756 1_555
H1 O1 0.977770 1_555
H2 O1 0.977905 1_555
H3 O0 0.977894 1_555
F0 Mn0 2.092861 1_655
F0 Mn1 2.092890 1_655
F0 K2 2.704027 1_555
F0 K0 2.980622 1_655
F1 Mn1 2.092812 1_556
F1 Mn0 2.092819 1_566
F1 K3 2.704240 1_555
F1 K1 2.980599 1_455
F2 Mn1 1.889914 1_555
F2 K0 2.684230 1_555
F2 K2 2.890391 1_555
F3 Mn0 1.889706 1_666
F3 K1 2.684148 1_555
F3 K3 2.890439 1_555
F4 Mn1 1.889760 1_656
F4 K1 2.684042 1_555
F4 K3 2.890427 1_555
F5 Mn0 1.889884 1_555
F5 K0 2.684304 1_555
F5 K2 2.890540 1_555
F6 Mn1 1.843517 1_556
F6 K0 2.696482 1_555
F6 K2 2.717546 1_556
F6 K3 2.793535 1_555
F7 Mn0 1.843352 1_665
F7 K1 2.696309 1_555
F7 K3 2.717503 1_554
F7 K2 2.793352 1_565
F8 Mn1 1.843291 1_655
F8 K1 2.696537 1_555
F8 K3 2.717617 1_554
F8 K2 2.793383 1_555
F9 Mn0 1.843510 1_556
F9 K0 2.696387 1_555
F9 K2 2.717652 1_556
F9 K3 2.793403 1_545
