# generated using pymatgen
data_Y5(ReO6)2
_symmetry_space_group_name_H-M   'P 1'
_cell_length_a   6.81254233
_cell_length_b   6.81253973
_cell_length_c   7.50747631
_cell_angle_alpha   73.71475943
_cell_angle_beta   73.71474945
_cell_angle_gamma   48.84083140
_symmetry_Int_Tables_number   1
_chemical_formula_structural   Y5(ReO6)2
_chemical_formula_sum   'Y5 Re2 O12'
_cell_volume   249.57521847
_cell_formula_units_Z   1
loop_
 _symmetry_equiv_pos_site_id
 _symmetry_equiv_pos_as_xyz
  1  'x, y, z'
loop_
 _atom_site_type_symbol
 _atom_site_label
 _atom_site_symmetry_multiplicity
 _atom_site_fract_x
 _atom_site_fract_y
 _atom_site_fract_z
 _atom_site_occupancy
  Y  Y0  1  0.31455279  0.31458580  0.82483304  1
  Y  Y1  1  0.30377808  0.30369808  0.35867790  1
  Y  Y2  1  0.69630164  0.69622211  0.64132193  1
  Y  Y3  1  0.68541438  0.68544709  0.17516680  1
  Y  Y4  1  0.00001970  -0.00001939  0.50000003  1
  Re  Re0  1  0.78646210  0.21353786  0.00000014  1
  Re  Re1  1  0.21351938  0.78648063  0.00000007  1
  O  O0  1  0.99926921  0.99899620  0.79329781  1
  O  O1  1  0.49869028  0.49885300  0.17722784  1
  O  O2  1  0.59412355  0.09801668  0.57385522  1
  O  O3  1  0.09801704  0.59414793  0.57383252  1
  O  O4  1  0.08813749  0.58236282  0.08382310  1
  O  O5  1  0.58217386  0.08808151  0.08387328  1
  O  O6  1  0.91191811  0.41782649  0.91612656  1
  O  O7  1  0.41763673  0.91186283  0.91617715  1
  O  O8  1  0.90198323  0.40587657  0.42614488  1
  O  O9  1  0.40585218  0.90198301  0.42616735  1
  O  O10  1  0.50114687  0.50130981  0.82277225  1
  O  O11  1  0.00100339  0.00073098  0.20670212  1
loop_
_geom_bond_atom_site_label_1
_geom_bond_atom_site_label_2
_geom_bond_distance
_geom_bond_site_symmetry_2
O0 Re1 1.965526 1_656
O0 Re0 1.966531 1_566
O0 Y4 2.198636 1_665
O1 Re1 2.088244 1_555
O1 Re0 2.088870 1_555
O1 Y3 2.310999 1_555
O1 Y1 2.383276 1_555
O2 Y2 2.268414 1_545
O2 Y0 2.280808 1_555
O2 Y4 2.305774 1_655
O2 Y1 2.315123 1_555
O3 Y2 2.268203 1_455
O3 Y0 2.280856 1_555
O3 Y4 2.305482 1_565
O3 Y1 2.315372 1_555
O4 Re1 1.957169 1_555
O4 Y3 2.273627 1_455
O4 Y1 2.419112 1_555
O4 Y0 2.467997 1_554
O5 Re0 1.958636 1_555
O5 Y3 2.272625 1_545
O5 Y1 2.418488 1_555
O5 Y0 2.467674 1_554
O6 Re0 1.958636 1_556
O6 Y0 2.272628 1_655
O6 Y2 2.418488 1_555
O6 Y3 2.467672 1_556
O7 Re1 1.957168 1_556
O7 Y0 2.273626 1_565
O7 Y2 2.419114 1_555
O7 Y3 2.467997 1_556
O8 Y1 2.268416 1_655
O8 Y3 2.280810 1_555
O8 Y4 2.305770 1_655
O8 Y2 2.315120 1_555
O9 Y1 2.268200 1_565
O9 Y3 2.280856 1_555
O9 Y4 2.305481 1_565
O9 Y2 2.315371 1_555
O10 Re1 2.088243 1_556
O10 Re0 2.088872 1_556
O10 Y0 2.310999 1_555
O10 Y2 2.383276 1_555
O11 Re1 1.965525 1_545
O11 Re0 1.966528 1_455
O11 Y4 2.198638 1_555
