# generated using pymatgen
data_Y2Se3
_symmetry_space_group_name_H-M   'P 1'
_cell_length_a   14.45399827
_cell_length_b   14.45399827
_cell_length_c   14.45399827
_cell_angle_alpha   144.88107572
_cell_angle_beta   144.88107572
_cell_angle_gamma   50.51178398
_symmetry_Int_Tables_number   1
_chemical_formula_structural   Y2Se3
_chemical_formula_sum   'Y16 Se24'
_cell_volume   994.32274311
_cell_formula_units_Z   8
loop_
 _symmetry_equiv_pos_site_id
 _symmetry_equiv_pos_as_xyz
  1  'x, y, z'
loop_
 _atom_site_type_symbol
 _atom_site_label
 _atom_site_symmetry_multiplicity
 _atom_site_fract_x
 _atom_site_fract_y
 _atom_site_fract_z
 _atom_site_occupancy
  Y  Y0  1  0.58250200  0.08250200  0.50000000  1
  Y  Y1  1  0.87500000  0.50698800  0.13198800  1
  Y  Y2  1  0.57651400  0.46898500  0.62486300  1
  Y  Y3  1  0.16749800  0.16749800  0.00000000  1
  Y  Y4  1  0.84412200  0.95165100  0.37513700  1
  Y  Y5  1  0.37500000  0.74301200  0.86801200  1
  Y  Y6  1  0.53101500  0.15587800  0.10752900  1
  Y  Y7  1  0.25698800  0.12500000  0.63198800  1
  Y  Y8  1  0.83250200  0.83250200  0.00000000  1
  Y  Y9  1  0.04834900  0.42348600  0.89247100  1
  Y  Y10  1  0.49301200  0.62500000  0.36801200  1
  Y  Y11  1  0.91749800  0.41749800  0.50000000  1
  Y  Y12  1  0.21898500  0.82651400  0.12486300  1
  Y  Y13  1  0.90587800  0.78101500  0.60752900  1
  Y  Y14  1  0.70165100  0.09412200  0.87513700  1
  Y  Y15  1  0.17348600  0.29834900  0.39247100  1
  Se  Se0  1  0.24456800  0.99895900  0.11221000  1
  Se  Se1  1  0.67477500  0.78751100  0.25303500  1
  Se  Se2  1  0.88674900  0.13235700  0.88779000  1
  Se  Se3  1  0.86325100  0.25104100  0.74560800  1
  Se  Se4  1  0.50543200  0.11764300  0.25439200  1
  Se  Se5  1  0.53447600  0.42174100  0.74696500  1
  Se  Se6  1  0.90805500  0.65307300  0.09604600  1
  Se  Se7  1  0.21552400  0.46248900  0.38726400  1
  Se  Se8  1  0.34692700  0.44297300  0.25498300  1
  Se  Se9  1  0.55702700  0.81200900  0.90395400  1
  Se  Se10  1  0.07522500  0.82825900  0.61273600  1
  Se  Se11  1  0.53751100  0.92477500  0.75303500  1
  Se  Se12  1  0.17174100  0.78447600  0.24696500  1
  Se  Se13  1  0.18799100  0.09194500  0.74501700  1
  Se  Se14  1  0.57825900  0.32522500  0.11273600  1
  Se  Se15  1  0.88235700  0.13674900  0.38779000  1
  Se  Se16  1  0.00104100  0.11325100  0.24560800  1
  Se  Se17  1  0.21248900  0.46552400  0.88726400  1
  Se  Se18  1  0.74895900  0.49456800  0.61221000  1
  Se  Se19  1  0.19297300  0.59692700  0.75498300  1
  Se  Se20  1  0.84194500  0.43799100  0.24501700  1
  Se  Se21  1  0.86764300  0.75543200  0.75439200  1
  Se  Se22  1  0.56200900  0.80702700  0.40395400  1
  Se  Se23  1  0.40307300  0.15805500  0.59604600  1
loop_
_geom_bond_atom_site_label_1
_geom_bond_atom_site_label_2
_geom_bond_distance
_geom_bond_site_symmetry_2
Se0 Y0 2.893846 1_565
Se0 Y12 2.900245 1_555
Se0 Y15 2.944194 1_565
Se0 Y3 3.140432 1_565
Se0 Y5 3.217552 1_554
Se0 Y13 3.271461 1_454
Se1 Y4 2.864240 1_555
Se1 Y0 2.891000 1_565
Se1 Y5 2.898275 1_554
Se1 Y1 3.103352 1_555
Se1 Y13 3.131970 1_555
Se2 Y0 2.893851 1_555
Se2 Y14 2.900235 1_555
Se2 Y13 2.944186 1_545
Se2 Y3 3.140440 1_656
Se2 Y1 3.217563 1_556
Se2 Y15 3.271457 1_656
Se3 Y3 2.893851 1_656
Se3 Y9 2.900235 1_655
Se3 Y4 2.944186 1_545
Se3 Y0 3.140440 1_555
Se3 Y1 3.217563 1_556
Se3 Y2 3.271457 1_555
Se4 Y3 2.893844 1_555
Se4 Y6 2.900247 1_555
Se4 Y2 2.944185 1_555
Se4 Y0 3.140430 1_555
Se4 Y5 3.217560 1_544
Se4 Y4 3.271466 1_545
Se5 Y2 2.864227 1_555
Se5 Y0 2.891008 1_555
Se5 Y1 2.898276 1_556
Se5 Y5 3.103344 1_555
Se5 Y15 3.131974 1_555
Se6 Y4 2.880590 1_555
Se6 Y1 2.905214 1_555
Se6 Y9 3.001856 1_654
Se6 Y2 3.099673 1_554
Se6 Y8 3.107027 1_555
Se7 Y15 2.864240 1_555
Se7 Y3 2.891000 1_555
Se7 Y1 2.898275 1_455
Se7 Y5 3.103352 1_555
Se7 Y2 3.131970 1_555
Se8 Y9 2.880597 1_554
Se8 Y10 2.905226 1_555
Se8 Y2 3.001844 1_555
Se8 Y6 3.099678 1_555
Se8 Y3 3.107019 1_555
Se9 Y2 2.880590 1_555
Se9 Y5 2.905214 1_555
Se9 Y6 3.001856 1_566
Se9 Y4 3.099673 1_556
Se9 Y8 3.107027 1_556
Se10 Y13 2.864229 1_455
Se10 Y3 2.891006 1_566
Se10 Y5 2.898268 1_555
Se10 Y1 3.103348 1_455
Se10 Y4 3.131981 1_455
Se11 Y14 2.864240 1_565
Se11 Y8 2.891000 1_556
Se11 Y10 2.898275 1_555
Se11 Y7 3.103352 1_565
Se11 Y6 3.131970 1_566
Se12 Y12 2.864227 1_555
Se12 Y8 2.891008 1_455
Se12 Y7 2.898276 1_565
Se12 Y10 3.103344 1_555
Se12 Y9 3.131974 1_554
Se13 Y6 2.880592 1_556
Se13 Y7 2.905200 1_555
Se13 Y4 3.001857 1_445
Se13 Y9 3.099673 1_555
Se13 Y3 3.107041 1_556
Se14 Y6 2.864229 1_555
Se14 Y11 2.891006 1_555
Se14 Y10 2.898268 1_555
Se14 Y7 3.103348 1_554
Se14 Y14 3.131981 1_554
Se15 Y8 2.893851 1_545
Se15 Y4 2.900235 1_545
Se15 Y6 2.944186 1_555
Se15 Y11 3.140440 1_555
Se15 Y7 3.217563 1_655
Se15 Y9 3.271457 1_655
Se16 Y11 2.893851 1_455
Se16 Y15 2.900235 1_555
Se16 Y14 2.944186 1_454
Se16 Y8 3.140440 1_445
Se16 Y7 3.217563 1_555
Se16 Y12 3.271457 1_545
Se17 Y9 2.864240 1_555
Se17 Y11 2.891000 1_455
Se17 Y7 2.898275 1_555
Se17 Y10 3.103352 1_556
Se17 Y12 3.131970 1_556
Se18 Y8 2.893846 1_556
Se18 Y2 2.900245 1_555
Se18 Y9 2.944194 1_655
Se18 Y11 3.140432 1_555
Se18 Y10 3.217552 1_555
Se18 Y6 3.271461 1_555
Se19 Y15 2.880597 1_555
Se19 Y5 2.905226 1_555
Se19 Y12 3.001844 1_556
Se19 Y13 3.099678 1_455
Se19 Y11 3.107019 1_455
Se20 Y13 2.880592 1_555
Se20 Y1 2.905200 1_555
Se20 Y14 3.001857 1_554
Se20 Y15 3.099673 1_655
Se20 Y11 3.107041 1_555
Se21 Y11 2.893844 1_555
Se21 Y13 2.900247 1_555
Se21 Y12 2.944185 1_656
Se21 Y8 3.140430 1_556
Se21 Y10 3.217560 1_555
Se21 Y14 3.271466 1_565
Se22 Y12 2.880590 1_555
Se22 Y10 2.905214 1_555
Se22 Y13 3.001856 1_555
Se22 Y14 3.099673 1_565
Se22 Y0 3.107027 1_565
Se23 Y14 2.880590 1_555
Se23 Y7 2.905214 1_555
Se23 Y15 3.001856 1_555
Se23 Y12 3.099673 1_545
Se23 Y0 3.107027 1_555
