# generated using pymatgen
data_CdAs2C4SN4(OF6)2
_symmetry_space_group_name_H-M   'P 1'
_cell_length_a   8.44603000
_cell_length_b   13.17358900
_cell_length_c   15.02722400
_cell_angle_alpha   90.00000000
_cell_angle_beta   90.00000000
_cell_angle_gamma   90.00000000
_symmetry_Int_Tables_number   1
_chemical_formula_structural   CdAs2C4SN4(OF6)2
_chemical_formula_sum   'Cd4 As8 C16 S4 N16 O8 F48'
_cell_volume   1671.99698403
_cell_formula_units_Z   4
loop_
 _symmetry_equiv_pos_site_id
 _symmetry_equiv_pos_as_xyz
  1  'x, y, z'
loop_
 _atom_site_type_symbol
 _atom_site_label
 _atom_site_symmetry_multiplicity
 _atom_site_fract_x
 _atom_site_fract_y
 _atom_site_fract_z
 _atom_site_occupancy
  Cd  Cd0  1  0.75000000  0.89112600  0.80961200  1
  Cd  Cd1  1  0.75000000  0.60887400  0.30961200  1
  Cd  Cd2  1  0.25000000  0.39112600  0.69038800  1
  Cd  Cd3  1  0.25000000  0.10887400  0.19038800  1
  As  As0  1  0.75000000  0.58852400  0.86368900  1
  As  As1  1  0.25000000  0.08852400  0.63631100  1
  As  As2  1  0.75000000  0.91147600  0.36368900  1
  As  As3  1  0.75000000  0.35998200  0.41512300  1
  As  As4  1  0.25000000  0.85998200  0.08487700  1
  As  As5  1  0.25000000  0.64001800  0.58487700  1
  As  As6  1  0.75000000  0.14001800  0.91512300  1
  As  As7  1  0.25000000  0.41147600  0.13631100  1
  C  C0  1  0.66846000  0.36649800  0.69584700  1
  C  C1  1  0.75000000  0.76494100  0.11098300  1
  C  C2  1  0.16846000  0.63350200  0.30415300  1
  C  C3  1  0.33154000  0.63350200  0.30415300  1
  C  C4  1  0.66846000  0.13350200  0.19584700  1
  C  C5  1  0.33154000  0.86649800  0.80415300  1
  C  C6  1  0.75000000  0.81674900  0.03134400  1
  C  C7  1  0.25000000  0.31674900  0.46865600  1
  C  C8  1  0.75000000  0.73505900  0.61098300  1
  C  C9  1  0.25000000  0.18325100  0.96865600  1
  C  C10  1  0.16846000  0.86649800  0.80415300  1
  C  C11  1  0.83154000  0.36649800  0.69584700  1
  C  C12  1  0.83154000  0.13350200  0.19584700  1
  C  C13  1  0.75000000  0.68325100  0.53134400  1
  C  C14  1  0.25000000  0.23505900  0.88901700  1
  C  C15  1  0.25000000  0.26494100  0.38901700  1
  S  S0  1  0.75000000  0.43602400  0.10677200  1
  S  S1  1  0.25000000  0.93602400  0.39322800  1
  S  S2  1  0.25000000  0.56397600  0.89322800  1
  S  S3  1  0.75000000  0.06397600  0.60677200  1
  N  N0  1  0.96906000  0.12992100  0.19692600  1
  N  N1  1  0.25000000  0.21840900  0.32316800  1
  N  N2  1  0.75000000  0.85663600  0.96230500  1
  N  N3  1  0.75000000  0.71840900  0.17683200  1
  N  N4  1  0.03094000  0.87007900  0.80307400  1
  N  N5  1  0.53094000  0.37007900  0.69692600  1
  N  N6  1  0.46906000  0.87007900  0.80307400  1
  N  N7  1  0.46906000  0.62992100  0.30307400  1
  N  N8  1  0.25000000  0.28159100  0.82316800  1
  N  N9  1  0.25000000  0.35663600  0.53769500  1
  N  N10  1  0.25000000  0.14336400  0.03769500  1
  N  N11  1  0.96906000  0.37007900  0.69692600  1
  N  N12  1  0.53094000  0.12992100  0.19692600  1
  N  N13  1  0.75000000  0.64336400  0.46230500  1
  N  N14  1  0.75000000  0.78159100  0.67683200  1
  N  N15  1  0.03094000  0.62992100  0.30307400  1
  O  O0  1  0.25000000  0.49595600  0.81637900  1
  O  O1  1  0.75000000  0.99595600  0.68362100  1
  O  O2  1  0.25000000  0.67116500  0.87559400  1
  O  O3  1  0.75000000  0.50404400  0.18362100  1
  O  O4  1  0.75000000  0.32883500  0.12440600  1
  O  O5  1  0.25000000  0.82883500  0.37559400  1
  O  O6  1  0.25000000  0.00404400  0.31637900  1
  O  O7  1  0.75000000  0.17116500  0.62440600  1
  F  F0  1  0.10420900  0.31588000  0.15221300  1
  F  F1  1  0.75000000  0.93660100  0.24772500  1
  F  F2  1  0.75000000  0.61388900  0.97993800  1
  F  F3  1  0.89476800  0.44862900  0.37302200  1
  F  F4  1  0.60420900  0.68412000  0.84778700  1
  F  F5  1  0.39476800  0.55137100  0.62697800  1
  F  F6  1  0.89863300  0.00402100  0.37988200  1
  F  F7  1  0.90247000  0.28019700  0.45378700  1
  F  F8  1  0.40247000  0.78019700  0.04621300  1
  F  F9  1  0.25000000  0.38611100  0.02006200  1
  F  F10  1  0.75000000  0.07511000  0.01830600  1
  F  F11  1  0.60523200  0.44862900  0.37302200  1
  F  F12  1  0.75000000  0.88611100  0.47993800  1
  F  F13  1  0.39579100  0.18412000  0.65221300  1
  F  F14  1  0.89579100  0.81588000  0.34778700  1
  F  F15  1  0.60420900  0.81588000  0.34778700  1
  F  F16  1  0.09753000  0.71980300  0.54621300  1
  F  F17  1  0.90247000  0.21980300  0.95378700  1
  F  F18  1  0.60136700  0.00402100  0.37988200  1
  F  F19  1  0.39863300  0.50402100  0.12011800  1
  F  F20  1  0.39863300  0.99597900  0.62011800  1
  F  F21  1  0.10136700  0.50402100  0.12011800  1
  F  F22  1  0.60523200  0.05137100  0.87302200  1
  F  F23  1  0.59753000  0.28019700  0.45378700  1
  F  F24  1  0.10136700  0.99597900  0.62011800  1
  F  F25  1  0.75000000  0.56339900  0.74772500  1
  F  F26  1  0.40247000  0.71980300  0.54621300  1
  F  F27  1  0.25000000  0.06339900  0.75227500  1
  F  F28  1  0.09753000  0.78019700  0.04621300  1
  F  F29  1  0.25000000  0.57511000  0.48169400  1
  F  F30  1  0.10420900  0.18412000  0.65221300  1
  F  F31  1  0.25000000  0.70344500  0.68787000  1
  F  F32  1  0.25000000  0.11388900  0.52006200  1
  F  F33  1  0.75000000  0.20344500  0.81213000  1
  F  F34  1  0.89579100  0.68412000  0.84778700  1
  F  F35  1  0.39476800  0.94862900  0.12697800  1
  F  F36  1  0.25000000  0.92489000  0.98169400  1
  F  F37  1  0.10523200  0.55137100  0.62697800  1
  F  F38  1  0.75000000  0.29655500  0.31213000  1
  F  F39  1  0.10523200  0.94862900  0.12697800  1
  F  F40  1  0.89476800  0.05137100  0.87302200  1
  F  F41  1  0.75000000  0.42489000  0.51830600  1
  F  F42  1  0.60136700  0.49597900  0.87988200  1
  F  F43  1  0.39579100  0.31588000  0.15221300  1
  F  F44  1  0.25000000  0.43660100  0.25227500  1
  F  F45  1  0.25000000  0.79655500  0.18787000  1
  F  F46  1  0.89863300  0.49597900  0.87988200  1
  F  F47  1  0.59753000  0.21980300  0.95378700  1
loop_
_geom_bond_atom_site_label_1
_geom_bond_atom_site_label_2
_geom_bond_distance
_geom_bond_site_symmetry_2
Cd0 N2 2.339104 1_555
Cd0 O1 2.343436 1_555
Cd0 N4 2.390991 1_655
Cd0 N6 2.390991 1_555
Cd0 N14 2.462406 1_555
Cd0 F40 2.619033 1_565
Cd0 F22 2.619033 1_565
Cd1 N13 2.339104 1_555
Cd1 O3 2.343436 1_555
Cd1 N15 2.390991 1_655
Cd1 N7 2.390991 1_555
Cd1 N3 2.462406 1_555
Cd1 F11 2.619033 1_555
Cd1 F3 2.619033 1_555
Cd2 N9 2.339104 1_555
Cd2 O0 2.343436 1_555
Cd2 N11 2.390991 1_455
Cd2 N5 2.390991 1_555
Cd2 N8 2.462406 1_555
Cd2 F5 2.619033 1_555
Cd2 F37 2.619033 1_555
Cd3 N10 2.339104 1_555
Cd3 O6 2.343436 1_555
Cd3 N0 2.390991 1_455
Cd3 N12 2.390991 1_555
Cd3 N1 2.462406 1_555
Cd3 F35 2.619033 1_545
Cd3 F39 2.619033 1_545
As0 F46 1.766767 1_555
As0 F42 1.766767 1_555
As0 F25 1.773772 1_555
As0 F34 1.777437 1_555
As0 F4 1.777437 1_555
As0 F2 1.778571 1_555
As1 F20 1.766767 1_545
As1 F24 1.766767 1_545
As1 F27 1.773772 1_555
As1 F13 1.777437 1_555
As1 F30 1.777437 1_555
As1 F32 1.778571 1_555
As2 F6 1.766767 1_565
As2 F18 1.766767 1_565
As2 F1 1.773772 1_555
As2 F14 1.777437 1_555
As2 F15 1.777437 1_555
As2 F12 1.778571 1_555
As3 F38 1.758845 1_555
As3 F7 1.760862 1_555
As3 F23 1.760862 1_555
As3 F41 1.770696 1_555
As3 F3 1.805283 1_555
As3 F11 1.805283 1_555
As4 F45 1.758845 1_555
As4 F8 1.760862 1_555
As4 F28 1.760862 1_555
As4 F36 1.770696 1_554
As4 F39 1.805283 1_555
As4 F35 1.805283 1_555
As5 F31 1.758845 1_555
As5 F16 1.760862 1_555
As5 F26 1.760862 1_555
As5 F29 1.770696 1_555
As5 F5 1.805283 1_555
As5 F37 1.805283 1_555
As6 F33 1.758845 1_555
As6 F17 1.760862 1_555
As6 F47 1.760862 1_555
As6 F10 1.770696 1_556
As6 F40 1.805283 1_555
As6 F22 1.805283 1_555
As7 F21 1.766767 1_555
As7 F19 1.766767 1_555
As7 F44 1.773772 1_555
As7 F43 1.777437 1_555
As7 F0 1.777437 1_555
As7 F9 1.778571 1_555
C0 N5 1.162569 1_555
C0 C11 1.377379 1_555
C1 N3 1.164013 1_555
C1 C6 1.377687 1_555
C2 N15 1.162569 1_555
C2 C3 1.377379 1_555
C3 N7 1.162569 1_555
C4 N12 1.162569 1_555
C5 N6 1.162569 1_555
C6 N2 1.162943 1_554
C7 N9 1.162943 1_555
C8 N14 1.164013 1_555
C9 N10 1.162943 1_556
C10 N4 1.162569 1_555
C10 C5 1.377379 1_555
C11 N11 1.162569 1_555
C12 N0 1.162569 1_555
C12 C4 1.377379 1_555
C13 N13 1.162943 1_555
C13 C8 1.377687 1_555
C14 N8 1.164013 1_555
C14 C9 1.377687 1_555
C15 N1 1.164013 1_555
C15 C7 1.377687 1_555
O0 S2 1.461699 1_555
O1 S3 1.461699 1_565
O2 S2 1.436713 1_555
O3 S0 1.461699 1_555
O4 S0 1.436713 1_555
O5 S1 1.436713 1_555
O6 S1 1.461699 1_545
O7 S3 1.436713 1_555
