# generated using pymatgen
data_Cs2SbCl6
_symmetry_space_group_name_H-M   'P 1'
_cell_length_a   13.21463497
_cell_length_b   13.21463497
_cell_length_c   13.21463497
_cell_angle_alpha   132.03021446
_cell_angle_beta   132.03021446
_cell_angle_gamma   70.18131063
_symmetry_Int_Tables_number   1
_chemical_formula_structural   Cs2SbCl6
_chemical_formula_sum   'Cs8 Sb4 Cl24'
_cell_volume   1248.01581241
_cell_formula_units_Z   4
loop_
 _symmetry_equiv_pos_site_id
 _symmetry_equiv_pos_as_xyz
  1  'x, y, z'
loop_
 _atom_site_type_symbol
 _atom_site_label
 _atom_site_symmetry_multiplicity
 _atom_site_fract_x
 _atom_site_fract_y
 _atom_site_fract_z
 _atom_site_occupancy
  Cs  Cs0  1  0.65036900  0.62500000  0.52536900  1
  Cs  Cs1  1  0.87500000  0.34963100  0.97463100  1
  Cs  Cs2  1  0.09963100  0.12500000  0.47463100  1
  Cs  Cs3  1  0.37500000  0.90036900  0.02536900  1
  Cs  Cs4  1  0.09963100  0.62500000  0.97463100  1
  Cs  Cs5  1  0.87500000  0.90036900  0.52536900  1
  Cs  Cs6  1  0.37500000  0.34963100  0.47463100  1
  Cs  Cs7  1  0.65036900  0.12500000  0.02536900  1
  Sb  Sb0  1  0.25000000  0.75000000  0.50000000  1
  Sb  Sb1  1  0.50000000  0.50000000  0.00000000  1
  Sb  Sb2  1  0.75000000  0.25000000  0.50000000  1
  Sb  Sb3  1  0.00000000  0.00000000  0.00000000  1
  Cl  Cl0  1  0.12279900  0.12279900  0.00000000  1
  Cl  Cl1  1  0.47658400  0.74907800  0.72750600  1
  Cl  Cl2  1  0.87279900  0.37279900  0.50000000  1
  Cl  Cl3  1  0.00211300  0.25500100  0.74711300  1
  Cl  Cl4  1  0.87720100  0.87720100  0.00000000  1
  Cl  Cl5  1  0.25092200  0.97842800  0.72750600  1
  Cl  Cl6  1  0.27341600  0.50092200  0.77249400  1
  Cl  Cl7  1  0.49907800  0.27157200  0.77249400  1
  Cl  Cl8  1  0.49907800  0.72658400  0.22750600  1
  Cl  Cl9  1  0.50788800  0.25500100  0.25288700  1
  Cl  Cl10  1  0.00500100  0.75788800  0.75288700  1
  Cl  Cl11  1  0.25092200  0.52341600  0.27249400  1
  Cl  Cl12  1  0.13713900  0.63713900  0.50000000  1
  Cl  Cl13  1  0.72842800  0.50092200  0.22750600  1
  Cl  Cl14  1  0.24211200  0.99499900  0.24711300  1
  Cl  Cl15  1  0.74499900  0.99788700  0.25288700  1
  Cl  Cl16  1  0.74788700  0.99499900  0.75288700  1
  Cl  Cl17  1  0.62720100  0.12720100  0.50000000  1
  Cl  Cl18  1  0.38713900  0.38713900  0.00000000  1
  Cl  Cl19  1  0.61286100  0.61286100  0.00000000  1
  Cl  Cl20  1  0.74499900  0.49211200  0.74711300  1
  Cl  Cl21  1  0.02157200  0.74907800  0.27249400  1
  Cl  Cl22  1  0.00500100  0.25211300  0.24711300  1
  Cl  Cl23  1  0.36286100  0.86286100  0.50000000  1
loop_
_geom_bond_atom_site_label_1
_geom_bond_atom_site_label_2
_geom_bond_distance
_geom_bond_site_symmetry_2
Cl0 Sb3 2.655599 1_555
Cl0 Cs6 3.611100 1_555
Cl0 Cs3 3.611100 1_545
Cl0 Cs5 3.611100 1_444
Cl0 Cs1 3.611100 1_454
Cl1 Sb0 2.444266 1_555
Cl1 Cs7 3.859230 1_566
Cl1 Cs0 3.859230 1_555
Cl1 Cs3 4.001297 1_556
Cl1 Cs6 4.001297 1_555
Cl2 Sb2 2.655599 1_555
Cl2 Cs7 3.611100 1_555
Cl2 Cs4 3.611100 1_655
Cl2 Cs2 3.611100 1_655
Cl2 Cs0 3.611100 1_555
Cl3 Sb2 2.657026 1_455
Cl3 Cs1 3.705206 1_455
Cl3 Cs5 3.705213 1_445
Cl3 Cs4 3.742513 1_555
Cl3 Cs2 3.742521 1_555
Cl4 Sb3 2.655599 1_665
Cl4 Cs0 3.611100 1_554
Cl4 Cs2 3.611100 1_665
Cl4 Cs4 3.611100 1_654
Cl4 Cs7 3.611100 1_565
Cl5 Sb0 2.444266 1_555
Cl5 Cs3 3.859230 1_556
Cl5 Cs5 3.859230 1_455
Cl5 Cs2 4.001297 1_565
Cl5 Cs7 4.001297 1_566
Cl6 Sb1 2.444266 1_556
Cl6 Cs2 3.859230 1_555
Cl6 Cs4 3.859230 1_555
Cl6 Cs6 4.001297 1_555
Cl6 Cs3 4.001297 1_556
Cl7 Sb1 2.444266 1_556
Cl7 Cs1 3.859230 1_555
Cl7 Cs6 3.859230 1_555
Cl7 Cs7 4.001297 1_556
Cl7 Cs2 4.001297 1_555
Cl8 Sb1 2.444266 1_555
Cl8 Cs3 3.859230 1_555
Cl8 Cs5 3.859230 1_555
Cl8 Cs4 4.001297 1_554
Cl8 Cs0 4.001297 1_555
Cl9 Sb2 2.657032 1_555
Cl9 Cs3 3.705218 1_545
Cl9 Cs6 3.705218 1_555
Cl9 Cs0 3.742510 1_555
Cl9 Cs7 3.742510 1_555
Cl10 Sb3 2.657032 1_566
Cl10 Cs0 3.705218 1_455
Cl10 Cs4 3.705218 1_555
Cl10 Cs5 3.742510 1_455
Cl10 Cs3 3.742510 1_556
Cl11 Sb0 2.444266 1_555
Cl11 Cs6 3.859230 1_555
Cl11 Cs1 3.859230 1_454
Cl11 Cs0 4.001297 1_555
Cl11 Cs4 4.001297 1_554
Cl12 Sb0 2.440684 1_555
Cl12 Cs5 4.004346 1_455
Cl12 Cs6 4.004346 1_555
Cl12 Cs1 4.004346 1_454
Cl12 Cs3 4.004346 1_556
Cl13 Sb1 2.444266 1_555
Cl13 Cs7 3.859230 1_555
Cl13 Cs0 3.859230 1_555
Cl13 Cs5 4.001297 1_555
Cl13 Cs1 4.001297 1_554
Cl14 Sb3 2.657032 1_565
Cl14 Cs3 3.705218 1_555
Cl14 Cs6 3.705218 1_565
Cl14 Cs4 3.742510 1_554
Cl14 Cs2 3.742510 1_565
Cl15 Sb2 2.657026 1_565
Cl15 Cs7 3.705206 1_565
Cl15 Cs2 3.705213 1_665
Cl15 Cs3 3.742513 1_555
Cl15 Cs5 3.742521 1_555
Cl16 Sb3 2.657026 1_666
Cl16 Cs5 3.705206 1_555
Cl16 Cs1 3.705213 1_565
Cl16 Cs0 3.742513 1_555
Cl16 Cs7 3.742521 1_566
Cl17 Sb2 2.655599 1_555
Cl17 Cs6 3.611100 1_555
Cl17 Cs3 3.611100 1_545
Cl17 Cs1 3.611100 1_555
Cl17 Cs5 3.611100 1_545
Cl18 Sb1 2.440684 1_555
Cl18 Cs4 4.004346 1_554
Cl18 Cs2 4.004346 1_554
Cl18 Cs0 4.004346 1_555
Cl18 Cs7 4.004346 1_555
Cl19 Sb1 2.440684 1_555
Cl19 Cs1 4.004346 1_554
Cl19 Cs3 4.004346 1_555
Cl19 Cs6 4.004346 1_554
Cl19 Cs5 4.004346 1_555
Cl20 Sb2 2.657032 1_555
Cl20 Cs0 3.705218 1_555
Cl20 Cs4 3.705218 1_655
Cl20 Cs6 3.742510 1_555
Cl20 Cs1 3.742510 1_555
Cl21 Sb0 2.444266 1_555
Cl21 Cs2 3.859230 1_565
Cl21 Cs4 3.859230 1_554
Cl21 Cs5 4.001297 1_455
Cl21 Cs1 4.001297 1_454
Cl22 Sb3 2.657026 1_555
Cl22 Cs2 3.705206 1_555
Cl22 Cs7 3.705213 1_455
Cl22 Cs6 3.742513 1_555
Cl22 Cs1 3.742521 1_454
Cl23 Sb0 2.440684 1_555
Cl23 Cs4 4.004346 1_554
Cl23 Cs7 4.004346 1_566
Cl23 Cs0 4.004346 1_555
Cl23 Cs2 4.004346 1_565
