# generated using pymatgen
data_BH6Ru3C6O19F4
_symmetry_space_group_name_H-M   'P 1'
_cell_length_a   6.81564900
_cell_length_b   11.21069000
_cell_length_c   14.50967000
_cell_angle_alpha   90.00000000
_cell_angle_beta   90.00000000
_cell_angle_gamma   90.00000000
_symmetry_Int_Tables_number   1
_chemical_formula_structural   BH6Ru3C6O19F4
_chemical_formula_sum   'B2 H12 Ru6 C12 O38 F8'
_cell_volume   1108.65672387
_cell_formula_units_Z   2
loop_
 _symmetry_equiv_pos_site_id
 _symmetry_equiv_pos_as_xyz
  1  'x, y, z'
loop_
 _atom_site_type_symbol
 _atom_site_label
 _atom_site_symmetry_multiplicity
 _atom_site_fract_x
 _atom_site_fract_y
 _atom_site_fract_z
 _atom_site_occupancy
  B  B0  1  0.10334800  0.50000000  0.28754500  1
  B  B1  1  0.89665200  0.00000000  0.78754500  1
  H  H0  1  0.03802300  0.76357800  0.89559300  1
  H  H1  1  0.03802300  0.23642200  0.89559300  1
  H  H2  1  0.96197700  0.73642200  0.39559300  1
  H  H3  1  0.96197700  0.26357800  0.39559300  1
  H  H4  1  0.32976300  0.75814500  0.73313100  1
  H  H5  1  0.32976300  0.24185500  0.73313100  1
  H  H6  1  0.67023700  0.74185500  0.23313100  1
  H  H7  1  0.67023700  0.25814500  0.23313100  1
  H  H8  1  0.66741000  0.50000000  0.21988400  1
  H  H9  1  0.33259000  0.00000000  0.71988400  1
  H  H10  1  0.99591100  0.50000000  0.03942400  1
  H  H11  1  0.00408900  0.00000000  0.53942400  1
  Ru  Ru0  1  0.71457100  0.50000000  0.78977500  1
  Ru  Ru1  1  0.28542900  0.00000000  0.28977500  1
  Ru  Ru2  1  0.50946700  0.65889900  0.98332400  1
  Ru  Ru3  1  0.50946700  0.34110100  0.98332400  1
  Ru  Ru4  1  0.49053300  0.84110100  0.48332400  1
  Ru  Ru5  1  0.49053300  0.15889900  0.48332400  1
  C  C0  1  0.90936600  0.70453600  0.89476300  1
  C  C1  1  0.90936600  0.29546400  0.89476300  1
  C  C2  1  0.09063400  0.79546400  0.39476300  1
  C  C3  1  0.09063400  0.20453600  0.39476300  1
  C  C4  1  0.41713200  0.70261500  0.78026900  1
  C  C5  1  0.41713200  0.29738500  0.78026900  1
  C  C6  1  0.58286800  0.79738500  0.28026900  1
  C  C7  1  0.58286800  0.20261500  0.28026900  1
  C  C8  1  0.62887200  0.50000000  0.14620200  1
  C  C9  1  0.37112800  0.00000000  0.64620200  1
  C  C10  1  0.15324200  0.50000000  0.02213700  1
  C  C11  1  0.84675800  0.00000000  0.52213700  1
  O  O0  1  0.57588400  0.50000000  0.92291900  1
  O  O1  1  0.42411600  0.00000000  0.42291900  1
  O  O2  1  0.91027000  0.62557200  0.83210600  1
  O  O3  1  0.91027000  0.37442800  0.83210600  1
  O  O4  1  0.08973000  0.87442800  0.33210600  1
  O  O5  1  0.08973000  0.12557200  0.33210600  1
  O  O6  1  0.52240900  0.62406700  0.74206000  1
  O  O7  1  0.52240900  0.37593300  0.74206000  1
  O  O8  1  0.47759100  0.87593300  0.24206000  1
  O  O9  1  0.47759100  0.12406700  0.24206000  1
  O  O10  1  0.78414000  0.72224500  0.95782000  1
  O  O11  1  0.78414000  0.27775500  0.95782000  1
  O  O12  1  0.21586000  0.77775500  0.45782000  1
  O  O13  1  0.21586000  0.22224500  0.45782000  1
  O  O14  1  0.39404300  0.72527400  0.86511100  1
  O  O15  1  0.39404300  0.27472600  0.86511100  1
  O  O16  1  0.60595700  0.77472600  0.36511100  1
  O  O17  1  0.60595700  0.22527400  0.36511100  1
  O  O18  1  0.61201400  0.60206800  0.10957600  1
  O  O19  1  0.61201400  0.39793200  0.10957600  1
  O  O20  1  0.38798600  0.89793200  0.60957600  1
  O  O21  1  0.38798600  0.10206800  0.60957600  1
  O  O22  1  0.22908500  0.60218700  0.01238800  1
  O  O23  1  0.22908500  0.39781300  0.01238800  1
  O  O24  1  0.77091500  0.89781300  0.51238800  1
  O  O25  1  0.77091500  0.10218700  0.51238800  1
  O  O26  1  0.83320000  0.50000000  0.68574700  1
  O  O27  1  0.16680000  0.00000000  0.18574700  1
  O  O28  1  0.44970700  0.79017700  0.03650700  1
  O  O29  1  0.44970700  0.20982300  0.03650700  1
  O  O30  1  0.55029300  0.70982300  0.53650700  1
  O  O31  1  0.55029300  0.29017700  0.53650700  1
  O  O32  1  0.59316800  0.50000000  0.43896800  1
  O  O33  1  0.40683200  0.00000000  0.93896800  1
  O  O34  1  0.00730700  0.69852200  0.62964800  1
  O  O35  1  0.00730700  0.30147800  0.62964800  1
  O  O36  1  0.99269300  0.80147800  0.12964800  1
  O  O37  1  0.99269300  0.19852200  0.12964800  1
  F  F0  1  0.06883900  0.60358600  0.23314200  1
  F  F1  1  0.06883900  0.39641400  0.23314200  1
  F  F2  1  0.93116100  0.89641400  0.73314200  1
  F  F3  1  0.93116100  0.10358600  0.73314200  1
  F  F4  1  0.97386700  0.50000000  0.36405800  1
  F  F5  1  0.02613300  0.00000000  0.86405800  1
  F  F6  1  0.30121200  0.50000000  0.31786800  1
  F  F7  1  0.69878800  0.00000000  0.81786800  1
loop_
_geom_bond_atom_site_label_1
_geom_bond_atom_site_label_2
_geom_bond_distance
_geom_bond_site_symmetry_2
B0 F4 1.418202 1_455
B0 F6 1.418529 1_555
B0 F0 1.423718 1_555
B0 F1 1.423718 1_555
B1 F5 1.418202 1_655
B1 F7 1.418529 1_555
B1 F2 1.423718 1_545
B1 F3 1.423718 1_555
C0 H0 1.098717 1_655
C0 O10 1.266878 1_555
C0 O2 1.268941 1_555
C1 H1 1.098717 1_655
C1 O11 1.266878 1_555
C1 O3 1.268941 1_555
C2 H2 1.098717 1_455
C2 O12 1.266878 1_555
C2 O4 1.268941 1_555
C3 H3 1.098717 1_455
C3 O13 1.266878 1_555
C3 O5 1.268941 1_555
C4 H4 1.099969 1_555
C4 O6 1.263973 1_555
C4 O14 1.266778 1_555
C5 H5 1.099969 1_555
C5 O7 1.263973 1_555
C5 O15 1.266778 1_555
C6 H6 1.099969 1_555
C6 O8 1.263973 1_555
C6 O16 1.266778 1_555
C7 H7 1.099969 1_555
C7 O9 1.263973 1_555
C7 O17 1.266778 1_555
C8 H8 1.100895 1_555
C8 O19 1.266860 1_555
C8 O18 1.266860 1_555
C9 H9 1.100895 1_555
C9 O21 1.266860 1_555
C9 O20 1.266860 1_545
C10 H10 1.101258 1_455
C10 O23 1.264747 1_555
C10 O22 1.264747 1_555
C11 H11 1.101258 1_655
C11 O25 1.264747 1_555
C11 O24 1.264747 1_545
O0 Ru3 2.036261 1_555
O0 Ru2 2.036261 1_555
O0 Ru0 2.150727 1_555
O1 Ru5 2.036261 1_555
O1 Ru4 2.036261 1_545
O1 Ru1 2.150727 1_555
O2 Ru0 2.034226 1_555
O3 Ru0 2.034226 1_555
O4 Ru1 2.034226 1_565
O5 Ru1 2.034226 1_555
O6 Ru0 2.032042 1_555
O7 Ru0 2.032042 1_555
O8 Ru1 2.032042 1_565
O9 Ru1 2.032042 1_555
O10 Ru2 2.036153 1_555
O11 Ru3 2.036153 1_555
O12 Ru4 2.036153 1_555
O13 Ru5 2.036153 1_555
O14 Ru2 2.028447 1_555
O15 Ru3 2.028447 1_555
O16 Ru4 2.028447 1_555
O17 Ru5 2.028447 1_555
O18 Ru2 2.061595 1_554
O19 Ru3 2.061595 1_554
O20 Ru4 2.061595 1_555
O21 Ru5 2.061595 1_555
O22 Ru2 2.057649 1_554
O23 Ru3 2.057649 1_554
O24 Ru4 2.057649 1_555
O25 Ru5 2.057649 1_555
O26 Ru0 1.712323 1_555
O27 Ru1 1.712323 1_555
O28 Ru2 1.710941 1_554
O29 Ru3 1.710941 1_554
O30 Ru4 1.710941 1_555
O31 Ru5 1.710941 1_555
