# generated using pymatgen
data_Cd(C2N3)2
_symmetry_space_group_name_H-M   'P 1'
_cell_length_a   7.62051600
_cell_length_b   6.36979000
_cell_length_c   9.84877283
_cell_angle_alpha   52.39027843
_cell_angle_beta   90.00000000
_cell_angle_gamma   90.00000000
_symmetry_Int_Tables_number   1
_chemical_formula_structural   Cd(C2N3)2
_chemical_formula_sum   'Cd2 C8 N12'
_cell_volume   378.72051875
_cell_formula_units_Z   2
loop_
 _symmetry_equiv_pos_site_id
 _symmetry_equiv_pos_as_xyz
  1  'x, y, z'
loop_
 _atom_site_type_symbol
 _atom_site_label
 _atom_site_symmetry_multiplicity
 _atom_site_fract_x
 _atom_site_fract_y
 _atom_site_fract_z
 _atom_site_occupancy
  Cd  Cd0  1  0.00000000  0.00000000  0.00000000  1
  Cd  Cd1  1  0.50000000  0.00000000  0.50000000  1
  C  C0  1  0.85525000  0.38977800  0.34020600  1
  C  C1  1  0.36624700  0.90301100  0.86832900  1
  C  C2  1  0.63375300  0.09698900  0.13167100  1
  C  C3  1  0.14475000  0.61022200  0.65979400  1
  C  C4  1  0.35525000  0.61022200  0.15979400  1
  C  C5  1  0.64475000  0.38977800  0.84020600  1
  C  C6  1  0.13375300  0.90301100  0.36832900  1
  C  C7  1  0.86624700  0.09698900  0.63167100  1
  N  N0  1  0.58819000  0.01306300  0.26998800  1
  N  N1  1  0.69646400  0.17059000  0.98492400  1
  N  N2  1  0.08819000  0.98693700  0.23001200  1
  N  N3  1  0.39157300  0.41852800  0.29688800  1
  N  N4  1  0.91181000  0.01306300  0.76998800  1
  N  N5  1  0.41181000  0.98693700  0.73001200  1
  N  N6  1  0.80353600  0.17059000  0.48492400  1
  N  N7  1  0.10842700  0.41852800  0.79688800  1
  N  N8  1  0.89157300  0.58147200  0.20311200  1
  N  N9  1  0.60842700  0.58147200  0.70311200  1
  N  N10  1  0.19646400  0.82941000  0.51507600  1
  N  N11  1  0.30353600  0.82941000  0.01507600  1
loop_
_geom_bond_atom_site_label_1
_geom_bond_atom_site_label_2
_geom_bond_distance
_geom_bond_site_symmetry_2
Cd0 N7 2.298341 1_554
Cd0 N8 2.298341 1_445
Cd0 N2 2.315223 1_545
Cd0 N4 2.315223 1_454
Cd0 N1 2.521171 1_454
Cd0 N11 2.521171 1_545
Cd1 N3 2.298341 1_555
Cd1 N9 2.298341 1_545
Cd1 N5 2.315223 1_545
Cd1 N0 2.315223 1_555
Cd1 N6 2.521171 1_555
Cd1 N10 2.521171 1_545
C0 N8 1.174028 1_555
C0 N6 1.306605 1_555
C1 N5 1.171839 1_555
C1 N11 1.307661 1_556
C2 N0 1.171839 1_555
C2 N1 1.307661 1_554
C3 N7 1.174028 1_555
C3 N10 1.306605 1_555
C4 N3 1.174028 1_555
C4 N11 1.306605 1_555
C5 N9 1.174028 1_555
C5 N1 1.306605 1_555
C6 N2 1.171839 1_555
C6 N10 1.307661 1_555
C7 N4 1.171839 1_555
C7 N6 1.307661 1_555
