# generated using pymatgen
data_BaNd2Ti3O10
_symmetry_space_group_name_H-M   'P 1'
_cell_length_a   14.38031104
_cell_length_b   14.38031104
_cell_length_c   7.69400400
_cell_angle_alpha   90.00000000
_cell_angle_beta   90.00000000
_cell_angle_gamma   164.30055086
_symmetry_Int_Tables_number   1
_chemical_formula_structural   BaNd2Ti3O10
_chemical_formula_sum   'Ba2 Nd4 Ti6 O20'
_cell_volume   430.52920783
_cell_formula_units_Z   2
loop_
 _symmetry_equiv_pos_site_id
 _symmetry_equiv_pos_as_xyz
  1  'x, y, z'
loop_
 _atom_site_type_symbol
 _atom_site_label
 _atom_site_symmetry_multiplicity
 _atom_site_fract_x
 _atom_site_fract_y
 _atom_site_fract_z
 _atom_site_occupancy
  Ba  Ba0  1  0.25702100  0.74297900  0.75000000  1
  Ba  Ba1  1  0.74297900  0.25702100  0.25000000  1
  Nd  Nd0  1  0.41980300  0.58019700  0.25000000  1
  Nd  Nd1  1  0.58019700  0.41980300  0.75000000  1
  Nd  Nd2  1  0.42728400  0.57271600  0.75000000  1
  Nd  Nd3  1  0.57271600  0.42728400  0.25000000  1
  Ti  Ti0  1  0.14579400  0.85420600  0.49493900  1
  Ti  Ti1  1  0.85420600  0.14579400  0.50506100  1
  Ti  Ti2  1  0.85420600  0.14579400  0.99493900  1
  Ti  Ti3  1  0.14579400  0.85420600  0.00506100  1
  Ti  Ti4  1  0.00000000  0.00000000  0.50000000  1
  Ti  Ti5  1  0.00000000  0.00000000  0.00000000  1
  O  O0  1  0.63043000  0.36957000  0.49263500  1
  O  O1  1  0.36957000  0.63043000  0.50736500  1
  O  O2  1  0.36957000  0.63043000  0.99263500  1
  O  O3  1  0.63043000  0.36957000  0.00736500  1
  O  O4  1  0.20693500  0.79306500  0.45279900  1
  O  O5  1  0.79306500  0.20693500  0.54720100  1
  O  O6  1  0.79306500  0.20693500  0.95279900  1
  O  O7  1  0.20693500  0.79306500  0.04720100  1
  O  O8  1  0.06638100  0.93361900  0.55548200  1
  O  O9  1  0.93361900  0.06638100  0.44451800  1
  O  O10  1  0.93361900  0.06638100  0.05548200  1
  O  O11  1  0.06638100  0.93361900  0.94451800  1
  O  O12  1  0.50000000  0.50000000  0.00000000  1
  O  O13  1  0.50000000  0.50000000  0.50000000  1
  O  O14  1  0.98240700  0.01759300  0.75000000  1
  O  O15  1  0.01759300  0.98240700  0.25000000  1
  O  O16  1  0.87767900  0.12232100  0.75000000  1
  O  O17  1  0.12232100  0.87767900  0.25000000  1
  O  O18  1  0.14680100  0.85319900  0.75000000  1
  O  O19  1  0.85319900  0.14680100  0.25000000  1
loop_
_geom_bond_atom_site_label_1
_geom_bond_atom_site_label_2
_geom_bond_distance
_geom_bond_site_symmetry_2
Ba0 O4 2.695401 1_555
Ba0 O7 2.695401 1_556
Ba0 O5 2.710447 1_565
Ba0 O6 2.710447 1_565
Ba0 O5 2.710447 1_455
Ba0 O6 2.710447 1_455
Ba0 O18 3.140292 1_555
Ba1 O5 2.695401 1_555
Ba1 O6 2.695401 1_554
Ba1 O4 2.710447 1_655
Ba1 O7 2.710447 1_655
Ba1 O4 2.710447 1_545
Ba1 O7 2.710447 1_545
Ba1 O19 3.140292 1_555
Nd0 O1 2.443232 1_555
Nd0 O2 2.443232 1_554
Nd0 O10 2.500421 1_455
Nd0 O10 2.500421 1_565
Nd0 O9 2.500421 1_455
Nd0 O9 2.500421 1_565
Nd0 O19 2.730980 1_455
Nd0 O19 2.730980 1_565
Nd0 O12 2.986744 1_555
Nd0 O13 2.986744 1_555
Nd1 O0 2.443232 1_555
Nd1 O3 2.443232 1_556
Nd1 O11 2.500421 1_545
Nd1 O8 2.500421 1_545
Nd1 O11 2.500421 1_655
Nd1 O8 2.500421 1_655
Nd1 O18 2.730980 1_545
Nd1 O18 2.730980 1_655
Nd1 O12 2.986744 1_556
Nd1 O13 2.986744 1_555
Nd2 O16 2.419649 1_565
Nd2 O16 2.419649 1_455
Nd2 O1 2.487753 1_555
Nd2 O2 2.487753 1_555
Nd2 O14 2.514717 1_565
Nd2 O14 2.514717 1_455
Nd2 O13 2.827021 1_555
Nd2 O12 2.827021 1_556
Nd2 O9 3.068247 1_455
Nd2 O9 3.068247 1_565
Nd2 O10 3.068247 1_456
Nd2 O10 3.068247 1_566
Nd3 O17 2.419649 1_655
Nd3 O17 2.419649 1_545
Nd3 O3 2.487753 1_555
Nd3 O0 2.487753 1_555
Nd3 O15 2.514717 1_655
Nd3 O15 2.514717 1_545
Nd3 O13 2.827021 1_555
Nd3 O12 2.827021 1_555
Nd3 O8 3.068247 1_655
Nd3 O11 3.068247 1_544
Nd3 O11 3.068247 1_654
Nd3 O8 3.068247 1_545
O0 Ti0 2.012265 1_545
O0 Ti0 2.012265 1_655
O1 Ti1 2.012265 1_455
O1 Ti1 2.012265 1_565
O2 Ti2 2.012265 1_455
O2 Ti2 2.012265 1_565
O3 Ti3 2.012265 1_545
O3 Ti3 2.012265 1_655
O4 Ti0 1.771892 1_555
O5 Ti1 1.771892 1_555
O6 Ti2 1.771892 1_555
O7 Ti3 1.771892 1_555
O8 Ti4 1.938846 1_565
O8 Ti0 2.310020 1_555
O9 Ti4 1.938846 1_655
O9 Ti1 2.310020 1_555
O10 Ti5 1.938846 1_655
O10 Ti2 2.310020 1_554
O11 Ti5 1.938846 1_566
O11 Ti3 2.310020 1_556
O12 Ti5 1.963996 1_665
O12 Ti5 1.963996 1_555
O13 Ti4 1.963996 1_665
O13 Ti4 1.963996 1_555
O14 Ti4 1.987738 1_655
O14 Ti5 1.987738 1_656
O15 Ti4 1.987738 1_565
O15 Ti5 1.987738 1_565
O16 Ti2 1.999707 1_555
O16 Ti1 1.999707 1_555
O17 Ti3 1.999707 1_555
O17 Ti0 1.999707 1_555
O18 Ti0 1.962650 1_555
O18 Ti3 1.962650 1_556
O19 Ti1 1.962650 1_555
O19 Ti2 1.962650 1_554
