# generated using pymatgen
data_MnTeC5O6F5
_symmetry_space_group_name_H-M   'P 1'
_cell_length_a   7.79429300
_cell_length_b   12.63115300
_cell_length_c   12.73005900
_cell_angle_alpha   90.00000000
_cell_angle_beta   90.00000000
_cell_angle_gamma   90.00000000
_symmetry_Int_Tables_number   1
_chemical_formula_structural   MnTeC5O6F5
_chemical_formula_sum   'Mn4 Te4 C20 O24 F20'
_cell_volume   1253.28585993
_cell_formula_units_Z   4
loop_
 _symmetry_equiv_pos_site_id
 _symmetry_equiv_pos_as_xyz
  1  'x, y, z'
loop_
 _atom_site_type_symbol
 _atom_site_label
 _atom_site_symmetry_multiplicity
 _atom_site_fract_x
 _atom_site_fract_y
 _atom_site_fract_z
 _atom_site_occupancy
  Mn  Mn0  1  0.48264000  0.36397400  0.82236400  1
  Mn  Mn1  1  0.01736000  0.86397400  0.82236400  1
  Mn  Mn2  1  0.51736000  0.63602600  0.32236400  1
  Mn  Mn3  1  0.98264000  0.13602600  0.32236400  1
  Te  Te0  1  0.86499600  0.57137200  0.50119400  1
  Te  Te1  1  0.13500400  0.42862800  0.00119400  1
  Te  Te2  1  0.36499600  0.92862800  0.00119400  1
  Te  Te3  1  0.63500400  0.07137200  0.50119400  1
  C  C0  1  0.91875400  0.99783500  0.84968100  1
  C  C1  1  0.08124600  0.00216500  0.34968100  1
  C  C2  1  0.13815100  0.73673200  0.79598700  1
  C  C3  1  0.31640300  0.68265700  0.26052700  1
  C  C4  1  0.89883700  0.08423800  0.19261100  1
  C  C5  1  0.43447200  0.68890200  0.45155700  1
  C  C6  1  0.81640300  0.81734300  0.76052700  1
  C  C7  1  0.86184900  0.26326800  0.29598700  1
  C  C8  1  0.39883700  0.41576200  0.69261100  1
  C  C9  1  0.18359700  0.18265700  0.26052700  1
  C  C10  1  0.06552800  0.18890200  0.45155700  1
  C  C11  1  0.63815100  0.76326800  0.29598700  1
  C  C12  1  0.60116300  0.58423800  0.19261100  1
  C  C13  1  0.36184900  0.23673200  0.79598700  1
  C  C14  1  0.58124600  0.49783500  0.84968100  1
  C  C15  1  0.10116300  0.91576200  0.69261100  1
  C  C16  1  0.56552800  0.31109800  0.95155700  1
  C  C17  1  0.68359700  0.31734300  0.76052700  1
  C  C18  1  0.41875400  0.50216500  0.34968100  1
  C  C19  1  0.93447200  0.81109800  0.95155700  1
  O  O0  1  0.12334000  0.22305300  0.52752100  1
  O  O1  1  0.28098700  0.16295600  0.77786300  1
  O  O2  1  0.21901300  0.66295600  0.77786300  1
  O  O3  1  0.31243100  0.20992200  0.22491400  1
  O  O4  1  0.68756900  0.79007800  0.72491400  1
  O  O5  1  0.37666000  0.72305300  0.52752100  1
  O  O6  1  0.25355800  0.42949000  0.87620600  1
  O  O7  1  0.86366700  0.08069700  0.86562700  1
  O  O8  1  0.78098700  0.33704400  0.27786300  1
  O  O9  1  0.34372000  0.44735600  0.61497000  1
  O  O10  1  0.71901300  0.83704400  0.27786300  1
  O  O11  1  0.84372000  0.05264400  0.11497000  1
  O  O12  1  0.62334000  0.27694700  0.02752100  1
  O  O13  1  0.24644200  0.92949000  0.87620600  1
  O  O14  1  0.15628000  0.94735600  0.61497000  1
  O  O15  1  0.36366700  0.41930300  0.36562700  1
  O  O16  1  0.63633300  0.58069700  0.86562700  1
  O  O17  1  0.74644200  0.57051000  0.37620600  1
  O  O18  1  0.13633300  0.91930300  0.36562700  1
  O  O19  1  0.75355800  0.07051000  0.37620600  1
  O  O20  1  0.87666000  0.77694700  0.02752100  1
  O  O21  1  0.65628000  0.55264400  0.11497000  1
  O  O22  1  0.81243100  0.29007800  0.72491400  1
  O  O23  1  0.18756900  0.70992200  0.22491400  1
  F  F0  1  0.49344200  0.93339100  0.12778600  1
  F  F1  1  0.50655800  0.06660900  0.62778600  1
  F  F2  1  0.33134400  0.43718800  0.09183100  1
  F  F3  1  0.41903800  0.08070900  0.43185100  1
  F  F4  1  0.16865600  0.93718800  0.09183100  1
  F  F5  1  0.08096200  0.58070900  0.43185100  1
  F  F6  1  0.91903800  0.41929100  0.93185100  1
  F  F7  1  0.86715300  0.72185700  0.51876100  1
  F  F8  1  0.38815700  0.07853700  0.00154800  1
  F  F9  1  0.13284700  0.27814300  0.01876100  1
  F  F10  1  0.88815700  0.42146300  0.50154800  1
  F  F11  1  0.66865600  0.56281200  0.59183100  1
  F  F12  1  0.58096200  0.91929100  0.93185100  1
  F  F13  1  0.61184300  0.92146300  0.50154800  1
  F  F14  1  0.83134400  0.06281200  0.59183100  1
  F  F15  1  0.00655800  0.43339100  0.12778600  1
  F  F16  1  0.11184300  0.57853700  0.00154800  1
  F  F17  1  0.63284700  0.22185700  0.51876100  1
  F  F18  1  0.36715300  0.77814300  0.01876100  1
  F  F19  1  0.99344200  0.56660900  0.62778600  1
loop_
_geom_bond_atom_site_label_1
_geom_bond_atom_site_label_2
_geom_bond_distance
_geom_bond_site_symmetry_2
Mn0 O6 2.083925 1_555
Mn1 O13 2.083925 1_555
Mn2 O17 2.083925 1_555
Mn3 O19 2.083925 1_555
C0 O7 1.149357 1_565
C0 Mn1 1.889573 1_655
C1 O18 1.149357 1_545
C1 Mn3 1.889573 1_455
C2 O2 1.148414 1_555
C2 Mn1 1.892688 1_555
C3 O23 1.154336 1_555
C3 Mn2 1.849309 1_555
C4 O11 1.149215 1_555
C4 Mn3 1.892848 1_555
C5 O5 1.150765 1_555
C5 Mn2 1.888989 1_555
C6 O4 1.154336 1_555
C6 Mn1 1.849309 1_655
C7 O8 1.148414 1_555
C7 Mn3 1.892688 1_555
C8 O9 1.149215 1_555
C8 Mn0 1.892848 1_555
C9 O3 1.154336 1_555
C9 Mn3 1.849309 1_455
C10 O0 1.150765 1_555
C10 Mn3 1.888989 1_455
C11 O10 1.148414 1_555
C11 Mn2 1.892688 1_555
C12 O21 1.149215 1_555
C12 Mn2 1.892848 1_555
C13 O1 1.148414 1_555
C13 Mn0 1.892688 1_555
C14 O16 1.149357 1_555
C14 Mn0 1.889573 1_555
C15 O14 1.149215 1_555
C15 Mn1 1.892848 1_555
C16 O12 1.150765 1_556
C16 Mn0 1.888989 1_555
C17 O22 1.154336 1_555
C17 Mn0 1.849309 1_555
C18 O15 1.149357 1_555
C18 Mn2 1.889573 1_555
C19 O20 1.150765 1_556
C19 Mn1 1.888989 1_655
O6 Te1 1.839998 1_556
O13 Te2 1.839998 1_556
O17 Te0 1.839998 1_555
O19 Te3 1.839998 1_555
F0 Te2 1.898136 1_555
F1 Te3 1.898136 1_555
F2 Te1 1.919607 1_555
F3 Te3 1.904376 1_555
F4 Te2 1.919607 1_555
F5 Te0 1.904376 1_455
F6 Te1 1.904376 1_656
F7 Te0 1.913983 1_555
F8 Te2 1.902115 1_545
F9 Te1 1.913983 1_555
F10 Te0 1.902115 1_555
F11 Te0 1.919607 1_555
F12 Te2 1.904376 1_556
F13 Te3 1.902115 1_565
F14 Te3 1.919607 1_555
F15 Te1 1.898136 1_555
F16 Te1 1.902115 1_555
F17 Te3 1.913983 1_555
F18 Te2 1.913983 1_555
F19 Te0 1.898136 1_555
