# generated using pymatgen
data_Te4As2S5(OF6)2
_symmetry_space_group_name_H-M   'P 1'
_cell_length_a   15.62912500
_cell_length_b   10.92354300
_cell_length_c   13.25940084
_cell_angle_alpha   72.06198632
_cell_angle_beta   90.00000000
_cell_angle_gamma   90.00000000
_symmetry_Int_Tables_number   1
_chemical_formula_structural   Te4As2S5(OF6)2
_chemical_formula_sum   'Te16 As8 S20 O8 F48'
_cell_volume   2153.67811263
_cell_formula_units_Z   4
loop_
 _symmetry_equiv_pos_site_id
 _symmetry_equiv_pos_as_xyz
  1  'x, y, z'
loop_
 _atom_site_type_symbol
 _atom_site_label
 _atom_site_symmetry_multiplicity
 _atom_site_fract_x
 _atom_site_fract_y
 _atom_site_fract_z
 _atom_site_occupancy
  Te  Te0  1  0.40755900  0.75623100  0.25691700  1
  Te  Te1  1  0.90755900  0.24376900  0.24308300  1
  Te  Te2  1  0.03036800  0.07871500  0.14223600  1
  Te  Te3  1  0.59244100  0.24376900  0.74308300  1
  Te  Te4  1  0.46963200  0.07871500  0.64223600  1
  Te  Te5  1  0.09244100  0.75623100  0.75691700  1
  Te  Te6  1  0.62491300  0.59232100  0.36384800  1
  Te  Te7  1  0.62659900  0.83685300  0.11755300  1
  Te  Te8  1  0.87508700  0.59232100  0.86384800  1
  Te  Te9  1  0.37340100  0.16314700  0.88244700  1
  Te  Te10  1  0.96963200  0.92128500  0.85776400  1
  Te  Te11  1  0.37508700  0.40767900  0.63615200  1
  Te  Te12  1  0.87340100  0.83685300  0.61755300  1
  Te  Te13  1  0.12491300  0.40767900  0.13615200  1
  Te  Te14  1  0.53036800  0.92128500  0.35776400  1
  Te  Te15  1  0.12659900  0.16314700  0.38244700  1
  As  As0  1  0.38727000  0.25215300  0.19281100  1
  As  As1  1  0.80162200  0.18486100  0.94676700  1
  As  As2  1  0.69837800  0.18486100  0.44676700  1
  As  As3  1  0.88727000  0.74784700  0.30718900  1
  As  As4  1  0.30162200  0.81513900  0.55323300  1
  As  As5  1  0.61273000  0.74784700  0.80718900  1
  As  As6  1  0.19837800  0.81513900  0.05323300  1
  As  As7  1  0.11273000  0.25215300  0.69281100  1
  S  S0  1  0.10975200  0.26185100  0.03397800  1
  S  S1  1  0.02376200  0.82375800  0.58557400  1
  S  S2  1  0.47407500  0.55444400  0.35000600  1
  S  S3  1  0.89024800  0.73814900  0.96602200  1
  S  S4  1  0.97623800  0.17624200  0.41442600  1
  S  S5  1  0.97407600  0.44555600  0.14999400  1
  S  S6  1  0.16775200  0.56041900  0.40057700  1
  S  S7  1  0.39024800  0.26185100  0.53397800  1
  S  S8  1  0.52592500  0.44555600  0.64999400  1
  S  S9  1  0.66775200  0.43958100  0.09942300  1
  S  S10  1  0.60975200  0.73814900  0.46602200  1
  S  S11  1  0.47623800  0.82375800  0.08557400  1
  S  S12  1  0.33224800  0.56041900  0.90057700  1
  S  S13  1  0.02592500  0.55444400  0.85000600  1
  S  S14  1  0.88318300  0.00314100  0.70186400  1
  S  S15  1  0.83224800  0.43958100  0.59942300  1
  S  S16  1  0.61681700  0.00314100  0.20186400  1
  S  S17  1  0.11681700  0.99685900  0.29813600  1
  S  S18  1  0.38318300  0.99685900  0.79813600  1
  S  S19  1  0.52376200  0.17624200  0.91442600  1
  O  O0  1  0.26002700  0.54047900  0.40643900  1
  O  O1  1  0.23997300  0.54047900  0.90643900  1
  O  O2  1  0.73997300  0.45952100  0.59356100  1
  O  O3  1  0.11881800  0.48418900  0.34744800  1
  O  O4  1  0.76002700  0.45952100  0.09356100  1
  O  O5  1  0.38118200  0.48418900  0.84744800  1
  O  O6  1  0.61881800  0.51581100  0.15255200  1
  O  O7  1  0.88118200  0.51581100  0.65255200  1
  F  F0  1  0.05036500  0.22559600  0.80896600  1
  F  F1  1  0.71802900  0.08204300  0.93115000  1
  F  F2  1  0.82288600  0.72633500  0.42312000  1
  F  F3  1  0.87225600  0.04948700  0.98918300  1
  F  F4  1  0.12374100  0.41774400  0.67816200  1
  F  F5  1  0.72879500  0.15773600  0.58111100  1
  F  F6  1  0.33328800  0.78954100  0.68682900  1
  F  F7  1  0.78197100  0.08204300  0.43115000  1
  F  F8  1  0.28197100  0.91795700  0.06885000  1
  F  F9  1  0.62774400  0.04948700  0.48918300  1
  F  F10  1  0.51967000  0.71746100  0.88684200  1
  F  F11  1  0.79195400  0.77989900  0.22823700  1
  F  F12  1  0.21802900  0.91795700  0.56885000  1
  F  F13  1  0.87625900  0.58225600  0.32183800  1
  F  F14  1  0.94963500  0.77440400  0.19103400  1
  F  F15  1  0.55036500  0.77440400  0.69103400  1
  F  F16  1  0.29195400  0.22010100  0.27176300  1
  F  F17  1  0.98033000  0.71746100  0.38684200  1
  F  F18  1  0.62374100  0.58225600  0.82183800  1
  F  F19  1  0.39513100  0.08371300  0.20683300  1
  F  F20  1  0.76796800  0.31957300  0.40478300  1
  F  F21  1  0.16671200  0.78954100  0.18682900  1
  F  F22  1  0.67711400  0.72633500  0.92312000  1
  F  F23  1  0.66671200  0.21045900  0.31317100  1
  F  F24  1  0.20804600  0.22010100  0.77176300  1
  F  F25  1  0.37625900  0.41774400  0.17816200  1
  F  F26  1  0.37225600  0.95051300  0.51081700  1
  F  F27  1  0.12774400  0.95051300  0.01081700  1
  F  F28  1  0.77120500  0.15773600  0.08111100  1
  F  F29  1  0.11347000  0.71503300  0.03563100  1
  F  F30  1  0.01967000  0.28253900  0.61315800  1
  F  F31  1  0.61347000  0.28496700  0.46436900  1
  F  F32  1  0.88653000  0.28496700  0.96436900  1
  F  F33  1  0.22879500  0.84226400  0.91888900  1
  F  F34  1  0.60486900  0.91628700  0.79316700  1
  F  F35  1  0.23203200  0.68042700  0.59521700  1
  F  F36  1  0.38653000  0.71503300  0.53563100  1
  F  F37  1  0.44963500  0.22559600  0.30896600  1
  F  F38  1  0.27120500  0.84226400  0.41888900  1
  F  F39  1  0.10486900  0.08371300  0.70683300  1
  F  F40  1  0.17711400  0.27366500  0.57688000  1
  F  F41  1  0.89513100  0.91628700  0.29316700  1
  F  F42  1  0.48033000  0.28253900  0.11315800  1
  F  F43  1  0.83328800  0.21045900  0.81317100  1
  F  F44  1  0.70804600  0.77989900  0.72823700  1
  F  F45  1  0.32288600  0.27366500  0.07688000  1
  F  F46  1  0.73203200  0.31957300  0.90478300  1
  F  F47  1  0.26796800  0.68042700  0.09521700  1
loop_
_geom_bond_atom_site_label_1
_geom_bond_atom_site_label_2
_geom_bond_distance
_geom_bond_site_symmetry_2
As0 F25 1.767153 1_555
As0 F42 1.767797 1_555
As0 F37 1.769478 1_555
As0 F45 1.791144 1_555
As0 F16 1.792190 1_555
As0 F19 1.795662 1_555
As1 F46 1.775852 1_555
As1 F1 1.776085 1_555
As1 F43 1.776482 1_555
As1 F28 1.778139 1_556
As1 F32 1.780022 1_555
As1 F3 1.791496 1_555
As2 F20 1.775852 1_555
As2 F7 1.776085 1_555
As2 F23 1.776482 1_555
As2 F5 1.778139 1_555
As2 F31 1.780022 1_555
As2 F9 1.791496 1_555
As3 F13 1.767153 1_555
As3 F17 1.767797 1_555
As3 F14 1.769478 1_555
As3 F2 1.791144 1_555
As3 F11 1.792190 1_555
As3 F41 1.795662 1_555
As4 F35 1.775852 1_555
As4 F12 1.776085 1_555
As4 F6 1.776482 1_555
As4 F38 1.778139 1_555
As4 F36 1.780022 1_555
As4 F26 1.791496 1_555
As5 F18 1.767153 1_555
As5 F10 1.767797 1_555
As5 F15 1.769478 1_555
As5 F22 1.791144 1_555
As5 F44 1.792190 1_555
As5 F34 1.795662 1_555
As6 F47 1.775852 1_555
As6 F8 1.776085 1_555
As6 F21 1.776482 1_555
As6 F33 1.778139 1_554
As6 F29 1.780022 1_555
As6 F27 1.791496 1_555
As7 F4 1.767153 1_555
As7 F30 1.767797 1_555
As7 F0 1.769478 1_555
As7 F40 1.791144 1_555
As7 F24 1.792190 1_555
As7 F39 1.795662 1_555
S0 Te13 2.399663 1_555
S0 Te2 2.415154 1_555
S1 Te12 2.400035 1_455
S1 Te5 2.413619 1_555
S2 Te0 2.405617 1_555
S2 Te6 2.410248 1_555
S3 Te8 2.399663 1_555
S3 Te10 2.415154 1_555
S4 Te15 2.400035 1_655
S4 Te1 2.413619 1_555
S5 Te1 2.405624 1_555
S5 Te13 2.410233 1_655
S7 Te11 2.399663 1_555
S7 Te4 2.415154 1_555
S8 Te3 2.405617 1_555
S8 Te11 2.410248 1_555
S10 Te6 2.399663 1_555
S10 Te14 2.415154 1_555
S11 Te7 2.400035 1_555
S11 Te0 2.413619 1_555
S13 Te5 2.405617 1_555
S13 Te8 2.410248 1_455
S14 Te10 2.399913 1_545
S14 Te12 2.413179 1_545
S16 Te14 2.399913 1_545
S16 Te7 2.413179 1_545
S17 Te2 2.399913 1_565
S17 Te15 2.413179 1_565
S18 Te4 2.399913 1_565
S18 Te9 2.413179 1_565
S19 Te9 2.400035 1_555
S19 Te3 2.413619 1_555
O0 S6 1.457029 1_555
O1 S12 1.457029 1_555
O2 S15 1.457029 1_555
O3 S6 1.461472 1_555
O4 S9 1.457029 1_555
O5 S12 1.461472 1_555
O6 S9 1.461472 1_555
O7 S15 1.461472 1_555
