# generated using pymatgen
data_AgN3O4
_symmetry_space_group_name_H-M   'P 1'
_cell_length_a   5.96703800
_cell_length_b   9.91720700
_cell_length_c   14.08381400
_cell_angle_alpha   90.00000000
_cell_angle_beta   90.00000000
_cell_angle_gamma   90.00000000
_symmetry_Int_Tables_number   1
_chemical_formula_structural   AgN3O4
_chemical_formula_sum   'Ag8 N24 O32'
_cell_volume   833.42872100
_cell_formula_units_Z   8
loop_
 _symmetry_equiv_pos_site_id
 _symmetry_equiv_pos_as_xyz
  1  'x, y, z'
loop_
 _atom_site_type_symbol
 _atom_site_label
 _atom_site_symmetry_multiplicity
 _atom_site_fract_x
 _atom_site_fract_y
 _atom_site_fract_z
 _atom_site_occupancy
  Ag  Ag0  1  0.07904200  0.39492700  0.64140800  1
  Ag  Ag1  1  0.92095800  0.89492700  0.85859200  1
  Ag  Ag2  1  0.57904200  0.10507300  0.35859200  1
  Ag  Ag3  1  0.57904200  0.39492700  0.85859200  1
  Ag  Ag4  1  0.07904200  0.10507300  0.14140800  1
  Ag  Ag5  1  0.42095800  0.60507300  0.14140800  1
  Ag  Ag6  1  0.92095800  0.60507300  0.35859200  1
  Ag  Ag7  1  0.42095800  0.89492700  0.64140800  1
  N  N0  1  0.40278100  0.41173400  0.30122000  1
  N  N1  1  0.40278100  0.08826600  0.80122000  1
  N  N2  1  0.09721900  0.58826600  0.80122000  1
  N  N3  1  0.09721900  0.91173400  0.30122000  1
  N  N4  1  0.34436600  0.35715200  0.46107000  1
  N  N5  1  0.65563400  0.85715200  0.03893000  1
  N  N6  1  0.90278100  0.08826600  0.69878000  1
  N  N7  1  0.40686900  0.31594200  0.37052900  1
  N  N8  1  0.90686900  0.18405800  0.62947100  1
  N  N9  1  0.34436600  0.14284800  0.96107000  1
  N  N10  1  0.84436600  0.14284800  0.53893000  1
  N  N11  1  0.59313100  0.81594200  0.12947100  1
  N  N12  1  0.90686900  0.31594200  0.12947100  1
  N  N13  1  0.40686900  0.18405800  0.87052900  1
  N  N14  1  0.15563400  0.85715200  0.46107000  1
  N  N15  1  0.09313100  0.68405800  0.87052900  1
  N  N16  1  0.59721900  0.91173400  0.19878000  1
  N  N17  1  0.65563400  0.64284800  0.53893000  1
  N  N18  1  0.59313100  0.68405800  0.62947100  1
  N  N19  1  0.09313100  0.81594200  0.37052900  1
  N  N20  1  0.59721900  0.58826600  0.69878000  1
  N  N21  1  0.90278100  0.41173400  0.19878000  1
  N  N22  1  0.84436600  0.35715200  0.03893000  1
  N  N23  1  0.15563400  0.64284800  0.96107000  1
  O  O0  1  0.91065700  0.13501400  0.78168400  1
  O  O1  1  0.11065600  0.72801800  0.02315500  1
  O  O2  1  0.38934400  0.22801800  0.02315500  1
  O  O3  1  0.08934300  0.86498600  0.21831600  1
  O  O4  1  0.88934400  0.22801800  0.47684500  1
  O  O5  1  0.26224400  0.53706400  0.97791700  1
  O  O6  1  0.09670500  0.03654200  0.31696400  1
  O  O7  1  0.09670500  0.46345800  0.81696400  1
  O  O8  1  0.73775600  0.46293600  0.02208300  1
  O  O9  1  0.23775600  0.03706400  0.97791700  1
  O  O10  1  0.40329500  0.53654200  0.31696400  1
  O  O11  1  0.90329500  0.96345800  0.68303600  1
  O  O12  1  0.11065600  0.77198200  0.52315500  1
  O  O13  1  0.59670500  0.46345800  0.68303600  1
  O  O14  1  0.08934300  0.63501400  0.71831600  1
  O  O15  1  0.23775600  0.46293600  0.47791700  1
  O  O16  1  0.90329500  0.53654200  0.18303600  1
  O  O17  1  0.58934300  0.63501400  0.78168400  1
  O  O18  1  0.59670500  0.03654200  0.18303600  1
  O  O19  1  0.91065700  0.36498600  0.28168400  1
  O  O20  1  0.61065600  0.72801800  0.47684500  1
  O  O21  1  0.73775600  0.03706400  0.52208300  1
  O  O22  1  0.38934400  0.27198200  0.52315500  1
  O  O23  1  0.88934400  0.27198200  0.97684500  1
  O  O24  1  0.41065700  0.36498600  0.21831600  1
  O  O25  1  0.40329500  0.96345800  0.81696400  1
  O  O26  1  0.76224400  0.53706400  0.52208300  1
  O  O27  1  0.61065600  0.77198200  0.97684500  1
  O  O28  1  0.76224400  0.96293600  0.02208300  1
  O  O29  1  0.41065700  0.13501400  0.71831600  1
  O  O30  1  0.58934300  0.86498600  0.28168400  1
  O  O31  1  0.26224400  0.96293600  0.47791700  1
loop_
_geom_bond_atom_site_label_1
_geom_bond_atom_site_label_2
_geom_bond_distance
_geom_bond_site_symmetry_2
Ag0 N8 2.336020 1_455
Ag0 O7 2.566371 1_555
Ag0 O15 2.579470 1_555
Ag0 O14 2.616512 1_555
Ag1 N15 2.336020 1_655
Ag1 O11 2.566371 1_555
Ag1 O28 2.579470 1_556
Ag1 O0 2.616512 1_565
Ag2 N7 2.336020 1_555
Ag2 O18 2.566371 1_555
Ag2 O21 2.579470 1_555
Ag2 O30 2.616512 1_545
Ag3 N13 2.336020 1_555
Ag3 O13 2.566371 1_555
Ag3 O8 2.579470 1_556
Ag3 O17 2.616512 1_555
Ag4 N12 2.336020 1_455
Ag4 O6 2.566371 1_555
Ag4 O9 2.579470 1_554
Ag4 O3 2.616512 1_545
Ag5 N11 2.336020 1_555
Ag5 O10 2.566371 1_555
Ag5 O5 2.579470 1_554
Ag5 O24 2.616512 1_555
Ag6 N19 2.336020 1_655
Ag6 O16 2.566371 1_555
Ag6 O26 2.579470 1_555
Ag6 O19 2.616512 1_555
Ag7 N18 2.336020 1_555
Ag7 O25 2.566371 1_555
Ag7 O31 2.579470 1_555
Ag7 O29 2.616512 1_565
N0 O24 1.257157 1_555
N0 O10 1.257455 1_555
N0 N7 1.362319 1_555
N1 O29 1.257157 1_555
N1 O25 1.257455 1_545
N1 N13 1.362319 1_555
N2 O14 1.257157 1_555
N2 O7 1.257455 1_555
N3 O3 1.257157 1_555
N3 O6 1.257455 1_565
N4 O22 1.245000 1_555
N4 O15 1.249620 1_555
N4 N7 1.390023 1_555
N5 O27 1.245000 1_554
N5 O28 1.249620 1_555
N6 O0 1.257157 1_555
N6 O11 1.257455 1_545
N6 N8 1.362319 1_555
N9 O2 1.245000 1_556
N9 O9 1.249620 1_555
N10 O4 1.245000 1_555
N10 O21 1.249620 1_555
N10 N8 1.390023 1_555
N11 N16 1.362319 1_555
N11 N5 1.390023 1_555
N12 N21 1.362319 1_555
N12 N22 1.390023 1_555
N13 N9 1.390023 1_555
N14 O12 1.245000 1_555
N14 O31 1.249620 1_555
N14 N19 1.390023 1_555
N15 N2 1.362319 1_555
N15 N23 1.390023 1_555
N16 O30 1.257157 1_555
N16 O18 1.257455 1_565
N17 O20 1.245000 1_555
N17 O26 1.249620 1_555
N17 N18 1.390023 1_555
N18 N20 1.362319 1_555
N19 N3 1.362319 1_555
N20 O17 1.257157 1_555
N20 O13 1.257455 1_555
N21 O19 1.257157 1_555
N21 O16 1.257455 1_555
N22 O23 1.245000 1_554
N22 O8 1.249620 1_555
N23 O1 1.245000 1_556
N23 O5 1.249620 1_555
