# generated using pymatgen
data_Yb23Mg4Cu7
_symmetry_space_group_name_H-M   'P 1'
_cell_length_a   10.08033595
_cell_length_b   10.08033595
_cell_length_c   23.17039400
_cell_angle_alpha   90.00000000
_cell_angle_beta   90.00000000
_cell_angle_gamma   119.99999969
_symmetry_Int_Tables_number   1
_chemical_formula_structural   Yb23Mg4Cu7
_chemical_formula_sum   'Yb46 Mg8 Cu14'
_cell_volume   2038.98515782
_cell_formula_units_Z   2
loop_
 _symmetry_equiv_pos_site_id
 _symmetry_equiv_pos_as_xyz
  1  'x, y, z'
loop_
 _atom_site_type_symbol
 _atom_site_label
 _atom_site_symmetry_multiplicity
 _atom_site_fract_x
 _atom_site_fract_y
 _atom_site_fract_z
 _atom_site_occupancy
  Yb  Yb0  1  0.79061500  0.20938500  0.97033400  1
  Yb  Yb1  1  0.07705400  0.53852700  0.33179400  1
  Yb  Yb2  1  0.87008100  0.12991900  0.38380100  1
  Yb  Yb3  1  0.92294600  0.46147300  0.66820600  1
  Yb  Yb4  1  0.66666700  0.33333300  0.38534800  1
  Yb  Yb5  1  0.46147300  0.53852700  0.33179400  1
  Yb  Yb6  1  0.66666700  0.33333300  0.11465200  1
  Yb  Yb7  1  0.74821900  0.87410900  0.25000000  1
  Yb  Yb8  1  0.12589100  0.25178100  0.25000000  1
  Yb  Yb9  1  0.87008100  0.74016200  0.38380100  1
  Yb  Yb10  1  0.53852700  0.07705400  0.83179400  1
  Yb  Yb11  1  0.12991900  0.25983800  0.61619900  1
  Yb  Yb12  1  0.20938500  0.41877100  0.02966600  1
  Yb  Yb13  1  0.12991900  0.87008100  0.61619900  1
  Yb  Yb14  1  0.87410900  0.12589100  0.75000000  1
  Yb  Yb15  1  0.41877100  0.20938500  0.97033400  1
  Yb  Yb16  1  0.74016200  0.87008100  0.88380100  1
  Yb  Yb17  1  0.87008100  0.74016200  0.11619900  1
  Yb  Yb18  1  0.20938500  0.41877100  0.47033400  1
  Yb  Yb19  1  0.58122900  0.79061500  0.47033400  1
  Yb  Yb20  1  0.25178100  0.12589100  0.75000000  1
  Yb  Yb21  1  0.46147300  0.92294600  0.16820600  1
  Yb  Yb22  1  0.20938500  0.79061500  0.47033400  1
  Yb  Yb23  1  0.12589100  0.87410900  0.25000000  1
  Yb  Yb24  1  0.46147300  0.53852700  0.16820600  1
  Yb  Yb25  1  0.33333300  0.66666700  0.61465200  1
  Yb  Yb26  1  0.74016200  0.87008100  0.61619900  1
  Yb  Yb27  1  0.46147300  0.92294600  0.33179400  1
  Yb  Yb28  1  0.41877100  0.20938500  0.52966600  1
  Yb  Yb29  1  0.20938500  0.79061500  0.02966600  1
  Yb  Yb30  1  0.25983800  0.12991900  0.11619900  1
  Yb  Yb31  1  0.12991900  0.87008100  0.88380100  1
  Yb  Yb32  1  0.58122900  0.79061500  0.02966600  1
  Yb  Yb33  1  0.53852700  0.07705400  0.66820600  1
  Yb  Yb34  1  0.25983800  0.12991900  0.38380100  1
  Yb  Yb35  1  0.92294600  0.46147300  0.83179400  1
  Yb  Yb36  1  0.87410900  0.74821900  0.75000000  1
  Yb  Yb37  1  0.87008100  0.12991900  0.11619900  1
  Yb  Yb38  1  0.07705400  0.53852700  0.16820600  1
  Yb  Yb39  1  0.33333300  0.66666700  0.88534800  1
  Yb  Yb40  1  0.53852700  0.46147300  0.83179400  1
  Yb  Yb41  1  0.12991900  0.25983800  0.88380100  1
  Yb  Yb42  1  0.53852700  0.46147300  0.66820600  1
  Yb  Yb43  1  0.79061500  0.20938500  0.52966600  1
  Yb  Yb44  1  0.79061500  0.58122900  0.97033400  1
  Yb  Yb45  1  0.79061500  0.58122900  0.52966600  1
  Mg  Mg0  1  0.00000000  0.00000000  0.50000000  1
  Mg  Mg1  1  0.77031700  0.22968300  0.25000000  1
  Mg  Mg2  1  0.54063500  0.77031700  0.75000000  1
  Mg  Mg3  1  0.22968300  0.77031700  0.75000000  1
  Mg  Mg4  1  0.77031700  0.54063500  0.25000000  1
  Mg  Mg5  1  0.22968300  0.45936500  0.75000000  1
  Mg  Mg6  1  0.45936500  0.22968300  0.25000000  1
  Mg  Mg7  1  0.00000000  0.00000000  0.00000000  1
  Cu  Cu0  1  0.52465900  0.47534100  0.05077800  1
  Cu  Cu1  1  0.52465900  0.47534100  0.44922200  1
  Cu  Cu2  1  0.52465900  0.04931700  0.44922200  1
  Cu  Cu3  1  0.52465900  0.04931700  0.05077800  1
  Cu  Cu4  1  0.47534100  0.52465900  0.94922200  1
  Cu  Cu5  1  0.47534100  0.95068300  0.55077800  1
  Cu  Cu6  1  0.95068300  0.47534100  0.44922200  1
  Cu  Cu7  1  0.95068300  0.47534100  0.05077800  1
  Cu  Cu8  1  0.66666700  0.33333300  0.75000000  1
  Cu  Cu9  1  0.04931700  0.52465900  0.55077800  1
  Cu  Cu10  1  0.47534100  0.95068300  0.94922200  1
  Cu  Cu11  1  0.47534100  0.52465900  0.55077800  1
  Cu  Cu12  1  0.04931700  0.52465900  0.94922200  1
  Cu  Cu13  1  0.33333300  0.66666700  0.25000000  1
loop_
_geom_bond_atom_site_label_1
_geom_bond_atom_site_label_2
_geom_bond_distance
_geom_bond_site_symmetry_2
Yb1 Yb23 3.689446 1_555
Yb1 Yb8 3.689454 1_555
Yb2 Yb7 3.821278 1_545
Yb2 Yb8 3.821278 1_655
Yb3 Yb36 3.689454 1_555
Yb5 Yb8 3.689449 1_555
Yb5 Yb7 3.689449 1_555
Yb7 Yb8 3.807061 1_665
Yb7 Yb9 3.821273 1_555
Yb10 Yb14 3.689446 1_555
Yb10 Yb20 3.689454 1_555
Yb11 Yb20 3.821273 1_555
Yb11 Yb14 3.821278 1_455
Yb13 Yb36 3.821278 1_455
Yb13 Yb20 3.821278 1_565
Yb14 Yb33 3.689446 1_555
Yb14 Yb3 3.689446 1_555
Yb14 Yb35 3.689446 1_555
Yb14 Yb36 3.807061 1_545
Yb14 Yb20 3.807061 1_655
Yb14 Yb16 3.821278 1_545
Yb14 Yb26 3.821278 1_545
Yb14 Yb41 3.821278 1_655
Yb16 Yb36 3.821273 1_555
Yb17 Yb7 3.821273 1_555
Yb17 Yb23 3.821278 1_655
Yb20 Yb42 3.689449 1_555
Yb20 Yb40 3.689449 1_555
Yb20 Yb33 3.689454 1_555
Yb20 Yb36 3.807061 1_445
Yb20 Yb41 3.821273 1_555
Yb20 Yb31 3.821278 1_545
Yb21 Yb23 3.689446 1_555
Yb21 Yb7 3.689454 1_555
Yb23 Yb27 3.689446 1_555
Yb23 Yb38 3.689446 1_555
Yb23 Yb7 3.807061 1_455
Yb23 Yb8 3.807061 1_565
Yb23 Yb9 3.821278 1_455
Yb23 Yb30 3.821278 1_565
Yb23 Yb34 3.821278 1_565
Yb24 Yb7 3.689449 1_555
Yb24 Yb8 3.689449 1_555
Yb26 Yb36 3.821273 1_555
Yb27 Yb7 3.689454 1_555
Yb30 Yb8 3.821273 1_555
Yb31 Yb36 3.821278 1_455
Yb34 Yb8 3.821273 1_555
Yb35 Yb36 3.689454 1_555
Yb36 Yb42 3.689449 1_555
Yb36 Yb40 3.689449 1_555
Yb37 Yb7 3.821278 1_545
Yb37 Yb8 3.821278 1_655
Yb38 Yb8 3.689454 1_555
Mg0 Yb2 3.520549 1_455
Mg0 Yb13 3.520549 1_545
Mg0 Yb34 3.520549 1_555
Mg0 Yb9 3.520549 1_445
Mg0 Yb26 3.520549 1_445
Mg0 Yb11 3.520549 1_555
Mg0 Yb43 3.719849 1_455
Mg0 Yb22 3.719849 1_545
Mg0 Yb45 3.719858 1_445
Mg0 Yb19 3.719858 1_445
Mg0 Yb28 3.719858 1_555
Mg0 Yb18 3.719858 1_555
Mg1 Mg6 3.134501 1_555
Mg1 Mg4 3.134501 1_555
Mg1 Yb7 3.478281 1_545
Mg1 Yb8 3.478281 1_655
Mg1 Yb2 3.556037 1_555
Mg1 Yb37 3.556037 1_555
Mg1 Yb6 3.620760 1_555
Mg1 Yb4 3.620760 1_555
Mg1 Yb1 3.635717 1_655
Mg1 Yb38 3.635717 1_655
Mg1 Yb27 3.635717 1_545
Mg1 Yb21 3.635717 1_545
Mg2 Mg3 3.134501 1_555
Mg2 Mg5 3.134501 1_555
Mg2 Yb36 3.478261 1_555
Mg2 Yb14 3.478272 1_565
Mg2 Yb16 3.556033 1_555
Mg2 Yb26 3.556033 1_555
Mg2 Yb25 3.620769 1_555
Mg2 Yb39 3.620769 1_555
Mg2 Yb42 3.635713 1_555
Mg2 Yb40 3.635713 1_555
Mg2 Yb10 3.635722 1_565
Mg2 Yb33 3.635722 1_565
Mg3 Mg5 3.134501 1_555
Mg3 Yb36 3.478281 1_455
Mg3 Yb20 3.478281 1_565
Mg3 Yb13 3.556037 1_555
Mg3 Yb31 3.556037 1_555
Mg3 Yb39 3.620760 1_555
Mg3 Yb25 3.620760 1_555
Mg3 Yb35 3.635717 1_455
Mg3 Yb3 3.635717 1_455
Mg3 Yb33 3.635717 1_565
Mg3 Yb10 3.635717 1_565
Mg4 Mg6 3.134501 1_555
Mg4 Yb7 3.478261 1_555
Mg4 Yb23 3.478272 1_655
Mg4 Yb9 3.556033 1_555
Mg4 Yb17 3.556033 1_555
Mg4 Yb6 3.620769 1_555
Mg4 Yb4 3.620769 1_555
Mg4 Yb5 3.635713 1_555
Mg4 Yb24 3.635713 1_555
Mg4 Yb1 3.635722 1_655
Mg4 Yb38 3.635722 1_655
Mg5 Yb20 3.478261 1_555
Mg5 Yb14 3.478272 1_455
Mg5 Yb41 3.556033 1_555
Mg5 Yb11 3.556033 1_555
Mg5 Yb25 3.620769 1_555
Mg5 Yb39 3.620769 1_555
Mg5 Yb40 3.635713 1_555
Mg5 Yb42 3.635713 1_555
Mg5 Yb35 3.635722 1_455
Mg5 Yb3 3.635722 1_455
Mg6 Yb8 3.478261 1_555
Mg6 Yb23 3.478272 1_545
Mg6 Yb34 3.556033 1_555
Mg6 Yb30 3.556033 1_555
Mg6 Yb6 3.620769 1_555
Mg6 Yb4 3.620769 1_555
Mg6 Yb5 3.635713 1_555
Mg6 Yb24 3.635713 1_555
Mg6 Yb27 3.635722 1_545
Mg6 Yb21 3.635722 1_545
Mg7 Yb37 3.520549 1_455
Mg7 Yb31 3.520549 1_544
Mg7 Yb30 3.520549 1_555
Mg7 Yb17 3.520549 1_445
Mg7 Yb41 3.520549 1_554
Mg7 Yb16 3.520549 1_444
Mg7 Yb0 3.719849 1_454
Mg7 Yb29 3.719849 1_545
Mg7 Yb32 3.719858 1_445
Mg7 Yb44 3.719858 1_444
Mg7 Yb12 3.719858 1_555
Mg7 Yb15 3.719858 1_554
Cu0 Cu4 2.505693 1_554
Cu0 Yb6 2.887531 1_555
Cu0 Yb24 2.936001 1_555
Cu0 Yb32 2.975283 1_555
Cu0 Yb12 2.975283 1_555
Cu0 Yb44 2.989864 1_554
Cu0 Yb15 2.989864 1_554
Cu0 Yb30 3.500420 1_555
Cu0 Yb17 3.500420 1_555
Cu1 Cu11 2.505693 1_555
Cu1 Yb4 2.887531 1_555
Cu1 Yb5 2.936001 1_555
Cu1 Yb19 2.975283 1_555
Cu1 Yb18 2.975283 1_555
Cu1 Yb45 2.989864 1_555
Cu1 Yb28 2.989864 1_555
Cu1 Yb34 3.500420 1_555
Cu1 Yb9 3.500420 1_555
Cu2 Cu5 2.505687 1_545
Cu2 Yb4 2.887531 1_555
Cu2 Yb27 2.935998 1_545
Cu2 Yb19 2.975263 1_545
Cu2 Yb22 2.975276 1_545
Cu2 Yb28 2.989864 1_555
Cu2 Yb43 2.989864 1_555
Cu2 Yb2 3.500417 1_555
Cu2 Yb34 3.500426 1_555
Cu3 Yb6 2.887531 1_555
Cu3 Yb21 2.935998 1_545
Cu3 Yb32 2.975263 1_545
Cu3 Yb29 2.975276 1_545
Cu3 Yb15 2.989864 1_554
Cu3 Yb0 2.989864 1_554
Cu3 Yb37 3.500417 1_555
Cu3 Yb30 3.500426 1_555
Cu4 Yb39 2.887531 1_555
Cu4 Yb40 2.936001 1_555
Cu4 Yb44 2.975283 1_555
Cu4 Yb15 2.975283 1_555
Cu4 Yb32 2.989864 1_556
Cu4 Yb12 2.989864 1_556
Cu4 Yb16 3.500420 1_555
Cu4 Yb41 3.500420 1_555
Cu5 Yb25 2.887531 1_555
Cu5 Yb33 2.935998 1_565
Cu5 Yb28 2.975263 1_565
Cu5 Yb43 2.975276 1_565
Cu5 Yb19 2.989864 1_555
Cu5 Yb22 2.989864 1_555
Cu5 Yb13 3.500417 1_555
Cu5 Yb26 3.500426 1_555
Cu6 Cu9 2.505687 1_655
Cu6 Yb4 2.887531 1_555
Cu6 Yb1 2.935998 1_655
Cu6 Yb18 2.975263 1_655
Cu6 Yb22 2.975276 1_655
Cu6 Yb45 2.989864 1_555
Cu6 Yb43 2.989864 1_555
Cu6 Yb2 3.500417 1_555
Cu6 Yb9 3.500426 1_555
Cu7 Yb6 2.887531 1_555
Cu7 Yb38 2.935998 1_655
Cu7 Yb12 2.975263 1_655
Cu7 Yb29 2.975276 1_655
Cu7 Yb44 2.989864 1_554
Cu7 Yb0 2.989864 1_554
Cu7 Yb37 3.500417 1_555
Cu7 Yb17 3.500426 1_555
Cu8 Yb10 2.932092 1_555
Cu8 Yb33 2.932092 1_555
Cu8 Yb3 2.932092 1_555
Cu8 Yb35 2.932092 1_555
Cu8 Yb40 2.932099 1_555
Cu8 Yb42 2.932099 1_555
Cu8 Yb14 3.621866 1_555
Cu8 Yb36 3.621883 1_555
Cu8 Yb20 3.621883 1_555
Cu9 Yb25 2.887531 1_555
Cu9 Yb3 2.935998 1_455
Cu9 Yb45 2.975263 1_455
Cu9 Yb43 2.975276 1_455
Cu9 Yb18 2.989864 1_555
Cu9 Yb22 2.989864 1_555
Cu9 Yb13 3.500417 1_555
Cu9 Yb11 3.500426 1_555
Cu10 Cu3 2.505687 1_566
Cu10 Yb39 2.887531 1_555
Cu10 Yb10 2.935998 1_565
Cu10 Yb15 2.975263 1_565
Cu10 Yb0 2.975276 1_565
Cu10 Yb32 2.989864 1_556
Cu10 Yb29 2.989864 1_556
Cu10 Yb31 3.500417 1_555
Cu10 Yb16 3.500426 1_555
Cu11 Yb25 2.887531 1_555
Cu11 Yb42 2.936001 1_555
Cu11 Yb45 2.975283 1_555
Cu11 Yb28 2.975283 1_555
Cu11 Yb18 2.989864 1_555
Cu11 Yb19 2.989864 1_555
Cu11 Yb26 3.500420 1_555
Cu11 Yb11 3.500420 1_555
Cu12 Cu7 2.505687 1_456
Cu12 Yb39 2.887531 1_555
Cu12 Yb35 2.935998 1_455
Cu12 Yb44 2.975263 1_455
Cu12 Yb0 2.975276 1_455
Cu12 Yb12 2.989864 1_556
Cu12 Yb29 2.989864 1_556
Cu12 Yb31 3.500417 1_555
Cu12 Yb41 3.500426 1_555
Cu13 Yb1 2.932092 1_555
Cu13 Yb27 2.932092 1_555
Cu13 Yb38 2.932092 1_555
Cu13 Yb21 2.932092 1_555
Cu13 Yb5 2.932099 1_555
Cu13 Yb24 2.932099 1_555
Cu13 Yb23 3.621866 1_555
Cu13 Yb7 3.621883 1_555
Cu13 Yb8 3.621883 1_555
