# generated using pymatgen
data_Na2LaPS2O7
_symmetry_space_group_name_H-M   'P 1'
_cell_length_a   5.42719600
_cell_length_b   9.82527900
_cell_length_c   14.92277853
_cell_angle_alpha   87.94883938
_cell_angle_beta   90.00000000
_cell_angle_gamma   90.00000000
_symmetry_Int_Tables_number   1
_chemical_formula_structural   Na2LaPS2O7
_chemical_formula_sum   'Na8 La4 P4 S8 O28'
_cell_volume   795.22813137
_cell_formula_units_Z   4
loop_
 _symmetry_equiv_pos_site_id
 _symmetry_equiv_pos_as_xyz
  1  'x, y, z'
loop_
 _atom_site_type_symbol
 _atom_site_label
 _atom_site_symmetry_multiplicity
 _atom_site_fract_x
 _atom_site_fract_y
 _atom_site_fract_z
 _atom_site_occupancy
  Na  Na0  1  0.00000000  0.50000000  0.00000000  1
  Na  Na1  1  0.00117900  0.81984400  0.59756600  1
  Na  Na2  1  0.50000000  0.00000000  0.50000000  1
  Na  Na3  1  0.99882100  0.18015600  0.40243400  1
  Na  Na4  1  0.50117900  0.68015600  0.40243400  1
  Na  Na5  1  0.50000000  0.00000000  0.00000000  1
  Na  Na6  1  0.49882100  0.31984400  0.59756600  1
  Na  Na7  1  0.00000000  0.50000000  0.50000000  1
  La  La0  1  0.46787000  0.97140600  0.77881300  1
  La  La1  1  0.96787000  0.52859400  0.22118700  1
  La  La2  1  0.03213000  0.47140600  0.77881300  1
  La  La3  1  0.53213000  0.02859400  0.22118700  1
  P  P0  1  0.52437100  0.31539200  0.84955600  1
  P  P1  1  0.47562900  0.68460800  0.15044400  1
  P  P2  1  0.97562900  0.81539200  0.84955600  1
  P  P3  1  0.02437100  0.18460800  0.15044400  1
  S  S0  1  0.98490800  0.84044500  0.23940600  1
  S  S1  1  0.48596900  0.35083500  0.37059800  1
  S  S2  1  0.48490800  0.65955500  0.76059400  1
  S  S3  1  0.51403100  0.64916500  0.62940200  1
  S  S4  1  0.51509200  0.34044500  0.23940600  1
  S  S5  1  0.01403100  0.85083500  0.37059800  1
  S  S6  1  0.98596900  0.14916500  0.62940200  1
  S  S7  1  0.01509200  0.15955500  0.76059400  1
  O  O0  1  0.23140900  0.62475800  0.11354100  1
  O  O1  1  0.98833700  0.65900600  0.87032600  1
  O  O2  1  0.48833700  0.84099400  0.12967400  1
  O  O3  1  0.01772900  0.15411700  0.25445100  1
  O  O4  1  0.73190900  0.10092800  0.60620700  1
  O  O5  1  0.76859100  0.37524200  0.88645900  1
  O  O6  1  0.98227100  0.84588300  0.74554900  1
  O  O7  1  0.29738600  0.38810300  0.88998900  1
  O  O8  1  0.47371500  0.78724700  0.58450400  1
  O  O9  1  0.23190900  0.39907200  0.39379300  1
  O  O10  1  0.01166300  0.34099400  0.12967400  1
  O  O11  1  0.73140900  0.87524200  0.88645900  1
  O  O12  1  0.51166300  0.15900600  0.87032600  1
  O  O13  1  0.17242500  0.05215800  0.59354400  1
  O  O14  1  0.20261400  0.88810300  0.88998900  1
  O  O15  1  0.97371500  0.71275300  0.41549600  1
  O  O16  1  0.26859100  0.12475800  0.11354100  1
  O  O17  1  0.82757500  0.94784200  0.40645600  1
  O  O18  1  0.70261400  0.61189700  0.11001100  1
  O  O19  1  0.48227100  0.65411700  0.25445100  1
  O  O20  1  0.51772900  0.34588300  0.74554900  1
  O  O21  1  0.79738600  0.11189700  0.11001100  1
  O  O22  1  0.26809100  0.89907200  0.39379300  1
  O  O23  1  0.32757500  0.55215800  0.59354400  1
  O  O24  1  0.02628500  0.28724700  0.58450400  1
  O  O25  1  0.67242500  0.44784200  0.40645600  1
  O  O26  1  0.76809100  0.60092800  0.60620700  1
  O  O27  1  0.52628500  0.21275300  0.41549600  1
loop_
_geom_bond_atom_site_label_1
_geom_bond_atom_site_label_2
_geom_bond_distance
_geom_bond_site_symmetry_2
Na0 O1 2.443954 1_454
Na0 O10 2.443954 1_555
Na0 O5 2.469679 1_454
Na0 O0 2.469679 1_555
Na0 O7 2.576414 1_554
Na0 O18 2.576414 1_455
Na1 O6 2.234523 1_455
Na1 O13 2.463247 1_565
Na1 O26 2.494685 1_455
Na1 O8 2.592669 1_555
Na1 O8 2.887872 1_455
Na1 O15 2.952291 1_455
Na2 O22 2.278574 1_545
Na2 O4 2.278574 1_555
Na2 O13 2.328753 1_555
Na2 O17 2.328753 1_545
Na2 O8 2.406545 1_545
Na2 O27 2.406545 1_555
Na3 O3 2.234523 1_655
Na3 O17 2.463247 1_545
Na3 O9 2.494685 1_655
Na3 O27 2.592669 1_555
Na3 O27 2.887872 1_655
Na3 O24 2.952291 1_655
Na4 O19 2.234523 1_555
Na4 O25 2.463247 1_555
Na4 O22 2.494685 1_555
Na4 O15 2.592669 1_555
Na4 O15 2.887872 1_455
Na4 O8 2.952291 1_555
Na5 O12 2.443954 1_554
Na5 O2 2.443954 1_545
Na5 O16 2.469679 1_555
Na5 O11 2.469679 1_544
Na5 O14 2.576414 1_544
Na5 O21 2.576414 1_555
Na6 O20 2.234523 1_555
Na6 O23 2.463247 1_555
Na6 O4 2.494685 1_555
Na6 O24 2.592669 1_555
Na6 O24 2.887872 1_655
Na6 O27 2.952291 1_555
Na7 O9 2.278574 1_555
Na7 O26 2.278574 1_455
Na7 O23 2.328753 1_555
Na7 O25 2.328753 1_455
Na7 O15 2.406545 1_455
Na7 O24 2.406545 1_555
La0 O14 2.323273 1_555
La0 O11 2.325987 1_555
La0 O12 2.345013 1_565
La0 S7 3.081188 1_565
La0 S2 3.087125 1_555
La1 O18 2.323273 1_555
La1 O0 2.325987 1_655
La1 O10 2.345013 1_655
La1 S4 3.081188 1_555
La1 S0 3.087125 1_555
La2 O7 2.323273 1_555
La2 O5 2.325987 1_455
La2 O1 2.345013 1_455
La2 S2 3.081188 1_555
La2 S7 3.087125 1_555
La3 O21 2.323273 1_555
La3 O16 2.325987 1_555
La3 O2 2.345013 1_545
La3 S0 3.081188 1_545
La3 S4 3.087125 1_555
S0 S5 1.970404 1_655
S1 S4 1.970404 1_555
S2 S3 1.970404 1_555
S6 S7 1.970404 1_655
O0 P1 1.558527 1_555
O1 P2 1.558100 1_555
O2 P1 1.558100 1_555
O3 P3 1.570572 1_555
O4 S6 1.502449 1_555
O5 P0 1.558527 1_555
O6 P2 1.570572 1_555
O7 P0 1.556550 1_555
O8 S3 1.507425 1_555
O9 S1 1.502449 1_555
O10 P3 1.558100 1_555
O11 P2 1.558527 1_555
O12 P0 1.558100 1_555
O13 S6 1.501762 1_455
O14 P2 1.556550 1_455
O15 S5 1.507425 1_655
O16 P3 1.558527 1_555
O17 S5 1.501762 1_655
O18 P1 1.556550 1_555
O19 P1 1.570572 1_555
O20 P0 1.570572 1_555
O21 P3 1.556550 1_655
O22 S5 1.502449 1_555
O23 S3 1.501762 1_555
O24 S6 1.507425 1_455
O25 S1 1.501762 1_555
O26 S3 1.502449 1_555
O27 S1 1.507425 1_555
