# generated using pymatgen
data_Y3Co2
_symmetry_space_group_name_H-M   'P 1'
_cell_length_a   3.96688700
_cell_length_b   9.42369400
_cell_length_c   12.22554900
_cell_angle_alpha   90.00000000
_cell_angle_beta   90.00000000
_cell_angle_gamma   90.00000000
_symmetry_Int_Tables_number   1
_chemical_formula_structural   Y3Co2
_chemical_formula_sum   'Y12 Co8'
_cell_volume   457.02438784
_cell_formula_units_Z   4
loop_
 _symmetry_equiv_pos_site_id
 _symmetry_equiv_pos_as_xyz
  1  'x, y, z'
loop_
 _atom_site_type_symbol
 _atom_site_label
 _atom_site_symmetry_multiplicity
 _atom_site_fract_x
 _atom_site_fract_y
 _atom_site_fract_z
 _atom_site_occupancy
  Y  Y0  1  0.50000000  0.42814000  0.86444300  1
  Y  Y1  1  0.00000000  0.07186000  0.36444300  1
  Y  Y2  1  0.50000000  0.62686300  0.61345700  1
  Y  Y3  1  0.50000000  0.37313700  0.38654300  1
  Y  Y4  1  0.00000000  0.30507000  0.62766500  1
  Y  Y5  1  0.00000000  0.92814000  0.63555700  1
  Y  Y6  1  0.00000000  0.87313700  0.11345700  1
  Y  Y7  1  0.00000000  0.69493000  0.37233500  1
  Y  Y8  1  0.50000000  0.19493000  0.12766500  1
  Y  Y9  1  0.50000000  0.80507000  0.87233500  1
  Y  Y10  1  0.00000000  0.12686300  0.88654300  1
  Y  Y11  1  0.50000000  0.57186000  0.13555700  1
  Co  Co0  1  0.50000000  0.85996200  0.26931300  1
  Co  Co1  1  0.00000000  0.61698100  0.96234700  1
  Co  Co2  1  0.00000000  0.64003800  0.76931300  1
  Co  Co3  1  0.50000000  0.11698100  0.53765300  1
  Co  Co4  1  0.00000000  0.35996200  0.23068700  1
  Co  Co5  1  0.50000000  0.88301900  0.46234700  1
  Co  Co6  1  0.50000000  0.14003800  0.73068700  1
  Co  Co7  1  0.00000000  0.38301900  0.03765300  1
loop_
_geom_bond_atom_site_label_1
_geom_bond_atom_site_label_2
_geom_bond_distance
_geom_bond_site_symmetry_2
Co0 Co5 2.369928 1_555
Co0 Y6 2.753200 1_555
Co0 Y6 2.753200 1_655
Co0 Y7 2.817636 1_655
Co0 Y7 2.817636 1_555
Co0 Y1 3.045343 1_565
Co0 Y1 3.045343 1_665
Co0 Y11 3.169409 1_555
Co0 Y8 3.600447 1_565
Co1 Co2 2.369928 1_555
Co1 Co7 2.389287 1_556
Co1 Y9 2.878674 1_555
Co1 Y9 2.878674 1_455
Co1 Y0 2.921232 1_455
Co1 Y0 2.921232 1_555
Co1 Y11 2.932409 1_456
Co1 Y11 2.932409 1_556
Co1 Y6 3.039734 1_556
Co2 Y2 2.753200 1_455
Co2 Y2 2.753200 1_555
Co2 Y9 2.817636 1_555
Co2 Y9 2.817636 1_455
Co2 Y0 3.045343 1_455
Co2 Y0 3.045343 1_555
Co2 Y5 3.169409 1_555
Co2 Y4 3.600447 1_555
Co3 Co6 2.369928 1_555
Co3 Co5 2.389287 1_545
Co3 Y4 2.878674 1_555
Co3 Y4 2.878674 1_655
Co3 Y5 2.921232 1_545
Co3 Y5 2.921232 1_645
Co3 Y1 2.932409 1_555
Co3 Y1 2.932409 1_655
Co3 Y3 3.039734 1_555
Co4 Co7 2.369928 1_555
Co4 Y3 2.753200 1_455
Co4 Y3 2.753200 1_555
Co4 Y8 2.817636 1_455
Co4 Y8 2.817636 1_555
Co4 Y11 3.045343 1_455
Co4 Y11 3.045343 1_555
Co4 Y1 3.169409 1_555
Co4 Y7 3.600447 1_555
Co5 Y7 2.878674 1_555
Co5 Y7 2.878674 1_655
Co5 Y1 2.921232 1_565
Co5 Y1 2.921232 1_665
Co5 Y5 2.932409 1_655
Co5 Y5 2.932409 1_555
Co5 Y2 3.039734 1_555
Co6 Y10 2.753200 1_555
Co6 Y10 2.753200 1_655
Co6 Y4 2.817636 1_655
Co6 Y4 2.817636 1_555
Co6 Y5 3.045343 1_645
Co6 Y5 3.045343 1_545
Co6 Y0 3.169409 1_555
Co6 Y9 3.600447 1_545
Co7 Y8 2.878674 1_455
Co7 Y8 2.878674 1_555
Co7 Y11 2.921232 1_555
Co7 Y11 2.921232 1_455
Co7 Y0 2.932409 1_554
Co7 Y0 2.932409 1_454
Co7 Y10 3.039734 1_554
