# generated using pymatgen
data_K2BaNi(NO2)6
_symmetry_space_group_name_H-M   'P 1'
_cell_length_a   7.62441600
_cell_length_b   7.81024273
_cell_length_c   7.92741595
_cell_angle_alpha   94.21306912
_cell_angle_beta   116.71285931
_cell_angle_gamma   117.35471982
_symmetry_Int_Tables_number   1
_chemical_formula_structural   K2BaNi(NO2)6
_chemical_formula_sum   'K2 Ba1 Ni1 N6 O12'
_cell_volume   350.42675307
_cell_formula_units_Z   1
loop_
 _symmetry_equiv_pos_site_id
 _symmetry_equiv_pos_as_xyz
  1  'x, y, z'
loop_
 _atom_site_type_symbol
 _atom_site_label
 _atom_site_symmetry_multiplicity
 _atom_site_fract_x
 _atom_site_fract_y
 _atom_site_fract_z
 _atom_site_occupancy
  K  K0  1  0.48482200  0.74221600  0.23627100  1
  K  K1  1  0.50766300  0.25370200  0.75939700  1
  Ba  Ba0  1  0.00794900  0.50007500  0.50747800  1
  Ni  Ni0  1  0.99130800  0.99235000  0.99790600  1
  N  N0  1  0.61383800  0.79972600  0.80246500  1
  N  N1  1  0.02876600  0.80325600  0.83632000  1
  N  N2  1  0.99627200  0.80792500  0.19877600  1
  N  N3  1  0.00061800  0.18363300  0.80668800  1
  N  N4  1  0.99068800  0.18894400  0.18808700  1
  N  N5  1  0.39418500  0.20284700  0.20624500  1
  O  O0  1  0.14821700  0.87264200  0.75922400  1
  O  O1  1  0.49773800  0.82173100  0.64298500  1
  O  O2  1  0.49722300  0.65167500  0.84181100  1
  O  O3  1  0.94137100  0.61563300  0.81888700  1
  O  O4  1  0.20593100  0.32908400  0.86802200  1
  O  O5  1  0.20074200  0.85746700  0.32729900  1
  O  O6  1  0.83510000  0.17127400  0.65096200  1
  O  O7  1  0.83072900  0.66804700  0.20621300  1
  O  O8  1  0.49432900  0.36495700  0.34983700  1
  O  O9  1  0.00295500  0.16094100  0.34685700  1
  O  O10  1  0.00193600  0.35033900  0.16187400  1
  O  O11  1  0.52730200  0.16306700  0.18488600  1
loop_
_geom_bond_atom_site_label_1
_geom_bond_atom_site_label_2
_geom_bond_distance
_geom_bond_site_symmetry_2
K0 O5 3.020555 1_555
K0 O7 3.049032 1_555
K0 O8 3.166213 1_555
K0 O1 3.186679 1_555
K0 O4 3.191368 1_554
K0 O2 3.207769 1_554
K0 O11 3.226741 1_565
K0 O10 3.270695 1_555
K0 O6 3.381229 1_565
K0 O9 3.414991 1_665
K1 O0 2.978024 1_545
K1 O3 2.993252 1_555
K1 O4 3.054806 1_555
K1 O2 3.173364 1_555
K1 O6 3.272774 1_555
K1 O10 3.342720 1_656
K1 O5 3.371547 1_545
K1 O1 3.388954 1_545
K1 O8 3.392009 1_555
K1 O9 3.435661 1_555
K1 O11 3.448913 1_556
K1 O7 3.497512 1_556
Ba0 O0 2.821656 1_555
Ba0 O9 2.829604 1_555
Ba0 O10 2.871064 1_555
Ba0 O6 2.879583 1_455
Ba0 O3 2.896007 1_455
Ba0 O7 2.904958 1_455
Ba0 O11 2.935749 1_455
Ba0 O1 2.964115 1_555
Ba0 O2 2.988892 1_555
Ba0 O8 3.101525 1_455
Ba0 O5 3.270335 1_555
Ba0 O4 3.281146 1_555
N0 O1 1.255816 1_555
N0 O2 1.257930 1_555
N0 Ni0 2.148557 1_555
N1 O0 1.261817 1_555
N1 O3 1.265132 1_455
N1 Ni0 2.083776 1_455
N2 O5 1.256136 1_655
N2 O7 1.264605 1_555
N2 Ni0 2.223690 1_554
N3 O4 1.256061 1_555
N3 O6 1.263259 1_455
N3 Ni0 2.206094 1_445
N4 O9 1.262600 1_655
N4 O10 1.262793 1_655
N4 Ni0 2.074501 1_544
N5 O11 1.261690 1_555
N5 O8 1.264999 1_555
N5 Ni0 2.294576 1_444
