# generated using pymatgen
data_Li27Sb10
_symmetry_space_group_name_H-M   'P 1'
_cell_length_a   9.24173639
_cell_length_b   22.94777205
_cell_length_c   7.93429274
_cell_angle_alpha   30.22966260
_cell_angle_beta   54.48347497
_cell_angle_gamma   59.91384063
_symmetry_Int_Tables_number   1
_chemical_formula_structural   Li27Sb10
_chemical_formula_sum   'Li27 Sb10'
_cell_volume   689.55632800
_cell_formula_units_Z   1
loop_
 _symmetry_equiv_pos_site_id
 _symmetry_equiv_pos_as_xyz
  1  'x, y, z'
loop_
 _atom_site_type_symbol
 _atom_site_label
 _atom_site_symmetry_multiplicity
 _atom_site_fract_x
 _atom_site_fract_y
 _atom_site_fract_z
 _atom_site_occupancy
  Li  Li0  1  0.10374939  0.19771446  0.26711688  1
  Li  Li1  1  0.25177275  0.21033166  0.47331041  1
  Li  Li2  1  0.39625061  0.00228554  0.73288312  1
  Li  Li3  1  0.13200681  0.41784916  0.19353432  1
  Li  Li4  1  0.63615774  0.18863518  0.28160409  1
  Li  Li5  1  0.39629730  0.19736153  0.74614297  1
  Li  Li6  1  0.25141820  0.39440726  0.51327158  1
  Li  Li7  1  0.13482071  0.60036431  0.26182588  1
  Li  Li8  1  0.13267271  0.78202126  0.28305494  1
  Li  Li9  1  0.63183572  0.38757703  0.26579969  1
  Li  Li10  1  0.36732729  0.41797874  0.71694506  1
  Li  Li11  1  0.86384226  0.01136482  0.71839591  1
  Li  Li12  1  0.10370270  0.00263847  0.25385703  1
  Li  Li13  1  0.86486200  0.18851014  0.77475091  1
  Li  Li14  1  0.74870668  0.39244971  0.51816282  1
  Li  Li15  1  0.60538404  0.59974156  0.25869670  1
  Li  Li16  1  0.24858180  0.80559274  0.48672842  1
  Li  Li17  1  0.36517929  0.59963569  0.73817412  1
  Li  Li18  1  0.24822725  0.98966834  0.52668959  1
  Li  Li19  1  0.86854812  0.38729623  0.79590314  1
  Li  Li20  1  0.75000000  0.60000000  0.50000000  1
  Li  Li21  1  0.63145188  0.81270377  0.20409686  1
  Li  Li22  1  0.36799319  0.78215084  0.80646568  1
  Li  Li23  1  0.75129332  0.80755029  0.48183718  1
  Li  Li24  1  0.63513800  0.01148986  0.22524909  1
  Li  Li25  1  0.89461596  0.60025844  0.74130330  1
  Li  Li26  1  0.86816428  0.81242297  0.73420031  1
  Sb  Sb0  1  0.01386030  0.99076690  0.00074787  1
  Sb  Sb1  1  0.01447652  0.20898723  0.95463991  1
  Sb  Sb2  1  0.48552348  0.99101277  0.04536009  1
  Sb  Sb3  1  0.99910124  0.39800042  0.00880082  1
  Sb  Sb4  1  0.48613970  0.20923310  0.99925213  1
  Sb  Sb5  1  0.98810888  0.60015898  0.02650090  1
  Sb  Sb6  1  0.50089417  0.39757589  0.00214849  1
  Sb  Sb7  1  0.99910583  0.80242411  0.99785151  1
  Sb  Sb8  1  0.51189112  0.59984102  0.97349910  1
  Sb  Sb9  1  0.50089876  0.80199958  0.99119918  1
loop_
_geom_bond_atom_site_label_1
_geom_bond_atom_site_label_2
_geom_bond_distance
_geom_bond_site_symmetry_2
Li0 Sb0 2.773845 1_546
Li0 Sb3 2.797986 1_455
Li0 Sb1 2.819363 1_554
Li0 Li6 2.837353 1_554
Li0 Sb4 2.883549 1_554
Li0 Li1 2.906493 1_555
Li0 Li18 2.937736 1_545
Li1 Li10 2.846329 1_554
Li1 Li3 2.851881 1_555
Li1 Li5 2.899323 1_555
Li1 Li4 2.904868 1_555
Li1 Li13 2.923356 1_455
Li1 Li12 2.937519 1_556
Li1 Li2 2.937736 1_555
Li1 Sb4 3.079447 1_554
Li1 Sb1 3.086820 1_555
Li1 Sb6 3.146367 1_555
Li1 Sb3 3.173646 1_455
Li2 Sb4 2.773845 1_554
Li2 Sb9 2.797986 1_545
Li2 Sb2 2.819363 1_546
Li2 Sb0 2.883549 1_546
Li3 Sb3 2.769626 1_455
Li3 Sb6 2.785756 1_555
Li3 Sb5 2.813553 1_455
Li3 Sb1 2.863986 1_555
Li3 Li6 2.870966 1_555
Li4 Sb1 2.859613 1_654
Li4 Sb2 2.874968 1_546
Li4 Sb4 2.878583 1_554
Li4 Sb6 2.882424 1_555
Li5 Sb2 2.769882 1_546
Li5 Sb6 2.801075 1_555
Li5 Sb4 2.811796 1_555
Li5 Li6 2.831964 1_555
Li5 Sb1 2.880255 1_555
Li6 Li9 2.863380 1_555
Li6 Li7 2.928615 1_555
Li6 Sb4 3.129407 1_555
Li6 Sb1 3.137917 1_555
Li6 Sb6 3.249951 1_555
Li6 Sb3 3.258474 1_456
Li6 Sb8 3.297192 1_554
Li6 Sb5 3.319621 1_455
Li7 Sb7 2.810588 1_454
Li7 Sb3 2.811959 1_456
Li7 Sb8 2.849615 1_554
Li7 Sb5 2.878823 1_455
Li8 Sb7 2.774667 1_454
Li8 Sb9 2.779740 1_554
Li8 Sb5 2.809051 1_456
Li8 Sb0 2.865688 1_555
Li9 Sb3 2.768625 1_555
Li9 Sb4 2.773656 1_555
Li9 Sb6 2.779649 1_555
Li9 Sb8 2.895899 1_554
Li10 Sb6 2.774667 1_556
Li10 Sb3 2.779740 1_456
Li10 Sb8 2.809051 1_554
Li10 Li6 2.855565 1_555
Li10 Sb4 2.865688 1_555
Li10 Li14 2.884647 1_555
Li11 Sb2 2.859613 1_546
Li11 Li23 2.872163 1_546
Li11 Sb1 2.874968 1_654
Li11 Sb0 2.878583 1_646
Li11 Sb7 2.882424 1_545
Li11 Li18 2.904868 1_645
Li12 Sb1 2.769882 1_554
Li12 Sb7 2.801075 1_445
Li12 Sb0 2.811796 1_545
Li12 Li16 2.831964 1_545
Li12 Sb2 2.880255 1_545
Li12 Li18 2.899323 1_545
Li13 Sb4 2.863681 1_555
Li13 Li14 2.870059 1_555
Li13 Sb0 2.871622 1_646
Li13 Sb1 2.876317 1_655
Li13 Sb3 2.883955 1_555
Li14 Li9 2.865162 1_555
Li14 Li4 2.872163 1_556
Li14 Li19 2.889792 1_555
Li14 Li3 2.897772 1_655
Li14 Li25 2.923856 1_554
Li14 Li15 2.923907 1_555
Li14 Sb4 3.141669 1_555
Li14 Sb1 3.173557 1_655
Li14 Sb3 3.200659 1_555
Li14 Sb6 3.208957 1_556
Li14 Sb8 3.334834 1_554
Li14 Sb5 3.353560 1_555
Li15 Sb6 2.799094 1_556
Li15 Sb9 2.800802 1_554
Li15 Sb8 2.850927 1_554
Li15 Sb5 2.887417 1_555
Li15 Li20 2.907312 1_555
Li15 Li23 2.923856 1_554
Li16 Li2 2.837353 1_564
Li16 Li8 2.855565 1_555
Li16 Li26 2.863380 1_455
Li16 Li22 2.870966 1_555
Li16 Li21 2.881471 1_555
Li16 Li7 2.917006 1_556
Li16 Li17 2.928615 1_555
Li16 Sb0 3.129407 1_555
Li16 Sb2 3.137917 1_555
Li16 Sb7 3.249951 1_455
Li16 Sb9 3.258474 1_554
Li16 Sb5 3.297192 1_456
Li16 Sb8 3.319621 1_555
Li17 Sb6 2.810588 1_556
Li17 Sb9 2.811959 1_554
Li17 Sb5 2.849615 1_456
Li17 Sb8 2.878823 1_555
Li17 Li20 2.900543 1_555
Li17 Li6 2.917006 1_556
Li18 Li8 2.846329 1_556
Li18 Li22 2.851881 1_555
Li18 Li2 2.906493 1_565
Li18 Li24 2.923356 1_565
Li18 Li5 2.937519 1_564
Li18 Sb0 3.079447 1_556
Li18 Sb2 3.086820 1_555
Li18 Sb7 3.146367 1_455
Li18 Sb9 3.173646 1_555
Li19 Sb6 2.771559 1_556
Li19 Sb1 2.771879 1_655
Li19 Sb3 2.784166 1_556
Li19 Li6 2.881471 1_655
Li19 Li20 2.891646 1_555
Li19 Sb5 2.897140 1_555
Li20 Li9 2.884300 1_556
Li20 Li26 2.884300 1_554
Li20 Li21 2.891646 1_555
Li20 Li7 2.900543 1_655
Li20 Li25 2.907312 1_555
Li20 Sb8 3.055403 1_555
Li20 Sb5 3.055403 1_555
Li20 Sb6 3.291677 1_556
Li20 Sb7 3.291677 1_554
Li20 Sb3 3.293369 1_556
Li20 Sb9 3.293369 1_554
Li21 Sb7 2.771559 1_554
Li21 Sb2 2.771879 1_555
Li21 Sb9 2.784166 1_554
Li21 Li23 2.889792 1_555
Li21 Sb8 2.897140 1_555
Li22 Sb9 2.769626 1_555
Li22 Sb7 2.785756 1_455
Li22 Sb8 2.813553 1_555
Li22 Sb2 2.863986 1_555
Li22 Li23 2.897772 1_555
Li23 Li26 2.865162 1_555
Li23 Li24 2.870059 1_565
Li23 Li8 2.884647 1_655
Li23 Li25 2.923907 1_555
Li23 Sb0 3.141669 1_655
Li23 Sb2 3.173557 1_555
Li23 Sb9 3.200659 1_555
Li23 Sb7 3.208957 1_554
Li23 Sb5 3.334834 1_556
Li23 Sb8 3.353560 1_555
Li24 Sb0 2.863681 1_645
Li24 Sb4 2.871622 1_554
Li24 Sb2 2.876317 1_545
Li24 Sb9 2.883955 1_545
Li25 Sb7 2.799094 1_554
Li25 Sb3 2.800802 1_556
Li25 Sb5 2.850927 1_556
Li25 Sb8 2.887417 1_555
Li26 Sb9 2.768625 1_555
Li26 Sb0 2.773656 1_655
Li26 Sb7 2.779649 1_555
Li26 Sb5 2.895899 1_556
