# generated using pymatgen
data_Ba(AsPd)2
_symmetry_space_group_name_H-M   'P 1'
_cell_length_a   4.53102800
_cell_length_b   4.53102800
_cell_length_c   6.23432946
_cell_angle_alpha   111.30874142
_cell_angle_beta   111.30874142
_cell_angle_gamma   90.00000000
_symmetry_Int_Tables_number   1
_chemical_formula_structural   Ba(AsPd)2
_chemical_formula_sum   'Ba1 As2 Pd2'
_cell_volume   109.79684076
_cell_formula_units_Z   1
loop_
 _symmetry_equiv_pos_site_id
 _symmetry_equiv_pos_as_xyz
  1  'x, y, z'
loop_
 _atom_site_type_symbol
 _atom_site_label
 _atom_site_symmetry_multiplicity
 _atom_site_fract_x
 _atom_site_fract_y
 _atom_site_fract_z
 _atom_site_occupancy
  Ba  Ba0  1  0.00000000  0.00000000  0.00000000  1
  As  As0  1  0.63193200  0.63193200  0.26386400  1
  As  As1  1  0.36806800  0.36806800  0.73613600  1
  Pd  Pd0  1  0.75000000  0.25000000  0.50000000  1
  Pd  Pd1  1  0.25000000  0.75000000  0.50000000  1
loop_
_geom_bond_atom_site_label_1
_geom_bond_atom_site_label_2
_geom_bond_distance
_geom_bond_site_symmetry_2
Ba0 Pd1 3.504710 1_545
Ba0 Pd1 3.504710 1_544
Ba0 Pd0 3.504710 1_455
Ba0 Pd0 3.504710 1_454
Ba0 Pd1 3.504710 1_555
Ba0 Pd1 3.504710 1_444
Ba0 Pd0 3.504710 1_555
Ba0 Pd0 3.504710 1_444
As0 Pd1 2.593722 1_555
As0 Pd0 2.593722 1_555
As0 Pd0 2.593722 1_565
As0 Pd1 2.593722 1_655
As0 As1 2.822322 1_554
As0 Ba0 3.500926 1_555
As0 Ba0 3.500926 1_655
As0 Ba0 3.500926 1_565
As0 Ba0 3.500926 1_665
As1 Pd0 2.593722 1_455
As1 Pd0 2.593722 1_555
As1 Pd1 2.593722 1_555
As1 Pd1 2.593722 1_545
As1 Ba0 3.500926 1_666
As1 Ba0 3.500926 1_656
As1 Ba0 3.500926 1_566
As1 Ba0 3.500926 1_556
