# generated using pymatgen
data_BaPrO3
_symmetry_space_group_name_H-M   'P 1'
_cell_length_a   6.40989202
_cell_length_b   6.40989192
_cell_length_c   6.40989202
_cell_angle_alpha   60.85499792
_cell_angle_beta   60.85500082
_cell_angle_gamma   60.85499792
_symmetry_Int_Tables_number   1
_chemical_formula_structural   BaPrO3
_chemical_formula_sum   'Ba2 Pr2 O6'
_cell_volume   189.81459274
_cell_formula_units_Z   2
loop_
 _symmetry_equiv_pos_site_id
 _symmetry_equiv_pos_as_xyz
  1  'x, y, z'
loop_
 _atom_site_type_symbol
 _atom_site_label
 _atom_site_symmetry_multiplicity
 _atom_site_fract_x
 _atom_site_fract_y
 _atom_site_fract_z
 _atom_site_occupancy
  Ba  Ba0  1  0.75000000  0.75000000  0.75000000  1
  Ba  Ba1  1  0.25000000  0.25000000  0.25000000  1
  Pr  Pr0  1  0.50000000  0.50000000  0.50000000  1
  Pr  Pr1  1  0.00000000  0.00000000  0.00000000  1
  O  O0  1  0.75000000  0.33691200  0.16308800  1
  O  O1  1  0.16308800  0.75000000  0.33691200  1
  O  O2  1  0.33691200  0.16308800  0.75000000  1
  O  O3  1  0.25000000  0.66308800  0.83691200  1
  O  O4  1  0.66308800  0.83691200  0.25000000  1
  O  O5  1  0.83691200  0.25000000  0.66308800  1
loop_
_geom_bond_atom_site_label_1
_geom_bond_atom_site_label_2
_geom_bond_distance
_geom_bond_site_symmetry_2
Ba0 O0 2.681994 1_556
Ba0 O2 2.681994 1_565
Ba0 O1 2.681994 1_655
Ba0 O5 3.254242 1_565
Ba0 O5 3.254242 1_555
Ba0 O3 3.254242 1_655
Ba0 O4 3.254242 1_555
Ba0 O3 3.254242 1_555
Ba0 O4 3.254242 1_556
Ba1 O4 2.681994 1_545
Ba1 O3 2.681994 1_554
Ba1 O5 2.681994 1_455
Ba1 O1 3.254242 1_555
Ba1 O1 3.254242 1_545
Ba1 O0 3.254242 1_455
Ba1 O2 3.254242 1_555
Ba1 O0 3.254242 1_555
Ba1 O2 3.254242 1_554
O0 Pr1 2.349661 1_655
O0 Pr0 2.349661 1_555
O1 Pr1 2.349661 1_565
O1 Pr0 2.349661 1_555
O2 Pr0 2.349661 1_555
O2 Pr1 2.349661 1_556
O3 Pr1 2.349661 1_566
O3 Pr0 2.349661 1_555
O4 Pr0 2.349661 1_555
O4 Pr1 2.349661 1_665
O5 Pr1 2.349661 1_656
O5 Pr0 2.349661 1_555
