# generated using pymatgen
data_SrNi2Te3(ClO4)2
_symmetry_space_group_name_H-M   'P 1'
_cell_length_a   9.00891400
_cell_length_b   6.73647100
_cell_length_c   19.44312046
_cell_angle_alpha   71.86905749
_cell_angle_beta   90.00000000
_cell_angle_gamma   90.00000000
_symmetry_Int_Tables_number   1
_chemical_formula_structural   SrNi2Te3(ClO4)2
_chemical_formula_sum   'Sr4 Ni8 Te12 Cl8 O32'
_cell_volume   1121.38161596
_cell_formula_units_Z   4
loop_
 _symmetry_equiv_pos_site_id
 _symmetry_equiv_pos_as_xyz
  1  'x, y, z'
loop_
 _atom_site_type_symbol
 _atom_site_label
 _atom_site_symmetry_multiplicity
 _atom_site_fract_x
 _atom_site_fract_y
 _atom_site_fract_z
 _atom_site_occupancy
  Sr  Sr0  1  0.41165000  0.01691600  0.72343300  1
  Sr  Sr1  1  0.58835000  0.98308400  0.27656700  1
  Sr  Sr2  1  0.91165000  0.98308400  0.77656700  1
  Sr  Sr3  1  0.08835000  0.01691600  0.22343300  1
  Ni  Ni0  1  0.25165500  0.57723400  0.31984800  1
  Ni  Ni1  1  0.75165400  0.42276600  0.18015200  1
  Ni  Ni2  1  0.95934800  0.31552800  0.31988600  1
  Ni  Ni3  1  0.04065200  0.68447200  0.68011400  1
  Ni  Ni4  1  0.74834500  0.42276600  0.68015200  1
  Ni  Ni5  1  0.24834500  0.57723400  0.81984800  1
  Ni  Ni6  1  0.45934800  0.68447200  0.18011400  1
  Ni  Ni7  1  0.54065200  0.31552800  0.81988600  1
  Te  Te0  1  0.39415900  0.59524200  0.63509600  1
  Te  Te1  1  0.07442700  0.29177400  0.60746200  1
  Te  Te2  1  0.42557300  0.29177400  0.10746200  1
  Te  Te3  1  0.77616600  0.95735700  0.11223100  1
  Te  Te4  1  0.92557300  0.70822600  0.39253800  1
  Te  Te5  1  0.27616600  0.04264300  0.38776900  1
  Te  Te6  1  0.60584100  0.40475800  0.36490400  1
  Te  Te7  1  0.57442700  0.70822600  0.89253800  1
  Te  Te8  1  0.22383400  0.04264300  0.88776900  1
  Te  Te9  1  0.89415900  0.40475800  0.86490400  1
  Te  Te10  1  0.72383400  0.95735700  0.61223100  1
  Te  Te11  1  0.10584100  0.59524200  0.13509600  1
  Cl  Cl0  1  0.90549000  0.23982300  0.44815600  1
  Cl  Cl1  1  0.79799700  0.55875100  0.05076300  1
  Cl  Cl2  1  0.09451000  0.76017700  0.55184400  1
  Cl  Cl3  1  0.59451000  0.23982300  0.94815600  1
  Cl  Cl4  1  0.40549000  0.76017700  0.05184400  1
  Cl  Cl5  1  0.70200300  0.55875100  0.55076300  1
  Cl  Cl6  1  0.20200300  0.44124900  0.94923700  1
  Cl  Cl7  1  0.29799700  0.44124900  0.44923700  1
  O  O0  1  0.01972000  0.12409300  0.87051500  1
  O  O1  1  0.94441100  0.99131100  0.33544600  1
  O  O2  1  0.98028000  0.87590700  0.12948500  1
  O  O3  1  0.52111300  0.38173400  0.18028700  1
  O  O4  1  0.21372000  0.88993000  0.82069200  1
  O  O5  1  0.23126000  0.67205800  0.20200500  1
  O  O6  1  0.26874000  0.67205800  0.70200500  1
  O  O7  1  0.81101800  0.72134700  0.67985300  1
  O  O8  1  0.76874000  0.32794200  0.79799500  1
  O  O9  1  0.28628000  0.88993000  0.32069200  1
  O  O10  1  0.47566400  0.58658500  0.29562100  1
  O  O11  1  0.02111300  0.61826600  0.31971300  1
  O  O12  1  0.78628000  0.11007000  0.17930800  1
  O  O13  1  0.77132300  0.68361800  0.85764100  1
  O  O14  1  0.73126000  0.32794200  0.29799500  1
  O  O15  1  0.02433600  0.58658500  0.79562100  1
  O  O16  1  0.97566400  0.41341500  0.20437900  1
  O  O17  1  0.72867700  0.68361800  0.35764100  1
  O  O18  1  0.97888700  0.38173400  0.68028700  1
  O  O19  1  0.44441100  0.00868900  0.16455400  1
  O  O20  1  0.47888700  0.61826600  0.81971300  1
  O  O21  1  0.31101800  0.27865300  0.82014700  1
  O  O22  1  0.05558900  0.00868900  0.66455400  1
  O  O23  1  0.55558900  0.99131100  0.83544600  1
  O  O24  1  0.27132300  0.31638200  0.64235900  1
  O  O25  1  0.71372000  0.11007000  0.67930800  1
  O  O26  1  0.48028000  0.12409300  0.37051500  1
  O  O27  1  0.51972000  0.87590700  0.62948500  1
  O  O28  1  0.68898200  0.72134700  0.17985300  1
  O  O29  1  0.22867700  0.31638200  0.14235900  1
  O  O30  1  0.18898200  0.27865300  0.32014700  1
  O  O31  1  0.52433600  0.41341500  0.70437900  1
loop_
_geom_bond_atom_site_label_1
_geom_bond_atom_site_label_2
_geom_bond_distance
_geom_bond_site_symmetry_2
Ni0 O10 2.068822 1_555
Ni0 O30 2.087392 1_555
Ni0 O11 2.095139 1_555
Ni0 O9 2.134547 1_555
Ni0 O5 2.186469 1_555
Ni1 O16 2.068831 1_555
Ni1 O28 2.087390 1_555
Ni1 O3 2.095130 1_555
Ni1 O12 2.134548 1_555
Ni1 O14 2.186469 1_555
Ni2 O30 2.083431 1_655
Ni2 O14 2.094829 1_555
Ni2 O11 2.112926 1_655
Ni2 O1 2.113904 1_545
Ni2 O16 2.139726 1_555
Ni3 O7 2.083431 1_455
Ni3 O6 2.094829 1_555
Ni3 O18 2.112926 1_455
Ni3 O22 2.113904 1_565
Ni3 O15 2.139726 1_555
Ni4 O31 2.068822 1_555
Ni4 O7 2.087392 1_555
Ni4 O18 2.095139 1_555
Ni4 O25 2.134547 1_555
Ni4 O8 2.186469 1_555
Ni5 O15 2.068822 1_555
Ni5 O21 2.087392 1_555
Ni5 O20 2.095139 1_555
Ni5 O4 2.134547 1_555
Ni5 O6 2.186469 1_555
Ni6 O28 2.083431 1_555
Ni6 O5 2.094829 1_555
Ni6 O3 2.112926 1_555
Ni6 O19 2.113904 1_565
Ni6 O10 2.139726 1_555
Ni7 O21 2.083431 1_555
Ni7 O8 2.094829 1_555
Ni7 O20 2.112926 1_555
Ni7 O23 2.113904 1_545
Ni7 O31 2.139726 1_555
Cl0 Ni2 2.433884 1_555
Cl1 Ni1 2.430646 1_555
Cl2 Ni3 2.433884 1_555
Cl3 Ni7 2.433884 1_555
Cl4 Ni6 2.433884 1_555
Cl5 Ni4 2.430645 1_555
Cl6 Ni5 2.430645 1_555
Cl7 Ni0 2.430645 1_555
O0 Te8 1.918434 1_555
O0 Te9 2.176645 1_455
O0 Sr2 2.503344 1_445
O1 Te4 1.892127 1_555
O1 Sr3 2.494121 1_665
O2 Te3 1.918434 1_555
O2 Te11 2.176645 1_655
O2 Sr3 2.503344 1_665
O3 Te2 1.909720 1_555
O3 Sr1 2.820335 1_545
O4 Te8 1.898040 1_565
O4 Sr0 2.545683 1_565
O4 Sr2 2.863626 1_455
O5 Te11 1.912013 1_555
O5 Sr3 2.798293 1_565
O6 Te0 1.912013 1_555
O6 Sr0 2.798293 1_565
O7 Te10 1.890046 1_555
O7 Sr2 3.087105 1_555
O8 Te9 1.912013 1_555
O8 Sr2 2.798293 1_545
O9 Te5 1.898040 1_565
O9 Sr3 2.545683 1_565
O9 Sr1 2.863626 1_555
O10 Te6 1.913990 1_555
O10 Sr1 2.772406 1_555
O11 Te4 1.909720 1_455
O11 Sr3 2.820335 1_565
O12 Te3 1.898040 1_545
O12 Sr1 2.545683 1_545
O12 Sr3 2.863626 1_655
O13 Te7 1.924653 1_555
O13 Te9 2.146702 1_555
O13 Sr2 2.484656 1_555
O14 Te6 1.912013 1_555
O14 Sr1 2.798293 1_545
O15 Te9 1.913990 1_455
O15 Sr2 2.772406 1_455
O16 Te11 1.913990 1_655
O16 Sr3 2.772406 1_655
O17 Te4 1.924653 1_555
O17 Te6 2.146702 1_555
O17 Sr1 2.484656 1_555
O18 Te1 1.909720 1_655
O18 Sr2 2.820335 1_545
O19 Te2 1.892127 1_555
O19 Sr1 2.494121 1_545
O20 Te7 1.909720 1_555
O20 Sr0 2.820335 1_565
O21 Te8 1.890046 1_555
O21 Sr0 3.087105 1_555
O22 Te1 1.892127 1_555
O22 Sr2 2.494121 1_445
O23 Te7 1.892127 1_555
O23 Sr0 2.494121 1_565
O24 Te1 1.924653 1_555
O24 Te0 2.146702 1_555
O24 Sr0 2.484656 1_555
O25 Te10 1.898040 1_545
O25 Sr2 2.545683 1_545
O25 Sr0 2.863626 1_555
O26 Te5 1.918434 1_555
O26 Te6 2.176645 1_555
O26 Sr1 2.503344 1_545
O27 Te10 1.918434 1_555
O27 Te0 2.176645 1_555
O27 Sr0 2.503344 1_565
O28 Te3 1.890046 1_555
O28 Sr1 3.087105 1_555
O29 Te2 1.924653 1_555
O29 Te11 2.146702 1_555
O29 Sr3 2.484656 1_555
O30 Te5 1.890046 1_555
O30 Sr3 3.087105 1_555
O31 Te0 1.913990 1_555
O31 Sr0 2.772406 1_555
