# generated using pymatgen
data_SiO2
_symmetry_space_group_name_H-M   'P 1'
_cell_length_a   12.25741513
_cell_length_b   12.25741513
_cell_length_c   12.25741513
_cell_angle_alpha   140.14826009
_cell_angle_beta   113.35813785
_cell_angle_gamma   80.55025743
_symmetry_Int_Tables_number   1
_chemical_formula_structural   SiO2
_chemical_formula_sum   'Si20 O40'
_cell_volume   1052.17698005
_cell_formula_units_Z   20
loop_
 _symmetry_equiv_pos_site_id
 _symmetry_equiv_pos_as_xyz
  1  'x, y, z'
loop_
 _atom_site_type_symbol
 _atom_site_label
 _atom_site_symmetry_multiplicity
 _atom_site_fract_x
 _atom_site_fract_y
 _atom_site_fract_z
 _atom_site_occupancy
  Si  Si0  1  0.18083690  0.85289521  0.95450288  1
  Si  Si1  1  0.81916310  0.77366598  0.67205831  1
  Si  Si2  1  0.39839233  0.72633402  0.04549712  1
  Si  Si3  1  0.60160767  0.64710479  0.32794169  1
  Si  Si4  1  0.81916310  0.14710479  0.04549712  1
  Si  Si5  1  0.18083690  0.22633402  0.32794169  1
  Si  Si6  1  0.60160767  0.27366598  0.95450288  1
  Si  Si7  1  0.39839233  0.35289521  0.67205831  1
  Si  Si8  1  0.04493497  0.41432638  0.25777245  1
  Si  Si9  1  0.95506503  0.21283748  0.36939041  1
  Si  Si10  1  0.65655293  0.28716252  0.74222755  1
  Si  Si11  1  0.34344707  0.08567362  0.63060959  1
  Si  Si12  1  0.95506503  0.58567362  0.74222755  1
  Si  Si13  1  0.04493497  0.78716252  0.63060959  1
  Si  Si14  1  0.34344707  0.71283748  0.25777245  1
  Si  Si15  1  0.65655293  0.91432638  0.36939041  1
  Si  Si16  1  0.11342731  0.05860152  0.67202983  1
  Si  Si17  1  0.88657269  0.55860152  0.94517421  1
  Si  Si18  1  0.88657269  0.94139848  0.32797017  1
  Si  Si19  1  0.11342731  0.44139848  0.05482579  1
  O  O0  1  0.07616653  0.74541810  0.91203225  1
  O  O1  1  0.92383347  0.83586472  0.66925157  1
  O  O2  1  0.33338585  0.66413528  0.08796775  1
  O  O3  1  0.66661415  0.75458190  0.33074843  1
  O  O4  1  0.92383347  0.25458190  0.08796775  1
  O  O5  1  0.07616653  0.16413528  0.33074843  1
  O  O6  1  0.66661415  0.33586472  0.91203225  1
  O  O7  1  0.33338585  0.24541810  0.66925157  1
  O  O8  1  0.31005074  0.81005074  0.00000000  1
  O  O9  1  0.68994926  0.68994926  0.50000000  1
  O  O10  1  0.68994926  0.18994926  -0.00000000  1
  O  O11  1  0.31005074  0.31005074  0.50000000  1
  O  O12  1  0.14581256  0.79701848  0.77307451  1
  O  O13  1  0.85418844  0.62726295  0.65120692  1
  O  O14  1  0.52394397  0.87273705  0.22692549  1
  O  O15  1  0.47605603  0.70298152  0.34879308  1
  O  O16  1  0.85418844  0.20298152  0.22692549  1
  O  O17  1  0.14581256  0.37273705  0.34879308  1
  O  O18  1  0.47605603  0.12726295  0.77307451  1
  O  O19  1  0.52394397  0.29701848  0.65120692  1
  O  O20  1  0.19083683  0.05955218  0.13128665  1
  O  O21  1  0.80916317  0.94044882  0.86871335  1
  O  O22  1  0.42826553  0.55955218  0.86871335  1
  O  O23  1  0.57173447  0.44044782  0.13128665  1
  O  O24  1  0.10066703  0.43917991  0.17842716  1
  O  O25  1  0.89933297  0.07776013  0.33851287  1
  O  O26  1  0.76075174  0.42223987  0.82157284  1
  O  O27  1  0.23924826  0.06082009  0.66148713  1
  O  O28  1  0.89933297  0.56082009  0.82157284  1
  O  O29  1  0.10066703  0.92223987  0.66148713  1
  O  O30  1  0.23924826  0.57776013  0.17842716  1
  O  O31  1  0.76075174  0.93917991  0.33851287  1
  O  O32  1  0.00744717  0.59047675  0.41697042  1
  O  O33  1  0.99255283  0.40952325  0.58302958  1
  O  O34  1  0.67350633  0.09047675  0.58302958  1
  O  O35  1  0.32649367  0.90952325  0.41697042  1
  O  O36  1  -0.00000000  -0.00000000  0.50000000  1
  O  O37  1  -0.00000000  0.50000000  -0.00000000  1
  O  O38  1  0.11691608  0.25000000  0.86691608  1
  O  O39  1  0.88308392  0.75000000  0.13308392  1
loop_
_geom_bond_atom_site_label_1
_geom_bond_atom_site_label_2
_geom_bond_distance
_geom_bond_site_symmetry_2
O0 Si12 1.617573 1_455
O0 Si0 1.620177 1_555
O1 Si13 1.617568 1_655
O1 Si1 1.620170 1_555
O2 Si14 1.617576 1_555
O2 Si2 1.620168 1_555
O3 Si15 1.617580 1_555
O3 Si3 1.620177 1_555
O4 Si8 1.617573 1_655
O4 Si4 1.620177 1_555
O5 Si9 1.617568 1_455
O5 Si5 1.620170 1_555
O6 Si10 1.617576 1_555
O6 Si6 1.620168 1_555
O7 Si11 1.617580 1_555
O7 Si7 1.620177 1_555
O8 Si2 1.603582 1_555
O8 Si0 1.603582 1_554
O9 Si3 1.603582 1_555
O9 Si1 1.603582 1_555
O10 Si6 1.603582 1_554
O10 Si4 1.603582 1_555
O11 Si5 1.603582 1_555
O11 Si7 1.603582 1_555
O12 Si0 1.612380 1_555
O12 Si13 1.614273 1_555
O13 Si1 1.612377 1_555
O13 Si12 1.614278 1_555
O14 Si2 1.612377 1_555
O14 Si15 1.614265 1_555
O15 Si3 1.612377 1_555
O15 Si14 1.614269 1_555
O16 Si4 1.612377 1_555
O16 Si9 1.614269 1_555
O17 Si5 1.612376 1_555
O17 Si8 1.614283 1_555
O18 Si6 1.612377 1_555
O18 Si11 1.614265 1_555
O19 Si7 1.612377 1_555
O19 Si10 1.614269 1_555
O20 Si5 1.609505 1_555
O20 Si0 1.609521 1_544
O21 Si1 1.609506 1_555
O21 Si4 1.609514 1_566
O22 Si7 1.609516 1_555
O22 Si2 1.609516 1_556
O23 Si3 1.609516 1_555
O23 Si6 1.609516 1_554
O24 Si8 1.598576 1_555
O24 Si19 1.604084 1_555
O25 Si9 1.598585 1_555
O25 Si18 1.604075 1_545
O26 Si10 1.598576 1_555
O26 Si17 1.604093 1_555
O27 Si11 1.598568 1_555
O27 Si16 1.604102 1_555
O28 Si12 1.598576 1_555
O28 Si17 1.604084 1_555
O29 Si13 1.598585 1_555
O29 Si16 1.604075 1_565
O30 Si14 1.598576 1_555
O30 Si19 1.604093 1_555
O31 Si15 1.598568 1_555
O31 Si18 1.604102 1_555
O32 Si8 1.611516 1_555
O32 Si13 1.611521 1_555
O33 Si12 1.611516 1_555
O33 Si9 1.611521 1_555
O34 Si15 1.611519 1_545
O34 Si10 1.611521 1_555
O35 Si11 1.611519 1_565
O35 Si14 1.611521 1_555
O36 Si18 1.604045 1_445
O36 Si16 1.604045 1_555
O37 Si17 1.604037 1_454
O37 Si19 1.604037 1_555
O38 Si16 1.599773 1_555
O38 Si19 1.599777 1_556
O39 Si18 1.599773 1_555
O39 Si17 1.599777 1_554
