# generated using pymatgen
data_Tl3PSe4
_symmetry_space_group_name_H-M   'P 1'
_cell_length_a   9.95526600
_cell_length_b   10.48690200
_cell_length_c   10.58233100
_cell_angle_alpha   90.00000000
_cell_angle_beta   90.00000000
_cell_angle_gamma   90.00000000
_symmetry_Int_Tables_number   1
_chemical_formula_structural   Tl3PSe4
_chemical_formula_sum   'Tl12 P4 Se16'
_cell_volume   1104.79428680
_cell_formula_units_Z   4
loop_
 _symmetry_equiv_pos_site_id
 _symmetry_equiv_pos_as_xyz
  1  'x, y, z'
loop_
 _atom_site_type_symbol
 _atom_site_label
 _atom_site_symmetry_multiplicity
 _atom_site_fract_x
 _atom_site_fract_y
 _atom_site_fract_z
 _atom_site_occupancy
  Tl  Tl0  1  0.57802500  0.69360800  0.54635100  1
  Tl  Tl1  1  0.07802500  0.80639200  0.54635100  1
  Tl  Tl2  1  0.01354500  0.64188200  0.25000000  1
  Tl  Tl3  1  0.98645500  0.35811800  0.75000000  1
  Tl  Tl4  1  0.51354500  0.85811800  0.25000000  1
  Tl  Tl5  1  0.92197500  0.19360800  0.04635100  1
  Tl  Tl6  1  0.92197500  0.19360800  0.45364900  1
  Tl  Tl7  1  0.42197500  0.30639200  0.45364900  1
  Tl  Tl8  1  0.07802500  0.80639200  0.95364900  1
  Tl  Tl9  1  0.42197500  0.30639200  0.04635100  1
  Tl  Tl10  1  0.48645500  0.14188200  0.75000000  1
  Tl  Tl11  1  0.57802500  0.69360800  0.95364900  1
  P  P0  1  0.79806000  0.94575700  0.75000000  1
  P  P1  1  0.29806000  0.55424300  0.75000000  1
  P  P2  1  0.70194000  0.44575700  0.25000000  1
  P  P3  1  0.20194000  0.05424300  0.25000000  1
  Se  Se0  1  0.81087500  0.50956600  0.42379700  1
  Se  Se1  1  0.68912500  0.00956600  0.57620300  1
  Se  Se2  1  0.49230100  0.52298400  0.25000000  1
  Se  Se3  1  0.50769900  0.47701600  0.75000000  1
  Se  Se4  1  0.68668300  0.23264800  0.25000000  1
  Se  Se5  1  0.31087500  0.99043400  0.42379700  1
  Se  Se6  1  0.18912500  0.49043400  0.57620300  1
  Se  Se7  1  0.81331700  0.73264800  0.75000000  1
  Se  Se8  1  0.31331700  0.76735200  0.75000000  1
  Se  Se9  1  0.18668300  0.26735200  0.25000000  1
  Se  Se10  1  0.31087500  0.99043400  0.07620300  1
  Se  Se11  1  0.18912500  0.49043400  0.92379700  1
  Se  Se12  1  0.99230100  0.97701600  0.25000000  1
  Se  Se13  1  0.68912500  0.00956600  0.92379700  1
  Se  Se14  1  0.81087500  0.50956600  0.07620300  1
  Se  Se15  1  0.00769900  0.02298400  0.75000000  1
loop_
_geom_bond_atom_site_label_1
_geom_bond_atom_site_label_2
_geom_bond_distance
_geom_bond_site_symmetry_2
P0 Se1 2.237507 1_565
P0 Se13 2.237507 1_565
P0 Se15 2.238641 1_665
P0 Se7 2.240009 1_555
P1 Se11 2.237507 1_555
P1 Se6 2.237507 1_555
P1 Se3 2.238641 1_555
P1 Se8 2.240009 1_555
P2 Se0 2.237507 1_555
P2 Se14 2.237507 1_555
P2 Se2 2.238641 1_555
P2 Se4 2.240009 1_555
P3 Se5 2.237507 1_545
P3 Se10 2.237507 1_545
P3 Se12 2.238641 1_445
P3 Se9 2.240009 1_555
Se0 Tl2 3.062485 1_655
Se0 Tl0 3.283367 1_555
Se1 Tl10 3.062485 1_555
Se1 Tl6 3.283367 1_555
Se2 Tl7 3.208379 1_555
Se2 Tl9 3.208379 1_555
Se3 Tl11 3.208379 1_555
Se3 Tl0 3.208379 1_555
Se4 Tl6 3.209175 1_555
Se4 Tl5 3.209175 1_555
Se5 Tl4 3.062485 1_555
Se5 Tl1 3.283367 1_555
Se6 Tl3 3.062485 1_455
Se6 Tl7 3.283367 1_555
Se7 Tl11 3.209175 1_555
Se7 Tl0 3.209175 1_555
Se8 Tl8 3.209175 1_555
Se8 Tl1 3.209175 1_555
Se9 Tl7 3.209175 1_555
Se9 Tl9 3.209175 1_555
Se10 Tl4 3.062485 1_555
Se10 Tl8 3.283367 1_554
Se11 Tl3 3.062485 1_455
Se11 Tl9 3.283367 1_556
Se12 Tl6 3.208379 1_565
Se12 Tl5 3.208379 1_565
Se13 Tl10 3.062485 1_555
Se13 Tl5 3.283367 1_556
Se14 Tl2 3.062485 1_655
Se14 Tl11 3.283367 1_554
Se15 Tl8 3.208379 1_545
Se15 Tl1 3.208379 1_545
