# generated using pymatgen
data_InGaSe2
_symmetry_space_group_name_H-M   'P 1'
_cell_length_a   8.28681100
_cell_length_b   8.28681100
_cell_length_c   6.33552100
_cell_angle_alpha   90.00000000
_cell_angle_beta   90.00000000
_cell_angle_gamma   90.00000000
_symmetry_Int_Tables_number   1
_chemical_formula_structural   InGaSe2
_chemical_formula_sum   'In4 Ga4 Se8'
_cell_volume   435.06806126
_cell_formula_units_Z   4
loop_
 _symmetry_equiv_pos_site_id
 _symmetry_equiv_pos_as_xyz
  1  'x, y, z'
loop_
 _atom_site_type_symbol
 _atom_site_label
 _atom_site_symmetry_multiplicity
 _atom_site_fract_x
 _atom_site_fract_y
 _atom_site_fract_z
 _atom_site_occupancy
  In  In0  1  0.50000000  0.00000000  0.85523500  1
  In  In1  1  0.50000000  0.00000000  0.35523500  1
  In  In2  1  0.00000000  0.50000000  0.64476500  1
  In  In3  1  0.00000000  0.50000000  0.14476500  1
  Ga  Ga0  1  0.50000000  0.50000000  0.50000000  1
  Ga  Ga1  1  0.00000000  0.00000000  0.00000000  1
  Ga  Ga2  1  0.50000000  0.50000000  0.00000000  1
  Ga  Ga3  1  0.00000000  0.00000000  0.50000000  1
  Se  Se0  1  0.66131400  0.66131400  0.25000000  1
  Se  Se1  1  0.16131400  0.16131400  0.75000000  1
  Se  Se2  1  0.66131400  0.33868600  0.75000000  1
  Se  Se3  1  0.16131400  0.83868600  0.25000000  1
  Se  Se4  1  0.83868600  0.16131400  0.25000000  1
  Se  Se5  1  0.33868600  0.66131400  0.75000000  1
  Se  Se6  1  0.83868600  0.83868600  0.75000000  1
  Se  Se7  1  0.33868600  0.33868600  0.25000000  1
loop_
_geom_bond_atom_site_label_1
_geom_bond_atom_site_label_2
_geom_bond_distance
_geom_bond_site_symmetry_2
In0 Se2 3.179410 1_555
In0 Se6 3.179410 1_545
In0 Se1 3.179410 1_555
In0 Se5 3.179410 1_545
In1 Se3 3.179410 1_545
In1 Se0 3.179410 1_545
In1 Se4 3.179410 1_555
In1 Se7 3.179410 1_555
In2 Se5 3.179410 1_555
In2 Se6 3.179410 1_455
In2 Se1 3.179410 1_555
In2 Se2 3.179410 1_455
In3 Se4 3.179410 1_455
In3 Se3 3.179410 1_555
In3 Se0 3.179410 1_455
In3 Se7 3.179410 1_555
Ga0 Se0 2.466299 1_555
Ga0 Se5 2.466299 1_555
Ga0 Se7 2.466299 1_555
Ga0 Se2 2.466299 1_555
Ga1 Se6 2.466299 1_444
Ga1 Se4 2.466299 1_455
Ga1 Se1 2.466299 1_554
Ga1 Se3 2.466299 1_545
Ga2 Se0 2.466299 1_555
Ga2 Se7 2.466299 1_555
Ga2 Se5 2.466299 1_554
Ga2 Se2 2.466299 1_554
Ga3 Se6 2.466299 1_445
Ga3 Se4 2.466299 1_455
Ga3 Se1 2.466299 1_555
Ga3 Se3 2.466299 1_545
