# generated using pymatgen
data_NaAl11O17
_symmetry_space_group_name_H-M   'P 1'
_cell_length_a   5.64931655
_cell_length_b   5.64931655
_cell_length_c   22.93213256
_cell_angle_alpha   82.99255277
_cell_angle_beta   82.99255277
_cell_angle_gamma   60.00931576
_symmetry_Int_Tables_number   1
_chemical_formula_structural   NaAl11O17
_chemical_formula_sum   'Na2 Al22 O34'
_cell_volume   627.55915365
_cell_formula_units_Z   2
loop_
 _symmetry_equiv_pos_site_id
 _symmetry_equiv_pos_as_xyz
  1  'x, y, z'
loop_
 _atom_site_type_symbol
 _atom_site_label
 _atom_site_symmetry_multiplicity
 _atom_site_fract_x
 _atom_site_fract_y
 _atom_site_fract_z
 _atom_site_occupancy
  Na  Na0  1  0.08620800  0.08620800  0.74141200  1
  Na  Na1  1  0.63994100  0.63994100  0.24227100  1
  Al  Al0  1  0.00046900  0.00046900  0.99975900  1
  Al  Al1  1  0.70435900  0.20003300  0.39188700  1
  Al  Al2  1  0.49981400  0.49981400  0.49978300  1
  Al  Al3  1  0.20410600  0.20410600  0.89237800  1
  Al  Al4  1  0.69958500  0.20399100  0.89240900  1
  Al  Al5  1  0.20399100  0.69958500  0.89240900  1
  Al  Al6  1  0.32507300  0.32507300  0.02469000  1
  Al  Al7  1  0.27616000  0.27616000  0.17551000  1
  Al  Al8  1  0.22564300  0.22564300  0.32486800  1
  Al  Al9  1  0.70396900  0.70396900  0.39330700  1
  Al  Al10  1  0.20003300  0.70435900  0.39188700  1
  Al  Al11  1  0.17539400  0.17539400  0.47412300  1
  Al  Al12  1  0.82509700  0.82509700  0.52461700  1
  Al  Al13  1  0.79912200  0.29699800  0.60687200  1
  Al  Al14  1  0.29693100  0.29693100  0.60689000  1
  Al  Al15  1  0.77480400  0.77480400  0.67575700  1
  Al  Al16  1  0.72494900  0.72494900  0.82495300  1
  Al  Al17  1  0.67543700  0.67543700  0.97403100  1
  Al  Al18  1  0.79735200  0.29927900  0.10746300  1
  Al  Al19  1  0.29927900  0.79735200  0.10746300  1
  Al  Al20  1  0.79770700  0.79770700  0.10551400  1
  Al  Al21  1  0.29699800  0.79912200  0.60687200  1
  O  O0  1  0.64059900  0.16833700  0.55025000  1
  O  O1  1  0.45285100  0.45285100  0.64167200  1
  O  O2  1  0.54684800  0.05091700  0.85511100  1
  O  O3  1  0.35177100  0.35177100  0.94464700  1
  O  O4  1  0.14067800  0.14067800  0.05064900  1
  O  O5  1  0.66882300  0.14009600  0.05005600  1
  O  O6  1  0.14009600  0.66882300  0.05005600  1
  O  O7  1  0.94294900  0.45755700  0.14710200  1
  O  O8  1  0.45496900  0.45496900  0.14609900  1
  O  O9  1  0.95218800  0.95218800  0.14181000  1
  O  O10  1  0.24545500  0.24545500  0.25024900  1
  O  O11  1  0.04765500  0.04765500  0.35530000  1
  O  O12  1  0.55196000  0.04559900  0.35483300  1
  O  O13  1  0.04559900  0.55196000  0.35483300  1
  O  O14  1  0.82888800  0.36091500  0.44994400  1
  O  O15  1  0.36066100  0.36066100  0.44952900  1
  O  O16  1  0.85177400  0.85177400  0.44456100  1
  O  O17  1  0.14826200  0.14826200  0.55525500  1
  O  O18  1  0.64070900  0.64070900  0.55031300  1
  O  O19  1  0.16833700  0.64059900  0.55025000  1
  O  O20  1  0.95530300  0.44262100  0.64703700  1
  O  O21  1  0.95519700  0.95519700  0.64701700  1
  O  O22  1  0.44262100  0.95530300  0.64703700  1
  O  O23  1  0.74988000  0.74988000  0.75038200  1
  O  O24  1  0.04814800  0.04814800  0.85540000  1
  O  O25  1  0.54695900  0.54695900  0.85515000  1
  O  O26  1  0.05091700  0.54684800  0.85511100  1
  O  O27  1  0.86085500  0.32885700  0.94981400  1
  O  O28  1  0.32885700  0.86085500  0.94981400  1
  O  O29  1  0.86078300  0.86078300  0.94971200  1
  O  O30  1  0.64864600  0.64864600  0.05515500  1
  O  O31  1  0.45755700  0.94294900  0.14710200  1
  O  O32  1  0.54915600  0.54915600  0.35554200  1
  O  O33  1  0.36091500  0.82888800  0.44994400  1
loop_
_geom_bond_atom_site_label_1
_geom_bond_atom_site_label_2
_geom_bond_distance
_geom_bond_site_symmetry_2
Na0 O24 2.587922 1_555
Na0 O21 2.666618 1_445
Na0 O20 2.668997 1_455
Na0 O22 2.668997 1_545
Na1 O7 2.574629 1_555
Na1 O31 2.574629 1_555
Na1 O32 2.624152 1_555
Al0 O27 1.901241 1_455
Al0 O28 1.901241 1_545
Al0 O29 1.904507 1_445
Al0 O6 1.918361 1_546
Al0 O5 1.918361 1_456
Al0 O4 1.922248 1_556
Al1 O11 1.821096 1_655
Al1 O12 1.826128 1_555
Al1 O32 1.844403 1_555
Al1 O16 2.012707 1_545
Al1 O15 2.060528 1_555
Al1 O14 2.063132 1_555
Al2 O33 1.902648 1_555
Al2 O14 1.902648 1_555
Al2 O15 1.903673 1_555
Al2 O0 1.919764 1_555
Al2 O19 1.919764 1_555
Al2 O18 1.921795 1_555
Al3 O2 1.824804 1_555
Al3 O26 1.824804 1_555
Al3 O24 1.847222 1_555
Al3 O3 2.003046 1_555
Al3 O28 2.056410 1_545
Al3 O27 2.056410 1_455
Al4 O2 1.824946 1_555
Al4 O25 1.825711 1_555
Al4 O24 1.847785 1_655
Al4 O3 2.005650 1_555
Al4 O29 2.054397 1_545
Al4 O27 2.054825 1_555
Al5 O26 1.824946 1_555
Al5 O25 1.825711 1_555
Al5 O24 1.847785 1_565
Al5 O3 2.005650 1_555
Al5 O29 2.054397 1_455
Al5 O28 2.054825 1_555
Al6 O6 1.816621 1_555
Al6 O5 1.816621 1_555
Al6 O3 1.817252 1_554
Al6 O4 1.818490 1_555
Al7 O10 1.697856 1_555
Al7 O8 1.784190 1_555
Al7 O7 1.796068 1_455
Al7 O31 1.796068 1_545
Al8 O10 1.694765 1_555
Al8 O12 1.780210 1_555
Al8 O13 1.780210 1_555
Al8 O11 1.782543 1_555
Al9 O12 1.831171 1_565
Al9 O13 1.831171 1_655
Al9 O32 1.847735 1_555
Al9 O16 1.987932 1_555
Al9 O33 2.045246 1_555
Al9 O14 2.045246 1_555
Al10 O11 1.821096 1_565
Al10 O13 1.826128 1_555
Al10 O32 1.844403 1_555
Al10 O16 2.012707 1_455
Al10 O15 2.060528 1_555
Al10 O33 2.063132 1_555
Al11 O14 1.819281 1_455
Al11 O33 1.819281 1_545
Al11 O15 1.820999 1_555
Al11 O17 1.841978 1_555
Al12 O19 1.816594 1_655
Al12 O0 1.816594 1_565
Al12 O18 1.817304 1_555
Al12 O16 1.817547 1_555
Al13 O1 1.818637 1_555
Al13 O20 1.847285 1_555
Al13 O21 1.848171 1_545
Al13 O17 2.003417 1_655
Al13 O0 2.044766 1_555
Al13 O18 2.045721 1_555
Al14 O1 1.818375 1_555
Al14 O22 1.847463 1_545
Al14 O20 1.847463 1_455
Al14 O17 2.000848 1_555
Al14 O19 2.046733 1_555
Al14 O0 2.046733 1_555
Al15 O23 1.694246 1_555
Al15 O22 1.794401 1_555
Al15 O20 1.794401 1_555
Al15 O21 1.794991 1_555
Al16 O23 1.693020 1_555
Al16 O26 1.780562 1_655
Al16 O2 1.780562 1_565
Al16 O25 1.781201 1_555
Al17 O27 1.819945 1_555
Al17 O28 1.819945 1_555
Al17 O29 1.820677 1_555
Al17 O30 1.841793 1_556
Al18 O9 1.818501 1_545
Al18 O8 1.836051 1_555
Al18 O7 1.848886 1_555
Al18 O30 2.012629 1_555
Al18 O4 2.047696 1_655
Al18 O5 2.060066 1_555
Al19 O9 1.818501 1_455
Al19 O8 1.836051 1_555
Al19 O31 1.848886 1_555
Al19 O30 2.012629 1_555
Al19 O4 2.047696 1_565
Al19 O6 2.060066 1_555
Al20 O9 1.825360 1_555
Al20 O31 1.855505 1_555
Al20 O7 1.855505 1_555
Al20 O30 1.983779 1_555
Al20 O5 2.026495 1_565
Al20 O6 2.026495 1_655
Al21 O1 1.818637 1_555
Al21 O22 1.847285 1_555
Al21 O21 1.848171 1_455
Al21 O17 2.003417 1_565
Al21 O19 2.044766 1_555
Al21 O18 2.045721 1_555
