# generated using pymatgen
data_Nd2Th2O7
_symmetry_space_group_name_H-M   'P 1'
_cell_length_a   3.90965800
_cell_length_b   8.00375700
_cell_length_c   11.29922300
_cell_angle_alpha   90.00000000
_cell_angle_beta   90.00000000
_cell_angle_gamma   90.00000000
_symmetry_Int_Tables_number   1
_chemical_formula_structural   Nd2Th2O7
_chemical_formula_sum   'Nd4 Th4 O14'
_cell_volume   353.57475036
_cell_formula_units_Z   2
loop_
 _symmetry_equiv_pos_site_id
 _symmetry_equiv_pos_as_xyz
  1  'x, y, z'
loop_
 _atom_site_type_symbol
 _atom_site_label
 _atom_site_symmetry_multiplicity
 _atom_site_fract_x
 _atom_site_fract_y
 _atom_site_fract_z
 _atom_site_occupancy
  Nd  Nd0  1  0.00000000  0.75000000  0.23107500  1
  Nd  Nd1  1  0.50000000  0.00000000  0.50000000  1
  Nd  Nd2  1  0.00000000  0.25000000  0.76892500  1
  Nd  Nd3  1  0.50000000  0.50000000  0.50000000  1
  Th  Th0  1  0.00000000  0.75000000  0.74788100  1
  Th  Th1  1  0.00000000  0.25000000  0.25211900  1
  Th  Th2  1  0.50000000  0.00000000  0.00000000  1
  Th  Th3  1  0.50000000  0.50000000  0.00000000  1
  O  O0  1  0.00000000  0.96540000  0.37257800  1
  O  O1  1  0.50000000  0.25000000  0.13103400  1
  O  O2  1  0.00000000  0.01268500  0.12133000  1
  O  O3  1  0.00000000  0.98731500  0.87867000  1
  O  O4  1  0.00000000  0.51268500  0.87867000  1
  O  O5  1  0.50000000  0.25000000  0.87508100  1
  O  O6  1  0.50000000  0.75000000  0.61403900  1
  O  O7  1  0.00000000  0.03460000  0.62742200  1
  O  O8  1  0.00000000  0.46540000  0.62742200  1
  O  O9  1  0.00000000  0.53460000  0.37257800  1
  O  O10  1  0.50000000  0.25000000  0.38596100  1
  O  O11  1  0.50000000  0.75000000  0.12491900  1
  O  O12  1  0.00000000  0.48731500  0.12133000  1
  O  O13  1  0.50000000  0.75000000  0.86896600  1
loop_
_geom_bond_atom_site_label_1
_geom_bond_atom_site_label_2
_geom_bond_distance
_geom_bond_site_symmetry_2
Nd0 O11 2.293493 1_455
Nd0 O11 2.293493 1_555
Nd0 O9 2.351299 1_555
Nd0 O0 2.351299 1_555
Nd0 O12 2.440912 1_555
Nd0 O2 2.440912 1_565
Nd1 O6 2.379942 1_545
Nd1 O10 2.379942 1_555
Nd1 O0 2.443560 1_645
Nd1 O7 2.443560 1_555
Nd1 O7 2.443560 1_655
Nd1 O0 2.443560 1_545
Nd2 O5 2.293493 1_455
Nd2 O5 2.293493 1_555
Nd2 O7 2.351299 1_555
Nd2 O8 2.351299 1_555
Nd2 O4 2.440912 1_555
Nd2 O3 2.440912 1_545
Nd3 O6 2.379942 1_555
Nd3 O10 2.379942 1_555
Nd3 O9 2.443560 1_555
Nd3 O8 2.443560 1_655
Nd3 O9 2.443560 1_655
Nd3 O8 2.443560 1_555
O0 Th1 2.653538 1_565
O1 Th1 2.386050 1_555
O1 Th1 2.386050 1_655
O1 Th3 2.489153 1_555
O1 Th2 2.489153 1_555
O2 Th2 2.389796 1_555
O2 Th2 2.389796 1_455
O2 Th1 2.406595 1_555
O3 Th2 2.389796 1_466
O3 Th2 2.389796 1_566
O3 Th0 2.406595 1_555
O4 Th3 2.389796 1_456
O4 Th3 2.389796 1_556
O4 Th0 2.406595 1_555
O5 Th2 2.448684 1_556
O5 Th3 2.448684 1_556
O6 Th0 2.471526 1_555
O6 Th0 2.471526 1_655
O7 Th0 2.653538 1_545
O8 Th0 2.653538 1_555
O9 Th1 2.653538 1_555
O10 Th1 2.471526 1_555
O10 Th1 2.471526 1_655
O11 Th3 2.448684 1_555
O11 Th2 2.448684 1_565
O12 Th3 2.389796 1_455
O12 Th3 2.389796 1_555
O12 Th1 2.406595 1_555
O13 Th0 2.386050 1_655
O13 Th0 2.386050 1_555
O13 Th3 2.489153 1_556
O13 Th2 2.489153 1_566
