# generated using pymatgen
data_SrLaMnRuO6
_symmetry_space_group_name_H-M   'P 1'
_cell_length_a   5.64660100
_cell_length_b   8.02863758
_cell_length_c   5.76584900
_cell_angle_alpha   90.00035186
_cell_angle_beta   89.99955365
_cell_angle_gamma   90.05998681
_symmetry_Int_Tables_number   1
_chemical_formula_structural   SrLaMnRuO6
_chemical_formula_sum   'Sr2 La2 Mn2 Ru2 O12'
_cell_volume   261.39181308
_cell_formula_units_Z   2
loop_
 _symmetry_equiv_pos_site_id
 _symmetry_equiv_pos_as_xyz
  1  'x, y, z'
loop_
 _atom_site_type_symbol
 _atom_site_label
 _atom_site_symmetry_multiplicity
 _atom_site_fract_x
 _atom_site_fract_y
 _atom_site_fract_z
 _atom_site_occupancy
  Sr  Sr0  1  0.99383600  0.25105200  0.96187100  1
  Sr  Sr1  1  0.49382900  0.75105500  0.53812600  1
  La  La0  1  0.51060900  0.25213700  0.44891400  1
  La  La1  1  0.01061600  0.75213600  0.05109300  1
  Mn  Mn0  1  0.50046000  0.50137500  0.99302100  1
  Mn  Mn1  1  0.00047000  0.00137800  0.50698900  1
  Ru  Ru0  1  0.50040500  0.00004000  0.99778600  1
  Ru  Ru1  1  0.00039800  0.50004100  0.50221200  1
  O  O0  1  0.43017300  0.24095000  0.02771100  1
  O  O1  1  0.93017100  0.74094900  0.47229100  1
  O  O2  1  0.79619500  0.45795800  0.22527500  1
  O  O3  1  0.29619300  0.95795800  0.27471800  1
  O  O4  1  0.77785500  0.03753800  0.20353000  1
  O  O5  1  0.27785800  0.53753800  0.29646400  1
  O  O6  1  0.09045100  0.25896800  0.51849000  1
  O  O7  1  0.59044900  0.75896500  0.98151200  1
  O  O8  1  0.71231300  0.45527500  0.69365400  1
  O  O9  1  0.21231300  0.95527200  0.80634600  1
  O  O10  1  0.68770700  0.04470800  0.70995900  1
  O  O11  1  0.18770200  0.54470800  0.79003900  1
loop_
_geom_bond_atom_site_label_1
_geom_bond_atom_site_label_2
_geom_bond_distance
_geom_bond_site_symmetry_2
La0 O6 2.406821 1_555
La0 O8 2.438134 1_555
La0 O10 2.458144 1_555
La0 O0 2.472316 1_555
La0 O2 2.643525 1_555
La0 O4 2.693114 1_555
La0 O5 2.785082 1_555
La0 O3 2.836725 1_545
La1 O7 2.406882 1_454
La1 O9 2.438130 1_554
La1 O11 2.458121 1_554
La1 O1 2.472291 1_455
La1 O3 2.643462 1_555
La1 O5 2.693080 1_555
La1 O4 2.785076 1_465
La1 O2 2.836706 1_455
Mn0 O7 2.130124 1_555
Mn0 O8 2.132681 1_555
Mn0 O0 2.137165 1_556
Mn0 O11 2.147309 1_555
Mn0 O2 2.169015 1_556
Mn0 O5 2.173949 1_556
Mn1 O6 2.130111 1_555
Mn1 O9 2.132629 1_545
Mn1 O1 2.137212 1_445
Mn1 O10 2.147274 1_455
Mn1 O3 2.169008 1_545
Mn1 O4 2.174081 1_455
O0 Ru0 1.982345 1_554
O0 Sr0 2.494301 1_454
O1 Ru1 1.982324 1_655
O1 Sr1 2.494320 1_555
O2 Ru1 1.998146 1_655
O2 Sr0 2.513040 1_554
O3 Ru0 1.998140 1_564
O3 Sr1 2.513049 1_555
O4 Ru0 1.987799 1_554
O4 Sr0 2.522499 1_554
O5 Ru1 1.987844 1_555
O5 Sr1 2.522496 1_555
O6 Ru1 2.003884 1_555
O6 Sr0 2.614784 1_455
O7 Ru0 2.003884 1_565
O7 Sr1 2.614825 1_555
O8 Ru1 1.998128 1_655
O8 Sr0 2.759087 1_555
O8 Sr1 2.823400 1_555
O9 Ru0 1.998168 1_565
O9 Sr1 2.759020 1_555
O9 Sr0 2.823361 1_465
O10 Ru0 2.000130 1_555
O10 Sr1 2.780847 1_545
O10 Sr0 2.799335 1_555
O11 Ru1 2.000144 1_555
O11 Sr0 2.780843 1_455
O11 Sr1 2.799341 1_555
