# generated using pymatgen
data_Al(HO)3
_symmetry_space_group_name_H-M   'P 1'
_cell_length_a   9.46592600
_cell_length_b   5.23085300
_cell_length_c   8.66745869
_cell_angle_alpha   88.56833220
_cell_angle_beta   90.00000000
_cell_angle_gamma   90.00000000
_symmetry_Int_Tables_number   1
_chemical_formula_structural   Al(HO)3
_chemical_formula_sum   'Al8 H24 O24'
_cell_volume   429.03409598
_cell_formula_units_Z   8
loop_
 _symmetry_equiv_pos_site_id
 _symmetry_equiv_pos_as_xyz
  1  'x, y, z'
loop_
 _atom_site_type_symbol
 _atom_site_label
 _atom_site_symmetry_multiplicity
 _atom_site_fract_x
 _atom_site_fract_y
 _atom_site_fract_z
 _atom_site_occupancy
  Al  Al0  1  0.74927500  0.01288400  0.17190600  1
  Al  Al1  1  0.75202500  0.49501000  0.67204200  1
  Al  Al2  1  0.25234200  0.50526900  0.83148500  1
  Al  Al3  1  0.24776900  0.98596400  0.33295900  1
  Al  Al4  1  0.75223100  0.98596400  0.83295900  1
  Al  Al5  1  0.74765800  0.50526900  0.33148500  1
  Al  Al6  1  0.24797500  0.49501000  0.17204200  1
  Al  Al7  1  0.25072500  0.01288400  0.67190600  1
  H  H0  1  0.62020300  0.80150000  0.49854900  1
  H  H1  1  0.87026800  0.69035900  0.02726600  1
  H  H2  1  0.37978900  0.29970700  0.49443400  1
  H  H3  1  0.12105400  0.19594700  0.00559400  1
  H  H4  1  0.87894600  0.19594700  0.50559400  1
  H  H5  1  0.62021100  0.29970700  0.99443400  1
  H  H6  1  0.12973200  0.69035900  0.52726600  1
  H  H7  1  0.37979700  0.80150000  0.99854900  1
  H  H8  1  0.54143400  0.71999300  0.21344000  1
  H  H9  1  0.95884000  0.78634000  0.70979500  1
  H  H10  1  0.46070500  0.21288600  0.78681200  1
  H  H11  1  0.09469600  0.34490100  0.40946500  1
  H  H12  1  0.90530400  0.34490100  0.90946500  1
  H  H13  1  0.53929500  0.21288600  0.28681200  1
  H  H14  1  0.04116000  0.78634000  0.20979500  1
  H  H15  1  0.45856600  0.71999300  0.71344000  1
  H  H16  1  0.60794500  0.14207700  0.58447000  1
  H  H17  1  0.95620100  0.31284300  0.20175800  1
  H  H18  1  0.41158900  0.63468700  0.41047400  1
  H  H19  1  0.08620600  0.86107900  0.90771800  1
  H  H20  1  0.91379400  0.86107900  0.40771800  1
  H  H21  1  0.58841100  0.63468700  0.91047400  1
  H  H22  1  0.04379900  0.31284300  0.70175800  1
  H  H23  1  0.39205500  0.14207700  0.08447000  1
  O  O0  1  0.63671900  0.61817100  0.50358900  1
  O  O1  1  0.86285800  0.87397600  0.00707500  1
  O  O2  1  0.36113500  0.11737500  0.49781700  1
  O  O3  1  0.13828900  0.37901100  0.99995400  1
  O  O4  1  0.86171100  0.37901100  0.49995400  1
  O  O5  1  0.63886500  0.11737500  0.99781700  1
  O  O6  1  0.13714200  0.87397600  0.50707500  1
  O  O7  1  0.36328100  0.61817100  0.00358900  1
  O  O8  1  0.64152000  0.70128300  0.18642000  1
  O  O9  1  0.85780100  0.80178100  0.68507500  1
  O  O10  1  0.36100300  0.19655000  0.81736100  1
  O  O11  1  0.13589800  0.29096200  0.31245400  1
  O  O12  1  0.86410200  0.29096200  0.81245400  1
  O  O13  1  0.63899700  0.19655000  0.31736100  1
  O  O14  1  0.14219900  0.80178100  0.18507500  1
  O  O15  1  0.35848000  0.70128300  0.68642000  1
  O  O16  1  0.64234100  0.18750700  0.68619700  1
  O  O17  1  0.85523100  0.32853700  0.17818000  1
  O  O18  1  0.35974300  0.68401900  0.31733400  1
  O  O19  1  0.13885700  0.81403100  0.81604900  1
  O  O20  1  0.86114300  0.81403100  0.31604900  1
  O  O21  1  0.64025700  0.68401900  0.81733400  1
  O  O22  1  0.14476900  0.32853700  0.67818000  1
  O  O23  1  0.35765900  0.18750700  0.18619700  1
loop_
_geom_bond_atom_site_label_1
_geom_bond_atom_site_label_2
_geom_bond_distance
_geom_bond_site_symmetry_2
Al0 O5 1.904375 1_554
Al0 O13 1.913804 1_555
Al0 O20 1.923342 1_545
Al0 O8 1.924236 1_545
Al0 O17 1.933815 1_555
Al0 O1 1.943426 1_545
Al1 O9 1.897191 1_555
Al1 O16 1.915844 1_555
Al1 O12 1.918588 1_555
Al1 O0 1.921233 1_555
Al1 O4 1.927743 1_555
Al1 O21 1.935176 1_555
Al2 O15 1.891346 1_555
Al2 O3 1.919828 1_555
Al2 O10 1.921099 1_555
Al2 O22 1.928345 1_555
Al2 O7 1.928931 1_556
Al2 O19 1.941547 1_555
Al3 O14 1.905651 1_555
Al3 O18 1.909737 1_555
Al3 O6 1.916531 1_555
Al3 O11 1.919406 1_565
Al3 O2 1.927412 1_565
Al3 O23 1.935090 1_565
Al4 O9 1.905651 1_555
Al4 O21 1.909737 1_555
Al4 O1 1.916531 1_556
Al4 O12 1.919406 1_565
Al4 O5 1.927412 1_565
Al4 O16 1.935090 1_565
Al5 O8 1.891346 1_555
Al5 O4 1.919828 1_555
Al5 O13 1.921099 1_555
Al5 O17 1.928345 1_555
Al5 O0 1.928931 1_555
Al5 O20 1.941547 1_555
Al6 O14 1.897191 1_555
Al6 O23 1.915844 1_555
Al6 O11 1.918588 1_555
Al6 O7 1.921233 1_555
Al6 O3 1.927743 1_554
Al6 O18 1.935176 1_555
Al7 O2 1.904375 1_555
Al7 O10 1.913804 1_555
Al7 O19 1.923342 1_545
Al7 O15 1.924236 1_545
Al7 O22 1.933815 1_555
Al7 O6 1.943426 1_545
H0 O0 0.971532 1_555
H1 O1 0.974503 1_555
H2 O2 0.969683 1_555
H3 O3 0.971405 1_554
H4 O4 0.971405 1_555
H5 O5 0.969683 1_555
H6 O6 0.974503 1_555
H7 O7 0.971532 1_556
H8 O8 0.981402 1_555
H9 O9 0.983016 1_555
H10 O10 0.983354 1_555
H11 O11 0.974979 1_555
H12 O12 0.974979 1_555
H13 O13 0.983354 1_555
H14 O14 0.983016 1_555
H15 O15 0.981402 1_555
H16 O16 0.974870 1_555
H17 O17 0.980393 1_555
H18 O18 0.974037 1_555
H19 O19 0.974689 1_555
H20 O20 0.974689 1_555
H21 O21 0.974037 1_555
H22 O22 0.980393 1_555
H23 O23 0.974870 1_555
