# generated using pymatgen
data_Ce(SnPt)2
_symmetry_space_group_name_H-M   'P 1'
_cell_length_a   4.63060700
_cell_length_b   4.63060700
_cell_length_c   10.58639200
_cell_angle_alpha   90.00000000
_cell_angle_beta   90.00000000
_cell_angle_gamma   90.00000000
_symmetry_Int_Tables_number   1
_chemical_formula_structural   Ce(SnPt)2
_chemical_formula_sum   'Ce2 Sn4 Pt4'
_cell_volume   226.99893477
_cell_formula_units_Z   2
loop_
 _symmetry_equiv_pos_site_id
 _symmetry_equiv_pos_as_xyz
  1  'x, y, z'
loop_
 _atom_site_type_symbol
 _atom_site_label
 _atom_site_symmetry_multiplicity
 _atom_site_fract_x
 _atom_site_fract_y
 _atom_site_fract_z
 _atom_site_occupancy
  Ce  Ce0  1  0.00000000  0.50000000  0.24372400  1
  Ce  Ce1  1  0.50000000  0.00000000  0.75627600  1
  Sn  Sn0  1  0.50000000  0.50000000  0.50000000  1
  Sn  Sn1  1  0.00000000  0.00000000  0.50000000  1
  Sn  Sn2  1  0.00000000  0.50000000  0.87441700  1
  Sn  Sn3  1  0.50000000  0.00000000  0.12558300  1
  Pt  Pt0  1  0.50000000  0.50000000  0.00000000  1
  Pt  Pt1  1  0.00000000  0.00000000  0.00000000  1
  Pt  Pt2  1  0.00000000  0.50000000  0.63007100  1
  Pt  Pt3  1  0.50000000  0.00000000  0.36992900  1
loop_
_geom_bond_atom_site_label_1
_geom_bond_atom_site_label_2
_geom_bond_distance
_geom_bond_site_symmetry_2
Ce0 Pt1 3.466676 1_565
Ce0 Pt0 3.466676 1_455
Ce0 Pt0 3.466676 1_555
Ce0 Pt1 3.466676 1_555
Ce0 Sn3 3.505065 1_555
Ce0 Sn3 3.505065 1_465
Ce0 Sn3 3.505065 1_565
Ce0 Sn3 3.505065 1_455
Ce0 Pt3 3.536425 1_565
Ce0 Pt3 3.536425 1_455
Ce0 Pt3 3.536425 1_465
Ce0 Pt3 3.536425 1_555
Ce0 Sn1 3.566680 1_555
Ce0 Sn0 3.566680 1_455
Ce0 Sn0 3.566680 1_555
Ce0 Sn1 3.566680 1_565
Ce1 Pt0 3.466676 1_546
Ce1 Pt1 3.466676 1_656
Ce1 Pt0 3.466676 1_556
Ce1 Pt1 3.466676 1_556
Ce1 Sn2 3.505065 1_655
Ce1 Sn2 3.505065 1_645
Ce1 Sn2 3.505065 1_555
Ce1 Sn2 3.505065 1_545
Ce1 Pt2 3.536425 1_655
Ce1 Pt2 3.536425 1_545
Ce1 Pt2 3.536425 1_645
Ce1 Pt2 3.536425 1_555
Ce1 Sn1 3.566680 1_655
Ce1 Sn0 3.566680 1_555
Ce1 Sn0 3.566680 1_545
Ce1 Sn1 3.566680 1_555
Pt0 Sn2 2.669855 1_654
Pt0 Sn3 2.669855 1_555
Pt0 Sn2 2.669855 1_554
Pt0 Sn3 2.669855 1_565
Pt1 Sn2 2.669855 1_544
Pt1 Sn3 2.669855 1_555
Pt1 Sn2 2.669855 1_554
Pt1 Sn3 2.669855 1_455
Pt2 Sn2 2.586743 1_555
Pt2 Sn1 2.693828 1_555
Pt2 Sn0 2.693828 1_555
Pt2 Sn0 2.693828 1_455
Pt2 Sn1 2.693828 1_565
Pt3 Sn3 2.586743 1_555
Pt3 Sn1 2.693828 1_655
Pt3 Sn0 2.693828 1_555
Pt3 Sn0 2.693828 1_545
Pt3 Sn1 2.693828 1_555
