# generated using pymatgen
data_KAlGeO4
_symmetry_space_group_name_H-M   'P 1'
_cell_length_a   18.66103083
_cell_length_b   18.66103083
_cell_length_c   8.73094400
_cell_angle_alpha   90.00000000
_cell_angle_beta   90.00000000
_cell_angle_gamma   120.00000295
_symmetry_Int_Tables_number   1
_chemical_formula_structural   KAlGeO4
_chemical_formula_sum   'K24 Al24 Ge24 O96'
_cell_volume   2633.07410650
_cell_formula_units_Z   24
loop_
 _symmetry_equiv_pos_site_id
 _symmetry_equiv_pos_as_xyz
  1  'x, y, z'
loop_
 _atom_site_type_symbol
 _atom_site_label
 _atom_site_symmetry_multiplicity
 _atom_site_fract_x
 _atom_site_fract_y
 _atom_site_fract_z
 _atom_site_occupancy
  K  K0  1  0.33333300  0.66666700  0.98368700  1
  K  K1  1  0.18500300  0.33296400  0.49022200  1
  K  K2  1  0.66666700  0.33333300  0.48368700  1
  K  K3  1  0.66750100  0.80392600  0.98615000  1
  K  K4  1  0.33296400  0.14796100  0.99022200  1
  K  K5  1  0.47103100  0.99424900  0.98987400  1
  K  K6  1  0.81499700  0.66703600  0.99022200  1
  K  K7  1  0.66703600  0.85203900  0.49022200  1
  K  K8  1  0.13642400  0.33249900  0.98615000  1
  K  K9  1  0.80392600  0.13642400  0.48615000  1
  K  K10  1  0.33333300  0.66666700  0.48103300  1
  K  K11  1  0.00575100  0.47678200  0.98987400  1
  K  K12  1  0.66666700  0.33333300  0.98103300  1
  K  K13  1  0.99424900  0.52321800  0.48987400  1
  K  K14  1  0.00000000  0.00000000  0.50116300  1
  K  K15  1  0.52896900  0.00575100  0.48987400  1
  K  K16  1  0.14796100  0.81499700  0.49022200  1
  K  K17  1  0.85203900  0.18500300  0.99022200  1
  K  K18  1  0.19607400  0.86357600  0.98615000  1
  K  K19  1  0.86357600  0.66750100  0.48615000  1
  K  K20  1  0.47678200  0.47103100  0.48987400  1
  K  K21  1  0.33249900  0.19607400  0.48615000  1
  K  K22  1  0.00000000  0.00000000  0.00116300  1
  K  K23  1  0.52321800  0.52896900  0.98987400  1
  Al  Al0  1  0.50057400  0.17911800  0.68954800  1
  Al  Al1  1  0.01077800  0.83968200  0.17005300  1
  Al  Al2  1  0.83968200  0.82890500  0.67005300  1
  Al  Al3  1  0.16031800  0.17109500  0.17005300  1
  Al  Al4  1  0.65189800  0.16219000  0.19009300  1
  Al  Al5  1  0.16219000  0.51029200  0.69009300  1
  Al  Al6  1  0.48970800  0.65189800  0.69009300  1
  Al  Al7  1  0.51029200  0.34810200  0.19009300  1
  Al  Al8  1  0.33033800  0.33052800  0.79280400  1
  Al  Al9  1  0.82088200  0.32145600  0.68954800  1
  Al  Al10  1  0.33052800  0.00019000  0.29280400  1
  Al  Al11  1  0.34810200  0.83781000  0.69009300  1
  Al  Al12  1  0.66947200  0.99981000  0.79280400  1
  Al  Al13  1  0.99981000  0.33033800  0.29280400  1
  Al  Al14  1  0.66966200  0.66947200  0.29280400  1
  Al  Al15  1  0.82890500  0.98922200  0.17005300  1
  Al  Al16  1  0.98922200  0.16031800  0.67005300  1
  Al  Al17  1  0.00019000  0.66966200  0.79280400  1
  Al  Al18  1  0.17911800  0.67854400  0.18954800  1
  Al  Al19  1  0.83781000  0.48970800  0.19009300  1
  Al  Al20  1  0.32145600  0.50057400  0.18954800  1
  Al  Al21  1  0.67854400  0.49942600  0.68954800  1
  Al  Al22  1  0.17109500  0.01077800  0.67005300  1
  Al  Al23  1  0.49942600  0.82088200  0.18954800  1
  Ge  Ge0  1  0.33516700  0.00075700  0.68517400  1
  Ge  Ge1  1  0.68115600  0.50369700  0.30859800  1
  Ge  Ge2  1  0.15703800  0.16816200  0.78647000  1
  Ge  Ge3  1  0.01112400  0.84296200  0.78647000  1
  Ge  Ge4  1  0.33441000  0.33516700  0.18517400  1
  Ge  Ge5  1  0.49402200  0.65600100  0.30912500  1
  Ge  Ge6  1  0.50597800  0.34399900  0.80912500  1
  Ge  Ge7  1  0.50369700  0.82254200  0.80859800  1
  Ge  Ge8  1  0.66559000  0.66483300  0.68517400  1
  Ge  Ge9  1  0.65600100  0.16197900  0.80912500  1
  Ge  Ge10  1  0.84296200  0.83183800  0.28647000  1
  Ge  Ge11  1  0.82254200  0.31884400  0.30859800  1
  Ge  Ge12  1  0.83183800  0.98887600  0.78647000  1
  Ge  Ge13  1  0.49630300  0.17745800  0.30859800  1
  Ge  Ge14  1  0.17745800  0.68115600  0.80859800  1
  Ge  Ge15  1  0.34399900  0.83802100  0.30912500  1
  Ge  Ge16  1  0.99924300  0.33441000  0.68517400  1
  Ge  Ge17  1  0.16816200  0.01112400  0.28647000  1
  Ge  Ge18  1  0.83802100  0.49402200  0.80912500  1
  Ge  Ge19  1  0.98887600  0.15703800  0.28647000  1
  Ge  Ge20  1  0.66483300  0.99924300  0.18517400  1
  Ge  Ge21  1  0.16197900  0.50597800  0.30912500  1
  Ge  Ge22  1  0.00075700  0.66559000  0.18517400  1
  Ge  Ge23  1  0.31884400  0.49630300  0.80859800  1
  O  O0  1  0.73252500  0.46232000  0.20298800  1
  O  O1  1  0.02968800  0.26029800  0.22149200  1
  O  O2  1  0.81275600  0.95391100  0.97811100  1
  O  O3  1  0.23061000  0.97031200  0.22149200  1
  O  O4  1  0.92703000  0.36484700  0.73780600  1
  O  O5  1  0.40850500  0.31222900  0.26192700  1
  O  O6  1  0.29568300  0.39885800  0.73259200  1
  O  O7  1  0.39904300  0.60532500  0.20999900  1
  O  O8  1  0.61593500  0.14187300  0.99813100  1
  O  O9  1  0.59149500  0.68777100  0.76192700  1
  O  O10  1  0.95391100  0.14115500  0.47811100  1
  O  O11  1  0.72979500  0.26747500  0.20298800  1
  O  O12  1  0.73507200  0.97029500  0.26016200  1
  O  O13  1  0.47260600  0.23722800  0.81113300  1
  O  O14  1  0.56218300  0.92703000  0.23780600  1
  O  O15  1  0.32157700  0.98806700  0.48880000  1
  O  O16  1  0.13922600  0.57377800  0.80674900  1
  O  O17  1  0.67842300  0.01193300  0.98880000  1
  O  O18  1  0.80532300  0.90146600  0.67122300  1
  O  O19  1  0.60532500  0.20628200  0.70999900  1
  O  O20  1  0.10317400  0.70431700  0.73259200  1
  O  O21  1  0.68777100  0.09627600  0.26192700  1
  O  O22  1  0.76462200  0.52739400  0.81113300  1
  O  O23  1  0.09627600  0.40850500  0.76192700  1
  O  O24  1  0.97031200  0.73970200  0.72149200  1
  O  O25  1  0.42622200  0.56544800  0.80674900  1
  O  O26  1  0.38406500  0.85812700  0.49813100  1
  O  O27  1  0.63515300  0.56218300  0.73780600  1
  O  O28  1  0.36484700  0.43781700  0.23780600  1
  O  O29  1  0.98806700  0.66649000  0.98880000  1
  O  O30  1  0.26747500  0.53768000  0.70298800  1
  O  O31  1  0.39885800  0.10317400  0.23259200  1
  O  O32  1  0.90385700  0.80532300  0.17122300  1
  O  O33  1  0.85812700  0.47406200  0.99813100  1
  O  O34  1  0.39467500  0.79371800  0.20999900  1
  O  O35  1  0.27020500  0.73252500  0.70298800  1
  O  O36  1  0.43781700  0.07297000  0.73780600  1
  O  O37  1  0.23522300  0.26492800  0.26016200  1
  O  O38  1  0.60095700  0.39467500  0.70999900  1
  O  O39  1  0.09853400  0.90385700  0.67122300  1
  O  O40  1  0.53768000  0.27020500  0.20298800  1
  O  O41  1  0.36112300  0.93073100  0.21868400  1
  O  O42  1  0.26492800  0.02970500  0.76016200  1
  O  O43  1  0.06466400  0.12751600  0.26828600  1
  O  O44  1  0.26029800  0.23061000  0.72149200  1
  O  O45  1  0.56960700  0.63887700  0.21868400  1
  O  O46  1  0.63887700  0.06926900  0.71868400  1
  O  O47  1  0.02970500  0.76477700  0.26016200  1
  O  O48  1  0.90372400  0.59149500  0.26192700  1
  O  O49  1  0.85884500  0.81275600  0.47811100  1
  O  O50  1  0.89682600  0.29568300  0.23259200  1
  O  O51  1  0.46232000  0.72979500  0.70298800  1
  O  O52  1  0.07297000  0.63515300  0.23780600  1
  O  O53  1  0.20147500  0.71716800  0.99964900  1
  O  O54  1  0.23537800  0.47260600  0.31113300  1
  O  O55  1  0.70431700  0.60114200  0.23259200  1
  O  O56  1  0.76477700  0.73507200  0.76016200  1
  O  O57  1  0.71716800  0.51569200  0.49964900  1
  O  O58  1  0.43455200  0.86077400  0.80674900  1
  O  O59  1  0.52593800  0.38406500  0.99813100  1
  O  O60  1  0.23722800  0.76462200  0.31113300  1
  O  O61  1  0.51569200  0.79852500  0.99964900  1
  O  O62  1  0.18724400  0.04608900  0.47811100  1
  O  O63  1  0.09614300  0.19467700  0.67122300  1
  O  O64  1  0.06285200  0.93533600  0.26828600  1
  O  O65  1  0.20628200  0.60095700  0.20999900  1
  O  O66  1  0.73970200  0.76939000  0.22149200  1
  O  O67  1  0.76939000  0.02968800  0.72149200  1
  O  O68  1  0.01193300  0.33351000  0.48880000  1
  O  O69  1  0.90146600  0.09614300  0.17122300  1
  O  O70  1  0.56544800  0.13922600  0.30674900  1
  O  O71  1  0.60114200  0.89682600  0.73259200  1
  O  O72  1  0.14115500  0.18724400  0.97811100  1
  O  O73  1  0.93073100  0.56960700  0.71868400  1
  O  O74  1  0.52739400  0.76277200  0.31113300  1
  O  O75  1  0.76277200  0.23537800  0.81113300  1
  O  O76  1  0.19467700  0.09853400  0.17122300  1
  O  O77  1  0.93714800  0.06466400  0.76828600  1
  O  O78  1  0.97029500  0.23522300  0.76016200  1
  O  O79  1  0.48430800  0.20147500  0.49964900  1
  O  O80  1  0.12751600  0.06285200  0.76828600  1
  O  O81  1  0.33351000  0.32157700  0.98880000  1
  O  O82  1  0.66649000  0.67842300  0.48880000  1
  O  O83  1  0.14187300  0.52593800  0.49813100  1
  O  O84  1  0.86077400  0.42622200  0.30674900  1
  O  O85  1  0.47406200  0.61593500  0.49813100  1
  O  O86  1  0.28283200  0.48430800  0.99964900  1
  O  O87  1  0.57377800  0.43455200  0.30674900  1
  O  O88  1  0.43039300  0.36112300  0.71868400  1
  O  O89  1  0.79371800  0.39904300  0.70999900  1
  O  O90  1  0.87248400  0.93714800  0.26828600  1
  O  O91  1  0.31222900  0.90372400  0.76192700  1
  O  O92  1  0.79852500  0.28283200  0.49964900  1
  O  O93  1  0.93533600  0.87248400  0.76828600  1
  O  O94  1  0.06926900  0.43039300  0.21868400  1
  O  O95  1  0.04608900  0.85884500  0.97811100  1
loop_
_geom_bond_atom_site_label_1
_geom_bond_atom_site_label_2
_geom_bond_distance
_geom_bond_site_symmetry_2
K0 O34 2.849876 1_556
K0 O65 2.849876 1_556
K0 O7 2.849888 1_556
K0 O61 3.046473 1_555
K0 O86 3.046474 1_555
K0 O53 3.046474 1_555
K0 O35 3.217482 1_555
K0 O30 3.217492 1_555
K0 O51 3.217492 1_555
K1 O63 2.761754 1_555
K1 O54 2.769381 1_555
K1 O37 2.777531 1_555
K1 O6 2.777799 1_555
K1 O68 3.234795 1_555
K2 O19 2.849876 1_555
K2 O89 2.849876 1_555
K2 O38 2.849888 1_555
K2 O79 3.046473 1_555
K2 O57 3.046474 1_555
K2 O92 3.046474 1_555
K2 O11 3.217482 1_555
K2 O0 3.217492 1_555
K2 O40 3.217492 1_555
K3 O66 2.705744 1_556
K3 O9 2.732803 1_555
K3 O2 2.756695 1_555
K3 O61 2.786381 1_555
K4 O76 2.761754 1_556
K4 O13 2.769381 1_555
K4 O42 2.777531 1_555
K4 O31 2.777808 1_556
K4 O81 3.234795 1_555
K5 O41 2.677946 1_556
K5 O8 2.730743 1_565
K5 O58 2.743750 1_555
K5 O36 2.880305 1_565
K6 O32 2.761754 1_556
K6 O22 2.769381 1_555
K6 O56 2.777531 1_555
K6 O55 2.777799 1_556
K6 O29 3.234795 1_555
K7 O18 2.761754 1_555
K7 O74 2.769381 1_555
K7 O12 2.777531 1_555
K7 O71 2.777808 1_555
K7 O82 3.234795 1_555
K8 O1 2.705735 1_556
K8 O23 2.732793 1_555
K8 O72 2.756705 1_555
K8 O86 2.786381 1_555
K9 O67 2.705733 1_555
K9 O21 2.732806 1_555
K9 O10 2.756687 1_555
K9 O92 2.786381 1_555
K10 O35 2.846277 1_555
K10 O30 2.846289 1_555
K10 O51 2.846289 1_555
K10 O34 3.133259 1_555
K10 O65 3.133259 1_555
K10 O7 3.133270 1_555
K10 O26 3.209562 1_555
K10 O83 3.209567 1_555
K10 O85 3.209580 1_555
K11 O94 2.677936 1_556
K11 O33 2.730743 1_455
K11 O16 2.743750 1_555
K11 O4 2.880305 1_455
K12 O11 2.846277 1_556
K12 O0 2.846289 1_556
K12 O40 2.846289 1_556
K12 O19 3.133259 1_555
K12 O89 3.133259 1_555
K12 O38 3.133270 1_555
K12 O8 3.209562 1_555
K12 O33 3.209567 1_555
K12 O59 3.209580 1_555
K13 O73 2.677936 1_555
K13 O83 2.730743 1_655
K13 O84 2.743750 1_555
K13 O52 2.880305 1_655
K14 O43 2.895019 1_555
K14 O90 2.895019 1_445
K14 O64 2.895019 1_545
K14 O93 3.112300 1_445
K14 O80 3.112300 1_555
K14 O77 3.112300 1_455
K14 O49 3.159778 1_445
K14 O62 3.159778 1_555
K14 O10 3.159779 1_455
K15 O46 2.677946 1_555
K15 O26 2.730743 1_545
K15 O70 2.743750 1_555
K15 O14 2.880305 1_545
K16 O39 2.761755 1_555
K16 O60 2.769381 1_555
K16 O47 2.777531 1_555
K16 O20 2.777797 1_555
K16 O15 3.234795 1_555
K17 O69 2.761755 1_556
K17 O75 2.769381 1_555
K17 O78 2.777531 1_555
K17 O50 2.777797 1_556
K17 O17 3.234795 1_555
K18 O3 2.705733 1_556
K18 O91 2.732806 1_555
K18 O95 2.756687 1_555
K18 O53 2.786381 1_555
K19 O24 2.705735 1_555
K19 O48 2.732793 1_555
K19 O49 2.756705 1_555
K19 O57 2.786381 1_555
K20 O88 2.677947 1_555
K20 O85 2.730743 1_555
K20 O87 2.743750 1_555
K20 O28 2.880305 1_555
K21 O44 2.705744 1_555
K21 O5 2.732803 1_555
K21 O62 2.756695 1_555
K21 O79 2.786381 1_555
K22 O93 2.895019 1_444
K22 O80 2.895019 1_554
K22 O77 2.895019 1_454
K22 O43 3.112300 1_555
K22 O90 3.112300 1_445
K22 O64 3.112300 1_545
K22 O72 3.159778 1_554
K22 O2 3.159778 1_444
K22 O95 3.159779 1_544
K23 O45 2.677947 1_556
K23 O59 2.730743 1_555
K23 O25 2.743750 1_555
K23 O27 2.880305 1_555
Al0 O19 1.766082 1_555
Al0 O13 1.772329 1_555
Al0 O79 1.772510 1_555
Al0 O36 1.775653 1_555
Al1 O32 1.764355 1_455
Al1 O64 1.769618 1_555
Al1 O95 1.770555 1_554
Al1 O47 1.786410 1_555
Al2 O18 1.764337 1_555
Al2 O93 1.769619 1_555
Al2 O49 1.770560 1_555
Al2 O56 1.786421 1_555
Al3 O76 1.764337 1_555
Al3 O43 1.769619 1_555
Al3 O72 1.770560 1_554
Al3 O37 1.786421 1_555
Al4 O11 1.769149 1_555
Al4 O70 1.769817 1_555
Al4 O8 1.774456 1_554
Al4 O21 1.782654 1_555
Al5 O30 1.769149 1_555
Al5 O16 1.769817 1_555
Al5 O83 1.774456 1_555
Al5 O23 1.782654 1_555
Al6 O51 1.769149 1_555
Al6 O25 1.769817 1_555
Al6 O85 1.774456 1_555
Al6 O9 1.782654 1_555
Al7 O40 1.769149 1_555
Al7 O87 1.769817 1_555
Al7 O59 1.774456 1_554
Al7 O5 1.782654 1_555
Al8 O81 1.723253 1_555
Al8 O44 1.770750 1_555
Al8 O6 1.773442 1_555
Al8 O88 1.779021 1_555
Al9 O89 1.766082 1_555
Al9 O75 1.772328 1_555
Al9 O92 1.772515 1_555
Al9 O4 1.775653 1_555
Al10 O15 1.723253 1_545
Al10 O3 1.770750 1_545
Al10 O31 1.773429 1_555
Al10 O41 1.779005 1_545
Al11 O35 1.769149 1_555
Al11 O58 1.769817 1_555
Al11 O26 1.774456 1_555
Al11 O91 1.782654 1_555
Al12 O17 1.723253 1_565
Al12 O67 1.770750 1_565
Al12 O71 1.773429 1_555
Al12 O46 1.779005 1_565
Al13 O68 1.723253 1_655
Al13 O1 1.770750 1_655
Al13 O50 1.773426 1_555
Al13 O94 1.779018 1_655
Al14 O82 1.723253 1_555
Al14 O66 1.770750 1_555
Al14 O55 1.773442 1_555
Al14 O45 1.779021 1_555
Al15 O69 1.764351 1_565
Al15 O90 1.769604 1_555
Al15 O2 1.770555 1_554
Al15 O12 1.786427 1_555
Al16 O63 1.764355 1_655
Al16 O77 1.769618 1_555
Al16 O10 1.770555 1_555
Al16 O78 1.786410 1_555
Al17 O29 1.723253 1_455
Al17 O24 1.770750 1_455
Al17 O20 1.773426 1_555
Al17 O73 1.779018 1_455
Al18 O65 1.766082 1_555
Al18 O60 1.772328 1_555
Al18 O53 1.772515 1_554
Al18 O52 1.775653 1_555
Al19 O0 1.769149 1_555
Al19 O84 1.769817 1_555
Al19 O33 1.774456 1_554
Al19 O48 1.782654 1_555
Al20 O7 1.766082 1_555
Al20 O54 1.772328 1_555
Al20 O86 1.772516 1_554
Al20 O28 1.775653 1_555
Al21 O38 1.766082 1_555
Al21 O22 1.772328 1_555
Al21 O57 1.772516 1_555
Al21 O27 1.775653 1_555
Al22 O39 1.764351 1_545
Al22 O80 1.769604 1_555
Al22 O62 1.770555 1_555
Al22 O42 1.786427 1_555
Al23 O34 1.766082 1_555
Al23 O74 1.772329 1_555
Al23 O61 1.772510 1_554
Al23 O14 1.775653 1_555
Ge0 O15 1.732037 1_545
Ge0 O36 1.764969 1_555
Ge0 O91 1.770869 1_545
Ge0 O42 1.773850 1_555
Ge1 O87 1.759208 1_555
Ge1 O0 1.762243 1_555
Ge1 O57 1.770226 1_555
Ge1 O55 1.774233 1_555
Ge2 O80 1.762965 1_555
Ge2 O63 1.763770 1_555
Ge2 O72 1.766299 1_555
Ge2 O44 1.774098 1_555
Ge3 O93 1.762965 1_455
Ge3 O39 1.763770 1_555
Ge3 O95 1.766299 1_555
Ge3 O24 1.774098 1_455
Ge4 O81 1.732037 1_554
Ge4 O28 1.764969 1_555
Ge4 O5 1.770869 1_555
Ge4 O37 1.773850 1_555
Ge5 O7 1.763131 1_555
Ge5 O74 1.765560 1_555
Ge5 O85 1.772689 1_555
Ge5 O45 1.779285 1_555
Ge6 O38 1.763131 1_555
Ge6 O13 1.765560 1_555
Ge6 O59 1.772689 1_555
Ge6 O88 1.779285 1_555
Ge7 O58 1.759194 1_555
Ge7 O51 1.762257 1_555
Ge7 O61 1.770226 1_555
Ge7 O71 1.774233 1_555
Ge8 O82 1.732037 1_555
Ge8 O27 1.764969 1_555
Ge8 O9 1.770869 1_555
Ge8 O56 1.773850 1_555
Ge9 O19 1.763131 1_555
Ge9 O75 1.765560 1_555
Ge9 O8 1.772689 1_555
Ge9 O46 1.779302 1_555
Ge10 O90 1.762965 1_555
Ge10 O32 1.763770 1_555
Ge10 O49 1.766299 1_555
Ge10 O66 1.774098 1_555
Ge11 O84 1.759211 1_555
Ge11 O11 1.762256 1_555
Ge11 O92 1.770226 1_555
Ge11 O50 1.774233 1_555
Ge12 O77 1.762965 1_565
Ge12 O18 1.763770 1_555
Ge12 O2 1.766299 1_555
Ge12 O67 1.774098 1_565
Ge13 O70 1.759194 1_555
Ge13 O40 1.762257 1_555
Ge13 O79 1.770226 1_555
Ge13 O31 1.774233 1_555
Ge14 O16 1.759211 1_555
Ge14 O35 1.762256 1_555
Ge14 O53 1.770226 1_555
Ge14 O20 1.774233 1_555
Ge15 O34 1.763131 1_555
Ge15 O60 1.765560 1_555
Ge15 O26 1.772689 1_555
Ge15 O41 1.779302 1_555
Ge16 O68 1.732037 1_655
Ge16 O4 1.764969 1_555
Ge16 O23 1.770869 1_655
Ge16 O78 1.773850 1_555
Ge17 O64 1.762965 1_545
Ge17 O76 1.763770 1_555
Ge17 O62 1.766299 1_555
Ge17 O3 1.774098 1_545
Ge18 O89 1.763131 1_555
Ge18 O22 1.765560 1_555
Ge18 O33 1.772689 1_555
Ge18 O73 1.779296 1_555
Ge19 O43 1.762965 1_655
Ge19 O69 1.763770 1_555
Ge19 O10 1.766299 1_555
Ge19 O1 1.774098 1_655
Ge20 O17 1.732037 1_564
Ge20 O14 1.764969 1_555
Ge20 O21 1.770869 1_565
Ge20 O12 1.773850 1_555
Ge21 O65 1.763131 1_555
Ge21 O54 1.765560 1_555
Ge21 O83 1.772689 1_555
Ge21 O94 1.779296 1_555
Ge22 O29 1.732037 1_454
Ge22 O52 1.764969 1_555
Ge22 O48 1.770869 1_455
Ge22 O47 1.773850 1_555
Ge23 O25 1.759208 1_555
Ge23 O30 1.762243 1_555
Ge23 O86 1.770226 1_555
Ge23 O6 1.774233 1_555
