# generated using pymatgen
data_TlHg3As2Cl3
_symmetry_space_group_name_H-M   'P 1'
_cell_length_a   6.34057200
_cell_length_b   12.58200500
_cell_length_c   12.65443500
_cell_angle_alpha   90.00000000
_cell_angle_beta   90.00000000
_cell_angle_gamma   90.00000000
_symmetry_Int_Tables_number   1
_chemical_formula_structural   TlHg3As2Cl3
_chemical_formula_sum   'Tl4 Hg12 As8 Cl12'
_cell_volume   1009.53423535
_cell_formula_units_Z   4
loop_
 _symmetry_equiv_pos_site_id
 _symmetry_equiv_pos_as_xyz
  1  'x, y, z'
loop_
 _atom_site_type_symbol
 _atom_site_label
 _atom_site_symmetry_multiplicity
 _atom_site_fract_x
 _atom_site_fract_y
 _atom_site_fract_z
 _atom_site_occupancy
  Tl  Tl0  1  0.98266800  0.75000000  0.25237800  1
  Tl  Tl1  1  0.01733200  0.75000000  0.75237800  1
  Tl  Tl2  1  0.01733200  0.25000000  0.74762200  1
  Tl  Tl3  1  0.98266800  0.25000000  0.24762200  1
  Hg  Hg0  1  0.54234100  0.00000000  0.25000000  1
  Hg  Hg1  1  0.44993100  0.25000000  0.97972500  1
  Hg  Hg2  1  0.45765900  0.50000000  0.75000000  1
  Hg  Hg3  1  0.44993100  0.75000000  0.52027500  1
  Hg  Hg4  1  0.00000000  0.50000000  0.00000000  1
  Hg  Hg5  1  0.45765900  0.00000000  0.75000000  1
  Hg  Hg6  1  0.54234100  0.50000000  0.25000000  1
  Hg  Hg7  1  0.00000000  0.50000000  0.50000000  1
  Hg  Hg8  1  0.55006900  0.75000000  0.02027500  1
  Hg  Hg9  1  0.00000000  0.00000000  0.50000000  1
  Hg  Hg10  1  0.00000000  0.00000000  0.00000000  1
  Hg  Hg11  1  0.55006900  0.25000000  0.47972500  1
  As  As0  1  0.37890400  0.05058400  0.94422100  1
  As  As1  1  0.62109600  0.44941600  0.44422100  1
  As  As2  1  0.37890400  0.94941600  0.55577900  1
  As  As3  1  0.37890400  0.55058400  0.55577900  1
  As  As4  1  0.62109600  0.55058400  0.05577900  1
  As  As5  1  0.37890400  0.44941600  0.94422100  1
  As  As6  1  0.62109600  0.94941600  0.05577900  1
  As  As7  1  0.62109600  0.05058400  0.44422100  1
  Cl  Cl0  1  0.89616300  0.25000000  0.99687000  1
  Cl  Cl1  1  0.54711400  0.25000000  0.70445800  1
  Cl  Cl2  1  0.09751200  0.50000000  0.25000000  1
  Cl  Cl3  1  0.90248800  0.00000000  0.75000000  1
  Cl  Cl4  1  0.90248800  0.50000000  0.75000000  1
  Cl  Cl5  1  0.09751200  0.00000000  0.25000000  1
  Cl  Cl6  1  0.54711400  0.75000000  0.79554200  1
  Cl  Cl7  1  0.10383700  0.25000000  0.49687000  1
  Cl  Cl8  1  0.45288600  0.75000000  0.29554200  1
  Cl  Cl9  1  0.10383700  0.75000000  0.00313000  1
  Cl  Cl10  1  0.89616300  0.75000000  0.50313000  1
  Cl  Cl11  1  0.45288600  0.25000000  0.20445800  1
loop_
_geom_bond_atom_site_label_1
_geom_bond_atom_site_label_2
_geom_bond_distance
_geom_bond_site_symmetry_2
As0 As6 2.443634 1_546
As0 Hg10 2.583630 1_556
As0 Hg5 2.587467 1_555
As0 Hg1 2.588440 1_555
As1 As3 2.443634 1_555
As1 Hg7 2.583630 1_655
As1 Hg6 2.587467 1_555
As1 Hg11 2.588440 1_555
As2 As7 2.443634 1_565
As2 Hg9 2.583630 1_565
As2 Hg5 2.587467 1_565
As2 Hg3 2.588440 1_555
As3 Hg7 2.583630 1_555
As3 Hg2 2.587467 1_555
As3 Hg3 2.588440 1_555
As4 As5 2.443634 1_554
As4 Hg4 2.583630 1_655
As4 Hg6 2.587467 1_555
As4 Hg8 2.588440 1_555
As5 Hg4 2.583630 1_556
As5 Hg2 2.587467 1_555
As5 Hg1 2.588440 1_555
As6 Hg10 2.583630 1_665
As6 Hg0 2.587467 1_565
As6 Hg8 2.588440 1_555
As7 Hg9 2.583630 1_655
As7 Hg0 2.587467 1_555
As7 Hg11 2.588440 1_555
Cl0 Hg1 2.837672 1_555
Cl1 Hg11 2.843931 1_555
Cl1 Tl2 3.031073 1_655
Cl2 Hg6 2.820470 1_555
Cl3 Hg5 2.820470 1_555
Cl4 Hg2 2.820470 1_555
Cl5 Hg0 2.820470 1_555
Cl6 Hg8 2.843931 1_556
Cl6 Tl1 3.031073 1_655
Cl7 Hg11 2.837672 1_555
Cl8 Hg3 2.843931 1_555
Cl8 Tl0 3.031073 1_455
Cl9 Hg8 2.837672 1_555
Cl10 Hg3 2.837672 1_555
Cl11 Hg1 2.843931 1_554
Cl11 Tl3 3.031073 1_455
