# generated using pymatgen
data_Mg5Pd2
_symmetry_space_group_name_H-M   'P 1'
_cell_length_a   9.03932518
_cell_length_b   9.03932518
_cell_length_c   7.82756200
_cell_angle_alpha   90.00000000
_cell_angle_beta   90.00000000
_cell_angle_gamma   119.99999398
_symmetry_Int_Tables_number   1
_chemical_formula_structural   Mg5Pd2
_chemical_formula_sum   'Mg20 Pd8'
_cell_volume   553.89723088
_cell_formula_units_Z   4
loop_
 _symmetry_equiv_pos_site_id
 _symmetry_equiv_pos_as_xyz
  1  'x, y, z'
loop_
 _atom_site_type_symbol
 _atom_site_label
 _atom_site_symmetry_multiplicity
 _atom_site_fract_x
 _atom_site_fract_y
 _atom_site_fract_z
 _atom_site_occupancy
  Mg  Mg0  1  0.80146900  0.60293900  0.44901900  1
  Mg  Mg1  1  0.48819200  0.51180800  0.25000000  1
  Mg  Mg2  1  0.51180800  0.02361600  0.75000000  1
  Mg  Mg3  1  0.97638400  0.48819200  0.75000000  1
  Mg  Mg4  1  0.39706100  0.19853100  0.05098100  1
  Mg  Mg5  1  0.60293900  0.80146900  0.55098100  1
  Mg  Mg6  1  0.19853100  0.39706100  0.94901900  1
  Mg  Mg7  1  0.80146900  0.19853100  0.05098100  1
  Mg  Mg8  1  0.19853100  0.80146900  0.55098100  1
  Mg  Mg9  1  0.80146900  0.60293900  0.05098100  1
  Mg  Mg10  1  0.19853100  0.39706100  0.55098100  1
  Mg  Mg11  1  0.60293900  0.80146900  0.94901900  1
  Mg  Mg12  1  0.02361600  0.51180800  0.25000000  1
  Mg  Mg13  1  0.00000000  0.00000000  0.00000000  1
  Mg  Mg14  1  0.39706100  0.19853100  0.44901900  1
  Mg  Mg15  1  0.19853100  0.80146900  0.94901900  1
  Mg  Mg16  1  0.80146900  0.19853100  0.44901900  1
  Mg  Mg17  1  0.48819200  0.97638400  0.25000000  1
  Mg  Mg18  1  0.00000000  0.00000000  0.50000000  1
  Mg  Mg19  1  0.51180800  0.48819200  0.75000000  1
  Pd  Pd0  1  0.87652200  0.12347800  0.75000000  1
  Pd  Pd1  1  0.12347800  0.24695600  0.25000000  1
  Pd  Pd2  1  0.12347800  0.87652200  0.25000000  1
  Pd  Pd3  1  0.75304400  0.87652200  0.25000000  1
  Pd  Pd4  1  0.24695600  0.12347800  0.75000000  1
  Pd  Pd5  1  0.87652200  0.75304400  0.75000000  1
  Pd  Pd6  1  0.66666700  0.33333300  0.75000000  1
  Pd  Pd7  1  0.33333300  0.66666700  0.25000000  1
loop_
_geom_bond_atom_site_label_1
_geom_bond_atom_site_label_2
_geom_bond_distance
_geom_bond_site_symmetry_2
Mg0 Pd5 2.632730 1_555
Mg0 Pd3 3.133164 1_555
Mg0 Pd2 3.133169 1_655
Mg1 Pd7 2.424561 1_555
Mg1 Pd3 2.950861 1_555
Mg1 Pd1 2.950861 1_555
Mg2 Pd6 2.424553 1_555
Mg2 Pd4 2.950861 1_555
Mg2 Pd0 2.950861 1_555
Mg3 Pd6 2.424553 1_555
Mg3 Pd5 2.950861 1_555
Mg3 Pd0 2.950861 1_555
Mg4 Pd4 2.632730 1_554
Mg4 Pd1 3.133164 1_555
Mg4 Pd2 3.133169 1_545
Mg5 Pd3 2.632730 1_555
Mg5 Pd5 3.133164 1_555
Mg5 Pd0 3.133169 1_565
Mg6 Pd1 2.632730 1_556
Mg6 Pd4 3.133164 1_555
Mg6 Pd0 3.133169 1_455
Mg7 Pd0 2.632733 1_554
Mg7 Pd1 3.133172 1_655
Mg7 Pd3 3.133172 1_545
Mg8 Pd2 2.632733 1_555
Mg8 Pd4 3.133172 1_565
Mg8 Pd5 3.133172 1_455
Mg9 Pd5 2.632730 1_554
Mg9 Pd3 3.133164 1_555
Mg9 Pd2 3.133169 1_655
Mg10 Pd1 2.632730 1_555
Mg10 Pd4 3.133164 1_555
Mg10 Pd0 3.133169 1_455
Mg11 Pd3 2.632730 1_556
Mg11 Pd5 3.133164 1_555
Mg11 Pd0 3.133169 1_565
Mg12 Pd7 2.424553 1_555
Mg12 Pd1 2.950861 1_555
Mg12 Pd2 2.950861 1_555
Mg13 Pd2 2.750790 1_545
Mg13 Pd0 2.750790 1_454
Mg13 Pd4 2.750790 1_554
Mg13 Pd1 2.750790 1_555
Mg13 Pd5 2.750790 1_444
Mg13 Pd3 2.750790 1_445
Mg14 Pd4 2.632730 1_555
Mg14 Pd1 3.133164 1_555
Mg14 Pd2 3.133169 1_545
Mg15 Pd2 2.632733 1_556
Mg15 Pd4 3.133172 1_565
Mg15 Pd5 3.133172 1_455
Mg16 Pd0 2.632733 1_555
Mg16 Pd1 3.133172 1_655
Mg16 Pd3 3.133172 1_545
Mg17 Pd7 2.424553 1_555
Mg17 Pd3 2.950861 1_555
Mg17 Pd2 2.950861 1_555
Mg18 Pd2 2.750790 1_545
Mg18 Pd0 2.750790 1_455
Mg18 Pd4 2.750790 1_555
Mg18 Pd1 2.750790 1_555
Mg18 Pd5 2.750790 1_445
Mg18 Pd3 2.750790 1_445
Mg19 Pd6 2.424561 1_555
Mg19 Pd4 2.950861 1_555
Mg19 Pd5 2.950861 1_555
