# generated using pymatgen
data_K2EuGeSe5
_symmetry_space_group_name_H-M   'P 1'
_cell_length_a   10.06573000
_cell_length_b   9.01219100
_cell_length_c   11.91041022
_cell_angle_alpha   88.76802089
_cell_angle_beta   90.00000000
_cell_angle_gamma   90.00000000
_symmetry_Int_Tables_number   1
_chemical_formula_structural   K2EuGeSe5
_chemical_formula_sum   'K8 Eu4 Ge4 Se20'
_cell_volume   1080.19454689
_cell_formula_units_Z   4
loop_
 _symmetry_equiv_pos_site_id
 _symmetry_equiv_pos_as_xyz
  1  'x, y, z'
loop_
 _atom_site_type_symbol
 _atom_site_label
 _atom_site_symmetry_multiplicity
 _atom_site_fract_x
 _atom_site_fract_y
 _atom_site_fract_z
 _atom_site_occupancy
  K  K0  1  0.80011600  0.46069700  0.05678800  1
  K  K1  1  0.05579200  0.12574000  0.19986800  1
  K  K2  1  0.69988400  0.96069700  0.05678800  1
  K  K3  1  0.55579200  0.37426000  0.80013200  1
  K  K4  1  0.30011600  0.03930300  0.94321200  1
  K  K5  1  0.19988400  0.53930300  0.94321200  1
  K  K6  1  0.94420800  0.87426000  0.80013200  1
  K  K7  1  0.44420800  0.62574000  0.19986800  1
  Eu  Eu0  1  0.27216500  0.10597700  0.51728200  1
  Eu  Eu1  1  0.72783500  0.89402300  0.48271800  1
  Eu  Eu2  1  0.77216500  0.39402300  0.48271800  1
  Eu  Eu3  1  0.22783500  0.60597700  0.51728200  1
  Ge  Ge0  1  0.52123400  0.20771400  0.25292300  1
  Ge  Ge1  1  0.47876600  0.79228600  0.74707700  1
  Ge  Ge2  1  0.97876600  0.70771400  0.25292300  1
  Ge  Ge3  1  0.02123400  0.29228600  0.74707700  1
  Se  Se0  1  0.43379100  0.83726500  0.41391000  1
  Se  Se1  1  0.75425600  0.64124500  0.29143900  1
  Se  Se2  1  0.53525100  0.63746600  0.59092600  1
  Se  Se3  1  0.74574400  0.14124500  0.29143900  1
  Se  Se4  1  0.86732600  0.50075200  0.75159100  1
  Se  Se5  1  0.46474900  0.36253400  0.40907400  1
  Se  Se6  1  0.25425600  0.85875500  0.70856100  1
  Se  Se7  1  0.98703200  0.19352300  0.93025500  1
  Se  Se8  1  0.56620900  0.16273500  0.58609000  1
  Se  Se9  1  0.51296800  0.69352300  0.93025500  1
  Se  Se10  1  0.96474900  0.13746600  0.59092600  1
  Se  Se11  1  0.03525100  0.86253400  0.40907400  1
  Se  Se12  1  0.36732600  0.99924800  0.24840900  1
  Se  Se13  1  0.48703200  0.30647700  0.06974500  1
  Se  Se14  1  0.13267400  0.49924800  0.24840900  1
  Se  Se15  1  0.24574400  0.35875500  0.70856100  1
  Se  Se16  1  0.01296800  0.80647700  0.06974500  1
  Se  Se17  1  0.06620900  0.33726500  0.41391000  1
  Se  Se18  1  0.93379100  0.66273500  0.58609000  1
  Se  Se19  1  0.63267400  0.00075200  0.75159100  1
loop_
_geom_bond_atom_site_label_1
_geom_bond_atom_site_label_2
_geom_bond_distance
_geom_bond_site_symmetry_2
K0 Se1 3.296520 1_555
K0 Se7 3.429974 1_554
K0 Se13 3.446411 1_555
K0 Se4 3.707417 1_554
K0 Se16 3.787581 1_655
K0 Se9 3.859034 1_554
K1 Se17 3.217614 1_555
K1 Se3 3.309888 1_455
K1 Se16 3.325375 1_545
K1 Se7 3.328612 1_454
K1 Se12 3.382128 1_545
K1 Se11 3.409397 1_545
K1 Se14 3.513917 1_555
K2 Se3 3.296520 1_565
K2 Se9 3.429974 1_554
K2 Se16 3.446411 1_655
K2 Se19 3.707417 1_564
K2 Se13 3.787581 1_565
K2 Se7 3.859034 1_564
K3 Se8 3.217614 1_555
K3 Se15 3.309888 1_555
K3 Se9 3.325375 1_555
K3 Se13 3.328612 1_556
K3 Se4 3.382128 1_555
K3 Se2 3.409397 1_555
K3 Se19 3.513917 1_555
K4 Se6 3.296520 1_545
K4 Se13 3.429974 1_556
K4 Se7 3.446411 1_455
K4 Se12 3.707417 1_546
K4 Se9 3.787581 1_545
K4 Se16 3.859034 1_546
K5 Se15 3.296520 1_555
K5 Se16 3.429974 1_556
K5 Se9 3.446411 1_555
K5 Se14 3.707417 1_556
K5 Se7 3.787581 1_455
K5 Se13 3.859034 1_556
K6 Se18 3.217614 1_555
K6 Se6 3.309888 1_655
K6 Se7 3.325375 1_565
K6 Se16 3.328612 1_656
K6 Se19 3.382128 1_565
K6 Se10 3.409397 1_565
K6 Se4 3.513917 1_555
K7 Se0 3.217614 1_555
K7 Se1 3.309888 1_555
K7 Se13 3.325375 1_555
K7 Se9 3.328612 1_554
K7 Se14 3.382128 1_555
K7 Se5 3.409397 1_555
K7 Se12 3.513917 1_555
Eu0 Se8 3.116332 1_555
Eu0 Se6 3.157295 1_545
Eu0 Se17 3.169860 1_555
Eu0 Se0 3.186750 1_545
Eu0 Se10 3.230433 1_455
Eu0 Se5 3.261387 1_555
Eu0 Se15 3.267080 1_555
Eu0 Se12 3.497202 1_545
Eu0 Se11 3.504695 1_545
Eu1 Se0 3.116332 1_555
Eu1 Se3 3.157295 1_565
Eu1 Se18 3.169860 1_555
Eu1 Se8 3.186750 1_565
Eu1 Se11 3.230433 1_655
Eu1 Se2 3.261387 1_555
Eu1 Se1 3.267080 1_555
Eu1 Se19 3.497202 1_565
Eu1 Se10 3.504695 1_565
Eu2 Se17 3.116332 1_655
Eu2 Se1 3.157295 1_555
Eu2 Se8 3.169860 1_555
Eu2 Se18 3.186750 1_555
Eu2 Se5 3.230433 1_555
Eu2 Se10 3.261387 1_555
Eu2 Se3 3.267080 1_555
Eu2 Se4 3.497202 1_555
Eu2 Se2 3.504695 1_555
Eu3 Se18 3.116332 1_455
Eu3 Se15 3.157295 1_555
Eu3 Se0 3.169860 1_555
Eu3 Se17 3.186750 1_555
Eu3 Se2 3.230433 1_555
Eu3 Se11 3.261387 1_555
Eu3 Se6 3.267080 1_555
Eu3 Se14 3.497202 1_555
Eu3 Se5 3.504695 1_555
Ge0 Se13 2.363719 1_555
Ge0 Se3 2.380004 1_555
Ge0 Se5 2.416725 1_555
Ge0 Se12 2.436573 1_545
Ge1 Se9 2.363719 1_555
Ge1 Se6 2.380004 1_555
Ge1 Se2 2.416725 1_555
Ge1 Se19 2.436573 1_565
Ge2 Se16 2.363719 1_655
Ge2 Se1 2.380004 1_555
Ge2 Se11 2.416725 1_655
Ge2 Se14 2.436573 1_655
Ge3 Se7 2.363719 1_455
Ge3 Se15 2.380004 1_555
Ge3 Se10 2.416725 1_455
Ge3 Se4 2.436573 1_455
Se0 Se12 2.518034 1_555
Se0 Se2 2.926956 1_555
Se5 Se8 2.926956 1_555
Se10 Se17 2.926956 1_655
Se11 Se18 2.926956 1_455
Se14 Se17 2.518034 1_555
Se18 Se4 2.518034 1_555
Se19 Se8 2.518034 1_555
