# generated using pymatgen
data_Na5Zr4Si3(PO8)3
_symmetry_space_group_name_H-M   'P 1'
_cell_length_a   9.32225789
_cell_length_b   9.32225789
_cell_length_c   9.32225855
_cell_angle_alpha   58.57630181
_cell_angle_beta   58.57630181
_cell_angle_gamma   58.57630087
_symmetry_Int_Tables_number   1
_chemical_formula_structural   Na5Zr4Si3(PO8)3
_chemical_formula_sum   'Na5 Zr4 Si3 P3 O24'
_cell_volume   554.21075941
_cell_formula_units_Z   1
loop_
 _symmetry_equiv_pos_site_id
 _symmetry_equiv_pos_as_xyz
  1  'x, y, z'
loop_
 _atom_site_type_symbol
 _atom_site_label
 _atom_site_symmetry_multiplicity
 _atom_site_fract_x
 _atom_site_fract_y
 _atom_site_fract_z
 _atom_site_occupancy
  Na  Na0  1  0.74468900  0.74468900  0.74468900  1
  Na  Na1  1  0.13965100  0.86034900  0.50000000  1
  Na  Na2  1  0.50000000  0.13965100  0.86034900  1
  Na  Na3  1  0.86034900  0.50000000  0.13965100  1
  Na  Na4  1  0.25531100  0.25531100  0.25531100  1
  Zr  Zr0  1  0.89912400  0.89912400  0.89912400  1
  Zr  Zr1  1  0.10087600  0.10087600  0.10087600  1
  Zr  Zr2  1  0.39733100  0.39733100  0.39733100  1
  Zr  Zr3  1  0.60266900  0.60266900  0.60266900  1
  Si  Si0  1  0.50000000  0.78980800  0.21019200  1
  Si  Si1  1  0.78980800  0.21019200  0.50000000  1
  Si  Si2  1  0.21019200  0.50000000  0.78980800  1
  P  P0  1  0.29815700  0.00000000  0.70184300  1
  P  P1  1  0.70184300  0.29815700  0.00000000  1
  P  P2  1  0.00000000  0.70184400  0.29815700  1
  O  O0  1  0.04412700  0.86126200  0.25904200  1
  O  O1  1  0.25904200  0.04412700  0.86126200  1
  O  O2  1  0.67410000  0.82240000  0.02916200  1
  O  O3  1  0.86126200  0.25904200  0.04412700  1
  O  O4  1  0.32590000  0.97083800  0.17760000  1
  O  O5  1  0.51174000  0.76304000  0.39187600  1
  O  O6  1  0.82240000  0.02916200  0.67410000  1
  O  O7  1  0.97083800  0.17760000  0.32590000  1
  O  O8  1  0.17760000  0.32590000  0.97083800  1
  O  O9  1  0.13873800  0.95587300  0.74095800  1
  O  O10  1  0.47180100  0.83617000  0.68655900  1
  O  O11  1  0.74095800  0.13873800  0.95587300  1
  O  O12  1  0.76304000  0.39187600  0.51174000  1
  O  O13  1  0.02916200  0.67410000  0.82240000  1
  O  O14  1  0.39187600  0.51174000  0.76304000  1
  O  O15  1  0.31344100  0.16383000  0.52819900  1
  O  O16  1  0.52819900  0.31344100  0.16383000  1
  O  O17  1  0.68655900  0.47180100  0.83617000  1
  O  O18  1  0.95587300  0.74095800  0.13873800  1
  O  O19  1  0.16383000  0.52819900  0.31344100  1
  O  O20  1  0.60812400  0.23696000  0.48826000  1
  O  O21  1  0.83617000  0.68655900  0.47180100  1
  O  O22  1  0.23696000  0.48826000  0.60812400  1
  O  O23  1  0.48826000  0.60812400  0.23696000  1
loop_
_geom_bond_atom_site_label_1
_geom_bond_atom_site_label_2
_geom_bond_distance
_geom_bond_site_symmetry_2
Na0 O17 2.487153 1_555
Na0 O10 2.487153 1_555
Na0 O21 2.487153 1_555
Na0 O6 2.770756 1_565
Na0 O13 2.770756 1_655
Na0 O2 2.770756 1_556
Na1 O13 2.510790 1_555
Na1 O4 2.510790 1_555
Na1 O6 2.581194 1_465
Na1 O7 2.581194 1_465
Na1 O0 2.810113 1_555
Na1 O9 2.810113 1_555
Na1 O22 2.810252 1_555
Na1 O5 2.810252 1_555
Na2 O8 2.510790 1_555
Na2 O6 2.510790 1_555
Na2 O2 2.581194 1_546
Na2 O4 2.581194 1_546
Na2 O1 2.810112 1_555
Na2 O11 2.810112 1_555
Na2 O14 2.810252 1_555
Na2 O20 2.810252 1_555
Na3 O2 2.510790 1_555
Na3 O7 2.510790 1_555
Na3 O8 2.581194 1_654
Na3 O13 2.581194 1_654
Na3 O18 2.810112 1_555
Na3 O3 2.810112 1_555
Na3 O23 2.810252 1_555
Na3 O12 2.810252 1_555
Na4 O16 2.487153 1_555
Na4 O19 2.487153 1_555
Na4 O15 2.487153 1_555
Na4 O7 2.770756 1_455
Na4 O4 2.770756 1_545
Na4 O8 2.770756 1_554
O0 P2 1.557812 1_555
O0 Zr1 2.104299 1_565
O1 P0 1.557821 1_555
O1 Zr1 2.104299 1_556
O2 Si0 1.642557 1_555
O2 Zr0 2.095320 1_554
O3 P1 1.557821 1_555
O3 Zr1 2.104299 1_655
O4 Si0 1.642557 1_555
O4 Zr1 2.095320 1_565
O5 Si0 1.633092 1_555
O5 Zr3 2.041381 1_555
O6 Si1 1.642557 1_555
O6 Zr0 2.095320 1_545
O7 Si1 1.642557 1_555
O7 Zr1 2.095320 1_655
O8 Si2 1.642557 1_555
O8 Zr1 2.095320 1_556
O9 P0 1.557821 1_565
O9 Zr0 2.104299 1_455
O10 P0 1.543282 1_565
O10 Zr3 2.202126 1_555
O11 P1 1.557821 1_556
O11 Zr0 2.104299 1_545
O12 Si1 1.633092 1_555
O12 Zr3 2.041381 1_555
O13 Si2 1.642557 1_555
O13 Zr0 2.095320 1_455
O14 Si2 1.633092 1_555
O14 Zr3 2.041381 1_555
O15 P0 1.543282 1_555
O15 Zr2 2.202126 1_555
O16 P1 1.543282 1_555
O16 Zr2 2.202126 1_555
O17 P1 1.543282 1_556
O17 Zr3 2.202126 1_555
O18 P2 1.557824 1_655
O18 Zr0 2.104299 1_554
O19 P2 1.543286 1_555
O19 Zr2 2.202126 1_555
O20 Si1 1.633092 1_555
O20 Zr2 2.041381 1_555
O21 P2 1.543282 1_655
O21 Zr3 2.202126 1_555
O22 Si2 1.633092 1_555
O22 Zr2 2.041381 1_555
O23 Si0 1.633092 1_555
O23 Zr2 2.041381 1_555
