# generated using pymatgen
data_Ta
_symmetry_space_group_name_H-M   'P 1'
_cell_length_a   5.89983353
_cell_length_b   5.89983339
_cell_length_c   5.89983148
_cell_angle_alpha   59.99998896
_cell_angle_beta   59.99998973
_cell_angle_gamma   60.00000482
_symmetry_Int_Tables_number   1
_chemical_formula_structural   Ta
_chemical_formula_sum   Ta8
_cell_volume   145.21251932
_cell_formula_units_Z   8
loop_
 _symmetry_equiv_pos_site_id
 _symmetry_equiv_pos_as_xyz
  1  'x, y, z'
loop_
 _atom_site_type_symbol
 _atom_site_label
 _atom_site_symmetry_multiplicity
 _atom_site_fract_x
 _atom_site_fract_y
 _atom_site_fract_z
 _atom_site_occupancy
  Ta  Ta0_0  1  0.00000000  0.00000000  0.00000000  1
  Ta  Ta0_1  1  0.00000000  0.00000000  0.50000000  1
  Ta  Ta0_2  1  0.00000000  0.50000000  0.00000000  1
  Ta  Ta0_3  1  0.00000000  0.50000000  0.50000000  1
  Ta  Ta0_4  1  0.50000000  0.00000000  0.00000000  1
  Ta  Ta0_5  1  0.50000000  0.00000000  0.50000000  1
  Ta  Ta0_6  1  0.50000000  0.50000000  0.00000000  1
  Ta  Ta0_7  1  0.50000000  0.50000000  0.50000000  1
loop_
_geom_bond_atom_site_label_1
_geom_bond_atom_site_label_2
_geom_bond_distance
_geom_bond_site_symmetry_2
Ta0_0 Ta0_3 2.949916 1_554
Ta0_0 Ta0_3 2.949916 1_545
Ta0_0 Ta0_1 2.949916 1_554
Ta0_0 Ta0_1 2.949916 1_555
Ta0_0 Ta0_5 2.949916 1_554
Ta0_0 Ta0_5 2.949916 1_455
Ta0_0 Ta0_2 2.949917 1_555
Ta0_0 Ta0_2 2.949917 1_545
Ta0_0 Ta0_4 2.949917 1_455
Ta0_0 Ta0_4 2.949917 1_555
Ta0_0 Ta0_6 2.949917 1_545
Ta0_0 Ta0_6 2.949917 1_455
Ta0_1 Ta0_2 2.949916 1_546
Ta0_1 Ta0_2 2.949916 1_555
Ta0_1 Ta0_4 2.949916 1_456
Ta0_1 Ta0_4 2.949916 1_555
Ta0_1 Ta0_3 2.949917 1_545
Ta0_1 Ta0_3 2.949917 1_555
Ta0_1 Ta0_5 2.949917 1_455
Ta0_1 Ta0_5 2.949917 1_555
Ta0_1 Ta0_7 2.949917 1_455
Ta0_1 Ta0_7 2.949917 1_545
Ta0_2 Ta0_3 2.949916 1_554
Ta0_2 Ta0_3 2.949916 1_555
Ta0_2 Ta0_7 2.949916 1_554
Ta0_2 Ta0_7 2.949916 1_455
Ta0_2 Ta0_6 2.949917 1_555
Ta0_2 Ta0_6 2.949917 1_455
Ta0_2 Ta0_4 2.949917 1_555
Ta0_2 Ta0_4 2.949917 1_465
Ta0_3 Ta0_6 2.949916 1_456
Ta0_3 Ta0_6 2.949916 1_555
Ta0_3 Ta0_7 2.949917 1_455
Ta0_3 Ta0_7 2.949917 1_555
Ta0_3 Ta0_5 2.949917 1_555
Ta0_3 Ta0_5 2.949917 1_465
Ta0_4 Ta0_7 2.949916 1_554
Ta0_4 Ta0_7 2.949916 1_545
Ta0_4 Ta0_5 2.949916 1_554
Ta0_4 Ta0_5 2.949916 1_555
Ta0_4 Ta0_6 2.949917 1_555
Ta0_4 Ta0_6 2.949917 1_545
Ta0_5 Ta0_6 2.949916 1_546
Ta0_5 Ta0_6 2.949916 1_555
Ta0_5 Ta0_7 2.949917 1_545
Ta0_5 Ta0_7 2.949917 1_555
Ta0_6 Ta0_7 2.949916 1_554
Ta0_6 Ta0_7 2.949916 1_555
