# generated using pymatgen
data_Ca2BeSi2O7
_symmetry_space_group_name_H-M   'P 1'
_cell_length_a   7.48500900
_cell_length_b   7.48500900
_cell_length_c   5.04397900
_cell_angle_alpha   90.00000000
_cell_angle_beta   90.00000000
_cell_angle_gamma   90.00000000
_symmetry_Int_Tables_number   1
_chemical_formula_structural   Ca2BeSi2O7
_chemical_formula_sum   'Ca4 Be2 Si4 O14'
_cell_volume   282.59073795
_cell_formula_units_Z   2
loop_
 _symmetry_equiv_pos_site_id
 _symmetry_equiv_pos_as_xyz
  1  'x, y, z'
loop_
 _atom_site_type_symbol
 _atom_site_label
 _atom_site_symmetry_multiplicity
 _atom_site_fract_x
 _atom_site_fract_y
 _atom_site_fract_z
 _atom_site_occupancy
  Ca  Ca0  1  0.83556700  0.66443300  0.51455200  1
  Ca  Ca1  1  0.33556700  0.83556700  0.48544800  1
  Ca  Ca2  1  0.66443300  0.16443300  0.48544800  1
  Ca  Ca3  1  0.16443300  0.33556700  0.51455200  1
  Be  Be0  1  0.00000000  0.00000000  0.00000000  1
  Be  Be1  1  0.50000000  0.50000000  0.00000000  1
  Si  Si0  1  0.64731900  0.85268100  0.96139300  1
  Si  Si1  1  0.14731900  0.64731900  0.03860700  1
  Si  Si2  1  0.85268100  0.35268100  0.03860700  1
  Si  Si3  1  0.35268100  0.14731900  0.96139300  1
  O  O0  1  0.16447100  0.08677400  0.81980400  1
  O  O1  1  0.83552900  0.91322600  0.81980400  1
  O  O2  1  0.91322600  0.16447100  0.18019600  1
  O  O3  1  0.08677400  0.83552900  0.18019600  1
  O  O4  1  0.66447100  0.41322600  0.18019600  1
  O  O5  1  0.58677400  0.66447100  0.81980400  1
  O  O6  1  0.41322600  0.33552900  0.81980400  1
  O  O7  1  0.33552900  0.58677400  0.18019600  1
  O  O8  1  0.50000000  0.00000000  0.83332300  1
  O  O9  1  0.00000000  0.50000000  0.16667700  1
  O  O10  1  0.35985400  0.14014600  0.28194100  1
  O  O11  1  0.85985400  0.35985400  0.71805900  1
  O  O12  1  0.14014600  0.64014600  0.71805900  1
  O  O13  1  0.64014600  0.85985400  0.28194100  1
loop_
_geom_bond_atom_site_label_1
_geom_bond_atom_site_label_2
_geom_bond_distance
_geom_bond_site_symmetry_2
Ca0 O13 2.378181 1_555
Ca0 O1 2.416296 1_555
Ca0 O5 2.416296 1_555
Ca0 O9 2.471545 1_655
Ca0 O11 2.506811 1_555
Ca0 O12 2.506811 1_655
Ca0 O3 2.831923 1_655
Ca0 O4 2.831923 1_555
Ca1 O12 2.378181 1_555
Ca1 O7 2.416296 1_555
Ca1 O3 2.416296 1_555
Ca1 O8 2.471545 1_565
Ca1 O13 2.506811 1_555
Ca1 O10 2.506811 1_565
Ca1 O5 2.831923 1_555
Ca1 O0 2.831923 1_565
Ca2 O11 2.378181 1_555
Ca2 O2 2.416296 1_555
Ca2 O4 2.416296 1_555
Ca2 O8 2.471545 1_555
Ca2 O13 2.506811 1_545
Ca2 O10 2.506811 1_555
Ca2 O1 2.831923 1_545
Ca2 O6 2.831923 1_555
Ca3 O10 2.378181 1_555
Ca3 O6 2.416296 1_555
Ca3 O0 2.416296 1_555
Ca3 O9 2.471545 1_555
Ca3 O11 2.506811 1_455
Ca3 O12 2.506811 1_555
Ca3 O7 2.831923 1_555
Ca3 O2 2.831923 1_455
Be0 O0 1.662375 1_554
Be0 O3 1.662375 1_545
Be0 O2 1.662375 1_455
Be0 O1 1.662375 1_444
Be1 O6 1.662375 1_554
Be1 O7 1.662375 1_555
Be1 O5 1.662375 1_554
Be1 O4 1.662375 1_555
O0 Si3 1.643168 1_555
O1 Si0 1.643168 1_555
O2 Si2 1.643168 1_555
O3 Si1 1.643168 1_555
O4 Si2 1.643168 1_555
O5 Si0 1.643168 1_555
O6 Si3 1.643168 1_555
O7 Si1 1.643168 1_555
O8 Si0 1.687933 1_545
O8 Si3 1.687933 1_555
O9 Si2 1.687933 1_455
O9 Si1 1.687933 1_555
O10 Si3 1.618619 1_554
O11 Si2 1.618619 1_556
O12 Si1 1.618619 1_556
O13 Si0 1.618619 1_554
