# generated using pymatgen
data_NaAlH2CO5
_symmetry_space_group_name_H-M   'P 1'
_cell_length_a   6.86333120
_cell_length_b   6.86333120
_cell_length_c   6.86333120
_cell_angle_alpha   131.46949978
_cell_angle_beta   120.77003513
_cell_angle_gamma   79.99030382
_symmetry_Int_Tables_number   1
_chemical_formula_structural   NaAlH2CO5
_chemical_formula_sum   'Na2 Al2 H4 C2 O10'
_cell_volume   201.19931812
_cell_formula_units_Z   2
loop_
 _symmetry_equiv_pos_site_id
 _symmetry_equiv_pos_as_xyz
  1  'x, y, z'
loop_
 _atom_site_type_symbol
 _atom_site_label
 _atom_site_symmetry_multiplicity
 _atom_site_fract_x
 _atom_site_fract_y
 _atom_site_fract_z
 _atom_site_occupancy
  Na  Na0  1  0.99845600  0.99586100  0.50259500  1
  Na  Na1  1  0.50673400  0.00413900  0.00259500  1
  Al  Al0  1  0.00963600  0.50000000  0.50963600  1
  Al  Al1  1  0.00963600  0.00000000  0.00963600  1
  H  H0  1  0.34327500  0.28351500  0.55975900  1
  H  H1  1  0.27624400  0.71648500  0.05975900  1
  H  H2  1  0.67575400  0.71552000  0.46023300  1
  H  H3  1  0.74471300  0.28448000  0.96023300  1
  C  C0  1  0.76306600  0.50352400  0.75954200  1
  C  C1  1  0.25601800  0.49647600  0.25954200  1
  O  O0  1  0.37931500  0.61736700  0.26194800  1
  O  O1  1  0.64458200  0.38263300  0.76194800  1
  O  O2  1  0.82434700  0.76786100  0.96023500  1
  O  O3  1  0.19237400  0.23213900  0.05648600  1
  O  O4  1  0.19237400  0.63588800  0.46023500  1
  O  O5  1  0.82434700  0.36411200  0.55648600  1
  O  O6  1  0.80286100  0.22643600  0.07642500  1
  O  O7  1  0.84998900  0.77356400  0.57642500  1
  O  O8  1  0.21677200  0.77363300  0.94313900  1
  O  O9  1  0.16950600  0.22636700  0.44313900  1
loop_
_geom_bond_atom_site_label_1
_geom_bond_atom_site_label_2
_geom_bond_distance
_geom_bond_site_symmetry_2
Na0 O7 2.390715 1_555
Na0 O9 2.457319 1_665
Na0 O5 2.473227 1_565
Na0 O2 2.473227 1_554
Na0 O3 2.502264 1_666
Na0 O4 2.502264 1_655
Na1 O6 2.390715 1_555
Na1 O8 2.457319 1_544
Na1 O3 2.473227 1_555
Na1 O4 2.473227 1_544
Na1 O5 2.502264 1_555
Na1 O2 2.502264 1_544
Al0 O6 1.895993 1_455
Al0 O7 1.895993 1_455
Al0 O8 1.897386 1_555
Al0 O9 1.897386 1_555
Al0 O4 1.954052 1_555
Al0 O5 1.954052 1_455
Al1 O6 1.895993 1_455
Al1 O7 1.895993 1_444
Al1 O8 1.897386 1_544
Al1 O9 1.897386 1_555
Al1 O2 1.954052 1_444
Al1 O3 1.954052 1_555
H0 O9 0.993459 1_555
H1 O8 0.993453 1_554
H2 O7 0.996879 1_555
H3 O6 0.996884 1_556
C0 O1 1.271387 1_555
C0 O5 1.314682 1_555
C0 O2 1.314682 1_555
C1 O0 1.271392 1_555
C1 O3 1.314682 1_555
C1 O4 1.314682 1_555
