# generated using pymatgen
data_KU2P3O14
_symmetry_space_group_name_H-M   'P 1'
_cell_length_a   10.44577200
_cell_length_b   10.79138900
_cell_length_c   11.30047800
_cell_angle_alpha   90.00000000
_cell_angle_beta   90.00000000
_cell_angle_gamma   90.00000000
_symmetry_Int_Tables_number   1
_chemical_formula_structural   KU2P3O14
_chemical_formula_sum   'K4 U8 P12 O56'
_cell_volume   1273.83947861
_cell_formula_units_Z   4
loop_
 _symmetry_equiv_pos_site_id
 _symmetry_equiv_pos_as_xyz
  1  'x, y, z'
loop_
 _atom_site_type_symbol
 _atom_site_label
 _atom_site_symmetry_multiplicity
 _atom_site_fract_x
 _atom_site_fract_y
 _atom_site_fract_z
 _atom_site_occupancy
  K  K0  1  0.38999200  0.00000000  0.75000000  1
  K  K1  1  0.11000800  0.50000000  0.25000000  1
  K  K2  1  0.88999200  0.50000000  0.75000000  1
  K  K3  1  0.61000800  0.00000000  0.25000000  1
  U  U0  1  0.67611500  0.80613500  0.90481100  1
  U  U1  1  0.17611500  0.30613500  0.59518900  1
  U  U2  1  0.82388500  0.69386500  0.40481100  1
  U  U3  1  0.17611500  0.69386500  0.90481100  1
  U  U4  1  0.32388500  0.19386500  0.09518900  1
  U  U5  1  0.32388500  0.80613500  0.40481100  1
  U  U6  1  0.82388500  0.30613500  0.09518900  1
  U  U7  1  0.67611500  0.19386500  0.59518900  1
  P  P0  1  0.58038300  0.50000000  0.25000000  1
  P  P1  1  0.42750800  0.68595300  0.11816900  1
  P  P2  1  0.57249200  0.68595300  0.61816900  1
  P  P3  1  0.07249200  0.18595300  0.88183100  1
  P  P4  1  0.92750800  0.81404700  0.11816900  1
  P  P5  1  0.91961700  0.00000000  0.75000000  1
  P  P6  1  0.07249200  0.81404700  0.61816900  1
  P  P7  1  0.57249200  0.31404700  0.88183100  1
  P  P8  1  0.41961700  0.50000000  0.75000000  1
  P  P9  1  0.08038300  0.00000000  0.25000000  1
  P  P10  1  0.92750800  0.18595300  0.38183100  1
  P  P11  1  0.42750800  0.31404700  0.38183100  1
  O  O0  1  0.43176300  0.76762900  0.22906600  1
  O  O1  1  0.74944000  0.65430600  0.89327300  1
  O  O2  1  0.98535800  0.95055900  0.15087300  1
  O  O3  1  0.10216400  0.54196600  0.90882900  1
  O  O4  1  0.20869600  0.15549100  0.92303700  1
  O  O5  1  0.56823700  0.23237100  0.77093400  1
  O  O6  1  0.75056000  0.15430600  0.10672700  1
  O  O7  1  0.84574700  0.89270900  0.80208100  1
  O  O8  1  0.74944000  0.34569400  0.60672700  1
  O  O9  1  0.70869600  0.65549100  0.57696300  1
  O  O10  1  0.48535800  0.54944100  0.15087300  1
  O  O11  1  0.39783600  0.04196600  0.09117100  1
  O  O12  1  0.51376100  0.26521600  0.47989000  1
  O  O13  1  0.93176300  0.73237100  0.22906600  1
  O  O14  1  0.79130400  0.15549100  0.42303700  1
  O  O15  1  0.01464200  0.95055900  0.65087300  1
  O  O16  1  0.43176300  0.23237100  0.27093400  1
  O  O17  1  0.98623900  0.23478400  0.97989000  1
  O  O18  1  0.34574700  0.39270900  0.69791900  1
  O  O19  1  0.84574700  0.10729100  0.69791900  1
  O  O20  1  0.60216400  0.04196600  0.59117100  1
  O  O21  1  0.48535800  0.45055900  0.34912700  1
  O  O22  1  0.01376100  0.76521600  0.02011000  1
  O  O23  1  0.25056000  0.34569400  0.10672700  1
  O  O24  1  0.10216400  0.45803400  0.59117100  1
  O  O25  1  0.25056000  0.65430600  0.39327300  1
  O  O26  1  0.06823700  0.73237100  0.72906600  1
  O  O27  1  0.98623900  0.76521600  0.52011000  1
  O  O28  1  0.15425300  0.89270900  0.30208100  1
  O  O29  1  0.93176300  0.26762900  0.27093400  1
  O  O30  1  0.29130400  0.65549100  0.07696300  1
  O  O31  1  0.24944000  0.15430600  0.60672700  1
  O  O32  1  0.51464200  0.45055900  0.84912700  1
  O  O33  1  0.89783600  0.54196600  0.40882900  1
  O  O34  1  0.56823700  0.76762900  0.72906600  1
  O  O35  1  0.39783600  0.95803400  0.40882900  1
  O  O36  1  0.29130400  0.34450900  0.42303700  1
  O  O37  1  0.51376100  0.73478400  0.02011000  1
  O  O38  1  0.34574700  0.60729100  0.80208100  1
  O  O39  1  0.65425300  0.60729100  0.30208100  1
  O  O40  1  0.01464200  0.04944100  0.84912700  1
  O  O41  1  0.48623900  0.73478400  0.52011000  1
  O  O42  1  0.79130400  0.84450900  0.07696300  1
  O  O43  1  0.89783600  0.45803400  0.09117100  1
  O  O44  1  0.01376100  0.23478400  0.47989000  1
  O  O45  1  0.48623900  0.26521600  0.97989000  1
  O  O46  1  0.65425300  0.39270900  0.19791900  1
  O  O47  1  0.15425300  0.10729100  0.19791900  1
  O  O48  1  0.06823700  0.26762900  0.77093400  1
  O  O49  1  0.24944000  0.84569400  0.89327300  1
  O  O50  1  0.70869600  0.34450900  0.92303700  1
  O  O51  1  0.51464200  0.54944100  0.65087300  1
  O  O52  1  0.60216400  0.95803400  0.90882900  1
  O  O53  1  0.75056000  0.84569400  0.39327300  1
  O  O54  1  0.98535800  0.04944100  0.34912700  1
  O  O55  1  0.20869600  0.84450900  0.57696300  1
loop_
_geom_bond_atom_site_label_1
_geom_bond_atom_site_label_2
_geom_bond_distance
_geom_bond_site_symmetry_2
K0 O31 2.747668 1_555
K0 O49 2.747668 1_545
K0 O20 2.887654 1_555
K0 O52 2.887654 1_545
K0 O34 3.132211 1_545
K0 O5 3.132211 1_555
K0 O4 3.197741 1_555
K0 O55 3.197741 1_545
K1 O23 2.747668 1_555
K1 O25 2.747668 1_555
K1 O43 2.887654 1_455
K1 O33 2.887654 1_455
K1 O29 3.132211 1_455
K1 O13 3.132211 1_455
K1 O36 3.197741 1_555
K1 O30 3.197741 1_555
K2 O8 2.747668 1_555
K2 O1 2.747668 1_555
K2 O3 2.887654 1_655
K2 O24 2.887654 1_655
K2 O48 3.132211 1_655
K2 O26 3.132211 1_655
K2 O50 3.197741 1_555
K2 O9 3.197741 1_555
K3 O6 2.747668 1_555
K3 O53 2.747668 1_545
K3 O11 2.887654 1_555
K3 O35 2.887654 1_545
K3 O16 3.132211 1_555
K3 O0 3.132211 1_545
K3 O14 3.197741 1_555
K3 O42 3.197741 1_545
O0 P1 1.532749 1_555
O0 U5 2.320928 1_555
O1 U0 1.813329 1_555
O2 P9 1.588944 1_665
O2 P4 1.634604 1_555
O3 U3 1.812667 1_555
O4 P3 1.532685 1_555
O4 U4 2.324618 1_556
O5 P7 1.532749 1_555
O5 U7 2.320928 1_555
O6 U6 1.813329 1_555
O7 P5 1.510740 1_565
O7 U0 2.315227 1_555
O8 U7 1.813329 1_555
O9 P2 1.532685 1_555
O9 U2 2.324618 1_555
O10 P0 1.588944 1_555
O10 P1 1.634604 1_555
O11 U4 1.812667 1_555
O12 P11 1.522288 1_555
O12 U7 2.273020 1_555
O13 P4 1.532749 1_555
O13 U2 2.320928 1_555
O14 P10 1.532685 1_555
O14 U7 2.324618 1_555
O15 P5 1.588944 1_465
O15 P6 1.634604 1_555
O16 P11 1.532749 1_555
O16 U4 2.320928 1_555
O17 P3 1.522288 1_655
O17 U6 2.273020 1_556
O18 P8 1.510740 1_555
O18 U1 2.315227 1_555
O19 P5 1.510740 1_555
O19 U7 2.315227 1_555
O20 U7 1.812667 1_555
O21 P0 1.588944 1_555
O21 P11 1.634604 1_555
O22 P4 1.522288 1_455
O22 U3 2.273020 1_554
O23 U4 1.813329 1_555
O24 U1 1.812667 1_555
O25 U5 1.813329 1_555
O26 P6 1.532749 1_555
O26 U3 2.320928 1_555
O27 P6 1.522288 1_655
O27 U2 2.273020 1_555
O28 P9 1.510740 1_565
O28 U5 2.315227 1_555
O29 P10 1.532749 1_555
O29 U6 2.320928 1_555
O30 P1 1.532685 1_555
O30 U3 2.324618 1_554
O31 U1 1.813329 1_555
O32 P8 1.588944 1_555
O32 P7 1.634604 1_555
O33 U2 1.812667 1_555
O34 P2 1.532749 1_555
O34 U0 2.320928 1_555
O35 U5 1.812667 1_555
O36 P11 1.532685 1_555
O36 U1 2.324618 1_555
O37 P1 1.522288 1_555
O37 U0 2.273020 1_554
O38 P8 1.510740 1_555
O38 U3 2.315227 1_555
O39 P0 1.510740 1_555
O39 U2 2.315227 1_555
O40 P5 1.588944 1_455
O40 P3 1.634604 1_555
O41 P2 1.522288 1_555
O41 U5 2.273020 1_555
O42 P4 1.532685 1_555
O42 U0 2.324618 1_554
O43 U6 1.812667 1_555
O44 P10 1.522288 1_455
O44 U1 2.273020 1_555
O45 P7 1.522288 1_555
O45 U4 2.273020 1_556
O46 P0 1.510740 1_555
O46 U6 2.315227 1_555
O47 P9 1.510740 1_555
O47 U4 2.315227 1_555
O48 P3 1.532749 1_555
O48 U1 2.320928 1_555
O49 U3 1.813329 1_555
O50 P7 1.532685 1_555
O50 U6 2.324618 1_556
O51 P8 1.588944 1_555
O51 P2 1.634604 1_555
O52 U0 1.812667 1_555
O53 U2 1.813329 1_555
O54 P9 1.588944 1_655
O54 P10 1.634604 1_555
O55 P6 1.532685 1_555
O55 U5 2.324618 1_555
