# generated using pymatgen
data_KAg3Te2
_symmetry_space_group_name_H-M   'P 1'
_cell_length_a   9.87611340
_cell_length_b   9.87611340
_cell_length_c   9.74737766
_cell_angle_alpha   64.32020865
_cell_angle_beta   64.32020865
_cell_angle_gamma   27.99758359
_symmetry_Int_Tables_number   1
_chemical_formula_structural   KAg3Te2
_chemical_formula_sum   'K2 Ag6 Te4'
_cell_volume   399.32578719
_cell_formula_units_Z   2
loop_
 _symmetry_equiv_pos_site_id
 _symmetry_equiv_pos_as_xyz
  1  'x, y, z'
loop_
 _atom_site_type_symbol
 _atom_site_label
 _atom_site_symmetry_multiplicity
 _atom_site_fract_x
 _atom_site_fract_y
 _atom_site_fract_z
 _atom_site_occupancy
  K  K0  1  0.40008400  0.40008400  0.01816000  1
  K  K1  1  0.59991600  0.59991600  0.98184000  1
  Ag  Ag0  1  0.71205800  0.71205800  0.59658500  1
  Ag  Ag1  1  0.26620900  0.26620900  0.90935300  1
  Ag  Ag2  1  0.57764400  0.57764400  0.37957800  1
  Ag  Ag3  1  0.28794200  0.28794200  0.40341500  1
  Ag  Ag4  1  0.42235600  0.42235600  0.62042200  1
  Ag  Ag5  1  0.73379100  0.73379100  0.09064700  1
  Te  Te0  1  0.55745300  0.55745300  0.68204000  1
  Te  Te1  1  0.81170900  0.81170900  0.73554900  1
  Te  Te2  1  0.44254700  0.44254700  0.31796000  1
  Te  Te3  1  0.18829100  0.18829100  0.26445100  1
loop_
_geom_bond_atom_site_label_1
_geom_bond_atom_site_label_2
_geom_bond_distance
_geom_bond_site_symmetry_2
K0 Te0 3.317300 1_554
K0 Te2 3.365441 1_555
K0 Te3 3.679108 1_555
K1 Te2 3.317300 1_556
K1 Te0 3.365441 1_555
K1 Te1 3.679108 1_555
Ag0 Te0 2.696145 1_555
Ag0 Te1 2.791612 1_555
Ag0 Ag3 2.986979 1_565
Ag0 Ag3 2.986979 1_655
Ag0 K1 3.392932 1_555
Ag1 Te1 2.831695 1_455
Ag1 Te1 2.831695 1_545
Ag1 Ag5 2.869784 1_546
Ag1 Ag5 2.869784 1_456
Ag1 Ag4 3.059315 1_555
Ag1 Te3 3.097355 1_556
Ag1 K0 3.184145 1_556
Ag1 K1 3.788536 1_455
Ag1 K1 3.788536 1_545
Ag2 Te0 2.796901 1_555
Ag2 Ag4 2.850991 1_555
Ag2 Te2 2.907546 1_555
Ag2 Te3 3.055857 1_655
Ag2 Te3 3.055857 1_565
Ag2 Ag5 3.059315 1_555
Ag2 K1 3.705998 1_554
Ag3 Te2 2.696145 1_555
Ag3 Te3 2.791612 1_555
Ag3 K0 3.392932 1_555
Ag4 Te2 2.796901 1_555
Ag4 Te0 2.907546 1_555
Ag4 Te1 3.055857 1_455
Ag4 Te1 3.055857 1_545
Ag4 K0 3.705998 1_556
Ag5 Te3 2.831695 1_655
Ag5 Te3 2.831695 1_565
Ag5 Te1 3.097355 1_554
Ag5 K1 3.184145 1_554
Ag5 K0 3.788536 1_565
Ag5 K0 3.788536 1_655
