# generated using pymatgen
data_AlH12(NO5)3
_symmetry_space_group_name_H-M   'P 1'
_cell_length_a   12.01494027
_cell_length_b   12.01494027
_cell_length_c   12.01494027
_cell_angle_alpha   109.47122063
_cell_angle_beta   109.47122063
_cell_angle_gamma   109.47122063
_symmetry_Int_Tables_number   1
_chemical_formula_structural   AlH12(NO5)3
_chemical_formula_sum   'Al4 H48 N12 O60'
_cell_volume   1335.18965197
_cell_formula_units_Z   4
loop_
 _symmetry_equiv_pos_site_id
 _symmetry_equiv_pos_as_xyz
  1  'x, y, z'
loop_
 _atom_site_type_symbol
 _atom_site_label
 _atom_site_symmetry_multiplicity
 _atom_site_fract_x
 _atom_site_fract_y
 _atom_site_fract_z
 _atom_site_occupancy
  Al  Al0  1  0.00000000  0.50000000  0.00000000  1
  Al  Al1  1  0.50000000  0.00000000  0.00000000  1
  Al  Al2  1  0.00000000  0.00000000  0.50000000  1
  Al  Al3  1  0.50000000  0.50000000  0.50000000  1
  H  H0  1  0.91913400  0.62162500  0.87262800  1
  H  H1  1  0.25100300  0.87837500  0.79750800  1
  H  H2  1  0.24899700  0.04650500  0.62737200  1
  H  H3  1  0.58086600  0.45349500  0.70249200  1
  H  H4  1  0.87262800  0.91913400  0.62162500  1
  H  H5  1  0.79750800  0.25100300  0.87837500  1
  H  H6  1  0.62737200  0.24899700  0.04650500  1
  H  H7  1  0.70249200  0.58086600  0.45349500  1
  H  H8  1  0.62162500  0.87262800  0.91913400  1
  H  H9  1  0.87837500  0.79750800  0.25100300  1
  H  H10  1  0.04650500  0.62737200  0.24899700  1
  H  H11  1  0.45349500  0.70249200  0.58086600  1
  H  H12  1  0.08086600  0.37837500  0.12737200  1
  H  H13  1  0.74899700  0.12162500  0.20249200  1
  H  H14  1  0.75100300  0.95349500  0.37262800  1
  H  H15  1  0.41913400  0.54650500  0.29750800  1
  H  H16  1  0.12737200  0.08086600  0.37837500  1
  H  H17  1  0.20249200  0.74899700  0.12162500  1
  H  H18  1  0.37262800  0.75100300  0.95349500  1
  H  H19  1  0.29750800  0.41913400  0.54650500  1
  H  H20  1  0.37837500  0.12737200  0.08086600  1
  H  H21  1  0.12162500  0.20249200  0.74899700  1
  H  H22  1  0.95349500  0.37262800  0.75100300  1
  H  H23  1  0.54650500  0.29750800  0.41913400  1
  H  H24  1  0.88306500  0.64764100  0.99414500  1
  H  H25  1  0.34650300  0.85235900  0.73542400  1
  H  H26  1  0.15349700  0.88892000  0.50585500  1
  H  H27  1  0.61693500  0.61108000  0.76457600  1
  H  H28  1  0.99414500  0.88306500  0.64764100  1
  H  H29  1  0.73542400  0.34650300  0.85235900  1
  H  H30  1  0.50585500  0.15349700  0.88892000  1
  H  H31  1  0.76457600  0.61693500  0.61108000  1
  H  H32  1  0.64764100  0.99414500  0.88306500  1
  H  H33  1  0.85235900  0.73542400  0.34650300  1
  H  H34  1  0.88892000  0.50585500  0.15349700  1
  H  H35  1  0.61108000  0.76457600  0.61693500  1
  H  H36  1  0.11693500  0.35235900  0.00585500  1
  H  H37  1  0.65349700  0.14764100  0.26457600  1
  H  H38  1  0.84650300  0.11108000  0.49414500  1
  H  H39  1  0.38306500  0.38892000  0.23542400  1
  H  H40  1  0.00585500  0.11693500  0.35235900  1
  H  H41  1  0.26457600  0.65349700  0.14764100  1
  H  H42  1  0.49414500  0.84650300  0.11108000  1
  H  H43  1  0.23542400  0.38306500  0.38892000  1
  H  H44  1  0.35235900  0.00585500  0.11693500  1
  H  H45  1  0.14764100  0.26457600  0.65349700  1
  H  H46  1  0.11108000  0.49414500  0.84650300  1
  H  H47  1  0.38892000  0.23542400  0.38306500  1
  N  N0  1  0.21533500  0.96533500  0.25000000  1
  N  N1  1  0.28466500  0.53466500  0.75000000  1
  N  N2  1  0.25000000  0.21533500  0.96533500  1
  N  N3  1  0.75000000  0.28466500  0.53466500  1
  N  N4  1  0.96533500  0.25000000  0.21533500  1
  N  N5  1  0.53466500  0.75000000  0.28466500  1
  N  N6  1  0.78466500  0.03466500  0.75000000  1
  N  N7  1  0.71533500  0.46533500  0.25000000  1
  N  N8  1  0.75000000  0.78466500  0.03466500  1
  N  N9  1  0.25000000  0.71533500  0.46533500  1
  N  N10  1  0.03466500  0.75000000  0.78466500  1
  N  N11  1  0.46533500  0.25000000  0.71533500  1
  O  O0  1  0.91935700  0.59838600  0.94463400  1
  O  O1  1  0.34624900  0.90161400  0.82097100  1
  O  O2  1  0.15375100  0.97472200  0.55536600  1
  O  O3  1  0.58064300  0.52527800  0.67902900  1
  O  O4  1  0.94463400  0.91935700  0.59838600  1
  O  O5  1  0.82097100  0.34624900  0.90161400  1
  O  O6  1  0.55536600  0.15375100  0.97472200  1
  O  O7  1  0.67902900  0.58064300  0.52527800  1
  O  O8  1  0.59838600  0.94463400  0.91935700  1
  O  O9  1  0.90161400  0.82097100  0.34624900  1
  O  O10  1  0.97472200  0.55536600  0.15375100  1
  O  O11  1  0.52527800  0.67902900  0.58064300  1
  O  O12  1  0.08064300  0.40161400  0.05536600  1
  O  O13  1  0.65375100  0.09838600  0.17902900  1
  O  O14  1  0.84624900  0.02527800  0.44463400  1
  O  O15  1  0.41935700  0.47472200  0.32097100  1
  O  O16  1  0.05536600  0.08064300  0.40161400  1
  O  O17  1  0.17902900  0.65375100  0.09838600  1
  O  O18  1  0.44463400  0.84624900  0.02527800  1
  O  O19  1  0.32097100  0.41935700  0.47472200  1
  O  O20  1  0.40161400  0.05536600  0.08064300  1
  O  O21  1  0.09838600  0.17902900  0.65375100  1
  O  O22  1  0.02527800  0.44463400  0.84624900  1
  O  O23  1  0.47472200  0.32097100  0.41935700  1
  O  O24  1  0.27977300  0.93321200  0.19022100  1
  O  O25  1  0.25700900  0.56678800  0.84656000  1
  O  O26  1  0.24299100  0.08955200  0.30977900  1
  O  O27  1  0.22022700  0.41044800  0.65344000  1
  O  O28  1  0.19022100  0.27977300  0.93321200  1
  O  O29  1  0.84656000  0.25700900  0.56678800  1
  O  O30  1  0.30977900  0.24299100  0.08955200  1
  O  O31  1  0.65344000  0.22022700  0.41044800  1
  O  O32  1  0.93321200  0.19022100  0.27977300  1
  O  O33  1  0.56678800  0.84656000  0.25700900  1
  O  O34  1  0.08955200  0.30977900  0.24299100  1
  O  O35  1  0.41044800  0.65344000  0.22022700  1
  O  O36  1  0.72022700  0.06678800  0.80977900  1
  O  O37  1  0.74299100  0.43321200  0.15344000  1
  O  O38  1  0.75700900  0.91044800  0.69022100  1
  O  O39  1  0.77977300  0.58955200  0.34656000  1
  O  O40  1  0.80977900  0.72022700  0.06678800  1
  O  O41  1  0.15344000  0.74299100  0.43321200  1
  O  O42  1  0.69022100  0.75700900  0.91044800  1
  O  O43  1  0.34656000  0.77977300  0.58955200  1
  O  O44  1  0.06678800  0.80977900  0.72022700  1
  O  O45  1  0.43321200  0.15344000  0.74299100  1
  O  O46  1  0.91044800  0.69022100  0.75700900  1
  O  O47  1  0.58955200  0.34656000  0.77977300  1
  O  O48  1  0.12598600  0.87598600  0.25000000  1
  O  O49  1  0.37401400  0.62401400  0.75000000  1
  O  O50  1  0.25000000  0.12598600  0.87598600  1
  O  O51  1  0.75000000  0.37401400  0.62401400  1
  O  O52  1  0.87598600  0.25000000  0.12598600  1
  O  O53  1  0.62401400  0.75000000  0.37401400  1
  O  O54  1  0.87401400  0.12401400  0.75000000  1
  O  O55  1  0.62598600  0.37598600  0.25000000  1
  O  O56  1  0.75000000  0.87401400  0.12401400  1
  O  O57  1  0.25000000  0.62598600  0.37598600  1
  O  O58  1  0.12401400  0.75000000  0.87401400  1
  O  O59  1  0.37598600  0.25000000  0.62598600  1
loop_
_geom_bond_atom_site_label_1
_geom_bond_atom_site_label_2
_geom_bond_distance
_geom_bond_site_symmetry_2
Al0 O5 1.907037 1_454
Al0 O17 1.907037 1_555
Al0 O10 1.907037 1_455
Al0 O22 1.907037 1_554
Al0 O0 1.907041 1_454
Al0 O12 1.907041 1_555
Al1 O1 1.907037 1_544
Al1 O13 1.907037 1_555
Al1 O6 1.907037 1_554
Al1 O18 1.907037 1_545
Al1 O8 1.907041 1_544
Al1 O20 1.907041 1_555
Al2 O9 1.907037 1_445
Al2 O21 1.907037 1_555
Al2 O2 1.907037 1_545
Al2 O14 1.907037 1_455
Al2 O4 1.907041 1_445
Al2 O16 1.907041 1_555
Al3 O19 1.907037 1_555
Al3 O7 1.907037 1_555
Al3 O11 1.907037 1_555
Al3 O23 1.907037 1_555
Al3 O15 1.907037 1_555
Al3 O3 1.907037 1_555
H0 O0 0.993199 1_555
H1 O1 0.993208 1_555
H2 O2 0.993206 1_545
H3 O3 0.993206 1_555
H4 O4 0.993199 1_555
H5 O5 0.993208 1_555
H6 O6 0.993206 1_554
H7 O7 0.993206 1_555
H8 O8 0.993199 1_555
H9 O9 0.993208 1_555
H10 O10 0.993206 1_455
H11 O11 0.993206 1_555
H12 O12 0.993199 1_555
H13 O13 0.993208 1_555
H14 O14 0.993206 1_565
H15 O15 0.993206 1_555
H16 O16 0.993199 1_555
H17 O17 0.993208 1_555
H18 O18 0.993206 1_556
H19 O19 0.993206 1_555
H20 O20 0.993199 1_555
H21 O21 0.993208 1_555
H22 O22 0.993206 1_655
H23 O23 0.993206 1_555
H24 O0 1.002246 1_555
H24 O40 1.677659 1_556
H25 O1 1.002233 1_555
H25 O43 1.677659 1_555
H26 O2 1.002249 1_555
H26 O41 1.677659 1_555
H27 O3 1.002240 1_555
H27 O42 1.677659 1_555
H28 O4 1.002246 1_555
H28 O44 1.677659 1_655
H29 O5 1.002233 1_555
H29 O47 1.677659 1_555
H30 O6 1.002249 1_555
H30 O45 1.677659 1_555
H31 O7 1.002240 1_555
H31 O46 1.677659 1_555
H32 O8 1.002246 1_555
H32 O36 1.677659 1_565
H33 O9 1.002233 1_555
H33 O39 1.677659 1_555
H34 O10 1.002249 1_555
H34 O37 1.677659 1_555
H35 O11 1.002240 1_555
H35 O38 1.677659 1_555
H36 O12 1.002246 1_555
H36 O28 1.677659 1_554
H37 O13 1.002233 1_555
H37 O31 1.677659 1_555
H38 O14 1.002249 1_555
H38 O29 1.677659 1_555
H39 O15 1.002240 1_555
H39 O30 1.677659 1_555
H40 O16 1.002246 1_555
H40 O32 1.677659 1_455
H41 O17 1.002233 1_555
H41 O35 1.677659 1_555
H42 O18 1.002249 1_555
H42 O33 1.677659 1_555
H43 O19 1.002240 1_555
H43 O34 1.677659 1_555
H44 O20 1.002246 1_555
H44 O24 1.677659 1_545
H45 O21 1.002233 1_555
H45 O27 1.677659 1_555
H46 O22 1.002249 1_555
H46 O25 1.677659 1_555
H47 O23 1.002240 1_555
H47 O26 1.677659 1_555
N0 O48 1.239597 1_555
N0 O24 1.284277 1_555
N0 O26 1.284277 1_565
N1 O49 1.239597 1_555
N1 O25 1.284266 1_555
N1 O27 1.284273 1_555
N2 O50 1.239597 1_555
N2 O28 1.284277 1_555
N2 O30 1.284277 1_556
N3 O51 1.239597 1_555
N3 O29 1.284266 1_555
N3 O31 1.284273 1_555
N4 O52 1.239597 1_555
N4 O32 1.284277 1_555
N4 O34 1.284277 1_655
N5 O53 1.239597 1_555
N5 O33 1.284266 1_555
N5 O35 1.284273 1_555
N6 O54 1.239597 1_555
N6 O36 1.284277 1_555
N6 O38 1.284277 1_545
N7 O55 1.239597 1_555
N7 O37 1.284266 1_555
N7 O39 1.284273 1_555
N8 O56 1.239597 1_555
N8 O40 1.284277 1_555
N8 O42 1.284277 1_554
N9 O57 1.239597 1_555
N9 O41 1.284266 1_555
N9 O43 1.284273 1_555
N10 O58 1.239597 1_555
N10 O44 1.284277 1_555
N10 O46 1.284277 1_455
N11 O59 1.239597 1_555
N11 O45 1.284266 1_555
N11 O47 1.284273 1_555
