# generated using pymatgen
data_Ba(SbPd)2
_symmetry_space_group_name_H-M   'P 1'
_cell_length_a   4.74596388
_cell_length_b   4.74596382
_cell_length_c   6.50963441
_cell_angle_alpha   111.37891591
_cell_angle_beta   111.37890412
_cell_angle_gamma   90.00000212
_symmetry_Int_Tables_number   1
_chemical_formula_structural   Ba(SbPd)2
_chemical_formula_sum   'Ba1 Sb2 Pd2'
_cell_volume   125.63813091
_cell_formula_units_Z   1
loop_
 _symmetry_equiv_pos_site_id
 _symmetry_equiv_pos_as_xyz
  1  'x, y, z'
loop_
 _atom_site_type_symbol
 _atom_site_label
 _atom_site_symmetry_multiplicity
 _atom_site_fract_x
 _atom_site_fract_y
 _atom_site_fract_z
 _atom_site_occupancy
  Ba  Ba0  1  -0.00000000  -0.00000000  -0.00000000  1
  Sb  Sb0  1  0.63615744  0.63615744  0.27231487  1
  Sb  Sb1  1  0.36384256  0.36384256  0.72768513  1
  Pd  Pd0  1  0.75000000  0.25000000  0.50000000  1
  Pd  Pd1  1  0.25000000  0.75000000  0.50000000  1
loop_
_geom_bond_atom_site_label_1
_geom_bond_atom_site_label_2
_geom_bond_distance
_geom_bond_site_symmetry_2
Ba0 Pd0 3.661878 1_444
Ba0 Pd1 3.661878 1_555
Ba0 Pd1 3.661878 1_444
Ba0 Pd0 3.661878 1_555
Ba0 Pd1 3.661879 1_544
Ba0 Pd0 3.661879 1_455
Ba0 Pd0 3.661879 1_454
Ba0 Pd1 3.661879 1_545
Ba0 Sb0 3.683653 1_555
Ba0 Sb1 3.683653 1_444
Ba0 Sb1 3.683653 1_544
Ba0 Sb0 3.683653 1_455
Ba0 Sb1 3.683653 1_454
Ba0 Sb0 3.683653 1_545
Ba0 Sb1 3.683654 1_554
Ba0 Sb0 3.683654 1_445
Sb0 Sb1 3.037903 1_554
Pd0 Sb0 2.691462 1_545
Pd0 Sb1 2.691462 1_655
Pd0 Sb1 2.691463 1_555
Pd0 Sb0 2.691463 1_555
Pd1 Sb1 2.691462 1_565
Pd1 Sb0 2.691462 1_455
Pd1 Sb0 2.691463 1_555
Pd1 Sb1 2.691463 1_555
