# generated using pymatgen
data_Rb3H5Pd
_symmetry_space_group_name_H-M   'P 1'
_cell_length_a   7.82870400
_cell_length_b   7.82870400
_cell_length_c   6.10974200
_cell_angle_alpha   90.00000000
_cell_angle_beta   90.00000000
_cell_angle_gamma   90.00000000
_symmetry_Int_Tables_number   1
_chemical_formula_structural   Rb3H5Pd
_chemical_formula_sum   'Rb6 H10 Pd2'
_cell_volume   374.45757215
_cell_formula_units_Z   2
loop_
 _symmetry_equiv_pos_site_id
 _symmetry_equiv_pos_as_xyz
  1  'x, y, z'
loop_
 _atom_site_type_symbol
 _atom_site_label
 _atom_site_symmetry_multiplicity
 _atom_site_fract_x
 _atom_site_fract_y
 _atom_site_fract_z
 _atom_site_occupancy
  Rb  Rb0  1  0.50000000  0.50000000  0.00000000  1
  Rb  Rb1  1  0.00000000  0.00000000  0.00000000  1
  Rb  Rb2  1  0.18375800  0.68375800  0.50000000  1
  Rb  Rb3  1  0.81624200  0.31624200  0.50000000  1
  Rb  Rb4  1  0.68375800  0.81624200  0.50000000  1
  Rb  Rb5  1  0.31624200  0.18375800  0.50000000  1
  H  H0  1  0.50000000  0.50000000  0.50000000  1
  H  H1  1  0.00000000  0.00000000  0.50000000  1
  H  H2  1  0.60899900  0.10899900  0.81170000  1
  H  H3  1  0.39100100  0.89100100  0.81170000  1
  H  H4  1  0.10899900  0.39100100  0.81170000  1
  H  H5  1  0.89100100  0.60899900  0.81170000  1
  H  H6  1  0.39100100  0.89100100  0.18830000  1
  H  H7  1  0.60899900  0.10899900  0.18830000  1
  H  H8  1  0.89100100  0.60899900  0.18830000  1
  H  H9  1  0.10899900  0.39100100  0.18830000  1
  Pd  Pd0  1  0.50000000  0.00000000  0.00000000  1
  Pd  Pd1  1  0.00000000  0.50000000  0.00000000  1
loop_
_geom_bond_atom_site_label_1
_geom_bond_atom_site_label_2
_geom_bond_distance
_geom_bond_site_symmetry_2
H0 Rb4 2.863380 1_555
H0 Rb2 2.863380 1_555
H0 Rb3 2.863380 1_555
H0 Rb5 2.863380 1_555
H0 Rb0 3.054871 1_555
H0 Rb0 3.054871 1_556
H1 Rb3 2.863380 1_455
H1 Rb2 2.863380 1_545
H1 Rb4 2.863380 1_445
H1 Rb5 2.863380 1_555
H1 Rb1 3.054871 1_555
H1 Rb1 3.054871 1_556
H2 Pd0 1.667298 1_556
H2 Rb3 2.981847 1_555
H2 Rb5 3.036798 1_555
H2 Rb4 3.036798 1_545
H3 Pd0 1.667298 1_566
H3 Rb2 2.981847 1_555
H3 Rb4 3.036798 1_555
H3 Rb5 3.036798 1_565
H4 Pd1 1.667298 1_556
H4 Rb5 2.981847 1_555
H4 Rb3 3.036798 1_455
H4 Rb2 3.036798 1_555
H5 Pd1 1.667298 1_656
H5 Rb4 2.981847 1_555
H5 Rb3 3.036798 1_555
H5 Rb2 3.036798 1_655
H6 Pd0 1.667298 1_565
H6 Rb2 2.981847 1_555
H6 Rb4 3.036798 1_555
H6 Rb5 3.036798 1_565
H7 Pd0 1.667298 1_555
H7 Rb3 2.981847 1_555
H7 Rb5 3.036798 1_555
H7 Rb4 3.036798 1_545
H8 Pd1 1.667298 1_655
H8 Rb4 2.981847 1_555
H8 Rb3 3.036798 1_555
H8 Rb2 3.036798 1_655
H9 Pd1 1.667298 1_555
H9 Rb5 2.981847 1_555
H9 Rb2 3.036798 1_555
H9 Rb3 3.036798 1_455
