# generated using pymatgen
data_Li3H4Rh
_symmetry_space_group_name_H-M   'P 1'
_cell_length_a   4.81284334
_cell_length_b   4.81284334
_cell_length_c   8.76663544
_cell_angle_alpha   90.00000000
_cell_angle_beta   90.00000000
_cell_angle_gamma   45.65369735
_symmetry_Int_Tables_number   1
_chemical_formula_structural   Li3H4Rh
_chemical_formula_sum   'Li6 H8 Rh2'
_cell_volume   145.21792694
_cell_formula_units_Z   2
loop_
 _symmetry_equiv_pos_site_id
 _symmetry_equiv_pos_as_xyz
  1  'x, y, z'
loop_
 _atom_site_type_symbol
 _atom_site_label
 _atom_site_symmetry_multiplicity
 _atom_site_fract_x
 _atom_site_fract_y
 _atom_site_fract_z
 _atom_site_occupancy
  Li  Li0  1  0.83800736  0.83800736  0.42957206  1
  Li  Li1  1  0.16199264  0.16199264  0.57042794  1
  Li  Li2  1  0.83800736  0.83800736  0.07042794  1
  Li  Li3  1  0.16199264  0.16199264  0.92957206  1
  Li  Li4  1  0.51208573  0.51208573  0.25000000  1
  Li  Li5  1  0.48791427  0.48791427  0.75000000  1
  H  H0  1  0.06482695  0.06482695  0.12278103  1
  H  H1  1  0.93517305  0.93517305  0.87721897  1
  H  H2  1  0.06482695  0.06482695  0.37721897  1
  H  H3  1  0.93517305  0.93517305  0.62278103  1
  H  H4  1  0.33295048  0.33295048  0.38700795  1
  H  H5  1  0.66704952  0.66704952  0.61299205  1
  H  H6  1  0.33295048  0.33295048  0.11299205  1
  H  H7  1  0.66704952  0.66704952  0.88700795  1
  Rh  Rh0  1  0.20324912  0.20324912  0.25000000  1
  Rh  Rh1  1  0.79675088  0.79675088  0.75000000  1
loop_
_geom_bond_atom_site_label_1
_geom_bond_atom_site_label_2
_geom_bond_distance
_geom_bond_site_symmetry_2
H0 Rh0 1.658908 1_555
H0 Li3 1.900537 1_554
H0 Li2 2.063978 1_445
H0 Li4 2.224628 1_455
H0 Li4 2.224628 1_545
H1 Rh1 1.658908 1_555
H1 Li2 1.900537 1_556
H1 Li3 2.063978 1_665
H1 Li5 2.224628 1_655
H1 Li5 2.224628 1_565
H2 Rh0 1.658908 1_555
H2 Li1 1.900537 1_555
H2 Li0 2.063978 1_445
H2 Li4 2.224628 1_455
H2 Li4 2.224628 1_545
H3 Rh1 1.658908 1_555
H3 Li0 1.900537 1_555
H3 Li1 2.063978 1_665
H3 Li5 2.224628 1_655
H3 Li5 2.224628 1_565
H4 Rh0 1.663345 1_555
H4 Li0 1.904580 1_545
H4 Li0 1.904580 1_455
H4 Li4 1.992077 1_555
H4 Li1 2.210427 1_555
H5 Rh1 1.663345 1_555
H5 Li1 1.904580 1_565
H5 Li1 1.904580 1_655
H5 Li5 1.992077 1_555
H5 Li0 2.210427 1_555
H6 Rh0 1.663345 1_555
H6 Li2 1.904580 1_545
H6 Li2 1.904580 1_455
H6 Li4 1.992077 1_555
H6 Li3 2.210427 1_554
H7 Rh1 1.663345 1_555
H7 Li3 1.904580 1_655
H7 Li3 1.904580 1_565
H7 Li5 1.992077 1_555
H7 Li2 2.210427 1_556
