# generated using pymatgen
data_Tl2FeC5N6O
_symmetry_space_group_name_H-M   'P 1'
_cell_length_a   9.27097477
_cell_length_b   9.27097477
_cell_length_c   6.85984320
_cell_angle_alpha   73.15396208
_cell_angle_beta   73.15396208
_cell_angle_gamma   86.77616942
_symmetry_Int_Tables_number   1
_chemical_formula_structural   Tl2FeC5N6O
_chemical_formula_sum   'Tl4 Fe2 C10 N12 O2'
_cell_volume   539.84418700
_cell_formula_units_Z   2
loop_
 _symmetry_equiv_pos_site_id
 _symmetry_equiv_pos_as_xyz
  1  'x, y, z'
loop_
 _atom_site_type_symbol
 _atom_site_label
 _atom_site_symmetry_multiplicity
 _atom_site_fract_x
 _atom_site_fract_y
 _atom_site_fract_z
 _atom_site_occupancy
  Tl  Tl0  1  0.03132300  0.96691100  0.99894000  1
  Tl  Tl1  1  0.96691100  0.03132300  0.49894000  1
  Tl  Tl2  1  0.74978700  0.52032800  0.46967700  1
  Tl  Tl3  1  0.52032800  0.74978700  0.96967700  1
  Fe  Fe0  1  0.55234600  0.13946000  0.20658800  1
  Fe  Fe1  1  0.13946000  0.55234600  0.70658800  1
  C  C0  1  0.61733800  0.93850500  0.32870900  1
  C  C1  1  0.74400200  0.21359500  0.20112000  1
  C  C2  1  0.37524100  0.07097100  0.16056300  1
  C  C3  1  0.21359500  0.74400200  0.70112000  1
  C  C4  1  0.07097100  0.37524100  0.66056300  1
  C  C5  1  0.52954400  0.33590400  0.02350700  1
  C  C6  1  0.65161300  0.10259100  0.93863200  1
  C  C7  1  0.93850500  0.61733800  0.82870900  1
  C  C8  1  0.33590400  0.52954400  0.52350700  1
  C  C9  1  0.10259100  0.65161300  0.43863200  1
  N  N0  1  0.03742100  0.26692300  0.62611200  1
  N  N1  1  0.26692300  0.03742100  0.12611200  1
  N  N2  1  0.70547000  0.07789600  0.77466900  1
  N  N3  1  0.25582100  0.85958100  0.70656000  1
  N  N4  1  0.16299900  0.45951900  0.94349800  1
  N  N5  1  0.66692600  0.82341500  0.40390100  1
  N  N6  1  0.85958100  0.25582100  0.20656000  1
  N  N7  1  0.52301300  0.45280000  0.90092100  1
  N  N8  1  0.45280000  0.52301300  0.40092100  1
  N  N9  1  0.07789600  0.70547000  0.27466900  1
  N  N10  1  0.45951900  0.16299900  0.44349800  1
  N  N11  1  0.82341500  0.66692600  0.90390100  1
  O  O0  1  0.39656000  0.17379600  0.60940200  1
  O  O1  1  0.17379600  0.39656000  0.10940200  1
loop_
_geom_bond_atom_site_label_1
_geom_bond_atom_site_label_2
_geom_bond_distance
_geom_bond_site_symmetry_2
Fe0 N10 1.674280 1_555
Fe1 N4 1.674280 1_555
C0 N5 1.174379 1_555
C0 Fe0 1.948717 1_565
C1 N6 1.175435 1_555
C1 Fe0 1.927364 1_555
C2 N1 1.173172 1_555
C2 Fe0 1.932027 1_555
C3 N3 1.175435 1_555
C3 Fe1 1.927364 1_555
C4 N0 1.173172 1_555
C4 Fe1 1.932027 1_555
C5 N7 1.174403 1_554
C5 Fe0 1.929694 1_555
C6 N2 1.173755 1_555
C6 Fe0 1.921155 1_556
C7 N11 1.174379 1_555
C7 Fe1 1.948717 1_655
C8 N8 1.174403 1_555
C8 Fe1 1.929694 1_555
C9 N9 1.173755 1_555
C9 Fe1 1.921155 1_555
N0 Tl1 2.748604 1_455
N1 Tl0 2.748604 1_544
N2 Tl1 2.708754 1_555
N3 Tl0 2.801616 1_555
N4 O1 1.149072 1_556
N5 Tl2 2.812933 1_555
N6 Tl1 2.801616 1_555
N9 Tl0 2.708754 1_554
N10 O0 1.149072 1_555
N11 Tl3 2.812933 1_555
