# generated using pymatgen
data_SiAg5ClO4
_symmetry_space_group_name_H-M   'P 1'
_cell_length_a   12.98715082
_cell_length_b   13.02749784
_cell_length_c   19.45832816
_cell_angle_alpha   90.00000000
_cell_angle_beta   90.00000000
_cell_angle_gamma   118.53119551
_symmetry_Int_Tables_number   1
_chemical_formula_structural   SiAg5ClO4
_chemical_formula_sum   'Si16 Ag80 Cl16 O64'
_cell_volume   2892.34738621
_cell_formula_units_Z   16
loop_
 _symmetry_equiv_pos_site_id
 _symmetry_equiv_pos_as_xyz
  1  'x, y, z'
loop_
 _atom_site_type_symbol
 _atom_site_label
 _atom_site_symmetry_multiplicity
 _atom_site_fract_x
 _atom_site_fract_y
 _atom_site_fract_z
 _atom_site_occupancy
  Si  Si0  1  0.67751353  0.57660892  0.60858006  1
  Si  Si1  1  0.31724149  0.93084152  0.10181180  1
  Si  Si2  1  0.81724149  0.93084152  0.39818820  1
  Si  Si3  1  0.17751353  0.57660892  0.89141994  1
  Si  Si4  1  0.56420434  0.67951297  0.10264500  1
  Si  Si5  1  0.06420434  0.67951297  0.39735500  1
  Si  Si6  1  0.68275851  0.06915848  0.89818820  1
  Si  Si7  1  0.93579566  0.32048703  0.60264500  1
  Si  Si8  1  0.56926400  0.17118957  0.39411840  1
  Si  Si9  1  0.82248647  0.42339108  0.10858006  1
  Si  Si10  1  0.32248647  0.42339108  0.39141994  1
  Si  Si11  1  0.18275851  0.06915848  0.60181180  1
  Si  Si12  1  0.43073600  0.82881043  0.60588160  1
  Si  Si13  1  0.06926400  0.17118957  0.10588160  1
  Si  Si14  1  0.93073600  0.82881043  0.89411840  1
  Si  Si15  1  0.43579566  0.32048703  0.89735500  1
  Ag  Ag0  1  0.58025886  0.92624230  0.75199723  1
  Ag  Ag1  1  0.50145269  0.33249509  0.29216753  1
  Ag  Ag2  1  0.55387817  0.70123144  0.39363048  1
  Ag  Ag3  1  0.05601178  0.94344097  0.46294787  1
  Ag  Ag4  1  0.94612183  0.29876856  0.89363048  1
  Ag  Ag5  1  0.55871495  0.94256616  0.46343511  1
  Ag  Ag6  1  0.44914121  0.57031710  0.53347934  1
  Ag  Ag7  1  0.07402192  0.43257151  0.74759599  1
  Ag  Ag8  1  0.33203925  0.20668403  0.05617640  1
  Ag  Ag9  1  0.04733800  0.42236671  0.45237733  1
  Ag  Ag10  1  0.45266200  0.57763329  0.95237733  1
  Ag  Ag11  1  0.18151634  0.80046124  0.96010245  1
  Ag  Ag12  1  0.31848366  0.19953876  0.46010245  1
  Ag  Ag13  1  0.08025886  0.92624230  0.74800277  1
  Ag  Ag14  1  0.19342325  0.25046205  0.25725858  1
  Ag  Ag15  1  0.81580118  0.45391479  0.70020364  1
  Ag  Ag16  1  0.94128505  0.05743384  0.96343511  1
  Ag  Ag17  1  0.18419882  0.54608521  0.29979636  1
  Ag  Ag18  1  0.69342325  0.25046205  0.24274142  1
  Ag  Ag19  1  0.68151634  0.80046124  0.53989755  1
  Ag  Ag20  1  0.45692315  0.83288197  0.19939355  1
  Ag  Ag21  1  0.29679973  0.94176464  0.39934551  1
  Ag  Ag22  1  0.79679973  0.94176464  0.10065449  1
  Ag  Ag23  1  0.44683218  0.80522492  0.90214758  1
  Ag  Ag24  1  0.70495175  0.30959233  0.53333587  1
  Ag  Ag25  1  0.42597808  0.56742849  0.24759599  1
  Ag  Ag26  1  0.35425674  0.00585963  0.70216041  1
  Ag  Ag27  1  0.05871495  0.94256616  0.03656489  1
  Ag  Ag28  1  0.73244533  0.80604617  0.24158646  1
  Ag  Ag29  1  0.04307685  0.16711803  0.69939355  1
  Ag  Ag30  1  0.00145269  0.33249509  0.20783247  1
  Ag  Ag31  1  0.44612183  0.29876856  0.60636952  1
  Ag  Ag32  1  0.76755467  0.19395383  0.74158646  1
  Ag  Ag33  1  0.55316782  0.19477508  0.09785242  1
  Ag  Ag34  1  0.57402192  0.43257151  0.75240401  1
  Ag  Ag35  1  0.20320027  0.05823536  0.89934551  1
  Ag  Ag36  1  0.99854731  0.66750491  0.79216753  1
  Ag  Ag37  1  0.49854731  0.66750491  0.70783247  1
  Ag  Ag38  1  0.79149924  0.44155136  0.39637095  1
  Ag  Ag39  1  0.79504825  0.69040767  0.03333587  1
  Ag  Ag40  1  0.31580118  0.45391479  0.79979636  1
  Ag  Ag41  1  0.95266200  0.57763329  0.54762267  1
  Ag  Ag42  1  0.66796075  0.79331697  0.94382360  1
  Ag  Ag43  1  0.23244533  0.80604617  0.25841354  1
  Ag  Ag44  1  0.76773402  0.66043483  0.44667588  1
  Ag  Ag45  1  0.05387817  0.70123144  0.10636952  1
  Ag  Ag46  1  0.29149924  0.44155136  0.10362905  1
  Ag  Ag47  1  0.91974114  0.07375770  0.25199723  1
  Ag  Ag48  1  0.41974114  0.07375770  0.24800277  1
  Ag  Ag49  1  0.68419882  0.54608521  0.20020364  1
  Ag  Ag50  1  0.30657675  0.74953795  0.75725858  1
  Ag  Ag51  1  0.05085879  0.42968290  0.03347934  1
  Ag  Ag52  1  0.16796075  0.79331697  0.55617640  1
  Ag  Ag53  1  0.55085879  0.42968290  0.46652066  1
  Ag  Ag54  1  0.14574326  0.99414037  0.20216041  1
  Ag  Ag55  1  0.55601178  0.94344097  0.03705213  1
  Ag  Ag56  1  0.05316782  0.19477508  0.40214758  1
  Ag  Ag57  1  0.54307685  0.16711803  0.80060645  1
  Ag  Ag58  1  0.83203925  0.20668403  0.44382360  1
  Ag  Ag59  1  0.95692315  0.83288197  0.30060645  1
  Ag  Ag60  1  0.80657675  0.74953795  0.74274142  1
  Ag  Ag61  1  0.54733800  0.42236671  0.04762267  1
  Ag  Ag62  1  0.23226598  0.33956517  0.55332412  1
  Ag  Ag63  1  0.26773402  0.66043483  0.05332412  1
  Ag  Ag64  1  0.20495175  0.30959233  0.96666413  1
  Ag  Ag65  1  0.85425674  0.00585963  0.79783959  1
  Ag  Ag66  1  0.20850076  0.55844864  0.60362905  1
  Ag  Ag67  1  0.94398822  0.05655903  0.53705213  1
  Ag  Ag68  1  0.70850076  0.55844864  0.89637095  1
  Ag  Ag69  1  0.94683218  0.80522492  0.59785242  1
  Ag  Ag70  1  0.29504825  0.69040767  0.46666413  1
  Ag  Ag71  1  0.81848366  0.19953876  0.03989755  1
  Ag  Ag72  1  0.70320027  0.05823536  0.60065449  1
  Ag  Ag73  1  0.44398822  0.05655903  0.96294787  1
  Ag  Ag74  1  0.26755467  0.19395383  0.75841354  1
  Ag  Ag75  1  0.92597808  0.56742849  0.25240401  1
  Ag  Ag76  1  0.44128505  0.05743384  0.53656489  1
  Ag  Ag77  1  0.64574326  0.99414037  0.29783959  1
  Ag  Ag78  1  0.73226598  0.33956517  0.94667588  1
  Ag  Ag79  1  0.94914121  0.57031710  0.96652066  1
  Cl  Cl0  1  0.90690391  0.80245029  0.17475375  1
  Cl  Cl1  1  0.67346557  0.07343115  0.17809345  1
  Cl  Cl2  1  0.82653443  0.92656885  0.67809345  1
  Cl  Cl3  1  0.32909196  0.42449830  0.67082046  1
  Cl  Cl4  1  0.93166183  0.34071750  0.32775379  1
  Cl  Cl5  1  0.56833817  0.65928250  0.82775379  1
  Cl  Cl6  1  0.59309609  0.19754971  0.67475375  1
  Cl  Cl7  1  0.32653443  0.92656885  0.82190655  1
  Cl  Cl8  1  0.17090804  0.57550170  0.17082046  1
  Cl  Cl9  1  0.43166183  0.34071750  0.17224621  1
  Cl  Cl10  1  0.17346557  0.07343115  0.32190655  1
  Cl  Cl11  1  0.06833817  0.65928250  0.67224621  1
  Cl  Cl12  1  0.09309609  0.19754971  0.82524625  1
  Cl  Cl13  1  0.40690391  0.80245029  0.32524625  1
  Cl  Cl14  1  0.82909196  0.42449830  0.82917954  1
  Cl  Cl15  1  0.67090804  0.57550170  0.32917954  1
  O  O0  1  0.93439930  0.60370877  0.43398800  1
  O  O1  1  0.59671033  0.64499703  0.60854821  1
  O  O2  1  0.36000380  0.39346726  0.90070726  1
  O  O3  1  0.70262288  0.34762015  0.06205222  1
  O  O4  1  0.09671033  0.64499703  0.89145179  1
  O  O5  1  0.69788856  0.85810976  0.35065826  1
  O  O6  1  0.30211144  0.14189024  0.64934174  1
  O  O7  1  0.14285574  0.09665345  0.10196358  1
  O  O8  1  0.89076954  0.55446285  0.07308440  1
  O  O9  1  0.19788856  0.85810976  0.14934174  1
  O  O10  1  0.29737712  0.65237985  0.93794778  1
  O  O11  1  0.86000380  0.39346726  0.59929274  1
  O  O12  1  0.43439930  0.60370877  0.06601200  1
  O  O13  1  0.79737712  0.65237985  0.56205222  1
  O  O14  1  0.14278789  0.29269557  0.15115686  1
  O  O15  1  0.63688016  0.80396419  0.05965731  1
  O  O16  1  0.71916715  0.04623061  0.97611374  1
  O  O17  1  0.06560070  0.39629123  0.56601200  1
  O  O18  1  0.86311984  0.19603581  0.55965731  1
  O  O19  1  0.60725628  0.94010485  0.86048800  1
  O  O20  1  0.20262288  0.34762015  0.43794778  1
  O  O21  1  0.54683523  0.20853176  0.47223017  1
  O  O22  1  0.89274372  0.05989515  0.36048800  1
  O  O23  1  0.78083285  0.95376939  0.47611374  1
  O  O24  1  0.05920306  0.90512499  0.85627242  1
  O  O25  1  0.04982962  0.70898775  0.31594596  1
  O  O26  1  0.39224298  0.85786956  0.09658139  1
  O  O27  1  0.10775702  0.14213044  0.59658139  1
  O  O28  1  0.55920306  0.90512499  0.64372758  1
  O  O29  1  0.36311984  0.19603581  0.94034269  1
  O  O30  1  0.35721211  0.70730443  0.65115686  1
  O  O31  1  0.71124199  0.56417692  0.68911829  1
  O  O32  1  0.60923046  0.44553715  0.57308440  1
  O  O33  1  0.54982962  0.70898775  0.18405404  1
  O  O34  1  0.13999620  0.60653274  0.40070726  1
  O  O35  1  0.28875801  0.43582308  0.31088171  1
  O  O36  1  0.04683523  0.20853176  0.02776983  1
  O  O37  1  0.45017038  0.29101225  0.81594596  1
  O  O38  1  0.21916715  0.04623061  0.52388626  1
  O  O39  1  0.10923046  0.44553715  0.92691560  1
  O  O40  1  0.39076954  0.55446285  0.42691560  1
  O  O41  1  0.78875801  0.43582308  0.18911829  1
  O  O42  1  0.64285574  0.09665345  0.39803642  1
  O  O43  1  0.85714426  0.90334655  0.89803642  1
  O  O44  1  0.45316477  0.79146824  0.52776983  1
  O  O45  1  0.63999620  0.60653274  0.09929274  1
  O  O46  1  0.95017038  0.29101225  0.68405404  1
  O  O47  1  0.60775702  0.14213044  0.90341861  1
  O  O48  1  0.44079694  0.09487501  0.35627242  1
  O  O49  1  0.94079694  0.09487501  0.14372758  1
  O  O50  1  0.35714426  0.90334655  0.60196358  1
  O  O51  1  0.28083285  0.95376939  0.02388626  1
  O  O52  1  0.90328967  0.35500297  0.10854821  1
  O  O53  1  0.21124199  0.56417692  0.81088171  1
  O  O54  1  0.85721211  0.70730443  0.84884314  1
  O  O55  1  0.80211144  0.14189024  0.85065826  1
  O  O56  1  0.64278789  0.29269557  0.34884314  1
  O  O57  1  0.39274372  0.05989515  0.13951200  1
  O  O58  1  0.56560070  0.39629123  0.93398800  1
  O  O59  1  0.89224298  0.85786956  0.40341861  1
  O  O60  1  0.10725628  0.94010485  0.63951200  1
  O  O61  1  0.95316477  0.79146824  0.97223017  1
  O  O62  1  0.13688016  0.80396419  0.44034269  1
  O  O63  1  0.40328967  0.35500297  0.39145179  1
loop_
_geom_bond_atom_site_label_1
_geom_bond_atom_site_label_2
_geom_bond_distance
_geom_bond_site_symmetry_2
Ag0 O28 2.125318 1_555
Ag0 O19 2.133445 1_555
Ag1 O56 2.400704 1_555
Ag1 O63 2.408443 1_555
Ag1 Cl9 2.524050 1_555
Ag1 Cl15 2.954420 1_555
Ag2 O40 2.166441 1_555
Ag2 O5 2.173149 1_555
Ag2 Cl15 2.990625 1_555
Ag3 O59 2.200722 1_455
Ag3 O38 2.231256 1_565
Ag3 O62 2.533989 1_555
Ag4 O39 2.166441 1_655
Ag4 O55 2.173149 1_555
Ag4 Cl14 2.990625 1_555
Ag5 O44 2.177907 1_555
Ag5 O42 2.178894 1_565
Ag6 O40 2.183436 1_555
Ag6 O1 2.229805 1_555
Ag7 O46 2.164081 1_455
Ag7 O53 2.170954 1_555
Ag8 O29 2.305616 1_554
Ag8 O7 2.349631 1_555
Ag8 Cl9 2.768702 1_555
Ag9 O17 2.266663 1_555
Ag9 O34 2.336065 1_555
Ag9 O20 2.640098 1_555
Ag9 Cl4 2.782498 1_455
Ag10 O12 2.266663 1_556
Ag10 O2 2.336065 1_555
Ag10 O10 2.640098 1_555
Ag10 Cl5 2.782498 1_555
Ag11 O51 2.175338 1_556
Ag11 O4 2.229010 1_555
Ag12 O38 2.175338 1_555
Ag12 O63 2.229010 1_555
Ag13 O24 2.125318 1_555
Ag13 O60 2.133445 1_555
Ag14 O14 2.311540 1_555
Ag14 O35 2.365754 1_555
Ag14 Cl10 2.529317 1_555
Ag14 Cl9 3.196357 1_555
Ag15 O11 2.288467 1_555
Ag15 O31 2.411885 1_555
Ag15 Cl14 2.556993 1_555
Ag15 Cl11 3.135009 1_655
Ag16 O36 2.177907 1_656
Ag16 O43 2.178894 1_545
Ag17 O34 2.288467 1_555
Ag17 O35 2.411885 1_555
Ag17 Cl8 2.556993 1_555
Ag17 Cl4 3.135009 1_455
Ag18 O56 2.311540 1_555
Ag18 O41 2.365754 1_555
Ag18 Cl1 2.529317 1_555
Ag18 Cl4 3.196357 1_555
Ag19 O23 2.175338 1_555
Ag19 O1 2.229010 1_555
Ag20 O26 2.252779 1_555
Ag20 O33 2.451616 1_555
Ag20 Cl13 2.515983 1_555
Ag21 O62 2.147309 1_555
Ag21 O48 2.148260 1_565
Ag22 O15 2.147309 1_555
Ag22 O49 2.148260 1_565
Ag23 O10 2.127331 1_555
Ag23 O19 2.142022 1_555
Ag24 O21 2.186611 1_555
Ag24 O11 2.189547 1_555
Ag24 O32 2.717224 1_555
Ag25 O33 2.164081 1_555
Ag25 O35 2.170954 1_555
Ag26 O50 2.373597 1_545
Ag26 O6 2.408702 1_555
Ag26 Cl7 2.504105 1_545
Ag26 Cl6 2.956761 1_555
Ag27 O61 2.177907 1_454
Ag27 O7 2.178894 1_565
Ag28 O5 2.335942 1_555
Ag28 O33 2.368991 1_555
Ag28 Cl0 2.632157 1_555
Ag29 O27 2.252779 1_555
Ag29 O46 2.451616 1_455
Ag29 Cl12 2.515983 1_555
Ag30 O14 2.400704 1_555
Ag30 O52 2.408443 1_455
Ag30 Cl4 2.524050 1_455
Ag30 Cl8 2.954420 1_555
Ag31 O32 2.166441 1_555
Ag31 O6 2.173149 1_555
Ag31 Cl3 2.990625 1_555
Ag32 O55 2.335942 1_555
Ag32 O46 2.368991 1_555
Ag32 Cl6 2.632157 1_555
Ag33 O3 2.127331 1_555
Ag33 O57 2.142022 1_555
Ag34 O37 2.164081 1_555
Ag34 O31 2.170954 1_555
Ag35 O29 2.147309 1_555
Ag35 O24 2.148260 1_545
Ag36 O54 2.400704 1_555
Ag36 O4 2.408443 1_655
Ag36 Cl11 2.524050 1_655
Ag36 Cl14 2.954420 1_555
Ag37 O30 2.400704 1_555
Ag37 O1 2.408443 1_555
Ag37 Cl5 2.524050 1_555
Ag37 Cl3 2.954420 1_555
Ag38 O0 2.167374 1_555
Ag38 O56 2.183606 1_555
Ag38 Cl4 3.017623 1_555
Ag39 O61 2.186611 1_554
Ag39 O45 2.189547 1_555
Ag39 O8 2.717224 1_555
Ag40 O2 2.288467 1_555
Ag40 O53 2.411885 1_555
Ag40 Cl3 2.556993 1_555
Ag40 Cl5 3.135009 1_555
Ag41 O0 2.266663 1_555
Ag41 O11 2.336065 1_555
Ag41 O13 2.640098 1_555
Ag41 Cl11 2.782498 1_655
Ag42 O15 2.305614 1_556
Ag42 O43 2.349630 1_555
Ag42 Cl5 2.768707 1_555
Ag43 O9 2.335942 1_555
Ag43 O25 2.368991 1_555
Ag43 Cl13 2.632157 1_555
Ag44 O13 2.288662 1_555
Ag44 O59 2.442487 1_555
Ag44 Cl15 2.589112 1_555
Ag44 O0 2.611549 1_555
Ag45 O8 2.166441 1_455
Ag45 O9 2.173149 1_555
Ag45 Cl8 2.990625 1_555
Ag46 O12 2.167374 1_555
Ag46 O14 2.183606 1_555
Ag46 Cl9 3.017623 1_555
Ag47 O49 2.125318 1_555
Ag47 O22 2.133445 1_555
Ag48 O48 2.125318 1_555
Ag48 O57 2.133445 1_555
Ag49 O45 2.288467 1_555
Ag49 O41 2.411885 1_555
Ag49 Cl15 2.556993 1_555
Ag49 Cl9 3.135009 1_555
Ag50 O30 2.311540 1_555
Ag50 O53 2.365754 1_555
Ag50 Cl7 2.529317 1_555
Ag50 Cl11 3.196357 1_555
Ag51 O39 2.183436 1_554
Ag51 O52 2.229805 1_455
Ag52 O62 2.305614 1_555
Ag52 O50 2.349630 1_555
Ag52 Cl11 2.768707 1_555
Ag53 O32 2.183436 1_555
Ag53 O63 2.229805 1_555
Ag54 O7 2.373597 1_565
Ag54 O9 2.408702 1_555
Ag54 Cl10 2.504105 1_565
Ag54 Cl0 2.956761 1_455
Ag55 O26 2.200722 1_555
Ag55 O16 2.231256 1_564
Ag55 O15 2.533989 1_555
Ag56 O20 2.127331 1_555
Ag56 O22 2.142022 1_455
Ag57 O47 2.252779 1_555
Ag57 O37 2.451616 1_555
Ag57 Cl6 2.515983 1_555
Ag58 O18 2.305616 1_555
Ag58 O42 2.349631 1_555
Ag58 Cl4 2.768702 1_555
Ag59 O59 2.252779 1_555
Ag59 O25 2.451616 1_655
Ag59 Cl0 2.515983 1_555
Ag60 O54 2.311540 1_555
Ag60 O31 2.365754 1_555
Ag60 Cl2 2.529317 1_555
Ag60 Cl5 3.196357 1_555
Ag61 O58 2.266663 1_554
Ag61 O45 2.336065 1_555
Ag61 O3 2.640098 1_555
Ag61 Cl9 2.782498 1_555
Ag62 O20 2.288662 1_555
Ag62 O27 2.442487 1_555
Ag62 Cl3 2.589112 1_555
Ag62 O17 2.611549 1_555
Ag63 O10 2.288662 1_554
Ag63 O26 2.442487 1_555
Ag63 Cl8 2.589112 1_555
Ag63 O12 2.611549 1_555
Ag64 O36 2.186611 1_556
Ag64 O2 2.189547 1_555
Ag64 O39 2.717224 1_555
Ag65 O43 2.373597 1_545
Ag65 O55 2.408702 1_555
Ag65 Cl2 2.504105 1_545
Ag65 Cl12 2.956761 1_655
Ag66 O17 2.167374 1_555
Ag66 O30 2.183606 1_555
Ag66 Cl11 3.017623 1_555
Ag67 O27 2.200722 1_655
Ag67 O23 2.231256 1_545
Ag67 O18 2.533989 1_555
Ag68 O58 2.167374 1_555
Ag68 O54 2.183606 1_555
Ag68 Cl5 3.017623 1_555
Ag69 O13 2.127331 1_555
Ag69 O60 2.142022 1_655
Ag70 O44 2.186611 1_555
Ag70 O34 2.189547 1_555
Ag70 O40 2.717224 1_555
Ag71 O16 2.175338 1_554
Ag71 O52 2.229010 1_555
Ag72 O18 2.147309 1_555
Ag72 O28 2.148260 1_545
Ag73 O47 2.200722 1_555
Ag73 O51 2.231256 1_546
Ag73 O29 2.533989 1_555
Ag74 O6 2.335942 1_555
Ag74 O37 2.368991 1_555
Ag74 Cl12 2.632157 1_555
Ag75 O25 2.164081 1_655
Ag75 O41 2.170954 1_555
Ag76 O21 2.177907 1_555
Ag76 O50 2.178894 1_545
Ag77 O42 2.373597 1_565
Ag77 O5 2.408702 1_555
Ag77 Cl1 2.504105 1_565
Ag77 Cl13 2.956761 1_555
Ag78 O3 2.288662 1_556
Ag78 O47 2.442487 1_555
Ag78 Cl14 2.589112 1_555
Ag78 O58 2.611549 1_555
Ag79 O8 2.183436 1_556
Ag79 O4 2.229805 1_655
O0 Si5 1.653760 1_655
O1 Si0 1.669767 1_555
O2 Si15 1.664648 1_555
O3 Si9 1.658140 1_555
O4 Si3 1.669767 1_555
O5 Si2 1.659155 1_555
O6 Si11 1.659155 1_555
O7 Si13 1.657916 1_555
O8 Si9 1.653066 1_555
O9 Si1 1.659155 1_555
O10 Si3 1.658140 1_555
O11 Si7 1.664648 1_555
O12 Si4 1.653760 1_555
O13 Si0 1.658140 1_555
O14 Si13 1.658208 1_555
O15 Si4 1.660511 1_555
O16 Si6 1.657373 1_555
O17 Si7 1.653760 1_455
O18 Si7 1.660511 1_555
O19 Si6 1.658734 1_565
O20 Si10 1.658140 1_555
O21 Si8 1.663443 1_555
O22 Si2 1.658734 1_545
O23 Si2 1.657373 1_555
O24 Si14 1.652215 1_455
O25 Si5 1.661353 1_555
O26 Si1 1.657536 1_555
O27 Si11 1.657536 1_555
O28 Si12 1.652215 1_555
O29 Si15 1.660511 1_555
O30 Si12 1.658208 1_555
O31 Si0 1.655839 1_555
O32 Si0 1.653066 1_555
O33 Si4 1.661353 1_555
O34 Si5 1.664648 1_555
O35 Si10 1.655839 1_555
O36 Si13 1.663443 1_555
O37 Si15 1.661353 1_555
O38 Si11 1.657373 1_555
O39 Si3 1.653066 1_555
O40 Si10 1.653066 1_555
O41 Si9 1.655839 1_555
O42 Si8 1.657916 1_555
O43 Si14 1.657916 1_555
O44 Si12 1.663443 1_555
O45 Si4 1.664648 1_555
O46 Si7 1.661353 1_555
O47 Si6 1.657536 1_555
O48 Si8 1.652215 1_555
O49 Si13 1.652215 1_655
O50 Si12 1.657916 1_555
O51 Si1 1.657373 1_555
O52 Si9 1.669767 1_555
O53 Si3 1.655839 1_555
O54 Si14 1.658208 1_555
O55 Si6 1.659155 1_555
O56 Si8 1.658208 1_555
O57 Si1 1.658734 1_545
O58 Si15 1.653760 1_555
O59 Si2 1.657536 1_555
O60 Si11 1.658734 1_565
O61 Si14 1.663443 1_555
O62 Si5 1.660511 1_555
O63 Si10 1.669767 1_555
