# generated using pymatgen
data_Ca5Nd5Mn9CrO30
_symmetry_space_group_name_H-M   'P 1'
_cell_length_a   5.43436629
_cell_length_b   5.48357224
_cell_length_c   38.59869742
_cell_angle_alpha   90.03756439
_cell_angle_beta   90.03917387
_cell_angle_gamma   90.06521668
_symmetry_Int_Tables_number   1
_chemical_formula_structural   Ca5Nd5Mn9CrO30
_chemical_formula_sum   'Ca10 Nd10 Mn18 Cr2 O60'
_cell_volume   1150.22988980
_cell_formula_units_Z   2
loop_
 _symmetry_equiv_pos_site_id
 _symmetry_equiv_pos_as_xyz
  1  'x, y, z'
loop_
 _atom_site_type_symbol
 _atom_site_label
 _atom_site_symmetry_multiplicity
 _atom_site_fract_x
 _atom_site_fract_y
 _atom_site_fract_z
 _atom_site_occupancy
  Ca  Ca0  1  0.48953800  0.46051800  0.24856000  1
  Ca  Ca1  1  0.48875400  0.45980300  0.44915200  1
  Ca  Ca2  1  0.51270700  0.53826300  0.15134400  1
  Ca  Ca3  1  0.51431600  0.53918900  0.75076400  1
  Ca  Ca4  1  0.51156600  0.53916100  0.95025900  1
  Ca  Ca5  1  0.98842800  0.03897100  0.15071800  1
  Ca  Ca6  1  0.99007000  0.03985600  0.34940700  1
  Ca  Ca7  1  0.98887600  0.03869700  0.54885200  1
  Ca  Ca8  1  0.98758800  0.03956900  0.75049200  1
  Ca  Ca9  1  0.98630100  0.03977700  0.95021200  1
  Nd  Nd0  1  0.00810800  0.96211400  0.05024400  1
  Nd  Nd1  1  0.01018900  0.96209900  0.24922800  1
  Nd  Nd2  1  0.01079900  0.96202600  0.44939900  1
  Nd  Nd3  1  0.00882600  0.96201600  0.65080100  1
  Nd  Nd4  1  0.00815800  0.96100800  0.85024800  1
  Nd  Nd5  1  0.49209000  0.46287300  0.05037800  1
  Nd  Nd6  1  0.49087600  0.46138400  0.65116900  1
  Nd  Nd7  1  0.49169100  0.46054900  0.85035700  1
  Nd  Nd8  1  0.51135100  0.53756100  0.34927900  1
  Nd  Nd9  1  0.51197900  0.53863800  0.54864500  1
  Mn  Mn0  1  0.99928900  0.49924200  0.99882400  1
  Mn  Mn1  1  0.99930400  0.49891800  0.10169900  1
  Mn  Mn2  1  0.99985800  0.49852800  0.19925000  1
  Mn  Mn3  1  0.99956500  0.49868800  0.39961200  1
  Mn  Mn4  1  0.00148400  0.49815800  0.49929900  1
  Mn  Mn5  1  0.99991300  0.49865800  0.59933400  1
  Mn  Mn6  1  0.00084000  0.49832600  0.79905300  1
  Mn  Mn7  1  0.99862400  0.49914400  0.90164300  1
  Mn  Mn8  1  0.50086000  0.99966300  0.99878300  1
  Mn  Mn9  1  0.50077500  0.99883800  0.10171500  1
  Mn  Mn10  1  0.50098600  0.00015000  0.19920200  1
  Mn  Mn11  1  0.49957800  0.00106000  0.39948600  1
  Mn  Mn12  1  0.50060800  0.00155500  0.29954900  1
  Mn  Mn13  1  0.50003700  0.99874700  0.90150500  1
  Mn  Mn14  1  0.50059000  0.00157300  0.49960300  1
  Mn  Mn15  1  0.50047900  0.99892500  0.70199800  1
  Mn  Mn16  1  0.00102800  0.49838600  0.29944000  1
  Mn  Mn17  1  0.99880400  0.49939800  0.70195900  1
  Cr  Cr0  1  0.49997900  0.99969600  0.59921300  1
  Cr  Cr1  1  0.50201500  0.99790700  0.79884200  1
  O  O0  1  0.08124600  0.47958700  0.15006200  1
  O  O1  1  0.07808600  0.48070100  0.54983600  1
  O  O2  1  0.07684900  0.48316800  0.34972100  1
  O  O3  1  0.08437500  0.47638800  0.75091800  1
  O  O4  1  0.08141800  0.47761100  0.95024200  1
  O  O5  1  0.21768000  0.21762500  0.20816300  1
  O  O6  1  0.22087700  0.22124100  0.00906500  1
  O  O7  1  0.22223000  0.22141200  0.09104200  1
  O  O8  1  0.21709200  0.22405300  0.60987000  1
  O  O9  1  0.21857300  0.21791000  0.29155500  1
  O  O10  1  0.21784000  0.21749700  0.40812400  1
  O  O11  1  0.21729200  0.22294000  0.80973900  1
  O  O12  1  0.21795600  0.21667700  0.49132300  1
  O  O13  1  0.22091700  0.22017200  0.69129800  1
  O  O14  1  0.22094500  0.22076100  0.89125800  1
  O  O15  1  0.27812700  0.72068300  0.00916600  1
  O  O16  1  0.27725700  0.72201400  0.09085400  1
  O  O17  1  0.27936400  0.72067800  0.20901700  1
  O  O18  1  0.28361700  0.71691400  0.29118300  1
  O  O19  1  0.28252800  0.71827600  0.40842300  1
  O  O20  1  0.27884000  0.71425200  0.60933900  1
  O  O21  1  0.28392500  0.71703500  0.49096800  1
  O  O22  1  0.27763400  0.72171900  0.69099800  1
  O  O23  1  0.27762500  0.71625600  0.80986300  1
  O  O24  1  0.27825800  0.72048200  0.89116900  1
  O  O25  1  0.41985300  0.97708600  0.15016900  1
  O  O26  1  0.41598000  0.98055100  0.54941100  1
  O  O27  1  0.41358100  0.97369900  0.74957300  1
  O  O28  1  0.42216400  0.98338100  0.34961400  1
  O  O29  1  0.41802700  0.97704600  0.94978400  1
  O  O30  1  0.57149100  0.01137000  0.04997400  1
  O  O31  1  0.57482800  0.01683500  0.24968900  1
  O  O32  1  0.57672600  0.01306400  0.65065000  1
  O  O33  1  0.57687300  0.01710400  0.45010400  1
  O  O34  1  0.57511100  0.01234500  0.85059400  1
  O  O35  1  0.71300600  0.28579900  0.10768400  1
  O  O36  1  0.71997500  0.28080400  0.30828200  1
  O  O37  1  0.71816300  0.28079800  0.50816900  1
  O  O38  1  0.71744200  0.28203600  0.19152700  1
  O  O39  1  0.71640000  0.28272900  0.39141200  1
  O  O40  1  0.71117900  0.28584800  0.70817700  1
  O  O41  1  0.71479900  0.29154100  0.59167300  1
  O  O42  1  0.71269100  0.28627300  0.90799200  1
  O  O43  1  0.71457600  0.29273700  0.79220600  1
  O  O44  1  0.71353800  0.28603500  0.99231200  1
  O  O45  1  0.78760700  0.78609400  0.19215900  1
  O  O46  1  0.78595900  0.78534000  0.10745200  1
  O  O47  1  0.78208600  0.78219900  0.50840200  1
  O  O48  1  0.78870700  0.78063400  0.59072700  1
  O  O49  1  0.78556300  0.78649200  0.70796300  1
  O  O50  1  0.79595500  0.78565800  0.79215400  1
  O  O51  1  0.78277400  0.78135900  0.30840900  1
  O  O52  1  0.78244800  0.78311000  0.39115300  1
  O  O53  1  0.78639500  0.78587900  0.90784700  1
  O  O54  1  0.78638600  0.78544500  0.99248400  1
  O  O55  1  0.92205200  0.51464000  0.24987000  1
  O  O56  1  0.92756300  0.51045600  0.05015000  1
  O  O57  1  0.92550300  0.51214400  0.65007300  1
  O  O58  1  0.92114500  0.51673400  0.44932700  1
  O  O59  1  0.92608100  0.51105400  0.85012400  1
loop_
_geom_bond_atom_site_label_1
_geom_bond_atom_site_label_2
_geom_bond_distance
_geom_bond_site_symmetry_2
Ca0 O55 2.369268 1_555
Ca0 O17 2.381919 1_555
Ca0 O18 2.436952 1_555
Ca0 O31 2.477648 1_555
Ca0 O5 2.525397 1_555
Ca0 O9 2.587289 1_555
Ca0 O38 2.709544 1_555
Ca0 O36 2.802697 1_555
Ca1 O58 2.370071 1_555
Ca1 O19 2.395927 1_555
Ca1 O21 2.415959 1_555
Ca1 O33 2.475179 1_555
Ca1 O10 2.535830 1_555
Ca1 O12 2.567933 1_555
Ca1 O39 2.728370 1_555
Ca1 O37 2.776469 1_555
Ca2 O0 2.366807 1_555
Ca2 O38 2.371016 1_555
Ca2 O35 2.438083 1_555
Ca2 O25 2.459659 1_555
Ca2 O45 2.559276 1_555
Ca2 O46 2.629227 1_555
Ca2 O17 2.750988 1_555
Ca2 O16 2.847077 1_555
Ca3 O43 2.360783 1_555
Ca3 O3 2.361324 1_555
Ca3 O40 2.404022 1_555
Ca3 O27 2.445808 1_555
Ca3 O50 2.590482 1_555
Ca3 O49 2.596707 1_555
Ca3 O23 2.793710 1_555
Ca3 O22 2.824859 1_555
Ca4 O4 2.361442 1_555
Ca4 O44 2.402099 1_555
Ca4 O42 2.404619 1_555
Ca4 O29 2.455034 1_555
Ca4 O54 2.588415 1_555
Ca4 O53 2.596634 1_555
Ca4 O15 2.788161 1_556
Ca4 O24 2.792858 1_555
Ca5 O25 2.369443 1_645
Ca5 O45 2.382086 1_545
Ca5 O46 2.434106 1_545
Ca5 O0 2.467827 1_655
Ca5 O38 2.535991 1_555
Ca5 O35 2.614473 1_555
Ca5 O5 2.723762 1_655
Ca5 O7 2.815146 1_655
Ca6 O28 2.368848 1_645
Ca6 O51 2.402814 1_545
Ca6 O52 2.419391 1_545
Ca6 O2 2.475747 1_655
Ca6 O36 2.534535 1_555
Ca6 O39 2.572794 1_555
Ca6 O9 2.735969 1_655
Ca6 O10 2.758277 1_655
Ca7 O26 2.343284 1_645
Ca7 O47 2.381179 1_545
Ca7 O48 2.408362 1_545
Ca7 O1 2.471491 1_655
Ca7 O37 2.529161 1_555
Ca7 O41 2.622535 1_555
Ca7 O12 2.727081 1_655
Ca7 O8 2.847499 1_655
Ca8 O27 2.343706 1_645
Ca8 O50 2.368763 1_545
Ca8 O49 2.411855 1_545
Ca8 O3 2.451854 1_655
Ca8 O43 2.593445 1_555
Ca8 O40 2.598458 1_555
Ca8 O11 2.790926 1_655
Ca8 O13 2.795181 1_655
Ca9 O29 2.371695 1_645
Ca9 O53 2.404938 1_545
Ca9 O54 2.406149 1_545
Ca9 O4 2.455331 1_655
Ca9 O44 2.581922 1_555
Ca9 O42 2.588004 1_555
Ca9 O6 2.786716 1_656
Ca9 O14 2.791610 1_655
Nd0 O30 2.388382 1_465
Nd0 O7 2.417928 1_565
Nd0 O6 2.425722 1_565
Nd0 O56 2.514590 1_455
Nd0 O16 2.516704 1_555
Nd0 O15 2.534714 1_555
Nd0 O46 2.697555 1_455
Nd0 O54 2.711400 1_454
Nd1 O31 2.385290 1_465
Nd1 O5 2.397697 1_565
Nd1 O9 2.431087 1_565
Nd1 O55 2.499592 1_455
Nd1 O17 2.511206 1_555
Nd1 O18 2.577241 1_555
Nd1 O45 2.690314 1_455
Nd1 O51 2.780599 1_455
Nd2 O33 2.377888 1_465
Nd2 O10 2.401747 1_565
Nd2 O12 2.413888 1_565
Nd2 O58 2.489379 1_455
Nd2 O19 2.544319 1_555
Nd2 O21 2.566398 1_555
Nd2 O52 2.747273 1_455
Nd2 O47 2.776322 1_455
Nd3 O32 2.365136 1_465
Nd3 O13 2.401398 1_565
Nd3 O8 2.417310 1_565
Nd3 O22 2.506295 1_555
Nd3 O57 2.507747 1_455
Nd3 O20 2.562250 1_555
Nd3 O49 2.696364 1_455
Nd3 O48 2.790590 1_455
Nd4 O34 2.370477 1_465
Nd4 O11 2.408561 1_565
Nd4 O14 2.421256 1_565
Nd4 O59 2.506849 1_455
Nd4 O23 2.525950 1_555
Nd4 O24 2.528416 1_555
Nd4 O50 2.696974 1_455
Nd4 O53 2.705782 1_455
Nd5 O56 2.380588 1_555
Nd5 O16 2.413817 1_555
Nd5 O15 2.425939 1_555
Nd5 O30 2.513693 1_555
Nd5 O7 2.523660 1_555
Nd5 O6 2.541721 1_555
Nd5 O35 2.697894 1_555
Nd5 O44 2.723116 1_554
Nd6 O57 2.378361 1_555
Nd6 O22 2.397416 1_555
Nd6 O20 2.421028 1_555
Nd6 O32 2.502864 1_555
Nd6 O13 2.510448 1_555
Nd6 O8 2.537345 1_555
Nd6 O40 2.683942 1_555
Nd6 O41 2.761442 1_555
Nd7 O59 2.376535 1_555
Nd7 O23 2.401363 1_555
Nd7 O24 2.421119 1_555
Nd7 O34 2.499747 1_555
Nd7 O11 2.523689 1_555
Nd7 O14 2.527377 1_555
Nd7 O42 2.703039 1_555
Nd7 O43 2.712093 1_555
Nd8 O2 2.379744 1_555
Nd8 O36 2.403108 1_555
Nd8 O39 2.417275 1_555
Nd8 O28 2.492836 1_555
Nd8 O51 2.540271 1_555
Nd8 O52 2.566165 1_555
Nd8 O18 2.743948 1_555
Nd8 O19 2.782731 1_555
Nd9 O1 2.379361 1_555
Nd9 O37 2.387152 1_555
Nd9 O41 2.411013 1_555
Nd9 O26 2.479524 1_555
Nd9 O47 2.520437 1_555
Nd9 O48 2.578788 1_555
Nd9 O21 2.729648 1_555
Nd9 O20 2.832792 1_555
Mn0 O4 1.931483 1_655
Mn0 O44 1.958680 1_555
Mn0 O54 1.966172 1_555
Mn0 O15 1.980998 1_656
Mn0 O6 1.983572 1_656
Mn0 O56 2.020269 1_556
Mn1 O0 1.921851 1_655
Mn1 O35 1.958695 1_555
Mn1 O46 1.965803 1_555
Mn1 O16 1.987657 1_655
Mn1 O7 1.989107 1_655
Mn1 O56 2.028340 1_555
Mn2 O0 1.952449 1_655
Mn2 O38 1.961737 1_555
Mn2 O45 1.973883 1_555
Mn2 O5 1.973964 1_655
Mn2 O17 1.981830 1_655
Mn2 O55 2.001292 1_555
Mn3 O39 1.966021 1_555
Mn3 O58 1.968421 1_555
Mn3 O2 1.973077 1_655
Mn3 O10 1.974039 1_655
Mn3 O19 1.981089 1_655
Mn3 O52 1.983832 1_555
Mn4 O12 1.965994 1_555
Mn4 O21 1.974036 1_555
Mn4 O37 1.976241 1_455
Mn4 O58 1.980069 1_455
Mn4 O47 1.993761 1_455
Mn4 O1 1.996688 1_555
Mn5 O41 1.942411 1_555
Mn5 O48 1.955194 1_555
Mn5 O8 1.957040 1_655
Mn5 O20 1.959320 1_655
Mn5 O1 1.959939 1_655
Mn5 O57 2.001377 1_555
Mn6 O3 1.916640 1_555
Mn6 O43 1.938024 1_455
Mn6 O50 1.948663 1_455
Mn6 O11 1.959173 1_555
Mn6 O23 1.964453 1_555
Mn6 O59 2.014156 1_455
Mn7 O4 1.932481 1_655
Mn7 O42 1.958033 1_555
Mn7 O53 1.965644 1_555
Mn7 O24 1.985734 1_655
Mn7 O14 1.988649 1_655
Mn7 O59 2.028110 1_555
Mn8 O29 1.947670 1_555
Mn8 O54 1.962372 1_555
Mn8 O44 1.964928 1_565
Mn8 O6 1.988286 1_566
Mn8 O15 1.990798 1_556
Mn8 O30 2.013553 1_566
Mn9 O25 1.925303 1_555
Mn9 O46 1.955892 1_555
Mn9 O35 1.963271 1_565
Mn9 O16 1.987395 1_555
Mn9 O7 1.988639 1_565
Mn9 O30 2.035221 1_565
Mn10 O25 1.946994 1_545
Mn10 O38 1.964103 1_555
Mn10 O45 1.970315 1_545
Mn10 O5 1.979011 1_555
Mn10 O17 1.984893 1_545
Mn10 O31 1.991374 1_555
Mn11 O39 1.966754 1_555
Mn11 O10 1.966789 1_555
Mn11 O28 1.972445 1_545
Mn11 O52 1.974645 1_545
Mn11 O19 1.977864 1_545
Mn11 O33 2.000010 1_555
Mn12 O9 1.963628 1_555
Mn12 O36 1.968304 1_555
Mn12 O31 1.968430 1_555
Mn12 O18 1.981335 1_545
Mn12 O28 1.981736 1_545
Mn12 O51 1.982486 1_545
Mn13 O29 1.920090 1_555
Mn13 O53 1.961664 1_555
Mn13 O42 1.969524 1_565
Mn13 O24 1.983539 1_555
Mn13 O14 1.985681 1_565
Mn13 O34 2.008691 1_565
Mn14 O33 1.957218 1_555
Mn14 O37 1.961230 1_555
Mn14 O12 1.963798 1_555
Mn14 O47 1.976513 1_545
Mn14 O26 1.980450 1_545
Mn14 O21 1.981548 1_545
Mn15 O27 1.901481 1_555
Mn15 O49 1.952981 1_555
Mn15 O40 1.959199 1_565
Mn15 O22 1.987900 1_555
Mn15 O13 1.988612 1_565
Mn15 O32 2.026608 1_565
Mn16 O55 1.962700 1_455
Mn16 O9 1.964628 1_555
Mn16 O36 1.967209 1_455
Mn16 O18 1.973034 1_555
Mn16 O51 1.984551 1_455
Mn16 O2 1.985590 1_555
Mn17 O3 1.950021 1_655
Mn17 O40 1.966915 1_555
Mn17 O49 1.969532 1_555
Mn17 O22 1.989625 1_655
Mn17 O13 1.993686 1_655
Mn17 O57 2.042953 1_555
Cr0 O26 1.978138 1_555
Cr0 O41 2.001375 1_565
Cr0 O48 2.004165 1_555
Cr0 O20 2.011006 1_555
Cr0 O8 2.012616 1_565
Cr0 O32 2.029716 1_565
Cr1 O27 1.965551 1_555
Cr1 O50 1.994312 1_555
Cr1 O43 2.002605 1_565
Cr1 O23 2.012601 1_555
Cr1 O11 2.024423 1_565
Cr1 O34 2.037877 1_565
