# generated using pymatgen
data_BaVCdP2O9
_symmetry_space_group_name_H-M   'P 1'
_cell_length_a   8.94382500
_cell_length_b   9.03930100
_cell_length_c   19.74939100
_cell_angle_alpha   90.00000000
_cell_angle_beta   90.00000000
_cell_angle_gamma   90.00000000
_symmetry_Int_Tables_number   1
_chemical_formula_structural   BaVCdP2O9
_chemical_formula_sum   'Ba8 V8 Cd8 P16 O72'
_cell_volume   1596.65780859
_cell_formula_units_Z   8
loop_
 _symmetry_equiv_pos_site_id
 _symmetry_equiv_pos_as_xyz
  1  'x, y, z'
loop_
 _atom_site_type_symbol
 _atom_site_label
 _atom_site_symmetry_multiplicity
 _atom_site_fract_x
 _atom_site_fract_y
 _atom_site_fract_z
 _atom_site_occupancy
  Ba  Ba0  1  0.81933100  0.48185800  0.08203200  1
  Ba  Ba1  1  0.68066900  0.51814200  0.58203200  1
  Ba  Ba2  1  0.68066900  0.98185800  0.08203200  1
  Ba  Ba3  1  0.81933100  0.01814200  0.58203200  1
  Ba  Ba4  1  0.18066900  0.98185800  0.41796800  1
  Ba  Ba5  1  0.31933100  0.01814200  0.91796800  1
  Ba  Ba6  1  0.18066900  0.51814200  0.91796800  1
  Ba  Ba7  1  0.31933100  0.48185800  0.41796800  1
  V  V0  1  0.50079800  0.14497600  0.27448900  1
  V  V1  1  0.00079800  0.35502400  0.72551100  1
  V  V2  1  0.50079800  0.35502400  0.77448900  1
  V  V3  1  0.99920200  0.85502400  0.77448900  1
  V  V4  1  0.00079800  0.14497600  0.22551100  1
  V  V5  1  0.99920200  0.64497600  0.27448900  1
  V  V6  1  0.49920200  0.64497600  0.22551100  1
  V  V7  1  0.49920200  0.85502400  0.72551100  1
  Cd  Cd0  1  0.17886600  0.62315100  0.58994200  1
  Cd  Cd1  1  0.67886600  0.87684900  0.41005800  1
  Cd  Cd2  1  0.67886600  0.62315100  0.91005800  1
  Cd  Cd3  1  0.32113400  0.37684900  0.08994200  1
  Cd  Cd4  1  0.32113400  0.12315100  0.58994200  1
  Cd  Cd5  1  0.17886600  0.87684900  0.08994200  1
  Cd  Cd6  1  0.82113400  0.37684900  0.41005800  1
  Cd  Cd7  1  0.82113400  0.12315100  0.91005800  1
  P  P0  1  0.44218100  0.70885400  0.02326100  1
  P  P1  1  0.75254400  0.39284900  0.25372500  1
  P  P2  1  0.74745600  0.89284900  0.25372500  1
  P  P3  1  0.44218100  0.79114600  0.52326100  1
  P  P4  1  0.94218100  0.79114600  0.97673900  1
  P  P5  1  0.24745600  0.60715100  0.74627500  1
  P  P6  1  0.24745600  0.89284900  0.24627500  1
  P  P7  1  0.55781900  0.29114600  0.97673900  1
  P  P8  1  0.75254400  0.10715100  0.75372500  1
  P  P9  1  0.05781900  0.29114600  0.52326100  1
  P  P10  1  0.55781900  0.20885400  0.47673900  1
  P  P11  1  0.74745600  0.60715100  0.75372500  1
  P  P12  1  0.94218100  0.70885400  0.47673900  1
  P  P13  1  0.25254400  0.39284900  0.24627500  1
  P  P14  1  0.25254400  0.10715100  0.74627500  1
  P  P15  1  0.05781900  0.20885400  0.02326100  1
  O  O0  1  0.85079100  0.19720700  0.70409100  1
  O  O1  1  0.90331300  0.87519800  0.46058100  1
  O  O2  1  0.64773000  0.98495400  0.30354400  1
  O  O3  1  0.40331300  0.62480200  0.53941900  1
  O  O4  1  0.54481300  0.19533400  0.55587800  1
  O  O5  1  0.35227000  0.01504600  0.69645600  1
  O  O6  1  0.59668700  0.37519800  0.46058100  1
  O  O7  1  0.40988500  0.16996400  0.44103800  1
  O  O8  1  0.98724700  0.85913700  0.69236500  1
  O  O9  1  0.45518700  0.69533400  0.94412200  1
  O  O10  1  0.30598800  0.88524200  0.54697500  1
  O  O11  1  0.48724700  0.64086300  0.30763500  1
  O  O12  1  0.14920900  0.69720700  0.79590900  1
  O  O13  1  0.59011500  0.83003600  0.55896200  1
  O  O14  1  0.35227000  0.48495400  0.19645600  1
  O  O15  1  0.65904000  0.29395600  0.30152600  1
  O  O16  1  0.34061900  0.99465200  0.29280500  1
  O  O17  1  0.48724700  0.85913700  0.80763500  1
  O  O18  1  0.35079100  0.30279300  0.29590900  1
  O  O19  1  0.19401200  0.11475800  0.04697500  1
  O  O20  1  0.40331300  0.87519800  0.03941900  1
  O  O21  1  0.80598800  0.61475800  0.45302500  1
  O  O22  1  0.85079100  0.30279300  0.20409100  1
  O  O23  1  0.51275300  0.35913700  0.69236500  1
  O  O24  1  0.09011500  0.83003600  0.94103800  1
  O  O25  1  0.90331300  0.62480200  0.96058100  1
  O  O26  1  0.15938100  0.49465200  0.29280500  1
  O  O27  1  0.65938100  0.00534800  0.70719500  1
  O  O28  1  0.64773000  0.51504600  0.80354400  1
  O  O29  1  0.85227000  0.48495400  0.30354400  1
  O  O30  1  0.84061900  0.50534800  0.70719500  1
  O  O31  1  0.40988500  0.33003600  0.94103800  1
  O  O32  1  0.95518700  0.80466600  0.05587800  1
  O  O33  1  0.65938100  0.49465200  0.20719500  1
  O  O34  1  0.35079100  0.19720700  0.79590900  1
  O  O35  1  0.14773000  0.51504600  0.69645600  1
  O  O36  1  0.90988500  0.33003600  0.55896200  1
  O  O37  1  0.15904000  0.29395600  0.19847400  1
  O  O38  1  0.69401200  0.38524200  0.95302500  1
  O  O39  1  0.04481300  0.19533400  0.94412200  1
  O  O40  1  0.09668700  0.37519800  0.03941900  1
  O  O41  1  0.54481300  0.30466600  0.05587800  1
  O  O42  1  0.14920900  0.80279300  0.29590900  1
  O  O43  1  0.01275300  0.14086300  0.30763500  1
  O  O44  1  0.69401200  0.11475800  0.45302500  1
  O  O45  1  0.15938100  0.00534800  0.79280500  1
  O  O46  1  0.19401200  0.38524200  0.54697500  1
  O  O47  1  0.14773000  0.98495400  0.19645600  1
  O  O48  1  0.59011500  0.66996400  0.05896200  1
  O  O49  1  0.65904000  0.20604400  0.80152600  1
  O  O50  1  0.84061900  0.99465200  0.20719500  1
  O  O51  1  0.80598800  0.88524200  0.95302500  1
  O  O52  1  0.30598800  0.61475800  0.04697500  1
  O  O53  1  0.84096000  0.79395600  0.30152600  1
  O  O54  1  0.34096000  0.79395600  0.19847400  1
  O  O55  1  0.09011500  0.66996400  0.44103800  1
  O  O56  1  0.15904000  0.20604400  0.69847400  1
  O  O57  1  0.04481300  0.30466600  0.44412200  1
  O  O58  1  0.34061900  0.50534800  0.79280500  1
  O  O59  1  0.64920900  0.69720700  0.70409100  1
  O  O60  1  0.09668700  0.12480200  0.53941900  1
  O  O61  1  0.51275300  0.14086300  0.19236500  1
  O  O62  1  0.34096000  0.70604400  0.69847400  1
  O  O63  1  0.85227000  0.01504600  0.80354400  1
  O  O64  1  0.95518700  0.69533400  0.55587800  1
  O  O65  1  0.64920900  0.80279300  0.20409100  1
  O  O66  1  0.90988500  0.16996400  0.05896200  1
  O  O67  1  0.98724700  0.64086300  0.19236500  1
  O  O68  1  0.45518700  0.80466600  0.44412200  1
  O  O69  1  0.59668700  0.12480200  0.96058100  1
  O  O70  1  0.84096000  0.70604400  0.80152600  1
  O  O71  1  0.01275300  0.35913700  0.80763500  1
loop_
_geom_bond_atom_site_label_1
_geom_bond_atom_site_label_2
_geom_bond_distance
_geom_bond_site_symmetry_2
Ba0 O48 2.702137 1_555
Ba0 O40 2.791290 1_655
Ba0 O25 2.826118 1_554
Ba0 O33 2.858347 1_555
Ba0 O22 2.917200 1_555
Ba0 O38 2.917246 1_554
Ba0 O66 2.968501 1_555
Ba0 O41 2.976646 1_555
Ba0 O67 3.011534 1_555
Ba0 O32 3.202762 1_555
Ba1 O36 2.702137 1_555
Ba1 O3 2.791290 1_555
Ba1 O6 2.826118 1_555
Ba1 O30 2.858347 1_555
Ba1 O59 2.917200 1_555
Ba1 O21 2.917246 1_555
Ba1 O13 2.968501 1_555
Ba1 O64 2.976646 1_555
Ba1 O23 3.011534 1_555
Ba1 O4 3.202762 1_555
Ba2 O66 2.702137 1_565
Ba2 O20 2.791290 1_555
Ba2 O69 2.826118 1_564
Ba2 O50 2.858347 1_555
Ba2 O65 2.917200 1_555
Ba2 O51 2.917246 1_554
Ba2 O48 2.968501 1_555
Ba2 O32 2.976646 1_555
Ba2 O61 3.011534 1_565
Ba2 O41 3.202762 1_565
Ba3 O13 2.702137 1_545
Ba3 O60 2.791290 1_655
Ba3 O1 2.826118 1_545
Ba3 O27 2.858347 1_555
Ba3 O0 2.917200 1_555
Ba3 O44 2.917246 1_555
Ba3 O36 2.968501 1_555
Ba3 O4 2.976646 1_555
Ba3 O8 3.011534 1_545
Ba3 O64 3.202762 1_545
Ba4 O7 2.702137 1_565
Ba4 O1 2.791290 1_455
Ba4 O60 2.826118 1_565
Ba4 O16 2.858347 1_555
Ba4 O42 2.917200 1_555
Ba4 O10 2.917246 1_555
Ba4 O55 2.968501 1_555
Ba4 O68 2.976646 1_555
Ba4 O43 3.011534 1_565
Ba4 O57 3.202762 1_565
Ba5 O24 2.702137 1_545
Ba5 O69 2.791290 1_555
Ba5 O20 2.826118 1_546
Ba5 O45 2.858347 1_555
Ba5 O34 2.917200 1_555
Ba5 O19 2.917246 1_556
Ba5 O31 2.968501 1_555
Ba5 O39 2.976646 1_555
Ba5 O17 3.011534 1_545
Ba5 O9 3.202762 1_545
Ba6 O31 2.702137 1_555
Ba6 O25 2.791290 1_455
Ba6 O40 2.826118 1_556
Ba6 O58 2.858347 1_555
Ba6 O12 2.917200 1_555
Ba6 O52 2.917246 1_556
Ba6 O24 2.968501 1_555
Ba6 O9 2.976646 1_555
Ba6 O71 3.011534 1_555
Ba6 O39 3.202762 1_555
Ba7 O55 2.702137 1_555
Ba7 O6 2.791290 1_555
Ba7 O3 2.826118 1_555
Ba7 O26 2.858347 1_555
Ba7 O18 2.917200 1_555
Ba7 O46 2.917246 1_555
Ba7 O7 2.968501 1_555
Ba7 O57 2.976646 1_555
Ba7 O11 3.011534 1_555
Ba7 O68 3.202762 1_555
Cd0 O64 2.209186 1_455
Cd0 O3 2.241771 1_555
Cd0 O46 2.315860 1_555
Cd0 O35 2.336136 1_555
Cd0 O62 2.693980 1_555
Cd0 O10 2.761426 1_555
Cd1 O68 2.209186 1_555
Cd1 O1 2.241771 1_555
Cd1 O44 2.315860 1_565
Cd1 O2 2.336136 1_555
Cd1 O53 2.693980 1_555
Cd1 O21 2.761426 1_555
Cd2 O9 2.209186 1_555
Cd2 O25 2.241771 1_555
Cd2 O38 2.315860 1_555
Cd2 O28 2.336136 1_555
Cd2 O70 2.693980 1_555
Cd2 O51 2.761426 1_555
Cd3 O41 2.209186 1_555
Cd3 O40 2.241771 1_555
Cd3 O52 2.315860 1_555
Cd3 O14 2.336136 1_555
Cd3 O37 2.693980 1_555
Cd3 O19 2.761426 1_555
Cd4 O4 2.209186 1_555
Cd4 O60 2.241771 1_555
Cd4 O10 2.315860 1_545
Cd4 O5 2.336136 1_555
Cd4 O56 2.693980 1_555
Cd4 O46 2.761426 1_555
Cd5 O32 2.209186 1_455
Cd5 O20 2.241771 1_555
Cd5 O19 2.315860 1_565
Cd5 O47 2.336136 1_555
Cd5 O54 2.693980 1_555
Cd5 O52 2.761426 1_555
Cd6 O57 2.209186 1_655
Cd6 O6 2.241771 1_555
Cd6 O21 2.315860 1_555
Cd6 O29 2.336136 1_555
Cd6 O15 2.693980 1_555
Cd6 O44 2.761426 1_555
Cd7 O39 2.209186 1_655
Cd7 O69 2.241771 1_555
Cd7 O51 2.315860 1_545
Cd7 O63 2.336136 1_555
Cd7 O49 2.693980 1_555
Cd7 O38 2.761426 1_555
O0 P8 1.547792 1_555
O0 V1 2.003498 1_655
O1 P12 1.575941 1_555
O2 P2 1.567404 1_555
O2 V0 2.036797 1_565
O3 P3 1.575941 1_555
O4 P10 1.572027 1_555
O5 P14 1.567404 1_555
O5 V7 2.036797 1_545
O6 P10 1.575941 1_555
O7 P10 1.539899 1_555
O8 V3 1.625845 1_555
O9 P0 1.572027 1_556
O10 P3 1.557732 1_555
O11 V6 1.625845 1_555
O12 P5 1.547792 1_555
O12 V3 2.003498 1_455
O13 P3 1.539899 1_555
O14 P13 1.567404 1_555
O14 V6 2.036797 1_555
O15 P1 1.545860 1_555
O15 V0 2.025264 1_555
O16 P6 1.544522 1_555
O16 V0 2.007394 1_565
O17 V7 1.625845 1_555
O18 P13 1.547792 1_555
O18 V0 2.003498 1_555
O19 P15 1.557732 1_555
O20 P0 1.575941 1_555
O21 P12 1.557732 1_555
O22 P1 1.547792 1_555
O22 V4 2.003498 1_655
O23 V2 1.625845 1_555
O24 P4 1.539899 1_455
O25 P4 1.575941 1_555
O26 P13 1.544522 1_555
O26 V5 2.007394 1_455
O27 P8 1.544522 1_555
O27 V7 2.007394 1_545
O28 P11 1.567404 1_555
O28 V2 2.036797 1_555
O29 P1 1.567404 1_555
O29 V5 2.036797 1_555
O30 P11 1.544522 1_555
O30 V1 2.007394 1_655
O31 P7 1.539899 1_555
O32 P4 1.572027 1_554
O33 P1 1.544522 1_555
O33 V6 2.007394 1_555
O34 P14 1.547792 1_555
O34 V2 2.003498 1_555
O35 P5 1.567404 1_555
O35 V1 2.036797 1_555
O36 P9 1.539899 1_655
O37 P13 1.545860 1_555
O37 V4 2.025264 1_555
O38 P7 1.557732 1_555
O39 P15 1.572027 1_556
O40 P15 1.575941 1_555
O41 P7 1.572027 1_554
O42 P6 1.547792 1_555
O42 V5 2.003498 1_455
O43 V4 1.625845 1_555
O44 P10 1.557732 1_555
O45 P14 1.544522 1_555
O45 V3 2.007394 1_445
O46 P9 1.557732 1_555
O47 P6 1.567404 1_555
O47 V4 2.036797 1_565
O48 P0 1.539899 1_555
O49 P8 1.545860 1_555
O49 V2 2.025264 1_555
O50 P2 1.544522 1_555
O50 V4 2.007394 1_665
O51 P4 1.557732 1_555
O52 P0 1.557732 1_555
O53 P2 1.545860 1_555
O53 V5 2.025264 1_555
O54 P6 1.545860 1_555
O54 V6 2.025264 1_555
O55 P12 1.539899 1_455
O56 P14 1.545860 1_555
O56 V1 2.025264 1_555
O57 P9 1.572027 1_555
O58 P5 1.544522 1_555
O58 V2 2.007394 1_555
O59 P11 1.547792 1_555
O59 V7 2.003498 1_555
O60 P9 1.575941 1_555
O61 V0 1.625845 1_555
O62 P5 1.545860 1_555
O62 V7 2.025264 1_555
O63 P8 1.567404 1_555
O63 V3 2.036797 1_545
O64 P12 1.572027 1_555
O65 P2 1.547792 1_555
O65 V6 2.003498 1_555
O66 P15 1.539899 1_655
O67 V5 1.625845 1_555
O68 P3 1.572027 1_555
O69 P7 1.575941 1_555
O70 P11 1.545860 1_555
O70 V3 2.025264 1_555
O71 V1 1.625845 1_555
