# generated using pymatgen
data_Tm2Ga10Os3
_symmetry_space_group_name_H-M   'P 1'
_cell_length_a   8.81036772
_cell_length_b   8.81036772
_cell_length_c   6.32203893
_cell_angle_alpha   90.00000000
_cell_angle_beta   90.00000000
_cell_angle_gamma   90.00000000
_symmetry_Int_Tables_number   1
_chemical_formula_structural   Tm2Ga10Os3
_chemical_formula_sum   'Tm4 Ga20 Os6'
_cell_volume   490.73296857
_cell_formula_units_Z   2
loop_
 _symmetry_equiv_pos_site_id
 _symmetry_equiv_pos_as_xyz
  1  'x, y, z'
loop_
 _atom_site_type_symbol
 _atom_site_label
 _atom_site_symmetry_multiplicity
 _atom_site_fract_x
 _atom_site_fract_y
 _atom_site_fract_z
 _atom_site_occupancy
  Tm  Tm0  1  0.18296063  0.31703937  0.00000000  1
  Tm  Tm1  1  0.68296063  0.18296063  0.00000000  1
  Tm  Tm2  1  0.81703937  0.68296063  0.00000000  1
  Tm  Tm3  1  0.31703937  0.81703937  0.00000000  1
  Ga  Ga0  1  0.50000000  0.00000000  0.28211353  1
  Ga  Ga1  1  0.50000000  0.00000000  0.71788647  1
  Ga  Ga2  1  0.29284409  0.56110067  0.70750468  1
  Ga  Ga3  1  -0.00000000  0.50000000  0.28211353  1
  Ga  Ga4  1  -0.00000000  0.50000000  0.71788647  1
  Ga  Ga5  1  0.06110067  0.79284409  0.70750468  1
  Ga  Ga6  1  0.20715591  0.06110067  0.29249532  1
  Ga  Ga7  1  0.06110067  0.79284409  0.29249532  1
  Ga  Ga8  1  0.70715591  0.43889933  0.70750468  1
  Ga  Ga9  1  0.20715591  0.06110067  0.70750468  1
  Ga  Ga10  1  0.93889933  0.20715591  0.70750468  1
  Ga  Ga11  1  0.70715591  0.43889933  0.29249532  1
  Ga  Ga12  1  0.56110067  0.70715591  0.29249532  1
  Ga  Ga13  1  0.93889933  0.20715591  0.29249532  1
  Ga  Ga14  1  0.56110067  0.70715591  0.70750468  1
  Ga  Ga15  1  0.79284409  0.93889933  0.29249532  1
  Ga  Ga16  1  0.43889933  0.29284409  0.70750468  1
  Ga  Ga17  1  0.79284409  0.93889933  0.70750468  1
  Ga  Ga18  1  0.43889933  0.29284409  0.29249532  1
  Ga  Ga19  1  0.29284409  0.56110067  0.29249532  1
  Os  Os0  1  0.17850481  0.32149519  0.50000000  1
  Os  Os1  1  0.32149519  0.82149519  0.50000000  1
  Os  Os2  1  0.82149519  0.67850481  0.50000000  1
  Os  Os3  1  -0.00000000  0.00000000  0.00000000  1
  Os  Os4  1  0.67850481  0.17850481  0.50000000  1
  Os  Os5  1  0.50000000  0.50000000  0.00000000  1
loop_
_geom_bond_atom_site_label_1
_geom_bond_atom_site_label_2
_geom_bond_distance
_geom_bond_site_symmetry_2
Ga0 Os1 2.616142 1_545
Ga0 Os4 2.616142 1_555
Ga0 Ga12 2.636442 1_545
Ga0 Ga6 2.636442 1_555
Ga0 Ga18 2.636442 1_555
Ga0 Ga15 2.636442 1_545
Ga0 Ga1 2.754973 1_555
Ga0 Tm3 2.894436 1_545
Ga0 Tm1 2.894436 1_555
Ga1 Os1 2.616142 1_545
Ga1 Os4 2.616142 1_555
Ga1 Ga9 2.636442 1_555
Ga1 Ga16 2.636442 1_555
Ga1 Ga17 2.636442 1_545
Ga1 Ga14 2.636442 1_545
Ga1 Tm3 2.894436 1_546
Ga1 Tm1 2.894436 1_556
Ga2 Ga4 2.636442 1_555
Ga2 Os5 2.653350 1_556
Ga2 Os1 2.654788 1_555
Ga2 Os0 2.681814 1_555
Ga2 Ga5 2.887463 1_555
Ga2 Tm3 2.923952 1_556
Ga2 Tm0 2.996719 1_556
Ga3 Os0 2.616142 1_555
Ga3 Os2 2.616142 1_455
Ga3 Ga7 2.636442 1_555
Ga3 Ga4 2.754973 1_555
Ga3 Tm2 2.894436 1_455
Ga3 Tm0 2.894436 1_555
Ga4 Os0 2.616142 1_555
Ga4 Os2 2.616142 1_455
Ga4 Ga8 2.636442 1_455
Ga4 Ga5 2.636442 1_555
Ga4 Tm0 2.894436 1_556
Ga4 Tm2 2.894436 1_456
Ga5 Ga7 2.623705 1_555
Ga5 Os3 2.653350 1_566
Ga5 Os1 2.654788 1_555
Ga5 Os2 2.681814 1_455
Ga5 Ga9 2.691041 1_565
Ga5 Tm3 2.923952 1_556
Ga5 Tm2 2.996719 1_456
Ga6 Ga9 2.623705 1_555
Ga6 Os3 2.653350 1_555
Ga6 Os0 2.654788 1_555
Ga6 Os1 2.681814 1_545
Ga6 Ga7 2.691041 1_545
Ga6 Tm0 2.923952 1_555
Ga6 Tm3 2.996719 1_545
Ga7 Os3 2.653350 1_565
Ga7 Os1 2.654788 1_555
Ga7 Os2 2.681814 1_455
Ga7 Tm3 2.923952 1_555
Ga7 Tm2 2.996719 1_455
Ga8 Os5 2.653350 1_556
Ga8 Os4 2.654788 1_555
Ga8 Os2 2.681814 1_555
Ga8 Tm1 2.923952 1_556
Ga8 Tm2 2.996719 1_556
Ga9 Os3 2.653350 1_556
Ga9 Os0 2.654788 1_555
Ga9 Os1 2.681814 1_545
Ga9 Tm0 2.923952 1_556
Ga9 Tm3 2.996719 1_546
Ga10 Ga13 2.623705 1_555
Ga10 Ga4 2.636442 1_655
Ga10 Os3 2.653350 1_656
Ga10 Os4 2.654788 1_555
Ga10 Os0 2.681814 1_655
Ga10 Ga17 2.691041 1_545
Ga10 Ga9 2.691041 1_655
Ga10 Ga8 2.887463 1_555
Ga10 Tm1 2.923952 1_556
Ga10 Tm0 2.996719 1_656
Ga11 Ga8 2.623705 1_555
Ga11 Ga3 2.636442 1_655
Ga11 Os5 2.653350 1_555
Ga11 Os4 2.654788 1_555
Ga11 Os2 2.681814 1_555
Ga11 Ga18 2.691041 1_555
Ga11 Ga12 2.691041 1_555
Ga11 Ga13 2.887463 1_555
Ga11 Tm1 2.923952 1_555
Ga11 Tm2 2.996719 1_555
Ga12 Ga14 2.623705 1_555
Ga12 Os5 2.653350 1_555
Ga12 Os2 2.654788 1_555
Ga12 Os1 2.681814 1_555
Ga12 Ga19 2.691041 1_555
Ga12 Ga15 2.887463 1_555
Ga12 Tm2 2.923952 1_555
Ga12 Tm3 2.996719 1_555
Ga13 Ga3 2.636442 1_655
Ga13 Os3 2.653350 1_655
Ga13 Os4 2.654788 1_555
Ga13 Os0 2.681814 1_655
Ga13 Ga15 2.691041 1_545
Ga13 Ga6 2.691041 1_655
Ga13 Tm1 2.923952 1_555
Ga13 Tm0 2.996719 1_655
Ga14 Os5 2.653350 1_556
Ga14 Os2 2.654788 1_555
Ga14 Os1 2.681814 1_555
Ga14 Ga2 2.691041 1_555
Ga14 Ga8 2.691041 1_555
Ga14 Ga17 2.887463 1_555
Ga14 Tm2 2.923952 1_556
Ga14 Tm3 2.996719 1_556
Ga15 Ga17 2.623705 1_555
Ga15 Os3 2.653350 1_665
Ga15 Os2 2.654788 1_555
Ga15 Os4 2.681814 1_565
Ga15 Ga7 2.691041 1_655
Ga15 Tm2 2.923952 1_555
Ga15 Tm1 2.996719 1_565
Ga16 Ga18 2.623705 1_555
Ga16 Os5 2.653350 1_556
Ga16 Os0 2.654788 1_555
Ga16 Os4 2.681814 1_555
Ga16 Ga2 2.691041 1_555
Ga16 Ga8 2.691041 1_555
Ga16 Ga9 2.887463 1_555
Ga16 Tm0 2.923952 1_556
Ga16 Tm1 2.996719 1_556
Ga17 Os3 2.653350 1_666
Ga17 Os2 2.654788 1_555
Ga17 Os4 2.681814 1_565
Ga17 Ga5 2.691041 1_655
Ga17 Tm2 2.923952 1_556
Ga17 Tm1 2.996719 1_566
Ga18 Os5 2.653350 1_555
Ga18 Os0 2.654788 1_555
Ga18 Os4 2.681814 1_555
Ga18 Ga19 2.691041 1_555
Ga18 Ga6 2.887463 1_555
Ga18 Tm0 2.923952 1_555
Ga18 Tm1 2.996719 1_555
Ga19 Ga2 2.623705 1_555
Ga19 Ga3 2.636442 1_555
Ga19 Os5 2.653350 1_555
Ga19 Os1 2.654788 1_555
Ga19 Os0 2.681814 1_555
Ga19 Ga7 2.887463 1_555
Ga19 Tm3 2.923952 1_555
Ga19 Tm0 2.996719 1_555
Os0 Tm0 3.161507 1_555
Os0 Tm0 3.161507 1_556
Os1 Tm3 3.161507 1_556
Os1 Tm3 3.161507 1_555
Os2 Tm2 3.161507 1_556
Os2 Tm2 3.161507 1_555
Os3 Tm2 3.224986 1_445
Os3 Tm1 3.224986 1_455
Os3 Tm3 3.224986 1_545
Os3 Tm0 3.224986 1_555
Os4 Tm1 3.161507 1_555
Os4 Tm1 3.161507 1_556
Os5 Tm1 3.224986 1_555
Os5 Tm0 3.224986 1_555
Os5 Tm3 3.224986 1_555
Os5 Tm2 3.224986 1_555
