# generated using pymatgen
data_Dy3TaO7
_symmetry_space_group_name_H-M   'P 1'
_cell_length_a   5.35681700
_cell_length_b   7.59418600
_cell_length_c   8.14866654
_cell_angle_alpha   62.29025402
_cell_angle_beta   90.00000000
_cell_angle_gamma   90.00000000
_symmetry_Int_Tables_number   1
_chemical_formula_structural   Dy3TaO7
_chemical_formula_sum   'Dy6 Ta2 O14'
_cell_volume   293.47572543
_cell_formula_units_Z   2
loop_
 _symmetry_equiv_pos_site_id
 _symmetry_equiv_pos_as_xyz
  1  'x, y, z'
loop_
 _atom_site_type_symbol
 _atom_site_label
 _atom_site_symmetry_multiplicity
 _atom_site_fract_x
 _atom_site_fract_y
 _atom_site_fract_z
 _atom_site_occupancy
  Dy  Dy0  1  0.49586400  0.99658500  0.99981600  1
  Dy  Dy1  1  0.50413600  0.49658500  0.99981600  1
  Dy  Dy2  1  0.02286300  0.11941800  0.25992900  1
  Dy  Dy3  1  0.97713700  0.61941800  0.25992900  1
  Dy  Dy4  1  0.02498000  0.38043200  0.73834900  1
  Dy  Dy5  1  0.97502000  0.88043200  0.73834900  1
  Ta  Ta0  1  0.49590100  0.77758000  0.49959400  1
  Ta  Ta1  1  0.50409900  0.27758000  0.49959400  1
  O  O0  1  0.25521200  0.24676100  0.00015400  1
  O  O1  1  0.73424100  0.89990100  0.26172300  1
  O  O2  1  0.28790900  0.48225800  0.52374600  1
  O  O3  1  0.73044900  0.33507700  0.26428000  1
  O  O4  1  0.26575900  0.39990100  0.26172300  1
  O  O5  1  0.73656100  0.15924900  0.74479700  1
  O  O6  1  0.27776000  0.00075200  0.47747700  1
  O  O7  1  0.71209100  0.98225800  0.52374600  1
  O  O8  1  0.26955100  0.83507700  0.26428000  1
  O  O9  1  0.26343900  0.65924900  0.74479700  1
  O  O10  1  0.72946200  0.60365400  0.73085000  1
  O  O11  1  0.72224000  0.50075200  0.47747700  1
  O  O12  1  0.27053800  0.10365400  0.73085000  1
  O  O13  1  0.74478800  0.74676100  0.00015400  1
loop_
_geom_bond_atom_site_label_1
_geom_bond_atom_site_label_2
_geom_bond_distance
_geom_bond_site_symmetry_2
Dy0 O5 2.262629 1_565
Dy0 O8 2.271583 1_556
Dy0 O12 2.294418 1_565
Dy0 O1 2.295032 1_556
Dy0 O0 2.297016 1_566
Dy0 O13 2.317891 1_556
Dy1 O9 2.262629 1_555
Dy1 O3 2.271583 1_556
Dy1 O10 2.294418 1_555
Dy1 O4 2.295032 1_556
Dy1 O13 2.297016 1_556
Dy1 O0 2.317891 1_556
Dy2 O6 2.081683 1_555
Dy2 O0 2.249783 1_555
Dy2 O1 2.268706 1_445
Dy2 O3 2.278406 1_455
Dy2 O4 2.501846 1_555
Dy2 O8 2.517750 1_545
Dy2 O7 2.528906 1_445
Dy3 O11 2.081683 1_555
Dy3 O13 2.249783 1_555
Dy3 O4 2.268706 1_655
Dy3 O8 2.278406 1_655
Dy3 O1 2.501846 1_555
Dy3 O3 2.517750 1_555
Dy3 O2 2.528906 1_655
Dy4 O2 2.093371 1_555
Dy4 O0 2.255829 1_556
Dy4 O5 2.264761 1_455
Dy4 O10 2.299363 1_455
Dy4 O11 2.485430 1_455
Dy4 O9 2.494245 1_555
Dy4 O12 2.504293 1_555
Dy5 O7 2.093371 1_555
Dy5 O13 2.255829 1_556
Dy5 O9 2.264761 1_655
Dy5 O12 2.299363 1_665
Dy5 O6 2.485430 1_665
Dy5 O5 2.494245 1_565
Dy5 O10 2.504293 1_555
O1 Ta0 2.139067 1_555
O2 Ta1 2.020010 1_555
O2 Ta0 2.428884 1_555
O3 Ta1 2.135181 1_555
O4 Ta1 2.139067 1_555
O5 Ta1 2.163491 1_555
O6 Ta0 1.996570 1_545
O6 Ta1 2.504892 1_555
O7 Ta0 2.020010 1_555
O7 Ta1 2.428884 1_565
O8 Ta0 2.135181 1_555
O9 Ta0 2.163491 1_555
O10 Ta0 2.132200 1_555
O11 Ta1 1.996570 1_555
O11 Ta0 2.504892 1_555
O12 Ta1 2.132200 1_555
