# generated using pymatgen
data_Hf2Co3Si4
_symmetry_space_group_name_H-M   'P 1'
_cell_length_a   5.15394533
_cell_length_b   6.67954153
_cell_length_c   13.57038370
_cell_angle_alpha   90.00007635
_cell_angle_beta   90.00061740
_cell_angle_gamma   89.99979618
_symmetry_Int_Tables_number   1
_chemical_formula_structural   Hf2Co3Si4
_chemical_formula_sum   'Hf8 Co12 Si16'
_cell_volume   467.17391898
_cell_formula_units_Z   4
loop_
 _symmetry_equiv_pos_site_id
 _symmetry_equiv_pos_as_xyz
  1  'x, y, z'
loop_
 _atom_site_type_symbol
 _atom_site_label
 _atom_site_symmetry_multiplicity
 _atom_site_fract_x
 _atom_site_fract_y
 _atom_site_fract_z
 _atom_site_occupancy
  Hf  Hf0  1  0.22991960  0.39845505  0.14564051  1
  Hf  Hf1  1  0.72991337  0.10154884  0.14564287  1
  Hf  Hf2  1  0.27007254  0.10151029  0.64553779  1
  Hf  Hf3  1  0.77007725  0.39848537  0.64554004  1
  Hf  Hf4  1  0.22991572  0.60153522  0.35439726  1
  Hf  Hf5  1  0.72991962  0.89846724  0.35439939  1
  Hf  Hf6  1  0.27007907  0.89847359  0.85442021  1
  Hf  Hf7  1  0.77007361  0.60152201  0.85442290  1
  Co  Co0  1  0.99354307  0.27731873  0.98210429  1
  Co  Co1  1  0.50647659  0.22267734  0.48201390  1
  Co  Co2  1  0.77614846  0.00000065  0.74998107  1
  Co  Co3  1  0.49354642  0.22268685  0.98210310  1
  Co  Co4  1  0.72385282  0.50000055  0.25001819  1
  Co  Co5  1  0.49353676  0.77731884  0.51789711  1
  Co  Co6  1  0.00648127  0.27732187  0.48201343  1
  Co  Co7  1  0.00647612  0.72267524  0.01798566  1
  Co  Co8  1  0.22384894  -0.00000108  0.25001883  1
  Co  Co9  1  0.27614766  0.49999964  0.74998194  1
  Co  Co10  1  0.50647292  0.77732040  0.01798745  1
  Co  Co11  1  0.99353946  0.72268585  0.51789815  1
  Si  Si0  1  0.21537918  0.01768501  0.06861250  1
  Si  Si1  1  0.71536311  0.51767582  0.43139690  1
  Si  Si2  1  0.78463764  0.01766282  0.56852222  1
  Si  Si3  1  0.47919778  0.75359576  0.18667120  1
  Si  Si4  1  0.02079592  0.25359023  0.81334211  1
  Si  Si5  1  0.52079271  0.24640552  0.81334324  1
  Si  Si6  1  0.21535659  0.98231921  0.43139177  1
  Si  Si7  1  0.28463121  0.51766870  0.93146745  1
  Si  Si8  1  0.97919727  0.74641021  0.18667244  1
  Si  Si9  1  0.71537030  0.48231396  0.06861722  1
  Si  Si10  1  0.28463144  0.48233692  0.56851860  1
  Si  Si11  1  0.47919683  0.24640803  0.31335158  1
  Si  Si12  1  0.02079191  0.74640456  0.68663113  1
  Si  Si13  1  0.78461983  0.98233141  0.93147175  1
  Si  Si14  1  0.52079587  0.75359123  0.68663306  1
  Si  Si15  1  0.97919814  0.25359812  0.31335371  1
loop_
_geom_bond_atom_site_label_1
_geom_bond_atom_site_label_2
_geom_bond_distance
_geom_bond_site_symmetry_2
Hf0 Si8 2.716921 1_455
Hf0 Si0 2.750816 1_555
Hf0 Si3 2.754611 1_555
Hf0 Si9 2.768804 1_555
Hf0 Si15 2.790331 1_455
Hf0 Si11 2.803878 1_555
Hf0 Si9 2.905011 1_455
Hf0 Si7 3.026688 1_554
Hf1 Si3 2.716892 1_545
Hf1 Si9 2.750776 1_555
Hf1 Si8 2.754603 1_545
Hf1 Si0 2.768913 1_655
Hf1 Si11 2.790269 1_555
Hf1 Si15 2.803900 1_555
Hf1 Si0 2.904984 1_555
Hf1 Si13 3.026665 1_544
Hf2 Si14 2.716889 1_545
Hf2 Si10 2.751126 1_555
Hf2 Si12 2.754594 1_545
Hf2 Si2 2.768655 1_455
Hf2 Si5 2.791413 1_555
Hf2 Si4 2.805004 1_555
Hf2 Si2 2.905053 1_555
Hf2 Si6 3.026291 1_545
Hf3 Si12 2.716863 1_655
Hf3 Si2 2.751090 1_555
Hf3 Si14 2.754587 1_555
Hf3 Si10 2.768738 1_555
Hf3 Si4 2.791371 1_655
Hf3 Si5 2.805016 1_555
Hf3 Si10 2.905040 1_655
Hf3 Si1 3.026253 1_555
Hf4 Si15 2.716841 1_455
Hf4 Si6 2.750732 1_555
Hf4 Si11 2.754579 1_555
Hf4 Si1 2.768644 1_555
Hf4 Si8 2.790468 1_455
Hf4 Si3 2.804114 1_555
Hf4 Si1 2.904936 1_455
Hf4 Si10 3.025983 1_555
Hf5 Si11 2.716880 1_565
Hf5 Si1 2.750796 1_555
Hf5 Si15 2.754603 1_565
Hf5 Si6 2.768552 1_655
Hf5 Si3 2.790507 1_555
Hf5 Si8 2.804099 1_555
Hf5 Si6 2.904936 1_555
Hf5 Si2 3.025997 1_565
Hf6 Si5 2.716901 1_565
Hf6 Si7 2.751134 1_555
Hf6 Si4 2.754608 1_565
Hf6 Si13 2.768983 1_455
Hf6 Si14 2.791192 1_555
Hf6 Si12 2.804816 1_555
Hf6 Si13 2.905111 1_555
Hf6 Si0 3.026927 1_566
Hf7 Si4 2.716923 1_655
Hf7 Si13 2.751167 1_555
Hf7 Si5 2.754612 1_555
Hf7 Si7 2.768867 1_555
Hf7 Si12 2.791252 1_655
Hf7 Si14 2.804801 1_555
Hf7 Si7 2.905147 1_655
Hf7 Si9 3.026952 1_556
Co0 Si4 2.299940 1_655
Co0 Si7 2.302257 1_655
Co0 Si9 2.304061 1_556
Co0 Si13 2.348182 1_545
Co0 Si0 2.385979 1_656
Co0 Co3 2.602666 1_555
Co0 Co3 2.602697 1_655
Co0 Hf0 2.657799 1_656
Co0 Hf1 2.854798 1_556
Co0 Hf7 3.003030 1_555
Co1 Si11 2.298597 1_555
Co1 Si6 2.302332 1_545
Co1 Si2 2.304054 1_555
Co1 Si1 2.348104 1_555
Co1 Si10 2.386113 1_555
Co1 Co6 2.602668 1_555
Co1 Co6 2.602719 1_655
Co1 Hf2 2.657811 1_555
Co1 Hf3 2.854675 1_555
Co1 Hf5 3.002498 1_545
Co2 Si14 2.275970 1_545
Co2 Si5 2.276034 1_555
Co2 Si12 2.279954 1_645
Co2 Si4 2.279987 1_655
Co2 Si2 2.465680 1_555
Co2 Si13 2.466111 1_545
Co2 Hf6 2.991493 1_645
Co2 Hf2 2.991495 1_655
Co2 Hf7 3.015656 1_545
Co2 Hf3 3.015686 1_555
Co2 Hf2 3.044938 1_555
Co2 Hf6 3.044940 1_545
Co3 Si5 2.299902 1_555
Co3 Si13 2.302202 1_545
Co3 Si0 2.304053 1_556
Co3 Si7 2.348139 1_555
Co3 Si9 2.385960 1_556
Co3 Hf1 2.657819 1_556
Co3 Hf0 2.854767 1_556
Co3 Hf6 3.003089 1_545
Co4 Si15 2.275845 1_555
Co4 Si8 2.275948 1_555
Co4 Si11 2.279896 1_555
Co4 Si3 2.279959 1_555
Co4 Si1 2.464597 1_555
Co4 Si9 2.464901 1_555
Co4 Hf0 2.991141 1_555
Co4 Hf4 2.991172 1_555
Co4 Hf1 3.015069 1_555
Co4 Hf5 3.015195 1_555
Co4 Hf4 3.044516 1_655
Co4 Hf0 3.044562 1_655
Co5 Si14 2.299584 1_555
Co5 Si2 2.302214 1_565
Co5 Si6 2.304039 1_555
Co5 Si10 2.348073 1_555
Co5 Si1 2.385956 1_555
Co5 Hf5 2.657426 1_555
Co5 Hf4 2.854381 1_555
Co5 Hf2 3.002655 1_565
Co6 Si15 2.298560 1_455
Co6 Si1 2.302277 1_455
Co6 Si10 2.304004 1_555
Co6 Si6 2.348111 1_545
Co6 Si2 2.386142 1_455
Co6 Hf3 2.657830 1_455
Co6 Hf2 2.854641 1_555
Co6 Hf4 3.002519 1_555
Co7 Si8 2.298932 1_455
Co7 Si9 2.302348 1_455
Co7 Si7 2.304086 1_554
Co7 Si0 2.348237 1_565
Co7 Si13 2.386176 1_454
Co7 Hf7 2.658196 1_454
Co7 Hf6 2.855094 1_554
Co7 Hf0 3.002853 1_555
Co8 Si11 2.275876 1_555
Co8 Si3 2.275931 1_545
Co8 Si15 2.279914 1_455
Co8 Si8 2.279919 1_445
Co8 Si6 2.464521 1_545
Co8 Si0 2.464973 1_555
Co8 Hf1 2.991143 1_455
Co8 Hf5 2.991148 1_445
Co8 Hf0 3.015118 1_555
Co8 Hf4 3.015163 1_545
Co8 Hf5 3.044552 1_545
Co8 Hf1 3.044553 1_555
Co9 Si12 2.275967 1_555
Co9 Si4 2.276042 1_555
Co9 Si14 2.279948 1_555
Co9 Si5 2.279999 1_555
Co9 Si10 2.465740 1_555
Co9 Si7 2.466041 1_555
Co9 Hf7 2.991480 1_555
Co9 Hf3 2.991512 1_555
Co9 Hf6 3.015602 1_555
Co9 Hf2 3.015730 1_555
Co9 Hf3 3.044915 1_455
Co9 Hf7 3.044960 1_455
Co10 Si3 2.298886 1_555
Co10 Si0 2.302288 1_565
Co10 Si13 2.304068 1_554
Co10 Si9 2.348212 1_555
Co10 Si7 2.386162 1_554
Co10 Co7 2.602679 1_555
Co10 Co7 2.602709 1_655
Co10 Hf6 2.658225 1_554
Co10 Hf7 2.855073 1_554
Co10 Hf1 3.002894 1_565
Co11 Si12 2.299538 1_655
Co11 Si10 2.302182 1_655
Co11 Si1 2.304041 1_555
Co11 Si2 2.348040 1_565
Co11 Si6 2.385936 1_655
Co11 Co5 2.602670 1_655
Co11 Co5 2.602695 1_555
Co11 Hf4 2.657447 1_655
Co11 Hf5 2.854358 1_555
Co11 Hf3 3.002714 1_555
