# generated using pymatgen
data_Sr3LiIrO6
_symmetry_space_group_name_H-M   'P 1'
_cell_length_a   6.75298515
_cell_length_b   6.75298515
_cell_length_c   6.75298474
_cell_angle_alpha   92.19135935
_cell_angle_beta   92.19135935
_cell_angle_gamma   92.19136271
_symmetry_Int_Tables_number   1
_chemical_formula_structural   Sr3LiIrO6
_chemical_formula_sum   'Sr6 Li2 Ir2 O12'
_cell_volume   307.26169080
_cell_formula_units_Z   2
loop_
 _symmetry_equiv_pos_site_id
 _symmetry_equiv_pos_as_xyz
  1  'x, y, z'
loop_
 _atom_site_type_symbol
 _atom_site_label
 _atom_site_symmetry_multiplicity
 _atom_site_fract_x
 _atom_site_fract_y
 _atom_site_fract_z
 _atom_site_occupancy
  Sr  Sr0  1  0.39175400  0.10824600  0.75000000  1
  Sr  Sr1  1  0.10824600  0.75000000  0.39175400  1
  Sr  Sr2  1  0.25000000  0.60824600  0.89175400  1
  Sr  Sr3  1  0.89175400  0.25000000  0.60824600  1
  Sr  Sr4  1  0.60824600  0.89175400  0.25000000  1
  Sr  Sr5  1  0.75000000  0.39175400  0.10824600  1
  Li  Li0  1  0.75000000  0.75000000  0.75000000  1
  Li  Li1  1  0.25000000  0.25000000  0.25000000  1
  Ir  Ir0  1  0.50000000  0.50000000  0.50000000  1
  Ir  Ir1  1  0.00000000  0.00000000  0.00000000  1
  O  O0  1  0.28134900  0.95279800  0.08442400  1
  O  O1  1  0.41557600  0.54720200  0.21865100  1
  O  O2  1  0.21865100  0.41557600  0.54720200  1
  O  O3  1  0.54720200  0.21865100  0.41557600  1
  O  O4  1  0.08442400  0.28134900  0.95279800  1
  O  O5  1  0.95279800  0.08442400  0.28134900  1
  O  O6  1  0.91557600  0.71865100  0.04720200  1
  O  O7  1  0.04720200  0.91557600  0.71865100  1
  O  O8  1  0.45279800  0.78134900  0.58442400  1
  O  O9  1  0.78134900  0.58442400  0.45279800  1
  O  O10  1  0.58442400  0.45279800  0.78134900  1
  O  O11  1  0.71865100  0.04720200  0.91557600  1
loop_
_geom_bond_atom_site_label_1
_geom_bond_atom_site_label_2
_geom_bond_distance
_geom_bond_site_symmetry_2
Li0 O6 2.280804 1_556
Li0 O9 2.280804 1_555
Li0 O7 2.280804 1_655
Li0 O10 2.280804 1_555
Li0 O11 2.280804 1_565
Li0 O8 2.280804 1_555
Li1 O2 2.280804 1_555
Li1 O4 2.280804 1_554
Li1 O1 2.280804 1_555
Li1 O5 2.280804 1_455
Li1 O3 2.280804 1_555
Li1 O0 2.280804 1_545
Ir0 O1 2.003448 1_555
Ir0 O10 2.003448 1_555
Ir0 O2 2.003448 1_555
Ir0 O9 2.003448 1_555
Ir0 O3 2.003448 1_555
Ir0 O8 2.003448 1_555
Ir1 O5 2.003448 1_455
Ir1 O7 2.003448 1_544
Ir1 O6 2.003448 1_445
Ir1 O4 2.003448 1_554
Ir1 O11 2.003448 1_454
Ir1 O0 2.003448 1_545
O0 Sr4 2.491871 1_555
O0 Sr2 2.619391 1_554
O0 Sr0 2.647303 1_564
O0 Sr1 2.798161 1_555
O1 Sr2 2.491871 1_554
O1 Sr4 2.619391 1_555
O1 Sr5 2.647303 1_555
O1 Sr1 2.798161 1_555
O2 Sr3 2.491871 1_455
O2 Sr2 2.619391 1_555
O2 Sr1 2.647303 1_555
O2 Sr0 2.798161 1_555
O3 Sr4 2.491871 1_545
O3 Sr3 2.619391 1_555
O3 Sr0 2.647303 1_555
O3 Sr5 2.798161 1_555
O4 Sr2 2.491871 1_555
O4 Sr3 2.619391 1_455
O4 Sr5 2.647303 1_456
O4 Sr0 2.798161 1_555
O5 Sr3 2.491871 1_555
O5 Sr4 2.619391 1_545
O5 Sr1 2.647303 1_645
O5 Sr5 2.798161 1_555
O6 Sr5 2.491871 1_555
O6 Sr1 2.619391 1_655
O6 Sr2 2.647303 1_654
O6 Sr4 2.798161 1_555
O7 Sr1 2.491871 1_555
O7 Sr0 2.619391 1_565
O7 Sr3 2.647303 1_465
O7 Sr2 2.798161 1_555
O8 Sr0 2.491871 1_565
O8 Sr1 2.619391 1_555
O8 Sr4 2.647303 1_555
O8 Sr2 2.798161 1_555
O9 Sr1 2.491871 1_655
O9 Sr5 2.619391 1_555
O9 Sr3 2.647303 1_555
O9 Sr4 2.798161 1_555
O10 Sr5 2.491871 1_556
O10 Sr0 2.619391 1_555
O10 Sr2 2.647303 1_555
O10 Sr3 2.798161 1_555
O11 Sr0 2.491871 1_555
O11 Sr5 2.619391 1_556
O11 Sr4 2.647303 1_546
O11 Sr3 2.798161 1_555
