# generated using pymatgen
data_Ca2H2S2O7
_symmetry_space_group_name_H-M   'P 1'
_cell_length_a   6.91110400
_cell_length_b   9.51951000
_cell_length_c   10.72102000
_cell_angle_alpha   90.00000000
_cell_angle_beta   90.00000000
_cell_angle_gamma   90.00000000
_symmetry_Int_Tables_number   1
_chemical_formula_structural   Ca2H2S2O7
_chemical_formula_sum   'Ca8 H8 S8 O28'
_cell_volume   705.33937554
_cell_formula_units_Z   4
loop_
 _symmetry_equiv_pos_site_id
 _symmetry_equiv_pos_as_xyz
  1  'x, y, z'
loop_
 _atom_site_type_symbol
 _atom_site_label
 _atom_site_symmetry_multiplicity
 _atom_site_fract_x
 _atom_site_fract_y
 _atom_site_fract_z
 _atom_site_occupancy
  Ca  Ca0  1  0.49741300  0.63459900  0.14654300  1
  Ca  Ca1  1  0.00258700  0.13459900  0.35345700  1
  Ca  Ca2  1  0.00258700  0.36540100  0.64654300  1
  Ca  Ca3  1  0.49741300  0.86540100  0.85345700  1
  Ca  Ca4  1  0.50258700  0.36540100  0.85345700  1
  Ca  Ca5  1  0.99741300  0.86540100  0.64654300  1
  Ca  Ca6  1  0.99741300  0.63459900  0.35345700  1
  Ca  Ca7  1  0.50258700  0.13459900  0.14654300  1
  H  H0  1  0.63906700  0.77371200  0.56821400  1
  H  H1  1  0.86093300  0.27371200  0.93178600  1
  H  H2  1  0.86093300  0.22628800  0.06821400  1
  H  H3  1  0.63906700  0.72628800  0.43178600  1
  H  H4  1  0.36093300  0.22628800  0.43178600  1
  H  H5  1  0.13906700  0.72628800  0.06821400  1
  H  H6  1  0.13906700  0.77371200  0.93178600  1
  H  H7  1  0.36093300  0.27371200  0.56821400  1
  S  S0  1  0.81851100  0.88740600  0.11693800  1
  S  S1  1  0.68148900  0.38740600  0.38306200  1
  S  S2  1  0.68148900  0.11259400  0.61693800  1
  S  S3  1  0.81851100  0.61259400  0.88306200  1
  S  S4  1  0.18148900  0.11259400  0.88306200  1
  S  S5  1  0.31851100  0.61259400  0.61693800  1
  S  S6  1  0.31851100  0.88740600  0.38306200  1
  S  S7  1  0.18148900  0.38740600  0.11693800  1
  O  O0  1  0.61011300  0.89294800  0.06150200  1
  O  O1  1  0.88988700  0.39294800  0.43849800  1
  O  O2  1  0.88988700  0.10705200  0.56150200  1
  O  O3  1  0.61011300  0.60705200  0.93849800  1
  O  O4  1  0.38988700  0.10705200  0.93849800  1
  O  O5  1  0.11011300  0.60705200  0.56150200  1
  O  O6  1  0.11011300  0.89294800  0.43849800  1
  O  O7  1  0.38988700  0.39294800  0.06150200  1
  O  O8  1  0.80551700  0.76131300  0.20673400  1
  O  O9  1  0.69448300  0.26131300  0.29326600  1
  O  O10  1  0.69448300  0.23868700  0.70673400  1
  O  O11  1  0.80551700  0.73868700  0.79326600  1
  O  O12  1  0.19448300  0.23868700  0.79326600  1
  O  O13  1  0.30551700  0.73868700  0.70673400  1
  O  O14  1  0.30551700  0.76131300  0.29326600  1
  O  O15  1  0.19448300  0.26131300  0.20673400  1
  O  O16  1  0.82114500  0.02077800  0.19832800  1
  O  O17  1  0.67885500  0.52077800  0.30167200  1
  O  O18  1  0.67885500  0.97922200  0.69832800  1
  O  O19  1  0.82114500  0.47922200  0.80167200  1
  O  O20  1  0.17885500  0.97922200  0.80167200  1
  O  O21  1  0.32114500  0.47922200  0.69832800  1
  O  O22  1  0.32114500  0.02077800  0.30167200  1
  O  O23  1  0.17885500  0.52077800  0.19832800  1
  O  O24  1  0.72711800  0.75000000  0.50000000  1
  O  O25  1  0.77288200  0.25000000  0.00000000  1
  O  O26  1  0.27288200  0.25000000  0.50000000  1
  O  O27  1  0.22711800  0.75000000  0.00000000  1
loop_
_geom_bond_atom_site_label_1
_geom_bond_atom_site_label_2
_geom_bond_distance
_geom_bond_site_symmetry_2
Ca0 O17 2.347867 1_555
Ca0 O3 2.377047 1_554
Ca0 O14 2.385013 1_555
Ca0 O23 2.515797 1_555
Ca0 O8 2.530921 1_555
Ca0 O7 2.583663 1_555
Ca0 O27 2.676700 1_555
Ca0 O0 2.736116 1_555
Ca1 O16 2.347867 1_455
Ca1 O2 2.377047 1_455
Ca1 O15 2.385013 1_555
Ca1 O22 2.515797 1_555
Ca1 O9 2.530921 1_455
Ca1 O6 2.583663 1_545
Ca1 O26 2.676700 1_555
Ca1 O1 2.736116 1_455
Ca2 O19 2.347867 1_455
Ca2 O1 2.377047 1_455
Ca2 O12 2.385013 1_555
Ca2 O21 2.515797 1_555
Ca2 O10 2.530921 1_455
Ca2 O5 2.583663 1_555
Ca2 O26 2.676700 1_555
Ca2 O2 2.736116 1_455
Ca3 O18 2.347867 1_555
Ca3 O0 2.377047 1_556
Ca3 O13 2.385013 1_555
Ca3 O20 2.515797 1_555
Ca3 O11 2.530921 1_555
Ca3 O4 2.583663 1_565
Ca3 O27 2.676700 1_556
Ca3 O3 2.736116 1_555
Ca4 O21 2.347867 1_555
Ca4 O7 2.377047 1_556
Ca4 O10 2.385013 1_555
Ca4 O19 2.515797 1_555
Ca4 O12 2.530921 1_555
Ca4 O3 2.583663 1_555
Ca4 O25 2.676700 1_556
Ca4 O4 2.736116 1_555
Ca5 O20 2.347867 1_655
Ca5 O6 2.377047 1_655
Ca5 O11 2.385013 1_555
Ca5 O18 2.515797 1_555
Ca5 O13 2.530921 1_655
Ca5 O2 2.583663 1_565
Ca5 O24 2.676700 1_555
Ca5 O5 2.736116 1_655
Ca6 O23 2.347867 1_655
Ca6 O5 2.377047 1_655
Ca6 O8 2.385013 1_555
Ca6 O17 2.515797 1_555
Ca6 O14 2.530921 1_655
Ca6 O1 2.583663 1_555
Ca6 O24 2.676700 1_555
Ca6 O6 2.736116 1_655
Ca7 O22 2.347867 1_555
Ca7 O4 2.377047 1_554
Ca7 O9 2.385013 1_555
Ca7 O16 2.515797 1_555
Ca7 O15 2.530921 1_555
Ca7 O0 2.583663 1_545
Ca7 O25 2.676700 1_555
Ca7 O7 2.736116 1_555
H0 O24 0.977801 1_555
H1 O25 0.977801 1_556
H2 O25 0.977801 1_555
H3 O24 0.977801 1_555
H4 O26 0.977801 1_555
H5 O27 0.977801 1_555
H6 O27 0.977801 1_556
H7 O26 0.977801 1_555
O0 S0 1.558962 1_555
O1 S1 1.558962 1_555
O2 S2 1.558962 1_555
O3 S3 1.558962 1_555
O4 S4 1.558962 1_555
O5 S5 1.558962 1_555
O6 S6 1.558962 1_555
O7 S7 1.558962 1_555
O8 S0 1.541327 1_555
O9 S1 1.541327 1_555
O10 S2 1.541327 1_555
O11 S3 1.541327 1_555
O12 S4 1.541327 1_555
O13 S5 1.541327 1_555
O14 S6 1.541327 1_555
O15 S7 1.541327 1_555
O16 S0 1.540685 1_545
O17 S1 1.540685 1_555
O18 S2 1.540685 1_565
O19 S3 1.540685 1_555
O20 S4 1.540685 1_565
O21 S5 1.540685 1_555
O22 S6 1.540685 1_545
O23 S7 1.540685 1_555
