# generated using pymatgen
data_V4NiS8
_symmetry_space_group_name_H-M   'P 1'
_cell_length_a   6.52849940
_cell_length_b   6.52849940
_cell_length_c   7.99965713
_cell_angle_alpha   54.06111417
_cell_angle_beta   54.06111417
_cell_angle_gamma   62.26706006
_symmetry_Int_Tables_number   1
_chemical_formula_structural   V4NiS8
_chemical_formula_sum   'V4 Ni1 S8'
_cell_volume   219.67173554
_cell_formula_units_Z   1
loop_
 _symmetry_equiv_pos_site_id
 _symmetry_equiv_pos_as_xyz
  1  'x, y, z'
loop_
 _atom_site_type_symbol
 _atom_site_label
 _atom_site_symmetry_multiplicity
 _atom_site_fract_x
 _atom_site_fract_y
 _atom_site_fract_z
 _atom_site_occupancy
  V  V0  1  0.27903331  0.72096669  -0.00000000  1
  V  V1  1  0.72096669  0.27903331  -0.00000000  1
  V  V2  1  0.26675490  0.26675490  0.47071130  1
  V  V3  1  0.73324510  0.73324510  0.52928870  1
  Ni  Ni0  1  -0.00000000  -0.00000000  0.50000000  1
  S  S0  1  0.01924483  0.01924483  0.17933978  1
  S  S1  1  0.98075517  0.98075517  0.82066022  1
  S  S2  1  0.55334436  0.55334436  0.16254374  1
  S  S3  1  0.44665564  0.44665564  0.83745626  1
  S  S4  1  0.54090615  0.03930898  0.67048497  1
  S  S5  1  0.96069102  0.45909385  0.32951503  1
  S  S6  1  0.03930898  0.54090615  0.67048497  1
  S  S7  1  0.45909385  0.96069102  0.32951503  1
loop_
_geom_bond_atom_site_label_1
_geom_bond_atom_site_label_2
_geom_bond_distance
_geom_bond_site_symmetry_2
Ni0 S4 2.409516 1_455
Ni0 S6 2.409516 1_545
Ni0 S5 2.409516 1_455
Ni0 S7 2.409516 1_545
Ni0 S0 2.422754 1_555
Ni0 S1 2.422754 1_445
S0 V3 2.404735 1_445
S0 V0 2.464978 1_545
S0 V1 2.464978 1_455
S1 V2 2.404735 1_665
S1 V0 2.464978 1_656
S1 V1 2.464978 1_566
S2 V0 2.309673 1_555
S2 V1 2.309673 1_555
S2 V2 2.346936 1_555
S3 V1 2.309673 1_556
S3 V0 2.309673 1_556
S3 V3 2.346936 1_555
S4 V3 2.344006 1_545
S4 V0 2.403490 1_546
S4 V2 2.461863 1_555
S5 V2 2.344006 1_655
S5 V0 2.403490 1_655
S5 V3 2.461863 1_555
S6 V3 2.344006 1_455
S6 V1 2.403490 1_456
S6 V2 2.461863 1_555
S7 V2 2.344006 1_565
S7 V1 2.403490 1_565
S7 V3 2.461863 1_555
