# generated using pymatgen
data_LiFe2(PO4)3
_symmetry_space_group_name_H-M   'P 1'
_cell_length_a   8.68958860
_cell_length_b   8.68958860
_cell_length_c   8.80097257
_cell_angle_alpha   60.73758094
_cell_angle_beta   60.73758094
_cell_angle_gamma   59.85096089
_symmetry_Int_Tables_number   1
_chemical_formula_structural   LiFe2(PO4)3
_chemical_formula_sum   'Li2 Fe4 P6 O24'
_cell_volume   474.53124345
_cell_formula_units_Z   2
loop_
 _symmetry_equiv_pos_site_id
 _symmetry_equiv_pos_as_xyz
  1  'x, y, z'
loop_
 _atom_site_type_symbol
 _atom_site_label
 _atom_site_symmetry_multiplicity
 _atom_site_fract_x
 _atom_site_fract_y
 _atom_site_fract_z
 _atom_site_occupancy
  Li  Li0  1  0.36127000  0.03385300  0.44987100  1
  Li  Li1  1  0.03385300  0.36127000  0.94987100  1
  Fe  Fe0  1  0.35327800  0.85345200  0.92605600  1
  Fe  Fe1  1  0.14666000  0.65258400  0.56444000  1
  Fe  Fe2  1  0.65258400  0.14666000  0.06444000  1
  Fe  Fe3  1  0.85345200  0.35327800  0.42605600  1
  P  P0  1  0.52726100  0.75367700  0.25734300  1
  P  P1  1  0.04215900  0.96112200  0.74230900  1
  P  P2  1  0.96112200  0.04215900  0.24230900  1
  P  P3  1  0.24721000  0.47203300  0.24482600  1
  P  P4  1  0.47203300  0.24721000  0.74482600  1
  P  P5  1  0.75367700  0.52726100  0.75734300  1
  O  O0  1  0.76326600  0.48503500  0.60227400  1
  O  O1  1  0.24166900  0.51104300  0.40044100  1
  O  O2  1  0.77554600  0.05314700  0.24653900  1
  O  O3  1  0.48503500  0.76326600  0.10227400  1
  O  O4  1  0.36836400  0.72786400  0.44446000  1
  O  O5  1  0.12104200  0.01903100  0.05998800  1
  O  O6  1  0.54562600  0.93639800  0.22538300  1
  O  O7  1  0.27687800  0.40426000  0.74519000  1
  O  O8  1  0.58941100  0.71469700  0.76295100  1
  O  O9  1  0.45786600  0.06224500  0.77946600  1
  O  O10  1  0.05314700  0.77554600  0.74653900  1
  O  O11  1  0.23309000  0.94228000  0.73648300  1
  O  O12  1  0.87839400  0.99769600  0.91515800  1
  O  O13  1  0.27887000  0.62869100  0.05905100  1
  O  O14  1  0.71469700  0.58941100  0.26295100  1
  O  O15  1  0.94228000  0.23309000  0.23648300  1
  O  O16  1  0.51104300  0.24166900  0.90044100  1
  O  O17  1  0.62869100  0.27887000  0.55905100  1
  O  O18  1  0.72786400  0.36836400  0.94446000  1
  O  O19  1  0.01903100  0.12104200  0.55998800  1
  O  O20  1  0.93639800  0.54562600  0.72538300  1
  O  O21  1  0.99769600  0.87839400  0.41515800  1
  O  O22  1  0.06224500  0.45786600  0.27946600  1
  O  O23  1  0.40426000  0.27687800  0.24519000  1
loop_
_geom_bond_atom_site_label_1
_geom_bond_atom_site_label_2
_geom_bond_distance
_geom_bond_site_symmetry_2
Li0 O23 2.063917 1_555
Li0 O6 2.089413 1_545
Li0 O11 2.101887 1_545
Li0 O19 2.448329 1_555
Li1 O7 2.063917 1_555
Li1 O20 2.089413 1_455
Li1 O15 2.101887 1_456
Li1 O5 2.448329 1_556
Fe0 O13 1.973919 1_556
Fe0 O5 1.986943 1_566
Fe0 O3 1.994155 1_556
Fe0 O9 2.000978 1_565
Fe0 O8 2.012963 1_555
Fe0 O11 2.026054 1_555
Fe1 O1 1.956566 1_555
Fe1 O21 1.960321 1_455
Fe1 O4 1.963734 1_555
Fe1 O10 1.974649 1_555
Fe1 O20 2.024133 1_455
Fe1 O7 2.102014 1_555
Fe2 O16 1.956566 1_554
Fe2 O12 1.960321 1_544
Fe2 O18 1.963734 1_554
Fe2 O2 1.974649 1_555
Fe2 O6 2.024133 1_545
Fe2 O23 2.102014 1_555
Fe3 O17 1.973919 1_555
Fe3 O19 1.986943 1_655
Fe3 O0 1.994155 1_555
Fe3 O22 2.000978 1_655
Fe3 O14 2.012963 1_555
Fe3 O15 2.026054 1_555
O0 P5 1.533564 1_555
O1 P3 1.538159 1_555
O2 P2 1.549527 1_555
O3 P0 1.533564 1_555
O4 P0 1.547839 1_555
O5 P2 1.549531 1_455
O6 P0 1.549073 1_555
O7 P4 1.553214 1_555
O8 P5 1.538536 1_555
O9 P4 1.540923 1_555
O10 P1 1.549527 1_555
O11 P1 1.560212 1_555
O12 P1 1.530439 1_655
O13 P3 1.537069 1_555
O14 P0 1.538536 1_555
O15 P2 1.560212 1_555
O16 P4 1.538159 1_555
O17 P4 1.537069 1_555
O18 P5 1.547839 1_555
O19 P1 1.549531 1_545
O20 P5 1.549073 1_555
O21 P2 1.530439 1_565
O22 P3 1.540923 1_555
O23 P3 1.553214 1_555
