# generated using pymatgen
data_Yb5S9
_symmetry_space_group_name_H-M   'P 1'
_cell_length_a   8.32896500
_cell_length_b   9.42355392
_cell_length_c   9.63377098
_cell_angle_alpha   76.15716560
_cell_angle_beta   69.98361147
_cell_angle_gamma   70.89775130
_symmetry_Int_Tables_number   1
_chemical_formula_structural   Yb5S9
_chemical_formula_sum   'Yb10 S18'
_cell_volume   664.41371005
_cell_formula_units_Z   2
loop_
 _symmetry_equiv_pos_site_id
 _symmetry_equiv_pos_as_xyz
  1  'x, y, z'
loop_
 _atom_site_type_symbol
 _atom_site_label
 _atom_site_symmetry_multiplicity
 _atom_site_fract_x
 _atom_site_fract_y
 _atom_site_fract_z
 _atom_site_occupancy
  Yb  Yb0  1  0.67746400  0.18031700  0.81260800  1
  Yb  Yb1  1  0.88220100  0.82888300  0.04114500  1
  Yb  Yb2  1  0.55404600  0.67235300  0.84255500  1
  Yb  Yb3  1  0.44595400  0.32764700  0.15744500  1
  Yb  Yb4  1  0.11779900  0.17111700  0.95885500  1
  Yb  Yb5  1  0.76042100  0.00550300  0.39088400  1
  Yb  Yb6  1  0.32253600  0.81968300  0.18739200  1
  Yb  Yb7  1  0.25568400  0.52564600  0.64830100  1
  Yb  Yb8  1  0.74431600  0.47435400  0.35169900  1
  Yb  Yb9  1  0.23957900  0.99449700  0.60911600  1
  S  S0  1  0.96939800  0.30651600  0.72804100  1
  S  S1  1  0.59607900  0.91645800  0.93929000  1
  S  S2  1  0.21473300  0.87396700  0.91169200  1
  S  S3  1  0.91713600  0.68960000  0.79948300  1
  S  S4  1  0.08286400  0.31040000  0.20051700  1
  S  S5  1  0.41578500  0.43990500  0.86415900  1
  S  S6  1  0.58421500  0.56009500  0.13584100  1
  S  S7  1  0.40392100  0.08354200  0.06071000  1
  S  S8  1  0.51028800  0.87346300  0.36190200  1
  S  S9  1  0.78526700  0.12603300  0.08830800  1
  S  S10  1  0.04294700  0.12184200  0.36225000  1
  S  S11  1  0.97964500  0.62409000  0.50003400  1
  S  S12  1  0.03060200  0.69348400  0.27195900  1
  S  S13  1  0.02035500  0.37591000  0.49996600  1
  S  S14  1  0.50551500  0.69489500  0.54782300  1
  S  S15  1  0.49448500  0.30510500  0.45217700  1
  S  S16  1  0.48971200  0.12653700  0.63809800  1
  S  S17  1  0.95705300  0.87815800  0.63775000  1
loop_
_geom_bond_atom_site_label_1
_geom_bond_atom_site_label_2
_geom_bond_distance
_geom_bond_site_symmetry_2
S0 S13 2.071533 1_655
S0 Yb4 2.755335 1_655
S0 Yb0 2.839568 1_555
S0 Yb9 3.246298 1_645
S0 Yb7 3.427775 1_655
S1 S7 2.087888 1_566
S1 Yb0 2.686314 1_565
S1 Yb1 2.692431 1_556
S1 Yb2 2.838812 1_555
S1 Yb6 2.885181 1_556
S2 Yb1 2.749324 1_456
S2 Yb4 2.752714 1_565
S2 Yb2 2.800518 1_555
S2 Yb9 2.826025 1_555
S2 Yb6 2.967186 1_556
S3 Yb7 2.805938 1_655
S3 Yb1 2.824195 1_556
S3 Yb2 2.962185 1_555
S4 Yb8 2.805938 1_455
S4 Yb4 2.824195 1_554
S4 Yb3 2.962185 1_555
S5 Yb7 2.672930 1_555
S5 Yb0 2.707725 1_555
S5 Yb2 2.726982 1_555
S5 Yb3 2.836754 1_556
S6 Yb8 2.672930 1_555
S6 Yb6 2.707725 1_555
S6 Yb3 2.726982 1_555
S6 Yb2 2.836754 1_554
S7 Yb6 2.686314 1_545
S7 Yb4 2.692431 1_554
S7 Yb3 2.838812 1_555
S7 Yb0 2.885181 1_554
S8 Yb9 2.827948 1_555
S8 Yb5 2.868392 1_565
S8 Yb6 2.873123 1_555
S8 Yb1 3.540803 1_555
S9 Yb4 2.749324 1_654
S9 Yb1 2.752714 1_545
S9 Yb3 2.800518 1_555
S9 Yb5 2.826025 1_555
S9 Yb0 2.967186 1_554
S10 S4 2.098274 1_555
S10 Yb5 2.813319 1_455
S10 Yb9 3.129335 1_545
S10 Yb6 3.411474 1_545
S11 S12 2.071533 1_655
S11 S13 2.250826 1_655
S11 Yb7 2.899118 1_655
S12 Yb1 2.755335 1_455
S12 Yb6 2.839568 1_555
S12 Yb5 3.246298 1_465
S12 Yb8 3.427775 1_455
S13 Yb8 2.899118 1_455
S14 S8 2.143387 1_555
S14 Yb7 2.804492 1_555
S14 Yb8 2.906200 1_555
S14 Yb2 2.951520 1_555
S14 Yb9 3.005869 1_555
S15 S16 2.143387 1_555
S15 Yb8 2.804492 1_555
S15 Yb7 2.906200 1_555
S15 Yb3 2.951520 1_555
S15 Yb5 3.005869 1_555
S16 Yb5 2.827948 1_555
S16 Yb9 2.868392 1_545
S16 Yb0 2.873123 1_555
S16 Yb4 3.540803 1_555
S17 S3 2.098274 1_555
S17 Yb9 2.813319 1_655
S17 Yb5 3.129335 1_565
S17 Yb0 3.411474 1_565
