# generated using pymatgen
data_FeP3H5NO10
_symmetry_space_group_name_H-M   'P 1'
_cell_length_a   7.45470795
_cell_length_b   7.45470795
_cell_length_c   9.46556866
_cell_angle_alpha   71.88825145
_cell_angle_beta   71.88825145
_cell_angle_gamma   69.99223466
_symmetry_Int_Tables_number   1
_chemical_formula_structural   FeP3H5NO10
_chemical_formula_sum   'Fe2 P6 H10 N2 O20'
_cell_volume   457.30594180
_cell_formula_units_Z   2
loop_
 _symmetry_equiv_pos_site_id
 _symmetry_equiv_pos_as_xyz
  1  'x, y, z'
loop_
 _atom_site_type_symbol
 _atom_site_label
 _atom_site_symmetry_multiplicity
 _atom_site_fract_x
 _atom_site_fract_y
 _atom_site_fract_z
 _atom_site_occupancy
  Fe  Fe0  1  0.00000000  0.50000000  0.50000000  1
  Fe  Fe1  1  0.50000000  0.00000000  0.00000000  1
  P  P0  1  0.27752400  0.14290700  0.70463800  1
  P  P1  1  0.85709300  0.72247600  0.79536200  1
  P  P2  1  0.72247600  0.85709300  0.29536200  1
  P  P3  1  0.14290700  0.27752400  0.20463800  1
  P  P4  1  0.87597700  0.12402300  0.75000000  1
  P  P5  1  0.12402300  0.87597700  0.25000000  1
  H  H0  1  0.67915600  0.45272800  0.25949900  1
  H  H1  1  0.54727200  0.32084400  0.24050100  1
  H  H2  1  0.32084400  0.54727200  0.74050100  1
  H  H3  1  0.45272800  0.67915600  0.75949900  1
  H  H4  1  0.56554300  0.51009000  0.65614500  1
  H  H5  1  0.48991000  0.43445700  0.84385500  1
  H  H6  1  0.43445700  0.48991000  0.34385500  1
  H  H7  1  0.51009000  0.56554300  0.15614500  1
  H  H8  1  0.00000000  0.50000000  0.00000000  1
  H  H9  1  0.50000000  0.00000000  0.50000000  1
  N  N0  1  0.45640100  0.54359900  0.75000000  1
  N  N1  1  0.54359900  0.45640100  0.25000000  1
  O  O0  1  0.06906300  0.09445300  0.80284200  1
  O  O1  1  0.90554700  0.93093700  0.69715800  1
  O  O2  1  0.93093700  0.90554700  0.19715800  1
  O  O3  1  0.09445300  0.06906300  0.30284200  1
  O  O4  1  0.23075800  0.34591300  0.59759100  1
  O  O5  1  0.65408700  0.76924200  0.90240900  1
  O  O6  1  0.76924200  0.65408700  0.40240900  1
  O  O7  1  0.34591300  0.23075800  0.09759100  1
  O  O8  1  0.38619800  0.97428400  0.62202200  1
  O  O9  1  0.02571600  0.61380200  0.87797800  1
  O  O10  1  0.61380200  0.02571600  0.37797800  1
  O  O11  1  0.97428400  0.38619800  0.12202200  1
  O  O12  1  0.37286100  0.14404100  0.82413000  1
  O  O13  1  0.85595900  0.62713900  0.67587000  1
  O  O14  1  0.62713900  0.85595900  0.17587000  1
  O  O15  1  0.14404100  0.37286100  0.32413000  1
  O  O16  1  0.85462200  0.29114600  0.61029200  1
  O  O17  1  0.70885400  0.14537800  0.88970800  1
  O  O18  1  0.14537800  0.70885400  0.38970800  1
  O  O19  1  0.29114600  0.85462200  0.11029200  1
loop_
_geom_bond_atom_site_label_1
_geom_bond_atom_site_label_2
_geom_bond_distance
_geom_bond_site_symmetry_2
Fe0 O13 1.998933 1_455
Fe0 O15 1.998933 1_555
Fe0 O4 2.026842 1_555
Fe0 O6 2.026842 1_455
Fe0 O18 2.032015 1_555
Fe0 O16 2.032015 1_455
Fe1 O12 1.998933 1_554
Fe1 O14 1.998933 1_545
Fe1 O5 2.026842 1_544
Fe1 O7 2.026842 1_555
Fe1 O17 2.032015 1_554
Fe1 O19 2.032015 1_545
H0 N1 1.032496 1_555
H1 N1 1.032496 1_555
H2 N0 1.032496 1_555
H3 N0 1.032496 1_555
H4 N0 1.031074 1_555
H5 N0 1.031074 1_555
H6 N1 1.031074 1_555
H7 N1 1.031074 1_555
H8 O9 1.206197 1_554
H8 O11 1.206197 1_455
H9 O8 1.206197 1_545
H9 O10 1.206197 1_555
O0 P4 1.591413 1_455
O0 P0 1.639125 1_555
O1 P4 1.591413 1_565
O1 P1 1.639125 1_555
O2 P5 1.591413 1_655
O2 P2 1.639125 1_555
O3 P5 1.591413 1_545
O3 P3 1.639125 1_555
O4 P0 1.530907 1_555
O5 P1 1.530907 1_555
O6 P2 1.530907 1_555
O7 P3 1.530907 1_555
O8 P0 1.538965 1_565
O9 P1 1.538965 1_455
O10 P2 1.538965 1_545
O11 P3 1.538965 1_655
O12 P0 1.514702 1_555
O13 P1 1.514702 1_555
O14 P2 1.514702 1_555
O15 P3 1.514702 1_555
O16 P4 1.515620 1_555
O17 P4 1.515620 1_555
O18 P5 1.515620 1_555
O19 P5 1.515620 1_555
