# generated using pymatgen
data_Co(NiS2)2
_symmetry_space_group_name_H-M   'P 1'
_cell_length_a   6.60406598
_cell_length_b   6.60405677
_cell_length_c   6.57810903
_cell_angle_alpha   60.12988232
_cell_angle_beta   60.12992813
_cell_angle_gamma   60.27413425
_symmetry_Int_Tables_number   1
_chemical_formula_structural   Co(NiS2)2
_chemical_formula_sum   'Co2 Ni4 S8'
_cell_volume   203.68237580
_cell_formula_units_Z   2
loop_
 _symmetry_equiv_pos_site_id
 _symmetry_equiv_pos_as_xyz
  1  'x, y, z'
loop_
 _atom_site_type_symbol
 _atom_site_label
 _atom_site_symmetry_multiplicity
 _atom_site_fract_x
 _atom_site_fract_y
 _atom_site_fract_z
 _atom_site_occupancy
  Co  Co0  1  0.50000000  0.50000000  -0.00000000  1
  Co  Co1  1  0.50000000  0.50000000  0.50000000  1
  Ni  Ni0  1  0.12440705  0.12440805  0.12559295  1
  Ni  Ni1  1  0.00000000  0.50000000  0.50000000  1
  Ni  Ni2  1  0.50000000  -0.00000000  0.50000000  1
  Ni  Ni3  1  0.87559295  0.87559195  0.87440705  1
  S  S0  1  0.26012549  0.26012249  0.25493226  1
  S  S1  1  0.26012549  0.26012249  0.72481775  1
  S  S2  1  0.26289815  0.72268390  0.25720947  1
  S  S3  1  0.72268190  0.26289715  0.25721047  1
  S  S4  1  0.27731810  0.73710285  0.74278953  1
  S  S5  1  0.73710185  0.27731610  0.74279053  1
  S  S6  1  0.73987451  0.73987751  0.27518225  1
  S  S7  1  0.73987451  0.73987751  0.74506774  1
loop_
_geom_bond_atom_site_label_1
_geom_bond_atom_site_label_2
_geom_bond_distance
_geom_bond_site_symmetry_2
Co0 S0 2.242268 1_555
Co0 S7 2.242268 1_554
Co0 S4 2.243465 1_554
Co0 S3 2.243465 1_555
Co0 S2 2.243469 1_555
Co0 S5 2.243469 1_554
Co1 S1 2.242269 1_555
Co1 S6 2.242269 1_555
Co1 S5 2.243464 1_555
Co1 S2 2.243464 1_555
Co1 S3 2.243465 1_555
Co1 S4 2.243465 1_555
Ni0 S0 2.155526 1_555
Ni0 S1 2.155541 1_554
Ni0 S2 2.172338 1_545
Ni0 S3 2.172347 1_455
Ni1 S6 2.268464 1_455
Ni1 S1 2.268464 1_555
Ni1 S0 2.268473 1_555
Ni1 S7 2.268473 1_455
Ni1 S2 2.271220 1_555
Ni1 S5 2.271220 1_455
Ni2 S1 2.268449 1_555
Ni2 S6 2.268449 1_545
Ni2 S7 2.268458 1_545
Ni2 S0 2.268458 1_555
Ni2 S4 2.271205 1_545
Ni2 S3 2.271205 1_555
Ni3 S7 2.155526 1_555
Ni3 S6 2.155541 1_556
Ni3 S5 2.172338 1_565
Ni3 S4 2.172347 1_655
