# generated using pymatgen
data_CoP2O7
_symmetry_space_group_name_H-M   'P 1'
_cell_length_a   8.70486500
_cell_length_b   6.96333600
_cell_length_c   9.36471160
_cell_angle_alpha   71.97803615
_cell_angle_beta   90.00000000
_cell_angle_gamma   90.00000000
_symmetry_Int_Tables_number   1
_chemical_formula_structural   CoP2O7
_chemical_formula_sum   'Co4 P8 O28'
_cell_volume   539.79144286
_cell_formula_units_Z   4
loop_
 _symmetry_equiv_pos_site_id
 _symmetry_equiv_pos_as_xyz
  1  'x, y, z'
loop_
 _atom_site_type_symbol
 _atom_site_label
 _atom_site_symmetry_multiplicity
 _atom_site_fract_x
 _atom_site_fract_y
 _atom_site_fract_z
 _atom_site_occupancy
  Co  Co0  1  0.07374900  0.67718200  0.20498900  1
  Co  Co1  1  0.42625100  0.67718200  0.70498900  1
  Co  Co2  1  0.57374900  0.32281800  0.29501100  1
  Co  Co3  1  0.92625100  0.32281800  0.79501100  1
  P  P0  1  0.71127700  0.52249100  0.53120400  1
  P  P1  1  0.25029200  0.09011100  0.24417900  1
  P  P2  1  0.75029200  0.90988900  0.25582100  1
  P  P3  1  0.24970800  0.09011100  0.74417900  1
  P  P4  1  0.78872300  0.52249100  0.03120400  1
  P  P5  1  0.74970800  0.90988900  0.75582100  1
  P  P6  1  0.21127700  0.47750900  0.96879600  1
  P  P7  1  0.28872300  0.47750900  0.46879600  1
  O  O0  1  0.12984100  0.49611900  0.38602800  1
  O  O1  1  0.20979900  0.25664100  0.08670800  1
  O  O2  1  0.27017200  0.88620200  0.71626500  1
  O  O3  1  0.08777800  0.12941100  0.79045500  1
  O  O4  1  0.87015900  0.50388100  0.61397200  1
  O  O5  1  0.79020100  0.74335900  0.91329200  1
  O  O6  1  0.20590000  0.63721500  0.05013600  1
  O  O7  1  0.91920900  0.51535200  0.14015600  1
  O  O8  1  0.58777800  0.87058900  0.70954500  1
  O  O9  1  0.70590000  0.36278500  0.44986400  1
  O  O10  1  0.37015900  0.49611900  0.88602800  1
  O  O11  1  0.87296600  0.90294200  0.64043100  1
  O  O12  1  0.62984100  0.50388100  0.11397200  1
  O  O13  1  0.72982800  0.11379800  0.28373500  1
  O  O14  1  0.41920900  0.48464800  0.35984400  1
  O  O15  1  0.79410000  0.36278500  0.94986400  1
  O  O16  1  0.91222200  0.87058900  0.20954500  1
  O  O17  1  0.22982800  0.88620200  0.21626500  1
  O  O18  1  0.12703400  0.09705800  0.35956900  1
  O  O19  1  0.58079100  0.51535200  0.64015600  1
  O  O20  1  0.29020100  0.25664100  0.58670800  1
  O  O21  1  0.29410000  0.63721500  0.55013600  1
  O  O22  1  0.08079100  0.48464800  0.85984400  1
  O  O23  1  0.41222200  0.12941100  0.29045500  1
  O  O24  1  0.70979900  0.74335900  0.41329200  1
  O  O25  1  0.62703400  0.90294200  0.14043100  1
  O  O26  1  0.77017200  0.11379800  0.78373500  1
  O  O27  1  0.37296600  0.09705800  0.85956900  1
loop_
_geom_bond_atom_site_label_1
_geom_bond_atom_site_label_2
_geom_bond_distance
_geom_bond_site_symmetry_2
Co0 O0 1.838399 1_555
Co0 O6 1.937380 1_555
Co0 O16 1.956570 1_455
Co0 O7 1.967616 1_455
Co0 O17 2.017569 1_555
Co1 O10 1.838399 1_555
Co1 O21 1.937380 1_555
Co1 O8 1.956570 1_555
Co1 O19 1.967616 1_555
Co1 O2 2.017569 1_555
Co2 O12 1.838399 1_555
Co2 O9 1.937380 1_555
Co2 O23 1.956570 1_555
Co2 O14 1.967616 1_555
Co2 O13 2.017569 1_555
Co3 O4 1.838399 1_555
Co3 O15 1.937380 1_555
Co3 O3 1.956570 1_655
Co3 O22 1.967616 1_655
Co3 O26 2.017569 1_555
O0 P7 1.571062 1_555
O1 P6 1.591857 1_554
O1 P1 1.607941 1_555
O2 P3 1.531604 1_565
O3 P3 1.524134 1_555
O4 P0 1.571062 1_555
O5 P4 1.591857 1_556
O5 P5 1.607941 1_555
O6 P6 1.530788 1_554
O7 P4 1.517331 1_555
O8 P5 1.524134 1_555
O9 P0 1.530788 1_555
O10 P6 1.571062 1_555
O11 P5 1.534137 1_555
O12 P4 1.571062 1_555
O13 P2 1.531604 1_545
O14 P7 1.517331 1_555
O15 P4 1.530788 1_556
O16 P2 1.524134 1_555
O17 P1 1.531604 1_565
O18 P1 1.534137 1_555
O19 P0 1.517331 1_555
O20 P7 1.591857 1_555
O20 P3 1.607941 1_555
O21 P7 1.530788 1_555
O22 P6 1.517331 1_555
O23 P1 1.524134 1_555
O24 P0 1.591857 1_555
O24 P2 1.607941 1_555
O25 P2 1.534137 1_555
O26 P5 1.531604 1_545
O27 P3 1.534137 1_555
