# generated using pymatgen
data_Ba2Er(CuO2)4
_symmetry_space_group_name_H-M   'P 1'
_cell_length_a   13.86912846
_cell_length_b   13.86912846
_cell_length_c   3.87346400
_cell_angle_alpha   90.00000000
_cell_angle_beta   90.00000000
_cell_angle_gamma   163.87156278
_symmetry_Int_Tables_number   1
_chemical_formula_structural   Ba2Er(CuO2)4
_chemical_formula_sum   'Ba2 Er1 Cu4 O8'
_cell_volume   206.97447077
_cell_formula_units_Z   1
loop_
 _symmetry_equiv_pos_site_id
 _symmetry_equiv_pos_as_xyz
  1  'x, y, z'
loop_
 _atom_site_type_symbol
 _atom_site_label
 _atom_site_symmetry_multiplicity
 _atom_site_fract_x
 _atom_site_fract_y
 _atom_site_fract_z
 _atom_site_occupancy
  Ba  Ba0  1  0.63540500  0.36459500  0.50000000  1
  Ba  Ba1  1  0.36459500  0.63540500  0.50000000  1
  Er  Er0  1  0.50000000  0.50000000  0.50000000  1
  Cu  Cu0  1  0.06057500  0.93942500  0.00000000  1
  Cu  Cu1  1  0.93942500  0.06057500  0.00000000  1
  Cu  Cu2  1  0.21256200  0.78743800  0.00000000  1
  Cu  Cu3  1  0.78743800  0.21256200  0.00000000  1
  O  O0  1  0.71846200  0.28153800  0.00000000  1
  O  O1  1  0.28153800  0.71846200  0.00000000  1
  O  O2  1  0.55111200  0.44888800  0.00000000  1
  O  O3  1  0.44888800  0.55111200  0.00000000  1
  O  O4  1  0.05120700  0.94879300  0.50000000  1
  O  O5  1  0.94879300  0.05120700  0.50000000  1
  O  O6  1  0.14517900  0.85482100  0.00000000  1
  O  O7  1  0.85482100  0.14517900  0.00000000  1
loop_
_geom_bond_atom_site_label_1
_geom_bond_atom_site_label_2
_geom_bond_distance
_geom_bond_site_symmetry_2
Ba0 O6 2.758325 1_656
Ba0 O6 2.758325 1_655
Ba0 O6 2.758325 1_546
Ba0 O6 2.758325 1_545
Ba0 O0 2.992362 1_555
Ba0 O0 2.992362 1_556
Ba0 O2 3.018319 1_555
Ba0 O2 3.018319 1_556
Ba0 O4 3.022021 1_545
Ba0 O4 3.022021 1_655
Ba1 O7 2.758325 1_455
Ba1 O7 2.758325 1_456
Ba1 O7 2.758325 1_566
Ba1 O7 2.758325 1_565
Ba1 O1 2.992362 1_555
Ba1 O1 2.992362 1_556
Ba1 O3 3.018319 1_555
Ba1 O3 3.018319 1_556
Ba1 O5 3.022021 1_565
Ba1 O5 3.022021 1_455
Er0 O2 2.391947 1_555
Er0 O2 2.391947 1_556
Er0 O3 2.391947 1_556
Er0 O3 2.391947 1_555
Er0 O5 2.400662 1_455
Er0 O4 2.400662 1_655
Er0 O4 2.400662 1_545
Er0 O5 2.400662 1_565
Cu0 O4 1.953746 1_555
Cu0 O4 1.953746 1_554
Cu0 O2 1.962883 1_565
Cu0 O2 1.962883 1_455
Cu0 O6 2.323561 1_555
Cu1 O5 1.953746 1_555
Cu1 O5 1.953746 1_554
Cu1 O3 1.962883 1_545
Cu1 O3 1.962883 1_655
Cu1 O7 2.323561 1_555
Cu2 O6 1.850604 1_555
Cu2 O1 1.894355 1_555
Cu2 O0 1.952338 1_455
Cu2 O0 1.952338 1_565
Cu3 O7 1.850604 1_555
Cu3 O0 1.894355 1_555
Cu3 O1 1.952338 1_655
Cu3 O1 1.952338 1_545
