# generated using pymatgen
data_YbBiO3
_symmetry_space_group_name_H-M   'P 1'
_cell_length_a   8.51553500
_cell_length_b   8.57633757
_cell_length_c   9.89737385
_cell_angle_alpha   94.52343039
_cell_angle_beta   113.33686069
_cell_angle_gamma   102.84506464
_symmetry_Int_Tables_number   1
_chemical_formula_structural   YbBiO3
_chemical_formula_sum   'Yb8 Bi8 O24'
_cell_volume   635.73392319
_cell_formula_units_Z   8
loop_
 _symmetry_equiv_pos_site_id
 _symmetry_equiv_pos_as_xyz
  1  'x, y, z'
loop_
 _atom_site_type_symbol
 _atom_site_label
 _atom_site_symmetry_multiplicity
 _atom_site_fract_x
 _atom_site_fract_y
 _atom_site_fract_z
 _atom_site_occupancy
  Yb  Yb0  1  0.13343800  0.93311900  0.69708800  1
  Yb  Yb1  1  0.39159600  0.84174800  0.13847500  1
  Yb  Yb2  1  0.59636900  0.65461700  0.43598900  1
  Yb  Yb3  1  0.11070000  0.42139100  0.20411200  1
  Yb  Yb4  1  0.85476800  0.55419400  0.79333200  1
  Yb  Yb5  1  0.34525400  0.28818900  0.56348400  1
  Yb  Yb6  1  0.64755800  0.22922700  0.93977100  1
  Yb  Yb7  1  0.85127100  0.06708400  0.28172400  1
  Bi  Bi0  1  0.19647200  0.85508800  0.37260900  1
  Bi  Bi1  1  0.98135700  0.01011000  0.97695300  1
  Bi  Bi2  1  0.49689800  0.74774600  0.77930200  1
  Bi  Bi3  1  0.75451400  0.63654100  0.12336800  1
  Bi  Bi4  1  0.23520000  0.34306300  0.87286100  1
  Bi  Bi5  1  0.00330100  0.48154500  0.51825800  1
  Bi  Bi6  1  0.48762400  0.24162800  0.23895800  1
  Bi  Bi7  1  0.74131200  0.13798600  0.61751500  1
  O  O0  1  0.09743600  0.83337200  0.92247000  1
  O  O1  1  0.31620500  0.83556700  0.60778700  1
  O  O2  1  0.97745100  0.87902700  0.16355400  1
  O  O3  1  0.65951500  0.79207700  0.25916100  1
  O  O4  1  0.31182900  0.69382600  0.29598700  1
  O  O5  1  0.91154800  0.66424400  0.58781800  1
  O  O6  1  0.61929600  0.64233800  0.67122200  1
  O  O7  1  0.27489500  0.50599600  0.68454500  1
  O  O8  1  0.98640800  0.61939000  0.32538700  1
  O  O9  1  0.42473200  0.39815300  0.36956100  1
  O  O10  1  0.07342700  0.32414400  0.39696800  1
  O  O11  1  0.86865200  0.48071600  0.01531300  1
  O  O12  1  0.55813600  0.40795500  0.10714400  1
  O  O13  1  0.21778900  0.21607100  0.07781800  1
  O  O14  1  0.96701600  0.37248300  0.69803100  1
  O  O15  1  0.63706500  0.29170200  0.70798200  1
  O  O16  1  0.34190700  0.19134000  0.78108600  1
  O  O17  1  0.00627700  0.10480300  0.78478300  1
  O  O18  1  0.75383500  0.27538000  0.40772700  1
  O  O19  1  0.40227400  0.03078800  0.33786700  1
  O  O20  1  0.10768300  0.02205100  0.46969800  1
  O  O21  1  0.90338100  0.16883700  0.09457300  1
  O  O22  1  0.54890900  0.07325600  0.11336100  1
  O  O23  1  0.70670200  0.98310800  0.81625600  1
loop_
_geom_bond_atom_site_label_1
_geom_bond_atom_site_label_2
_geom_bond_distance
_geom_bond_site_symmetry_2
Bi0 O20 2.094144 1_565
Bi0 O4 2.117004 1_555
Bi0 O1 2.177758 1_555
Bi0 O19 2.201171 1_565
Bi0 O2 2.231971 1_455
Bi0 O8 2.255056 1_455
Bi1 O21 2.100855 1_556
Bi1 O0 2.127197 1_645
Bi1 O13 2.172207 1_656
Bi1 O23 2.192562 1_545
Bi1 O17 2.192915 1_655
Bi1 O2 2.243967 1_546
Bi2 O6 2.048811 1_555
Bi2 O1 2.112837 1_555
Bi2 O23 2.272129 1_555
Bi2 O7 2.301737 1_555
Bi3 O12 2.223844 1_555
Bi3 O8 2.228519 1_555
Bi3 O11 2.247231 1_555
Bi3 O3 2.301854 1_555
Bi3 O2 2.367069 1_555
Bi4 O16 2.082582 1_555
Bi4 O17 2.310215 1_555
Bi4 O14 2.338268 1_455
Bi4 O13 2.416218 1_556
Bi4 O7 2.498143 1_555
Bi4 O12 2.704220 1_556
Bi5 O10 2.071412 1_555
Bi5 O5 2.083254 1_455
Bi5 O14 2.169279 1_455
Bi5 O7 2.194490 1_555
Bi5 O18 2.240423 1_455
Bi5 O8 2.297016 1_455
Bi6 O9 2.086673 1_555
Bi6 O22 2.113928 1_555
Bi6 O12 2.151910 1_555
Bi6 O18 2.155187 1_555
Bi6 O13 2.165406 1_555
Bi6 O19 2.239384 1_555
Bi7 O15 2.071625 1_555
Bi7 O14 2.277893 1_555
Bi7 O17 2.305013 1_655
Bi7 O18 2.493302 1_555
Bi7 O23 2.533319 1_545
O0 Yb1 2.550162 1_556
O0 Yb0 2.554993 1_555
O0 Yb4 2.619436 1_455
O1 Yb0 2.335713 1_555
O2 Yb7 2.567553 1_565
O3 Yb1 2.273035 1_555
O3 Yb2 2.351829 1_555
O3 Yb7 2.488902 1_565
O4 Yb1 2.295413 1_555
O4 Yb2 2.383243 1_555
O4 Yb3 2.423047 1_555
O5 Yb0 2.471366 1_655
O5 Yb4 2.478113 1_555
O5 Yb2 2.480910 1_555
O6 Yb4 2.225065 1_555
O6 Yb2 2.270982 1_555
O7 Yb5 2.448948 1_555
O8 Yb3 2.632239 1_655
O9 Yb2 2.233285 1_555
O9 Yb5 2.462147 1_555
O9 Yb3 2.586767 1_555
O10 Yb3 2.247916 1_555
O10 Yb5 2.354658 1_555
O10 Yb7 2.404084 1_455
O11 Yb4 2.298640 1_554
O11 Yb3 2.358769 1_655
O11 Yb6 2.362319 1_554
O12 Yb6 2.606039 1_554
O13 Yb3 2.600902 1_555
O14 Yb4 2.318785 1_555
O15 Yb5 2.316338 1_555
O15 Yb6 2.368701 1_555
O15 Yb4 2.412891 1_555
O16 Yb0 2.353570 1_545
O16 Yb5 2.376840 1_555
O16 Yb6 2.377291 1_555
O17 Yb0 2.312113 1_545
O18 Yb7 2.561720 1_555
O19 Yb1 2.412247 1_545
O20 Yb7 2.376535 1_455
O20 Yb0 2.376750 1_545
O20 Yb5 2.507789 1_555
O21 Yb7 2.263511 1_555
O21 Yb6 2.311682 1_554
O21 Yb3 2.323060 1_655
O22 Yb1 2.226552 1_545
O22 Yb7 2.466632 1_555
O22 Yb6 2.540310 1_554
O23 Yb6 2.599430 1_565
