# generated using pymatgen
data_Fe4Si(CO)16
_symmetry_space_group_name_H-M   'P 1'
_cell_length_a   11.99134500
_cell_length_b   9.67462900
_cell_length_c   20.92195931
_cell_angle_alpha   81.68903643
_cell_angle_beta   90.00000000
_cell_angle_gamma   90.00000000
_symmetry_Int_Tables_number   1
_chemical_formula_structural   Fe4Si(CO)16
_chemical_formula_sum   'Fe16 Si4 C64 O64'
_cell_volume   2401.70441804
_cell_formula_units_Z   4
loop_
 _symmetry_equiv_pos_site_id
 _symmetry_equiv_pos_as_xyz
  1  'x, y, z'
loop_
 _atom_site_type_symbol
 _atom_site_label
 _atom_site_symmetry_multiplicity
 _atom_site_fract_x
 _atom_site_fract_y
 _atom_site_fract_z
 _atom_site_occupancy
  Fe  Fe0  1  0.76755100  0.26553500  0.50355000  1
  Fe  Fe1  1  0.64291700  0.18886600  0.31814200  1
  Fe  Fe2  1  0.12336100  0.77803800  0.69106100  1
  Fe  Fe3  1  0.14291700  0.81113400  0.18185800  1
  Fe  Fe4  1  0.85708300  0.18886600  0.81814200  1
  Fe  Fe5  1  0.62336100  0.22196200  0.80893900  1
  Fe  Fe6  1  0.73244900  0.26553500  0.00355000  1
  Fe  Fe7  1  0.26755100  0.73446500  0.99645000  1
  Fe  Fe8  1  0.37663900  0.77803800  0.19106100  1
  Fe  Fe9  1  0.87663900  0.22196200  0.30893900  1
  Fe  Fe10  1  0.73863200  0.52079500  0.42165900  1
  Fe  Fe11  1  0.23863200  0.47920500  0.07834100  1
  Fe  Fe12  1  0.76136800  0.52079500  0.92165900  1
  Fe  Fe13  1  0.35708300  0.81113400  0.68185800  1
  Fe  Fe14  1  0.26136800  0.47920500  0.57834100  1
  Fe  Fe15  1  0.23244900  0.73446500  0.49645000  1
  Si  Si0  1  0.75711900  0.29745800  0.38872900  1
  Si  Si1  1  0.25711900  0.70254200  0.11127100  1
  Si  Si2  1  0.24288100  0.70254200  0.61127100  1
  Si  Si3  1  0.74288100  0.29745800  0.88872900  1
  C  C0  1  0.51580700  0.74438700  0.16759900  1
  C  C1  1  0.21884400  0.35025500  0.14611200  1
  C  C2  1  0.98419300  0.74438700  0.66759900  1
  C  C3  1  0.62702900  0.36329200  0.27574600  1
  C  C4  1  0.61456500  0.53594500  0.90524500  1
  C  C5  1  0.13925800  0.89850200  0.25222500  1
  C  C6  1  0.63874000  0.39938900  0.76961800  1
  C  C7  1  0.11272000  0.94301000  0.63892000  1
  C  C8  1  0.49906200  0.80536900  0.65843400  1
  C  C9  1  0.34311300  0.96264100  0.62143500  1
  C  C10  1  0.13874000  0.60061100  0.73038200  1
  C  C11  1  0.38543500  0.46405500  0.09475500  1
  C  C12  1  0.76214000  0.33796500  0.57825800  1
  C  C13  1  0.10621700  0.84601600  0.76612400  1
  C  C14  1  0.70559800  0.08613400  0.02992300  1
  C  C15  1  0.12702900  0.63670800  0.22425400  1
  C  C16  1  0.73571000  0.61720700  0.49004900  1
  C  C17  1  0.38728000  0.94301000  0.13892000  1
  C  C18  1  0.28115600  0.35025500  0.64611200  1
  C  C19  1  0.88012800  0.23028000  0.00119400  1
  C  C20  1  0.26214000  0.66203500  0.92174200  1
  C  C21  1  0.71884400  0.64974500  0.35388800  1
  C  C22  1  0.58446900  0.28752100  0.99147600  1
  C  C23  1  0.00093800  0.80536900  0.15843400  1
  C  C24  1  0.61987200  0.23028000  0.50119400  1
  C  C25  1  0.63925800  0.10149800  0.24777500  1
  C  C26  1  0.09115900  0.51031100  0.07989800  1
  C  C27  1  0.78115600  0.64974500  0.85388800  1
  C  C28  1  0.50093800  0.19463100  0.34156600  1
  C  C29  1  0.86074200  0.10149800  0.74777500  1
  C  C30  1  0.36126000  0.60061100  0.23038200  1
  C  C31  1  0.36074200  0.89850200  0.75222500  1
  C  C32  1  0.59115900  0.48968900  0.42010200  1
  C  C33  1  0.39378300  0.84601600  0.26612400  1
  C  C34  1  0.40884100  0.51031100  0.57989800  1
  C  C35  1  0.87297100  0.36329200  0.77574600  1
  C  C36  1  0.26429000  0.38279300  0.50995100  1
  C  C37  1  0.76429000  0.61720700  0.99004900  1
  C  C38  1  0.37297100  0.63670800  0.72425400  1
  C  C39  1  0.65688700  0.03735900  0.37856500  1
  C  C40  1  0.89378300  0.15398400  0.23387600  1
  C  C41  1  0.20559800  0.91386600  0.47007700  1
  C  C42  1  0.73786000  0.33796500  0.07825800  1
  C  C43  1  0.61272000  0.05699000  0.86108000  1
  C  C44  1  0.88728000  0.05699000  0.36108000  1
  C  C45  1  0.90884100  0.48968900  0.92010200  1
  C  C46  1  0.79440200  0.08613400  0.52992300  1
  C  C47  1  0.29440200  0.91386600  0.97007700  1
  C  C48  1  0.88543500  0.53594500  0.40524500  1
  C  C49  1  0.99906200  0.19463100  0.84156600  1
  C  C50  1  0.84311300  0.03735900  0.87856500  1
  C  C51  1  0.48419300  0.25561300  0.83240100  1
  C  C52  1  0.11987200  0.76972000  0.99880600  1
  C  C53  1  0.01580700  0.25561300  0.33240100  1
  C  C54  1  0.60621700  0.15398400  0.73387600  1
  C  C55  1  0.86126000  0.39938900  0.26961800  1
  C  C56  1  0.41553100  0.71247900  0.00852400  1
  C  C57  1  0.08446900  0.71247900  0.50852400  1
  C  C58  1  0.23571000  0.38279300  0.00995100  1
  C  C59  1  0.91553100  0.28752100  0.49147600  1
  C  C60  1  0.38012800  0.76972000  0.49880600  1
  C  C61  1  0.15688700  0.96264100  0.12143500  1
  C  C62  1  0.23786000  0.66203500  0.42174200  1
  C  C63  1  0.11456500  0.46405500  0.59475500  1
  O  O0  1  0.23952400  0.61937900  0.37278200  1
  O  O1  1  0.02610500  0.79976600  0.99749200  1
  O  O2  1  0.59746300  0.95168000  0.89426800  1
  O  O3  1  0.49492800  0.48113000  0.41541800  1
  O  O4  1  0.39334000  0.27257300  0.84813500  1
  O  O5  1  0.86462400  0.04869600  0.70140800  1
  O  O6  1  0.15684300  0.06010400  0.08194200  1
  O  O7  1  0.34315700  0.06010400  0.58194200  1
  O  O8  1  0.10666000  0.27257300  0.34813500  1
  O  O9  1  0.10958200  0.52476400  0.25048500  1
  O  O10  1  0.51189500  0.70820900  0.01355700  1
  O  O11  1  0.09746300  0.04832000  0.60573200  1
  O  O12  1  0.26665800  0.32098200  0.46671600  1
  O  O13  1  0.52610500  0.20023400  0.50250800  1
  O  O14  1  0.85868200  0.51325000  0.24313700  1
  O  O15  1  0.39041800  0.52476400  0.75048500  1
  O  O16  1  0.09015200  0.88640000  0.81496600  1
  O  O17  1  0.35868200  0.48675000  0.25686300  1
  O  O18  1  0.48810500  0.29179100  0.98644300  1
  O  O19  1  0.79510600  0.73799300  0.81076300  1
  O  O20  1  0.26047600  0.61937900  0.87278200  1
  O  O21  1  0.73952400  0.38062100  0.12721800  1
  O  O22  1  0.01189500  0.29179100  0.48644300  1
  O  O23  1  0.76047600  0.38062100  0.62721800  1
  O  O24  1  0.81216100  0.96979000  0.54897200  1
  O  O25  1  0.29510600  0.26200700  0.68923700  1
  O  O26  1  0.52203200  0.55609200  0.89026400  1
  O  O27  1  0.18783900  0.03021000  0.45102800  1
  O  O28  1  0.02203200  0.44390800  0.60973600  1
  O  O29  1  0.23334200  0.32098200  0.96671600  1
  O  O30  1  0.99492800  0.51887000  0.08458200  1
  O  O31  1  0.90759300  0.80328100  0.14441700  1
  O  O32  1  0.13537600  0.95130400  0.29859200  1
  O  O33  1  0.00507200  0.48113000  0.91541800  1
  O  O34  1  0.09240700  0.19671900  0.85558300  1
  O  O35  1  0.84315700  0.93989600  0.91805800  1
  O  O36  1  0.89041800  0.47523600  0.74951500  1
  O  O37  1  0.47796800  0.44390800  0.10973600  1
  O  O38  1  0.40759300  0.19671900  0.35558300  1
  O  O39  1  0.59015200  0.11360000  0.68503400  1
  O  O40  1  0.63537600  0.04869600  0.20140800  1
  O  O41  1  0.90253700  0.95168000  0.39426800  1
  O  O42  1  0.73334200  0.67901800  0.53328400  1
  O  O43  1  0.90984800  0.11360000  0.18503400  1
  O  O44  1  0.98810500  0.70820900  0.51355700  1
  O  O45  1  0.89334000  0.72742700  0.65186500  1
  O  O46  1  0.14131800  0.48675000  0.75686300  1
  O  O47  1  0.60666000  0.72742700  0.15186500  1
  O  O48  1  0.65684300  0.93989600  0.41805800  1
  O  O49  1  0.76665800  0.67901800  0.03328400  1
  O  O50  1  0.31216100  0.03021000  0.95102800  1
  O  O51  1  0.97389500  0.20023400  0.00250800  1
  O  O52  1  0.64131800  0.51325000  0.74313700  1
  O  O53  1  0.60958200  0.47523600  0.24951500  1
  O  O54  1  0.68783900  0.96979000  0.04897200  1
  O  O55  1  0.36462400  0.95130400  0.79859200  1
  O  O56  1  0.97796800  0.55609200  0.39026400  1
  O  O57  1  0.40984800  0.88640000  0.31496600  1
  O  O58  1  0.59240700  0.80328100  0.64441700  1
  O  O59  1  0.40253700  0.04832000  0.10573200  1
  O  O60  1  0.70489400  0.73799300  0.31076300  1
  O  O61  1  0.50507200  0.51887000  0.58458200  1
  O  O62  1  0.47389500  0.79976600  0.49749200  1
  O  O63  1  0.20489400  0.26200700  0.18923700  1
loop_
_geom_bond_atom_site_label_1
_geom_bond_atom_site_label_2
_geom_bond_distance
_geom_bond_site_symmetry_2
Fe0 Si0 2.380651 1_555
Fe1 Si0 2.368251 1_555
Fe2 Si2 2.393077 1_555
Fe3 Si1 2.368251 1_555
Fe4 Si3 2.368251 1_555
Fe5 Si3 2.393077 1_555
Fe6 Si3 2.380651 1_554
Fe7 Si1 2.380651 1_556
Fe8 Si1 2.393077 1_555
Fe9 Si0 2.393077 1_555
Fe10 Si0 2.371244 1_555
Fe11 Si1 2.371244 1_555
Fe12 Si3 2.371244 1_555
Fe13 Si2 2.368251 1_555
Fe14 Si2 2.371244 1_555
Fe15 Si2 2.380651 1_555
C0 O47 1.156634 1_555
C0 Fe8 1.782716 1_555
C1 O63 1.161154 1_555
C1 Fe11 1.764013 1_555
C2 O45 1.156634 1_555
C2 Fe2 1.782716 1_655
C3 O53 1.160196 1_555
C3 Fe1 1.799455 1_555
C4 O26 1.161797 1_555
C4 Fe12 1.795481 1_555
C5 O32 1.160800 1_555
C5 Fe3 1.800983 1_555
C6 O52 1.159706 1_555
C6 Fe5 1.802518 1_555
C7 O11 1.161515 1_565
C7 Fe2 1.802870 1_555
C8 O58 1.158028 1_555
C8 Fe13 1.774756 1_555
C9 O7 1.160425 1_565
C9 Fe13 1.799721 1_555
C10 O46 1.159706 1_555
C10 Fe2 1.802518 1_555
C11 O37 1.161797 1_555
C11 Fe11 1.795481 1_555
C12 O23 1.158525 1_555
C12 Fe0 1.804150 1_555
C13 O16 1.161634 1_555
C13 Fe2 1.799924 1_555
C14 O54 1.158207 1_545
C14 Fe6 1.773051 1_555
C15 O9 1.160196 1_555
C15 Fe3 1.799455 1_555
C16 O42 1.154563 1_555
C16 Fe10 1.817806 1_555
C17 O59 1.161515 1_565
C17 Fe8 1.802870 1_555
C18 O25 1.161154 1_555
C18 Fe14 1.764013 1_555
C19 O51 1.160690 1_555
C19 Fe6 1.805438 1_555
C20 O20 1.158525 1_555
C20 Fe7 1.804150 1_555
C21 O60 1.161154 1_555
C21 Fe10 1.764013 1_555
C22 O18 1.160515 1_555
C22 Fe6 1.800639 1_556
C23 O31 1.158028 1_455
C23 Fe3 1.774756 1_555
C24 O13 1.160690 1_555
C24 Fe0 1.805438 1_555
C25 O40 1.160800 1_555
C25 Fe1 1.800983 1_555
C26 O30 1.162059 1_455
C26 Fe11 1.794909 1_555
C27 O19 1.161154 1_555
C27 Fe12 1.764013 1_555
C28 O38 1.158028 1_555
C28 Fe1 1.774756 1_555
C29 O5 1.160800 1_555
C29 Fe4 1.800983 1_555
C30 O17 1.159706 1_555
C30 Fe8 1.802518 1_555
C31 O55 1.160800 1_555
C31 Fe13 1.800983 1_555
C32 O3 1.162059 1_555
C32 Fe10 1.794909 1_555
C33 O57 1.161634 1_555
C33 Fe8 1.799924 1_555
C34 O61 1.162059 1_555
C34 Fe14 1.794909 1_555
C35 O36 1.160196 1_555
C35 Fe4 1.799455 1_555
C36 O12 1.154563 1_555
C36 Fe14 1.817806 1_555
C37 O49 1.154563 1_556
C37 Fe12 1.817806 1_555
C38 O15 1.160196 1_555
C38 Fe13 1.799455 1_555
C39 O48 1.160425 1_545
C39 Fe1 1.799721 1_555
C40 O43 1.161634 1_555
C40 Fe9 1.799924 1_555
C41 O27 1.158207 1_565
C41 Fe15 1.773051 1_555
C42 O21 1.158525 1_555
C42 Fe6 1.804150 1_555
C43 O2 1.161515 1_545
C43 Fe5 1.802870 1_555
C44 O41 1.161515 1_545
C44 Fe9 1.802870 1_555
C45 O33 1.162059 1_655
C45 Fe12 1.794909 1_555
C46 O24 1.158207 1_545
C46 Fe0 1.773051 1_555
C47 O50 1.158207 1_565
C47 Fe7 1.773051 1_555
C48 O56 1.161797 1_555
C48 Fe10 1.795481 1_555
C49 O34 1.158028 1_655
C49 Fe4 1.774756 1_555
C50 O35 1.160425 1_545
C50 Fe4 1.799721 1_555
C51 O4 1.156634 1_555
C51 Fe5 1.782716 1_555
C52 O1 1.160690 1_555
C52 Fe7 1.805438 1_555
C53 O8 1.156634 1_555
C53 Fe9 1.782716 1_455
C54 O39 1.161634 1_555
C54 Fe5 1.799924 1_555
C55 O14 1.159706 1_555
C55 Fe9 1.802518 1_555
C56 O10 1.160515 1_555
C56 Fe7 1.800639 1_554
C57 O44 1.160515 1_455
C57 Fe15 1.800639 1_555
C58 O29 1.154563 1_554
C58 Fe11 1.817806 1_555
C59 O22 1.160515 1_655
C59 Fe0 1.800639 1_555
C60 O62 1.160690 1_555
C60 Fe15 1.805438 1_555
C61 O6 1.160425 1_565
C61 Fe3 1.799721 1_555
C62 O0 1.158525 1_555
C62 Fe15 1.804150 1_555
C63 O28 1.161797 1_555
C63 Fe14 1.795481 1_555
