# generated using pymatgen
data_LiHO2
_symmetry_space_group_name_H-M   'P 1'
_cell_length_a   5.13362198
_cell_length_b   5.13362198
_cell_length_c   3.43941003
_cell_angle_alpha   70.83194651
_cell_angle_beta   70.83194651
_cell_angle_gamma   95.66020645
_symmetry_Int_Tables_number   1
_chemical_formula_structural   LiHO2
_chemical_formula_sum   'Li2 H2 O4'
_cell_volume   78.67600660
_cell_formula_units_Z   2
loop_
 _symmetry_equiv_pos_site_id
 _symmetry_equiv_pos_as_xyz
  1  'x, y, z'
loop_
 _atom_site_type_symbol
 _atom_site_label
 _atom_site_symmetry_multiplicity
 _atom_site_fract_x
 _atom_site_fract_y
 _atom_site_fract_z
 _atom_site_occupancy
  Li  Li0  1  0.31444400  0.68555600  0.50000000  1
  Li  Li1  1  0.68555600  0.31444400  0.50000000  1
  H  H0  1  0.21638000  0.21638000  0.19167200  1
  H  H1  1  0.78362000  0.78362000  0.80832800  1
  O  O0  1  0.28413200  0.28413200  0.86719800  1
  O  O1  1  0.71586800  0.71586800  0.13280200  1
  O  O2  1  0.18836900  0.81163100  0.00000000  1
  O  O3  1  0.81163100  0.18836900  0.00000000  1
loop_
_geom_bond_atom_site_label_1
_geom_bond_atom_site_label_2
_geom_bond_distance
_geom_bond_site_symmetry_2
Li0 O2 1.969215 1_556
Li0 O2 1.969215 1_555
Li0 O1 1.991122 1_555
Li0 O0 1.991122 1_555
Li1 O3 1.969215 1_556
Li1 O3 1.969215 1_555
Li1 O1 1.991122 1_555
Li1 O0 1.991122 1_555
H0 O0 0.976599 1_554
H1 O1 0.976599 1_556
