# generated using pymatgen
data_Hf(MoO4)2
_symmetry_space_group_name_H-M   'P 1'
_cell_length_a   10.03423549
_cell_length_b   10.03423534
_cell_length_c   11.69135322
_cell_angle_alpha   90.00000000
_cell_angle_beta   90.00000000
_cell_angle_gamma   120.00000363
_symmetry_Int_Tables_number   1
_chemical_formula_structural   Hf(MoO4)2
_chemical_formula_sum   'Hf6 Mo12 O48'
_cell_volume   1019.44539691
_cell_formula_units_Z   6
loop_
 _symmetry_equiv_pos_site_id
 _symmetry_equiv_pos_as_xyz
  1  'x, y, z'
loop_
 _atom_site_type_symbol
 _atom_site_label
 _atom_site_symmetry_multiplicity
 _atom_site_fract_x
 _atom_site_fract_y
 _atom_site_fract_z
 _atom_site_occupancy
  Hf  Hf0  1  0.66666700  0.33333300  0.47436155  1
  Hf  Hf1  1  0.66666700  0.33333300  0.02563845  1
  Hf  Hf2  1  0.33333300  0.66666700  0.97436155  1
  Hf  Hf3  1  -0.00000000  -0.00000000  0.00000000  1
  Hf  Hf4  1  -0.00000000  -0.00000000  0.50000000  1
  Hf  Hf5  1  0.33333300  0.66666700  0.52563845  1
  Mo  Mo0  1  0.67307907  0.65792418  0.85034224  1
  Mo  Mo1  1  0.01515490  0.67307907  0.14965776  1
  Mo  Mo2  1  0.98484510  0.32691993  0.85034224  1
  Mo  Mo3  1  0.32691993  0.98484510  0.35034224  1
  Mo  Mo4  1  0.98484510  0.65792418  0.64965776  1
  Mo  Mo5  1  0.01515490  0.34207582  0.35034224  1
  Mo  Mo6  1  0.34207582  0.01515490  0.85034224  1
  Mo  Mo7  1  0.32691993  0.34207582  0.14965776  1
  Mo  Mo8  1  0.67307907  0.01515490  0.64965776  1
  Mo  Mo9  1  0.65792418  0.98484510  0.14965776  1
  Mo  Mo10  1  0.65792418  0.67307907  0.35034224  1
  Mo  Mo11  1  0.34207582  0.32691993  0.64965776  1
  O  O0  1  0.49754456  0.33354022  0.12335371  1
  O  O1  1  0.49754456  0.16400534  0.37664629  1
  O  O2  1  0.33713864  0.50145091  0.07431674  1
  O  O3  1  0.31516709  0.36039374  0.29345511  1
  O  O4  1  0.83488240  0.83203647  0.39891085  1
  O  O5  1  0.36039374  0.04522665  0.70654489  1
  O  O6  1  0.83203647  0.83488240  0.89891085  1
  O  O7  1  0.66645978  0.16400534  0.12335371  1
  O  O8  1  0.83488240  0.00284492  0.10108915  1
  O  O9  1  0.66286136  0.16431127  0.57431674  1
  O  O10  1  0.83568873  0.33713864  0.92568326  1
  O  O11  1  0.68483291  0.63960626  0.70654489  1
  O  O12  1  0.16796353  0.16511760  0.10108915  1
  O  O13  1  0.04522665  0.68483291  0.29345511  1
  O  O14  1  0.95477335  0.63960626  0.79345511  1
  O  O15  1  0.33354022  0.49754456  0.62335371  1
  O  O16  1  0.16511760  0.16796353  0.60108915  1
  O  O17  1  0.36039374  0.31516709  0.79345511  1
  O  O18  1  0.83203647  0.99715508  0.60108915  1
  O  O19  1  0.31516709  0.95477335  0.20654489  1
  O  O20  1  0.49854909  0.66286136  0.42568326  1
  O  O21  1  0.00284492  0.16796353  0.89891085  1
  O  O22  1  0.95477335  0.31516709  0.70654489  1
  O  O23  1  0.16511760  0.99715508  0.89891085  1
  O  O24  1  0.83568873  0.49854909  0.57431674  1
  O  O25  1  0.63960626  0.68483291  0.20654489  1
  O  O26  1  0.00284492  0.83488240  0.60108915  1
  O  O27  1  0.66645978  0.50245544  0.37664629  1
  O  O28  1  0.16431127  0.50145091  0.42568326  1
  O  O29  1  0.50245544  0.83599466  0.62335371  1
  O  O30  1  0.16431127  0.66286136  0.07431674  1
  O  O31  1  0.33713864  0.83568873  0.42568326  1
  O  O32  1  0.50145091  0.33713864  0.57431674  1
  O  O33  1  0.50145091  0.16431127  0.92568326  1
  O  O34  1  0.16400534  0.49754456  0.87664629  1
  O  O35  1  0.99715508  0.16511760  0.39891085  1
  O  O36  1  0.50245544  0.66645978  0.87664629  1
  O  O37  1  0.83599466  0.33354022  0.37664629  1
  O  O38  1  0.16400534  0.66645978  0.62335371  1
  O  O39  1  0.66286136  0.49854909  0.92568326  1
  O  O40  1  0.33354022  0.83599466  0.87664629  1
  O  O41  1  0.68483291  0.04522665  0.79345511  1
  O  O42  1  0.63960626  0.95477335  0.29345511  1
  O  O43  1  0.83599466  0.50245544  0.12335371  1
  O  O44  1  0.16796353  0.00284492  0.39891085  1
  O  O45  1  0.49854909  0.83568873  0.07431674  1
  O  O46  1  0.04522665  0.36039374  0.20654489  1
  O  O47  1  0.99715508  0.83203647  0.10108915  1
loop_
_geom_bond_atom_site_label_1
_geom_bond_atom_site_label_2
_geom_bond_distance
_geom_bond_site_symmetry_2
Hf0 O24 2.044205 1_555
Hf0 O9 2.044205 1_555
Hf0 O32 2.044205 1_555
Hf0 O37 2.046571 1_555
Hf0 O1 2.046580 1_555
Hf0 O27 2.046588 1_555
Hf1 O33 2.044205 1_554
Hf1 O39 2.044205 1_554
Hf1 O10 2.044205 1_554
Hf1 O7 2.046571 1_555
Hf1 O43 2.046580 1_555
Hf1 O0 2.046588 1_555
Hf2 O45 2.044205 1_556
Hf2 O2 2.044205 1_556
Hf2 O30 2.044205 1_556
Hf2 O40 2.046571 1_555
Hf2 O34 2.046580 1_555
Hf2 O36 2.046588 1_555
Hf3 O8 2.046951 1_455
Hf3 O23 2.046951 1_544
Hf3 O6 2.046955 1_444
Hf3 O12 2.046955 1_555
Hf3 O21 2.046959 1_554
Hf3 O47 2.046959 1_445
Hf4 O26 2.046951 1_545
Hf4 O35 2.046951 1_455
Hf4 O4 2.046955 1_445
Hf4 O16 2.046955 1_555
Hf4 O18 2.046959 1_445
Hf4 O44 2.046959 1_555
Hf5 O28 2.044205 1_555
Hf5 O31 2.044205 1_555
Hf5 O20 2.044205 1_555
Hf5 O38 2.046571 1_555
Hf5 O29 2.046580 1_555
Hf5 O15 2.046588 1_555
Mo0 O11 1.701693 1_555
Mo0 O36 1.783187 1_555
Mo0 O39 1.783225 1_555
Mo0 O6 1.785283 1_555
Mo1 O13 1.701693 1_555
Mo1 O43 1.783192 1_455
Mo1 O30 1.783216 1_555
Mo1 O47 1.785277 1_455
Mo2 O22 1.701693 1_555
Mo2 O34 1.783197 1_655
Mo2 O10 1.783221 1_555
Mo2 O21 1.785268 1_655
Mo3 O19 1.701693 1_555
Mo3 O1 1.783197 1_565
Mo3 O31 1.783221 1_555
Mo3 O44 1.785268 1_565
Mo4 O14 1.701693 1_555
Mo4 O38 1.783197 1_655
Mo4 O24 1.783221 1_555
Mo4 O26 1.785287 1_655
Mo5 O46 1.701693 1_555
Mo5 O37 1.783197 1_455
Mo5 O28 1.783221 1_555
Mo5 O35 1.785287 1_455
Mo6 O5 1.701693 1_555
Mo6 O40 1.783197 1_545
Mo6 O33 1.783221 1_555
Mo6 O23 1.785287 1_545
Mo7 O3 1.701691 1_555
Mo7 O0 1.783197 1_555
Mo7 O2 1.783221 1_555
Mo7 O12 1.785279 1_555
Mo8 O41 1.701693 1_555
Mo8 O29 1.783192 1_545
Mo8 O9 1.783216 1_555
Mo8 O18 1.785277 1_545
Mo9 O42 1.701693 1_555
Mo9 O7 1.783197 1_565
Mo9 O45 1.783221 1_555
Mo9 O8 1.785287 1_565
Mo10 O25 1.701693 1_555
Mo10 O27 1.783187 1_555
Mo10 O20 1.783225 1_555
Mo10 O4 1.785283 1_555
Mo11 O17 1.701691 1_555
Mo11 O15 1.783197 1_555
Mo11 O32 1.783221 1_555
Mo11 O16 1.785279 1_555
