# generated using pymatgen
data_CuAs2Pb6Cl7O6
_symmetry_space_group_name_H-M   'P 1'
_cell_length_a   8.20846732
_cell_length_b   8.20846732
_cell_length_c   8.20846716
_cell_angle_alpha   75.58999187
_cell_angle_beta   75.58999187
_cell_angle_gamma   75.58999123
_symmetry_Int_Tables_number   1
_chemical_formula_structural   CuAs2Pb6Cl7O6
_chemical_formula_sum   'Cu1 As2 Pb6 Cl7 O6'
_cell_volume   508.42006746
_cell_formula_units_Z   1
loop_
 _symmetry_equiv_pos_site_id
 _symmetry_equiv_pos_as_xyz
  1  'x, y, z'
loop_
 _atom_site_type_symbol
 _atom_site_label
 _atom_site_symmetry_multiplicity
 _atom_site_fract_x
 _atom_site_fract_y
 _atom_site_fract_z
 _atom_site_occupancy
  Cu  Cu0  1  0.62720000  0.62720000  0.62720000  1
  As  As0  1  0.23817400  0.23817400  0.23817400  1
  As  As1  1  0.76451600  0.76451600  0.76451600  1
  Pb  Pb0  1  0.83052500  0.12472400  0.36262300  1
  Pb  Pb1  1  0.62819600  0.16368600  0.87747600  1
  Pb  Pb2  1  0.12472400  0.36262300  0.83052500  1
  Pb  Pb3  1  0.87747600  0.62819600  0.16368600  1
  Pb  Pb4  1  0.36262300  0.83052500  0.12472400  1
  Pb  Pb5  1  0.16368600  0.87747600  0.62819600  1
  Cl  Cl0  1  0.00085700  0.00085700  0.00085700  1
  Cl  Cl1  1  0.45304600  0.15925600  0.63300300  1
  Cl  Cl2  1  0.63300300  0.45304600  0.15925600  1
  Cl  Cl3  1  0.82931800  0.38640400  0.55129700  1
  Cl  Cl4  1  0.15925600  0.63300300  0.45304600  1
  Cl  Cl5  1  0.38640400  0.55129700  0.82931800  1
  Cl  Cl6  1  0.55129700  0.82931800  0.38640400  1
  O  O0  1  0.13152000  0.06147500  0.35759200  1
  O  O1  1  0.35759200  0.13152000  0.06147500  1
  O  O2  1  0.06147500  0.35759200  0.13152000  1
  O  O3  1  0.94386100  0.64268000  0.86023500  1
  O  O4  1  0.64268000  0.86023500  0.94386100  1
  O  O5  1  0.86023500  0.94386100  0.64268000  1
loop_
_geom_bond_atom_site_label_1
_geom_bond_atom_site_label_2
_geom_bond_distance
_geom_bond_site_symmetry_2
As0 O1 1.824360 1_555
As0 O2 1.824360 1_555
As0 O0 1.824360 1_555
As1 O4 1.799042 1_555
As1 O3 1.799042 1_555
As1 O5 1.799042 1_555
As1 Cu0 2.389235 1_555
Cl1 Pb1 2.755667 1_555
Cl1 Pb2 3.100275 1_555
Cl2 Pb3 2.755667 1_555
Cl2 Pb0 3.100275 1_555
Cl3 Cu0 2.348157 1_555
Cl4 Pb5 2.755667 1_555
Cl4 Pb4 3.100275 1_555
Cl5 Cu0 2.348157 1_555
Cl6 Cu0 2.348157 1_555
O0 Pb0 2.386859 1_455
O0 Pb5 2.389235 1_545
O1 Pb4 2.386859 1_545
O1 Pb1 2.389235 1_554
O2 Pb2 2.386859 1_554
O2 Pb3 2.389235 1_455
O3 Pb3 2.392651 1_556
O3 Pb2 2.438929 1_655
O4 Pb1 2.392651 1_565
O4 Pb4 2.438929 1_556
O5 Pb5 2.392651 1_655
O5 Pb0 2.438929 1_565
