# generated using pymatgen
data_Eu(AsRh)2
_symmetry_space_group_name_H-M   'P 1'
_cell_length_a   6.60559138
_cell_length_b   6.60559138
_cell_length_c   6.60559138
_cell_angle_alpha   144.59236834
_cell_angle_beta   144.59236834
_cell_angle_gamma   50.94240634
_symmetry_Int_Tables_number   1
_chemical_formula_structural   Eu(AsRh)2
_chemical_formula_sum   'Eu1 As2 Rh2'
_cell_volume   96.25211035
_cell_formula_units_Z   1
loop_
 _symmetry_equiv_pos_site_id
 _symmetry_equiv_pos_as_xyz
  1  'x, y, z'
loop_
 _atom_site_type_symbol
 _atom_site_label
 _atom_site_symmetry_multiplicity
 _atom_site_fract_x
 _atom_site_fract_y
 _atom_site_fract_z
 _atom_site_occupancy
  Eu  Eu0  1  0.00000000  0.00000000  -0.00000000  1
  As  As0  1  0.63255197  0.63255197  -0.00000000  1
  As  As1  1  0.36744803  0.36744803  0.00000000  1
  Rh  Rh0  1  0.75000000  0.25000000  0.50000000  1
  Rh  Rh1  1  0.25000000  0.75000000  0.50000000  1
loop_
_geom_bond_atom_site_label_1
_geom_bond_atom_site_label_2
_geom_bond_distance
_geom_bond_site_symmetry_2
As0 Rh0 2.448938 1_554
As0 Rh1 2.448938 1_554
As0 Rh1 2.448938 1_655
As0 Rh0 2.448938 1_565
As0 Eu0 3.251073 1_565
As0 Eu0 3.251073 1_655
As0 Eu0 3.251073 1_666
As0 Eu0 3.251073 1_554
As1 Rh0 2.448938 1_555
As1 Rh1 2.448938 1_555
As1 Rh1 2.448938 1_544
As1 Rh0 2.448938 1_454
As1 Eu0 3.251073 1_565
As1 Eu0 3.251073 1_655
As1 Eu0 3.251073 1_666
As1 Eu0 3.251073 1_554
