# generated using pymatgen
data_Nd2(Al3Co)3
_symmetry_space_group_name_H-M   'P 1'
_cell_length_a   7.51920760
_cell_length_b   7.51920760
_cell_length_c   9.55297700
_cell_angle_alpha   90.00000000
_cell_angle_beta   90.00000000
_cell_angle_gamma   119.17785804
_symmetry_Int_Tables_number   1
_chemical_formula_structural   Nd2(Al3Co)3
_chemical_formula_sum   'Nd4 Al18 Co6'
_cell_volume   471.57645895
_cell_formula_units_Z   2
loop_
 _symmetry_equiv_pos_site_id
 _symmetry_equiv_pos_as_xyz
  1  'x, y, z'
loop_
 _atom_site_type_symbol
 _atom_site_label
 _atom_site_symmetry_multiplicity
 _atom_site_fract_x
 _atom_site_fract_y
 _atom_site_fract_z
 _atom_site_occupancy
  Nd  Nd0  1  0.00624100  0.32848000  0.75000000  1
  Nd  Nd1  1  0.32848000  0.00624100  0.75000000  1
  Nd  Nd2  1  0.99375900  0.67152000  0.25000000  1
  Nd  Nd3  1  0.67152000  0.99375900  0.25000000  1
  Al  Al0  1  0.66475500  0.99961900  0.92967800  1
  Al  Al1  1  0.99961900  0.66475500  0.57032200  1
  Al  Al2  1  0.12809600  0.12809600  0.25000000  1
  Al  Al3  1  0.66638300  0.66638300  0.03968400  1
  Al  Al4  1  0.33361700  0.33361700  0.53968400  1
  Al  Al5  1  0.33361700  0.33361700  0.96031600  1
  Al  Al6  1  0.66638300  0.66638300  0.46031600  1
  Al  Al7  1  0.33524500  0.00038100  0.07032200  1
  Al  Al8  1  0.00038100  0.33524500  0.42967800  1
  Al  Al9  1  0.33833100  0.55056800  0.25000000  1
  Al  Al10  1  0.00038100  0.33524500  0.07032200  1
  Al  Al11  1  0.55056800  0.33833100  0.25000000  1
  Al  Al12  1  0.66166900  0.44943200  0.75000000  1
  Al  Al13  1  0.87190400  0.87190400  0.75000000  1
  Al  Al14  1  0.99961900  0.66475500  0.92967800  1
  Al  Al15  1  0.66475500  0.99961900  0.57032200  1
  Al  Al16  1  0.33524500  0.00038100  0.42967800  1
  Al  Al17  1  0.44943200  0.66166900  0.75000000  1
  Co  Co0  1  0.67017200  0.32982800  0.50000000  1
  Co  Co1  1  0.67017200  0.32982800  0.00000000  1
  Co  Co2  1  0.32982800  0.67017200  0.50000000  1
  Co  Co3  1  0.00000000  0.00000000  0.00000000  1
  Co  Co4  1  0.00000000  0.00000000  0.50000000  1
  Co  Co5  1  0.32982800  0.67017200  0.00000000  1
loop_
_geom_bond_atom_site_label_1
_geom_bond_atom_site_label_2
_geom_bond_distance
_geom_bond_site_symmetry_2
Al0 Co1 2.553270 1_566
Al0 Co3 2.607408 1_666
Al0 Co5 2.616710 1_556
Al0 Al3 2.722646 1_556
Al0 Al13 2.784421 1_555
Al0 Al7 2.820961 1_566
Al0 Al17 2.830779 1_555
Al0 Al10 2.886673 1_666
Al0 Nd3 3.061126 1_556
Al0 Nd0 3.076207 1_665
Al0 Nd1 3.076507 1_565
Al1 Co2 2.553270 1_655
Al1 Co4 2.607408 1_665
Al1 Co0 2.616710 1_555
Al1 Al6 2.722646 1_555
Al1 Al13 2.784421 1_555
Al1 Al8 2.820961 1_655
Al1 Al12 2.830779 1_555
Al1 Al16 2.886673 1_665
Al1 Nd2 3.061126 1_555
Al1 Nd1 3.076207 1_665
Al1 Nd0 3.076507 1_655
Al2 Co3 2.579647 1_555
Al2 Co4 2.579647 1_555
Al2 Al9 2.773757 1_555
Al2 Al8 2.784421 1_555
Al2 Al7 2.784421 1_555
Al2 Nd2 3.070044 1_445
Al2 Nd3 3.070044 1_445
Al3 Co3 2.567782 1_665
Al3 Co1 2.572722 1_555
Al3 Co5 2.572722 1_555
Al3 Al9 2.963967 1_555
Al3 Nd3 3.163061 1_555
Al3 Nd2 3.163061 1_555
Al4 Co4 2.567782 1_555
Al4 Co0 2.572722 1_555
Al4 Co2 2.572722 1_555
Al4 Al8 2.722646 1_555
Al4 Nd0 3.163061 1_555
Al4 Nd1 3.163061 1_555
Al5 Co3 2.567782 1_556
Al5 Co1 2.572722 1_556
Al5 Co5 2.572722 1_556
Al5 Al7 2.722646 1_556
Al5 Nd0 3.163061 1_555
Al5 Nd1 3.163061 1_555
Al6 Co4 2.567782 1_665
Al6 Co0 2.572722 1_555
Al6 Co2 2.572722 1_555
Al6 Al9 2.963967 1_555
Al6 Nd3 3.163061 1_555
Al6 Nd2 3.163061 1_555
Al7 Co5 2.553270 1_545
Al7 Co3 2.607408 1_555
Al7 Co1 2.616710 1_555
Al7 Nd1 3.061126 1_554
Al7 Nd2 3.076207 1_445
Al7 Nd3 3.076507 1_545
Al8 Co0 2.553270 1_455
Al8 Co4 2.607408 1_555
Al8 Co2 2.616710 1_555
Al8 Al9 2.830779 1_555
Al8 Nd0 3.061126 1_555
Al8 Nd3 3.076207 1_445
Al8 Nd2 3.076507 1_455
Al9 Co2 2.563718 1_555
Al9 Co5 2.563718 1_555
Al9 Nd3 3.039954 1_555
Al9 Nd2 3.136473 1_455
Al10 Co1 2.553270 1_455
Al10 Co3 2.607408 1_555
Al10 Co5 2.616710 1_555
Al10 Al5 2.722646 1_554
Al10 Al2 2.784421 1_555
Al10 Al14 2.820961 1_454
Al10 Al9 2.830779 1_555
Al10 Nd0 3.061126 1_554
Al10 Nd3 3.076207 1_445
Al10 Nd2 3.076507 1_455
Al11 Co0 2.563718 1_555
Al11 Co1 2.563718 1_555
Al11 Al9 2.752580 1_555
Al11 Al2 2.773757 1_555
Al11 Al16 2.830779 1_555
Al11 Al7 2.830779 1_555
Al11 Al3 2.963967 1_555
Al11 Al6 2.963967 1_555
Al11 Nd2 3.039954 1_555
Al11 Nd3 3.136473 1_545
Al12 Co0 2.563718 1_555
Al12 Co1 2.563718 1_556
Al12 Al17 2.752580 1_555
Al12 Al13 2.773757 1_555
Al12 Al14 2.830779 1_555
Al12 Al4 2.963967 1_555
Al12 Al5 2.963967 1_555
Al12 Nd1 3.039954 1_555
Al12 Nd0 3.136473 1_655
Al13 Co3 2.579647 1_666
Al13 Co4 2.579647 1_665
Al13 Al17 2.773757 1_555
Al13 Al14 2.784421 1_555
Al13 Al15 2.784421 1_555
Al13 Nd0 3.070044 1_665
Al13 Nd1 3.070044 1_665
Al14 Co5 2.553270 1_656
Al14 Co3 2.607408 1_666
Al14 Co1 2.616710 1_556
Al14 Al3 2.722646 1_556
Al14 Al7 2.886673 1_666
Al14 Nd2 3.061126 1_556
Al14 Nd1 3.076207 1_665
Al14 Nd0 3.076507 1_655
Al15 Co0 2.553270 1_565
Al15 Co4 2.607408 1_665
Al15 Co2 2.616710 1_555
Al15 Al6 2.722646 1_555
Al15 Al16 2.820961 1_565
Al15 Al17 2.830779 1_555
Al15 Al8 2.886673 1_665
Al15 Nd3 3.061126 1_555
Al15 Nd0 3.076207 1_665
Al15 Nd1 3.076507 1_565
Al16 Co2 2.553270 1_545
Al16 Co4 2.607408 1_555
Al16 Co0 2.616710 1_555
Al16 Al4 2.722646 1_555
Al16 Al2 2.784421 1_555
Al16 Nd1 3.061126 1_555
Al16 Nd2 3.076207 1_445
Al16 Nd3 3.076507 1_545
Al17 Co5 2.563718 1_556
Al17 Co2 2.563718 1_555
Al17 Al4 2.963967 1_555
Al17 Al5 2.963967 1_555
Al17 Nd0 3.039954 1_555
Al17 Nd1 3.136473 1_565
