# generated using pymatgen
data_Ce9GdO20
_symmetry_space_group_name_H-M   'P 1'
_cell_length_a   6.65688008
_cell_length_b   7.68775621
_cell_length_c   8.59593183
_cell_angle_alpha   102.93339653
_cell_angle_beta   97.42078911
_cell_angle_gamma   106.77639608
_symmetry_Int_Tables_number   1
_chemical_formula_structural   Ce9GdO20
_chemical_formula_sum   'Ce9 Gd1 O20'
_cell_volume   401.55451308
_cell_formula_units_Z   1
loop_
 _symmetry_equiv_pos_site_id
 _symmetry_equiv_pos_as_xyz
  1  'x, y, z'
loop_
 _atom_site_type_symbol
 _atom_site_label
 _atom_site_symmetry_multiplicity
 _atom_site_fract_x
 _atom_site_fract_y
 _atom_site_fract_z
 _atom_site_occupancy
  Ce  Ce0  1  0.80030480  0.60071621  0.60079565  1
  Ce  Ce1  1  0.59971290  0.19920963  0.19912569  1
  Ce  Ce2  1  0.00000000  0.50000000  0.00000000  1
  Ce  Ce3  1  0.80010029  0.09999661  0.60096218  1
  Ce  Ce4  1  0.19969520  0.39928379  0.39920435  1
  Ce  Ce5  1  0.60163198  0.70073805  0.19966784  1
  Ce  Ce6  1  0.39836802  0.29926195  0.80033216  1
  Ce  Ce7  1  0.19989971  0.90000339  0.39903782  1
  Ce  Ce8  1  0.40028710  0.80079037  0.80087431  1
  Gd  Gd0  1  0.00000000  -0.00000000  0.00000000  1
  O  O0  1  0.85010836  0.32519863  0.45095761  1
  O  O1  1  0.64629455  0.92391318  0.05107122  1
  O  O2  1  0.95004474  0.77224356  0.15175641  1
  O  O3  1  0.44900802  0.52420612  0.64966274  1
  O  O4  1  0.85068401  0.82543723  0.45055024  1
  O  O5  1  0.25310285  0.12651217  0.25251276  1
  O  O6  1  0.74829165  0.37484204  0.75002738  1
  O  O7  1  0.64920138  0.42500436  0.04963546  1
  O  O8  1  0.55085318  0.97493377  0.35067392  1
  O  O9  1  0.44914682  0.02506623  0.64932608  1
  O  O10  1  0.05070470  0.72181952  0.84810376  1
  O  O11  1  0.94929530  0.27818048  0.15189624  1
  O  O12  1  0.35079862  0.57499564  0.95036454  1
  O  O13  1  0.25170835  0.62515796  0.24997262  1
  O  O14  1  0.74689715  0.87348783  0.74748724  1
  O  O15  1  0.55099198  0.47579388  0.35033726  1
  O  O16  1  0.14931599  0.17456277  0.54944976  1
  O  O17  1  0.04995526  0.22775644  0.84824359  1
  O  O18  1  0.35370545  0.07608682  0.94892878  1
  O  O19  1  0.14989164  0.67480137  0.54904239  1
loop_
_geom_bond_atom_site_label_1
_geom_bond_atom_site_label_2
_geom_bond_distance
_geom_bond_site_symmetry_2
Ce0 O10 2.338234 1_655
Ce0 O14 2.340161 1_555
Ce0 O4 2.353981 1_555
Ce0 O15 2.354402 1_555
Ce0 O6 2.354889 1_555
Ce0 O0 2.355786 1_555
Ce0 O19 2.356621 1_655
Ce0 O3 2.358281 1_555
Ce1 O1 2.338829 1_545
Ce1 O18 2.342510 1_554
Ce1 O11 2.342588 1_555
Ce1 O5 2.343221 1_555
Ce1 O7 2.355990 1_555
Ce1 O8 2.359396 1_545
Ce1 O15 2.363411 1_555
Ce1 O0 2.366427 1_555
Ce2 O17 2.341874 1_554
Ce2 O2 2.341874 1_455
Ce2 O11 2.346284 1_455
Ce2 O10 2.346284 1_554
Ce2 O7 2.357537 1_455
Ce2 O12 2.357537 1_554
Ce2 O6 2.358879 1_454
Ce2 O13 2.358879 1_555
Ce3 O17 2.336342 1_655
Ce3 O14 2.342027 1_545
Ce3 O8 2.353126 1_545
Ce3 O16 2.353526 1_655
Ce3 O4 2.354027 1_545
Ce3 O9 2.354559 1_555
Ce3 O6 2.355468 1_555
Ce3 O0 2.355485 1_555
Ce4 O11 2.338234 1_455
Ce4 O5 2.340161 1_555
Ce4 O16 2.353981 1_555
Ce4 O3 2.354402 1_555
Ce4 O13 2.354889 1_555
Ce4 O19 2.355786 1_555
Ce4 O0 2.356621 1_455
Ce4 O15 2.358281 1_555
Ce5 O1 2.334154 1_555
Ce5 O2 2.337353 1_555
Ce5 O7 2.350787 1_555
Ce5 O12 2.351933 1_554
Ce5 O13 2.354151 1_555
Ce5 O8 2.354245 1_555
Ce5 O4 2.356260 1_555
Ce5 O15 2.358050 1_555
Ce6 O18 2.334154 1_555
Ce6 O17 2.337353 1_555
Ce6 O12 2.350787 1_555
Ce6 O7 2.351933 1_556
Ce6 O6 2.354151 1_555
Ce6 O9 2.354245 1_555
Ce6 O16 2.356260 1_555
Ce6 O3 2.358050 1_555
Ce7 O2 2.336342 1_455
Ce7 O5 2.342027 1_565
Ce7 O9 2.353126 1_565
Ce7 O4 2.353526 1_455
Ce7 O16 2.354027 1_565
Ce7 O8 2.354559 1_555
Ce7 O13 2.355468 1_555
Ce7 O19 2.355485 1_555
Ce8 O18 2.338829 1_565
Ce8 O1 2.342510 1_556
Ce8 O10 2.342588 1_555
Ce8 O14 2.343221 1_555
Ce8 O12 2.355990 1_555
Ce8 O9 2.359396 1_565
Ce8 O3 2.363411 1_555
Ce8 O19 2.366427 1_555
Gd0 O5 2.379182 1_555
Gd0 O14 2.379182 1_444
Gd0 O18 2.380291 1_554
Gd0 O1 2.380291 1_445
Gd0 O11 2.381784 1_455
Gd0 O10 2.381784 1_544
Gd0 O2 2.382523 1_445
Gd0 O17 2.382523 1_554
