# generated using pymatgen
data_NaHSeO4
_symmetry_space_group_name_H-M   'P 1'
_cell_length_a   7.98687800
_cell_length_b   5.36075700
_cell_length_c   9.54488115
_cell_angle_alpha   67.88051616
_cell_angle_beta   90.00000000
_cell_angle_gamma   90.00000000
_symmetry_Int_Tables_number   1
_chemical_formula_structural   NaHSeO4
_chemical_formula_sum   'Na4 H4 Se4 O16'
_cell_volume   378.59296803
_cell_formula_units_Z   4
loop_
 _symmetry_equiv_pos_site_id
 _symmetry_equiv_pos_as_xyz
  1  'x, y, z'
loop_
 _atom_site_type_symbol
 _atom_site_label
 _atom_site_symmetry_multiplicity
 _atom_site_fract_x
 _atom_site_fract_y
 _atom_site_fract_z
 _atom_site_occupancy
  Na  Na0  1  0.00017200  0.49954300  0.70378800  1
  Na  Na1  1  0.49982800  0.49954300  0.20378800  1
  Na  Na2  1  0.99982800  0.50045700  0.29621200  1
  Na  Na3  1  0.50017200  0.50045700  0.79621200  1
  H  H0  1  0.53804100  0.13384400  0.63215500  1
  H  H1  1  0.96195900  0.13384400  0.13215500  1
  H  H2  1  0.46195900  0.86615600  0.36784500  1
  H  H3  1  0.03804100  0.86615600  0.86784500  1
  Se  Se0  1  0.27455100  0.08628800  0.56176800  1
  Se  Se1  1  0.22544900  0.08628800  0.06176800  1
  Se  Se2  1  0.72544900  0.91371200  0.43823200  1
  Se  Se3  1  0.77455100  0.91371200  0.93823200  1
  O  O0  1  0.10778900  0.27297800  0.54933800  1
  O  O1  1  0.39221100  0.27297800  0.04933800  1
  O  O2  1  0.89221100  0.72702200  0.45066200  1
  O  O3  1  0.60778900  0.72702200  0.95066200  1
  O  O4  1  0.25379900  0.76862100  0.67809100  1
  O  O5  1  0.24620100  0.76862100  0.17809100  1
  O  O6  1  0.74620100  0.23137900  0.32190900  1
  O  O7  1  0.75379900  0.23137900  0.82190900  1
  O  O8  1  0.34329800  0.12032700  0.39108100  1
  O  O9  1  0.15670200  0.12032700  0.89108100  1
  O  O10  1  0.65670200  0.87967300  0.60891900  1
  O  O11  1  0.84329800  0.87967300  0.10891900  1
  O  O12  1  0.43205400  0.23373300  0.63861300  1
  O  O13  1  0.06794600  0.23373300  0.13861300  1
  O  O14  1  0.56794600  0.76626700  0.36138700  1
  O  O15  1  0.93205400  0.76626700  0.86138700  1
loop_
_geom_bond_atom_site_label_1
_geom_bond_atom_site_label_2
_geom_bond_distance
_geom_bond_site_symmetry_2
Na0 O0 2.394915 1_555
Na0 O2 2.418500 1_455
Na0 O4 2.444960 1_555
Na0 O7 2.447284 1_455
Na0 O9 2.480848 1_555
Na0 O15 2.494597 1_455
Na1 O1 2.394915 1_555
Na1 O3 2.418500 1_554
Na1 O5 2.444960 1_555
Na1 O6 2.447284 1_555
Na1 O8 2.480848 1_555
Na1 O14 2.494597 1_555
Na2 O2 2.394915 1_555
Na2 O0 2.418500 1_655
Na2 O6 2.444960 1_555
Na2 O5 2.447284 1_655
Na2 O11 2.480848 1_555
Na2 O13 2.494597 1_655
Na3 O3 2.394915 1_555
Na3 O1 2.418500 1_556
Na3 O7 2.444960 1_555
Na3 O4 2.447284 1_555
Na3 O10 2.480848 1_555
Na3 O12 2.494597 1_555
H0 O12 1.015858 1_555
H0 O10 1.741119 1_545
H1 O13 1.015858 1_655
H1 O11 1.741119 1_545
H2 O14 1.015858 1_555
H2 O8 1.741119 1_565
H3 O15 1.015858 1_455
H3 O9 1.741119 1_565
O0 Se0 1.643239 1_555
O1 Se1 1.643239 1_555
O2 Se2 1.643239 1_555
O3 Se3 1.643239 1_555
O4 Se0 1.654182 1_565
O5 Se1 1.654182 1_565
O6 Se2 1.654182 1_545
O7 Se3 1.654182 1_545
O8 Se0 1.662874 1_555
O9 Se1 1.662874 1_556
O10 Se2 1.662874 1_555
O11 Se3 1.662874 1_554
O12 Se0 1.783761 1_555
O13 Se1 1.783761 1_555
O14 Se2 1.783761 1_555
O15 Se3 1.783761 1_555
