# generated using pymatgen
data_Zn(HO)2
_symmetry_space_group_name_H-M   'P 1'
_cell_length_a   5.43770400
_cell_length_b   5.95784000
_cell_length_c   6.33826800
_cell_angle_alpha   90.00000000
_cell_angle_beta   90.00000000
_cell_angle_gamma   90.00000000
_symmetry_Int_Tables_number   1
_chemical_formula_structural   Zn(HO)2
_chemical_formula_sum   'Zn4 H8 O8'
_cell_volume   205.34068078
_cell_formula_units_Z   4
loop_
 _symmetry_equiv_pos_site_id
 _symmetry_equiv_pos_as_xyz
  1  'x, y, z'
loop_
 _atom_site_type_symbol
 _atom_site_label
 _atom_site_symmetry_multiplicity
 _atom_site_fract_x
 _atom_site_fract_y
 _atom_site_fract_z
 _atom_site_occupancy
  Zn  Zn0  1  0.88398800  0.54900000  0.21242400  1
  Zn  Zn1  1  0.11601200  0.04900000  0.28757600  1
  Zn  Zn2  1  0.38398800  0.95100000  0.78757600  1
  Zn  Zn3  1  0.61601200  0.45100000  0.71242400  1
  H  H0  1  0.33457300  0.40095900  0.27971300  1
  H  H1  1  0.66542700  0.90095900  0.22028700  1
  H  H2  1  0.83457300  0.09904100  0.72028700  1
  H  H3  1  0.16542700  0.59904100  0.77971300  1
  H  H4  1  0.81659800  0.77551800  0.89793800  1
  H  H5  1  0.18340200  0.27551800  0.60206200  1
  H  H6  1  0.31659800  0.72448200  0.10206200  1
  H  H7  1  0.68340200  0.22448200  0.39793800  1
  O  O0  1  0.18305400  0.36522600  0.19896600  1
  O  O1  1  0.81694600  0.86522600  0.30103400  1
  O  O2  1  0.68305400  0.13477400  0.80103400  1
  O  O3  1  0.31694600  0.63477400  0.69896600  1
  O  O4  1  0.85205400  0.61450000  0.89684400  1
  O  O5  1  0.14794600  0.11450000  0.60315600  1
  O  O6  1  0.35205400  0.88550000  0.10315600  1
  O  O7  1  0.64794600  0.38550000  0.39684400  1
loop_
_geom_bond_atom_site_label_1
_geom_bond_atom_site_label_2
_geom_bond_distance
_geom_bond_site_symmetry_2
H0 O0 0.993023 1_555
H1 O1 0.993023 1_555
H2 O2 0.993023 1_555
H3 O3 0.993023 1_555
H4 O4 0.978526 1_555
H5 O5 0.978526 1_555
H6 O6 0.978526 1_555
H7 O7 0.978526 1_555
O0 Zn0 1.962321 1_455
O0 Zn1 1.999470 1_555
O1 Zn1 1.962321 1_665
O1 Zn0 1.999470 1_555
O2 Zn2 1.962321 1_545
O2 Zn3 1.999470 1_555
O3 Zn3 1.962321 1_555
O3 Zn2 1.999470 1_555
O4 Zn3 1.990643 1_555
O4 Zn0 2.045327 1_556
O5 Zn2 1.990643 1_545
O5 Zn1 2.045327 1_555
O6 Zn1 1.990643 1_565
O6 Zn2 2.045327 1_554
O7 Zn0 1.990643 1_555
O7 Zn3 2.045327 1_555
