# generated using pymatgen
data_MgMn3(CuO4)2
_symmetry_space_group_name_H-M   'P 1'
_cell_length_a   8.45519800
_cell_length_b   8.45519800
_cell_length_c   8.45519800
_cell_angle_alpha   90.00000000
_cell_angle_beta   90.00000000
_cell_angle_gamma   90.00000000
_symmetry_Int_Tables_number   1
_chemical_formula_structural   MgMn3(CuO4)2
_chemical_formula_sum   'Mg4 Mn12 Cu8 O32'
_cell_volume   604.46526066
_cell_formula_units_Z   4
loop_
 _symmetry_equiv_pos_site_id
 _symmetry_equiv_pos_as_xyz
  1  'x, y, z'
loop_
 _atom_site_type_symbol
 _atom_site_label
 _atom_site_symmetry_multiplicity
 _atom_site_fract_x
 _atom_site_fract_y
 _atom_site_fract_z
 _atom_site_occupancy
  Mg  Mg0  1  0.37500000  0.12500000  0.87500000  1
  Mg  Mg1  1  0.12500000  0.87500000  0.37500000  1
  Mg  Mg2  1  0.87500000  0.37500000  0.12500000  1
  Mg  Mg3  1  0.62500000  0.62500000  0.62500000  1
  Mn  Mn0  1  0.87139300  0.12500000  0.37860700  1
  Mn  Mn1  1  0.37500000  0.62139300  0.37139300  1
  Mn  Mn2  1  0.87500000  0.87860700  0.62860700  1
  Mn  Mn3  1  0.37139300  0.37500000  0.62139300  1
  Mn  Mn4  1  0.12139300  0.12860700  0.62500000  1
  Mn  Mn5  1  0.12860700  0.62500000  0.12139300  1
  Mn  Mn6  1  0.62139300  0.37139300  0.37500000  1
  Mn  Mn7  1  0.62860700  0.87500000  0.87860700  1
  Mn  Mn8  1  0.12500000  0.37860700  0.87139300  1
  Mn  Mn9  1  0.62500000  0.12139300  0.12860700  1
  Mn  Mn10  1  0.37860700  0.87139300  0.12500000  1
  Mn  Mn11  1  0.87860700  0.62860700  0.87500000  1
  Cu  Cu0  1  0.99318400  0.50681600  0.49318400  1
  Cu  Cu1  1  0.74318400  0.25681600  0.75681600  1
  Cu  Cu2  1  0.25681600  0.75681600  0.74318400  1
  Cu  Cu3  1  0.00681600  0.00681600  0.00681600  1
  Cu  Cu4  1  0.50681600  0.49318400  0.99318400  1
  Cu  Cu5  1  0.75681600  0.74318400  0.25681600  1
  Cu  Cu6  1  0.49318400  0.99318400  0.50681600  1
  Cu  Cu7  1  0.24318400  0.24318400  0.24318400  1
  O  O0  1  0.10989900  0.89681300  0.62185600  1
  O  O1  1  0.60318700  0.37814400  0.60989900  1
  O  O2  1  0.14681300  0.85989900  0.12814400  1
  O  O3  1  0.89681300  0.62185600  0.10989900  1
  O  O4  1  0.85989900  0.12814400  0.14681300  1
  O  O5  1  0.10318700  0.12185600  0.39010100  1
  O  O6  1  0.87185600  0.64681300  0.64010100  1
  O  O7  1  0.12185600  0.39010100  0.10318700  1
  O  O8  1  0.13336800  0.36663200  0.63336800  1
  O  O9  1  0.64681300  0.64010100  0.87185600  1
  O  O10  1  0.38336800  0.38336800  0.38336800  1
  O  O11  1  0.88336800  0.11663200  0.61663200  1
  O  O12  1  0.36663200  0.63336800  0.13336800  1
  O  O13  1  0.37814400  0.60989900  0.60318700  1
  O  O14  1  0.89010100  0.39681300  0.87814400  1
  O  O15  1  0.62185600  0.10989900  0.89681300  1
  O  O16  1  0.64010100  0.87185600  0.64681300  1
  O  O17  1  0.61663200  0.88336800  0.11663200  1
  O  O18  1  0.11663200  0.61663200  0.88336800  1
  O  O19  1  0.85318700  0.35989900  0.37185600  1
  O  O20  1  0.60989900  0.60318700  0.37814400  1
  O  O21  1  0.87814400  0.89010100  0.39681300  1
  O  O22  1  0.63336800  0.13336800  0.36663200  1
  O  O23  1  0.86663200  0.86663200  0.86663200  1
  O  O24  1  0.14010100  0.62814400  0.35318700  1
  O  O25  1  0.39681300  0.87814400  0.89010100  1
  O  O26  1  0.35989900  0.37185600  0.85318700  1
  O  O27  1  0.37185600  0.85318700  0.35989900  1
  O  O28  1  0.62814400  0.35318700  0.14010100  1
  O  O29  1  0.12814400  0.14681300  0.85989900  1
  O  O30  1  0.35318700  0.14010100  0.62814400  1
  O  O31  1  0.39010100  0.10318700  0.12185600  1
loop_
_geom_bond_atom_site_label_1
_geom_bond_atom_site_label_2
_geom_bond_distance
_geom_bond_site_symmetry_2
Mg0 O25 2.099236 1_545
Mg0 O30 2.099236 1_555
Mg0 O15 2.099236 1_555
Mg0 O31 2.099236 1_556
Mg0 O29 2.099236 1_555
Mg0 O26 2.099236 1_555
Mg1 O24 2.099236 1_555
Mg1 O21 2.099236 1_455
Mg1 O5 2.099236 1_565
Mg1 O0 2.099236 1_555
Mg1 O2 2.099236 1_555
Mg1 O27 2.099236 1_555
Mg2 O14 2.099236 1_554
Mg2 O7 2.099236 1_655
Mg2 O3 2.099236 1_555
Mg2 O28 2.099236 1_555
Mg2 O19 2.099236 1_555
Mg2 O4 2.099236 1_555
Mg3 O9 2.099236 1_555
Mg3 O16 2.099236 1_555
Mg3 O6 2.099236 1_555
Mg3 O13 2.099236 1_555
Mg3 O1 2.099236 1_555
Mg3 O20 2.099236 1_555
Mn0 O5 1.962452 1_655
Mn0 O4 1.962452 1_555
Mn0 O21 1.992892 1_545
Mn0 O19 1.992892 1_555
Mn0 O11 2.016336 1_555
Mn0 O22 2.016336 1_555
Mn1 O13 1.962452 1_555
Mn1 O27 1.962452 1_555
Mn1 O20 1.992892 1_555
Mn1 O24 1.992892 1_555
Mn1 O10 2.016336 1_555
Mn1 O12 2.016336 1_555
Mn2 O21 1.962452 1_555
Mn2 O6 1.962452 1_555
Mn2 O0 1.992892 1_655
Mn2 O16 1.992892 1_555
Mn2 O23 2.016336 1_555
Mn2 O11 2.016336 1_565
Mn3 O26 1.962452 1_555
Mn3 O1 1.962452 1_555
Mn3 O13 1.992892 1_555
Mn3 O30 1.992892 1_555
Mn3 O10 2.016336 1_555
Mn3 O8 2.016336 1_555
Mn4 O30 1.962452 1_555
Mn4 O0 1.962452 1_545
Mn4 O29 1.992892 1_555
Mn4 O5 1.992892 1_555
Mn4 O11 2.016336 1_455
Mn4 O8 2.016336 1_555
Mn5 O24 1.962452 1_555
Mn5 O3 1.962452 1_455
Mn5 O2 1.992892 1_555
Mn5 O7 1.992892 1_555
Mn5 O18 2.016336 1_554
Mn5 O12 2.016336 1_555
Mn6 O19 1.962452 1_555
Mn6 O20 1.962452 1_555
Mn6 O1 1.992892 1_555
Mn6 O28 1.992892 1_555
Mn6 O22 2.016336 1_555
Mn6 O10 2.016336 1_555
Mn7 O25 1.962452 1_555
Mn7 O16 1.962452 1_555
Mn7 O9 1.992892 1_555
Mn7 O15 1.992892 1_565
Mn7 O23 2.016336 1_555
Mn7 O17 2.016336 1_556
Mn8 O7 1.962452 1_556
Mn8 O29 1.962452 1_555
Mn8 O14 1.992892 1_455
Mn8 O26 1.992892 1_555
Mn8 O8 2.016336 1_555
Mn8 O18 2.016336 1_555
Mn9 O28 1.962452 1_555
Mn9 O15 1.962452 1_554
Mn9 O4 1.992892 1_555
Mn9 O31 1.992892 1_555
Mn9 O17 2.016336 1_545
Mn9 O22 2.016336 1_555
Mn10 O31 1.962452 1_565
Mn10 O2 1.962452 1_555
Mn10 O25 1.992892 1_554
Mn10 O27 1.992892 1_555
Mn10 O17 2.016336 1_555
Mn10 O12 2.016336 1_555
Mn11 O14 1.962452 1_555
Mn11 O9 1.962452 1_555
Mn11 O3 1.992892 1_556
Mn11 O6 1.992892 1_555
Mn11 O23 2.016336 1_555
Mn11 O18 2.016336 1_655
Cu0 O6 1.999154 1_555
Cu0 O19 1.999154 1_555
Cu0 O24 1.999154 1_655
Cu0 O8 2.052971 1_655
Cu1 O15 1.999154 1_555
Cu1 O1 1.999154 1_555
Cu1 O14 1.999154 1_555
Cu1 O11 2.052971 1_555
Cu2 O0 1.999154 1_555
Cu2 O13 1.999154 1_555
Cu2 O25 1.999154 1_555
Cu2 O18 2.052971 1_555
Cu3 O29 1.999154 1_554
Cu3 O2 1.999154 1_545
Cu3 O4 1.999154 1_455
Cu3 O23 2.052971 1_444
Cu4 O9 1.999154 1_555
Cu4 O26 1.999154 1_555
Cu4 O28 1.999154 1_556
Cu4 O12 2.052971 1_556
Cu5 O3 1.999154 1_555
Cu5 O20 1.999154 1_555
Cu5 O21 1.999154 1_555
Cu5 O17 2.052971 1_555
Cu6 O16 1.999154 1_555
Cu6 O27 1.999154 1_555
Cu6 O30 1.999154 1_565
Cu6 O22 2.052971 1_565
Cu7 O31 1.999154 1_555
Cu7 O7 1.999154 1_555
Cu7 O5 1.999154 1_555
Cu7 O10 2.052971 1_555
