# generated using pymatgen
data_Re2PCl
_symmetry_space_group_name_H-M   'P 1'
_cell_length_a   4.41901009
_cell_length_b   4.41901009
_cell_length_c   4.41901009
_cell_angle_alpha   60.00000000
_cell_angle_beta   60.00000000
_cell_angle_gamma   60.00000000
_symmetry_Int_Tables_number   1
_chemical_formula_structural   Re2PCl
_chemical_formula_sum   'Re2 P1 Cl1'
_cell_volume   61.01828281
_cell_formula_units_Z   1
loop_
 _symmetry_equiv_pos_site_id
 _symmetry_equiv_pos_as_xyz
  1  'x, y, z'
loop_
 _atom_site_type_symbol
 _atom_site_label
 _atom_site_symmetry_multiplicity
 _atom_site_fract_x
 _atom_site_fract_y
 _atom_site_fract_z
 _atom_site_occupancy
  Re  Re0  1  0.00000000  0.00000000  0.00000000  1
  Re  Re1  1  0.75000000  0.75000000  0.75000000  1
  P  P0  1  0.25000000  0.25000000  0.25000000  1
  Cl  Cl0  1  0.50000000  0.50000000  0.50000000  1
loop_
_geom_bond_atom_site_label_1
_geom_bond_atom_site_label_2
_geom_bond_distance
_geom_bond_site_symmetry_2
Re0 Re1 2.706080 1_544
Re0 Re1 2.706080 1_444
Re0 Re1 2.706080 1_454
Re0 Re1 2.706080 1_445
P0 Re0 2.706080 1_655
P0 Re0 2.706080 1_555
P0 Re0 2.706080 1_556
P0 Re0 2.706080 1_565
Cl0 P0 2.706080 1_655
Cl0 Re1 2.706080 1_455
Cl0 P0 2.706080 1_565
Cl0 Re1 2.706080 1_554
Cl0 Re1 2.706080 1_555
Cl0 P0 2.706080 1_555
Cl0 P0 2.706080 1_556
Cl0 Re1 2.706080 1_545
Cl0 Re0 3.124712 1_556
Cl0 Re0 3.124712 1_565
Cl0 Re0 3.124712 1_656
Cl0 Re0 3.124712 1_665
Cl0 Re0 3.124712 1_655
Cl0 Re0 3.124712 1_566
