# generated using pymatgen
data_SrH6(CO3)2
_symmetry_space_group_name_H-M   'P 1'
_cell_length_a   7.62006100
_cell_length_b   8.04882100
_cell_length_c   11.44925100
_cell_angle_alpha   90.00000000
_cell_angle_beta   90.00000000
_cell_angle_gamma   90.00000000
_symmetry_Int_Tables_number   1
_chemical_formula_structural   SrH6(CO3)2
_chemical_formula_sum   'Sr4 H24 C8 O24'
_cell_volume   702.21126708
_cell_formula_units_Z   4
loop_
 _symmetry_equiv_pos_site_id
 _symmetry_equiv_pos_as_xyz
  1  'x, y, z'
loop_
 _atom_site_type_symbol
 _atom_site_label
 _atom_site_symmetry_multiplicity
 _atom_site_fract_x
 _atom_site_fract_y
 _atom_site_fract_z
 _atom_site_occupancy
  Sr  Sr0  1  0.37321800  0.23462300  0.54577000  1
  Sr  Sr1  1  0.62678200  0.73462300  0.95423000  1
  Sr  Sr2  1  0.12678200  0.76537700  0.04577000  1
  Sr  Sr3  1  0.87321800  0.26537700  0.45423000  1
  H  H0  1  0.31520000  0.36338600  0.15835500  1
  H  H1  1  0.45760900  0.67064000  0.54843200  1
  H  H2  1  0.30937600  0.16080500  0.93209200  1
  H  H3  1  0.55387300  0.31291500  0.29334300  1
  H  H4  1  0.18480000  0.63661400  0.65835400  1
  H  H5  1  0.81520000  0.13661400  0.84164600  1
  H  H6  1  0.85339000  0.67555700  0.77095600  1
  H  H7  1  0.59407300  0.61834800  0.33986500  1
  H  H8  1  0.35339000  0.82444300  0.22904400  1
  H  H9  1  0.69062400  0.66080500  0.56790800  1
  H  H10  1  0.19062400  0.83919500  0.43209200  1
  H  H11  1  0.14661000  0.17555700  0.72904400  1
  H  H12  1  0.90592700  0.38165200  0.83986500  1
  H  H13  1  0.64661000  0.32444300  0.27095600  1
  H  H14  1  0.68480000  0.86338600  0.34164500  1
  H  H15  1  0.09407300  0.88165200  0.66013500  1
  H  H16  1  0.80937600  0.33919500  0.06790800  1
  H  H17  1  0.94612700  0.68708500  0.79334300  1
  H  H18  1  0.44612700  0.81291500  0.20665700  1
  H  H19  1  0.40592700  0.11834800  0.16013500  1
  H  H20  1  0.54239100  0.17064000  0.95156800  1
  H  H21  1  0.04239100  0.32936000  0.04843200  1
  H  H22  1  0.05387300  0.18708500  0.70665700  1
  H  H23  1  0.95760900  0.82936000  0.45156800  1
  C  C0  1  0.41942000  0.11817200  0.98773500  1
  C  C1  1  0.58058000  0.61817200  0.51226500  1
  C  C2  1  0.91942000  0.38182800  0.01226500  1
  C  C3  1  0.17791200  0.53027000  0.25909900  1
  C  C4  1  0.08058000  0.88182800  0.48773500  1
  C  C5  1  0.67791200  0.96973000  0.74090100  1
  C  C6  1  0.32208800  0.46973000  0.75909900  1
  C  C7  1  0.82208800  0.03027000  0.24090100  1
  O  O0  1  0.34103500  0.57050700  0.85176800  1
  O  O1  1  0.07677300  0.04839100  0.50621900  1
  O  O2  1  0.25842900  0.27314500  0.34434600  1
  O  O3  1  0.10084800  0.66611200  0.26095100  1
  O  O4  1  0.60084800  0.83388800  0.73904900  1
  O  O5  1  0.10664700  0.79354000  0.60241900  1
  O  O6  1  0.15896500  0.42949300  0.35176800  1
  O  O7  1  0.57677300  0.45160900  0.49378100  1
  O  O8  1  0.84103500  0.92949300  0.14823200  1
  O  O9  1  0.65896500  0.07050700  0.64823200  1
  O  O10  1  0.22306000  0.51180400  0.66898200  1
  O  O11  1  0.74157100  0.77314500  0.15565400  1
  O  O12  1  0.42322700  0.95160900  0.00621900  1
  O  O13  1  0.60664700  0.70646000  0.39758100  1
  O  O14  1  0.77694000  0.01180400  0.83101800  1
  O  O15  1  0.75842900  0.22685500  0.65565400  1
  O  O16  1  0.24157100  0.72685500  0.84434600  1
  O  O17  1  0.89915200  0.16611200  0.23904900  1
  O  O18  1  0.72306000  0.98819600  0.33101800  1
  O  O19  1  0.39335300  0.20646000  0.10241900  1
  O  O20  1  0.89335300  0.29354000  0.89758100  1
  O  O21  1  0.92322700  0.54839100  0.99378100  1
  O  O22  1  0.39915200  0.33388800  0.76095100  1
  O  O23  1  0.27694000  0.48819600  0.16898200  1
loop_
_geom_bond_atom_site_label_1
_geom_bond_atom_site_label_2
_geom_bond_distance
_geom_bond_site_symmetry_2
H0 O23 1.053076 1_555
H0 O19 1.536276 1_555
H4 O10 1.053077 1_555
H4 O5 1.536272 1_555
H5 O14 1.053077 1_555
H5 O20 1.536272 1_555
H6 Sr1 2.758770 1_555
H7 O13 0.974066 1_555
H8 Sr2 2.758770 1_555
H11 H22 0.757415 1_555
H11 Sr0 2.758770 1_555
H12 O20 0.974066 1_555
H13 H3 0.757415 1_555
H13 Sr3 2.758770 1_555
H14 O18 1.053076 1_555
H14 O13 1.536276 1_555
H15 O5 0.974066 1_555
H17 H6 0.757415 1_555
H18 H8 0.757415 1_555
H19 O19 0.974066 1_555
C0 H2 1.107592 1_555
C0 H20 1.108091 1_555
C0 O12 1.357546 1_546
C0 O19 1.506160 1_556
C1 H9 1.107592 1_555
C1 H1 1.108091 1_555
C1 O7 1.357546 1_555
C1 O13 1.506160 1_555
C2 H16 1.107592 1_555
C2 H21 1.108091 1_655
C2 O21 1.357546 1_554
C2 O20 1.506160 1_554
C3 O3 1.241267 1_555
C3 O23 1.322367 1_555
C3 O6 1.343312 1_555
C4 H10 1.107592 1_555
C4 H23 1.108091 1_455
C4 O1 1.357546 1_565
C4 O5 1.506160 1_555
C5 O4 1.241267 1_555
C5 O14 1.322367 1_565
C5 O9 1.343312 1_565
C6 O22 1.241267 1_555
C6 O10 1.322367 1_555
C6 O0 1.343312 1_555
C7 O17 1.241267 1_555
C7 O18 1.322367 1_545
C7 O8 1.343312 1_545
O0 O16 1.471489 1_555
O0 Sr1 2.803960 1_555
O1 Sr3 2.410481 1_455
O1 Sr0 2.748574 1_555
O2 O6 1.471489 1_555
O2 Sr0 2.485876 1_555
O3 Sr2 2.597504 1_555
O4 Sr1 2.597504 1_555
O6 Sr3 2.803960 1_455
O7 Sr0 2.410481 1_555
O7 Sr3 2.748574 1_555
O8 Sr2 2.803960 1_655
O9 Sr0 2.803960 1_555
O10 Sr0 2.876896 1_555
O11 O8 1.471489 1_555
O11 Sr1 2.485876 1_554
O12 Sr1 2.410481 1_554
O12 Sr2 2.748574 1_555
O14 Sr1 2.876896 1_545
O15 O9 1.471489 1_555
O15 Sr3 2.485876 1_555
O16 Sr2 2.485876 1_556
O17 Sr3 2.597504 1_555
O18 Sr3 2.876896 1_565
O21 Sr2 2.410481 1_656
O21 Sr1 2.748574 1_555
O22 Sr0 2.597504 1_555
O23 Sr2 2.876896 1_555
