# generated using pymatgen
data_LiNbO3
_symmetry_space_group_name_H-M   'P 1'
_cell_length_a   5.67802006
_cell_length_b   5.69027270
_cell_length_c   74.13907331
_cell_angle_alpha   54.70414115
_cell_angle_beta   54.77100111
_cell_angle_gamma   54.68420879
_symmetry_Int_Tables_number   1
_chemical_formula_structural   LiNbO3
_chemical_formula_sum   'Li26 Nb26 O78'
_cell_volume   1485.47115392
_cell_formula_units_Z   26
loop_
 _symmetry_equiv_pos_site_id
 _symmetry_equiv_pos_as_xyz
  1  'x, y, z'
loop_
 _atom_site_type_symbol
 _atom_site_label
 _atom_site_symmetry_multiplicity
 _atom_site_fract_x
 _atom_site_fract_y
 _atom_site_fract_z
 _atom_site_occupancy
  Li  Li0  1  0.19855451  0.23044154  0.09673227  1
  Li  Li1  1  0.67025722  0.65512798  0.05431025  1
  Li  Li2  1  0.81138787  0.83667386  0.06453266  1
  Li  Li3  1  0.78639853  0.76981360  0.14180386  1
  Li  Li4  1  0.79611898  0.79696165  0.21606739  1
  Li  Li5  1  0.79682581  0.79291285  0.29178496  1
  Li  Li6  1  0.79316652  0.79659413  0.36896506  1
  Li  Li7  1  0.80198084  0.80747683  0.44449535  1
  Li  Li8  1  0.29982168  0.31378169  0.55725202  1
  Li  Li9  1  0.81004031  0.79921081  0.51996107  1
  Li  Li10  1  0.27429269  0.29407419  0.63605327  1
  Li  Li11  1  0.80794739  0.79418096  0.59658082  1
  Li  Li12  1  0.27761008  0.28394632  0.71391979  1
  Li  Li13  1  0.67080470  0.68330020  0.66734108  1
  Li  Li14  1  0.83753967  0.82905010  0.67846883  1
  Li  Li15  1  0.27989852  0.28259422  0.79099579  1
  Li  Li16  1  0.67876138  0.67806129  0.74448031  1
  Li  Li17  1  0.83263476  0.83056615  0.75574720  1
  Li  Li18  1  0.27759045  0.28210553  0.86837271  1
  Li  Li19  1  0.67694765  0.67678784  0.82172300  1
  Li  Li20  1  0.82888015  0.83009822  0.83303697  1
  Li  Li21  1  0.27733692  0.28163993  0.94550471  1
  Li  Li22  1  0.68047189  0.67332199  0.89850702  1
  Li  Li23  1  0.82673206  0.83169627  0.91008138  1
  Li  Li24  1  0.68223280  0.67078463  0.97559078  1
  Li  Li25  1  0.82436383  0.83445131  0.98702550  1
  Nb  Nb0  1  0.00861757  0.98177387  0.00402422  1
  Nb  Nb1  1  0.00754085  0.97730847  0.08109381  1
  Nb  Nb2  1  0.45846612  0.51019731  0.04048291  1
  Nb  Nb3  1  0.00296977  0.97435431  0.15861141  1
  Nb  Nb4  1  0.46507802  0.49823934  0.12039288  1
  Nb  Nb5  1  0.01897245  0.01499192  0.23224426  1
  Nb  Nb6  1  0.49093498  0.51437006  0.19514994  1
  Nb  Nb7  1  0.01947002  0.02211039  0.30918466  1
  Nb  Nb8  1  0.52118097  0.50392217  0.26946172  1
  Nb  Nb9  1  0.01365382  0.01695549  0.38633885  1
  Nb  Nb10  1  0.49706290  0.51039564  0.34748017  1
  Nb  Nb11  1  0.00243779  0.04282559  0.45969848  1
  Nb  Nb12  1  0.52024293  0.52161961  0.42265503  1
  Nb  Nb13  1  0.01067427  0.04563428  0.53404272  1
  Nb  Nb14  1  0.53865950  0.51033285  0.49603021  1
  Nb  Nb15  1  0.99872360  0.04011233  0.61211609  1
  Nb  Nb16  1  0.54355694  0.50060955  0.57358446  1
  Nb  Nb17  1  0.00737165  0.03120190  0.69195814  1
  Nb  Nb18  1  0.52255374  0.49064964  0.65138460  1
  Nb  Nb19  1  0.01110932  0.01315348  0.77007894  1
  Nb  Nb20  1  0.50832366  0.49901527  0.73011678  1
  Nb  Nb21  1  0.00953447  0.01028549  0.84705938  1
  Nb  Nb22  1  0.50033423  0.50052487  0.80763127  1
  Nb  Nb23  1  0.01656225  0.99922145  0.92468603  1
  Nb  Nb24  1  0.49718905  0.49910639  0.88477491  1
  Nb  Nb25  1  0.48042952  0.49857340  0.96336267  1
  O  O0  1  0.09855893  0.41741236  0.05629529  1
  O  O1  1  0.41587433  0.75119671  0.00651069  1
  O  O2  1  0.76846409  0.10395717  0.02991975  1
  O  O3  1  0.26197840  0.85580319  0.04820109  1
  O  O4  1  0.64222747  0.25838556  0.06452841  1
  O  O5  1  0.12825249  0.38559073  0.13338764  1
  O  O6  1  0.86676217  0.66844359  0.01742291  1
  O  O7  1  0.40700513  0.77704940  0.08253550  1
  O  O8  1  0.77910437  0.13496591  0.10461596  1
  O  O9  1  0.25129672  0.88000533  0.12386842  1
  O  O10  1  0.65157446  0.25372818  0.14183735  1
  O  O11  1  0.12525910  0.38332155  0.21134035  1
  O  O12  1  0.88748253  0.64745505  0.09376392  1
  O  O13  1  0.38210005  0.74778477  0.16283601  1
  O  O14  1  0.76001661  0.11604808  0.18303713  1
  O  O15  1  0.23811054  0.85023961  0.20471389  1
  O  O16  1  0.66194242  0.24963939  0.21825736  1
  O  O17  1  0.12324135  0.38232521  0.28817960  1
  O  O18  1  0.85796972  0.66002282  0.17035566  1
  O  O19  1  0.37970279  0.74922646  0.24009984  1
  O  O20  1  0.75420972  0.12350187  0.25984702  1
  O  O21  1  0.23385398  0.82622706  0.28326568  1
  O  O22  1  0.66992761  0.23841080  0.29494790  1
  O  O23  1  0.12115011  0.38037314  0.36557788  1
  O  O24  1  0.83215169  0.67696307  0.24897472  1
  O  O25  1  0.38400564  0.74637511  0.31704118  1
  O  O26  1  0.75239496  0.12130333  0.33702492  1
  O  O27  1  0.24205591  0.83365856  0.35942651  1
  O  O28  1  0.67875932  0.24298534  0.37110830  1
  O  O29  1  0.11591362  0.38464327  0.44256465  1
  O  O30  1  0.82940828  0.68312442  0.32543824  1
  O  O31  1  0.37822288  0.75048357  0.39460468  1
  O  O32  1  0.75126226  0.12770198  0.41393916  1
  O  O33  1  0.24482572  0.83697499  0.43659652  1
  O  O34  1  0.65858050  0.23304690  0.45014375  1
  O  O35  1  0.11747961  0.38290161  0.52021732  1
  O  O36  1  0.84345998  0.66663547  0.40306503  1
  O  O37  1  0.38451684  0.75362390  0.47145891  1
  O  O38  1  0.75820740  0.12204524  0.49088559  1
  O  O39  1  0.24234286  0.84634499  0.51304711  1
  O  O40  1  0.63346025  0.22658724  0.52981218  1
  O  O41  1  0.10816915  0.37563188  0.59846473  1
  O  O42  1  0.85176222  0.64472959  0.48171158  1
  O  O43  1  0.37219565  0.74076371  0.55023185  1
  O  O44  1  0.72934594  0.12693578  0.56886588  1
  O  O45  1  0.23261090  0.87481456  0.58868594  1
  O  O46  1  0.61683448  0.23028916  0.60809285  1
  O  O47  1  0.09223486  0.40311074  0.67471615  1
  O  O48  1  0.87763061  0.61159058  0.55962821  1
  O  O49  1  0.37096016  0.72567157  0.62691351  1
  O  O50  1  0.72622959  0.09713984  0.64850095  1
  O  O51  1  0.24482214  0.86434389  0.66651609  1
  O  O52  1  0.63591084  0.24186852  0.68400263  1
  O  O53  1  0.10491605  0.39771323  0.75004130  1
  O  O54  1  0.86025647  0.61320800  0.63712141  1
  O  O55  1  0.39338828  0.73651869  0.70168203  1
  O  O56  1  0.74377376  0.09487538  0.72399520  1
  O  O57  1  0.25110738  0.86036990  0.74206934  1
  O  O58  1  0.63788517  0.25090813  0.75923373  1
  O  O59  1  0.11305888  0.39495600  0.82658727  1
  O  O60  1  0.86301932  0.62710469  0.71270961  1
  O  O61  1  0.39768975  0.74210764  0.77780905  1
  O  O62  1  0.74855032  0.10373703  0.79998033  1
  O  O63  1  0.25251031  0.86513751  0.81872795  1
  O  O64  1  0.64218215  0.25410193  0.83578114  1
  O  O65  1  0.10855912  0.39897575  0.90286574  1
  O  O66  1  0.86636258  0.63999833  0.78884308  1
  O  O67  1  0.40612795  0.74082303  0.85438179  1
  O  O68  1  0.74904221  0.11001313  0.87665803  1
  O  O69  1  0.25323009  0.86873713  0.89517633  1
  O  O70  1  0.64168454  0.25667460  0.91232715  1
  O  O71  1  0.11132750  0.40508458  0.97902771  1
  O  O72  1  0.86566941  0.64218373  0.86558838  1
  O  O73  1  0.41107433  0.74418544  0.93048034  1
  O  O74  1  0.75085351  0.10909106  0.95279339  1
  O  O75  1  0.26524583  0.86572743  0.97064577  1
  O  O76  1  0.66888882  0.25911112  0.98631010  1
  O  O77  1  0.87772935  0.64831462  0.94117790  1
loop_
_geom_bond_atom_site_label_1
_geom_bond_atom_site_label_2
_geom_bond_distance
_geom_bond_site_symmetry_2
Li0 O9 1.866071 1_545
Li0 O12 1.948881 1_455
Li0 O4 2.270974 1_555
Li0 O8 2.414963 1_455
Li1 O7 1.991133 1_555
Li1 O4 1.998952 1_555
Li1 O0 2.035957 1_655
Li1 O3 2.106258 1_555
Li1 O6 2.251155 1_555
Li1 O2 2.291266 1_565
Li2 O12 1.971946 1_555
Li2 O7 2.002586 1_555
Li2 O4 2.003889 1_565
Li2 O3 2.149278 1_655
Li2 O2 2.177288 1_565
Li2 O0 2.181883 1_655
Li3 O13 1.922004 1_555
Li3 O18 2.051096 1_555
Li3 O5 2.051762 1_655
Li3 O8 2.309260 1_565
Li3 O10 2.395189 1_565
Li3 O9 2.455593 1_655
Li4 O19 2.040067 1_555
Li4 O11 2.065763 1_655
Li4 O14 2.084752 1_565
Li4 O24 2.224764 1_555
Li4 O15 2.290491 1_655
Li4 O16 2.305109 1_565
Li5 O17 2.027015 1_655
Li5 O25 2.037554 1_555
Li5 O20 2.047284 1_565
Li5 O21 2.278110 1_655
Li5 O30 2.290703 1_555
Li5 O22 2.319618 1_565
Li6 O26 2.038822 1_565
Li6 O23 2.046672 1_655
Li6 O31 2.050530 1_555
Li6 O28 2.310600 1_565
Li6 O27 2.326080 1_655
Li6 O36 2.334138 1_555
Li7 O32 1.977628 1_565
Li7 O29 2.032716 1_655
Li7 O37 2.091389 1_555
Li7 O34 2.280651 1_565
Li7 O33 2.317174 1_655
Li7 O42 2.488958 1_555
Li8 O40 1.899230 1_555
Li8 O48 1.952023 1_455
Li8 O45 2.272687 1_545
Li8 O43 2.406080 1_555
Li8 O44 2.487294 1_555
Li9 O38 1.907550 1_565
Li9 O35 1.965852 1_655
Li9 O43 2.232579 1_555
Li9 O39 2.347453 1_655
Li9 O40 2.416897 1_565
Li10 O46 1.900939 1_555
Li10 O54 1.961198 1_455
Li10 O51 2.182498 1_545
Li10 O49 2.449129 1_555
Li10 O50 2.627681 1_555
Li11 O44 1.895101 1_565
Li11 O41 1.947823 1_655
Li11 O49 2.243546 1_555
Li11 O45 2.389089 1_655
Li11 O46 2.515920 1_565
Li12 O52 1.990095 1_555
Li12 O60 2.022181 1_455
Li12 O57 2.105155 1_545
Li12 O55 2.540954 1_555
Li13 O54 2.022864 1_555
Li13 O51 2.032807 1_555
Li13 O50 2.035698 1_565
Li13 O52 2.140567 1_555
Li13 O47 2.158245 1_655
Li13 O55 2.183512 1_555
Li14 O51 2.034841 1_655
Li14 O50 2.061931 1_565
Li14 O47 2.075036 1_655
Li14 O52 2.111768 1_565
Li14 O60 2.155519 1_555
Li14 O55 2.253859 1_555
Li15 O66 2.052103 1_455
Li15 O58 2.062541 1_555
Li15 O63 2.075689 1_545
Li15 O61 2.559987 1_555
Li15 O59 2.575753 1_555
Li15 O62 2.586670 1_555
Li16 O56 2.066653 1_565
Li16 O60 2.079002 1_555
Li16 O57 2.092483 1_555
Li16 O58 2.108373 1_555
Li16 O53 2.120819 1_655
Li16 O61 2.145714 1_555
Li17 O57 2.047008 1_655
Li17 O58 2.082631 1_565
Li17 O56 2.111812 1_565
Li17 O66 2.111981 1_555
Li17 O53 2.163955 1_655
Li17 O61 2.203022 1_555
Li18 O69 2.039199 1_545
Li18 O72 2.058838 1_455
Li18 O64 2.107634 1_555
Li18 O65 2.509744 1_555
Li18 O67 2.573371 1_555
Li18 O68 2.583277 1_555
Li19 O64 2.079644 1_555
Li19 O63 2.088541 1_555
Li19 O67 2.106238 1_555
Li19 O66 2.108928 1_555
Li19 O62 2.127515 1_565
Li19 O59 2.145770 1_655
Li20 O63 2.077772 1_655
Li20 O64 2.085096 1_565
Li20 O72 2.086256 1_555
Li20 O67 2.150038 1_555
Li20 O62 2.167391 1_565
Li20 O59 2.195914 1_655
Li21 O75 2.005634 1_545
Li21 O77 2.048741 1_455
Li21 O70 2.131584 1_555
Li21 O71 2.471459 1_555
Li21 O74 2.548678 1_555
Li21 O73 2.586858 1_555
Li22 O70 2.062858 1_555
Li22 O73 2.080802 1_555
Li22 O65 2.094234 1_655
Li22 O72 2.101659 1_555
Li22 O69 2.106516 1_555
Li22 O68 2.165569 1_565
Li23 O77 2.031914 1_555
Li23 O70 2.074947 1_565
Li23 O69 2.088935 1_655
Li23 O73 2.115635 1_555
Li23 O68 2.182077 1_565
Li23 O65 2.211068 1_655
Li24 O76 2.027115 1_555
Li24 O1 2.040562 1_556
Li24 O71 2.073414 1_655
Li24 O75 2.113210 1_555
Li24 O77 2.168731 1_555
Li24 O74 2.172873 1_565
Li25 O6 1.982942 1_556
Li25 O76 2.015154 1_565
Li25 O1 2.074831 1_556
Li25 O75 2.128663 1_655
Li25 O71 2.220955 1_655
Li25 O74 2.223110 1_565
Nb0 O2 1.858706 1_465
Nb0 O6 1.872156 1_455
Nb0 O1 1.951204 1_555
Nb0 O71 2.189828 1_564
Nb0 O76 2.223585 1_464
Nb0 O75 2.301949 1_554
Nb1 O8 1.838855 1_465
Nb1 O12 1.890278 1_455
Nb1 O7 1.898737 1_555
Nb1 O0 2.235700 1_565
Nb1 O4 2.280873 1_465
Nb1 O3 2.289352 1_555
Nb2 O3 1.861943 1_555
Nb2 O0 1.896707 1_555
Nb2 O4 1.945619 1_555
Nb2 O1 2.147245 1_555
Nb2 O2 2.202844 1_555
Nb2 O6 2.273807 1_555
Nb3 O14 1.830765 1_465
Nb3 O13 1.869990 1_555
Nb3 O18 1.926399 1_455
Nb3 O5 2.193600 1_565
Nb3 O10 2.228357 1_465
Nb3 O9 2.333217 1_555
Nb4 O10 1.807627 1_555
Nb4 O9 1.869825 1_555
Nb4 O5 1.890692 1_555
Nb4 O8 2.224189 1_555
Nb4 O12 2.307714 1_555
Nb4 O7 2.412578 1_555
Nb5 O19 1.897014 1_545
Nb5 O20 1.914906 1_455
Nb5 O11 1.946429 1_555
Nb5 O24 2.108908 1_445
Nb5 O15 2.127362 1_545
Nb5 O16 2.159519 1_455
Nb6 O16 1.841934 1_555
Nb6 O15 1.853599 1_555
Nb6 O11 2.046552 1_555
Nb6 O18 2.055694 1_555
Nb6 O13 2.228776 1_555
Nb6 O14 2.245784 1_555
Nb7 O17 1.903348 1_555
Nb7 O26 1.903711 1_455
Nb7 O25 1.914514 1_545
Nb7 O30 2.134901 1_445
Nb7 O21 2.150480 1_545
Nb7 O22 2.158548 1_455
Nb8 O24 1.892613 1_555
Nb8 O22 1.906076 1_555
Nb8 O21 1.963659 1_555
Nb8 O20 2.080447 1_555
Nb8 O19 2.131227 1_555
Nb8 O17 2.142516 1_555
Nb9 O32 1.921316 1_455
Nb9 O23 1.927508 1_555
Nb9 O31 1.928861 1_545
Nb9 O36 2.105564 1_445
Nb9 O28 2.125177 1_455
Nb9 O27 2.146277 1_545
Nb10 O27 1.894301 1_555
Nb10 O28 1.907392 1_555
Nb10 O30 1.981948 1_555
Nb10 O23 2.068362 1_555
Nb10 O25 2.116808 1_555
Nb10 O26 2.140158 1_555
Nb11 O29 1.860487 1_555
Nb11 O34 1.936903 1_455
Nb11 O33 1.983622 1_545
Nb11 O38 2.062760 1_455
Nb11 O37 2.138080 1_545
Nb11 O42 2.210096 1_445
Nb12 O36 1.857211 1_555
Nb12 O33 1.941155 1_555
Nb12 O34 1.988753 1_555
Nb12 O31 2.064455 1_555
Nb12 O32 2.111636 1_555
Nb12 O29 2.210593 1_555
Nb13 O39 1.841801 1_545
Nb13 O35 1.859239 1_555
Nb13 O40 1.896857 1_455
Nb13 O43 2.232240 1_545
Nb13 O44 2.280148 1_455
Nb13 O48 2.314927 1_445
Nb14 O42 1.824496 1_555
Nb14 O37 1.877591 1_555
Nb14 O38 1.955013 1_555
Nb14 O39 2.167385 1_555
Nb14 O35 2.239490 1_555
Nb14 O40 2.246545 1_555
Nb15 O45 1.856964 1_645
Nb15 O41 1.862446 1_655
Nb15 O46 1.903179 1_555
Nb15 O49 2.215086 1_645
Nb15 O54 2.297484 1_545
Nb15 O50 2.322033 1_555
Nb16 O48 1.852856 1_555
Nb16 O43 1.866499 1_555
Nb16 O44 1.896542 1_555
Nb16 O46 2.241682 1_555
Nb16 O45 2.243353 1_555
Nb16 O41 2.296852 1_555
Nb17 O47 1.920160 1_555
Nb17 O52 1.982020 1_455
Nb17 O51 1.983124 1_545
Nb17 O56 2.068608 1_455
Nb17 O55 2.076605 1_545
Nb17 O60 2.227603 1_445
Nb18 O49 1.867585 1_555
Nb18 O54 1.906797 1_555
Nb18 O50 1.916003 1_555
Nb18 O47 2.178455 1_555
Nb18 O52 2.247787 1_555
Nb18 O51 2.259585 1_555
Nb19 O53 1.989252 1_555
Nb19 O62 2.005455 1_455
Nb19 O61 2.010235 1_545
Nb19 O58 2.088476 1_455
Nb19 O57 2.092105 1_545
Nb19 O66 2.098683 1_445
Nb20 O60 1.965805 1_555
Nb20 O55 1.992912 1_555
Nb20 O56 2.057499 1_555
Nb20 O57 2.070445 1_555
Nb20 O58 2.074571 1_555
Nb20 O53 2.097608 1_555
Nb21 O68 2.012272 1_455
Nb21 O59 2.014820 1_555
Nb21 O67 2.042814 1_545
Nb21 O72 2.073697 1_445
Nb21 O64 2.073762 1_455
Nb21 O63 2.083653 1_545
Nb22 O59 2.039037 1_555
Nb22 O61 2.041060 1_555
Nb22 O66 2.044300 1_555
Nb22 O64 2.054807 1_555
Nb22 O63 2.054986 1_555
Nb22 O62 2.069905 1_555
Nb23 O74 1.948685 1_465
Nb23 O73 1.984866 1_555
Nb23 O77 1.997496 1_455
Nb23 O65 2.051984 1_565
Nb23 O69 2.115521 1_555
Nb23 O70 2.147127 1_465
Nb24 O70 2.029127 1_555
Nb24 O65 2.036876 1_555
Nb24 O67 2.043765 1_555
Nb24 O68 2.048264 1_555
Nb24 O69 2.052026 1_555
Nb24 O72 2.064285 1_555
Nb25 O76 1.905728 1_555
Nb25 O75 1.934014 1_555
Nb25 O71 1.947055 1_555
Nb25 O74 2.137249 1_555
Nb25 O73 2.141379 1_555
Nb25 O77 2.200553 1_555
