# generated using pymatgen
data_YCuSe2
_symmetry_space_group_name_H-M   'P 1'
_cell_length_a   4.08071717
_cell_length_b   4.08071639
_cell_length_c   6.40087967
_cell_angle_alpha   90.00000000
_cell_angle_beta   90.00000000
_cell_angle_gamma   119.99999784
_symmetry_Int_Tables_number   1
_chemical_formula_structural   YCuSe2
_chemical_formula_sum   'Y1 Cu1 Se2'
_cell_volume   92.30882262
_cell_formula_units_Z   1
loop_
 _symmetry_equiv_pos_site_id
 _symmetry_equiv_pos_as_xyz
  1  'x, y, z'
loop_
 _atom_site_type_symbol
 _atom_site_label
 _atom_site_symmetry_multiplicity
 _atom_site_fract_x
 _atom_site_fract_y
 _atom_site_fract_z
 _atom_site_occupancy
  Y  Y0  1  0.00000000  0.00000000  0.48841220  1
  Cu  Cu0  1  0.66666700  0.33333300  0.87302622  1
  Se  Se0  1  0.33333300  0.66666700  0.76087632  1
  Se  Se1  1  0.66666700  0.33333300  0.25168726  1
loop_
_geom_bond_atom_site_label_1
_geom_bond_atom_site_label_2
_geom_bond_distance
_geom_bond_site_symmetry_2
Cu0 Se1 2.423764 1_556
Cu0 Se0 2.462937 1_545
Cu0 Se0 2.462937 1_655
Cu0 Se0 2.462944 1_555
Se0 Y0 2.931264 1_565
Se0 Y0 2.931267 1_555
Se0 Y0 2.931267 1_665
Se1 Y0 2.801199 1_655
Se1 Y0 2.801202 1_665
Se1 Y0 2.801202 1_555
