# generated using pymatgen
data_La3Sn13Rh4
_symmetry_space_group_name_H-M   'P 1'
_cell_length_a   17.10275508
_cell_length_b   17.10275515
_cell_length_c   17.10275516
_cell_angle_alpha   109.47122066
_cell_angle_beta   109.47122075
_cell_angle_gamma   109.47122042
_symmetry_Int_Tables_number   1
_chemical_formula_structural   La3Sn13Rh4
_chemical_formula_sum   'La24 Sn104 Rh32'
_cell_volume   3851.02504280
_cell_formula_units_Z   8
loop_
 _symmetry_equiv_pos_site_id
 _symmetry_equiv_pos_as_xyz
  1  'x, y, z'
loop_
 _atom_site_type_symbol
 _atom_site_label
 _atom_site_symmetry_multiplicity
 _atom_site_fract_x
 _atom_site_fract_y
 _atom_site_fract_z
 _atom_site_occupancy
  La  La0  1  0.87558613  0.62441387  0.75000000  1
  La  La1  1  0.12510507  0.37489493  0.25000000  1
  La  La2  1  0.12558613  0.75000000  0.37441387  1
  La  La3  1  0.75000000  0.37441387  0.12558613  1
  La  La4  1  0.37489493  0.25000000  0.12510507  1
  La  La5  1  0.25021013  0.87510507  0.12510507  1
  La  La6  1  0.12510507  0.25021013  0.87510507  1
  La  La7  1  0.37441387  0.12558613  0.75000000  1
  La  La8  1  0.87510507  0.25000000  0.62489493  1
  La  La9  1  0.75117225  0.12558613  0.87558613  1
  La  La10  1  0.62489493  0.24978987  0.37489493  1
  La  La11  1  0.62441387  0.37441387  0.74882775  1
  La  La12  1  0.12558613  0.87558613  0.75117225  1
  La  La13  1  0.62441387  0.75000000  0.87558613  1
  La  La14  1  0.25000000  0.12510507  0.37489493  1
  La  La15  1  0.37441387  0.74882775  0.62441387  1
  La  La16  1  0.62489493  0.87510507  0.25000000  1
  La  La17  1  0.87558613  0.75117225  0.12558613  1
  La  La18  1  0.87510507  0.12510507  0.25021013  1
  La  La19  1  0.74882775  0.62441387  0.37441387  1
  La  La20  1  0.25000000  0.62489493  0.87510507  1
  La  La21  1  0.24978987  0.37489493  0.62489493  1
  La  La22  1  0.75000000  0.87558613  0.62441387  1
  La  La23  1  0.37489493  0.62489493  0.24978987  1
  Sn  Sn0  1  0.42338988  0.07643502  0.34645805  1
  Sn  Sn1  1  0.07643502  0.22997697  0.65304514  1
  Sn  Sn2  1  0.00177008  0.50000000  0.00000000  1
  Sn  Sn3  1  0.57755419  0.34605739  0.92320935  1
  Sn  Sn4  1  0.93068344  0.07410564  0.85653586  1
  Sn  Sn5  1  0.92320935  0.57755419  0.34605739  1
  Sn  Sn6  1  0.64346414  0.71756978  0.07414759  1
  Sn  Sn7  1  0.07977642  0.92128786  0.15872215  1
  Sn  Sn8  1  0.26256571  0.84151144  0.92128786  1
  Sn  Sn9  1  0.84151144  0.92128786  0.26256571  1
  Sn  Sn10  1  0.65848856  0.23743429  0.57871214  1
  Sn  Sn11  1  0.64346414  0.42589436  0.56931656  1
  Sn  Sn12  1  0.35657780  0.78243022  0.42589436  1
  Sn  Sn13  1  0.65434484  0.57679065  0.92284804  1
  Sn  Sn14  1  0.57871214  0.65848856  0.23743429  1
  Sn  Sn15  1  0.84695486  0.07693183  0.42338988  1
  Sn  Sn16  1  0.57871214  0.42022358  0.34127785  1
  Sn  Sn17  1  0.22997697  0.65304514  0.07643502  1
  Sn  Sn18  1  0.85653586  0.42585241  0.78243022  1
  Sn  Sn19  1  0.07643502  0.34645805  0.42338988  1
  Sn  Sn20  1  0.07693183  0.42338988  0.84695486  1
  Sn  Sn21  1  0.93068344  0.35657780  0.07414759  1
  Sn  Sn22  1  0.85653586  0.93068344  0.07410564  1
  Sn  Sn23  1  0.71756978  0.07414759  0.64346414  1
  Sn  Sn24  1  0.92128786  0.26256571  0.84151144  1
  Sn  Sn25  1  0.71756978  0.14342220  0.07410564  1
  Sn  Sn26  1  0.57894573  0.84151144  0.42022358  1
  Sn  Sn27  1  0.22997697  0.07693183  0.15354195  1
  Sn  Sn28  1  0.42022358  0.57894573  0.84151144  1
  Sn  Sn29  1  0.35657780  0.07414759  0.93068344  1
  Sn  Sn30  1  0.92128786  0.15872215  0.07977642  1
  Sn  Sn31  1  0.92320935  0.84565516  0.57715196  1
  Sn  Sn32  1  0.07410564  0.85653586  0.93068344  1
  Sn  Sn33  1  0.42306817  0.65304514  0.07661012  1
  Sn  Sn34  1  0.14342220  0.56931656  0.42585241  1
  Sn  Sn35  1  0.23743429  0.15872215  0.57894573  1
  Sn  Sn36  1  0.57755419  0.73149680  0.65434484  1
  Sn  Sn37  1  0.49822992  0.50000000  1.00000000  1
  Sn  Sn38  1  0.57894573  0.23743429  0.15872215  1
  Sn  Sn39  1  0.84565516  0.76850320  0.92244581  1
  Sn  Sn40  1  0.07414759  0.64346414  0.71756978  1
  Sn  Sn41  1  0.15394261  0.92244581  0.57679065  1
  Sn  Sn42  1  0.49822992  0.49822992  0.49822992  1
  Sn  Sn43  1  0.73149680  0.57715196  0.15394261  1
  Sn  Sn44  1  0.65434484  0.57755419  0.73149680  1
  Sn  Sn45  1  0.57715196  0.92320935  0.84565516  1
  Sn  Sn46  1  0.92105427  0.07977642  0.65848856  1
  Sn  Sn47  1  0.56931656  0.64346414  0.42589436  1
  Sn  Sn48  1  0.92284804  0.76850320  0.34605739  1
  Sn  Sn49  1  0.56931656  0.42585241  0.14342220  1
  Sn  Sn50  1  0.15394261  0.73149680  0.57715196  1
  Sn  Sn51  1  0.42589436  0.56931656  0.64346414  1
  Sn  Sn52  1  0.84695486  0.27002303  0.42356498  1
  Sn  Sn53  1  0.42585241  0.78243022  0.85653586  1
  Sn  Sn54  1  0.34645805  0.42338988  0.07643502  1
  Sn  Sn55  1  0.78243022  0.42589436  0.35657780  1
  Sn  Sn56  1  0.84565516  0.57715196  0.92320935  1
  Sn  Sn57  1  0.07410564  0.71756978  0.14342220  1
  Sn  Sn58  1  0.15354195  0.22997697  0.07693183  1
  Sn  Sn59  1  0.23743429  0.57871214  0.65848856  1
  Sn  Sn60  1  0.65848856  0.92105427  0.07977642  1
  Sn  Sn61  1  0.34605739  0.92284804  0.76850320  1
  Sn  Sn62  1  0.50000000  0.00000000  0.49822992  1
  Sn  Sn63  1  0.42338988  0.84695486  0.07693183  1
  Sn  Sn64  1  0.92244581  0.84565516  0.76850320  1
  Sn  Sn65  1  0.34605739  0.92320935  0.57755419  1
  Sn  Sn66  1  0.65304514  0.07643502  0.22997697  1
  Sn  Sn67  1  0.15354195  0.42356498  0.07661012  1
  Sn  Sn68  1  0.15872215  0.07977642  0.92128786  1
  Sn  Sn69  1  0.57679065  0.92284804  0.65434484  1
  Sn  Sn70  1  0.00177008  0.00177008  0.00177008  1
  Sn  Sn71  1  0.78243022  0.85653586  0.42585241  1
  Sn  Sn72  1  0.76850320  0.92244581  0.84565516  1
  Sn  Sn73  1  0.92105427  0.34127785  0.26256571  1
  Sn  Sn74  1  0.42589436  0.35657780  0.78243022  1
  Sn  Sn75  1  0.34127785  0.57871214  0.42022358  1
  Sn  Sn76  1  0.07661012  0.15354195  0.42356498  1
  Sn  Sn77  1  0.00000000  0.49822992  0.50000000  1
  Sn  Sn78  1  0.07414759  0.93068344  0.35657780  1
  Sn  Sn79  1  0.42022358  0.34127785  0.57871214  1
  Sn  Sn80  1  0.65304514  0.07661012  0.42306817  1
  Sn  Sn81  1  0.42356498  0.07661012  0.15354195  1
  Sn  Sn82  1  0.27002303  0.42356498  0.84695486  1
  Sn  Sn83  1  0.34127785  0.26256571  0.92105427  1
  Sn  Sn84  1  0.50000000  0.00000000  0.00177008  1
  Sn  Sn85  1  0.26256571  0.92105427  0.34127785  1
  Sn  Sn86  1  0.57715196  0.15394261  0.73149680  1
  Sn  Sn87  1  0.07693183  0.15354195  0.22997697  1
  Sn  Sn88  1  0.27002303  0.34645805  0.42306817  1
  Sn  Sn89  1  0.14342220  0.07410564  0.71756978  1
  Sn  Sn90  1  0.57679065  0.15394261  0.92244581  1
  Sn  Sn91  1  1.00000000  0.00177008  0.50000000  1
  Sn  Sn92  1  0.92244581  0.57679065  0.15394261  1
  Sn  Sn93  1  0.92284804  0.65434484  0.57679065  1
  Sn  Sn94  1  0.07661012  0.42306817  0.65304514  1
  Sn  Sn95  1  0.34645805  0.42306817  0.27002303  1
  Sn  Sn96  1  0.76850320  0.34605739  0.92284804  1
  Sn  Sn97  1  0.42356498  0.84695486  0.27002303  1
  Sn  Sn98  1  0.42585241  0.14342220  0.56931656  1
  Sn  Sn99  1  0.42306817  0.27002303  0.34645805  1
  Sn  Sn100  1  0.84151144  0.42022358  0.57894573  1
  Sn  Sn101  1  0.15872215  0.57894573  0.23743429  1
  Sn  Sn102  1  0.07977642  0.65848856  0.92105427  1
  Sn  Sn103  1  0.73149680  0.65434484  0.57755419  1
  Rh  Rh0  1  0.50024783  0.75024783  0.50049567  1
  Rh  Rh1  1  0.24982775  0.49965550  0.49982775  1
  Rh  Rh2  1  0.49965550  0.49982775  0.24982775  1
  Rh  Rh3  1  0.75024783  0.50049567  0.50024783  1
  Rh  Rh4  1  0.00034450  0.25017225  0.00017225  1
  Rh  Rh5  1  0.50000000  0.00000000  0.75000000  1
  Rh  Rh6  1  0.25000000  0.75024783  0.74975217  1
  Rh  Rh7  1  0.74975217  0.99975217  0.99950433  1
  Rh  Rh8  1  0.00017225  0.49982775  0.75000000  1
  Rh  Rh9  1  0.25000000  0.25000000  0.25000000  1
  Rh  Rh10  1  0.25000000  0.50000000  0.00000000  1
  Rh  Rh11  1  0.74975217  0.25000000  0.75024783  1
  Rh  Rh12  1  0.99975217  0.99950433  0.74975217  1
  Rh  Rh13  1  0.50000000  0.00000000  0.25000000  1
  Rh  Rh14  1  0.00017225  0.00034450  0.25017225  1
  Rh  Rh15  1  0.00000000  0.25000000  0.50000000  1
  Rh  Rh16  1  0.25017225  0.00017225  0.00034450  1
  Rh  Rh17  1  0.49982775  0.75000000  0.00017225  1
  Rh  Rh18  1  0.75000000  0.24982775  0.25017225  1
  Rh  Rh19  1  0.49982775  0.24982775  0.49965550  1
  Rh  Rh20  1  0.75024783  0.74975217  0.25000000  1
  Rh  Rh21  1  0.50024783  0.25000000  0.99975217  1
  Rh  Rh22  1  0.75000000  0.75000000  0.75000000  1
  Rh  Rh23  1  0.50049567  0.50024783  0.75024783  1
  Rh  Rh24  1  0.00000000  0.75000000  0.50000000  1
  Rh  Rh25  1  0.25017225  0.75000000  0.24982775  1
  Rh  Rh26  1  0.25000000  0.99975217  0.50024783  1
  Rh  Rh27  1  0.75000000  0.00017225  0.49982775  1
  Rh  Rh28  1  0.99950433  0.74975217  0.99975217  1
  Rh  Rh29  1  0.75000000  0.50000000  0.00000000  1
  Rh  Rh30  1  0.99975217  0.50024783  0.25000000  1
  Rh  Rh31  1  0.24982775  0.25017225  0.75000000  1
loop_
_geom_bond_atom_site_label_1
_geom_bond_atom_site_label_2
_geom_bond_distance
_geom_bond_site_symmetry_2
La0 Sn102 3.433568 1_655
La0 Sn100 3.433568 1_555
La0 Sn93 3.467334 1_555
La0 Sn56 3.467334 1_555
La0 Sn103 3.469214 1_555
La0 Sn39 3.469214 1_555
La0 Sn44 3.474311 1_555
La0 Sn64 3.474311 1_555
La0 Rh8 3.479526 1_655
La0 Rh3 3.487684 1_555
La0 Rh28 3.487684 1_555
La0 Rh22 3.507455 1_555
La0 Sn40 3.547505 1_655
La0 Sn18 3.547505 1_555
La0 Sn11 3.560637 1_555
La0 Sn32 3.560637 1_655
La1 Sn75 3.429671 1_555
La1 Sn30 3.429671 1_455
La1 Sn73 3.435170 1_455
La1 Sn101 3.435170 1_555
La1 Sn95 3.463553 1_555
La1 Sn87 3.463553 1_555
La1 Sn88 3.466014 1_555
La1 Sn58 3.466014 1_555
La1 Sn19 3.472821 1_555
La1 Sn67 3.472821 1_555
La1 Rh9 3.488151 1_555
La1 Rh4 3.488682 1_555
La1 Rh1 3.488682 1_555
La1 Sn21 3.494356 1_455
La1 Sn34 3.494356 1_555
La1 Rh30 3.500941 1_455
La2 Sn101 3.433568 1_555
La2 Sn85 3.433568 1_555
La2 Sn65 3.467334 1_555
La2 Sn92 3.467334 1_455
La2 Sn5 3.469214 1_455
La2 Sn41 3.469214 1_555
La2 Sn48 3.474311 1_455
La2 Sn50 3.474311 1_555
La2 Rh25 3.479526 1_555
La2 Rh26 3.487684 1_555
La2 Rh30 3.487684 1_455
La2 Rh24 3.507455 1_555
La2 Sn12 3.547505 1_555
La2 Sn57 3.547505 1_555
La2 Sn78 3.560637 1_555
La2 Sn34 3.560637 1_555
La3 Sn73 3.433568 1_555
La3 Sn38 3.433568 1_555
La3 Sn5 3.467334 1_555
La3 Sn90 3.467334 1_554
La3 Sn3 3.469214 1_554
La3 Sn92 3.469214 1_555
La3 Sn43 3.474311 1_555
La3 Sn96 3.474311 1_554
La3 Rh18 3.479526 1_555
La3 Rh21 3.487684 1_554
La3 Rh30 3.487684 1_555
La3 Rh29 3.507455 1_555
La3 Sn55 3.547505 1_555
La3 Sn25 3.547505 1_555
La3 Sn49 3.560637 1_555
La3 Sn21 3.560637 1_555
La4 Sn68 3.429671 1_554
La4 Sn16 3.429671 1_555
La4 Sn38 3.435170 1_555
La4 Sn83 3.435170 1_554
La4 Sn58 3.463553 1_555
La4 Sn99 3.463553 1_555
La4 Sn95 3.466014 1_555
La4 Sn27 3.466014 1_555
La4 Sn81 3.472821 1_555
La4 Sn54 3.472821 1_555
La4 Rh9 3.488151 1_555
La4 Rh16 3.488682 1_555
La4 Rh2 3.488682 1_555
La4 Sn49 3.494356 1_555
La4 Sn29 3.494356 1_554
La4 Rh21 3.500941 1_554
La5 Sn85 3.429670 1_555
La5 Sn8 3.429671 1_554
La5 Sn7 3.435170 1_555
La5 Sn102 3.435170 1_554
La5 Sn0 3.463553 1_565
La5 Sn63 3.463553 1_555
La5 Sn81 3.466014 1_565
La5 Sn97 3.466014 1_555
La5 Sn27 3.472821 1_565
La5 Sn17 3.472821 1_555
La5 Rh13 3.488151 1_565
La5 Rh16 3.488682 1_565
La5 Rh25 3.488682 1_555
La5 Sn57 3.494356 1_555
La5 Sn32 3.494356 1_554
La5 Rh28 3.500941 1_454
La6 Sn83 3.429670 1_555
La6 Sn24 3.429671 1_455
La6 Sn68 3.435170 1_555
La6 Sn46 3.435170 1_455
La6 Sn54 3.463553 1_556
La6 Sn20 3.463553 1_555
La6 Sn67 3.466014 1_556
La6 Sn82 3.466014 1_555
La6 Sn58 3.472821 1_556
La6 Sn1 3.472821 1_555
La6 Rh10 3.488151 1_556
La6 Rh4 3.488682 1_556
La6 Rh31 3.488682 1_555
La6 Sn89 3.494356 1_555
La6 Sn4 3.494356 1_455
La6 Rh12 3.500941 1_445
La7 Sn35 3.433568 1_555
La7 Sn83 3.433568 1_555
La7 Sn41 3.467334 1_545
La7 Sn3 3.467334 1_555
La7 Sn90 3.469214 1_555
La7 Sn65 3.469214 1_545
La7 Sn86 3.474311 1_555
La7 Sn61 3.474311 1_545
La7 Rh31 3.479526 1_555
La7 Rh21 3.487684 1_555
La7 Rh26 3.487684 1_545
La7 Rh5 3.507455 1_555
La7 Sn89 3.547505 1_555
La7 Sn74 3.547505 1_555
La7 Sn98 3.560637 1_555
La7 Sn29 3.560637 1_555
La8 Sn46 3.429671 1_555
La8 Sn100 3.429671 1_555
La8 Sn10 3.435170 1_555
La8 Sn24 3.435170 1_555
La8 Sn1 3.463553 1_655
La8 Sn52 3.463553 1_555
La8 Sn94 3.466014 1_655
La8 Sn15 3.466014 1_555
La8 Sn80 3.472821 1_555
La8 Sn20 3.472821 1_655
La8 Rh15 3.488151 1_655
La8 Rh8 3.488682 1_655
La8 Rh27 3.488682 1_555
La8 Sn18 3.494356 1_555
La8 Sn23 3.494356 1_555
La8 Rh11 3.500941 1_555
La9 Sn30 3.433568 1_556
La9 Sn24 3.433568 1_555
La9 Sn96 3.467334 1_555
La9 Sn72 3.467334 1_545
La9 Sn86 3.469214 1_555
La9 Sn45 3.469214 1_545
La9 Sn90 3.474311 1_555
La9 Sn69 3.474311 1_545
La9 Rh4 3.479526 1_656
La9 Rh7 3.487684 1_545
La9 Rh11 3.487684 1_555
La9 Rh5 3.507455 1_555
La9 Sn21 3.547505 1_556
La9 Sn4 3.547505 1_555
La9 Sn25 3.560637 1_556
La9 Sn23 3.560637 1_555
La10 Sn38 3.429670 1_555
La10 Sn10 3.429671 1_555
La10 Sn16 3.435170 1_555
La10 Sn100 3.435170 1_555
La10 Sn81 3.463553 1_555
La10 Sn80 3.463553 1_555
La10 Sn0 3.466014 1_555
La10 Sn66 3.466014 1_555
La10 Sn99 3.472821 1_555
La10 Sn52 3.472821 1_555
La10 Rh13 3.488151 1_555
La10 Rh19 3.488682 1_555
La10 Rh18 3.488682 1_555
La10 Sn55 3.494356 1_555
La10 Sn11 3.494356 1_555
La10 Rh3 3.500941 1_555
La11 Sn79 3.433568 1_555
La11 Sn10 3.433568 1_555
La11 Sn86 3.467334 1_555
La11 Sn44 3.467334 1_555
La11 Sn96 3.469214 1_555
La11 Sn13 3.469214 1_555
La11 Sn3 3.474311 1_555
La11 Sn56 3.474311 1_555
La11 Rh19 3.479526 1_555
La11 Rh23 3.487684 1_555
La11 Rh11 3.487684 1_555
La11 Rh29 3.507455 1_556
La11 Sn98 3.547505 1_555
La11 Sn11 3.547505 1_555
La11 Sn74 3.560637 1_555
La11 Sn18 3.560637 1_555
La12 Sn68 3.433568 1_565
La12 Sn8 3.433568 1_555
La12 Sn61 3.467334 1_555
La12 Sn64 3.467334 1_455
La12 Sn50 3.469214 1_555
La12 Sn31 3.469214 1_455
La12 Sn41 3.474311 1_555
La12 Sn93 3.474311 1_455
La12 Rh16 3.479526 1_566
La12 Rh12 3.487684 1_455
La12 Rh6 3.487684 1_555
La12 Rh24 3.507455 1_555
La12 Sn29 3.547505 1_565
La12 Sn32 3.547505 1_555
La12 Sn89 3.560637 1_565
La12 Sn40 3.560637 1_555
La13 Sn28 3.433568 1_555
La13 Sn60 3.433568 1_556
La13 Sn45 3.467334 1_555
La13 Sn13 3.467334 1_555
La13 Sn44 3.469214 1_555
La13 Sn72 3.469214 1_555
La13 Sn39 3.474311 1_555
La13 Sn36 3.474311 1_555
La13 Rh17 3.479526 1_556
La13 Rh23 3.487684 1_555
La13 Rh7 3.487684 1_555
La13 Rh22 3.507455 1_555
La13 Sn53 3.547505 1_555
La13 Sn6 3.547505 1_556
La13 Sn22 3.560637 1_556
La13 Sn51 3.560637 1_555
La14 Sn7 3.429671 1_545
La14 Sn79 3.429671 1_555
La14 Sn85 3.435170 1_545
La14 Sn35 3.435170 1_555
La14 Sn88 3.463553 1_555
La14 Sn27 3.463553 1_555
La14 Sn87 3.466014 1_555
La14 Sn99 3.466014 1_555
La14 Sn0 3.472821 1_555
La14 Sn76 3.472821 1_555
La14 Rh9 3.488151 1_555
La14 Rh19 3.488682 1_555
La14 Rh14 3.488682 1_555
La14 Sn98 3.494356 1_555
La14 Sn78 3.494356 1_545
La14 Rh26 3.500941 1_545
La15 Sn75 3.433568 1_555
La15 Sn59 3.433568 1_555
La15 Sn50 3.467334 1_555
La15 Sn36 3.467334 1_555
La15 Sn61 3.469214 1_555
La15 Sn69 3.469214 1_555
La15 Sn65 3.474311 1_555
La15 Sn45 3.474311 1_555
La15 Rh1 3.479526 1_555
La15 Rh0 3.487684 1_555
La15 Rh6 3.487684 1_555
La15 Rh5 3.507455 1_565
La15 Sn34 3.547505 1_555
La15 Sn51 3.547505 1_555
La15 Sn12 3.560637 1_555
La15 Sn53 3.560637 1_555
La16 Sn26 3.429671 1_555
La16 Sn60 3.429671 1_555
La16 Sn9 3.435170 1_555
La16 Sn14 3.435170 1_555
La16 Sn97 3.463553 1_555
La16 Sn66 3.463553 1_565
La16 Sn63 3.466014 1_555
La16 Sn80 3.466014 1_565
La16 Sn15 3.472821 1_565
La16 Sn33 3.472821 1_555
La16 Rh13 3.488151 1_565
La16 Rh27 3.488682 1_565
La16 Rh17 3.488682 1_555
La16 Sn71 3.494356 1_555
La16 Sn6 3.494356 1_555
La16 Rh20 3.500941 1_555
La17 Sn7 3.433568 1_655
La17 Sn9 3.433568 1_555
La17 Sn48 3.467334 1_555
La17 Sn39 3.467334 1_554
La17 Sn43 3.469214 1_555
La17 Sn56 3.469214 1_554
La17 Sn92 3.474311 1_555
La17 Sn13 3.474311 1_554
La17 Rh14 3.479526 1_665
La17 Rh28 3.487684 1_554
La17 Rh20 3.487684 1_555
La17 Rh29 3.507455 1_555
La17 Sn78 3.547505 1_655
La17 Sn22 3.547505 1_555
La17 Sn57 3.560637 1_655
La17 Sn6 3.560637 1_555
La18 Sn73 3.429670 1_555
La18 Sn9 3.429671 1_545
La18 Sn30 3.435170 1_555
La18 Sn60 3.435170 1_545
La18 Sn19 3.463553 1_655
La18 Sn15 3.463553 1_555
La18 Sn76 3.466014 1_655
La18 Sn52 3.466014 1_555
La18 Sn87 3.472821 1_655
La18 Sn66 3.472821 1_555
La18 Rh15 3.488151 1_655
La18 Rh14 3.488682 1_655
La18 Rh18 3.488682 1_555
La18 Sn25 3.494356 1_555
La18 Sn22 3.494356 1_545
La18 Rh7 3.500941 1_544
La19 Sn16 3.433568 1_555
La19 Sn14 3.433568 1_555
La19 Sn43 3.467334 1_555
La19 Sn103 3.467334 1_555
La19 Sn48 3.469214 1_555
La19 Sn93 3.469214 1_555
La19 Sn5 3.474311 1_555
La19 Sn31 3.474311 1_555
La19 Rh2 3.479526 1_555
La19 Rh3 3.487684 1_555
La19 Rh20 3.487684 1_555
La19 Rh24 3.507455 1_655
La19 Sn49 3.547505 1_555
La19 Sn47 3.547505 1_555
La19 Sn55 3.560637 1_555
La19 Sn71 3.560637 1_555
La20 Sn28 3.429671 1_555
La20 Sn102 3.429671 1_555
La20 Sn8 3.435170 1_555
La20 Sn59 3.435170 1_555
La20 Sn82 3.463553 1_555
La20 Sn17 3.463553 1_556
La20 Sn33 3.466014 1_556
La20 Sn20 3.466014 1_555
La20 Sn94 3.472821 1_555
La20 Sn63 3.472821 1_556
La20 Rh10 3.488151 1_556
La20 Rh8 3.488682 1_555
La20 Rh17 3.488682 1_556
La20 Sn40 3.494356 1_555
La20 Sn53 3.494356 1_555
La20 Rh6 3.500941 1_555
La21 Sn35 3.429670 1_555
La21 Sn59 3.429671 1_555
La21 Sn79 3.435170 1_555
La21 Sn28 3.435170 1_555
La21 Sn76 3.463553 1_555
La21 Sn94 3.463553 1_555
La21 Sn19 3.466014 1_555
La21 Sn1 3.466014 1_555
La21 Sn88 3.472821 1_555
La21 Sn82 3.472821 1_555
La21 Rh15 3.488151 1_555
La21 Rh1 3.488682 1_555
La21 Rh31 3.488682 1_555
La21 Sn74 3.494356 1_555
La21 Sn51 3.494356 1_555
La21 Rh23 3.500941 1_555
La22 Sn26 3.433568 1_555
La22 Sn46 3.433568 1_565
La22 Sn69 3.467334 1_555
La22 Sn31 3.467334 1_555
La22 Sn64 3.469214 1_555
La22 Sn36 3.469214 1_555
La22 Sn103 3.474311 1_555
La22 Sn72 3.474311 1_555
La22 Rh27 3.479526 1_565
La22 Rh12 3.487684 1_555
La22 Rh0 3.487684 1_555
La22 Rh22 3.507455 1_555
La22 Sn23 3.547505 1_565
La22 Sn71 3.547505 1_555
La22 Sn4 3.560637 1_565
La22 Sn47 3.560637 1_555
La23 Sn101 3.429670 1_555
La23 Sn14 3.429671 1_555
La23 Sn75 3.435170 1_555
La23 Sn26 3.435170 1_555
La23 Sn67 3.463553 1_555
La23 Sn33 3.463553 1_555
La23 Sn54 3.466014 1_555
La23 Sn17 3.466014 1_555
La23 Sn95 3.472821 1_555
La23 Sn97 3.472821 1_555
La23 Rh10 3.488151 1_555
La23 Rh2 3.488682 1_555
La23 Rh25 3.488682 1_555
La23 Sn12 3.494356 1_555
La23 Sn47 3.494356 1_555
La23 Rh0 3.500941 1_555
Sn0 Sn62 3.361560 1_555
Sn1 Sn91 3.361560 1_455
Sn2 Sn57 3.196326 1_555
Sn2 Sn21 3.196327 1_455
Sn2 Sn67 3.361560 1_555
Sn2 Sn20 3.361560 1_554
Sn2 Sn56 3.429450 1_454
Sn2 Sn96 3.429450 1_454
Sn2 Sn92 3.429450 1_455
Sn2 Sn24 3.490002 1_454
Sn3 Sn37 3.429450 1_555
Sn4 Sn70 3.196326 1_656
Sn5 Sn77 3.429450 1_655
Sn7 Sn70 3.490002 1_565
Sn8 Sn84 3.490002 1_566
Sn9 Sn91 3.490002 1_565
Sn10 Sn62 3.490002 1_555
Sn11 Sn42 3.196326 1_555
Sn12 Sn62 3.196326 1_565
Sn13 Sn37 3.429450 1_555
Sn14 Sn37 3.490002 1_554
Sn15 Sn91 3.361560 1_555
Sn16 Sn42 3.490002 1_555
Sn17 Sn2 3.361560 1_555
Sn18 Sn2 3.196326 1_656
Sn19 Sn77 3.361560 1_555
Sn22 Sn70 3.196326 1_665
Sn23 Sn62 3.196326 1_555
Sn25 Sn84 3.196326 1_555
Sn26 Sn62 3.490002 1_565
Sn27 Sn70 3.361560 1_555
Sn28 Sn37 3.490002 1_555
Sn29 Sn84 3.196326 1_556
Sn30 Sn70 3.490002 1_655
Sn31 Sn91 3.429450 1_565
Sn32 Sn70 3.196326 1_566
Sn33 Sn37 3.361560 1_554
Sn34 Sn77 3.196327 1_555
Sn35 Sn91 3.490002 1_455
Sn36 Sn42 3.429450 1_555
Sn37 Sn6 3.196326 1_556
Sn37 Sn74 3.196326 1_555
Sn37 Sn49 3.196327 1_556
Sn37 Sn82 3.361560 1_555
Sn37 Sn54 3.361560 1_556
Sn37 Sn43 3.429450 1_556
Sn37 Sn83 3.490002 1_555
Sn38 Sn84 3.490002 1_555
Sn39 Sn70 3.429450 1_666
Sn40 Sn77 3.196326 1_555
Sn41 Sn91 3.429450 1_465
Sn42 Sn51 3.196326 1_555
Sn42 Sn47 3.196326 1_555
Sn42 Sn88 3.361560 1_555
Sn42 Sn95 3.361560 1_555
Sn42 Sn99 3.361560 1_555
Sn42 Sn44 3.429450 1_555
Sn42 Sn75 3.490002 1_555
Sn42 Sn79 3.490002 1_555
Sn45 Sn84 3.429450 1_566
Sn46 Sn91 3.490002 1_555
Sn48 Sn91 3.429450 1_565
Sn50 Sn77 3.429450 1_555
Sn52 Sn77 3.361560 1_655
Sn53 Sn84 3.196326 1_566
Sn55 Sn77 3.196326 1_655
Sn58 Sn70 3.361560 1_555
Sn59 Sn77 3.490002 1_555
Sn60 Sn84 3.490002 1_565
Sn61 Sn84 3.429450 1_566
Sn62 Sn98 3.196327 1_555
Sn62 Sn80 3.361560 1_555
Sn62 Sn97 3.361560 1_545
Sn62 Sn69 3.429450 1_545
Sn62 Sn65 3.429450 1_545
Sn62 Sn86 3.429450 1_555
Sn62 Sn85 3.490002 1_545
Sn63 Sn84 3.361560 1_565
Sn64 Sn70 3.429450 1_666
Sn66 Sn84 3.361560 1_555
Sn68 Sn70 3.490002 1_556
Sn70 Sn87 3.361560 1_555
Sn70 Sn72 3.429450 1_444
Sn71 Sn91 3.196326 1_565
Sn73 Sn77 3.490002 1_655
Sn76 Sn91 3.361560 1_455
Sn77 Sn94 3.361560 1_555
Sn77 Sn93 3.429450 1_455
Sn78 Sn91 3.196327 1_465
Sn81 Sn84 3.361560 1_555
Sn84 Sn90 3.429450 1_554
Sn89 Sn91 3.196326 1_455
Sn100 Sn77 3.490002 1_655
Sn101 Sn2 3.490002 1_555
Sn102 Sn2 3.490002 1_556
Sn103 Sn42 3.429450 1_555
Rh0 Sn12 2.692249 1_555
Rh0 Sn47 2.692249 1_555
Rh0 Sn36 2.701912 1_555
Rh0 Sn69 2.701912 1_555
Rh0 Sn75 2.718923 1_555
Rh0 Sn26 2.718923 1_555
Rh1 Sn51 2.692072 1_555
Rh1 Sn34 2.692073 1_555
Rh1 Sn88 2.705578 1_555
Rh1 Sn19 2.705578 1_555
Rh1 Sn59 2.713834 1_555
Rh1 Sn75 2.713834 1_555
Rh2 Sn47 2.692072 1_555
Rh2 Sn49 2.692073 1_555
Rh2 Sn54 2.705578 1_555
Rh2 Sn95 2.705578 1_555
Rh2 Sn16 2.713834 1_555
Rh2 Sn14 2.713834 1_555
Rh3 Sn55 2.692249 1_555
Rh3 Sn11 2.692249 1_555
Rh3 Sn103 2.701912 1_555
Rh3 Sn93 2.701912 1_555
Rh3 Sn16 2.718923 1_555
Rh3 Sn100 2.718923 1_555
Rh4 Sn4 2.692072 1_454
Rh4 Sn21 2.692073 1_455
Rh4 Sn58 2.705578 1_555
Rh4 Sn67 2.705578 1_555
Rh4 Sn24 2.713834 1_454
Rh4 Sn30 2.713834 1_455
Rh5 Sn45 2.700167 1_545
Rh5 Sn69 2.700167 1_545
Rh5 Sn65 2.700167 1_545
Rh5 Sn61 2.700167 1_545
Rh5 Sn90 2.700167 1_555
Rh5 Sn86 2.700167 1_555
Rh6 Sn53 2.692248 1_555
Rh6 Sn40 2.692248 1_555
Rh6 Sn50 2.701912 1_555
Rh6 Sn61 2.701912 1_555
Rh6 Sn59 2.718923 1_555
Rh6 Sn8 2.718923 1_555
Rh7 Sn25 2.692249 1_566
Rh7 Sn22 2.692249 1_556
Rh7 Sn72 2.701912 1_555
Rh7 Sn45 2.701912 1_555
Rh7 Sn30 2.718923 1_566
Rh7 Sn60 2.718923 1_556
Rh8 Sn18 2.692073 1_455
Rh8 Sn40 2.692073 1_555
Rh8 Sn20 2.705578 1_555
Rh8 Sn94 2.705578 1_555
Rh8 Sn100 2.713834 1_455
Rh8 Sn102 2.713834 1_555
Rh9 Sn99 2.700429 1_555
Rh9 Sn87 2.700429 1_555
Rh9 Sn58 2.700429 1_555
Rh9 Sn27 2.700429 1_555
Rh9 Sn88 2.700429 1_555
Rh9 Sn95 2.700429 1_555
Rh10 Sn54 2.700429 1_555
Rh10 Sn20 2.700429 1_554
Rh10 Sn17 2.700429 1_555
Rh10 Sn33 2.700429 1_555
Rh10 Sn82 2.700429 1_554
Rh10 Sn67 2.700429 1_555
Rh11 Sn23 2.692248 1_555
Rh11 Sn18 2.692248 1_555
Rh11 Sn86 2.701912 1_555
Rh11 Sn96 2.701912 1_555
Rh11 Sn24 2.718923 1_555
Rh11 Sn10 2.718923 1_555
Rh12 Sn89 2.692249 1_665
Rh12 Sn4 2.692249 1_565
Rh12 Sn64 2.701912 1_555
Rh12 Sn31 2.701912 1_555
Rh12 Sn68 2.718923 1_665
Rh12 Sn46 2.718923 1_565
Rh13 Sn0 2.700429 1_555
Rh13 Sn81 2.700429 1_555
Rh13 Sn80 2.700429 1_555
Rh13 Sn66 2.700429 1_555
Rh13 Sn63 2.700429 1_545
Rh13 Sn97 2.700429 1_545
Rh14 Sn22 2.692072 1_445
Rh14 Sn78 2.692073 1_545
Rh14 Sn76 2.705578 1_555
Rh14 Sn87 2.705578 1_555
Rh14 Sn7 2.713834 1_545
Rh14 Sn9 2.713834 1_445
Rh15 Sn52 2.700429 1_455
Rh15 Sn76 2.700429 1_555
Rh15 Sn1 2.700429 1_555
Rh15 Sn15 2.700429 1_455
Rh15 Sn19 2.700429 1_555
Rh15 Sn94 2.700429 1_555
Rh16 Sn32 2.692072 1_544
Rh16 Sn29 2.692073 1_554
Rh16 Sn81 2.705578 1_555
Rh16 Sn27 2.705578 1_555
Rh16 Sn68 2.713834 1_554
Rh16 Sn8 2.713834 1_544
Rh17 Sn6 2.692073 1_555
Rh17 Sn53 2.692073 1_554
Rh17 Sn63 2.705578 1_555
Rh17 Sn33 2.705578 1_555
Rh17 Sn60 2.713834 1_555
Rh17 Sn28 2.713834 1_554
Rh18 Sn25 2.692072 1_555
Rh18 Sn55 2.692072 1_555
Rh18 Sn52 2.705578 1_555
Rh18 Sn66 2.705578 1_555
Rh18 Sn38 2.713834 1_555
Rh18 Sn73 2.713834 1_555
Rh19 Sn11 2.692072 1_555
Rh19 Sn98 2.692073 1_555
Rh19 Sn99 2.705578 1_555
Rh19 Sn0 2.705578 1_555
Rh19 Sn10 2.713834 1_555
Rh19 Sn79 2.713834 1_555
Rh20 Sn6 2.692248 1_555
Rh20 Sn71 2.692248 1_555
Rh20 Sn48 2.701912 1_555
Rh20 Sn43 2.701912 1_555
Rh20 Sn14 2.718923 1_555
Rh20 Sn9 2.718923 1_555
Rh21 Sn29 2.692248 1_555
Rh21 Sn49 2.692248 1_556
Rh21 Sn90 2.701912 1_555
Rh21 Sn3 2.701912 1_555
Rh21 Sn83 2.718923 1_555
Rh21 Sn38 2.718923 1_556
Rh22 Sn36 2.700167 1_555
Rh22 Sn64 2.700167 1_555
Rh22 Sn39 2.700167 1_555
Rh22 Sn72 2.700167 1_555
Rh22 Sn103 2.700167 1_555
Rh22 Sn44 2.700167 1_555
Rh23 Sn74 2.692249 1_555
Rh23 Sn51 2.692249 1_555
Rh23 Sn44 2.701912 1_555
Rh23 Sn13 2.701912 1_555
Rh23 Sn79 2.718923 1_555
Rh23 Sn28 2.718923 1_555
Rh24 Sn50 2.700167 1_555
Rh24 Sn31 2.700167 1_455
Rh24 Sn48 2.700167 1_455
Rh24 Sn41 2.700167 1_555
Rh24 Sn93 2.700167 1_455
Rh24 Sn5 2.700167 1_455
Rh25 Sn57 2.692072 1_555
Rh25 Sn12 2.692072 1_555
Rh25 Sn97 2.705578 1_555
Rh25 Sn17 2.705578 1_555
Rh25 Sn85 2.713834 1_555
Rh25 Sn101 2.713834 1_555
Rh26 Sn78 2.692248 1_555
Rh26 Sn98 2.692248 1_565
Rh26 Sn65 2.701912 1_555
Rh26 Sn41 2.701912 1_555
Rh26 Sn35 2.718923 1_565
Rh26 Sn85 2.718923 1_555
Rh27 Sn71 2.692073 1_545
Rh27 Sn23 2.692073 1_555
Rh27 Sn80 2.705578 1_555
Rh27 Sn15 2.705578 1_555
Rh27 Sn46 2.713834 1_555
Rh27 Sn26 2.713834 1_545
Rh28 Sn57 2.692249 1_656
Rh28 Sn32 2.692249 1_655
Rh28 Sn39 2.701912 1_555
Rh28 Sn56 2.701912 1_555
Rh28 Sn7 2.718923 1_656
Rh28 Sn102 2.718923 1_655
Rh29 Sn13 2.700167 1_554
Rh29 Sn92 2.700167 1_555
Rh29 Sn96 2.700167 1_554
Rh29 Sn3 2.700167 1_554
Rh29 Sn43 2.700167 1_555
Rh29 Sn56 2.700167 1_554
Rh30 Sn34 2.692248 1_655
Rh30 Sn21 2.692248 1_555
Rh30 Sn92 2.701912 1_555
Rh30 Sn5 2.701912 1_555
Rh30 Sn101 2.718923 1_655
Rh30 Sn73 2.718923 1_555
Rh31 Sn74 2.692072 1_555
Rh31 Sn89 2.692072 1_555
Rh31 Sn1 2.705578 1_555
Rh31 Sn82 2.705578 1_555
Rh31 Sn83 2.713834 1_555
Rh31 Sn35 2.713834 1_555
