# generated using pymatgen
data_Pb13(Br3O5)2
_symmetry_space_group_name_H-M   'P 1'
_cell_length_a   9.03894085
_cell_length_b   9.03894085
_cell_length_c   24.18419331
_cell_angle_alpha   82.20044083
_cell_angle_beta   82.20044083
_cell_angle_gamma   47.53686279
_symmetry_Int_Tables_number   1
_chemical_formula_structural   Pb13(Br3O5)2
_chemical_formula_sum   'Pb26 Br12 O20'
_cell_volume   1441.53578829
_cell_formula_units_Z   2
loop_
 _symmetry_equiv_pos_site_id
 _symmetry_equiv_pos_as_xyz
  1  'x, y, z'
loop_
 _atom_site_type_symbol
 _atom_site_label
 _atom_site_symmetry_multiplicity
 _atom_site_fract_x
 _atom_site_fract_y
 _atom_site_fract_z
 _atom_site_occupancy
  Pb  Pb0  1  0.37078560  0.16226967  0.93809005  1
  Pb  Pb1  1  0.98759771  0.84600168  0.13198353  1
  Pb  Pb2  1  0.25679530  0.39000056  0.64960311  1
  Pb  Pb3  1  0.77736288  0.22263712  0.25000000  1
  Pb  Pb4  1  0.84600168  0.98759771  0.63198353  1
  Pb  Pb5  1  0.88951071  0.31988483  0.70729366  1
  Pb  Pb6  1  0.71290848  0.19234684  0.01117754  1
  Pb  Pb7  1  0.01240229  0.15399832  0.86801647  1
  Pb  Pb8  1  0.05846839  0.21162475  0.08182071  1
  Pb  Pb9  1  0.11048929  0.68011517  0.29270634  1
  Pb  Pb10  1  0.74320470  0.60999944  0.35039689  1
  Pb  Pb11  1  0.39000056  0.25679530  0.14960311  1
  Pb  Pb12  1  0.16226967  0.37078560  0.43809005  1
  Pb  Pb13  1  0.68011517  0.11048929  0.79270634  1
  Pb  Pb14  1  0.31988483  0.88951071  0.20729366  1
  Pb  Pb15  1  0.28709152  0.80765316  0.98882246  1
  Pb  Pb16  1  0.94153161  0.78837525  0.91817929  1
  Pb  Pb17  1  0.22263712  0.77736288  0.75000000  1
  Pb  Pb18  1  0.62921440  0.83773033  0.06190995  1
  Pb  Pb19  1  0.15399832  0.01240229  0.36801647  1
  Pb  Pb20  1  0.19234684  0.71290848  0.51117754  1
  Pb  Pb21  1  0.80765316  0.28709152  0.48882246  1
  Pb  Pb22  1  0.78837525  0.94153161  0.41817929  1
  Pb  Pb23  1  0.60999944  0.74320470  0.85039689  1
  Pb  Pb24  1  0.21162475  0.05846839  0.58182071  1
  Pb  Pb25  1  0.83773033  0.62921440  0.56190995  1
  Br  Br0  1  0.50189934  0.55918573  0.13221062  1
  Br  Br1  1  0.63980746  0.98729127  0.25195418  1
  Br  Br2  1  0.44081427  0.49810066  0.36778938  1
  Br  Br3  1  0.98729127  0.63980746  0.75195418  1
  Br  Br4  1  0.55918573  0.50189934  0.63221062  1
  Br  Br5  1  0.82167204  0.50049740  0.95995239  1
  Br  Br6  1  0.50049740  0.82167204  0.45995239  1
  Br  Br7  1  0.49950260  0.17832796  0.54004761  1
  Br  Br8  1  0.17832796  0.49950260  0.04004761  1
  Br  Br9  1  0.49810066  0.44081427  0.86778938  1
  Br  Br10  1  0.01270873  0.36019254  0.24804582  1
  Br  Br11  1  0.36019254  0.01270873  0.74804582  1
  O  O0  1  0.01639054  0.32720558  0.51830388  1
  O  O1  1  0.98360946  0.67279442  0.48169612  1
  O  O2  1  0.04707639  0.34310032  0.63461466  1
  O  O3  1  0.97144094  0.98213481  0.31696618  1
  O  O4  1  0.95292361  0.65689968  0.36538534  1
  O  O5  1  0.98213481  0.97144094  0.81696618  1
  O  O6  1  0.00010983  0.01831452  0.55827974  1
  O  O7  1  0.02855906  0.01786519  0.68303382  1
  O  O8  1  0.04820317  0.66948597  0.59795003  1
  O  O9  1  0.34310032  0.04707639  0.13461466  1
  O  O10  1  0.65689968  0.95292361  0.86538534  1
  O  O11  1  0.33051403  0.95179683  0.90204997  1
  O  O12  1  0.32720558  0.01639054  0.01830388  1
  O  O13  1  0.01786519  0.02855906  0.18303382  1
  O  O14  1  0.67279442  0.98360946  0.98169612  1
  O  O15  1  0.95179683  0.33051403  0.40204997  1
  O  O16  1  0.01831452  0.00010983  0.05827974  1
  O  O17  1  0.66948597  0.04820317  0.09795003  1
  O  O18  1  0.98168548  -0.00010983  0.94172026  1
  O  O19  1  -0.00010983  0.98168548  0.44172026  1
loop_
_geom_bond_atom_site_label_1
_geom_bond_atom_site_label_2
_geom_bond_distance
_geom_bond_site_symmetry_2
Br0 Pb14 2.991132 1_555
Br1 Pb3 3.098637 1_565
Br1 Pb11 3.100510 1_565
Br2 Pb9 2.991132 1_555
Br3 Pb17 3.098637 1_655
Br3 Pb2 3.100510 1_655
Br4 Pb5 2.991132 1_555
Br5 Pb23 3.102294 1_555
Br6 Pb10 3.102294 1_555
Br7 Pb2 3.102294 1_555
Br8 Pb11 3.102294 1_555
Br9 Pb13 2.991132 1_555
Br10 Pb3 3.098637 1_455
Br10 Pb10 3.100510 1_455
Br11 Pb17 3.098637 1_545
Br11 Pb23 3.100510 1_545
O0 Pb24 2.304205 1_555
O0 Pb12 2.335970 1_555
O0 Pb25 2.353467 1_455
O0 Pb21 2.357690 1_455
O1 Pb22 2.304205 1_555
O1 Pb25 2.335970 1_555
O1 Pb12 2.353467 1_655
O1 Pb20 2.357690 1_655
O2 Pb5 2.187667 1_455
O2 Pb2 2.284255 1_555
O2 Pb24 2.381357 1_555
O2 Pb25 2.534121 1_455
O3 Pb9 2.231193 1_655
O3 Pb3 2.256639 1_565
O3 Pb19 2.361400 1_665
O4 Pb9 2.187667 1_655
O4 Pb10 2.284255 1_555
O4 Pb22 2.381357 1_555
O4 Pb12 2.534121 1_655
O5 Pb13 2.231193 1_565
O5 Pb17 2.256639 1_655
O5 Pb7 2.361400 1_665
O6 Pb4 2.215544 1_445
O6 Pb24 2.323695 1_555
O6 Pb21 2.393558 1_455
O6 Pb20 2.403551 1_545
O7 Pb5 2.231193 1_455
O7 Pb17 2.256639 1_545
O7 Pb4 2.361400 1_445
O8 Pb2 2.201991 1_555
O8 Pb4 2.328933 1_455
O8 Pb20 2.445454 1_555
O8 Pb25 2.445964 1_455
O9 Pb14 2.187667 1_545
O9 Pb11 2.284255 1_555
O9 Pb8 2.381357 1_555
O9 Pb18 2.534121 1_545
O10 Pb13 2.187667 1_565
O10 Pb23 2.284255 1_555
O10 Pb16 2.381357 1_555
O10 Pb0 2.534121 1_565
O11 Pb23 2.201991 1_555
O11 Pb7 2.328933 1_565
O11 Pb15 2.445454 1_555
O11 Pb0 2.445964 1_565
O12 Pb8 2.304205 1_555
O12 Pb0 2.335970 1_554
O12 Pb18 2.353467 1_545
O12 Pb15 2.357690 1_544
O13 Pb14 2.231193 1_545
O13 Pb3 2.256639 1_455
O13 Pb1 2.361400 1_445
O14 Pb16 2.304205 1_555
O14 Pb18 2.335970 1_556
O14 Pb0 2.353467 1_565
O14 Pb6 2.357690 1_566
O15 Pb10 2.201991 1_555
O15 Pb19 2.328933 1_655
O15 Pb21 2.445454 1_555
O15 Pb12 2.445964 1_655
O16 Pb1 2.215544 1_445
O16 Pb8 2.323695 1_555
O16 Pb15 2.393558 1_544
O16 Pb6 2.403551 1_455
O17 Pb11 2.201991 1_555
O17 Pb1 2.328933 1_545
O17 Pb6 2.445454 1_555
O17 Pb18 2.445964 1_545
O18 Pb7 2.215544 1_655
O18 Pb16 2.323695 1_545
O18 Pb6 2.393558 1_556
O18 Pb15 2.403551 1_645
O19 Pb19 2.215544 1_565
O19 Pb22 2.323695 1_455
O19 Pb20 2.393558 1_555
O19 Pb21 2.403551 1_465
