# generated using pymatgen
data_BaMnO3
_symmetry_space_group_name_H-M   'P 1'
_cell_length_a   12.31945691
_cell_length_b   12.31945691
_cell_length_c   12.31945692
_cell_angle_alpha   26.78387695
_cell_angle_beta   26.78387695
_cell_angle_gamma   26.78387396
_symmetry_Int_Tables_number   1
_chemical_formula_structural   BaMnO3
_chemical_formula_sum   'Ba5 Mn5 O15'
_cell_volume   334.78723854
_cell_formula_units_Z   5
loop_
 _symmetry_equiv_pos_site_id
 _symmetry_equiv_pos_as_xyz
  1  'x, y, z'
loop_
 _atom_site_type_symbol
 _atom_site_label
 _atom_site_symmetry_multiplicity
 _atom_site_fract_x
 _atom_site_fract_y
 _atom_site_fract_z
 _atom_site_occupancy
  Ba  Ba0  1  0.73527416  0.73527416  0.73527416  1
  Ba  Ba1  1  0.86587611  0.86587611  0.86587611  1
  Ba  Ba2  1  -0.00000000  -0.00000000  0.00000000  1
  Ba  Ba3  1  0.13412389  0.13412389  0.13412389  1
  Ba  Ba4  1  0.26472584  0.26472584  0.26472584  1
  Mn  Mn0  1  0.56914027  0.56914027  0.56914027  1
  Mn  Mn1  1  0.63892197  0.63892197  0.63892197  1
  Mn  Mn2  1  0.36107803  0.36107803  0.36107803  1
  Mn  Mn3  1  0.43085973  0.43085973  0.43085973  1
  Mn  Mn4  1  0.50000000  0.50000000  0.50000000  1
  O  O0  1  0.83036169  0.38594282  0.38594282  1
  O  O1  1  0.38594282  0.38594282  0.83036169  1
  O  O2  1  0.38594282  0.83036169  0.38594282  1
  O  O3  1  -0.00000000  0.50000000  0.50000000  1
  O  O4  1  0.50000000  -0.00000000  0.50000000  1
  O  O5  1  0.50000000  0.50000000  0.00000000  1
  O  O6  1  0.61405718  0.16963831  0.61405718  1
  O  O7  1  0.61405718  0.61405718  0.16963831  1
  O  O8  1  0.16963831  0.61405718  0.61405718  1
  O  O9  1  0.25109737  0.25109737  0.68910416  1
  O  O10  1  0.68910416  0.25109737  0.25109737  1
  O  O11  1  0.25109737  0.68910416  0.25109737  1
  O  O12  1  0.74890263  0.31089584  0.74890263  1
  O  O13  1  0.74890263  0.74890263  0.31089584  1
  O  O14  1  0.31089584  0.74890263  0.74890263  1
loop_
_geom_bond_atom_site_label_1
_geom_bond_atom_site_label_2
_geom_bond_distance
_geom_bond_site_symmetry_2
Ba0 O9 2.865814 1_565
Ba0 O9 2.865814 1_655
Ba0 O10 2.865814 1_565
Ba0 O11 2.865814 1_655
Ba0 O11 2.865814 1_556
Ba0 O10 2.865814 1_556
Ba0 O6 2.922596 1_565
Ba0 O8 2.922596 1_655
Ba0 O7 2.922596 1_556
Ba0 O4 2.946749 1_565
Ba0 O3 2.946749 1_655
Ba0 O5 2.946749 1_556
Ba1 O1 2.859718 1_655
Ba1 O1 2.859718 1_565
Ba1 O2 2.859718 1_655
Ba1 O0 2.859718 1_565
Ba1 O2 2.859718 1_556
Ba1 O0 2.859718 1_556
Ba1 O8 2.996705 1_655
Ba1 O6 2.996705 1_565
Ba1 O7 2.996705 1_556
Ba1 O12 3.115515 1_565
Ba1 O14 3.115515 1_655
Ba1 O13 3.115515 1_556
Ba2 O5 2.853322 1_545
Ba2 O5 2.853322 1_455
Ba2 O4 2.853322 1_554
Ba2 O3 2.853322 1_545
Ba2 O3 2.853322 1_554
Ba2 O4 2.853322 1_455
Ba2 O10 2.930062 1_455
Ba2 O11 2.930062 1_545
Ba2 O14 2.930062 1_544
Ba2 O12 2.930062 1_454
Ba2 O9 2.930062 1_554
Ba2 O13 2.930062 1_445
Ba3 O7 2.859718 1_455
Ba3 O7 2.859718 1_545
Ba3 O6 2.859718 1_455
Ba3 O8 2.859718 1_545
Ba3 O6 2.859718 1_554
Ba3 O8 2.859718 1_554
Ba3 O2 2.996705 1_545
Ba3 O0 2.996705 1_455
Ba3 O1 2.996705 1_554
Ba3 O11 3.115515 1_545
Ba3 O10 3.115515 1_455
Ba3 O9 3.115515 1_554
Ba4 O13 2.865814 1_455
Ba4 O13 2.865814 1_545
Ba4 O14 2.865814 1_545
Ba4 O12 2.865814 1_455
Ba4 O14 2.865814 1_554
Ba4 O12 2.865814 1_554
Ba4 O2 2.922596 1_545
Ba4 O0 2.922596 1_455
Ba4 O1 2.922596 1_554
Ba4 O4 2.946749 1_555
Ba4 O3 2.946749 1_555
Ba4 O5 2.946749 1_555
Mn0 O14 1.878306 1_555
Mn0 O12 1.878306 1_555
Mn0 O13 1.878306 1_555
Mn0 O0 1.924244 1_555
Mn0 O2 1.924244 1_555
Mn0 O1 1.924244 1_555
Mn1 O3 1.920951 1_655
Mn1 O4 1.920951 1_565
Mn1 O5 1.920951 1_556
Mn1 O12 1.930848 1_555
Mn1 O14 1.930848 1_555
Mn1 O13 1.930848 1_555
Mn2 O4 1.920951 1_555
Mn2 O3 1.920951 1_555
Mn2 O5 1.920951 1_555
Mn2 O11 1.930848 1_555
Mn2 O10 1.930848 1_555
Mn2 O9 1.930848 1_555
Mn3 O10 1.878306 1_555
Mn3 O11 1.878306 1_555
Mn3 O9 1.878306 1_555
Mn3 O8 1.924244 1_555
Mn3 O6 1.924244 1_555
Mn3 O7 1.924244 1_555
Mn4 O6 1.901891 1_555
Mn4 O2 1.901891 1_555
Mn4 O0 1.901891 1_555
Mn4 O8 1.901891 1_555
Mn4 O1 1.901891 1_555
Mn4 O7 1.901891 1_555
