# generated using pymatgen
data_K2FeH2OF5
_symmetry_space_group_name_H-M   'P 1'
_cell_length_a   6.40240665
_cell_length_b   6.40326314
_cell_length_c   15.89758599
_cell_angle_alpha   84.83164991
_cell_angle_beta   95.12775834
_cell_angle_gamma   102.34540542
_symmetry_Int_Tables_number   1
_chemical_formula_structural   K2FeH2OF5
_chemical_formula_sum   'K8 Fe4 H8 O4 F20'
_cell_volume   632.43415144
_cell_formula_units_Z   4
loop_
 _symmetry_equiv_pos_site_id
 _symmetry_equiv_pos_as_xyz
  1  'x, y, z'
loop_
 _atom_site_type_symbol
 _atom_site_label
 _atom_site_symmetry_multiplicity
 _atom_site_fract_x
 _atom_site_fract_y
 _atom_site_fract_z
 _atom_site_occupancy
  K  K0  1  0.29842900  0.70386400  0.48136700  1
  K  K1  1  0.29837500  0.70377900  0.98146100  1
  K  K2  1  0.70391100  0.29866200  0.26859300  1
  K  K3  1  0.70377800  0.29862300  0.76857900  1
  K  K4  1  0.70159900  0.29617400  0.01860200  1
  K  K5  1  0.70155900  0.29632100  0.51851900  1
  K  K6  1  0.29609500  0.70138600  0.23140200  1
  K  K7  1  0.29596700  0.70130600  0.73141300  1
  Fe  Fe0  1  0.79682000  0.79708100  0.87505100  1
  Fe  Fe1  1  0.20321200  0.20281600  0.62492100  1
  Fe  Fe2  1  0.79681100  0.79712300  0.37496100  1
  Fe  Fe3  1  0.20339500  0.20282300  0.12508100  1
  H  H0  1  0.09632600  0.15102200  0.42298400  1
  H  H1  1  0.09642600  0.15098000  0.92301200  1
  H  H2  1  0.15088300  0.09651600  0.32703000  1
  H  H3  1  0.15073100  0.09652000  0.82702400  1
  H  H4  1  0.90360100  0.84912200  0.07702600  1
  H  H5  1  0.90338000  0.84899200  0.57697400  1
  H  H6  1  0.84910700  0.90355700  0.17299300  1
  H  H7  1  0.84914500  0.90363400  0.67294500  1
  O  O0  1  0.05506800  0.05550500  0.37499300  1
  O  O1  1  0.05503800  0.05554600  0.87499500  1
  O  O2  1  0.94499700  0.94451800  0.12505200  1
  O  O3  1  0.94487000  0.94448600  0.62499400  1
  F  F0  1  0.55451600  0.55462000  0.37495600  1
  F  F1  1  0.55446400  0.55449400  0.87505400  1
  F  F2  1  0.44568000  0.44543500  0.12513100  1
  F  F3  1  0.44549300  0.44543300  0.62489400  1
  F  F4  1  0.87095400  0.72222500  0.49559600  1
  F  F5  1  0.87097400  0.72226000  0.99566100  1
  F  F6  1  0.72213400  0.87181100  0.25430000  1
  F  F7  1  0.72199100  0.87147200  0.75448000  1
  F  F8  1  0.12913500  0.27774800  0.00445000  1
  F  F9  1  0.12901000  0.27776000  0.50432300  1
  F  F10  1  0.27799300  0.12823200  0.24572700  1
  F  F11  1  0.27793800  0.12843800  0.74550000  1
  F  F12  1  0.98678700  0.62208400  0.34359800  1
  F  F13  1  0.98681100  0.62195100  0.84368200  1
  F  F14  1  0.62167300  0.98710900  0.40626900  1
  F  F15  1  0.62173700  0.98694700  0.90639400  1
  F  F16  1  0.01322200  0.37791000  0.15639800  1
  F  F17  1  0.01311800  0.37789300  0.65629000  1
  F  F18  1  0.37853300  0.01282400  0.09374400  1
  F  F19  1  0.37831100  0.01299600  0.59358200  1
loop_
_geom_bond_atom_site_label_1
_geom_bond_atom_site_label_2
_geom_bond_distance
_geom_bond_site_symmetry_2
Fe0 O1 2.074182 1_665
Fe1 O3 2.074137 1_445
Fe2 O0 2.074005 1_665
Fe3 O2 2.074262 1_445
H0 O0 1.002445 1_555
H1 O1 1.002496 1_555
H2 O0 1.002661 1_555
H3 O1 1.002260 1_555
H4 O2 1.002462 1_555
H5 O3 1.002816 1_555
H6 O2 1.002664 1_555
H7 O3 1.002087 1_555
F0 Fe2 1.946182 1_555
F0 K2 2.814075 1_555
F0 K0 2.814303 1_555
F0 K6 2.903860 1_555
F0 K5 2.903865 1_555
F1 Fe0 1.946764 1_555
F1 K1 2.814405 1_555
F1 K3 2.814630 1_555
F1 K4 2.903995 1_556
F1 K7 2.905223 1_555
F2 Fe3 1.946581 1_555
F2 K6 2.813674 1_555
F2 K4 2.814880 1_555
F2 K2 2.902153 1_555
F2 K1 2.905860 1_554
F3 Fe1 1.946584 1_555
F3 K5 2.813378 1_555
F3 K7 2.815820 1_555
F3 K0 2.903992 1_555
F3 K3 2.904941 1_555
F4 H5 1.563591 1_555
F4 Fe2 1.975406 1_555
F4 K5 2.715392 1_555
F4 K0 2.794368 1_655
F5 H4 1.563690 1_556
F5 Fe0 1.974950 1_555
F5 K4 2.716446 1_556
F5 K1 2.794016 1_655
F6 H6 1.562942 1_555
F6 Fe2 1.976216 1_555
F6 K6 2.717507 1_555
F6 K2 2.790848 1_565
F7 H7 1.566575 1_555
F7 Fe0 1.974699 1_555
F7 K7 2.717308 1_555
F7 K3 2.792211 1_565
F8 H1 1.564324 1_554
F8 Fe3 1.975536 1_555
F8 K1 2.716018 1_554
F8 K4 2.794654 1_455
F9 H0 1.562866 1_555
F9 Fe1 1.974999 1_555
F9 K0 2.716625 1_555
F9 K5 2.794457 1_455
F10 H2 1.563395 1_555
F10 Fe3 1.975762 1_555
F10 K2 2.716771 1_555
F10 K6 2.790704 1_545
F11 H3 1.566702 1_555
F11 Fe1 1.974664 1_555
F11 K3 2.716280 1_555
F11 K7 2.791753 1_545
F12 Fe2 1.943260 1_555
F12 K6 2.720130 1_655
F12 K2 2.728692 1_555
F12 K0 2.833889 1_655
F13 Fe0 1.943797 1_555
F13 K7 2.720211 1_655
F13 K3 2.729457 1_555
F13 K1 2.833739 1_655
F14 Fe2 1.943489 1_555
F14 K5 2.721526 1_565
F14 K0 2.728429 1_555
F14 K2 2.831558 1_565
F15 Fe0 1.942840 1_555
F15 K4 2.721131 1_566
F15 K1 2.728477 1_555
F15 K3 2.833500 1_565
F16 Fe3 1.944193 1_555
F16 K2 2.720143 1_455
F16 K6 2.728903 1_555
F16 K4 2.834099 1_455
F17 Fe1 1.944057 1_555
F17 K3 2.721330 1_455
F17 K7 2.729411 1_555
F17 K5 2.833458 1_455
F18 Fe3 1.943721 1_555
F18 K1 2.721052 1_544
F18 K4 2.728306 1_555
F18 K6 2.831046 1_545
F19 Fe1 1.942665 1_555
F19 K0 2.720752 1_545
F19 K5 2.728435 1_555
F19 K7 2.833941 1_545
