# generated using pymatgen
data_Cs2Ti(Si2O5)3
_symmetry_space_group_name_H-M   'P 1'
_cell_length_a   7.49371380
_cell_length_b   7.49371377
_cell_length_c   15.18912702
_cell_angle_alpha   76.51629494
_cell_angle_beta   76.51629491
_cell_angle_gamma   59.87862249
_symmetry_Int_Tables_number   1
_chemical_formula_structural   Cs2Ti(Si2O5)3
_chemical_formula_sum   'Cs4 Ti2 Si12 O30'
_cell_volume   710.56715492
_cell_formula_units_Z   2
loop_
 _symmetry_equiv_pos_site_id
 _symmetry_equiv_pos_as_xyz
  1  'x, y, z'
loop_
 _atom_site_type_symbol
 _atom_site_label
 _atom_site_symmetry_multiplicity
 _atom_site_fract_x
 _atom_site_fract_y
 _atom_site_fract_z
 _atom_site_occupancy
  Cs  Cs0  1  0.14583786  0.41574127  0.69482917  1
  Cs  Cs1  1  0.41574127  0.14583786  0.19482917  1
  Cs  Cs2  1  0.88706796  0.62969880  0.02065183  1
  Cs  Cs3  1  0.62969880  0.88706796  0.52065183  1
  Ti  Ti0  1  0.29805300  0.77987622  0.09838212  1
  Ti  Ti1  1  0.77987622  0.29805300  0.59838212  1
  Si  Si0  1  0.40833222  0.55068153  0.46333478  1
  Si  Si1  1  0.55068153  0.40833222  0.96333478  1
  Si  Si2  1  0.98367584  0.65235686  0.25906386  1
  Si  Si3  1  0.65235686  0.98367584  0.75906386  1
  Si  Si4  1  0.13965029  0.36779058  0.44692252  1
  Si  Si5  1  0.36779058  0.13965029  0.94692252  1
  Si  Si6  1  0.63402717  0.53351661  0.25851003  1
  Si  Si7  1  0.53351661  0.63402717  0.75851003  1
  Si  Si8  1  0.02164168  0.07792756  0.93494990  1
  Si  Si9  1  0.07792756  0.02164168  0.43494990  1
  Si  Si10  1  0.92852072  0.07024558  0.24818322  1
  Si  Si11  1  0.07024558  0.92852072  0.74818322  1
  O  O0  1  0.43392320  0.94730893  0.02626401  1
  O  O1  1  0.94730893  0.43392320  0.52626401  1
  O  O2  1  0.47468731  0.69905258  0.19084249  1
  O  O3  1  0.69905258  0.47468731  0.69084249  1
  O  O4  1  0.08511286  0.03238625  0.15529772  1
  O  O5  1  0.03238625  0.08511286  0.65529772  1
  O  O6  1  0.50351863  0.53452302  0.04380195  1
  O  O7  1  0.53452302  0.50351863  0.54380195  1
  O  O8  1  0.19848501  0.77436448  0.46996284  1
  O  O9  1  0.77436448  0.19848501  0.96996384  1
  O  O10  1  0.15578063  0.62766593  0.17185541  1
  O  O11  1  0.62766593  0.15578063  0.67185541  1
  O  O12  1  0.84476859  0.89600630  0.27704352  1
  O  O13  1  0.89600630  0.84476859  0.77704352  1
  O  O14  1  0.33395702  0.37452885  0.47393436  1
  O  O15  1  0.37452885  0.33395702  0.97393436  1
  O  O16  1  0.08633112  0.51617878  0.35032914  1
  O  O17  1  0.51617878  0.08633112  0.85032914  1
  O  O18  1  0.13191285  0.86447060  -0.00029814  1
  O  O19  1  0.86447060  0.13191285  0.49970186  1
  O  O20  1  0.29446388  0.71788664  0.74292231  1
  O  O21  1  0.71788664  0.29446388  0.24292231  1
  O  O22  1  0.56142521  0.54016398  0.86400436  1
  O  O23  1  0.54016398  0.56142521  0.36400436  1
  O  O24  1  0.05367077  0.04440587  0.82965989  1
  O  O25  1  0.04440587  0.05367077  0.32965989  1
  O  O26  1  0.22733064  0.12714696  0.43034447  1
  O  O27  1  0.12714696  0.22733064  0.93034447  1
  O  O28  1  0.57192655  0.83593882  0.73864924  1
  O  O29  1  0.83593882  0.57192655  0.23864924  1
loop_
_geom_bond_atom_site_label_1
_geom_bond_atom_site_label_2
_geom_bond_distance
_geom_bond_site_symmetry_2
Cs0 O11 3.102186 1_555
Cs0 O3 3.163250 1_455
Cs0 O13 3.184587 1_455
Cs0 O1 3.193352 1_455
Cs0 O5 3.204368 1_555
Cs0 O20 3.253057 1_555
Cs0 O24 3.320582 1_555
Cs0 O14 3.343736 1_555
Cs0 O7 3.504588 1_555
Cs0 O27 3.524119 1_555
Cs0 O17 3.582747 1_555
Cs1 O10 3.102186 1_555
Cs1 O2 3.163250 1_545
Cs1 O12 3.184587 1_545
Cs1 O0 3.193352 1_545
Cs1 O4 3.204368 1_555
Cs1 O21 3.253057 1_555
Cs1 O25 3.320582 1_555
Cs1 O15 3.343736 1_554
Cs1 O6 3.504588 1_555
Cs1 O26 3.524119 1_555
Cs1 O16 3.582747 1_555
Cs2 O0 3.008478 1_555
Cs2 O18 3.044568 1_655
Cs2 O27 3.089214 1_654
Cs2 O15 3.187170 1_654
Cs2 O29 3.194458 1_555
Cs2 O6 3.219100 1_555
Cs2 O10 3.382188 1_655
Cs2 O2 3.433882 1_555
Cs2 O13 3.674942 1_554
Cs3 O1 3.008478 1_555
Cs3 O19 3.044568 1_565
Cs3 O26 3.089214 1_565
Cs3 O14 3.187170 1_565
Cs3 O28 3.194458 1_555
Cs3 O7 3.219100 1_555
Cs3 O11 3.382188 1_565
Cs3 O3 3.433882 1_555
Cs3 O12 3.674942 1_555
O0 Si5 1.589648 1_564
O0 Ti0 1.982923 1_555
O1 Si4 1.589648 1_655
O1 Ti1 1.982923 1_555
O2 Si6 1.584946 1_555
O2 Ti0 1.938242 1_555
O3 Si7 1.584946 1_555
O3 Ti1 1.938242 1_555
O4 Si10 1.590111 1_455
O4 Ti0 1.990785 1_545
O5 Si11 1.590111 1_545
O5 Ti1 1.990785 1_455
O6 Si1 1.585901 1_554
O6 Ti0 1.926839 1_555
O7 Si0 1.585901 1_555
O7 Ti1 1.926839 1_555
O8 Si9 1.617712 1_565
O8 Si0 1.628495 1_555
O9 Si8 1.617715 1_655
O9 Si1 1.628496 1_555
O10 Si2 1.590693 1_455
O10 Ti0 1.937832 1_555
O11 Si3 1.590693 1_545
O11 Ti1 1.937832 1_555
O12 Si2 1.638361 1_555
O12 Si10 1.648689 1_565
O13 Si3 1.638361 1_555
O13 Si11 1.648689 1_655
O14 Si4 1.628834 1_555
O14 Si0 1.636007 1_555
O15 Si5 1.628834 1_555
O15 Si1 1.636007 1_555
O16 Si2 1.613851 1_455
O16 Si4 1.617209 1_555
O17 Si3 1.613851 1_545
O17 Si5 1.617209 1_555
O18 Si8 1.589822 1_564
O18 Ti0 1.957933 1_555
O19 Si9 1.589822 1_655
O19 Ti1 1.957933 1_555
O20 Si11 1.629526 1_555
O20 Si7 1.630518 1_555
O21 Si10 1.629526 1_555
O21 Si6 1.630518 1_555
O22 Si1 1.608371 1_555
O22 Si7 1.609068 1_555
O23 Si0 1.608371 1_555
O23 Si6 1.609068 1_555
O24 Si11 1.619368 1_545
O24 Si8 1.620550 1_555
O25 Si10 1.619368 1_455
O25 Si9 1.620550 1_555
O26 Si4 1.640869 1_555
O26 Si9 1.646073 1_555
O27 Si5 1.640869 1_555
O27 Si8 1.646073 1_555
O28 Si3 1.613088 1_555
O28 Si7 1.626956 1_555
O29 Si2 1.613088 1_555
O29 Si6 1.626956 1_555
