# generated using pymatgen
data_H4N2O3
_symmetry_space_group_name_H-M   'P 1'
_cell_length_a   4.91471928
_cell_length_b   5.11663571
_cell_length_c   5.72371167
_cell_angle_alpha   90.00000000
_cell_angle_beta   90.00000000
_cell_angle_gamma   90.00000000
_symmetry_Int_Tables_number   1
_chemical_formula_structural   H4N2O3
_chemical_formula_sum   'H8 N4 O6'
_cell_volume   143.93319388
_cell_formula_units_Z   2
loop_
 _symmetry_equiv_pos_site_id
 _symmetry_equiv_pos_as_xyz
  1  'x, y, z'
loop_
 _atom_site_type_symbol
 _atom_site_label
 _atom_site_symmetry_multiplicity
 _atom_site_fract_x
 _atom_site_fract_y
 _atom_site_fract_z
 _atom_site_occupancy
  H  H0  1  0.80697350  0.50000000  0.85126662  1
  H  H1  1  0.80697350  0.50000000  0.14873338  1
  H  H2  1  0.19302650  -0.00000000  0.64873338  1
  H  H3  1  0.19302650  -0.00000000  0.35126662  1
  H  H4  1  0.04619807  0.33685095  0.00000000  1
  H  H5  1  0.04619807  0.66314905  0.00000000  1
  H  H6  1  0.95380193  0.16314905  0.50000000  1
  H  H7  1  0.95380193  0.83685095  0.50000000  1
  N  N0  1  0.92442693  0.50000000  0.00000000  1
  N  N1  1  0.07557307  -0.00000000  0.50000000  1
  N  N2  1  0.49384337  0.50000000  0.50000000  1
  N  N3  1  0.50615663  -0.00000000  0.00000000  1
  O  O0  1  0.75579971  0.50000000  0.50000000  1
  O  O1  1  0.24420029  -0.00000000  0.00000000  1
  O  O2  1  0.37055077  0.50000000  0.69068932  1
  O  O3  1  0.37055077  0.50000000  0.30931068  1
  O  O4  1  0.62944923  -0.00000000  0.80931068  1
  O  O5  1  0.62944923  -0.00000000  0.19068932  1
loop_
_geom_bond_atom_site_label_1
_geom_bond_atom_site_label_2
_geom_bond_distance
_geom_bond_site_symmetry_2
H0 N0 1.028563 1_556
H1 N0 1.028563 1_555
H2 N1 1.028563 1_555
H3 N1 1.028563 1_555
H4 N0 1.027140 1_455
H5 N0 1.027140 1_455
H6 N1 1.027140 1_655
H7 N1 1.027140 1_665
N2 O3 1.248374 1_555
N2 O2 1.248374 1_555
N2 O0 1.287442 1_555
N3 O4 1.248374 1_554
N3 O5 1.248374 1_555
N3 O1 1.287442 1_555
