# generated using pymatgen
data_BaZn(SeO3)2
_symmetry_space_group_name_H-M   'P 1'
_cell_length_a   14.52547600
_cell_length_b   5.61762800
_cell_length_c   9.87297008
_cell_angle_alpha   70.31943663
_cell_angle_beta   90.00000000
_cell_angle_gamma   90.00000000
_symmetry_Int_Tables_number   1
_chemical_formula_structural   BaZn(SeO3)2
_chemical_formula_sum   'Ba4 Zn4 Se8 O24'
_cell_volume   758.56120964
_cell_formula_units_Z   4
loop_
 _symmetry_equiv_pos_site_id
 _symmetry_equiv_pos_as_xyz
  1  'x, y, z'
loop_
 _atom_site_type_symbol
 _atom_site_label
 _atom_site_symmetry_multiplicity
 _atom_site_fract_x
 _atom_site_fract_y
 _atom_site_fract_z
 _atom_site_occupancy
  Ba  Ba0  1  0.26308700  0.30737100  0.84815800  1
  Ba  Ba1  1  0.23691300  0.30737100  0.34815800  1
  Ba  Ba2  1  0.73691300  0.69262900  0.15184200  1
  Ba  Ba3  1  0.76308700  0.69262900  0.65184200  1
  Zn  Zn0  1  0.57604100  0.24312300  0.50713400  1
  Zn  Zn1  1  0.42395900  0.75687700  0.49286600  1
  Zn  Zn2  1  0.07604100  0.75687700  0.99286600  1
  Zn  Zn3  1  0.92395900  0.24312300  0.00713400  1
  Se  Se0  1  0.54036400  0.15484500  0.21516700  1
  Se  Se1  1  0.04036400  0.84515500  0.28483300  1
  Se  Se2  1  0.36989900  0.84134900  0.16951100  1
  Se  Se3  1  0.95963600  0.15484500  0.71516700  1
  Se  Se4  1  0.63010100  0.15865100  0.83048900  1
  Se  Se5  1  0.86989900  0.15865100  0.33048900  1
  Se  Se6  1  0.45963600  0.84515500  0.78483300  1
  Se  Se7  1  0.13010100  0.84134900  0.66951100  1
  O  O0  1  0.65547900  0.31781000  0.64046700  1
  O  O1  1  0.60527200  0.89270400  0.51421400  1
  O  O2  1  0.39472800  0.10729600  0.48578600  1
  O  O3  1  0.57903200  0.36867100  0.29685200  1
  O  O4  1  0.42096800  0.63132900  0.70314800  1
  O  O5  1  0.07903200  0.63132900  0.20314800  1
  O  O6  1  0.34452100  0.68219000  0.35953300  1
  O  O7  1  0.32569500  0.14947700  0.13216900  1
  O  O8  1  0.92096800  0.36867100  0.79685200  1
  O  O9  1  0.86513000  0.11198800  0.62910200  1
  O  O10  1  0.67430500  0.85052300  0.86783100  1
  O  O11  1  0.89472800  0.89270400  0.01421400  1
  O  O12  1  0.63487000  0.11198800  0.12910200  1
  O  O13  1  0.55571500  0.83190400  0.40264100  1
  O  O14  1  0.84452100  0.31781000  0.14046700  1
  O  O15  1  0.13487000  0.88801200  0.37089800  1
  O  O16  1  0.10527200  0.10729600  0.98578600  1
  O  O17  1  0.82569500  0.85052300  0.36783100  1
  O  O18  1  0.94428500  0.83190400  0.90264100  1
  O  O19  1  0.44428500  0.16809600  0.59735900  1
  O  O20  1  0.05571500  0.16809600  0.09735900  1
  O  O21  1  0.36513000  0.88801200  0.87089800  1
  O  O22  1  0.17430500  0.14947700  0.63216900  1
  O  O23  1  0.15547900  0.68219000  0.85953300  1
loop_
_geom_bond_atom_site_label_1
_geom_bond_atom_site_label_2
_geom_bond_distance
_geom_bond_site_symmetry_2
Ba0 O23 2.654912 1_555
Ba0 O16 2.708457 1_555
Ba0 O21 2.727811 1_545
Ba0 O7 2.793054 1_556
Ba0 O22 2.875965 1_555
Ba0 O4 2.977573 1_555
Ba1 O6 2.654912 1_555
Ba1 O2 2.708457 1_555
Ba1 O15 2.727811 1_545
Ba1 O22 2.793054 1_555
Ba1 O7 2.875965 1_555
Ba1 O5 2.977573 1_555
Ba2 O14 2.654912 1_555
Ba2 O11 2.708457 1_555
Ba2 O12 2.727811 1_565
Ba2 O10 2.793054 1_554
Ba2 O17 2.875965 1_555
Ba2 O3 2.977573 1_555
Ba3 O0 2.654912 1_555
Ba3 O1 2.708457 1_555
Ba3 O9 2.727811 1_565
Ba3 O17 2.793054 1_555
Ba3 O10 2.875965 1_555
Ba3 O8 2.977573 1_555
O0 Se4 1.823503 1_555
O0 Zn0 1.900621 1_555
O1 O13 1.449714 1_555
O1 Zn0 1.991876 1_565
O2 Zn1 1.991876 1_545
O3 Se0 1.749638 1_555
O3 Zn0 1.955324 1_555
O4 Se6 1.749638 1_555
O4 Zn1 1.955324 1_555
O5 Se1 1.749638 1_555
O5 Zn2 1.955324 1_554
O6 Se2 1.823503 1_555
O6 Zn1 1.900621 1_555
O7 Se2 1.764807 1_545
O8 Se3 1.749638 1_555
O8 Zn3 1.955324 1_556
O9 Se3 1.673978 1_555
O10 Se4 1.764807 1_565
O11 O18 1.449714 1_554
O11 Zn3 1.991876 1_565
O12 Se0 1.673978 1_555
O13 Zn1 2.093076 1_555
O13 Se0 2.122528 1_565
O14 Se5 1.823503 1_555
O14 Zn3 1.900621 1_555
O15 Se1 1.673978 1_555
O16 O20 1.449714 1_556
O16 Zn2 1.991876 1_545
O17 Se5 1.764807 1_565
O18 Zn2 2.093076 1_655
O18 Se3 2.122528 1_565
O19 O2 1.449714 1_555
O19 Zn0 2.093076 1_555
O19 Se6 2.122528 1_545
O20 Zn3 2.093076 1_455
O20 Se1 2.122528 1_545
O21 Se6 1.673978 1_555
O22 Se7 1.764807 1_545
O23 Se7 1.823503 1_555
O23 Zn2 1.900621 1_555
