# generated using pymatgen
data_Ca3Cu3(PO4)4
_symmetry_space_group_name_H-M   'P 1'
_cell_length_a   4.88689240
_cell_length_b   8.90191870
_cell_length_c   16.56455540
_cell_angle_alpha   61.82774402
_cell_angle_beta   90.00000000
_cell_angle_gamma   90.00000000
_symmetry_Int_Tables_number   1
_chemical_formula_structural   Ca3Cu3(PO4)4
_chemical_formula_sum   'Ca6 Cu6 P8 O32'
_cell_volume   635.23489854
_cell_formula_units_Z   2
loop_
 _symmetry_equiv_pos_site_id
 _symmetry_equiv_pos_as_xyz
  1  'x, y, z'
loop_
 _atom_site_type_symbol
 _atom_site_label
 _atom_site_symmetry_multiplicity
 _atom_site_fract_x
 _atom_site_fract_y
 _atom_site_fract_z
 _atom_site_occupancy
  Ca  Ca0  1  0.46492556  0.19592782  0.26543967  1
  Ca  Ca1  1  0.96492556  0.80407218  0.23456033  1
  Ca  Ca2  1  0.53507444  0.80407218  0.73456033  1
  Ca  Ca3  1  0.03507444  0.19592782  0.76543967  1
  Ca  Ca4  1  0.00000000  0.50000000  0.50000000  1
  Ca  Ca5  1  0.50000000  0.50000000  0.00000000  1
  Cu  Cu0  1  0.47008605  0.70519441  0.11981578  1
  Cu  Cu1  1  0.97008605  0.29480559  0.38018422  1
  Cu  Cu2  1  0.52991395  0.29480559  0.88018422  1
  Cu  Cu3  1  0.02991395  0.70519441  0.61981578  1
  Cu  Cu4  1  0.00000000  0.00000000  0.00000000  1
  Cu  Cu5  1  0.50000000  0.00000000  0.50000000  1
  P  P0  1  0.01735077  0.53642574  0.83985739  1
  P  P1  1  0.51735077  0.46357426  0.66014261  1
  P  P2  1  0.98264923  0.46357426  0.16014261  1
  P  P3  1  0.48264923  0.53642574  0.33985739  1
  P  P4  1  0.98870631  0.06280137  0.59361101  1
  P  P5  1  0.48870631  0.93719863  0.90638899  1
  P  P6  1  0.01129369  0.93719863  0.40638899  1
  P  P7  1  0.51129369  0.06280137  0.09361101  1
  O  O0  1  0.96611810  0.67731801  0.73942955  1
  O  O1  1  0.46611810  0.32268199  0.76057045  1
  O  O2  1  0.03388190  0.32268199  0.26057045  1
  O  O3  1  0.53388190  0.67731801  0.23942955  1
  O  O4  1  0.17136857  0.53181886  0.35682295  1
  O  O5  1  0.67136857  0.46818114  0.14317705  1
  O  O6  1  0.82863143  0.46818114  0.64317705  1
  O  O7  1  0.32863143  0.53181886  0.85682295  1
  O  O8  1  0.92664292  0.36096370  0.85150730  1
  O  O9  1  0.42664292  0.63903630  0.64849270  1
  O  O10  1  0.07335708  0.63903630  0.14849270  1
  O  O11  1  0.57335708  0.36096370  0.35150730  1
  O  O12  1  0.85768732  0.59299940  0.89870505  1
  O  O13  1  0.35768732  0.40700060  0.60129495  1
  O  O14  1  0.14231268  0.40700060  0.10129495  1
  O  O15  1  0.64231268  0.59299940  0.39870505  1
  O  O16  1  0.80775450  0.92751692  0.58223722  1
  O  O17  1  0.30775450  0.07248308  0.91776278  1
  O  O18  1  0.19224550  0.07248308  0.41776278  1
  O  O19  1  0.69224550  0.92751692  0.08223722  1
  O  O20  1  0.60011271  0.06506283  0.18011064  1
  O  O21  1  0.10011271  0.93493717  0.31988936  1
  O  O22  1  0.39988729  0.93493717  0.81988936  1
  O  O23  1  0.89988729  0.06506283  0.68011064  1
  O  O24  1  0.94176205  0.23544492  0.50860801  1
  O  O25  1  0.44176205  0.76455508  0.99139199  1
  O  O26  1  0.05823795  0.76455508  0.49139199  1
  O  O27  1  0.55823795  0.23544492  0.00860801  1
  O  O28  1  0.21160652  0.00270666  0.09997967  1
  O  O29  1  0.71160652  0.99729334  0.40002033  1
  O  O30  1  0.78839348  0.99729334  0.90002033  1
  O  O31  1  0.28839348  0.00270666  0.59997967  1
loop_
_geom_bond_atom_site_label_1
_geom_bond_atom_site_label_2
_geom_bond_distance
_geom_bond_site_symmetry_2
Ca0 O20 2.312174 1_555
Ca0 O2 2.372962 1_555
Ca0 O29 2.414005 1_545
Ca0 O5 2.521593 1_555
Ca0 O11 2.539571 1_555
Ca0 O18 2.594519 1_555
Ca0 O21 2.722318 1_545
Ca0 O14 2.930002 1_555
Ca0 O2 2.987397 1_655
Ca1 O21 2.312174 1_655
Ca1 O3 2.372962 1_555
Ca1 O28 2.414005 1_665
Ca1 O4 2.521593 1_655
Ca1 O10 2.539571 1_655
Ca1 O19 2.594519 1_555
Ca1 O20 2.722318 1_565
Ca1 O15 2.930002 1_555
Ca1 O3 2.987397 1_655
Ca2 O22 2.312174 1_555
Ca2 O0 2.372962 1_555
Ca2 O31 2.414005 1_565
Ca2 O7 2.521593 1_555
Ca2 O9 2.539571 1_555
Ca2 O16 2.594519 1_555
Ca2 O23 2.722318 1_565
Ca2 O12 2.930002 1_555
Ca2 O0 2.987397 1_455
Ca3 O23 2.312174 1_455
Ca3 O1 2.372962 1_555
Ca3 O30 2.414005 1_445
Ca3 O6 2.521593 1_455
Ca3 O8 2.539571 1_455
Ca3 O17 2.594519 1_555
Ca3 O22 2.722318 1_545
Ca3 O13 2.930002 1_555
Ca3 O1 2.987397 1_455
Ca4 O13 2.290093 1_555
Ca4 O15 2.290093 1_455
Ca4 O24 2.308788 1_455
Ca4 O26 2.308788 1_555
Ca4 O4 2.402507 1_555
Ca4 O6 2.402507 1_455
Ca5 O12 2.290093 1_554
Ca5 O14 2.290093 1_555
Ca5 O27 2.308788 1_555
Ca5 O25 2.308788 1_554
Ca5 O7 2.402507 1_554
Ca5 O5 2.402507 1_555
Cu0 O3 1.902696 1_555
Cu0 O25 1.939662 1_554
Cu0 O10 2.016721 1_555
Cu0 O19 2.078395 1_555
Cu0 O5 2.190418 1_555
Cu1 O2 1.902696 1_655
Cu1 O24 1.939662 1_555
Cu1 O11 2.016721 1_555
Cu1 O18 2.078395 1_655
Cu1 O4 2.190418 1_655
Cu2 O1 1.902696 1_555
Cu2 O27 1.939662 1_556
Cu2 O8 2.016721 1_555
Cu2 O17 2.078395 1_555
Cu2 O7 2.190418 1_555
Cu3 O0 1.902696 1_455
Cu3 O26 1.939662 1_555
Cu3 O9 2.016721 1_555
Cu3 O16 2.078395 1_455
Cu3 O6 2.190418 1_455
Cu4 O17 1.924561 1_554
Cu4 O19 1.924561 1_445
Cu4 O30 1.962230 1_444
Cu4 O28 1.962230 1_555
Cu5 O18 1.924561 1_555
Cu5 O16 1.924561 1_545
Cu5 O31 1.962230 1_555
Cu5 O29 1.962230 1_545
O0 P0 1.559806 1_655
O1 P1 1.559806 1_555
O2 P2 1.559806 1_455
O3 P3 1.559806 1_555
O4 P3 1.543959 1_555
O5 P2 1.543959 1_555
O6 P1 1.543959 1_555
O7 P0 1.543959 1_555
O8 P0 1.545577 1_655
O9 P1 1.545577 1_555
O10 P2 1.545577 1_455
O11 P3 1.545577 1_555
O12 P0 1.508702 1_655
O13 P1 1.508702 1_555
O14 P2 1.508702 1_455
O15 P3 1.508702 1_555
O16 P4 1.575445 1_565
O17 P5 1.575445 1_545
O18 P6 1.575445 1_545
O19 P7 1.575445 1_565
O20 P7 1.506332 1_555
O21 P6 1.506332 1_555
O22 P5 1.506332 1_555
O23 P4 1.506332 1_555
O24 P4 1.534218 1_555
O25 P5 1.534218 1_555
O26 P6 1.534218 1_555
O27 P7 1.534218 1_555
O28 P7 1.545605 1_555
O29 P6 1.545605 1_655
O30 P5 1.545605 1_555
O31 P4 1.545605 1_455
