# generated using pymatgen
data_Cs3MgH5
_symmetry_space_group_name_H-M   'P 1'
_cell_length_a   8.69260747
_cell_length_b   8.69260747
_cell_length_c   8.69260747
_cell_angle_alpha   122.81577547
_cell_angle_beta   122.81577547
_cell_angle_gamma   85.18841940
_symmetry_Int_Tables_number   1
_chemical_formula_structural   Cs3MgH5
_chemical_formula_sum   'Cs6 Mg2 H10'
_cell_volume   442.97414455
_cell_formula_units_Z   2
loop_
 _symmetry_equiv_pos_site_id
 _symmetry_equiv_pos_as_xyz
  1  'x, y, z'
loop_
 _atom_site_type_symbol
 _atom_site_label
 _atom_site_symmetry_multiplicity
 _atom_site_fract_x
 _atom_site_fract_y
 _atom_site_fract_z
 _atom_site_occupancy
  Cs  Cs0  1  0.17862209  0.67862209  0.85724218  1
  Cs  Cs1  1  0.82137791  0.32137791  0.14275782  1
  Cs  Cs2  1  0.67862209  0.82137791  0.50000000  1
  Cs  Cs3  1  0.32137791  0.17862209  0.50000000  1
  Cs  Cs4  1  0.25000000  0.25000000  -0.00000000  1
  Cs  Cs5  1  0.75000000  0.75000000  -0.00000000  1
  Mg  Mg0  1  0.25000000  0.75000000  0.50000000  1
  Mg  Mg1  1  0.75000000  0.25000000  0.50000000  1
  H  H0  1  0.46265921  0.96265921  0.75097094  1
  H  H1  1  0.21168828  0.71168828  0.24902906  1
  H  H2  1  0.96265921  0.21168828  0.50000000  1
  H  H3  1  0.71168828  0.46265921  0.50000000  1
  H  H4  1  0.53734079  0.03734079  0.24902906  1
  H  H5  1  0.78831172  0.28831172  0.75097094  1
  H  H6  1  0.03734079  0.78831172  0.50000000  1
  H  H7  1  0.28831172  0.53734079  0.50000000  1
  H  H8  1  0.50000000  0.50000000  -0.00000000  1
  H  H9  1  -0.00000000  -0.00000000  -0.00000000  1
loop_
_geom_bond_atom_site_label_1
_geom_bond_atom_site_label_2
_geom_bond_distance
_geom_bond_site_symmetry_2
Cs0 H8 3.059134 1_556
Cs0 H9 3.059134 1_566
Cs0 H4 3.107320 1_566
Cs0 H1 3.107337 1_556
Cs0 H7 3.307556 1_555
Cs0 H6 3.307556 1_555
Cs0 H3 3.307572 1_455
Cs0 H2 3.307572 1_455
Cs1 H9 3.059134 1_655
Cs1 H8 3.059134 1_555
Cs1 H0 3.107320 1_544
Cs1 H5 3.107337 1_554
Cs1 H2 3.307556 1_555
Cs1 H3 3.307556 1_555
Cs1 H7 3.307572 1_655
Cs1 H6 3.307572 1_655
Cs2 H8 3.059131 1_555
Cs2 H9 3.059131 1_666
Cs2 H3 3.107320 1_555
Cs2 H6 3.107320 1_655
Cs2 H1 3.307571 1_555
Cs2 H5 3.307571 1_565
Cs2 H0 3.307572 1_555
Cs2 H4 3.307572 1_565
Cs3 H8 3.059131 1_556
Cs3 H9 3.059131 1_555
Cs3 H7 3.107320 1_555
Cs3 H2 3.107320 1_455
Cs3 H1 3.307571 1_545
Cs3 H5 3.307571 1_555
Cs3 H0 3.307572 1_545
Cs3 H4 3.307572 1_555
Cs4 H8 3.199599 1_555
Cs4 H9 3.199599 1_555
Cs4 H4 3.470466 1_555
Cs4 H0 3.470466 1_544
Cs4 H1 3.470466 1_555
Cs4 H5 3.470466 1_454
Cs4 H6 3.470466 1_544
Cs4 H3 3.470466 1_555
Cs4 H7 3.470466 1_555
Cs4 H2 3.470466 1_454
Cs5 H8 3.199599 1_555
Cs5 H9 3.199599 1_665
Cs5 H0 3.470466 1_554
Cs5 H4 3.470466 1_565
Cs5 H1 3.470466 1_655
Cs5 H5 3.470466 1_554
Cs5 H2 3.470466 1_565
Cs5 H6 3.470466 1_655
Cs5 H3 3.470466 1_554
Cs5 H7 3.470466 1_554
H0 Mg0 1.850626 1_555
H1 Mg0 1.850626 1_555
H2 Mg1 1.850626 1_555
H3 Mg1 1.850626 1_555
H4 Mg1 1.850626 1_555
H5 Mg1 1.850626 1_555
H6 Mg0 1.850626 1_555
H7 Mg0 1.850626 1_555
