# generated using pymatgen
data_K3Cr4PO16
_symmetry_space_group_name_H-M   'P 1'
_cell_length_a   7.72572965
_cell_length_b   7.72572965
_cell_length_c   15.09081888
_cell_angle_alpha   80.07949909
_cell_angle_beta   80.07949909
_cell_angle_gamma   102.21114541
_symmetry_Int_Tables_number   1
_chemical_formula_structural   K3Cr4PO16
_chemical_formula_sum   'K6 Cr8 P2 O32'
_cell_volume   846.55788998
_cell_formula_units_Z   2
loop_
 _symmetry_equiv_pos_site_id
 _symmetry_equiv_pos_as_xyz
  1  'x, y, z'
loop_
 _atom_site_type_symbol
 _atom_site_label
 _atom_site_symmetry_multiplicity
 _atom_site_fract_x
 _atom_site_fract_y
 _atom_site_fract_z
 _atom_site_occupancy
  K  K0  1  0.74858600  0.67752600  0.82770200  1
  K  K1  1  0.67752600  0.74858600  0.32770200  1
  K  K2  1  0.19742300  0.17732200  0.33785300  1
  K  K3  1  0.17732200  0.19742300  0.83785300  1
  K  K4  1  0.86813800  0.41890600  0.10982400  1
  K  K5  1  0.41890600  0.86813800  0.60982400  1
  Cr  Cr0  1  0.20726300  0.68103800  0.85766200  1
  Cr  Cr1  1  0.39791600  0.27680000  0.06757200  1
  Cr  Cr2  1  0.72046700  0.17721800  0.73719600  1
  Cr  Cr3  1  0.76744900  0.89228300  0.04115800  1
  Cr  Cr4  1  0.27680000  0.39791600  0.56757200  1
  Cr  Cr5  1  0.17721800  0.72046700  0.23719600  1
  Cr  Cr6  1  0.68103800  0.20726300  0.35766200  1
  Cr  Cr7  1  0.89228300  0.76744900  0.54115800  1
  P  P0  1  0.35223100  0.88847500  0.01685400  1
  P  P1  1  0.88847500  0.35223100  0.51685400  1
  O  O0  1  0.51802600  0.04304400  0.76396400  1
  O  O1  1  0.50627500  0.04037600  0.40955200  1
  O  O2  1  0.84261500  0.90270000  0.45999100  1
  O  O3  1  0.60916400  0.37759800  0.31212000  1
  O  O4  1  0.71889600  0.35857900  0.77667900  1
  O  O5  1  0.37759800  0.60916400  0.81212000  1
  O  O6  1  0.74414600  0.75092900  0.13811400  1
  O  O7  1  0.82098600  0.27205400  0.43951900  1
  O  O8  1  0.90270000  0.84261500  0.95999100  1
  O  O9  1  0.04037600  0.50627500  0.90955200  1
  O  O10  1  0.75092900  0.74414600  0.63811400  1
  O  O11  1  0.07476900  0.86343600  0.27810100  1
  O  O12  1  0.35073500  0.21755000  0.59021800  1
  O  O13  1  0.80745300  0.14343600  0.27784900  1
  O  O14  1  0.35857900  0.71889600  0.27667900  1
  O  O15  1  0.20139300  0.45729600  0.66233000  1
  O  O16  1  0.54917800  0.87144100  0.00389900  1
  O  O17  1  0.21755000  0.35073500  0.09021800  1
  O  O18  1  0.43479200  0.56339900  0.49900300  1
  O  O19  1  0.23512800  0.77448000  0.10966500  1
  O  O20  1  0.09967600  0.84673400  0.54935100  1
  O  O21  1  0.87144100  0.54917800  0.50389900  1
  O  O22  1  0.08943200  0.34244200  0.50572500  1
  O  O23  1  0.27205400  0.82098600  0.93951900  1
  O  O24  1  0.45729600  0.20139300  0.16233000  1
  O  O25  1  0.84673400  0.09967600  0.04935100  1
  O  O26  1  0.77448000  0.23512800  0.60966500  1
  O  O27  1  0.04304400  0.51802600  0.26396400  1
  O  O28  1  0.14343600  0.80745300  0.77784900  1
  O  O29  1  0.86343600  0.07476900  0.77810100  1
  O  O30  1  0.56339900  0.43479200  0.99900300  1
  O  O31  1  0.34244200  0.08943200  0.00572500  1
loop_
_geom_bond_atom_site_label_1
_geom_bond_atom_site_label_2
_geom_bond_distance
_geom_bond_site_symmetry_2
K0 O4 2.681932 1_555
K0 O10 2.814534 1_555
K0 O8 2.843185 1_555
K0 O30 2.857716 1_555
K0 O5 2.860720 1_555
K0 O28 2.921104 1_655
K0 O29 2.931546 1_565
K0 O9 3.164802 1_655
K1 O14 2.681932 1_555
K1 O6 2.814534 1_555
K1 O2 2.843185 1_555
K1 O18 2.857716 1_555
K1 O3 2.860720 1_555
K1 O13 2.921104 1_565
K1 O11 2.931546 1_655
K1 O1 3.164802 1_565
K2 O11 2.769004 1_545
K2 O24 2.986886 1_555
K2 O1 3.089772 1_555
K2 O22 3.094616 1_555
K2 O2 3.140705 1_445
K2 O3 3.154181 1_555
K2 O27 3.220130 1_555
K2 O13 3.263970 1_455
K2 O7 3.331260 1_455
K3 O29 2.769004 1_455
K3 O15 2.986886 1_555
K3 O9 3.089772 1_555
K3 O31 3.094616 1_556
K3 O8 3.140705 1_445
K3 O5 3.154181 1_555
K3 O0 3.220130 1_555
K3 O28 3.263970 1_545
K3 O23 3.331260 1_545
K4 O25 2.756393 1_555
K4 O17 2.834069 1_655
K4 O13 2.913318 1_555
K4 O9 2.981914 1_654
K4 O6 2.992594 1_555
K4 O27 3.013660 1_655
K4 O30 3.124574 1_554
K4 O24 3.153509 1_555
K4 O3 3.273253 1_555
K5 O20 2.756393 1_555
K5 O12 2.834069 1_565
K5 O28 2.913318 1_555
K5 O1 2.981914 1_565
K5 O10 2.992594 1_555
K5 O0 3.013660 1_565
K5 O18 3.124574 1_555
K5 O15 3.153509 1_555
K5 O5 3.273253 1_555
Cr0 O5 1.625242 1_555
Cr0 O9 1.627857 1_555
Cr0 O28 1.628110 1_555
Cr0 O23 1.841141 1_555
Cr1 O17 1.620085 1_555
Cr1 O30 1.626020 1_554
Cr1 O24 1.626877 1_555
Cr1 O31 1.868444 1_555
Cr2 O4 1.615776 1_555
Cr2 O0 1.623580 1_555
Cr2 O29 1.632154 1_555
Cr2 O26 1.850892 1_555
Cr3 O8 1.621718 1_554
Cr3 O25 1.623855 1_565
Cr3 O6 1.625212 1_555
Cr3 O16 1.851681 1_555
Cr4 O12 1.620085 1_555
Cr4 O18 1.626020 1_555
Cr4 O15 1.626877 1_555
Cr4 O22 1.868444 1_555
Cr5 O14 1.615776 1_555
Cr5 O27 1.623580 1_555
Cr5 O11 1.632154 1_555
Cr5 O19 1.850892 1_555
Cr6 O3 1.625242 1_555
Cr6 O1 1.627857 1_555
Cr6 O13 1.628110 1_555
Cr6 O7 1.841141 1_555
Cr7 O2 1.621718 1_555
Cr7 O20 1.623855 1_655
Cr7 O10 1.625212 1_555
Cr7 O21 1.851681 1_555
O7 P1 1.529600 1_555
O16 P0 1.536801 1_555
O19 P0 1.535285 1_555
O21 P1 1.536801 1_555
O22 P1 1.551937 1_455
O23 P0 1.529600 1_556
O26 P1 1.535285 1_555
O31 P0 1.551937 1_545
