# generated using pymatgen
data_Sm4AlSi5(NO)7
_symmetry_space_group_name_H-M   'P 1'
_cell_length_a   6.83529000
_cell_length_b   6.97112249
_cell_length_c   19.97813888
_cell_angle_alpha   92.43837821
_cell_angle_beta   96.87940167
_cell_angle_gamma   90.34241454
_symmetry_Int_Tables_number   1
_chemical_formula_structural   Sm4AlSi5(NO)7
_chemical_formula_sum   'Sm12 Al3 Si15 N21 O21'
_cell_volume   944.18303604
_cell_formula_units_Z   3
loop_
 _symmetry_equiv_pos_site_id
 _symmetry_equiv_pos_as_xyz
  1  'x, y, z'
loop_
 _atom_site_type_symbol
 _atom_site_label
 _atom_site_symmetry_multiplicity
 _atom_site_fract_x
 _atom_site_fract_y
 _atom_site_fract_z
 _atom_site_occupancy
  Sm  Sm0  1  0.29702200  0.37561700  0.72519600  1
  Sm  Sm1  1  0.36051900  0.39047800  0.42102100  1
  Sm  Sm2  1  0.62637200  0.44041500  0.88898200  1
  Sm  Sm3  1  0.77392700  0.36933600  0.60975500  1
  Sm  Sm4  1  0.23865400  0.39194800  0.06531700  1
  Sm  Sm5  1  0.66412800  0.37061200  0.25956400  1
  Sm  Sm6  1  0.12541300  0.59820600  0.91474600  1
  Sm  Sm7  1  0.19064200  0.64363800  0.56720600  1
  Sm  Sm8  1  0.24774900  0.61378000  0.24519900  1
  Sm  Sm9  1  0.81641600  0.68325600  0.40746600  1
  Sm  Sm10  1  0.79178400  0.65701700  0.75274000  1
  Sm  Sm11  1  0.71116700  0.59766600  0.08868300  1
  Al  Al0  1  0.96280000  0.96979900  0.67130900  1
  Al  Al1  1  0.33893900  0.79043100  0.38879200  1
  Al  Al2  1  0.39486600  0.86979300  0.01133000  1
  Si  Si0  1  0.00780700  0.92856300  0.05100700  1
  Si  Si1  1  0.52008400  0.03426400  0.82952300  1
  Si  Si2  1  0.93234400  0.02992800  0.34402100  1
  Si  Si3  1  0.41125100  0.00551200  0.17377100  1
  Si  Si4  1  0.72856400  0.90449400  0.97406800  1
  Si  Si5  1  0.33751800  0.85124300  0.70299700  1
  Si  Si6  1  0.55804800  0.82644700  0.62046400  1
  Si  Si7  1  0.73072600  0.82981300  0.26494500  1
  Si  Si8  1  0.13275600  0.12068200  0.89541100  1
  Si  Si9  1  0.12401400  0.16869200  0.55244100  1
  Si  Si10  1  0.87238500  0.20681500  0.78987400  1
  Si  Si11  1  0.12097100  0.15962900  0.26448700  1
  Si  Si12  1  0.90356800  0.24673000  0.45973000  1
  Si  Si13  1  0.83550600  0.19827800  0.13568900  1
  Si  Si14  1  0.51664500  0.06338800  0.49551800  1
  N  N0  1  0.56102600  0.58983200  0.64607200  1
  N  N1  1  0.49678100  0.63695100  0.33875000  1
  N  N2  1  0.61761500  0.21068900  0.78950900  1
  N  N3  1  0.42184000  0.25912600  0.16143400  1
  N  N4  1  0.67460800  0.24913400  0.48959000  1
  N  N5  1  0.59258900  0.29054900  0.12336300  1
  N  N6  1  0.15762900  0.66686700  0.69423200  1
  N  N7  1  0.52550700  0.82991700  0.52740100  1
  N  N8  1  0.95970500  0.68799000  0.65600400  1
  N  N9  1  0.00811100  0.67899900  0.03065300  1
  N  N10  1  0.46776000  0.63010100  0.81602500  1
  N  N11  1  0.46705900  0.81513200  0.78512400  1
  N  N12  1  0.83231500  0.66316900  0.97443000  1
  N  N13  1  0.07220300  0.77717500  0.34209700  1
  N  N14  1  0.60176400  0.67195500  0.20139400  1
  N  N15  1  0.43590500  0.68102600  0.47827600  1
  N  N16  1  0.44962600  0.75465900  0.15076600  1
  N  N17  1  0.94457600  0.67857100  0.28524900  1
  N  N18  1  0.91730900  0.44058800  0.83631100  1
  N  N19  1  0.03045400  0.47063800  0.46347100  1
  N  N20  1  0.96845500  0.28678100  0.20852900  1
  O  O0  1  0.41759400  0.61000700  0.00546900  1
  O  O1  1  0.16324400  0.29498700  0.95617200  1
  O  O2  1  0.93020700  0.29571400  0.71584200  1
  O  O3  1  0.34171600  0.17009200  0.85843700  1
  O  O4  1  0.13059400  0.34798900  0.61074500  1
  O  O5  1  0.82386800  0.26094700  0.36337100  1
  O  O6  1  0.35788300  0.19159100  0.53553400  1
  O  O7  1  0.29573500  0.30989900  0.30062800  1
  O  O8  1  0.91430000  0.31032000  0.07295000  1
  O  O9  1  0.94662300  0.00534900  0.43024400  1
  O  O10  1  0.89855500  0.96646900  0.76076500  1
  O  O11  1  0.88736200  0.96103000  0.12050800  1
  O  O12  1  0.08278300  0.96353900  0.58592100  1
  O  O13  1  0.22222900  0.92004800  0.93674200  1
  O  O14  1  0.23314600  0.97897600  0.22466500  1
  O  O15  1  0.67330300  0.97899000  0.89698700  1
  O  O16  1  0.71149000  0.01768900  0.62988200  1
  O  O17  1  0.62905700  0.02866900  0.22692100  1
  O  O18  1  0.21900100  0.05459800  0.70942800  1
  O  O19  1  0.39984500  0.03013500  0.41662700  1
  O  O20  1  0.24604400  0.99664500  0.07223600  1
loop_
_geom_bond_atom_site_label_1
_geom_bond_atom_site_label_2
_geom_bond_distance
_geom_bond_site_symmetry_2
Al0 O16 1.853908 1_565
Al0 O10 1.891758 1_555
Al0 O18 1.904198 1_665
Al0 N8 1.974877 1_555
Al0 O12 1.978337 1_655
Al0 O2 2.425832 1_565
Al1 O19 1.769737 1_565
Al1 N1 1.868001 1_555
Al1 N13 1.945797 1_555
Al1 N15 2.013735 1_555
Al2 O0 1.818583 1_555
Al2 O13 1.834066 1_554
Al2 O20 1.874315 1_555
N0 Si6 1.747175 1_555
N0 Sm3 2.278510 1_555
N0 Sm10 2.519826 1_555
N0 Sm7 2.852834 1_555
N0 Sm0 2.972735 1_555
N1 Sm8 2.371826 1_555
N1 Sm9 2.448982 1_555
N1 Sm1 2.666284 1_555
N1 Sm5 2.732644 1_555
N2 Si1 1.672604 1_555
N2 Si10 1.740944 1_555
N2 Sm2 2.493407 1_555
N2 Sm0 2.693706 1_555
N3 N5 1.487421 1_555
N3 Si3 1.797649 1_555
N3 Sm4 2.387807 1_555
N3 Sm5 2.503453 1_555
N3 Sm8 3.238692 1_555
N4 Si14 1.698074 1_555
N4 Si12 1.740263 1_555
N4 Sm3 2.521479 1_555
N4 Sm1 2.625294 1_555
N5 Si13 1.777536 1_555
N5 Sm11 2.441441 1_555
N5 Sm4 2.667456 1_555
N5 Sm5 2.739243 1_555
N6 N8 1.483119 1_455
N6 Si5 1.762089 1_555
N6 Sm0 2.324125 1_555
N6 Sm7 2.572923 1_555
N7 Si14 1.771574 1_565
N7 Si6 1.847052 1_555
N8 Sm10 2.379694 1_555
N8 Sm7 2.522791 1_655
N8 Sm3 2.628936 1_555
N9 Si0 1.769776 1_555
N9 Sm11 2.528058 1_455
N9 Sm6 2.580953 1_554
N9 Sm4 2.619402 1_555
N10 N11 1.453284 1_555
N10 Sm2 2.202489 1_555
N10 Sm0 2.644991 1_555
N10 Sm10 2.687949 1_555
N10 Sm6 3.248346 1_555
N11 Si1 1.747218 1_565
N11 Si5 1.797001 1_555
N11 Sm10 2.621575 1_555
N12 N9 1.543452 1_656
N12 Si4 1.829533 1_555
N12 Sm6 2.485489 1_655
N12 Sm2 2.545525 1_555
N12 Sm11 2.577070 1_556
N13 N17 1.487424 1_455
N13 Si2 2.010743 1_465
N13 Sm9 2.407707 1_455
N13 Sm8 2.621041 1_555
N14 N16 1.497216 1_555
N14 Si7 1.789243 1_555
N14 Sm5 2.458647 1_555
N14 Sm11 2.491305 1_555
N14 Sm8 2.703984 1_555
N15 N7 1.475582 1_555
N15 Sm1 2.307711 1_555
N15 Sm7 2.604343 1_555
N15 Sm9 3.106283 1_555
N16 Si3 1.817706 1_565
N16 Sm11 2.524096 1_555
N16 Sm8 2.681963 1_555
N16 Sm4 3.222806 1_555
N17 Si7 1.823612 1_555
N17 Sm8 2.348653 1_655
N17 Sm9 2.690012 1_555
N17 Sm5 2.858015 1_555
N18 Si10 1.846046 1_555
N18 Sm6 2.233150 1_655
N18 Sm2 2.358672 1_555
N18 Sm10 2.384677 1_555
N19 Si12 1.775540 1_455
N19 Sm9 2.316042 1_455
N19 Sm7 2.485204 1_555
N19 Sm1 2.560182 1_555
N20 Si13 1.710029 1_555
N20 Si11 1.714185 1_655
N20 Sm5 2.485973 1_555
N20 Sm8 2.974624 1_655
O0 Sm4 2.391462 1_555
O0 Sm11 2.452124 1_555
O0 Sm6 2.529548 1_554
O0 Sm2 3.071103 1_554
O1 Si8 1.674604 1_555
O1 Sm4 2.253526 1_556
O1 Sm6 2.307376 1_555
O2 Si10 1.715480 1_555
O2 Sm3 2.335205 1_555
O2 Sm0 2.548309 1_655
O2 Sm10 2.796424 1_555
O3 Si1 1.688982 1_555
O3 Si8 1.724193 1_555
O3 Sm2 2.698743 1_555
O3 Sm0 3.060516 1_555
O4 Si9 1.668516 1_555
O4 Sm7 2.323955 1_555
O4 Sm0 2.428198 1_555
O4 Sm3 2.441114 1_455
O5 Si2 1.822845 1_555
O5 Si12 1.943747 1_555
O5 Sm5 2.383272 1_555
O6 Si14 1.665562 1_555
O6 Si9 1.681030 1_555
O6 Sm1 2.726887 1_555
O7 Si11 1.661244 1_555
O7 Sm1 2.433857 1_555
O7 Sm8 2.437690 1_555
O7 Sm5 2.775704 1_555
O8 Si13 1.646555 1_555
O8 Sm4 2.309910 1_655
O8 Sm11 2.474546 1_555
O9 Si2 1.729505 1_555
O9 Si12 1.796717 1_555
O9 Sm9 2.415146 1_545
O10 Si10 1.767208 1_565
O10 Sm10 2.266205 1_555
O11 Si0 1.704780 1_655
O11 Si13 1.715527 1_565
O11 Sm11 2.813204 1_555
O12 Si9 1.641300 1_565
O12 Sm7 2.381444 1_555
O13 Si8 1.731922 1_565
O13 Sm6 2.343817 1_555
O14 Si3 1.691136 1_565
O14 Si11 1.696829 1_565
O14 Sm8 2.596455 1_555
O15 Si4 1.647670 1_555
O15 Si1 1.665156 1_565
O15 Sm2 3.243321 1_565
O16 Si6 1.681500 1_545
O16 Sm3 2.542742 1_555
O17 Si7 1.719403 1_545
O17 Si3 1.724479 1_555
O17 Sm5 2.447112 1_555
O18 Si5 1.644857 1_545
O18 Sm0 2.297210 1_555
O19 Si14 1.685366 1_555
O19 Sm1 2.526864 1_555
O20 Si0 1.692649 1_555
O20 Si3 2.198518 1_565
O20 Sm4 2.765497 1_565
