# generated using pymatgen
data_Cd(HO)2
_symmetry_space_group_name_H-M   'P 1'
_cell_length_a   3.58567549
_cell_length_b   3.58567549
_cell_length_c   4.80522531
_cell_angle_alpha   85.55058780
_cell_angle_beta   85.55058780
_cell_angle_gamma   59.12928701
_symmetry_Int_Tables_number   1
_chemical_formula_structural   Cd(HO)2
_chemical_formula_sum   'Cd1 H2 O2'
_cell_volume   52.81706906
_cell_formula_units_Z   1
loop_
 _symmetry_equiv_pos_site_id
 _symmetry_equiv_pos_as_xyz
  1  'x, y, z'
loop_
 _atom_site_type_symbol
 _atom_site_label
 _atom_site_symmetry_multiplicity
 _atom_site_fract_x
 _atom_site_fract_y
 _atom_site_fract_z
 _atom_site_occupancy
  Cd  Cd0  1  0.97717800  0.02282200  0.00000000  1
  H  H0  1  0.58910400  0.82592500  0.56952000  1
  H  H1  1  0.17407500  0.41089600  0.43048000  1
  O  O0  1  0.66514500  0.72164200  0.76405100  1
  O  O1  1  0.27835800  0.33485500  0.23594900  1
loop_
_geom_bond_atom_site_label_1
_geom_bond_atom_site_label_2
_geom_bond_distance
_geom_bond_site_symmetry_2
Cd0 O1 2.308745 1_655
Cd0 O0 2.308745 1_544
Cd0 O0 2.357789 1_644
Cd0 O1 2.357789 1_645
Cd0 O1 2.386430 1_555
Cd0 O0 2.386430 1_554
H0 O0 0.984193 1_555
H1 O1 0.984193 1_555
