# generated using pymatgen
data_KBa2Re
_symmetry_space_group_name_H-M   'P 1'
_cell_length_a   5.95117613
_cell_length_b   5.95117613
_cell_length_c   5.95117613
_cell_angle_alpha   60.00000000
_cell_angle_beta   60.00000000
_cell_angle_gamma   60.00000000
_symmetry_Int_Tables_number   1
_chemical_formula_structural   KBa2Re
_chemical_formula_sum   'K1 Ba2 Re1'
_cell_volume   149.03676467
_cell_formula_units_Z   1
loop_
 _symmetry_equiv_pos_site_id
 _symmetry_equiv_pos_as_xyz
  1  'x, y, z'
loop_
 _atom_site_type_symbol
 _atom_site_label
 _atom_site_symmetry_multiplicity
 _atom_site_fract_x
 _atom_site_fract_y
 _atom_site_fract_z
 _atom_site_occupancy
  K  K0  1  0.50000000  0.50000000  0.50000000  1
  Ba  Ba0  1  0.00000000  0.00000000  0.00000000  1
  Ba  Ba1  1  0.25000000  0.25000000  0.25000000  1
  Re  Re0  1  0.75000000  0.75000000  0.75000000  1
loop_
_geom_bond_atom_site_label_1
_geom_bond_atom_site_label_2
_geom_bond_distance
_geom_bond_site_symmetry_2
K0 Re0 3.644336 1_545
K0 Re0 3.644336 1_455
K0 Re0 3.644336 1_554
K0 Re0 3.644336 1_555
Ba0 Re0 3.644336 1_544
Ba0 Re0 3.644336 1_444
Ba0 Ba1 3.644336 1_455
Ba0 Ba1 3.644336 1_554
Ba0 Re0 3.644336 1_454
Ba0 Ba1 3.644336 1_555
Ba0 Re0 3.644336 1_445
Ba0 Ba1 3.644336 1_545
Ba1 K0 3.644336 1_554
Ba1 K0 3.644336 1_455
Ba1 K0 3.644336 1_555
Ba1 K0 3.644336 1_545
Ba1 Re0 4.208117 1_544
Ba1 Re0 4.208117 1_545
Ba1 Re0 4.208117 1_455
Ba1 Re0 4.208117 1_554
Ba1 Re0 4.208117 1_454
Ba1 Re0 4.208117 1_445
