# generated using pymatgen
data_CuH9C4NO6
_symmetry_space_group_name_H-M   'P 1'
_cell_length_a   7.39908500
_cell_length_b   9.62326300
_cell_length_c   14.72364900
_cell_angle_alpha   90.00000000
_cell_angle_beta   90.00000000
_cell_angle_gamma   90.00000000
_symmetry_Int_Tables_number   1
_chemical_formula_structural   CuH9C4NO6
_chemical_formula_sum   'Cu4 H36 C16 N4 O24'
_cell_volume   1048.37299925
_cell_formula_units_Z   4
loop_
 _symmetry_equiv_pos_site_id
 _symmetry_equiv_pos_as_xyz
  1  'x, y, z'
loop_
 _atom_site_type_symbol
 _atom_site_label
 _atom_site_symmetry_multiplicity
 _atom_site_fract_x
 _atom_site_fract_y
 _atom_site_fract_z
 _atom_site_occupancy
  Cu  Cu0  1  0.00000000  0.00000000  0.50000000  1
  Cu  Cu1  1  0.50000000  0.50000000  0.50000000  1
  Cu  Cu2  1  0.00000000  0.00000000  0.00000000  1
  Cu  Cu3  1  0.50000000  0.50000000  0.00000000  1
  H  H0  1  0.35032700  0.56881400  0.25000000  1
  H  H1  1  0.14967300  0.06881400  0.25000000  1
  H  H2  1  0.76483900  0.24748900  0.45097300  1
  H  H3  1  0.42017400  0.16249500  0.37969900  1
  H  H4  1  0.10758400  0.16783100  0.75000000  1
  H  H5  1  0.51072800  0.83666400  0.16049900  1
  H  H6  1  0.23516100  0.75251100  0.54902700  1
  H  H7  1  0.64967300  0.43118600  0.75000000  1
  H  H8  1  0.92017400  0.33750500  0.62030100  1
  H  H9  1  0.39241600  0.66783100  0.75000000  1
  H  H10  1  0.30421400  0.39287400  0.25000000  1
  H  H11  1  0.89241600  0.83216900  0.25000000  1
  H  H12  1  0.69578600  0.60712600  0.75000000  1
  H  H13  1  0.26483900  0.25251100  0.54902700  1
  H  H14  1  0.48927200  0.16333600  0.83950100  1
  H  H15  1  0.07982600  0.66249500  0.37969900  1
  H  H16  1  0.57982600  0.83750500  0.62030100  1
  H  H17  1  0.26483900  0.25251100  0.95097300  1
  H  H18  1  0.92017400  0.33750500  0.87969900  1
  H  H19  1  0.73516100  0.74748900  0.04902700  1
  H  H20  1  0.19578600  0.89287400  0.25000000  1
  H  H21  1  0.23516100  0.75251100  0.95097300  1
  H  H22  1  0.51072800  0.83666400  0.33950100  1
  H  H23  1  0.98927200  0.33666400  0.16049900  1
  H  H24  1  0.85032700  0.93118600  0.75000000  1
  H  H25  1  0.73516100  0.74748900  0.45097300  1
  H  H26  1  0.98927200  0.33666400  0.33950100  1
  H  H27  1  0.42017400  0.16249500  0.12030100  1
  H  H28  1  0.60758400  0.33216900  0.25000000  1
  H  H29  1  0.01072800  0.66333600  0.83950100  1
  H  H30  1  0.07982600  0.66249500  0.12030100  1
  H  H31  1  0.48927200  0.16333600  0.66049900  1
  H  H32  1  0.57982600  0.83750500  0.87969900  1
  H  H33  1  0.76483900  0.24748900  0.04902700  1
  H  H34  1  0.80421400  0.10712600  0.75000000  1
  H  H35  1  0.01072800  0.66333600  0.66049900  1
  C  C0  1  0.32306700  0.15799700  0.43600300  1
  C  C1  1  0.17693300  0.65799700  0.43600300  1
  C  C2  1  0.32306700  0.15799700  0.06399700  1
  C  C3  1  0.29108700  0.92516400  0.75000000  1
  C  C4  1  0.82306700  0.34200300  0.56399700  1
  C  C5  1  0.67693300  0.84200300  0.93600300  1
  C  C6  1  0.07502000  0.05555400  0.75000000  1
  C  C7  1  0.42498000  0.55555400  0.75000000  1
  C  C8  1  0.79108700  0.57483600  0.25000000  1
  C  C9  1  0.70891300  0.07483600  0.25000000  1
  C  C10  1  0.17693300  0.65799700  0.06399700  1
  C  C11  1  0.67693300  0.84200300  0.56399700  1
  C  C12  1  0.20891300  0.42516400  0.75000000  1
  C  C13  1  0.92498000  0.94444600  0.25000000  1
  C  C14  1  0.82306700  0.34200300  0.93600300  1
  C  C15  1  0.57502000  0.44444600  0.25000000  1
  N  N0  1  0.39710300  0.46992700  0.25000000  1
  N  N1  1  0.60289700  0.53007300  0.75000000  1
  N  N2  1  0.10289700  0.96992700  0.25000000  1
  N  N3  1  0.89710300  0.03007300  0.75000000  1
  O  O0  1  0.18892900  0.97954800  0.68096400  1
  O  O1  1  0.68892900  0.52045200  0.18096400  1
  O  O2  1  0.31107100  0.47954800  0.81903600  1
  O  O3  1  0.81107100  0.02045200  0.31903600  1
  O  O4  1  0.15055500  0.76089000  0.00195500  1
  O  O5  1  0.20462400  0.06443200  0.05853500  1
  O  O6  1  0.29537600  0.56443200  0.05853500  1
  O  O7  1  0.68892900  0.52045200  0.31903600  1
  O  O8  1  0.79537600  0.93556800  0.94146500  1
  O  O9  1  0.84944500  0.23911000  0.50195500  1
  O  O10  1  0.65055500  0.73911000  0.99804500  1
  O  O11  1  0.70462400  0.43556800  0.55853500  1
  O  O12  1  0.81107100  0.02045200  0.18096400  1
  O  O13  1  0.65055500  0.73911000  0.50195500  1
  O  O14  1  0.84944500  0.23911000  0.99804500  1
  O  O15  1  0.79537600  0.93556800  0.55853500  1
  O  O16  1  0.20462400  0.06443200  0.44146500  1
  O  O17  1  0.70462400  0.43556800  0.94146500  1
  O  O18  1  0.29537600  0.56443200  0.44146500  1
  O  O19  1  0.15055500  0.76089000  0.49804500  1
  O  O20  1  0.31107100  0.47954800  0.68096400  1
  O  O21  1  0.34944500  0.26089000  0.49804500  1
  O  O22  1  0.34944500  0.26089000  0.00195500  1
  O  O23  1  0.18892900  0.97954800  0.81903600  1
loop_
_geom_bond_atom_site_label_1
_geom_bond_atom_site_label_2
_geom_bond_distance
_geom_bond_site_symmetry_2
Cu0 O16 1.849197 1_555
Cu0 O15 1.849197 1_445
Cu0 O19 2.556647 1_545
Cu0 O9 2.556647 1_455
Cu1 O11 1.849197 1_555
Cu1 O18 1.849197 1_555
Cu1 O21 2.556647 1_555
Cu1 O13 2.556647 1_555
Cu2 O5 1.849197 1_555
Cu2 O8 1.849197 1_444
Cu2 O4 2.556647 1_545
Cu2 O14 2.556647 1_454
Cu3 O17 1.849197 1_554
Cu3 O6 1.849197 1_555
Cu3 O22 2.556647 1_555
Cu3 O10 2.556647 1_554
H0 N0 1.012599 1_555
H1 N2 1.012599 1_545
H2 O9 0.980739 1_555
H6 O19 0.980739 1_555
H7 N1 1.012599 1_555
H10 N0 1.011037 1_555
H12 N1 1.011037 1_555
H13 O21 0.980739 1_555
H17 O22 0.980739 1_556
H19 O10 0.980739 1_554
H20 N2 1.011037 1_555
H21 O4 0.980739 1_556
H24 N3 1.012599 1_565
H25 O13 0.980739 1_555
H33 O14 0.980739 1_554
H34 N3 1.011037 1_555
C0 H3 1.097890 1_555
C0 O16 1.259052 1_555
C0 O21 1.361241 1_555
C1 H15 1.097890 1_555
C1 O18 1.259052 1_555
C1 O19 1.361241 1_555
C2 H27 1.097890 1_555
C2 O5 1.259052 1_555
C2 O22 1.361241 1_555
C3 O23 1.370562 1_555
C3 O0 1.370562 1_555
C4 H8 1.097890 1_555
C4 O11 1.259052 1_555
C4 O9 1.361241 1_555
C5 H32 1.097890 1_555
C5 O8 1.259052 1_555
C5 O10 1.361241 1_555
C6 H4 1.107010 1_555
C6 N3 1.339066 1_455
C6 O0 1.509479 1_545
C6 O23 1.509479 1_545
C7 H9 1.107010 1_555
C7 N1 1.339066 1_555
C7 O2 1.509479 1_555
C7 O20 1.509479 1_555
C8 O7 1.370562 1_555
C8 O1 1.370562 1_555
C9 O3 1.370562 1_555
C9 O12 1.370562 1_555
C10 H30 1.097890 1_555
C10 O6 1.259052 1_555
C10 O4 1.361241 1_555
C11 H16 1.097890 1_555
C11 O15 1.259052 1_555
C11 O13 1.361241 1_555
C12 O20 1.370562 1_555
C12 O2 1.370562 1_555
C13 H11 1.107010 1_555
C13 N2 1.339066 1_655
C13 O3 1.509479 1_565
C13 O12 1.509479 1_565
C14 H18 1.097890 1_555
C14 O17 1.259052 1_555
C14 O14 1.361241 1_555
C15 H28 1.107010 1_555
C15 N0 1.339066 1_555
C15 O7 1.509479 1_555
C15 O1 1.509479 1_555
