# generated using pymatgen
data_Mg4Zn7
_symmetry_space_group_name_H-M   'P 1'
_cell_length_a   5.28678015
_cell_length_b   13.15152603
_cell_length_c   14.14062712
_cell_angle_alpha   102.30688484
_cell_angle_beta   90.02732382
_cell_angle_gamma   101.59502851
_symmetry_Int_Tables_number   1
_chemical_formula_structural   Mg4Zn7
_chemical_formula_sum   'Mg20 Zn35'
_cell_volume   940.02577052
_cell_formula_units_Z   5
loop_
 _symmetry_equiv_pos_site_id
 _symmetry_equiv_pos_as_xyz
  1  'x, y, z'
loop_
 _atom_site_type_symbol
 _atom_site_label
 _atom_site_symmetry_multiplicity
 _atom_site_fract_x
 _atom_site_fract_y
 _atom_site_fract_z
 _atom_site_occupancy
  Mg  Mg0  1  0.87447900  0.74810900  0.89900900  1
  Mg  Mg1  1  0.03155800  0.07147700  0.71421800  1
  Mg  Mg2  1  0.30256800  0.61011200  0.35176100  1
  Mg  Mg3  1  0.44015000  0.88392100  0.95243700  1
  Mg  Mg4  1  0.48096400  0.96748400  0.60215600  1
  Mg  Mg5  1  0.78706500  0.57154100  0.02571900  1
  Mg  Mg6  1  0.35757800  0.71731100  0.57387400  1
  Mg  Mg7  1  0.55662400  0.11579900  0.04506800  1
  Mg  Mg8  1  0.82238600  0.64536600  0.67627000  1
  Mg  Mg9  1  0.51824600  0.03485500  0.39746800  1
  Mg  Mg10  1  0.69285200  0.39156900  0.64871300  1
  Mg  Mg11  1  0.17642900  0.35813600  0.32518200  1
  Mg  Mg12  1  0.00462000  0.01428600  0.90421000  1
  Mg  Mg13  1  0.83547400  0.67670800  0.25288800  1
  Mg  Mg14  1  0.15928800  0.32356100  0.74752200  1
  Mg  Mg15  1  0.64332200  0.28478800  0.42551200  1
  Mg  Mg16  1  0.12329100  0.25165800  0.10392700  1
  Mg  Mg17  1  0.21486900  0.42848200  0.97592600  1
  Mg  Mg18  1  0.96775500  0.93037300  0.28507500  1
  Mg  Mg19  1  0.99062000  0.98687200  0.09455700  1
  Zn  Zn0  1  0.92097200  0.84527600  0.59317200  1
  Zn  Zn1  1  0.51721200  0.03755200  0.82129600  1
  Zn  Zn2  1  0.26193900  0.51778000  0.66220800  1
  Zn  Zn3  1  0.82248900  0.13790500  0.24542900  1
  Zn  Zn4  1  0.34205400  0.17485700  0.57214700  1
  Zn  Zn5  1  0.68264400  0.86158300  0.75397400  1
  Zn  Zn6  1  0.49808100  0.49879800  0.49958500  1
  Zn  Zn7  1  0.08024800  0.15654800  0.40633700  1
  Zn  Zn8  1  0.68866600  0.37759500  0.86007100  1
  Zn  Zn9  1  0.16687600  0.82546800  0.42696900  1
  Zn  Zn10  1  0.52290500  0.53614200  0.82597200  1
  Zn  Zn11  1  0.33047400  0.66142400  0.96444600  1
  Zn  Zn12  1  0.83014400  0.66361900  0.46713100  1
  Zn  Zn13  1  0.40453800  0.80453300  0.26827400  1
  Zn  Zn14  1  0.47870300  0.96368900  0.17748400  1
  Zn  Zn15  1  0.30908500  0.62339600  0.13964300  1
  Zn  Zn16  1  0.12942500  0.78738600  0.10211700  1
  Zn  Zn17  1  0.83054100  0.17410300  0.57125400  1
  Zn  Zn18  1  0.31884500  0.13909100  0.24668000  1
  Zn  Zn19  1  0.16483400  0.33671600  0.53391700  1
  Zn  Zn20  1  0.86877700  0.21539500  0.89836400  1
  Zn  Zn21  1  0.65637300  0.82523200  0.42805600  1
  Zn  Zn22  1  0.99911800  0.50136800  0.50113100  1
  Zn  Zn23  1  0.35057400  0.70084600  0.78683700  1
  Zn  Zn24  1  0.01360400  0.53597100  0.82383900  1
  Zn  Zn25  1  0.65350900  0.78723900  0.10302500  1
  Zn  Zn26  1  0.65046000  0.29979100  0.21387200  1
  Zn  Zn27  1  0.34411900  0.21369800  0.89903200  1
  Zn  Zn28  1  0.59656800  0.19685600  0.73169700  1
  Zn  Zn29  1  0.98273400  0.46564900  0.17556000  1
  Zn  Zn30  1  0.17832000  0.86220200  0.75333800  1
  Zn  Zn31  1  0.99988800  0.00006100  0.49875000  1
  Zn  Zn32  1  0.47158200  0.46399300  0.17595200  1
  Zn  Zn33  1  0.66644000  0.34021100  0.03645700  1
  Zn  Zn34  1  0.73780900  0.48341400  0.33820900  1
loop_
_geom_bond_atom_site_label_1
_geom_bond_atom_site_label_2
_geom_bond_distance
_geom_bond_site_symmetry_2
Mg0 Zn10 2.996758 1_555
Mg0 Zn24 3.002674 1_655
Mg0 Zn5 3.061538 1_555
Mg0 Zn16 3.068601 1_656
Mg0 Zn30 3.070307 1_655
Mg0 Zn23 3.074101 1_655
Mg0 Zn23 3.075289 1_555
Mg0 Zn11 3.085445 1_655
Mg0 Zn11 3.092199 1_555
Mg0 Zn25 3.092619 1_556
Mg0 Mg8 3.139646 1_555
Mg0 Mg3 3.159110 1_655
Mg0 Mg3 3.179415 1_555
Mg0 Mg5 3.187380 1_556
Mg0 Mg12 3.413976 1_665
Mg1 Mg12 2.936425 1_555
Mg1 Zn17 2.962369 1_455
Mg1 Zn4 2.974806 1_555
Mg1 Zn31 2.984940 1_455
Mg1 Zn0 3.041506 1_445
Mg1 Zn28 3.069168 1_455
Mg1 Zn28 3.090032 1_555
Mg1 Zn20 3.107969 1_455
Mg1 Zn1 3.112903 1_455
Mg1 Zn27 3.119051 1_555
Mg1 Zn1 3.135089 1_555
Mg1 Zn5 3.155042 1_445
Mg1 Zn30 3.160724 1_545
Mg1 Mg14 3.178538 1_555
Mg1 Mg4 3.213423 1_445
Mg1 Mg4 3.226832 1_545
Mg2 Zn13 2.992585 1_555
Mg2 Zn9 3.033278 1_555
Mg2 Zn21 3.039150 1_555
Mg2 Zn15 3.041326 1_555
Mg2 Zn32 3.054099 1_555
Mg2 Zn29 3.059966 1_455
Mg2 Zn22 3.073925 1_455
Mg2 Zn6 3.080867 1_555
Mg2 Zn34 3.084390 1_555
Mg2 Zn34 3.096990 1_455
Mg2 Zn12 3.100918 1_455
Mg2 Zn12 3.107002 1_555
Mg2 Mg6 3.143819 1_555
Mg3 Zn11 2.908165 1_555
Mg3 Zn23 2.939719 1_555
Mg3 Mg7 2.989348 1_566
Mg3 Zn1 2.992367 1_565
Mg3 Zn16 3.016744 1_556
Mg3 Zn25 3.025221 1_556
Mg3 Zn5 3.067419 1_555
Mg3 Zn30 3.068976 1_555
Mg3 Zn14 3.124007 1_556
Mg4 Zn21 3.026057 1_555
Mg4 Zn9 3.026461 1_555
Mg4 Zn1 3.033060 1_565
Mg4 Zn0 3.060070 1_455
Mg4 Zn30 3.069526 1_555
Mg4 Zn0 3.070309 1_555
Mg4 Zn4 3.074994 1_565
Mg4 Zn17 3.078757 1_565
Mg4 Zn31 3.080877 1_465
Mg4 Zn5 3.091082 1_555
Mg4 Zn31 3.105883 1_565
Mg4 Zn28 3.119457 1_565
Mg4 Mg6 3.160168 1_555
Mg4 Mg9 3.197678 1_565
Mg5 Zn33 3.017067 1_555
Mg5 Zn16 3.021045 1_655
Mg5 Zn8 3.030145 1_554
Mg5 Zn25 3.037218 1_555
Mg5 Zn10 3.052784 1_554
Mg5 Zn29 3.055159 1_555
Mg5 Zn15 3.073700 1_655
Mg5 Zn24 3.076002 1_654
Mg5 Zn11 3.078209 1_654
Mg5 Zn11 3.091382 1_554
Mg5 Zn32 3.103457 1_555
Mg5 Zn15 3.110332 1_555
Mg6 Zn21 3.018430 1_555
Mg6 Zn9 3.031369 1_555
Mg6 Zn12 3.045836 1_555
Mg6 Zn12 3.049982 1_455
Mg6 Zn22 3.050290 1_455
Mg6 Zn23 3.064611 1_555
Mg6 Zn6 3.079906 1_555
Mg6 Zn2 3.092984 1_555
Mg6 Zn0 3.093034 1_555
Mg6 Zn0 3.098563 1_455
Mg6 Zn30 3.104202 1_555
Mg6 Zn5 3.108773 1_555
Mg6 Mg8 3.241806 1_455
Mg6 Mg8 3.247402 1_555
Mg7 Zn33 2.920084 1_555
Mg7 Zn26 2.975432 1_555
Mg7 Zn27 2.982778 1_554
Mg7 Zn14 2.990642 1_545
Mg7 Zn20 3.005876 1_554
Mg7 Zn3 3.093241 1_555
Mg7 Zn18 3.096412 1_555
Mg7 Zn1 3.104850 1_554
Mg8 Zn12 3.017294 1_555
Mg8 Zn22 3.050738 1_555
Mg8 Zn24 3.051020 1_655
Mg8 Zn0 3.054737 1_555
Mg8 Zn5 3.058171 1_555
Mg8 Zn30 3.062190 1_655
Mg8 Zn10 3.071913 1_555
Mg8 Zn23 3.073721 1_555
Mg8 Zn23 3.076513 1_655
Mg8 Zn2 3.081045 1_555
Mg8 Zn6 3.084116 1_555
Mg8 Zn2 3.111406 1_655
Mg9 Zn17 2.996814 1_555
Mg9 Zn4 3.018598 1_555
Mg9 Zn14 3.045621 1_545
Mg9 Zn7 3.056736 1_555
Mg9 Zn18 3.059716 1_555
Mg9 Zn7 3.067186 1_655
Mg9 Zn3 3.068421 1_555
Mg9 Zn31 3.080369 1_555
Mg9 Zn31 3.090247 1_455
Mg9 Zn21 3.104503 1_545
Mg9 Zn9 3.105169 1_545
Mg9 Zn13 3.127648 1_545
Mg10 Zn28 2.991857 1_555
Mg10 Zn8 3.033048 1_555
Mg10 Zn4 3.048376 1_555
Mg10 Zn24 3.051438 1_655
Mg10 Zn6 3.057011 1_555
Mg10 Zn10 3.059807 1_555
Mg10 Zn2 3.060550 1_555
Mg10 Zn22 3.067579 1_555
Mg10 Zn17 3.067815 1_555
Mg10 Zn19 3.100015 1_655
Mg10 Zn19 3.104027 1_555
Mg10 Zn2 3.114548 1_655
Mg10 Mg15 3.156616 1_555
Mg10 Mg14 3.198687 1_555
Mg10 Mg14 3.201427 1_655
Mg10 Mg8 3.207534 1_555
Mg11 Zn19 3.023741 1_555
Mg11 Zn6 3.030261 1_555
Mg11 Zn32 3.034511 1_555
Mg11 Zn22 3.054755 1_455
Mg11 Zn7 3.059402 1_555
Mg11 Zn29 3.062610 1_455
Mg11 Zn26 3.069476 1_455
Mg11 Zn34 3.075927 1_555
Mg11 Zn34 3.087490 1_455
Mg11 Zn3 3.096628 1_455
Mg11 Zn18 3.099594 1_555
Mg11 Zn26 3.099787 1_555
Mg11 Mg16 3.130795 1_555
Mg11 Mg2 3.185617 1_555
Mg11 Mg15 3.221976 1_455
Mg11 Mg15 3.251669 1_555
Mg12 Mg19 2.789887 1_446
Mg12 Zn5 2.871848 1_445
Mg12 Zn27 2.880024 1_555
Mg12 Zn30 2.883835 1_545
Mg12 Zn20 2.893919 1_455
Mg12 Zn1 2.928358 1_455
Mg12 Zn1 2.938504 1_555
Mg12 Mg3 3.279303 1_445
Mg12 Mg3 3.284841 1_545
Mg12 Mg7 3.391354 1_456
Mg12 Mg7 3.400147 1_556
Mg13 Zn34 2.994157 1_555
Mg13 Zn29 3.013665 1_555
Mg13 Zn32 3.041040 1_555
Mg13 Zn25 3.066399 1_555
Mg13 Zn12 3.070656 1_555
Mg13 Zn13 3.073768 1_555
Mg13 Zn16 3.081556 1_655
Mg13 Zn9 3.085736 1_655
Mg13 Zn21 3.087171 1_555
Mg13 Zn15 3.087596 1_555
Mg13 Zn15 3.091316 1_655
Mg13 Zn13 3.120089 1_655
Mg13 Mg2 3.192679 1_555
Mg13 Mg2 3.195003 1_655
Mg13 Mg18 3.200036 1_555
Mg13 Mg5 3.203176 1_555
Mg14 Zn2 3.005202 1_555
Mg14 Zn24 3.023589 1_555
Mg14 Zn10 3.042659 1_555
Mg14 Zn20 3.057871 1_455
Mg14 Zn19 3.061875 1_555
Mg14 Zn8 3.075845 1_455
Mg14 Zn27 3.085082 1_555
Mg14 Zn28 3.086249 1_455
Mg14 Zn28 3.092149 1_555
Mg14 Zn8 3.095932 1_555
Mg14 Zn4 3.098822 1_555
Mg14 Zn17 3.103394 1_455
Mg14 Mg17 3.218398 1_555
Mg15 Zn17 3.033484 1_555
Mg15 Zn19 3.034915 1_655
Mg15 Zn6 3.036651 1_555
Mg15 Zn26 3.040655 1_555
Mg15 Zn4 3.046625 1_555
Mg15 Zn22 3.056255 1_555
Mg15 Zn34 3.073780 1_555
Mg15 Zn19 3.076897 1_555
Mg15 Zn7 3.092842 1_555
Mg15 Zn18 3.101295 1_555
Mg15 Zn7 3.102495 1_655
Mg15 Zn3 3.123180 1_555
Mg15 Mg9 3.157409 1_555
Mg16 Zn32 2.990787 1_555
Mg16 Zn3 3.015549 1_455
Mg16 Zn29 3.020712 1_455
Mg16 Zn18 3.036864 1_555
Mg16 Zn26 3.047428 1_455
Mg16 Zn26 3.074479 1_555
Mg16 Zn27 3.102857 1_554
Mg16 Zn20 3.103988 1_454
Mg16 Zn33 3.105493 1_555
Mg16 Zn33 3.114848 1_455
Mg16 Mg7 3.173673 1_455
Mg16 Mg7 3.185425 1_555
Mg16 Mg17 3.203301 1_554
Mg17 Zn20 3.005145 1_455
Mg17 Zn27 3.015897 1_555
Mg17 Zn15 3.022335 1_556
Mg17 Zn32 3.039549 1_556
Mg17 Zn11 3.040496 1_555
Mg17 Zn33 3.052137 1_556
Mg17 Zn29 3.061099 1_456
Mg17 Zn10 3.083728 1_555
Mg17 Zn33 3.091907 1_456
Mg17 Zn8 3.101050 1_555
Mg17 Zn8 3.106561 1_455
Mg17 Zn24 3.107118 1_555
Mg17 Mg5 3.209090 1_456
Mg17 Mg5 3.214344 1_556
Mg18 Mg19 2.939757 1_555
Mg18 Zn31 2.958836 1_565
Mg18 Zn9 2.966395 1_655
Mg18 Zn21 2.998302 1_555
Mg18 Zn7 3.042279 1_665
Mg18 Zn13 3.081701 1_655
Mg18 Zn13 3.084205 1_555
Mg18 Zn16 3.087773 1_655
Mg18 Zn25 3.098969 1_555
Mg18 Zn14 3.100939 1_655
Mg18 Zn3 3.138154 1_565
Mg18 Zn18 3.140537 1_665
Mg18 Zn14 3.150767 1_555
Mg18 Mg9 3.215755 1_665
Mg18 Mg9 3.232165 1_565
Mg19 Zn3 2.862183 1_565
Mg19 Zn16 2.885539 1_655
Mg19 Zn25 2.887399 1_555
Mg19 Zn18 2.900050 1_665
Mg19 Zn14 2.931250 1_655
Mg19 Zn14 2.935361 1_555
Mg19 Mg7 3.270688 1_565
Mg19 Mg7 3.284369 1_665
Mg19 Mg3 3.404678 1_554
Mg19 Mg3 3.414402 1_654
Zn0 Zn30 2.586611 1_655
Zn0 Zn5 2.589863 1_555
Zn0 Zn12 2.614891 1_555
Zn0 Zn31 2.630301 1_565
Zn0 Zn21 2.657840 1_555
Zn0 Zn9 2.675731 1_655
Zn1 Zn30 2.616178 1_545
Zn1 Zn5 2.627213 1_545
Zn1 Zn28 2.636176 1_555
Zn1 Zn27 2.679534 1_555
Zn1 Zn20 2.697528 1_555
Zn2 Zn6 2.606207 1_555
Zn2 Zn22 2.613834 1_455
Zn2 Zn23 2.618941 1_555
Zn2 Zn24 2.626928 1_555
Zn3 Zn7 2.592141 1_655
Zn4 Zn7 2.663347 1_555
Zn10 Zn8 2.551668 1_555
Zn10 Zn24 2.594855 1_655
Zn10 Zn11 2.623793 1_555
Zn10 Zn2 2.636099 1_555
Zn10 Zn23 2.670612 1_555
Zn10 Zn24 2.692261 1_555
Zn11 Zn15 2.627950 1_556
Zn11 Zn24 2.639900 1_555
Zn11 Zn25 2.640672 1_556
Zn11 Zn16 2.645544 1_556
Zn11 Zn23 2.668507 1_555
Zn12 Zn22 2.604938 1_555
Zn12 Zn34 2.621218 1_555
Zn12 Zn6 2.624187 1_555
Zn12 Zn21 2.636657 1_555
Zn12 Zn9 2.648688 1_655
Zn13 Zn21 2.557523 1_555
Zn13 Zn9 2.562933 1_555
Zn13 Zn15 2.628088 1_555
Zn13 Zn14 2.645624 1_555
Zn13 Zn25 2.672312 1_555
Zn13 Zn16 2.706619 1_555
Zn14 Zn18 2.610609 1_565
Zn14 Zn3 2.619547 1_565
Zn14 Zn16 2.673073 1_555
Zn14 Zn25 2.677542 1_555
Zn15 Zn29 2.559282 1_455
Zn15 Zn32 2.564936 1_555
Zn15 Zn25 2.669488 1_555
Zn15 Zn16 2.673208 1_555
Zn16 Zn25 2.515716 1_455
Zn16 Zn25 2.771132 1_555
Zn17 Zn28 2.574679 1_555
Zn17 Zn4 2.584561 1_555
Zn17 Zn31 2.629849 1_555
Zn17 Zn19 2.634148 1_655
Zn17 Zn7 2.670279 1_655
Zn17 Zn4 2.702295 1_655
Zn18 Zn7 2.576630 1_555
Zn18 Zn26 2.585501 1_555
Zn18 Zn3 2.621063 1_455
Zn18 Zn3 2.665879 1_555
Zn19 Zn6 2.610704 1_555
Zn19 Zn7 2.611526 1_555
Zn19 Zn22 2.619497 1_455
Zn19 Zn2 2.625099 1_555
Zn19 Zn4 2.644469 1_555
Zn20 Zn27 2.517640 1_655
Zn20 Zn33 2.644502 1_556
Zn20 Zn8 2.656839 1_555
Zn20 Zn28 2.701043 1_555
Zn20 Zn27 2.769389 1_555
Zn21 Zn9 2.588531 1_555
Zn21 Zn31 2.631350 1_565
Zn21 Zn9 2.698350 1_655
Zn22 Zn34 2.627884 1_555
Zn22 Zn6 2.642307 1_555
Zn22 Zn6 2.644950 1_655
Zn23 Zn5 2.587363 1_555
Zn23 Zn30 2.600360 1_555
Zn23 Zn24 2.661006 1_555
Zn24 Zn8 2.563086 1_455
Zn26 Zn3 2.596559 1_555
Zn26 Zn34 2.622460 1_555
Zn26 Zn29 2.664904 1_555
Zn26 Zn33 2.671003 1_555
Zn26 Zn32 2.675708 1_555
Zn27 Zn33 2.631958 1_556
Zn27 Zn8 2.682644 1_555
Zn27 Zn28 2.706983 1_555
Zn28 Zn4 2.558660 1_555
Zn28 Zn8 2.622389 1_555
Zn29 Zn32 2.588910 1_655
Zn29 Zn33 2.625152 1_555
Zn29 Zn34 2.629915 1_555
Zn29 Zn32 2.698073 1_555
Zn30 Zn5 2.618932 1_455
Zn30 Zn5 2.667915 1_555
Zn31 Zn9 2.627587 1_645
Zn31 Zn7 2.630444 1_655
Zn31 Zn4 2.635072 1_655
Zn32 Zn33 2.628594 1_555
Zn32 Zn34 2.629292 1_555
Zn33 Zn8 2.641293 1_554
Zn34 Zn6 2.600685 1_555
