# generated using pymatgen
data_MnC4BrO4
_symmetry_space_group_name_H-M   'P 1'
_cell_length_a   11.95851800
_cell_length_b   9.76946400
_cell_length_c   13.03584880
_cell_angle_alpha   70.65774958
_cell_angle_beta   90.00000000
_cell_angle_gamma   90.00000000
_symmetry_Int_Tables_number   1
_chemical_formula_structural   MnC4BrO4
_chemical_formula_sum   'Mn8 C32 Br8 O32'
_cell_volume   1436.99593713
_cell_formula_units_Z   8
loop_
 _symmetry_equiv_pos_site_id
 _symmetry_equiv_pos_as_xyz
  1  'x, y, z'
loop_
 _atom_site_type_symbol
 _atom_site_label
 _atom_site_symmetry_multiplicity
 _atom_site_fract_x
 _atom_site_fract_y
 _atom_site_fract_z
 _atom_site_occupancy
  Mn  Mn0  1  0.12591700  0.81337200  0.71944000  1
  Mn  Mn1  1  0.87408300  0.18662800  0.28056000  1
  Mn  Mn2  1  0.37408300  0.81337200  0.21944000  1
  Mn  Mn3  1  0.37683000  0.39789500  0.32125900  1
  Mn  Mn4  1  0.62591700  0.18662800  0.78056000  1
  Mn  Mn5  1  0.87683000  0.60210500  0.17874100  1
  Mn  Mn6  1  0.62317000  0.60210500  0.67874100  1
  Mn  Mn7  1  0.12317000  0.39789500  0.82125900  1
  C  C0  1  0.71818700  0.19266800  0.66157900  1
  C  C1  1  0.46075800  0.95463100  0.24305700  1
  C  C2  1  0.97095400  0.73771600  0.08846300  1
  C  C3  1  0.52904600  0.73771600  0.58846300  1
  C  C4  1  0.96663200  0.19513700  0.39518200  1
  C  C5  1  0.78703000  0.59932300  0.06069000  1
  C  C6  1  0.28569200  0.95224200  0.12535100  1
  C  C7  1  0.21297000  0.40067700  0.93931000  1
  C  C8  1  0.53336800  0.19513700  0.89518200  1
  C  C9  1  0.28919400  0.25624400  0.29978700  1
  C  C10  1  0.21080600  0.25624400  0.79978700  1
  C  C11  1  0.46436000  0.41179700  0.19737500  1
  C  C12  1  0.03924200  0.95463100  0.74305700  1
  C  C13  1  0.96075800  0.04536900  0.25694300  1
  C  C14  1  0.03564000  0.41179700  0.69737500  1
  C  C15  1  0.21430800  0.95224200  0.62535100  1
  C  C16  1  0.46663200  0.80486300  0.10481800  1
  C  C17  1  0.02904600  0.26228400  0.91153700  1
  C  C18  1  0.71430800  0.04775800  0.87464900  1
  C  C19  1  0.21818700  0.80733200  0.83842100  1
  C  C20  1  0.71297000  0.59932300  0.56069000  1
  C  C21  1  0.78919400  0.74375600  0.20021300  1
  C  C22  1  0.96436000  0.58820300  0.30262500  1
  C  C23  1  0.53924200  0.04536900  0.75694300  1
  C  C24  1  0.53564000  0.58820300  0.80262500  1
  C  C25  1  0.28703000  0.40067700  0.43931000  1
  C  C26  1  0.03336800  0.80486300  0.60481800  1
  C  C27  1  0.78181300  0.19266800  0.16157900  1
  C  C28  1  0.78569200  0.04775800  0.37464900  1
  C  C29  1  0.28181300  0.80733200  0.33842100  1
  C  C30  1  0.71080600  0.74375600  0.70021300  1
  C  C31  1  0.47095400  0.26228400  0.41153700  1
  Br  Br0  1  0.49256000  0.60712100  0.34696800  1
  Br  Br1  1  0.75692000  0.39512700  0.30498500  1
  Br  Br2  1  0.00744000  0.60712100  0.84696800  1
  Br  Br3  1  0.99256000  0.39287900  0.15303200  1
  Br  Br4  1  0.24308000  0.60487300  0.69501500  1
  Br  Br5  1  0.74308000  0.39512700  0.80498500  1
  Br  Br6  1  0.25692000  0.60487300  0.19501500  1
  Br  Br7  1  0.50744000  0.39287900  0.65303200  1
  O  O0  1  0.73211500  0.95706800  0.43437800  1
  O  O1  1  0.22544900  0.80703100  0.41042700  1
  O  O2  1  0.73431000  0.83541700  0.21210400  1
  O  O3  1  0.23141800  0.40073200  0.51163500  1
  O  O4  1  0.76788500  0.95706800  0.93437800  1
  O  O5  1  0.98432600  0.42041100  0.62057000  1
  O  O6  1  0.27455100  0.80703100  0.91042700  1
  O  O7  1  0.76858200  0.59926800  0.48836500  1
  O  O8  1  0.02413600  0.19759200  0.46583200  1
  O  O9  1  0.77455100  0.19296900  0.58957300  1
  O  O10  1  0.48432600  0.57958900  0.87943000  1
  O  O11  1  0.97586400  0.80240800  0.53416800  1
  O  O12  1  0.46972400  0.82358600  0.53183000  1
  O  O13  1  0.73141800  0.59926800  0.98836500  1
  O  O14  1  0.53027600  0.17641400  0.46817000  1
  O  O15  1  0.23431000  0.16458300  0.28789600  1
  O  O16  1  0.26858200  0.40073200  0.01163500  1
  O  O17  1  0.96972400  0.17641400  0.96817000  1
  O  O18  1  0.51567400  0.42041100  0.12057000  1
  O  O19  1  0.23211500  0.04293200  0.06562200  1
  O  O20  1  0.26788500  0.04293200  0.56562200  1
  O  O21  1  0.98695500  0.04737400  0.75635200  1
  O  O22  1  0.01304500  0.95262600  0.24364800  1
  O  O23  1  0.47586400  0.19759200  0.96583200  1
  O  O24  1  0.01567400  0.57958900  0.37943000  1
  O  O25  1  0.48695500  0.95262600  0.74364800  1
  O  O26  1  0.26569000  0.16458300  0.78789600  1
  O  O27  1  0.51304500  0.04737400  0.25635200  1
  O  O28  1  0.72544900  0.19296900  0.08957300  1
  O  O29  1  0.03027600  0.82358600  0.03183000  1
  O  O30  1  0.52413600  0.80240800  0.03416800  1
  O  O31  1  0.76569000  0.83541700  0.71210400  1
loop_
_geom_bond_atom_site_label_1
_geom_bond_atom_site_label_2
_geom_bond_distance
_geom_bond_site_symmetry_2
C0 O9 1.154806 1_555
C0 Mn4 1.888394 1_555
C1 O27 1.160151 1_565
C1 Mn2 1.831675 1_555
C2 O29 1.158354 1_655
C2 Mn5 1.836933 1_555
C3 O12 1.158354 1_555
C3 Mn6 1.836933 1_555
C4 O8 1.155983 1_655
C4 Mn1 1.883269 1_555
C5 O13 1.153913 1_554
C5 Mn5 1.884104 1_555
C6 O19 1.159637 1_565
C6 Mn2 1.833029 1_555
C7 O16 1.153913 1_556
C7 Mn7 1.884104 1_555
C8 O23 1.155983 1_555
C8 Mn4 1.883269 1_555
C9 O15 1.161305 1_555
C9 Mn3 1.829832 1_555
C10 O26 1.161305 1_555
C10 Mn7 1.829832 1_555
C11 O18 1.153369 1_555
C11 Mn3 1.891245 1_555
C12 O21 1.160151 1_465
C12 Mn0 1.831675 1_555
C13 O22 1.160151 1_645
C13 Mn1 1.831675 1_555
C14 O5 1.153369 1_455
C14 Mn7 1.891245 1_555
C15 O20 1.159637 1_565
C15 Mn0 1.833029 1_555
C16 O30 1.155983 1_555
C16 Mn2 1.883269 1_555
C17 O17 1.158354 1_455
C17 Mn7 1.836933 1_555
C18 O4 1.159637 1_545
C18 Mn4 1.833029 1_555
C19 O6 1.154806 1_555
C19 Mn0 1.888394 1_555
C20 O7 1.153913 1_555
C20 Mn6 1.884104 1_555
C21 O2 1.161305 1_555
C21 Mn5 1.829832 1_555
C22 O24 1.153369 1_655
C22 Mn5 1.891245 1_555
C23 O25 1.160151 1_545
C23 Mn4 1.831675 1_555
C24 O10 1.153369 1_555
C24 Mn6 1.891245 1_555
C25 O3 1.153913 1_555
C25 Mn3 1.884104 1_555
C26 O11 1.155983 1_455
C26 Mn0 1.883269 1_555
C27 O28 1.154806 1_555
C27 Mn1 1.888394 1_555
C28 O0 1.159637 1_545
C28 Mn1 1.833029 1_555
C29 O1 1.154806 1_555
C29 Mn2 1.888394 1_555
C30 O31 1.161305 1_555
C30 Mn6 1.829832 1_555
C31 O14 1.158354 1_555
C31 Mn3 1.836933 1_555
Br0 Mn2 2.571414 1_555
Br0 Mn3 2.580597 1_555
Br1 Mn1 2.577426 1_555
Br1 Mn5 2.578551 1_555
Br2 Mn0 2.571414 1_555
Br2 Mn7 2.580597 1_555
Br3 Mn1 2.571414 1_555
Br3 Mn5 2.580597 1_555
Br4 Mn0 2.577426 1_555
Br4 Mn7 2.578551 1_555
Br5 Mn4 2.577426 1_555
Br5 Mn6 2.578551 1_555
Br6 Mn2 2.577426 1_555
Br6 Mn3 2.578551 1_555
Br7 Mn4 2.571414 1_555
Br7 Mn6 2.580597 1_555
