# generated using pymatgen
data_CaSmCuClO3
_symmetry_space_group_name_H-M   'P 1'
_cell_length_a   3.92161800
_cell_length_b   3.92161800
_cell_length_c   13.57128300
_cell_angle_alpha   90.00000000
_cell_angle_beta   90.00000000
_cell_angle_gamma   90.00000000
_symmetry_Int_Tables_number   1
_chemical_formula_structural   CaSmCuClO3
_chemical_formula_sum   'Ca2 Sm2 Cu2 Cl2 O6'
_cell_volume   208.71395197
_cell_formula_units_Z   2
loop_
 _symmetry_equiv_pos_site_id
 _symmetry_equiv_pos_as_xyz
  1  'x, y, z'
loop_
 _atom_site_type_symbol
 _atom_site_label
 _atom_site_symmetry_multiplicity
 _atom_site_fract_x
 _atom_site_fract_y
 _atom_site_fract_z
 _atom_site_occupancy
  Ca  Ca0  1  0.50000000  0.00000000  0.16100000  1
  Ca  Ca1  1  0.00000000  0.50000000  0.83900000  1
  Sm  Sm0  1  0.50000000  0.00000000  0.41096200  1
  Sm  Sm1  1  0.00000000  0.50000000  0.58903800  1
  Cu  Cu0  1  0.50000000  0.00000000  0.72280700  1
  Cu  Cu1  1  0.00000000  0.50000000  0.27719300  1
  Cl  Cl0  1  0.50000000  0.00000000  0.92602700  1
  Cl  Cl1  1  0.00000000  0.50000000  0.07397300  1
  O  O0  1  0.50000000  0.50000000  0.72551900  1
  O  O1  1  0.50000000  0.50000000  0.27448100  1
  O  O2  1  0.00000000  0.00000000  0.72551900  1
  O  O3  1  0.50000000  0.50000000  0.50000000  1
  O  O4  1  0.00000000  0.00000000  0.27448100  1
  O  O5  1  0.00000000  0.00000000  0.50000000  1
loop_
_geom_bond_atom_site_label_1
_geom_bond_atom_site_label_2
_geom_bond_distance
_geom_bond_site_symmetry_2
Ca0 O4 2.493316 1_555
Ca0 O1 2.493316 1_555
Ca0 O4 2.493316 1_655
Ca0 O1 2.493316 1_545
Ca0 Cl1 3.014045 1_655
Ca0 Cl1 3.014045 1_645
Ca0 Cl1 3.014045 1_555
Ca0 Cl1 3.014045 1_545
Ca0 Cl0 3.188885 1_554
Ca1 O2 2.493316 1_565
Ca1 O0 2.493316 1_555
Ca1 O2 2.493316 1_555
Ca1 O0 2.493316 1_455
Ca1 Cl0 3.014045 1_455
Ca1 Cl0 3.014045 1_555
Ca1 Cl0 3.014045 1_465
Ca1 Cl0 3.014045 1_565
Ca1 Cl1 3.188885 1_556
Cu0 O2 1.961154 1_655
Cu0 O0 1.961154 1_545
Cu0 O2 1.961154 1_555
Cu0 O0 1.961154 1_555
Cu1 O4 1.961154 1_555
Cu1 O1 1.961154 1_555
Cu1 O1 1.961154 1_455
Cu1 O4 1.961154 1_565
Cl0 Cu0 2.757956 1_555
Cl1 Cu1 2.757956 1_555
O0 Sm1 2.697313 1_555
O0 Sm1 2.697313 1_655
O1 Sm0 2.697313 1_555
O1 Sm0 2.697313 1_565
O2 Sm1 2.697313 1_545
O2 Sm1 2.697313 1_555
O3 Sm1 2.303238 1_655
O3 Sm1 2.303238 1_555
O3 Sm0 2.303238 1_565
O3 Sm0 2.303238 1_555
O4 Sm0 2.697313 1_555
O4 Sm0 2.697313 1_455
O5 Sm1 2.303238 1_545
O5 Sm1 2.303238 1_555
O5 Sm0 2.303238 1_455
O5 Sm0 2.303238 1_555
