# generated using pymatgen
data_Eu(InAs)2
_symmetry_space_group_name_H-M   'P 1'
_cell_length_a   4.23915125
_cell_length_b   4.23796063
_cell_length_c   17.92034937
_cell_angle_alpha   89.93312100
_cell_angle_beta   90.00959015
_cell_angle_gamma   119.98732054
_symmetry_Int_Tables_number   1
_chemical_formula_structural   Eu(InAs)2
_chemical_formula_sum   'Eu2 In4 As4'
_cell_volume   278.84833968
_cell_formula_units_Z   2
loop_
 _symmetry_equiv_pos_site_id
 _symmetry_equiv_pos_as_xyz
  1  'x, y, z'
loop_
 _atom_site_type_symbol
 _atom_site_label
 _atom_site_symmetry_multiplicity
 _atom_site_fract_x
 _atom_site_fract_y
 _atom_site_fract_z
 _atom_site_occupancy
  Eu  Eu0  1  0.99998400  0.00005351  0.49999995  1
  Eu  Eu1  1  -0.00001308  0.99992688  -0.00000389  1
  In  In0  1  0.33318510  0.66846284  0.82797712  1
  In  In1  1  0.66803378  0.33556963  0.32796607  1
  In  In2  1  0.66683440  0.33135392  0.17202204  1
  In  In3  1  0.33194685  0.66462017  0.67203367  1
  As  As0  1  0.66605925  0.33236340  0.60602239  1
  As  As1  1  0.66648636  0.33425002  0.89396863  1
  As  As2  1  0.33350230  0.66558253  0.10604234  1
  As  As3  1  0.33398205  0.66781510  0.39397167  1
loop_
_geom_bond_atom_site_label_1
_geom_bond_atom_site_label_2
_geom_bond_distance
_geom_bond_site_symmetry_2
In0 In3 2.794616 1_555
In1 In2 2.794637 1_555
As0 In3 2.716580 1_655
As0 In3 2.717752 1_555
As0 In3 2.720251 1_545
As0 Eu0 3.097635 1_455
As0 Eu0 3.097892 1_555
As0 Eu0 3.099177 1_565
As1 In0 2.716297 1_545
As1 In0 2.718085 1_655
As1 In0 2.719737 1_555
As1 Eu1 3.097152 1_656
As1 Eu1 3.097480 1_546
As1 Eu1 3.100241 1_646
As2 In2 2.716153 1_565
As2 In2 2.717891 1_455
As2 In2 2.719800 1_555
As2 Eu1 3.097297 1_545
As2 Eu1 3.097643 1_655
As2 Eu1 3.100551 1_555
As3 In1 2.716736 1_455
As3 In1 2.717469 1_555
As3 In1 2.720244 1_565
As3 Eu0 3.097487 1_565
As3 Eu0 3.097962 1_465
As3 Eu0 3.099448 1_455
