# generated using pymatgen
data_Er(Al10Cr)2
_symmetry_space_group_name_H-M   'P 1'
_cell_length_a   10.22749490
_cell_length_b   10.22749490
_cell_length_c   10.22749490
_cell_angle_alpha   60.00000000
_cell_angle_beta   60.00000000
_cell_angle_gamma   60.00000000
_symmetry_Int_Tables_number   1
_chemical_formula_structural   Er(Al10Cr)2
_chemical_formula_sum   'Er2 Al40 Cr4'
_cell_volume   756.47192959
_cell_formula_units_Z   2
loop_
 _symmetry_equiv_pos_site_id
 _symmetry_equiv_pos_as_xyz
  1  'x, y, z'
loop_
 _atom_site_type_symbol
 _atom_site_label
 _atom_site_symmetry_multiplicity
 _atom_site_fract_x
 _atom_site_fract_y
 _atom_site_fract_z
 _atom_site_occupancy
  Er  Er0  1  0.00000000  0.00000000  0.00000000  1
  Er  Er1  1  0.25000000  0.25000000  0.25000000  1
  Al  Al0  1  0.06779700  0.79979600  0.79979600  1
  Al  Al1  1  0.45020400  0.91739000  0.18220300  1
  Al  Al2  1  0.79979600  0.33261000  0.79979600  1
  Al  Al3  1  0.45020400  0.91739000  0.45020400  1
  Al  Al4  1  0.18220300  0.45020400  0.45020400  1
  Al  Al5  1  0.18220300  0.91739000  0.45020400  1
  Al  Al6  1  0.33261000  0.06779700  0.79979600  1
  Al  Al7  1  0.79979600  0.06779700  0.33261000  1
  Al  Al8  1  0.61207200  0.88792800  0.61207200  1
  Al  Al9  1  0.36207200  0.63792800  0.63792800  1
  Al  Al10  1  0.91739000  0.18220300  0.45020400  1
  Al  Al11  1  0.91739000  0.45020400  0.45020400  1
  Al  Al12  1  0.45020400  0.45020400  0.18220300  1
  Al  Al13  1  0.63792800  0.36207200  0.36207200  1
  Al  Al14  1  0.88792800  0.61207200  0.88792800  1
  Al  Al15  1  0.36207200  0.63792800  0.36207200  1
  Al  Al16  1  0.88792800  0.61207200  0.61207200  1
  Al  Al17  1  0.33261000  0.79979600  0.06779700  1
  Al  Al18  1  0.06779700  0.79979600  0.33261000  1
  Al  Al19  1  0.63792800  0.36207200  0.63792800  1
  Al  Al20  1  0.45020400  0.45020400  0.91739000  1
  Al  Al21  1  0.79979600  0.79979600  0.33261000  1
  Al  Al22  1  0.06779700  0.33261000  0.79979600  1
  Al  Al23  1  0.63792800  0.63792800  0.36207200  1
  Al  Al24  1  0.12500000  0.12500000  0.62500000  1
  Al  Al25  1  0.33261000  0.79979600  0.79979600  1
  Al  Al26  1  0.36207200  0.36207200  0.63792800  1
  Al  Al27  1  0.61207200  0.88792800  0.88792800  1
  Al  Al28  1  0.61207200  0.61207200  0.88792800  1
  Al  Al29  1  0.91739000  0.45020400  0.18220300  1
  Al  Al30  1  0.79979600  0.06779700  0.79979600  1
  Al  Al31  1  0.88792800  0.88792800  0.61207200  1
  Al  Al32  1  0.79979600  0.33261000  0.06779700  1
  Al  Al33  1  0.12500000  0.12500000  0.12500000  1
  Al  Al34  1  0.45020400  0.18220300  0.45020400  1
  Al  Al35  1  0.45020400  0.18220300  0.91739000  1
  Al  Al36  1  0.18220300  0.45020400  0.91739000  1
  Al  Al37  1  0.62500000  0.12500000  0.12500000  1
  Al  Al38  1  0.79979600  0.79979600  0.06779700  1
  Al  Al39  1  0.12500000  0.62500000  0.12500000  1
  Cr  Cr0  1  0.62500000  0.62500000  0.62500000  1
  Cr  Cr1  1  0.62500000  0.12500000  0.62500000  1
  Cr  Cr2  1  0.62500000  0.62500000  0.12500000  1
  Cr  Cr3  1  0.12500000  0.62500000  0.62500000  1
loop_
_geom_bond_atom_site_label_1
_geom_bond_atom_site_label_2
_geom_bond_distance
_geom_bond_site_symmetry_2
Al0 Al9 2.704667 1_555
Al0 Al25 2.708374 1_555
Al0 Al30 2.740979 1_465
Al0 Al38 2.740979 1_456
Al0 Cr3 2.799708 1_555
Al0 Al14 2.833024 1_455
Al0 Al31 2.833024 1_455
Al0 Al5 2.919404 1_555
Al0 Al36 2.919404 1_555
Al0 Al39 3.091054 1_556
Al0 Al24 3.091054 1_565
Al0 Er0 3.196725 1_566
Al1 Al27 2.704671 1_554
Al1 Al35 2.708374 1_564
Al1 Al3 2.740979 1_555
Al1 Al5 2.740979 1_555
Al1 Cr2 2.799717 1_555
Al1 Al23 2.833028 1_555
Al1 Al15 2.833033 1_555
Al1 Al38 2.919404 1_555
Al1 Al17 2.919420 1_555
Al1 Al37 3.091045 1_565
Al1 Al33 3.091054 1_565
Al1 Er1 3.196716 1_565
Al2 Al30 2.708374 1_555
Al2 Al22 2.740979 1_655
Al2 Al32 2.740979 1_556
Al2 Cr0 2.799713 1_555
Al2 Al28 2.833032 1_555
Al2 Al20 2.919404 1_555
Al2 Al37 3.091050 1_556
Al2 Al24 3.091050 1_655
Al2 Er0 3.196720 1_656
Al3 Al8 2.704662 1_555
Al3 Al34 2.708374 1_565
Al3 Al5 2.740979 1_555
Al3 Cr0 2.799713 1_555
Al3 Al9 2.833032 1_555
Al3 Al37 3.091050 1_565
Al3 Er1 3.196720 1_565
Al4 Cr3 2.799708 1_555
Al4 Er1 3.196725 1_555
Al5 Cr3 2.799717 1_555
Al5 Al9 2.833028 1_555
Al5 Er1 3.196716 1_565
Al6 Cr1 2.799717 1_555
Al6 Al8 2.833028 1_545
Al6 Er0 3.196716 1_556
Al7 Cr1 2.799717 1_555
Al7 Al8 2.833028 1_545
Al7 Er0 3.196716 1_655
Al8 Cr0 2.563702 1_555
Al8 Cr1 2.563702 1_565
Al9 Cr0 2.563702 1_555
Al9 Cr3 2.563702 1_555
Al10 Al31 2.704671 1_545
Al10 Al5 2.708374 1_645
Al10 Al29 2.740979 1_555
Al10 Al11 2.740979 1_555
Al10 Cr1 2.799717 1_555
Al10 Al19 2.833028 1_555
Al10 Al13 2.833033 1_555
Al10 Al30 2.919404 1_555
Al10 Al7 2.919420 1_555
Al10 Al24 3.091045 1_655
Al10 Al33 3.091054 1_655
Al10 Er1 3.196716 1_655
Al11 Al16 2.704662 1_555
Al11 Al4 2.708374 1_655
Al11 Al29 2.740979 1_555
Al11 Cr0 2.799713 1_555
Al11 Al23 2.833032 1_555
Al11 Al19 2.833032 1_555
Al11 Al2 2.919404 1_555
Al11 Al21 2.919404 1_555
Al11 Al24 3.091050 1_655
Al11 Al39 3.091050 1_655
Al11 Er1 3.196720 1_655
Al12 Al28 2.704667 1_554
Al12 Al20 2.708374 1_554
Al12 Al34 2.740979 1_555
Al12 Al4 2.740979 1_555
Al12 Cr2 2.799708 1_555
Al12 Al13 2.833024 1_555
Al12 Al15 2.833024 1_555
Al12 Al32 2.919404 1_555
Al12 Al17 2.919404 1_555
Al12 Al37 3.091054 1_555
Al12 Al39 3.091054 1_555
Al12 Er1 3.196725 1_555
Al13 Cr2 2.563702 1_555
Al13 Cr1 2.563702 1_555
Al13 Al7 2.704671 1_555
Al13 Al32 2.704671 1_555
Al13 Al26 2.821316 1_555
Al13 Al23 2.821316 1_555
Al13 Al15 2.821316 1_555
Al13 Al19 2.821316 1_555
Al13 Al34 2.833024 1_555
Al13 Al29 2.833033 1_555
Al14 Cr2 2.563702 1_556
Al14 Cr3 2.563702 1_655
Al14 Al29 2.704671 1_556
Al14 Al36 2.704671 1_655
Al14 Al31 2.821316 1_555
Al14 Al28 2.821316 1_555
Al14 Al27 2.821316 1_555
Al14 Al16 2.821316 1_555
Al14 Al38 2.833024 1_556
Al14 Al22 2.833033 1_655
Al14 Al32 2.833033 1_556
Al15 Cr3 2.563702 1_555
Al15 Cr2 2.563702 1_555
Al15 Al18 2.704671 1_555
Al15 Al17 2.704671 1_555
Al15 Al26 2.821316 1_555
Al15 Al23 2.821316 1_555
Al15 Al9 2.821316 1_555
Al15 Al4 2.833024 1_555
Al15 Al5 2.833033 1_555
Al16 Cr0 2.563702 1_555
Al16 Cr3 2.563702 1_655
Al16 Al4 2.704667 1_655
Al16 Al8 2.821316 1_555
Al16 Al31 2.821316 1_555
Al16 Al28 2.821316 1_555
Al16 Al18 2.833028 1_655
Al16 Al22 2.833028 1_655
Al16 Al21 2.833032 1_555
Al16 Al2 2.833032 1_555
Al17 Al18 2.708374 1_555
Al17 Al25 2.740979 1_554
Al17 Al6 2.740979 1_564
Al17 Cr2 2.799717 1_555
Al17 Al28 2.833028 1_554
Al17 Al27 2.833033 1_554
Al17 Al39 3.091045 1_555
Al17 Al33 3.091054 1_565
Al17 Er0 3.196716 1_565
Al18 Al21 2.740979 1_455
Al18 Al7 2.740979 1_465
Al18 Cr3 2.799717 1_555
Al18 Al31 2.833033 1_455
Al18 Al4 2.919404 1_555
Al18 Al5 2.919420 1_555
Al18 Al39 3.091045 1_555
Al18 Al33 3.091054 1_565
Al18 Er0 3.196716 1_565
Al19 Cr0 2.563702 1_555
Al19 Cr1 2.563702 1_555
Al19 Al2 2.704662 1_555
Al19 Al30 2.704667 1_555
Al19 Al26 2.821316 1_555
Al19 Al23 2.821316 1_555
Al19 Al9 2.821316 1_555
Al19 Al35 2.833028 1_555
Al19 Al20 2.833032 1_555
Al20 Al28 2.704662 1_555
Al20 Al35 2.740979 1_555
Al20 Al36 2.740979 1_555
Al20 Cr0 2.799713 1_555
Al20 Al9 2.833032 1_555
Al20 Al25 2.919404 1_555
Al20 Al39 3.091050 1_556
Al20 Al37 3.091050 1_556
Al20 Er1 3.196720 1_556
Al21 Al23 2.704662 1_555
Al21 Al38 2.708374 1_555
Al21 Al7 2.740979 1_565
Al21 Cr0 2.799713 1_555
Al21 Al8 2.833032 1_555
Al21 Al3 2.919404 1_555
Al21 Al39 3.091050 1_655
Al21 Al37 3.091050 1_565
Al21 Er0 3.196720 1_665
Al22 Al26 2.704671 1_555
Al22 Al6 2.708374 1_555
Al22 Al32 2.740979 1_456
Al22 Cr3 2.799717 1_555
Al22 Al4 2.919404 1_555
Al22 Al36 2.919420 1_555
Al22 Al24 3.091045 1_555
Al22 Al33 3.091054 1_556
Al22 Er0 3.196716 1_556
Al23 Cr0 2.563702 1_555
Al23 Cr2 2.563702 1_555
Al23 Al38 2.704667 1_555
Al23 Al9 2.821316 1_555
Al23 Al29 2.833028 1_555
Al23 Al3 2.833032 1_555
Al24 Al5 3.091045 1_545
Al24 Al6 3.091045 1_555
Al24 Al3 3.091050 1_545
Al24 Al25 3.091050 1_545
Al24 Al4 3.091054 1_555
Al24 Al30 3.091054 1_455
Al24 Al34 3.091054 1_555
Al24 Er1 3.131518 1_555
Al24 Er0 3.131518 1_556
Al25 Al9 2.704662 1_555
Al25 Al6 2.740979 1_565
Al25 Cr0 2.799713 1_555
Al25 Al8 2.833032 1_555
Al25 Al28 2.833032 1_555
Al25 Al3 2.919404 1_555
Al25 Al39 3.091050 1_556
Al25 Er0 3.196720 1_566
Al26 Cr3 2.563702 1_555
Al26 Cr1 2.563702 1_555
Al26 Al6 2.704671 1_555
Al26 Al9 2.821316 1_555
Al26 Al4 2.833024 1_555
Al26 Al34 2.833024 1_555
Al26 Al36 2.833033 1_555
Al26 Al35 2.833033 1_555
Al27 Cr2 2.563702 1_556
Al27 Cr1 2.563702 1_565
Al27 Al35 2.704671 1_565
Al27 Al8 2.821316 1_555
Al27 Al31 2.821316 1_555
Al27 Al28 2.821316 1_555
Al27 Al38 2.833024 1_556
Al27 Al30 2.833024 1_565
Al27 Al6 2.833033 1_565
Al28 Cr2 2.563702 1_556
Al28 Cr0 2.563702 1_555
Al28 Al8 2.821316 1_555
Al28 Al32 2.833028 1_556
Al29 Al36 2.708374 1_654
Al29 Cr2 2.799717 1_555
Al29 Al38 2.919404 1_555
Al29 Al32 2.919420 1_555
Al29 Al39 3.091045 1_655
Al29 Al33 3.091054 1_655
Al29 Er1 3.196716 1_655
Al30 Al38 2.740979 1_546
Al30 Cr1 2.799708 1_555
Al30 Al31 2.833024 1_545
Al30 Al35 2.919404 1_555
Al30 Al37 3.091054 1_556
Al30 Er0 3.196725 1_656
Al31 Cr3 2.563702 1_655
Al31 Cr1 2.563702 1_565
Al31 Al5 2.704671 1_655
Al31 Al8 2.821316 1_555
Al31 Al7 2.833033 1_565
Al32 Al7 2.708374 1_555
Al32 Cr2 2.799717 1_555
Al32 Al37 3.091045 1_555
Al32 Al33 3.091054 1_655
Al32 Er0 3.196716 1_655
Al33 Al36 3.091054 1_554
Al33 Al5 3.091054 1_545
Al33 Al7 3.091054 1_455
Al33 Al6 3.091054 1_554
Al33 Al35 3.091054 1_554
Al33 Er1 3.131518 1_555
Al33 Er0 3.131518 1_555
Al34 Al8 2.704667 1_545
Al34 Al4 2.740979 1_555
Al34 Cr1 2.799708 1_555
Al34 Al6 2.919404 1_555
Al34 Al7 2.919404 1_555
Al34 Al37 3.091054 1_555
Al34 Er1 3.196725 1_555
Al35 Al36 2.740979 1_555
Al35 Cr1 2.799717 1_555
Al35 Al6 2.919420 1_555
Al35 Al37 3.091045 1_556
Al35 Er1 3.196716 1_556
Al36 Cr3 2.799717 1_555
Al36 Al9 2.833028 1_555
Al36 Al39 3.091045 1_556
Al36 Er1 3.196716 1_556
Al37 Al7 3.091045 1_555
Al37 Al38 3.091054 1_545
Al37 Er1 3.131518 1_555
Al37 Er0 3.131518 1_655
Al38 Cr2 2.799708 1_555
Al38 Al39 3.091054 1_655
Al38 Er0 3.196725 1_665
Al39 Al4 3.091054 1_555
Al39 Er1 3.131518 1_555
Al39 Er0 3.131518 1_565
