# generated using pymatgen
data_LiZnPO4
_symmetry_space_group_name_H-M   'P 1'
_cell_length_a   10.04042092
_cell_length_b   10.04042092
_cell_length_c   19.73844770
_cell_angle_alpha   60.14373068
_cell_angle_beta   60.14373068
_cell_angle_gamma   58.94510550
_symmetry_Int_Tables_number   1
_chemical_formula_structural   LiZnPO4
_chemical_formula_sum   'Li16 Zn16 P16 O64'
_cell_volume   1398.44345290
_cell_formula_units_Z   16
loop_
 _symmetry_equiv_pos_site_id
 _symmetry_equiv_pos_as_xyz
  1  'x, y, z'
loop_
 _atom_site_type_symbol
 _atom_site_label
 _atom_site_symmetry_multiplicity
 _atom_site_fract_x
 _atom_site_fract_y
 _atom_site_fract_z
 _atom_site_occupancy
  Li  Li0  1  0.98153100  0.60801500  0.41103000  1
  Li  Li1  1  0.48205800  0.54755900  0.41174500  1
  Li  Li2  1  0.48375400  0.62536000  0.16067100  1
  Li  Li3  1  0.10855200  0.99544100  0.91025200  1
  Li  Li4  1  0.98585500  0.62250700  0.16097200  1
  Li  Li5  1  0.62250700  0.98585500  0.66097200  1
  Li  Li6  1  0.48184100  0.05173200  0.41355300  1
  Li  Li7  1  0.54755900  0.48205800  0.91174500  1
  Li  Li8  1  0.12282400  0.54432700  0.66099100  1
  Li  Li9  1  0.12401800  0.04512800  0.66214800  1
  Li  Li10  1  0.62536000  0.48375400  0.66067100  1
  Li  Li11  1  0.04512800  0.12401800  0.16214800  1
  Li  Li12  1  0.99544100  0.10855200  0.41025200  1
  Li  Li13  1  0.60801500  0.98153100  0.91103000  1
  Li  Li14  1  0.54432700  0.12282400  0.16099100  1
  Li  Li15  1  0.05173200  0.48184100  0.91355300  1
  Zn  Zn0  1  0.36956400  0.29718400  0.78577800  1
  Zn  Zn1  1  0.79708700  0.36445500  0.28512900  1
  Zn  Zn2  1  0.80188200  0.72875600  0.03584700  1
  Zn  Zn3  1  0.86527500  0.22612100  0.03672100  1
  Zn  Zn4  1  0.30201800  0.72972400  0.03569700  1
  Zn  Zn5  1  0.72875600  0.80188200  0.53584700  1
  Zn  Zn6  1  0.23046700  0.36453400  0.53606800  1
  Zn  Zn7  1  0.72972400  0.30201800  0.53569700  1
  Zn  Zn8  1  0.86659600  0.24264600  0.78571200  1
  Zn  Zn9  1  0.29718400  0.36956400  0.28577800  1
  Zn  Zn10  1  0.22612100  0.86527500  0.53672100  1
  Zn  Zn11  1  0.86397300  0.74193100  0.78527500  1
  Zn  Zn12  1  0.36445500  0.79708700  0.78512900  1
  Zn  Zn13  1  0.36453400  0.23046700  0.03606800  1
  Zn  Zn14  1  0.74193100  0.86397300  0.28527500  1
  Zn  Zn15  1  0.24264600  0.86659600  0.28571200  1
  P  P0  1  0.11065700  0.23497100  0.47550200  1
  P  P1  1  0.74070600  0.11665000  0.72240800  1
  P  P2  1  0.23882300  0.17229400  0.72424300  1
  P  P3  1  0.11665000  0.74070600  0.22240800  1
  P  P4  1  0.17628300  0.61552400  0.97319400  1
  P  P5  1  0.67745700  0.61001700  0.97314000  1
  P  P6  1  0.61552400  0.17628300  0.47319400  1
  P  P7  1  0.73766100  0.61516900  0.72257200  1
  P  P8  1  0.17229400  0.23882300  0.22424300  1
  P  P9  1  0.23621700  0.67048300  0.72424300  1
  P  P10  1  0.23497100  0.11065700  0.97550200  1
  P  P11  1  0.67048300  0.23621700  0.22424300  1
  P  P12  1  0.61516900  0.73766100  0.22257200  1
  P  P13  1  0.11007600  0.73409100  0.47434200  1
  P  P14  1  0.61001700  0.67745700  0.47314000  1
  P  P15  1  0.73409100  0.11007600  0.97434200  1
  O  O0  1  0.51574600  0.39159000  0.23709700  1
  O  O1  1  0.14607100  0.64284600  0.05160400  1
  O  O2  1  0.26363900  0.82070900  0.71271200  1
  O  O3  1  0.07737800  0.88726700  0.48998300  1
  O  O4  1  0.20526800  0.77006800  0.89892000  1
  O  O5  1  0.95873600  0.75706800  0.46090900  1
  O  O6  1  0.14118000  0.58625700  0.30047500  1
  O  O7  1  0.64464100  0.64513900  0.04970600  1
  O  O8  1  0.26481300  0.20642100  0.39847500  1
  O  O9  1  0.88559900  0.59281800  0.73875000  1
  O  O10  1  0.52507300  0.58628800  0.98492700  1
  O  O11  1  0.38851400  0.07832200  0.99067500  1
  O  O12  1  0.01394000  0.39136400  0.23761800  1
  O  O13  1  0.76021100  0.71042600  0.39599700  1
  O  O14  1  0.64284600  0.14607100  0.55160400  1
  O  O15  1  0.26024100  0.96014200  0.96047500  1
  O  O16  1  0.77006800  0.20526800  0.39892000  1
  O  O17  1  0.83234800  0.45483500  0.96044000  1
  O  O18  1  0.77125200  0.69993100  0.14789700  1
  O  O19  1  0.58990400  0.02554200  0.48468800  1
  O  O20  1  0.07974900  0.14604900  0.05116000  1
  O  O21  1  0.02554200  0.58990400  0.98468800  1
  O  O22  1  0.45983000  0.77970800  0.20547600  1
  O  O23  1  0.09400000  0.88987900  0.23796800  1
  O  O24  1  0.15026000  0.57923900  0.54946100  1
  O  O25  1  0.14604900  0.07974900  0.55116000  1
  O  O26  1  0.59281800  0.88559900  0.23875000  1
  O  O27  1  0.96014200  0.26024100  0.46047500  1
  O  O28  1  0.57923900  0.15026000  0.04946100  1
  O  O29  1  0.77970800  0.45983000  0.70547600  1
  O  O30  1  0.77873400  0.96251200  0.70622600  1
  O  O31  1  0.58628800  0.52507300  0.48492700  1
  O  O32  1  0.63795400  0.58033700  0.29924100  1
  O  O33  1  0.88987900  0.09400000  0.73796800  1
  O  O34  1  0.58033700  0.63795400  0.79924100  1
  O  O35  1  0.64513900  0.64464100  0.54970600  1
  O  O36  1  0.64156700  0.08291500  0.30002000  1
  O  O37  1  0.71042600  0.76021100  0.89599700  1
  O  O38  1  0.08497500  0.14550400  0.80055700  1
  O  O39  1  0.70195300  0.20375500  0.14724700  1
  O  O40  1  0.20518700  0.20315000  0.14775900  1
  O  O41  1  0.69993100  0.77125200  0.64789700  1
  O  O42  1  0.31976000  0.27005200  0.21230700  1
  O  O43  1  0.75706800  0.95873600  0.96090900  1
  O  O44  1  0.45483500  0.83234800  0.46044000  1
  O  O45  1  0.20642100  0.26481300  0.89847500  1
  O  O46  1  0.26150700  0.70724900  0.39590200  1
  O  O47  1  0.45984700  0.33106300  0.45906200  1
  O  O48  1  0.88726700  0.07737800  0.98998300  1
  O  O49  1  0.33106300  0.45984700  0.95906200  1
  O  O50  1  0.08291500  0.64156700  0.80002000  1
  O  O51  1  0.96251200  0.77873400  0.20622600  1
  O  O52  1  0.82070900  0.26363900  0.21271200  1
  O  O53  1  0.27005200  0.31976000  0.71230700  1
  O  O54  1  0.07832200  0.38851400  0.49067500  1
  O  O55  1  0.58625700  0.14118000  0.80047500  1
  O  O56  1  0.70724900  0.26150700  0.89590200  1
  O  O57  1  0.27241000  0.70167200  0.14773700  1
  O  O58  1  0.20315000  0.20518700  0.64775900  1
  O  O59  1  0.14550400  0.08497500  0.30055700  1
  O  O60  1  0.70167200  0.27241000  0.64773700  1
  O  O61  1  0.39136400  0.01394000  0.73761800  1
  O  O62  1  0.39159000  0.51574600  0.73709700  1
  O  O63  1  0.20375500  0.70195300  0.64724700  1
loop_
_geom_bond_atom_site_label_1
_geom_bond_atom_site_label_2
_geom_bond_distance
_geom_bond_site_symmetry_2
Li0 O6 2.002431 1_655
Li0 O13 2.019556 1_555
Li0 O54 2.033411 1_655
Li0 O5 2.037310 1_555
Li1 O32 1.957726 1_555
Li1 O47 1.979509 1_555
Li1 O46 2.024686 1_555
Li1 O31 2.041907 1_555
Li2 O7 1.954827 1_555
Li2 O57 1.955054 1_555
Li2 O22 2.002616 1_555
Li2 O0 2.016731 1_555
Li3 O38 1.976997 1_565
Li3 O48 2.002950 1_465
Li3 O15 2.006104 1_555
Li3 O4 2.033239 1_555
Li4 O1 1.931859 1_655
Li4 O18 1.984804 1_555
Li4 O12 2.002022 1_655
Li4 O51 2.029919 1_555
Li5 O14 1.931859 1_565
Li5 O41 1.984804 1_555
Li5 O61 2.002022 1_565
Li5 O30 2.029919 1_555
Li6 O36 1.983197 1_555
Li6 O8 1.985659 1_555
Li6 O19 2.018091 1_555
Li6 O44 2.029438 1_545
Li7 O34 1.957726 1_555
Li7 O49 1.979509 1_555
Li7 O56 2.024686 1_555
Li7 O10 2.041907 1_555
Li8 O24 1.942309 1_555
Li8 O63 1.979508 1_555
Li8 O53 2.018204 1_555
Li8 O9 2.042959 1_455
Li9 O25 1.951334 1_555
Li9 O58 1.983124 1_555
Li9 O2 1.983306 1_545
Li9 O33 2.011249 1_455
Li10 O35 1.954827 1_555
Li10 O60 1.955054 1_555
Li10 O29 2.002616 1_555
Li10 O62 2.016731 1_555
Li11 O20 1.951334 1_555
Li11 O40 1.983124 1_555
Li11 O52 1.983306 1_455
Li11 O23 2.011249 1_545
Li12 O59 1.976997 1_655
Li12 O3 2.002950 1_645
Li12 O27 2.006104 1_555
Li12 O16 2.033239 1_555
Li13 O55 2.002431 1_565
Li13 O37 2.019556 1_555
Li13 O11 2.033411 1_565
Li13 O43 2.037310 1_555
Li14 O28 1.942309 1_555
Li14 O39 1.979508 1_555
Li14 O42 2.018204 1_555
Li14 O26 2.042959 1_545
Li15 O50 1.983197 1_555
Li15 O45 1.985659 1_555
Li15 O21 2.018091 1_555
Li15 O17 2.029438 1_455
O0 P11 1.553326 1_555
O0 Zn9 1.994369 1_555
O1 P4 1.559504 1_554
O1 Zn4 1.989493 1_555
O2 P9 1.557861 1_555
O2 Zn12 1.994847 1_555
O3 P13 1.555408 1_555
O3 Zn10 1.989703 1_555
O4 P4 1.554951 1_555
O4 Zn12 1.984780 1_555
O5 P13 1.552748 1_655
O5 Zn5 1.977965 1_555
O6 P3 1.563497 1_555
O6 Zn9 1.982736 1_555
O7 P5 1.559452 1_554
O7 Zn2 1.995246 1_555
O8 P0 1.556465 1_555
O8 Zn9 1.984577 1_555
O9 P7 1.554228 1_555
O9 Zn11 1.991718 1_555
O10 P5 1.555078 1_555
O10 Zn4 1.992161 1_556
O11 P10 1.555073 1_555
O11 Zn13 1.990686 1_556
O12 P8 1.554233 1_555
O12 Zn1 2.003681 1_455
O13 P14 1.558578 1_555
O13 Zn14 1.984834 1_555
O14 P6 1.559504 1_555
O14 Zn7 1.989493 1_555
O15 P10 1.553047 1_565
O15 Zn4 1.982817 1_556
O16 P6 1.554951 1_555
O16 Zn1 1.984780 1_555
O17 P5 1.552360 1_555
O17 Zn3 1.979773 1_556
O18 P12 1.554218 1_555
O18 Zn2 1.961433 1_555
O19 P6 1.552424 1_555
O19 Zn5 1.979916 1_545
O20 P10 1.557251 1_554
O20 Zn3 1.990355 1_455
O21 P4 1.552424 1_555
O21 Zn2 1.979916 1_456
O22 P12 1.558048 1_555
O22 Zn15 1.999703 1_555
O23 P3 1.557684 1_555
O23 Zn15 1.997819 1_555
O24 P13 1.559408 1_555
O24 Zn6 1.982403 1_555
O25 P0 1.557251 1_555
O25 Zn10 1.990355 1_545
O26 P12 1.554228 1_555
O26 Zn14 1.991718 1_555
O27 P0 1.553047 1_655
O27 Zn7 1.982817 1_555
O28 P15 1.559408 1_554
O28 Zn13 1.982403 1_555
O29 P7 1.558048 1_555
O29 Zn8 1.999703 1_555
O30 P1 1.550484 1_565
O30 Zn11 2.001347 1_555
O31 P14 1.555078 1_555
O31 Zn7 1.992161 1_555
O32 P12 1.558667 1_555
O32 Zn1 1.978293 1_555
O33 P1 1.557684 1_555
O33 Zn8 1.997819 1_555
O34 P7 1.558667 1_555
O34 Zn12 1.978293 1_555
O35 P14 1.559452 1_555
O35 Zn5 1.995246 1_555
O36 P11 1.557922 1_555
O36 Zn14 1.998024 1_545
O37 P5 1.558578 1_555
O37 Zn11 1.984834 1_555
O38 P2 1.560774 1_555
O38 Zn8 1.998366 1_455
O39 P11 1.557121 1_555
O39 Zn3 1.956813 1_555
O40 P8 1.560895 1_555
O40 Zn13 1.958083 1_555
O41 P7 1.554218 1_555
O41 Zn5 1.961433 1_555
O42 P8 1.550539 1_555
O42 Zn9 2.008597 1_555
O43 P15 1.552748 1_565
O43 Zn2 1.977965 1_556
O44 P14 1.552360 1_555
O44 Zn10 1.979773 1_555
O45 P10 1.556465 1_555
O45 Zn0 1.984577 1_555
O46 P13 1.558973 1_555
O46 Zn15 1.989716 1_555
O47 P6 1.559626 1_555
O47 Zn6 1.987983 1_555
O48 P15 1.555408 1_555
O48 Zn3 1.989703 1_556
O49 P4 1.559626 1_555
O49 Zn13 1.987983 1_556
O50 P9 1.557922 1_555
O50 Zn11 1.998024 1_455
O51 P3 1.550484 1_655
O51 Zn14 2.001347 1_555
O52 P11 1.557861 1_555
O52 Zn1 1.994847 1_555
O53 P2 1.550539 1_555
O53 Zn0 2.008597 1_555
O54 P0 1.555073 1_555
O54 Zn6 1.990686 1_555
O55 P1 1.563497 1_555
O55 Zn0 1.982736 1_555
O56 P15 1.558973 1_555
O56 Zn8 1.989716 1_555
O57 P3 1.555476 1_555
O57 Zn4 1.967248 1_555
O58 P2 1.560895 1_555
O58 Zn6 1.958083 1_555
O59 P8 1.560774 1_555
O59 Zn15 1.998366 1_545
O60 P1 1.555476 1_555
O60 Zn7 1.967248 1_555
O61 P2 1.554233 1_555
O61 Zn12 2.003681 1_545
O62 P9 1.553326 1_555
O62 Zn0 1.994369 1_555
O63 P9 1.557121 1_555
O63 Zn10 1.956813 1_555
