# generated using pymatgen
data_Sr6Nb2O11
_symmetry_space_group_name_H-M   'P 1'
_cell_length_a   5.99701543
_cell_length_b   6.01942953
_cell_length_c   24.21587309
_cell_angle_alpha   59.00684608
_cell_angle_beta   60.04177538
_cell_angle_gamma   60.33734491
_symmetry_Int_Tables_number   1
_chemical_formula_structural   Sr6Nb2O11
_chemical_formula_sum   'Sr12 Nb4 O22'
_cell_volume   615.06901822
_cell_formula_units_Z   2
loop_
 _symmetry_equiv_pos_site_id
 _symmetry_equiv_pos_as_xyz
  1  'x, y, z'
loop_
 _atom_site_type_symbol
 _atom_site_label
 _atom_site_symmetry_multiplicity
 _atom_site_fract_x
 _atom_site_fract_y
 _atom_site_fract_z
 _atom_site_occupancy
  Sr  Sr0  1  0.15910000  0.33211800  0.06974100  1
  Sr  Sr1  1  0.46145000  0.57429100  0.11675700  1
  Sr  Sr2  1  0.22718100  0.26288400  0.29670700  1
  Sr  Sr3  1  0.40438300  0.50002400  0.37710600  1
  Sr  Sr4  1  0.64266500  0.80461500  0.19822100  1
  Sr  Sr5  1  0.21336300  0.22116800  0.57481900  1
  Sr  Sr6  1  0.48442600  0.51291900  0.61640600  1
  Sr  Sr7  1  0.22753100  0.27621300  0.79933300  1
  Sr  Sr8  1  0.65315500  0.77785300  0.42471200  1
  Sr  Sr9  1  0.44306300  0.49998300  0.88333100  1
  Sr  Sr10  1  0.64579200  0.75778100  0.70369800  1
  Sr  Sr11  1  0.69811200  0.77428000  0.92263300  1
  Nb  Nb0  1  0.98644700  0.05478500  0.99693500  1
  Nb  Nb1  1  0.93472900  0.03272000  0.24822600  1
  Nb  Nb2  1  0.92879400  0.00280100  0.50025600  1
  Nb  Nb3  1  0.94767700  0.03548000  0.74869600  1
  O  O0  1  0.21118900  0.24633000  0.18459900  1
  O  O1  1  0.22550700  0.72776700  0.21289900  1
  O  O2  1  0.76965200  0.37595600  0.02758900  1
  O  O3  1  0.80222200  0.80891400  0.07873000  1
  O  O4  1  0.78910300  0.18945400  0.17147600  1
  O  O5  1  0.66235400  0.33980600  0.28302800  1
  O  O6  1  0.19408500  0.15304400  0.41406200  1
  O  O7  1  0.06517100  0.87574200  0.32877800  1
  O  O8  1  0.66177000  0.82379400  0.30773300  1
  O  O9  1  0.63302400  0.30415200  0.45970700  1
  O  O10  1  0.67605900  0.09886300  0.58162000  1
  O  O11  1  0.21075900  0.78905900  0.69279700  1
  O  O12  1  0.22625600  0.84653900  0.53819500  1
  O  O13  1  0.31235500  0.06614800  0.99594000  1
  O  O14  1  0.91170900  0.68324800  0.50420700  1
  O  O15  1  0.81242500  0.32784100  0.66967200  1
  O  O16  1  0.22987300  0.22103500  0.70693800  1
  O  O17  1  0.64303000  0.28460000  0.80317900  1
  O  O18  1  0.23945000  0.73876200  0.96324700  1
  O  O19  1  0.10709000  0.80989500  0.82537700  1
  O  O20  1  0.67960600  0.82963900  0.79556800  1
  O  O21  1  0.87494400  0.27099200  0.91730400  1
loop_
_geom_bond_atom_site_label_1
_geom_bond_atom_site_label_2
_geom_bond_distance
_geom_bond_site_symmetry_2
Nb0 O21 1.923860 1_555
Nb0 O3 1.936001 1_546
Nb0 O13 1.977074 1_655
Nb0 O2 2.001284 1_556
Nb0 O18 2.022743 1_645
Nb1 O5 2.009034 1_555
Nb1 O1 2.025173 1_645
Nb1 O4 2.026519 1_555
Nb1 O8 2.037903 1_545
Nb1 O7 2.050341 1_645
Nb1 O0 2.072307 1_655
Nb2 O14 1.927525 1_545
Nb2 O10 1.958828 1_555
Nb2 O6 1.967033 1_655
Nb2 O12 1.999276 1_645
Nb2 O9 2.030088 1_555
Nb3 O15 2.021389 1_555
Nb3 O19 2.024145 1_645
Nb3 O20 2.027015 1_545
Nb3 O16 2.032896 1_655
Nb3 O11 2.034773 1_645
Nb3 O17 2.060511 1_555
O0 Sr1 2.445117 1_555
O0 Sr4 2.648281 1_545
O0 Sr0 2.707258 1_555
O0 Sr2 2.817324 1_555
O1 Sr1 2.430450 1_555
O1 Sr2 2.468459 1_555
O1 Sr4 2.585893 1_555
O2 Sr1 2.447217 1_555
O2 Sr11 2.487483 1_554
O2 Sr0 2.838980 1_655
O3 Sr4 2.543852 1_555
O3 Sr1 2.580069 1_555
O3 Sr0 2.638821 1_655
O4 Sr1 2.432460 1_555
O4 Sr0 2.444968 1_655
O4 Sr4 2.541122 1_545
O5 Sr3 2.404072 1_555
O5 Sr4 2.461157 1_555
O5 Sr2 2.703618 1_555
O6 Sr2 2.486794 1_555
O6 Sr3 2.511718 1_555
O6 Sr8 2.588730 1_545
O7 Sr3 2.391832 1_555
O7 Sr8 2.479456 1_455
O7 Sr2 2.569293 1_565
O8 Sr3 2.453340 1_555
O8 Sr2 2.645693 1_565
O8 Sr8 2.676718 1_555
O8 Sr4 2.773271 1_555
O9 Sr3 2.445709 1_555
O9 Sr8 2.571622 1_555
O9 Sr5 2.675339 1_555
O10 Sr10 2.563137 1_545
O10 Sr5 2.564800 1_555
O10 Sr6 2.569553 1_555
O11 Sr6 2.512549 1_555
O11 Sr10 2.657433 1_555
O11 Sr5 2.696375 1_565
O11 Sr7 2.818762 1_555
O12 Sr6 2.439490 1_555
O12 Sr8 2.715340 1_555
O12 Sr5 2.774247 1_565
O13 Sr0 2.540004 1_556
O13 Sr11 2.584050 1_545
O13 Sr9 2.725347 1_555
O13 Sr1 3.032566 1_546
O14 Sr5 2.672797 1_655
O14 Sr8 2.722578 1_555
O14 Sr6 2.788809 1_555
O15 Sr6 2.378900 1_555
O15 Sr5 2.438135 1_655
O15 Sr10 2.681277 1_555
O16 Sr6 2.359860 1_555
O16 Sr7 2.417834 1_555
O16 Sr10 2.673762 1_545
O17 Sr9 2.369452 1_555
O17 Sr7 2.565383 1_555
O17 Sr10 2.618523 1_555
O17 Sr11 2.951543 1_545
O18 Sr9 2.463624 1_555
O18 Sr11 2.498501 1_555
O18 Sr0 2.509896 1_556
O19 Sr11 2.416514 1_455
O19 Sr9 2.432431 1_555
O19 Sr7 2.920123 1_565
O20 Sr9 2.428696 1_555
O20 Sr10 2.589589 1_555
O20 Sr7 2.715988 1_565
O20 Sr11 2.973164 1_555
O21 Sr7 2.563883 1_655
O21 Sr9 2.590657 1_555
O21 Sr11 2.721255 1_555
