# generated using pymatgen
data_Zn(HO)2
_symmetry_space_group_name_H-M   'P 1'
_cell_length_a   3.32214800
_cell_length_b   8.15072904
_cell_length_c   12.42560871
_cell_angle_alpha   107.52720566
_cell_angle_beta   97.37200570
_cell_angle_gamma   89.99417252
_symmetry_Int_Tables_number   1
_chemical_formula_structural   Zn(HO)2
_chemical_formula_sum   'Zn6 H12 O12'
_cell_volume   317.92287384
_cell_formula_units_Z   6
loop_
 _symmetry_equiv_pos_site_id
 _symmetry_equiv_pos_as_xyz
  1  'x, y, z'
loop_
 _atom_site_type_symbol
 _atom_site_label
 _atom_site_symmetry_multiplicity
 _atom_site_fract_x
 _atom_site_fract_y
 _atom_site_fract_z
 _atom_site_occupancy
  Zn  Zn0  1  0.93268500  0.69504100  0.82894100  1
  Zn  Zn1  1  0.09796900  0.32130900  0.18262600  1
  Zn  Zn2  1  0.11006300  0.86018200  0.18244900  1
  Zn  Zn3  1  0.92544400  0.13163700  0.81922400  1
  Zn  Zn4  1  0.81152000  0.79562200  0.56297500  1
  Zn  Zn5  1  0.24938400  0.20579000  0.44082300  1
  H  H0  1  0.49571800  0.60323700  0.64707100  1
  H  H1  1  0.87960800  0.41161100  0.36924200  1
  H  H2  1  0.19670200  0.88699000  0.38903500  1
  H  H3  1  0.80980900  0.11602000  0.61408900  1
  H  H4  1  0.44371900  0.48034000  0.87136500  1
  H  H5  1  0.56495300  0.52045100  0.13056000  1
  H  H6  1  0.52881800  0.68881400  0.03391400  1
  H  H7  1  0.48649700  0.30754800  0.95968500  1
  H  H8  1  0.24544400  0.62242700  0.41989400  1
  H  H9  1  0.81050500  0.38654900  0.58231200  1
  H  H10  1  0.97420100  0.98670200  0.96874400  1
  H  H11  1  0.69936600  0.05136600  0.10470600  1
  O  O0  1  0.79055600  0.62436300  0.65457200  1
  O  O1  1  0.16054600  0.38785200  0.35461100  1
  O  O2  1  0.14631300  0.96993900  0.34499900  1
  O  O3  1  0.79842000  0.03097500  0.65579300  1
  O  O4  1  0.45219600  0.60766400  0.88166600  1
  O  O5  1  0.56601100  0.39663000  0.12743800  1
  O  O6  1  0.57191100  0.72895600  0.11934000  1
  O  O7  1  0.44756700  0.27509000  0.87593200  1
  O  O8  1  0.25946600  0.74429100  0.46876300  1
  O  O9  1  0.78727400  0.26516100  0.53329400  1
  O  O10  1  0.91487600  0.94303300  0.88537300  1
  O  O11  1  0.99599200  0.06536800  0.12287800  1
loop_
_geom_bond_atom_site_label_1
_geom_bond_atom_site_label_2
_geom_bond_distance
_geom_bond_site_symmetry_2
H0 O0 0.982186 1_555
H1 O1 0.981802 1_655
H2 O2 0.991877 1_555
H3 O3 0.985824 1_555
H4 O4 1.006600 1_555
H5 O5 0.998258 1_555
H6 O6 1.003042 1_555
H7 O7 0.984568 1_555
H8 O8 0.993461 1_555
H9 O9 0.990368 1_555
H10 O10 0.981950 1_555
H11 O11 0.981067 1_555
O0 Zn4 2.055726 1_555
O0 Zn0 2.057884 1_555
O1 Zn1 2.022900 1_555
O1 Zn5 2.076770 1_555
O2 Zn2 1.934841 1_555
O2 Zn5 1.935787 1_565
O3 Zn4 1.921510 1_545
O3 Zn3 1.936935 1_555
O4 Zn0 1.976294 1_455
O4 Zn0 2.008502 1_555
O5 Zn1 1.947374 1_555
O5 Zn1 1.978042 1_655
O6 Zn2 1.978974 1_555
O6 Zn2 2.022541 1_655
O7 Zn3 2.015662 1_455
O7 Zn3 2.043159 1_555
O8 Zn4 1.977864 1_455
O8 Zn4 2.015743 1_555
O9 Zn5 1.971283 1_555
O9 Zn5 2.007198 1_655
O10 Zn0 1.933346 1_555
O10 Zn3 1.951527 1_565
O11 Zn1 2.005130 1_655
O11 Zn2 2.040099 1_645
