# generated using pymatgen
data_Fe2O3
_symmetry_space_group_name_H-M   'P 1'
_cell_length_a   8.47629187
_cell_length_b   8.45637823
_cell_length_c   25.29079095
_cell_angle_alpha   89.99913364
_cell_angle_beta   90.06765391
_cell_angle_gamma   90.00874698
_symmetry_Int_Tables_number   1
_chemical_formula_structural   Fe2O3
_chemical_formula_sum   'Fe64 O96'
_cell_volume   1812.81049128
_cell_formula_units_Z   32
loop_
 _symmetry_equiv_pos_site_id
 _symmetry_equiv_pos_as_xyz
  1  'x, y, z'
loop_
 _atom_site_type_symbol
 _atom_site_label
 _atom_site_symmetry_multiplicity
 _atom_site_fract_x
 _atom_site_fract_y
 _atom_site_fract_z
 _atom_site_occupancy
  Fe  Fe0  1  0.98896855  0.61655324  0.20756454  1
  Fe  Fe1  1  0.00058632  0.12516936  0.37474919  1
  Fe  Fe2  1  0.00222986  0.62068421  0.54029110  1
  Fe  Fe3  1  0.00991246  0.62446942  0.87288784  1
  Fe  Fe4  1  0.00142934  0.88579157  0.12155236  1
  Fe  Fe5  1  0.00857149  0.86356820  0.45862825  1
  Fe  Fe6  1  0.00387443  0.87417078  0.79125473  1
  Fe  Fe7  1  0.12392836  0.75159105  0.33172754  1
  Fe  Fe8  1  0.12892549  0.74218470  0.66761488  1
  Fe  Fe9  1  0.11966817  0.74944977  0.99954958  1
  Fe  Fe10  1  0.12523527  0.25094784  0.16843701  1
  Fe  Fe11  1  0.13032990  0.25242742  0.50119083  1
  Fe  Fe12  1  0.12385495  0.24052497  0.83452623  1
  Fe  Fe13  1  0.24308949  0.36512026  0.04112654  1
  Fe  Fe14  1  0.25055789  0.38368594  0.37675266  1
  Fe  Fe15  1  0.23882363  0.37597141  0.71128391  1
  Fe  Fe16  1  0.25194564  0.62524143  0.12420415  1
  Fe  Fe17  1  0.25192692  0.12619004  0.29201381  1
  Fe  Fe18  1  0.24195371  0.12259010  0.62684351  1
  Fe  Fe19  1  0.24839582  0.12008946  0.96043961  1
  Fe  Fe20  1  0.25677866  0.87458323  0.21146227  1
  Fe  Fe21  1  0.25186571  0.87212848  0.54118769  1
  Fe  Fe22  1  0.25593613  0.86820316  0.87528498  1
  Fe  Fe23  1  0.37646767  0.49142083  0.24949289  1
  Fe  Fe24  1  0.36481104  0.49926004  0.58289297  1
  Fe  Fe25  1  0.37967250  0.50077755  0.92004432  1
  Fe  Fe26  1  0.38726044  0.99739168  0.08204449  1
  Fe  Fe27  1  0.37251650  -0.00009255  0.41816286  1
  Fe  Fe28  1  0.37201730  0.00021936  0.75146658  1
  Fe  Fe29  1  0.50260045  0.62682636  0.04117765  1
  Fe  Fe30  1  0.49333310  0.63154877  0.37482939  1
  Fe  Fe31  1  0.49827098  0.62558515  0.70818323  1
  Fe  Fe32  1  0.49883735  0.87385104  0.62515139  1
  Fe  Fe33  1  0.50290331  0.37704458  0.12491903  1
  Fe  Fe34  1  0.49940605  0.38444179  0.46225481  1
  Fe  Fe35  1  0.48990520  0.38177416  0.79202409  1
  Fe  Fe36  1  0.50994438  0.12927432  0.21185819  1
  Fe  Fe37  1  0.49841371  0.12508651  0.54169023  1
  Fe  Fe38  1  0.50437719  0.11438345  0.87815075  1
  Fe  Fe39  1  0.62433923  0.25008356  0.00193157  1
  Fe  Fe40  1  0.62614483  0.25675336  0.33332882  1
  Fe  Fe41  1  0.62039089  0.25155127  0.66652085  1
  Fe  Fe42  1  0.62449667  0.75625331  0.16579724  1
  Fe  Fe43  1  0.62802847  0.75353674  0.49882581  1
  Fe  Fe44  1  0.62616123  0.74729928  0.83221291  1
  Fe  Fe45  1  0.74279330  0.61984423  0.28935742  1
  Fe  Fe46  1  0.74657153  0.61568836  0.62140930  1
  Fe  Fe47  1  0.74864183  0.62878455  0.95911524  1
  Fe  Fe48  1  0.74839882  0.87515884  0.03995922  1
  Fe  Fe49  1  0.73983506  0.87872740  0.37225587  1
  Fe  Fe50  1  0.76237778  0.87845768  0.70823927  1
  Fe  Fe51  1  0.74959348  0.37621910  0.87663274  1
  Fe  Fe52  1  0.75284446  0.13243654  0.12405010  1
  Fe  Fe53  1  0.75093564  0.13038547  0.46169622  1
  Fe  Fe54  1  0.75739205  0.12747456  0.78951258  1
  Fe  Fe55  1  0.87044190  0.49678719  0.08096353  1
  Fe  Fe56  1  0.86937580  0.49954605  0.41717146  1
  Fe  Fe57  1  0.87397472  0.50781825  0.74897250  1
  Fe  Fe58  1  0.87907053  0.99815818  0.24829007  1
  Fe  Fe59  1  0.87333148  0.99700650  0.58204981  1
  Fe  Fe60  1  0.88125023  0.99898836  0.91954518  1
  Fe  Fe61  1  0.99910291  0.37294865  0.29142063  1
  Fe  Fe62  1  0.99021723  0.36682731  0.62385380  1
  Fe  Fe63  1  0.99767548  0.37461819  0.95865660  1
  O  O0  1  0.00757849  0.62571077  0.12775862  1
  O  O1  1  0.98643343  0.63047196  0.46375424  1
  O  O2  1  0.98502636  0.64144332  0.79632426  1
  O  O3  1  0.01131454  0.39037532  0.03533562  1
  O  O4  1  0.00875645  0.36777640  0.37131439  1
  O  O5  1  0.01025274  0.39886600  0.70432005  1
  O  O6  1  0.01247862  0.13859058  0.29394951  1
  O  O7  1  0.00822364  0.13629756  0.61824449  1
  O  O8  1  0.00607383  0.14931517  0.95393765  1
  O  O9  1  0.01214162  0.86216404  0.20371155  1
  O  O10  1  0.01526145  0.86660406  0.53946979  1
  O  O11  1  0.00718070  0.86597599  0.87065017  1
  O  O12  1  0.23534210  0.36072647  0.29438829  1
  O  O13  1  0.23977072  0.36368490  0.62845230  1
  O  O14  1  0.23471584  0.36822172  0.96073114  1
  O  O15  1  0.24470813  0.63407743  0.20540639  1
  O  O16  1  0.24280158  0.64692392  0.54618906  1
  O  O17  1  0.24226871  0.63567399  0.88185844  1
  O  O18  1  0.24066057  0.86727616  0.12558578  1
  O  O19  1  0.23934168  0.88747000  0.46454016  1
  O  O20  1  0.23060060  0.89120881  0.79586447  1
  O  O21  1  0.26828144  0.13128557  0.03656871  1
  O  O22  1  0.24217460  0.13166986  0.36991942  1
  O  O23  1  0.27002253  0.13820259  0.70365002  1
  O  O24  1  0.23455943  0.89635236  0.28888152  1
  O  O25  1  0.25728974  0.88225519  0.62112263  1
  O  O26  1  0.22840584  0.89075487  0.95544794  1
  O  O27  1  0.26602008  0.61885289  0.04373378  1
  O  O28  1  0.26049128  0.61650679  0.36939152  1
  O  O29  1  0.27158260  0.61086421  0.70326157  1
  O  O30  1  0.26101364  0.38199161  0.12154473  1
  O  O31  1  0.26164466  0.35894835  0.45317709  1
  O  O32  1  0.25654144  0.35583533  0.78870300  1
  O  O33  1  0.25568297  0.11692811  0.21328981  1
  O  O34  1  0.26342113  0.10890236  0.54437644  1
  O  O35  1  0.26063772  0.11698751  0.88119498  1
  O  O36  1  0.49180676  0.39133450  0.04617895  1
  O  O37  1  0.48976674  0.38203436  0.37809568  1
  O  O38  1  0.49225031  0.38993949  0.71047137  1
  O  O39  1  0.48344047  0.14837413  0.28829614  1
  O  O40  1  0.49132019  0.11483925  0.61957035  1
  O  O41  1  0.49125069  0.14915323  0.95389858  1
  O  O42  1  0.48474512  0.89006218  0.20215875  1
  O  O43  1  0.48596232  0.88446169  0.54374420  1
  O  O44  1  0.48944481  0.88219759  0.86994210  1
  O  O45  1  0.49544434  0.61220519  0.12099684  1
  O  O46  1  0.51715534  0.61327818  0.45463455  1
  O  O47  1  0.51511124  0.61380996  0.78507400  1
  O  O48  1  0.48702238  0.36536615  0.20074867  1
  O  O49  1  0.48075684  0.35713657  0.53954884  1
  O  O50  1  0.50909936  0.37286724  0.87152951  1
  O  O51  1  0.50748816  0.63187319  0.62799339  1
  O  O52  1  0.51280715  0.60429372  0.29487347  1
  O  O53  1  0.51923130  0.61207533  0.96486725  1
  O  O54  1  0.51827210  0.85382064  0.04607112  1
  O  O55  1  0.50777654  0.86554506  0.37961286  1
  O  O56  1  0.50415523  0.85990832  0.70590938  1
  O  O57  1  0.50417538  0.14241570  0.12771028  1
  O  O58  1  0.50924620  0.13088110  0.46262507  1
  O  O59  1  0.51127916  0.13542463  0.79577109  1
  O  O60  1  0.73754724  0.63552775  0.03770797  1
  O  O61  1  0.74360818  0.63678740  0.37157695  1
  O  O62  1  0.73304887  0.63622284  0.70430383  1
  O  O63  1  0.73324126  0.36565208  0.11981080  1
  O  O64  1  0.73723672  0.35952973  0.45317346  1
  O  O65  1  0.74625847  0.36646206  0.79500905  1
  O  O66  1  0.73923248  0.10897355  0.20400451  1
  O  O67  1  0.72922389  0.10946691  0.53913134  1
  O  O68  1  0.74126928  0.13356031  0.87412625  1
  O  O69  1  0.74082294  0.86745497  0.62856889  1
  O  O70  1  0.77048536  0.86631578  0.29596368  1
  O  O71  1  0.76610149  0.85837910  0.96346721  1
  O  O72  1  0.73156322  0.10480278  0.04499203  1
  O  O73  1  0.75800365  0.11690882  0.37641118  1
  O  O74  1  0.73289686  0.11148916  0.71147709  1
  O  O75  1  0.76079188  0.38324005  0.62952708  1
  O  O76  1  0.76261050  0.38815646  0.95709859  1
  O  O77  1  0.77230080  0.38469049  0.29644759  1
  O  O78  1  0.75819566  0.64106549  0.21143953  1
  O  O79  1  0.75927440  0.64407593  0.54573667  1
  O  O80  1  0.75546030  0.61774788  0.88064603  1
  O  O81  1  0.75856573  0.88285338  0.11936723  1
  O  O82  1  0.76376274  0.88687177  0.45447620  1
  O  O83  1  0.76396189  0.88276223  0.78929978  1
  O  O84  1  0.99312217  0.60890101  0.28933221  1
  O  O85  1  0.99101403  0.61829465  0.61998362  1
  O  O86  1  0.98501175  0.61134984  0.95536975  1
  O  O87  1  0.98059805  0.85689202  0.04529099  1
  O  O88  1  0.99613688  0.88373793  0.37909095  1
  O  O89  1  0.99460316  0.85633418  0.71372288  1
  O  O90  1  0.98938429  0.11916567  0.12894937  1
  O  O91  1  0.99147411  0.12001143  0.45602416  1
  O  O92  1  0.98713169  0.10665324  0.79639576  1
  O  O93  1  0.01355520  0.38500446  0.21479064  1
  O  O94  1  0.02004305  0.39067795  0.54536636  1
  O  O95  1  0.99184187  0.38400915  0.87886354  1
loop_
_geom_bond_atom_site_label_1
_geom_bond_atom_site_label_2
_geom_bond_distance
_geom_bond_site_symmetry_2
Fe0 O78 1.969637 1_555
Fe0 O93 1.977592 1_655
Fe0 O0 2.026174 1_655
Fe0 O84 2.069238 1_555
Fe0 O9 2.088499 1_655
Fe0 O15 2.173510 1_655
Fe1 O88 2.044929 1_445
Fe1 O6 2.049234 1_555
Fe1 O22 2.052284 1_555
Fe1 O4 2.054574 1_555
Fe1 O91 2.057512 1_455
Fe1 O73 2.057856 1_455
Fe2 O1 1.941910 1_455
Fe2 O94 1.955099 1_555
Fe2 O85 2.017941 1_455
Fe2 O16 2.056402 1_555
Fe2 O79 2.073610 1_455
Fe2 O10 2.082611 1_555
Fe3 O2 1.952844 1_455
Fe3 O17 1.984526 1_555
Fe3 O11 2.043188 1_555
Fe3 O95 2.044764 1_455
Fe3 O86 2.099861 1_455
Fe3 O80 2.166685 1_455
Fe4 O87 1.951928 1_455
Fe4 O90 1.985004 1_465
Fe4 O18 2.036290 1_555
Fe4 O81 2.059405 1_455
Fe4 O9 2.089321 1_555
Fe4 O0 2.205553 1_555
Fe5 O19 1.971961 1_555
Fe5 O1 1.984285 1_455
Fe5 O88 2.021404 1_455
Fe5 O10 2.045427 1_555
Fe5 O82 2.086957 1_455
Fe5 O91 2.174432 1_465
Fe6 O20 1.930555 1_555
Fe6 O89 1.968113 1_455
Fe6 O92 1.975393 1_465
Fe6 O2 1.978650 1_455
Fe6 O11 2.009330 1_555
Fe6 O83 2.035419 1_455
Fe7 O28 1.884129 1_555
Fe7 O24 1.885242 1_555
Fe7 O84 1.957491 1_455
Fe7 O88 1.964797 1_455
Fe8 O29 1.872416 1_555
Fe8 O89 1.895101 1_455
Fe8 O85 1.977772 1_455
Fe8 O25 1.992994 1_555
Fe9 O26 1.877089 1_555
Fe9 O87 1.885980 1_456
Fe9 O86 1.977791 1_455
Fe9 O27 2.001087 1_556
Fe10 O93 1.886415 1_555
Fe10 O90 1.887364 1_455
Fe10 O33 1.947095 1_555
Fe10 O30 1.990434 1_555
Fe11 O94 1.868619 1_555
Fe11 O31 1.878219 1_555
Fe11 O34 1.983959 1_555
Fe11 O91 1.985060 1_455
Fe12 O92 1.884572 1_455
Fe12 O32 1.887203 1_555
Fe12 O35 1.955958 1_555
Fe12 O95 1.996282 1_455
Fe13 O3 1.981446 1_555
Fe13 O21 1.992277 1_555
Fe13 O14 2.034587 1_554
Fe13 O30 2.044313 1_555
Fe13 O36 2.123487 1_555
Fe13 O27 2.155418 1_555
Fe14 O31 1.946280 1_555
Fe14 O28 1.979389 1_555
Fe14 O37 2.027899 1_555
Fe14 O4 2.058408 1_555
Fe14 O12 2.095910 1_555
Fe14 O22 2.139304 1_555
Fe15 O5 1.954855 1_555
Fe15 O32 1.970933 1_555
Fe15 O29 2.015881 1_555
Fe15 O23 2.037221 1_555
Fe15 O13 2.097478 1_555
Fe15 O38 2.151468 1_555
Fe16 O27 2.039510 1_555
Fe16 O18 2.049286 1_555
Fe16 O15 2.056017 1_555
Fe16 O30 2.059562 1_555
Fe16 O45 2.068611 1_555
Fe16 O0 2.073388 1_555
Fe17 O24 1.950742 1_545
Fe17 O22 1.972671 1_555
Fe17 O39 1.973646 1_555
Fe17 O12 1.989239 1_555
Fe17 O33 1.992825 1_555
Fe17 O6 2.033004 1_555
Fe18 O23 1.961183 1_555
Fe18 O7 1.996195 1_555
Fe18 O13 2.039283 1_555
Fe18 O25 2.041682 1_545
Fe18 O34 2.096994 1_555
Fe18 O40 2.122930 1_555
Fe19 O21 1.934849 1_556
Fe19 O26 1.950780 1_545
Fe19 O35 2.007138 1_555
Fe19 O8 2.075177 1_555
Fe19 O41 2.079875 1_555
Fe19 O14 2.101533 1_555
Fe20 O42 1.951234 1_555
Fe20 O24 1.975852 1_555
Fe20 O15 2.042109 1_555
Fe20 O33 2.049905 1_565
Fe20 O9 2.085260 1_555
Fe20 O18 2.176894 1_555
Fe21 O16 1.910149 1_555
Fe21 O19 1.945585 1_555
Fe21 O43 1.987970 1_555
Fe21 O34 2.006247 1_565
Fe21 O10 2.006483 1_555
Fe21 O25 2.023900 1_555
Fe22 O17 1.976759 1_555
Fe22 O44 1.987562 1_555
Fe22 O20 2.029151 1_555
Fe22 O26 2.049940 1_555
Fe22 O35 2.109487 1_565
Fe22 O11 2.111722 1_555
Fe23 O48 1.880757 1_555
Fe23 O52 1.886902 1_555
Fe23 O15 1.985757 1_555
Fe23 O12 1.986053 1_555
Fe24 O16 1.867774 1_555
Fe24 O49 1.901298 1_555
Fe24 O13 1.941097 1_555
Fe24 O51 2.004389 1_555
Fe25 O53 1.888585 1_555
Fe25 O17 1.894237 1_555
Fe25 O14 1.956420 1_555
Fe25 O50 1.970426 1_555
Fe26 O54 1.880896 1_555
Fe26 O21 1.902478 1_565
Fe26 O57 1.953692 1_565
Fe26 O18 1.992534 1_555
Fe27 O19 1.885949 1_545
Fe27 O55 1.886553 1_545
Fe27 O58 1.957273 1_555
Fe27 O22 1.986949 1_555
Fe28 O20 1.884212 1_545
Fe28 O23 1.889229 1_555
Fe28 O59 1.988129 1_555
Fe28 O56 1.998333 1_545
Fe29 O54 1.928088 1_555
Fe29 O53 1.939277 1_554
Fe29 O60 1.994860 1_555
Fe29 O36 1.997509 1_555
Fe29 O27 2.007565 1_555
Fe29 O45 2.023452 1_555
Fe30 O28 1.982325 1_555
Fe30 O55 1.986207 1_555
Fe30 O46 2.034050 1_555
Fe30 O52 2.042123 1_555
Fe30 O37 2.111817 1_555
Fe30 O61 2.123551 1_555
Fe31 O29 1.929359 1_555
Fe31 O47 1.952233 1_555
Fe31 O56 1.982980 1_555
Fe31 O38 1.994195 1_555
Fe31 O62 1.994595 1_555
Fe31 O51 2.030356 1_555
Fe32 O40 2.043766 1_565
Fe32 O56 2.046276 1_555
Fe32 O51 2.048838 1_555
Fe32 O25 2.051084 1_555
Fe32 O69 2.053579 1_555
Fe32 O43 2.063565 1_555
Fe33 O48 1.925201 1_555
Fe33 O63 1.959218 1_555
Fe33 O57 1.985395 1_555
Fe33 O45 1.992088 1_555
Fe33 O36 1.997166 1_555
Fe33 O30 2.052435 1_555
Fe34 O46 1.950503 1_555
Fe34 O49 1.974933 1_555
Fe34 O31 2.039494 1_555
Fe34 O64 2.040171 1_555
Fe34 O37 2.130020 1_555
Fe34 O58 2.145859 1_555
Fe35 O47 1.981579 1_555
Fe35 O32 1.991824 1_555
Fe35 O50 2.018540 1_555
Fe35 O38 2.063806 1_555
Fe35 O59 2.093251 1_555
Fe35 O65 2.178019 1_555
Fe36 O39 1.953144 1_555
Fe36 O66 1.961423 1_555
Fe36 O48 2.025489 1_555
Fe36 O42 2.048793 1_545
Fe36 O57 2.131569 1_555
Fe36 O33 2.158052 1_555
Fe37 O67 1.962032 1_555
Fe37 O49 1.968764 1_555
Fe37 O40 1.972541 1_555
Fe37 O34 1.997776 1_555
Fe37 O58 2.002434 1_555
Fe37 O43 2.038198 1_545
Fe38 O41 1.941483 1_555
Fe38 O44 1.978417 1_545
Fe38 O68 2.017169 1_555
Fe38 O35 2.067652 1_555
Fe38 O59 2.091915 1_555
Fe38 O50 2.192602 1_555
Fe39 O41 1.863678 1_554
Fe39 O72 1.875985 1_555
Fe39 O36 1.986063 1_555
Fe39 O76 2.006303 1_554
Fe40 O77 1.891447 1_555
Fe40 O39 1.896488 1_555
Fe40 O37 1.934948 1_555
Fe40 O73 1.957645 1_555
Fe41 O75 1.879883 1_555
Fe41 O74 1.898085 1_555
Fe41 O38 1.946294 1_555
Fe41 O40 1.984946 1_555
Fe42 O42 1.879440 1_555
Fe42 O78 1.887541 1_555
Fe42 O81 1.954270 1_555
Fe42 O45 1.990200 1_555
Fe43 O79 1.870605 1_555
Fe43 O46 1.880509 1_555
Fe43 O82 1.963597 1_555
Fe43 O43 1.992508 1_555
Fe44 O44 1.886210 1_555
Fe44 O47 1.891735 1_555
Fe44 O83 1.963920 1_555
Fe44 O80 1.974570 1_555
Fe45 O52 1.958978 1_555
Fe45 O78 1.983210 1_555
Fe45 O77 2.012231 1_555
Fe45 O61 2.084333 1_555
Fe45 O70 2.104021 1_555
Fe45 O84 2.123893 1_555
Fe46 O79 1.931941 1_555
Fe46 O75 1.980036 1_555
Fe46 O51 2.038188 1_555
Fe46 O85 2.072436 1_555
Fe46 O62 2.106907 1_555
Fe46 O69 2.137290 1_555
Fe47 O71 1.950248 1_555
Fe47 O53 1.955246 1_555
Fe47 O80 1.987652 1_555
Fe47 O60 1.990825 1_556
Fe47 O86 2.011324 1_555
Fe47 O76 2.038944 1_555
Fe48 O71 1.945716 1_554
Fe48 O72 1.951382 1_565
Fe48 O54 1.965192 1_555
Fe48 O87 1.978706 1_555
Fe48 O81 2.011091 1_555
Fe48 O60 2.029280 1_555
Fe49 O70 1.950036 1_555
Fe49 O55 1.979120 1_555
Fe49 O73 2.022732 1_565
Fe49 O61 2.046264 1_555
Fe49 O82 2.090181 1_555
Fe49 O88 2.179558 1_555
Fe50 O89 1.982004 1_555
Fe50 O74 1.988121 1_565
Fe50 O69 2.025117 1_555
Fe50 O83 2.050436 1_555
Fe50 O62 2.065808 1_555
Fe50 O56 2.195081 1_555
Fe51 O76 2.040403 1_555
Fe51 O50 2.042620 1_555
Fe51 O80 2.045575 1_555
Fe51 O68 2.054193 1_555
Fe51 O95 2.055122 1_555
Fe51 O65 2.066137 1_555
Fe52 O63 1.982061 1_555
Fe52 O90 2.011809 1_555
Fe52 O72 2.020906 1_555
Fe52 O66 2.035225 1_555
Fe52 O57 2.111632 1_555
Fe52 O81 2.114458 1_545
Fe53 O64 1.953136 1_555
Fe53 O67 1.975172 1_555
Fe53 O91 2.045979 1_555
Fe53 O58 2.048798 1_555
Fe53 O82 2.070212 1_545
Fe53 O73 2.160838 1_555
Fe54 O92 1.962841 1_555
Fe54 O74 1.988826 1_555
Fe54 O65 2.027965 1_555
Fe54 O83 2.070145 1_545
Fe54 O59 2.093397 1_555
Fe54 O68 2.145086 1_555
Fe55 O63 1.884069 1_555
Fe55 O3 1.889661 1_655
Fe55 O60 1.959494 1_555
Fe55 O0 1.984145 1_655
Fe56 O64 1.867473 1_555
Fe56 O1 1.896099 1_555
Fe56 O61 1.952045 1_555
Fe56 O4 1.996536 1_655
Fe57 O5 1.860631 1_655
Fe57 O2 1.895820 1_555
Fe57 O62 1.969607 1_555
Fe57 O65 1.989714 1_555
Fe58 O66 1.880084 1_565
Fe58 O70 1.883121 1_555
Fe58 O9 1.967064 1_655
Fe58 O6 2.004750 1_665
Fe59 O7 1.878794 1_665
Fe59 O67 1.889934 1_565
Fe59 O10 1.956144 1_655
Fe59 O69 1.961786 1_555
Fe60 O8 1.868014 1_665
Fe60 O71 1.898042 1_555
Fe60 O11 1.984254 1_655
Fe60 O68 2.004863 1_565
Fe61 O77 1.929362 1_555
Fe61 O93 1.944717 1_655
Fe61 O6 1.986103 1_655
Fe61 O84 1.996650 1_555
Fe61 O12 2.006429 1_655
Fe61 O4 2.022609 1_655
Fe62 O75 1.955085 1_555
Fe62 O7 1.960590 1_655
Fe62 O94 2.011470 1_655
Fe62 O5 2.059825 1_655
Fe62 O13 2.118516 1_655
Fe62 O85 2.128763 1_555
Fe63 O8 1.910327 1_655
Fe63 O3 1.947145 1_656
Fe63 O76 1.996126 1_555
Fe63 O86 2.006501 1_555
Fe63 O14 2.010582 1_655
Fe63 O95 2.020138 1_555
