# generated using pymatgen
data_SrMn2Si
_symmetry_space_group_name_H-M   'P 1'
_cell_length_a   4.85701041
_cell_length_b   4.85701041
_cell_length_c   4.85701041
_cell_angle_alpha   60.00000000
_cell_angle_beta   60.00000000
_cell_angle_gamma   60.00000000
_symmetry_Int_Tables_number   1
_chemical_formula_structural   SrMn2Si
_chemical_formula_sum   'Sr1 Mn2 Si1'
_cell_volume   81.01997524
_cell_formula_units_Z   1
loop_
 _symmetry_equiv_pos_site_id
 _symmetry_equiv_pos_as_xyz
  1  'x, y, z'
loop_
 _atom_site_type_symbol
 _atom_site_label
 _atom_site_symmetry_multiplicity
 _atom_site_fract_x
 _atom_site_fract_y
 _atom_site_fract_z
 _atom_site_occupancy
  Sr  Sr0  1  0.25000000  0.25000000  0.25000000  1
  Mn  Mn0  1  0.00000000  0.00000000  0.00000000  1
  Mn  Mn1  1  0.75000000  0.75000000  0.75000000  1
  Si  Si0  1  0.50000000  0.50000000  0.50000000  1
loop_
_geom_bond_atom_site_label_1
_geom_bond_atom_site_label_2
_geom_bond_distance
_geom_bond_site_symmetry_2
Mn0 Sr0 2.974299 1_545
Mn0 Mn1 2.974299 1_454
Mn0 Mn1 2.974299 1_544
Mn0 Sr0 2.974299 1_455
Mn0 Sr0 2.974299 1_555
Mn0 Mn1 2.974299 1_445
Mn0 Sr0 2.974299 1_554
Mn0 Mn1 2.974299 1_444
Mn1 Si0 2.974299 1_565
Mn1 Si0 2.974299 1_655
Mn1 Si0 2.974299 1_555
Mn1 Si0 2.974299 1_556
Mn1 Sr0 3.434425 1_566
Mn1 Sr0 3.434425 1_656
Mn1 Sr0 3.434425 1_565
Mn1 Sr0 3.434425 1_665
Mn1 Sr0 3.434425 1_655
Mn1 Sr0 3.434425 1_556
Si0 Sr0 2.974299 1_655
Si0 Sr0 2.974299 1_565
Si0 Sr0 2.974299 1_555
Si0 Sr0 2.974299 1_556
