# generated using pymatgen
data_CuAg3S2
_symmetry_space_group_name_H-M   'P 1'
_cell_length_a   8.54906506
_cell_length_b   8.54906506
_cell_length_c   8.54906506
_cell_angle_alpha   118.30031756
_cell_angle_beta   118.30031756
_cell_angle_gamma   92.97004325
_symmetry_Int_Tables_number   1
_chemical_formula_structural   CuAg3S2
_chemical_formula_sum   'Cu4 Ag12 S8'
_cell_volume   452.50830300
_cell_formula_units_Z   4
loop_
 _symmetry_equiv_pos_site_id
 _symmetry_equiv_pos_as_xyz
  1  'x, y, z'
loop_
 _atom_site_type_symbol
 _atom_site_label
 _atom_site_symmetry_multiplicity
 _atom_site_fract_x
 _atom_site_fract_y
 _atom_site_fract_z
 _atom_site_occupancy
  Cu  Cu0  1  0.34484500  0.34484500  0.00000000  1
  Cu  Cu1  1  0.65515500  0.65515500  0.00000000  1
  Cu  Cu2  1  0.09484500  0.59484500  0.50000000  1
  Cu  Cu3  1  0.40515500  0.90515500  0.50000000  1
  Ag  Ag0  1  0.42416600  0.55082800  0.43537200  1
  Ag  Ag1  1  0.11545600  0.98879500  0.56462800  1
  Ag  Ag2  1  0.44917200  0.88454400  0.87333800  1
  Ag  Ag3  1  0.32583400  0.69917200  0.06462800  1
  Ag  Ag4  1  0.30082800  0.36545600  0.62666200  1
  Ag  Ag5  1  0.01120500  0.57583400  0.12666200  1
  Ag  Ag6  1  0.87500000  0.12500000  0.25000000  1
  Ag  Ag7  1  0.63454400  0.26120500  0.93537200  1
  Ag  Ag8  1  0.73879500  0.67416600  0.37333800  1
  Ag  Ag9  1  0.87500000  0.12500000  0.75000000  1
  Ag  Ag10  1  0.87500000  0.62500000  0.75000000  1
  Ag  Ag11  1  0.37500000  0.12500000  0.25000000  1
  S  S0  1  0.65923900  0.89770900  0.73684800  1
  S  S1  1  0.07760900  0.34076100  0.23847000  1
  S  S2  1  0.67239100  0.90923900  0.26153000  1
  S  S3  1  0.64770900  0.41086100  0.73847000  1
  S  S4  1  0.10229100  0.83913900  0.76153000  1
  S  S5  1  0.58913900  0.32760900  0.23684800  1
  S  S6  1  0.16086100  0.92239100  0.26315200  1
  S  S7  1  0.09076100  0.35229100  0.76315200  1
loop_
_geom_bond_atom_site_label_1
_geom_bond_atom_site_label_2
_geom_bond_distance
_geom_bond_site_symmetry_2
Cu0 S5 2.188263 1_555
Cu0 S7 2.188263 1_554
Cu1 S3 2.188263 1_554
Cu1 S2 2.188263 1_555
Cu2 S1 2.188263 1_555
Cu2 S4 2.188263 1_555
Cu3 S6 2.188263 1_555
Cu3 S0 2.188263 1_555
Ag0 S1 2.586493 1_555
Ag0 S0 2.588388 1_555
Ag0 S5 2.826453 1_555
Ag1 S4 2.586500 1_555
Ag1 S6 2.588386 1_555
Ag1 S7 2.826446 1_565
Ag2 S0 2.586493 1_555
Ag2 S4 2.588388 1_555
Ag2 S2 2.826453 1_556
Ag3 S2 2.586493 1_555
Ag3 S7 2.588388 1_554
Ag3 S6 2.826453 1_555
Ag4 S7 2.586493 1_555
Ag4 S3 2.588388 1_555
Ag4 S1 2.826453 1_555
Ag5 S6 2.586495 1_555
Ag5 S1 2.588389 1_555
Ag5 S3 2.826449 1_454
Ag6 S2 2.532889 1_545
Ag6 S1 2.532889 1_655
Ag6 S5 3.057455 1_555
Ag6 S6 3.057455 1_645
Ag7 S3 2.586500 1_555
Ag7 S5 2.588386 1_556
Ag7 S0 2.826446 1_545
Ag8 S5 2.586495 1_555
Ag8 S2 2.588389 1_555
Ag8 S4 2.826449 1_655
Ag9 S0 2.532889 1_545
Ag9 S7 2.532889 1_655
Ag9 S1 3.057455 1_656
Ag9 S2 3.057455 1_545
Ag10 S4 2.532889 1_655
Ag10 S3 2.532889 1_555
Ag10 S0 3.057455 1_555
Ag10 S7 3.057455 1_655
Ag11 S5 2.532889 1_555
Ag11 S6 2.532889 1_545
Ag11 S4 3.057455 1_544
Ag11 S3 3.057455 1_555
