# generated using pymatgen
data_Ni3(PO4)4
_symmetry_space_group_name_H-M   'P 1'
_cell_length_a   6.37143287
_cell_length_b   9.94240886
_cell_length_c   10.65030636
_cell_angle_alpha   88.57583825
_cell_angle_beta   89.98188006
_cell_angle_gamma   71.28122084
_symmetry_Int_Tables_number   1
_chemical_formula_structural   Ni3(PO4)4
_chemical_formula_sum   'Ni6 P8 O32'
_cell_volume   638.76430246
_cell_formula_units_Z   2
loop_
 _symmetry_equiv_pos_site_id
 _symmetry_equiv_pos_as_xyz
  1  'x, y, z'
loop_
 _atom_site_type_symbol
 _atom_site_label
 _atom_site_symmetry_multiplicity
 _atom_site_fract_x
 _atom_site_fract_y
 _atom_site_fract_z
 _atom_site_occupancy
  Ni  Ni0  1  0.32689200  0.30749300  0.74843900  1
  Ni  Ni1  1  0.63408100  0.69250200  0.75156000  1
  Ni  Ni2  1  0.36591900  0.30749800  0.24844000  1
  Ni  Ni3  1  0.67310800  0.69250700  0.25156100  1
  Ni  Ni4  1  0.00000000  0.50000000  0.00000000  1
  Ni  Ni5  1  0.50000000  0.50000000  0.50000000  1
  P  P0  1  0.21890700  0.59734400  0.24577800  1
  P  P1  1  0.78109300  0.40265600  0.75422200  1
  P  P2  1  0.58499200  0.16792900  0.50630100  1
  P  P3  1  0.24711300  0.16805400  0.00628700  1
  P  P4  1  0.18343100  0.59735400  0.74572300  1
  P  P5  1  0.41500800  0.83207100  0.49369900  1
  P  P6  1  0.81656900  0.40264600  0.25427700  1
  P  P7  1  0.75288700  0.83194600  0.99371200  1
  O  O0  1  0.66835900  0.29730400  0.50710400  1
  O  O1  1  0.69215500  0.51934400  0.64388300  1
  O  O2  1  0.63380800  0.84079500  0.12112400  1
  O  O3  1  0.32014000  0.69392100  0.77516300  1
  O  O4  1  0.19495500  0.02940900  0.03581100  1
  O  O5  1  0.52530900  0.84074200  0.62114200  1
  O  O6  1  0.03434900  0.29728800  0.00720900  1
  O  O7  1  0.58595300  0.82544900  0.38748600  1
  O  O8  1  0.67986000  0.30607900  0.22483700  1
  O  O9  1  0.72542500  0.51299200  0.36238100  1
  O  O10  1  0.76140300  0.51306400  0.86240900  1
  O  O11  1  0.33164100  0.70269600  0.49289600  1
  O  O12  1  0.64030200  0.30671200  0.78142800  1
  O  O13  1  0.77569300  0.02940100  0.53561100  1
  O  O14  1  0.58837900  0.82535200  0.88758700  1
  O  O15  1  0.36619200  0.15920500  0.87887600  1
  O  O16  1  0.78853900  0.51928600  0.14391000  1
  O  O17  1  0.05304600  0.30676500  0.28151800  1
  O  O18  1  0.94695400  0.69323500  0.71848200  1
  O  O19  1  0.23859700  0.48693600  0.13759100  1
  O  O20  1  0.98592600  0.69375200  0.27515400  1
  O  O21  1  0.41404700  0.17455100  0.61251400  1
  O  O22  1  0.01407400  0.30624800  0.72484600  1
  O  O23  1  0.27457500  0.48700800  0.63761900  1
  O  O24  1  0.47469100  0.15925800  0.37885800  1
  O  O25  1  0.41162100  0.17464800  0.11241300  1
  O  O26  1  0.30784500  0.48065600  0.35611700  1
  O  O27  1  0.35969800  0.69328800  0.21857200  1
  O  O28  1  0.96565100  0.70271200  0.99279100  1
  O  O29  1  0.80504500  0.97059100  0.96418900  1
  O  O30  1  0.22430700  0.97059900  0.46438900  1
  O  O31  1  0.21146100  0.48071400  0.85609000  1
loop_
_geom_bond_atom_site_label_1
_geom_bond_atom_site_label_2
_geom_bond_distance
_geom_bond_site_symmetry_2
Ni0 O21 1.942831 1_555
Ni0 O15 1.956450 1_555
Ni0 O22 2.012968 1_555
Ni0 O12 2.025179 1_555
Ni0 O31 2.026357 1_555
Ni0 O23 2.050213 1_555
Ni1 O14 1.943254 1_555
Ni1 O5 1.955788 1_555
Ni1 O3 2.011505 1_555
Ni1 O1 2.026075 1_555
Ni1 O18 2.026513 1_555
Ni1 O10 2.049794 1_555
Ni2 O25 1.943254 1_555
Ni2 O24 1.955788 1_555
Ni2 O8 2.011505 1_555
Ni2 O26 2.026075 1_555
Ni2 O17 2.026513 1_555
Ni2 O19 2.049794 1_555
Ni3 O7 1.942831 1_555
Ni3 O2 1.956450 1_555
Ni3 O20 2.012968 1_555
Ni3 O27 2.025179 1_555
Ni3 O16 2.026357 1_555
Ni3 O9 2.050213 1_555
Ni4 O6 1.955766 1_555
Ni4 O28 1.955766 1_454
Ni4 O31 2.012118 1_554
Ni4 O16 2.012118 1_455
Ni4 O10 2.083378 1_454
Ni4 O19 2.083378 1_555
Ni5 O11 1.955175 1_555
Ni5 O0 1.955175 1_555
Ni5 O26 2.012739 1_555
Ni5 O1 2.012739 1_555
Ni5 O9 2.082344 1_555
Ni5 O23 2.082344 1_555
O0 P2 1.541383 1_555
O1 P1 1.599603 1_555
O2 P7 1.545056 1_554
O3 P4 1.526670 1_555
O4 P3 1.543337 1_555
O5 P5 1.545612 1_555
O6 P3 1.539927 1_555
O7 P5 1.557924 1_555
O8 P6 1.526670 1_555
O9 P6 1.587418 1_555
O10 P1 1.588314 1_555
O11 P5 1.541383 1_555
O12 P1 1.527716 1_555
O13 P2 1.541259 1_555
O14 P7 1.558510 1_555
O15 P3 1.545046 1_556
O16 P6 1.599333 1_555
O17 P6 1.525681 1_455
O18 P4 1.525681 1_655
O19 P0 1.588314 1_555
O20 P0 1.523655 1_655
O21 P2 1.557924 1_555
O22 P1 1.523655 1_455
O23 P4 1.587418 1_555
O24 P2 1.545612 1_555
O25 P3 1.558518 1_555
O26 P0 1.599603 1_555
O27 P0 1.527716 1_555
O28 P7 1.539927 1_555
O29 P7 1.543335 1_555
O30 P5 1.541259 1_555
O31 P4 1.599333 1_555
