# generated using pymatgen
data_Zr(TiH2)2
_symmetry_space_group_name_H-M   'P 1'
_cell_length_a   5.74959758
_cell_length_b   5.74959758
_cell_length_c   5.74959758
_cell_angle_alpha   60.00000000
_cell_angle_beta   60.00000000
_cell_angle_gamma   60.00000000
_symmetry_Int_Tables_number   1
_chemical_formula_structural   Zr(TiH2)2
_chemical_formula_sum   'Zr2 Ti4 H8'
_cell_volume   134.39940622
_cell_formula_units_Z   2
loop_
 _symmetry_equiv_pos_site_id
 _symmetry_equiv_pos_as_xyz
  1  'x, y, z'
loop_
 _atom_site_type_symbol
 _atom_site_label
 _atom_site_symmetry_multiplicity
 _atom_site_fract_x
 _atom_site_fract_y
 _atom_site_fract_z
 _atom_site_occupancy
  Zr  Zr0  1  0.25000000  0.25000000  0.25000000  1
  Zr  Zr1  1  0.00000000  0.00000000  0.00000000  1
  Ti  Ti0  1  0.12500000  0.62500000  0.62500000  1
  Ti  Ti1  1  0.62500000  0.62500000  0.12500000  1
  Ti  Ti2  1  0.62500000  0.12500000  0.62500000  1
  Ti  Ti3  1  0.62500000  0.62500000  0.62500000  1
  H  H0  1  0.43287987  0.85570604  0.85570604  1
  H  H1  1  0.85570604  0.85570604  0.43287987  1
  H  H2  1  0.85570604  0.43287987  0.85570604  1
  H  H3  1  0.85570604  0.85570604  0.85570604  1
  H  H4  1  0.81712013  0.39429396  0.39429396  1
  H  H5  1  0.39429396  0.39429396  0.81712013  1
  H  H6  1  0.39429396  0.81712013  0.39429396  1
  H  H7  1  0.39429396  0.39429396  0.39429396  1
loop_
_geom_bond_atom_site_label_1
_geom_bond_atom_site_label_2
_geom_bond_distance
_geom_bond_site_symmetry_2
H0 Ti3 1.888981 1_555
H0 Ti1 1.888989 1_556
H0 Ti2 1.888989 1_565
H0 Zr1 2.032166 1_566
H1 Ti3 1.888981 1_555
H1 Ti0 1.888989 1_655
H1 Ti2 1.888989 1_565
H1 Zr1 2.032166 1_665
H2 Ti3 1.888981 1_555
H2 Ti1 1.888989 1_556
H2 Ti0 1.888989 1_655
H2 Zr1 2.032166 1_656
H3 Ti2 1.888982 1_565
H3 Ti1 1.888982 1_556
H3 Ti0 1.888982 1_655
H3 Zr1 2.032176 1_666
H4 Ti3 1.888981 1_555
H4 Ti2 1.888989 1_555
H4 Ti1 1.888989 1_555
H4 Zr0 2.032166 1_655
H5 Ti3 1.888981 1_555
H5 Ti2 1.888989 1_555
H5 Ti0 1.888989 1_555
H5 Zr0 2.032166 1_556
H6 Ti3 1.888981 1_555
H6 Ti1 1.888989 1_555
H6 Ti0 1.888989 1_555
H6 Zr0 2.032166 1_565
H7 Ti2 1.888982 1_555
H7 Ti0 1.888982 1_555
H7 Ti1 1.888982 1_555
H7 Zr0 2.032176 1_555
