# generated using pymatgen
data_Sr(H8O5)2
_symmetry_space_group_name_H-M   'P 1'
_cell_length_a   6.32810400
_cell_length_b   6.32810400
_cell_length_c   11.20171539
_cell_angle_alpha   89.77366385
_cell_angle_beta   89.77366385
_cell_angle_gamma   90.19150481
_symmetry_Int_Tables_number   1
_chemical_formula_structural   Sr(H8O5)2
_chemical_formula_sum   'Sr2 H32 O20'
_cell_volume   448.56204582
_cell_formula_units_Z   2
loop_
 _symmetry_equiv_pos_site_id
 _symmetry_equiv_pos_as_xyz
  1  'x, y, z'
loop_
 _atom_site_type_symbol
 _atom_site_label
 _atom_site_symmetry_multiplicity
 _atom_site_fract_x
 _atom_site_fract_y
 _atom_site_fract_z
 _atom_site_occupancy
  Sr  Sr0  1  0.00230900  0.99839800  0.25163800  1
  Sr  Sr1  1  0.99839800  0.00230900  0.75163800  1
  H  H0  1  0.45108200  0.03507700  0.37349000  1
  H  H1  1  0.38939100  0.27807800  0.35494700  1
  H  H2  1  0.60949700  0.72437000  0.35488500  1
  H  H3  1  0.68694600  0.85995500  0.46759900  1
  H  H4  1  0.27872200  0.61020200  0.35518600  1
  H  H5  1  0.03532600  0.55113800  0.37463500  1
  H  H6  1  0.72463600  0.39188900  0.35539100  1
  H  H7  1  0.85973400  0.31252700  0.46721000  1
  H  H8  1  0.39188900  0.72463600  0.85539100  1
  H  H9  1  0.31252700  0.85973400  0.96721000  1
  H  H10  1  0.55113800  0.03532600  0.87463500  1
  H  H11  1  0.61020200  0.27872200  0.85518600  1
  H  H12  1  0.03507700  0.45108200  0.87349000  1
  H  H13  1  0.27807800  0.38939100  0.85494700  1
  H  H14  1  0.72437000  0.60949700  0.85488500  1
  H  H15  1  0.85995500  0.68694600  0.96759900  1
  H  H16  1  0.60943800  0.72261000  0.64630900  1
  H  H17  1  0.54860400  0.96500400  0.62676400  1
  H  H18  1  0.38974600  0.27719300  0.64563200  1
  H  H19  1  0.31319200  0.14061800  0.53267800  1
  H  H20  1  0.72064100  0.38904900  0.64608100  1
  H  H21  1  0.96235600  0.45014800  0.62696000  1
  H  H22  1  0.26254400  0.61487800  0.65589400  1
  H  H23  1  0.14333200  0.68553900  0.53732500  1
  H  H24  1  0.61487800  0.26254400  0.15589400  1
  H  H25  1  0.68553900  0.14333200  0.03732500  1
  H  H26  1  0.45014800  0.96235600  0.12696000  1
  H  H27  1  0.38904900  0.72064100  0.14608100  1
  H  H28  1  0.96500400  0.54860400  0.12676400  1
  H  H29  1  0.72261000  0.60943800  0.14630900  1
  H  H30  1  0.27719300  0.38974600  0.14563200  1
  H  H31  1  0.14061800  0.31319200  0.03267800  1
  O  O0  1  0.49716800  0.50143900  0.31869900  1
  O  O1  1  0.50143900  0.49716800  0.81869900  1
  O  O2  1  0.49846200  0.50135000  0.68500100  1
  O  O3  1  0.50135000  0.49846200  0.18500100  1
  O  O4  1  0.32773100  0.13383200  0.37857500  1
  O  O5  1  0.67022500  0.86777100  0.37831900  1
  O  O6  1  0.13676000  0.67221800  0.38224600  1
  O  O7  1  0.86759200  0.33018300  0.37800400  1
  O  O8  1  0.33018300  0.86759200  0.87800400  1
  O  O9  1  0.67221800  0.13676000  0.88224600  1
  O  O10  1  0.13383200  0.32773100  0.87857500  1
  O  O11  1  0.86777100  0.67022500  0.87831900  1
  O  O12  1  0.67152800  0.86598400  0.62137200  1
  O  O13  1  0.32945200  0.13363800  0.62188900  1
  O  O14  1  0.86316800  0.32693100  0.62099900  1
  O  O15  1  0.12320200  0.67256200  0.62648000  1
  O  O16  1  0.67256200  0.12320200  0.12648000  1
  O  O17  1  0.32693100  0.86316800  0.12099900  1
  O  O18  1  0.86598400  0.67152800  0.12137200  1
  O  O19  1  0.13363800  0.32945200  0.12188900  1
loop_
_geom_bond_atom_site_label_1
_geom_bond_atom_site_label_2
_geom_bond_distance
_geom_bond_site_symmetry_2
H0 O4 1.003134 1_555
H1 O4 1.024893 1_555
H1 O0 1.617005 1_555
H2 O5 1.020006 1_555
H2 O0 1.630900 1_555
H3 O5 1.007125 1_555
H4 O6 1.026680 1_555
H4 O0 1.598676 1_555
H5 O6 1.002007 1_555
H6 O7 1.019021 1_555
H6 O0 1.652454 1_555
H7 O7 1.006064 1_555
H8 O8 1.019021 1_555
H8 O1 1.652454 1_555
H9 O8 1.006064 1_555
H10 O9 1.002007 1_555
H11 O9 1.026680 1_555
H11 O1 1.598676 1_555
H12 O10 1.003134 1_555
H13 O10 1.024893 1_555
H13 O1 1.617005 1_555
H14 O11 1.020006 1_555
H14 O1 1.630900 1_555
H15 O11 1.007125 1_555
H16 O12 1.024853 1_555
H16 O2 1.621017 1_555
H17 O12 1.002279 1_555
H18 O13 1.020762 1_555
H18 O2 1.637286 1_555
H19 O13 1.005816 1_555
H20 O14 1.023801 1_555
H20 O2 1.635891 1_555
H21 O14 1.001938 1_555
H22 O15 1.011348 1_555
H22 O2 1.691268 1_555
H23 O15 1.009271 1_555
H24 O16 1.011348 1_555
H24 O3 1.691268 1_555
H25 O16 1.009271 1_555
H26 O17 1.001938 1_555
H27 O17 1.023801 1_555
H27 O3 1.635891 1_555
H28 O18 1.002279 1_555
H29 O18 1.024853 1_555
H29 O3 1.621017 1_555
H30 O19 1.020762 1_555
H30 O3 1.637286 1_555
H31 O19 1.005816 1_555
O0 O3 1.497970 1_555
O1 O2 1.497970 1_555
O4 Sr0 2.649160 1_545
O5 Sr0 2.658701 1_655
O6 Sr0 2.668818 1_555
O7 Sr0 2.676668 1_645
O8 Sr1 2.676668 1_465
O9 Sr1 2.668818 1_555
O10 Sr1 2.649160 1_455
O11 Sr1 2.658701 1_565
O12 Sr1 2.678415 1_565
O13 Sr1 2.673317 1_455
O14 Sr1 2.663005 1_555
O15 Sr1 2.639865 1_465
O16 Sr0 2.639865 1_645
O17 Sr0 2.663005 1_555
O18 Sr0 2.678415 1_655
O19 Sr0 2.673317 1_545
