# generated using pymatgen
data_Gd2Ti2O7
_symmetry_space_group_name_H-M   'P 1'
_cell_length_a   7.27369526
_cell_length_b   7.27369557
_cell_length_c   29.05051891
_cell_angle_alpha   59.50497918
_cell_angle_beta   59.50497760
_cell_angle_gamma   59.63461755
_symmetry_Int_Tables_number   1
_chemical_formula_structural   Gd2Ti2O7
_chemical_formula_sum   'Gd16 Ti16 O56'
_cell_volume   1075.63104143
_cell_formula_units_Z   8
loop_
 _symmetry_equiv_pos_site_id
 _symmetry_equiv_pos_as_xyz
  1  'x, y, z'
loop_
 _atom_site_type_symbol
 _atom_site_label
 _atom_site_symmetry_multiplicity
 _atom_site_fract_x
 _atom_site_fract_y
 _atom_site_fract_z
 _atom_site_occupancy
  Gd  Gd0  1  0.50097700  0.99879600  0.99967700  1
  Gd  Gd1  1  0.47629400  0.47629400  0.01352600  1
  Gd  Gd2  1  0.49893900  0.00070400  0.25020000  1
  Gd  Gd3  1  0.99881600  0.99881600  0.12501400  1
  Gd  Gd4  1  0.52363400  0.52363400  0.23632200  1
  Gd  Gd5  1  0.99879600  0.50097700  0.99967700  1
  Gd  Gd6  1  0.50107200  0.00074800  0.49807600  1
  Gd  Gd7  1  0.00572300  0.00572300  0.37503700  1
  Gd  Gd8  1  0.00070400  0.49893900  0.25020000  1
  Gd  Gd9  1  0.99436300  0.99436300  0.50330400  1
  Gd  Gd10  1  0.49889600  0.99931000  0.75194800  1
  Gd  Gd11  1  0.99944800  0.99944800  0.62497300  1
  Gd  Gd12  1  0.00074800  0.50107200  0.49807600  1
  Gd  Gd13  1  0.00789100  0.00789100  0.74563700  1
  Gd  Gd14  1  0.99379800  0.99379800  0.87534700  1
  Gd  Gd15  1  0.99931000  0.49889600  0.75194800  1
  Ti  Ti0  1  0.01897900  0.01897900  0.98869300  1
  Ti  Ti1  1  0.50204100  0.00022300  0.12398500  1
  Ti  Ti2  1  0.49906000  0.49906000  0.12517700  1
  Ti  Ti3  1  0.50612800  0.00214600  0.37133200  1
  Ti  Ti4  1  0.98753300  0.98753300  0.25889900  1
  Ti  Ti5  1  0.00022300  0.50204100  0.12398500  1
  Ti  Ti6  1  0.49776400  0.49776400  0.37516200  1
  Ti  Ti7  1  0.50063700  0.00118600  0.62439400  1
  Ti  Ti8  1  0.50560100  0.50560100  0.49786700  1
  Ti  Ti9  1  0.50013200  0.50013200  0.62490100  1
  Ti  Ti10  1  0.00214600  0.50612800  0.37133200  1
  Ti  Ti11  1  0.49752300  0.49752300  0.75078100  1
  Ti  Ti12  1  0.49549400  0.99931500  0.87772500  1
  Ti  Ti13  1  0.00118600  0.50063700  0.62439400  1
  Ti  Ti14  1  0.50226200  0.50226200  0.87478500  1
  Ti  Ti15  1  0.99931500  0.49549400  0.87772500  1
  O  O0  1  0.10748000  0.10748000  0.02974100  1
  O  O1  1  0.26144500  0.26144500  0.09768900  1
  O  O2  1  0.07448500  0.69352200  0.04341900  1
  O  O3  1  0.17407000  0.59691400  0.13709200  1
  O  O4  1  0.10795500  0.10795500  0.28365800  1
  O  O5  1  0.69352200  0.07448500  0.04341900  1
  O  O6  1  0.60692500  0.60692500  0.04160300  1
  O  O7  1  0.59691400  0.17407000  0.13709200  1
  O  O8  1  0.13916800  0.61327600  0.29017400  1
  O  O9  1  0.19062300  0.19062300  0.38778300  1
  O  O10  1  0.40190300  0.82617700  0.11310100  1
  O  O11  1  0.39269700  0.39269700  0.20847900  1
  O  O12  1  0.17818300  0.57295700  0.39409100  1
  O  O13  1  0.30480500  0.92526400  0.20703200  1
  O  O14  1  0.82617700  0.40190300  0.11310100  1
  O  O15  1  0.12613600  0.12613600  0.53060700  1
  O  O16  1  0.61327600  0.13916800  0.29017400  1
  O  O17  1  0.59904200  0.59904200  0.28895600  1
  O  O18  1  0.73971800  0.73971800  0.15240800  1
  O  O19  1  0.92526400  0.30480500  0.20703200  1
  O  O20  1  0.57295700  0.17818300  0.39409100  1
  O  O21  1  0.17107700  0.17107700  0.64480200  1
  O  O22  1  0.17255100  0.57893700  0.54309700  1
  O  O23  1  0.41293100  0.83344300  0.35675100  1
  O  O24  1  0.42564600  0.42564600  0.45623200  1
  O  O25  1  0.17208300  0.57776200  0.64409900  1
  O  O26  1  0.12384700  0.12384700  0.78064900  1
  O  O27  1  0.42467000  0.82856500  0.45599200  1
  O  O28  1  0.83344300  0.41293100  0.35675100  1
  O  O29  1  0.89204200  0.89204200  0.22020200  1
  O  O30  1  0.57893700  0.17255100  0.54309700  1
  O  O31  1  0.58081500  0.58081500  0.54225400  1
  O  O32  1  0.82856500  0.42467000  0.45599200  1
  O  O33  1  0.83962400  0.83962400  0.35342200  1
  O  O34  1  0.57776200  0.17208300  0.64409900  1
  O  O35  1  0.15864000  0.15864000  0.89771700  1
  O  O36  1  0.17101000  0.57352500  0.79482500  1
  O  O37  1  0.41901100  0.41901100  0.70801700  1
  O  O38  1  0.42204500  0.82687500  0.60622800  1
  O  O39  1  0.82687500  0.42204500  0.60622800  1
  O  O40  1  0.87581300  0.87581300  0.46953800  1
  O  O41  1  0.16657700  0.58678700  0.89330300  1
  O  O42  1  0.41999700  0.82683200  0.70721200  1
  O  O43  1  0.57352500  0.17101000  0.79482500  1
  O  O44  1  0.57492200  0.57492200  0.79388500  1
  O  O45  1  0.82902700  0.82902700  0.60511500  1
  O  O46  1  0.82683200  0.41999700  0.70721200  1
  O  O47  1  0.58678700  0.16657700  0.89330300  1
  O  O48  1  0.40047400  0.40047400  0.96114900  1
  O  O49  1  0.42621300  0.82149600  0.85632200  1
  O  O50  1  0.82149600  0.42621300  0.85632200  1
  O  O51  1  0.87382500  0.87382500  0.71962500  1
  O  O52  1  0.38290100  0.86287400  0.96033600  1
  O  O53  1  0.80683400  0.80683400  0.86365400  1
  O  O54  1  0.86287400  0.38290100  0.96033600  1
  O  O55  1  0.89215200  0.89215200  0.96656400  1
loop_
_geom_bond_atom_site_label_1
_geom_bond_atom_site_label_2
_geom_bond_distance
_geom_bond_site_symmetry_2
Gd0 O55 2.317486 1_555
Gd0 O6 2.325981 1_556
Gd0 O0 2.335779 1_566
Gd0 O48 2.382328 1_565
Gd0 O52 2.454115 1_555
Gd0 O47 2.532460 1_565
Gd0 O5 2.678634 1_566
Gd0 O10 2.694235 1_556
Gd1 O48 2.221331 1_554
Gd1 O6 2.226401 1_555
Gd1 O54 2.340959 1_554
Gd1 O52 2.340959 1_554
Gd1 O1 2.361259 1_555
Gd1 O2 2.437284 1_555
Gd1 O5 2.437284 1_555
Gd2 O4 2.315633 1_555
Gd2 O11 2.326227 1_555
Gd2 O29 2.333462 1_545
Gd2 O17 2.382476 1_545
Gd2 O16 2.463445 1_555
Gd2 O23 2.536703 1_545
Gd2 O13 2.673337 1_545
Gd2 O7 2.687271 1_555
Gd3 O0 2.258514 1_665
Gd3 O29 2.259090 1_555
Gd3 O7 2.437049 1_565
Gd3 O3 2.437049 1_655
Gd3 O10 2.445770 1_655
Gd3 O14 2.445770 1_565
Gd3 O18 2.878069 1_555
Gd3 O1 2.922302 1_665
Gd4 O17 2.224010 1_555
Gd4 O11 2.224660 1_555
Gd4 O8 2.333345 1_555
Gd4 O16 2.333345 1_555
Gd4 O18 2.367171 1_555
Gd4 O19 2.437683 1_555
Gd4 O13 2.437683 1_555
Gd5 O55 2.317486 1_555
Gd5 O6 2.325981 1_556
Gd5 O0 2.335779 1_656
Gd5 O48 2.382328 1_655
Gd5 O54 2.454115 1_555
Gd5 O41 2.532460 1_655
Gd5 O2 2.678635 1_656
Gd5 O14 2.694235 1_556
Gd6 O15 2.215104 1_555
Gd6 O40 2.215777 1_545
Gd6 O20 2.487309 1_555
Gd6 O31 2.509781 1_545
Gd6 O27 2.513807 1_545
Gd6 O24 2.545577 1_555
Gd6 O38 2.582717 1_545
Gd6 O30 2.592118 1_555
Gd7 O4 2.169099 1_555
Gd7 O40 2.227000 1_445
Gd7 O23 2.439582 1_545
Gd7 O28 2.439582 1_455
Gd7 O33 2.515791 1_445
Gd7 O9 2.567920 1_555
Gd7 O20 2.594757 1_455
Gd7 O12 2.594757 1_545
Gd8 O4 2.315634 1_555
Gd8 O11 2.326227 1_555
Gd8 O29 2.333462 1_455
Gd8 O17 2.382476 1_455
Gd8 O8 2.463445 1_555
Gd8 O28 2.536703 1_455
Gd8 O19 2.673337 1_455
Gd8 O3 2.687271 1_555
Gd9 O40 2.217658 1_555
Gd9 O15 2.222258 1_665
Gd9 O45 2.425387 1_555
Gd9 O30 2.482466 1_565
Gd9 O22 2.482466 1_655
Gd9 O27 2.576785 1_655
Gd9 O32 2.576785 1_565
Gd9 O9 2.770185 1_665
Gd10 O51 2.215010 1_555
Gd10 O26 2.217511 1_565
Gd10 O49 2.496044 1_555
Gd10 O37 2.508161 1_565
Gd10 O43 2.521191 1_565
Gd10 O44 2.541630 1_555
Gd10 O34 2.575487 1_565
Gd10 O42 2.594580 1_555
Gd11 O15 2.223564 1_665
Gd11 O51 2.230415 1_555
Gd11 O34 2.525431 1_565
Gd11 O25 2.525431 1_655
Gd11 O45 2.532004 1_555
Gd11 O38 2.532709 1_655
Gd11 O39 2.532709 1_565
Gd11 O21 2.546380 1_665
Gd12 O15 2.215105 1_555
Gd12 O40 2.215777 1_455
Gd12 O12 2.487309 1_555
Gd12 O31 2.509781 1_455
Gd12 O32 2.513807 1_455
Gd12 O24 2.545577 1_555
Gd12 O39 2.582717 1_455
Gd12 O22 2.592118 1_555
Gd13 O26 2.217617 1_555
Gd13 O51 2.220375 1_445
Gd13 O21 2.401097 1_555
Gd13 O42 2.463843 1_545
Gd13 O46 2.463843 1_455
Gd13 O43 2.603924 1_455
Gd13 O36 2.603924 1_545
Gd13 O53 2.831351 1_445
Gd14 O55 2.165878 1_555
Gd14 O26 2.231617 1_665
Gd14 O47 2.439744 1_565
Gd14 O41 2.439744 1_655
Gd14 O35 2.516483 1_665
Gd14 O53 2.573248 1_555
Gd14 O49 2.592717 1_655
Gd14 O50 2.592717 1_565
Gd15 O51 2.215010 1_555
Gd15 O26 2.217511 1_655
Gd15 O50 2.496044 1_555
Gd15 O37 2.508161 1_655
Gd15 O36 2.521191 1_655
Gd15 O44 2.541630 1_555
Gd15 O25 2.575487 1_655
Gd15 O46 2.594580 1_555
O0 Ti0 2.056179 1_554
O1 Ti5 1.943764 1_555
O1 Ti1 1.943764 1_555
O2 Ti5 1.969402 1_555
O2 Ti0 2.039598 1_564
O3 Ti5 1.964116 1_555
O3 Ti2 1.983148 1_555
O4 Ti4 2.026400 1_445
O5 Ti1 1.969402 1_555
O5 Ti0 2.039597 1_654
O6 Ti2 1.970139 1_555
O7 Ti1 1.964116 1_555
O7 Ti2 1.983148 1_555
O8 Ti10 1.922218 1_555
O8 Ti4 2.218955 1_455
O9 Ti3 1.935297 1_555
O9 Ti10 1.935297 1_555
O10 Ti1 1.950743 1_565
O10 Ti2 1.997056 1_555
O11 Ti2 1.964213 1_555
O12 Ti6 1.930677 1_555
O12 Ti10 2.031654 1_555
O13 Ti4 1.976841 1_455
O13 Ti1 2.029503 1_565
O14 Ti5 1.950743 1_655
O14 Ti2 1.997056 1_555
O16 Ti3 1.922218 1_555
O16 Ti4 2.218954 1_545
O17 Ti6 2.039827 1_555
O18 Ti5 1.951887 1_655
O18 Ti1 1.951887 1_565
O19 Ti4 1.976841 1_545
O19 Ti5 2.029503 1_655
O20 Ti6 1.930677 1_555
O20 Ti3 2.031654 1_555
O21 Ti7 1.982681 1_555
O21 Ti13 1.982681 1_555
O22 Ti13 1.954633 1_555
O22 Ti8 2.013420 1_555
O23 Ti3 1.950560 1_565
O23 Ti6 2.028472 1_555
O24 Ti6 1.966581 1_555
O24 Ti8 1.977160 1_555
O25 Ti9 1.982491 1_555
O25 Ti13 1.985122 1_555
O27 Ti8 1.942464 1_555
O27 Ti3 2.029705 1_565
O28 Ti10 1.950560 1_655
O28 Ti6 2.028472 1_555
O29 Ti4 2.073959 1_555
O30 Ti7 1.954633 1_555
O30 Ti8 2.013420 1_555
O31 Ti9 1.985300 1_555
O31 Ti8 1.998968 1_555
O32 Ti8 1.942464 1_555
O32 Ti10 2.029705 1_655
O33 Ti3 1.999131 1_565
O33 Ti10 1.999131 1_655
O33 Ti4 2.242471 1_555
O34 Ti9 1.982491 1_555
O34 Ti7 1.985122 1_555
O35 Ti12 2.012895 1_545
O35 Ti15 2.012895 1_455
O35 Ti0 2.154628 1_555
O36 Ti11 1.972188 1_555
O36 Ti15 1.989593 1_455
O37 Ti11 1.991332 1_555
O37 Ti9 1.996615 1_555
O38 Ti9 1.976032 1_555
O38 Ti7 1.982644 1_565
O39 Ti9 1.976032 1_555
O39 Ti13 1.982644 1_655
O41 Ti15 1.951017 1_455
O41 Ti14 2.028297 1_555
O42 Ti11 1.984747 1_555
O42 Ti7 1.990943 1_565
O43 Ti11 1.972188 1_555
O43 Ti12 1.989593 1_545
O44 Ti14 1.960397 1_555
O44 Ti11 1.988283 1_555
O45 Ti7 1.979191 1_565
O45 Ti13 1.979191 1_655
O46 Ti11 1.984746 1_555
O46 Ti13 1.990943 1_655
O47 Ti12 1.951017 1_545
O47 Ti14 2.028297 1_555
O48 Ti14 2.043195 1_555
O49 Ti14 1.929740 1_555
O49 Ti12 2.026475 1_555
O50 Ti14 1.929740 1_555
O50 Ti15 2.026475 1_555
O52 Ti12 1.955707 1_555
O52 Ti0 2.161532 1_565
O53 Ti12 1.921311 1_555
O53 Ti15 1.921311 1_555
O54 Ti15 1.955707 1_555
O54 Ti0 2.161532 1_655
O55 Ti0 2.044371 1_665
