# generated using pymatgen
data_Ba2InRuO6
_symmetry_space_group_name_H-M   'P 1'
_cell_length_a   5.88157658
_cell_length_b   5.88157658
_cell_length_c   14.54382178
_cell_angle_alpha   90.00000000
_cell_angle_beta   90.00000000
_cell_angle_gamma   120.00000138
_symmetry_Int_Tables_number   1
_chemical_formula_structural   Ba2InRuO6
_chemical_formula_sum   'Ba6 In3 Ru3 O18'
_cell_volume   435.70915186
_cell_formula_units_Z   3
loop_
 _symmetry_equiv_pos_site_id
 _symmetry_equiv_pos_as_xyz
  1  'x, y, z'
loop_
 _atom_site_type_symbol
 _atom_site_label
 _atom_site_symmetry_multiplicity
 _atom_site_fract_x
 _atom_site_fract_y
 _atom_site_fract_z
 _atom_site_occupancy
  Ba  Ba0  1  0.66666700  0.33333300  0.90596132  1
  Ba  Ba1  1  0.00000000  -0.00000000  0.24739857  1
  Ba  Ba2  1  0.00000000  -0.00000000  0.75260143  1
  Ba  Ba3  1  0.66666700  0.33333300  0.59780791  1
  Ba  Ba4  1  0.33333300  0.66666700  0.40219209  1
  Ba  Ba5  1  0.33333300  0.66666700  0.09403868  1
  In  In0  1  0.66666700  0.33333300  0.34879451  1
  In  In1  1  0.00000000  -0.00000000  -0.00000000  1
  In  In2  1  0.33333300  0.66666700  0.65120549  1
  Ru  Ru0  1  0.33333300  0.66666700  0.84307188  1
  Ru  Ru1  1  0.66666700  0.33333300  0.15692812  1
  Ru  Ru2  1  0.00000000  -0.00000000  0.50000000  1
  O  O0  1  0.84386810  0.15613190  0.42244140  1
  O  O1  1  0.17306503  0.34613007  0.91563902  1
  O  O2  1  0.84386810  0.68773519  0.42244140  1
  O  O3  1  0.31226481  0.15613190  0.42244140  1
  O  O4  1  0.15613190  0.84386810  0.57755860  1
  O  O5  1  0.82693497  0.65386993  0.08436098  1
  O  O6  1  0.34613007  0.17306503  0.08436098  1
  O  O7  1  0.17306503  0.82693497  0.91563902  1
  O  O8  1  0.51335614  0.02671227  0.24278075  1
  O  O9  1  0.48664386  0.97328773  0.75721925  1
  O  O10  1  0.65386993  0.82693497  0.91563902  1
  O  O11  1  0.15613190  0.31226481  0.57755860  1
  O  O12  1  0.48664386  0.51335614  0.75721925  1
  O  O13  1  0.02671227  0.51335614  0.75721925  1
  O  O14  1  0.68773519  0.84386810  0.57755860  1
  O  O15  1  0.97328773  0.48664386  0.24278075  1
  O  O16  1  0.82693497  0.17306503  0.08436098  1
  O  O17  1  0.51335614  0.48664386  0.24278075  1
loop_
_geom_bond_atom_site_label_1
_geom_bond_atom_site_label_2
_geom_bond_distance
_geom_bond_site_symmetry_2
Ba0 O13 2.836028 1_655
Ba0 O9 2.836028 1_545
Ba0 O12 2.836031 1_555
Ba0 O10 2.944873 1_545
Ba0 O1 2.944873 1_655
Ba0 O7 2.944876 1_545
Ba0 O7 2.944876 1_655
Ba0 O1 2.944879 1_555
Ba0 O10 2.944879 1_555
Ba0 O16 3.065560 1_556
Ba0 O6 3.065563 1_556
Ba0 O5 3.065563 1_556
Ba1 O17 2.944700 1_555
Ba1 O17 2.944700 1_445
Ba1 O15 2.944700 1_455
Ba1 O8 2.944700 1_455
Ba1 O15 2.944700 1_445
Ba1 O8 2.944700 1_555
Ba1 O16 2.954805 1_455
Ba1 O5 2.954805 1_445
Ba1 O6 2.954805 1_555
Ba1 O0 3.001814 1_455
Ba1 O2 3.001817 1_445
Ba1 O3 3.001817 1_555
Ba2 O12 2.944700 1_555
Ba2 O12 2.944700 1_445
Ba2 O9 2.944700 1_545
Ba2 O13 2.944700 1_545
Ba2 O13 2.944700 1_555
Ba2 O9 2.944700 1_445
Ba2 O7 2.954805 1_545
Ba2 O1 2.954805 1_555
Ba2 O10 2.954805 1_445
Ba2 O4 3.001814 1_545
Ba2 O14 3.001817 1_445
Ba2 O11 3.001817 1_555
Ba3 O9 2.956094 1_545
Ba3 O13 2.956094 1_655
Ba3 O12 2.956097 1_555
Ba3 O11 2.957440 1_655
Ba3 O14 2.957440 1_545
Ba3 O4 2.957446 1_545
Ba3 O4 2.957446 1_655
Ba3 O14 2.957451 1_555
Ba3 O11 2.957451 1_555
Ba3 O3 3.124696 1_555
Ba3 O2 3.124696 1_555
Ba3 O0 3.124696 1_555
Ba4 O15 2.956094 1_455
Ba4 O8 2.956094 1_565
Ba4 O17 2.956097 1_555
Ba4 O2 2.957440 1_455
Ba4 O3 2.957440 1_565
Ba4 O0 2.957446 1_455
Ba4 O0 2.957446 1_565
Ba4 O2 2.957451 1_555
Ba4 O3 2.957451 1_555
Ba4 O14 3.124696 1_555
Ba4 O11 3.124696 1_555
Ba4 O4 3.124696 1_555
Ba5 O8 2.836028 1_565
Ba5 O15 2.836028 1_455
Ba5 O17 2.836031 1_555
Ba5 O5 2.944873 1_455
Ba5 O6 2.944873 1_565
Ba5 O16 2.944876 1_455
Ba5 O16 2.944876 1_565
Ba5 O5 2.944879 1_555
Ba5 O6 2.944879 1_555
Ba5 O7 3.065560 1_554
Ba5 O10 3.065563 1_554
Ba5 O1 3.065563 1_554
In0 O3 2.099035 1_555
In0 O2 2.099035 1_555
In0 O0 2.099035 1_555
In0 O15 2.194655 1_555
In0 O8 2.194655 1_555
In0 O17 2.194659 1_555
In1 O16 2.147951 1_455
In1 O7 2.147951 1_544
In1 O10 2.147951 1_444
In1 O6 2.147951 1_555
In1 O5 2.147951 1_445
In1 O1 2.147951 1_554
In2 O11 2.099035 1_555
In2 O14 2.099035 1_555
In2 O4 2.099035 1_555
In2 O13 2.194655 1_555
In2 O9 2.194655 1_555
In2 O12 2.194659 1_555
O0 Ru2 1.949927 1_655
O1 Ru0 1.944103 1_555
O2 Ru2 1.949931 1_665
O3 Ru2 1.949931 1_555
O4 Ru2 1.949927 1_565
O5 Ru1 1.944103 1_555
O6 Ru1 1.944103 1_555
O7 Ru0 1.944099 1_555
O8 Ru1 1.999572 1_555
O9 Ru0 1.999572 1_555
O10 Ru0 1.944103 1_555
O11 Ru2 1.949931 1_555
O12 Ru0 1.999576 1_555
O13 Ru0 1.999572 1_555
O14 Ru2 1.949931 1_665
O15 Ru1 1.999572 1_555
O16 Ru1 1.944099 1_555
O17 Ru1 1.999576 1_555
