# generated using pymatgen
data_Ba(H8O5)2
_symmetry_space_group_name_H-M   'P 1'
_cell_length_a   6.38798200
_cell_length_b   6.42158891
_cell_length_c   11.79486272
_cell_angle_alpha   92.62861675
_cell_angle_beta   91.31512114
_cell_angle_gamma   90.57725129
_symmetry_Int_Tables_number   1
_chemical_formula_structural   Ba(H8O5)2
_chemical_formula_sum   'Ba2 H32 O20'
_cell_volume   483.17058895
_cell_formula_units_Z   2
loop_
 _symmetry_equiv_pos_site_id
 _symmetry_equiv_pos_as_xyz
  1  'x, y, z'
loop_
 _atom_site_type_symbol
 _atom_site_label
 _atom_site_symmetry_multiplicity
 _atom_site_fract_x
 _atom_site_fract_y
 _atom_site_fract_z
 _atom_site_occupancy
  Ba  Ba0  1  0.99462100  0.99381400  0.49406600  1
  Ba  Ba1  1  0.99736000  0.99793600  0.00751500  1
  H  H0  1  0.61199100  0.73359900  0.61414300  1
  H  H1  1  0.54585900  0.96951300  0.62085900  1
  H  H2  1  0.32509600  0.15153100  0.71157900  1
  H  H3  1  0.39695900  0.29643100  0.60758600  1
  H  H4  1  0.71757000  0.39144400  0.61363000  1
  H  H5  1  0.95182000  0.46496600  0.63271700  1
  H  H6  1  0.27248300  0.60715200  0.60652800  1
  H  H7  1  0.16745600  0.72486500  0.71255400  1
  H  H8  1  0.72017600  0.22146100  0.21580900  1
  H  H9  1  0.59922100  0.28982100  0.10275900  1
  H  H10  1  0.39810500  0.72678600  0.09987000  1
  H  H11  1  0.45864900  0.95886300  0.14217500  1
  H  H12  1  0.71871900  0.60841100  0.09988200  1
  H  H13  1  0.77924200  0.72270700  0.21822300  1
  H  H14  1  0.27645600  0.40998100  0.09866300  1
  H  H15  1  0.04474800  0.46101200  0.14255800  1
  H  H16  1  0.40043000  0.26247000  0.39931600  1
  H  H17  1  0.30192400  0.15317700  0.28679000  1
  H  H18  1  0.60037400  0.70367500  0.39455500  1
  H  H19  1  0.55347700  0.92891200  0.35060500  1
  H  H20  1  0.18045400  0.67848300  0.28533600  1
  H  H21  1  0.27585200  0.57933800  0.39567000  1
  H  H22  1  0.71066900  0.38293100  0.39563500  1
  H  H23  1  0.93991200  0.42876100  0.35046100  1
  H  H24  1  0.38296000  0.70871100  0.88701500  1
  H  H25  1  0.44133600  0.94093300  0.86199200  1
  H  H26  1  0.59823700  0.26700600  0.88579200  1
  H  H27  1  0.70754300  0.11912800  0.78910700  1
  H  H28  1  0.09898000  0.33083500  0.78373300  1
  H  H29  1  0.27822200  0.38887800  0.88526700  1
  H  H30  1  0.71568900  0.59965100  0.88829600  1
  H  H31  1  0.95287100  0.53676900  0.88141400  1
  O  O0  1  0.48494700  0.49766900  0.57223100  1
  O  O1  1  0.49588800  0.49619400  0.04844800  1
  O  O2  1  0.48919600  0.48467800  0.44552300  1
  O  O3  1  0.48804100  0.48140300  0.92156100  1
  O  O4  1  0.66998000  0.87836700  0.62573800  1
  O  O5  1  0.33759300  0.14965700  0.62919500  1
  O  O6  1  0.86141400  0.33738200  0.63135000  1
  O  O7  1  0.13503900  0.67106800  0.63435500  1
  O  O8  1  0.66225000  0.16543800  0.14142300  1
  O  O9  1  0.33946600  0.85781100  0.13674800  1
  O  O10  1  0.84049000  0.67628200  0.14477000  1
  O  O11  1  0.14921900  0.34827800  0.13539100  1
  O  O12  1  0.34401200  0.12289500  0.36474600  1
  O  O13  1  0.66617600  0.82372700  0.35556200  1
  O  O14  1  0.14181100  0.63997300  0.36182500  1
  O  O15  1  0.83300800  0.31612800  0.35539600  1
  O  O16  1  0.31915900  0.84331700  0.86276900  1
  O  O17  1  0.65474100  0.12064400  0.86641800  1
  O  O18  1  0.13194100  0.31917700  0.86445200  1
  O  O19  1  0.85991700  0.65886900  0.87984600  1
loop_
_geom_bond_atom_site_label_1
_geom_bond_atom_site_label_2
_geom_bond_distance
_geom_bond_site_symmetry_2
Ba0 O4 2.735817 1_555
Ba0 O13 2.810087 1_555
Ba0 O6 2.826123 1_565
Ba0 O5 2.826849 1_665
Ba0 O7 2.849895 1_655
Ba0 O12 2.868800 1_665
Ba0 O14 2.874927 1_655
Ba0 O15 2.881141 1_565
Ba1 O19 2.716488 1_554
Ba1 O11 2.802669 1_665
Ba1 O9 2.814513 1_655
Ba1 O17 2.858066 1_564
Ba1 O16 2.858846 1_654
Ba1 O18 2.862173 1_664
Ba1 O10 2.868956 1_555
Ba1 O8 2.877469 1_565
H0 O4 0.999615 1_555
H1 O4 0.992421 1_555
H2 O5 0.976341 1_555
H3 O5 1.056595 1_555
H3 O0 1.485032 1_555
H4 O6 1.006380 1_555
H5 O6 0.996918 1_555
H6 O7 1.027223 1_555
H6 O0 1.586917 1_555
H7 O7 0.986668 1_555
H8 O8 0.994783 1_555
H9 O8 1.019569 1_555
H9 O1 1.636590 1_555
H10 O9 1.008816 1_555
H10 O1 1.704216 1_555
H11 O9 0.994395 1_555
H12 O10 1.014127 1_555
H12 O1 1.677227 1_555
H13 O10 0.993361 1_555
H14 O11 1.015236 1_555
H14 O1 1.635446 1_555
H15 O11 0.991616 1_555
H16 O12 1.026017 1_555
H16 O2 1.597768 1_555
H17 O12 0.980637 1_555
H18 O13 1.008663 1_555
H18 O2 1.708948 1_555
H19 O13 0.994701 1_555
H20 O14 0.982584 1_555
H21 O14 1.024413 1_555
H21 O2 1.607880 1_555
H22 O15 1.012487 1_555
H22 O2 1.672208 1_555
H23 O15 0.994290 1_555
H24 O16 1.009688 1_555
H24 O3 1.676012 1_555
H25 O16 0.996568 1_555
H26 O17 1.028003 1_555
H26 O3 1.596523 1_555
H27 O17 0.979156 1_555
H28 O18 0.976743 1_555
H29 O18 1.051073 1_555
H29 O3 1.505663 1_555
H30 O19 1.002005 1_555
H30 O3 1.696036 1_555
H31 O19 0.988893 1_555
O0 O2 1.493890 1_555
O1 O3 1.494929 1_554
