# generated using pymatgen
data_Rb3Bi7Pb3(IO)10
_symmetry_space_group_name_H-M   'P 1'
_cell_length_a   6.66513900
_cell_length_b   8.61620790
_cell_length_c   21.03689009
_cell_angle_alpha   80.61523436
_cell_angle_beta   82.69273501
_cell_angle_gamma   77.51062332
_symmetry_Int_Tables_number   1
_chemical_formula_structural   Rb3Bi7Pb3(IO)10
_chemical_formula_sum   'Rb3 Bi7 Pb3 I10 O10'
_cell_volume   1158.42404114
_cell_formula_units_Z   1
loop_
 _symmetry_equiv_pos_site_id
 _symmetry_equiv_pos_as_xyz
  1  'x, y, z'
loop_
 _atom_site_type_symbol
 _atom_site_label
 _atom_site_symmetry_multiplicity
 _atom_site_fract_x
 _atom_site_fract_y
 _atom_site_fract_z
 _atom_site_occupancy
  Rb  Rb0  1  0.25327600  0.54830800  0.40958200  1
  Rb  Rb1  1  0.00553600  0.38753900  0.73046900  1
  Rb  Rb2  1  0.39854900  0.74624700  0.68920700  1
  Bi  Bi0  1  0.79801300  0.90281000  0.99344500  1
  Bi  Bi1  1  0.34046000  0.14922600  0.00266800  1
  Bi  Bi2  1  0.50914300  0.01592600  0.16432200  1
  Bi  Bi3  1  0.39790900  0.42993500  0.14134300  1
  Bi  Bi4  1  0.65535000  0.79132800  0.36845000  1
  Bi  Bi5  1  0.22854200  0.97769300  0.49083900  1
  Bi  Bi6  1  0.74917200  0.53284500  0.90810000  1
  Pb  Pb0  1  0.14167700  0.94095400  0.27736100  1
  Pb  Pb1  1  0.50572000  0.25605700  0.58017400  1
  Pb  Pb2  1  0.72301400  0.90361200  0.81568600  1
  I  I0  1  0.81445900  0.50689100  0.08442100  1
  I  I1  1  0.27909000  0.55260900  0.96075300  1
  I  I2  1  0.02687600  0.60461400  0.25738200  1
  I  I3  1  0.01131700  0.99127100  0.11464900  1
  I  I4  1  0.78174800  0.34592200  0.45549200  1
  I  I5  1  0.35547600  0.16392200  0.35987000  1
  I  I6  1  0.10870200  0.60781000  0.57392300  1
  I  I7  1  0.86371900  0.02151400  0.65782100  1
  I  I8  1  0.52635500  0.31272000  0.81798800  1
  I  I9  1  0.14448700  0.98929200  0.84256400  1
  O  O0  1  0.40192200  0.22965300  0.08988300  1
  O  O1  1  0.51004900  0.93044600  0.05544100  1
  O  O2  1  0.43936900  0.77955300  0.30827900  1
  O  O3  1  0.50340500  0.23556200  0.20777900  1
  O  O4  1  0.39694100  0.05975200  0.54958800  1
  O  O5  1  0.45265500  0.78891900  0.45534800  1
  O  O6  1  0.81109300  0.63063400  0.81257800  1
  O  O7  1  0.45406000  0.42376300  0.73303700  1
  O  O8  1  0.63940300  0.13270200  0.94782500  1
  O  O9  1  0.69118100  0.77863600  0.92508600  1
loop_
_geom_bond_atom_site_label_1
_geom_bond_atom_site_label_2
_geom_bond_distance
_geom_bond_site_symmetry_2
Bi0 O8 2.166702 1_565
Bi0 O1 2.169858 1_556
Bi0 O9 2.193513 1_555
Bi0 I3 3.335872 1_656
Bi1 O8 2.160440 1_554
Bi1 O0 2.177819 1_555
Bi1 O1 2.186027 1_545
Bi1 I3 3.338494 1_545
Bi1 I1 3.391491 1_554
Bi2 O3 2.223181 1_555
Bi2 O0 2.264762 1_555
Bi2 O1 2.516683 1_545
Bi2 I3 3.348886 1_645
Bi3 O3 2.056657 1_555
Bi3 O0 2.175434 1_555
Bi3 I0 3.045216 1_555
Bi3 I2 3.520310 1_555
Bi4 O2 2.062386 1_555
Bi4 O5 2.130477 1_555
Bi4 I5 3.385447 1_565
Bi4 I2 3.494344 1_655
Bi5 O4 2.065966 1_565
Bi5 O5 2.120323 1_555
Bi5 I5 3.071467 1_565
Bi5 I6 3.574781 1_555
Bi6 O6 2.074981 1_555
Bi6 O9 2.149354 1_555
Bi6 I1 3.165522 1_555
I2 Pb0 3.255533 1_555
I2 Rb0 3.629028 1_555
I4 Pb1 3.096813 1_555
I4 Rb0 3.746996 1_555
I4 Rb0 3.860025 1_655
I5 Pb0 3.411001 1_545
I5 Rb0 3.535431 1_555
I6 Rb0 3.558188 1_555
I6 Pb1 3.562995 1_555
I6 Rb1 3.587521 1_555
I6 Rb2 3.764106 1_555
I7 Pb1 3.205455 1_555
I7 Pb2 3.385262 1_545
I7 Rb2 3.898669 1_645
I7 Rb1 4.050178 1_655
I7 Rb2 4.221711 1_545
I8 O7 1.950221 1_555
I9 Pb2 3.192700 1_455
I9 Rb1 3.838620 1_565
I9 Rb2 4.115916 1_555
O2 Pb0 2.265774 1_555
O2 Rb0 3.010250 1_555
O4 Pb1 2.191922 1_555
O5 Rb0 3.026356 1_555
O6 Pb2 2.307414 1_555
O6 Rb1 2.913206 1_655
O7 Rb2 2.741208 1_555
O7 Rb1 3.080168 1_555
O9 Pb2 2.380661 1_555
