# generated using pymatgen
data_AsXe2O4F9
_symmetry_space_group_name_H-M   'P 1'
_cell_length_a   5.50219200
_cell_length_b   10.69349600
_cell_length_c   19.07576289
_cell_angle_alpha   78.69384394
_cell_angle_beta   90.00000000
_cell_angle_gamma   90.00000000
_symmetry_Int_Tables_number   1
_chemical_formula_structural   AsXe2O4F9
_chemical_formula_sum   'As4 Xe8 O16 F36'
_cell_volume   1100.59217893
_cell_formula_units_Z   4
loop_
 _symmetry_equiv_pos_site_id
 _symmetry_equiv_pos_as_xyz
  1  'x, y, z'
loop_
 _atom_site_type_symbol
 _atom_site_label
 _atom_site_symmetry_multiplicity
 _atom_site_fract_x
 _atom_site_fract_y
 _atom_site_fract_z
 _atom_site_occupancy
  As  As0  1  0.15144900  0.98601400  0.12551300  1
  As  As1  1  0.34855100  0.98601400  0.62551300  1
  As  As2  1  0.84855100  0.01398600  0.87448700  1
  As  As3  1  0.65144900  0.01398600  0.37448700  1
  Xe  Xe0  1  0.11966600  0.71804400  0.43279700  1
  Xe  Xe1  1  0.83596100  0.68241500  0.65960200  1
  Xe  Xe2  1  0.61966600  0.28195600  0.06720300  1
  Xe  Xe3  1  0.66403900  0.68241500  0.15960200  1
  Xe  Xe4  1  0.88033400  0.28195600  0.56720300  1
  Xe  Xe5  1  0.38033400  0.71804400  0.93279700  1
  Xe  Xe6  1  0.16403900  0.31758500  0.34039800  1
  Xe  Xe7  1  0.33596100  0.31758500  0.84039800  1
  O  O0  1  0.86961600  0.55700400  0.13941300  1
  O  O1  1  0.59926000  0.59036200  0.92418800  1
  O  O2  1  0.10425400  0.64071800  0.97683600  1
  O  O3  1  0.63038400  0.55700400  0.63941300  1
  O  O4  1  0.13038400  0.44299600  0.86058700  1
  O  O5  1  0.63137100  0.39306800  0.81150700  1
  O  O6  1  0.36862900  0.60693200  0.18849300  1
  O  O7  1  0.89574600  0.35928200  0.02316400  1
  O  O8  1  0.39574600  0.64071800  0.47683600  1
  O  O9  1  0.36961600  0.44299600  0.36058700  1
  O  O10  1  0.90074000  0.59036200  0.42418800  1
  O  O11  1  0.40074000  0.40963800  0.07581200  1
  O  O12  1  0.09926000  0.40963800  0.57581200  1
  O  O13  1  0.60425400  0.35928200  0.52316400  1
  O  O14  1  0.86862900  0.39306800  0.31150700  1
  O  O15  1  0.13137100  0.60693200  0.68849300  1
  F  F0  1  0.61218500  0.06698000  0.58259800  1
  F  F1  1  0.95963800  0.72627800  0.54352200  1
  F  F2  1  0.25629100  0.12964700  0.14971200  1
  F  F3  1  0.54885100  0.15685400  0.40161600  1
  F  F4  1  0.88781500  0.06698000  0.08259800  1
  F  F5  1  0.91508400  0.09680700  0.33345300  1
  F  F6  1  0.11218500  0.93302000  0.91740200  1
  F  F7  1  0.04036200  0.27372200  0.45647800  1
  F  F8  1  0.75629100  0.87035300  0.35028800  1
  F  F9  1  0.54036200  0.72627800  0.04352200  1
  F  F10  1  0.51116000  0.94410600  0.70518400  1
  F  F11  1  0.24665600  0.74269800  0.33102200  1
  F  F12  1  0.08491600  0.90319300  0.66654700  1
  F  F13  1  0.68614600  0.97191200  0.95514700  1
  F  F14  1  0.70909100  0.67948900  0.76012100  1
  F  F15  1  0.45114900  0.84314600  0.59838400  1
  F  F16  1  0.20909100  0.32051100  0.73987900  1
  F  F17  1  0.48884000  0.05589400  0.29481600  1
  F  F18  1  0.79090900  0.67948900  0.26012100  1
  F  F19  1  0.81385400  0.97191200  0.45514700  1
  F  F20  1  0.58491600  0.09680700  0.83345300  1
  F  F21  1  0.38781500  0.93302000  0.41740200  1
  F  F22  1  0.74370900  0.87035300  0.85028800  1
  F  F23  1  0.95114900  0.15685400  0.90161600  1
  F  F24  1  0.18614600  0.02808800  0.54485300  1
  F  F25  1  0.41508400  0.90319300  0.16654700  1
  F  F26  1  0.75334400  0.25730200  0.66897800  1
  F  F27  1  0.98884000  0.94410600  0.20518400  1
  F  F28  1  0.74665600  0.25730200  0.16897800  1
  F  F29  1  0.29090900  0.32051100  0.23987900  1
  F  F30  1  0.25334400  0.74269800  0.83102200  1
  F  F31  1  0.24370900  0.12964700  0.64971200  1
  F  F32  1  0.45963800  0.27372200  0.95647800  1
  F  F33  1  0.04885100  0.84314600  0.09838400  1
  F  F34  1  0.31385400  0.02808800  0.04485300  1
  F  F35  1  0.01116000  0.05589400  0.79481600  1
loop_
_geom_bond_atom_site_label_1
_geom_bond_atom_site_label_2
_geom_bond_distance
_geom_bond_site_symmetry_2
As0 F27 1.744713 1_455
As0 F34 1.759808 1_565
As0 F2 1.784088 1_565
As0 F25 1.797055 1_555
As0 F33 1.797371 1_555
As0 F4 1.801670 1_465
As1 F10 1.744713 1_555
As1 F24 1.759808 1_565
As1 F31 1.784088 1_565
As1 F12 1.797055 1_555
As1 F15 1.797371 1_555
As1 F0 1.801670 1_565
As2 F35 1.744713 1_655
As2 F13 1.759808 1_545
As2 F22 1.784088 1_545
As2 F20 1.797055 1_555
As2 F23 1.797371 1_555
As2 F6 1.801670 1_645
As3 F17 1.744713 1_555
As3 F19 1.759808 1_545
As3 F8 1.784088 1_545
As3 F5 1.797055 1_555
As3 F3 1.797371 1_555
As3 F21 1.801670 1_545
O0 Xe3 1.851695 1_555
O1 Xe5 1.852056 1_555
O2 Xe5 1.850566 1_555
O3 Xe1 1.851695 1_555
O4 Xe7 1.851695 1_555
O5 Xe7 1.850074 1_555
O6 Xe3 1.850074 1_555
O7 Xe2 1.850566 1_555
O8 Xe0 1.850566 1_555
O9 Xe6 1.851695 1_555
O10 Xe0 1.852056 1_655
O11 Xe2 1.852056 1_555
O12 Xe4 1.852056 1_455
O13 Xe4 1.850566 1_555
O14 Xe6 1.850074 1_655
O15 Xe1 1.850074 1_455
F1 Xe1 2.275746 1_555
F1 Xe0 2.305905 1_655
F7 Xe6 2.275746 1_555
F7 Xe4 2.305905 1_455
F9 Xe3 2.275746 1_555
F9 Xe5 2.305905 1_554
F11 Xe0 2.031305 1_555
F14 Xe1 2.035058 1_555
F16 Xe7 2.035058 1_555
F18 Xe3 2.035058 1_555
F26 Xe4 2.031305 1_555
F28 Xe2 2.031305 1_555
F29 Xe6 2.035058 1_555
F30 Xe5 2.031305 1_555
F32 Xe7 2.275746 1_555
F32 Xe2 2.305905 1_556
