# generated using pymatgen
data_Mg3AlFe(SiO4)3
_symmetry_space_group_name_H-M   'P 1'
_cell_length_a   5.02941400
_cell_length_b   4.85827800
_cell_length_c   14.09001085
_cell_angle_alpha   89.98015185
_cell_angle_beta   90.00000000
_cell_angle_gamma   90.00000000
_symmetry_Int_Tables_number   1
_chemical_formula_structural   Mg3AlFe(SiO4)3
_chemical_formula_sum   'Mg6 Al2 Fe2 Si6 O24'
_cell_volume   344.27941002
_cell_formula_units_Z   2
loop_
 _symmetry_equiv_pos_site_id
 _symmetry_equiv_pos_as_xyz
  1  'x, y, z'
loop_
 _atom_site_type_symbol
 _atom_site_label
 _atom_site_symmetry_multiplicity
 _atom_site_fract_x
 _atom_site_fract_y
 _atom_site_fract_z
 _atom_site_occupancy
  Mg  Mg0  1  0.05206600  0.24071900  0.24345700  1
  Mg  Mg1  1  0.05427900  0.23724800  0.75661000  1
  Mg  Mg2  1  0.55427900  0.76275200  0.24339000  1
  Mg  Mg3  1  0.55206600  0.75928100  0.75654300  1
  Mg  Mg4  1  0.43635800  0.73669300  0.99945800  1
  Mg  Mg5  1  0.93635800  0.26330700  0.00054200  1
  Al  Al0  1  0.50606900  0.24268100  0.62947400  1
  Al  Al1  1  0.00606900  0.75731900  0.37052600  1
  Fe  Fe0  1  0.44143600  0.72931300  0.49978200  1
  Fe  Fe1  1  0.94143600  0.27068700  0.50021800  1
  Si  Si0  1  0.49319000  0.25181800  0.87619600  1
  Si  Si1  1  0.49338900  0.25098900  0.12332700  1
  Si  Si2  1  0.50803100  0.24040600  0.37136400  1
  Si  Si3  1  0.99319000  0.74818200  0.12380400  1
  Si  Si4  1  0.00803100  0.75959400  0.62863600  1
  Si  Si5  1  0.99338900  0.74901100  0.87667300  1
  O  O0  1  0.52771900  0.14682700  0.99937700  1
  O  O1  1  0.55145900  0.12893100  0.49689000  1
  O  O2  1  0.81284700  0.07888100  0.34655400  1
  O  O3  1  0.78845700  0.05405500  0.14968200  1
  O  O4  1  0.79009100  0.04990200  0.84963800  1
  O  O5  1  0.82779100  0.05967900  0.65226800  1
  O  O6  1  0.32779100  0.94032100  0.34773200  1
  O  O7  1  0.29009100  0.95009800  0.15036200  1
  O  O8  1  0.31284700  0.92111900  0.65344600  1
  O  O9  1  0.28845700  0.94594500  0.85031800  1
  O  O10  1  0.02771900  0.85317300  0.00062300  1
  O  O11  1  0.05145900  0.87106900  0.50311000  1
  O  O12  1  0.95784300  0.64692900  0.24381800  1
  O  O13  1  0.95794900  0.64348300  0.75118600  1
  O  O14  1  0.69601300  0.55380400  0.90300200  1
  O  O15  1  0.69268900  0.55297800  0.09618400  1
  O  O16  1  0.69787300  0.54595200  0.40612800  1
  O  O17  1  0.71445800  0.56472000  0.59324200  1
  O  O18  1  0.19268900  0.44702200  0.90381600  1
  O  O19  1  0.19601300  0.44619600  0.09699800  1
  O  O20  1  0.19787300  0.45404800  0.59387200  1
  O  O21  1  0.21445800  0.43528000  0.40675800  1
  O  O22  1  0.45794900  0.35651700  0.24881400  1
  O  O23  1  0.45784300  0.35307100  0.75618200  1
loop_
_geom_bond_atom_site_label_1
_geom_bond_atom_site_label_2
_geom_bond_distance
_geom_bond_site_symmetry_2
Mg0 O12 2.029588 1_455
Mg0 O2 2.043303 1_455
Mg0 O3 2.080093 1_455
Mg0 O22 2.118808 1_555
Mg0 O7 2.269028 1_545
Mg0 O19 2.403688 1_555
Mg0 O6 2.492007 1_545
Mg0 O21 2.618440 1_555
Mg1 O13 2.033609 1_455
Mg1 O5 2.050385 1_455
Mg1 O4 2.076338 1_455
Mg1 O23 2.106255 1_555
Mg1 O9 2.265405 1_545
Mg1 O18 2.413862 1_555
Mg1 O8 2.482825 1_545
Mg1 O20 2.624316 1_555
Mg2 O22 2.033609 1_555
Mg2 O6 2.050385 1_555
Mg2 O7 2.076338 1_555
Mg2 O12 2.106255 1_555
Mg2 O3 2.265405 1_565
Mg2 O15 2.413862 1_555
Mg2 O2 2.482825 1_565
Mg2 O16 2.624316 1_555
Mg3 O23 2.029588 1_555
Mg3 O8 2.043303 1_555
Mg3 O9 2.080093 1_555
Mg3 O13 2.118808 1_555
Mg3 O4 2.269028 1_565
Mg3 O14 2.403688 1_555
Mg3 O5 2.492007 1_565
Mg3 O17 2.618440 1_555
Mg4 O0 2.044839 1_565
Mg4 O15 2.077311 1_556
Mg4 O14 2.083934 1_555
Mg4 O10 2.131764 1_556
Mg4 O18 2.302110 1_555
Mg4 O19 2.310944 1_556
Mg4 O9 2.449723 1_555
Mg4 O7 2.477599 1_556
Mg5 O10 2.044839 1_645
Mg5 O18 2.077311 1_654
Mg5 O19 2.083934 1_655
Mg5 O0 2.131764 1_554
Mg5 O15 2.302110 1_555
Mg5 O14 2.310944 1_554
Mg5 O3 2.449723 1_555
Mg5 O4 2.477599 1_554
Al0 O8 1.870478 1_545
Al0 O5 1.873917 1_555
Al0 O23 1.880020 1_555
Al0 O20 1.925721 1_555
Al0 O17 1.950989 1_555
Al0 O1 1.961648 1_555
Al1 O2 1.870478 1_465
Al1 O6 1.873917 1_555
Al1 O12 1.880020 1_455
Al1 O16 1.925721 1_455
Al1 O21 1.950989 1_555
Al1 O11 1.961648 1_555
Fe0 O1 2.019171 1_565
Fe0 O16 2.049165 1_555
Fe0 O17 2.063567 1_555
Fe0 O11 2.079286 1_555
Fe0 O20 2.246177 1_555
Fe0 O21 2.250117 1_555
Fe0 O6 2.442517 1_555
Fe0 O8 2.444539 1_555
Fe1 O11 2.019171 1_645
Fe1 O20 2.049165 1_655
Fe1 O21 2.063567 1_655
Fe1 O1 2.079286 1_555
Fe1 O16 2.246177 1_555
Fe1 O17 2.250117 1_555
Fe1 O5 2.442517 1_555
Fe1 O2 2.444539 1_555
O0 Si0 1.817169 1_555
O0 Si1 1.826642 1_556
O1 Si2 1.862395 1_555
O2 Si2 1.757392 1_555
O3 Si1 1.804259 1_555
O3 Si3 1.844403 1_545
O4 Si5 1.824022 1_545
O4 Si0 1.825468 1_555
O5 Si4 1.748833 1_645
O6 Si2 1.748833 1_565
O7 Si1 1.824022 1_565
O7 Si3 1.825468 1_455
O8 Si4 1.757392 1_555
O9 Si5 1.804259 1_455
O9 Si0 1.844403 1_565
O10 Si3 1.817169 1_455
O10 Si5 1.826642 1_454
O11 Si4 1.862395 1_555
O12 Si3 1.769883 1_555
O13 Si4 1.833733 1_655
O13 Si5 1.849721 1_555
O14 Si5 1.809333 1_555
O14 Si0 1.826494 1_555
O15 Si1 1.817450 1_555
O15 Si3 1.826265 1_555
O16 Si2 1.831827 1_555
O17 Si4 1.823574 1_655
O18 Si5 1.817450 1_455
O18 Si0 1.826265 1_555
O19 Si1 1.809333 1_555
O19 Si3 1.826494 1_455
O20 Si4 1.831827 1_555
O21 Si2 1.823574 1_555
O22 Si2 1.833733 1_555
O22 Si1 1.849721 1_555
O23 Si0 1.769883 1_555
