# generated using pymatgen
data_VCu2BiO6
_symmetry_space_group_name_H-M   'P 1'
_cell_length_a   7.88955600
_cell_length_b   13.68536400
_cell_length_c   16.47856605
_cell_angle_alpha   62.75000998
_cell_angle_beta   90.00000000
_cell_angle_gamma   90.00000000
_symmetry_Int_Tables_number   1
_chemical_formula_structural   VCu2BiO6
_chemical_formula_sum   'V12 Cu24 Bi12 O72'
_cell_volume   1581.75241863
_cell_formula_units_Z   12
loop_
 _symmetry_equiv_pos_site_id
 _symmetry_equiv_pos_as_xyz
  1  'x, y, z'
loop_
 _atom_site_type_symbol
 _atom_site_label
 _atom_site_symmetry_multiplicity
 _atom_site_fract_x
 _atom_site_fract_y
 _atom_site_fract_z
 _atom_site_occupancy
  V  V0  1  0.52159200  0.37545400  0.31582400  1
  V  V1  1  0.97823100  0.72953000  0.45919000  1
  V  V2  1  0.49590700  0.96186500  0.34659700  1
  V  V3  1  0.00409300  0.96186500  0.84659700  1
  V  V4  1  0.47840800  0.62454600  0.68417600  1
  V  V5  1  0.52176900  0.72953000  0.95919000  1
  V  V6  1  0.02176900  0.27047000  0.54081000  1
  V  V7  1  0.02159200  0.62454600  0.18417600  1
  V  V8  1  0.99590700  0.03813500  0.15340300  1
  V  V9  1  0.47823100  0.27047000  0.04081000  1
  V  V10  1  0.50409300  0.03813500  0.65340300  1
  V  V11  1  0.97840800  0.37545400  0.81582400  1
  Cu  Cu0  1  0.18849400  0.86802600  0.05617200  1
  Cu  Cu1  1  0.18336800  0.52593200  0.39801100  1
  Cu  Cu2  1  0.81663200  0.47406800  0.60198900  1
  Cu  Cu3  1  0.79237800  0.19835500  0.73286800  1
  Cu  Cu4  1  0.19660000  0.20631300  0.74007700  1
  Cu  Cu5  1  0.31525700  0.13948500  0.44825600  1
  Cu  Cu6  1  0.31663200  0.52593200  0.89801100  1
  Cu  Cu7  1  0.20762200  0.80164500  0.26713200  1
  Cu  Cu8  1  0.68336800  0.47406800  0.10198900  1
  Cu  Cu9  1  0.68474300  0.86051500  0.55174400  1
  Cu  Cu10  1  0.30340000  0.20631300  0.24007700  1
  Cu  Cu11  1  0.31150600  0.86802600  0.55617200  1
  Cu  Cu12  1  0.80340000  0.79368700  0.25992300  1
  Cu  Cu13  1  0.81150600  0.13197400  0.94382800  1
  Cu  Cu14  1  0.68849400  0.13197400  0.44382800  1
  Cu  Cu15  1  0.18474300  0.13948500  0.94825600  1
  Cu  Cu16  1  0.81965600  0.51997400  0.39589000  1
  Cu  Cu17  1  0.18034400  0.48002600  0.60411000  1
  Cu  Cu18  1  0.69660000  0.79368700  0.75992300  1
  Cu  Cu19  1  0.29237800  0.80164500  0.76713200  1
  Cu  Cu20  1  0.68034400  0.51997400  0.89589000  1
  Cu  Cu21  1  0.31965600  0.48002600  0.10411000  1
  Cu  Cu22  1  0.70762200  0.19835500  0.23286800  1
  Cu  Cu23  1  0.81525700  0.86051500  0.05174400  1
  Bi  Bi0  1  0.48534300  0.34307200  0.56104400  1
  Bi  Bi1  1  0.51465700  0.65692800  0.43895600  1
  Bi  Bi2  1  0.01388800  0.03181800  0.37803000  1
  Bi  Bi3  1  0.51388800  0.96818200  0.12197000  1
  Bi  Bi4  1  0.51579300  0.33854800  0.78708700  1
  Bi  Bi5  1  0.48420700  0.66145200  0.21291300  1
  Bi  Bi6  1  0.01465700  0.34307200  0.06104400  1
  Bi  Bi7  1  0.98611200  0.96818200  0.62197000  1
  Bi  Bi8  1  0.48611200  0.03181800  0.87803000  1
  Bi  Bi9  1  0.98534300  0.65692800  0.93895600  1
  Bi  Bi10  1  0.01579300  0.66145200  0.71291300  1
  Bi  Bi11  1  0.98420700  0.33854800  0.28708700  1
  O  O0  1  0.50013800  0.76991400  0.83818500  1
  O  O1  1  0.68020100  0.95348300  0.69512500  1
  O  O2  1  0.72051600  0.76647100  0.97630900  1
  O  O3  1  0.12928900  0.43275800  0.85438100  1
  O  O4  1  0.32061300  0.34713200  0.67134100  1
  O  O5  1  0.87036700  0.20257400  0.51186500  1
  O  O6  1  0.77948400  0.76647100  0.47630900  1
  O  O7  1  0.32642400  0.95843900  0.69911100  1
  O  O8  1  0.00559100  0.56553300  0.30556700  1
  O  O9  1  0.98884800  0.14556400  0.18407000  1
  O  O10  1  0.50373300  0.58441700  0.02982500  1
  O  O11  1  0.17446200  0.00529200  0.50212600  1
  O  O12  1  0.99986200  0.76991400  0.33818500  1
  O  O13  1  0.18020100  0.04651700  0.80487500  1
  O  O14  1  0.67637400  0.34166600  0.67082800  1
  O  O15  1  0.00373300  0.41558300  0.47017500  1
  O  O16  1  0.99440900  0.43446700  0.69443300  1
  O  O17  1  0.77996500  0.40506100  0.84275900  1
  O  O18  1  0.33793900  0.81790500  0.16075300  1
  O  O19  1  0.99862500  0.22892500  0.86563300  1
  O  O20  1  0.62928900  0.56724200  0.64561900  1
  O  O21  1  0.82642400  0.04156100  0.80088900  1
  O  O22  1  0.81979900  0.95348300  0.19512500  1
  O  O23  1  0.50137500  0.22892500  0.36563300  1
  O  O24  1  0.87071100  0.56724200  0.14561900  1
  O  O25  1  0.22051600  0.23352900  0.52369100  1
  O  O26  1  0.62963300  0.20257400  0.01186500  1
  O  O27  1  0.50559100  0.43446700  0.19443300  1
  O  O28  1  0.82553800  0.99470800  0.49787400  1
  O  O29  1  0.00137500  0.77107500  0.13436700  1
  O  O30  1  0.17537100  0.50303700  0.00182600  1
  O  O31  1  0.72003500  0.40506100  0.34275900  1
  O  O32  1  0.12963300  0.79742600  0.48813500  1
  O  O33  1  0.83793900  0.18209500  0.33924700  1
  O  O34  1  0.00013800  0.23008600  0.66181500  1
  O  O35  1  0.82362600  0.34166600  0.17082800  1
  O  O36  1  0.00618300  0.91047200  0.96713700  1
  O  O37  1  0.82061300  0.65286800  0.82865900  1
  O  O38  1  0.17357600  0.95843900  0.19911100  1
  O  O39  1  0.32553800  0.00529200  0.00212600  1
  O  O40  1  0.83613200  0.81176100  0.65529600  1
  O  O41  1  0.22003500  0.59493900  0.15724100  1
  O  O42  1  0.48884800  0.85443600  0.31593000  1
  O  O43  1  0.49986200  0.23008600  0.16181500  1
  O  O44  1  0.17938700  0.34713200  0.17134100  1
  O  O45  1  0.99381700  0.08952800  0.03286300  1
  O  O46  1  0.49626700  0.41558300  0.97017500  1
  O  O47  1  0.27948400  0.23352900  0.02369100  1
  O  O48  1  0.37036700  0.79742600  0.98813500  1
  O  O49  1  0.67446200  0.99470800  0.99787400  1
  O  O50  1  0.16206100  0.81790500  0.66075300  1
  O  O51  1  0.99626700  0.58441700  0.52982500  1
  O  O52  1  0.82462900  0.49696300  0.99817400  1
  O  O53  1  0.67537100  0.49696300  0.49817400  1
  O  O54  1  0.66206100  0.18209500  0.83924700  1
  O  O55  1  0.32462900  0.50303700  0.50182600  1
  O  O56  1  0.67938700  0.65286800  0.32865900  1
  O  O57  1  0.33613200  0.18823900  0.84470400  1
  O  O58  1  0.31979900  0.04651700  0.30487500  1
  O  O59  1  0.51115200  0.14556400  0.68407000  1
  O  O60  1  0.16386800  0.18823900  0.34470400  1
  O  O61  1  0.01115200  0.85443600  0.81593000  1
  O  O62  1  0.37071100  0.43275800  0.35438100  1
  O  O63  1  0.17637400  0.65833400  0.82917200  1
  O  O64  1  0.49381700  0.91047200  0.46713700  1
  O  O65  1  0.50618300  0.08952800  0.53286300  1
  O  O66  1  0.32362600  0.65833400  0.32917200  1
  O  O67  1  0.49862500  0.77107500  0.63436700  1
  O  O68  1  0.49440900  0.56553300  0.80556700  1
  O  O69  1  0.27996500  0.59493900  0.65724100  1
  O  O70  1  0.66386800  0.81176100  0.15529600  1
  O  O71  1  0.67357600  0.04156100  0.30088900  1
loop_
_geom_bond_atom_site_label_1
_geom_bond_atom_site_label_2
_geom_bond_distance
_geom_bond_site_symmetry_2
Cu0 O18 1.935998 1_555
Cu0 O36 1.943816 1_554
Cu0 O39 1.989730 1_565
Cu0 O29 2.008625 1_555
Cu0 O48 2.289412 1_554
Cu1 O55 1.943186 1_555
Cu1 O8 1.955889 1_555
Cu1 O66 1.977945 1_555
Cu1 O15 2.014633 1_555
Cu1 O62 2.273103 1_555
Cu2 O53 1.943186 1_555
Cu2 O16 1.955889 1_555
Cu2 O14 1.977945 1_555
Cu2 O51 2.014633 1_555
Cu2 O20 2.273103 1_555
Cu3 O21 1.931420 1_555
Cu3 O34 1.944382 1_655
Cu3 O54 1.955070 1_555
Cu3 O14 1.973123 1_555
Cu3 O59 2.573599 1_555
Cu4 O34 1.946099 1_555
Cu4 O13 1.949596 1_555
Cu4 O57 1.963428 1_555
Cu4 O4 1.988778 1_555
Cu5 O60 1.934142 1_555
Cu5 O65 1.951241 1_555
Cu5 O11 1.975267 1_555
Cu5 O23 1.995492 1_555
Cu5 O25 2.285913 1_555
Cu6 O30 1.943186 1_556
Cu6 O68 1.955889 1_555
Cu6 O63 1.977945 1_555
Cu6 O46 2.014633 1_555
Cu6 O3 2.273103 1_555
Cu7 O38 1.931420 1_555
Cu7 O12 1.944382 1_455
Cu7 O18 1.955070 1_555
Cu7 O66 1.973123 1_555
Cu7 O42 2.573599 1_555
Cu8 O52 1.943186 1_554
Cu8 O27 1.955889 1_555
Cu8 O35 1.977945 1_555
Cu8 O10 2.014633 1_555
Cu8 O24 2.273103 1_555
Cu9 O40 1.934142 1_555
Cu9 O64 1.951241 1_555
Cu9 O28 1.975267 1_555
Cu9 O67 1.995492 1_555
Cu9 O6 2.285913 1_555
Cu10 O43 1.946099 1_555
Cu10 O58 1.949596 1_555
Cu10 O60 1.963428 1_555
Cu10 O44 1.988778 1_555
Cu11 O50 1.935998 1_555
Cu11 O64 1.943816 1_555
Cu11 O11 1.989730 1_565
Cu11 O67 2.008625 1_555
Cu11 O32 2.289412 1_555
Cu12 O12 1.946099 1_555
Cu12 O22 1.949596 1_555
Cu12 O70 1.963428 1_555
Cu12 O56 1.988778 1_555
Cu13 O54 1.935998 1_555
Cu13 O45 1.943816 1_556
Cu13 O49 1.989730 1_545
Cu13 O19 2.008625 1_555
Cu13 O26 2.289412 1_556
Cu14 O33 1.935998 1_555
Cu14 O65 1.943816 1_555
Cu14 O28 1.989730 1_545
Cu14 O23 2.008625 1_555
Cu14 O5 2.289412 1_555
Cu15 O57 1.934142 1_555
Cu15 O45 1.951241 1_456
Cu15 O39 1.975267 1_556
Cu15 O19 1.995492 1_455
Cu15 O47 2.285913 1_556
Cu16 O53 1.936446 1_555
Cu16 O8 1.976403 1_655
Cu16 O56 1.978541 1_555
Cu16 O15 2.011741 1_655
Cu16 O31 2.262366 1_555
Cu17 O55 1.936446 1_555
Cu17 O16 1.976403 1_455
Cu17 O4 1.978541 1_555
Cu17 O51 2.011741 1_455
Cu17 O69 2.262366 1_555
Cu18 O0 1.946099 1_555
Cu18 O1 1.949596 1_555
Cu18 O40 1.963428 1_555
Cu18 O37 1.988778 1_555
Cu19 O7 1.931420 1_555
Cu19 O0 1.944382 1_555
Cu19 O50 1.955070 1_555
Cu19 O63 1.973123 1_555
Cu19 O61 2.573599 1_555
Cu20 O52 1.936446 1_555
Cu20 O68 1.976403 1_555
Cu20 O37 1.978541 1_555
Cu20 O46 2.011741 1_555
Cu20 O17 2.262366 1_555
Cu21 O30 1.936446 1_555
Cu21 O27 1.976403 1_555
Cu21 O44 1.978541 1_555
Cu21 O10 2.011741 1_555
Cu21 O41 2.262366 1_555
Cu22 O71 1.931420 1_555
Cu22 O43 1.944382 1_555
Cu22 O33 1.955070 1_555
Cu22 O35 1.973123 1_555
Cu22 O9 2.573599 1_555
Cu23 O70 1.934142 1_555
Cu23 O36 1.951241 1_654
Cu23 O49 1.975267 1_554
Cu23 O29 1.995492 1_655
Cu23 O2 2.285913 1_554
Bi0 O4 2.255679 1_555
Bi0 O55 2.322972 1_555
Bi0 O14 2.347930 1_555
Bi0 O53 2.399672 1_555
Bi0 O59 2.537595 1_555
Bi0 O25 2.799418 1_555
Bi1 O56 2.255679 1_555
Bi1 O53 2.322972 1_555
Bi1 O66 2.347930 1_555
Bi1 O55 2.399672 1_555
Bi1 O42 2.537595 1_555
Bi1 O6 2.799418 1_555
Bi2 O60 2.282036 1_555
Bi2 O11 2.288804 1_555
Bi2 O33 2.315469 1_455
Bi2 O28 2.334035 1_445
Bi2 O58 2.663944 1_555
Bi3 O70 2.282036 1_555
Bi3 O49 2.288804 1_554
Bi3 O18 2.315469 1_555
Bi3 O39 2.334035 1_565
Bi3 O22 2.663944 1_555
Bi4 O54 2.229252 1_555
Bi4 O14 2.280844 1_555
Bi4 O57 2.313762 1_555
Bi4 O4 2.412003 1_555
Bi4 O17 2.603607 1_555
Bi5 O18 2.229252 1_555
Bi5 O66 2.280844 1_555
Bi5 O70 2.313762 1_555
Bi5 O56 2.412003 1_555
Bi5 O41 2.603607 1_555
Bi6 O44 2.255679 1_555
Bi6 O30 2.322972 1_555
Bi6 O35 2.347930 1_455
Bi6 O52 2.399672 1_454
Bi6 O9 2.537595 1_455
Bi6 O47 2.799418 1_555
Bi7 O40 2.282036 1_555
Bi7 O28 2.288804 1_555
Bi7 O50 2.315469 1_655
Bi7 O11 2.334035 1_665
Bi7 O1 2.663944 1_555
Bi8 O57 2.282036 1_555
Bi8 O39 2.288804 1_556
Bi8 O54 2.315469 1_555
Bi8 O49 2.334035 1_545
Bi8 O13 2.663944 1_555
Bi9 O37 2.255679 1_555
Bi9 O52 2.322972 1_555
Bi9 O63 2.347930 1_655
Bi9 O30 2.399672 1_656
Bi9 O61 2.537595 1_655
Bi9 O2 2.799418 1_555
Bi10 O50 2.229252 1_555
Bi10 O63 2.280844 1_555
Bi10 O40 2.313762 1_455
Bi10 O37 2.412003 1_455
Bi10 O69 2.603607 1_555
Bi11 O33 2.229252 1_555
Bi11 O35 2.280844 1_555
Bi11 O60 2.313762 1_655
Bi11 O44 2.412003 1_655
Bi11 O31 2.603607 1_555
O0 V5 1.816973 1_555
O1 V10 1.736629 1_565
O2 V5 1.710106 1_555
O3 V11 1.700588 1_455
O5 V6 1.709840 1_655
O6 V1 1.710106 1_555
O7 V10 1.723205 1_565
O8 V7 1.786106 1_555
O9 V8 1.760781 1_555
O10 V5 1.789459 1_554
O12 V1 1.816973 1_555
O13 V3 1.736629 1_545
O15 V6 1.789459 1_555
O16 V11 1.786106 1_555
O17 V11 1.725414 1_555
O19 V11 1.792518 1_555
O20 V4 1.700588 1_555
O21 V3 1.723205 1_645
O22 V8 1.736629 1_565
O23 V0 1.792518 1_555
O24 V7 1.700588 1_655
O25 V6 1.710106 1_555
O26 V9 1.709840 1_555
O27 V0 1.786106 1_555
O29 V7 1.792518 1_555
O31 V0 1.725414 1_555
O32 V1 1.709840 1_455
O34 V6 1.816973 1_555
O36 V3 1.777948 1_555
O38 V8 1.723205 1_465
O41 V7 1.725414 1_555
O42 V2 1.760781 1_555
O43 V9 1.816973 1_555
O45 V8 1.777948 1_555
O46 V9 1.789459 1_556
O47 V9 1.710106 1_555
O48 V5 1.709840 1_555
O51 V1 1.789459 1_555
O58 V2 1.736629 1_545
O59 V10 1.760781 1_555
O61 V3 1.760781 1_555
O62 V0 1.700588 1_555
O64 V2 1.777948 1_555
O65 V10 1.777948 1_555
O67 V4 1.792518 1_555
O68 V4 1.786106 1_555
O69 V4 1.725414 1_555
O71 V2 1.723205 1_545
