# generated using pymatgen
data_Mn5H8SO12
_symmetry_space_group_name_H-M   'P 1'
_cell_length_a   7.68534699
_cell_length_b   8.81851851
_cell_length_c   9.39198367
_cell_angle_alpha   100.64731577
_cell_angle_beta   110.48073481
_cell_angle_gamma   95.17263863
_symmetry_Int_Tables_number   1
_chemical_formula_structural   Mn5H8SO12
_chemical_formula_sum   'Mn10 H16 S2 O24'
_cell_volume   577.68161303
_cell_formula_units_Z   2
loop_
 _symmetry_equiv_pos_site_id
 _symmetry_equiv_pos_as_xyz
  1  'x, y, z'
loop_
 _atom_site_type_symbol
 _atom_site_label
 _atom_site_symmetry_multiplicity
 _atom_site_fract_x
 _atom_site_fract_y
 _atom_site_fract_z
 _atom_site_occupancy
  Mn  Mn0  1  0.05139000  0.24684800  0.63105100  1
  Mn  Mn1  1  0.70145200  0.93675000  0.77386600  1
  Mn  Mn2  1  0.00459400  0.40351700  0.30953800  1
  Mn  Mn3  1  0.00727500  0.66503500  0.02863200  1
  Mn  Mn4  1  0.31378800  0.95607300  0.88248400  1
  Mn  Mn5  1  0.94861000  0.75315200  0.36894900  1
  Mn  Mn6  1  0.99272500  0.33496500  0.97136800  1
  Mn  Mn7  1  0.29854800  0.06325000  0.22613400  1
  Mn  Mn8  1  0.68621200  0.04392700  0.11751600  1
  Mn  Mn9  1  0.99540600  0.59648300  0.69046200  1
  H  H0  1  0.36242800  0.06911900  0.78490100  1
  H  H1  1  0.70395400  0.64182200  0.76394500  1
  H  H2  1  0.40293100  0.57921500  0.93795400  1
  H  H3  1  0.71535800  0.24219500  0.34353500  1
  H  H4  1  0.53079000  0.35959400  0.07236000  1
  H  H5  1  0.28464200  0.75780500  0.65646500  1
  H  H6  1  0.06282600  0.90542600  0.96792000  1
  H  H7  1  0.46921000  0.64040600  0.92764000  1
  H  H8  1  0.78684600  0.85016000  0.39246500  1
  H  H9  1  0.21315400  0.14983900  0.60753500  1
  H  H10  1  0.93717400  0.09457400  0.03208000  1
  H  H11  1  0.59706900  0.42078500  0.06204600  1
  H  H12  1  0.29604600  0.35817800  0.23605500  1
  H  H13  1  0.63757200  0.93088100  0.21509900  1
  H  H14  1  0.28596000  0.42882700  0.60035600  1
  H  H15  1  0.71404000  0.57117300  0.39964400  1
  S  S0  1  0.38794800  0.73181100  0.40695500  1
  S  S1  1  0.61205200  0.26818900  0.59304500  1
  O  O0  1  0.55438500  0.89867000  0.92169500  1
  O  O1  1  0.05973900  0.02809400  0.82478700  1
  O  O2  1  0.16764200  0.85449700  0.02121000  1
  O  O3  1  0.18459800  0.78949700  0.69235100  1
  O  O4  1  0.94026100  0.97190600  0.17521300  1
  O  O5  1  0.82150100  0.71643000  0.80131600  1
  O  O6  1  0.91474100  0.80656000  0.16887700  1
  O  O7  1  0.81540200  0.21050300  0.30764900  1
  O  O8  1  0.38097600  0.87552500  0.34757900  1
  O  O9  1  0.85261400  0.57858600  0.43623400  1
  O  O10  1  0.44561500  0.10133000  0.07830500  1
  O  O11  1  0.48638700  0.77062600  0.58037900  1
  O  O12  1  0.81540700  0.33977400  0.62326700  1
  O  O13  1  0.14738600  0.42141400  0.56376600  1
  O  O14  1  0.91705000  0.49072400  0.09684300  1
  O  O15  1  0.61902400  0.12447500  0.65242100  1
  O  O16  1  0.46620900  0.61223300  0.33003700  1
  O  O17  1  0.18459300  0.66022600  0.37673300  1
  O  O18  1  0.08295000  0.50927600  0.90315700  1
  O  O19  1  0.17849900  0.28357000  0.19868400  1
  O  O20  1  0.08525900  0.19344000  0.83112300  1
  O  O21  1  0.53379100  0.38776700  0.66996300  1
  O  O22  1  0.51361300  0.22937400  0.41962100  1
  O  O23  1  0.83235800  0.14550300  0.97879000  1
loop_
_geom_bond_atom_site_label_1
_geom_bond_atom_site_label_2
_geom_bond_distance
_geom_bond_site_symmetry_2
Mn0 O13 1.947918 1_555
Mn0 O20 1.956362 1_555
Mn0 O12 2.040441 1_455
Mn1 O0 2.126012 1_555
Mn1 O11 2.158270 1_555
Mn1 O15 2.196370 1_565
Mn1 O5 2.243747 1_555
Mn1 O23 2.259887 1_565
Mn1 O1 2.644964 1_665
Mn2 O7 2.129817 1_455
Mn2 O14 2.180610 1_455
Mn2 O19 2.193358 1_555
Mn2 O13 2.219511 1_555
Mn2 O17 2.394404 1_555
Mn2 O9 2.404698 1_455
Mn3 O18 1.907669 1_554
Mn3 O14 1.933047 1_455
Mn3 O6 2.001596 1_455
Mn3 O2 2.011765 1_555
Mn3 O5 2.267829 1_454
Mn4 O0 1.889994 1_555
Mn4 O10 1.908212 1_566
Mn4 O3 1.964539 1_555
Mn4 O1 2.029653 1_565
Mn4 O2 2.243973 1_556
Mn5 O9 1.947918 1_555
Mn5 O6 1.956362 1_555
Mn5 O17 2.040441 1_655
Mn6 O14 1.907669 1_556
Mn6 O18 1.933047 1_655
Mn6 O20 2.001596 1_655
Mn6 O23 2.011765 1_555
Mn6 O19 2.267829 1_656
Mn7 O10 2.126012 1_555
Mn7 O22 2.158270 1_555
Mn7 O8 2.196370 1_545
Mn7 O19 2.243747 1_555
Mn7 O2 2.259887 1_545
Mn7 O4 2.644964 1_445
Mn8 O10 1.889994 1_555
Mn8 O0 1.908212 1_544
Mn8 O7 1.964539 1_555
Mn8 O4 2.029653 1_545
Mn8 O23 2.243973 1_554
Mn9 O3 2.129817 1_655
Mn9 O18 2.180610 1_655
Mn9 O5 2.193358 1_555
Mn9 O9 2.219511 1_555
Mn9 O12 2.394404 1_555
Mn9 O13 2.404698 1_655
H0 Mn4 1.575971 1_545
H1 O5 0.978666 1_555
H2 H7 0.751209 1_555
H3 O7 0.983947 1_555
H5 O3 0.983947 1_555
H6 O2 0.983501 1_556
H8 Mn5 1.624893 1_555
H9 Mn0 1.624898 1_555
H10 O23 0.983501 1_554
H11 H4 0.751209 1_555
H12 O19 0.978666 1_555
H13 Mn8 1.575971 1_565
H14 O13 0.989751 1_555
H15 O9 0.989751 1_555
O1 O20 1.440933 1_555
O4 O6 1.440933 1_555
O8 S0 1.473944 1_555
O11 S0 1.492470 1_555
O12 S1 1.538521 1_555
O15 S1 1.473944 1_555
O16 S0 1.460319 1_555
O17 S0 1.538521 1_555
O21 S1 1.460319 1_555
O22 S1 1.492470 1_555
