# generated using pymatgen
data_AgCSN
_symmetry_space_group_name_H-M   'P 1'
_cell_length_a   6.25237175
_cell_length_b   6.25237175
_cell_length_c   8.49657803
_cell_angle_alpha   82.86066758
_cell_angle_beta   82.86066758
_cell_angle_gamma   84.68932641
_symmetry_Int_Tables_number   1
_chemical_formula_structural   AgCSN
_chemical_formula_sum   'Ag4 C4 S4 N4'
_cell_volume   326.01457806
_cell_formula_units_Z   4
loop_
 _symmetry_equiv_pos_site_id
 _symmetry_equiv_pos_as_xyz
  1  'x, y, z'
loop_
 _atom_site_type_symbol
 _atom_site_label
 _atom_site_symmetry_multiplicity
 _atom_site_fract_x
 _atom_site_fract_y
 _atom_site_fract_z
 _atom_site_occupancy
  Ag  Ag0  1  0.26432800  0.56329600  0.10626200  1
  Ag  Ag1  1  0.43670400  0.73567200  0.39373800  1
  Ag  Ag2  1  0.73567200  0.43670400  0.89373800  1
  Ag  Ag3  1  0.56329600  0.26432800  0.60626200  1
  C  C0  1  0.03403400  0.25821400  0.38812700  1
  C  C1  1  0.74178600  0.96596600  0.11187300  1
  C  C2  1  0.96596600  0.74178600  0.61187300  1
  C  C3  1  0.25821400  0.03403400  0.88812700  1
  S  S0  1  0.28389500  0.24638500  0.29981600  1
  S  S1  1  0.71610500  0.75361500  0.70018400  1
  S  S2  1  0.75361500  0.71610500  0.20018400  1
  S  S3  1  0.24638500  0.28389500  0.79981600  1
  N  N0  1  0.85618100  0.26048100  0.45276900  1
  N  N1  1  0.26048100  0.85618100  0.95276900  1
  N  N2  1  0.14381900  0.73951900  0.54723100  1
  N  N3  1  0.73951900  0.14381900  0.04723100  1
loop_
_geom_bond_atom_site_label_1
_geom_bond_atom_site_label_2
_geom_bond_distance
_geom_bond_site_symmetry_2
Ag0 N1 2.112067 1_554
Ag0 S0 2.416773 1_555
Ag1 N2 2.112067 1_555
Ag1 S2 2.416773 1_555
Ag2 N3 2.112067 1_556
Ag2 S1 2.416773 1_555
Ag3 N0 2.112067 1_555
Ag3 S3 2.416773 1_555
C0 N0 1.177122 1_455
C0 S0 1.646227 1_555
C1 N3 1.177122 1_565
C1 S2 1.646227 1_555
C2 N2 1.177122 1_655
C2 S1 1.646227 1_555
C3 N1 1.177122 1_545
C3 S3 1.646227 1_555
