# generated using pymatgen
data_Nd11In9Pd4
_symmetry_space_group_name_H-M   'P 1'
_cell_length_a   27.53200590
_cell_length_b   27.53200590
_cell_length_c   7.52306000
_cell_angle_alpha   90.00000000
_cell_angle_beta   90.00000000
_cell_angle_gamma   112.74048225
_symmetry_Int_Tables_number   1
_chemical_formula_structural   Nd11In9Pd4
_chemical_formula_sum   'Nd88 In72 Pd32'
_cell_volume   5259.27710772
_cell_formula_units_Z   8
loop_
 _symmetry_equiv_pos_site_id
 _symmetry_equiv_pos_as_xyz
  1  'x, y, z'
loop_
 _atom_site_type_symbol
 _atom_site_label
 _atom_site_symmetry_multiplicity
 _atom_site_fract_x
 _atom_site_fract_y
 _atom_site_fract_z
 _atom_site_occupancy
  Nd  Nd0_0  1  0.14693900  0.14693900  0.00000000  1
  Nd  Nd0_1  1  0.14693900  0.14693900  0.50000000  1
  Nd  Nd0_2  1  0.14693900  0.64693900  0.00000000  1
  Nd  Nd0_3  1  0.14693900  0.64693900  0.50000000  1
  Nd  Nd0_4  1  0.64693900  0.14693900  0.00000000  1
  Nd  Nd0_5  1  0.64693900  0.14693900  0.50000000  1
  Nd  Nd0_6  1  0.64693900  0.64693900  0.00000000  1
  Nd  Nd0_7  1  0.64693900  0.64693900  0.50000000  1
  Nd  Nd1_0  1  0.20707450  0.03595450  0.00000000  1
  Nd  Nd1_1  1  0.20707450  0.03595450  0.50000000  1
  Nd  Nd1_2  1  0.20707450  0.53595450  0.00000000  1
  Nd  Nd1_3  1  0.20707450  0.53595450  0.50000000  1
  Nd  Nd1_4  1  0.70707450  0.03595450  0.00000000  1
  Nd  Nd1_5  1  0.70707450  0.03595450  0.50000000  1
  Nd  Nd1_6  1  0.70707450  0.53595450  0.00000000  1
  Nd  Nd1_7  1  0.70707450  0.53595450  0.50000000  1
  Nd  Nd2_0  1  0.18130100  0.31869900  0.00000000  1
  Nd  Nd2_1  1  0.18130100  0.31869900  0.50000000  1
  Nd  Nd2_2  1  0.18130100  0.81869900  0.00000000  1
  Nd  Nd2_3  1  0.18130100  0.81869900  0.50000000  1
  Nd  Nd2_4  1  0.68130100  0.31869900  0.00000000  1
  Nd  Nd2_5  1  0.68130100  0.31869900  0.50000000  1
  Nd  Nd2_6  1  0.68130100  0.81869900  0.00000000  1
  Nd  Nd2_7  1  0.68130100  0.81869900  0.50000000  1
  Nd  Nd3_0  1  0.08031400  0.41968600  0.00000000  1
  Nd  Nd3_1  1  0.08031400  0.41968600  0.50000000  1
  Nd  Nd3_2  1  0.08031400  0.91968600  0.00000000  1
  Nd  Nd3_3  1  0.08031400  0.91968600  0.50000000  1
  Nd  Nd3_4  1  0.58031400  0.41968600  0.00000000  1
  Nd  Nd3_5  1  0.58031400  0.41968600  0.50000000  1
  Nd  Nd3_6  1  0.58031400  0.91968600  0.00000000  1
  Nd  Nd3_7  1  0.58031400  0.91968600  0.50000000  1
  Nd  Nd4_0  1  0.31869900  0.18130100  0.00000000  1
  Nd  Nd4_1  1  0.31869900  0.18130100  0.50000000  1
  Nd  Nd4_2  1  0.31869900  0.68130100  0.00000000  1
  Nd  Nd4_3  1  0.31869900  0.68130100  0.50000000  1
  Nd  Nd4_4  1  0.81869900  0.18130100  0.00000000  1
  Nd  Nd4_5  1  0.81869900  0.18130100  0.50000000  1
  Nd  Nd4_6  1  0.81869900  0.68130100  0.00000000  1
  Nd  Nd4_7  1  0.81869900  0.68130100  0.50000000  1
  Nd  Nd5_0  1  0.35306100  0.35306100  0.00000000  1
  Nd  Nd5_1  1  0.35306100  0.35306100  0.50000000  1
  Nd  Nd5_2  1  0.35306100  0.85306100  0.00000000  1
  Nd  Nd5_3  1  0.35306100  0.85306100  0.50000000  1
  Nd  Nd5_4  1  0.85306100  0.35306100  0.00000000  1
  Nd  Nd5_5  1  0.85306100  0.35306100  0.50000000  1
  Nd  Nd5_6  1  0.85306100  0.85306100  0.00000000  1
  Nd  Nd5_7  1  0.85306100  0.85306100  0.50000000  1
  Nd  Nd6_0  1  0.41968600  0.08031400  0.00000000  1
  Nd  Nd6_1  1  0.41968600  0.08031400  0.50000000  1
  Nd  Nd6_2  1  0.41968600  0.58031400  0.00000000  1
  Nd  Nd6_3  1  0.41968600  0.58031400  0.50000000  1
  Nd  Nd6_4  1  0.91968600  0.08031400  0.00000000  1
  Nd  Nd6_5  1  0.91968600  0.08031400  0.50000000  1
  Nd  Nd6_6  1  0.91968600  0.58031400  0.00000000  1
  Nd  Nd6_7  1  0.91968600  0.58031400  0.50000000  1
  Nd  Nd7_0  1  0.00000000  0.00000000  0.00000000  1
  Nd  Nd7_1  1  0.00000000  0.00000000  0.50000000  1
  Nd  Nd7_2  1  0.00000000  0.50000000  0.00000000  1
  Nd  Nd7_3  1  0.00000000  0.50000000  0.50000000  1
  Nd  Nd7_4  1  0.50000000  0.00000000  0.00000000  1
  Nd  Nd7_5  1  0.50000000  0.00000000  0.50000000  1
  Nd  Nd7_6  1  0.50000000  0.50000000  0.00000000  1
  Nd  Nd7_7  1  0.50000000  0.50000000  0.50000000  1
  Nd  Nd8_0  1  0.03595450  0.20707450  0.00000000  1
  Nd  Nd8_1  1  0.03595450  0.20707450  0.50000000  1
  Nd  Nd8_2  1  0.03595450  0.70707450  0.00000000  1
  Nd  Nd8_3  1  0.03595450  0.70707450  0.50000000  1
  Nd  Nd8_4  1  0.53595450  0.20707450  0.00000000  1
  Nd  Nd8_5  1  0.53595450  0.20707450  0.50000000  1
  Nd  Nd8_6  1  0.53595450  0.70707450  0.00000000  1
  Nd  Nd8_7  1  0.53595450  0.70707450  0.50000000  1
  Nd  Nd9_0  1  0.29292550  0.46404550  0.00000000  1
  Nd  Nd9_1  1  0.29292550  0.46404550  0.50000000  1
  Nd  Nd9_2  1  0.29292550  0.96404550  0.00000000  1
  Nd  Nd9_3  1  0.29292550  0.96404550  0.50000000  1
  Nd  Nd9_4  1  0.79292550  0.46404550  0.00000000  1
  Nd  Nd9_5  1  0.79292550  0.46404550  0.50000000  1
  Nd  Nd9_6  1  0.79292550  0.96404550  0.00000000  1
  Nd  Nd9_7  1  0.79292550  0.96404550  0.50000000  1
  Nd  Nd10_0  1  0.46404550  0.29292550  0.00000000  1
  Nd  Nd10_1  1  0.46404550  0.29292550  0.50000000  1
  Nd  Nd10_2  1  0.46404550  0.79292550  0.00000000  1
  Nd  Nd10_3  1  0.46404550  0.79292550  0.50000000  1
  Nd  Nd10_4  1  0.96404550  0.29292550  0.00000000  1
  Nd  Nd10_5  1  0.96404550  0.29292550  0.50000000  1
  Nd  Nd10_6  1  0.96404550  0.79292550  0.00000000  1
  Nd  Nd10_7  1  0.96404550  0.79292550  0.50000000  1
  In  In0_0  1  0.39229700  0.46411900  0.25000000  1
  In  In0_1  1  0.39229700  0.46411900  0.75000000  1
  In  In0_2  1  0.39229700  0.96411900  0.25000000  1
  In  In0_3  1  0.39229700  0.96411900  0.75000000  1
  In  In0_4  1  0.89229700  0.46411900  0.25000000  1
  In  In0_5  1  0.89229700  0.46411900  0.75000000  1
  In  In0_6  1  0.89229700  0.96411900  0.25000000  1
  In  In0_7  1  0.89229700  0.96411900  0.75000000  1
  In  In1_0  1  0.07833050  0.31677300  0.25000000  1
  In  In1_1  1  0.07833050  0.31677300  0.75000000  1
  In  In1_2  1  0.07833050  0.81677300  0.25000000  1
  In  In1_3  1  0.07833050  0.81677300  0.75000000  1
  In  In1_4  1  0.57833050  0.31677300  0.25000000  1
  In  In1_5  1  0.57833050  0.31677300  0.75000000  1
  In  In1_6  1  0.57833050  0.81677300  0.25000000  1
  In  In1_7  1  0.57833050  0.81677300  0.75000000  1
  In  In2_0  1  0.46411900  0.39229700  0.25000000  1
  In  In2_1  1  0.46411900  0.39229700  0.75000000  1
  In  In2_2  1  0.46411900  0.89229700  0.25000000  1
  In  In2_3  1  0.46411900  0.89229700  0.75000000  1
  In  In2_4  1  0.96411900  0.39229700  0.25000000  1
  In  In2_5  1  0.96411900  0.39229700  0.75000000  1
  In  In2_6  1  0.96411900  0.89229700  0.25000000  1
  In  In2_7  1  0.96411900  0.89229700  0.75000000  1
  In  In3_0  1  0.31677300  0.07833050  0.25000000  1
  In  In3_1  1  0.31677300  0.07833050  0.75000000  1
  In  In3_2  1  0.31677300  0.57833050  0.25000000  1
  In  In3_3  1  0.31677300  0.57833050  0.75000000  1
  In  In3_4  1  0.81677300  0.07833050  0.25000000  1
  In  In3_5  1  0.81677300  0.07833050  0.75000000  1
  In  In3_6  1  0.81677300  0.57833050  0.25000000  1
  In  In3_7  1  0.81677300  0.57833050  0.75000000  1
  In  In4_0  1  0.03588100  0.10770300  0.25000000  1
  In  In4_1  1  0.03588100  0.10770300  0.75000000  1
  In  In4_2  1  0.03588100  0.60770300  0.25000000  1
  In  In4_3  1  0.03588100  0.60770300  0.75000000  1
  In  In4_4  1  0.53588100  0.10770300  0.25000000  1
  In  In4_5  1  0.53588100  0.10770300  0.75000000  1
  In  In4_6  1  0.53588100  0.60770300  0.25000000  1
  In  In4_7  1  0.53588100  0.60770300  0.75000000  1
  In  In5_0  1  0.18322700  0.42166950  0.25000000  1
  In  In5_1  1  0.18322700  0.42166950  0.75000000  1
  In  In5_2  1  0.18322700  0.92166950  0.25000000  1
  In  In5_3  1  0.18322700  0.92166950  0.75000000  1
  In  In5_4  1  0.68322700  0.42166950  0.25000000  1
  In  In5_5  1  0.68322700  0.42166950  0.75000000  1
  In  In5_6  1  0.68322700  0.92166950  0.25000000  1
  In  In5_7  1  0.68322700  0.92166950  0.75000000  1
  In  In6_0  1  0.25000000  0.25000000  0.00000000  1
  In  In6_1  1  0.25000000  0.25000000  0.50000000  1
  In  In6_2  1  0.25000000  0.75000000  0.00000000  1
  In  In6_3  1  0.25000000  0.75000000  0.50000000  1
  In  In6_4  1  0.75000000  0.25000000  0.00000000  1
  In  In6_5  1  0.75000000  0.25000000  0.50000000  1
  In  In6_6  1  0.75000000  0.75000000  0.00000000  1
  In  In6_7  1  0.75000000  0.75000000  0.50000000  1
  In  In7_0  1  0.10770300  0.03588100  0.25000000  1
  In  In7_1  1  0.10770300  0.03588100  0.75000000  1
  In  In7_2  1  0.10770300  0.53588100  0.25000000  1
  In  In7_3  1  0.10770300  0.53588100  0.75000000  1
  In  In7_4  1  0.60770300  0.03588100  0.25000000  1
  In  In7_5  1  0.60770300  0.03588100  0.75000000  1
  In  In7_6  1  0.60770300  0.53588100  0.25000000  1
  In  In7_7  1  0.60770300  0.53588100  0.75000000  1
  In  In8_0  1  0.42166950  0.18322700  0.25000000  1
  In  In8_1  1  0.42166950  0.18322700  0.75000000  1
  In  In8_2  1  0.42166950  0.68322700  0.25000000  1
  In  In8_3  1  0.42166950  0.68322700  0.75000000  1
  In  In8_4  1  0.92166950  0.18322700  0.25000000  1
  In  In8_5  1  0.92166950  0.18322700  0.75000000  1
  In  In8_6  1  0.92166950  0.68322700  0.25000000  1
  In  In8_7  1  0.92166950  0.68322700  0.75000000  1
  Pd  Pd0_0  1  0.27636800  0.37835650  0.25000000  1
  Pd  Pd0_1  1  0.27636800  0.37835650  0.75000000  1
  Pd  Pd0_2  1  0.27636800  0.87835650  0.25000000  1
  Pd  Pd0_3  1  0.27636800  0.87835650  0.75000000  1
  Pd  Pd0_4  1  0.77636800  0.37835650  0.25000000  1
  Pd  Pd0_5  1  0.77636800  0.37835650  0.75000000  1
  Pd  Pd0_6  1  0.77636800  0.87835650  0.25000000  1
  Pd  Pd0_7  1  0.77636800  0.87835650  0.75000000  1
  Pd  Pd1_0  1  0.22363200  0.12164350  0.25000000  1
  Pd  Pd1_1  1  0.22363200  0.12164350  0.75000000  1
  Pd  Pd1_2  1  0.22363200  0.62164350  0.25000000  1
  Pd  Pd1_3  1  0.22363200  0.62164350  0.75000000  1
  Pd  Pd1_4  1  0.72363200  0.12164350  0.25000000  1
  Pd  Pd1_5  1  0.72363200  0.12164350  0.75000000  1
  Pd  Pd1_6  1  0.72363200  0.62164350  0.25000000  1
  Pd  Pd1_7  1  0.72363200  0.62164350  0.75000000  1
  Pd  Pd2_0  1  0.37835650  0.27636800  0.25000000  1
  Pd  Pd2_1  1  0.37835650  0.27636800  0.75000000  1
  Pd  Pd2_2  1  0.37835650  0.77636800  0.25000000  1
  Pd  Pd2_3  1  0.37835650  0.77636800  0.75000000  1
  Pd  Pd2_4  1  0.87835650  0.27636800  0.25000000  1
  Pd  Pd2_5  1  0.87835650  0.27636800  0.75000000  1
  Pd  Pd2_6  1  0.87835650  0.77636800  0.25000000  1
  Pd  Pd2_7  1  0.87835650  0.77636800  0.75000000  1
  Pd  Pd3_0  1  0.12164350  0.22363200  0.25000000  1
  Pd  Pd3_1  1  0.12164350  0.22363200  0.75000000  1
  Pd  Pd3_2  1  0.12164350  0.72363200  0.25000000  1
  Pd  Pd3_3  1  0.12164350  0.72363200  0.75000000  1
  Pd  Pd3_4  1  0.62164350  0.22363200  0.25000000  1
  Pd  Pd3_5  1  0.62164350  0.22363200  0.75000000  1
  Pd  Pd3_6  1  0.62164350  0.72363200  0.25000000  1
  Pd  Pd3_7  1  0.62164350  0.72363200  0.75000000  1
loop_
_geom_bond_atom_site_label_1
_geom_bond_atom_site_label_2
_geom_bond_distance
_geom_bond_site_symmetry_2
Nd0_0 Pd3_1 3.101238 1_554
Nd0_0 Pd3_0 3.101238 1_555
Nd0_0 Pd1_0 3.101238 1_555
Nd0_0 Pd1_1 3.101238 1_554
Nd0_1 Pd3_0 3.101238 1_555
Nd0_1 Pd1_0 3.101238 1_555
Nd0_1 Pd1_1 3.101238 1_555
Nd0_1 Pd3_1 3.101238 1_555
Nd0_2 Pd3_2 3.101238 1_555
Nd0_2 Pd3_3 3.101238 1_554
Nd0_2 Pd1_3 3.101238 1_554
Nd0_2 Pd1_2 3.101238 1_555
Nd0_3 Pd3_2 3.101238 1_555
Nd0_3 Pd3_3 3.101238 1_555
Nd0_3 Pd1_3 3.101238 1_555
Nd0_3 Pd1_2 3.101238 1_555
Nd0_4 Pd3_5 3.101238 1_554
Nd0_4 Pd3_4 3.101238 1_555
Nd0_4 Pd1_5 3.101238 1_554
Nd0_4 Pd1_4 3.101238 1_555
Nd0_5 Pd3_4 3.101238 1_555
Nd0_5 Pd3_5 3.101238 1_555
Nd0_5 Pd1_4 3.101238 1_555
Nd0_5 Pd1_5 3.101238 1_555
Nd0_6 Pd1_7 3.101238 1_554
Nd0_6 Pd1_6 3.101238 1_555
Nd0_6 Pd3_6 3.101238 1_555
Nd0_6 Pd3_7 3.101238 1_554
Nd0_7 Pd1_6 3.101238 1_555
Nd0_7 Pd3_6 3.101238 1_555
Nd0_7 Pd3_7 3.101238 1_555
Nd0_7 Pd1_7 3.101238 1_555
Nd1_0 Pd1_0 2.911942 1_555
Nd1_0 Pd1_1 2.911942 1_554
Nd1_0 Nd3_2 3.713476 1_545
Nd1_1 Pd1_0 2.911942 1_555
Nd1_1 Pd1_1 2.911942 1_555
Nd1_1 Nd3_3 3.713476 1_545
Nd1_2 Pd1_3 2.911942 1_554
Nd1_2 Pd1_2 2.911942 1_555
Nd1_2 Nd3_0 3.713476 1_555
Nd1_3 Pd1_2 2.911942 1_555
Nd1_3 Pd1_3 2.911942 1_555
Nd1_3 Nd3_1 3.713476 1_555
Nd1_4 Pd1_5 2.911942 1_554
Nd1_4 Pd1_4 2.911942 1_555
Nd1_4 Nd3_6 3.713476 1_545
Nd1_5 Pd1_4 2.911942 1_555
Nd1_5 Pd1_5 2.911942 1_555
Nd1_5 Nd3_7 3.713476 1_545
Nd1_6 Pd1_7 2.911942 1_554
Nd1_6 Pd1_6 2.911942 1_555
Nd1_6 Nd3_4 3.713476 1_555
Nd1_7 Pd1_7 2.911942 1_555
Nd1_7 Pd1_6 2.911942 1_555
Nd1_7 Nd3_5 3.713476 1_555
Nd2_0 Pd0_0 3.124438 1_555
Nd2_0 Pd0_1 3.124438 1_554
Nd2_0 Pd3_1 3.124438 1_554
Nd2_0 Pd3_0 3.124438 1_555
Nd2_1 Pd0_0 3.124438 1_555
Nd2_1 Pd0_1 3.124438 1_555
Nd2_1 Pd3_1 3.124438 1_555
Nd2_1 Pd3_0 3.124438 1_555
Nd2_2 Pd0_3 3.124438 1_554
Nd2_2 Pd0_2 3.124438 1_555
Nd2_2 Pd3_2 3.124438 1_555
Nd2_2 Pd3_3 3.124438 1_554
Nd2_3 Pd0_2 3.124438 1_555
Nd2_3 Pd0_3 3.124438 1_555
Nd2_3 Pd3_3 3.124438 1_555
Nd2_3 Pd3_2 3.124438 1_555
Nd2_4 Pd0_4 3.124438 1_555
Nd2_4 Pd0_5 3.124438 1_554
Nd2_4 Pd3_4 3.124438 1_555
Nd2_4 Pd3_5 3.124438 1_554
Nd2_5 Pd0_5 3.124438 1_555
Nd2_5 Pd0_4 3.124438 1_555
Nd2_5 Pd3_4 3.124438 1_555
Nd2_5 Pd3_5 3.124438 1_555
Nd2_6 Pd3_6 3.124438 1_555
Nd2_6 Pd0_7 3.124438 1_554
Nd2_6 Pd0_6 3.124438 1_555
Nd2_6 Pd3_7 3.124438 1_554
Nd2_7 Pd3_6 3.124438 1_555
Nd2_7 Pd3_7 3.124438 1_555
Nd2_7 Pd0_6 3.124438 1_555
Nd2_7 Pd0_7 3.124438 1_555
Nd3_0 Nd7_2 3.682248 1_555
Nd3_0 Nd3_1 3.761530 1_555
Nd3_0 Nd3_1 3.761530 1_554
Nd3_1 Nd7_3 3.682248 1_555
Nd3_2 Nd7_0 3.682248 1_565
Nd3_2 Nd3_3 3.761530 1_555
Nd3_2 Nd3_3 3.761530 1_554
Nd3_3 Nd7_1 3.682248 1_565
Nd3_4 Nd7_6 3.682248 1_555
Nd3_4 Nd3_5 3.761530 1_554
Nd3_4 Nd3_5 3.761530 1_555
Nd3_5 Nd7_7 3.682248 1_555
Nd3_6 Nd7_4 3.682248 1_565
Nd3_6 Nd3_7 3.761530 1_555
Nd3_6 Nd3_7 3.761530 1_554
Nd3_7 Nd7_5 3.682248 1_565
Nd4_0 Pd2_1 3.124438 1_554
Nd4_0 Pd2_0 3.124438 1_555
Nd4_0 Pd1_1 3.124438 1_554
Nd4_0 Pd1_0 3.124438 1_555
Nd4_1 Pd2_1 3.124438 1_555
Nd4_1 Pd2_0 3.124438 1_555
Nd4_1 Pd1_1 3.124438 1_555
Nd4_1 Pd1_0 3.124438 1_555
Nd4_2 Pd2_3 3.124438 1_554
Nd4_2 Pd2_2 3.124438 1_555
Nd4_2 Pd1_3 3.124438 1_554
Nd4_2 Pd1_2 3.124438 1_555
Nd4_3 Pd2_3 3.124438 1_555
Nd4_3 Pd2_2 3.124438 1_555
Nd4_3 Pd1_2 3.124438 1_555
Nd4_3 Pd1_3 3.124438 1_555
Nd4_4 Pd2_5 3.124438 1_554
Nd4_4 Pd2_4 3.124438 1_555
Nd4_4 Pd1_5 3.124438 1_554
Nd4_4 Pd1_4 3.124438 1_555
Nd4_5 Pd2_5 3.124438 1_555
Nd4_5 Pd2_4 3.124438 1_555
Nd4_5 Pd1_5 3.124438 1_555
Nd4_5 Pd1_4 3.124438 1_555
Nd4_6 Pd1_7 3.124438 1_554
Nd4_6 Pd1_6 3.124438 1_555
Nd4_6 Pd2_6 3.124438 1_555
Nd4_6 Pd2_7 3.124438 1_554
Nd4_7 Pd1_6 3.124438 1_555
Nd4_7 Pd1_7 3.124438 1_555
Nd4_7 Pd2_6 3.124438 1_555
Nd4_7 Pd2_7 3.124438 1_555
Nd5_0 Pd0_0 3.101238 1_555
Nd5_0 Pd0_1 3.101238 1_554
Nd5_0 Pd2_1 3.101238 1_554
Nd5_0 Pd2_0 3.101238 1_555
Nd5_1 Pd0_0 3.101238 1_555
Nd5_1 Pd0_1 3.101238 1_555
Nd5_1 Pd2_0 3.101238 1_555
Nd5_1 Pd2_1 3.101238 1_555
Nd5_2 Pd0_2 3.101238 1_555
Nd5_2 Pd0_3 3.101238 1_554
Nd5_2 Pd2_3 3.101238 1_554
Nd5_2 Pd2_2 3.101238 1_555
Nd5_3 Pd0_2 3.101238 1_555
Nd5_3 Pd0_3 3.101238 1_555
Nd5_3 Pd2_3 3.101238 1_555
Nd5_3 Pd2_2 3.101238 1_555
Nd5_4 Pd0_4 3.101238 1_555
Nd5_4 Pd0_5 3.101238 1_554
Nd5_4 Pd2_5 3.101238 1_554
Nd5_4 Pd2_4 3.101238 1_555
Nd5_5 Pd0_4 3.101238 1_555
Nd5_5 Pd0_5 3.101238 1_555
Nd5_5 Pd2_5 3.101238 1_555
Nd5_5 Pd2_4 3.101238 1_555
Nd5_6 Pd2_6 3.101238 1_555
Nd5_6 Pd2_7 3.101238 1_554
Nd5_6 Pd0_7 3.101238 1_554
Nd5_6 Pd0_6 3.101238 1_555
Nd5_7 Pd2_6 3.101238 1_555
Nd5_7 Pd2_7 3.101238 1_555
Nd5_7 Pd0_7 3.101238 1_555
Nd5_7 Pd0_6 3.101238 1_555
Nd6_0 Nd7_4 3.682248 1_555
Nd6_0 Nd9_2 3.713476 1_545
Nd6_0 Nd8_4 3.713476 1_555
Nd6_0 Nd6_1 3.761530 1_555
Nd6_0 Nd6_1 3.761530 1_554
Nd6_1 Nd7_5 3.682248 1_555
Nd6_1 Nd9_3 3.713476 1_545
Nd6_1 Nd8_5 3.713476 1_555
Nd6_2 Nd7_6 3.682248 1_555
Nd6_2 Nd9_0 3.713476 1_555
Nd6_2 Nd8_6 3.713476 1_555
Nd6_2 Nd6_3 3.761530 1_554
Nd6_2 Nd6_3 3.761530 1_555
Nd6_3 Nd7_7 3.682248 1_555
Nd6_3 Nd9_1 3.713476 1_555
Nd6_3 Nd8_7 3.713476 1_555
Nd6_4 Nd7_0 3.682248 1_655
Nd6_4 Nd9_6 3.713476 1_545
Nd6_4 Nd8_0 3.713476 1_655
Nd6_4 Nd6_5 3.761530 1_554
Nd6_4 Nd6_5 3.761530 1_555
Nd6_5 Nd7_1 3.682248 1_655
Nd6_5 Nd9_7 3.713476 1_545
Nd6_5 Nd8_1 3.713476 1_655
Nd6_6 Nd7_2 3.682248 1_655
Nd6_6 Nd9_4 3.713476 1_555
Nd6_6 Nd8_2 3.713476 1_655
Nd6_6 Nd6_7 3.761530 1_554
Nd6_6 Nd6_7 3.761530 1_555
Nd6_7 Nd7_3 3.682248 1_655
Nd6_7 Nd9_5 3.713476 1_555
Nd6_7 Nd8_3 3.713476 1_655
Nd7_0 Nd7_1 3.761530 1_554
Nd7_0 Nd7_1 3.761530 1_555
Nd7_2 Nd7_3 3.761530 1_555
Nd7_2 Nd7_3 3.761530 1_554
Nd7_4 Nd7_5 3.761530 1_554
Nd7_4 Nd7_5 3.761530 1_555
Nd7_6 Nd7_7 3.761530 1_554
Nd7_6 Nd7_7 3.761530 1_555
Nd8_0 Pd3_0 2.911942 1_555
Nd8_0 Pd3_1 2.911942 1_554
Nd8_1 Pd3_0 2.911942 1_555
Nd8_1 Pd3_1 2.911942 1_555
Nd8_2 Pd3_3 2.911942 1_554
Nd8_2 Pd3_2 2.911942 1_555
Nd8_3 Pd3_3 2.911942 1_555
Nd8_3 Pd3_2 2.911942 1_555
Nd8_4 Pd3_5 2.911942 1_554
Nd8_4 Pd3_4 2.911942 1_555
Nd8_5 Pd3_4 2.911942 1_555
Nd8_5 Pd3_5 2.911942 1_555
Nd8_6 Pd3_6 2.911942 1_555
Nd8_6 Pd3_7 2.911942 1_554
Nd8_7 Pd3_6 2.911942 1_555
Nd8_7 Pd3_7 2.911942 1_555
Nd9_0 Pd0_1 2.911942 1_554
Nd9_0 Pd0_0 2.911942 1_555
Nd9_1 Pd0_0 2.911942 1_555
Nd9_1 Pd0_1 2.911942 1_555
Nd9_2 Pd0_2 2.911942 1_555
Nd9_2 Pd0_3 2.911942 1_554
Nd9_3 Pd0_2 2.911942 1_555
Nd9_3 Pd0_3 2.911942 1_555
Nd9_4 Pd0_4 2.911942 1_555
Nd9_4 Pd0_5 2.911942 1_554
Nd9_5 Pd0_4 2.911942 1_555
Nd9_5 Pd0_5 2.911942 1_555
Nd9_6 Pd0_6 2.911942 1_555
Nd9_6 Pd0_7 2.911942 1_554
Nd9_7 Pd0_7 2.911942 1_555
Nd9_7 Pd0_6 2.911942 1_555
Nd10_0 Pd2_0 2.911942 1_555
Nd10_0 Pd2_1 2.911942 1_554
Nd10_0 Nd3_4 3.713476 1_555
Nd10_1 Pd2_1 2.911942 1_555
Nd10_1 Pd2_0 2.911942 1_555
Nd10_1 Nd3_5 3.713476 1_555
Nd10_2 Pd2_3 2.911942 1_554
Nd10_2 Pd2_2 2.911942 1_555
Nd10_2 Nd3_6 3.713476 1_555
Nd10_3 Pd2_2 2.911942 1_555
Nd10_3 Pd2_3 2.911942 1_555
Nd10_3 Nd3_7 3.713476 1_555
Nd10_4 Pd2_5 2.911942 1_554
Nd10_4 Pd2_4 2.911942 1_555
Nd10_4 Nd3_0 3.713476 1_655
Nd10_5 Pd2_5 2.911942 1_555
Nd10_5 Pd2_4 2.911942 1_555
Nd10_5 Nd3_1 3.713476 1_655
Nd10_6 Pd2_6 2.911942 1_555
Nd10_6 Pd2_7 2.911942 1_554
Nd10_6 Nd3_2 3.713476 1_655
Nd10_7 Pd2_7 2.911942 1_555
Nd10_7 Pd2_6 2.911942 1_555
Nd10_7 Nd3_3 3.713476 1_655
In0_0 Pd0_0 3.152162 1_555
In0_0 In2_0 3.292906 1_555
In0_0 Nd9_1 3.319357 1_555
In0_0 Nd9_0 3.319357 1_555
In0_0 Nd7_6 3.322853 1_555
In0_0 Nd7_7 3.322853 1_555
In0_0 Nd5_0 3.391138 1_555
In0_0 Nd5_1 3.391138 1_555
In0_0 Nd6_2 3.531997 1_555
In0_0 Nd6_3 3.531997 1_555
In0_1 Pd0_1 3.152162 1_555
In0_1 In2_1 3.292906 1_555
In0_1 Nd9_1 3.319357 1_555
In0_1 Nd9_0 3.319357 1_556
In0_1 Nd7_7 3.322853 1_555
In0_1 Nd7_6 3.322853 1_556
In0_1 Nd5_1 3.391138 1_555
In0_1 Nd5_0 3.391138 1_556
In0_1 Nd6_2 3.531997 1_556
In0_1 Nd6_3 3.531997 1_555
In0_2 Pd0_2 3.152162 1_555
In0_2 In2_2 3.292906 1_555
In0_2 Nd9_2 3.319357 1_555
In0_2 Nd9_3 3.319357 1_555
In0_2 Nd7_4 3.322853 1_565
In0_2 Nd7_5 3.322853 1_565
In0_2 Nd5_3 3.391138 1_555
In0_2 Nd5_2 3.391138 1_555
In0_2 Nd6_0 3.531997 1_565
In0_2 Nd6_1 3.531997 1_565
In0_3 Pd0_3 3.152162 1_555
In0_3 In2_3 3.292906 1_555
In0_3 Nd9_2 3.319357 1_556
In0_3 Nd9_3 3.319357 1_555
In0_3 Nd7_4 3.322853 1_566
In0_3 Nd7_5 3.322853 1_565
In0_3 Nd5_3 3.391138 1_555
In0_3 Nd5_2 3.391138 1_556
In0_3 Nd6_0 3.531997 1_566
In0_3 Nd6_1 3.531997 1_565
In0_4 Pd0_4 3.152162 1_555
In0_4 In2_4 3.292906 1_555
In0_4 Nd9_4 3.319357 1_555
In0_4 Nd9_5 3.319357 1_555
In0_4 Nd7_2 3.322853 1_655
In0_4 Nd7_3 3.322853 1_655
In0_4 Nd5_4 3.391138 1_555
In0_4 Nd5_5 3.391138 1_555
In0_4 Nd6_6 3.531997 1_555
In0_4 Nd6_7 3.531997 1_555
In0_5 Pd0_5 3.152162 1_555
In0_5 In2_5 3.292906 1_555
In0_5 Nd9_5 3.319357 1_555
In0_5 Nd9_4 3.319357 1_556
In0_5 Nd7_2 3.322853 1_656
In0_5 Nd7_3 3.322853 1_655
In0_5 Nd5_4 3.391138 1_556
In0_5 Nd5_5 3.391138 1_555
In0_5 Nd6_6 3.531997 1_556
In0_5 Nd6_7 3.531997 1_555
In0_6 Pd0_6 3.152162 1_555
In0_6 In2_6 3.292906 1_555
In0_6 Nd9_6 3.319357 1_555
In0_6 Nd9_7 3.319357 1_555
In0_6 Nd7_0 3.322853 1_665
In0_6 Nd7_1 3.322853 1_665
In0_6 Nd5_6 3.391138 1_555
In0_6 Nd5_7 3.391138 1_555
In0_6 Nd6_5 3.531997 1_565
In0_6 Nd6_4 3.531997 1_565
In0_7 Pd0_7 3.152162 1_555
In0_7 In2_7 3.292906 1_555
In0_7 Nd9_6 3.319357 1_556
In0_7 Nd9_7 3.319357 1_555
In0_7 Nd7_1 3.322853 1_665
In0_7 Nd7_0 3.322853 1_666
In0_7 Nd5_6 3.391138 1_556
In0_7 Nd5_7 3.391138 1_555
In0_7 Nd6_5 3.531997 1_565
In0_7 Nd6_4 3.531997 1_566
In1_0 In5_0 3.198900 1_555
In1_0 Pd3_0 3.219029 1_555
In1_0 Nd8_0 3.360948 1_555
In1_0 Nd8_1 3.360948 1_555
In1_0 Nd3_1 3.383607 1_555
In1_0 Nd3_0 3.383607 1_555
In1_0 Nd2_0 3.385410 1_555
In1_0 Nd2_1 3.385410 1_555
In1_0 Nd10_4 3.503087 1_455
In1_0 Nd10_5 3.503087 1_455
In1_1 In5_1 3.198900 1_555
In1_1 Pd3_1 3.219029 1_555
In1_1 Nd8_0 3.360948 1_556
In1_1 Nd8_1 3.360948 1_555
In1_1 Nd3_1 3.383607 1_555
In1_1 Nd3_0 3.383607 1_556
In1_1 Nd2_0 3.385410 1_556
In1_1 Nd2_1 3.385410 1_555
In1_1 Nd10_4 3.503087 1_456
In1_1 Nd10_5 3.503087 1_455
In1_2 In5_2 3.198900 1_555
In1_2 Pd3_2 3.219029 1_555
In1_2 Nd8_3 3.360948 1_555
In1_2 Nd8_2 3.360948 1_555
In1_2 Nd3_2 3.383607 1_555
In1_2 Nd3_3 3.383607 1_555
In1_2 Nd2_2 3.385410 1_555
In1_2 Nd2_3 3.385410 1_555
In1_2 Nd10_6 3.503087 1_455
In1_2 Nd10_7 3.503087 1_455
In1_3 In5_3 3.198900 1_555
In1_3 Pd3_3 3.219029 1_555
In1_3 Nd8_3 3.360948 1_555
In1_3 Nd8_2 3.360948 1_556
In1_3 Nd3_2 3.383607 1_556
In1_3 Nd3_3 3.383607 1_555
In1_3 Nd2_2 3.385410 1_556
In1_3 Nd2_3 3.385410 1_555
In1_3 Nd10_6 3.503087 1_456
In1_3 Nd10_7 3.503087 1_455
In1_4 In5_4 3.198900 1_555
In1_4 Pd3_4 3.219029 1_555
In1_4 Nd8_4 3.360948 1_555
In1_4 Nd8_5 3.360948 1_555
In1_4 Nd3_5 3.383607 1_555
In1_4 Nd3_4 3.383607 1_555
In1_4 Nd2_5 3.385410 1_555
In1_4 Nd2_4 3.385410 1_555
In1_4 Nd10_1 3.503087 1_555
In1_4 Nd10_0 3.503087 1_555
In1_5 In5_5 3.198900 1_555
In1_5 Pd3_5 3.219029 1_555
In1_5 Nd8_4 3.360948 1_556
In1_5 Nd8_5 3.360948 1_555
In1_5 Nd3_5 3.383607 1_555
In1_5 Nd3_4 3.383607 1_556
In1_5 Nd2_4 3.385410 1_556
In1_5 Nd2_5 3.385410 1_555
In1_5 Nd10_0 3.503087 1_556
In1_5 Nd10_1 3.503087 1_555
In1_6 In5_6 3.198900 1_555
In1_6 Pd3_6 3.219029 1_555
In1_6 Nd8_6 3.360948 1_555
In1_6 Nd8_7 3.360948 1_555
In1_6 Nd3_6 3.383607 1_555
In1_6 Nd3_7 3.383607 1_555
In1_6 Nd2_6 3.385410 1_555
In1_6 Nd2_7 3.385410 1_555
In1_6 Nd10_2 3.503087 1_555
In1_6 Nd10_3 3.503087 1_555
In1_7 In5_7 3.198900 1_555
In1_7 Pd3_7 3.219029 1_555
In1_7 Nd8_7 3.360948 1_555
In1_7 Nd8_6 3.360948 1_556
In1_7 Nd3_7 3.383607 1_555
In1_7 Nd3_6 3.383607 1_556
In1_7 Nd2_6 3.385410 1_556
In1_7 Nd2_7 3.385410 1_555
In1_7 Nd10_3 3.503087 1_555
In1_7 Nd10_2 3.503087 1_556
In2_0 Pd2_0 3.152162 1_555
In2_0 Nd10_0 3.319357 1_555
In2_0 Nd10_1 3.319357 1_555
In2_0 Nd7_7 3.322853 1_555
In2_0 Nd7_6 3.322853 1_555
In2_0 Nd5_0 3.391138 1_555
In2_0 Nd5_1 3.391138 1_555
In2_0 Nd3_4 3.531997 1_555
In2_0 Nd3_5 3.531997 1_555
In2_1 Pd2_1 3.152162 1_555
In2_1 Nd10_1 3.319357 1_555
In2_1 Nd10_0 3.319357 1_556
In2_1 Nd7_7 3.322853 1_555
In2_1 Nd7_6 3.322853 1_556
In2_1 Nd5_1 3.391138 1_555
In2_1 Nd5_0 3.391138 1_556
In2_1 Nd3_4 3.531997 1_556
In2_1 Nd3_5 3.531997 1_555
In2_2 Pd2_2 3.152162 1_555
In2_2 Nd10_3 3.319357 1_555
In2_2 Nd10_2 3.319357 1_555
In2_2 Nd7_4 3.322853 1_565
In2_2 Nd7_5 3.322853 1_565
In2_2 Nd5_3 3.391138 1_555
In2_2 Nd5_2 3.391138 1_555
In2_2 Nd3_7 3.531997 1_555
In2_2 Nd3_6 3.531997 1_555
In2_3 Pd2_3 3.152162 1_555
In2_3 Nd10_3 3.319357 1_555
In2_3 Nd10_2 3.319357 1_556
In2_3 Nd7_5 3.322853 1_565
In2_3 Nd7_4 3.322853 1_566
In2_3 Nd5_3 3.391138 1_555
In2_3 Nd5_2 3.391138 1_556
In2_3 Nd3_7 3.531997 1_555
In2_3 Nd3_6 3.531997 1_556
In2_4 Pd2_4 3.152162 1_555
In2_4 Nd10_4 3.319357 1_555
In2_4 Nd10_5 3.319357 1_555
In2_4 Nd7_2 3.322853 1_655
In2_4 Nd7_3 3.322853 1_655
In2_4 Nd5_4 3.391138 1_555
In2_4 Nd5_5 3.391138 1_555
In2_4 Nd3_1 3.531997 1_655
In2_4 Nd3_0 3.531997 1_655
In2_5 Pd2_5 3.152162 1_555
In2_5 Nd10_4 3.319357 1_556
In2_5 Nd10_5 3.319357 1_555
In2_5 Nd7_3 3.322853 1_655
In2_5 Nd7_2 3.322853 1_656
In2_5 Nd5_4 3.391138 1_556
In2_5 Nd5_5 3.391138 1_555
In2_5 Nd3_1 3.531997 1_655
In2_5 Nd3_0 3.531997 1_656
In2_6 Pd2_6 3.152162 1_555
In2_6 Nd10_6 3.319357 1_555
In2_6 Nd10_7 3.319357 1_555
In2_6 Nd7_0 3.322853 1_665
In2_6 Nd7_1 3.322853 1_665
In2_6 Nd5_6 3.391138 1_555
In2_6 Nd5_7 3.391138 1_555
In2_6 Nd3_3 3.531997 1_655
In2_6 Nd3_2 3.531997 1_655
In2_7 Pd2_7 3.152162 1_555
In2_7 Nd10_7 3.319357 1_555
In2_7 Nd10_6 3.319357 1_556
In2_7 Nd7_0 3.322853 1_666
In2_7 Nd7_1 3.322853 1_665
In2_7 Nd5_6 3.391138 1_556
In2_7 Nd5_7 3.391138 1_555
In2_7 Nd3_3 3.531997 1_655
In2_7 Nd3_2 3.531997 1_656
In3_0 In8_0 3.198900 1_555
In3_0 Pd1_0 3.219029 1_555
In3_0 Nd1_0 3.360948 1_555
In3_0 Nd1_1 3.360948 1_555
In3_0 Nd6_0 3.383607 1_555
In3_0 Nd6_1 3.383607 1_555
In3_0 Nd4_0 3.385410 1_555
In3_0 Nd4_1 3.385410 1_555
In3_0 Nd9_2 3.503087 1_545
In3_0 Nd9_3 3.503087 1_545
In3_1 In8_1 3.198900 1_555
In3_1 Pd1_1 3.219029 1_555
In3_1 Nd1_0 3.360948 1_556
In3_1 Nd1_1 3.360948 1_555
In3_1 Nd6_0 3.383607 1_556
In3_1 Nd6_1 3.383607 1_555
In3_1 Nd4_0 3.385410 1_556
In3_1 Nd4_1 3.385410 1_555
In3_1 Nd9_2 3.503087 1_546
In3_1 Nd9_3 3.503087 1_545
In3_2 In8_2 3.198900 1_555
In3_2 Pd1_2 3.219029 1_555
In3_2 Nd1_2 3.360948 1_555
In3_2 Nd1_3 3.360948 1_555
In3_2 Nd6_2 3.383607 1_555
In3_2 Nd6_3 3.383607 1_555
In3_2 Nd4_2 3.385410 1_555
In3_2 Nd4_3 3.385410 1_555
In3_2 Nd9_0 3.503087 1_555
In3_2 Nd9_1 3.503087 1_555
In3_3 In8_3 3.198900 1_555
In3_3 Pd1_3 3.219029 1_555
In3_3 Nd1_2 3.360948 1_556
In3_3 Nd1_3 3.360948 1_555
In3_3 Nd6_3 3.383607 1_555
In3_3 Nd6_2 3.383607 1_556
In3_3 Nd4_2 3.385410 1_556
In3_3 Nd4_3 3.385410 1_555
In3_3 Nd9_0 3.503087 1_556
In3_3 Nd9_1 3.503087 1_555
In3_4 In8_4 3.198900 1_555
In3_4 Pd1_4 3.219029 1_555
In3_4 Nd1_5 3.360948 1_555
In3_4 Nd1_4 3.360948 1_555
In3_4 Nd6_4 3.383607 1_555
In3_4 Nd6_5 3.383607 1_555
In3_4 Nd4_5 3.385410 1_555
In3_4 Nd4_4 3.385410 1_555
In3_4 Nd9_7 3.503087 1_545
In3_4 Nd9_6 3.503087 1_545
In3_5 In8_5 3.198900 1_555
In3_5 Pd1_5 3.219029 1_555
In3_5 Nd1_5 3.360948 1_555
In3_5 Nd1_4 3.360948 1_556
In3_5 Nd6_5 3.383607 1_555
In3_5 Nd6_4 3.383607 1_556
In3_5 Nd4_5 3.385410 1_555
In3_5 Nd4_4 3.385410 1_556
In3_5 Nd9_6 3.503087 1_546
In3_5 Nd9_7 3.503087 1_545
In3_6 In8_6 3.198900 1_555
In3_6 Pd1_6 3.219029 1_555
In3_6 Nd1_6 3.360948 1_555
In3_6 Nd1_7 3.360948 1_555
In3_6 Nd6_6 3.383607 1_555
In3_6 Nd6_7 3.383607 1_555
In3_6 Nd4_6 3.385410 1_555
In3_6 Nd4_7 3.385410 1_555
In3_6 Nd9_4 3.503087 1_555
In3_6 Nd9_5 3.503087 1_555
In3_7 In8_7 3.198900 1_555
In3_7 Pd1_7 3.219029 1_555
In3_7 Nd1_6 3.360948 1_556
In3_7 Nd1_7 3.360948 1_555
In3_7 Nd6_6 3.383607 1_556
In3_7 Nd6_7 3.383607 1_555
In3_7 Nd4_6 3.385410 1_556
In3_7 Nd4_7 3.385410 1_555
In3_7 Nd9_4 3.503087 1_556
In3_7 Nd9_5 3.503087 1_555
In4_0 Pd3_0 3.152162 1_555
In4_0 In7_0 3.292906 1_555
In4_0 Nd8_1 3.319357 1_555
In4_0 Nd8_0 3.319357 1_555
In4_0 Nd7_0 3.322853 1_555
In4_0 Nd7_1 3.322853 1_555
In4_0 Nd0_0 3.391138 1_555
In4_0 Nd0_1 3.391138 1_555
In4_0 Nd6_4 3.531997 1_455
In4_0 Nd6_5 3.531997 1_455
In4_1 Pd3_1 3.152162 1_555
In4_1 In7_1 3.292906 1_555
In4_1 Nd8_1 3.319357 1_555
In4_1 Nd8_0 3.319357 1_556
In4_1 Nd7_0 3.322853 1_556
In4_1 Nd7_1 3.322853 1_555
In4_1 Nd0_0 3.391138 1_556
In4_1 Nd0_1 3.391138 1_555
In4_1 Nd6_4 3.531997 1_456
In4_1 Nd6_5 3.531997 1_455
In4_2 Pd3_2 3.152162 1_555
In4_2 In7_2 3.292906 1_555
In4_2 Nd8_2 3.319357 1_555
In4_2 Nd8_3 3.319357 1_555
In4_2 Nd7_3 3.322853 1_555
In4_2 Nd7_2 3.322853 1_555
In4_2 Nd0_3 3.391138 1_555
In4_2 Nd0_2 3.391138 1_555
In4_2 Nd6_7 3.531997 1_455
In4_2 Nd6_6 3.531997 1_455
In4_3 Pd3_3 3.152162 1_555
In4_3 In7_3 3.292906 1_555
In4_3 Nd8_3 3.319357 1_555
In4_3 Nd8_2 3.319357 1_556
In4_3 Nd7_3 3.322853 1_555
In4_3 Nd7_2 3.322853 1_556
In4_3 Nd0_2 3.391138 1_556
In4_3 Nd0_3 3.391138 1_555
In4_3 Nd6_7 3.531997 1_455
In4_3 Nd6_6 3.531997 1_456
In4_4 Pd3_4 3.152162 1_555
In4_4 In7_4 3.292906 1_555
In4_4 Nd8_4 3.319357 1_555
In4_4 Nd8_5 3.319357 1_555
In4_4 Nd7_4 3.322853 1_555
In4_4 Nd7_5 3.322853 1_555
In4_4 Nd0_4 3.391138 1_555
In4_4 Nd0_5 3.391138 1_555
In4_4 Nd6_0 3.531997 1_555
In4_4 Nd6_1 3.531997 1_555
In4_5 Pd3_5 3.152162 1_555
In4_5 In7_5 3.292906 1_555
In4_5 Nd8_4 3.319357 1_556
In4_5 Nd8_5 3.319357 1_555
In4_5 Nd7_4 3.322853 1_556
In4_5 Nd7_5 3.322853 1_555
In4_5 Nd0_4 3.391138 1_556
In4_5 Nd0_5 3.391138 1_555
In4_5 Nd6_0 3.531997 1_556
In4_5 Nd6_1 3.531997 1_555
In4_6 Pd3_6 3.152162 1_555
In4_6 In7_6 3.292906 1_555
In4_6 Nd8_6 3.319357 1_555
In4_6 Nd8_7 3.319357 1_555
In4_6 Nd7_7 3.322853 1_555
In4_6 Nd7_6 3.322853 1_555
In4_6 Nd0_7 3.391138 1_555
In4_6 Nd0_6 3.391138 1_555
In4_6 Nd6_2 3.531997 1_555
In4_6 Nd6_3 3.531997 1_555
In4_7 Pd3_7 3.152162 1_555
In4_7 In7_7 3.292906 1_555
In4_7 Nd8_6 3.319357 1_556
In4_7 Nd8_7 3.319357 1_555
In4_7 Nd7_6 3.322853 1_556
In4_7 Nd7_7 3.322853 1_555
In4_7 Nd0_7 3.391138 1_555
In4_7 Nd0_6 3.391138 1_556
In4_7 Nd6_3 3.531997 1_555
In4_7 Nd6_2 3.531997 1_556
In5_0 Pd0_0 3.219029 1_555
In5_0 Nd9_0 3.360948 1_555
In5_0 Nd9_1 3.360948 1_555
In5_0 Nd3_0 3.383607 1_555
In5_0 Nd3_1 3.383607 1_555
In5_0 Nd2_0 3.385410 1_555
In5_0 Nd2_1 3.385410 1_555
In5_0 Nd1_3 3.503087 1_555
In5_0 Nd1_2 3.503087 1_555
In5_1 Pd0_1 3.219029 1_555
In5_1 Nd9_0 3.360948 1_556
In5_1 Nd9_1 3.360948 1_555
In5_1 Nd3_0 3.383607 1_556
In5_1 Nd3_1 3.383607 1_555
In5_1 Nd2_0 3.385410 1_556
In5_1 Nd2_1 3.385410 1_555
In5_1 Nd1_3 3.503087 1_555
In5_1 Nd1_2 3.503087 1_556
In5_2 Pd0_2 3.219029 1_555
In5_2 Nd9_2 3.360948 1_555
In5_2 Nd9_3 3.360948 1_555
In5_2 Nd3_2 3.383607 1_555
In5_2 Nd3_3 3.383607 1_555
In5_2 Nd2_3 3.385410 1_555
In5_2 Nd2_2 3.385410 1_555
In5_2 Nd1_0 3.503087 1_565
In5_2 Nd1_1 3.503087 1_565
In5_3 Pd0_3 3.219029 1_555
In5_3 Nd9_3 3.360948 1_555
In5_3 Nd9_2 3.360948 1_556
In5_3 Nd3_3 3.383607 1_555
In5_3 Nd3_2 3.383607 1_556
In5_3 Nd2_3 3.385410 1_555
In5_3 Nd2_2 3.385410 1_556
In5_3 Nd1_0 3.503087 1_566
In5_3 Nd1_1 3.503087 1_565
In5_4 Pd0_4 3.219029 1_555
In5_4 Nd9_4 3.360948 1_555
In5_4 Nd9_5 3.360948 1_555
In5_4 Nd3_4 3.383607 1_555
In5_4 Nd3_5 3.383607 1_555
In5_4 Nd2_4 3.385410 1_555
In5_4 Nd2_5 3.385410 1_555
In5_4 Nd1_7 3.503087 1_555
In5_4 Nd1_6 3.503087 1_555
In5_5 Pd0_5 3.219029 1_555
In5_5 Nd9_4 3.360948 1_556
In5_5 Nd9_5 3.360948 1_555
In5_5 Nd3_4 3.383607 1_556
In5_5 Nd3_5 3.383607 1_555
In5_5 Nd2_4 3.385410 1_556
In5_5 Nd2_5 3.385410 1_555
In5_5 Nd1_7 3.503087 1_555
In5_5 Nd1_6 3.503087 1_556
In5_6 Pd0_6 3.219029 1_555
In5_6 Nd9_6 3.360948 1_555
In5_6 Nd9_7 3.360948 1_555
In5_6 Nd3_6 3.383607 1_555
In5_6 Nd3_7 3.383607 1_555
In5_6 Nd2_7 3.385410 1_555
In5_6 Nd2_6 3.385410 1_555
In5_6 Nd1_5 3.503087 1_565
In5_6 Nd1_4 3.503087 1_565
In5_7 Pd0_7 3.219029 1_555
In5_7 Nd9_6 3.360948 1_556
In5_7 Nd9_7 3.360948 1_555
In5_7 Nd3_6 3.383607 1_556
In5_7 Nd3_7 3.383607 1_555
In5_7 Nd2_7 3.385410 1_555
In5_7 Nd2_6 3.385410 1_556
In5_7 Nd1_5 3.503087 1_565
In5_7 Nd1_4 3.503087 1_566
In6_0 Nd5_0 3.142925 1_555
In6_0 Nd0_0 3.142925 1_555
In6_0 Nd2_0 3.149722 1_555
In6_0 Nd4_0 3.149722 1_555
In6_1 Nd5_1 3.142925 1_555
In6_1 Nd0_1 3.142925 1_555
In6_1 Nd2_1 3.149722 1_555
In6_1 Nd4_1 3.149722 1_555
In6_2 Nd5_2 3.142925 1_555
In6_2 Nd0_2 3.142925 1_555
In6_2 Nd2_2 3.149722 1_555
In6_2 Nd4_2 3.149722 1_555
In6_3 Nd5_3 3.142925 1_555
In6_3 Nd0_3 3.142925 1_555
In6_3 Nd2_3 3.149722 1_555
In6_3 Nd4_3 3.149722 1_555
In6_4 Nd5_4 3.142925 1_555
In6_4 Nd0_4 3.142925 1_555
In6_4 Nd4_4 3.149722 1_555
In6_4 Nd2_4 3.149722 1_555
In6_5 Nd5_5 3.142925 1_555
In6_5 Nd0_5 3.142925 1_555
In6_5 Nd4_5 3.149722 1_555
In6_5 Nd2_5 3.149722 1_555
In6_6 Nd5_6 3.142925 1_555
In6_6 Nd0_6 3.142925 1_555
In6_6 Nd2_6 3.149722 1_555
In6_6 Nd4_6 3.149722 1_555
In6_7 Nd5_7 3.142925 1_555
In6_7 Nd0_7 3.142925 1_555
In6_7 Nd2_7 3.149722 1_555
In6_7 Nd4_7 3.149722 1_555
In7_0 Pd1_0 3.152162 1_555
In7_0 Nd1_0 3.319357 1_555
In7_0 Nd1_1 3.319357 1_555
In7_0 Nd7_1 3.322853 1_555
In7_0 Nd7_0 3.322853 1_555
In7_0 Nd0_1 3.391138 1_555
In7_0 Nd0_0 3.391138 1_555
In7_0 Nd3_2 3.531997 1_545
In7_0 Nd3_3 3.531997 1_545
In7_1 Pd1_1 3.152162 1_555
In7_1 Nd1_0 3.319357 1_556
In7_1 Nd1_1 3.319357 1_555
In7_1 Nd7_1 3.322853 1_555
In7_1 Nd7_0 3.322853 1_556
In7_1 Nd0_1 3.391138 1_555
In7_1 Nd0_0 3.391138 1_556
In7_1 Nd3_3 3.531997 1_545
In7_1 Nd3_2 3.531997 1_546
In7_2 Pd1_2 3.152162 1_555
In7_2 Nd1_2 3.319357 1_555
In7_2 Nd1_3 3.319357 1_555
In7_2 Nd7_2 3.322853 1_555
In7_2 Nd7_3 3.322853 1_555
In7_2 Nd0_3 3.391138 1_555
In7_2 Nd0_2 3.391138 1_555
In7_2 Nd3_0 3.531997 1_555
In7_2 Nd3_1 3.531997 1_555
In7_3 Pd1_3 3.152162 1_555
In7_3 Nd1_2 3.319357 1_556
In7_3 Nd1_3 3.319357 1_555
In7_3 Nd7_2 3.322853 1_556
In7_3 Nd7_3 3.322853 1_555
In7_3 Nd0_2 3.391138 1_556
In7_3 Nd0_3 3.391138 1_555
In7_3 Nd3_1 3.531997 1_555
In7_3 Nd3_0 3.531997 1_556
In7_4 Pd1_4 3.152162 1_555
In7_4 Nd1_4 3.319357 1_555
In7_4 Nd1_5 3.319357 1_555
In7_4 Nd7_4 3.322853 1_555
In7_4 Nd7_5 3.322853 1_555
In7_4 Nd0_4 3.391138 1_555
In7_4 Nd0_5 3.391138 1_555
In7_4 Nd3_7 3.531997 1_545
In7_4 Nd3_6 3.531997 1_545
In7_5 Pd1_5 3.152162 1_555
In7_5 Nd1_4 3.319357 1_556
In7_5 Nd1_5 3.319357 1_555
In7_5 Nd7_4 3.322853 1_556
In7_5 Nd7_5 3.322853 1_555
In7_5 Nd0_5 3.391138 1_555
In7_5 Nd0_4 3.391138 1_556
In7_5 Nd3_7 3.531997 1_545
In7_5 Nd3_6 3.531997 1_546
In7_6 Pd1_6 3.152162 1_555
In7_6 Nd1_6 3.319357 1_555
In7_6 Nd1_7 3.319357 1_555
In7_6 Nd7_7 3.322853 1_555
In7_6 Nd7_6 3.322853 1_555
In7_6 Nd0_7 3.391138 1_555
In7_6 Nd0_6 3.391138 1_555
In7_6 Nd3_4 3.531997 1_555
In7_6 Nd3_5 3.531997 1_555
In7_7 Pd1_7 3.152162 1_555
In7_7 Nd1_7 3.319357 1_555
In7_7 Nd1_6 3.319357 1_556
In7_7 Nd7_7 3.322853 1_555
In7_7 Nd7_6 3.322853 1_556
In7_7 Nd0_7 3.391138 1_555
In7_7 Nd0_6 3.391138 1_556
In7_7 Nd3_4 3.531997 1_556
In7_7 Nd3_5 3.531997 1_555
In8_0 Pd2_0 3.219029 1_555
In8_0 Nd10_0 3.360948 1_555
In8_0 Nd10_1 3.360948 1_555
In8_0 Nd6_1 3.383607 1_555
In8_0 Nd6_0 3.383607 1_555
In8_0 Nd4_0 3.385410 1_555
In8_0 Nd4_1 3.385410 1_555
In8_0 Nd8_5 3.503087 1_555
In8_0 Nd8_4 3.503087 1_555
In8_1 Pd2_1 3.219029 1_555
In8_1 Nd10_0 3.360948 1_556
In8_1 Nd10_1 3.360948 1_555
In8_1 Nd6_1 3.383607 1_555
In8_1 Nd6_0 3.383607 1_556
In8_1 Nd4_1 3.385410 1_555
In8_1 Nd4_0 3.385410 1_556
In8_1 Nd8_5 3.503087 1_555
In8_1 Nd8_4 3.503087 1_556
In8_2 Pd2_2 3.219029 1_555
In8_2 Nd10_2 3.360948 1_555
In8_2 Nd10_3 3.360948 1_555
In8_2 Nd6_2 3.383607 1_555
In8_2 Nd6_3 3.383607 1_555
In8_2 Nd4_3 3.385410 1_555
In8_2 Nd4_2 3.385410 1_555
In8_2 Nd8_6 3.503087 1_555
In8_2 Nd8_7 3.503087 1_555
In8_3 Pd2_3 3.219029 1_555
In8_3 Nd10_3 3.360948 1_555
In8_3 Nd10_2 3.360948 1_556
In8_3 Nd6_3 3.383607 1_555
In8_3 Nd6_2 3.383607 1_556
In8_3 Nd4_3 3.385410 1_555
In8_3 Nd4_2 3.385410 1_556
In8_3 Nd8_7 3.503087 1_555
In8_3 Nd8_6 3.503087 1_556
In8_4 Pd2_4 3.219029 1_555
In8_4 Nd10_5 3.360948 1_555
In8_4 Nd10_4 3.360948 1_555
In8_4 Nd6_4 3.383607 1_555
In8_4 Nd6_5 3.383607 1_555
In8_4 Nd4_4 3.385410 1_555
In8_4 Nd4_5 3.385410 1_555
In8_4 Nd8_1 3.503087 1_655
In8_4 Nd8_0 3.503087 1_655
In8_5 Pd2_5 3.219029 1_555
In8_5 Nd10_5 3.360948 1_555
In8_5 Nd10_4 3.360948 1_556
In8_5 Nd6_4 3.383607 1_556
In8_5 Nd6_5 3.383607 1_555
In8_5 Nd4_4 3.385410 1_556
In8_5 Nd4_5 3.385410 1_555
In8_5 Nd8_0 3.503087 1_656
In8_5 Nd8_1 3.503087 1_655
In8_6 Pd2_6 3.219029 1_555
In8_6 Nd10_6 3.360948 1_555
In8_6 Nd10_7 3.360948 1_555
In8_6 Nd6_6 3.383607 1_555
In8_6 Nd6_7 3.383607 1_555
In8_6 Nd4_6 3.385410 1_555
In8_6 Nd4_7 3.385410 1_555
In8_6 Nd8_3 3.503087 1_655
In8_6 Nd8_2 3.503087 1_655
In8_7 Pd2_7 3.219029 1_555
In8_7 Nd10_7 3.360948 1_555
In8_7 Nd10_6 3.360948 1_556
In8_7 Nd6_6 3.383607 1_556
In8_7 Nd6_7 3.383607 1_555
In8_7 Nd4_6 3.385410 1_556
In8_7 Nd4_7 3.385410 1_555
In8_7 Nd8_2 3.503087 1_656
In8_7 Nd8_3 3.503087 1_655
