# generated using pymatgen
data_CaGa
_symmetry_space_group_name_H-M   'P 1'
_cell_length_a   4.24950080
_cell_length_b   4.32819242
_cell_length_c   6.05158458
_cell_angle_alpha   90.00000000
_cell_angle_beta   110.55500545
_cell_angle_gamma   90.00000000
_symmetry_Int_Tables_number   1
_chemical_formula_structural   CaGa
_chemical_formula_sum   'Ca2 Ga2'
_cell_volume   104.21856652
_cell_formula_units_Z   2
loop_
 _symmetry_equiv_pos_site_id
 _symmetry_equiv_pos_as_xyz
  1  'x, y, z'
loop_
 _atom_site_type_symbol
 _atom_site_label
 _atom_site_symmetry_multiplicity
 _atom_site_fract_x
 _atom_site_fract_y
 _atom_site_fract_z
 _atom_site_occupancy
  Ca  Ca0  1  0.64433963  0.25000000  0.28867825  1
  Ca  Ca1  1  0.35566037  0.75000000  0.71132175  1
  Ga  Ga0  1  0.93500453  0.25000000  0.87001106  1
  Ga  Ga1  1  0.06499547  0.75000000  0.12998894  1
loop_
_geom_bond_atom_site_label_1
_geom_bond_atom_site_label_2
_geom_bond_distance
_geom_bond_site_symmetry_2
Ca0 Ga1 3.163289 1_555
Ca0 Ga1 3.163289 1_545
Ca0 Ga1 3.163292 1_655
Ca0 Ga1 3.163292 1_645
Ca0 Ga0 3.184704 1_554
Ca0 Ga0 3.184713 1_454
Ca0 Ga0 3.294014 1_555
Ca1 Ga0 3.163289 1_565
Ca1 Ga0 3.163289 1_555
Ca1 Ga0 3.163292 1_465
Ca1 Ga0 3.163292 1_455
Ca1 Ga1 3.184704 1_556
Ca1 Ga1 3.184713 1_656
Ca1 Ga1 3.294014 1_555
Ga0 Ga1 2.617897 1_656
Ga0 Ga1 2.617897 1_646
