# generated using pymatgen
data_Sr2MgH6
_symmetry_space_group_name_H-M   'P 1'
_cell_length_a   5.47543795
_cell_length_b   5.47543864
_cell_length_c   4.18846773
_cell_angle_alpha   90.00004552
_cell_angle_beta   89.99999145
_cell_angle_gamma   120.00012087
_symmetry_Int_Tables_number   1
_chemical_formula_structural   Sr2MgH6
_chemical_formula_sum   'Sr2 Mg1 H6'
_cell_volume   108.74844478
_cell_formula_units_Z   1
loop_
 _symmetry_equiv_pos_site_id
 _symmetry_equiv_pos_as_xyz
  1  'x, y, z'
loop_
 _atom_site_type_symbol
 _atom_site_label
 _atom_site_symmetry_multiplicity
 _atom_site_fract_x
 _atom_site_fract_y
 _atom_site_fract_z
 _atom_site_occupancy
  Sr  Sr0  1  0.66666497  0.33333391  0.26353257  1
  Sr  Sr1  1  0.33333503  0.66666609  0.73646743  1
  Mg  Mg0  1  -0.00000000  -0.00000000  0.00000000  1
  H  H0  1  0.82345558  0.64691889  0.76524835  1
  H  H1  1  0.82345564  0.17654081  0.76524558  1
  H  H2  1  0.35307898  0.17654262  0.76524624  1
  H  H3  1  0.17654442  0.35308111  0.23475165  1
  H  H4  1  0.17654436  0.82345919  0.23475442  1
  H  H5  1  0.64692102  0.82345738  0.23475376  1
loop_
_geom_bond_atom_site_label_1
_geom_bond_atom_site_label_2
_geom_bond_distance
_geom_bond_site_symmetry_2
H0 Mg0 1.941631 1_666
H0 Sr0 2.562591 1_556
H0 Sr0 2.574308 1_555
H0 Sr1 2.741939 1_555
H0 Sr1 2.742003 1_655
H1 Mg0 1.941657 1_656
H1 Sr0 2.562597 1_556
H1 Sr0 2.574299 1_555
H1 Sr1 2.741954 1_545
H1 Sr1 2.741980 1_655
H2 Mg0 1.941628 1_556
H2 Sr0 2.562600 1_556
H2 Sr0 2.574305 1_555
H2 Sr1 2.741946 1_555
H2 Sr1 2.741995 1_545
H3 Mg0 1.941631 1_555
H3 Sr1 2.562591 1_554
H3 Sr1 2.574308 1_555
H3 Sr0 2.741939 1_555
H3 Sr0 2.742003 1_455
H4 Mg0 1.941657 1_565
H4 Sr1 2.562597 1_554
H4 Sr1 2.574299 1_555
H4 Sr0 2.741954 1_565
H4 Sr0 2.741980 1_455
H5 Mg0 1.941628 1_665
H5 Sr1 2.562600 1_554
H5 Sr1 2.574305 1_555
H5 Sr0 2.741946 1_555
H5 Sr0 2.741995 1_565
