# generated using pymatgen
data_Ba3Bi6PbSe13
_symmetry_space_group_name_H-M   'P 1'
_cell_length_a   4.33408200
_cell_length_b   17.59451400
_cell_length_c   18.94102342
_cell_angle_alpha   89.36222912
_cell_angle_beta   90.00000000
_cell_angle_gamma   90.00000000
_symmetry_Int_Tables_number   1
_chemical_formula_structural   Ba3Bi6PbSe13
_chemical_formula_sum   'Ba6 Bi12 Pb2 Se26'
_cell_volume   1444.27845970
_cell_formula_units_Z   2
loop_
 _symmetry_equiv_pos_site_id
 _symmetry_equiv_pos_as_xyz
  1  'x, y, z'
loop_
 _atom_site_type_symbol
 _atom_site_label
 _atom_site_symmetry_multiplicity
 _atom_site_fract_x
 _atom_site_fract_y
 _atom_site_fract_z
 _atom_site_occupancy
  Ba  Ba0  1  0.25000000  0.25223100  0.73381200  1
  Ba  Ba1  1  0.75000000  0.26671100  0.17592200  1
  Ba  Ba2  1  0.75000000  0.74776900  0.26618800  1
  Ba  Ba3  1  0.25000000  0.51755700  0.65581900  1
  Ba  Ba4  1  0.75000000  0.48244300  0.34418100  1
  Ba  Ba5  1  0.25000000  0.73328900  0.82407800  1
  Bi  Bi0  1  0.75000000  0.08120600  0.57729800  1
  Bi  Bi1  1  0.25000000  0.91879400  0.42270200  1
  Bi  Bi2  1  0.25000000  0.67316400  0.47503300  1
  Bi  Bi3  1  0.25000000  0.89693700  0.02288800  1
  Bi  Bi4  1  0.25000000  0.49005400  0.11806800  1
  Bi  Bi5  1  0.75000000  0.10306300  0.97711200  1
  Bi  Bi6  1  0.25000000  0.17171400  0.38168800  1
  Bi  Bi7  1  0.75000000  0.50994600  0.88193200  1
  Bi  Bi8  1  0.75000000  0.68797600  0.04257900  1
  Bi  Bi9  1  0.75000000  0.82828600  0.61831200  1
  Bi  Bi10  1  0.75000000  0.32683600  0.52496700  1
  Bi  Bi11  1  0.25000000  0.31202400  0.95742100  1
  Pb  Pb0  1  0.75000000  0.01324500  0.24857400  1
  Pb  Pb1  1  0.25000000  0.98675500  0.75142600  1
  Se  Se0  1  0.25000000  0.42632600  0.48777400  1
  Se  Se1  1  0.25000000  0.19546800  0.55468400  1
  Se  Se2  1  0.75000000  0.80453200  0.44531600  1
  Se  Se3  1  0.75000000  0.27589600  0.36327000  1
  Se  Se4  1  0.75000000  0.37453300  0.66424800  1
  Se  Se5  1  0.25000000  0.89195400  0.27888300  1
  Se  Se6  1  0.25000000  0.18913100  0.05567900  1
  Se  Se7  1  0.25000000  0.13768400  0.23977800  1
  Se  Se8  1  0.25000000  0.60418600  0.96547200  1
  Se  Se9  1  0.25000000  0.96085400  0.58779800  1
  Se  Se10  1  0.75000000  0.57367400  0.51222600  1
  Se  Se11  1  0.25000000  0.39483300  0.23386500  1
  Se  Se12  1  0.75000000  0.10804600  0.72111700  1
  Se  Se13  1  0.25000000  0.42153300  0.82688600  1
  Se  Se14  1  0.25000000  0.72410400  0.63673000  1
  Se  Se15  1  0.75000000  0.81086900  0.94432100  1
  Se  Se16  1  0.75000000  0.57846700  0.17311400  1
  Se  Se17  1  0.75000000  0.23535400  0.87730500  1
  Se  Se18  1  0.75000000  0.86231600  0.76022200  1
  Se  Se19  1  0.75000000  0.60516700  0.76613500  1
  Se  Se20  1  0.25000000  0.62546700  0.33575200  1
  Se  Se21  1  0.75000000  0.98174800  0.08925300  1
  Se  Se22  1  0.75000000  0.39581400  0.03452800  1
  Se  Se23  1  0.25000000  0.01825200  0.91074700  1
  Se  Se24  1  0.25000000  0.76464600  0.12269500  1
  Se  Se25  1  0.75000000  0.03914600  0.41220200  1
loop_
_geom_bond_atom_site_label_1
_geom_bond_atom_site_label_2
_geom_bond_distance
_geom_bond_site_symmetry_2
Ba0 Se4 3.316547 1_455
Ba0 Se4 3.316547 1_555
Ba0 Se12 3.347111 1_455
Ba0 Se12 3.347111 1_555
Ba0 Se13 3.478211 1_555
Ba0 Se17 3.486155 1_455
Ba0 Se17 3.486155 1_555
Ba0 Se1 3.547453 1_555
Ba1 Se11 3.322238 1_555
Ba1 Se11 3.322238 1_655
Ba1 Se7 3.354323 1_555
Ba1 Se7 3.354323 1_655
Ba1 Se6 3.437379 1_655
Ba1 Se6 3.437379 1_555
Ba1 Se22 3.492388 1_555
Ba1 Se3 3.554037 1_555
Ba2 Se20 3.316547 1_655
Ba2 Se20 3.316547 1_555
Ba2 Se5 3.347111 1_655
Ba2 Se5 3.347111 1_555
Ba2 Se16 3.478211 1_555
Ba2 Se24 3.486155 1_555
Ba2 Se24 3.486155 1_655
Ba2 Se2 3.547453 1_555
Ba3 Se4 3.323413 1_555
Ba3 Se4 3.323413 1_455
Ba3 Se19 3.392618 1_455
Ba3 Se19 3.392618 1_555
Ba3 Se0 3.580702 1_555
Ba3 Se10 3.606723 1_555
Ba3 Se10 3.606723 1_455
Ba3 Se13 3.637488 1_555
Ba3 Se14 3.648029 1_555
Ba4 Se20 3.323413 1_555
Ba4 Se20 3.323413 1_655
Ba4 Se11 3.392618 1_655
Ba4 Se11 3.392618 1_555
Ba4 Se10 3.580702 1_555
Ba4 Se0 3.606723 1_655
Ba4 Se0 3.606723 1_555
Ba4 Se16 3.637488 1_555
Ba4 Se3 3.648029 1_555
Ba5 Se19 3.322238 1_455
Ba5 Se19 3.322238 1_555
Ba5 Se18 3.354323 1_455
Ba5 Se18 3.354323 1_555
Ba5 Se15 3.437379 1_455
Ba5 Se15 3.437379 1_555
Ba5 Se8 3.492388 1_555
Ba5 Se14 3.554037 1_555
Bi0 Se12 2.769883 1_555
Bi0 Se1 2.983624 1_555
Bi0 Se1 2.983624 1_655
Bi0 Se9 3.034831 1_645
Bi0 Se9 3.034831 1_545
Bi0 Se25 3.221464 1_555
Bi1 Se5 2.769883 1_555
Bi1 Se2 2.983624 1_455
Bi1 Se2 2.983624 1_555
Bi1 Se25 3.034831 1_465
Bi1 Se25 3.034831 1_565
Bi1 Se9 3.221464 1_555
Bi2 Se20 2.777275 1_555
Bi2 Se10 2.868636 1_555
Bi2 Se10 2.868636 1_455
Bi2 Se14 3.200714 1_555
Bi2 Se2 3.213455 1_455
Bi2 Se2 3.213455 1_555
Bi3 Se21 2.923117 1_555
Bi3 Se21 2.923117 1_455
Bi3 Se24 2.982203 1_555
Bi3 Se23 2.994448 1_564
Bi3 Se15 3.042034 1_454
Bi3 Se15 3.042034 1_554
Bi4 Se11 2.745119 1_555
Bi4 Se16 2.870381 1_555
Bi4 Se16 2.870381 1_455
Bi4 Se22 3.163475 1_555
Bi4 Se22 3.163475 1_455
Bi5 Se23 2.923117 1_655
Bi5 Se23 2.923117 1_555
Bi5 Se17 2.982203 1_555
Bi5 Se21 2.994448 1_546
Bi5 Se6 3.042034 1_656
Bi5 Se6 3.042034 1_556
Bi6 Se7 2.760296 1_555
Bi6 Se3 2.857190 1_555
Bi6 Se3 2.857190 1_455
Bi6 Se25 3.231179 1_455
Bi6 Se25 3.231179 1_555
Bi6 Se1 3.307879 1_555
Bi7 Se19 2.745119 1_555
Bi7 Se13 2.870381 1_555
Bi7 Se13 2.870381 1_655
Bi7 Se8 3.163475 1_555
Bi7 Se8 3.163475 1_655
Bi8 Se15 2.837151 1_554
Bi8 Se24 2.977265 1_655
Bi8 Se24 2.977265 1_555
Bi8 Se8 3.008390 1_554
Bi8 Se8 3.008390 1_654
Bi8 Se16 3.117601 1_555
Bi9 Se18 2.760296 1_555
Bi9 Se14 2.857190 1_655
Bi9 Se14 2.857190 1_555
Bi9 Se9 3.231179 1_555
Bi9 Se9 3.231179 1_655
Bi9 Se2 3.307879 1_555
Bi10 Se4 2.777275 1_555
Bi10 Se0 2.868636 1_655
Bi10 Se0 2.868636 1_555
Bi10 Se3 3.200714 1_555
Bi10 Se1 3.213455 1_555
Bi10 Se1 3.213455 1_655
Bi11 Se6 2.837151 1_556
Bi11 Se17 2.977265 1_455
Bi11 Se17 2.977265 1_555
Bi11 Se22 3.008390 1_456
Bi11 Se22 3.008390 1_556
Bi11 Se13 3.117601 1_555
Pb0 Se21 3.074227 1_545
Pb0 Se7 3.083726 1_655
Pb0 Se7 3.083726 1_555
Pb0 Se5 3.090722 1_645
Pb0 Se5 3.090722 1_545
Pb0 Se25 3.137621 1_555
Pb1 Se23 3.074227 1_565
Pb1 Se18 3.083726 1_455
Pb1 Se18 3.083726 1_555
Pb1 Se12 3.090722 1_465
Pb1 Se12 3.090722 1_565
Pb1 Se9 3.137621 1_555
