# generated using pymatgen
data_ZrP2(HO3)2
_symmetry_space_group_name_H-M   'P 1'
_cell_length_a   5.51709575
_cell_length_b   5.51709575
_cell_length_c   5.62376600
_cell_angle_alpha   90.00000000
_cell_angle_beta   90.00000000
_cell_angle_gamma   119.99999698
_symmetry_Int_Tables_number   1
_chemical_formula_structural   ZrP2(HO3)2
_chemical_formula_sum   'Zr1 P2 H2 O6'
_cell_volume   148.24461581
_cell_formula_units_Z   1
loop_
 _symmetry_equiv_pos_site_id
 _symmetry_equiv_pos_as_xyz
  1  'x, y, z'
loop_
 _atom_site_type_symbol
 _atom_site_label
 _atom_site_symmetry_multiplicity
 _atom_site_fract_x
 _atom_site_fract_y
 _atom_site_fract_z
 _atom_site_occupancy
  Zr  Zr0  1  0.00000000  0.00000000  0.00000000  1
  P  P0  1  0.66666700  0.33333300  0.70827700  1
  P  P1  1  0.33333300  0.66666700  0.29172300  1
  H  H0  1  0.66666700  0.33333300  0.45858600  1
  H  H1  1  0.33333300  0.66666700  0.54141400  1
  O  O0  1  0.35988100  0.16314600  0.78677500  1
  O  O1  1  0.80326500  0.64011900  0.78677500  1
  O  O2  1  0.83685400  0.19673500  0.78677500  1
  O  O3  1  0.64011900  0.83685400  0.21322500  1
  O  O4  1  0.19673500  0.35988100  0.21322500  1
  O  O5  1  0.16314600  0.80326500  0.21322500  1
loop_
_geom_bond_atom_site_label_1
_geom_bond_atom_site_label_2
_geom_bond_distance
_geom_bond_site_symmetry_2
H0 P0 1.404204 1_555
H1 P1 1.404204 1_555
O0 P0 1.533641 1_555
O0 Zr0 2.098367 1_556
O1 P0 1.533642 1_555
O1 Zr0 2.098367 1_666
O2 P0 1.533637 1_555
O2 Zr0 2.098367 1_656
O3 P1 1.533641 1_555
O3 Zr0 2.098367 1_665
O4 P1 1.533642 1_555
O4 Zr0 2.098367 1_555
O5 P1 1.533637 1_555
O5 Zr0 2.098367 1_565
