# generated using pymatgen
data_Li2Fe3(P2O7)2
_symmetry_space_group_name_H-M   'P 1'
_cell_length_a   7.74347200
_cell_length_b   7.66326300
_cell_length_c   10.95815156
_cell_angle_alpha   68.93053264
_cell_angle_beta   90.00000000
_cell_angle_gamma   90.00000000
_symmetry_Int_Tables_number   1
_chemical_formula_structural   Li2Fe3(P2O7)2
_chemical_formula_sum   'Li4 Fe6 P8 O28'
_cell_volume   606.78664287
_cell_formula_units_Z   2
loop_
 _symmetry_equiv_pos_site_id
 _symmetry_equiv_pos_as_xyz
  1  'x, y, z'
loop_
 _atom_site_type_symbol
 _atom_site_label
 _atom_site_symmetry_multiplicity
 _atom_site_fract_x
 _atom_site_fract_y
 _atom_site_fract_z
 _atom_site_occupancy
  Li  Li0  1  0.59888100  0.24042200  0.23658400  1
  Li  Li1  1  0.40111900  0.75957800  0.76341600  1
  Li  Li2  1  0.90111900  0.24042200  0.73658400  1
  Li  Li3  1  0.09888100  0.75957800  0.26341600  1
  Fe  Fe0  1  0.79913200  0.49443700  0.45674400  1
  Fe  Fe1  1  0.20086800  0.50556300  0.54325600  1
  Fe  Fe2  1  0.29913200  0.50556300  0.04325600  1
  Fe  Fe3  1  0.70086800  0.49443700  0.95674400  1
  Fe  Fe4  1  0.00000000  0.00000000  0.00000000  1
  Fe  Fe5  1  0.50000000  0.00000000  0.50000000  1
  P  P0  1  0.26691300  0.13555400  0.71529200  1
  P  P1  1  0.73308700  0.86444600  0.28470800  1
  P  P2  1  0.55120700  0.45267400  0.69938700  1
  P  P3  1  0.44879300  0.54732600  0.30061300  1
  P  P4  1  0.05120700  0.54732600  0.80061300  1
  P  P5  1  0.23308700  0.13555400  0.21529200  1
  P  P6  1  0.94879300  0.45267400  0.19938700  1
  P  P7  1  0.76691300  0.86444600  0.78470800  1
  O  O0  1  0.42568100  0.61339000  0.15261000  1
  O  O1  1  0.10925700  0.33162800  0.17422200  1
  O  O2  1  0.99166200  0.34655700  0.86819700  1
  O  O3  1  0.71281100  0.40035300  0.63642700  1
  O  O4  1  0.24061800  0.04574200  0.86026000  1
  O  O5  1  0.78718900  0.40035300  0.13642700  1
  O  O6  1  0.13657100  0.01417100  0.15286700  1
  O  O7  1  0.21281100  0.59964700  0.86357300  1
  O  O8  1  0.50833800  0.34655700  0.36819700  1
  O  O9  1  0.36342900  0.01417100  0.65286700  1
  O  O10  1  0.75938200  0.95425800  0.13974000  1
  O  O11  1  0.25938200  0.04574200  0.36026000  1
  O  O12  1  0.89268200  0.76556900  0.36559300  1
  O  O13  1  0.92568100  0.38661000  0.34739000  1
  O  O14  1  0.60925700  0.66837200  0.32577800  1
  O  O15  1  0.63657100  0.98582900  0.34713300  1
  O  O16  1  0.07431900  0.61339000  0.65261000  1
  O  O17  1  0.60731800  0.76556900  0.86559300  1
  O  O18  1  0.39074300  0.33162800  0.67422200  1
  O  O19  1  0.28718900  0.59964700  0.36357300  1
  O  O20  1  0.57431900  0.38661000  0.84739000  1
  O  O21  1  0.39268200  0.23443100  0.13440700  1
  O  O22  1  0.86342900  0.98582900  0.84713300  1
  O  O23  1  0.74061800  0.95425800  0.63974000  1
  O  O24  1  0.89074300  0.66837200  0.82577800  1
  O  O25  1  0.00833800  0.65344300  0.13180300  1
  O  O26  1  0.10731800  0.23443100  0.63440700  1
  O  O27  1  0.49166200  0.65344300  0.63180300  1
loop_
_geom_bond_atom_site_label_1
_geom_bond_atom_site_label_2
_geom_bond_distance
_geom_bond_site_symmetry_2
Li0 O15 1.913063 1_545
Li0 O21 1.960145 1_555
Li0 O5 1.966148 1_555
Li0 O8 2.019043 1_555
Li1 O9 1.913063 1_565
Li1 O17 1.960145 1_555
Li1 O7 1.966148 1_555
Li1 O27 2.019043 1_555
Li2 O22 1.913063 1_545
Li2 O26 1.960145 1_655
Li2 O3 1.966148 1_555
Li2 O2 2.019043 1_555
Li3 O6 1.913063 1_565
Li3 O12 1.960145 1_455
Li3 O19 1.966148 1_555
Li3 O25 2.019043 1_555
Fe0 O13 1.947035 1_555
Fe0 O3 1.955209 1_555
Fe0 O12 2.085028 1_555
Fe0 O14 2.150037 1_555
Fe1 O16 1.947035 1_555
Fe1 O19 1.955209 1_555
Fe1 O26 2.085028 1_555
Fe1 O18 2.150037 1_555
Fe2 O0 1.947035 1_555
Fe2 O7 1.955209 1_554
Fe2 O21 2.085028 1_555
Fe2 O1 2.150037 1_555
Fe3 O20 1.947035 1_555
Fe3 O5 1.955209 1_556
Fe3 O17 2.085028 1_555
Fe3 O24 2.150037 1_555
Fe4 O22 2.016695 1_444
Fe4 O6 2.016695 1_555
Fe4 O4 2.356560 1_554
Fe4 O10 2.356560 1_445
Fe4 O25 2.526928 1_545
Fe4 O2 2.526928 1_454
Fe5 O15 2.016695 1_545
Fe5 O9 2.016695 1_555
Fe5 O11 2.356560 1_555
Fe5 O23 2.356560 1_545
Fe5 O27 2.526928 1_545
Fe5 O8 2.526928 1_555
O0 P3 1.525890 1_555
O1 P6 1.632282 1_455
O1 P5 1.701024 1_555
O2 P4 1.519522 1_655
O3 P2 1.549707 1_555
O4 P0 1.500875 1_555
O5 P6 1.549707 1_555
O6 P5 1.532730 1_555
O7 P4 1.549707 1_555
O8 P3 1.519522 1_555
O9 P0 1.532730 1_555
O10 P1 1.500875 1_555
O11 P5 1.500875 1_555
O12 P1 1.550523 1_555
O13 P6 1.525890 1_555
O14 P3 1.632282 1_555
O14 P1 1.701024 1_555
O15 P1 1.532730 1_555
O16 P4 1.525890 1_555
O17 P7 1.550523 1_555
O18 P2 1.632282 1_555
O18 P0 1.701024 1_555
O19 P3 1.549707 1_555
O20 P2 1.525890 1_555
O21 P5 1.550523 1_555
O22 P7 1.532730 1_555
O23 P7 1.500875 1_555
O24 P4 1.632282 1_655
O24 P7 1.701024 1_555
O25 P6 1.519522 1_455
O26 P0 1.550523 1_555
O27 P2 1.519522 1_555
