# generated using pymatgen
data_Na2CeO3
_symmetry_space_group_name_H-M   'P 1'
_cell_length_a   7.14929314
_cell_length_b   7.14929314
_cell_length_c   19.00275738
_cell_angle_alpha   81.68411725
_cell_angle_beta   81.68411725
_cell_angle_gamma   98.71774296
_symmetry_Int_Tables_number   1
_chemical_formula_structural   Na2CeO3
_chemical_formula_sum   'Na24 Ce12 O36'
_cell_volume   936.08601256
_cell_formula_units_Z   12
loop_
 _symmetry_equiv_pos_site_id
 _symmetry_equiv_pos_as_xyz
  1  'x, y, z'
loop_
 _atom_site_type_symbol
 _atom_site_label
 _atom_site_symmetry_multiplicity
 _atom_site_fract_x
 _atom_site_fract_y
 _atom_site_fract_z
 _atom_site_occupancy
  Na  Na0  1  0.17569000  0.31594100  0.83772300  1
  Na  Na1  1  0.16647800  0.27628500  0.49059000  1
  Na  Na2  1  0.57852100  0.42147900  0.75000000  1
  Na  Na3  1  0.15996900  0.35381900  0.16673900  1
  Na  Na4  1  0.35381900  0.15996900  0.66673900  1
  Na  Na5  1  0.96644000  0.51713200  0.67373700  1
  Na  Na6  1  0.31594100  0.17569000  0.33772300  1
  Na  Na7  1  0.07326300  0.89982600  0.91297900  1
  Na  Na8  1  0.03356000  0.48286800  0.32626300  1
  Na  Na9  1  0.27628500  0.16647800  0.99059000  1
  Na  Na10  1  0.10017400  0.92673700  0.58702100  1
  Na  Na11  1  0.00000000  0.50000000  0.00000000  1
  Na  Na12  1  0.48286800  0.03356000  0.82626300  1
  Na  Na13  1  0.50000000  0.00000000  0.50000000  1
  Na  Na14  1  0.51713200  0.96644000  0.17373700  1
  Na  Na15  1  0.89982600  0.07326300  0.41297900  1
  Na  Na16  1  0.72371500  0.83352200  0.00941000  1
  Na  Na17  1  0.92673700  0.10017400  0.08702100  1
  Na  Na18  1  0.68405900  0.82431000  0.66227700  1
  Na  Na19  1  0.64618100  0.84003100  0.33326100  1
  Na  Na20  1  0.84003100  0.64618100  0.83326100  1
  Na  Na21  1  0.42147900  0.57852100  0.25000000  1
  Na  Na22  1  0.83352200  0.72371500  0.50941000  1
  Na  Na23  1  0.82431000  0.68405900  0.16227700  1
  Ce  Ce0  1  0.61517600  0.44189900  0.41276200  1
  Ce  Ce1  1  0.55810100  0.38482400  0.08723800  1
  Ce  Ce2  1  0.72955500  0.21531000  0.92058000  1
  Ce  Ce3  1  0.78469000  0.27044500  0.57942000  1
  Ce  Ce4  1  0.74428700  0.25571300  0.25000000  1
  Ce  Ce5  1  0.08188400  0.91811600  0.25000000  1
  Ce  Ce6  1  0.91811600  0.08188400  0.75000000  1
  Ce  Ce7  1  0.25571300  0.74428700  0.75000000  1
  Ce  Ce8  1  0.21531000  0.72955500  0.42058000  1
  Ce  Ce9  1  0.27044500  0.78469000  0.07942000  1
  Ce  Ce10  1  0.44189900  0.61517600  0.91276200  1
  Ce  Ce11  1  0.38482400  0.55810100  0.58723800  1
  O  O0  1  0.98878100  0.19801100  0.95600300  1
  O  O1  1  0.04837800  0.22082900  0.63302100  1
  O  O2  1  0.69805300  0.51836400  0.96545500  1
  O  O3  1  0.03034100  0.20175500  0.28418600  1
  O  O4  1  0.67701200  0.53294700  0.61852600  1
  O  O5  1  0.46705300  0.32298800  0.88147400  1
  O  O6  1  0.71971100  0.52735500  0.29223500  1
  O  O7  1  0.48163600  0.30194700  0.53454500  1
  O  O8  1  0.86645500  0.33938000  0.80172900  1
  O  O9  1  0.20175500  0.03034100  0.78418600  1
  O  O10  1  0.47264500  0.28028900  0.20776500  1
  O  O11  1  0.87800400  0.40126400  0.45711600  1
  O  O12  1  0.19801100  0.98878100  0.45600300  1
  O  O13  1  0.83640700  0.37541400  0.12963400  1
  O  O14  1  0.66062000  0.13354500  0.69827100  1
  O  O15  1  0.40126400  0.87800400  0.95711600  1
  O  O16  1  0.22082900  0.04837800  0.13302100  1
  O  O17  1  0.62458600  0.16359300  0.37036600  1
  O  O18  1  0.37541400  0.83640700  0.62963400  1
  O  O19  1  0.77917100  0.95162200  0.86697900  1
  O  O20  1  0.59873600  0.12199600  0.04288400  1
  O  O21  1  0.33938000  0.86645500  0.30172900  1
  O  O22  1  0.16359300  0.62458600  0.87036600  1
  O  O23  1  0.80198900  0.01121900  0.54399700  1
  O  O24  1  0.12199600  0.59873600  0.54288400  1
  O  O25  1  0.52735500  0.71971100  0.79223500  1
  O  O26  1  0.79824500  0.96965900  0.21581400  1
  O  O27  1  0.13354500  0.66062000  0.19827100  1
  O  O28  1  0.51836400  0.69805300  0.46545500  1
  O  O29  1  0.28028900  0.47264500  0.70776500  1
  O  O30  1  0.53294700  0.67701200  0.11852600  1
  O  O31  1  0.32298800  0.46705300  0.38147400  1
  O  O32  1  0.96965900  0.79824500  0.71581400  1
  O  O33  1  0.30194700  0.48163600  0.03454500  1
  O  O34  1  0.95162200  0.77917100  0.36697900  1
  O  O35  1  0.01121900  0.80198900  0.04399700  1
loop_
_geom_bond_atom_site_label_1
_geom_bond_atom_site_label_2
_geom_bond_distance
_geom_bond_site_symmetry_2
Na0 O5 2.348202 1_555
Na0 O22 2.387379 1_555
Na0 O0 2.406223 1_455
Na0 O8 2.429025 1_455
Na0 O9 2.429033 1_555
Na0 O29 2.514878 1_555
Na1 O12 2.279486 1_545
Na1 O31 2.336622 1_555
Na1 O11 2.496015 1_455
Na1 O7 2.504286 1_555
Na1 O1 2.668850 1_555
Na1 O24 2.682629 1_555
Na2 O29 2.443460 1_555
Na2 O25 2.443460 1_555
Na2 O5 2.473429 1_555
Na2 O4 2.473429 1_555
Na2 O8 2.516546 1_555
Na2 O14 2.516546 1_555
Na3 O3 2.327278 1_555
Na3 O27 2.383025 1_555
Na3 O16 2.445495 1_555
Na3 O13 2.533900 1_455
Na3 O33 2.548136 1_555
Na3 O10 2.573516 1_555
Na4 O9 2.327278 1_555
Na4 O14 2.383025 1_555
Na4 O1 2.445495 1_555
Na4 O18 2.533900 1_545
Na4 O7 2.548136 1_555
Na4 O29 2.573516 1_555
Na5 O32 2.266081 1_555
Na5 O4 2.461647 1_555
Na5 O29 2.475973 1_655
Na5 O1 2.479596 1_655
Na5 O24 2.518724 1_655
Na5 O8 2.523722 1_555
Na6 O31 2.348202 1_555
Na6 O17 2.387379 1_555
Na6 O12 2.406223 1_545
Na6 O21 2.429025 1_545
Na6 O3 2.429033 1_555
Na6 O10 2.514878 1_555
Na7 O22 2.374818 1_555
Na7 O35 2.442825 1_556
Na7 O19 2.448664 1_455
Na7 O9 2.476623 1_565
Na7 O0 2.515846 1_465
Na7 O15 2.620815 1_555
Na8 O3 2.266081 1_555
Na8 O31 2.461647 1_555
Na8 O6 2.475973 1_455
Na8 O34 2.479596 1_455
Na8 O11 2.518724 1_455
Na8 O27 2.523722 1_555
Na9 O0 2.279486 1_455
Na9 O5 2.336622 1_555
Na9 O15 2.496015 1_545
Na9 O33 2.504286 1_556
Na9 O16 2.668850 1_556
Na9 O20 2.682629 1_556
Na10 O18 2.374818 1_555
Na10 O12 2.442825 1_555
Na10 O1 2.448664 1_565
Na10 O32 2.476623 1_455
Na10 O23 2.515846 1_465
Na10 O24 2.620815 1_555
Na11 O33 2.362006 1_555
Na11 O2 2.362006 1_454
Na11 O0 2.419874 1_454
Na11 O35 2.419874 1_555
Na11 O13 2.538846 1_455
Na11 O22 2.538846 1_554
Na12 O9 2.266081 1_555
Na12 O5 2.461647 1_555
Na12 O25 2.475973 1_545
Na12 O19 2.479596 1_545
Na12 O15 2.518724 1_545
Na12 O14 2.523722 1_555
Na13 O28 2.362006 1_545
Na13 O7 2.362006 1_555
Na13 O23 2.419874 1_555
Na13 O12 2.419874 1_545
Na13 O18 2.538846 1_545
Na13 O17 2.538846 1_555
Na14 O26 2.266081 1_555
Na14 O30 2.461647 1_555
Na14 O10 2.475973 1_565
Na14 O16 2.479596 1_565
Na14 O20 2.518724 1_565
Na14 O21 2.523722 1_555
Na15 O17 2.374818 1_555
Na15 O23 2.442825 1_555
Na15 O34 2.448664 1_545
Na15 O3 2.476623 1_655
Na15 O12 2.515846 1_645
Na15 O11 2.620815 1_555
Na16 O35 2.279486 1_655
Na16 O30 2.336622 1_555
Na16 O20 2.496015 1_565
Na16 O2 2.504286 1_554
Na16 O19 2.668850 1_554
Na16 O15 2.682629 1_554
Na17 O13 2.374818 1_555
Na17 O0 2.442825 1_554
Na17 O16 2.448664 1_655
Na17 O26 2.476623 1_545
Na17 O35 2.515846 1_645
Na17 O20 2.620815 1_555
Na18 O4 2.348202 1_555
Na18 O18 2.387379 1_555
Na18 O23 2.406223 1_565
Na18 O14 2.429025 1_565
Na18 O32 2.429033 1_555
Na18 O25 2.514878 1_555
Na19 O26 2.327278 1_555
Na19 O21 2.383025 1_555
Na19 O34 2.445495 1_555
Na19 O17 2.533900 1_565
Na19 O28 2.548136 1_555
Na19 O6 2.573516 1_555
Na20 O32 2.327278 1_555
Na20 O8 2.383025 1_555
Na20 O19 2.445495 1_555
Na20 O22 2.533900 1_655
Na20 O2 2.548136 1_555
Na20 O25 2.573516 1_555
Na21 O10 2.443460 1_555
Na21 O6 2.443460 1_555
Na21 O31 2.473429 1_555
Na21 O30 2.473429 1_555
Na21 O27 2.516546 1_555
Na21 O21 2.516546 1_555
Na22 O23 2.279486 1_565
Na22 O4 2.336622 1_555
Na22 O24 2.496015 1_655
Na22 O28 2.504286 1_555
Na22 O34 2.668850 1_555
Na22 O11 2.682629 1_555
Na23 O30 2.348202 1_555
Na23 O13 2.387379 1_555
Na23 O35 2.406223 1_655
Na23 O27 2.429025 1_655
Na23 O26 2.429033 1_555
Na23 O6 2.514878 1_555
Ce0 O11 2.208692 1_555
Ce0 O17 2.258546 1_555
Ce0 O6 2.266976 1_555
Ce0 O31 2.278532 1_555
Ce0 O28 2.355758 1_555
Ce0 O7 2.381119 1_555
Ce1 O20 2.208692 1_555
Ce1 O13 2.258546 1_555
Ce1 O10 2.266976 1_555
Ce1 O30 2.278532 1_555
Ce1 O33 2.355758 1_555
Ce1 O2 2.381119 1_554
Ce2 O0 2.075889 1_555
Ce2 O5 2.311439 1_555
Ce2 O8 2.315918 1_555
Ce2 O19 2.317509 1_545
Ce2 O20 2.335572 1_556
Ce2 O2 2.469605 1_555
Ce3 O23 2.075889 1_555
Ce3 O4 2.311439 1_555
Ce3 O14 2.315918 1_555
Ce3 O1 2.317509 1_655
Ce3 O11 2.335572 1_555
Ce3 O7 2.469605 1_555
Ce4 O6 2.227120 1_555
Ce4 O10 2.227120 1_555
Ce4 O13 2.285823 1_555
Ce4 O17 2.285823 1_555
Ce4 O3 2.303074 1_655
Ce4 O26 2.303074 1_545
Ce5 O27 2.261900 1_555
Ce5 O21 2.261900 1_555
Ce5 O3 2.282143 1_565
Ce5 O26 2.282143 1_455
Ce5 O16 2.297271 1_565
Ce5 O34 2.297271 1_455
Ce6 O8 2.261900 1_555
Ce6 O14 2.261900 1_555
Ce6 O9 2.282143 1_655
Ce6 O32 2.282143 1_545
Ce6 O1 2.297271 1_655
Ce6 O19 2.297271 1_545
Ce7 O25 2.227120 1_555
Ce7 O29 2.227120 1_555
Ce7 O18 2.285823 1_555
Ce7 O22 2.285823 1_555
Ce7 O32 2.303074 1_455
Ce7 O9 2.303074 1_565
Ce8 O12 2.075889 1_555
Ce8 O31 2.311439 1_555
Ce8 O21 2.315918 1_555
Ce8 O34 2.317509 1_455
Ce8 O24 2.335572 1_555
Ce8 O28 2.469605 1_555
Ce9 O35 2.075889 1_555
Ce9 O30 2.311439 1_555
Ce9 O27 2.315918 1_555
Ce9 O16 2.317509 1_565
Ce9 O15 2.335572 1_554
Ce9 O33 2.469605 1_555
Ce10 O15 2.208692 1_555
Ce10 O22 2.258546 1_555
Ce10 O25 2.266976 1_555
Ce10 O5 2.278532 1_555
Ce10 O2 2.355758 1_555
Ce10 O33 2.381119 1_556
Ce11 O24 2.208692 1_555
Ce11 O18 2.258546 1_555
Ce11 O29 2.266976 1_555
Ce11 O4 2.278532 1_555
Ce11 O7 2.355758 1_555
Ce11 O28 2.381119 1_555
