# generated using pymatgen
data_Ba2Y(Cu2O3)2
_symmetry_space_group_name_H-M   'P 1'
_cell_length_a   13.67907177
_cell_length_b   13.67907177
_cell_length_c   3.96429300
_cell_angle_alpha   90.00000000
_cell_angle_beta   90.00000000
_cell_angle_gamma   164.07711151
_symmetry_Int_Tables_number   1
_chemical_formula_structural   Ba2Y(Cu2O3)2
_chemical_formula_sum   'Ba2 Y1 Cu4 O6'
_cell_volume   203.50426094
_cell_formula_units_Z   1
loop_
 _symmetry_equiv_pos_site_id
 _symmetry_equiv_pos_as_xyz
  1  'x, y, z'
loop_
 _atom_site_type_symbol
 _atom_site_label
 _atom_site_symmetry_multiplicity
 _atom_site_fract_x
 _atom_site_fract_y
 _atom_site_fract_z
 _atom_site_occupancy
  Ba  Ba0  1  0.64271000  0.35729000  0.50000000  1
  Ba  Ba1  1  0.35729000  0.64271000  0.50000000  1
  Y  Y0  1  0.50000000  0.50000000  0.50000000  1
  Cu  Cu0  1  0.21092700  0.78907300  0.00000000  1
  Cu  Cu1  1  0.78907300  0.21092700  0.00000000  1
  Cu  Cu2  1  0.06042200  0.93957800  0.00000000  1
  Cu  Cu3  1  0.93957800  0.06042200  0.00000000  1
  O  O0  1  0.13904600  0.86095400  0.00000000  1
  O  O1  1  0.86095400  0.13904600  0.00000000  1
  O  O2  1  0.05220900  0.94779100  0.50000000  1
  O  O3  1  0.94779100  0.05220900  0.50000000  1
  O  O4  1  0.71714900  0.28285100  0.00000000  1
  O  O5  1  0.28285100  0.71714900  0.00000000  1
loop_
_geom_bond_atom_site_label_1
_geom_bond_atom_site_label_2
_geom_bond_distance
_geom_bond_site_symmetry_2
Ba0 O0 2.743799 1_655
Ba0 O0 2.743799 1_545
Ba0 O0 2.743799 1_656
Ba0 O0 2.743799 1_546
Ba0 O4 2.827848 1_555
Ba0 O4 2.827848 1_556
Ba0 O2 3.098765 1_655
Ba0 O2 3.098765 1_545
Ba1 O1 2.743799 1_565
Ba1 O1 2.743799 1_566
Ba1 O1 2.743799 1_455
Ba1 O1 2.743799 1_456
Ba1 O5 2.827848 1_555
Ba1 O5 2.827848 1_556
Ba1 O3 3.098765 1_565
Ba1 O3 3.098765 1_455
Cu0 O4 1.902128 1_565
Cu0 O4 1.902128 1_455
Cu0 O0 1.947576 1_555
Cu0 O5 1.948741 1_555
Cu1 O5 1.902128 1_655
Cu1 O5 1.902128 1_545
Cu1 O1 1.947576 1_555
Cu1 O4 1.948741 1_555
Cu2 O2 1.994598 1_555
Cu2 O2 1.994598 1_554
Cu2 O0 2.130274 1_555
Cu3 O3 1.994598 1_555
Cu3 O3 1.994598 1_554
Cu3 O1 2.130274 1_555
O2 Y0 2.364465 1_455
O2 Y0 2.364465 1_565
O3 Y0 2.364465 1_545
O3 Y0 2.364465 1_655
