# generated using pymatgen
data_Ce8Fe8As8O7F
_symmetry_space_group_name_H-M   'P 1'
_cell_length_a   10.56178482
_cell_length_b   10.56178482
_cell_length_c   10.56178482
_cell_angle_alpha   135.77060303
_cell_angle_beta   135.77060303
_cell_angle_gamma   64.33518656
_symmetry_Int_Tables_number   1
_chemical_formula_structural   Ce8Fe8As8O7F
_chemical_formula_sum   'Ce8 Fe8 As8 O7 F1'
_cell_volume   565.37707118
_cell_formula_units_Z   1
loop_
 _symmetry_equiv_pos_site_id
 _symmetry_equiv_pos_as_xyz
  1  'x, y, z'
loop_
 _atom_site_type_symbol
 _atom_site_label
 _atom_site_symmetry_multiplicity
 _atom_site_fract_x
 _atom_site_fract_y
 _atom_site_fract_z
 _atom_site_occupancy
  Ce  Ce0  1  0.31349000  0.57407300  0.73941700  1
  Ce  Ce1  1  0.31944500  0.06948200  0.24996300  1
  Ce  Ce2  1  0.83465600  0.57407300  0.26058300  1
  Ce  Ce3  1  0.81951800  0.06948200  0.75003700  1
  Ce  Ce4  1  0.93051800  0.68055500  0.75003700  1
  Ce  Ce5  1  0.93051800  0.18048200  0.24996300  1
  Ce  Ce6  1  0.42592700  0.68651000  0.26058300  1
  Ce  Ce7  1  0.42592700  0.16534400  0.73941700  1
  Fe  Fe0  1  0.25046600  0.25046600  0.00000000  1
  Fe  Fe1  1  0.25000000  0.75000000  0.50000000  1
  Fe  Fe2  1  0.99651400  0.00348600  0.50000000  1
  Fe  Fe3  1  0.99651400  0.49651400  0.99302800  1
  Fe  Fe4  1  0.75000000  0.25000000  0.50000000  1
  Fe  Fe5  1  0.74953400  0.74953400  0.00000000  1
  Fe  Fe6  1  0.50348600  0.00348600  0.00697200  1
  Fe  Fe7  1  0.50348600  0.49651400  0.50000000  1
  As  As0  1  0.15708000  0.90743800  0.75035800  1
  As  As1  1  0.15708000  0.40672200  0.24964200  1
  As  As2  1  0.09578500  0.34485600  0.75092900  1
  As  As3  1  0.09256200  0.84292000  0.24964200  1
  As  As4  1  0.65514400  0.90421500  0.24907100  1
  As  As5  1  0.65514400  0.40607300  0.75092900  1
  As  As6  1  0.59392700  0.34485600  0.24907100  1
  As  As7  1  0.59327800  0.84292000  0.75035800  1
  O  O0  1  0.25297400  0.74702600  0.00000000  1
  O  O1  1  0.25297400  0.25297400  0.50594900  1
  O  O2  1  0.00142800  0.50142800  0.50000000  1
  O  O3  1  0.00000000  0.00000000  0.00000000  1
  O  O4  1  0.74702600  0.74702600  0.49405100  1
  O  O5  1  0.74702600  0.25297400  0.00000000  1
  O  O6  1  0.49857200  0.99857200  0.50000000  1
  F  F0  1  0.50000000  0.50000000  0.00000000  1
loop_
_geom_bond_atom_site_label_1
_geom_bond_atom_site_label_2
_geom_bond_distance
_geom_bond_site_symmetry_2
Ce0 O2 2.304806 1_555
Ce0 O0 2.371667 1_556
Ce0 O1 2.371669 1_555
Ce0 F0 2.459342 1_556
Ce1 O3 2.344092 1_555
Ce1 O6 2.358221 1_545
Ce1 O0 2.364552 1_545
Ce1 O1 2.364560 1_555
Ce2 O2 2.304806 1_655
Ce2 O4 2.371659 1_555
Ce2 O5 2.371667 1_555
Ce2 F0 2.459342 1_555
Ce3 O3 2.344091 1_656
Ce3 O6 2.358213 1_545
Ce3 O5 2.364543 1_556
Ce3 O4 2.364549 1_545
Ce4 O3 2.344092 1_666
Ce4 O2 2.358221 1_655
Ce4 O0 2.364552 1_656
Ce4 O4 2.364560 1_555
Ce5 O3 2.344091 1_655
Ce5 O2 2.358213 1_655
Ce5 O5 2.364543 1_555
Ce5 O1 2.364549 1_655
Ce6 O6 2.304806 1_555
Ce6 O0 2.371667 1_555
Ce6 O4 2.371669 1_555
Ce6 F0 2.459342 1_555
Ce7 O6 2.304806 1_545
Ce7 O1 2.371659 1_555
Ce7 O5 2.371667 1_556
Ce7 F0 2.459342 1_556
As0 Fe1 2.593121 1_555
As0 Fe0 2.594108 1_566
As0 Fe2 2.612386 1_465
As0 Fe6 2.612386 1_566
As0 Ce2 3.129138 1_455
As0 Ce0 3.129138 1_555
As0 Ce1 3.216467 1_566
As0 Ce3 3.216476 1_465
As1 Fe1 2.593121 1_555
As1 Fe0 2.594108 1_555
As1 Fe3 2.612386 1_454
As1 Fe7 2.612386 1_555
As1 Ce2 3.129138 1_455
As1 Ce0 3.129138 1_555
As1 Ce1 3.216467 1_555
As1 Ce3 3.216471 1_454
As2 Fe3 2.592481 1_455
As2 Fe2 2.592481 1_455
As2 Fe0 2.602242 1_556
As2 Fe4 2.618895 1_455
As2 Ce4 3.206477 1_455
As2 Ce5 3.206481 1_455
As2 Ce7 3.212248 1_555
As2 Ce6 3.212248 1_556
As3 Fe1 2.593121 1_555
As3 Fe5 2.594108 1_455
As3 Fe2 2.612386 1_465
As3 Fe3 2.612386 1_454
As3 Ce7 3.129138 1_565
As3 Ce6 3.129138 1_555
As3 Ce4 3.216467 1_454
As3 Ce5 3.216476 1_465
As4 Fe2 2.592481 1_565
As4 Fe6 2.592481 1_565
As4 Fe5 2.602242 1_555
As4 Fe4 2.618895 1_565
As4 Ce1 3.206477 1_565
As4 Ce3 3.206481 1_565
As4 Ce0 3.212248 1_554
As4 Ce2 3.212248 1_555
As5 Fe3 2.592481 1_555
As5 Fe7 2.592481 1_555
As5 Fe5 2.602242 1_556
As5 Fe4 2.618895 1_555
As5 Ce3 3.206476 1_555
As5 Ce1 3.206477 1_555
As5 Ce0 3.212248 1_555
As5 Ce2 3.212248 1_556
As6 Fe6 2.592481 1_555
As6 Fe7 2.592481 1_555
As6 Fe0 2.602242 1_555
As6 Fe4 2.618895 1_555
As6 Ce5 3.206476 1_555
As6 Ce4 3.206477 1_555
As6 Ce6 3.212248 1_555
As6 Ce7 3.212248 1_554
As7 Fe1 2.593121 1_555
As7 Fe5 2.594108 1_556
As7 Fe6 2.612386 1_566
As7 Fe7 2.612386 1_555
As7 Ce7 3.129138 1_565
As7 Ce6 3.129138 1_555
As7 Ce4 3.216467 1_555
As7 Ce5 3.216471 1_566
