# generated using pymatgen
data_FeHO2
_symmetry_space_group_name_H-M   'P 1'
_cell_length_a   3.09552900
_cell_length_b   7.81903580
_cell_length_c   6.19930713
_cell_angle_alpha   89.84615897
_cell_angle_beta   75.54276862
_cell_angle_gamma   89.99936334
_symmetry_Int_Tables_number   1
_chemical_formula_structural   FeHO2
_chemical_formula_sum   'Fe4 H4 O8'
_cell_volume   145.29640421
_cell_formula_units_Z   4
loop_
 _symmetry_equiv_pos_site_id
 _symmetry_equiv_pos_as_xyz
  1  'x, y, z'
loop_
 _atom_site_type_symbol
 _atom_site_label
 _atom_site_symmetry_multiplicity
 _atom_site_fract_x
 _atom_site_fract_y
 _atom_site_fract_z
 _atom_site_occupancy
  Fe  Fe0  1  0.67284300  0.62588300  0.65422300  1
  Fe  Fe1  1  0.32716300  0.87411800  0.34578500  1
  Fe  Fe2  1  0.67283400  0.12589300  0.65423600  1
  Fe  Fe3  1  0.32715700  0.37411000  0.34576400  1
  H  H0  1  0.00000000  0.25000000  0.99999900  1
  H  H1  1  0.00000000  0.75000000  0.00000000  1
  H  H2  1  0.99999500  0.99999000  0.00001100  1
  H  H3  1  0.00000600  0.50001000  0.99998800  1
  O  O0  1  0.29224400  0.12392200  0.41550100  1
  O  O1  1  0.29225000  0.62392300  0.41549600  1
  O  O2  1  0.70775400  0.37607700  0.58449500  1
  O  O3  1  0.70775300  0.87607600  0.58450200  1
  O  O4  1  0.06117000  0.12528000  0.87763000  1
  O  O5  1  0.06117100  0.62527800  0.87763200  1
  O  O6  1  0.93882700  0.37472000  0.12237000  1
  O  O7  1  0.93883200  0.87472200  0.12236900  1
loop_
_geom_bond_atom_site_label_1
_geom_bond_atom_site_label_2
_geom_bond_distance
_geom_bond_site_symmetry_2
Fe0 O2 1.998722 1_555
Fe0 O3 1.999405 1_555
Fe0 O5 2.047904 1_555
Fe0 O5 2.048035 1_655
Fe0 O1 2.109309 1_555
Fe0 O1 2.109528 1_655
Fe1 O0 1.998692 1_565
Fe1 O1 1.999408 1_555
Fe1 O7 2.047916 1_555
Fe1 O7 2.048077 1_455
Fe1 O3 2.109250 1_555
Fe1 O3 2.109505 1_455
Fe2 O3 1.998814 1_545
Fe2 O2 1.999361 1_555
Fe2 O4 2.047844 1_555
Fe2 O4 2.047977 1_655
Fe2 O0 2.109344 1_555
Fe2 O0 2.109559 1_655
Fe3 O1 1.998781 1_555
Fe3 O0 1.999387 1_555
Fe3 O6 2.047858 1_555
Fe3 O6 2.047963 1_455
Fe3 O2 2.109339 1_555
Fe3 O2 2.109531 1_455
H0 O4 1.222528 1_555
H0 O6 1.222535 1_456
H1 O5 1.222537 1_554
H1 O7 1.222540 1_455
H2 O7 1.222660 1_555
H2 O4 1.222880 1_664
H3 O5 1.222653 1_555
H3 O6 1.222884 1_456
