# generated using pymatgen
data_Dy2TiO5
_symmetry_space_group_name_H-M   'P 1'
_cell_length_a   7.37524200
_cell_length_b   7.48686158
_cell_length_c   12.47705240
_cell_angle_alpha   91.14453056
_cell_angle_beta   106.43429050
_cell_angle_gamma   118.27356491
_symmetry_Int_Tables_number   1
_chemical_formula_structural   Dy2TiO5
_chemical_formula_sum   'Dy10 Ti5 O25'
_cell_volume   572.21550663
_cell_formula_units_Z   5
loop_
 _symmetry_equiv_pos_site_id
 _symmetry_equiv_pos_as_xyz
  1  'x, y, z'
loop_
 _atom_site_type_symbol
 _atom_site_label
 _atom_site_symmetry_multiplicity
 _atom_site_fract_x
 _atom_site_fract_y
 _atom_site_fract_z
 _atom_site_occupancy
  Dy  Dy0  1  0.86959000  0.63929900  0.05143100  1
  Dy  Dy1  1  0.87507000  0.43117900  0.34287700  1
  Dy  Dy2  1  0.89526200  0.13679100  0.05794100  1
  Dy  Dy3  1  0.88907500  0.96531400  0.33117300  1
  Dy  Dy4  1  0.41188400  0.69404500  0.06741900  1
  Dy  Dy5  1  0.38591300  0.94508000  0.30466600  1
  Dy  Dy6  1  0.36067000  0.45212300  0.30441900  1
  Dy  Dy7  1  0.44828900  0.24014000  0.56666400  1
  Dy  Dy8  1  0.40078300  0.47153300  0.80629100  1
  Dy  Dy9  1  0.38986700  0.93182900  0.79518200  1
  Ti  Ti0  1  0.85676200  0.17941800  0.55050900  1
  Ti  Ti1  1  0.39195500  0.19645900  0.05882000  1
  Ti  Ti2  1  0.84763400  0.89620500  0.81993500  1
  Ti  Ti3  1  0.89730300  0.71872600  0.56040100  1
  Ti  Ti4  1  0.36812600  0.67058600  0.56131600  1
  O  O0  1  0.98004400  0.27739900  0.24197900  1
  O  O1  1  0.50952500  0.43361600  0.00008600  1
  O  O2  1  0.55076000  0.08702100  0.02417500  1
  O  O3  1  0.51945500  0.27206300  0.22286100  1
  O  O4  1  0.80949000  0.85020300  0.13013700  1
  O  O5  1  0.74612100  0.13689100  0.39307600  1
  O  O6  1  0.96937500  0.00866700  0.52920500  1
  O  O7  1  0.21645300  0.82557300  0.12293500  1
  O  O8  1  0.52730300  0.76220300  0.25978500  1
  O  O9  1  0.95096400  0.84368100  0.71205600  1
  O  O10  1  0.81707300  0.66931500  0.39383700  1
  O  O11  1  0.59900400  0.01872500  0.57399800  1
  O  O12  1  0.54173500  0.57088600  0.52260200  1
  O  O13  1  0.52853300  0.74681200  0.72141800  1
  O  O14  1  0.80525400  0.41837700  0.55643000  1
  O  O15  1  0.76372700  0.66307700  0.88416500  1
  O  O16  1  0.23974100  0.66259200  0.39428400  1
  O  O17  1  0.22773500  0.38726100  0.10725000  1
  O  O18  1  0.18086100  0.41260200  0.58960100  1
  O  O19  1  0.42939600  0.22188600  0.73621300  1
  O  O20  1  0.75965200  0.07618800  0.86850200  1
  O  O21  1  0.26407500  0.13021200  0.37905400  1
  O  O22  1  0.11708700  0.04829600  0.94724700  1
  O  O23  1  0.18947200  0.78806500  0.59947100  1
  O  O24  1  0.29258200  0.65746200  0.88118900  1
loop_
_geom_bond_atom_site_label_1
_geom_bond_atom_site_label_2
_geom_bond_distance
_geom_bond_site_symmetry_2
Dy0 O15 2.054587 1_554
Dy0 O4 2.121677 1_555
Dy0 O7 2.136411 1_655
Dy0 O1 2.226580 1_555
Dy1 O5 2.135024 1_555
Dy1 O10 2.144067 1_555
Dy1 O0 2.201784 1_555
Dy1 O16 2.282928 1_655
Dy1 O3 2.299305 1_555
Dy2 O17 2.156800 1_655
Dy2 O4 2.220172 1_545
Dy2 O20 2.232172 1_554
Dy2 O0 2.288965 1_555
Dy2 O2 2.294136 1_555
Dy2 O22 2.700352 1_654
Dy3 O8 2.232084 1_555
Dy3 O10 2.234656 1_555
Dy3 O5 2.249993 1_565
Dy3 O21 2.308924 1_665
Dy3 O6 2.349272 1_565
Dy3 O4 2.445476 1_555
Dy3 O0 2.487826 1_565
Dy4 O24 2.199491 1_554
Dy4 O17 2.199844 1_555
Dy4 O8 2.264790 1_555
Dy4 O7 2.325789 1_555
Dy4 O4 2.448572 1_555
Dy4 O1 2.575492 1_555
Dy4 O2 2.741849 1_565
Dy5 O7 2.181750 1_555
Dy5 O8 2.219912 1_555
Dy5 O5 2.236294 1_565
Dy5 O21 2.278269 1_565
Dy5 O16 2.345644 1_555
Dy5 O3 2.527715 1_565
Dy6 O8 2.223957 1_555
Dy6 O17 2.320683 1_555
Dy6 O0 2.332698 1_455
Dy6 O21 2.453923 1_555
Dy6 O3 2.517812 1_555
Dy6 O16 2.522364 1_555
Dy6 O12 2.589622 1_555
Dy6 O10 2.799381 1_555
Dy7 O19 2.161854 1_555
Dy7 O21 2.250970 1_555
Dy7 O12 2.358184 1_555
Dy7 O14 2.365781 1_555
Dy7 O11 2.384549 1_555
Dy8 O19 2.171466 1_555
Dy8 O24 2.206859 1_555
Dy8 O15 2.236494 1_555
Dy8 O13 2.251416 1_555
Dy8 O1 2.390879 1_556
Dy8 O18 2.632162 1_555
Dy9 O19 2.219837 1_565
Dy9 O24 2.239053 1_555
Dy9 O20 2.280188 1_565
Dy9 O13 2.373912 1_555
Dy9 O23 2.377306 1_555
Dy9 O2 2.750323 1_566
Dy9 O9 2.835255 1_455
O1 Ti1 1.842416 1_555
O2 Ti1 1.846998 1_555
O3 Ti1 1.937592 1_555
O5 Ti0 1.856780 1_555
O6 Ti0 1.874023 1_555
O6 Ti3 2.050340 1_545
O7 Ti1 2.701008 1_565
O9 Ti2 1.841286 1_555
O9 Ti3 1.940894 1_555
O10 Ti3 1.967767 1_555
O11 Ti0 1.819294 1_555
O11 Ti4 2.311842 1_545
O12 Ti4 1.915969 1_555
O12 Ti3 2.203189 1_555
O13 Ti4 1.921804 1_555
O13 Ti2 2.028577 1_555
O14 Ti0 2.001234 1_555
O14 Ti3 2.012497 1_555
O15 Ti2 1.839795 1_555
O16 Ti4 2.016986 1_555
O17 Ti1 2.427220 1_555
O18 Ti4 1.881096 1_555
O18 Ti0 2.086206 1_455
O20 Ti2 1.903225 1_545
O22 Ti1 1.867928 1_556
O22 Ti2 1.940858 1_445
O23 Ti3 1.867121 1_455
O23 Ti4 2.042661 1_555
