# generated using pymatgen
data_TiFeO3
_symmetry_space_group_name_H-M   'P 1'
_cell_length_a   5.60098477
_cell_length_b   5.63290661
_cell_length_c   44.21122087
_cell_angle_alpha   54.84026442
_cell_angle_beta   55.32774308
_cell_angle_gamma   54.40483414
_symmetry_Int_Tables_number   1
_chemical_formula_structural   TiFeO3
_chemical_formula_sum   'Ti16 Fe16 O48'
_cell_volume   868.10094080
_cell_formula_units_Z   16
loop_
 _symmetry_equiv_pos_site_id
 _symmetry_equiv_pos_as_xyz
  1  'x, y, z'
loop_
 _atom_site_type_symbol
 _atom_site_label
 _atom_site_symmetry_multiplicity
 _atom_site_fract_x
 _atom_site_fract_y
 _atom_site_fract_z
 _atom_site_occupancy
  Ti  Ti0  1  0.36566700  0.36772000  0.04157500  1
  Ti  Ti1  1  0.34486300  0.37178000  0.16773700  1
  Ti  Ti2  1  0.13403000  0.14330500  0.26893900  1
  Ti  Ti3  1  0.85058700  0.86837900  0.10618000  1
  Ti  Ti4  1  0.14504400  0.14438200  0.39288600  1
  Ti  Ti5  1  0.85952100  0.85356000  0.23134500  1
  Ti  Ti6  1  0.14301500  0.14348900  0.51866200  1
  Ti  Ti7  1  0.85392800  0.85271100  0.35710600  1
  Ti  Ti8  1  0.14063900  0.14208200  0.64359200  1
  Ti  Ti9  1  0.85555200  0.85593100  0.48172700  1
  Ti  Ti10  1  0.14394100  0.14631100  0.76797500  1
  Ti  Ti11  1  0.85121700  0.85659800  0.60732200  1
  Ti  Ti12  1  0.15358700  0.14047100  0.89255200  1
  Ti  Ti13  1  0.85383500  0.85472700  0.73175800  1
  Ti  Ti14  1  0.85715000  0.85047800  0.85692900  1
  Ti  Ti15  1  0.83977300  0.88183300  0.98036900  1
  Fe  Fe0  1  0.14580200  0.14406200  0.01824500  1
  Fe  Fe1  1  0.14848000  0.14893000  0.14147000  1
  Fe  Fe2  1  0.64979400  0.64708600  0.08010100  1
  Fe  Fe3  1  0.34887100  0.34843700  0.29371800  1
  Fe  Fe4  1  0.64627400  0.63620200  0.20610600  1
  Fe  Fe5  1  0.35216800  0.35541600  0.41953300  1
  Fe  Fe6  1  0.64694700  0.64616600  0.33015500  1
  Fe  Fe7  1  0.34954800  0.36181700  0.54430800  1
  Fe  Fe8  1  0.64665100  0.64116100  0.45599000  1
  Fe  Fe9  1  0.34923600  0.35228600  0.66840800  1
  Fe  Fe10  1  0.64504600  0.64136200  0.58140200  1
  Fe  Fe11  1  0.34734800  0.36285600  0.79410100  1
  Fe  Fe12  1  0.64881100  0.64158300  0.70584600  1
  Fe  Fe13  1  0.35756800  0.35553900  0.91934500  1
  Fe  Fe14  1  0.64856600  0.63954200  0.83078300  1
  Fe  Fe15  1  0.64051700  0.65095300  0.95605700  1
  O  O0  1  0.08305400  0.70725300  0.05918000  1
  O  O1  1  0.46640600  0.07331200  0.08983500  1
  O  O2  1  0.72086600  0.45325600  0.00997000  1
  O  O3  1  0.21159000  0.56964900  0.12196800  1
  O  O4  1  0.57679900  0.96632700  0.02804900  1
  O  O5  1  0.06855200  0.72099500  0.18259500  1
  O  O6  1  0.95463300  0.20890300  0.07378300  1
  O  O7  1  0.43080800  0.07429100  0.21916300  1
  O  O8  1  0.70116100  0.45289100  0.13638900  1
  O  O9  1  0.21592600  0.56031300  0.24521800  1
  O  O10  1  0.57774900  0.95277400  0.15355100  1
  O  O11  1  0.05900300  0.77595400  0.30334200  1
  O  O12  1  0.96069300  0.20309600  0.19738900  1
  O  O13  1  0.44071100  0.05734400  0.34616800  1
  O  O14  1  0.76351100  0.43673500  0.25765500  1
  O  O15  1  0.21926100  0.55939500  0.36989100  1
  O  O16  1  0.56138600  0.94885800  0.27777900  1
  O  O17  1  0.04989400  0.78683300  0.42861300  1
  O  O18  1  0.96010000  0.21160300  0.32020100  1
  O  O19  1  0.43639900  0.05611500  0.47166000  1
  O  O20  1  0.78093600  0.44518100  0.37935300  1
  O  O21  1  0.21817500  0.56070900  0.49436900  1
  O  O22  1  0.56455600  0.94452300  0.40309100  1
  O  O23  1  0.05137400  0.78249400  0.55383500  1
  O  O24  1  0.95173200  0.21485800  0.44558800  1
  O  O25  1  0.43851200  0.05177000  0.59724800  1
  O  O26  1  0.78034000  0.44226200  0.50493400  1
  O  O27  1  0.21650400  0.56198000  0.61960600  1
  O  O28  1  0.56190900  0.94541400  0.52856900  1
  O  O29  1  0.05864900  0.77699600  0.67854900  1
  O  O30  1  0.95353000  0.21435200  0.57058900  1
  O  O31  1  0.44027000  0.05813700  0.72100400  1
  O  O32  1  0.77277200  0.44106500  0.63092800  1
  O  O33  1  0.21865700  0.56298500  0.74382000  1
  O  O34  1  0.56113800  0.95590600  0.65316100  1
  O  O35  1  0.05626200  0.78143600  0.80286000  1
  O  O36  1  0.95573200  0.21641200  0.69579500  1
  O  O37  1  0.44059300  0.04758700  0.84678700  1
  O  O38  1  0.77956700  0.44179200  0.75533500  1
  O  O39  1  0.22210300  0.55503900  0.87006700  1
  O  O40  1  0.56499600  0.94812900  0.77819000  1
  O  O41  1  0.06145400  0.78011100  0.92963300  1
  O  O42  1  0.95360100  0.21171300  0.82035700  1
  O  O43  1  0.47119800  0.04740500  0.96757000  1
  O  O44  1  0.78876900  0.43924500  0.87905300  1
  O  O45  1  0.20445900  0.57229000  0.99684900  1
  O  O46  1  0.56571200  0.94674600  0.90215800  1
  O  O47  1  0.94402300  0.23041200  0.94608500  1
loop_
_geom_bond_atom_site_label_1
_geom_bond_atom_site_label_2
_geom_bond_distance
_geom_bond_site_symmetry_2
Fe0 O43 2.059486 1_554
Fe0 O2 2.064758 1_455
Fe0 O0 2.146470 1_545
Fe0 O45 2.182268 1_554
Fe0 O4 2.212442 1_545
Fe0 O6 2.212516 1_455
Fe1 O1 2.043422 1_555
Fe1 O8 2.112542 1_455
Fe1 O5 2.144584 1_545
Fe1 O3 2.181680 1_555
Fe1 O12 2.201824 1_455
Fe1 O10 2.230643 1_545
Fe2 O4 2.035991 1_555
Fe2 O6 2.104996 1_555
Fe2 O8 2.187542 1_555
Fe2 O3 2.188125 1_555
Fe2 O1 2.195629 1_565
Fe2 O0 2.213998 1_655
Fe3 O13 2.080038 1_555
Fe3 O14 2.097951 1_555
Fe3 O9 2.100322 1_555
Fe3 O11 2.111620 1_555
Fe3 O18 2.172591 1_455
Fe3 O16 2.175562 1_545
Fe4 O10 2.042518 1_555
Fe4 O12 2.123902 1_555
Fe4 O9 2.142120 1_555
Fe4 O14 2.186843 1_555
Fe4 O5 2.201985 1_655
Fe4 O7 2.293571 1_565
Fe5 O19 2.052405 1_555
Fe5 O17 2.119869 1_555
Fe5 O15 2.156393 1_555
Fe5 O20 2.168848 1_555
Fe5 O22 2.247053 1_545
Fe5 O24 2.249754 1_455
Fe6 O16 2.064710 1_555
Fe6 O20 2.146641 1_555
Fe6 O18 2.150923 1_555
Fe6 O15 2.156249 1_555
Fe6 O13 2.245781 1_565
Fe6 O11 2.262627 1_655
Fe7 O23 2.079418 1_555
Fe7 O25 2.093466 1_555
Fe7 O26 2.154749 1_555
Fe7 O21 2.170521 1_555
Fe7 O30 2.249653 1_455
Fe7 O28 2.256312 1_545
Fe8 O22 2.075378 1_555
Fe8 O24 2.121044 1_555
Fe8 O26 2.138460 1_555
Fe8 O21 2.142728 1_555
Fe8 O19 2.250034 1_565
Fe8 O17 2.267743 1_655
Fe9 O31 2.083412 1_555
Fe9 O29 2.108488 1_555
Fe9 O27 2.114401 1_555
Fe9 O32 2.139512 1_555
Fe9 O34 2.141633 1_545
Fe9 O36 2.183946 1_455
Fe10 O28 2.075526 1_555
Fe10 O30 2.132130 1_555
Fe10 O32 2.139274 1_555
Fe10 O27 2.140320 1_555
Fe10 O25 2.236836 1_565
Fe10 O23 2.265229 1_655
Fe11 O35 2.055642 1_555
Fe11 O37 2.095820 1_555
Fe11 O38 2.156469 1_555
Fe11 O33 2.173245 1_555
Fe11 O40 2.245028 1_545
Fe11 O42 2.251842 1_455
Fe12 O34 2.083495 1_555
Fe12 O36 2.110040 1_555
Fe12 O33 2.145421 1_555
Fe12 O38 2.148917 1_555
Fe12 O31 2.247001 1_565
Fe12 O29 2.265772 1_655
Fe13 O43 1.989803 1_555
Fe13 O41 2.110529 1_555
Fe13 O39 2.157186 1_555
Fe13 O44 2.166070 1_555
Fe13 O47 2.254935 1_455
Fe13 O46 2.262991 1_545
Fe14 O40 2.069621 1_555
Fe14 O42 2.128257 1_555
Fe14 O44 2.132166 1_555
Fe14 O39 2.144734 1_555
Fe14 O37 2.226892 1_565
Fe14 O35 2.271150 1_655
Fe15 O47 2.087589 1_555
Fe15 O46 2.092992 1_555
Fe15 O43 2.107149 1_565
Fe15 O2 2.168871 1_556
Fe15 O45 2.177583 1_555
Fe15 O41 2.310151 1_655
O0 Ti0 1.886202 1_555
O0 Ti3 2.134237 1_455
O1 Ti0 1.956073 1_555
O1 Ti3 2.098046 1_545
O2 Ti0 1.822142 1_555
O2 Ti15 2.285954 1_554
O3 Ti3 1.923379 1_455
O3 Ti1 2.011605 1_555
O4 Ti15 1.909564 1_554
O4 Ti0 2.123272 1_565
O5 Ti1 1.866473 1_555
O5 Ti5 2.130374 1_455
O6 Ti3 1.804929 1_545
O6 Ti0 2.308381 1_655
O7 Ti2 1.956569 1_555
O7 Ti1 2.031576 1_555
O7 Ti5 2.196925 1_545
O8 Ti1 1.815864 1_555
O8 Ti3 2.317354 1_555
O9 Ti5 1.864742 1_455
O9 Ti2 2.167412 1_555
O10 Ti3 1.899234 1_555
O10 Ti1 2.203549 1_565
O11 Ti2 1.852578 1_565
O11 Ti7 2.157642 1_455
O12 Ti5 1.837956 1_545
O12 Ti1 2.233249 1_655
O13 Ti4 1.891661 1_555
O13 Ti7 2.108292 1_545
O14 Ti2 1.876909 1_655
O14 Ti5 2.183499 1_555
O15 Ti7 1.881777 1_455
O15 Ti4 2.141157 1_555
O16 Ti5 1.901680 1_555
O16 Ti2 2.145038 1_565
O17 Ti4 1.860956 1_565
O17 Ti9 2.121745 1_455
O18 Ti7 1.897184 1_545
O18 Ti2 2.071063 1_655
O19 Ti6 1.900513 1_555
O19 Ti9 2.123739 1_545
O20 Ti4 1.893692 1_655
O20 Ti7 2.106851 1_555
O21 Ti9 1.868754 1_455
O21 Ti6 2.141077 1_555
O22 Ti7 1.874510 1_555
O22 Ti4 2.129268 1_565
O23 Ti6 1.865898 1_565
O23 Ti11 2.144484 1_455
O24 Ti9 1.870525 1_545
O24 Ti4 2.110334 1_655
O25 Ti8 1.887727 1_555
O25 Ti11 2.097471 1_545
O26 Ti6 1.890417 1_655
O26 Ti9 2.134771 1_555
O27 Ti11 1.873135 1_455
O27 Ti8 2.160562 1_555
O28 Ti9 1.899937 1_555
O28 Ti6 2.121432 1_565
O29 Ti8 1.860104 1_565
O29 Ti13 2.138416 1_455
O30 Ti11 1.882304 1_545
O30 Ti6 2.084778 1_655
O31 Ti10 1.902794 1_555
O31 Ti13 2.107238 1_545
O32 Ti8 1.892663 1_655
O32 Ti11 2.150106 1_555
O33 Ti13 1.865947 1_455
O33 Ti10 2.138352 1_555
O34 Ti11 1.887095 1_555
O34 Ti8 2.138501 1_565
O35 Ti10 1.872579 1_565
O35 Ti14 2.154511 1_455
O36 Ti13 1.896008 1_545
O36 Ti8 2.112621 1_655
O37 Ti12 1.868485 1_555
O37 Ti14 2.116274 1_545
O38 Ti10 1.876098 1_655
O38 Ti13 2.123807 1_555
O39 Ti14 1.887536 1_455
O39 Ti12 2.127044 1_555
O40 Ti13 1.892780 1_555
O40 Ti10 2.139687 1_565
O41 Ti12 1.870432 1_565
O41 Ti15 2.093980 1_455
O42 Ti14 1.882344 1_545
O42 Ti10 2.086118 1_655
O43 Ti15 1.982841 1_545
O44 Ti12 1.895062 1_655
O44 Ti14 2.113372 1_555
O45 Ti15 1.956378 1_455
O45 Ti0 2.061333 1_556
O46 Ti14 1.860586 1_555
O46 Ti12 2.085372 1_565
O47 Ti15 1.842217 1_545
O47 Ti12 2.182649 1_655
