# generated using pymatgen
data_H12C4S3(N3Cl2)2
_symmetry_space_group_name_H-M   'P 1'
_cell_length_a   10.07896100
_cell_length_b   10.17584678
_cell_length_c   10.32919739
_cell_angle_alpha   96.01602648
_cell_angle_beta   99.32858453
_cell_angle_gamma   98.13755874
_symmetry_Int_Tables_number   1
_chemical_formula_structural   H12C4S3(N3Cl2)2
_chemical_formula_sum   'H24 C8 S6 N12 Cl8'
_cell_volume   1025.95870201
_cell_formula_units_Z   2
loop_
 _symmetry_equiv_pos_site_id
 _symmetry_equiv_pos_as_xyz
  1  'x, y, z'
loop_
 _atom_site_type_symbol
 _atom_site_label
 _atom_site_symmetry_multiplicity
 _atom_site_fract_x
 _atom_site_fract_y
 _atom_site_fract_z
 _atom_site_occupancy
  H  H0  1  0.35267900  0.04038200  0.83547600  1
  H  H1  1  0.95861600  0.16122100  0.62365400  1
  H  H2  1  0.61223900  0.19284900  0.69279400  1
  H  H3  1  0.36012000  0.05582600  0.61104900  1
  H  H4  1  0.91490100  0.35596700  0.89947500  1
  H  H5  1  0.63892500  0.10698800  0.08992600  1
  H  H6  1  0.10363900  0.08666700  0.63687000  1
  H  H7  1  0.94935400  0.38885600  0.63644700  1
  H  H8  1  0.31387000  0.37899800  0.81497000  1
  H  H9  1  0.81214300  0.31262000  0.38304000  1
  H  H10  1  0.84334900  0.35892400  0.04002900  1
  H  H11  1  0.38151100  0.65049400  0.94514100  1
  H  H12  1  0.61899600  0.34740200  0.05634400  1
  H  H13  1  0.15880700  0.63197500  0.96137600  1
  H  H14  1  0.19935300  0.68274200  0.61844800  1
  H  H15  1  0.68741700  0.61663000  0.19282200  1
  H  H16  1  0.05404700  0.59202400  0.36085500  1
  H  H17  1  0.89690900  0.90652800  0.36001700  1
  H  H18  1  0.36186200  0.89358900  0.90520500  1
  H  H19  1  0.08552600  0.63741500  0.10446300  1
  H  H20  1  0.64233700  0.94307900  0.38485700  1
  H  H21  1  0.38796900  0.81247200  0.30782800  1
  H  H22  1  0.04426200  0.83940400  0.35726700  1
  H  H23  1  0.62744900  0.96168000  0.16575500  1
  C  C0  1  0.72032200  0.13926200  0.28763700  1
  C  C1  1  0.71199700  0.28308200  0.86267300  1
  C  C2  1  0.24888900  0.20372500  0.20957600  1
  C  C3  1  0.13968600  0.28057500  0.72363500  1
  C  C4  1  0.86394800  0.71063400  0.28357100  1
  C  C5  1  0.75249900  0.75165100  0.75076000  1
  C  C6  1  0.28725500  0.71979000  0.13844200  1
  C  C7  1  0.28243800  0.86187200  0.70903800  1
  S  S0  1  0.72337100  0.06054700  0.43618500  1
  S  S1  1  0.56345300  0.27306300  0.93845400  1
  S  S2  1  0.93993800  0.56411100  0.26459200  1
  S  S3  1  0.06884200  0.43293800  0.72035300  1
  S  S4  1  0.43746000  0.72489800  0.06286200  1
  S  S5  1  0.27426900  0.94115800  0.56031900  1
  N  N0  1  0.70855600  0.23222900  0.74214600  1
  N  N1  1  0.65967400  0.06113700  0.17233200  1
  N  N2  1  0.82904300  0.35226500  0.93986600  1
  N  N3  1  0.77361100  0.26198100  0.29027800  1
  N  N4  1  0.05748700  0.16525000  0.66469300  1
  N  N5  1  0.26346900  0.28369000  0.78115800  1
  N  N6  1  0.73793700  0.71023900  0.23320800  1
  N  N7  1  0.94247500  0.82307700  0.35694200  1
  N  N8  1  0.22975400  0.74045100  0.70984800  1
  N  N9  1  0.16970300  0.65239400  0.06110000  1
  N  N10  1  0.35502300  0.94039600  0.82198400  1
  N  N11  1  0.29162900  0.77451800  0.25745400  1
  Cl  Cl0  1  0.25759600  0.07039300  0.08668400  1
  Cl  Cl1  1  0.09650100  0.16596100  0.27282700  1
  Cl  Cl2  1  0.39363900  0.22543400  0.33926900  1
  Cl  Cl3  1  0.20544600  0.48141900  0.49406300  1
  Cl  Cl4  1  0.24737600  0.35503100  0.13768100  1
  Cl  Cl5  1  0.75829700  0.63726300  0.85671100  1
  Cl  Cl6  1  0.85634800  0.75655800  0.63906000  1
  Cl  Cl7  1  0.64128800  0.85937400  0.75609300  1
loop_
_geom_bond_atom_site_label_1
_geom_bond_atom_site_label_2
_geom_bond_distance
_geom_bond_site_symmetry_2
H0 N10 1.016523 1_545
H1 N4 1.011070 1_655
H2 N0 1.024434 1_555
H3 S5 1.350495 1_545
H4 N2 1.017564 1_555
H5 N1 1.019366 1_555
H6 N4 1.019255 1_555
H7 S3 1.352746 1_655
H8 N5 1.025976 1_555
H9 N3 1.026468 1_555
H10 N2 1.014871 1_554
H11 S4 1.354125 1_556
H12 S1 1.354427 1_554
H13 N9 1.014041 1_556
H14 N8 1.033976 1_555
H15 N6 1.025270 1_555
H16 S2 1.367356 1_455
H17 N7 1.021041 1_555
H18 N10 1.022959 1_555
H19 N9 1.022037 1_555
H20 S0 1.351804 1_565
H21 N11 1.025021 1_555
H22 N7 1.015191 1_455
H23 N1 1.009825 1_565
C0 N3 1.283306 1_555
C0 N1 1.360916 1_555
C0 S0 1.801711 1_555
C1 N0 1.290255 1_555
C1 N2 1.365774 1_555
C1 S1 1.793895 1_555
C2 Cl1 1.773243 1_555
C2 Cl4 1.779025 1_555
C2 Cl0 1.780069 1_555
C2 Cl2 1.784654 1_555
C3 N5 1.286504 1_555
C3 N4 1.358561 1_555
C3 S3 1.797604 1_555
C4 N6 1.291360 1_555
C4 N7 1.370176 1_555
C4 S2 1.777301 1_555
C5 Cl7 1.678162 1_555
C5 Cl6 1.678699 1_555
C5 Cl5 1.679740 1_555
C6 N11 1.286561 1_555
C6 N9 1.364029 1_555
C6 S4 1.809274 1_555
C7 N8 1.275348 1_555
C7 N10 1.377371 1_555
C7 S5 1.804176 1_555
