# generated using pymatgen
data_Nb6(Pb2O5)5
_symmetry_space_group_name_H-M   'P 1'
_cell_length_a   7.69422800
_cell_length_b   7.71700766
_cell_length_c   11.05318062
_cell_angle_alpha   89.40803500
_cell_angle_beta   89.96809984
_cell_angle_gamma   89.97628579
_symmetry_Int_Tables_number   1
_chemical_formula_structural   Nb6(Pb2O5)5
_chemical_formula_sum   'Nb6 Pb10 O25'
_cell_volume   656.26307079
_cell_formula_units_Z   1
loop_
 _symmetry_equiv_pos_site_id
 _symmetry_equiv_pos_as_xyz
  1  'x, y, z'
loop_
 _atom_site_type_symbol
 _atom_site_label
 _atom_site_symmetry_multiplicity
 _atom_site_fract_x
 _atom_site_fract_y
 _atom_site_fract_z
 _atom_site_occupancy
  Nb  Nb0  1  0.24821600  0.23891800  0.73864100  1
  Nb  Nb1  1  0.00215400  0.49339900  0.98761300  1
  Nb  Nb2  1  0.75621400  0.74553200  0.24131000  1
  Nb  Nb3  1  0.50043200  0.00085900  0.48765600  1
  Nb  Nb4  1  0.73692100  0.23862300  0.74387900  1
  Nb  Nb5  1  0.25649800  0.74453500  0.23955900  1
  Pb  Pb0  1  0.00135500  0.00619600  0.99609500  1
  Pb  Pb1  1  0.50200100  0.50615300  0.50018600  1
  Pb  Pb2  1  0.25602000  0.75976100  0.74517500  1
  Pb  Pb3  1  0.00499500  0.98265700  0.47223400  1
  Pb  Pb4  1  0.76644100  0.24484400  0.25497300  1
  Pb  Pb5  1  0.23186900  0.24652500  0.25159400  1
  Pb  Pb6  1  0.00308400  0.49570000  0.48798100  1
  Pb  Pb7  1  0.50634800  0.48096800  0.98695000  1
  Pb  Pb8  1  0.74059300  0.75045400  0.74041400  1
  Pb  Pb9  1  0.50044700  0.99719400  0.98366200  1
  O  O0  1  0.28507000  0.44543600  0.62976600  1
  O  O1  1  0.00830900  0.71686300  0.91062600  1
  O  O2  1  0.00241400  0.76155900  0.31308700  1
  O  O3  1  0.30925700  0.92488200  0.39001700  1
  O  O4  1  0.23006100  0.96379600  0.15417900  1
  O  O5  1  0.77207600  0.96433800  0.15455300  1
  O  O6  1  0.30462200  0.07699400  0.61305800  1
  O  O7  1  0.99822800  0.29871200  0.11740500  1
  O  O8  1  0.50122000  0.23954900  0.42739100  1
  O  O9  1  0.49859100  0.29148100  0.80506700  1
  O  O10  1  0.71616100  0.45190000  0.63168000  1
  O  O11  1  0.18943900  0.39566600  0.89424400  1
  O  O12  1  0.80624800  0.40669600  0.89381600  1
  O  O13  1  0.81243500  0.59816300  0.11256800  1
  O  O14  1  0.28153300  0.55483900  0.37562100  1
  O  O15  1  0.19182100  0.59451000  0.11391200  1
  O  O16  1  0.50279600  0.72245100  0.20643000  1
  O  O17  1  0.50071300  0.72806200  0.87680700  1
  O  O18  1  0.50255100  0.76782800  0.59152900  1
  O  O19  1  0.69308900  0.92672600  0.39099800  1
  O  O20  1  0.25956400  0.03200200  0.85127900  1
  O  O21  1  0.74472900  0.03551500  0.85530100  1
  O  O22  1  0.68490200  0.08017900  0.61754700  1
  O  O23  1  0.99731800  0.23974200  0.71050600  1
  O  O24  1  0.72196800  0.55441600  0.37456600  1
loop_
_geom_bond_atom_site_label_1
_geom_bond_atom_site_label_2
_geom_bond_distance
_geom_bond_site_symmetry_2
Nb0 O6 1.926473 1_555
Nb0 O23 1.955522 1_455
Nb0 O0 2.007203 1_555
Nb0 O20 2.016502 1_555
Nb0 O9 2.103133 1_555
Nb0 O11 2.160433 1_555
Nb1 O1 1.915690 1_555
Nb1 O11 1.929754 1_555
Nb1 O12 1.952316 1_455
Nb1 O7 2.066807 1_456
Nb1 O13 2.170688 1_456
Nb1 O15 2.170957 1_556
Nb2 O13 1.880892 1_555
Nb2 O5 1.937052 1_555
Nb2 O16 1.996207 1_555
Nb2 O2 2.058413 1_655
Nb2 O24 2.090225 1_555
Nb2 O19 2.230446 1_555
Nb3 O19 1.917350 1_545
Nb3 O3 1.920343 1_545
Nb3 O8 1.952247 1_555
Nb3 O22 2.114629 1_555
Nb3 O18 2.123602 1_545
Nb3 O6 2.133091 1_555
Nb4 O22 1.908241 1_555
Nb4 O21 1.984234 1_555
Nb4 O9 1.997547 1_555
Nb4 O23 2.037032 1_555
Nb4 O10 2.056741 1_555
Nb4 O12 2.181593 1_555
Nb5 O15 1.884476 1_555
Nb5 O16 1.937700 1_555
Nb5 O4 1.939565 1_555
Nb5 O14 2.096767 1_555
Nb5 O2 2.121307 1_555
Nb5 O3 2.217311 1_555
O0 Pb1 2.245220 1_555
O0 Pb6 2.702678 1_555
O0 Pb2 2.761186 1_555
O1 Pb0 2.433945 1_565
O1 Pb2 2.659081 1_555
O1 Pb8 2.800652 1_455
O2 Pb3 2.463334 1_555
O2 Pb6 2.804336 1_555
O3 Pb3 2.551535 1_555
O4 Pb5 2.443053 1_565
O4 Pb0 2.499592 1_564
O4 Pb9 2.816537 1_554
O5 Pb4 2.443193 1_565
O5 Pb0 2.503887 1_664
O5 Pb9 2.827410 1_554
O7 Pb5 2.363011 1_655
O7 Pb4 2.376983 1_555
O7 Pb0 2.637531 1_654
O8 Pb1 2.216867 1_555
O8 Pb4 2.791431 1_555
O9 Pb7 2.498881 1_555
O10 Pb1 2.234388 1_555
O10 Pb8 2.616444 1_555
O10 Pb6 2.737953 1_655
O11 Pb7 2.728924 1_555
O12 Pb7 2.592534 1_555
O14 Pb1 2.214897 1_555
O14 Pb6 2.515335 1_555
O14 Pb5 2.784778 1_555
O17 Pb7 2.252116 1_555
O17 Pb8 2.387678 1_555
O17 Pb2 2.390960 1_555
O17 Pb9 2.399821 1_555
O18 Pb1 2.266998 1_555
O18 Pb8 2.465627 1_555
O18 Pb2 2.545672 1_555
O19 Pb3 2.600619 1_655
O20 Pb9 2.375473 1_545
O20 Pb2 2.416793 1_545
O20 Pb0 2.557162 1_555
O21 Pb9 2.371078 1_545
O21 Pb0 2.523410 1_655
O21 Pb8 2.551587 1_545
O24 Pb1 2.217734 1_555
O24 Pb6 2.538844 1_655
O24 Pb4 2.763279 1_555
