# generated using pymatgen
data_KSbO3
_symmetry_space_group_name_H-M   'P 1'
_cell_length_a   4.99036900
_cell_length_b   6.23378857
_cell_length_c   6.82586640
_cell_angle_alpha   72.28576422
_cell_angle_beta   69.06421636
_cell_angle_gamma   67.33299992
_symmetry_Int_Tables_number   1
_chemical_formula_structural   KSbO3
_chemical_formula_sum   'K2 Sb2 O6'
_cell_volume   179.55735057
_cell_formula_units_Z   2
loop_
 _symmetry_equiv_pos_site_id
 _symmetry_equiv_pos_as_xyz
  1  'x, y, z'
loop_
 _atom_site_type_symbol
 _atom_site_label
 _atom_site_symmetry_multiplicity
 _atom_site_fract_x
 _atom_site_fract_y
 _atom_site_fract_z
 _atom_site_occupancy
  K  K0  1  0.09586600  0.68608000  0.09078600  1
  K  K1  1  0.90413400  0.31392000  0.90921400  1
  Sb  Sb0  1  0.72436700  0.23948700  0.49915900  1
  Sb  Sb1  1  0.27563300  0.76051300  0.50084100  1
  O  O0  1  0.42304700  0.45339200  0.71818500  1
  O  O1  1  0.92716800  0.95839900  0.71411000  1
  O  O2  1  0.93856200  0.62131800  0.52224900  1
  O  O3  1  0.57695300  0.54660800  0.28181500  1
  O  O4  1  0.07283200  0.04160100  0.28589000  1
  O  O5  1  0.06143800  0.37868200  0.47775100  1
loop_
_geom_bond_atom_site_label_1
_geom_bond_atom_site_label_2
_geom_bond_distance
_geom_bond_site_symmetry_2
K0 O2 2.705810 1_455
K0 O5 2.743663 1_555
K0 O3 2.791840 1_455
K0 O1 2.826756 1_454
K0 O3 2.856308 1_555
K0 O4 2.861619 1_565
K0 O0 2.947943 1_554
K1 O5 2.705810 1_655
K1 O2 2.743663 1_555
K1 O0 2.791840 1_655
K1 O4 2.826756 1_656
K1 O0 2.856308 1_555
K1 O1 2.861619 1_545
K1 O3 2.947943 1_556
O0 Sb0 2.082178 1_555
O0 Sb1 2.091294 1_555
O1 Sb1 2.072495 1_655
O1 Sb0 2.092177 1_565
O2 O5 1.479074 1_655
O2 Sb1 2.115637 1_655
O3 Sb1 2.082178 1_555
O3 Sb0 2.091294 1_555
O4 Sb0 2.072495 1_455
O4 Sb1 2.092177 1_545
O5 Sb0 2.115637 1_455
