# generated using pymatgen
data_Sr(H8O5)2
_symmetry_space_group_name_H-M   'P 1'
_cell_length_a   5.76633300
_cell_length_b   6.37467171
_cell_length_c   6.95410207
_cell_angle_alpha   89.62683150
_cell_angle_beta   87.83032346
_cell_angle_gamma   88.82750975
_symmetry_Int_Tables_number   1
_chemical_formula_structural   Sr(H8O5)2
_chemical_formula_sum   'Sr1 H16 O10'
_cell_volume   255.38126779
_cell_formula_units_Z   1
loop_
 _symmetry_equiv_pos_site_id
 _symmetry_equiv_pos_as_xyz
  1  'x, y, z'
loop_
 _atom_site_type_symbol
 _atom_site_label
 _atom_site_symmetry_multiplicity
 _atom_site_fract_x
 _atom_site_fract_y
 _atom_site_fract_z
 _atom_site_occupancy
  Sr  Sr0  1  0.00354200  0.98827500  0.99416100  1
  H  H0  1  0.26107300  0.29367100  0.31668800  1
  H  H1  1  0.25298300  0.41239600  0.12665500  1
  H  H2  1  0.31354900  0.68604000  0.64324200  1
  H  H3  1  0.45210700  0.79307000  0.80099800  1
  H  H4  1  0.29223900  0.07642600  0.67926500  1
  H  H5  1  0.30954900  0.33473100  0.64150600  1
  H  H6  1  0.27308800  0.66627700  0.31182900  1
  H  H7  1  0.44934400  0.75778800  0.17083400  1
  H  H8  1  0.72351800  0.63740200  0.69741000  1
  H  H9  1  0.73918300  0.57990400  0.91519000  1
  H  H10  1  0.57588300  0.22964500  0.19987800  1
  H  H11  1  0.71463800  0.32650700  0.36437800  1
  H  H12  1  0.70650900  0.68640000  0.35932200  1
  H  H13  1  0.70669500  0.94042500  0.31134900  1
  H  H14  1  0.53976600  0.22084500  0.82018800  1
  H  H15  1  0.74542600  0.31062200  0.70363100  1
  O  O0  1  0.38639300  0.50482600  0.50843500  1
  O  O1  1  0.64752100  0.51406600  0.50823200  1
  O  O2  1  0.25699500  0.26680800  0.17693600  1
  O  O3  1  0.29949500  0.80872400  0.74096400  1
  O  O4  1  0.26042400  0.21569500  0.73948900  1
  O  O5  1  0.28011000  0.72446600  0.17792100  1
  O  O6  1  0.74946400  0.70189200  0.83023600  1
  O  O7  1  0.72508000  0.21036300  0.26292300  1
  O  O8  1  0.72841400  0.79936900  0.25198200  1
  O  O9  1  0.71264900  0.23413100  0.82535200  1
loop_
_geom_bond_atom_site_label_1
_geom_bond_atom_site_label_2
_geom_bond_distance
_geom_bond_site_symmetry_2
H0 O2 0.989157 1_555
H1 O2 0.989762 1_555
H2 O3 1.039314 1_555
H2 O0 1.534322 1_555
H3 O3 0.991136 1_555
H4 O4 0.994782 1_555
H5 O4 1.052509 1_555
H5 O0 1.484568 1_555
H6 O5 0.999822 1_555
H7 O5 1.002276 1_555
H8 O6 1.030782 1_555
H8 O1 1.616207 1_555
H9 O6 0.974935 1_555
H10 O7 0.985394 1_555
H11 O7 1.025340 1_555
H11 O1 1.596053 1_555
H12 O8 1.039870 1_555
H12 O1 1.539057 1_555
H13 O8 0.995476 1_555
H14 O9 1.004231 1_555
H15 O9 0.988057 1_555
O0 O1 1.508053 1_555
O2 Sr0 2.679617 1_544
O3 Sr0 2.653579 1_555
O4 Sr0 2.699660 1_545
O5 Sr0 2.649714 1_554
O6 Sr0 2.653646 1_655
O7 Sr0 2.791049 1_644
O8 Sr0 2.648825 1_654
O9 Sr0 2.581767 1_645
