# generated using pymatgen
data_Na2LiTa
_symmetry_space_group_name_H-M   'P 1'
_cell_length_a   5.06399613
_cell_length_b   5.06399613
_cell_length_c   5.06399613
_cell_angle_alpha   60.00000000
_cell_angle_beta   60.00000000
_cell_angle_gamma   60.00000000
_symmetry_Int_Tables_number   1
_chemical_formula_structural   Na2LiTa
_chemical_formula_sum   'Na2 Li1 Ta1'
_cell_volume   91.82587941
_cell_formula_units_Z   1
loop_
 _symmetry_equiv_pos_site_id
 _symmetry_equiv_pos_as_xyz
  1  'x, y, z'
loop_
 _atom_site_type_symbol
 _atom_site_label
 _atom_site_symmetry_multiplicity
 _atom_site_fract_x
 _atom_site_fract_y
 _atom_site_fract_z
 _atom_site_occupancy
  Na  Na0  1  0.00000000  0.00000000  0.00000000  1
  Na  Na1  1  0.75000000  0.75000000  0.75000000  1
  Li  Li0  1  0.50000000  0.50000000  0.50000000  1
  Ta  Ta0  1  0.25000000  0.25000000  0.25000000  1
loop_
_geom_bond_atom_site_label_1
_geom_bond_atom_site_label_2
_geom_bond_distance
_geom_bond_site_symmetry_2
Na0 Na1 3.101052 1_445
Na0 Na1 3.101052 1_544
Na0 Ta0 3.101052 1_554
Na0 Na1 3.101052 1_444
Na0 Ta0 3.101052 1_545
Na0 Na1 3.101052 1_454
Na0 Ta0 3.101052 1_555
Na0 Ta0 3.101052 1_455
Na1 Ta0 3.580786 1_656
Na1 Ta0 3.580786 1_556
Na1 Ta0 3.580786 1_655
Na1 Ta0 3.580786 1_566
Na1 Ta0 3.580786 1_565
Na1 Ta0 3.580786 1_665
Li0 Ta0 3.101052 1_565
Li0 Ta0 3.101052 1_655
Li0 Na1 3.101052 1_455
Li0 Na1 3.101052 1_545
Li0 Ta0 3.101052 1_555
Li0 Ta0 3.101052 1_556
Li0 Na1 3.101052 1_555
Li0 Na1 3.101052 1_554
