# generated using pymatgen
data_SrLa5F17
_symmetry_space_group_name_H-M   'P 1'
_cell_length_a   7.20369500
_cell_length_b   7.26912318
_cell_length_c   7.36389260
_cell_angle_alpha   89.79731691
_cell_angle_beta   90.59539288
_cell_angle_gamma   119.45798347
_symmetry_Int_Tables_number   1
_chemical_formula_structural   SrLa5F17
_chemical_formula_sum   'Sr1 La5 F17'
_cell_volume   335.73563733
_cell_formula_units_Z   1
loop_
 _symmetry_equiv_pos_site_id
 _symmetry_equiv_pos_as_xyz
  1  'x, y, z'
loop_
 _atom_site_type_symbol
 _atom_site_label
 _atom_site_symmetry_multiplicity
 _atom_site_fract_x
 _atom_site_fract_y
 _atom_site_fract_z
 _atom_site_occupancy
  Sr  Sr0  1  0.00410900  0.33966500  0.27711100  1
  La  La0  1  0.64378800  0.97852500  0.74335300  1
  La  La1  1  0.66500400  0.66177900  0.24367200  1
  La  La2  1  0.34144600  0.00065600  0.24350300  1
  La  La3  1  0.35099700  0.33922600  0.75011200  1
  La  La4  1  0.00384000  0.68257800  0.74844100  1
  F  F0  1  0.67956800  0.04278900  0.42779000  1
  F  F1  1  0.95093800  0.64018500  0.42709000  1
  F  F2  1  0.65740200  0.33330500  0.19292600  1
  F  F3  1  0.68842000  0.33119400  0.75725100  1
  F  F4  1  0.99684200  0.01232000  0.75970600  1
  F  F5  1  0.68509800  0.65490800  0.91770400  1
  F  F6  1  0.34189800  0.03017600  0.91708200  1
  F  F7  1  0.64115700  0.67704400  0.58342600  1
  F  F8  1  0.36389500  0.31375400  0.42287300  1
  F  F9  1  0.65671700  0.97573100  0.06740800  1
  F  F10  1  0.29533500  0.35695500  0.06208600  1
  F  F11  1  0.00126000  0.98878100  0.25047100  1
  F  F12  1  0.32688500  0.66160400  0.80660000  1
  F  F13  1  0.34751100  0.67823500  0.30411900  1
  F  F14  1  0.03775500  0.35885800  0.62353200  1
  F  F15  1  0.31813200  0.96222300  0.58271700  1
  F  F16  1  0.03970200  0.66570800  0.06782500  1
loop_
_geom_bond_atom_site_label_1
_geom_bond_atom_site_label_2
_geom_bond_distance
_geom_bond_site_symmetry_2
F0 La0 2.360278 1_545
F0 Sr0 2.535475 1_655
F0 La2 2.658706 1_555
F0 La1 3.042666 1_545
F1 La4 2.389754 1_655
F1 La1 2.519988 1_555
F1 Sr0 2.643375 1_655
F2 La1 2.391886 1_555
F2 La2 2.400873 1_555
F2 Sr0 2.545342 1_655
F3 La0 2.424117 1_545
F3 La4 2.446377 1_655
F3 La3 2.459948 1_555
F4 La4 2.423853 1_645
F4 La0 2.433622 1_545
F4 La3 2.490035 1_655
F5 La1 2.408426 1_556
F5 La4 2.543557 1_655
F5 La3 2.665998 1_555
F5 La0 2.816032 1_555
F6 La2 2.412426 1_556
F6 La3 2.529872 1_555
F6 La0 2.715028 1_545
F6 La4 2.786446 1_545
F7 La0 2.483330 1_555
F7 La1 2.516154 1_555
F7 La3 2.624757 1_555
F7 La4 2.852225 1_655
F8 La3 2.423748 1_555
F8 La2 2.570133 1_555
F8 La1 2.735875 1_555
F8 Sr0 2.885459 1_555
F9 La0 2.387560 1_554
F9 La1 2.647264 1_555
F9 La2 2.709232 1_565
F9 Sr0 3.013765 1_665
F10 La3 2.351008 1_554
F10 Sr0 2.594707 1_555
F10 La1 2.816482 1_555
F11 La2 2.410400 1_565
F11 La1 2.419771 1_455
F11 Sr0 2.548830 1_565
F12 La0 2.361653 1_555
F12 La4 2.439249 1_555
F12 La3 2.470526 1_555
F13 La1 2.394578 1_555
F13 La2 2.405635 1_565
F13 Sr0 2.494229 1_555
F14 La3 2.500616 1_555
F14 Sr0 2.557783 1_555
F14 La4 2.651144 1_555
F14 La0 2.965442 1_445
F15 La4 2.502124 1_555
F15 La2 2.510691 1_565
F15 La0 2.566432 1_555
F15 La3 2.909548 1_565
F16 La4 2.372709 1_554
F16 La2 2.661761 1_565
F16 Sr0 2.728133 1_555
F16 La1 2.993313 1_455
