# generated using pymatgen
data_TeHO3
_symmetry_space_group_name_H-M   'P 1'
_cell_length_a   8.27137800
_cell_length_b   4.91138600
_cell_length_c   12.06611057
_cell_angle_alpha   87.67387459
_cell_angle_beta   90.00000000
_cell_angle_gamma   90.00000000
_symmetry_Int_Tables_number   1
_chemical_formula_structural   TeHO3
_chemical_formula_sum   'Te8 H8 O24'
_cell_volume   489.76892623
_cell_formula_units_Z   8
loop_
 _symmetry_equiv_pos_site_id
 _symmetry_equiv_pos_as_xyz
  1  'x, y, z'
loop_
 _atom_site_type_symbol
 _atom_site_label
 _atom_site_symmetry_multiplicity
 _atom_site_fract_x
 _atom_site_fract_y
 _atom_site_fract_z
 _atom_site_occupancy
  Te  Te0  1  0.69932300  0.98684300  0.38550900  1
  Te  Te1  1  0.78136200  0.48540800  0.60657100  1
  Te  Te2  1  0.21863800  0.48540800  0.10657100  1
  Te  Te3  1  0.30067700  0.98684300  0.88550900  1
  Te  Te4  1  0.59753800  0.87728800  0.08225300  1
  Te  Te5  1  0.91226400  0.31720300  0.92861900  1
  Te  Te6  1  0.08773600  0.31720300  0.42861900  1
  Te  Te7  1  0.40246200  0.87728800  0.58225300  1
  H  H0  1  0.64211000  0.21297800  0.75657300  1
  H  H1  1  0.35789000  0.21297800  0.25657300  1
  H  H2  1  0.76926800  0.51011000  0.14291900  1
  H  H3  1  0.23073200  0.51011000  0.64291900  1
  H  H4  1  0.60772500  0.44100400  0.29840800  1
  H  H5  1  0.88326900  0.88204900  0.70141500  1
  H  H6  1  0.11673100  0.88204900  0.20141500  1
  H  H7  1  0.39227500  0.44100400  0.79840800  1
  O  O0  1  0.70326000  0.75524500  0.26475100  1
  O  O1  1  0.75828600  0.21861900  0.73332200  1
  O  O2  1  0.24171400  0.21861900  0.23332200  1
  O  O3  1  0.29674000  0.75524500  0.76475100  1
  O  O4  1  0.70816900  0.52270000  0.07272000  1
  O  O5  1  0.80116600  0.99600700  0.96685700  1
  O  O6  1  0.19883400  0.99600700  0.46685700  1
  O  O7  1  0.29183100  0.52270000  0.57272000  1
  O  O8  1  0.59265900  0.67431200  0.65490200  1
  O  O9  1  0.90319400  0.17205400  0.34473800  1
  O  O10  1  0.09680600  0.17205400  0.84473800  1
  O  O11  1  0.40734100  0.67431200  0.15490200  1
  O  O12  1  0.65421500  0.23257400  0.51477800  1
  O  O13  1  0.83524000  0.73102600  0.47835300  1
  O  O14  1  0.16476000  0.73102600  0.97835300  1
  O  O15  1  0.34578500  0.23257400  0.01477800  1
  O  O16  1  0.50270600  0.80164500  0.43798400  1
  O  O17  1  0.97517100  0.28052400  0.57185700  1
  O  O18  1  0.02482900  0.28052400  0.07185700  1
  O  O19  1  0.49729400  0.80164500  0.93798400  1
  O  O20  1  0.57029200  0.24640400  0.29476200  1
  O  O21  1  0.92003300  0.69017800  0.70218900  1
  O  O22  1  0.07996700  0.69017800  0.20218900  1
  O  O23  1  0.42970800  0.24640400  0.79476200  1
loop_
_geom_bond_atom_site_label_1
_geom_bond_atom_site_label_2
_geom_bond_distance
_geom_bond_site_symmetry_2
H0 O1 1.001120 1_555
H1 O2 1.001120 1_555
H2 O4 0.986119 1_555
H3 O7 0.986119 1_555
H4 O20 1.007315 1_555
H5 O21 0.989884 1_555
H6 O22 0.989884 1_555
H7 O23 1.007315 1_555
O0 Te0 1.884810 1_555
O0 Te4 2.421944 1_555
O1 Te1 1.982346 1_555
O2 Te2 1.982346 1_555
O3 Te3 1.884810 1_555
O3 Te7 2.421944 1_555
O4 Te4 1.974774 1_555
O5 Te5 1.867296 1_565
O5 Te4 2.247134 1_556
O6 Te6 1.867296 1_565
O6 Te7 2.247134 1_555
O7 Te7 1.974774 1_555
O8 Te1 1.918589 1_555
O8 Te7 2.041128 1_555
O9 Te0 1.968940 1_545
O9 Te6 1.980177 1_655
O10 Te3 1.968940 1_545
O10 Te5 1.980177 1_455
O11 Te2 1.918589 1_555
O11 Te4 2.041128 1_555
O12 Te1 1.996598 1_555
O12 Te0 2.044864 1_545
O13 Te1 1.973783 1_555
O13 Te0 1.995794 1_555
O14 Te2 1.973783 1_556
O14 Te3 1.995794 1_555
O15 Te2 1.996598 1_555
O15 Te3 2.044864 1_544
O16 Te0 1.956098 1_555
O16 Te7 1.976938 1_555
O17 Te1 1.947320 1_555
O17 Te6 1.964987 1_655
O18 Te2 1.947320 1_555
O18 Te5 1.964987 1_454
O19 Te3 1.956098 1_555
O19 Te4 1.976938 1_556
O20 Te0 1.962094 1_545
O21 Te1 1.937098 1_555
O22 Te2 1.937098 1_555
O23 Te3 1.962094 1_545
