# generated using pymatgen
data_ZnH8(CO2)4
_symmetry_space_group_name_H-M   'P 1'
_cell_length_a   8.10423046
_cell_length_b   8.10423046
_cell_length_c   6.82767854
_cell_angle_alpha   84.79841089
_cell_angle_beta   84.79841089
_cell_angle_gamma   111.90067612
_symmetry_Int_Tables_number   1
_chemical_formula_structural   ZnH8(CO2)4
_chemical_formula_sum   'Zn2 H16 C8 O16'
_cell_volume   410.57910394
_cell_formula_units_Z   2
loop_
 _symmetry_equiv_pos_site_id
 _symmetry_equiv_pos_as_xyz
  1  'x, y, z'
loop_
 _atom_site_type_symbol
 _atom_site_label
 _atom_site_symmetry_multiplicity
 _atom_site_fract_x
 _atom_site_fract_y
 _atom_site_fract_z
 _atom_site_occupancy
  Zn  Zn0  1  0.50000000  0.00000000  0.50000000  1
  Zn  Zn1  1  0.00000000  0.50000000  0.00000000  1
  H  H0  1  0.13990100  0.44439900  0.62798400  1
  H  H1  1  0.55560100  0.86009900  0.87201600  1
  H  H2  1  0.86009900  0.55560100  0.37201600  1
  H  H3  1  0.44439900  0.13990100  0.12798400  1
  H  H4  1  0.15852700  0.64985600  0.61955300  1
  H  H5  1  0.35014400  0.84147300  0.88044700  1
  H  H6  1  0.84147300  0.35014400  0.38044700  1
  H  H7  1  0.64985600  0.15852700  0.11955300  1
  H  H8  1  0.41041300  0.28333900  0.54752500  1
  H  H9  1  0.71666100  0.58958700  0.95247500  1
  H  H10  1  0.58958700  0.71666100  0.45247500  1
  H  H11  1  0.28333900  0.41041300  0.04752500  1
  H  H12  1  0.76424700  0.51682000  0.75865900  1
  H  H13  1  0.48318000  0.23575300  0.74134100  1
  H  H14  1  0.23575300  0.48318000  0.24134100  1
  H  H15  1  0.51682000  0.76424700  0.25865900  1
  C  C0  1  0.89886500  0.04916400  0.49555000  1
  C  C1  1  0.95083600  0.10113500  0.00445000  1
  C  C2  1  0.10113500  0.95083600  0.50445000  1
  C  C3  1  0.04916400  0.89886500  0.99555000  1
  C  C4  1  0.09399300  0.13081300  0.49745900  1
  C  C5  1  0.86918800  0.90600700  0.00254100  1
  C  C6  1  0.90600700  0.86918700  0.50254100  1
  C  C7  1  0.13081300  0.09399300  0.99745900  1
  O  O0  1  0.46979500  0.89370100  0.79994000  1
  O  O1  1  0.10629900  0.53020500  0.70006000  1
  O  O2  1  0.53020500  0.10629900  0.20006000  1
  O  O3  1  0.89370100  0.46979500  0.29994000  1
  O  O4  1  0.50745300  0.24904500  0.59615800  1
  O  O5  1  0.75095500  0.49254700  0.90384200  1
  O  O6  1  0.49254700  0.75095500  0.40384200  1
  O  O7  1  0.24904500  0.50745300  0.09615800  1
  O  O8  1  0.78054700  0.11565800  0.48940800  1
  O  O9  1  0.88434200  0.21945300  0.01059200  1
  O  O10  1  0.21945300  0.88434200  0.51059200  1
  O  O11  1  0.11565800  0.78054700  0.98940800  1
  O  O12  1  0.20595300  0.28963600  0.49606900  1
  O  O13  1  0.71036400  0.79404700  0.00393100  1
  O  O14  1  0.79404700  0.71036400  0.50393100  1
  O  O15  1  0.28963600  0.20595300  0.99606900  1
loop_
_geom_bond_atom_site_label_1
_geom_bond_atom_site_label_2
_geom_bond_distance
_geom_bond_site_symmetry_2
H0 O1 0.989404 1_555
H1 O0 0.989404 1_555
H2 O3 0.989404 1_555
H3 O2 0.989404 1_555
H4 O1 0.988212 1_555
H5 O0 0.988212 1_555
H6 O3 0.988212 1_555
H7 O2 0.988212 1_555
H8 O4 0.999825 1_555
H9 O5 0.999825 1_555
H10 O6 0.999825 1_555
H11 O7 0.999825 1_555
H12 O5 0.981008 1_555
H13 O4 0.981008 1_555
H14 O7 0.981008 1_555
H15 O6 0.981008 1_555
C0 O8 1.265015 1_555
C1 O9 1.265015 1_555
C2 O10 1.265015 1_555
C3 O11 1.265015 1_555
C4 O12 1.266919 1_555
C5 O13 1.266925 1_555
C6 O14 1.266919 1_555
C7 O15 1.266919 1_555
O0 Zn0 2.104240 1_565
O1 Zn1 2.104240 1_556
O2 Zn0 2.104240 1_555
O3 Zn1 2.104240 1_655
O4 Zn0 2.159817 1_555
O5 Zn1 2.159817 1_656
O6 Zn0 2.159817 1_565
O7 Zn1 2.159817 1_555
O8 Zn0 2.102672 1_555
O9 Zn1 2.102672 1_655
O10 Zn0 2.102672 1_565
O11 Zn1 2.102672 1_556
