# generated using pymatgen
data_PC2S2N3
_symmetry_space_group_name_H-M   'P 1'
_cell_length_a   35.07359000
_cell_length_b   8.11208800
_cell_length_c   13.88525088
_cell_angle_alpha   78.06641305
_cell_angle_beta   90.00000000
_cell_angle_gamma   90.00000000
_symmetry_Int_Tables_number   1
_chemical_formula_structural   PC2S2N3
_chemical_formula_sum   'P24 C48 S48 N72'
_cell_volume   3865.25095188
_cell_formula_units_Z   24
loop_
 _symmetry_equiv_pos_site_id
 _symmetry_equiv_pos_as_xyz
  1  'x, y, z'
loop_
 _atom_site_type_symbol
 _atom_site_label
 _atom_site_symmetry_multiplicity
 _atom_site_fract_x
 _atom_site_fract_y
 _atom_site_fract_z
 _atom_site_occupancy
  P  P0  1  0.27979500  0.90294400  0.46568500  1
  P  P1  1  0.96636500  0.97005400  0.27231300  1
  P  P2  1  0.28422100  0.78919600  0.87957300  1
  P  P3  1  0.78072700  0.11783700  0.23051400  1
  P  P4  1  0.71577900  0.21080400  0.12042700  1
  P  P5  1  0.02744600  0.84579600  0.18154000  1
  P  P6  1  0.97255400  0.15420400  0.81846000  1
  P  P7  1  0.77979500  0.09705600  0.03431500  1
  P  P8  1  0.03671600  0.92205400  0.36650700  1
  P  P9  1  0.46328400  0.92205400  0.86650700  1
  P  P10  1  0.03363500  0.02994600  0.72768700  1
  P  P11  1  0.22020500  0.90294400  0.96568500  1
  P  P12  1  0.53671600  0.07794600  0.13349300  1
  P  P13  1  0.28072700  0.88216300  0.26948600  1
  P  P14  1  0.46636500  0.02994600  0.22768700  1
  P  P15  1  0.53363500  0.97005400  0.77231300  1
  P  P16  1  0.21927300  0.88216300  0.76948600  1
  P  P17  1  0.71927300  0.11783700  0.73051400  1
  P  P18  1  0.52744600  0.15420400  0.31846000  1
  P  P19  1  0.78422100  0.21080400  0.62042700  1
  P  P20  1  0.47255400  0.84579600  0.68154000  1
  P  P21  1  0.72020500  0.09705600  0.53431500  1
  P  P22  1  0.96328400  0.07794600  0.63349300  1
  P  P23  1  0.21577900  0.78919600  0.37957300  1
  C  C0  1  0.89972900  0.77873200  0.30909700  1
  C  C1  1  0.26569000  0.21507000  0.18983300  1
  C  C2  1  0.57445500  0.00592800  0.47389300  1
  C  C3  1  0.46656500  0.51539800  0.64395100  1
  C  C4  1  0.42713000  0.21485100  0.89474600  1
  C  C5  1  0.03440000  0.67213300  0.53746500  1
  C  C6  1  0.73431000  0.78493000  0.81016700  1
  C  C7  1  0.06907300  0.72878600  0.82160100  1
  C  C8  1  0.83587700  0.19440600  0.35105700  1
  C  C9  1  0.19481100  0.45216300  0.42932700  1
  C  C10  1  0.92554500  0.00592800  0.97389300  1
  C  C11  1  0.29526000  0.23257400  0.46866900  1
  C  C12  1  0.10027100  0.22126800  0.69090300  1
  C  C13  1  0.33587700  0.80559400  0.14894300  1
  C  C14  1  0.16412300  0.80559400  0.64894300  1
  C  C15  1  0.42554500  0.99407200  0.52610700  1
  C  C16  1  0.66335300  0.98924100  0.21865300  1
  C  C17  1  0.53440000  0.32786700  0.96253500  1
  C  C18  1  0.57287000  0.78514900  0.10525400  1
  C  C19  1  0.32837300  0.71421400  0.60734600  1
  C  C20  1  0.56907300  0.27121400  0.67839900  1
  C  C21  1  0.82837300  0.28578600  0.89265400  1
  C  C22  1  0.92713000  0.78514900  0.60525400  1
  C  C23  1  0.96656500  0.48460200  0.85604900  1
  C  C24  1  0.20474000  0.23257400  0.96866900  1
  C  C25  1  0.53343500  0.48460200  0.35604900  1
  C  C26  1  0.16335300  0.01075900  0.28134700  1
  C  C27  1  0.46560000  0.67213300  0.03746500  1
  C  C28  1  0.17162700  0.71421400  0.10734600  1
  C  C29  1  0.83664700  0.98924100  0.71865300  1
  C  C30  1  0.67162700  0.28578600  0.39265400  1
  C  C31  1  0.70474000  0.76742600  0.53133100  1
  C  C32  1  0.03343500  0.51539800  0.14395100  1
  C  C33  1  0.43092700  0.72878600  0.32160100  1
  C  C34  1  0.07445500  0.99407200  0.02610700  1
  C  C35  1  0.93092700  0.27121400  0.17839900  1
  C  C36  1  0.76569000  0.78493000  0.31016700  1
  C  C37  1  0.79526000  0.76742600  0.03133100  1
  C  C38  1  0.39972900  0.22126800  0.19090300  1
  C  C39  1  0.30518900  0.45216300  0.92932700  1
  C  C40  1  0.80518900  0.54783700  0.57067300  1
  C  C41  1  0.23431000  0.21507000  0.68983300  1
  C  C42  1  0.96560000  0.32786700  0.46253500  1
  C  C43  1  0.60027100  0.77873200  0.80909700  1
  C  C44  1  0.66412300  0.19440600  0.85105700  1
  C  C45  1  0.07287000  0.21485100  0.39474600  1
  C  C46  1  0.33664700  0.01075900  0.78134700  1
  C  C47  1  0.69481100  0.54783700  0.07067300  1
  S  S0  1  0.89215200  0.94135300  0.04584500  1
  S  S1  1  0.96096700  0.66266800  0.88024000  1
  S  S2  1  0.08519900  0.39658700  0.40191800  1
  S  S3  1  0.52377400  0.46257200  0.86912800  1
  S  S4  1  0.60784800  0.94135300  0.54584500  1
  S  S5  1  0.25466800  0.40411800  0.18033500  1
  S  S6  1  0.12972500  0.82371500  0.57679100  1
  S  S7  1  0.03903300  0.33733200  0.11976000  1
  S  S8  1  0.19053200  0.41787300  0.93610500  1
  S  S9  1  0.24533200  0.40411800  0.68033500  1
  S  S10  1  0.30946800  0.41787300  0.43610500  1
  S  S11  1  0.64452900  0.85416700  0.30091400  1
  S  S12  1  0.58519900  0.60341300  0.09808200  1
  S  S13  1  0.02377400  0.53742800  0.63087200  1
  S  S14  1  0.47622600  0.53742800  0.13087200  1
  S  S15  1  0.69132100  0.74316500  0.05400400  1
  S  S16  1  0.53903300  0.66266800  0.38024000  1
  S  S17  1  0.37027500  0.82371500  0.07679100  1
  S  S18  1  0.36079200  0.62371600  0.67534800  1
  S  S19  1  0.85547100  0.85416700  0.80091400  1
  S  S20  1  0.63920800  0.37628400  0.32465200  1
  S  S21  1  0.75466800  0.59588200  0.31966500  1
  S  S22  1  0.13920800  0.62371600  0.17534800  1
  S  S23  1  0.41009600  0.57488800  0.38584000  1
  S  S24  1  0.80867900  0.74316500  0.55400400  1
  S  S25  1  0.36260500  0.32580000  0.19329700  1
  S  S26  1  0.86260500  0.67420000  0.30670300  1
  S  S27  1  0.80946800  0.58212700  0.06389500  1
  S  S28  1  0.62972500  0.17628500  0.92320900  1
  S  S29  1  0.87027500  0.17628500  0.42320900  1
  S  S30  1  0.10784800  0.05864700  0.95415500  1
  S  S31  1  0.74533200  0.59588200  0.81966500  1
  S  S32  1  0.13739500  0.32580000  0.69329700  1
  S  S33  1  0.39215200  0.05864700  0.45415500  1
  S  S34  1  0.19132100  0.25683500  0.44599600  1
  S  S35  1  0.63739500  0.67420000  0.80670300  1
  S  S36  1  0.69053200  0.58212700  0.56389500  1
  S  S37  1  0.58990400  0.42511200  0.61416000  1
  S  S38  1  0.30867900  0.25683500  0.94599600  1
  S  S39  1  0.14452900  0.14583300  0.19908600  1
  S  S40  1  0.91480100  0.60341300  0.59808200  1
  S  S41  1  0.08990400  0.57488800  0.88584000  1
  S  S42  1  0.46096700  0.33733200  0.61976000  1
  S  S43  1  0.41480100  0.39658700  0.90191800  1
  S  S44  1  0.97622600  0.46257200  0.36912800  1
  S  S45  1  0.35547100  0.14583300  0.69908600  1
  S  S46  1  0.91009600  0.42511200  0.11416000  1
  S  S47  1  0.86079200  0.37628400  0.82465200  1
  N  N0  1  0.00671500  0.01829700  0.63654100  1
  N  N1  1  0.45507300  0.77413800  0.96592700  1
  N  N2  1  0.69553000  0.39584700  0.08020600  1
  N  N3  1  0.98393000  0.90248500  0.18164300  1
  N  N4  1  0.19809200  0.78078600  0.05846400  1
  N  N5  1  0.01607000  0.09751500  0.81835700  1
  N  N6  1  0.05276500  0.84362200  0.76794600  1
  N  N7  1  0.55357000  0.14298200  0.22604600  1
  N  N8  1  0.77490700  0.93056700  0.30653900  1
  N  N9  1  0.72509300  0.93056700  0.80653900  1
  N  N10  1  0.26409200  0.84912800  0.97001900  1
  N  N11  1  0.24087600  0.78438600  0.28381200  1
  N  N12  1  0.69117600  0.21793200  0.79492400  1
  N  N13  1  0.48393000  0.09751500  0.31835700  1
  N  N14  1  0.94723500  0.15637800  0.23205400  1
  N  N15  1  0.51607000  0.90248500  0.68164300  1
  N  N16  1  0.76409200  0.15087200  0.52998100  1
  N  N17  1  0.05357000  0.85701800  0.27395400  1
  N  N18  1  0.45290900  0.95008200  0.57863800  1
  N  N19  1  0.75912400  0.21561400  0.71618800  1
  N  N20  1  0.04492700  0.77413800  0.46592700  1
  N  N21  1  0.32308100  0.90691800  0.84865900  1
  N  N22  1  0.80317100  0.09383200  0.13374600  1
  N  N23  1  0.07143000  0.14220900  0.68399800  1
  N  N24  1  0.78353100  0.91016600  0.00248800  1
  N  N25  1  0.47151400  0.65125100  0.66429100  1
  N  N26  1  0.17691900  0.90691800  0.34865900  1
  N  N27  1  0.54709100  0.04991800  0.42136200  1
  N  N28  1  0.80447000  0.39584700  0.58020600  1
  N  N29  1  0.71646900  0.91016600  0.50248800  1
  N  N30  1  0.42857000  0.14220900  0.18399800  1
  N  N31  1  0.19117600  0.78206800  0.70507600  1
  N  N32  1  0.44643000  0.85701800  0.77395400  1
  N  N33  1  0.21646900  0.08983400  0.99751200  1
  N  N34  1  0.80882400  0.21793200  0.29492400  1
  N  N35  1  0.06514000  0.07099700  0.39026800  1
  N  N36  1  0.30317100  0.90616800  0.36625400  1
  N  N37  1  0.73590800  0.15087200  0.02998100  1
  N  N38  1  0.55276500  0.15637800  0.73205400  1
  N  N39  1  0.69809200  0.21921400  0.44153600  1
  N  N40  1  0.99328500  0.98170300  0.36345900  1
  N  N41  1  0.52848600  0.34874900  0.33570900  1
  N  N42  1  0.23590800  0.84912800  0.47001900  1
  N  N43  1  0.43486000  0.07099700  0.89026800  1
  N  N44  1  0.30190800  0.78078600  0.55846400  1
  N  N45  1  0.80190800  0.21921400  0.94153600  1
  N  N46  1  0.92857000  0.85779100  0.31600200  1
  N  N47  1  0.19553000  0.60415300  0.41979400  1
  N  N48  1  0.25912400  0.78438600  0.78381200  1
  N  N49  1  0.82308100  0.09308200  0.65134100  1
  N  N50  1  0.28353100  0.08983400  0.49751200  1
  N  N51  1  0.04709100  0.95008200  0.07863800  1
  N  N52  1  0.30882400  0.78206800  0.20507600  1
  N  N53  1  0.50671500  0.98170300  0.86345900  1
  N  N54  1  0.95507300  0.22586200  0.53407300  1
  N  N55  1  0.74087600  0.21561400  0.21618800  1
  N  N56  1  0.93486000  0.92900300  0.60973200  1
  N  N57  1  0.94643000  0.14298200  0.72604600  1
  N  N58  1  0.56514000  0.92900300  0.10973200  1
  N  N59  1  0.27490700  0.06943300  0.19346100  1
  N  N60  1  0.44723500  0.84362200  0.26794600  1
  N  N61  1  0.97151400  0.34874900  0.83570900  1
  N  N62  1  0.67691900  0.09308200  0.15134100  1
  N  N63  1  0.19682900  0.90616800  0.86625400  1
  N  N64  1  0.49328500  0.01829700  0.13654100  1
  N  N65  1  0.57143000  0.85779100  0.81600200  1
  N  N66  1  0.69682900  0.09383200  0.63374600  1
  N  N67  1  0.02848600  0.65125100  0.16429100  1
  N  N68  1  0.22509300  0.06943300  0.69346100  1
  N  N69  1  0.30447000  0.60415300  0.91979400  1
  N  N70  1  0.54492700  0.22586200  0.03407300  1
  N  N71  1  0.95290900  0.04991800  0.92136200  1
loop_
_geom_bond_atom_site_label_1
_geom_bond_atom_site_label_2
_geom_bond_distance
_geom_bond_site_symmetry_2
C0 N46 1.212097 1_555
C0 S26 1.557951 1_555
C1 N59 1.215806 1_555
C1 S5 1.560463 1_555
C2 N27 1.213614 1_555
C2 S4 1.558157 1_545
C3 N25 1.205458 1_555
C3 S42 1.561595 1_555
C4 N43 1.212092 1_555
C4 S43 1.559186 1_555
C5 N20 1.211530 1_555
C5 S13 1.558531 1_555
C6 N9 1.215806 1_555
C6 S31 1.560463 1_555
C7 N6 1.209542 1_555
C7 S41 1.558039 1_555
C8 N34 1.217666 1_555
C8 S29 1.555620 1_555
C9 N47 1.212784 1_555
C9 S34 1.558070 1_555
C10 N71 1.213614 1_555
C10 S0 1.558157 1_546
C11 N50 1.215986 1_555
C11 S10 1.559228 1_555
C12 N23 1.212097 1_555
C12 S32 1.557951 1_555
C13 N52 1.217666 1_555
C13 S17 1.555620 1_555
C14 N31 1.217666 1_555
C14 S6 1.555620 1_555
C15 N18 1.213614 1_555
C15 S33 1.558157 1_565
C16 N62 1.218170 1_565
C16 S11 1.556789 1_555
C17 N70 1.211530 1_556
C17 S3 1.558531 1_555
C18 N58 1.212092 1_555
C18 S12 1.559186 1_555
C19 N44 1.209272 1_555
C19 S18 1.560999 1_555
C20 N38 1.209542 1_555
C20 S37 1.558039 1_555
C21 N45 1.209272 1_555
C21 S47 1.560999 1_555
C22 N56 1.212092 1_555
C22 S40 1.559186 1_555
C23 N61 1.205458 1_555
C23 S1 1.561595 1_555
C24 N33 1.215986 1_555
C24 S8 1.559228 1_555
C25 N41 1.205458 1_555
C25 S16 1.561595 1_555
C26 N26 1.218170 1_545
C26 S39 1.556789 1_555
C27 N1 1.211530 1_554
C27 S14 1.558531 1_555
C28 N4 1.209272 1_555
C28 S22 1.560999 1_555
C29 N49 1.218170 1_565
C29 S19 1.556789 1_555
C30 N39 1.209272 1_555
C30 S20 1.560999 1_555
C31 N29 1.215986 1_555
C31 S36 1.559228 1_555
C32 N67 1.205458 1_555
C32 S7 1.561595 1_555
C33 N60 1.209542 1_555
C33 S23 1.558039 1_555
C34 N51 1.213614 1_555
C34 S30 1.558157 1_564
C35 N14 1.209542 1_555
C35 S46 1.558039 1_555
C36 N8 1.215806 1_555
C36 S21 1.560463 1_555
C37 N24 1.215986 1_555
C37 S27 1.559228 1_555
C38 N30 1.212097 1_555
C38 S25 1.557951 1_555
C39 N69 1.212784 1_555
C39 S38 1.558070 1_555
C40 N28 1.212784 1_555
C40 S24 1.558070 1_555
C41 N68 1.215806 1_555
C41 S9 1.560463 1_555
C42 N54 1.211530 1_555
C42 S44 1.558531 1_555
C43 N65 1.212097 1_555
C43 S35 1.557951 1_555
C44 N12 1.217666 1_555
C44 S28 1.555620 1_555
C45 N35 1.212092 1_555
C45 S2 1.559186 1_555
C46 N21 1.218170 1_545
C46 S45 1.556789 1_555
C47 N2 1.212784 1_555
C47 S15 1.558070 1_555
N0 P22 1.596197 1_455
N0 P10 1.597364 1_555
N1 P9 1.656318 1_555
N2 P4 1.650107 1_555
N3 P5 1.594123 1_655
N3 P1 1.596993 1_555
N4 P11 1.647782 1_554
N5 P6 1.594123 1_455
N5 P10 1.596993 1_555
N6 P10 1.642501 1_565
N7 P18 1.594589 1_555
N7 P12 1.599907 1_555
N8 P3 1.673509 1_565
N9 P17 1.673509 1_565
N10 P11 1.597720 1_555
N10 P2 1.601405 1_555
N11 P13 1.599081 1_555
N11 P23 1.601816 1_555
N12 P17 1.652461 1_555
N13 P18 1.594123 1_555
N13 P14 1.596993 1_555
N14 P1 1.642501 1_545
N15 P20 1.594123 1_555
N15 P15 1.596993 1_555
N16 P21 1.597720 1_555
N16 P19 1.601405 1_555
N17 P5 1.594589 1_555
N17 P8 1.599907 1_555
N18 P20 1.652897 1_555
N19 P17 1.599081 1_555
N19 P19 1.601816 1_555
N20 P8 1.656318 1_555
N21 P2 1.668640 1_555
N22 P7 1.601274 1_555
N22 P3 1.603492 1_555
N23 P10 1.651096 1_555
N24 P7 1.669733 1_565
N25 P20 1.644876 1_555
N26 P23 1.668640 1_555
N27 P18 1.652897 1_555
N28 P19 1.650107 1_555
N29 P21 1.669733 1_565
N30 P14 1.651096 1_555
N31 P16 1.652461 1_555
N32 P20 1.594589 1_555
N32 P9 1.599907 1_555
N33 P11 1.669733 1_545
N34 P3 1.652461 1_555
N35 P8 1.651491 1_545
N36 P0 1.601274 1_555
N36 P13 1.603492 1_555
N37 P7 1.597720 1_555
N37 P4 1.601405 1_555
N38 P15 1.642501 1_545
N39 P21 1.647782 1_555
N40 P8 1.596197 1_655
N40 P1 1.597364 1_555
N41 P18 1.644876 1_555
N42 P0 1.597720 1_555
N42 P23 1.601405 1_555
N43 P9 1.651491 1_545
N44 P0 1.647782 1_555
N45 P7 1.647782 1_556
N46 P1 1.651096 1_555
N47 P23 1.650107 1_555
N48 P16 1.599081 1_555
N48 P2 1.601816 1_555
N49 P19 1.668640 1_555
N50 P0 1.669733 1_545
N51 P5 1.652897 1_555
N52 P13 1.652461 1_555
N53 P9 1.596197 1_555
N53 P15 1.597364 1_555
N54 P22 1.656318 1_555
N55 P3 1.599081 1_555
N55 P4 1.601816 1_555
N56 P22 1.651491 1_565
N57 P6 1.594589 1_555
N57 P22 1.599907 1_555
N58 P12 1.651491 1_565
N59 P13 1.673509 1_545
N60 P14 1.642501 1_565
N61 P6 1.644876 1_555
N62 P4 1.668640 1_555
N63 P11 1.601274 1_555
N63 P16 1.603492 1_555
N64 P12 1.596197 1_555
N64 P14 1.597364 1_555
N65 P15 1.651096 1_555
N66 P21 1.601274 1_555
N66 P17 1.603492 1_555
N67 P5 1.644876 1_555
N68 P16 1.673509 1_545
N69 P2 1.650107 1_555
N70 P12 1.656318 1_555
N71 P6 1.652897 1_555
