# generated using pymatgen
data_NaIn(MoO4)2
_symmetry_space_group_name_H-M   'P 1'
_cell_length_a   7.28533300
_cell_length_b   7.29128389
_cell_length_c   15.06391775
_cell_angle_alpha   92.00528379
_cell_angle_beta   92.01778798
_cell_angle_gamma   99.11317623
_symmetry_Int_Tables_number   1
_chemical_formula_structural   NaIn(MoO4)2
_chemical_formula_sum   'Na4 In4 Mo8 O32'
_cell_volume   788.92882984
_cell_formula_units_Z   4
loop_
 _symmetry_equiv_pos_site_id
 _symmetry_equiv_pos_as_xyz
  1  'x, y, z'
loop_
 _atom_site_type_symbol
 _atom_site_label
 _atom_site_symmetry_multiplicity
 _atom_site_fract_x
 _atom_site_fract_y
 _atom_site_fract_z
 _atom_site_occupancy
  Na  Na0  1  0.48164400  0.31770900  0.12639000  1
  Na  Na1  1  0.51835600  0.68229100  0.87361000  1
  Na  Na2  1  0.03696900  0.69517000  0.62012700  1
  Na  Na3  1  0.96303100  0.30483000  0.37987300  1
  In  In0  1  0.32364100  0.69332700  0.38935600  1
  In  In1  1  0.67635900  0.30667300  0.61064400  1
  In  In2  1  0.81383600  0.72099500  0.08639900  1
  In  In3  1  0.18616400  0.27900500  0.91360100  1
  Mo  Mo0  1  0.47141600  0.23702800  0.38258900  1
  Mo  Mo1  1  0.52858400  0.76297200  0.61741100  1
  Mo  Mo2  1  0.33504800  0.76919500  0.13901300  1
  Mo  Mo3  1  0.95174100  0.24653300  0.11428200  1
  Mo  Mo4  1  0.04825900  0.75346700  0.88571800  1
  Mo  Mo5  1  0.84301300  0.76771100  0.34931200  1
  Mo  Mo6  1  0.15698700  0.23228900  0.65068800  1
  Mo  Mo7  1  0.66495200  0.23080500  0.86098700  1
  O  O0  1  0.61885600  0.68010700  0.39144400  1
  O  O1  1  0.41781200  0.71298700  0.71698600  1
  O  O2  1  0.39710500  0.00738600  0.15656300  1
  O  O3  1  0.34083100  0.71860400  0.53224400  1
  O  O4  1  0.38114400  0.31989300  0.60855600  1
  O  O5  1  0.70412100  0.61328200  0.60179400  1
  O  O6  1  0.97876000  0.36538900  0.60973000  1
  O  O7  1  0.82617000  0.75710100  0.22960300  1
  O  O8  1  0.01578600  0.24033000  0.22623600  1
  O  O9  1  0.31628400  0.66069200  0.24492500  1
  O  O10  1  0.88843100  0.27215600  0.92083400  1
  O  O11  1  0.17264100  0.30544500  0.05819400  1
  O  O12  1  0.48767400  0.32480800  0.92520300  1
  O  O13  1  0.82671800  0.02001000  0.07941400  1
  O  O14  1  0.90664900  0.99551900  0.38922100  1
  O  O15  1  0.11156900  0.72784400  0.07916600  1
  O  O16  1  0.36170900  0.99643000  0.38186400  1
  O  O17  1  0.58218800  0.28701300  0.28301400  1
  O  O18  1  0.65916900  0.28139600  0.46775600  1
  O  O19  1  0.60289500  0.99261400  0.84343700  1
  O  O20  1  0.20239300  0.57970100  0.89743800  1
  O  O21  1  0.02124000  0.63461100  0.39027000  1
  O  O22  1  0.79760700  0.42029900  0.10256200  1
  O  O23  1  0.68371600  0.33930800  0.75507500  1
  O  O24  1  0.98421400  0.75967000  0.77376400  1
  O  O25  1  0.63829100  0.00357000  0.61813600  1
  O  O26  1  0.17328200  0.97999000  0.92058600  1
  O  O27  1  0.51232600  0.67519200  0.07479700  1
  O  O28  1  0.29587900  0.38671800  0.39820600  1
  O  O29  1  0.09335100  0.00448100  0.61077900  1
  O  O30  1  0.17383000  0.24289900  0.77039700  1
  O  O31  1  0.82735900  0.69455500  0.94180600  1
loop_
_geom_bond_atom_site_label_1
_geom_bond_atom_site_label_2
_geom_bond_distance
_geom_bond_site_symmetry_2
Na0 O2 2.314253 1_555
Na0 O22 2.349177 1_555
Na0 O11 2.428609 1_555
Na0 O17 2.473957 1_555
Na0 O27 2.723478 1_555
Na1 O19 2.314253 1_555
Na1 O20 2.349177 1_555
Na1 O31 2.428609 1_555
Na1 O1 2.473957 1_555
Na1 O12 2.723478 1_555
Na2 O29 2.237781 1_565
Na2 O6 2.373199 1_455
Na2 O24 2.401862 1_455
Na2 O5 2.407407 1_455
Na2 O3 2.604769 1_555
Na3 O14 2.237781 1_545
Na3 O21 2.373199 1_655
Na3 O8 2.401862 1_655
Na3 O28 2.407407 1_655
Na3 O18 2.604769 1_555
In0 O3 2.151430 1_555
In0 O0 2.167275 1_555
In0 O21 2.177353 1_555
In0 O9 2.178226 1_555
In0 O16 2.190731 1_555
In0 O28 2.221710 1_555
In1 O18 2.151430 1_555
In1 O4 2.167275 1_555
In1 O6 2.177353 1_555
In1 O23 2.178226 1_555
In1 O25 2.190731 1_555
In1 O5 2.221710 1_555
In2 O7 2.161032 1_555
In2 O15 2.168410 1_655
In2 O27 2.168786 1_555
In2 O13 2.173730 1_565
In2 O31 2.186983 1_554
In2 O22 2.199412 1_555
In3 O30 2.161032 1_555
In3 O10 2.168410 1_455
In3 O12 2.168786 1_555
In3 O26 2.173730 1_545
In3 O11 2.186983 1_556
In3 O20 2.199412 1_555
Mo0 O17 1.750542 1_555
Mo0 O16 1.808392 1_545
Mo0 O28 1.824108 1_555
Mo0 O18 1.824503 1_555
Mo1 O1 1.750542 1_555
Mo1 O25 1.808392 1_565
Mo1 O5 1.824108 1_555
Mo1 O3 1.824503 1_555
Mo2 O2 1.732401 1_565
Mo2 O9 1.805398 1_555
Mo2 O15 1.810125 1_555
Mo2 O27 1.842707 1_555
Mo3 O8 1.737967 1_655
Mo3 O13 1.806236 1_555
Mo3 O22 1.830221 1_555
Mo3 O11 1.841328 1_655
Mo4 O24 1.737967 1_455
Mo4 O26 1.806236 1_555
Mo4 O20 1.830221 1_555
Mo4 O31 1.841328 1_455
Mo5 O14 1.732593 1_555
Mo5 O7 1.801258 1_555
Mo5 O0 1.802392 1_555
Mo5 O21 1.842035 1_655
Mo6 O29 1.732593 1_555
Mo6 O30 1.801258 1_555
Mo6 O4 1.802392 1_555
Mo6 O6 1.842035 1_455
Mo7 O19 1.732401 1_545
Mo7 O23 1.805398 1_555
Mo7 O10 1.810125 1_555
Mo7 O12 1.842707 1_555
