# generated using pymatgen
data_Na13Ca7S12Cl2O48F
_symmetry_space_group_name_H-M   'P 1'
_cell_length_a   9.69074100
_cell_length_b   9.69216800
_cell_length_c   13.90968037
_cell_angle_alpha   90.02435706
_cell_angle_beta   89.99427029
_cell_angle_gamma   119.78328978
_symmetry_Int_Tables_number   1
_chemical_formula_structural   Na13Ca7S12Cl2O48F
_chemical_formula_sum   'Na13 Ca7 S12 Cl2 O48 F1'
_cell_volume   1133.88732118
_cell_formula_units_Z   1
loop_
 _symmetry_equiv_pos_site_id
 _symmetry_equiv_pos_as_xyz
  1  'x, y, z'
loop_
 _atom_site_type_symbol
 _atom_site_label
 _atom_site_symmetry_multiplicity
 _atom_site_fract_x
 _atom_site_fract_y
 _atom_site_fract_z
 _atom_site_occupancy
  Na  Na0  1  0.26195200  0.25739000  0.12875000  1
  Na  Na1  1  0.27294400  0.26245400  0.62041300  1
  Na  Na2  1  0.74364900  0.00857500  0.12668300  1
  Na  Na3  1  0.73495400  0.01426600  0.62203600  1
  Na  Na4  1  0.66111300  0.32250300  0.25387600  1
  Na  Na5  1  0.65798100  0.31803000  0.50234500  1
  Na  Na6  1  0.66004600  0.32576200  0.73724500  1
  Na  Na7  1  0.00639800  0.27963500  0.38003700  1
  Na  Na8  1  0.99488300  0.73826500  0.12736600  1
  Na  Na9  1  0.33723400  0.66424300  0.74325500  1
  Na  Na10  1  0.33006500  0.66135800  0.50510400  1
  Na  Na11  1  0.33268200  0.66687600  0.99830100  1
  Na  Na12  1  0.27572200  0.99961000  0.37781800  1
  Ca  Ca0  1  0.66466500  0.33078900  0.00411700  1
  Ca  Ca1  1  0.00491200  0.24292800  0.87430300  1
  Ca  Ca2  1  0.99490900  0.73315400  0.62474900  1
  Ca  Ca3  1  0.32627700  0.66637400  0.24903500  1
  Ca  Ca4  1  0.23916400  0.99771900  0.87695600  1
  Ca  Ca5  1  0.71769600  0.72684100  0.37707600  1
  Ca  Ca6  1  0.75589200  0.76376600  0.87585600  1
  S  S0  1  0.64479100  0.02231000  0.37095500  1
  S  S1  1  0.63478600  0.03625200  0.87728100  1
  S  S2  1  0.38695600  0.36253300  0.37124700  1
  S  S3  1  0.40309000  0.36730500  0.87749100  1
  S  S4  1  0.03042000  0.40526900  0.12230600  1
  S  S5  1  0.02817700  0.39642300  0.62762800  1
  S  S6  1  0.97062100  0.61824900  0.37275000  1
  S  S7  1  0.96496100  0.59921100  0.87628400  1
  S  S8  1  0.59572100  0.62494500  0.12440300  1
  S  S9  1  0.60733000  0.63241000  0.62588500  1
  S  S10  1  0.37359000  0.96716400  0.12248900  1
  S  S11  1  0.36313200  0.96546100  0.62727200  1
  Cl  Cl0  1  0.00053100  0.00073200  0.07758300  1
  Cl  Cl1  1  0.99789900  0.00193800  0.63705900  1
  O  O0  1  0.32675700  0.26139300  0.45717800  1
  O  O1  1  0.36569500  0.26412600  0.96515500  1
  O  O2  1  0.33871000  0.26033400  0.28510800  1
  O  O3  1  0.34906500  0.25870000  0.79302600  1
  O  O4  1  0.48805600  0.14237000  0.12070800  1
  O  O5  1  0.46579900  0.14106700  0.62645500  1
  O  O6  1  0.54888600  0.10357300  0.37550600  1
  O  O7  1  0.52892200  0.10840600  0.87453700  1
  O  O8  1  0.74855000  0.07445700  0.28525100  1
  O  O9  1  0.74244700  0.09005700  0.79249100  1
  O  O10  1  0.74706500  0.05947400  0.45692400  1
  O  O11  1  0.73819100  0.10300300  0.96460300  1
  O  O12  1  0.58071700  0.47205800  0.87516100  1
  O  O13  1  0.56726300  0.45612800  0.37543600  1
  O  O14  1  0.85498200  0.34380700  0.12025100  1
  O  O15  1  0.85291100  0.33033400  0.62653200  1
  O  O16  1  0.65601000  0.51000700  0.12115700  1
  O  O17  1  0.68702500  0.53358300  0.62625400  1
  O  O18  1  0.88561300  0.44217900  0.37504200  1
  O  O19  1  0.88935100  0.42178700  0.87488500  1
  O  O20  1  0.08242300  0.36597900  0.03074600  1
  O  O21  1  0.07585400  0.34237200  0.20603700  1
  O  O22  1  0.08045300  0.35620300  0.71939000  1
  O  O23  1  0.08175700  0.34185900  0.54425000  1
  O  O24  1  0.92824100  0.68050700  0.46053000  1
  O  O25  1  0.91459800  0.67684700  0.29081500  1
  O  O26  1  0.89877000  0.64183300  0.96122300  1
  O  O27  1  0.91342200  0.65362600  0.78944200  1
  O  O28  1  0.11732200  0.58395100  0.13185200  1
  O  O29  1  0.11122200  0.57622300  0.62344500  1
  O  O30  1  0.32905700  0.48119200  0.36718300  1
  O  O31  1  0.32185300  0.46261100  0.88004900  1
  O  O32  1  0.14623500  0.68222500  0.36824900  1
  O  O33  1  0.14032700  0.67821900  0.87946900  1
  O  O34  1  0.41817700  0.53836300  0.13414500  1
  O  O35  1  0.43196600  0.53328600  0.62017300  1
  O  O36  1  0.28327100  0.91688600  0.03060000  1
  O  O37  1  0.24923000  0.91091100  0.54512400  1
  O  O38  1  0.26438900  0.92310800  0.20568800  1
  O  O39  1  0.26510000  0.91070700  0.71844900  1
  O  O40  1  0.46313700  0.87794300  0.13235100  1
  O  O41  1  0.45965700  0.88538400  0.62201300  1
  O  O42  1  0.53264300  0.84232600  0.36634400  1
  O  O43  1  0.54135500  0.86009700  0.88053300  1
  O  O44  1  0.66162200  0.73087400  0.20991000  1
  O  O45  1  0.64832200  0.72951000  0.71579100  1
  O  O46  1  0.63871600  0.72089600  0.03504200  1
  O  O47  1  0.66417400  0.73962000  0.54035500  1
  F  F0  1  0.99955000  0.99885500  0.86284300  1
loop_
_geom_bond_atom_site_label_1
_geom_bond_atom_site_label_2
_geom_bond_distance
_geom_bond_site_symmetry_2
Na0 O2 2.294220 1_555
Na0 O34 2.370176 1_555
Na0 O1 2.475398 1_554
Na0 O21 2.561445 1_555
Na0 O20 2.795269 1_555
Na0 O4 2.912512 1_555
Na1 O35 2.290537 1_555
Na1 O0 2.330774 1_555
Na1 O3 2.517406 1_555
Na1 O23 2.562207 1_555
Na1 O5 2.658667 1_555
Na1 O22 2.807653 1_555
Na2 O8 2.289866 1_555
Na2 O40 2.362126 1_545
Na2 O11 2.443965 1_554
Na2 O44 2.663335 1_545
Na2 O46 2.759289 1_545
Na2 O14 2.871686 1_555
Na3 O41 2.316687 1_545
Na3 O10 2.330258 1_555
Na3 O9 2.472238 1_555
Na3 O47 2.651573 1_545
Na3 O15 2.686258 1_555
Na3 O45 2.779132 1_545
Na4 O6 2.501539 1_555
Na4 O4 2.526033 1_555
Na4 O18 2.532028 1_555
Na4 O13 2.555673 1_555
Na4 O14 2.577056 1_555
Na4 O16 2.608689 1_555
Na4 O2 2.905671 1_555
Na5 O5 2.493792 1_555
Na5 O15 2.518572 1_555
Na5 O6 2.522894 1_555
Na5 O18 2.610289 1_555
Na5 O17 2.612915 1_555
Na5 O13 2.617594 1_555
Na6 O5 2.402784 1_555
Na6 O15 2.404973 1_555
Na6 O17 2.447115 1_555
Na6 O7 2.653889 1_555
Na6 O12 2.713285 1_555
Na6 O19 2.722915 1_555
Na6 O3 2.856659 1_555
Na6 O9 2.874187 1_555
Na6 O27 2.983454 1_555
Na7 O23 2.382435 1_555
Na7 O18 2.385122 1_455
Na7 O21 2.504972 1_555
Na7 O10 2.585888 1_455
Na7 O8 2.645481 1_455
Na7 O30 2.749016 1_555
Na8 O28 2.326313 1_655
Na8 O25 2.381024 1_555
Na8 O26 2.493099 1_554
Na8 O38 2.562835 1_655
Na8 O36 2.795325 1_655
Na8 O16 2.910060 1_555
Na9 O41 2.514357 1_555
Na9 O29 2.538787 1_555
Na9 O35 2.557388 1_555
Na9 O31 2.678720 1_555
Na9 O43 2.725754 1_555
Na9 O33 2.739559 1_555
Na9 O45 2.782051 1_555
Na9 O22 2.799058 1_555
Na9 O39 2.823747 1_555
Na10 O29 2.479930 1_555
Na10 O41 2.494910 1_555
Na10 O35 2.509490 1_555
Na10 O30 2.590351 1_555
Na10 O32 2.682746 1_555
Na10 O42 2.690175 1_555
Na10 O23 2.876546 1_555
Na10 O37 2.941889 1_555
Na10 O47 2.976420 1_555
Na11 O33 2.534423 1_555
Na11 O31 2.535133 1_555
Na11 O43 2.553345 1_555
Na11 O40 2.586079 1_556
Na11 O28 2.605096 1_556
Na11 O34 2.614531 1_556
Na11 O36 2.730277 1_556
Na11 O20 2.750434 1_556
Na11 O46 2.790728 1_556
Na12 O6 2.318181 1_565
Na12 O37 2.450107 1_555
Na12 O38 2.492394 1_555
Na12 O0 2.579120 1_565
Na12 O2 2.625159 1_565
Na12 O32 2.686999 1_555
Ca0 O4 2.406479 1_555
Ca0 O14 2.407515 1_555
Ca0 O16 2.411823 1_555
Ca0 O7 2.608683 1_554
Ca0 O19 2.615892 1_554
Ca0 O12 2.619726 1_554
Ca0 O11 2.691752 1_554
Ca0 O1 2.691752 1_554
Ca0 O26 2.792481 1_554
Ca1 F0 2.345575 1_445
Ca1 O22 2.363815 1_555
Ca1 O20 2.414546 1_556
Ca1 O19 2.487548 1_455
Ca1 O9 2.492968 1_455
Ca1 O11 2.572179 1_455
Ca1 O31 2.734323 1_555
Ca2 O29 2.299435 1_655
Ca2 O24 2.359511 1_555
Ca2 O27 2.421167 1_555
Ca2 O37 2.460042 1_655
Ca2 Cl1 2.596408 1_565
Ca2 O17 2.628801 1_555
Ca2 O39 2.652985 1_655
Ca3 O28 2.405799 1_555
Ca3 O40 2.428721 1_555
Ca3 O30 2.444055 1_555
Ca3 O34 2.445828 1_555
Ca3 O32 2.466361 1_555
Ca3 O42 2.486033 1_555
Ca4 F0 2.335810 1_455
Ca4 O36 2.387075 1_556
Ca4 O39 2.417505 1_555
Ca4 O7 2.458476 1_565
Ca4 O3 2.494274 1_565
Ca4 O1 2.554984 1_565
Ca4 O33 2.749799 1_555
Ca5 O13 2.282560 1_555
Ca5 O47 2.346457 1_555
Ca5 O44 2.392680 1_555
Ca5 O25 2.496592 1_555
Ca5 O42 2.546629 1_555
Ca5 O24 2.573581 1_555
Ca6 F0 2.335650 1_555
Ca6 O45 2.410393 1_555
Ca6 O46 2.428253 1_556
Ca6 O12 2.471298 1_555
Ca6 O26 2.520083 1_555
Ca6 O27 2.555828 1_555
Ca6 O43 2.669563 1_555
Cl0 Na8 2.610933 1_445
Cl0 Na0 2.617393 1_555
Cl0 Na2 2.618554 1_455
Cl1 Na1 2.616841 1_655
Cl1 Na3 2.617922 1_555
O0 S2 1.470601 1_555
O1 S3 1.503061 1_555
O2 S2 1.474575 1_555
O3 S3 1.487966 1_555
O4 S10 1.497806 1_545
O5 S11 1.484780 1_545
O6 S0 1.488374 1_555
O7 S1 1.501918 1_555
O8 S0 1.477507 1_555
O9 S1 1.487015 1_555
O10 S0 1.478918 1_555
O11 S1 1.501178 1_555
O12 S3 1.502893 1_555
O13 S2 1.518125 1_555
O14 S4 1.496653 1_655
O15 S5 1.488113 1_655
O16 S8 1.493621 1_555
O17 S9 1.499618 1_555
O18 S6 1.481638 1_555
O19 S7 1.497530 1_555
O20 S4 1.486965 1_555
O21 S4 1.479624 1_555
O22 S5 1.494817 1_555
O23 S5 1.471893 1_555
O24 S6 1.506342 1_555
O25 S6 1.491035 1_555
O26 S7 1.496881 1_555
O27 S7 1.499692 1_555
O28 S4 1.508966 1_555
O29 S5 1.514832 1_555
O30 S2 1.510552 1_555
O31 S3 1.482120 1_555
O32 S6 1.495430 1_455
O33 S7 1.477691 1_455
O34 S8 1.499501 1_555
O35 S9 1.481653 1_555
O36 S10 1.487674 1_555
O37 S11 1.491151 1_555
O38 S10 1.480792 1_555
O39 S11 1.513954 1_555
O40 S10 1.505074 1_555
O41 S11 1.484534 1_555
O42 S0 1.531274 1_565
O43 S1 1.483623 1_565
O44 S8 1.491402 1_555
O45 S9 1.495025 1_555
O46 S8 1.483038 1_555
O47 S9 1.493593 1_555
