# generated using pymatgen
data_Cs2NbAgS4
_symmetry_space_group_name_H-M   'P 1'
_cell_length_a   14.53175184
_cell_length_b   12.94237338
_cell_length_c   7.85136103
_cell_angle_alpha   84.92517483
_cell_angle_beta   62.51553050
_cell_angle_gamma   32.55929467
_symmetry_Int_Tables_number   1
_chemical_formula_structural   Cs2NbAgS4
_chemical_formula_sum   'Cs4 Nb2 Ag2 S8'
_cell_volume   547.81388171
_cell_formula_units_Z   2
loop_
 _symmetry_equiv_pos_site_id
 _symmetry_equiv_pos_as_xyz
  1  'x, y, z'
loop_
 _atom_site_type_symbol
 _atom_site_label
 _atom_site_symmetry_multiplicity
 _atom_site_fract_x
 _atom_site_fract_y
 _atom_site_fract_z
 _atom_site_occupancy
  Cs  Cs0  1  0.82143600  0.82143600  0.17856400  1
  Cs  Cs1  1  0.17856400  0.17856400  0.82143600  1
  Cs  Cs2  1  0.42856400  0.42856400  0.07143600  1
  Cs  Cs3  1  0.07143600  0.07143600  0.42856400  1
  Nb  Nb0  1  0.25000000  0.25000000  0.25000000  1
  Nb  Nb1  1  0.00000000  0.00000000  0.00000000  1
  Ag  Ag0  1  0.50000000  0.50000000  0.50000000  1
  Ag  Ag1  1  0.75000000  0.75000000  0.75000000  1
  S  S0  1  0.74352800  0.36319000  0.06747400  1
  S  S1  1  0.42419100  0.18252600  0.88681000  1
  S  S2  1  0.88681000  0.50647200  0.42419100  1
  S  S3  1  0.18252600  0.42419100  0.50647200  1
  S  S4  1  0.06747400  0.82580900  0.74352800  1
  S  S5  1  0.36319000  0.74352800  0.82580900  1
  S  S6  1  0.50647200  0.88681000  0.18252600  1
  S  S7  1  0.82580900  0.06747400  0.36319000  1
loop_
_geom_bond_atom_site_label_1
_geom_bond_atom_site_label_2
_geom_bond_distance
_geom_bond_site_symmetry_2
Cs0 S1 3.617377 1_654
Cs0 S3 3.617379 1_565
Cs0 S4 3.672581 1_654
Cs0 S7 3.672585 1_565
Cs0 S2 3.874395 1_555
Cs0 S6 3.874399 1_555
Cs0 S1 3.946940 1_565
Cs0 S3 3.946946 1_654
Cs1 S2 3.617373 1_456
Cs1 S6 3.617380 1_545
Cs1 S0 3.672572 1_456
Cs1 S5 3.672573 1_545
Cs1 S1 3.874384 1_555
Cs1 S3 3.874389 1_555
Cs1 S2 3.946941 1_545
Cs1 S6 3.946943 1_456
Cs2 S7 3.617377 1_465
Cs2 S4 3.617379 1_644
Cs2 S3 3.672581 1_555
Cs2 S1 3.672585 1_554
Cs2 S5 3.874395 1_554
Cs2 S0 3.874399 1_555
Cs2 S7 3.946940 1_554
Cs2 S4 3.946946 1_555
Cs3 S5 3.617373 1_544
Cs3 S0 3.617380 1_456
Cs3 S6 3.672572 1_545
Cs3 S2 3.672573 1_455
Cs3 S7 3.874384 1_455
Cs3 S4 3.874389 1_545
Cs3 S5 3.946941 1_455
Cs3 S0 3.946943 1_545
Nb0 S3 2.313707 1_555
Nb0 S1 2.313713 1_554
Nb0 S6 2.313716 1_545
Nb0 S2 2.313719 1_455
Nb1 S4 2.313707 1_544
Nb1 S7 2.313713 1_455
Nb1 S0 2.313716 1_455
Nb1 S5 2.313719 1_544
Ag0 S4 2.568991 1_555
Ag0 S7 2.568993 1_555
Ag0 S0 2.568996 1_555
Ag0 S5 2.569002 1_555
Ag1 S3 2.568991 1_655
Ag1 S1 2.568993 1_565
Ag1 S6 2.568996 1_556
Ag1 S2 2.569002 1_555
