# generated using pymatgen
data_Ce2Nd2O7
_symmetry_space_group_name_H-M   'P 1'
_cell_length_a   3.80789900
_cell_length_b   7.96551300
_cell_length_c   11.22772100
_cell_angle_alpha   90.00000000
_cell_angle_beta   90.00000000
_cell_angle_gamma   90.00000000
_symmetry_Int_Tables_number   1
_chemical_formula_structural   Ce2Nd2O7
_chemical_formula_sum   'Ce4 Nd4 O14'
_cell_volume   340.55776240
_cell_formula_units_Z   2
loop_
 _symmetry_equiv_pos_site_id
 _symmetry_equiv_pos_as_xyz
  1  'x, y, z'
loop_
 _atom_site_type_symbol
 _atom_site_label
 _atom_site_symmetry_multiplicity
 _atom_site_fract_x
 _atom_site_fract_y
 _atom_site_fract_z
 _atom_site_occupancy
  Ce  Ce0  1  0.50000000  0.75000000  0.75075500  1
  Ce  Ce1  1  0.50000000  0.25000000  0.24924500  1
  Ce  Ce2  1  0.00000000  0.00000000  0.00000000  1
  Ce  Ce3  1  0.00000000  0.50000000  0.00000000  1
  Nd  Nd0  1  0.00000000  0.00000000  0.50000000  1
  Nd  Nd1  1  0.50000000  0.25000000  0.77220200  1
  Nd  Nd2  1  0.00000000  0.50000000  0.50000000  1
  Nd  Nd3  1  0.50000000  0.75000000  0.22779800  1
  O  O0  1  0.00000000  0.75000000  0.61859500  1
  O  O1  1  0.50000000  0.95885000  0.37161600  1
  O  O2  1  0.00000000  0.25000000  0.13388500  1
  O  O3  1  0.50000000  0.01558200  0.11881900  1
  O  O4  1  0.50000000  0.98441800  0.88118100  1
  O  O5  1  0.50000000  0.51558200  0.88118100  1
  O  O6  1  0.00000000  0.75000000  0.86611500  1
  O  O7  1  0.00000000  0.25000000  0.88434400  1
  O  O8  1  0.50000000  0.04115000  0.62838400  1
  O  O9  1  0.50000000  0.45885000  0.62838400  1
  O  O10  1  0.50000000  0.54115000  0.37161600  1
  O  O11  1  0.00000000  0.25000000  0.38140500  1
  O  O12  1  0.00000000  0.75000000  0.11565600  1
  O  O13  1  0.50000000  0.48441800  0.11881900  1
loop_
_geom_bond_atom_site_label_1
_geom_bond_atom_site_label_2
_geom_bond_distance
_geom_bond_site_symmetry_2
Ce0 O6 2.302747 1_655
Ce0 O6 2.302747 1_555
Ce0 O4 2.372991 1_555
Ce0 O5 2.372991 1_555
Ce0 O0 2.413887 1_555
Ce0 O0 2.413887 1_655
Ce0 O9 2.695595 1_555
Ce0 O8 2.695595 1_565
Ce1 O2 2.302747 1_555
Ce1 O2 2.302747 1_655
Ce1 O13 2.372991 1_555
Ce1 O3 2.372991 1_555
Ce1 O11 2.413887 1_655
Ce1 O11 2.413887 1_555
Ce1 O1 2.695595 1_545
Ce1 O10 2.695595 1_555
Ce2 O3 2.328124 1_455
Ce2 O3 2.328124 1_555
Ce2 O4 2.328124 1_544
Ce2 O4 2.328124 1_444
Ce2 O12 2.377357 1_545
Ce2 O7 2.377357 1_554
Ce2 O2 2.495049 1_555
Ce2 O6 2.495049 1_544
Ce3 O5 2.328124 1_454
Ce3 O5 2.328124 1_554
Ce3 O13 2.328124 1_555
Ce3 O13 2.328124 1_455
Ce3 O12 2.377357 1_555
Ce3 O7 2.377357 1_554
Ce3 O2 2.495049 1_555
Ce3 O6 2.495049 1_554
Nd0 O11 2.395541 1_555
Nd0 O0 2.395541 1_545
Nd0 O8 2.410450 1_455
Nd0 O8 2.410450 1_555
Nd0 O1 2.410450 1_445
Nd0 O1 2.410450 1_545
Nd1 O7 2.282620 1_555
Nd1 O7 2.282620 1_655
Nd1 O8 2.318398 1_555
Nd1 O9 2.318398 1_555
Nd1 O5 2.443868 1_555
Nd1 O4 2.443868 1_545
Nd2 O11 2.395541 1_555
Nd2 O0 2.395541 1_555
Nd2 O9 2.410450 1_455
Nd2 O9 2.410450 1_555
Nd2 O10 2.410450 1_555
Nd2 O10 2.410450 1_455
Nd3 O12 2.282620 1_555
Nd3 O12 2.282620 1_655
Nd3 O10 2.318398 1_555
Nd3 O1 2.318398 1_555
Nd3 O3 2.443868 1_565
Nd3 O13 2.443868 1_555
