# generated using pymatgen
data_Tl2Ag16Te11
_symmetry_space_group_name_H-M   'P 1'
_cell_length_a   15.46837729
_cell_length_b   15.43670436
_cell_length_c   15.50034014
_cell_angle_alpha   43.54222528
_cell_angle_beta   43.24362278
_cell_angle_gamma   43.40138514
_symmetry_Int_Tables_number   1
_chemical_formula_structural   Tl2Ag16Te11
_chemical_formula_sum   'Tl4 Ag32 Te22'
_cell_volume   1584.74169512
_cell_formula_units_Z   2
loop_
 _symmetry_equiv_pos_site_id
 _symmetry_equiv_pos_as_xyz
  1  'x, y, z'
loop_
 _atom_site_type_symbol
 _atom_site_label
 _atom_site_symmetry_multiplicity
 _atom_site_fract_x
 _atom_site_fract_y
 _atom_site_fract_z
 _atom_site_occupancy
  Tl  Tl0  1  0.19083060  0.19596759  0.19126350  1
  Tl  Tl1  1  0.29869973  0.30621036  0.30946773  1
  Tl  Tl2  1  0.70437401  0.69429202  0.69260304  1
  Tl  Tl3  1  0.80977716  0.80375758  0.79147738  1
  Ag  Ag0  1  0.37587938  0.10155577  0.60093720  1
  Ag  Ag1  1  0.18301017  0.81179376  0.23499457  1
  Ag  Ag2  1  0.38484570  0.39405196  0.38486081  1
  Ag  Ag3  1  0.59780140  0.39682439  0.09180083  1
  Ag  Ag4  1  0.31136767  0.27763030  0.68155188  1
  Ag  Ag5  1  0.48261241  0.73678292  0.02102133  1
  Ag  Ag6  1  0.10558591  0.90114353  0.40980628  1
  Ag  Ag7  1  0.74799391  0.01024127  0.48662853  1
  Ag  Ag8  1  0.81862878  0.23233032  0.17897536  1
  Ag  Ag9  1  0.40193045  0.11427348  0.90420116  1
  Ag  Ag10  1  0.09972830  0.59238855  0.88443409  1
  Ag  Ag11  1  0.60497377  0.61187428  0.19627127  1
  Ag  Ag12  1  0.38920310  0.39531626  0.79635106  1
  Ag  Ag13  1  0.40092604  0.79263487  0.38846349  1
  Ag  Ag14  1  0.90743256  0.40033799  0.11092307  1
  Ag  Ag15  1  0.59486000  0.89092433  0.09385622  1
  Ag  Ag16  1  0.17528169  0.77355031  0.82352399  1
  Ag  Ag17  1  0.24578320  0.98726692  0.51399261  1
  Ag  Ag18  1  0.79226271  0.38816930  0.39978113  1
  Ag  Ag19  1  0.89132951  0.09412041  0.59289355  1
  Ag  Ag20  1  0.51234220  0.24779263  0.98634066  1
  Ag  Ag21  1  0.77593956  0.81869848  0.18143696  1
  Ag  Ag22  1  0.39688116  0.61841991  0.91010907  1
  Ag  Ag23  1  0.61857455  0.61671439  0.61002591  1
  Ag  Ag24  1  0.82228155  0.17711356  0.77577559  1
  Ag  Ag25  1  0.98704864  0.51284128  0.25115821  1
  Ag  Ag26  1  0.61792210  0.90505079  0.39732128  1
  Ag  Ag27  1  0.30890208  0.88772975  0.88900736  1
  Ag  Ag28  1  0.91063529  0.40062215  0.61283233  1
  Ag  Ag29  1  0.89388816  0.30279880  0.88554867  1
  Ag  Ag30  1  0.90217419  0.87691725  0.30905463  1
  Ag  Ag31  1  0.88415590  0.88676607  0.88498535  1
  Te  Te0  1  0.04379319  0.04164488  0.04590539  1
  Te  Te1  1  0.01085599  0.25290192  0.48549639  1
  Te  Te2  1  0.25164133  0.48511380  0.01340560  1
  Te  Te3  1  0.48270829  0.01249944  0.25314087  1
  Te  Te4  1  0.12646863  0.34437636  0.61941367  1
  Te  Te5  1  0.31773879  0.61114073  0.14918449  1
  Te  Te6  1  0.61237644  0.13431402  0.33458168  1
  Te  Te7  1  0.16990225  0.36859813  0.87726078  1
  Te  Te8  1  0.46213371  0.44566668  0.45370299  1
  Te  Te9  1  0.36431999  0.88070448  0.16808658  1
  Te  Te10  1  0.12481995  0.82911441  0.62747016  1
  Te  Te11  1  0.87185808  0.16992606  0.37119957  1
  Te  Te12  1  0.63125334  0.12309245  0.82757256  1
  Te  Te13  1  0.54724379  0.54624854  0.55074540  1
  Te  Te14  1  0.83388001  0.62893123  0.12117207  1
  Te  Te15  1  0.37841489  0.87123022  0.66562340  1
  Te  Te16  1  0.66419741  0.38119898  0.87105689  1
  Te  Te17  1  0.87577791  0.66455826  0.37955303  1
  Te  Te18  1  0.50962410  0.98352618  0.75741825  1
  Te  Te19  1  0.75962253  0.52053163  0.97517864  1
  Te  Te20  1  0.98354768  0.74914990  0.51347192  1
  Te  Te21  1  0.95325815  0.95332814  0.95528357  1
loop_
_geom_bond_atom_site_label_1
_geom_bond_atom_site_label_2
_geom_bond_distance
_geom_bond_site_symmetry_2
Ag0 Te4 2.819420 1_555
Ag0 Te15 2.886986 1_545
Ag0 Te6 2.888097 1_555
Ag0 Ag27 2.961228 1_545
Ag0 Te18 2.984841 1_545
Ag0 Ag4 3.018378 1_555
Ag0 Ag2 3.151702 1_555
Ag1 Te20 2.822765 1_455
Ag1 Te5 2.874113 1_555
Ag1 Te9 2.927632 1_555
Ag1 Te0 2.972082 1_565
Ag1 Ag6 2.994795 1_555
Ag1 Ag5 3.032297 1_555
Ag1 Ag30 3.043246 1_455
Ag2 Te8 2.770931 1_555
Ag2 Te5 2.893914 1_555
Ag2 Te4 3.003611 1_555
Ag2 Ag4 3.006989 1_555
Ag2 Te6 3.016416 1_555
Ag2 Ag3 3.100034 1_555
Ag2 Tl1 3.488792 1_555
Ag3 Te5 2.886091 1_555
Ag3 Te6 2.904171 1_555
Ag3 Te19 2.920480 1_554
Ag3 Te16 2.921844 1_554
Ag3 Ag8 3.014628 1_555
Ag4 Te7 2.828807 1_555
Ag4 Te8 2.854829 1_555
Ag4 Te4 2.908937 1_555
Ag4 Te18 2.946483 1_545
Ag4 Ag9 3.086317 1_555
Ag5 Te19 2.868217 1_554
Ag5 Te5 2.903955 1_555
Ag5 Te18 2.939462 1_554
Ag5 Te9 2.972940 1_555
Ag6 Te9 2.861407 1_555
Ag6 Te20 2.863866 1_455
Ag6 Te10 2.872455 1_555
Ag6 Te11 2.898112 1_465
Ag7 Te20 2.851562 1_545
Ag7 Te11 2.902274 1_555
Ag7 Te6 2.905852 1_555
Ag7 Te18 2.921604 1_545
Ag7 Ag8 3.136688 1_555
Ag8 Te0 2.913385 1_655
Ag8 Te19 2.920674 1_554
Ag8 Te11 2.957040 1_555
Ag8 Te6 2.966203 1_555
Ag9 Te7 2.792948 1_555
Ag9 Te9 2.875736 1_546
Ag9 Te18 2.876603 1_545
Ag9 Te12 2.888127 1_555
Ag10 Te7 2.838452 1_555
Ag10 Te10 2.841939 1_555
Ag10 Te14 2.887862 1_456
Ag10 Ag12 2.913630 1_555
Ag10 Te2 2.941185 1_556
Ag10 Ag16 3.064605 1_555
Ag10 Ag31 3.124907 1_455
Ag11 Te8 2.817395 1_555
Ag11 Te9 2.926206 1_555
Ag11 Te14 2.977781 1_555
Ag11 Ag5 3.045219 1_555
Ag11 Te19 3.100878 1_554
Ag11 Ag13 3.489605 1_555
Ag12 Te13 2.785055 1_555
Ag12 Te7 2.887087 1_555
Ag12 Te12 2.956374 1_555
Ag12 Ag20 3.103740 1_555
Ag12 Te2 3.132678 1_556
Ag12 Ag9 3.221650 1_555
Ag13 Te13 2.798474 1_555
Ag13 Te10 2.959824 1_555
Ag13 Ag15 2.960702 1_555
Ag13 Te9 2.967188 1_555
Ag13 Te3 3.093799 1_565
Ag13 Ag17 3.125203 1_555
Ag13 Ag6 3.356733 1_555
Ag14 Te11 2.834898 1_555
Ag14 Te7 2.846092 1_654
Ag14 Te19 2.877846 1_554
Ag14 Te14 2.913253 1_555
Ag14 Ag8 2.970776 1_555
Ag14 Ag18 3.301852 1_555
Ag15 Te14 2.876693 1_555
Ag15 Te12 2.880761 1_564
Ag15 Te3 2.893741 1_565
Ag15 Te9 2.939767 1_555
Ag15 Ag31 3.047549 1_554
Ag15 Ag21 3.120762 1_555
Ag16 Te21 2.795706 1_455
Ag16 Te2 2.882158 1_556
Ag16 Te15 2.909867 1_555
Ag16 Ag31 2.994717 1_455
Ag16 Te10 3.046973 1_555
Ag16 Ag22 3.066038 1_555
Ag16 Ag17 3.122596 1_555
Ag17 Te3 2.851986 1_565
Ag17 Te10 2.858789 1_555
Ag17 Te1 2.876575 1_565
Ag17 Te15 2.919465 1_555
Ag18 Te13 2.777208 1_555
Ag18 Te11 2.898920 1_555
Ag18 Ag19 2.964709 1_555
Ag18 Te14 3.005831 1_555
Ag18 Te1 3.133985 1_655
Ag18 Ag25 3.158374 1_555
Ag19 Te12 2.835550 1_555
Ag19 Te10 2.870285 1_645
Ag19 Te1 2.895347 1_655
Ag19 Te11 2.904230 1_555
Ag19 Ag31 3.087227 1_545
Ag19 Ag24 3.111822 1_555
Ag20 Te2 2.855685 1_556
Ag20 Te12 2.876278 1_555
Ag20 Te3 2.895936 1_556
Ag20 Te16 2.920740 1_555
Ag20 Ag24 3.097177 1_555
Ag21 Te21 2.800738 1_554
Ag21 Te17 2.907474 1_555
Ag21 Te3 2.918306 1_565
Ag21 Ag26 2.960536 1_555
Ag21 Te14 3.031401 1_555
Ag21 Ag31 3.061200 1_554
Ag21 Ag25 3.076303 1_555
Ag22 Te15 2.861738 1_555
Ag22 Te5 2.868931 1_556
Ag22 Te16 2.904815 1_555
Ag22 Te2 2.923385 1_556
Ag22 Ag27 3.114140 1_555
Ag22 Ag23 3.194311 1_555
Ag23 Te13 2.813379 1_555
Ag23 Te17 2.978967 1_555
Ag23 Te15 3.002476 1_555
Ag23 Te16 3.031927 1_555
Ag23 Ag26 3.064310 1_555
Ag23 Ag28 3.117108 1_555
Ag23 Tl2 3.440995 1_555
Ag24 Te21 2.808590 1_545
Ag24 Te1 2.885919 1_655
Ag24 Te16 2.894001 1_555
Ag24 Ag31 2.999609 1_545
Ag24 Te12 3.037284 1_555
Ag24 Ag28 3.056283 1_555
Ag25 Te1 2.846394 1_655
Ag25 Te2 2.877877 1_655
Ag25 Te17 2.883987 1_555
Ag25 Te14 2.904297 1_555
Ag26 Te17 2.851649 1_555
Ag26 Te6 2.858136 1_565
Ag26 Te15 2.917093 1_555
Ag26 Te3 2.918069 1_565
Ag26 Ag30 3.273493 1_555
Ag27 Te0 2.839947 1_566
Ag27 Te15 2.943901 1_555
Ag27 Ag5 2.972668 1_556
Ag27 Te18 3.009963 1_555
Ag27 Te5 3.082963 1_556
Ag28 Te4 2.840079 1_655
Ag28 Te17 2.873283 1_555
Ag28 Te16 2.886836 1_555
Ag28 Te1 2.903282 1_655
Ag28 Ag29 3.152060 1_555
Ag29 Te0 2.844882 1_656
Ag29 Te4 2.875304 1_655
Ag29 Te16 2.942598 1_555
Ag29 Ag3 3.006491 1_556
Ag29 Te19 3.156379 1_555
Ag29 Ag8 3.190361 1_556
Ag30 Te0 2.818207 1_665
Ag30 Te17 2.865075 1_555
Ag30 Te20 2.942308 1_555
Ag30 Ag7 3.002658 1_565
Ag30 Te6 3.138769 1_565
Ag31 Te21 2.881248 1_555
Ag31 Te12 3.005286 1_565
Ag31 Te14 3.012398 1_556
Ag31 Te10 3.044705 1_655
Ag31 Tl3 3.511498 1_555
Te1 Tl1 3.509460 1_555
Te2 Tl1 3.576107 1_555
Te3 Tl1 3.575771 1_555
Te5 Tl1 3.522864 1_555
Te18 Tl3 3.501544 1_555
Te18 Tl2 3.545137 1_555
Te19 Tl3 3.389283 1_555
Te19 Tl2 3.492832 1_555
Te20 Tl2 3.392837 1_555
Te20 Tl3 3.406359 1_555
