# generated using pymatgen
data_KNOF2
_symmetry_space_group_name_H-M   'P 1'
_cell_length_a   6.31196000
_cell_length_b   6.94053200
_cell_length_c   8.06393600
_cell_angle_alpha   90.00000000
_cell_angle_beta   90.00000000
_cell_angle_gamma   90.00000000
_symmetry_Int_Tables_number   1
_chemical_formula_structural   KNOF2
_chemical_formula_sum   'K4 N4 O4 F8'
_cell_volume   353.26781423
_cell_formula_units_Z   4
loop_
 _symmetry_equiv_pos_site_id
 _symmetry_equiv_pos_as_xyz
  1  'x, y, z'
loop_
 _atom_site_type_symbol
 _atom_site_label
 _atom_site_symmetry_multiplicity
 _atom_site_fract_x
 _atom_site_fract_y
 _atom_site_fract_z
 _atom_site_occupancy
  K  K0  1  0.75000000  0.86673800  0.38361400  1
  K  K1  1  0.75000000  0.36673800  0.11638600  1
  K  K2  1  0.25000000  0.63326200  0.88361400  1
  K  K3  1  0.25000000  0.13326200  0.61638600  1
  N  N0  1  0.25000000  0.05461900  0.21322400  1
  N  N1  1  0.75000000  0.94538100  0.78677600  1
  N  N2  1  0.25000000  0.55461900  0.28677600  1
  N  N3  1  0.75000000  0.44538100  0.71322400  1
  O  O0  1  0.25000000  0.62233200  0.41583500  1
  O  O1  1  0.75000000  0.37766800  0.58416500  1
  O  O2  1  0.75000000  0.87766800  0.91583500  1
  O  O3  1  0.25000000  0.12233200  0.08416500  1
  F  F0  1  0.48359500  0.66710900  0.16653200  1
  F  F1  1  0.98359500  0.33289100  0.83346800  1
  F  F2  1  0.01640500  0.66710900  0.16653200  1
  F  F3  1  0.98359500  0.83289100  0.66653200  1
  F  F4  1  0.48359500  0.16710900  0.33346800  1
  F  F5  1  0.51640500  0.83289100  0.66653200  1
  F  F6  1  0.01640500  0.16710900  0.33346800  1
  F  F7  1  0.51640500  0.33289100  0.83346800  1
loop_
_geom_bond_atom_site_label_1
_geom_bond_atom_site_label_2
_geom_bond_distance
_geom_bond_site_symmetry_2
N0 O3 1.141916 1_555
N1 O2 1.141916 1_555
N2 O0 1.141916 1_555
N3 O1 1.141916 1_555
F0 N2 1.929699 1_555
F0 K1 2.708728 1_555
F0 K2 2.726555 1_554
F0 K0 2.794931 1_555
F1 N3 1.929699 1_555
F1 K2 2.708728 1_655
F1 K1 2.726555 1_556
F1 K3 2.794931 1_655
F2 N2 1.929699 1_555
F2 K1 2.708728 1_455
F2 K2 2.726555 1_554
F2 K0 2.794931 1_455
F3 N1 1.929699 1_555
F3 K3 2.708728 1_665
F3 K0 2.726555 1_555
F3 K2 2.794931 1_655
F4 N0 1.929699 1_555
F4 K0 2.708728 1_545
F4 K3 2.726555 1_555
F4 K1 2.794931 1_555
F5 N1 1.929699 1_555
F5 K3 2.708728 1_565
F5 K0 2.726555 1_555
F5 K2 2.794931 1_555
F6 N0 1.929699 1_555
F6 K0 2.708728 1_445
F6 K3 2.726555 1_555
F6 K1 2.794931 1_455
F7 N3 1.929699 1_555
F7 K2 2.708728 1_555
F7 K1 2.726555 1_556
F7 K3 2.794931 1_555
