# generated using pymatgen
data_CdI2
_symmetry_space_group_name_H-M   'P 1'
_cell_length_a   4.34519230
_cell_length_b   4.34519230
_cell_length_c   80.91517900
_cell_angle_alpha   90.00000000
_cell_angle_beta   90.00000000
_cell_angle_gamma   120.00000453
_symmetry_Int_Tables_number   1
_chemical_formula_structural   CdI2
_chemical_formula_sum   'Cd11 I22'
_cell_volume   1323.05717743
_cell_formula_units_Z   11
loop_
 _symmetry_equiv_pos_site_id
 _symmetry_equiv_pos_as_xyz
  1  'x, y, z'
loop_
 _atom_site_type_symbol
 _atom_site_label
 _atom_site_symmetry_multiplicity
 _atom_site_fract_x
 _atom_site_fract_y
 _atom_site_fract_z
 _atom_site_occupancy
  Cd  Cd0  1  0.00000000  0.00000000  0.20453600  1
  Cd  Cd1  1  0.00000000  0.00000000  0.93180700  1
  Cd  Cd2  1  0.00000000  0.00000000  0.02272800  1
  Cd  Cd3  1  0.33333300  0.66666700  0.84092200  1
  Cd  Cd4  1  0.00000000  0.00000000  0.38638900  1
  Cd  Cd5  1  0.33333300  0.66666700  0.56818400  1
  Cd  Cd6  1  0.00000000  0.00000000  0.11365200  1
  Cd  Cd7  1  0.00000000  0.00000000  0.74998800  1
  Cd  Cd8  1  0.00000000  0.00000000  0.47727400  1
  Cd  Cd9  1  0.00000000  0.00000000  0.29545600  1
  Cd  Cd10  1  0.00000000  0.00000000  0.65906700  1
  I  I0  1  0.33333300  0.66666700  0.36501400  1
  I  I1  1  0.66666700  0.33333300  0.58954700  1
  I  I2  1  0.33333300  0.66666700  0.45588900  1
  I  I3  1  0.66666700  0.33333300  0.40776800  1
  I  I4  1  0.33333300  0.66666700  0.18316000  1
  I  I5  1  0.33333300  0.66666700  0.63769600  1
  I  I6  1  0.66666700  0.33333300  0.86229500  1
  I  I7  1  0.66666700  0.33333300  0.95317500  1
  I  I8  1  0.33333300  0.66666700  0.72860200  1
  I  I9  1  0.66666700  0.33333300  0.77136100  1
  I  I10  1  0.66666700  0.33333300  0.04410700  1
  I  I11  1  0.66666700  0.33333300  0.22590900  1
  I  I12  1  0.33333300  0.66666700  0.91041400  1
  I  I13  1  0.33333300  0.66666700  0.27408900  1
  I  I14  1  0.33333300  0.66666700  0.00137900  1
  I  I15  1  0.66666700  0.33333300  0.31684700  1
  I  I16  1  0.00000000  0.00000000  0.54682000  1
  I  I17  1  0.33333300  0.66666700  0.09226200  1
  I  I18  1  0.66666700  0.33333300  0.68044900  1
  I  I19  1  0.00000000  0.00000000  0.81954100  1
  I  I20  1  0.66666700  0.33333300  0.13502900  1
  I  I21  1  0.66666700  0.33333300  0.49864200  1
loop_
_geom_bond_atom_site_label_1
_geom_bond_atom_site_label_2
_geom_bond_distance
_geom_bond_site_symmetry_2
Cd0 I11 3.047028 1_455
Cd0 I11 3.047031 1_555
Cd0 I11 3.047031 1_445
Cd0 I4 3.047165 1_545
Cd0 I4 3.047168 1_555
Cd0 I4 3.047168 1_445
Cd1 I7 3.046798 1_455
Cd1 I7 3.046801 1_445
Cd1 I7 3.046801 1_555
Cd1 I12 3.047946 1_545
Cd1 I12 3.047949 1_555
Cd1 I12 3.047949 1_445
Cd2 I14 3.045926 1_545
Cd2 I14 3.045929 1_555
Cd2 I14 3.045929 1_445
Cd2 I10 3.047303 1_455
Cd2 I10 3.047306 1_445
Cd2 I10 3.047306 1_555
Cd3 I6 3.047028 1_455
Cd3 I6 3.047028 1_565
Cd3 I6 3.047034 1_555
Cd3 I19 3.047395 1_565
Cd3 I19 3.047398 1_665
Cd3 I19 3.047398 1_555
Cd4 I0 3.047120 1_545
Cd4 I0 3.047123 1_445
Cd4 I0 3.047123 1_555
Cd4 I3 3.047303 1_455
Cd4 I3 3.047306 1_445
Cd4 I3 3.047306 1_555
Cd5 I1 3.046568 1_565
Cd5 I1 3.046568 1_455
Cd5 I1 3.046575 1_555
Cd5 I16 3.046614 1_565
Cd5 I16 3.046617 1_555
Cd5 I16 3.046617 1_665
Cd6 I20 3.047211 1_455
Cd6 I20 3.047214 1_445
Cd6 I20 3.047214 1_555
Cd6 I17 3.047809 1_545
Cd6 I17 3.047812 1_555
Cd6 I17 3.047812 1_445
Cd7 I9 3.047028 1_455
Cd7 I9 3.047031 1_445
Cd7 I9 3.047031 1_555
Cd7 I8 3.047625 1_545
Cd7 I8 3.047628 1_555
Cd7 I8 3.047628 1_445
Cd8 I21 3.046798 1_455
Cd8 I21 3.046801 1_555
Cd8 I21 3.046801 1_445
Cd8 I2 3.047579 1_545
Cd8 I2 3.047582 1_445
Cd8 I2 3.047582 1_555
Cd9 I13 3.046752 1_545
Cd9 I13 3.046755 1_555
Cd9 I13 3.046755 1_445
Cd9 I15 3.047855 1_455
Cd9 I15 3.047858 1_445
Cd9 I15 3.047858 1_555
Cd10 I5 3.046936 1_545
Cd10 I5 3.046939 1_555
Cd10 I5 3.046939 1_445
Cd10 I18 3.047441 1_455
Cd10 I18 3.047444 1_445
Cd10 I18 3.047444 1_555
