# generated using pymatgen
data_BaCa(CO3)2
_symmetry_space_group_name_H-M   'P 1'
_cell_length_a   5.30128400
_cell_length_b   6.63415100
_cell_length_c   8.25831701
_cell_angle_alpha   74.04878222
_cell_angle_beta   90.00000000
_cell_angle_gamma   90.00000000
_symmetry_Int_Tables_number   1
_chemical_formula_structural   BaCa(CO3)2
_chemical_formula_sum   'Ba2 Ca2 C4 O12'
_cell_volume   279.25789975
_cell_formula_units_Z   2
loop_
 _symmetry_equiv_pos_site_id
 _symmetry_equiv_pos_as_xyz
  1  'x, y, z'
loop_
 _atom_site_type_symbol
 _atom_site_label
 _atom_site_symmetry_multiplicity
 _atom_site_fract_x
 _atom_site_fract_y
 _atom_site_fract_z
 _atom_site_occupancy
  Ba  Ba0  1  0.75000000  0.28616400  0.85496700  1
  Ba  Ba1  1  0.25000000  0.71383600  0.14503300  1
  Ca  Ca0  1  0.25000000  0.80114600  0.62207600  1
  Ca  Ca1  1  0.75000000  0.19885400  0.37792400  1
  C  C0  1  0.25000000  0.25207900  0.61516000  1
  C  C1  1  0.75000000  0.74792100  0.38484000  1
  C  C2  1  0.75000000  0.75082600  0.89492800  1
  C  C3  1  0.25000000  0.24917400  0.10507200  1
  O  O0  1  0.96051800  0.84747300  0.39423400  1
  O  O1  1  0.46051800  0.15252700  0.60576600  1
  O  O2  1  0.53948200  0.84747300  0.39423400  1
  O  O3  1  0.03948200  0.15252700  0.60576600  1
  O  O4  1  0.25000000  0.14041300  0.99716500  1
  O  O5  1  0.75000000  0.85958700  0.00283500  1
  O  O6  1  0.46310800  0.30988800  0.15573400  1
  O  O7  1  0.96310800  0.69011200  0.84426600  1
  O  O8  1  0.03689200  0.30988800  0.15573400  1
  O  O9  1  0.53689200  0.69011200  0.84426600  1
  O  O10  1  0.75000000  0.56575100  0.36070800  1
  O  O11  1  0.25000000  0.43424900  0.63929200  1
loop_
_geom_bond_atom_site_label_1
_geom_bond_atom_site_label_2
_geom_bond_distance
_geom_bond_site_symmetry_2
Ba0 O5 2.756903 1_546
Ba0 O7 2.887140 1_555
Ba0 O9 2.887140 1_555
Ba0 O3 2.894685 1_655
Ba0 O1 2.894685 1_555
Ba0 O4 2.952249 1_555
Ba0 O4 2.952249 1_655
Ba0 O8 2.953332 1_656
Ba0 O6 2.953332 1_556
Ba0 O11 3.194003 1_655
Ba0 O11 3.194003 1_555
Ba1 O4 2.756903 1_564
Ba1 O8 2.887140 1_555
Ba1 O6 2.887140 1_555
Ba1 O2 2.894685 1_555
Ba1 O0 2.894685 1_455
Ba1 O5 2.952249 1_455
Ba1 O5 2.952249 1_555
Ba1 O7 2.953332 1_454
Ba1 O9 2.953332 1_554
Ba1 O10 3.194003 1_555
Ba1 O10 3.194003 1_455
Ca0 O9 2.340884 1_555
Ca0 O7 2.340884 1_455
Ca0 O0 2.381611 1_455
Ca0 O2 2.381611 1_555
Ca0 O11 2.398876 1_555
Ca0 O3 2.554437 1_565
Ca0 O1 2.554437 1_565
Ca1 O8 2.340884 1_655
Ca1 O6 2.340884 1_555
Ca1 O3 2.381611 1_655
Ca1 O1 2.381611 1_555
Ca1 O10 2.398876 1_555
Ca1 O0 2.554437 1_545
Ca1 O2 2.554437 1_545
C0 O11 1.277761 1_555
C0 O3 1.309907 1_555
C0 O1 1.309907 1_555
C1 O10 1.277761 1_555
C1 O0 1.309907 1_555
C1 O2 1.309907 1_555
C2 O5 1.291564 1_556
C2 O9 1.306228 1_555
C2 O7 1.306228 1_555
C3 O4 1.291564 1_554
C3 O8 1.306228 1_555
C3 O6 1.306228 1_555
