# generated using pymatgen
data_UP2O7
_symmetry_space_group_name_H-M   'P 1'
_cell_length_a   8.87761900
_cell_length_b   8.87839200
_cell_length_c   8.88885500
_cell_angle_alpha   90.00000000
_cell_angle_beta   90.00000000
_cell_angle_gamma   90.00000000
_symmetry_Int_Tables_number   1
_chemical_formula_structural   UP2O7
_chemical_formula_sum   'U4 P8 O28'
_cell_volume   700.61049788
_cell_formula_units_Z   4
loop_
 _symmetry_equiv_pos_site_id
 _symmetry_equiv_pos_as_xyz
  1  'x, y, z'
loop_
 _atom_site_type_symbol
 _atom_site_label
 _atom_site_symmetry_multiplicity
 _atom_site_fract_x
 _atom_site_fract_y
 _atom_site_fract_z
 _atom_site_occupancy
  U  U0  1  0.99448800  0.49484400  0.74996800  1
  U  U1  1  0.49448800  0.00515600  0.74996800  1
  U  U2  1  0.99448800  0.99484400  0.25003200  1
  U  U3  1  0.49448800  0.50515600  0.25003200  1
  P  P0  1  0.09687300  0.39268400  0.35130600  1
  P  P1  1  0.39296500  0.40345300  0.85170700  1
  P  P2  1  0.59687300  0.10731600  0.35130600  1
  P  P3  1  0.89296500  0.09654700  0.85170700  1
  P  P4  1  0.39296500  0.90345300  0.14829300  1
  P  P5  1  0.09687300  0.89268400  0.64869400  1
  P  P6  1  0.89296500  0.59654700  0.14829300  1
  P  P7  1  0.59687300  0.60731600  0.64869400  1
  O  O0  1  0.97419500  0.47422700  0.24993800  1
  O  O1  1  0.22499900  0.43515400  0.83064000  1
  O  O2  1  0.25304400  0.45354400  0.31030800  1
  O  O3  1  0.05345000  0.42844400  0.51413200  1
  O  O4  1  0.44575400  0.43184000  0.01321800  1
  O  O5  1  0.93623000  0.25334600  0.79493700  1
  O  O6  1  0.57971700  0.27452100  0.31266100  1
  O  O7  1  0.43623000  0.24665400  0.79493700  1
  O  O8  1  0.07971700  0.22547900  0.31266100  1
  O  O9  1  0.94575400  0.06816000  0.01321800  1
  O  O10  1  0.55345000  0.07155600  0.51413200  1
  O  O11  1  0.72499900  0.06484600  0.83064000  1
  O  O12  1  0.75304400  0.04645600  0.31030800  1
  O  O13  1  0.47419500  0.02577300  0.24993800  1
  O  O14  1  0.97419500  0.97422700  0.75006200  1
  O  O15  1  0.22499900  0.93515400  0.16936000  1
  O  O16  1  0.25304400  0.95354400  0.68969200  1
  O  O17  1  0.44575400  0.93184000  0.98678200  1
  O  O18  1  0.05345000  0.92844400  0.48586800  1
  O  O19  1  0.93623000  0.75334600  0.20506300  1
  O  O20  1  0.57971700  0.77452100  0.68733900  1
  O  O21  1  0.43623000  0.74665400  0.20506300  1
  O  O22  1  0.07971700  0.72547900  0.68733900  1
  O  O23  1  0.94575400  0.56816000  0.98678200  1
  O  O24  1  0.55345000  0.57155600  0.48586800  1
  O  O25  1  0.75304400  0.54645600  0.68969200  1
  O  O26  1  0.72499900  0.56484600  0.16936000  1
  O  O27  1  0.47419500  0.52577300  0.75006200  1
loop_
_geom_bond_atom_site_label_1
_geom_bond_atom_site_label_2
_geom_bond_distance
_geom_bond_site_symmetry_2
O0 P6 1.586115 1_555
O0 P0 1.588122 1_655
O1 P1 1.528979 1_555
O1 U0 2.232210 1_455
O2 P0 1.531976 1_555
O2 U3 2.256415 1_555
O3 P0 1.531074 1_555
O3 U0 2.239655 1_455
O4 P1 1.531087 1_554
O4 U3 2.245425 1_555
O5 P3 1.529763 1_555
O5 U0 2.241538 1_555
O6 P2 1.531330 1_555
O6 U3 2.252853 1_555
O7 P1 1.529763 1_555
O7 U1 2.241538 1_555
O8 P0 1.531330 1_555
O8 U2 2.252853 1_445
O9 P3 1.531087 1_554
O9 U2 2.245425 1_545
O10 P2 1.531074 1_555
O10 U1 2.239655 1_555
O11 P3 1.528979 1_555
O11 U1 2.232210 1_555
O12 P2 1.531976 1_555
O12 U2 2.256415 1_545
O13 P4 1.586115 1_545
O13 P2 1.588122 1_555
O14 P3 1.586115 1_565
O14 P5 1.588122 1_655
O15 P4 1.528979 1_555
O15 U2 2.232210 1_455
O16 P5 1.531976 1_555
O16 U1 2.256415 1_565
O17 P4 1.531087 1_556
O17 U1 2.245425 1_565
O18 P5 1.531074 1_555
O18 U2 2.239655 1_455
O19 P6 1.529763 1_555
O19 U2 2.241538 1_555
O20 P7 1.531330 1_555
O20 U1 2.252853 1_565
O21 P4 1.529763 1_555
O21 U3 2.241538 1_555
O22 P5 1.531330 1_555
O22 U0 2.252853 1_455
O23 P6 1.531087 1_556
O23 U0 2.245425 1_555
O24 P7 1.531074 1_555
O24 U3 2.239655 1_555
O25 P7 1.531976 1_555
O25 U0 2.256415 1_555
O26 P6 1.528979 1_555
O26 U3 2.232210 1_555
O27 P1 1.586115 1_555
O27 P7 1.588122 1_555
