# generated using pymatgen
data_Yb(Fe2Ge)2
_symmetry_space_group_name_H-M   'P 1'
_cell_length_a   7.22652500
_cell_length_b   7.22652500
_cell_length_c   3.84757500
_cell_angle_alpha   90.00000000
_cell_angle_beta   90.00000000
_cell_angle_gamma   90.00000000
_symmetry_Int_Tables_number   1
_chemical_formula_structural   Yb(Fe2Ge)2
_chemical_formula_sum   'Yb2 Fe8 Ge4'
_cell_volume   200.93061481
_cell_formula_units_Z   2
loop_
 _symmetry_equiv_pos_site_id
 _symmetry_equiv_pos_as_xyz
  1  'x, y, z'
loop_
 _atom_site_type_symbol
 _atom_site_label
 _atom_site_symmetry_multiplicity
 _atom_site_fract_x
 _atom_site_fract_y
 _atom_site_fract_z
 _atom_site_occupancy
  Yb  Yb0  1  0.00000000  0.00000000  0.50000000  1
  Yb  Yb1  1  0.50000000  0.50000000  0.00000000  1
  Fe  Fe0  1  0.40810900  0.85861400  0.50000000  1
  Fe  Fe1  1  0.85861400  0.40810900  0.50000000  1
  Fe  Fe2  1  0.64138600  0.90810900  0.00000000  1
  Fe  Fe3  1  0.09189100  0.35861400  0.00000000  1
  Fe  Fe4  1  0.35861400  0.09189100  0.00000000  1
  Fe  Fe5  1  0.59189100  0.14138600  0.50000000  1
  Fe  Fe6  1  0.14138600  0.59189100  0.50000000  1
  Fe  Fe7  1  0.90810900  0.64138600  0.00000000  1
  Ge  Ge0  1  0.28448500  0.28448500  0.50000000  1
  Ge  Ge1  1  0.78448500  0.21551500  0.00000000  1
  Ge  Ge2  1  0.21551500  0.78448500  0.00000000  1
  Ge  Ge3  1  0.71551500  0.71551500  0.50000000  1
loop_
_geom_bond_atom_site_label_1
_geom_bond_atom_site_label_2
_geom_bond_distance
_geom_bond_site_symmetry_2
Fe0 Ge2 2.434131 1_556
Fe0 Ge2 2.434131 1_555
Fe0 Ge3 2.450376 1_555
Fe0 Yb0 3.121181 1_565
Fe0 Yb1 3.295143 1_556
Fe0 Yb1 3.295143 1_555
Fe1 Ge1 2.434131 1_555
Fe1 Ge1 2.434131 1_556
Fe1 Ge3 2.450376 1_555
Fe1 Yb0 3.121181 1_655
Fe1 Yb1 3.295143 1_556
Fe1 Yb1 3.295143 1_555
Fe2 Ge3 2.434131 1_554
Fe2 Ge3 2.434131 1_555
Fe2 Ge1 2.450376 1_565
Fe2 Yb1 3.121181 1_555
Fe2 Yb0 3.295143 1_664
Fe2 Yb0 3.295143 1_665
Fe3 Ge0 2.434131 1_554
Fe3 Ge0 2.434131 1_555
Fe3 Ge1 2.450376 1_455
Fe3 Yb1 3.121181 1_555
Fe3 Yb0 3.295143 1_555
Fe3 Yb0 3.295143 1_554
Fe4 Ge0 2.434131 1_554
Fe4 Ge0 2.434131 1_555
Fe4 Ge2 2.450376 1_545
Fe4 Yb1 3.121181 1_555
Fe4 Yb0 3.295143 1_555
Fe4 Yb0 3.295143 1_554
Fe5 Ge1 2.434131 1_555
Fe5 Ge1 2.434131 1_556
Fe5 Ge0 2.450376 1_555
Fe5 Yb0 3.121181 1_655
Fe5 Yb1 3.295143 1_556
Fe5 Yb1 3.295143 1_555
Fe6 Ge2 2.434131 1_556
Fe6 Ge2 2.434131 1_555
Fe6 Ge0 2.450376 1_555
Fe6 Yb0 3.121181 1_565
Fe6 Yb1 3.295143 1_556
Fe6 Yb1 3.295143 1_555
Fe7 Ge3 2.434131 1_554
Fe7 Ge3 2.434131 1_555
Fe7 Ge2 2.450376 1_655
Fe7 Yb1 3.121181 1_555
Fe7 Yb0 3.295143 1_664
Fe7 Yb0 3.295143 1_665
Ge0 Yb0 2.907394 1_555
Ge0 Yb1 2.924397 1_556
Ge0 Yb1 2.924397 1_555
Ge1 Yb1 2.907394 1_555
Ge1 Yb0 2.924397 1_655
Ge1 Yb0 2.924397 1_654
Ge2 Yb1 2.907394 1_555
Ge2 Yb0 2.924397 1_564
Ge2 Yb0 2.924397 1_565
Ge3 Yb0 2.907394 1_665
Ge3 Yb1 2.924397 1_556
Ge3 Yb1 2.924397 1_555
