# generated using pymatgen
data_CeCu5Sn
_symmetry_space_group_name_H-M   'P 1'
_cell_length_a   5.04021657
_cell_length_b   8.27269681
_cell_length_c   10.59213651
_cell_angle_alpha   90.00000000
_cell_angle_beta   90.00000000
_cell_angle_gamma   90.00000000
_symmetry_Int_Tables_number   1
_chemical_formula_structural   CeCu5Sn
_chemical_formula_sum   'Ce4 Cu20 Sn4'
_cell_volume   441.65166801
_cell_formula_units_Z   4
loop_
 _symmetry_equiv_pos_site_id
 _symmetry_equiv_pos_as_xyz
  1  'x, y, z'
loop_
 _atom_site_type_symbol
 _atom_site_label
 _atom_site_symmetry_multiplicity
 _atom_site_fract_x
 _atom_site_fract_y
 _atom_site_fract_z
 _atom_site_occupancy
  Ce  Ce0  1  0.75000000  0.25537948  0.94125564  1
  Ce  Ce1  1  0.25000000  0.74462052  0.05874436  1
  Ce  Ce2  1  0.75000000  0.75537948  0.55874436  1
  Ce  Ce3  1  0.25000000  0.24462052  0.44125564  1
  Cu  Cu0  1  -0.00038844  0.56852054  0.31308539  1
  Cu  Cu1  1  0.50038844  0.56852054  0.31308539  1
  Cu  Cu2  1  0.49961156  0.43147946  0.68691461  1
  Cu  Cu3  1  0.75000000  0.81894963  0.24238991  1
  Cu  Cu4  1  0.25000000  0.18105037  0.75761009  1
  Cu  Cu5  1  0.25000000  0.43651957  0.89240195  1
  Cu  Cu6  1  -0.00038844  0.06852054  0.18691461  1
  Cu  Cu7  1  0.25000000  0.08152595  0.98375466  1
  Cu  Cu8  1  0.49961156  0.93147946  0.81308539  1
  Cu  Cu9  1  0.75000000  0.06348043  0.39240195  1
  Cu  Cu10  1  0.75000000  0.91847405  0.01624534  1
  Cu  Cu11  1  0.25000000  0.58152595  0.51624534  1
  Cu  Cu12  1  0.00038844  0.43147946  0.68691461  1
  Cu  Cu13  1  0.75000000  0.31894963  0.25761009  1
  Cu  Cu14  1  0.75000000  0.41847405  0.48375466  1
  Cu  Cu15  1  0.75000000  0.56348043  0.10759805  1
  Cu  Cu16  1  0.50038844  0.06852054  0.18691461  1
  Cu  Cu17  1  0.25000000  0.93651957  0.60759805  1
  Cu  Cu18  1  0.25000000  0.68105037  0.74238991  1
  Cu  Cu19  1  0.00038844  0.93147946  0.81308539  1
  Sn  Sn0  1  0.25000000  0.85986427  0.36071266  1
  Sn  Sn1  1  0.25000000  0.35986427  0.13928734  1
  Sn  Sn2  1  0.75000000  0.14013573  0.63928734  1
  Sn  Sn3  1  0.75000000  0.64013573  0.86071266  1
loop_
_geom_bond_atom_site_label_1
_geom_bond_atom_site_label_2
_geom_bond_distance
_geom_bond_site_symmetry_2
Ce0 Cu10 2.898091 1_546
Ce0 Cu7 2.936343 1_655
Ce0 Cu7 2.936343 1_555
Ce0 Cu5 2.977292 1_555
Ce0 Cu5 2.977292 1_655
Ce0 Cu15 3.098529 1_556
Ce0 Cu4 3.242352 1_655
Ce0 Cu4 3.242352 1_555
Ce0 Cu8 3.258160 1_545
Ce0 Cu19 3.258160 1_645
Ce0 Cu16 3.277662 1_556
Ce0 Cu6 3.277662 1_656
Ce0 Sn3 3.295319 1_555
Ce0 Cu12 3.312510 1_655
Ce0 Cu2 3.312510 1_555
Ce0 Sn2 3.337553 1_555
Ce0 Sn1 3.390858 1_556
Ce0 Sn1 3.390858 1_656
Ce0 Cu13 3.391886 1_556
Ce1 Cu7 2.898091 1_564
Ce1 Cu10 2.936343 1_455
Ce1 Cu10 2.936343 1_555
Ce1 Cu15 2.977292 1_455
Ce1 Cu15 2.977292 1_555
Ce1 Cu5 3.098529 1_554
Ce1 Cu3 3.242352 1_555
Ce1 Cu3 3.242352 1_455
Ce1 Cu16 3.258160 1_565
Ce1 Cu6 3.258160 1_565
Ce1 Cu19 3.277662 1_554
Ce1 Cu8 3.277662 1_554
Ce1 Sn1 3.295319 1_555
Ce1 Cu0 3.312510 1_555
Ce1 Cu1 3.312510 1_555
Ce1 Sn0 3.337553 1_555
Ce1 Sn3 3.390858 1_454
Ce1 Sn3 3.390858 1_554
Ce1 Cu18 3.391886 1_554
Ce2 Cu14 2.898091 1_555
Ce2 Cu11 2.936343 1_555
Ce2 Cu11 2.936343 1_655
Ce2 Cu17 2.977292 1_655
Ce2 Cu17 2.977292 1_555
Ce2 Cu9 3.098529 1_565
Ce2 Cu18 3.242352 1_555
Ce2 Cu18 3.242352 1_655
Ce2 Cu2 3.258160 1_555
Ce2 Cu12 3.258160 1_655
Ce2 Cu0 3.277662 1_655
Ce2 Cu1 3.277662 1_555
Ce2 Sn2 3.295319 1_565
Ce2 Cu19 3.312510 1_655
Ce2 Cu8 3.312510 1_555
Ce2 Sn3 3.337553 1_555
Ce2 Sn0 3.390858 1_655
Ce2 Sn0 3.390858 1_555
Ce2 Cu3 3.391886 1_555
Ce3 Cu11 2.898091 1_555
Ce3 Cu14 2.936343 1_555
Ce3 Cu14 2.936343 1_455
Ce3 Cu9 2.977292 1_455
Ce3 Cu9 2.977292 1_555
Ce3 Cu17 3.098529 1_545
Ce3 Cu13 3.242352 1_555
Ce3 Cu13 3.242352 1_455
Ce3 Cu0 3.258160 1_555
Ce3 Cu1 3.258160 1_555
Ce3 Cu12 3.277662 1_555
Ce3 Cu2 3.277662 1_555
Ce3 Sn0 3.295319 1_545
Ce3 Cu6 3.312510 1_555
Ce3 Cu16 3.312510 1_555
Ce3 Sn1 3.337553 1_555
Ce3 Sn2 3.390858 1_455
Ce3 Sn2 3.390858 1_555
Ce3 Cu4 3.391886 1_555
Cu0 Cu13 2.488123 1_455
Cu0 Cu11 2.496981 1_555
Cu0 Cu15 2.514342 1_455
Cu0 Cu1 2.516193 1_455
Cu0 Cu1 2.524024 1_555
Cu0 Cu14 2.528156 1_455
Cu0 Cu3 2.536843 1_455
Cu0 Sn0 2.766988 1_555
Cu0 Sn1 2.821552 1_555
Cu1 Cu13 2.488123 1_555
Cu1 Cu11 2.496981 1_555
Cu1 Cu15 2.514342 1_555
Cu1 Cu14 2.528156 1_555
Cu1 Cu3 2.536843 1_555
Cu1 Sn0 2.766988 1_555
Cu1 Sn1 2.821552 1_555
Cu2 Cu5 2.514342 1_555
Cu2 Cu4 2.536843 1_555
Cu2 Sn2 2.766988 1_555
Cu2 Sn3 2.821552 1_555
Cu3 Cu6 2.488123 1_665
Cu3 Cu9 2.572353 1_565
Cu3 Sn0 2.834828 1_655
Cu3 Sn0 2.834828 1_555
Cu4 Cu8 2.488123 1_545
Cu4 Cu7 2.532904 1_555
Cu4 Cu5 2.550483 1_555
Cu4 Sn2 2.834828 1_555
Cu4 Sn2 2.834828 1_455
Cu5 Sn1 2.690835 1_556
Cu5 Sn3 3.049754 1_455
Cu5 Sn3 3.049754 1_555
Cu5 Cu7 3.092057 1_555
Cu6 Cu7 2.496981 1_554
Cu6 Cu9 2.514342 1_455
Cu6 Sn1 2.766988 1_555
Cu6 Sn0 2.821552 1_545
Cu7 Cu8 2.528156 1_545
Cu7 Sn1 2.831256 1_556
Cu8 Sn3 2.766988 1_555
Cu8 Sn2 2.821552 1_565
Cu9 Sn2 2.690835 1_555
Cu9 Sn0 3.049754 1_645
Cu9 Sn0 3.049754 1_545
Cu10 Cu19 2.496981 1_654
Cu10 Cu8 2.496981 1_554
Cu10 Cu16 2.528156 1_565
Cu10 Cu6 2.528156 1_665
Cu10 Cu3 2.532904 1_555
Cu10 Sn3 2.831256 1_554
Cu10 Cu7 2.879037 1_564
Cu10 Cu7 2.879037 1_664
Cu10 Cu15 3.092057 1_555
Cu11 Cu2 2.528156 1_555
Cu11 Cu12 2.528156 1_555
Cu11 Cu18 2.532904 1_555
Cu11 Sn0 2.831256 1_555
Cu11 Cu14 2.879037 1_555
Cu11 Cu14 2.879037 1_455
Cu11 Cu17 3.092057 1_555
Cu12 Cu18 2.488123 1_555
Cu12 Cu14 2.496981 1_455
Cu12 Cu5 2.514342 1_555
Cu12 Cu2 2.516193 1_555
Cu12 Cu2 2.524024 1_455
Cu12 Cu4 2.536843 1_555
Cu12 Sn2 2.766988 1_455
Cu12 Sn3 2.821552 1_455
Cu13 Cu14 2.532904 1_555
Cu13 Cu16 2.536843 1_555
Cu13 Cu6 2.536843 1_655
Cu13 Cu9 2.550483 1_555
Cu13 Cu15 2.572353 1_555
Cu13 Sn1 2.834828 1_555
Cu13 Sn1 2.834828 1_655
Cu14 Cu2 2.496981 1_555
Cu14 Sn2 2.831256 1_555
Cu14 Cu9 3.092057 1_555
Cu15 Cu3 2.550483 1_555
Cu15 Sn3 2.690835 1_554
Cu15 Sn1 3.049754 1_555
Cu15 Sn1 3.049754 1_655
Cu16 Cu3 2.488123 1_545
Cu16 Cu7 2.496981 1_554
Cu16 Cu9 2.514342 1_555
Cu16 Cu6 2.516193 1_655
Cu16 Cu6 2.524024 1_555
Cu16 Sn1 2.766988 1_555
Cu16 Sn0 2.821552 1_545
Cu17 Cu8 2.514342 1_555
Cu17 Cu19 2.514342 1_555
Cu17 Cu18 2.550483 1_555
Cu17 Cu4 2.572353 1_565
Cu17 Sn0 2.690835 1_555
Cu17 Sn2 3.049754 1_465
Cu17 Sn2 3.049754 1_565
Cu18 Cu2 2.488123 1_555
Cu18 Cu19 2.536843 1_555
Cu18 Cu8 2.536843 1_555
Cu18 Cu5 2.572353 1_555
Cu18 Sn3 2.834828 1_455
Cu18 Sn3 2.834828 1_555
Cu19 Cu4 2.488123 1_565
Cu19 Cu8 2.516193 1_555
Cu19 Cu8 2.524024 1_455
Cu19 Cu7 2.528156 1_565
Cu19 Sn3 2.766988 1_455
Cu19 Sn2 2.821552 1_465
