# generated using pymatgen
data_SrLi2Ta2O7
_symmetry_space_group_name_H-M   'P 1'
_cell_length_a   3.94070066
_cell_length_b   3.94070016
_cell_length_c   9.44985323
_cell_angle_alpha   102.03481470
_cell_angle_beta   102.03481443
_cell_angle_gamma   89.99999278
_symmetry_Int_Tables_number   1
_chemical_formula_structural   SrLi2Ta2O7
_chemical_formula_sum   'Sr1 Li2 Ta2 O7'
_cell_volume   140.22301526
_cell_formula_units_Z   1
loop_
 _symmetry_equiv_pos_site_id
 _symmetry_equiv_pos_as_xyz
  1  'x, y, z'
loop_
 _atom_site_type_symbol
 _atom_site_label
 _atom_site_symmetry_multiplicity
 _atom_site_fract_x
 _atom_site_fract_y
 _atom_site_fract_z
 _atom_site_occupancy
  Sr  Sr0  1  0.00000000  0.00000000  -0.00000000  1
  Li  Li0  1  0.25000000  0.75000000  0.50000000  1
  Li  Li1  1  0.75000000  0.25000000  0.50000000  1
  Ta  Ta0  1  0.61606534  0.61606534  0.23213068  1
  Ta  Ta1  1  0.38393466  0.38393466  0.76786932  1
  O  O0  1  0.50000000  0.50000000  -0.00000000  1
  O  O1  1  0.60531981  0.10531981  0.21063963  1
  O  O2  1  0.10531981  0.60531981  0.21063963  1
  O  O3  1  0.39468019  0.89468019  0.78936037  1
  O  O4  1  0.89468019  0.39468019  0.78936037  1
  O  O5  1  0.28040780  0.28040780  0.56081560  1
  O  O6  1  0.71959220  0.71959220  0.43918440  1
loop_
_geom_bond_atom_site_label_1
_geom_bond_atom_site_label_2
_geom_bond_distance
_geom_bond_site_symmetry_2
Li0 O5 2.045444 1_565
Li0 O5 2.045444 1_555
Li0 O6 2.045444 1_455
Li0 O6 2.045444 1_555
Li1 O6 2.045444 1_545
Li1 O6 2.045444 1_555
Li1 O5 2.045444 1_655
Li1 O5 2.045444 1_555
O0 Ta1 2.096066 1_554
O0 Ta0 2.096066 1_555
O0 Sr0 2.786496 1_655
O0 Sr0 2.786496 1_565
O0 Sr0 2.786496 1_665
O0 Sr0 2.786496 1_555
O1 Ta0 1.979883 1_545
O1 Ta0 1.979883 1_555
O1 Sr0 2.738598 1_555
O1 Sr0 2.738598 1_655
O2 Ta0 1.979883 1_455
O2 Ta0 1.979884 1_555
O2 Sr0 2.738598 1_555
O2 Sr0 2.738598 1_565
O3 Ta1 1.979883 1_565
O3 Ta1 1.979883 1_555
O3 Sr0 2.738598 1_666
O3 Sr0 2.738598 1_566
O4 Ta1 1.979883 1_655
O4 Ta1 1.979884 1_555
O4 Sr0 2.738598 1_666
O4 Sr0 2.738598 1_656
O5 Ta1 1.869629 1_555
O6 Ta0 1.869629 1_555
