# generated using pymatgen
data_Li2Fe(PO3)8
_symmetry_space_group_name_H-M   'P 1'
_cell_length_a   7.25657211
_cell_length_b   7.29751233
_cell_length_c   9.77324011
_cell_angle_alpha   69.57794641
_cell_angle_beta   82.02154680
_cell_angle_gamma   109.91362096
_symmetry_Int_Tables_number   1
_chemical_formula_structural   Li2Fe(PO3)8
_chemical_formula_sum   'Li2 Fe1 P8 O24'
_cell_volume   436.08107096
_cell_formula_units_Z   1
loop_
 _symmetry_equiv_pos_site_id
 _symmetry_equiv_pos_as_xyz
  1  'x, y, z'
loop_
 _atom_site_type_symbol
 _atom_site_label
 _atom_site_symmetry_multiplicity
 _atom_site_fract_x
 _atom_site_fract_y
 _atom_site_fract_z
 _atom_site_occupancy
  Li  Li0  1  0.48793600  0.99711300  0.50532200  1
  Li  Li1  1  0.05224600  0.80243100  0.75204900  1
  Fe  Fe0  1  0.94994300  0.19485500  0.24676200  1
  P  P0  1  0.70572700  0.50790100  0.29649600  1
  P  P1  1  0.25827600  0.29186800  0.47249200  1
  P  P2  1  0.68576600  0.99269000  0.81100000  1
  P  P3  1  0.30228800  0.49634200  0.68987800  1
  P  P4  1  0.72453700  0.27205600  0.98141900  1
  P  P5  1  0.26320800  0.73087100  0.02782600  1
  P  P6  1  0.75282700  0.70560700  0.52071100  1
  P  P7  1  0.30437300  0.00310700  0.20282800  1
  O  O0  1  0.19096100  0.86723100  0.91542300  1
  O  O1  1  0.48714600  0.20547700  0.06126000  1
  O  O2  1  0.72683800  0.89849300  0.41346400  1
  O  O3  1  0.73408000  0.30524700  0.31140300  1
  O  O4  1  0.76982300  0.55456700  0.43608600  1
  O  O5  1  0.23144400  0.44464400  0.55457700  1
  O  O6  1  0.88101500  0.96036600  0.80818100  1
  O  O7  1  0.92144200  0.74354500  0.59177100  1
  O  O8  1  0.81652400  0.70202400  0.14802300  1
  O  O9  1  0.50121700  0.78776300  0.94667900  1
  O  O10  1  0.46517000  0.45759500  0.33104900  1
  O  O11  1  0.08361900  0.25206400  0.40390400  1
  O  O12  1  0.11491000  0.04513900  0.19450900  1
  O  O13  1  0.28562100  0.79802200  0.16775300  1
  O  O14  1  0.65009500  0.03552000  0.65731300  1
  O  O15  1  0.18926600  0.30712200  0.84474600  1
  O  O16  1  0.80744900  0.14277500  0.09253000  1
  O  O17  1  0.35510700  0.96293400  0.34915000  1
  O  O18  1  0.27639700  0.69423700  0.68442500  1
  O  O19  1  0.83390800  0.51110100  0.90864300  1
  O  O20  1  0.15713600  0.48902200  0.09657200  1
  O  O21  1  0.69944800  0.19260100  0.84706800  1
  O  O22  1  0.53998500  0.54213900  0.65413300  1
  O  O23  1  0.29235200  0.11176300  0.57861000  1
loop_
_geom_bond_atom_site_label_1
_geom_bond_atom_site_label_2
_geom_bond_distance
_geom_bond_site_symmetry_2
Li0 O17 1.957344 1_555
Li0 O23 2.042611 1_565
Li0 O14 2.054478 1_565
Li0 O18 2.132708 1_555
Li0 O3 2.277879 1_565
Li0 O2 2.279922 1_555
Li1 O19 2.033222 1_455
Li1 O7 2.035679 1_455
Li1 O6 2.097801 1_455
Li1 O0 2.105970 1_555
Li1 O18 2.155569 1_555
Li1 O23 2.198922 1_565
Fe0 O12 1.999529 1_655
Fe0 O20 2.003277 1_655
Fe0 O16 2.012583 1_555
Fe0 O11 2.014703 1_655
Fe0 O2 2.091989 1_545
Fe0 O3 2.107565 1_555
O0 P5 1.491388 1_556
O1 P7 1.607701 1_555
O1 P4 1.613869 1_554
O2 P6 1.523677 1_555
O3 P0 1.521791 1_555
O4 P0 1.608087 1_555
O4 P6 1.616967 1_555
O5 P3 1.599970 1_555
O5 P1 1.628848 1_555
O6 P2 1.511687 1_555
O7 P6 1.481684 1_555
O8 P0 1.491488 1_555
O9 P2 1.595955 1_555
O9 P5 1.638848 1_556
O10 P0 1.615332 1_555
O10 P1 1.627225 1_555
O11 P1 1.503657 1_555
O12 P7 1.513872 1_555
O13 P7 1.614966 1_565
O13 P5 1.616129 1_555
O14 P2 1.502058 1_545
O15 P3 1.515136 1_555
O16 P4 1.511405 1_554
O17 P7 1.481081 1_565
O18 P3 1.502525 1_555
O19 P4 1.487661 1_555
O20 P5 1.504080 1_555
O21 P2 1.591317 1_545
O21 P4 1.618391 1_555
O22 P3 1.602328 1_555
O22 P6 1.615282 1_555
O23 P1 1.485096 1_555
