# generated using pymatgen
data_K3As7
_symmetry_space_group_name_H-M   'P 1'
_cell_length_a   13.11793300
_cell_length_b   15.65126400
_cell_length_c   25.90901100
_cell_angle_alpha   90.00000000
_cell_angle_beta   90.00000000
_cell_angle_gamma   90.00000000
_symmetry_Int_Tables_number   1
_chemical_formula_structural   K3As7
_chemical_formula_sum   'K48 As112'
_cell_volume   5319.43689073
_cell_formula_units_Z   16
loop_
 _symmetry_equiv_pos_site_id
 _symmetry_equiv_pos_as_xyz
  1  'x, y, z'
loop_
 _atom_site_type_symbol
 _atom_site_label
 _atom_site_symmetry_multiplicity
 _atom_site_fract_x
 _atom_site_fract_y
 _atom_site_fract_z
 _atom_site_occupancy
  K  K0  1  0.54241900  0.53950000  0.82069300  1
  K  K1  1  0.95432100  0.64275400  0.55945700  1
  K  K2  1  0.38436000  0.91391700  0.92300100  1
  K  K3  1  0.13015800  0.39486400  0.87080100  1
  K  K4  1  0.88436000  0.58608300  0.92300100  1
  K  K5  1  0.13015800  0.89486400  0.62919900  1
  K  K6  1  0.61564000  0.58608300  0.42300100  1
  K  K7  1  0.27920100  0.66597000  0.72041300  1
  K  K8  1  0.95758100  0.03950000  0.17930700  1
  K  K9  1  0.13271500  0.75399300  0.91963500  1
  K  K10  1  0.04567900  0.85724600  0.05945700  1
  K  K11  1  0.13271500  0.25399300  0.58036500  1
  K  K12  1  0.86728500  0.24600700  0.08036500  1
  K  K13  1  0.61564000  0.08608300  0.07699900  1
  K  K14  1  0.95758100  0.53950000  0.32069300  1
  K  K15  1  0.45432100  0.85724600  0.55945700  1
  K  K16  1  0.36728500  0.75399300  0.41963500  1
  K  K17  1  0.86728500  0.74600700  0.41963500  1
  K  K18  1  0.36984200  0.39486400  0.37080100  1
  K  K19  1  0.36984200  0.89486400  0.12919900  1
  K  K20  1  0.45758100  0.46050000  0.17930700  1
  K  K21  1  0.77920100  0.83403000  0.72041300  1
  K  K22  1  0.04241900  0.46050000  0.67930700  1
  K  K23  1  0.88436000  0.08608300  0.57699900  1
  K  K24  1  0.72079900  0.83403000  0.22041300  1
  K  K25  1  0.04241900  0.96050000  0.82069300  1
  K  K26  1  0.54567900  0.64275400  0.05945700  1
  K  K27  1  0.22079900  0.66597000  0.22041300  1
  K  K28  1  0.86984200  0.60513600  0.12919900  1
  K  K29  1  0.95432100  0.14275400  0.94054300  1
  K  K30  1  0.63015800  0.10513600  0.87080100  1
  K  K31  1  0.45758100  0.96050000  0.32069300  1
  K  K32  1  0.36728500  0.25399300  0.08036500  1
  K  K33  1  0.54241900  0.03950000  0.67930700  1
  K  K34  1  0.04567900  0.35724600  0.44054300  1
  K  K35  1  0.63271500  0.74600700  0.91963500  1
  K  K36  1  0.11564000  0.91391700  0.42300100  1
  K  K37  1  0.45432100  0.35724600  0.94054300  1
  K  K38  1  0.63015800  0.60513600  0.62919900  1
  K  K39  1  0.86984200  0.10513600  0.37080100  1
  K  K40  1  0.11564000  0.41391700  0.07699900  1
  K  K41  1  0.38436000  0.41391700  0.57699900  1
  K  K42  1  0.27920100  0.16597000  0.77958700  1
  K  K43  1  0.72079900  0.33403000  0.27958700  1
  K  K44  1  0.54567900  0.14275400  0.44054300  1
  K  K45  1  0.77920100  0.33403000  0.77958700  1
  K  K46  1  0.22079900  0.16597000  0.27958700  1
  K  K47  1  0.63271500  0.24600700  0.58036500  1
  As  As0  1  0.62210100  0.86044500  0.04783200  1
  As  As1  1  0.12417300  0.86823000  0.18476300  1
  As  As2  1  0.87582700  0.63177000  0.68476300  1
  As  As3  1  0.20165900  0.93495600  0.26091000  1
  As  As4  1  0.21414700  0.23156700  0.95542600  1
  As  As5  1  0.12210100  0.13955500  0.45216800  1
  As  As6  1  0.06367300  0.61554500  0.80155800  1
  As  As7  1  0.79834100  0.06504400  0.73909000  1
  As  As8  1  0.31618200  0.54512100  0.96007600  1
  As  As9  1  0.94660300  0.24521200  0.68497900  1
  As  As10  1  0.36917400  0.69475700  0.96612400  1
  As  As11  1  0.62210100  0.36044500  0.45216800  1
  As  As12  1  0.56367300  0.38445500  0.69844200  1
  As  As13  1  0.20165900  0.43495600  0.23909000  1
  As  As14  1  0.72175100  0.18963300  0.18344400  1
  As  As15  1  0.55061400  0.99820100  0.19986500  1
  As  As16  1  0.81618200  0.45487900  0.53992400  1
  As  As17  1  0.21414700  0.73156700  0.54457400  1
  As  As18  1  0.43632700  0.61554500  0.30155800  1
  As  As19  1  0.28585300  0.73156700  0.04457400  1
  As  As20  1  0.01133900  0.70946000  0.72402700  1
  As  As21  1  0.77824900  0.18963300  0.68344300  1
  As  As22  1  0.71936000  0.40536300  0.90150400  1
  As  As23  1  0.13744500  0.99004400  0.95312800  1
  As  As24  1  0.05339700  0.25478800  0.18497900  1
  As  As25  1  0.27824900  0.31036700  0.68344300  1
  As  As26  1  0.86917400  0.80524300  0.96612400  1
  As  As27  1  0.05339700  0.75478800  0.31502100  1
  As  As28  1  0.13082600  0.69475700  0.46612400  1
  As  As29  1  0.68381800  0.45487900  0.03992400  1
  As  As30  1  0.70165900  0.06504400  0.23909000  1
  As  As31  1  0.87789900  0.86044500  0.54783200  1
  As  As32  1  0.71936000  0.90536300  0.59849600  1
  As  As33  1  0.48866100  0.70946000  0.22402700  1
  As  As34  1  0.21936000  0.09463700  0.90150400  1
  As  As35  1  0.36839800  0.55425200  0.47187100  1
  As  As36  1  0.13160200  0.05425200  0.52812900  1
  As  As37  1  0.98866100  0.29054000  0.27597300  1
  As  As38  1  0.28064000  0.09463700  0.40150400  1
  As  As39  1  0.63744500  0.50995600  0.95312800  1
  As  As40  1  0.44938600  0.50179900  0.69986500  1
  As  As41  1  0.06367300  0.11554500  0.69844200  1
  As  As42  1  0.44660300  0.75478800  0.81502100  1
  As  As43  1  0.48866100  0.20946000  0.27597300  1
  As  As44  1  0.79834100  0.56504400  0.76091000  1
  As  As45  1  0.43632700  0.11554500  0.19844200  1
  As  As46  1  0.37582700  0.36823000  0.81523700  1
  As  As47  1  0.36255500  0.99004400  0.45312800  1
  As  As48  1  0.29834100  0.43495600  0.73909000  1
  As  As49  1  0.13160200  0.55425200  0.97187100  1
  As  As50  1  0.28064000  0.59463700  0.09849600  1
  As  As51  1  0.55339700  0.24521200  0.18497900  1
  As  As52  1  0.44660300  0.25478800  0.68497900  1
  As  As53  1  0.51133900  0.29054000  0.77597300  1
  As  As54  1  0.37789900  0.13955500  0.95216800  1
  As  As55  1  0.87789900  0.36044500  0.95216800  1
  As  As56  1  0.22175100  0.81036700  0.31655700  1
  As  As57  1  0.51133900  0.79054000  0.72402700  1
  As  As58  1  0.63744500  0.00995600  0.54687200  1
  As  As59  1  0.37582700  0.86823000  0.68476300  1
  As  As60  1  0.63082600  0.80524300  0.46612400  1
  As  As61  1  0.87582700  0.13177000  0.81523700  1
  As  As62  1  0.63160200  0.94574800  0.97187100  1
  As  As63  1  0.05061400  0.00179900  0.30013500  1
  As  As64  1  0.36917400  0.19475700  0.53387600  1
  As  As65  1  0.28585300  0.23156700  0.45542600  1
  As  As66  1  0.27824900  0.81036700  0.81655700  1
  As  As67  1  0.13082600  0.19475700  0.03387600  1
  As  As68  1  0.86839800  0.94574800  0.47187100  1
  As  As69  1  0.86839800  0.44574800  0.02812900  1
  As  As70  1  0.18381800  0.04512100  0.03992400  1
  As  As71  1  0.70165900  0.56504400  0.26091000  1
  As  As72  1  0.94660300  0.74521200  0.81502100  1
  As  As73  1  0.55339700  0.74521200  0.31502100  1
  As  As74  1  0.78064000  0.40536300  0.40150400  1
  As  As75  1  0.71414700  0.76843300  0.54457400  1
  As  As76  1  0.12417300  0.36823000  0.31523700  1
  As  As77  1  0.31618200  0.04512100  0.53992400  1
  As  As78  1  0.78585300  0.26843300  0.45542600  1
  As  As79  1  0.12210100  0.63955500  0.04783200  1
  As  As80  1  0.13744500  0.49004400  0.54687200  1
  As  As81  1  0.93632700  0.38445500  0.19844200  1
  As  As82  1  0.62417300  0.63177000  0.18476300  1
  As  As83  1  0.21936000  0.59463700  0.59849600  1
  As  As84  1  0.81618200  0.95487900  0.96007600  1
  As  As85  1  0.01133900  0.20946000  0.77597300  1
  As  As86  1  0.86917400  0.30524300  0.53387600  1
  As  As87  1  0.94938600  0.99820100  0.69986500  1
  As  As88  1  0.93632700  0.88445500  0.30155800  1
  As  As89  1  0.22175100  0.31036700  0.18344400  1
  As  As90  1  0.62417300  0.13177000  0.31523700  1
  As  As91  1  0.86255500  0.50995600  0.45312800  1
  As  As92  1  0.71414700  0.26843300  0.95542600  1
  As  As93  1  0.68381800  0.95487900  0.46007600  1
  As  As94  1  0.29834100  0.93495600  0.76091000  1
  As  As95  1  0.36255500  0.49004400  0.04687200  1
  As  As96  1  0.98866100  0.79054000  0.22402700  1
  As  As97  1  0.18381800  0.54512100  0.46007600  1
  As  As98  1  0.63082600  0.30524300  0.03387600  1
  As  As99  1  0.56367300  0.88445500  0.80155800  1
  As  As100  1  0.05061400  0.50179900  0.19986500  1
  As  As101  1  0.78064000  0.90536300  0.09849600  1
  As  As102  1  0.63160200  0.44574800  0.52812900  1
  As  As103  1  0.55061400  0.49820100  0.30013500  1
  As  As104  1  0.86255500  0.00995600  0.04687200  1
  As  As105  1  0.94938600  0.49820100  0.80013500  1
  As  As106  1  0.37789900  0.63955500  0.54783200  1
  As  As107  1  0.72175100  0.68963300  0.31655700  1
  As  As108  1  0.78585300  0.76843300  0.04457400  1
  As  As109  1  0.77824900  0.68963300  0.81655700  1
  As  As110  1  0.44938600  0.00179900  0.80013500  1
  As  As111  1  0.36839800  0.05425200  0.02812900  1
loop_
_geom_bond_atom_site_label_1
_geom_bond_atom_site_label_2
_geom_bond_distance
_geom_bond_site_symmetry_2
As0 As62 2.381458 1_554
As0 As101 2.557826 1_555
As0 As108 2.587529 1_555
As0 K26 3.564312 1_555
As0 K13 3.612462 1_565
As0 K35 3.776176 1_554
As0 K19 3.960391 1_555
As1 As96 2.381891 1_455
As1 As3 2.452784 1_555
As1 K10 3.410265 1_555
As1 K8 3.461398 1_465
As1 K27 3.532840 1_555
As1 K19 3.554130 1_555
As2 As20 2.381891 1_655
As2 As44 2.452784 1_555
As2 K1 3.410265 1_555
As2 K22 3.461398 1_655
As2 K21 3.532840 1_555
As2 K38 3.554130 1_555
As3 As56 2.439373 1_555
As3 As63 2.460336 1_565
As3 K46 3.656529 1_565
As3 K31 3.718812 1_555
As4 As67 2.378628 1_556
As4 As54 2.587529 1_555
As4 K3 3.543062 1_555
As4 K29 3.701073 1_455
As4 K37 3.734182 1_555
As4 K32 3.825854 1_556
As5 As65 2.587529 1_555
As5 K34 3.564312 1_555
As5 K36 3.612462 1_545
As5 K11 3.776176 1_555
As5 K39 3.960391 1_455
As6 As72 2.568808 1_455
As6 K7 3.610597 1_555
As6 K9 3.856777 1_555
As7 As87 2.460336 1_545
As7 K21 3.656529 1_545
As7 K33 3.718812 1_555
As8 As95 2.483995 1_556
As8 K37 3.490881 1_555
As9 K45 3.572544 1_555
As9 K22 3.599325 1_655
As9 K11 3.650460 1_655
As9 K23 3.833599 1_555
As10 As19 2.378628 1_556
As10 As8 2.448001 1_555
As10 K26 3.445427 1_556
As10 K9 3.454247 1_555
As10 K2 3.613002 1_555
As10 K35 3.747776 1_555
As11 As74 2.557826 1_555
As11 As78 2.587529 1_555
As11 K44 3.564312 1_555
As11 K6 3.612462 1_555
As11 K47 3.776176 1_555
As11 K18 3.960391 1_555
As12 As40 2.371080 1_555
As12 As52 2.568808 1_555
As12 As53 2.582045 1_555
As12 K45 3.610597 1_555
As12 K47 3.856777 1_555
As13 As89 2.439357 1_555
As13 As76 2.452784 1_555
As13 K27 3.656529 1_555
As13 K20 3.718812 1_555
As14 As51 2.373933 1_555
As14 As30 2.439357 1_555
As14 K43 3.363431 1_555
As14 K12 3.399365 1_555
As14 K13 3.488567 1_555
As14 K8 3.886295 1_555
As15 As45 2.371080 1_565
As15 As30 2.460336 1_565
As15 K19 3.404601 1_555
As15 K31 3.411422 1_555
As15 K24 3.445231 1_555
As15 K13 3.571156 1_565
As16 As86 2.448001 1_555
As16 As91 2.483995 1_555
As16 K1 3.490881 1_555
As17 As28 2.378628 1_555
As17 As83 2.559192 1_555
As17 K5 3.543062 1_555
As17 K1 3.701073 1_455
As17 K15 3.734182 1_555
As17 K16 3.825854 1_555
As18 As73 2.568808 1_555
As18 As33 2.582045 1_555
As18 K27 3.610597 1_555
As18 K16 3.856777 1_555
As19 As50 2.559192 1_555
As19 As79 2.587529 1_555
As19 K19 3.543062 1_555
As19 K26 3.701073 1_555
As19 K10 3.734182 1_555
As19 K9 3.825854 1_554
As20 As72 2.567561 1_455
As20 As6 2.582045 1_555
As20 K7 3.580341 1_555
As20 K21 3.617054 1_455
As21 As9 2.373933 1_555
As21 As7 2.439373 1_555
As21 K45 3.363450 1_555
As21 K47 3.399345 1_555
As21 K23 3.488547 1_555
As21 K33 3.886294 1_555
As22 As39 2.371383 1_555
As22 As55 2.557826 1_555
As22 As92 2.559192 1_555
As22 K45 3.440984 1_555
As22 K4 3.604925 1_555
As22 K37 3.698390 1_555
As22 K0 3.765470 1_555
As23 As34 2.371383 1_565
As23 As70 2.483995 1_566
As23 K29 3.404339 1_465
As23 K2 3.538379 1_555
As23 K10 3.654918 1_556
As23 K25 3.679841 1_555
As23 K9 3.795547 1_555
As24 As89 2.373933 1_555
As24 As37 2.567561 1_455
As24 As81 2.568808 1_455
As24 K46 3.572544 1_555
As24 K8 3.599325 1_455
As24 K12 3.650460 1_455
As24 K40 3.833599 1_555
As25 As52 2.373933 1_555
As25 As48 2.439373 1_555
As25 K42 3.363450 1_555
As25 K11 3.399345 1_555
As25 K41 3.488547 1_555
As25 K22 3.886294 1_555
As26 As84 2.448001 1_555
As26 K10 3.445427 1_656
As26 K35 3.454247 1_555
As26 K4 3.613002 1_555
As26 K9 3.747776 1_655
As27 As56 2.373933 1_555
As27 As96 2.567561 1_455
As27 As88 2.568808 1_455
As27 K27 3.572544 1_555
As27 K14 3.599325 1_455
As27 K17 3.650460 1_455
As27 K36 3.833599 1_555
As28 As97 2.448001 1_555
As28 K1 3.445427 1_455
As28 K16 3.454247 1_555
As28 K36 3.613002 1_555
As28 K17 3.747776 1_455
As29 As69 2.444698 1_555
As29 As98 2.448001 1_555
As29 As39 2.483995 1_554
As29 K26 3.490881 1_555
As30 As90 2.452784 1_555
As30 K24 3.656529 1_545
As30 K8 3.718812 1_555
As31 As68 2.381458 1_555
As31 As32 2.557826 1_555
As31 As75 2.587529 1_555
As31 K1 3.564312 1_555
As31 K23 3.612462 1_565
As31 K17 3.776176 1_555
As31 K5 3.960391 1_655
As32 As58 2.371383 1_565
As32 As75 2.559192 1_555
As32 K21 3.440984 1_555
As32 K23 3.604925 1_565
As32 K15 3.698390 1_555
As32 K33 3.765470 1_565
As33 As82 2.381891 1_555
As33 As73 2.567561 1_555
As33 K27 3.580341 1_555
As33 K24 3.617054 1_555
As34 As54 2.557826 1_555
As34 As4 2.559192 1_555
As34 K42 3.440984 1_555
As34 K2 3.604925 1_545
As34 K29 3.698390 1_455
As34 K25 3.765470 1_545
As35 As97 2.444698 1_555
As35 K16 3.406608 1_555
As35 K41 3.505280 1_555
As35 K6 3.517160 1_555
As35 K18 3.616725 1_555
As36 As5 2.381458 1_555
As36 As77 2.444698 1_555
As36 K11 3.406608 1_555
As36 K36 3.505280 1_545
As36 K23 3.517160 1_455
As36 K5 3.616725 1_545
As37 As76 2.381891 1_655
As37 As81 2.582045 1_555
As37 K43 3.580341 1_555
As37 K46 3.617054 1_655
As38 As47 2.371383 1_545
As38 As5 2.557826 1_555
As38 As65 2.559192 1_555
As38 K46 3.440984 1_555
As38 K36 3.604925 1_545
As38 K44 3.698390 1_555
As38 K31 3.765470 1_545
As39 K37 3.404339 1_555
As39 K4 3.538379 1_555
As39 K26 3.654918 1_556
As39 K0 3.679841 1_555
As39 K35 3.795547 1_555
As40 As48 2.460336 1_555
As40 K38 3.404601 1_555
As40 K0 3.411422 1_555
As40 K7 3.445231 1_555
As40 K41 3.571156 1_555
As41 As87 2.371080 1_445
As41 As9 2.568808 1_455
As41 As85 2.582045 1_555
As41 K42 3.610597 1_555
As41 K11 3.856777 1_555
As42 As66 2.373933 1_555
As42 As57 2.567561 1_555
As42 As99 2.568808 1_555
As42 K7 3.572544 1_555
As42 K0 3.599325 1_555
As42 K35 3.650460 1_555
As42 K2 3.833599 1_555
As43 As90 2.381891 1_555
As43 As51 2.567561 1_555
As43 As45 2.582045 1_555
As43 K46 3.580341 1_555
As43 K43 3.617054 1_555
As44 K45 3.656529 1_555
As44 K0 3.718812 1_555
As45 As51 2.568808 1_555
As45 K46 3.610597 1_555
As45 K32 3.856777 1_555
As46 As53 2.381891 1_555
As46 As48 2.452784 1_555
As46 K37 3.410265 1_555
As46 K0 3.461398 1_555
As46 K42 3.532840 1_555
As46 K3 3.554130 1_555
As47 As77 2.483995 1_565
As47 K44 3.404339 1_565
As47 K36 3.538379 1_555
As47 K15 3.654918 1_555
As47 K31 3.679841 1_555
As47 K16 3.795547 1_555
As48 K7 3.656529 1_555
As48 K22 3.718812 1_555
As49 As79 2.381458 1_556
As49 As8 2.444698 1_555
As49 K9 3.406608 1_555
As49 K40 3.505280 1_556
As49 K4 3.517160 1_455
As49 K3 3.616725 1_555
As50 As95 2.371383 1_555
As50 As79 2.557826 1_555
As50 K27 3.440984 1_555
As50 K40 3.604925 1_555
As50 K26 3.698390 1_555
As50 K20 3.765470 1_555
As51 K43 3.572544 1_555
As51 K20 3.599325 1_555
As51 K32 3.650460 1_555
As51 K13 3.833599 1_555
As52 As53 2.567561 1_555
As52 K42 3.572544 1_555
As52 K33 3.599325 1_555
As52 K47 3.650460 1_555
As52 K41 3.833599 1_555
As53 K45 3.580341 1_555
As53 K42 3.617054 1_555
As54 K37 3.564312 1_555
As54 K2 3.612462 1_545
As54 K32 3.776176 1_556
As54 K30 3.960391 1_555
As55 As69 2.381458 1_556
As55 As92 2.587529 1_555
As55 K29 3.564312 1_555
As55 K4 3.612462 1_555
As55 K12 3.776176 1_556
As55 K3 3.960391 1_655
As56 K27 3.363450 1_555
As56 K16 3.399345 1_555
As56 K36 3.488547 1_555
As56 K31 3.886294 1_555
As57 As59 2.381891 1_555
As57 As99 2.582045 1_555
As57 K21 3.580341 1_555
As57 K7 3.617054 1_555
As58 As93 2.483995 1_545
As58 K15 3.404339 1_545
As58 K23 3.538379 1_555
As58 K44 3.654918 1_555
As58 K33 3.679841 1_555
As58 K47 3.795547 1_555
As59 As94 2.452784 1_555
As59 K15 3.410265 1_555
As59 K33 3.461398 1_565
As59 K7 3.532840 1_555
As59 K5 3.554130 1_555
As60 As75 2.378628 1_555
As60 As93 2.448001 1_555
As60 K15 3.445427 1_555
As60 K17 3.454247 1_555
As60 K6 3.613002 1_555
As60 K16 3.747776 1_555
As61 As85 2.381891 1_655
As61 As7 2.452784 1_555
As61 K29 3.410265 1_555
As61 K25 3.461398 1_645
As61 K45 3.532840 1_555
As61 K30 3.554130 1_555
As62 As84 2.444698 1_555
As62 K35 3.406608 1_555
As62 K13 3.505280 1_566
As62 K2 3.517160 1_555
As62 K30 3.616725 1_565
As63 As88 2.371080 1_445
As63 K39 3.404601 1_455
As63 K8 3.411422 1_455
As63 K46 3.445231 1_555
As63 K36 3.571156 1_545
As64 As65 2.378628 1_555
As64 As77 2.448001 1_555
As64 K44 3.445427 1_555
As64 K11 3.454247 1_555
As64 K41 3.613002 1_555
As64 K47 3.747776 1_555
As65 K18 3.543062 1_555
As65 K44 3.701073 1_555
As65 K34 3.734182 1_555
As65 K11 3.825854 1_555
As66 As94 2.439373 1_555
As66 K7 3.363450 1_555
As66 K9 3.399345 1_555
As66 K2 3.488547 1_555
As66 K25 3.886294 1_555
As67 As70 2.448001 1_555
As67 K29 3.445427 1_454
As67 K32 3.454247 1_555
As67 K40 3.613002 1_555
As67 K12 3.747776 1_455
As68 As93 2.444698 1_555
As68 K17 3.406608 1_555
As68 K23 3.505280 1_565
As68 K36 3.517160 1_655
As68 K39 3.616725 1_565
As69 K12 3.406608 1_555
As69 K4 3.505280 1_554
As69 K40 3.517160 1_655
As69 K28 3.616725 1_555
As70 K10 3.490881 1_545
As71 As82 2.452784 1_555
As71 K43 3.656529 1_555
As71 K14 3.718812 1_555
As72 K21 3.572544 1_555
As72 K25 3.599325 1_655
As72 K9 3.650460 1_655
As72 K4 3.833599 1_555
As73 K24 3.572544 1_555
As73 K31 3.599325 1_555
As73 K16 3.650460 1_555
As73 K6 3.833599 1_555
As74 As91 2.371383 1_555
As74 As78 2.559192 1_555
As74 K43 3.440984 1_555
As74 K6 3.604925 1_555
As74 K34 3.698390 1_655
As74 K14 3.765470 1_555
As75 K38 3.543062 1_555
As75 K15 3.701073 1_555
As75 K1 3.734182 1_555
As75 K17 3.825854 1_555
As76 K34 3.410265 1_555
As76 K14 3.461398 1_455
As76 K46 3.532840 1_555
As76 K18 3.554130 1_555
As77 K15 3.490881 1_545
As78 As86 2.378628 1_555
As78 K39 3.543062 1_555
As78 K34 3.701073 1_655
As78 K44 3.734182 1_555
As78 K47 3.825854 1_555
As79 K10 3.564312 1_555
As79 K40 3.612462 1_555
As79 K9 3.776176 1_554
As79 K28 3.960391 1_455
As80 As83 2.371383 1_555
As80 As97 2.483995 1_555
As80 K1 3.404339 1_455
As80 K41 3.538379 1_555
As80 K34 3.654918 1_555
As80 K22 3.679841 1_555
As80 K11 3.795547 1_555
As81 K43 3.610597 1_555
As81 K12 3.856777 1_555
As82 K26 3.410265 1_555
As82 K20 3.461398 1_555
As82 K24 3.532840 1_555
As82 K28 3.554130 1_555
As83 K7 3.440984 1_555
As83 K41 3.604925 1_555
As83 K1 3.698390 1_455
As83 K22 3.765470 1_555
As84 K29 3.490881 1_565
As85 As9 2.567561 1_455
As85 K42 3.580341 1_555
As85 K45 3.617054 1_455
As86 K34 3.445427 1_655
As86 K47 3.454247 1_555
As86 K23 3.613002 1_555
As86 K11 3.747776 1_655
As87 K5 3.404601 1_655
As87 K25 3.411422 1_655
As87 K21 3.445231 1_555
As87 K23 3.571156 1_565
As88 As96 2.582045 1_555
As88 K24 3.610597 1_555
As88 K17 3.856777 1_555
As89 K46 3.363431 1_555
As89 K32 3.399365 1_555
As89 K40 3.488567 1_555
As89 K20 3.886295 1_555
As90 K44 3.410265 1_555
As90 K31 3.461398 1_545
As90 K43 3.532840 1_555
As90 K39 3.554130 1_555
As91 K34 3.404339 1_655
As91 K6 3.538379 1_555
As91 K1 3.654918 1_555
As91 K14 3.679841 1_555
As91 K17 3.795547 1_555
As92 As98 2.378628 1_556
As92 K30 3.543062 1_555
As92 K37 3.701073 1_555
As92 K29 3.734182 1_555
As92 K12 3.825854 1_556
As93 K44 3.490881 1_565
As94 K42 3.656529 1_565
As94 K25 3.718812 1_555
As95 K26 3.404339 1_555
As95 K40 3.538379 1_555
As95 K37 3.654918 1_554
As95 K20 3.679841 1_555
As95 K32 3.795547 1_555
As96 K24 3.580341 1_555
As96 K27 3.617054 1_655
As97 K34 3.490881 1_555
As98 K37 3.445427 1_554
As98 K12 3.454247 1_555
As98 K13 3.613002 1_555
As98 K32 3.747776 1_555
As99 K21 3.610597 1_555
As99 K35 3.856777 1_555
As100 As81 2.371080 1_455
As100 As13 2.460336 1_555
As100 K28 3.404601 1_455
As100 K14 3.411422 1_455
As100 K27 3.445231 1_555
As100 K40 3.571156 1_555
As101 As104 2.371383 1_565
As101 As108 2.559192 1_555
As101 K24 3.440984 1_555
As101 K13 3.604925 1_565
As101 K10 3.698390 1_655
As101 K8 3.765470 1_565
As102 As11 2.381458 1_555
As102 As16 2.444698 1_555
As102 K47 3.406608 1_555
As102 K6 3.505280 1_555
As102 K41 3.517160 1_555
As102 K38 3.616725 1_555
As103 As18 2.371080 1_555
As103 As71 2.460336 1_555
As103 K18 3.404601 1_555
As103 K20 3.411422 1_555
As103 K43 3.445231 1_555
As103 K6 3.571156 1_555
As104 As84 2.483995 1_544
As104 K10 3.404339 1_645
As104 K13 3.538379 1_555
As104 K29 3.654918 1_554
As104 K8 3.679841 1_555
As104 K12 3.795547 1_555
As105 As6 2.371080 1_655
As105 As44 2.460336 1_555
As105 K3 3.404601 1_655
As105 K22 3.411422 1_655
As105 K45 3.445231 1_555
As105 K4 3.571156 1_555
As106 As35 2.381458 1_555
As106 As83 2.557826 1_555
As106 As17 2.587529 1_555
As106 K15 3.564312 1_555
As106 K41 3.612462 1_555
As106 K16 3.776176 1_555
As106 K38 3.960391 1_555
As107 As73 2.373933 1_555
As107 As71 2.439373 1_555
As107 K24 3.363450 1_555
As107 K17 3.399345 1_555
As107 K6 3.488547 1_555
As107 K14 3.886294 1_555
As108 As26 2.378628 1_554
As108 K28 3.543062 1_555
As108 K10 3.701073 1_655
As108 K26 3.734182 1_555
As108 K35 3.825854 1_554
As109 As72 2.373933 1_555
As109 As44 2.439373 1_555
As109 K21 3.363450 1_555
As109 K35 3.399345 1_555
As109 K4 3.488547 1_555
As109 K0 3.886294 1_555
As110 As99 2.371080 1_545
As110 As94 2.460336 1_545
As110 K30 3.404601 1_555
As110 K33 3.411422 1_555
As110 K42 3.445231 1_555
As110 K2 3.571156 1_545
As111 As54 2.381458 1_554
As111 As70 2.444698 1_555
As111 K32 3.406608 1_555
As111 K2 3.505280 1_544
As111 K13 3.517160 1_555
As111 K19 3.616725 1_545
