# generated using pymatgen
data_AlPO4
_symmetry_space_group_name_H-M   'P 1'
_cell_length_a   8.63585600
_cell_length_b   14.02049100
_cell_length_c   24.36945300
_cell_angle_alpha   90.00000000
_cell_angle_beta   90.00000000
_cell_angle_gamma   90.00000000
_symmetry_Int_Tables_number   1
_chemical_formula_structural   AlPO4
_chemical_formula_sum   'Al24 P24 O96'
_cell_volume   2950.62756992
_cell_formula_units_Z   24
loop_
 _symmetry_equiv_pos_site_id
 _symmetry_equiv_pos_as_xyz
  1  'x, y, z'
loop_
 _atom_site_type_symbol
 _atom_site_label
 _atom_site_symmetry_multiplicity
 _atom_site_fract_x
 _atom_site_fract_y
 _atom_site_fract_z
 _atom_site_occupancy
  Al  Al0  1  0.99840300  0.20733500  0.66691200  1
  Al  Al1  1  0.01263100  0.39374600  0.06152300  1
  Al  Al2  1  0.99914600  0.88944600  0.77393000  1
  Al  Al3  1  0.00377000  0.29121300  0.83106200  1
  Al  Al4  1  0.48847400  0.89592000  0.43924900  1
  Al  Al5  1  0.00970800  0.39331400  0.27444200  1
  Al  Al6  1  0.50377000  0.29121300  0.16893800  1
  Al  Al7  1  0.49840300  0.79266500  0.66691200  1
  Al  Al8  1  0.99914600  0.11055400  0.22607000  1
  Al  Al9  1  0.51263100  0.60625400  0.06152300  1
  Al  Al10  1  0.49914600  0.11055400  0.77393000  1
  Al  Al11  1  0.50970800  0.39331400  0.72555800  1
  Al  Al12  1  0.50970800  0.60668600  0.27444200  1
  Al  Al13  1  0.99840300  0.79266500  0.33308800  1
  Al  Al14  1  0.98847400  0.10408000  0.43924900  1
  Al  Al15  1  0.49840300  0.20733500  0.33308800  1
  Al  Al16  1  0.00970800  0.60668600  0.72555800  1
  Al  Al17  1  0.01263100  0.60625400  0.93847700  1
  Al  Al18  1  0.00377000  0.70878700  0.16893800  1
  Al  Al19  1  0.49914600  0.88944600  0.22607000  1
  Al  Al20  1  0.51263100  0.39374600  0.93847700  1
  Al  Al21  1  0.50377000  0.70878700  0.83106200  1
  Al  Al22  1  0.98847400  0.89592000  0.56075100  1
  Al  Al23  1  0.48847400  0.10408000  0.56075100  1
  P  P0  1  0.12513500  0.20910200  0.33578100  1
  P  P1  1  0.13333000  0.39017100  0.93801800  1
  P  P2  1  0.12131500  0.10374200  0.77529600  1
  P  P3  1  0.13333000  0.60982900  0.06198200  1
  P  P4  1  0.61505800  0.89278700  0.56042200  1
  P  P5  1  0.62513500  0.20910200  0.66421900  1
  P  P6  1  0.62131500  0.89625800  0.77529600  1
  P  P7  1  0.13165600  0.70606900  0.83172800  1
  P  P8  1  0.63672200  0.39200000  0.27527100  1
  P  P9  1  0.63333000  0.60982900  0.93801800  1
  P  P10  1  0.12131500  0.89625800  0.22470400  1
  P  P11  1  0.61505800  0.10721300  0.43957800  1
  P  P12  1  0.13165600  0.29393100  0.16827200  1
  P  P13  1  0.12513500  0.79089800  0.66421900  1
  P  P14  1  0.11505800  0.10721300  0.56042200  1
  P  P15  1  0.63165600  0.70606900  0.16827200  1
  P  P16  1  0.62513500  0.79089800  0.33578100  1
  P  P17  1  0.63165600  0.29393100  0.83172800  1
  P  P18  1  0.63333000  0.39017100  0.06198200  1
  P  P19  1  0.11505800  0.89278700  0.43957800  1
  P  P20  1  0.13672200  0.39200000  0.72472900  1
  P  P21  1  0.63672200  0.60800000  0.72472900  1
  P  P22  1  0.13672200  0.60800000  0.27527100  1
  P  P23  1  0.62131500  0.10374200  0.22470400  1
  O  O0  1  0.57700400  0.81460900  0.60234700  1
  O  O1  1  0.54666100  0.01146200  0.42058100  1
  O  O2  1  0.60435500  0.63399300  0.78515100  1
  O  O3  1  0.10435500  0.36600700  0.78515100  1
  O  O4  1  0.59671300  0.68501900  0.10793200  1
  O  O5  1  0.56115400  0.31787800  0.10182900  1
  O  O6  1  0.07809900  0.49103800  0.92295000  1
  O  O7  1  0.04797200  0.32367600  0.68655200  1
  O  O8  1  0.80542100  0.30848000  0.82044400  1
  O  O9  1  0.60107300  0.68568200  0.31987600  1
  O  O10  1  0.05143500  0.13817000  0.50441100  1
  O  O11  1  0.07700400  0.18539100  0.60234700  1
  O  O12  1  0.10107300  0.31431800  0.31987600  1
  O  O13  1  0.79006300  0.09626700  0.44403700  1
  O  O14  1  0.07055400  0.12730000  0.71621700  1
  O  O15  1  0.05046600  0.85713100  0.70716400  1
  O  O16  1  0.10107300  0.68568200  0.68012400  1
  O  O17  1  0.04666100  0.01146200  0.57941900  1
  O  O18  1  0.03987700  0.63657900  0.79495500  1
  O  O19  1  0.79806200  0.88630800  0.77977000  1
  O  O20  1  0.57700400  0.18539100  0.39765300  1
  O  O21  1  0.54797200  0.32367600  0.31344800  1
  O  O22  1  0.53987700  0.63657900  0.20504500  1
  O  O23  1  0.55143500  0.13817000  0.49558900  1
  O  O24  1  0.57055400  0.87270000  0.71621700  1
  O  O25  1  0.04440700  0.82884700  0.18305400  1
  O  O26  1  0.55046600  0.85713100  0.29283600  1
  O  O27  1  0.54440700  0.82884700  0.81694600  1
  O  O28  1  0.05025700  0.81040300  0.60835500  1
  O  O29  1  0.60435500  0.36600700  0.21484900  1
  O  O30  1  0.04797200  0.67632400  0.31344800  1
  O  O31  1  0.30542100  0.30848000  0.17955600  1
  O  O32  1  0.29806200  0.88630800  0.22023000  1
  O  O33  1  0.29806200  0.11369200  0.77977000  1
  O  O34  1  0.79006300  0.90373300  0.55596300  1
  O  O35  1  0.07700400  0.81460900  0.39765300  1
  O  O36  1  0.04666100  0.98853800  0.42058100  1
  O  O37  1  0.54666100  0.98853800  0.57941900  1
  O  O38  1  0.58586300  0.19009700  0.82006700  1
  O  O39  1  0.08116500  0.63718400  0.00363200  1
  O  O40  1  0.31071700  0.38702500  0.93412600  1
  O  O41  1  0.55025700  0.81040300  0.39164500  1
  O  O42  1  0.81098800  0.38485900  0.28646200  1
  O  O43  1  0.07809900  0.50896200  0.07705000  1
  O  O44  1  0.81071700  0.38702500  0.06587400  1
  O  O45  1  0.08586300  0.80990300  0.82006700  1
  O  O46  1  0.53987700  0.36342100  0.79495500  1
  O  O47  1  0.05046600  0.14286900  0.29283600  1
  O  O48  1  0.55025700  0.18959700  0.60835500  1
  O  O49  1  0.09671300  0.31498100  0.10793200  1
  O  O50  1  0.07220700  0.00181900  0.78982400  1
  O  O51  1  0.29006300  0.09626700  0.55596300  1
  O  O52  1  0.08381500  0.50601700  0.28809600  1
  O  O53  1  0.54797200  0.67632400  0.68655200  1
  O  O54  1  0.08381500  0.49398300  0.71190400  1
  O  O55  1  0.31098800  0.38485900  0.71353800  1
  O  O56  1  0.80542100  0.69152000  0.17955600  1
  O  O57  1  0.06115400  0.31787800  0.89817100  1
  O  O58  1  0.03987700  0.36342100  0.20504500  1
  O  O59  1  0.29932500  0.81151300  0.66122600  1
  O  O60  1  0.05025700  0.18959700  0.39164500  1
  O  O61  1  0.81071700  0.61297500  0.93412600  1
  O  O62  1  0.57809900  0.49103800  0.07705000  1
  O  O63  1  0.31071700  0.61297500  0.06587400  1
  O  O64  1  0.07055400  0.87270000  0.28378300  1
  O  O65  1  0.07220700  0.99818100  0.21017600  1
  O  O66  1  0.57809900  0.50896200  0.92295000  1
  O  O67  1  0.60107300  0.31431800  0.68012400  1
  O  O68  1  0.79806200  0.11369200  0.22023000  1
  O  O69  1  0.05143500  0.86183000  0.49558900  1
  O  O70  1  0.56115400  0.68212200  0.89817100  1
  O  O71  1  0.55046600  0.14286900  0.70716400  1
  O  O72  1  0.08586300  0.19009700  0.17993300  1
  O  O73  1  0.59671300  0.31498100  0.89206800  1
  O  O74  1  0.58116500  0.36281600  0.00363200  1
  O  O75  1  0.29932500  0.18848700  0.33877400  1
  O  O76  1  0.31098800  0.61514100  0.28646200  1
  O  O77  1  0.57220700  0.00181900  0.21017600  1
  O  O78  1  0.57055400  0.12730000  0.28378300  1
  O  O79  1  0.06115400  0.68212200  0.10182900  1
  O  O80  1  0.58381500  0.50601700  0.71190400  1
  O  O81  1  0.79932500  0.81151300  0.33877400  1
  O  O82  1  0.57220700  0.99818100  0.78982400  1
  O  O83  1  0.08116500  0.36281600  0.99636800  1
  O  O84  1  0.81098800  0.61514100  0.71353800  1
  O  O85  1  0.58586300  0.80990300  0.17993300  1
  O  O86  1  0.29006300  0.90373300  0.44403700  1
  O  O87  1  0.10435500  0.63399300  0.21484900  1
  O  O88  1  0.09671300  0.68501900  0.89206800  1
  O  O89  1  0.55143500  0.86183000  0.50441100  1
  O  O90  1  0.58381500  0.49398300  0.28809600  1
  O  O91  1  0.30542100  0.69152000  0.82044400  1
  O  O92  1  0.04440700  0.17115300  0.81694600  1
  O  O93  1  0.54440700  0.17115300  0.18305400  1
  O  O94  1  0.58116500  0.63718400  0.99636800  1
  O  O95  1  0.79932500  0.18848700  0.66122600  1
loop_
_geom_bond_atom_site_label_1
_geom_bond_atom_site_label_2
_geom_bond_distance
_geom_bond_site_symmetry_2
Al0 O11 1.740988 1_655
Al0 O95 1.744910 1_555
Al0 O7 1.752996 1_655
Al0 O14 1.758152 1_655
Al1 O49 1.739499 1_555
Al1 O83 1.749121 1_554
Al1 O44 1.749461 1_455
Al1 O43 1.752795 1_555
Al2 O50 1.740802 1_665
Al2 O19 1.742910 1_555
Al2 O15 1.746135 1_655
Al2 O45 1.751766 1_655
Al3 O8 1.749181 1_455
Al3 O57 1.749261 1_555
Al3 O92 1.753565 1_555
Al3 O3 1.762375 1_555
Al4 O86 1.720907 1_555
Al4 O89 1.745194 1_555
Al4 O41 1.751584 1_555
Al4 O1 1.756052 1_565
Al5 O52 1.736999 1_555
Al5 O42 1.744968 1_455
Al5 O12 1.753606 1_555
Al5 O58 1.761698 1_555
Al6 O31 1.749181 1_555
Al6 O5 1.749261 1_555
Al6 O93 1.753565 1_555
Al6 O29 1.762375 1_555
Al7 O0 1.740988 1_555
Al7 O59 1.744910 1_555
Al7 O53 1.752996 1_555
Al7 O24 1.758152 1_555
Al8 O65 1.740802 1_645
Al8 O68 1.742910 1_555
Al8 O47 1.746135 1_655
Al8 O72 1.751766 1_655
Al9 O4 1.739499 1_555
Al9 O94 1.749121 1_554
Al9 O63 1.749461 1_555
Al9 O62 1.752795 1_555
Al10 O82 1.740802 1_545
Al10 O33 1.742910 1_555
Al10 O71 1.746135 1_555
Al10 O38 1.751766 1_555
Al11 O80 1.736999 1_555
Al11 O55 1.744968 1_555
Al11 O67 1.753606 1_555
Al11 O46 1.761698 1_555
Al12 O90 1.736999 1_555
Al12 O76 1.744968 1_555
Al12 O9 1.753606 1_555
Al12 O22 1.761698 1_555
Al13 O35 1.740988 1_655
Al13 O81 1.744910 1_555
Al13 O30 1.752996 1_655
Al13 O64 1.758152 1_655
Al14 O13 1.720907 1_555
Al14 O10 1.745194 1_655
Al14 O60 1.751584 1_655
Al14 O36 1.756052 1_645
Al15 O20 1.740988 1_555
Al15 O75 1.744910 1_555
Al15 O21 1.752996 1_555
Al15 O78 1.758152 1_555
Al16 O54 1.736999 1_555
Al16 O84 1.744968 1_455
Al16 O16 1.753606 1_555
Al16 O18 1.761698 1_555
Al17 O88 1.739499 1_555
Al17 O39 1.749121 1_556
Al17 O61 1.749461 1_455
Al17 O6 1.752795 1_555
Al18 O56 1.749181 1_455
Al18 O79 1.749261 1_555
Al18 O25 1.753565 1_555
Al18 O87 1.762375 1_555
Al19 O77 1.740802 1_565
Al19 O32 1.742910 1_555
Al19 O26 1.746135 1_555
Al19 O85 1.751766 1_555
Al20 O73 1.739499 1_555
Al20 O74 1.749121 1_556
Al20 O40 1.749461 1_555
Al20 O66 1.752795 1_555
Al21 O91 1.749181 1_555
Al21 O70 1.749261 1_555
Al21 O27 1.753565 1_555
Al21 O2 1.762375 1_555
Al22 O34 1.720907 1_555
Al22 O69 1.745194 1_655
Al22 O28 1.751584 1_655
Al22 O17 1.756052 1_665
Al23 O51 1.720907 1_555
Al23 O23 1.745194 1_555
Al23 O48 1.751584 1_555
Al23 O37 1.756052 1_545
O0 P4 1.534036 1_555
O1 P11 1.538001 1_555
O2 P21 1.542418 1_555
O3 P20 1.542418 1_555
O4 P15 1.529835 1_555
O5 P18 1.535836 1_555
O6 P1 1.536980 1_555
O7 P20 1.539680 1_555
O8 P17 1.539174 1_555
O9 P16 1.539339 1_555
O10 P14 1.534072 1_555
O11 P14 1.534036 1_555
O12 P0 1.539339 1_555
O13 P11 1.522972 1_555
O14 P2 1.540799 1_555
O15 P13 1.540584 1_555
O16 P13 1.539339 1_555
O17 P14 1.538001 1_555
O18 P7 1.542884 1_555
O19 P6 1.536596 1_555
O20 P11 1.534036 1_555
O21 P8 1.539680 1_555
O22 P15 1.542884 1_555
O23 P11 1.534072 1_555
O24 P6 1.540799 1_555
O25 P10 1.537725 1_555
O26 P16 1.540584 1_555
O27 P6 1.537725 1_555
O28 P13 1.531752 1_555
O29 P8 1.542418 1_555
O30 P22 1.539680 1_555
O31 P12 1.539174 1_555
O32 P10 1.536596 1_555
O33 P2 1.536596 1_555
O34 P4 1.522972 1_555
O35 P19 1.534036 1_555
O36 P19 1.538001 1_555
O37 P4 1.538001 1_555
O38 P17 1.535092 1_555
O39 P3 1.540130 1_555
O40 P1 1.535456 1_555
O41 P16 1.531752 1_555
O42 P8 1.532720 1_555
O43 P3 1.536980 1_555
O44 P18 1.535456 1_555
O45 P7 1.535092 1_555
O46 P17 1.542884 1_555
O47 P0 1.540584 1_555
O48 P5 1.531752 1_555
O49 P12 1.529835 1_555
O50 P2 1.532079 1_555
O51 P14 1.522972 1_555
O52 P22 1.533268 1_555
O53 P21 1.539680 1_555
O54 P20 1.533268 1_555
O55 P20 1.532720 1_555
O56 P15 1.539174 1_555
O57 P1 1.535836 1_555
O58 P12 1.542884 1_555
O59 P13 1.533531 1_555
O60 P0 1.531752 1_555
O61 P9 1.535456 1_555
O62 P18 1.536980 1_555
O63 P3 1.535456 1_555
O64 P10 1.540799 1_555
O65 P10 1.532079 1_555
O66 P9 1.536980 1_555
O67 P5 1.539339 1_555
O68 P23 1.536596 1_555
O69 P19 1.534072 1_555
O70 P9 1.535836 1_555
O71 P5 1.540584 1_555
O72 P12 1.535092 1_555
O73 P17 1.529835 1_555
O74 P18 1.540130 1_555
O75 P0 1.533531 1_555
O76 P22 1.532720 1_555
O77 P23 1.532079 1_555
O78 P23 1.540799 1_555
O79 P3 1.535836 1_555
O80 P21 1.533268 1_555
O81 P16 1.533531 1_555
O82 P6 1.532079 1_555
O83 P1 1.540130 1_555
O84 P21 1.532720 1_555
O85 P15 1.535092 1_555
O86 P19 1.522972 1_555
O87 P22 1.542418 1_555
O88 P7 1.529835 1_555
O89 P4 1.534072 1_555
O90 P8 1.533268 1_555
O91 P7 1.539174 1_555
O92 P2 1.537725 1_555
O93 P23 1.537725 1_555
O94 P9 1.540130 1_555
O95 P5 1.533531 1_555
