# generated using pymatgen
data_Na3V2P2O10F
_symmetry_space_group_name_H-M   'P 1'
_cell_length_a   6.48215261
_cell_length_b   6.47986555
_cell_length_c   13.99308262
_cell_angle_alpha   117.36109703
_cell_angle_beta   117.40034331
_cell_angle_gamma   89.92680755
_symmetry_Int_Tables_number   1
_chemical_formula_structural   Na3V2P2O10F
_chemical_formula_sum   'Na6 V4 P4 O20 F2'
_cell_volume   446.66552697
_cell_formula_units_Z   2
loop_
 _symmetry_equiv_pos_site_id
 _symmetry_equiv_pos_as_xyz
  1  'x, y, z'
loop_
 _atom_site_type_symbol
 _atom_site_label
 _atom_site_symmetry_multiplicity
 _atom_site_fract_x
 _atom_site_fract_y
 _atom_site_fract_z
 _atom_site_occupancy
  Na  Na0  1  0.25055900  0.31423600  0.49839900  1
  Na  Na1  1  0.24808900  0.31434400  0.99850100  1
  Na  Na2  1  0.73272200  0.25913600  0.49977300  1
  Na  Na3  1  0.72810600  0.74325600  0.50238000  1
  Na  Na4  1  0.68725100  0.75094500  0.00155400  1
  Na  Na5  1  0.73676500  0.26398100  0.99996500  1
  V  V0  1  0.20494800  0.19593600  0.69894000  1
  V  V1  1  0.20408100  0.19348100  0.19836000  1
  V  V2  1  0.80650700  0.79609900  0.80145600  1
  V  V3  1  0.80626600  0.79714000  0.30099200  1
  P  P0  1  0.24835100  0.75307200  0.75046600  1
  P  P1  1  0.24880100  0.75264800  0.25073300  1
  P  P2  1  0.74655000  0.25236600  0.74939000  1
  P  P3  1  0.74664800  0.25283000  0.24943100  1
  O  O0  1  0.14837300  0.84349100  0.83950900  1
  O  O1  1  0.16101600  0.47363200  0.66257800  1
  O  O2  1  0.15944500  0.85343400  0.66129300  1
  O  O3  1  0.36248700  0.34629800  0.85655400  1
  O  O4  1  0.52755500  0.83797400  0.83744400  1
  O  O5  1  0.14715800  0.84402900  0.33912400  1
  O  O6  1  0.46960300  0.16878600  0.66021300  1
  O  O7  1  0.16175400  0.47319200  0.16319800  1
  O  O8  1  0.15942300  0.85238200  0.16131200  1
  O  O9  1  0.36330800  0.34390000  0.35591700  1
  O  O10  1  0.65683200  0.63772200  0.64387300  1
  O  O11  1  0.83219600  0.14520700  0.83624400  1
  O  O12  1  0.83355200  0.52938300  0.83938300  1
  O  O13  1  0.52834500  0.83703200  0.33797300  1
  O  O14  1  0.85455200  0.16538900  0.66299700  1
  O  O15  1  0.46998700  0.16765300  0.15983900  1
  O  O16  1  0.65360900  0.63795400  0.14336100  1
  O  O17  1  0.83244900  0.14643800  0.33667600  1
  O  O18  1  0.83450800  0.52995700  0.33922900  1
  O  O19  1  0.85415200  0.16591100  0.16295700  1
  F  F0  1  0.99308700  0.00798800  0.50005600  1
  F  F1  1  0.99196400  0.00777800  0.99993200  1
loop_
_geom_bond_atom_site_label_1
_geom_bond_atom_site_label_2
_geom_bond_distance
_geom_bond_site_symmetry_2
Na0 O1 2.392968 1_555
Na0 O17 2.397813 1_455
Na0 O9 2.497998 1_555
Na0 O10 2.575030 1_555
Na0 O6 2.651489 1_555
Na0 O5 2.662389 1_545
Na1 O7 2.385180 1_556
Na1 O11 2.389659 1_455
Na1 O3 2.504431 1_555
Na1 O16 2.572650 1_556
Na1 O15 2.655086 1_556
Na1 O0 2.668044 1_545
Na2 O14 2.413154 1_555
Na2 O13 2.432823 1_545
Na2 O17 2.446324 1_555
Na2 O1 2.471316 1_655
Na2 O9 2.581512 1_555
Na2 O10 2.586311 1_555
Na3 O14 2.421686 1_565
Na3 O13 2.424801 1_555
Na3 O2 2.468876 1_655
Na3 O18 2.478803 1_555
Na3 O10 2.586212 1_555
Na3 O9 2.677426 1_555
Na4 O4 2.379914 1_554
Na4 O19 2.382834 1_565
Na4 O16 2.501056 1_555
Na4 O3 2.572195 1_554
Na4 O12 2.663222 1_554
Na4 O8 2.674737 1_655
Na5 O11 2.430217 1_555
Na5 O19 2.432771 1_556
Na5 O7 2.452728 1_656
Na5 O4 2.455929 1_545
Na5 O3 2.587886 1_555
Na5 O16 2.590711 1_556
O0 P0 1.544984 1_555
O0 V2 2.013449 1_455
O1 P0 1.557749 1_555
O1 V0 2.069993 1_555
O2 P0 1.547628 1_555
O2 V0 2.018435 1_565
O3 V0 1.676518 1_555
O4 P0 1.555361 1_555
O4 V2 2.075596 1_555
O5 P1 1.546098 1_555
O5 V3 2.006821 1_455
O6 P2 1.546820 1_555
O6 V0 2.008717 1_555
O7 P1 1.557400 1_555
O7 V1 2.072846 1_555
O8 P1 1.547293 1_555
O8 V1 2.011996 1_565
O9 V1 1.675984 1_555
O10 V2 1.676359 1_555
O11 P2 1.556010 1_555
O11 V2 2.072740 1_545
O12 P2 1.548262 1_555
O12 V2 2.013966 1_555
O13 P1 1.557466 1_555
O13 V3 2.077019 1_555
O14 P2 1.555924 1_555
O14 V0 2.075868 1_655
O15 P3 1.545838 1_555
O15 V1 2.015190 1_555
O16 V3 1.676535 1_555
O17 P3 1.556513 1_555
O17 V3 2.070086 1_545
O18 P3 1.548484 1_555
O18 V3 2.019345 1_555
O19 P3 1.554246 1_555
O19 V1 2.075549 1_655
F0 V0 2.117867 1_655
F0 V3 2.119795 1_545
F0 Na2 2.342997 1_555
F0 Na3 2.450363 1_545
F0 Na0 2.609676 1_655
F1 V1 2.113593 1_656
F1 V2 2.114122 1_545
F1 Na5 2.342141 1_555
F1 Na4 2.599231 1_546
F1 Na1 2.603574 1_655
