# generated using pymatgen
data_Zr2N2O
_symmetry_space_group_name_H-M   'P 1'
_cell_length_a   8.77752984
_cell_length_b   8.80357151
_cell_length_c   8.79062729
_cell_angle_alpha   109.36965941
_cell_angle_beta   109.44062823
_cell_angle_gamma   109.58549709
_symmetry_Int_Tables_number   1
_chemical_formula_structural   Zr2N2O
_chemical_formula_sum   'Zr16 N16 O8'
_cell_volume   523.02658782
_cell_formula_units_Z   8
loop_
 _symmetry_equiv_pos_site_id
 _symmetry_equiv_pos_as_xyz
  1  'x, y, z'
loop_
 _atom_site_type_symbol
 _atom_site_label
 _atom_site_symmetry_multiplicity
 _atom_site_fract_x
 _atom_site_fract_y
 _atom_site_fract_z
 _atom_site_occupancy
  Zr  Zr0  1  0.21881673  0.75919475  0.97094320  1
  Zr  Zr1  1  0.98817577  0.48988931  0.48204955  1
  Zr  Zr2  1  0.03037372  0.77799816  0.25192734  1
  Zr  Zr3  1  0.24392667  0.03936072  0.78038146  1
  Zr  Zr4  1  0.46525729  0.71572303  0.75626237  1
  Zr  Zr5  1  0.25198876  0.53219057  0.29139586  1
  Zr  Zr6  1  0.50732377  0.01796578  0.50982465  1
  Zr  Zr7  1  0.99782639  0.98786258  0.99054417  1
  Zr  Zr8  1  0.28214770  0.24886109  0.53439073  1
  Zr  Zr9  1  0.71735607  0.74918347  0.46031926  1
  Zr  Zr10  1  0.49669130  0.50534023  0.00988446  1
  Zr  Zr11  1  0.75568038  0.46930922  0.71733215  1
  Zr  Zr12  1  0.74306671  0.96201846  0.21103836  1
  Zr  Zr13  1  0.53564978  0.28656053  0.25830744  1
  Zr  Zr14  1  0.96003700  0.20511374  0.74020591  1
  Zr  Zr15  1  0.78431269  0.24610543  0.03210822  1
  N  N0  1  0.25730112  0.98104891  0.53117440  1
  N  N1  1  0.23017341  0.27484426  0.76208703  1
  N  N2  1  0.23146957  0.45707701  0.48987846  1
  N  N3  1  0.72663539  0.96347030  0.94919173  1
  N  N4  1  0.46333813  0.73465516  0.00747304  1
  N  N5  1  0.45244904  0.48774692  0.22542662  1
  N  N6  1  0.27397937  0.03032991  0.04228845  1
  N  N7  1  0.48735087  0.22974655  0.45860099  1
  N  N8  1  0.95668906  0.72825567  0.96989511  1
  N  N9  1  0.73043881  0.24153757  0.77395894  1
  N  N10  1  0.96754103  0.95903868  0.73114524  1
  N  N11  1  0.77887406  0.54898922  0.51642486  1
  N  N12  1  0.77300223  0.72809343  0.23810194  1
  N  N13  1  0.73815442  0.01230004  0.46736510  1
  N  N14  1  0.76037765  0.22854053  0.27163711  1
  N  N15  1  0.99114183  0.53042768  0.25762574  1
  O  O0  1  0.01448500  0.46982013  0.74014570  1
  O  O1  1  0.24089187  0.77098367  0.73030998  1
  O  O2  1  0.03474008  0.04879361  0.27317707  1
  O  O3  1  0.04619582  0.27166549  0.03781486  1
  O  O4  1  0.27747142  0.76103786  0.22730363  1
  O  O5  1  0.50535880  0.77147355  0.54114561  1
  O  O6  1  0.54716359  0.51369375  0.77303127  1
  O  O7  1  0.53614771  0.26375004  0.98787898  1
loop_
_geom_bond_atom_site_label_1
_geom_bond_atom_site_label_2
_geom_bond_distance
_geom_bond_site_symmetry_2
N0 Zr3 2.131207 1_565
N0 Zr2 2.153178 1_555
N0 Zr6 2.189404 1_565
N0 Zr8 2.283436 1_565
N1 Zr8 2.154280 1_555
N1 Zr14 2.162943 1_455
N1 Zr3 2.171214 1_555
N1 Zr10 2.197407 1_556
N2 Zr5 2.099679 1_555
N2 Zr8 2.148860 1_555
N2 Zr1 2.231041 1_455
N2 Zr4 2.238542 1_555
N3 Zr4 2.120961 1_555
N3 Zr15 2.164610 1_566
N3 Zr7 2.207719 1_555
N3 Zr12 2.262520 1_556
N4 Zr10 2.140598 1_555
N4 Zr12 2.154473 1_555
N4 Zr0 2.157420 1_554
N4 Zr4 2.164983 1_554
N5 Zr10 2.099764 1_555
N5 Zr5 2.139079 1_555
N5 Zr13 2.195480 1_555
N5 Zr9 2.243046 1_555
N6 Zr0 2.086949 1_544
N6 Zr13 2.179813 1_555
N6 Zr7 2.183546 1_444
N6 Zr3 2.260048 1_554
N7 Zr6 2.105480 1_555
N7 Zr13 2.113966 1_555
N7 Zr8 2.155010 1_555
N7 Zr11 2.256174 1_555
N8 Zr7 2.124763 1_555
N8 Zr11 2.139555 1_555
N8 Zr2 2.186157 1_656
N8 Zr0 2.220852 1_655
N9 Zr6 2.111392 1_555
N9 Zr15 2.141804 1_556
N9 Zr11 2.180685 1_555
N9 Zr14 2.240645 1_555
N10 Zr7 2.121836 1_555
N10 Zr3 2.126192 1_665
N10 Zr14 2.165274 1_565
N10 Zr9 2.187662 1_555
N11 Zr11 2.148949 1_555
N11 Zr1 2.154814 1_555
N11 Zr9 2.162936 1_555
N11 Zr13 2.243942 1_555
N12 Zr2 2.104205 1_655
N12 Zr9 2.131730 1_555
N12 Zr10 2.171511 1_555
N12 Zr12 2.238934 1_555
N13 Zr14 2.097762 1_555
N13 Zr12 2.165847 1_545
N13 Zr6 2.192209 1_555
N13 Zr9 2.239758 1_545
N14 Zr1 2.084201 1_555
N14 Zr12 2.165689 1_545
N14 Zr13 2.174152 1_555
N14 Zr15 2.233899 1_555
N15 Zr2 2.109990 1_655
N15 Zr1 2.124869 1_555
N15 Zr15 2.181154 1_555
N15 Zr5 2.202561 1_655
O0 Zr11 2.211334 1_455
O0 Zr0 2.215636 1_555
O0 Zr14 2.216599 1_455
O0 Zr1 2.275216 1_455
O1 Zr4 2.141034 1_555
O1 Zr0 2.219879 1_555
O1 Zr3 2.244296 1_565
O1 Zr1 2.306973 1_455
O2 Zr8 2.127078 1_555
O2 Zr12 2.217551 1_445
O2 Zr7 2.242576 1_444
O2 Zr2 2.314789 1_545
O3 Zr5 2.154786 1_555
O3 Zr15 2.214969 1_455
O3 Zr7 2.253453 1_444
O3 Zr14 2.264671 1_454
O4 Zr0 2.131132 1_554
O4 Zr5 2.227347 1_555
O4 Zr6 2.287686 1_565
O4 Zr2 2.298150 1_555
O5 Zr5 2.178254 1_555
O5 Zr4 2.209888 1_555
O5 Zr9 2.244632 1_555
O5 Zr6 2.271440 1_565
O6 Zr4 2.159298 1_555
O6 Zr11 2.165956 1_555
O6 Zr8 2.262527 1_555
O6 Zr10 2.287029 1_556
O7 Zr15 2.150193 1_556
O7 Zr3 2.215186 1_555
O7 Zr10 2.224051 1_556
O7 Zr13 2.320009 1_556
