# generated using pymatgen
data_Fe7(P2O7)4
_symmetry_space_group_name_H-M   'P 1'
_cell_length_a   6.53016709
_cell_length_b   6.53016709
_cell_length_c   23.95393400
_cell_angle_alpha   90.00000000
_cell_angle_beta   90.00000000
_cell_angle_gamma   97.93530071
_symmetry_Int_Tables_number   1
_chemical_formula_structural   Fe7(P2O7)4
_chemical_formula_sum   'Fe14 P16 O56'
_cell_volume   1011.68859144
_cell_formula_units_Z   2
loop_
 _symmetry_equiv_pos_site_id
 _symmetry_equiv_pos_as_xyz
  1  'x, y, z'
loop_
 _atom_site_type_symbol
 _atom_site_label
 _atom_site_symmetry_multiplicity
 _atom_site_fract_x
 _atom_site_fract_y
 _atom_site_fract_z
 _atom_site_occupancy
  Fe  Fe0  1  0.30757000  0.30757000  0.00000000  1
  Fe  Fe1  1  0.07125000  0.07125000  0.50000000  1
  Fe  Fe2  1  0.69243000  0.69243000  0.50000000  1
  Fe  Fe3  1  0.96402400  0.68032100  0.13761000  1
  Fe  Fe4  1  0.68032100  0.96402400  0.86239000  1
  Fe  Fe5  1  0.28540400  0.58625200  0.87621100  1
  Fe  Fe6  1  0.31967900  0.03597600  0.36239000  1
  Fe  Fe7  1  0.92875000  0.92875000  0.00000000  1
  Fe  Fe8  1  0.71459600  0.41374800  0.37621100  1
  Fe  Fe9  1  0.03597600  0.31967900  0.63761000  1
  Fe  Fe10  1  0.72079900  0.27920100  0.75000000  1
  Fe  Fe11  1  0.27920100  0.72079900  0.25000000  1
  Fe  Fe12  1  0.41374800  0.71459600  0.62378900  1
  Fe  Fe13  1  0.58625200  0.28540400  0.12378900  1
  P  P0  1  0.47612800  0.75980900  0.11989200  1
  P  P1  1  0.07384200  0.17837000  0.12413300  1
  P  P2  1  0.75980900  0.47612800  0.88010800  1
  P  P3  1  0.18960400  0.59509000  0.50404800  1
  P  P4  1  0.70178000  0.77647200  0.73300800  1
  P  P5  1  0.22352800  0.29822000  0.76699200  1
  P  P6  1  0.59509000  0.18960400  0.49595200  1
  P  P7  1  0.52387200  0.24019100  0.61989200  1
  P  P8  1  0.29822000  0.22352800  0.23300800  1
  P  P9  1  0.81039600  0.40491000  0.00404800  1
  P  P10  1  0.82163000  0.92615800  0.37586700  1
  P  P11  1  0.24019100  0.52387200  0.38010800  1
  P  P12  1  0.17837000  0.07384200  0.87586700  1
  P  P13  1  0.92615800  0.82163000  0.62413300  1
  P  P14  1  0.77647200  0.70178000  0.26699200  1
  P  P15  1  0.40491000  0.81039600  0.99595200  1
  O  O0  1  0.98392800  0.57247400  0.87966500  1
  O  O1  1  0.72103500  0.72453000  0.40472200  1
  O  O2  1  0.29317300  0.71637200  0.34420000  1
  O  O3  1  0.95631700  0.70267900  0.22539000  1
  O  O4  1  0.36415900  0.39086200  0.62907500  1
  O  O5  1  0.77952200  0.59178700  0.75818900  1
  O  O6  1  0.22047800  0.40821300  0.25818900  1
  O  O7  1  0.01607200  0.42752600  0.37966500  1
  O  O8  1  0.04368300  0.29732100  0.72539000  1
  O  O9  1  0.63584100  0.60913800  0.12907500  1
  O  O10  1  0.50299300  0.27016000  0.20095500  1
  O  O11  1  0.29378700  0.60432500  0.44329700  1
  O  O12  1  0.09896400  0.37900500  0.52126700  1
  O  O13  1  0.40821300  0.22047800  0.74181100  1
  O  O14  1  0.74258900  0.02560000  0.49650800  1
  O  O15  1  0.70682700  0.28362800  0.84420000  1
  O  O16  1  0.08763600  0.66782500  0.62731700  1
  O  O17  1  0.27896500  0.27547000  0.90472200  1
  O  O18  1  0.27547000  0.27896500  0.09527800  1
  O  O19  1  0.39086200  0.36415900  0.37092500  1
  O  O20  1  0.38461700  0.68101000  0.53838200  1
  O  O21  1  0.01039100  0.03034400  0.59775200  1
  O  O22  1  0.59178700  0.77952200  0.24181100  1
  O  O23  1  0.71637200  0.29317300  0.65580000  1
  O  O24  1  0.37900500  0.09896400  0.47873300  1
  O  O25  1  0.96965600  0.98960900  0.90224800  1
  O  O26  1  0.72984000  0.49700700  0.29904500  1
  O  O27  1  0.03034400  0.01039100  0.40224800  1
  O  O28  1  0.31899000  0.61538300  0.96161800  1
  O  O29  1  0.72453000  0.72103500  0.59527800  1
  O  O30  1  0.60913800  0.63584100  0.87092500  1
  O  O31  1  0.39567500  0.70621300  0.05670300  1
  O  O32  1  0.12390100  0.12828700  0.81326400  1
  O  O33  1  0.98960900  0.96965600  0.09775200  1
  O  O34  1  0.68101000  0.38461700  0.46161800  1
  O  O35  1  0.25741100  0.97440000  0.99650800  1
  O  O36  1  0.12828700  0.12390100  0.18673600  1
  O  O37  1  0.49700700  0.72984000  0.70095500  1
  O  O38  1  0.57247400  0.98392800  0.12033500  1
  O  O39  1  0.90103600  0.62099500  0.02126700  1
  O  O40  1  0.62099500  0.90103600  0.97873300  1
  O  O41  1  0.28362800  0.70682700  0.15580000  1
  O  O42  1  0.70621300  0.39567500  0.94329700  1
  O  O43  1  0.60432500  0.29378700  0.55670300  1
  O  O44  1  0.97440000  0.25741100  0.00349200  1
  O  O45  1  0.61538300  0.31899000  0.03838200  1
  O  O46  1  0.02560000  0.74258900  0.50349200  1
  O  O47  1  0.29732100  0.04368300  0.27461000  1
  O  O48  1  0.91236400  0.33217500  0.12731700  1
  O  O49  1  0.66782500  0.08763600  0.37268300  1
  O  O50  1  0.87609900  0.87171300  0.31326400  1
  O  O51  1  0.42752600  0.01607200  0.62033500  1
  O  O52  1  0.27016000  0.50299300  0.79904500  1
  O  O53  1  0.70267900  0.95631700  0.77461000  1
  O  O54  1  0.87171300  0.87609900  0.68673600  1
  O  O55  1  0.33217500  0.91236400  0.87268300  1
loop_
_geom_bond_atom_site_label_1
_geom_bond_atom_site_label_2
_geom_bond_distance
_geom_bond_site_symmetry_2
Fe0 O44 2.156617 1_455
Fe0 O35 2.156617 1_544
Fe0 O45 2.202238 1_555
Fe0 O28 2.202238 1_554
Fe0 O17 2.297137 1_554
Fe0 O18 2.297137 1_555
Fe1 O24 2.056868 1_555
Fe1 O12 2.056868 1_555
Fe1 O14 2.127306 1_455
Fe1 O46 2.127306 1_545
Fe1 O21 2.383866 1_555
Fe1 O27 2.383866 1_555
Fe2 O14 2.156617 1_565
Fe2 O46 2.156617 1_655
Fe2 O34 2.202238 1_555
Fe2 O20 2.202238 1_555
Fe2 O29 2.297137 1_555
Fe2 O1 2.297137 1_555
Fe3 O33 2.102895 1_555
Fe3 O3 2.108821 1_555
Fe3 O41 2.115637 1_655
Fe3 O9 2.139077 1_555
Fe3 O48 2.265263 1_555
Fe4 O25 2.102895 1_555
Fe4 O53 2.108821 1_555
Fe4 O15 2.115637 1_565
Fe4 O30 2.139077 1_555
Fe4 O55 2.265263 1_555
Fe5 O52 1.925425 1_555
Fe5 O0 1.960043 1_455
Fe5 O28 2.063542 1_555
Fe5 O30 2.097863 1_555
Fe5 O55 2.110898 1_555
Fe5 O17 2.136195 1_555
Fe6 O27 2.102895 1_555
Fe6 O47 2.108821 1_555
Fe6 O2 2.115637 1_545
Fe6 O19 2.139077 1_555
Fe6 O49 2.265263 1_555
Fe7 O39 2.056868 1_555
Fe7 O40 2.056868 1_554
Fe7 O35 2.127306 1_654
Fe7 O44 2.127306 1_565
Fe7 O25 2.383866 1_554
Fe7 O33 2.383866 1_555
Fe8 O26 1.925425 1_555
Fe8 O7 1.960043 1_655
Fe8 O34 2.063542 1_555
Fe8 O19 2.097863 1_555
Fe8 O49 2.110898 1_555
Fe8 O1 2.136195 1_555
Fe9 O21 2.102895 1_555
Fe9 O8 2.108821 1_555
Fe9 O23 2.115637 1_455
Fe9 O4 2.139077 1_555
Fe9 O16 2.265263 1_555
Fe10 O5 2.033730 1_555
Fe10 O13 2.033730 1_555
Fe10 O8 2.176775 1_655
Fe10 O53 2.176775 1_545
Fe10 O15 2.258651 1_555
Fe10 O23 2.258651 1_555
Fe11 O6 2.033730 1_555
Fe11 O22 2.033730 1_555
Fe11 O3 2.176775 1_455
Fe11 O47 2.176775 1_565
Fe11 O41 2.258651 1_555
Fe11 O2 2.258651 1_555
Fe12 O37 1.925425 1_555
Fe12 O51 1.960043 1_565
Fe12 O20 2.063542 1_555
Fe12 O4 2.097863 1_555
Fe12 O16 2.110898 1_555
Fe12 O29 2.136195 1_555
Fe13 O10 1.925425 1_555
Fe13 O38 1.960043 1_545
Fe13 O45 2.063542 1_555
Fe13 O9 2.097863 1_555
Fe13 O48 2.110898 1_555
Fe13 O18 2.136195 1_555
O0 P2 1.511173 1_555
O1 P10 1.550502 1_555
O2 P11 1.523039 1_555
O3 P14 1.539631 1_555
O4 P7 1.545168 1_555
O5 P4 1.498367 1_555
O6 P8 1.498367 1_555
O7 P11 1.511173 1_555
O8 P5 1.539631 1_555
O9 P0 1.545168 1_555
O10 P8 1.535551 1_555
O11 P3 1.604008 1_555
O11 P11 1.624438 1_555
O12 P3 1.510291 1_555
O13 P5 1.498367 1_555
O14 P6 1.536140 1_555
O15 P2 1.523039 1_555
O16 P13 1.555291 1_455
O17 P12 1.550502 1_555
O18 P1 1.550502 1_555
O19 P11 1.545168 1_555
O20 P3 1.554232 1_555
O21 P13 1.533785 1_445
O22 P14 1.498367 1_555
O23 P7 1.523039 1_555
O24 P6 1.510291 1_555
O25 P12 1.533785 1_665
O26 P14 1.535551 1_555
O27 P10 1.533785 1_445
O28 P15 1.554232 1_555
O29 P13 1.550502 1_555
O30 P2 1.545168 1_555
O31 P15 1.604008 1_554
O31 P0 1.624438 1_555
O32 P12 1.592672 1_555
O32 P5 1.638254 1_555
O33 P1 1.533785 1_665
O34 P6 1.554232 1_555
O35 P15 1.536140 1_555
O36 P1 1.592672 1_555
O36 P8 1.638254 1_555
O37 P4 1.535551 1_555
O38 P0 1.511173 1_555
O39 P9 1.510291 1_555
O40 P15 1.510291 1_555
O41 P0 1.523039 1_555
O42 P9 1.604008 1_556
O42 P2 1.624438 1_555
O43 P6 1.604008 1_555
O43 P7 1.624438 1_555
O44 P9 1.536140 1_555
O45 P9 1.554232 1_555
O46 P3 1.536140 1_555
O47 P8 1.539631 1_555
O48 P1 1.555291 1_655
O49 P10 1.555291 1_545
O50 P10 1.592672 1_555
O50 P14 1.638254 1_555
O51 P7 1.511173 1_555
O52 P5 1.535551 1_555
O53 P4 1.539631 1_555
O54 P13 1.592672 1_555
O54 P4 1.638254 1_555
O55 P12 1.555291 1_565
