# generated using pymatgen
data_Co7(RuO6)2
_symmetry_space_group_name_H-M   'P 1'
_cell_length_a   5.87823919
_cell_length_b   17.63532585
_cell_length_c   15.56370613
_cell_angle_alpha   19.10977801
_cell_angle_beta   53.80813481
_cell_angle_gamma   57.93385868
_symmetry_Int_Tables_number   1
_chemical_formula_structural   Co7(RuO6)2
_chemical_formula_sum   'Co14 Ru4 O24'
_cell_volume   424.03670772
_cell_formula_units_Z   2
loop_
 _symmetry_equiv_pos_site_id
 _symmetry_equiv_pos_as_xyz
  1  'x, y, z'
loop_
 _atom_site_type_symbol
 _atom_site_label
 _atom_site_symmetry_multiplicity
 _atom_site_fract_x
 _atom_site_fract_y
 _atom_site_fract_z
 _atom_site_occupancy
  Co  Co0  1  0.12510100  0.29772500  0.11207000  1
  Co  Co1  1  0.49419900  0.15692900  0.01197800  1
  Co  Co2  1  0.50871900  0.51170000  0.98502300  1
  Co  Co3  1  0.11785300  0.61388900  0.14212700  1
  Co  Co4  1  0.50382800  0.17126000  0.49788700  1
  Co  Co5  1  0.49921100  0.83540200  0.99774800  1
  Co  Co6  1  0.13171100  0.96462500  0.11836000  1
  Co  Co7  1  0.49903100  0.33552500  0.49767200  1
  Co  Co8  1  0.49656200  0.49922000  0.49758400  1
  Co  Co9  1  0.88180800  0.05726100  0.85234700  1
  Co  Co10  1  0.50169400  0.83378700  0.49890000  1
  Co  Co11  1  0.87823400  0.36970000  0.88630200  1
  Co  Co12  1  0.00199800  0.83362700  0.49896400  1
  Co  Co13  1  0.87096400  0.70600100  0.87699900  1
  Ru  Ru0  1  0.48002900  0.00835100  0.49855000  1
  Ru  Ru1  1  0.02124200  0.16319200  0.49553900  1
  Ru  Ru2  1  0.52293300  0.66037000  0.49829700  1
  Ru  Ru3  1  0.97958400  0.50736800  0.49986100  1
  O  O0  1  0.25486500  0.05681500  0.26979600  1
  O  O1  1  0.27623300  0.28427200  0.20957500  1
  O  O2  1  0.73441500  0.05179700  0.28935500  1
  O  O3  1  0.27547600  0.40464000  0.25113700  1
  O  O4  1  0.71550900  0.25670100  0.25343500  1
  O  O5  1  0.28836000  0.09404800  0.73284900  1
  O  O6  1  0.26447500  0.58671000  0.25493900  1
  O  O7  1  0.26527400  0.28002800  0.71294600  1
  O  O8  1  0.73441800  0.39063100  0.28284400  1
  O  O9  1  0.26687600  0.73982200  0.25174200  1
  O  O10  1  0.71082300  0.57696300  0.26207100  1
  O  O11  1  0.73375400  0.08451200  0.74007700  1
  O  O12  1  0.28686600  0.41150600  0.74419100  1
  O  O13  1  0.26697400  0.91786500  0.25499700  1
  O  O14  1  0.73025300  0.73752500  0.25629100  1
  O  O15  1  0.26975500  0.61535800  0.70888800  1
  O  O16  1  0.72464600  0.26519300  0.74491400  1
  O  O17  1  0.72401500  0.91619300  0.25817200  1
  O  O18  1  0.72643000  0.38471800  0.78739200  1
  O  O19  1  0.27908600  0.75166000  0.73932200  1
  O  O20  1  0.74810900  0.61071200  0.72814300  1
  O  O21  1  0.27095200  0.93331600  0.73854900  1
  O  O22  1  0.73696600  0.75097100  0.74135600  1
  O  O23  1  0.73277200  0.93037300  0.74438900  1
loop_
_geom_bond_atom_site_label_1
_geom_bond_atom_site_label_2
_geom_bond_distance
_geom_bond_site_symmetry_2
Co0 O0 1.928507 1_555
Co0 O4 1.935588 1_455
Co0 O15 1.951048 1_554
Co0 O1 1.958681 1_555
Co1 O13 1.934571 1_545
Co1 O0 1.944185 1_555
Co1 O17 1.952559 1_545
Co1 O12 1.959629 1_554
Co1 O16 1.963762 1_554
Co1 O18 1.967446 1_554
Co2 O22 1.936130 1_555
Co2 O20 1.945614 1_555
Co2 O19 1.950038 1_555
Co2 O4 1.960360 1_556
Co2 O1 1.964183 1_556
Co2 O3 1.965464 1_556
Co3 O10 1.927629 1_455
Co3 O3 1.936214 1_555
Co3 O6 1.952804 1_555
Co3 O21 1.958718 1_554
Co4 O8 1.935697 1_555
Co4 O5 1.944814 1_555
Co4 O23 1.950385 1_545
Co4 O3 1.959987 1_555
Co4 O21 1.962931 1_545
Co4 O4 1.964665 1_555
Co5 O23 1.950969 1_555
Co5 O9 1.951804 1_556
Co5 O5 1.957818 1_565
Co5 O10 1.958177 1_556
Co5 O6 1.971840 1_556
Co5 O11 1.972441 1_565
Co6 O9 1.925699 1_555
Co6 O17 1.926226 1_455
Co6 O13 1.954798 1_555
Co6 O7 1.956960 1_564
Co7 O11 1.958161 1_555
Co7 O6 1.958787 1_555
Co7 O5 1.963650 1_555
Co7 O10 1.963960 1_555
Co7 O8 1.965148 1_555
Co7 O7 1.966122 1_555
Co8 O7 1.933575 1_555
Co8 O10 1.945760 1_555
Co8 O9 1.950408 1_555
Co8 O16 1.960960 1_555
Co8 O12 1.964916 1_555
Co8 O14 1.965660 1_555
Co9 O5 1.925628 1_655
Co9 O16 1.932899 1_555
Co9 O11 1.951017 1_555
Co9 O14 1.959632 1_546
Co10 O19 1.949259 1_555
Co10 O17 1.949771 1_555
Co10 O20 1.957544 1_555
Co10 O0 1.958675 1_565
Co10 O15 1.975205 1_555
Co10 O2 1.977194 1_565
Co11 O20 1.926015 1_555
Co11 O12 1.931263 1_655
Co11 O2 1.950565 1_556
Co11 O18 1.958840 1_555
Co12 O2 1.958092 1_465
Co12 O15 1.960184 1_555
Co12 O0 1.960611 1_565
Co12 O20 1.961705 1_455
Co12 O22 1.965204 1_455
Co12 O13 1.965440 1_555
Co13 O23 1.926233 1_555
Co13 O19 1.927375 1_655
Co13 O8 1.959141 1_556
Co13 O22 1.960290 1_555
O1 Ru0 2.038719 1_555
O1 Ru1 2.043279 1_555
O2 Ru0 2.043572 1_555
O3 Ru1 2.065914 1_555
O4 Ru0 2.068172 1_555
O6 Ru3 2.040194 1_455
O7 Ru3 2.047939 1_455
O8 Ru1 2.051305 1_655
O9 Ru3 2.074189 1_455
O11 Ru1 2.044603 1_655
O12 Ru2 2.070536 1_555
O13 Ru2 2.049854 1_555
O14 Ru3 2.039805 1_555
O14 Ru2 2.043998 1_555
O15 Ru2 2.040710 1_555
O16 Ru3 2.072575 1_555
O17 Ru2 2.073694 1_555
O18 Ru2 2.038233 1_555
O18 Ru3 2.044511 1_555
O19 Ru0 2.079084 1_565
O21 Ru1 2.038723 1_565
O21 Ru0 2.044087 1_565
O22 Ru0 2.051985 1_565
O23 Ru1 2.078131 1_665
