# generated using pymatgen
data_Li2MnP2O7
_symmetry_space_group_name_H-M   'P 1'
_cell_length_a   8.59704273
_cell_length_b   8.76790581
_cell_length_c   8.72532953
_cell_angle_alpha   71.45465965
_cell_angle_beta   111.92896999
_cell_angle_gamma   110.22214480
_symmetry_Int_Tables_number   1
_chemical_formula_structural   Li2MnP2O7
_chemical_formula_sum   'Li8 Mn4 P8 O28'
_cell_volume   558.85196649
_cell_formula_units_Z   4
loop_
 _symmetry_equiv_pos_site_id
 _symmetry_equiv_pos_as_xyz
  1  'x, y, z'
loop_
 _atom_site_type_symbol
 _atom_site_label
 _atom_site_symmetry_multiplicity
 _atom_site_fract_x
 _atom_site_fract_y
 _atom_site_fract_z
 _atom_site_occupancy
  Li  Li0  1  0.56938700  0.80976300  0.57252500  1
  Li  Li1  1  0.56939800  0.30980200  0.07251900  1
  Li  Li2  1  0.43060100  0.69019800  0.92748700  1
  Li  Li3  1  0.43060100  0.19023200  0.42746200  1
  Li  Li4  1  0.99477100  0.06604300  0.77244500  1
  Li  Li5  1  0.99477900  0.56605400  0.27241100  1
  Li  Li6  1  0.00522600  0.43395100  0.72758600  1
  Li  Li7  1  0.00522600  0.93395500  0.22755900  1
  Mn  Mn0  1  0.28327000  0.40301500  0.63487300  1
  Mn  Mn1  1  0.71671800  0.59696800  0.36512400  1
  Mn  Mn2  1  0.28330100  0.90294700  0.13489800  1
  Mn  Mn3  1  0.71671800  0.09705800  0.86504900  1
  P  P0  1  0.82007600  0.24176500  0.46135300  1
  P  P1  1  0.82006700  0.74178000  0.96134200  1
  P  P2  1  0.17993000  0.25822600  0.03866200  1
  P  P3  1  0.17993000  0.75822300  0.53865900  1
  P  P4  1  0.30003800  0.51359500  0.23462000  1
  P  P5  1  0.30000600  0.01357900  0.73460800  1
  P  P6  1  0.69999800  0.98642000  0.26538700  1
  P  P7  1  0.69995600  0.48640900  0.76538300  1
  O  O0  1  0.78690300  0.99098600  0.13906200  1
  O  O1  1  0.78689600  0.49096500  0.63907700  1
  O  O2  1  0.21310500  0.50903200  0.36093300  1
  O  O3  1  0.21310100  0.00903800  0.86092300  1
  O  O4  1  0.84702100  0.10897000  0.38591500  1
  O  O5  1  0.84698600  0.60895900  0.88590100  1
  O  O6  1  0.15300800  0.39105000  0.11410200  1
  O  O7  1  0.15297800  0.89100800  0.61410800  1
  O  O8  1  0.66390100  0.81489700  0.38423600  1
  O  O9  1  0.66389600  0.31487500  0.88423800  1
  O  O10  1  0.33609000  0.68513100  0.11576300  1
  O  O11  1  0.33610000  0.18509400  0.61574700  1
  O  O12  1  0.78219600  0.89013300  0.81266700  1
  O  O13  1  0.78222000  0.39012700  0.31268400  1
  O  O14  1  0.21778600  0.60985900  0.68732200  1
  O  O15  1  0.21779500  0.10987200  0.18733500  1
  O  O16  1  0.67519200  0.65622300  0.04561800  1
  O  O17  1  0.67518200  0.15622300  0.54559900  1
  O  O18  1  0.32482500  0.84378300  0.45441600  1
  O  O19  1  0.32481100  0.34377800  0.95439600  1
  O  O20  1  0.99991100  0.78693100  0.09054500  1
  O  O21  1  0.99990200  0.28691200  0.59058700  1
  O  O22  1  0.00010400  0.71307700  0.40942200  1
  O  O23  1  0.00009100  0.21308100  0.90945100  1
  O  O24  1  0.54230800  0.06031500  0.18315100  1
  O  O25  1  0.54227000  0.56027200  0.68314700  1
  O  O26  1  0.45772700  0.43973700  0.31684600  1
  O  O27  1  0.45769700  0.93968800  0.81686100  1
loop_
_geom_bond_atom_site_label_1
_geom_bond_atom_site_label_2
_geom_bond_distance
_geom_bond_site_symmetry_2
Li0 O18 2.047243 1_555
Li0 O25 2.060006 1_555
Li0 O8 2.070278 1_555
Li0 O12 2.327834 1_555
Li1 O19 2.047312 1_554
Li1 O24 2.060009 1_555
Li1 O9 2.070315 1_554
Li1 O13 2.327888 1_555
Li2 O16 2.047345 1_556
Li2 O27 2.060018 1_555
Li2 O10 2.070370 1_556
Li2 O14 2.327906 1_555
Li3 O17 2.047373 1_555
Li3 O26 2.060098 1_555
Li3 O11 2.070156 1_555
Li3 O15 2.327705 1_555
Li4 O3 1.920861 1_655
Li4 O23 1.997986 1_655
Li4 O12 2.006979 1_545
Li4 O21 2.075713 1_555
Li5 O2 1.920882 1_655
Li5 O22 1.997894 1_655
Li5 O13 2.007061 1_555
Li5 O20 2.075794 1_555
Li6 O1 1.920886 1_455
Li6 O21 1.997930 1_455
Li6 O14 2.006980 1_555
Li6 O23 2.075748 1_555
Li7 O0 1.920905 1_455
Li7 O20 1.997958 1_455
Li7 O15 2.006971 1_565
Li7 O22 2.075789 1_555
Mn0 O25 2.140777 1_555
Mn0 O11 2.178147 1_555
Mn0 O2 2.199651 1_555
Mn0 O21 2.225533 1_455
Mn0 O14 2.289472 1_555
Mn0 O19 2.575538 1_555
Mn1 O26 2.140641 1_555
Mn1 O8 2.178102 1_555
Mn1 O1 2.199728 1_555
Mn1 O22 2.225666 1_655
Mn1 O13 2.289496 1_555
Mn1 O16 2.575405 1_555
Mn2 O24 2.141158 1_565
Mn2 O10 2.177094 1_555
Mn2 O3 2.200027 1_564
Mn2 O20 2.225543 1_455
Mn2 O15 2.290195 1_565
Mn2 O18 2.575585 1_555
Mn3 O27 2.141246 1_545
Mn3 O9 2.177460 1_555
Mn3 O0 2.200278 1_546
Mn3 O23 2.225386 1_655
Mn3 O12 2.289791 1_545
Mn3 O17 2.574991 1_555
O0 P6 1.530047 1_555
O1 P7 1.530156 1_555
O2 P4 1.530143 1_555
O3 P5 1.530050 1_555
O4 P0 1.621864 1_555
O4 P6 1.626405 1_545
O5 P1 1.621965 1_555
O5 P7 1.626374 1_555
O6 P2 1.621997 1_555
O6 P4 1.626348 1_555
O7 P3 1.621884 1_555
O7 P5 1.626390 1_565
O8 P6 1.535923 1_555
O9 P7 1.535976 1_555
O10 P4 1.535988 1_555
O11 P5 1.535917 1_555
O12 P1 1.544254 1_555
O13 P0 1.544255 1_555
O14 P3 1.544240 1_555
O15 P2 1.544241 1_555
O16 P1 1.530353 1_554
O17 P0 1.530315 1_555
O18 P3 1.530315 1_555
O19 P2 1.530338 1_556
O20 P1 1.541749 1_554
O21 P0 1.541763 1_555
O22 P3 1.541773 1_555
O23 P2 1.541744 1_556
O24 P6 1.535387 1_545
O25 P7 1.535195 1_555
O26 P4 1.535192 1_555
O27 P5 1.535375 1_565
