# generated using pymatgen
data_Na9Sr2Nd9Ti20O60
_symmetry_space_group_name_H-M   'P 1'
_cell_length_a   38.78831200
_cell_length_b   5.48681100
_cell_length_c   5.52238341
_cell_angle_alpha   89.97782822
_cell_angle_beta   90.00000000
_cell_angle_gamma   90.00000000
_symmetry_Int_Tables_number   1
_chemical_formula_structural   Na9Sr2Nd9Ti20O60
_chemical_formula_sum   'Na9 Sr2 Nd9 Ti20 O60'
_cell_volume   1175.29639590
_cell_formula_units_Z   1
loop_
 _symmetry_equiv_pos_site_id
 _symmetry_equiv_pos_as_xyz
  1  'x, y, z'
loop_
 _atom_site_type_symbol
 _atom_site_label
 _atom_site_symmetry_multiplicity
 _atom_site_fract_x
 _atom_site_fract_y
 _atom_site_fract_z
 _atom_site_occupancy
  Na  Na0  1  0.50000000  0.48970900  0.97773200  1
  Na  Na1  1  0.00000000  0.50411200  0.99542300  1
  Na  Na2  1  0.79984000  0.50918100  0.99204600  1
  Na  Na3  1  0.20016000  0.50918100  0.99204600  1
  Na  Na4  1  0.60047600  0.98876000  0.51894800  1
  Na  Na5  1  0.39952400  0.98876000  0.51894800  1
  Na  Na6  1  0.00000000  0.99682500  0.49527000  1
  Na  Na7  1  0.79939300  0.99650300  0.48816200  1
  Na  Na8  1  0.20060700  0.99650300  0.48816200  1
  Sr  Sr0  1  0.70189400  0.49589900  0.98527000  1
  Sr  Sr1  1  0.29810600  0.49589900  0.98527000  1
  Nd  Nd0  1  0.50000000  0.00763600  0.46169900  1
  Nd  Nd1  1  0.70222900  0.00454700  0.47216600  1
  Nd  Nd2  1  0.90033700  0.00703900  0.46504600  1
  Nd  Nd3  1  0.09966300  0.00703900  0.46504600  1
  Nd  Nd4  1  0.29777100  0.00454700  0.47216600  1
  Nd  Nd5  1  0.90039500  0.49643800  0.96507100  1
  Nd  Nd6  1  0.09960500  0.49643800  0.96507100  1
  Nd  Nd7  1  0.40103500  0.50674000  0.03996800  1
  Nd  Nd8  1  0.59896500  0.50674000  0.03996800  1
  Ti  Ti0  1  0.35032200  0.99432400  0.99900400  1
  Ti  Ti1  1  0.44991600  0.99161300  0.99558000  1
  Ti  Ti2  1  0.55008400  0.99161300  0.99558000  1
  Ti  Ti3  1  0.64967800  0.99432400  0.99900400  1
  Ti  Ti4  1  0.75332300  0.99915500  0.98396400  1
  Ti  Ti5  1  0.84824400  0.99662000  0.98375800  1
  Ti  Ti6  1  0.95253400  0.99556300  0.98504700  1
  Ti  Ti7  1  0.04746600  0.99556300  0.98504700  1
  Ti  Ti8  1  0.15175600  0.99662000  0.98375800  1
  Ti  Ti9  1  0.24667700  0.99915500  0.98396400  1
  Ti  Ti10  1  0.45038900  0.49150100  0.50554200  1
  Ti  Ti11  1  0.64970500  0.49383900  0.50530200  1
  Ti  Ti12  1  0.35029500  0.49383900  0.50530200  1
  Ti  Ti13  1  0.84842400  0.50806700  0.48420300  1
  Ti  Ti14  1  0.24642900  0.50094300  0.48781500  1
  Ti  Ti15  1  0.54961100  0.49150100  0.50554200  1
  Ti  Ti16  1  0.04743600  0.50636100  0.48494700  1
  Ti  Ti17  1  0.95256400  0.50636100  0.48494700  1
  Ti  Ti18  1  0.75357100  0.50094300  0.48781500  1
  Ti  Ti19  1  0.15157600  0.50806700  0.48420300  1
  O  O0  1  0.50000000  0.93426200  0.01672200  1
  O  O1  1  0.69905800  0.94606100  0.01962500  1
  O  O2  1  0.90040000  0.92831600  0.02307800  1
  O  O3  1  0.09960000  0.92831600  0.02307800  1
  O  O4  1  0.30094200  0.94606100  0.01962500  1
  O  O5  1  0.44279800  0.77668700  0.27366400  1
  O  O6  1  0.64209900  0.76571100  0.27111700  1
  O  O7  1  0.35790100  0.76571100  0.27111700  1
  O  O8  1  0.84570700  0.78331800  0.28909400  1
  O  O9  1  0.04498300  0.78155700  0.28834000  1
  O  O10  1  0.55720200  0.77668700  0.27366400  1
  O  O11  1  0.75468400  0.76370300  0.26858400  1
  O  O12  1  0.24531600  0.76370300  0.26858400  1
  O  O13  1  0.95501700  0.78155700  0.28834000  1
  O  O14  1  0.15429300  0.78331800  0.28909400  1
  O  O15  1  0.35795700  0.71317800  0.78821600  1
  O  O16  1  0.44155200  0.72268300  0.78314400  1
  O  O17  1  0.55844800  0.72268300  0.78314400  1
  O  O18  1  0.64204300  0.71317800  0.78821600  1
  O  O19  1  0.75485800  0.73658000  0.76694600  1
  O  O20  1  0.95497000  0.72096100  0.78829900  1
  O  O21  1  0.84595400  0.72106200  0.78929900  1
  O  O22  1  0.04503000  0.72096100  0.78829900  1
  O  O23  1  0.15404600  0.72106200  0.78929900  1
  O  O24  1  0.24514200  0.73658000  0.76694600  1
  O  O25  1  0.69873800  0.57357700  0.50612700  1
  O  O26  1  0.50000000  0.58416600  0.51611100  1
  O  O27  1  0.90037800  0.57537000  0.52209900  1
  O  O28  1  0.09962200  0.57537000  0.52209900  1
  O  O29  1  0.30126200  0.57357700  0.50612700  1
  O  O30  1  0.40057800  0.43315000  0.48892700  1
  O  O31  1  0.59942200  0.43315000  0.48892700  1
  O  O32  1  0.00000000  0.43076500  0.49741700  1
  O  O33  1  0.80091200  0.43395200  0.50026400  1
  O  O34  1  0.19908800  0.43395200  0.50026400  1
  O  O35  1  0.45752100  0.27758200  0.22902100  1
  O  O36  1  0.65620700  0.26825100  0.23313200  1
  O  O37  1  0.54247900  0.27758200  0.22902100  1
  O  O38  1  0.74265300  0.25613200  0.24892400  1
  O  O39  1  0.94039900  0.27707200  0.23481100  1
  O  O40  1  0.86040600  0.27813700  0.23442800  1
  O  O41  1  0.05960100  0.27707200  0.23481100  1
  O  O42  1  0.25734700  0.25613200  0.24892400  1
  O  O43  1  0.13959400  0.27813700  0.23442800  1
  O  O44  1  0.34379300  0.26825100  0.23313200  1
  O  O45  1  0.45877600  0.22215300  0.72014500  1
  O  O46  1  0.54122400  0.22215300  0.72014500  1
  O  O47  1  0.65839100  0.21819000  0.72326700  1
  O  O48  1  0.74162900  0.22940400  0.73393500  1
  O  O49  1  0.86058000  0.22620700  0.73470600  1
  O  O50  1  0.94036400  0.22596900  0.73476900  1
  O  O51  1  0.05963600  0.22596900  0.73476900  1
  O  O52  1  0.13942000  0.22620700  0.73470600  1
  O  O53  1  0.25837100  0.22940400  0.73393500  1
  O  O54  1  0.34160900  0.21819000  0.72326700  1
  O  O55  1  0.40032500  0.08129500  0.98921200  1
  O  O56  1  0.59967500  0.08129500  0.98921200  1
  O  O57  1  0.80073400  0.07128600  0.99626300  1
  O  O58  1  0.00000000  0.07125000  0.99706600  1
  O  O59  1  0.19926600  0.07128600  0.99626300  1
loop_
_geom_bond_atom_site_label_1
_geom_bond_atom_site_label_2
_geom_bond_distance
_geom_bond_site_symmetry_2
Na0 O37 2.448274 1_556
Na0 O35 2.448274 1_556
Na0 O0 2.448746 1_556
Na0 O46 2.595582 1_555
Na0 O45 2.595582 1_555
Na0 O26 2.601201 1_555
Na0 O17 2.815569 1_555
Na0 O16 2.815569 1_555
Na1 O58 2.375046 1_555
Na1 O20 2.402843 1_455
Na1 O22 2.402843 1_555
Na1 O32 2.779623 1_555
Na1 O32 2.801108 1_556
Na2 O57 2.403001 1_555
Na2 O21 2.409049 1_555
Na2 O19 2.478922 1_555
Na2 O11 2.711443 1_556
Na2 O33 2.747470 1_555
Na2 O33 2.836912 1_556
Na2 O8 2.849650 1_556
Na3 O59 2.403001 1_555
Na3 O23 2.409049 1_555
Na3 O24 2.478922 1_555
Na3 O12 2.711443 1_556
Na3 O34 2.747470 1_555
Na3 O34 2.836912 1_556
Na3 O14 2.849650 1_556
Na4 O31 2.444192 1_565
Na4 O6 2.445144 1_555
Na4 O10 2.451011 1_555
Na4 O17 2.629809 1_555
Na4 O56 2.646519 1_565
Na4 O18 2.663707 1_555
Na4 O47 2.811641 1_565
Na4 O46 2.856155 1_565
Na4 O56 2.969107 1_564
Na5 O30 2.444192 1_565
Na5 O7 2.445144 1_555
Na5 O5 2.451011 1_555
Na5 O16 2.629809 1_555
Na5 O55 2.646519 1_565
Na5 O15 2.663707 1_555
Na5 O54 2.811641 1_565
Na5 O45 2.856155 1_565
Na5 O55 2.969107 1_564
Na6 O32 2.380981 1_565
Na6 O9 2.397159 1_555
Na6 O13 2.397159 1_455
Na6 O58 2.781257 1_564
Na6 O58 2.801193 1_565
Na6 O20 2.821082 1_455
Na6 O22 2.821082 1_555
Na7 O33 2.401879 1_565
Na7 O8 2.409344 1_555
Na7 O11 2.471954 1_555
Na7 O57 2.747605 1_564
Na7 O57 2.836405 1_565
Na8 O34 2.401879 1_565
Na8 O14 2.409344 1_555
Na8 O12 2.471954 1_555
Na8 O59 2.747605 1_564
Na8 O59 2.836405 1_565
Nd0 O26 2.342734 1_545
Nd0 O46 2.445506 1_555
Nd0 O45 2.445506 1_555
Nd0 O0 2.490247 1_545
Nd0 O37 2.560908 1_555
Nd0 O35 2.560908 1_555
Nd0 O10 2.758253 1_545
Nd0 O5 2.758253 1_545
Nd1 O25 2.375866 1_545
Nd1 O38 2.425409 1_555
Nd1 O48 2.439020 1_555
Nd1 O47 2.487889 1_555
Nd1 O1 2.522747 1_545
Nd1 O36 2.649747 1_555
Nd1 O11 2.674162 1_545
Nd2 O27 2.389230 1_545
Nd2 O49 2.458288 1_555
Nd2 O50 2.464445 1_555
Nd2 O2 2.478808 1_545
Nd2 O39 2.495002 1_555
Nd2 O40 2.496396 1_555
Nd2 O8 2.634777 1_545
Nd2 O13 2.642387 1_545
Nd3 O28 2.389230 1_545
Nd3 O52 2.458288 1_555
Nd3 O51 2.464445 1_555
Nd3 O3 2.478808 1_545
Nd3 O41 2.495002 1_555
Nd3 O43 2.496396 1_555
Nd3 O14 2.634777 1_545
Nd3 O9 2.642387 1_545
Nd4 O29 2.375866 1_545
Nd4 O42 2.425409 1_555
Nd4 O53 2.439020 1_555
Nd4 O54 2.487889 1_555
Nd4 O4 2.522747 1_545
Nd4 O44 2.649747 1_555
Nd4 O12 2.674162 1_545
Nd5 O2 2.391310 1_556
Nd5 O40 2.460051 1_556
Nd5 O39 2.464544 1_556
Nd5 O27 2.484137 1_555
Nd5 O49 2.490646 1_555
Nd5 O50 2.494953 1_555
Nd5 O21 2.630484 1_555
Nd5 O20 2.636438 1_555
Nd6 O3 2.391310 1_556
Nd6 O43 2.460051 1_556
Nd6 O41 2.464544 1_556
Nd6 O28 2.484137 1_555
Nd6 O52 2.490646 1_555
Nd6 O51 2.494953 1_555
Nd6 O23 2.630484 1_555
Nd6 O22 2.636438 1_555
Nd7 O55 2.351373 1_554
Nd7 O16 2.425684 1_554
Nd7 O15 2.450836 1_554
Nd7 O30 2.511896 1_555
Nd7 O7 2.539511 1_555
Nd7 O5 2.546557 1_555
Nd7 O35 2.733195 1_555
Nd7 O44 2.789074 1_555
Nd8 O56 2.351373 1_554
Nd8 O17 2.425684 1_554
Nd8 O18 2.450836 1_554
Nd8 O31 2.511896 1_555
Nd8 O6 2.539511 1_555
Nd8 O10 2.546557 1_555
Nd8 O37 2.733195 1_555
Nd8 O36 2.789074 1_555
O0 Ti2 1.971447 1_554
O0 Ti1 1.971447 1_554
O1 Ti3 1.936930 1_554
O1 Ti4 2.134007 1_554
O1 Sr0 2.479744 1_554
O1 Sr0 3.024745 1_564
O2 Ti6 2.066263 1_554
O2 Ti5 2.068875 1_554
O3 Ti7 2.066263 1_554
O3 Ti8 2.068875 1_554
O4 Ti0 1.936930 1_554
O4 Ti9 2.134007 1_554
O4 Sr1 2.479744 1_554
O4 Sr1 3.024745 1_564
O5 Ti1 1.955457 1_554
O5 Ti10 2.042879 1_555
O6 Ti3 1.979019 1_554
O6 Ti11 1.995812 1_555
O6 Sr0 3.172480 1_554
O7 Ti0 1.979019 1_554
O7 Ti12 1.995812 1_555
O7 Sr1 3.172480 1_554
O8 Ti13 1.857858 1_555
O8 Ti5 2.054527 1_554
O9 Ti16 1.861870 1_555
O9 Ti7 2.047392 1_554
O10 Ti2 1.955457 1_554
O10 Ti15 2.042879 1_555
O11 Ti18 1.882762 1_555
O11 Ti4 2.034863 1_554
O11 Sr0 2.966744 1_554
O12 Ti14 1.882762 1_555
O12 Ti9 2.034863 1_554
O12 Sr1 2.966744 1_554
O13 Ti17 1.861870 1_555
O13 Ti6 2.047392 1_554
O14 Ti19 1.857858 1_555
O14 Ti8 2.054527 1_554
O15 Ti0 1.955431 1_555
O15 Ti12 1.994766 1_555
O15 Sr1 2.827350 1_555
O16 Ti1 1.913160 1_555
O16 Ti10 2.019439 1_555
O17 Ti2 1.913160 1_555
O17 Ti15 2.019439 1_555
O18 Ti3 1.955431 1_555
O18 Ti11 1.994766 1_555
O18 Sr0 2.827350 1_555
O19 Ti4 1.875312 1_555
O19 Ti18 2.012893 1_555
O19 Sr0 2.723382 1_555
O20 Ti6 1.860330 1_555
O20 Ti17 2.050135 1_555
O21 Ti5 1.856961 1_555
O21 Ti13 2.053100 1_555
O22 Ti7 1.860330 1_555
O22 Ti16 2.050135 1_555
O23 Ti8 1.856961 1_555
O23 Ti19 2.053100 1_555
O24 Ti9 1.875312 1_555
O24 Ti14 2.012893 1_555
O24 Sr1 2.723382 1_555
O25 Ti11 1.951586 1_555
O25 Ti18 2.166264 1_555
O25 Sr0 2.682748 1_555
O25 Sr0 2.910516 1_554
O26 Ti15 1.991223 1_555
O26 Ti10 1.991223 1_555
O27 Ti13 2.059438 1_555
O27 Ti17 2.069525 1_555
O28 Ti19 2.059438 1_555
O28 Ti16 2.069525 1_555
O29 Ti12 1.951586 1_555
O29 Ti14 2.166264 1_555
O29 Sr1 2.682748 1_555
O29 Sr1 2.910516 1_554
O30 Ti10 1.960586 1_555
O30 Ti12 1.980685 1_555
O31 Ti15 1.960586 1_555
O31 Ti11 1.980685 1_555
O32 Ti16 1.887386 1_555
O32 Ti17 1.887386 1_455
O33 Ti18 1.873960 1_555
O33 Ti13 1.889319 1_555
O34 Ti14 1.873960 1_555
O34 Ti19 1.889319 1_555
O35 Ti10 1.946140 1_555
O35 Ti1 2.052421 1_544
O36 Ti11 1.963717 1_555
O36 Ti3 1.999077 1_544
O36 Sr0 2.563753 1_554
O37 Ti15 1.946140 1_555
O37 Ti2 2.052421 1_544
O38 Ti18 1.930130 1_555
O38 Ti4 2.074109 1_544
O38 Sr0 2.519645 1_554
O39 Ti17 1.927393 1_555
O39 Ti6 2.124006 1_544
O40 Ti13 1.926540 1_555
O40 Ti5 2.127523 1_544
O41 Ti16 1.927393 1_555
O41 Ti7 2.124006 1_544
O42 Ti14 1.930130 1_555
O42 Ti9 2.074109 1_544
O42 Sr1 2.519645 1_554
O43 Ti19 1.926540 1_555
O43 Ti8 2.127523 1_544
O44 Ti12 1.963717 1_555
O44 Ti0 1.999077 1_544
O44 Sr1 2.563753 1_554
O45 Ti10 1.921734 1_555
O45 Ti1 2.007555 1_545
O46 Ti15 1.921734 1_555
O46 Ti2 2.007555 1_545
O47 Ti11 1.961739 1_555
O47 Ti3 1.984996 1_545
O47 Sr0 2.695235 1_555
O48 Ti4 1.925329 1_545
O48 Ti18 2.068837 1_555
O48 Sr0 2.538019 1_555
O49 Ti5 1.925117 1_545
O49 Ti13 2.127461 1_555
O50 Ti6 1.931309 1_545
O50 Ti17 2.119546 1_555
O51 Ti7 1.931309 1_545
O51 Ti16 2.119546 1_555
O52 Ti8 1.925117 1_545
O52 Ti19 2.127461 1_555
O53 Ti9 1.925329 1_545
O53 Ti14 2.068837 1_555
O53 Sr1 2.538019 1_555
O54 Ti12 1.961739 1_555
O54 Ti0 1.984996 1_545
O54 Sr1 2.695235 1_555
O55 Ti1 1.985800 1_545
O55 Ti0 1.998100 1_545
O56 Ti2 1.985800 1_545
O56 Ti3 1.998100 1_545
O57 Ti4 1.882329 1_545
O57 Ti5 1.889090 1_545
O58 Ti6 1.888552 1_445
O58 Ti7 1.888552 1_545
O59 Ti9 1.882329 1_545
O59 Ti8 1.889090 1_545
