# generated using pymatgen
data_Ga2HgTe4
_symmetry_space_group_name_H-M   'P 1'
_cell_length_a   7.53208500
_cell_length_b   8.82866064
_cell_length_c   14.43970051
_cell_angle_alpha   89.99548385
_cell_angle_beta   100.88417019
_cell_angle_gamma   90.10784669
_symmetry_Int_Tables_number   1
_chemical_formula_structural   Ga2HgTe4
_chemical_formula_sum   'Ga8 Hg4 Te16'
_cell_volume   942.93933248
_cell_formula_units_Z   4
loop_
 _symmetry_equiv_pos_site_id
 _symmetry_equiv_pos_as_xyz
  1  'x, y, z'
loop_
 _atom_site_type_symbol
 _atom_site_label
 _atom_site_symmetry_multiplicity
 _atom_site_fract_x
 _atom_site_fract_y
 _atom_site_fract_z
 _atom_site_occupancy
  Ga  Ga0  1  0.99086700  0.74472300  0.50145100  1
  Ga  Ga1  1  0.76873600  0.23362500  0.75456300  1
  Ga  Ga2  1  0.50034800  0.24779300  0.99256300  1
  Ga  Ga3  1  0.50948200  0.75470900  0.99660700  1
  Ga  Ga4  1  0.75469200  0.98654400  0.24765200  1
  Ga  Ga5  1  0.22681600  0.25892400  0.24811400  1
  Ga  Ga6  1  0.49627900  0.50432600  0.49426900  1
  Ga  Ga7  1  0.75346800  0.76412900  0.74818900  1
  Hg  Hg0  1  0.99279000  0.00415800  0.00007600  1
  Hg  Hg1  1  0.78110300  0.51923500  0.25434800  1
  Hg  Hg2  1  0.50722900  0.99659700  0.50111700  1
  Hg  Hg3  1  0.21578600  0.49293600  0.74913200  1
  Te  Te0  1  0.55664100  0.23948800  0.18686300  1
  Te  Te1  1  0.82459700  0.48217000  0.45370200  1
  Te  Te2  1  0.29278100  0.73837300  0.42543200  1
  Te  Te3  1  0.06899300  0.78455100  0.68930500  1
  Te  Te4  1  0.53561300  0.00209900  0.70147100  1
  Te  Te5  1  0.05742100  0.22103300  0.68479700  1
  Te  Te6  1  0.31920500  0.99890600  0.91865900  1
  Te  Te7  1  0.82121100  0.28385100  0.94129800  1
  Te  Te8  1  0.29984300  0.50283400  0.95400600  1
  Te  Te9  1  0.82449600  0.72195400  0.93642400  1
  Te  Te10  1  0.08220400  0.50255300  0.17143400  1
  Te  Te11  1  0.53467000  0.75950500  0.18506500  1
  Te  Te12  1  0.08051900  0.98402100  0.20190100  1
  Te  Te13  1  0.84172500  0.00937600  0.43631600  1
  Te  Te14  1  0.29165900  0.26154400  0.43869900  1
  Te  Te15  1  0.57082700  0.50004400  0.68654700  1
loop_
_geom_bond_atom_site_label_1
_geom_bond_atom_site_label_2
_geom_bond_distance
_geom_bond_site_symmetry_2
Ga0 Te1 2.660847 1_555
Ga0 Te13 2.686340 1_565
Ga0 Te3 2.687832 1_655
Ga0 Te2 2.706014 1_655
Ga1 Te5 2.565812 1_655
Ga1 Te7 2.687092 1_555
Ga1 Te4 2.706933 1_555
Ga1 Te15 2.859912 1_555
Ga2 Te7 2.676334 1_555
Ga2 Te6 2.695901 1_545
Ga2 Te8 2.712163 1_555
Ga2 Te0 2.758183 1_556
Ga3 Te11 2.692239 1_556
Ga3 Te9 2.692565 1_555
Ga3 Te6 2.714953 1_555
Ga3 Te8 2.727051 1_555
Ga4 Te11 2.646343 1_555
Ga4 Te12 2.659380 1_655
Ga4 Te13 2.686462 1_565
Ga4 Te0 2.738703 1_565
Ga5 Te10 2.567456 1_555
Ga5 Te12 2.694897 1_545
Ga5 Te14 2.702758 1_555
Ga5 Te0 2.795476 1_555
Ga6 Te2 2.653920 1_555
Ga6 Te1 2.654358 1_555
Ga6 Te14 2.671020 1_555
Ga6 Te15 2.727019 1_555
Ga7 Te4 2.675140 1_565
Ga7 Te3 2.676749 1_655
Ga7 Te9 2.695205 1_555
Ga7 Te15 2.765236 1_555
Hg0 Te7 2.843499 1_554
Hg0 Te9 2.864885 1_544
Hg0 Te12 2.869575 1_645
Hg0 Te6 2.919060 1_644
Hg1 Te10 2.761388 1_655
Hg1 Te1 2.853933 1_555
Hg1 Te11 2.873870 1_555
Hg1 Te0 3.044715 1_555
Hg2 Te13 2.850460 1_565
Hg2 Te4 2.860807 1_565
Hg2 Te2 2.884547 1_555
Hg2 Te14 2.895087 1_565
Hg3 Te5 2.760345 1_555
Hg3 Te3 2.871730 1_555
Hg3 Te8 2.907342 1_555
Hg3 Te15 2.980602 1_555
