# generated using pymatgen
data_Na3SrTiNb3O12
_symmetry_space_group_name_H-M   'P 1'
_cell_length_a   8.01393400
_cell_length_b   7.92616200
_cell_length_c   11.19535826
_cell_angle_alpha   45.08755792
_cell_angle_beta   90.00000000
_cell_angle_gamma   90.00000000
_symmetry_Int_Tables_number   1
_chemical_formula_structural   Na3SrTiNb3O12
_chemical_formula_sum   'Na6 Sr2 Ti2 Nb6 O24'
_cell_volume   503.61002685
_cell_formula_units_Z   2
loop_
 _symmetry_equiv_pos_site_id
 _symmetry_equiv_pos_as_xyz
  1  'x, y, z'
loop_
 _atom_site_type_symbol
 _atom_site_label
 _atom_site_symmetry_multiplicity
 _atom_site_fract_x
 _atom_site_fract_y
 _atom_site_fract_z
 _atom_site_occupancy
  Na  Na0  1  0.23633600  0.00000000  0.75000000  1
  Na  Na1  1  0.23215500  0.50000000  0.25000000  1
  Na  Na2  1  0.76752500  0.50000000  0.25000000  1
  Na  Na3  1  0.23247500  0.50000000  0.75000000  1
  Na  Na4  1  0.76784500  0.50000000  0.75000000  1
  Na  Na5  1  0.76366400  0.00000000  0.25000000  1
  Sr  Sr0  1  0.76136700  0.00000000  0.75000000  1
  Sr  Sr1  1  0.23863300  0.00000000  0.25000000  1
  Ti  Ti0  1  0.00000000  0.00000000  0.50000000  1
  Ti  Ti1  1  0.00000000  0.00000000  0.00000000  1
  Nb  Nb0  1  0.00000000  0.50000000  0.00000000  1
  Nb  Nb1  1  0.50000000  0.50000000  0.00000000  1
  Nb  Nb2  1  0.50000000  0.00000000  0.50000000  1
  Nb  Nb3  1  0.50000000  0.00000000  0.00000000  1
  Nb  Nb4  1  0.00000000  0.50000000  0.50000000  1
  Nb  Nb5  1  0.50000000  0.50000000  0.50000000  1
  O  O0  1  0.00222200  0.72722100  0.02459300  1
  O  O1  1  0.00222200  0.27277900  0.47540700  1
  O  O2  1  0.49184100  0.79666600  0.95263700  1
  O  O3  1  0.00458200  0.78067200  0.74807300  1
  O  O4  1  0.49927500  0.29316600  0.24938000  1
  O  O5  1  0.74902200  0.51808000  0.99249900  1
  O  O6  1  0.75045400  0.00298200  0.50707400  1
  O  O7  1  0.25097800  0.48192000  0.00750100  1
  O  O8  1  0.24954600  0.99701800  0.49292600  1
  O  O9  1  0.50072500  0.70683400  0.75062000  1
  O  O10  1  0.99541800  0.21932800  0.25192700  1
  O  O11  1  0.99777800  0.27277900  0.97540700  1
  O  O12  1  0.50815900  0.20333400  0.04736300  1
  O  O13  1  0.99777800  0.72722100  0.52459300  1
  O  O14  1  0.50815900  0.79666600  0.45263700  1
  O  O15  1  0.99541800  0.78067200  0.24807300  1
  O  O16  1  0.50072500  0.29316600  0.74938000  1
  O  O17  1  0.24954600  0.00298200  0.00707400  1
  O  O18  1  0.25097800  0.51808000  0.49249900  1
  O  O19  1  0.75045400  0.99701800  0.99292600  1
  O  O20  1  0.74902200  0.48192000  0.50750100  1
  O  O21  1  0.49927500  0.70683400  0.25062000  1
  O  O22  1  0.00458200  0.21932800  0.75192700  1
  O  O23  1  0.49184100  0.20333400  0.54736300  1
loop_
_geom_bond_atom_site_label_1
_geom_bond_atom_site_label_2
_geom_bond_distance
_geom_bond_site_symmetry_2
Na0 O22 2.554404 1_555
Na0 O3 2.554404 1_545
Na0 O2 2.602670 1_545
Na0 O23 2.602670 1_555
Na0 O0 2.873985 1_546
Na0 O1 2.873985 1_555
Na0 O17 2.896707 1_556
Na0 O8 2.896707 1_545
Na0 O7 2.910500 1_546
Na0 O18 2.910500 1_555
Na1 O1 2.567019 1_555
Na1 O0 2.567019 1_555
Na1 O21 2.699309 1_555
Na1 O4 2.699309 1_555
Na1 O18 2.821903 1_555
Na1 O7 2.821903 1_555
Na1 O17 2.828376 1_565
Na1 O8 2.828376 1_545
Na1 O15 2.912236 1_455
Na1 O10 2.912236 1_455
Na2 O1 2.594561 1_655
Na2 O0 2.594561 1_655
Na2 O21 2.706496 1_555
Na2 O4 2.706496 1_555
Na2 O20 2.787437 1_555
Na2 O5 2.787437 1_554
Na2 O19 2.794887 1_554
Na2 O6 2.794887 1_555
Na2 O15 2.866568 1_555
Na2 O10 2.866568 1_555
Na3 O11 2.594561 1_455
Na3 O13 2.594561 1_455
Na3 O16 2.706496 1_555
Na3 O9 2.706496 1_555
Na3 O7 2.787437 1_556
Na3 O18 2.787437 1_555
Na3 O17 2.794887 1_556
Na3 O8 2.794887 1_555
Na3 O3 2.866568 1_555
Na3 O22 2.866568 1_555
Na4 O11 2.567019 1_555
Na4 O13 2.567019 1_555
Na4 O16 2.699309 1_555
Na4 O9 2.699309 1_555
Na4 O5 2.821903 1_555
Na4 O20 2.821903 1_555
Na4 O6 2.828376 1_565
Na4 O19 2.828376 1_545
Na4 O3 2.912236 1_655
Na4 O22 2.912236 1_655
Na5 O10 2.554404 1_555
Na5 O15 2.554404 1_545
Na5 O14 2.602670 1_545
Na5 O12 2.602670 1_555
Na5 O13 2.873985 1_545
Na5 O11 2.873985 1_554
Na5 O6 2.896707 1_555
Na5 O19 2.896707 1_544
Na5 O20 2.910500 1_545
Na5 O5 2.910500 1_554
Nb0 O0 2.004962 1_555
Nb0 O11 2.004962 1_454
Nb0 O3 2.011301 1_554
Nb0 O10 2.011301 1_455
Nb0 O7 2.013953 1_555
Nb0 O5 2.013953 1_454
Nb1 O5 1.998299 1_554
Nb1 O7 1.998299 1_555
Nb1 O9 2.004832 1_554
Nb1 O4 2.004832 1_555
Nb1 O2 2.013463 1_554
Nb1 O12 2.013463 1_555
Nb2 O6 2.009480 1_555
Nb2 O8 2.009480 1_545
Nb2 O4 2.016366 1_555
Nb2 O9 2.016366 1_545
Nb2 O23 2.022271 1_555
Nb2 O14 2.022271 1_545
Nb3 O19 2.009480 1_544
Nb3 O17 2.009480 1_555
Nb3 O16 2.016366 1_554
Nb3 O21 2.016366 1_545
Nb3 O12 2.022271 1_555
Nb3 O2 2.022271 1_544
Nb4 O13 2.004962 1_455
Nb4 O1 2.004962 1_555
Nb4 O15 2.011301 1_455
Nb4 O22 2.011301 1_555
Nb4 O18 2.013953 1_555
Nb4 O20 2.013953 1_455
Nb5 O20 1.998299 1_555
Nb5 O18 1.998299 1_555
Nb5 O21 2.004832 1_555
Nb5 O16 2.004832 1_555
Nb5 O14 2.013463 1_555
Nb5 O23 2.013463 1_555
O0 Ti1 1.977420 1_565
O0 Sr0 2.909539 1_464
O1 Ti0 1.977420 1_555
O1 Sr0 2.909539 1_455
O2 Sr0 2.691963 1_565
O3 Ti0 1.979696 1_565
O3 Sr0 2.621943 1_465
O4 Sr1 3.120852 1_555
O5 Sr0 2.706982 1_565
O6 Ti0 2.002212 1_655
O6 Sr0 2.704422 1_555
O7 Sr1 2.706982 1_555
O8 Ti0 2.002212 1_565
O8 Sr1 2.704422 1_565
O9 Sr0 3.120852 1_565
O10 Ti0 1.979696 1_655
O10 Sr1 2.621943 1_655
O11 Ti1 1.977420 1_656
O11 Sr1 2.909539 1_656
O12 Sr1 2.691963 1_555
O13 Ti0 1.977420 1_665
O13 Sr1 2.909539 1_665
O14 Sr1 2.691963 1_565
O15 Ti1 1.979696 1_665
O15 Sr1 2.621943 1_665
O16 Sr0 3.120852 1_555
O17 Ti1 2.002212 1_555
O17 Sr1 2.704422 1_555
O18 Sr1 2.706982 1_565
O19 Ti1 2.002212 1_666
O19 Sr0 2.704422 1_565
O20 Sr0 2.706982 1_555
O21 Sr1 3.120852 1_565
O22 Ti1 1.979696 1_556
O22 Sr0 2.621943 1_455
O23 Sr0 2.691963 1_555
