# generated using pymatgen
data_Ce4Si4N7ClO3
_symmetry_space_group_name_H-M   'P 1'
_cell_length_a   9.79124900
_cell_length_b   10.50679100
_cell_length_c   10.86901000
_cell_angle_alpha   90.00000000
_cell_angle_beta   90.00000000
_cell_angle_gamma   90.00000000
_symmetry_Int_Tables_number   1
_chemical_formula_structural   Ce4Si4N7ClO3
_chemical_formula_sum   'Ce16 Si16 N28 Cl4 O12'
_cell_volume   1118.14513084
_cell_formula_units_Z   4
loop_
 _symmetry_equiv_pos_site_id
 _symmetry_equiv_pos_as_xyz
  1  'x, y, z'
loop_
 _atom_site_type_symbol
 _atom_site_label
 _atom_site_symmetry_multiplicity
 _atom_site_fract_x
 _atom_site_fract_y
 _atom_site_fract_z
 _atom_site_occupancy
  Ce  Ce0  1  0.06437400  0.19578600  0.67074700  1
  Ce  Ce1  1  0.09486000  0.54955900  0.42046000  1
  Ce  Ce2  1  0.15771000  0.68338700  0.06267000  1
  Ce  Ce3  1  0.21785600  0.96701600  0.30284600  1
  Ce  Ce4  1  0.28214400  0.46701600  0.69715400  1
  Ce  Ce5  1  0.34229000  0.18338700  0.93733000  1
  Ce  Ce6  1  0.40514000  0.04955900  0.57954000  1
  Ce  Ce7  1  0.43562600  0.69578600  0.32925300  1
  Ce  Ce8  1  0.56437400  0.80421400  0.82925300  1
  Ce  Ce9  1  0.59486000  0.45044100  0.07954000  1
  Ce  Ce10  1  0.65771000  0.31661300  0.43733000  1
  Ce  Ce11  1  0.71785600  0.03298400  0.19715400  1
  Ce  Ce12  1  0.78214400  0.53298400  0.80284600  1
  Ce  Ce13  1  0.84229000  0.81661300  0.56267000  1
  Ce  Ce14  1  0.90514000  0.95044100  0.92046000  1
  Ce  Ce15  1  0.93562600  0.30421400  0.17074700  1
  Si  Si0  1  0.05886600  0.70612400  0.77292200  1
  Si  Si1  1  0.05147600  0.42469800  0.92521700  1
  Si  Si2  1  0.21232800  0.26383500  0.41346300  1
  Si  Si3  1  0.23986100  0.41220600  0.17472900  1
  Si  Si4  1  0.26013900  0.91220600  0.82527100  1
  Si  Si5  1  0.28767200  0.76383500  0.58653700  1
  Si  Si6  1  0.44852400  0.92469800  0.07478300  1
  Si  Si7  1  0.44113400  0.20612400  0.22707800  1
  Si  Si8  1  0.55886600  0.29387600  0.72707800  1
  Si  Si9  1  0.55147600  0.57530200  0.57478300  1
  Si  Si10  1  0.71232800  0.73616500  0.08653700  1
  Si  Si11  1  0.73986100  0.58779400  0.32527100  1
  Si  Si12  1  0.76013900  0.08779400  0.67472900  1
  Si  Si13  1  0.78767200  0.23616500  0.91346300  1
  Si  Si14  1  0.94852400  0.07530200  0.42521700  1
  Si  Si15  1  0.94113400  0.79387600  0.27292200  1
  N  N0  1  0.04828200  0.56099400  0.84100000  1
  N  N1  1  0.12451000  0.69835400  0.62445500  1
  N  N2  1  0.11456500  0.45284100  0.07006600  1
  N  N3  1  0.12995400  0.81522700  0.87753900  1
  N  N4  1  0.11578700  0.12774600  0.44703900  1
  N  N5  1  0.14224900  0.35403900  0.29471800  1
  N  N6  1  0.19881400  0.36067300  0.54086600  1
  N  N7  1  0.30118600  0.86067300  0.45913400  1
  N  N8  1  0.35775100  0.85403900  0.70528200  1
  N  N9  1  0.38421300  0.62774600  0.55296100  1
  N  N10  1  0.37004600  0.31522700  0.12246100  1
  N  N11  1  0.38543500  0.95284100  0.92993400  1
  N  N12  1  0.37549000  0.19835400  0.37554500  1
  N  N13  1  0.45171800  0.06099400  0.15900000  1
  N  N14  1  0.54828200  0.43900600  0.65900000  1
  N  N15  1  0.62451000  0.30164600  0.87554500  1
  N  N16  1  0.61456500  0.54715900  0.42993400  1
  N  N17  1  0.62995400  0.18477300  0.62246100  1
  N  N18  1  0.61578700  0.87225400  0.05296100  1
  N  N19  1  0.64224900  0.64596100  0.20528200  1
  N  N20  1  0.69881400  0.63932700  0.95913400  1
  N  N21  1  0.80118600  0.13932700  0.04086600  1
  N  N22  1  0.85775100  0.14596100  0.79471800  1
  N  N23  1  0.88421300  0.37225400  0.94703900  1
  N  N24  1  0.87004600  0.68477300  0.37753900  1
  N  N25  1  0.88543500  0.04715900  0.57006600  1
  N  N26  1  0.87549000  0.80164600  0.12445500  1
  N  N27  1  0.95171800  0.93900600  0.34100000  1
  Cl  Cl0  1  0.11093100  0.08662900  0.07634200  1
  Cl  Cl1  1  0.38907000  0.58662900  0.92365800  1
  Cl  Cl2  1  0.61093100  0.91337100  0.42365800  1
  Cl  Cl3  1  0.88906900  0.41337100  0.57634200  1
  O  O0  1  0.10493000  0.74224400  0.26300700  1
  O  O1  1  0.15221800  0.32233100  0.84804400  1
  O  O2  1  0.19438600  0.05061500  0.77924900  1
  O  O3  1  0.30561400  0.55061500  0.22075100  1
  O  O4  1  0.34778200  0.82233100  0.15195600  1
  O  O5  1  0.39507000  0.24224400  0.73699300  1
  O  O6  1  0.60493000  0.25775600  0.23699300  1
  O  O7  1  0.65221800  0.67766900  0.65195600  1
  O  O8  1  0.69438600  0.94938500  0.72075100  1
  O  O9  1  0.80561400  0.44938500  0.27924900  1
  O  O10  1  0.84778200  0.17766900  0.34804400  1
  O  O11  1  0.89507000  0.75775600  0.76300700  1
loop_
_geom_bond_atom_site_label_1
_geom_bond_atom_site_label_2
_geom_bond_distance
_geom_bond_site_symmetry_2
Ce0 O2 2.310353 1_555
Ce0 N22 2.486479 1_455
Ce0 O1 2.494205 1_555
Ce0 N4 2.583908 1_555
Ce0 N25 2.589537 1_455
Ce0 N6 2.593627 1_555
Ce0 Cl3 3.037338 1_455
Ce1 N5 2.510625 1_555
Ce1 N6 2.585973 1_555
Ce1 O0 2.652748 1_555
Ce1 N24 2.661061 1_455
Ce1 N1 2.728452 1_555
Ce1 O3 2.994998 1_555
Ce1 Cl3 2.996347 1_455
Ce2 O0 2.321817 1_555
Ce2 N3 2.457965 1_554
Ce2 N2 2.460173 1_555
Ce2 O4 2.556644 1_555
Ce2 O3 2.644879 1_555
Ce2 Cl1 2.906544 1_554
Ce2 N0 2.933692 1_554
Ce2 N26 3.103318 1_455
Ce3 N7 2.190817 1_555
Ce3 N4 2.511352 1_565
Ce3 O4 2.572732 1_555
Ce3 O0 2.643359 1_555
Ce3 N27 2.654976 1_455
Ce3 N13 2.943226 1_565
Ce3 Cl0 2.955724 1_565
Ce3 N12 2.985710 1_565
Ce4 N6 2.190817 1_555
Ce4 N9 2.511352 1_555
Ce4 O1 2.572732 1_555
Ce4 O5 2.643359 1_555
Ce4 N14 2.654976 1_555
Ce4 N0 2.943226 1_555
Ce4 Cl1 2.955727 1_555
Ce4 N1 2.985710 1_555
Ce5 O5 2.321817 1_555
Ce5 N10 2.457965 1_556
Ce5 N11 2.460173 1_545
Ce5 O1 2.556644 1_555
Ce5 O2 2.644879 1_555
Ce5 Cl0 2.906536 1_556
Ce5 N13 2.933692 1_556
Ce5 N15 3.103318 1_555
Ce6 N8 2.510625 1_545
Ce6 N7 2.585973 1_545
Ce6 O5 2.652748 1_555
Ce6 N17 2.661061 1_555
Ce6 N12 2.728452 1_555
Ce6 O2 2.994998 1_555
Ce6 Cl2 2.996347 1_545
Ce7 O3 2.310353 1_555
Ce7 N19 2.486479 1_555
Ce7 O4 2.494205 1_555
Ce7 N9 2.583908 1_555
Ce7 N16 2.589537 1_555
Ce7 N7 2.593627 1_555
Ce7 Cl2 3.037338 1_555
Ce8 O8 2.310353 1_555
Ce8 N8 2.486479 1_555
Ce8 O7 2.494205 1_555
Ce8 N18 2.583908 1_556
Ce8 N11 2.589537 1_555
Ce8 N20 2.593627 1_555
Ce8 Cl1 3.037332 1_555
Ce9 N19 2.510625 1_555
Ce9 N20 2.585973 1_554
Ce9 O6 2.652748 1_555
Ce9 N10 2.661061 1_555
Ce9 N15 2.728452 1_554
Ce9 O9 2.994998 1_555
Ce9 Cl1 2.996340 1_554
Ce10 O6 2.321817 1_555
Ce10 N17 2.457965 1_555
Ce10 N16 2.460173 1_555
Ce10 O10 2.556644 1_555
Ce10 O9 2.644879 1_555
Ce10 Cl3 2.906536 1_555
Ce10 N14 2.933692 1_555
Ce10 N12 3.103318 1_555
Ce11 N21 2.190817 1_555
Ce11 N18 2.511352 1_545
Ce11 O10 2.572732 1_555
Ce11 O6 2.643359 1_555
Ce11 N13 2.654976 1_555
Ce11 N27 2.943226 1_545
Ce11 Cl2 2.955724 1_545
Ce11 N26 2.985710 1_545
Ce12 N20 2.190817 1_555
Ce12 N23 2.511352 1_555
Ce12 O7 2.572732 1_555
Ce12 O11 2.643359 1_555
Ce12 N0 2.654976 1_655
Ce12 N14 2.943226 1_555
Ce12 Cl3 2.955724 1_555
Ce12 N15 2.985710 1_555
Ce13 O11 2.321817 1_555
Ce13 N24 2.457965 1_555
Ce13 N25 2.460173 1_565
Ce13 O7 2.556644 1_555
Ce13 O8 2.644879 1_555
Ce13 Cl2 2.906536 1_555
Ce13 N27 2.933692 1_555
Ce13 N1 3.103318 1_655
Ce14 N22 2.510625 1_565
Ce14 N21 2.585973 1_566
Ce14 O11 2.652748 1_555
Ce14 N3 2.661061 1_655
Ce14 N26 2.728452 1_556
Ce14 O8 2.994998 1_555
Ce14 Cl0 2.996347 1_666
Ce15 O9 2.310353 1_555
Ce15 N5 2.486479 1_655
Ce15 O10 2.494205 1_555
Ce15 N23 2.583908 1_554
Ce15 N2 2.589537 1_655
Ce15 N21 2.593627 1_555
Ce15 Cl0 3.037338 1_655
N0 Si0 1.698064 1_555
N0 Si1 1.699875 1_555
N1 Si0 1.738899 1_555
N1 Si5 1.787564 1_555
N2 Si1 1.716869 1_554
N2 Si3 1.726680 1_555
N3 Si4 1.727937 1_555
N3 Si0 1.758262 1_555
N4 Si14 1.744128 1_455
N4 Si2 1.752480 1_555
N5 Si3 1.728521 1_555
N5 Si2 1.742070 1_555
N6 Si2 1.723439 1_555
N7 Si5 1.723439 1_555
N8 Si4 1.728521 1_555
N8 Si5 1.742070 1_555
N9 Si9 1.744128 1_555
N9 Si5 1.752480 1_555
N10 Si3 1.727937 1_555
N10 Si7 1.758262 1_555
N11 Si6 1.716869 1_556
N11 Si4 1.726680 1_555
N12 Si7 1.738899 1_555
N12 Si2 1.787564 1_555
N13 Si7 1.698064 1_555
N13 Si6 1.699875 1_545
N14 Si8 1.698064 1_555
N14 Si9 1.699875 1_555
N15 Si8 1.738899 1_555
N15 Si13 1.787564 1_555
N16 Si9 1.716869 1_555
N16 Si11 1.726680 1_555
N17 Si12 1.727937 1_555
N17 Si8 1.758262 1_555
N18 Si6 1.744128 1_555
N18 Si10 1.752480 1_555
N19 Si11 1.728521 1_555
N19 Si10 1.742070 1_555
N20 Si10 1.723439 1_556
N21 Si13 1.723439 1_554
N22 Si12 1.728521 1_555
N22 Si13 1.742070 1_555
N23 Si1 1.744128 1_655
N23 Si13 1.752480 1_555
N24 Si11 1.727937 1_555
N24 Si15 1.758262 1_555
N25 Si14 1.716869 1_555
N25 Si12 1.726680 1_555
N26 Si15 1.738899 1_555
N26 Si10 1.787564 1_555
N27 Si15 1.698064 1_555
N27 Si14 1.699875 1_565
O0 Si15 1.696460 1_455
O1 Si1 1.683255 1_555
O2 Si4 1.667182 1_545
O3 Si3 1.667182 1_555
O4 Si6 1.683255 1_555
O5 Si8 1.696460 1_555
O6 Si7 1.696460 1_555
O7 Si9 1.683255 1_555
O8 Si12 1.667182 1_565
O9 Si11 1.667182 1_555
O10 Si14 1.683255 1_555
O11 Si0 1.696460 1_655
