# generated using pymatgen
data_CoAg(CO)4
_symmetry_space_group_name_H-M   'P 1'
_cell_length_a   10.78647784
_cell_length_b   10.78647784
_cell_length_c   6.40419909
_cell_angle_alpha   86.80000099
_cell_angle_beta   86.80000099
_cell_angle_gamma   112.53003606
_symmetry_Int_Tables_number   1
_chemical_formula_structural   CoAg(CO)4
_chemical_formula_sum   'Co4 Ag4 C16 O16'
_cell_volume   684.76260241
_cell_formula_units_Z   4
loop_
 _symmetry_equiv_pos_site_id
 _symmetry_equiv_pos_as_xyz
  1  'x, y, z'
loop_
 _atom_site_type_symbol
 _atom_site_label
 _atom_site_symmetry_multiplicity
 _atom_site_fract_x
 _atom_site_fract_y
 _atom_site_fract_z
 _atom_site_occupancy
  Co  Co0  1  0.29686900  0.70313100  0.50000000  1
  Co  Co1  1  0.22896200  0.22896200  0.28151300  1
  Co  Co2  1  0.70313100  0.29686900  0.50000000  1
  Co  Co3  1  0.77103800  0.77103800  0.71848700  1
  Ag  Ag0  1  0.69600100  0.52744700  0.59446300  1
  Ag  Ag1  1  0.47255300  0.30399900  0.40553700  1
  Ag  Ag2  1  0.30399900  0.47255300  0.40553700  1
  Ag  Ag3  1  0.52744700  0.69600100  0.59446300  1
  C  C0  1  0.19871200  0.19871200  0.55982000  1
  C  C1  1  0.59834900  0.25238100  0.73968800  1
  C  C2  1  0.66128400  0.66128400  0.92779800  1
  C  C3  1  0.74761900  0.40165100  0.26031200  1
  C  C4  1  0.33871600  0.33871600  0.07220200  1
  C  C5  1  0.92768700  0.77015600  0.78944500  1
  C  C6  1  0.13686700  0.66304400  0.40125300  1
  C  C7  1  0.66304400  0.13686700  0.40125300  1
  C  C8  1  0.77015600  0.92768700  0.78944500  1
  C  C9  1  0.25238100  0.59834900  0.73968800  1
  C  C10  1  0.33695600  0.86313300  0.59874700  1
  C  C11  1  0.40165100  0.74761900  0.26031200  1
  C  C12  1  0.07231300  0.22984400  0.21055500  1
  C  C13  1  0.22984400  0.07231300  0.21055500  1
  C  C14  1  0.86313300  0.33695600  0.59874700  1
  C  C15  1  0.80128800  0.80128800  0.44018000  1
  O  O0  1  0.21159100  0.53988000  0.90369200  1
  O  O1  1  0.39650100  0.39650100  0.91396700  1
  O  O2  1  0.03430100  0.64248400  0.33340100  1
  O  O3  1  0.22802600  0.97045400  0.15915400  1
  O  O4  1  0.64248400  0.03430100  0.33340100  1
  O  O5  1  0.83460200  0.83460200  0.26286000  1
  O  O6  1  0.16539800  0.16539800  0.73714000  1
  O  O7  1  0.78840900  0.46012000  0.09630800  1
  O  O8  1  0.97045400  0.22802600  0.15915400  1
  O  O9  1  0.77197400  0.02954600  0.84084600  1
  O  O10  1  0.60349900  0.60349900  0.08603300  1
  O  O11  1  0.35751600  0.96569900  0.66659900  1
  O  O12  1  0.53988000  0.21159100  0.90369200  1
  O  O13  1  0.02954600  0.77197400  0.84084600  1
  O  O14  1  0.96569900  0.35751600  0.66659900  1
  O  O15  1  0.46012000  0.78840900  0.09630800  1
loop_
_geom_bond_atom_site_label_1
_geom_bond_atom_site_label_2
_geom_bond_distance
_geom_bond_site_symmetry_2
Ag0 Co3 2.620060 1_555
Ag0 Co2 2.620505 1_555
Ag0 C2 2.729564 1_555
Ag0 C3 2.738750 1_555
Ag0 C1 2.822257 1_555
Ag0 C15 2.822947 1_555
Ag0 Ag3 3.023926 1_555
Ag0 Ag1 3.046569 1_555
Ag1 Co1 2.620060 1_555
Ag1 Co2 2.620505 1_555
Ag1 C4 2.729564 1_555
Ag1 C1 2.738750 1_555
Ag1 C3 2.822257 1_555
Ag1 C0 2.822947 1_555
Ag1 Ag2 3.023926 1_555
Ag2 Co1 2.620060 1_555
Ag2 Co0 2.620505 1_555
Ag2 C4 2.729564 1_555
Ag2 C9 2.738750 1_555
Ag2 C11 2.822257 1_555
Ag2 C0 2.822947 1_555
Ag2 Ag3 3.046569 1_555
Ag3 Co3 2.620060 1_555
Ag3 Co0 2.620505 1_555
Ag3 C2 2.729564 1_555
Ag3 C11 2.738750 1_555
Ag3 C9 2.822257 1_555
Ag3 C15 2.822947 1_555
C0 O6 1.165227 1_555
C0 Co1 1.782751 1_555
C1 O12 1.164604 1_555
C1 Co2 1.781120 1_555
C2 O10 1.168400 1_556
C2 Co3 1.780878 1_555
C3 O7 1.164604 1_555
C3 Co2 1.781120 1_555
C4 O1 1.168400 1_554
C4 Co1 1.780878 1_555
C5 O13 1.157789 1_655
C5 Co3 1.777417 1_555
C6 O2 1.156880 1_555
C6 Co0 1.773689 1_555
C7 O4 1.156880 1_555
C7 Co2 1.773689 1_555
C8 O9 1.157789 1_565
C8 Co3 1.777417 1_555
C9 O0 1.164604 1_555
C9 Co0 1.781120 1_555
C10 O11 1.156880 1_555
C10 Co0 1.773689 1_555
C11 O15 1.164604 1_555
C11 Co0 1.781120 1_555
C12 O8 1.157789 1_455
C12 Co1 1.777417 1_555
C13 O3 1.157789 1_545
C13 Co1 1.777417 1_555
C14 O14 1.156880 1_555
C14 Co2 1.773689 1_555
C15 O5 1.165227 1_555
C15 Co3 1.782751 1_555
