# generated using pymatgen
data_KLaCO4
_symmetry_space_group_name_H-M   'P 1'
_cell_length_a   5.92842300
_cell_length_b   5.95890900
_cell_length_c   16.66513300
_cell_angle_alpha   90.00000000
_cell_angle_beta   90.00000000
_cell_angle_gamma   90.00000000
_symmetry_Int_Tables_number   1
_chemical_formula_structural   KLaCO4
_chemical_formula_sum   'K4 La4 C4 O16'
_cell_volume   588.72803977
_cell_formula_units_Z   4
loop_
 _symmetry_equiv_pos_site_id
 _symmetry_equiv_pos_as_xyz
  1  'x, y, z'
loop_
 _atom_site_type_symbol
 _atom_site_label
 _atom_site_symmetry_multiplicity
 _atom_site_fract_x
 _atom_site_fract_y
 _atom_site_fract_z
 _atom_site_occupancy
  K  K0  1  0.75000000  0.50000000  0.42360500  1
  K  K1  1  0.25000000  0.50000000  0.57639500  1
  K  K2  1  0.75000000  0.00000000  0.57639500  1
  K  K3  1  0.25000000  0.00000000  0.42360500  1
  La  La0  1  0.25000000  0.50000000  0.92775300  1
  La  La1  1  0.75000000  0.50000000  0.07224700  1
  La  La2  1  0.75000000  0.00000000  0.92775300  1
  La  La3  1  0.25000000  0.00000000  0.07224700  1
  C  C0  1  0.75000000  0.50000000  0.23685500  1
  C  C1  1  0.25000000  0.50000000  0.76314500  1
  C  C2  1  0.25000000  0.00000000  0.23685500  1
  C  C3  1  0.75000000  0.00000000  0.76314500  1
  O  O0  1  0.25000000  0.00000000  0.57690800  1
  O  O1  1  0.75000000  0.00000000  0.42309200  1
  O  O2  1  0.38965000  0.87528500  0.20454000  1
  O  O3  1  0.61035000  0.37528500  0.20454000  1
  O  O4  1  0.38965000  0.62471500  0.79546000  1
  O  O5  1  0.11035000  0.12471500  0.20454000  1
  O  O6  1  0.50972400  0.75000000  0.00000000  1
  O  O7  1  0.00972400  0.75000000  0.00000000  1
  O  O8  1  0.61035000  0.12471500  0.79546000  1
  O  O9  1  0.88965000  0.87528500  0.79546000  1
  O  O10  1  0.25000000  0.50000000  0.42309200  1
  O  O11  1  0.99027600  0.25000000  0.00000000  1
  O  O12  1  0.75000000  0.50000000  0.57690800  1
  O  O13  1  0.11035000  0.37528500  0.79546000  1
  O  O14  1  0.49027600  0.25000000  0.00000000  1
  O  O15  1  0.88965000  0.62471500  0.20454000  1
loop_
_geom_bond_atom_site_label_1
_geom_bond_atom_site_label_2
_geom_bond_distance
_geom_bond_site_symmetry_2
K0 O12 2.554815 1_555
K0 O10 2.964224 1_555
K0 O10 2.964224 1_655
K0 O1 2.979467 1_565
K0 O1 2.979467 1_555
K1 O10 2.554815 1_555
K1 O12 2.964224 1_555
K1 O12 2.964224 1_455
K1 O0 2.979467 1_555
K1 O0 2.979467 1_565
K2 O1 2.554815 1_555
K2 O0 2.964224 1_555
K2 O0 2.964224 1_655
K2 O12 2.979467 1_545
K2 O12 2.979467 1_555
K3 O0 2.554815 1_555
K3 O1 2.964224 1_455
K3 O1 2.964224 1_555
K3 O10 2.979467 1_545
K3 O10 2.979467 1_555
La0 O14 2.387048 1_556
La0 O7 2.387048 1_556
La0 O6 2.457592 1_556
La0 O11 2.457592 1_456
La0 O13 2.469481 1_555
La0 O4 2.469481 1_555
La1 O11 2.387048 1_555
La1 O6 2.387048 1_555
La1 O14 2.457592 1_555
La1 O7 2.457592 1_655
La1 O3 2.469481 1_555
La1 O15 2.469481 1_555
La2 O11 2.387048 1_556
La2 O6 2.387048 1_546
La2 O14 2.457592 1_556
La2 O7 2.457592 1_646
La2 O8 2.469481 1_555
La2 O9 2.469481 1_545
La3 O14 2.387048 1_555
La3 O7 2.387048 1_545
La3 O6 2.457592 1_545
La3 O11 2.457592 1_455
La3 O5 2.469481 1_555
La3 O2 2.469481 1_545
C0 O3 1.236017 1_555
C0 O15 1.236017 1_555
C0 K0 3.112214 1_555
C1 O13 1.236017 1_555
C1 O4 1.236017 1_555
C1 K1 3.112214 1_555
C2 O5 1.236017 1_555
C2 O2 1.236017 1_545
C2 K3 3.112214 1_555
C3 O8 1.236017 1_555
C3 O9 1.236017 1_545
C3 K2 3.112214 1_555
