# generated using pymatgen
data_FeCO3
_symmetry_space_group_name_H-M   'P 1'
_cell_length_a   6.14232390
_cell_length_b   5.11757162
_cell_length_c   5.11757150
_cell_angle_alpha   60.39162784
_cell_angle_beta   60.10378540
_cell_angle_gamma   60.10378108
_symmetry_Int_Tables_number   1
_chemical_formula_structural   FeCO3
_chemical_formula_sum   'Fe2 C2 O6'
_cell_volume   114.26100286
_cell_formula_units_Z   2
loop_
 _symmetry_equiv_pos_site_id
 _symmetry_equiv_pos_as_xyz
  1  'x, y, z'
loop_
 _atom_site_type_symbol
 _atom_site_label
 _atom_site_symmetry_multiplicity
 _atom_site_fract_x
 _atom_site_fract_y
 _atom_site_fract_z
 _atom_site_occupancy
  Fe  Fe0  1  0.87565400  0.20882400  0.95669500  1
  Fe  Fe1  1  0.37565400  0.45669500  0.70882400  1
  C  C0  1  0.30608300  0.14574700  0.14737100  1
  C  C1  1  0.80608300  0.64737100  0.64574700  1
  O  O0  1  0.75288500  0.12076800  0.67668800  1
  O  O1  1  0.24806400  0.85321300  0.83324100  1
  O  O2  1  0.82031400  0.77970200  0.37775100  1
  O  O3  1  0.25288500  0.17668800  0.62076800  1
  O  O4  1  0.74806400  0.33324100  0.35321300  1
  O  O5  1  0.32031400  0.87775100  0.27970200  1
loop_
_geom_bond_atom_site_label_1
_geom_bond_atom_site_label_2
_geom_bond_distance
_geom_bond_site_symmetry_2
Fe0 O3 2.068803 1_655
Fe0 O4 2.081166 1_556
Fe0 O1 2.118777 1_645
Fe0 O0 2.208866 1_555
Fe0 O2 2.217974 1_546
Fe1 O0 2.068803 1_555
Fe1 O1 2.081166 1_555
Fe1 O4 2.118777 1_555
Fe1 O3 2.208866 1_555
Fe1 O5 2.217974 1_555
C0 O5 1.170030 1_545
C0 Fe1 1.986090 1_554
C1 O2 1.170030 1_555
C1 Fe0 1.986090 1_555
O0 O4 1.470269 1_555
O1 O3 1.470269 1_565
