# generated using pymatgen
data_Nb2Tl4Se11
_symmetry_space_group_name_H-M   'P 1'
_cell_length_a   8.12386839
_cell_length_b   9.30079942
_cell_length_c   13.96234139
_cell_angle_alpha   107.33602027
_cell_angle_beta   89.34032281
_cell_angle_gamma   94.10545372
_symmetry_Int_Tables_number   1
_chemical_formula_structural   Nb2Tl4Se11
_chemical_formula_sum   'Nb4 Tl8 Se22'
_cell_volume   1004.41205196
_cell_formula_units_Z   2
loop_
 _symmetry_equiv_pos_site_id
 _symmetry_equiv_pos_as_xyz
  1  'x, y, z'
loop_
 _atom_site_type_symbol
 _atom_site_label
 _atom_site_symmetry_multiplicity
 _atom_site_fract_x
 _atom_site_fract_y
 _atom_site_fract_z
 _atom_site_occupancy
  Nb  Nb0  1  0.12193526  0.63280389  0.30366061  1
  Nb  Nb1  1  0.87806474  0.36719611  0.69633939  1
  Nb  Nb2  1  0.33640062  0.89224134  0.18803216  1
  Nb  Nb3  1  0.66359938  0.10775866  0.81196784  1
  Tl  Tl0  1  0.50640801  0.72336237  0.88804439  1
  Tl  Tl1  1  0.76284443  0.41561868  0.41855719  1
  Tl  Tl2  1  0.78814304  0.97777325  0.42585297  1
  Tl  Tl3  1  0.21185696  0.02222675  0.57414703  1
  Tl  Tl4  1  0.49359199  0.27663763  0.11195561  1
  Tl  Tl5  1  0.23715557  0.58438132  0.58144281  1
  Tl  Tl6  1  0.05260884  0.23928675  0.98212181  1
  Tl  Tl7  1  0.94739116  0.76071325  0.01787819  1
  Se  Se0  1  0.05273407  0.34221211  0.24797492  1
  Se  Se1  1  0.59842497  0.07939936  0.24932404  1
  Se  Se2  1  0.39131662  0.81748019  0.37245466  1
  Se  Se3  1  0.54482136  0.69073814  0.11818055  1
  Se  Se4  1  0.34765724  0.14235840  0.33401197  1
  Se  Se5  1  0.45517864  0.30926186  0.88181945  1
  Se  Se6  1  0.26533942  0.59859167  0.10934565  1
  Se  Se7  1  0.60023728  0.44428270  0.64827884  1
  Se  Se8  1  0.27033268  0.96302141  0.03927169  1
  Se  Se9  1  0.11926141  0.51031425  0.81536799  1
  Se  Se10  1  0.02893512  0.86775282  0.24883915  1
  Se  Se11  1  0.97106488  0.13224718  0.75116085  1
  Se  Se12  1  0.73466058  0.40140833  0.89065435  1
  Se  Se13  1  0.72966732  0.03697859  0.96072831  1
  Se  Se14  1  0.94726593  0.65778789  0.75202508  1
  Se  Se15  1  0.40157503  0.92060064  0.75067596  1
  Se  Se16  1  0.60868338  0.18251981  0.62754534  1
  Se  Se17  1  0.65234276  0.85764160  0.66598803  1
  Se  Se18  1  0.39976272  0.55571730  0.35172116  1
  Se  Se19  1  0.88073859  0.48968575  0.18463201  1
  Se  Se20  1  0.98183023  0.71072668  0.46608945  1
  Se  Se21  1  0.01816977  0.28927332  0.53391055  1
loop_
_geom_bond_atom_site_label_1
_geom_bond_atom_site_label_2
_geom_bond_distance
_geom_bond_site_symmetry_2
Nb0 Se20 2.458292 1_455
Nb0 Se18 2.571348 1_555
Nb0 Se19 2.599315 1_455
Nb0 Se0 2.601062 1_555
Nb0 Se10 2.679250 1_555
Nb0 Se2 2.681236 1_555
Nb0 Se6 2.878393 1_555
Nb1 Se21 2.458292 1_655
Nb1 Se7 2.571348 1_555
Nb1 Se9 2.599315 1_655
Nb1 Se14 2.601062 1_555
Nb1 Se11 2.679250 1_555
Nb1 Se16 2.681236 1_555
Nb1 Se12 2.878393 1_555
Nb2 Se8 2.434480 1_555
Nb2 Se3 2.580214 1_555
Nb2 Se4 2.592771 1_565
Nb2 Se1 2.630064 1_565
Nb2 Se10 2.645126 1_555
Nb2 Se6 2.645800 1_555
Nb2 Se2 2.907043 1_555
Nb3 Se13 2.434480 1_555
Nb3 Se5 2.580214 1_555
Nb3 Se17 2.592771 1_545
Nb3 Se15 2.630064 1_545
Nb3 Se11 2.645126 1_555
Nb3 Se12 2.645800 1_555
Nb3 Se16 2.907043 1_555
Se0 Se19 2.375228 1_455
Se0 Tl1 3.288905 1_455
Se1 Se4 2.365156 1_555
Se1 Tl4 3.182362 1_555
Se1 Tl2 3.320892 1_545
Se2 Tl3 3.284716 1_565
Se3 Se6 2.360001 1_555
Se3 Tl0 3.336474 1_554
Se5 Tl4 3.336474 1_556
Se7 Tl1 3.398106 1_555
Se8 Tl7 3.080412 1_455
Se8 Tl4 3.216904 1_565
Se8 Tl0 3.289229 1_554
Se10 Tl2 3.106479 1_455
Se10 Tl7 3.141740 1_455
Se11 Tl3 3.106479 1_655
Se11 Tl6 3.141740 1_655
Se12 Se5 2.360001 1_555
Se13 Tl6 3.080412 1_655
Se13 Tl0 3.216904 1_545
Se13 Tl4 3.289229 1_556
Se14 Se9 2.375228 1_655
Se14 Tl5 3.288905 1_655
Se15 Se17 2.365156 1_555
Se15 Tl0 3.182362 1_555
Se15 Tl3 3.320892 1_565
Se16 Se7 2.370496 1_555
Se16 Tl2 3.284716 1_545
Se18 Se2 2.370496 1_555
Se18 Tl5 3.398106 1_555
Se20 Tl1 3.062905 1_555
Se20 Tl5 3.135476 1_655
Se20 Tl2 3.220557 1_555
Se20 Tl3 3.293459 1_665
Se21 Tl5 3.062905 1_555
Se21 Tl1 3.135476 1_455
Se21 Tl3 3.220557 1_555
Se21 Tl2 3.293459 1_445
