# generated using pymatgen
data_Li9Mn20O40
_symmetry_space_group_name_H-M   'P 1'
_cell_length_a   8.76458700
_cell_length_b   10.18147068
_cell_length_c   10.20042010
_cell_angle_alpha   79.32315383
_cell_angle_beta   64.56382752
_cell_angle_gamma   64.75100868
_symmetry_Int_Tables_number   1
_chemical_formula_structural   Li9Mn20O40
_chemical_formula_sum   'Li9 Mn20 O40'
_cell_volume   743.47773089
_cell_formula_units_Z   1
loop_
 _symmetry_equiv_pos_site_id
 _symmetry_equiv_pos_as_xyz
  1  'x, y, z'
loop_
 _atom_site_type_symbol
 _atom_site_label
 _atom_site_symmetry_multiplicity
 _atom_site_fract_x
 _atom_site_fract_y
 _atom_site_fract_z
 _atom_site_occupancy
  Li  Li0  1  0.42570900  0.84619000  0.55122700  1
  Li  Li1  1  0.81632300  0.64521500  0.95009900  1
  Li  Li2  1  0.21494700  0.45503200  0.34968700  1
  Li  Li3  1  0.97416900  0.95265900  0.85280400  1
  Li  Li4  1  0.62501700  0.25192300  0.74752600  1
  Li  Li5  1  0.37926300  0.75187100  0.25176600  1
  Li  Li6  1  0.78568400  0.54874700  0.64736400  1
  Li  Li7  1  0.17836400  0.35275600  0.05008900  1
  Li  Li8  1  0.57428800  0.15078100  0.44756400  1
  Mn  Mn0  1  0.50504800  0.00013300  0.99809600  1
  Mn  Mn1  1  0.69384200  0.89633300  0.20012500  1
  Mn  Mn2  1  0.89401400  0.80292700  0.39765700  1
  Mn  Mn3  1  0.70459500  0.89995100  0.69714200  1
  Mn  Mn4  1  0.00648200  0.99970900  0.50041800  1
  Mn  Mn5  1  0.09543600  0.69830000  0.59967300  1
  Mn  Mn6  1  0.29911800  0.60252800  0.79825200  1
  Mn  Mn7  1  0.09626200  0.70729100  0.09819400  1
  Mn  Mn8  1  0.41195500  0.79795800  0.89866200  1
  Mn  Mn9  1  0.49808400  0.50277500  0.99982500  1
  Mn  Mn10  1  0.69782100  0.39623700  0.20190900  1
  Mn  Mn11  1  0.79751700  0.59851900  0.29829600  1
  Mn  Mn12  1  0.49761400  0.49827900  0.49826800  1
  Mn  Mn13  1  0.90792200  0.30304800  0.39823300  1
  Mn  Mn14  1  0.10597300  0.19984000  0.60197600  1
  Mn  Mn15  1  0.19290000  0.40321600  0.70213800  1
  Mn  Mn16  1  0.89592700  0.29660600  0.90150600  1
  Mn  Mn17  1  0.30311500  0.10214600  0.80058400  1
  Mn  Mn18  1  0.30449800  0.10167700  0.30640400  1
  Mn  Mn19  1  0.58945700  0.20613800  0.10009600  1
  O  O0  1  0.46943300  0.90146800  0.71313400  1
  O  O1  1  0.29592600  0.99179100  0.98195400  1
  O  O2  1  0.63282000  0.81387500  0.89298200  1
  O  O3  1  0.45986300  0.91832600  0.19490000  1
  O  O4  1  0.83171400  0.70729500  0.11564200  1
  O  O5  1  0.65681500  0.79287700  0.37858600  1
  O  O6  1  0.91662800  0.88692400  0.20268500  1
  O  O7  1  0.01756600  0.61754000  0.29184600  1
  O  O8  1  0.75736900  0.98308300  0.50877800  1
  O  O9  1  0.86429700  0.71479800  0.59441500  1
  O  O10  1  0.13506200  0.80343100  0.41926400  1
  O  O11  1  0.93775900  0.89208600  0.68785200  1
  O  O12  1  0.22993000  0.50832100  0.51923500  1
  O  O13  1  0.05744900  0.59437300  0.78297500  1
  O  O14  1  0.32371400  0.68789200  0.60583600  1
  O  O15  1  0.41590300  0.41372800  0.69493700  1
  O  O16  1  0.18776800  0.79196100  0.90050400  1
  O  O17  1  0.26716100  0.52070300  0.99369500  1
  O  O18  1  0.54139500  0.60601500  0.81721000  1
  O  O19  1  0.36673100  0.69624900  0.07940800  1
  O  O20  1  0.62621900  0.30935000  0.92183000  1
  O  O21  1  0.45628500  0.39718700  0.18059300  1
  O  O22  1  0.72931800  0.48274900  0.00545100  1
  O  O23  1  0.80542700  0.21397300  0.09558900  1
  O  O24  1  0.57724900  0.58583000  0.30439200  1
  O  O25  1  0.64942300  0.31610400  0.39628400  1
  O  O26  1  0.93509200  0.40890800  0.21386400  1
  O  O27  1  0.75959400  0.49847400  0.48023700  1
  O  O28  1  0.07857700  0.10562100  0.31773700  1
  O  O29  1  0.16581400  0.28014000  0.40902800  1
  O  O30  1  0.88935900  0.19686400  0.58722000  1
  O  O31  1  0.25069300  0.01971600  0.49733500  1
  O  O32  1  0.97591100  0.38485700  0.70464100  1
  O  O33  1  0.04955900  0.11687200  0.79260700  1
  O  O34  1  0.32012400  0.20790700  0.61655900  1
  O  O35  1  0.15774400  0.29784600  0.88197000  1
  O  O36  1  0.56540500  0.07775600  0.80435500  1
  O  O37  1  0.37131800  0.18444600  0.10833200  1
  O  O38  1  0.71745900  0.00691600  0.01685600  1
  O  O39  1  0.54440400  0.09438300  0.28322800  1
loop_
_geom_bond_atom_site_label_1
_geom_bond_atom_site_label_2
_geom_bond_distance
_geom_bond_site_symmetry_2
Li0 O31 1.956799 1_565
Li0 O5 1.962336 1_555
Li0 O14 2.043463 1_555
Li0 O0 2.064755 1_555
Li1 O4 1.983177 1_556
Li1 O13 1.984774 1_655
Li1 O2 1.988225 1_555
Li1 O22 1.999165 1_556
Li2 O29 1.937382 1_555
Li2 O12 1.976415 1_555
Li2 O21 1.993918 1_555
Li2 O7 2.037560 1_555
Li3 O33 1.955129 1_665
Li3 O38 2.053215 1_566
Li3 O16 2.071927 1_655
Li3 O11 2.080119 1_555
Li4 O36 1.975565 1_555
Li4 O20 1.977299 1_555
Li4 O15 2.074157 1_555
Li4 O30 2.081632 1_555
Li5 O10 2.002059 1_555
Li5 O19 2.002910 1_555
Li5 O3 2.003198 1_555
Li5 O24 2.029416 1_555
Li6 O9 1.990091 1_555
Li6 O27 1.994631 1_555
Li6 O32 2.001899 1_555
Li6 O18 2.012123 1_555
Li7 O26 1.979409 1_455
Li7 O35 1.998428 1_554
Li7 O37 2.040355 1_555
Li7 O17 2.060774 1_554
Li8 O25 1.965712 1_555
Li8 O8 2.002077 1_545
Li8 O39 2.017528 1_555
Li8 O34 2.059069 1_555
Mn0 O36 1.920902 1_555
Mn0 O1 1.947039 1_545
Mn0 O3 1.964557 1_546
Mn0 O2 1.977431 1_545
Mn0 O38 1.981893 1_556
Mn0 O37 1.983193 1_556
Mn1 O5 1.897962 1_555
Mn1 O4 1.908712 1_555
Mn1 O6 1.925073 1_555
Mn1 O38 1.972750 1_565
Mn1 O39 1.981568 1_565
Mn1 O3 1.989017 1_555
Mn2 O8 1.952895 1_555
Mn2 O6 1.975285 1_555
Mn2 O7 1.976723 1_655
Mn2 O9 1.996022 1_555
Mn2 O5 2.215087 1_555
Mn2 O10 2.218491 1_655
Mn3 O8 1.894746 1_555
Mn3 O36 1.914413 1_565
Mn3 O9 1.957527 1_555
Mn3 O11 1.971926 1_555
Mn3 O2 1.973959 1_555
Mn3 O0 1.989958 1_555
Mn4 O10 1.959390 1_555
Mn4 O28 1.964615 1_565
Mn4 O30 1.996748 1_465
Mn4 O11 2.004101 1_455
Mn4 O31 2.221620 1_565
Mn4 O8 2.225547 1_455
Mn5 O12 1.901638 1_555
Mn5 O10 1.921226 1_555
Mn5 O13 1.938861 1_555
Mn5 O11 1.968599 1_455
Mn5 O9 1.983634 1_455
Mn5 O14 1.985682 1_555
Mn6 O14 1.954083 1_555
Mn6 O17 1.962380 1_555
Mn6 O15 1.999719 1_555
Mn6 O16 2.006351 1_555
Mn6 O13 2.226210 1_555
Mn6 O18 2.228750 1_555
Mn7 O6 1.945279 1_455
Mn7 O7 1.977671 1_555
Mn7 O17 1.984966 1_554
Mn7 O16 2.002292 1_554
Mn7 O4 2.247948 1_455
Mn7 O19 2.249283 1_555
Mn8 O19 1.908826 1_556
Mn8 O18 1.922771 1_555
Mn8 O1 1.953893 1_555
Mn8 O0 1.959804 1_555
Mn8 O16 1.983721 1_555
Mn8 O2 1.986130 1_555
Mn9 O20 1.923222 1_555
Mn9 O21 1.926429 1_556
Mn9 O19 1.928661 1_556
Mn9 O18 1.930361 1_555
Mn9 O22 1.973653 1_556
Mn9 O17 1.980630 1_555
Mn10 O25 1.936516 1_555
Mn10 O23 1.970622 1_555
Mn10 O22 1.986470 1_555
Mn10 O24 1.998561 1_555
Mn10 O26 2.192880 1_555
Mn10 O21 2.214962 1_555
Mn11 O27 1.910702 1_555
Mn11 O26 1.913301 1_555
Mn11 O5 1.938676 1_555
Mn11 O4 1.956173 1_555
Mn11 O24 1.963235 1_555
Mn11 O7 1.991582 1_655
Mn12 O25 1.927028 1_555
Mn12 O24 1.970935 1_555
Mn12 O15 1.982504 1_555
Mn12 O14 2.022888 1_555
Mn12 O12 2.221036 1_555
Mn12 O27 2.224208 1_555
Mn13 O27 1.955665 1_555
Mn13 O26 1.959178 1_555
Mn13 O28 1.985839 1_655
Mn13 O30 2.004961 1_555
Mn13 O29 2.220381 1_655
Mn13 O25 2.220802 1_555
Mn14 O33 1.913366 1_555
Mn14 O31 1.920761 1_555
Mn14 O29 1.923533 1_555
Mn14 O32 1.954026 1_455
Mn14 O30 1.980969 1_455
Mn14 O34 1.981836 1_555
Mn15 O13 1.913071 1_555
Mn15 O35 1.917825 1_555
Mn15 O12 1.941044 1_555
Mn15 O34 1.968525 1_555
Mn15 O15 1.972120 1_555
Mn15 O32 1.977953 1_455
Mn16 O33 1.939591 1_655
Mn16 O23 1.964570 1_556
Mn16 O22 1.975347 1_556
Mn16 O32 1.997699 1_555
Mn16 O35 2.221840 1_655
Mn16 O20 2.230487 1_555
Mn17 O35 1.954791 1_555
Mn17 O34 1.962892 1_555
Mn17 O1 1.969546 1_545
Mn17 O0 2.027994 1_545
Mn17 O33 2.198713 1_555
Mn17 O36 2.221110 1_555
Mn18 O29 1.898006 1_555
Mn18 O31 1.912163 1_555
Mn18 O28 1.916519 1_555
Mn18 O37 1.977106 1_555
Mn18 O3 1.980024 1_545
Mn18 O39 1.982156 1_555
Mn19 O20 1.895298 1_554
Mn19 O23 1.908981 1_555
Mn19 O21 1.910989 1_555
Mn19 O39 1.975394 1_555
Mn19 O37 1.981557 1_555
Mn19 O38 1.993095 1_555
