# generated using pymatgen
data_PrYSi2O7
_symmetry_space_group_name_H-M   'P 1'
_cell_length_a   9.04308300
_cell_length_b   6.49550600
_cell_length_c   12.61032060
_cell_angle_alpha   65.95574507
_cell_angle_beta   90.00000000
_cell_angle_gamma   90.00000000
_symmetry_Int_Tables_number   1
_chemical_formula_structural   PrYSi2O7
_chemical_formula_sum   'Pr4 Y4 Si8 O28'
_cell_volume   676.45091763
_cell_formula_units_Z   4
loop_
 _symmetry_equiv_pos_site_id
 _symmetry_equiv_pos_as_xyz
  1  'x, y, z'
loop_
 _atom_site_type_symbol
 _atom_site_label
 _atom_site_symmetry_multiplicity
 _atom_site_fract_x
 _atom_site_fract_y
 _atom_site_fract_z
 _atom_site_occupancy
  Pr  Pr0  1  0.64347300  0.50652000  0.70969500  1
  Pr  Pr1  1  0.35652700  0.49348000  0.29030500  1
  Pr  Pr2  1  0.85652700  0.50652000  0.20969500  1
  Pr  Pr3  1  0.14347300  0.49348000  0.79030500  1
  Y  Y0  1  0.63365400  0.86295100  0.36938600  1
  Y  Y1  1  0.36634600  0.13704900  0.63061400  1
  Y  Y2  1  0.86634600  0.86295100  0.86938600  1
  Y  Y3  1  0.13365400  0.13704900  0.13061400  1
  Si  Si0  1  0.90030400  0.91812500  0.56430600  1
  Si  Si1  1  0.82352500  0.30734200  0.97765300  1
  Si  Si2  1  0.59969600  0.91812500  0.06430600  1
  Si  Si3  1  0.17647500  0.69265800  0.02234700  1
  Si  Si4  1  0.32352500  0.69265800  0.52234700  1
  Si  Si5  1  0.67647500  0.30734200  0.47765300  1
  Si  Si6  1  0.09969600  0.08187500  0.43569400  1
  Si  Si7  1  0.40030400  0.08187500  0.93569400  1
  O  O0  1  0.22395200  0.23454900  0.46872500  1
  O  O1  1  0.24891300  0.46319100  0.12053500  1
  O  O2  1  0.74891300  0.53680900  0.37946500  1
  O  O3  1  0.92302300  0.33501500  0.08044500  1
  O  O4  1  0.94838600  0.77727300  0.70071400  1
  O  O5  1  0.25108700  0.46319100  0.62053500  1
  O  O6  1  0.69083000  0.14439600  0.05301000  1
  O  O7  1  0.93829400  0.19475700  0.91208200  1
  O  O8  1  0.55161400  0.77727300  0.20071400  1
  O  O9  1  0.19083000  0.85560400  0.44699000  1
  O  O10  1  0.72395200  0.76545100  0.03127500  1
  O  O11  1  0.30844200  0.79076500  0.74550700  1
  O  O12  1  0.56170600  0.19475700  0.41208200  1
  O  O13  1  0.27604800  0.23454900  0.96872500  1
  O  O14  1  0.05161400  0.22272700  0.29928600  1
  O  O15  1  0.43829400  0.80524300  0.58791800  1
  O  O16  1  0.75108700  0.53680900  0.87946500  1
  O  O17  1  0.42302300  0.66498500  0.41955500  1
  O  O18  1  0.06170600  0.80524300  0.08791800  1
  O  O19  1  0.69155800  0.20923500  0.25449300  1
  O  O20  1  0.19155800  0.79076500  0.24550700  1
  O  O21  1  0.30917000  0.85560400  0.94699000  1
  O  O22  1  0.77604800  0.76545100  0.53127500  1
  O  O23  1  0.44838600  0.22272700  0.79928600  1
  O  O24  1  0.80917000  0.14439600  0.55301000  1
  O  O25  1  0.57697700  0.33501500  0.58044500  1
  O  O26  1  0.07697700  0.66498500  0.91955500  1
  O  O27  1  0.80844200  0.20923500  0.75449300  1
loop_
_geom_bond_atom_site_label_1
_geom_bond_atom_site_label_2
_geom_bond_distance
_geom_bond_site_symmetry_2
O0 Si6 1.660171 1_555
O0 Y1 2.274480 1_555
O0 Pr1 2.498929 1_555
O1 Si3 1.637047 1_555
O1 Y3 2.317539 1_555
O1 Pr1 2.431509 1_555
O2 Si5 1.637047 1_555
O2 Y0 2.317539 1_555
O2 Pr2 2.431509 1_555
O3 Si1 1.646815 1_554
O3 Y3 2.240295 1_655
O3 Pr2 2.395565 1_555
O4 Si0 1.643952 1_555
O4 Pr3 2.467734 1_655
O4 Y2 2.519700 1_555
O5 Si4 1.637047 1_555
O5 Y1 2.317539 1_555
O5 Pr3 2.431509 1_555
O6 Si1 1.625916 1_554
O6 Si2 1.639826 1_545
O7 Si1 1.669858 1_555
O7 Y2 2.510757 1_545
O7 Pr3 2.671663 1_655
O8 Si2 1.643952 1_555
O8 Pr1 2.467734 1_555
O8 Y0 2.519700 1_555
O9 Si4 1.625916 1_555
O9 Si6 1.639826 1_565
O10 Si2 1.660171 1_555
O10 Y2 2.274480 1_554
O10 Pr2 2.498929 1_555
O11 Y1 2.185643 1_565
O11 Pr3 2.320470 1_555
O12 Si5 1.669858 1_555
O12 Y0 2.510757 1_545
O12 Pr1 2.671663 1_555
O13 Si7 1.660171 1_555
O13 Y3 2.274480 1_556
O13 Pr3 2.498929 1_555
O14 Si6 1.643952 1_555
O14 Pr2 2.467734 1_455
O14 Y3 2.519700 1_555
O15 Si4 1.669858 1_555
O15 Y1 2.510757 1_565
O15 Pr0 2.671663 1_555
O16 Si1 1.637047 1_555
O16 Y2 2.317539 1_555
O16 Pr0 2.431509 1_555
O17 Si4 1.646815 1_555
O17 Y0 2.240295 1_555
O17 Pr1 2.395565 1_555
O18 Si3 1.669858 1_555
O18 Y3 2.510757 1_565
O18 Pr2 2.671663 1_455
O19 Y0 2.185643 1_545
O19 Pr2 2.320470 1_555
O20 Y3 2.185643 1_565
O20 Pr1 2.320470 1_555
O21 Si3 1.625916 1_556
O21 Si7 1.639826 1_565
O22 Si0 1.660171 1_555
O22 Y0 2.274480 1_555
O22 Pr0 2.498929 1_555
O23 Si7 1.643952 1_555
O23 Pr0 2.467734 1_555
O23 Y1 2.519700 1_555
O24 Si5 1.625916 1_555
O24 Si0 1.639826 1_545
O25 Si5 1.646815 1_555
O25 Y1 2.240295 1_555
O25 Pr0 2.395565 1_555
O26 Si3 1.646815 1_556
O26 Y2 2.240295 1_455
O26 Pr3 2.395565 1_555
O27 Y2 2.185643 1_545
O27 Pr0 2.320470 1_555
