# generated using pymatgen
data_SrZn5
_symmetry_space_group_name_H-M   'P 1'
_cell_length_a   5.48629320
_cell_length_b   5.48629255
_cell_length_c   4.19855517
_cell_angle_alpha   90.00000000
_cell_angle_beta   90.00000000
_cell_angle_gamma   120.00000997
_symmetry_Int_Tables_number   1
_chemical_formula_structural   SrZn5
_chemical_formula_sum   'Sr1 Zn5'
_cell_volume   109.44311051
_cell_formula_units_Z   1
loop_
 _symmetry_equiv_pos_site_id
 _symmetry_equiv_pos_as_xyz
  1  'x, y, z'
loop_
 _atom_site_type_symbol
 _atom_site_label
 _atom_site_symmetry_multiplicity
 _atom_site_fract_x
 _atom_site_fract_y
 _atom_site_fract_z
 _atom_site_occupancy
  Sr  Sr0  1  0.00000000  0.00000000  -0.00000000  1
  Zn  Zn0  1  0.66666700  0.33333300  0.00000000  1
  Zn  Zn1  1  0.50000000  0.00000000  0.50000000  1
  Zn  Zn2  1  0.50000000  0.50000000  0.50000000  1
  Zn  Zn3  1  0.00000000  0.50000000  0.50000000  1
  Zn  Zn4  1  0.33333300  0.66666700  -0.00000000  1
loop_
_geom_bond_atom_site_label_1
_geom_bond_atom_site_label_2
_geom_bond_distance
_geom_bond_site_symmetry_2
Sr0 Zn4 3.167510 1_545
Sr0 Zn0 3.167510 1_455
Sr0 Zn0 3.167514 1_445
Sr0 Zn4 3.167514 1_555
Sr0 Zn0 3.167514 1_555
Sr0 Zn4 3.167514 1_445
Sr0 Zn2 3.454246 1_555
Sr0 Zn2 3.454246 1_554
Sr0 Zn2 3.454246 1_444
Sr0 Zn2 3.454246 1_445
Sr0 Zn3 3.454246 1_555
Sr0 Zn3 3.454246 1_545
Sr0 Zn3 3.454246 1_544
Sr0 Zn3 3.454246 1_554
Sr0 Zn1 3.454247 1_455
Sr0 Zn1 3.454247 1_555
Sr0 Zn1 3.454247 1_554
Sr0 Zn1 3.454247 1_454
Zn0 Zn1 2.629685 1_555
Zn0 Zn1 2.629685 1_554
Zn0 Zn3 2.629685 1_654
Zn0 Zn3 2.629685 1_655
Zn0 Zn2 2.629688 1_554
Zn0 Zn2 2.629688 1_555
Zn1 Zn4 2.629685 1_546
Zn1 Zn4 2.629685 1_545
Zn1 Zn3 2.743146 1_655
Zn1 Zn3 2.743146 1_545
Zn1 Zn2 2.743146 1_555
Zn1 Zn2 2.743146 1_545
Zn2 Zn4 2.629688 1_555
Zn2 Zn4 2.629688 1_556
Zn2 Zn3 2.743147 1_655
Zn2 Zn3 2.743147 1_555
Zn3 Zn4 2.629685 1_555
Zn3 Zn4 2.629685 1_556
