# generated using pymatgen
data_FePH5CO8
_symmetry_space_group_name_H-M   'P 1'
_cell_length_a   7.74143030
_cell_length_b   10.62090600
_cell_length_c   10.08079115
_cell_angle_alpha   90.00000000
_cell_angle_beta   103.34910399
_cell_angle_gamma   90.00000000
_symmetry_Int_Tables_number   1
_chemical_formula_structural   FePH5CO8
_chemical_formula_sum   'Fe4 P4 H20 C4 O32'
_cell_volume   806.45828794
_cell_formula_units_Z   4
loop_
 _symmetry_equiv_pos_site_id
 _symmetry_equiv_pos_as_xyz
  1  'x, y, z'
loop_
 _atom_site_type_symbol
 _atom_site_label
 _atom_site_symmetry_multiplicity
 _atom_site_fract_x
 _atom_site_fract_y
 _atom_site_fract_z
 _atom_site_occupancy
  Fe  Fe0  1  0.38296600  0.87364600  0.12646400  1
  Fe  Fe1  1  0.61703400  0.37364600  0.37353600  1
  Fe  Fe2  1  0.38296600  0.62635400  0.62646400  1
  Fe  Fe3  1  0.61703400  0.12635400  0.87353600  1
  P  P0  1  0.50220000  0.81053500  0.85000900  1
  P  P1  1  0.49780000  0.18946500  0.14999100  1
  P  P2  1  0.50220000  0.68946500  0.35000900  1
  P  P3  1  0.49780000  0.31053500  0.64999100  1
  H  H0  1  0.95360500  0.31343400  0.34336400  1
  H  H1  1  0.53699600  0.09080200  0.35622400  1
  H  H2  1  0.04639500  0.81343400  0.15663600  1
  H  H3  1  0.32725100  0.11337500  0.63834600  1
  H  H4  1  0.81417700  0.07037300  0.11967400  1
  H  H5  1  0.32725100  0.38662500  0.13834600  1
  H  H6  1  0.16137400  0.48129300  0.90503500  1
  H  H7  1  0.46300400  0.90919800  0.64377600  1
  H  H8  1  0.18582300  0.57037300  0.38032600  1
  H  H9  1  0.16137400  0.01870700  0.40503500  1
  H  H10  1  0.46300400  0.59080200  0.14377600  1
  H  H11  1  0.83862600  0.51870700  0.09496500  1
  H  H12  1  0.18582300  0.92962700  0.88032600  1
  H  H13  1  0.67274900  0.88662500  0.36165400  1
  H  H14  1  0.95360500  0.18656600  0.84336400  1
  H  H15  1  0.53699600  0.40919800  0.85622400  1
  H  H16  1  0.67274900  0.61337500  0.86165400  1
  H  H17  1  0.81417700  0.42962700  0.61967400  1
  H  H18  1  0.04639500  0.68656600  0.65663600  1
  H  H19  1  0.83862600  0.98129300  0.59496500  1
  C  C0  1  0.00377500  0.02895600  0.94016800  1
  C  C1  1  0.99622500  0.97104400  0.05983200  1
  C  C2  1  0.00377500  0.47104400  0.44016800  1
  C  C3  1  0.99622500  0.52895600  0.55983200  1
  O  O0  1  0.78773900  0.65472600  0.90848700  1
  O  O1  1  0.90173600  0.13549700  0.90551600  1
  O  O2  1  0.64668400  0.32630100  0.56584800  1
  O  O3  1  0.28470500  0.21903600  0.07302700  1
  O  O4  1  0.43011200  0.04203200  0.12911900  1
  O  O5  1  0.43011200  0.45796800  0.62911900  1
  O  O6  1  0.46108700  0.84128500  0.31599600  1
  O  O7  1  0.71529500  0.71903600  0.42697300  1
  O  O8  1  0.28470500  0.28096400  0.57302700  1
  O  O9  1  0.71529500  0.78096400  0.92697300  1
  O  O10  1  0.53891300  0.34128500  0.18400400  1
  O  O11  1  0.08946300  0.99318000  0.84660200  1
  O  O12  1  0.64668400  0.17369900  0.06584800  1
  O  O13  1  0.57285100  0.16895600  0.31919900  1
  O  O14  1  0.57285100  0.33104400  0.81919900  1
  O  O15  1  0.42714900  0.66895600  0.18080100  1
  O  O16  1  0.42714900  0.83104400  0.68080100  1
  O  O17  1  0.08946300  0.50682000  0.34660200  1
  O  O18  1  0.21226100  0.34527400  0.09151300  1
  O  O19  1  0.09826400  0.86450300  0.09448400  1
  O  O20  1  0.91053700  0.49318000  0.65339800  1
  O  O21  1  0.53891300  0.15871500  0.68400400  1
  O  O22  1  0.35331600  0.67369900  0.43415200  1
  O  O23  1  0.90173600  0.36450300  0.40551600  1
  O  O24  1  0.46108700  0.65871500  0.81599600  1
  O  O25  1  0.09826400  0.63549700  0.59448400  1
  O  O26  1  0.21226100  0.15472600  0.59151300  1
  O  O27  1  0.35331600  0.82630100  0.93415200  1
  O  O28  1  0.56988800  0.54203200  0.37088100  1
  O  O29  1  0.91053700  0.00682000  0.15339800  1
  O  O30  1  0.56988800  0.95796800  0.87088100  1
  O  O31  1  0.78773900  0.84527400  0.40848700  1
loop_
_geom_bond_atom_site_label_1
_geom_bond_atom_site_label_2
_geom_bond_distance
_geom_bond_site_symmetry_2
Fe0 O4 1.824234 1_565
Fe0 O6 1.897584 1_555
Fe0 O27 1.964294 1_554
Fe0 O19 2.154734 1_555
Fe0 O15 2.248725 1_555
Fe1 O28 1.824234 1_555
Fe1 O10 1.897584 1_555
Fe1 O2 1.964294 1_555
Fe1 O23 2.154734 1_555
Fe1 O13 2.248725 1_555
Fe2 O5 1.824234 1_555
Fe2 O24 1.897584 1_555
Fe2 O22 1.964294 1_555
Fe2 O25 2.154734 1_555
Fe2 O16 2.248725 1_555
Fe3 O30 1.824234 1_545
Fe3 O21 1.897584 1_555
Fe3 O12 1.964294 1_556
Fe3 O1 2.154734 1_555
Fe3 O14 2.248725 1_555
H0 O23 0.981915 1_555
H1 O13 0.976321 1_555
H2 O19 0.981915 1_555
H3 O26 1.007046 1_555
H3 O21 1.667448 1_555
H4 O29 1.005259 1_555
H4 O12 1.689712 1_555
H5 O18 1.007046 1_555
H5 O10 1.667448 1_555
H7 O16 0.976321 1_555
H8 O17 1.005259 1_555
H8 O22 1.689712 1_555
H10 O15 0.976321 1_555
H12 O11 1.005259 1_555
H12 O27 1.689712 1_555
H13 O31 1.007046 1_555
H13 O6 1.667448 1_555
H14 O1 0.981915 1_555
H15 O14 0.976321 1_555
H16 O0 1.007046 1_555
H16 O24 1.667448 1_555
H17 O20 1.005259 1_555
H17 O2 1.689712 1_555
H18 O25 0.981915 1_555
C0 O11 1.327777 1_545
C0 O1 1.378051 1_455
C1 O29 1.327777 1_565
C1 O19 1.378051 1_655
C2 O17 1.327777 1_555
C2 O23 1.378051 1_455
C3 O20 1.327777 1_555
C3 O25 1.378051 1_655
O2 P3 1.589781 1_555
O3 P1 1.682545 1_555
O4 P1 1.649210 1_555
O5 P3 1.649210 1_555
O6 P2 1.663886 1_555
O7 P2 1.682545 1_555
O8 P3 1.682545 1_555
O9 P0 1.682545 1_555
O10 P1 1.663886 1_555
O12 P1 1.589781 1_555
O13 P1 1.684329 1_555
O14 P3 1.684329 1_555
O15 P2 1.684329 1_555
O16 P0 1.684329 1_555
O21 P3 1.663886 1_555
O22 P2 1.589781 1_555
O24 P0 1.663886 1_555
O27 P0 1.589781 1_555
O28 P2 1.649210 1_555
O30 P0 1.649210 1_555
