# generated using pymatgen
data_LiPrS2
_symmetry_space_group_name_H-M   'P 1'
_cell_length_a   7.00523816
_cell_length_b   7.00523816
_cell_length_c   5.68106593
_cell_angle_alpha   66.08423972
_cell_angle_beta   66.08423972
_cell_angle_gamma   110.00883698
_symmetry_Int_Tables_number   1
_chemical_formula_structural   LiPrS2
_chemical_formula_sum   'Li2 Pr2 S4'
_cell_volume   185.29945011
_cell_formula_units_Z   2
loop_
 _symmetry_equiv_pos_site_id
 _symmetry_equiv_pos_as_xyz
  1  'x, y, z'
loop_
 _atom_site_type_symbol
 _atom_site_label
 _atom_site_symmetry_multiplicity
 _atom_site_fract_x
 _atom_site_fract_y
 _atom_site_fract_z
 _atom_site_occupancy
  Li  Li0  1  0.25075400  0.50292400  0.50025700  1
  Li  Li1  1  0.50292400  0.25075400  0.00025700  1
  Pr  Pr0  1  0.00607500  0.74816200  0.99580100  1
  Pr  Pr1  1  0.74816200  0.00607500  0.49580100  1
  S  S0  1  0.50675500  0.24448600  0.49594300  1
  S  S1  1  0.99574800  0.73988600  0.50485200  1
  S  S2  1  0.73988600  0.99574800  0.00485200  1
  S  S3  1  0.25279700  0.49737900  0.99285900  1
loop_
_geom_bond_atom_site_label_1
_geom_bond_atom_site_label_2
_geom_bond_distance
_geom_bond_site_symmetry_2
Li0 S3 2.788917 1_555
Li0 S2 2.790786 1_555
Li0 S1 2.823817 1_455
Li0 S3 2.892852 1_554
Li0 S2 2.893325 1_446
Li0 S0 2.952368 1_555
Li1 S1 2.790786 1_554
Li1 S0 2.809710 1_555
Li1 S2 2.823817 1_545
Li1 S3 2.851184 1_554
Li1 S0 2.872555 1_554
Li1 S1 2.893325 1_445
Pr0 S0 2.833473 1_565
Pr0 S1 2.839639 1_456
Pr0 S1 2.842460 1_455
Pr0 S0 2.850497 1_456
Pr0 S3 2.855178 1_555
Pr0 S2 2.948857 1_456
Pr1 S0 2.753539 1_555
Pr1 S3 2.831505 1_654
Pr1 S2 2.839639 1_546
Pr1 S2 2.842460 1_545
Pr1 S3 2.854564 1_545
Pr1 S1 2.948857 1_545
