# generated using pymatgen
data_Sr5(InBi3)2
_symmetry_space_group_name_H-M   'P 1'
_cell_length_a   4.78176792
_cell_length_b   7.92188257
_cell_length_c   24.94673296
_cell_angle_alpha   90.00000000
_cell_angle_beta   90.00000000
_cell_angle_gamma   90.00000000
_symmetry_Int_Tables_number   1
_chemical_formula_structural   Sr5(InBi3)2
_chemical_formula_sum   'Sr10 In4 Bi12'
_cell_volume   944.99731084
_cell_formula_units_Z   2
loop_
 _symmetry_equiv_pos_site_id
 _symmetry_equiv_pos_as_xyz
  1  'x, y, z'
loop_
 _atom_site_type_symbol
 _atom_site_label
 _atom_site_symmetry_multiplicity
 _atom_site_fract_x
 _atom_site_fract_y
 _atom_site_fract_z
 _atom_site_occupancy
  Sr  Sr0  1  0.50000000  0.00000000  -0.00000000  1
  Sr  Sr1  1  0.50000000  0.77428480  0.24541733  1
  Sr  Sr2  1  0.50000000  0.96420700  0.41097046  1
  Sr  Sr3  1  0.50000000  0.27428480  0.25458267  1
  Sr  Sr4  1  0.50000000  0.46420700  0.08902954  1
  Sr  Sr5  1  0.50000000  0.03579300  0.58902954  1
  Sr  Sr6  1  0.50000000  0.72571520  0.74541733  1
  Sr  Sr7  1  0.50000000  0.50000000  0.50000000  1
  Sr  Sr8  1  0.50000000  0.22571520  0.75458267  1
  Sr  Sr9  1  0.50000000  0.53579300  0.91097046  1
  In  In0  1  -0.00000000  0.17874804  0.87960341  1
  In  In1  1  -0.00000000  0.82125196  0.12039659  1
  In  In2  1  0.00000000  0.32125196  0.37960341  1
  In  In3  1  0.00000000  0.67874804  0.62039659  1
  Bi  Bi0  1  0.50000000  0.53939617  0.36445885  1
  Bi  Bi1  1  0.00000000  0.69503139  0.00288129  1
  Bi  Bi2  1  0.50000000  0.46060383  0.63554115  1
  Bi  Bi3  1  -0.00000000  0.19503139  0.49711871  1
  Bi  Bi4  1  0.00000000  0.30496861  0.99711871  1
  Bi  Bi5  1  0.00000000  0.98543729  0.68844358  1
  Bi  Bi6  1  -0.00000000  0.01456271  0.31155642  1
  Bi  Bi7  1  0.00000000  0.80496861  0.50288129  1
  Bi  Bi8  1  0.50000000  0.03939617  0.13554115  1
  Bi  Bi9  1  0.50000000  0.96060383  0.86445885  1
  Bi  Bi10  1  -0.00000000  0.48543729  0.81155642  1
  Bi  Bi11  1  0.00000000  0.51456271  0.18844358  1
loop_
_geom_bond_atom_site_label_1
_geom_bond_atom_site_label_2
_geom_bond_distance
_geom_bond_site_symmetry_2
In0 Sr9 3.785350 1_455
In0 Sr9 3.785350 1_555
In1 Sr4 3.785350 1_555
In1 Sr4 3.785350 1_455
In2 Sr2 3.785350 1_445
In2 Sr2 3.785350 1_545
In3 Sr5 3.785350 1_465
In3 Sr5 3.785350 1_565
Bi0 In2 2.974128 1_655
Bi0 In2 2.974128 1_555
Bi0 Sr7 3.395681 1_555
Bi0 Sr3 3.453133 1_555
Bi0 Sr1 3.504501 1_555
Bi0 Sr2 3.559716 1_555
Bi1 Bi4 3.093374 1_554
Bi1 In1 3.097454 1_555
Bi1 Sr0 3.399734 1_465
Bi1 Sr0 3.399734 1_565
Bi1 Sr9 3.544701 1_554
Bi1 Sr9 3.544701 1_454
Bi1 Sr4 3.698470 1_455
Bi1 Sr4 3.698470 1_555
Bi2 In3 2.974128 1_655
Bi2 In3 2.974128 1_555
Bi2 Sr7 3.395681 1_555
Bi2 Sr6 3.453133 1_555
Bi2 Sr8 3.504501 1_555
Bi2 Sr5 3.559716 1_555
Bi3 Bi7 3.093374 1_545
Bi3 In2 3.097454 1_555
Bi3 Sr7 3.399734 1_455
Bi3 Sr7 3.399734 1_555
Bi3 Sr5 3.544701 1_455
Bi3 Sr5 3.544701 1_555
Bi3 Sr2 3.698470 1_545
Bi3 Sr2 3.698470 1_445
Bi4 In0 3.097454 1_555
Bi4 Sr0 3.399734 1_456
Bi4 Sr0 3.399734 1_556
Bi4 Sr4 3.544701 1_556
Bi4 Sr4 3.544701 1_456
Bi4 Sr9 3.698470 1_455
Bi4 Sr9 3.698470 1_555
Bi5 In3 2.963852 1_555
Bi5 Sr6 3.459726 1_455
Bi5 Sr6 3.459726 1_555
Bi5 Sr5 3.467871 1_465
Bi5 Sr5 3.467871 1_565
Bi5 Sr8 3.473012 1_465
Bi5 Sr8 3.473012 1_565
Bi6 In2 2.963852 1_555
Bi6 Sr3 3.459726 1_455
Bi6 Sr3 3.459726 1_555
Bi6 Sr2 3.467871 1_545
Bi6 Sr2 3.467871 1_445
Bi6 Sr1 3.473012 1_545
Bi6 Sr1 3.473012 1_445
Bi7 In3 3.097454 1_555
Bi7 Sr7 3.399734 1_455
Bi7 Sr7 3.399734 1_555
Bi7 Sr2 3.544701 1_455
Bi7 Sr2 3.544701 1_555
Bi7 Sr5 3.698470 1_465
Bi7 Sr5 3.698470 1_565
Bi8 In1 2.974128 1_545
Bi8 In1 2.974128 1_645
Bi8 Sr0 3.395681 1_555
Bi8 Sr1 3.453133 1_545
Bi8 Sr3 3.504501 1_555
Bi8 Sr4 3.559716 1_555
Bi9 In0 2.974128 1_665
Bi9 In0 2.974128 1_565
Bi9 Sr0 3.395681 1_566
Bi9 Sr8 3.453133 1_565
Bi9 Sr6 3.504501 1_555
Bi9 Sr9 3.559716 1_555
Bi10 In0 2.963852 1_555
Bi10 Sr8 3.459726 1_555
Bi10 Sr8 3.459726 1_455
Bi10 Sr9 3.467871 1_455
Bi10 Sr9 3.467871 1_555
Bi10 Sr6 3.473012 1_455
Bi10 Sr6 3.473012 1_555
Bi11 In1 2.963852 1_555
Bi11 Sr1 3.459726 1_455
Bi11 Sr1 3.459726 1_555
Bi11 Sr4 3.467871 1_555
Bi11 Sr4 3.467871 1_455
Bi11 Sr3 3.473012 1_455
Bi11 Sr3 3.473012 1_555
