# generated using pymatgen
data_NaNb(CuS2)2
_symmetry_space_group_name_H-M   'P 1'
_cell_length_a   9.67046718
_cell_length_b   9.67046718
_cell_length_c   7.67298600
_cell_angle_alpha   90.00000000
_cell_angle_beta   90.00000000
_cell_angle_gamma   146.36923346
_symmetry_Int_Tables_number   1
_chemical_formula_structural   NaNb(CuS2)2
_chemical_formula_sum   'Na2 Nb2 Cu4 S8'
_cell_volume   397.41352069
_cell_formula_units_Z   2
loop_
 _symmetry_equiv_pos_site_id
 _symmetry_equiv_pos_as_xyz
  1  'x, y, z'
loop_
 _atom_site_type_symbol
 _atom_site_label
 _atom_site_symmetry_multiplicity
 _atom_site_fract_x
 _atom_site_fract_y
 _atom_site_fract_z
 _atom_site_occupancy
  Na  Na0  1  0.66314200  0.00259200  0.25000000  1
  Na  Na1  1  0.00259200  0.66314200  0.75000000  1
  Nb  Nb0  1  0.88723400  0.66727100  0.25000000  1
  Nb  Nb1  1  0.66727100  0.88723400  0.75000000  1
  Cu  Cu0  1  0.76126400  0.76126400  0.00000000  1
  Cu  Cu1  1  0.76126400  0.76126400  0.50000000  1
  Cu  Cu2  1  0.37903500  0.17088900  0.25000000  1
  Cu  Cu3  1  0.17088900  0.37903500  0.75000000  1
  S  S0  1  0.23946500  0.82726100  0.25000000  1
  S  S1  1  0.82726100  0.23946500  0.75000000  1
  S  S2  1  0.63293500  0.42484200  0.00740800  1
  S  S3  1  0.42484200  0.63293500  0.99259200  1
  S  S4  1  0.00450900  0.01271600  0.75000000  1
  S  S5  1  0.01271600  0.00450900  0.25000000  1
  S  S6  1  0.42484200  0.63293500  0.50740800  1
  S  S7  1  0.63293500  0.42484200  0.49259200  1
loop_
_geom_bond_atom_site_label_1
_geom_bond_atom_site_label_2
_geom_bond_distance
_geom_bond_site_symmetry_2
Na0 S0 2.844866 1_545
Na0 S3 2.876153 1_544
Na0 S6 2.876153 1_545
Na0 S5 3.365124 1_655
Na1 S1 2.844866 1_455
Na1 S7 2.876153 1_455
Na1 S2 2.876153 1_456
Na1 S4 3.365124 1_565
Nb0 S0 2.284791 1_655
Nb0 S7 2.325502 1_555
Nb0 S2 2.325502 1_555
Nb0 S5 2.349076 1_665
Nb1 S1 2.284791 1_565
Nb1 S6 2.325502 1_555
Nb1 S3 2.325502 1_555
Nb1 S4 2.349076 1_665
Cu0 S3 2.324725 1_554
Cu0 S2 2.324725 1_555
Cu0 S4 2.366589 1_664
Cu0 S5 2.366589 1_665
Cu1 S7 2.324725 1_555
Cu1 S6 2.324725 1_555
Cu1 S5 2.366589 1_665
Cu1 S4 2.366589 1_665
Cu2 S0 2.322814 1_545
Cu2 S2 2.341656 1_555
Cu2 S7 2.341656 1_555
Cu2 S5 2.376223 1_555
Cu3 S1 2.322814 1_455
Cu3 S6 2.341656 1_555
Cu3 S3 2.341656 1_555
Cu3 S4 2.376223 1_555
