# generated using pymatgen
data_H4Pb(CO3)2
_symmetry_space_group_name_H-M   'P 1'
_cell_length_a   7.84958500
_cell_length_b   8.17656700
_cell_length_c   9.33779700
_cell_angle_alpha   90.00000000
_cell_angle_beta   90.00000000
_cell_angle_gamma   90.00000000
_symmetry_Int_Tables_number   1
_chemical_formula_structural   H4Pb(CO3)2
_chemical_formula_sum   'H16 Pb4 C8 O24'
_cell_volume   599.32462829
_cell_formula_units_Z   4
loop_
 _symmetry_equiv_pos_site_id
 _symmetry_equiv_pos_as_xyz
  1  'x, y, z'
loop_
 _atom_site_type_symbol
 _atom_site_label
 _atom_site_symmetry_multiplicity
 _atom_site_fract_x
 _atom_site_fract_y
 _atom_site_fract_z
 _atom_site_occupancy
  H  H0  1  0.34895700  0.05173300  0.17876500  1
  H  H1  1  0.15114700  0.31265300  0.41355700  1
  H  H2  1  0.15104300  0.05173300  0.17876500  1
  H  H3  1  0.34895700  0.44826700  0.67876500  1
  H  H4  1  0.84885300  0.68734700  0.58644300  1
  H  H5  1  0.84895700  0.55173300  0.32123500  1
  H  H6  1  0.65104300  0.55173300  0.32123500  1
  H  H7  1  0.84895700  0.94826700  0.82123500  1
  H  H8  1  0.65114700  0.81265300  0.08644300  1
  H  H9  1  0.15104300  0.44826700  0.67876500  1
  H  H10  1  0.15114700  0.18734700  0.91355700  1
  H  H11  1  0.34885300  0.18734700  0.91355700  1
  H  H12  1  0.65104300  0.94826700  0.82123500  1
  H  H13  1  0.34885300  0.31265300  0.41355700  1
  H  H14  1  0.84885300  0.81265300  0.08644300  1
  H  H15  1  0.65114700  0.68734700  0.58644300  1
  Pb  Pb0  1  0.25000000  0.47786100  0.10489900  1
  Pb  Pb1  1  0.75000000  0.52213900  0.89510100  1
  Pb  Pb2  1  0.75000000  0.97786100  0.39510100  1
  Pb  Pb3  1  0.25000000  0.02213900  0.60489900  1
  C  C0  1  0.65085800  0.26019600  0.64309300  1
  C  C1  1  0.84914200  0.23980400  0.14309300  1
  C  C2  1  0.65085800  0.23980400  0.14309300  1
  C  C3  1  0.15085800  0.76019600  0.85690700  1
  C  C4  1  0.34914200  0.73980400  0.35690700  1
  C  C5  1  0.34914200  0.76019600  0.85690700  1
  C  C6  1  0.15085800  0.73980400  0.35690700  1
  C  C7  1  0.84914200  0.26019600  0.64309300  1
  O  O0  1  0.57565400  0.15917200  0.56153600  1
  O  O1  1  0.75000000  0.76775600  0.13660900  1
  O  O2  1  0.25000000  0.26775600  0.36339100  1
  O  O3  1  0.57589500  0.36286100  0.72305700  1
  O  O4  1  0.75000000  0.73224400  0.63660900  1
  O  O5  1  0.07589500  0.63713900  0.27694300  1
  O  O6  1  0.75000000  0.50067100  0.36767900  1
  O  O7  1  0.25000000  0.49932900  0.63232100  1
  O  O8  1  0.57565400  0.34082800  0.06153600  1
  O  O9  1  0.75000000  0.99932900  0.86767900  1
  O  O10  1  0.57589500  0.13713900  0.22305700  1
  O  O11  1  0.07565400  0.84082800  0.43846400  1
  O  O12  1  0.42410500  0.86286100  0.77694300  1
  O  O13  1  0.07589500  0.86286100  0.77694300  1
  O  O14  1  0.92434600  0.34082800  0.06153600  1
  O  O15  1  0.25000000  0.23224400  0.86339100  1
  O  O16  1  0.42410500  0.63713900  0.27694300  1
  O  O17  1  0.07565400  0.65917200  0.93846400  1
  O  O18  1  0.42434600  0.65917200  0.93846400  1
  O  O19  1  0.25000000  0.00067100  0.13232100  1
  O  O20  1  0.92410500  0.36286100  0.72305700  1
  O  O21  1  0.92410500  0.13713900  0.22305700  1
  O  O22  1  0.42434600  0.84082800  0.43846400  1
  O  O23  1  0.92434600  0.15917200  0.56153600  1
loop_
_geom_bond_atom_site_label_1
_geom_bond_atom_site_label_2
_geom_bond_distance
_geom_bond_site_symmetry_2
H0 O19 0.982737 1_555
H1 O2 0.977910 1_555
H2 O19 0.982737 1_555
H3 O7 0.982737 1_555
H4 O4 0.977910 1_555
H5 O6 0.982737 1_555
H6 O6 0.982737 1_555
H7 O9 0.982737 1_555
H8 O1 0.977910 1_555
H9 O7 0.982737 1_555
H10 O15 0.977910 1_555
H11 O15 0.977910 1_555
H12 O9 0.982737 1_555
H13 O2 0.977910 1_555
H14 O1 0.977910 1_555
H15 O4 0.977910 1_555
C0 O3 1.268252 1_555
C0 O0 1.269165 1_555
C1 O21 1.268252 1_555
C1 O14 1.269165 1_555
C2 O10 1.268252 1_555
C2 O8 1.269165 1_555
C3 O13 1.268252 1_555
C3 O17 1.269165 1_555
C4 O16 1.268252 1_555
C4 O22 1.269165 1_555
C5 O12 1.268252 1_555
C5 O18 1.269165 1_555
C6 O5 1.268252 1_555
C6 O11 1.269165 1_555
C7 O20 1.268252 1_555
C7 O23 1.269165 1_555
O0 Pb2 2.546775 1_545
O3 Pb1 2.478856 1_555
O5 Pb0 2.478856 1_555
O8 Pb1 2.546775 1_554
O10 Pb2 2.478856 1_545
O11 Pb3 2.546775 1_565
O12 Pb3 2.478856 1_565
O13 Pb3 2.478856 1_565
O14 Pb1 2.546775 1_554
O16 Pb0 2.478856 1_555
O17 Pb0 2.546775 1_556
O18 Pb0 2.546775 1_556
O20 Pb1 2.478856 1_555
O21 Pb2 2.478856 1_545
O22 Pb3 2.546775 1_565
O23 Pb2 2.546775 1_545
