# generated using pymatgen
data_CdI2
_symmetry_space_group_name_H-M   'P 1'
_cell_length_a   4.34134830
_cell_length_b   4.34134830
_cell_length_c   103.05149500
_cell_angle_alpha   90.00000000
_cell_angle_beta   90.00000000
_cell_angle_gamma   120.00000456
_symmetry_Int_Tables_number   1
_chemical_formula_structural   CdI2
_chemical_formula_sum   'Cd14 I28'
_cell_volume   1682.03166861
_cell_formula_units_Z   14
loop_
 _symmetry_equiv_pos_site_id
 _symmetry_equiv_pos_as_xyz
  1  'x, y, z'
loop_
 _atom_site_type_symbol
 _atom_site_label
 _atom_site_symmetry_multiplicity
 _atom_site_fract_x
 _atom_site_fract_y
 _atom_site_fract_z
 _atom_site_occupancy
  Cd  Cd0  1  0.33333300  0.66666700  0.94644700  1
  Cd  Cd1  1  0.33333300  0.66666700  0.73215500  1
  Cd  Cd2  1  0.33333300  0.66666700  0.30356200  1
  Cd  Cd3  1  0.66666700  0.33333300  0.16073300  1
  Cd  Cd4  1  0.66666700  0.33333300  0.01786100  1
  Cd  Cd5  1  0.33333300  0.66666700  0.51785600  1
  Cd  Cd6  1  0.33333300  0.66666700  0.08927000  1
  Cd  Cd7  1  0.66666700  0.33333300  0.58927100  1
  Cd  Cd8  1  0.33333300  0.66666700  0.23215600  1
  Cd  Cd9  1  0.33333300  0.66666700  0.80356200  1
  Cd  Cd10  1  0.33333300  0.66666700  0.87497600  1
  Cd  Cd11  1  0.33333300  0.66666700  0.66073400  1
  Cd  Cd12  1  0.33333300  0.66666700  0.37497600  1
  Cd  Cd13  1  0.33333300  0.66666700  0.44644800  1
  I  I0  1  0.00000000  0.00000000  0.07252500  1
  I  I1  1  0.00000000  0.00000000  0.64396200  1
  I  I2  1  0.00000000  0.00000000  0.78677600  1
  I  I3  1  0.66666700  0.33333300  0.10605200  1
  I  I4  1  0.66666700  0.33333300  0.67748900  1
  I  I5  1  0.00000000  0.00000000  0.85820400  1
  I  I6  1  0.33333300  0.66666700  0.60605300  1
  I  I7  1  0.00000000  0.00000000  0.92967500  1
  I  I8  1  0.33333300  0.66666700  0.17748900  1
  I  I9  1  0.66666700  0.33333300  0.53463300  1
  I  I10  1  0.66666700  0.33333300  0.24893400  1
  I  I11  1  0.00000000  0.00000000  0.35820400  1
  I  I12  1  0.66666700  0.33333300  0.82033500  1
  I  I13  1  0.00000000  0.00000000  0.21537600  1
  I  I14  1  0.00000000  0.00000000  0.50112100  1
  I  I15  1  0.66666700  0.33333300  0.39172400  1
  I  I16  1  0.00000000  0.00000000  0.71537400  1
  I  I17  1  0.66666700  0.33333300  0.32033400  1
  I  I18  1  0.00000000  0.00000000  0.57252500  1
  I  I19  1  0.00000000  0.00000000  0.14395700  1
  I  I20  1  0.00000000  0.00000000  0.42967700  1
  I  I21  1  0.33333300  0.66666700  0.03463700  1
  I  I22  1  0.00000000  0.00000000  0.28677600  1
  I  I23  1  0.66666700  0.33333300  0.96319300  1
  I  I24  1  0.66666700  0.33333300  0.46319200  1
  I  I25  1  0.66666700  0.33333300  0.89172300  1
  I  I26  1  0.00000000  0.00000000  0.00112300  1
  I  I27  1  0.66666700  0.33333300  0.74893400  1
loop_
_geom_bond_atom_site_label_1
_geom_bond_atom_site_label_2
_geom_bond_distance
_geom_bond_site_symmetry_2
Cd0 I23 3.043101 1_455
Cd0 I23 3.043101 1_565
Cd0 I23 3.043107 1_555
Cd0 I7 3.044621 1_565
Cd0 I7 3.044624 1_665
Cd0 I7 3.044624 1_555
Cd1 I27 3.045031 1_455
Cd1 I27 3.045031 1_565
Cd1 I27 3.045037 1_555
Cd1 I16 3.045148 1_565
Cd1 I16 3.045151 1_555
Cd1 I16 3.045151 1_665
Cd2 I17 3.044621 1_455
Cd2 I17 3.044621 1_565
Cd2 I17 3.044628 1_555
Cd2 I22 3.045441 1_565
Cd2 I22 3.045444 1_555
Cd2 I22 3.045444 1_665
Cd3 I8 3.043685 1_545
Cd3 I8 3.043685 1_655
Cd3 I8 3.043692 1_555
Cd3 I19 3.044855 1_655
Cd3 I19 3.044858 1_665
Cd3 I19 3.044858 1_555
Cd4 I26 3.042634 1_655
Cd4 I26 3.042637 1_665
Cd4 I26 3.042637 1_555
Cd4 I21 3.044855 1_545
Cd4 I21 3.044855 1_655
Cd4 I21 3.044862 1_555
Cd5 I14 3.042458 1_565
Cd5 I14 3.042461 1_555
Cd5 I14 3.042461 1_665
Cd5 I9 3.044914 1_455
Cd5 I9 3.044914 1_565
Cd5 I9 3.044920 1_555
Cd6 I0 3.043043 1_565
Cd6 I0 3.043046 1_555
Cd6 I0 3.043046 1_665
Cd6 I3 3.045206 1_455
Cd6 I3 3.045206 1_565
Cd6 I3 3.045213 1_555
Cd7 I18 3.043101 1_655
Cd7 I18 3.043104 1_665
Cd7 I18 3.043104 1_555
Cd7 I6 3.045206 1_545
Cd7 I6 3.045206 1_655
Cd7 I6 3.045213 1_555
Cd8 I10 3.044972 1_455
Cd8 I10 3.044972 1_565
Cd8 I10 3.044979 1_555
Cd8 I13 3.045089 1_565
Cd8 I13 3.045092 1_555
Cd8 I13 3.045092 1_665
Cd9 I12 3.044680 1_455
Cd9 I12 3.044680 1_565
Cd9 I12 3.044686 1_555
Cd9 I2 3.045441 1_565
Cd9 I2 3.045444 1_555
Cd9 I2 3.045444 1_665
Cd10 I25 3.043159 1_455
Cd10 I25 3.043159 1_565
Cd10 I25 3.043166 1_555
Cd10 I5 3.044621 1_565
Cd10 I5 3.044624 1_665
Cd10 I5 3.044624 1_555
Cd11 I4 3.043627 1_455
Cd11 I4 3.043627 1_565
Cd11 I4 3.043633 1_555
Cd11 I1 3.044621 1_565
Cd11 I1 3.044624 1_665
Cd11 I1 3.044624 1_555
Cd12 I15 3.043218 1_455
Cd12 I15 3.043218 1_565
Cd12 I15 3.043224 1_555
Cd12 I11 3.044621 1_565
Cd12 I11 3.044624 1_665
Cd12 I11 3.044624 1_555
Cd13 I24 3.042984 1_455
Cd13 I24 3.042984 1_565
Cd13 I24 3.042990 1_555
Cd13 I20 3.044563 1_565
Cd13 I20 3.044566 1_555
Cd13 I20 3.044566 1_665
