# generated using pymatgen
data_Te2W3(CO)15
_symmetry_space_group_name_H-M   'P 1'
_cell_length_a   11.02266600
_cell_length_b   11.02266600
_cell_length_c   21.56623600
_cell_angle_alpha   90.00000000
_cell_angle_beta   90.00000000
_cell_angle_gamma   90.00000000
_symmetry_Int_Tables_number   1
_chemical_formula_structural   Te2W3(CO)15
_chemical_formula_sum   'Te8 W12 C60 O60'
_cell_volume   2620.27968231
_cell_formula_units_Z   4
loop_
 _symmetry_equiv_pos_site_id
 _symmetry_equiv_pos_as_xyz
  1  'x, y, z'
loop_
 _atom_site_type_symbol
 _atom_site_label
 _atom_site_symmetry_multiplicity
 _atom_site_fract_x
 _atom_site_fract_y
 _atom_site_fract_z
 _atom_site_occupancy
  Te  Te0  1  0.03620400  0.11805300  0.78228300  1
  Te  Te1  1  0.53620400  0.38194700  0.96771700  1
  Te  Te2  1  0.11805300  0.03620400  0.21771700  1
  Te  Te3  1  0.96379600  0.88194700  0.28228300  1
  Te  Te4  1  0.88194700  0.96379600  0.71771700  1
  Te  Te5  1  0.38194700  0.53620400  0.03228300  1
  Te  Te6  1  0.46379600  0.61805300  0.46771700  1
  Te  Te7  1  0.61805300  0.46379600  0.53228300  1
  W  W0  1  0.81342300  0.77983800  0.80247400  1
  W  W1  1  0.72016200  0.31342300  0.05247400  1
  W  W2  1  0.77983800  0.81342300  0.19752600  1
  W  W3  1  0.27983800  0.68657700  0.55247400  1
  W  W4  1  0.21150600  0.78849400  0.25000000  1
  W  W5  1  0.68657700  0.27983800  0.44752600  1
  W  W6  1  0.71150600  0.71150600  0.50000000  1
  W  W7  1  0.22016200  0.18657700  0.69752600  1
  W  W8  1  0.18657700  0.22016200  0.30247400  1
  W  W9  1  0.78849400  0.21150600  0.75000000  1
  W  W10  1  0.28849400  0.28849400  0.00000000  1
  W  W11  1  0.31342300  0.72016200  0.94752600  1
  C  C0  1  0.72470900  0.14981200  0.83505700  1
  C  C1  1  0.84351800  0.84351800  0.50000000  1
  C  C2  1  0.11233800  0.64842400  0.29229300  1
  C  C3  1  0.16543000  0.71408700  0.47773100  1
  C  C4  1  0.26872100  0.86073800  0.89105200  1
  C  C5  1  0.27529100  0.85018800  0.33505700  1
  C  C6  1  0.23127900  0.36073800  0.35894800  1
  C  C7  1  0.14981200  0.72470900  0.16494300  1
  C  C8  1  0.66164200  0.13382100  0.05207600  1
  C  C9  1  0.86073800  0.26872100  0.10894800  1
  C  C10  1  0.14842400  0.38766200  0.04229300  1
  C  C11  1  0.76872100  0.63926200  0.85894800  1
  C  C12  1  0.22470900  0.35018800  0.91494300  1
  C  C13  1  0.13382100  0.66164200  0.94792400  1
  C  C14  1  0.21408700  0.33457000  0.22773100  1
  C  C15  1  0.15648200  0.15648200  0.00000000  1
  C  C16  1  0.72535700  0.99443600  0.20034500  1
  C  C17  1  0.35157600  0.88766200  0.20770700  1
  C  C18  1  0.14557600  0.11804800  0.38158100  1
  C  C19  1  0.36073800  0.23127900  0.64105200  1
  C  C20  1  0.34351800  0.65648200  0.25000000  1
  C  C21  1  0.35442400  0.61804800  0.86841900  1
  C  C22  1  0.66543000  0.78591300  0.27226900  1
  C  C23  1  0.61804800  0.35442400  0.13158100  1
  C  C24  1  0.86617900  0.33835800  0.44792400  1
  C  C25  1  0.61233800  0.85157600  0.45770700  1
  C  C26  1  0.38766200  0.14842400  0.95770700  1
  C  C27  1  0.85442400  0.88195200  0.88158100  1
  C  C28  1  0.49443600  0.77464300  0.95034500  1
  C  C29  1  0.65648200  0.34351800  0.75000000  1
  C  C30  1  0.33835800  0.86617900  0.55207600  1
  C  C31  1  0.28591300  0.83457000  0.02226900  1
  C  C32  1  0.85157600  0.61233800  0.54229300  1
  C  C33  1  0.88195200  0.85442400  0.11841900  1
  C  C34  1  0.36617900  0.16164200  0.30207600  1
  C  C35  1  0.64557600  0.38195200  0.36841900  1
  C  C36  1  0.35018800  0.22470900  0.08505700  1
  C  C37  1  0.64842400  0.11233800  0.70770700  1
  C  C38  1  0.99443600  0.72535700  0.79965500  1
  C  C39  1  0.33457000  0.21408700  0.77226900  1
  C  C40  1  0.63926200  0.76872100  0.14105200  1
  C  C41  1  0.85018800  0.27529100  0.66494300  1
  C  C42  1  0.77529100  0.64981200  0.41494300  1
  C  C43  1  0.16164200  0.36617900  0.69792400  1
  C  C44  1  0.50556400  0.22535700  0.45034500  1
  C  C45  1  0.78591300  0.66543000  0.72773100  1
  C  C46  1  0.27464300  0.00556400  0.70034500  1
  C  C47  1  0.77464300  0.49443600  0.04965500  1
  C  C48  1  0.00556400  0.27464300  0.29965500  1
  C  C49  1  0.71408700  0.16543000  0.52226900  1
  C  C50  1  0.63382100  0.83835800  0.80207600  1
  C  C51  1  0.73127900  0.13926200  0.39105200  1
  C  C52  1  0.64981200  0.77529100  0.58505700  1
  C  C53  1  0.22535700  0.50556400  0.54965500  1
  C  C54  1  0.88766200  0.35157600  0.79229300  1
  C  C55  1  0.13926200  0.73127900  0.60894800  1
  C  C56  1  0.83457000  0.28591300  0.97773100  1
  C  C57  1  0.11804800  0.14557600  0.61841900  1
  C  C58  1  0.83835800  0.63382100  0.19792400  1
  C  C59  1  0.38195200  0.64557600  0.63158100  1
  O  O0  1  0.18507900  0.38150100  0.86782200  1
  O  O1  1  0.61859900  0.43431700  0.32379500  1
  O  O2  1  0.61849900  0.81492100  0.63217800  1
  O  O3  1  0.87112900  0.53349500  0.19746900  1
  O  O4  1  0.43732200  0.06632600  0.93595100  1
  O  O5  1  0.05772600  0.75649800  0.64115100  1
  O  O6  1  0.93367400  0.56267800  0.56404900  1
  O  O7  1  0.94227400  0.24350200  0.14115100  1
  O  O8  1  0.74350200  0.55772600  0.89115100  1
  O  O9  1  0.30539000  0.90480500  0.70270200  1
  O  O10  1  0.88150100  0.31492100  0.61782200  1
  O  O11  1  0.03349500  0.62887100  0.94746900  1
  O  O12  1  0.93431700  0.88140100  0.07379500  1
  O  O13  1  0.56568300  0.38140100  0.17620500  1
  O  O14  1  0.11859900  0.06568300  0.42620500  1
  O  O15  1  0.09519500  0.69461000  0.79729800  1
  O  O16  1  0.22401500  0.40518700  0.18768300  1
  O  O17  1  0.59481300  0.77598500  0.31231700  1
  O  O18  1  0.25649800  0.44227400  0.39115100  1
  O  O19  1  0.06267800  0.56632600  0.31404900  1
  O  O20  1  0.27598500  0.90518700  0.06231700  1
  O  O21  1  0.56267800  0.93367400  0.43595100  1
  O  O22  1  0.96650500  0.37112900  0.44746900  1
  O  O23  1  0.37112900  0.96650500  0.55253100  1
  O  O24  1  0.31492100  0.88150100  0.38217800  1
  O  O25  1  0.62887100  0.03349500  0.05253100  1
  O  O26  1  0.56632600  0.06267800  0.68595100  1
  O  O27  1  0.41778000  0.58222000  0.25000000  1
  O  O28  1  0.68507900  0.11849900  0.88217800  1
  O  O29  1  0.81492100  0.61849900  0.36782200  1
  O  O30  1  0.40518700  0.22401500  0.81231700  1
  O  O31  1  0.72401500  0.09481300  0.56231700  1
  O  O32  1  0.58222000  0.41778000  0.75000000  1
  O  O33  1  0.11849900  0.68507900  0.11782200  1
  O  O34  1  0.88140100  0.93431700  0.92620500  1
  O  O35  1  0.91778000  0.91778000  0.50000000  1
  O  O36  1  0.90480500  0.30539000  0.29729800  1
  O  O37  1  0.06568300  0.11859900  0.57379500  1
  O  O38  1  0.38150100  0.18507900  0.13217800  1
  O  O39  1  0.90518700  0.27598500  0.93768300  1
  O  O40  1  0.40480500  0.19461000  0.45270200  1
  O  O41  1  0.06632600  0.43732200  0.06404900  1
  O  O42  1  0.77598500  0.59481300  0.68768300  1
  O  O43  1  0.69461000  0.09519500  0.20270200  1
  O  O44  1  0.46650500  0.12887100  0.30253100  1
  O  O45  1  0.59519500  0.80539000  0.95270200  1
  O  O46  1  0.93732200  0.43367400  0.81404900  1
  O  O47  1  0.24350200  0.94227400  0.85884900  1
  O  O48  1  0.12887100  0.46650500  0.69746900  1
  O  O49  1  0.19461000  0.40480500  0.54729800  1
  O  O50  1  0.09481300  0.72401500  0.43768300  1
  O  O51  1  0.08222000  0.08222000  0.00000000  1
  O  O52  1  0.75649800  0.05772600  0.35884900  1
  O  O53  1  0.53349500  0.87112900  0.80253100  1
  O  O54  1  0.44227400  0.25649800  0.60884900  1
  O  O55  1  0.55772600  0.74350200  0.10884900  1
  O  O56  1  0.38140100  0.56568300  0.82379500  1
  O  O57  1  0.80539000  0.59519500  0.04729800  1
  O  O58  1  0.43367400  0.93732200  0.18595100  1
  O  O59  1  0.43431700  0.61859900  0.67620500  1
loop_
_geom_bond_atom_site_label_1
_geom_bond_atom_site_label_2
_geom_bond_distance
_geom_bond_site_symmetry_2
Te0 Te4 2.778687 1_445
Te0 W7 2.832540 1_555
Te0 W9 3.000176 1_455
Te1 Te5 2.778687 1_556
Te1 W1 2.832540 1_556
Te1 W10 3.000176 1_556
Te2 Te3 2.778687 1_445
Te2 W8 2.832540 1_555
Te2 W4 3.000176 1_545
Te3 W2 2.832540 1_555
Te3 W4 3.000176 1_655
Te4 W0 2.832540 1_555
Te4 W9 3.000176 1_565
Te5 W11 2.832540 1_554
Te5 W10 3.000176 1_555
Te6 Te7 2.778687 1_555
Te6 W3 2.832540 1_555
Te6 W6 3.000176 1_555
Te7 W5 2.832540 1_555
Te7 W6 3.000176 1_555
C0 O28 1.158731 1_555
C0 W9 2.078856 1_555
C1 O35 1.157626 1_555
C1 W6 2.057856 1_555
C2 O19 1.157017 1_555
C2 W4 2.100131 1_555
C3 O50 1.167824 1_555
C3 W3 2.068956 1_555
C4 O47 1.169334 1_555
C4 W11 2.031542 1_555
C5 O24 1.158731 1_555
C5 W4 2.078856 1_555
C6 O18 1.169334 1_555
C6 W8 2.031542 1_555
C7 O33 1.158731 1_555
C7 W4 2.078856 1_555
C8 O25 1.163402 1_555
C8 W1 2.082148 1_555
C9 O7 1.169334 1_555
C9 W1 2.031542 1_555
C10 O41 1.157017 1_555
C10 W10 2.100131 1_555
C11 O8 1.169334 1_555
C11 W0 2.031542 1_555
C12 O0 1.158731 1_555
C12 W10 2.078856 1_556
C13 O11 1.163402 1_555
C13 W11 2.082148 1_555
C14 O16 1.167824 1_555
C14 W8 2.068956 1_555
C15 O51 1.157626 1_555
C15 W10 2.057856 1_555
C16 O43 1.162304 1_565
C16 W2 2.084546 1_555
C17 O58 1.157017 1_555
C17 W4 2.100131 1_555
C18 O14 1.160924 1_555
C18 W8 2.093258 1_555
C19 O54 1.169334 1_555
C19 W7 2.031542 1_555
C20 O27 1.157626 1_555
C20 W4 2.057856 1_555
C21 O56 1.160924 1_555
C21 W11 2.093258 1_555
C22 O17 1.167824 1_555
C22 W2 2.068956 1_555
C23 O13 1.160924 1_555
C23 W1 2.093258 1_555
C24 O22 1.163402 1_555
C24 W5 2.082148 1_555
C25 O21 1.157017 1_555
C25 W6 2.100131 1_555
C26 O4 1.157017 1_555
C26 W10 2.100131 1_556
C27 O34 1.160924 1_555
C27 W0 2.093258 1_555
C28 O45 1.162304 1_555
C28 W11 2.084546 1_555
C29 O32 1.157626 1_555
C29 W9 2.057856 1_555
C30 O23 1.163402 1_555
C30 W3 2.082148 1_555
C31 O20 1.167824 1_555
C31 W11 2.068956 1_554
C32 O6 1.157017 1_555
C32 W6 2.100131 1_555
C33 O12 1.160924 1_555
C33 W2 2.093258 1_555
C34 O44 1.163402 1_555
C34 W8 2.082148 1_555
C35 O1 1.160924 1_555
C35 W5 2.093258 1_555
C36 O38 1.158731 1_555
C36 W10 2.078856 1_555
C37 O26 1.157017 1_555
C37 W9 2.100131 1_555
C38 O15 1.162304 1_655
C38 W0 2.084546 1_555
C39 O30 1.167824 1_555
C39 W7 2.068956 1_555
C40 O55 1.169334 1_555
C40 W2 2.031542 1_555
C41 O10 1.158731 1_555
C41 W9 2.078856 1_555
C42 O29 1.158731 1_555
C42 W6 2.078856 1_555
C43 O48 1.163402 1_555
C43 W7 2.082148 1_555
C44 O40 1.162304 1_555
C44 W5 2.084546 1_555
C45 O42 1.167824 1_555
C45 W0 2.068956 1_555
C46 O9 1.162304 1_545
C46 W7 2.084546 1_555
C47 O57 1.162304 1_555
C47 W1 2.084546 1_555
C48 O36 1.162304 1_455
C48 W8 2.084546 1_555
C49 O31 1.167824 1_555
C49 W5 2.068956 1_555
C50 O53 1.163402 1_555
C50 W0 2.082148 1_555
C51 O52 1.169334 1_555
C51 W5 2.031542 1_555
C52 O2 1.158731 1_555
C52 W6 2.078856 1_555
C53 O49 1.162304 1_555
C53 W3 2.084546 1_555
C54 O46 1.157017 1_555
C54 W9 2.100131 1_555
C55 O5 1.169334 1_555
C55 W3 2.031542 1_555
C56 O39 1.167824 1_555
C56 W1 2.068956 1_556
C57 O37 1.160924 1_555
C57 W7 2.093258 1_555
C58 O3 1.163402 1_555
C58 W2 2.082148 1_555
C59 O59 1.160924 1_555
C59 W3 2.093258 1_555
