# generated using pymatgen
data_Cs2Re2Se5
_symmetry_space_group_name_H-M   'P 1'
_cell_length_a   12.95464922
_cell_length_b   12.95464922
_cell_length_c   12.95464971
_cell_angle_alpha   70.01329590
_cell_angle_beta   70.01329590
_cell_angle_gamma   70.01329851
_symmetry_Int_Tables_number   1
_chemical_formula_structural   Cs2Re2Se5
_chemical_formula_sum   'Cs12 Re12 Se30'
_cell_volume   1856.75028678
_cell_formula_units_Z   6
loop_
 _symmetry_equiv_pos_site_id
 _symmetry_equiv_pos_as_xyz
  1  'x, y, z'
loop_
 _atom_site_type_symbol
 _atom_site_label
 _atom_site_symmetry_multiplicity
 _atom_site_fract_x
 _atom_site_fract_y
 _atom_site_fract_z
 _atom_site_occupancy
  Cs  Cs0  1  0.32087200  0.12269800  0.53484300  1
  Cs  Cs1  1  0.67912800  0.87730200  0.46515700  1
  Cs  Cs2  1  0.46515700  0.67912800  0.87730200  1
  Cs  Cs3  1  0.12269800  0.53484300  0.32087200  1
  Cs  Cs4  1  0.17912800  0.96515700  0.37730200  1
  Cs  Cs5  1  0.03484300  0.62269800  0.82087200  1
  Cs  Cs6  1  0.62269800  0.82087200  0.03484300  1
  Cs  Cs7  1  0.87730200  0.46515700  0.67912800  1
  Cs  Cs8  1  0.82087200  0.03484300  0.62269800  1
  Cs  Cs9  1  0.53484300  0.32087200  0.12269800  1
  Cs  Cs10  1  0.96515700  0.37730200  0.17912800  1
  Cs  Cs11  1  0.37730200  0.17912800  0.96515700  1
  Re  Re0  1  0.42721400  0.63137800  0.55341900  1
  Re  Re1  1  0.44658100  0.57278600  0.36862200  1
  Re  Re2  1  0.57278600  0.36862200  0.44658100  1
  Re  Re3  1  0.86862200  0.07278600  0.94658100  1
  Re  Re4  1  0.92721400  0.05341900  0.13137800  1
  Re  Re5  1  0.94658100  0.86862200  0.07278600  1
  Re  Re6  1  0.36862200  0.44658100  0.57278600  1
  Re  Re7  1  0.05341900  0.13137800  0.92721400  1
  Re  Re8  1  0.63137800  0.55341900  0.42721400  1
  Re  Re9  1  0.55341900  0.42721400  0.63137800  1
  Re  Re10  1  0.13137800  0.92721400  0.05341900  1
  Re  Re11  1  0.07278600  0.94658100  0.86862200  1
  Se  Se0  1  0.68642300  0.14735500  0.87136800  1
  Se  Se1  1  0.25289700  0.64586300  0.49566200  1
  Se  Se2  1  0.14735500  0.87136800  0.68642300  1
  Se  Se3  1  0.85264500  0.12863200  0.31357700  1
  Se  Se4  1  0.60747300  0.60747300  0.60747300  1
  Se  Se5  1  0.99566200  0.14586300  0.75289700  1
  Se  Se6  1  0.49566200  0.25289700  0.64586300  1
  Se  Se7  1  0.35264500  0.81357700  0.62863200  1
  Se  Se8  1  0.00433800  0.85413700  0.24710300  1
  Se  Se9  1  0.85413700  0.24710300  0.00433800  1
  Se  Se10  1  0.14586300  0.75289700  0.99566200  1
  Se  Se11  1  0.35413700  0.50433800  0.74710300  1
  Se  Se12  1  0.81357700  0.62863200  0.35264500  1
  Se  Se13  1  0.39252700  0.39252700  0.39252700  1
  Se  Se14  1  0.24710300  0.00433800  0.85413700  1
  Se  Se15  1  0.10747300  0.10747300  0.10747300  1
  Se  Se16  1  0.64735500  0.18642300  0.37136800  1
  Se  Se17  1  0.75289700  0.99566200  0.14586300  1
  Se  Se18  1  0.37136800  0.64735500  0.18642300  1
  Se  Se19  1  0.12863200  0.31357700  0.85264500  1
  Se  Se20  1  0.18642300  0.37136800  0.64735500  1
  Se  Se21  1  0.89252700  0.89252700  0.89252700  1
  Se  Se22  1  0.62863200  0.35264500  0.81357700  1
  Se  Se23  1  0.50433800  0.74710300  0.35413700  1
  Se  Se24  1  0.74710300  0.35413700  0.50433800  1
  Se  Se25  1  0.64586300  0.49566200  0.25289700  1
  Se  Se26  1  0.25000000  0.25000000  0.25000000  1
  Se  Se27  1  0.31357700  0.85264500  0.12863200  1
  Se  Se28  1  0.87136800  0.68642300  0.14735500  1
  Se  Se29  1  0.75000000  0.75000000  0.75000000  1
loop_
_geom_bond_atom_site_label_1
_geom_bond_atom_site_label_2
_geom_bond_distance
_geom_bond_site_symmetry_2
Cs0 Se13 3.622463 1_555
Cs0 Se20 3.629665 1_555
Cs0 Se7 3.683895 1_545
Cs0 Se26 3.781528 1_555
Cs0 Se14 3.786488 1_555
Cs0 Se6 4.066452 1_555
Cs0 Se2 4.138204 1_545
Cs0 Se5 4.171159 1_455
Cs0 Se16 4.257174 1_555
Cs1 Se4 3.622463 1_555
Cs1 Se12 3.629665 1_555
Cs1 Se16 3.683895 1_565
Cs1 Se29 3.781528 1_555
Cs1 Se17 3.786488 1_555
Cs1 Se23 4.066452 1_555
Cs1 Se3 4.138204 1_565
Cs1 Se8 4.171159 1_655
Cs1 Se7 4.257174 1_555
Cs2 Se4 3.622463 1_555
Cs2 Se7 3.629665 1_555
Cs2 Se18 3.683895 1_556
Cs2 Se29 3.781527 1_555
Cs2 Se10 3.786488 1_555
Cs2 Se11 4.066452 1_555
Cs2 Se27 4.138204 1_556
Cs2 Se14 4.171159 1_565
Cs2 Se22 4.257174 1_555
Cs3 Se13 3.622463 1_555
Cs3 Se18 3.629665 1_555
Cs3 Se12 3.683895 1_455
Cs3 Se26 3.781528 1_555
Cs3 Se8 3.786488 1_555
Cs3 Se1 4.066452 1_555
Cs3 Se28 4.138204 1_455
Cs3 Se10 4.171159 1_554
Cs3 Se20 4.257174 1_555
Cs4 Se15 3.622463 1_565
Cs4 Se27 3.629665 1_555
Cs4 Se2 3.683895 1_555
Cs4 Se26 3.781527 1_565
Cs4 Se1 3.786488 1_555
Cs4 Se8 4.066452 1_555
Cs4 Se7 4.138204 1_555
Cs4 Se23 4.171159 1_555
Cs4 Se3 4.257174 1_465
Cs5 Se21 3.622463 1_455
Cs5 Se2 3.629665 1_555
Cs5 Se19 3.683895 1_555
Cs5 Se29 3.781528 1_455
Cs5 Se11 3.786488 1_555
Cs5 Se10 4.066452 1_555
Cs5 Se20 4.138204 1_555
Cs5 Se1 4.171159 1_555
Cs5 Se28 4.257174 1_456
Cs6 Se21 3.622463 1_554
Cs6 Se28 3.629665 1_555
Cs6 Se27 3.683895 1_555
Cs6 Se29 3.781528 1_554
Cs6 Se23 3.786488 1_555
Cs6 Se17 4.066452 1_555
Cs6 Se18 4.138204 1_555
Cs6 Se25 4.171159 1_555
Cs6 Se0 4.257174 1_564
Cs7 Se4 3.622463 1_555
Cs7 Se22 3.629665 1_555
Cs7 Se20 3.683895 1_655
Cs7 Se29 3.781528 1_555
Cs7 Se5 3.786488 1_555
Cs7 Se24 4.066452 1_555
Cs7 Se19 4.138204 1_655
Cs7 Se9 4.171159 1_556
Cs7 Se12 4.257174 1_555
Cs8 Se21 3.622463 1_545
Cs8 Se0 3.629665 1_555
Cs8 Se3 3.683895 1_555
Cs8 Se29 3.781527 1_545
Cs8 Se24 3.786488 1_555
Cs8 Se5 4.066452 1_555
Cs8 Se16 4.138204 1_555
Cs8 Se6 4.171159 1_555
Cs8 Se2 4.257174 1_645
Cs9 Se13 3.622463 1_555
Cs9 Se16 3.629665 1_555
Cs9 Se22 3.683895 1_554
Cs9 Se26 3.781527 1_555
Cs9 Se9 3.786488 1_555
Cs9 Se25 4.066452 1_555
Cs9 Se0 4.138204 1_554
Cs9 Se17 4.171159 1_545
Cs9 Se18 4.257174 1_555
Cs10 Se15 3.622463 1_655
Cs10 Se3 3.629665 1_555
Cs10 Se28 3.683895 1_555
Cs10 Se26 3.781528 1_655
Cs10 Se25 3.786488 1_555
Cs10 Se9 4.066452 1_555
Cs10 Se12 4.138204 1_555
Cs10 Se24 4.171159 1_555
Cs10 Se19 4.257174 1_654
Cs11 Se15 3.622463 1_556
Cs11 Se19 3.629665 1_555
Cs11 Se0 3.683895 1_555
Cs11 Se26 3.781528 1_556
Cs11 Se6 3.786488 1_555
Cs11 Se14 4.066452 1_555
Cs11 Se22 4.138204 1_555
Cs11 Se11 4.171159 1_555
Cs11 Se27 4.257174 1_546
Re0 Se1 2.542435 1_555
Re0 Se4 2.552375 1_555
Re0 Se11 2.553189 1_555
Re0 Se23 2.554503 1_555
Re0 Se7 2.612224 1_555
Re1 Se23 2.542435 1_555
Re1 Se13 2.552375 1_555
Re1 Se1 2.553189 1_555
Re1 Se25 2.554503 1_555
Re1 Se18 2.612224 1_555
Re2 Se24 2.542435 1_555
Re2 Se13 2.552375 1_555
Re2 Se25 2.553189 1_555
Re2 Se6 2.554503 1_555
Re2 Se16 2.612224 1_555
Re3 Se9 2.542435 1_556
Re3 Se21 2.552375 1_545
Re3 Se5 2.553189 1_555
Re3 Se17 2.554503 1_546
Re3 Se0 2.612224 1_555
Re4 Se17 2.542435 1_545
Re4 Se15 2.552375 1_655
Re4 Se9 2.553189 1_555
Re4 Se8 2.554503 1_645
Re4 Se3 2.612224 1_555
Re5 Se8 2.542435 1_655
Re5 Se21 2.552375 1_554
Re5 Se17 2.553189 1_555
Re5 Se10 2.554503 1_654
Re5 Se28 2.612223 1_555
Re6 Se11 2.542435 1_555
Re6 Se13 2.552375 1_555
Re6 Se6 2.553189 1_555
Re6 Se1 2.554503 1_555
Re6 Se20 2.612223 1_555
Re7 Se5 2.542435 1_455
Re7 Se15 2.552375 1_556
Re7 Se14 2.553189 1_555
Re7 Se9 2.554503 1_456
Re7 Se19 2.612223 1_555
Re8 Se25 2.542435 1_555
Re8 Se4 2.552375 1_555
Re8 Se23 2.553189 1_555
Re8 Se24 2.554503 1_555
Re8 Se12 2.612223 1_555
Re9 Se6 2.542435 1_555
Re9 Se4 2.552375 1_555
Re9 Se24 2.553189 1_555
Re9 Se11 2.554503 1_555
Re9 Se22 2.612224 1_555
Re10 Se10 2.542435 1_554
Re10 Se15 2.552375 1_565
Re10 Se8 2.553189 1_555
Re10 Se14 2.554503 1_564
Re10 Se27 2.612224 1_555
Re11 Se14 2.542435 1_565
Re11 Se21 2.552375 1_455
Re11 Se10 2.553189 1_555
Re11 Se5 2.554503 1_465
Re11 Se2 2.612224 1_555
