# generated using pymatgen
data_K4BaTa6(Si2O13)2
_symmetry_space_group_name_H-M   'P 1'
_cell_length_a   9.16697732
_cell_length_b   9.16697732
_cell_length_c   7.87241700
_cell_angle_alpha   90.00000000
_cell_angle_beta   90.00000000
_cell_angle_gamma   119.62628486
_symmetry_Int_Tables_number   1
_chemical_formula_structural   K4BaTa6(Si2O13)2
_chemical_formula_sum   'K4 Ba1 Ta6 Si4 O26'
_cell_volume   575.06139745
_cell_formula_units_Z   1
loop_
 _symmetry_equiv_pos_site_id
 _symmetry_equiv_pos_as_xyz
  1  'x, y, z'
loop_
 _atom_site_type_symbol
 _atom_site_label
 _atom_site_symmetry_multiplicity
 _atom_site_fract_x
 _atom_site_fract_y
 _atom_site_fract_z
 _atom_site_occupancy
  K  K0  1  0.61078400  0.00101400  0.00000000  1
  K  K1  1  0.59480600  0.99930900  0.50000000  1
  K  K2  1  0.99930900  0.59480600  0.50000000  1
  K  K3  1  0.00101400  0.61078400  0.00000000  1
  Ba  Ba0  1  0.39686100  0.39686100  0.50000000  1
  Ta  Ta0  1  0.99916400  0.23812900  0.75135400  1
  Ta  Ta1  1  0.99916400  0.23812900  0.24864600  1
  Ta  Ta2  1  0.23812900  0.99916400  0.24864600  1
  Ta  Ta3  1  0.23812900  0.99916400  0.75135400  1
  Ta  Ta4  1  0.76388700  0.76388700  0.25017100  1
  Ta  Ta5  1  0.76388700  0.76388700  0.74982900  1
  Si  Si0  1  0.33472800  0.66379400  0.79228900  1
  Si  Si1  1  0.33472800  0.66379400  0.20771100  1
  Si  Si2  1  0.66379400  0.33472800  0.79228900  1
  Si  Si3  1  0.66379400  0.33472800  0.20771100  1
  O  O0  1  0.17361900  0.17361900  0.23997100  1
  O  O1  1  0.76850900  0.76850900  0.50000000  1
  O  O2  1  0.18368400  0.48544200  0.72407000  1
  O  O3  1  0.18368400  0.48544200  0.27593000  1
  O  O4  1  0.51426500  0.69363600  0.72243400  1
  O  O5  1  0.51426500  0.69363600  0.27756600  1
  O  O6  1  0.33527700  0.66635800  0.00000000  1
  O  O7  1  0.82384800  0.00079500  0.76246700  1
  O  O8  1  0.82384800  0.00079500  0.23753300  1
  O  O9  1  0.30544000  0.81731500  0.26974000  1
  O  O10  1  0.30544000  0.81731500  0.73026000  1
  O  O11  1  0.00414500  0.23622000  0.50000000  1
  O  O12  1  0.99575900  0.26839500  0.00000000  1
  O  O13  1  0.00079500  0.82384800  0.23753300  1
  O  O14  1  0.26839500  0.99575900  0.00000000  1
  O  O15  1  0.23622000  0.00414500  0.50000000  1
  O  O16  1  0.81731500  0.30544000  0.26974000  1
  O  O17  1  0.81731500  0.30544000  0.73026000  1
  O  O18  1  0.48544200  0.18368400  0.72407000  1
  O  O19  1  0.48544200  0.18368400  0.27593000  1
  O  O20  1  0.66635800  0.33527700  0.00000000  1
  O  O21  1  0.17361900  0.17361900  0.76002900  1
  O  O22  1  0.69363600  0.51426500  0.72243400  1
  O  O23  1  0.69363600  0.51426500  0.27756600  1
  O  O24  1  0.00079500  0.82384800  0.76246700  1
  O  O25  1  0.73706700  0.73706700  0.00000000  1
loop_
_geom_bond_atom_site_label_1
_geom_bond_atom_site_label_2
_geom_bond_distance
_geom_bond_site_symmetry_2
K0 O7 2.704706 1_554
K0 O8 2.704706 1_555
K0 O20 2.846994 1_555
K0 O6 2.851243 1_545
K1 O19 2.940850 1_565
K1 O18 2.940850 1_565
K1 O7 2.941039 1_565
K1 O8 2.941039 1_565
K1 O9 2.954696 1_555
K1 O10 2.954696 1_555
K1 O4 3.068838 1_555
K1 O5 3.068838 1_555
K1 O17 3.108439 1_565
K1 O16 3.108439 1_565
K1 O1 3.216006 1_555
K1 O11 3.277191 1_665
K1 O15 3.309289 1_565
K2 O3 2.940850 1_655
K2 O2 2.940850 1_655
K2 O13 2.941039 1_655
K2 O24 2.941039 1_655
K2 O16 2.954696 1_555
K2 O17 2.954696 1_555
K2 O23 3.068838 1_555
K2 O22 3.068838 1_555
K2 O9 3.108439 1_655
K2 O10 3.108439 1_655
K2 O1 3.216006 1_555
K2 O15 3.277191 1_665
K2 O11 3.309289 1_655
K3 O13 2.704706 1_555
K3 O24 2.704706 1_554
K3 O6 2.846994 1_555
K3 O20 2.851243 1_455
Ba0 O21 2.902726 1_555
Ba0 O0 2.902726 1_555
Ba0 O5 2.954843 1_555
Ba0 O22 2.954843 1_555
Ba0 O23 2.954843 1_555
Ba0 O4 2.954843 1_555
Ba0 O18 3.026336 1_555
Ba0 O19 3.026336 1_555
Ba0 O3 3.026336 1_555
Ba0 O2 3.026336 1_555
Ba0 O15 3.144409 1_555
Ba0 O11 3.144409 1_555
O0 Ta1 1.961354 1_455
O0 Ta2 1.961354 1_545
O1 Ta5 1.967220 1_555
O1 Ta4 1.967220 1_555
O2 Si0 1.624958 1_555
O2 Ta0 2.062930 1_455
O3 Si1 1.624958 1_555
O3 Ta1 2.062930 1_455
O4 Si0 1.625059 1_555
O4 Ta5 2.059249 1_555
O5 Si1 1.625059 1_555
O5 Ta4 2.059249 1_555
O6 Si0 1.635329 1_554
O6 Si1 1.635329 1_555
O7 Ta5 1.961692 1_545
O7 Ta0 1.966455 1_555
O8 Ta4 1.961692 1_545
O8 Ta1 1.966455 1_555
O9 Si1 1.632379 1_555
O9 Ta2 2.050411 1_555
O10 Si0 1.632379 1_555
O10 Ta3 2.050411 1_555
O11 Ta0 1.979567 1_455
O11 Ta1 1.979567 1_455
O12 Ta1 1.979420 1_555
O12 Ta0 1.979420 1_554
O13 Ta4 1.961692 1_455
O13 Ta2 1.966455 1_555
O14 Ta2 1.979420 1_555
O14 Ta3 1.979420 1_554
O15 Ta3 1.979567 1_545
O15 Ta2 1.979567 1_545
O16 Si3 1.632379 1_555
O16 Ta1 2.050411 1_555
O17 Si2 1.632379 1_555
O17 Ta0 2.050411 1_555
O18 Si2 1.624958 1_555
O18 Ta3 2.062930 1_545
O19 Si3 1.624958 1_555
O19 Ta2 2.062930 1_545
O20 Si2 1.635329 1_554
O20 Si3 1.635329 1_555
O21 Ta0 1.961354 1_455
O21 Ta3 1.961354 1_545
O22 Si2 1.625059 1_555
O22 Ta5 2.059249 1_555
O23 Si3 1.625059 1_555
O23 Ta4 2.059249 1_555
O24 Ta5 1.961692 1_455
O24 Ta3 1.966455 1_555
O25 Ta4 1.984909 1_555
O25 Ta5 1.984909 1_554
