# generated using pymatgen
data_Ca22H51Rh11
_symmetry_space_group_name_H-M   'P 1'
_cell_length_a   5.07750551
_cell_length_b   5.14127281
_cell_length_c   56.04889556
_cell_angle_alpha   60.62259134
_cell_angle_beta   60.75848962
_cell_angle_gamma   59.77125391
_symmetry_Int_Tables_number   1
_chemical_formula_structural   Ca22H51Rh11
_chemical_formula_sum   'Ca22 H51 Rh11'
_cell_volume   1043.41062864
_cell_formula_units_Z   1
loop_
 _symmetry_equiv_pos_site_id
 _symmetry_equiv_pos_as_xyz
  1  'x, y, z'
loop_
 _atom_site_type_symbol
 _atom_site_label
 _atom_site_symmetry_multiplicity
 _atom_site_fract_x
 _atom_site_fract_y
 _atom_site_fract_z
 _atom_site_occupancy
  Ca  Ca0  1  0.24813800  0.24718900  0.02290500  1
  Ca  Ca1  1  0.24918200  0.24943400  0.11375500  1
  Ca  Ca2  1  0.24895700  0.24951500  0.20470300  1
  Ca  Ca3  1  0.74974400  0.74836600  0.06822700  1
  Ca  Ca4  1  0.74948000  0.74911400  0.15918300  1
  Ca  Ca5  1  0.24904800  0.24986600  0.29564500  1
  Ca  Ca6  1  0.74925700  0.74892000  0.25014000  1
  Ca  Ca7  1  0.25427200  0.25502800  0.38566100  1
  Ca  Ca8  1  0.25175900  0.25322000  0.47677800  1
  Ca  Ca9  1  0.74986100  0.75062200  0.34087100  1
  Ca  Ca10  1  0.25176800  0.25295700  0.56761100  1
  Ca  Ca11  1  0.75309800  0.75442900  0.43135300  1
  Ca  Ca12  1  0.75244700  0.75168000  0.52220200  1
  Ca  Ca13  1  0.25249600  0.25365100  0.65760300  1
  Ca  Ca14  1  0.75251500  0.75179600  0.61287600  1
  Ca  Ca15  1  0.24557200  0.24707000  0.75162000  1
  Ca  Ca16  1  0.75321100  0.75138800  0.70320400  1
  Ca  Ca17  1  0.24768700  0.24837200  0.84171800  1
  Ca  Ca18  1  0.24571300  0.24705200  0.93248300  1
  Ca  Ca19  1  0.74696900  0.74592000  0.79709500  1
  Ca  Ca20  1  0.74797500  0.74699700  0.88705200  1
  Ca  Ca21  1  0.74929600  0.74410700  0.97757600  1
  H  H0  1  0.24273000  0.76718400  0.06968800  1
  H  H1  1  0.77577700  0.23319200  0.02113100  1
  H  H2  1  0.76374400  0.25049500  0.06817100  1
  H  H3  1  0.76420800  0.74748200  0.02300200  1
  H  H4  1  0.24348700  0.76702900  0.16056700  1
  H  H5  1  0.77600500  0.23469800  0.11213500  1
  H  H6  1  0.76386000  0.25053100  0.15906400  1
  H  H7  1  0.76336700  0.75066100  0.11358500  1
  H  H8  1  0.77637100  0.23449000  0.20301200  1
  H  H9  1  0.24396200  0.76655400  0.25141300  1
  H  H10  1  0.76403500  0.25094100  0.24991800  1
  H  H11  1  0.76351700  0.75092000  0.20448200  1
  H  H12  1  0.24244600  0.76913800  0.34237000  1
  H  H13  1  0.77700900  0.23406600  0.29387600  1
  H  H14  1  0.76522000  0.25247700  0.34073500  1
  H  H15  1  0.76384600  0.75053400  0.29538500  1
  H  H16  1  0.23816800  0.77546000  0.43286100  1
  H  H17  1  0.77698900  0.23388200  0.38514100  1
  H  H18  1  0.24279200  0.77134800  0.47541900  1
  H  H19  1  0.77075400  0.24063100  0.43300100  1
  H  H20  1  0.76235900  0.74772100  0.38673600  1
  H  H21  1  0.23910100  0.77521100  0.52371000  1
  H  H22  1  0.77286000  0.24028300  0.47532800  1
  H  H23  1  0.24311300  0.77141200  0.56624200  1
  H  H24  1  0.77314100  0.24007100  0.52363200  1
  H  H25  1  0.74582100  0.74604400  0.47774500  1
  H  H26  1  0.23890000  0.77481100  0.61462500  1
  H  H27  1  0.77317700  0.24064100  0.56607500  1
  H  H28  1  0.23477800  0.23345800  0.70625500  1
  H  H29  1  0.24213400  0.77047200  0.65730700  1
  H  H30  1  0.77283700  0.23980300  0.61454300  1
  H  H31  1  0.74516900  0.74586400  0.56864000  1
  H  H32  1  0.77213000  0.23957200  0.65714200  1
  H  H33  1  0.23504100  0.76092100  0.70614000  1
  H  H34  1  0.24114400  0.76280500  0.74860900  1
  H  H35  1  0.75839200  0.23630500  0.70601200  1
  H  H36  1  0.74498600  0.74573800  0.65984900  1
  H  H37  1  0.76414500  0.23855300  0.74848500  1
  H  H38  1  0.24364900  0.77348400  0.79594600  1
  H  H39  1  0.24209300  0.77382900  0.83872800  1
  H  H40  1  0.77140200  0.24452700  0.79588400  1
  H  H41  1  0.76632800  0.76747700  0.74804300  1
  H  H42  1  0.77569800  0.23952200  0.83854900  1
  H  H43  1  0.24207500  0.77242400  0.88698300  1
  H  H44  1  0.24118200  0.77355500  0.92957300  1
  H  H45  1  0.77175100  0.24293400  0.88687900  1
  H  H46  1  0.74950200  0.75006700  0.84066800  1
  H  H47  1  0.77594600  0.23830300  0.92930700  1
  H  H48  1  0.24433500  0.76742100  0.97856800  1
  H  H49  1  0.76774800  0.25236900  0.97678800  1
  H  H50  1  0.74945400  0.75045500  0.93154300  1
  Rh  Rh0  1  0.98603600  0.99785800  0.99999500  1
  Rh  Rh1  1  0.98663600  0.99805900  0.09101000  1
  Rh  Rh2  1  0.98614600  0.99903400  0.18193700  1
  Rh  Rh3  1  0.98557000  0.99851200  0.36397800  1
  Rh  Rh4  1  0.99076900  0.99004200  0.45579500  1
  Rh  Rh5  1  0.98587100  0.99963500  0.27286400  1
  Rh  Rh6  1  0.98986100  0.98989700  0.63741700  1
  Rh  Rh7  1  0.99975300  0.99970500  0.72736000  1
  Rh  Rh8  1  0.99384900  0.99409100  0.81826900  1
  Rh  Rh9  1  0.99069600  0.99026500  0.54643300  1
  Rh  Rh10  1  0.99269000  0.99344600  0.90928100  1
loop_
_geom_bond_atom_site_label_1
_geom_bond_atom_site_label_2
_geom_bond_distance
_geom_bond_site_symmetry_2
Ca0 H1 2.486214 1_455
Ca0 H3 2.508072 1_455
Ca0 H2 2.527885 1_455
Ca0 H0 2.572085 1_545
Ca0 H3 2.586191 1_545
Ca0 H1 2.597158 1_555
Ca0 H48 2.608316 1_554
Ca0 H49 2.642593 1_554
Ca1 H5 2.487857 1_455
Ca1 H7 2.514722 1_455
Ca1 H6 2.531351 1_455
Ca1 H4 2.578718 1_545
Ca1 H7 2.578869 1_545
Ca1 H0 2.593826 1_555
Ca1 H5 2.595134 1_555
Ca1 H2 2.613988 1_555
Ca2 H8 2.487739 1_455
Ca2 H11 2.514262 1_455
Ca2 H10 2.527594 1_455
Ca2 H9 2.576981 1_545
Ca2 H11 2.579387 1_545
Ca2 H4 2.595113 1_555
Ca2 H8 2.595625 1_555
Ca2 H6 2.616393 1_555
Ca3 H0 2.488867 1_555
Ca3 H3 2.501954 1_555
Ca3 H2 2.526169 1_555
Ca3 H5 2.576458 1_555
Ca3 H7 2.582653 1_555
Ca3 H0 2.594928 1_655
Ca3 H1 2.594978 1_565
Ca3 H2 2.616532 1_565
Ca4 H4 2.487816 1_555
Ca4 H7 2.518192 1_555
Ca4 H6 2.530610 1_555
Ca4 H8 2.576966 1_555
Ca4 H11 2.579160 1_555
Ca4 H4 2.595365 1_655
Ca4 H5 2.595579 1_565
Ca4 H6 2.612132 1_565
Ca5 H13 2.489398 1_455
Ca5 H15 2.511654 1_455
Ca5 H14 2.521244 1_455
Ca5 H12 2.572042 1_545
Ca5 H15 2.581844 1_545
Ca5 H13 2.594547 1_555
Ca5 H9 2.595306 1_555
Ca5 H10 2.619036 1_555
Ca6 H9 2.487790 1_555
Ca6 H11 2.519553 1_555
Ca6 H10 2.529338 1_555
Ca6 H13 2.575129 1_555
Ca6 H15 2.577072 1_555
Ca6 H9 2.594905 1_655
Ca6 H8 2.597991 1_565
Ca6 H10 2.613440 1_565
Ca7 H17 2.494588 1_455
Ca7 H20 2.508131 1_455
Ca7 H12 2.562744 1_555
Ca7 H16 2.583912 1_545
Ca7 H20 2.585406 1_545
Ca7 H14 2.585958 1_555
Ca7 H17 2.587258 1_555
Ca7 H19 2.588276 1_455
Ca8 H22 2.506989 1_455
Ca8 H18 2.539226 1_545
Ca8 H25 2.543003 1_455
Ca8 H25 2.550094 1_545
Ca8 H24 2.561842 1_455
Ca8 H21 2.571880 1_545
Ca8 H22 2.574839 1_555
Ca8 H19 2.576025 1_555
Ca8 H16 2.601527 1_555
Ca8 H18 2.605014 1_555
Ca9 H12 2.490659 1_555
Ca9 H15 2.515735 1_555
Ca9 H14 2.526427 1_555
Ca9 H13 2.588785 1_565
Ca9 H12 2.593169 1_655
Ca9 H17 2.594547 1_555
Ca9 H20 2.594892 1_555
Ca9 H14 2.616517 1_565
Ca10 H27 2.506238 1_455
Ca10 H23 2.537007 1_545
Ca10 H31 2.544946 1_455
Ca10 H31 2.548267 1_545
Ca10 H30 2.564975 1_455
Ca10 H26 2.574707 1_545
Ca10 H27 2.575719 1_555
Ca10 H24 2.587838 1_555
Ca10 H21 2.601311 1_555
Ca10 H23 2.607199 1_555
Ca11 H20 2.495029 1_555
Ca11 H16 2.522532 1_555
Ca11 H19 2.554357 1_555
Ca11 H17 2.555328 1_565
Ca11 H18 2.559879 1_555
Ca11 H25 2.561666 1_555
Ca11 H16 2.562310 1_655
Ca11 H22 2.579683 1_555
Ca11 H19 2.593322 1_565
Ca12 H21 2.508584 1_555
Ca12 H25 2.522814 1_555
Ca12 H24 2.541487 1_555
Ca12 H23 2.556604 1_555
Ca12 H27 2.568395 1_555
Ca12 H31 2.570526 1_555
Ca12 H21 2.577333 1_655
Ca12 H18 2.588393 1_655
Ca12 H22 2.597011 1_565
Ca12 H24 2.606469 1_565
Ca13 H32 2.489197 1_455
Ca13 H29 2.519317 1_545
Ca13 H36 2.547148 1_455
Ca13 H36 2.549106 1_545
Ca13 H30 2.561194 1_555
Ca13 H26 2.574962 1_555
Ca13 H32 2.590411 1_555
Ca13 H29 2.623005 1_555
Ca13 H28 2.635675 1_555
Ca13 H35 2.646017 1_455
Ca13 H33 2.656145 1_545
Ca14 H26 2.505108 1_555
Ca14 H31 2.513031 1_555
Ca14 H30 2.538304 1_555
Ca14 H29 2.570133 1_555
Ca14 H26 2.581626 1_655
Ca14 H32 2.582181 1_555
Ca14 H23 2.584648 1_655
Ca14 H27 2.595551 1_565
Ca14 H36 2.599308 1_555
Ca14 H30 2.610447 1_565
Ca15 H40 2.473061 1_455
Ca15 H38 2.483175 1_545
Ca15 H37 2.530854 1_555
Ca15 H41 2.552215 1_545
Ca15 H41 2.552415 1_455
Ca15 H37 2.557945 1_455
Ca15 H34 2.562083 1_555
Ca15 H34 2.588455 1_545
Ca15 H28 2.605303 1_555
Ca15 H35 2.609287 1_555
Ca15 H33 2.619900 1_555
Ca16 H36 2.465180 1_555
Ca16 H33 2.531162 1_555
Ca16 H28 2.550376 1_655
Ca16 H28 2.551089 1_565
Ca16 H33 2.556715 1_655
Ca16 H29 2.559008 1_655
Ca16 H35 2.561897 1_555
Ca16 H32 2.572360 1_565
Ca16 H35 2.587666 1_565
Ca16 H41 2.588507 1_555
Ca16 H34 2.601628 1_555
Ca16 H37 2.611713 1_555
Ca17 H45 2.504034 1_455
Ca17 H42 2.512082 1_455
Ca17 H43 2.516709 1_545
Ca17 H39 2.541038 1_545
Ca17 H46 2.545968 1_455
Ca17 H46 2.547095 1_545
Ca17 H42 2.577040 1_555
Ca17 H39 2.609653 1_555
Ca17 H40 2.644599 1_555
Ca17 H38 2.659131 1_555
Ca18 H49 2.483737 1_455
Ca18 H47 2.500764 1_455
Ca18 H44 2.530403 1_545
Ca18 H50 2.545543 1_455
Ca18 H50 2.547214 1_545
Ca18 H48 2.550141 1_545
Ca18 H47 2.588373 1_555
Ca18 H44 2.619582 1_555
Ca18 H45 2.644629 1_555
Ca18 H43 2.652790 1_555
Ca19 H46 2.459086 1_555
Ca19 H39 2.480166 1_555
Ca19 H42 2.492353 1_555
Ca19 H38 2.518441 1_555
Ca19 H40 2.550779 1_555
Ca19 H38 2.564453 1_655
Ca19 H40 2.594741 1_565
Ca19 H34 2.648525 1_655
Ca19 H41 2.651159 1_555
Ca19 H37 2.658107 1_565
Ca20 H50 2.506132 1_555
Ca20 H43 2.507283 1_555
Ca20 H44 2.508800 1_555
Ca20 H47 2.519275 1_555
Ca20 H45 2.537551 1_555
Ca20 H43 2.575154 1_655
Ca20 H46 2.588300 1_555
Ca20 H45 2.607761 1_565
Ca20 H39 2.644338 1_655
Ca20 H42 2.655832 1_565
Ca21 H48 2.479733 1_555
Ca21 H49 2.503862 1_555
Ca21 H1 2.559508 1_556
Ca21 H50 2.563857 1_555
Ca21 H3 2.592596 1_556
Ca21 H48 2.604209 1_655
Ca21 H44 2.629755 1_655
Ca21 H49 2.639759 1_565
Ca21 H47 2.652856 1_565
H0 Rh1 1.687425 1_455
H1 Rh0 1.696195 1_544
H2 Rh1 1.705962 1_545
H3 Rh0 1.732280 1_554
H4 Rh2 1.693545 1_455
H5 Rh1 1.700567 1_545
H6 Rh2 1.705031 1_545
H7 Rh1 1.724958 1_555
H8 Rh2 1.694302 1_545
H9 Rh5 1.700553 1_455
H10 Rh5 1.706378 1_545
H11 Rh2 1.725307 1_555
H12 Rh3 1.693482 1_455
H13 Rh5 1.688119 1_545
H14 Rh3 1.714045 1_545
H15 Rh5 1.726795 1_555
H16 Rh4 1.692858 1_455
H17 Rh3 1.698083 1_545
H18 Rh4 1.680626 1_455
H19 Rh4 1.694199 1_545
H20 Rh3 1.737659 1_555
H21 Rh9 1.686226 1_455
H22 Rh4 1.686174 1_545
H23 Rh9 1.689340 1_455
H24 Rh9 1.686200 1_545
H25 Rh4 1.787730 1_555
H26 Rh6 1.689243 1_455
H27 Rh9 1.691091 1_545
H28 Rh7 1.713998 1_445
H29 Rh6 1.691869 1_455
H30 Rh6 1.687385 1_545
H31 Rh9 1.791405 1_555
H32 Rh6 1.691616 1_545
H33 Rh7 1.707787 1_455
H34 Rh7 1.704102 1_455
H35 Rh7 1.707870 1_545
H36 Rh6 1.788369 1_555
H37 Rh7 1.704257 1_545
H38 Rh8 1.689368 1_455
H39 Rh8 1.699091 1_455
H40 Rh8 1.686094 1_545
H41 Rh7 1.702551 1_555
H42 Rh8 1.697336 1_545
H43 Rh10 1.689679 1_455
H44 Rh10 1.693452 1_455
H45 Rh10 1.681497 1_545
H46 Rh8 1.785952 1_555
H47 Rh10 1.685315 1_545
H48 Rh0 1.690735 1_455
H49 Rh0 1.706119 1_545
H50 Rh10 1.778074 1_555
