# generated using pymatgen
data_AlPO4
_symmetry_space_group_name_H-M   'P 1'
_cell_length_a   8.60617200
_cell_length_b   9.12532306
_cell_length_c   9.51533714
_cell_angle_alpha   97.05074339
_cell_angle_beta   111.31504040
_cell_angle_gamma   93.47755799
_symmetry_Int_Tables_number   1
_chemical_formula_structural   AlPO4
_chemical_formula_sum   'Al8 P8 O32'
_cell_volume   686.40337881
_cell_formula_units_Z   8
loop_
 _symmetry_equiv_pos_site_id
 _symmetry_equiv_pos_as_xyz
  1  'x, y, z'
loop_
 _atom_site_type_symbol
 _atom_site_label
 _atom_site_symmetry_multiplicity
 _atom_site_fract_x
 _atom_site_fract_y
 _atom_site_fract_z
 _atom_site_occupancy
  Al  Al0  1  0.42576700  0.61676800  0.55367400  1
  Al  Al1  1  0.57423300  0.38323200  0.44632600  1
  Al  Al2  1  0.00452500  0.10552600  0.90246600  1
  Al  Al3  1  0.99547500  0.89447400  0.09753400  1
  Al  Al4  1  0.82479700  0.17027700  0.13598300  1
  Al  Al5  1  0.17520300  0.82972300  0.86401700  1
  Al  Al6  1  0.20497500  0.34928600  0.54038700  1
  Al  Al7  1  0.79502500  0.65071400  0.45961300  1
  P  P0  1  0.22629300  0.77952100  0.27415400  1
  P  P1  1  0.25296600  0.08757200  0.74588200  1
  P  P2  1  0.12102300  0.55887400  0.70149600  1
  P  P3  1  0.77370700  0.22047900  0.72584600  1
  P  P4  1  0.74703400  0.91242800  0.25411800  1
  P  P5  1  0.47399000  0.94202400  0.18906800  1
  P  P6  1  0.52601000  0.05797600  0.81093200  1
  P  P7  1  0.87897700  0.44112600  0.29850400  1
  O  O0  1  0.39405900  0.40126600  0.50335900  1
  O  O1  1  0.41263400  0.81775300  0.26389100  1
  O  O2  1  0.72525000  0.31637000  0.60361800  1
  O  O3  1  0.24718400  0.55897300  0.61630700  1
  O  O4  1  0.45857400  0.08655600  0.29653400  1
  O  O5  1  0.51294900  0.23538500  0.27144400  1
  O  O6  1  0.21416100  0.64206900  0.86543400  1
  O  O7  1  0.27475000  0.68363000  0.39638200  1
  O  O8  1  0.98215000  0.09663000  0.08613200  1
  O  O9  1  0.01785000  0.90337000  0.91386800  1
  O  O10  1  0.36571500  0.92498600  0.02040800  1
  O  O11  1  0.22866600  0.16859500  0.60962100  1
  O  O12  1  0.89929700  0.28713600  0.88589200  1
  O  O13  1  0.75281600  0.44102700  0.38369300  1
  O  O14  1  0.18234400  0.92187800  0.70679800  1
  O  O15  1  0.60594100  0.59873400  0.49664100  1
  O  O16  1  0.07591400  0.39138200  0.67601900  1
  O  O17  1  0.63428500  0.07501400  0.97959200  1
  O  O18  1  0.20011100  0.16200200  0.87288600  1
  O  O19  1  0.48705100  0.76461500  0.72855600  1
  O  O20  1  0.84121600  0.07189300  0.69859500  1
  O  O21  1  0.92408600  0.60861800  0.32398100  1
  O  O22  1  0.02562300  0.34519800  0.36360100  1
  O  O23  1  0.81765600  0.07812200  0.29320200  1
  O  O24  1  0.79988900  0.83799800  0.12711400  1
  O  O25  1  0.77133400  0.83140500  0.39037900  1
  O  O26  1  0.54142600  0.91344400  0.70346600  1
  O  O27  1  0.15878400  0.92810700  0.30140500  1
  O  O28  1  0.78583900  0.35793100  0.13456600  1
  O  O29  1  0.97437700  0.65480200  0.63639900  1
  O  O30  1  0.58736600  0.18224700  0.73610900  1
  O  O31  1  0.10070300  0.71286400  0.11410800  1
loop_
_geom_bond_atom_site_label_1
_geom_bond_atom_site_label_2
_geom_bond_distance
_geom_bond_site_symmetry_2
Al0 O7 1.791015 1_555
Al0 O15 1.829419 1_555
Al0 O19 1.895244 1_555
Al0 O3 1.907923 1_555
Al0 O0 1.944141 1_555
Al1 O2 1.791015 1_555
Al1 O0 1.829419 1_555
Al1 O5 1.895244 1_555
Al1 O13 1.907923 1_555
Al1 O15 1.944141 1_555
Al2 O8 1.837258 1_456
Al2 O18 1.858209 1_555
Al2 O9 1.869154 1_545
Al2 O20 1.911056 1_455
Al2 O12 1.932326 1_455
Al3 O9 1.837258 1_654
Al3 O24 1.858209 1_555
Al3 O8 1.869154 1_565
Al3 O27 1.911056 1_655
Al3 O31 1.932326 1_655
Al4 O8 1.734843 1_555
Al4 O28 1.765489 1_555
Al4 O23 1.821639 1_555
Al4 O17 1.842317 1_554
Al5 O9 1.734843 1_555
Al5 O6 1.765489 1_555
Al5 O14 1.821639 1_555
Al5 O10 1.842317 1_556
Al6 O22 1.817578 1_555
Al6 O0 1.833415 1_555
Al6 O11 1.845027 1_555
Al6 O3 1.923723 1_555
Al6 O16 2.004758 1_555
Al7 O29 1.817578 1_555
Al7 O15 1.833415 1_555
Al7 O25 1.845027 1_555
Al7 O13 1.923723 1_555
Al7 O21 2.004758 1_555
O1 P5 1.571809 1_555
O1 P0 1.660540 1_555
O2 P3 1.494581 1_555
O3 P2 1.573487 1_555
O4 O5 1.484645 1_555
O4 P5 1.609821 1_545
O6 P2 1.542289 1_555
O7 P0 1.494581 1_555
O10 P5 1.517245 1_555
O11 P1 1.525928 1_555
O12 P3 1.534150 1_555
O13 P7 1.573487 1_555
O14 P1 1.542735 1_565
O16 P2 1.521243 1_555
O17 P6 1.517245 1_555
O18 P1 1.537621 1_555
O19 O26 1.484645 1_555
O20 P3 1.536887 1_555
O21 P7 1.521243 1_555
O22 P7 1.562554 1_455
O23 P4 1.542735 1_545
O24 P4 1.537621 1_555
O25 P4 1.525928 1_555
O26 P6 1.609821 1_565
O27 P0 1.536887 1_555
O28 P7 1.542289 1_555
O29 P2 1.562554 1_655
O30 P6 1.571809 1_555
O30 P3 1.660540 1_555
O31 P0 1.534150 1_555
