# generated using pymatgen
data_NbH12C4NO13
_symmetry_space_group_name_H-M   'P 1'
_cell_length_a   13.64340400
_cell_length_b   6.97284400
_cell_length_c   8.88029208
_cell_angle_alpha   69.71384684
_cell_angle_beta   90.00000000
_cell_angle_gamma   90.00000000
_symmetry_Int_Tables_number   1
_chemical_formula_structural   NbH12C4NO13
_chemical_formula_sum   'Nb2 H24 C8 N2 O26'
_cell_volume   792.41038952
_cell_formula_units_Z   2
loop_
 _symmetry_equiv_pos_site_id
 _symmetry_equiv_pos_as_xyz
  1  'x, y, z'
loop_
 _atom_site_type_symbol
 _atom_site_label
 _atom_site_symmetry_multiplicity
 _atom_site_fract_x
 _atom_site_fract_y
 _atom_site_fract_z
 _atom_site_occupancy
  Nb  Nb0  1  0.25000000  0.32762900  0.82942000  1
  Nb  Nb1  1  0.75000000  0.67237100  0.17058000  1
  H  H0  1  0.25000000  0.92598700  0.94062500  1
  H  H1  1  0.19350300  0.80086500  0.61546700  1
  H  H2  1  0.07762300  0.61193100  0.59719900  1
  H  H3  1  0.27757300  0.58774000  0.17666600  1
  H  H4  1  0.75000000  0.07401300  0.05937500  1
  H  H5  1  0.87495000  0.37318700  0.63022600  1
  H  H6  1  0.42305700  0.34066800  0.93659400  1
  H  H7  1  0.12505000  0.62681300  0.36977400  1
  H  H8  1  0.92237700  0.38806900  0.40280100  1
  H  H9  1  0.72242700  0.41226000  0.82333400  1
  H  H10  1  0.22242700  0.58774000  0.17666600  1
  H  H11  1  0.25000000  0.53901900  0.59123500  1
  H  H12  1  0.80649700  0.19913500  0.38453300  1
  H  H13  1  0.92305700  0.65933200  0.06340600  1
  H  H14  1  0.69350300  0.19913500  0.38453300  1
  H  H15  1  0.57762300  0.38806900  0.40280100  1
  H  H16  1  0.37495000  0.62681300  0.36977400  1
  H  H17  1  0.77757300  0.41226000  0.82333400  1
  H  H18  1  0.07694300  0.34066800  0.93659400  1
  H  H19  1  0.57694300  0.65933200  0.06340600  1
  H  H20  1  0.30649700  0.80086500  0.61546700  1
  H  H21  1  0.75000000  0.46098100  0.40876500  1
  H  H22  1  0.62505000  0.37318700  0.63022600  1
  H  H23  1  0.42237700  0.61193100  0.59719900  1
  C  C0  1  0.44409600  0.69752200  0.30876700  1
  C  C1  1  0.55590400  0.30247800  0.69123300  1
  C  C2  1  0.49107500  0.21186200  0.58897400  1
  C  C3  1  0.00892500  0.21186200  0.58897400  1
  C  C4  1  0.99107500  0.78813800  0.41102600  1
  C  C5  1  0.50892500  0.78813800  0.41102600  1
  C  C6  1  0.05590400  0.69752200  0.30876700  1
  C  C7  1  0.94409600  0.30247800  0.69123300  1
  N  N0  1  0.75000000  0.02848400  0.65065200  1
  N  N1  1  0.25000000  0.97151600  0.34934800  1
  O  O0  1  0.33480700  0.50480000  0.64013300  1
  O  O1  1  0.56908200  0.92149900  0.35016500  1
  O  O2  1  0.43091800  0.07850100  0.64983500  1
  O  O3  1  0.51106900  0.29297900  0.43379200  1
  O  O4  1  0.53601100  0.29900800  0.82601300  1
  O  O5  1  0.01106900  0.70702100  0.56620800  1
  O  O6  1  0.75000000  0.95018900  0.15497600  1
  O  O7  1  0.25000000  0.04981100  0.84502400  1
  O  O8  1  0.06908200  0.07850100  0.64983500  1
  O  O9  1  0.83480700  0.49520000  0.35986700  1
  O  O10  1  0.85424500  0.65752400  0.03065800  1
  O  O11  1  0.03601100  0.70099200  0.17398700  1
  O  O12  1  0.46398900  0.70099200  0.17398700  1
  O  O13  1  0.64575500  0.65752400  0.03065800  1
  O  O14  1  0.75000000  0.10356400  0.41153000  1
  O  O15  1  0.66519300  0.49520000  0.35986700  1
  O  O16  1  0.35424500  0.34247600  0.96934200  1
  O  O17  1  0.75000000  0.85561800  0.70576800  1
  O  O18  1  0.48893100  0.70702100  0.56620800  1
  O  O19  1  0.14575500  0.34247600  0.96934200  1
  O  O20  1  0.96398900  0.29900800  0.82601300  1
  O  O21  1  0.16519300  0.50480000  0.64013300  1
  O  O22  1  0.98893100  0.29297900  0.43379200  1
  O  O23  1  0.93091800  0.92149900  0.35016500  1
  O  O24  1  0.25000000  0.14438200  0.29423200  1
  O  O25  1  0.25000000  0.89643600  0.58847000  1
loop_
_geom_bond_atom_site_label_1
_geom_bond_atom_site_label_2
_geom_bond_distance
_geom_bond_site_symmetry_2
Nb0 O7 1.893605 1_555
Nb0 O16 1.914851 1_555
Nb0 O19 1.914851 1_555
Nb0 O0 2.061678 1_555
Nb0 O21 2.061678 1_555
Nb1 O6 1.893605 1_555
Nb1 O10 1.914851 1_555
Nb1 O13 1.914851 1_555
Nb1 O9 2.061678 1_555
Nb1 O15 2.061678 1_555
H0 O7 0.978741 1_565
H1 O25 0.992438 1_555
H2 O5 1.101520 1_555
H2 O21 1.390441 1_555
H4 O6 0.978741 1_545
H6 O16 0.984213 1_555
H8 O22 1.101520 1_555
H8 O9 1.390441 1_555
H10 H3 0.752379 1_555
H11 O0 1.229805 1_555
H11 O21 1.229805 1_555
H12 O14 0.992438 1_555
H13 O10 0.984213 1_555
H14 O14 0.992438 1_555
H15 O3 1.101520 1_555
H15 O15 1.390441 1_555
H17 H9 0.752379 1_555
H18 O19 0.984213 1_555
H19 O13 0.984213 1_555
H20 O25 0.992438 1_555
H21 O9 1.229805 1_555
H21 O15 1.229805 1_555
H23 O18 1.101520 1_555
H23 O0 1.390441 1_555
C0 H16 1.114161 1_555
C0 O12 1.219304 1_555
C1 H22 1.114161 1_555
C1 O4 1.219304 1_555
C2 O2 1.217354 1_555
C2 O3 1.323971 1_555
C3 O8 1.217354 1_555
C3 O22 1.323971 1_455
C4 O23 1.217354 1_555
C4 O5 1.323971 1_655
C5 O1 1.217354 1_555
C5 O18 1.323971 1_555
C6 H7 1.114161 1_555
C6 O11 1.219304 1_555
C7 H5 1.114161 1_555
C7 O20 1.219304 1_555
N0 O17 1.132863 1_545
N0 O14 2.003086 1_555
N1 O24 1.132863 1_565
N1 O25 2.003086 1_555
