# generated using pymatgen
data_NaCa9TaTi9O30
_symmetry_space_group_name_H-M   'P 1'
_cell_length_a   38.47727400
_cell_length_b   5.42412300
_cell_length_c   5.52755243
_cell_angle_alpha   89.97743433
_cell_angle_beta   90.00000000
_cell_angle_gamma   90.00000000
_symmetry_Int_Tables_number   1
_chemical_formula_structural   NaCa9TaTi9O30
_chemical_formula_sum   'Na2 Ca18 Ta2 Ti18 O60'
_cell_volume   1153.63032087
_cell_formula_units_Z   2
loop_
 _symmetry_equiv_pos_site_id
 _symmetry_equiv_pos_as_xyz
  1  'x, y, z'
loop_
 _atom_site_type_symbol
 _atom_site_label
 _atom_site_symmetry_multiplicity
 _atom_site_fract_x
 _atom_site_fract_y
 _atom_site_fract_z
 _atom_site_occupancy
  Na  Na0  1  0.00000000  0.48859300  0.47697000  1
  Na  Na1  1  0.00000000  0.00929700  0.96923600  1
  Ca  Ca0  1  0.30051700  0.98596000  0.04296900  1
  Ca  Ca1  1  0.50000000  0.98771900  0.04259600  1
  Ca  Ca2  1  0.69948300  0.98596000  0.04296900  1
  Ca  Ca3  1  0.89885300  0.99006900  0.04673200  1
  Ca  Ca4  1  0.10114700  0.99006900  0.04673200  1
  Ca  Ca5  1  0.50000000  0.51171700  0.54224500  1
  Ca  Ca6  1  0.30065700  0.50951800  0.54111200  1
  Ca  Ca7  1  0.69934300  0.50951800  0.54111200  1
  Ca  Ca8  1  0.89839500  0.51479300  0.54375700  1
  Ca  Ca9  1  0.10160500  0.51479300  0.54375700  1
  Ca  Ca10  1  0.20098600  0.48988900  0.45613500  1
  Ca  Ca11  1  0.40023500  0.48820100  0.45772400  1
  Ca  Ca12  1  0.79901400  0.48988900  0.45613500  1
  Ca  Ca13  1  0.59976500  0.48820100  0.45772400  1
  Ca  Ca14  1  0.40017700  0.01211600  0.95739200  1
  Ca  Ca15  1  0.20079700  0.01411400  0.95476900  1
  Ca  Ca16  1  0.79920300  0.01411400  0.95476900  1
  Ca  Ca17  1  0.59982300  0.01211600  0.95739200  1
  Ta  Ta0  1  0.05039400  0.49488900  0.00643500  1
  Ta  Ta1  1  0.94960600  0.49488900  0.00643500  1
  Ti  Ti0  1  0.25008600  0.98818700  0.49880600  1
  Ti  Ti1  1  0.34988100  0.99920400  0.50025300  1
  Ti  Ti2  1  0.45001500  0.99925600  0.49978900  1
  Ti  Ti3  1  0.54998500  0.99925600  0.49978900  1
  Ti  Ti4  1  0.74991400  0.98818700  0.49880600  1
  Ti  Ti5  1  0.95161500  0.00155000  0.51060300  1
  Ti  Ti6  1  0.04838500  0.00155000  0.51060300  1
  Ti  Ti7  1  0.25095800  0.48982700  0.99520700  1
  Ti  Ti8  1  0.45018400  0.49938900  0.99959400  1
  Ti  Ti9  1  0.64925400  0.49911700  0.99956100  1
  Ti  Ti10  1  0.84829000  0.51399600  0.00267800  1
  Ti  Ti11  1  0.15171000  0.51399600  0.00267800  1
  Ti  Ti12  1  0.35074600  0.49911700  0.99956100  1
  Ti  Ti13  1  0.54981600  0.49938900  0.99959400  1
  Ti  Ti14  1  0.74904200  0.48982700  0.99520700  1
  Ti  Ti15  1  0.14999900  0.01578500  0.49902500  1
  Ti  Ti16  1  0.65011900  0.99920400  0.50025300  1
  Ti  Ti17  1  0.85000100  0.01578500  0.49902500  1
  O  O0  1  0.20108200  0.91989500  0.52002100  1
  O  O1  1  0.40027200  0.92045300  0.51955600  1
  O  O2  1  0.59972800  0.92045300  0.51955600  1
  O  O3  1  0.79891800  0.91989500  0.52002100  1
  O  O4  1  0.00000000  0.92372000  0.51537300  1
  O  O5  1  0.25919300  0.78933000  0.78718400  1
  O  O6  1  0.45862200  0.78656600  0.78609400  1
  O  O7  1  0.54137800  0.78656600  0.78609400  1
  O  O8  1  0.74080700  0.78933000  0.78718400  1
  O  O9  1  0.65818100  0.78707200  0.78608900  1
  O  O10  1  0.85779000  0.78623500  0.78799200  1
  O  O11  1  0.34181900  0.78707200  0.78608900  1
  O  O12  1  0.93991700  0.78219400  0.77759300  1
  O  O13  1  0.06008300  0.78219400  0.77759300  1
  O  O14  1  0.14221000  0.78623500  0.78799200  1
  O  O15  1  0.25905800  0.71509700  0.28750600  1
  O  O16  1  0.34178900  0.71418200  0.28577900  1
  O  O17  1  0.45859300  0.71356900  0.28589000  1
  O  O18  1  0.54140700  0.71356900  0.28589000  1
  O  O19  1  0.74094200  0.71509700  0.28750600  1
  O  O20  1  0.85794500  0.70817700  0.28536200  1
  O  O21  1  0.06044100  0.71438500  0.28067100  1
  O  O22  1  0.93955900  0.71438500  0.28067100  1
  O  O23  1  0.65821100  0.71418200  0.28577900  1
  O  O24  1  0.14205500  0.70817700  0.28536200  1
  O  O25  1  0.20046200  0.58271800  0.01996300  1
  O  O26  1  0.40016100  0.58089300  0.01954000  1
  O  O27  1  0.79953800  0.58271800  0.01996300  1
  O  O28  1  0.00000000  0.57710000  0.01519800  1
  O  O29  1  0.59983900  0.58089300  0.01954000  1
  O  O30  1  0.50000000  0.41985900  0.98099800  1
  O  O31  1  0.69972200  0.42018000  0.98100900  1
  O  O32  1  0.30027800  0.42018000  0.98100900  1
  O  O33  1  0.10090500  0.41585100  0.97691600  1
  O  O34  1  0.89909500  0.41585100  0.97691600  1
  O  O35  1  0.15945200  0.28735100  0.71077100  1
  O  O36  1  0.24188000  0.29089000  0.71555900  1
  O  O37  1  0.44157700  0.28711000  0.71477900  1
  O  O38  1  0.35878700  0.28803600  0.71479900  1
  O  O39  1  0.75812000  0.29089000  0.71555900  1
  O  O40  1  0.55842300  0.28711000  0.71477900  1
  O  O41  1  0.64121300  0.28803600  0.71479900  1
  O  O42  1  0.84054800  0.28735100  0.71077100  1
  O  O43  1  0.95681900  0.28357200  0.70825900  1
  O  O44  1  0.04318100  0.28357200  0.70825900  1
  O  O45  1  0.15937000  0.20893000  0.21117200  1
  O  O46  1  0.35884300  0.21477300  0.21395300  1
  O  O47  1  0.24204200  0.21661900  0.21364400  1
  O  O48  1  0.55844400  0.21389500  0.21413100  1
  O  O49  1  0.75795800  0.21661900  0.21364400  1
  O  O50  1  0.84063000  0.20893000  0.21117200  1
  O  O51  1  0.44155600  0.21389500  0.21413100  1
  O  O52  1  0.64115700  0.21477300  0.21395300  1
  O  O53  1  0.95625200  0.20442800  0.21036100  1
  O  O54  1  0.04374800  0.20442800  0.21036100  1
  O  O55  1  0.30064100  0.08123400  0.48072000  1
  O  O56  1  0.50000000  0.08032700  0.48071100  1
  O  O57  1  0.69935900  0.08123400  0.48072000  1
  O  O58  1  0.89873100  0.08133800  0.48048300  1
  O  O59  1  0.10126900  0.08133800  0.48048300  1
loop_
_geom_bond_atom_site_label_1
_geom_bond_atom_site_label_2
_geom_bond_distance
_geom_bond_site_symmetry_2
Na0 O4 2.369792 1_555
Na0 O44 2.372880 1_555
Na0 O43 2.372880 1_455
Na0 O28 2.597037 1_555
Na0 O54 2.717136 1_555
Na0 O53 2.717136 1_455
Na0 O22 2.843357 1_455
Na0 O21 2.843357 1_555
Na1 O28 2.357916 1_546
Na1 O53 2.394014 1_456
Na1 O54 2.394014 1_556
Na1 O4 2.551512 1_545
Na1 O44 2.655766 1_555
Na1 O43 2.655766 1_455
Na1 O13 2.825802 1_545
Na1 O12 2.825802 1_445
Ca0 O32 2.379918 1_564
Ca0 O5 2.380322 1_554
Ca0 O11 2.388867 1_554
Ca0 O55 2.474465 1_565
Ca0 O16 2.548487 1_555
Ca0 O15 2.555150 1_555
Ca0 O46 2.733328 1_565
Ca0 O47 2.742004 1_565
Ca1 O30 2.368448 1_564
Ca1 O6 2.395147 1_554
Ca1 O7 2.395147 1_554
Ca1 O56 2.473445 1_565
Ca1 O18 2.560582 1_555
Ca1 O17 2.560582 1_555
Ca1 O51 2.731656 1_565
Ca1 O48 2.731656 1_565
Ca2 O31 2.379918 1_564
Ca2 O8 2.380322 1_554
Ca2 O9 2.388867 1_554
Ca2 O57 2.474465 1_565
Ca2 O23 2.548487 1_555
Ca2 O19 2.555150 1_555
Ca2 O52 2.733328 1_565
Ca2 O49 2.742004 1_565
Ca3 O34 2.341383 1_564
Ca3 O10 2.401143 1_554
Ca3 O12 2.445885 1_554
Ca3 O58 2.448353 1_565
Ca3 O22 2.521869 1_555
Ca3 O20 2.560026 1_555
Ca3 O53 2.654903 1_565
Ca3 O50 2.693528 1_565
Ca4 O33 2.341383 1_564
Ca4 O14 2.401143 1_554
Ca4 O13 2.445885 1_554
Ca4 O59 2.448353 1_565
Ca4 O21 2.521869 1_555
Ca4 O24 2.560026 1_555
Ca4 O54 2.654903 1_565
Ca4 O45 2.693528 1_565
Ca5 O56 2.364637 1_555
Ca5 O18 2.396629 1_555
Ca5 O17 2.396629 1_555
Ca5 O30 2.475690 1_555
Ca5 O6 2.564320 1_555
Ca5 O7 2.564320 1_555
Ca5 O37 2.728767 1_555
Ca5 O40 2.728767 1_555
Ca6 O55 2.347057 1_555
Ca6 O16 2.393296 1_555
Ca6 O15 2.401928 1_555
Ca6 O32 2.479225 1_555
Ca6 O11 2.571026 1_555
Ca6 O5 2.588550 1_555
Ca6 O38 2.714185 1_555
Ca6 O36 2.729454 1_555
Ca7 O57 2.347057 1_555
Ca7 O23 2.393296 1_555
Ca7 O19 2.401928 1_555
Ca7 O31 2.479225 1_555
Ca7 O9 2.571026 1_555
Ca7 O8 2.588550 1_555
Ca7 O41 2.714185 1_555
Ca7 O39 2.729454 1_555
Ca8 O20 2.358285 1_555
Ca8 O58 2.377157 1_555
Ca8 O22 2.407123 1_555
Ca8 O34 2.453660 1_555
Ca8 O12 2.515619 1_555
Ca8 O10 2.536315 1_555
Ca8 O42 2.706931 1_555
Ca8 O43 2.729899 1_555
Ca9 O24 2.358285 1_555
Ca9 O59 2.377157 1_555
Ca9 O21 2.407123 1_555
Ca9 O33 2.453660 1_555
Ca9 O13 2.515619 1_555
Ca9 O14 2.536315 1_555
Ca9 O35 2.706931 1_555
Ca9 O44 2.729899 1_555
Ca10 O0 2.359127 1_555
Ca10 O36 2.386638 1_555
Ca10 O35 2.395987 1_555
Ca10 O25 2.462869 1_555
Ca10 O47 2.547701 1_555
Ca10 O45 2.592600 1_555
Ca10 O15 2.711623 1_555
Ca10 O24 2.726473 1_555
Ca11 O1 2.369502 1_555
Ca11 O37 2.395376 1_555
Ca11 O38 2.395873 1_555
Ca11 O26 2.473525 1_555
Ca11 O46 2.559953 1_555
Ca11 O51 2.560501 1_555
Ca11 O17 2.727204 1_555
Ca11 O16 2.731696 1_555
Ca12 O3 2.359127 1_555
Ca12 O39 2.386638 1_555
Ca12 O42 2.395987 1_555
Ca12 O27 2.462869 1_555
Ca12 O49 2.547701 1_555
Ca12 O50 2.592600 1_555
Ca12 O19 2.711623 1_555
Ca12 O20 2.726473 1_555
Ca13 O2 2.369502 1_555
Ca13 O40 2.395376 1_555
Ca13 O41 2.395873 1_555
Ca13 O29 2.473525 1_555
Ca13 O52 2.559953 1_555
Ca13 O48 2.560501 1_555
Ca13 O18 2.727204 1_555
Ca13 O23 2.731696 1_555
Ca14 O26 2.363965 1_546
Ca14 O51 2.397498 1_556
Ca14 O46 2.397946 1_556
Ca14 O1 2.470899 1_545
Ca14 O37 2.561103 1_555
Ca14 O38 2.563734 1_555
Ca14 O11 2.725730 1_545
Ca14 O6 2.729709 1_545
Ca15 O25 2.367426 1_546
Ca15 O45 2.380614 1_556
Ca15 O47 2.402895 1_556
Ca15 O0 2.457055 1_545
Ca15 O36 2.549388 1_555
Ca15 O35 2.558274 1_555
Ca15 O5 2.719231 1_545
Ca15 O14 2.731349 1_545
Ca16 O27 2.367426 1_546
Ca16 O50 2.380614 1_556
Ca16 O49 2.402895 1_556
Ca16 O3 2.457055 1_545
Ca16 O39 2.549388 1_555
Ca16 O42 2.558274 1_555
Ca16 O8 2.719231 1_545
Ca16 O10 2.731349 1_545
Ca17 O29 2.363965 1_546
Ca17 O48 2.397498 1_556
Ca17 O52 2.397946 1_556
Ca17 O2 2.470899 1_545
Ca17 O40 2.561103 1_555
Ca17 O41 2.563734 1_555
Ca17 O9 2.725730 1_545
Ca17 O7 2.729709 1_545
O0 Ti0 1.925148 1_555
O0 Ti15 2.036485 1_565
O1 Ti2 1.964155 1_555
O1 Ti1 1.988259 1_555
O2 Ti3 1.964155 1_555
O2 Ti16 1.988259 1_555
O3 Ti4 1.925148 1_555
O3 Ti17 2.036485 1_565
O4 Ti6 1.909167 1_565
O4 Ti5 1.909167 1_465
O5 Ti0 1.955960 1_555
O5 Ti7 2.015003 1_555
O6 Ti8 1.980670 1_555
O6 Ti2 1.985869 1_555
O7 Ti13 1.980670 1_555
O7 Ti3 1.985869 1_555
O8 Ti4 1.955960 1_555
O8 Ti14 2.015003 1_555
O9 Ti16 1.978651 1_555
O9 Ti9 1.987063 1_555
O10 Ti10 1.928985 1_556
O10 Ti17 2.046912 1_565
O11 Ti1 1.978651 1_555
O11 Ti12 1.987063 1_555
O12 Ti5 1.948040 1_565
O12 Ta1 2.041087 1_556
O13 Ti6 1.948040 1_565
O13 Ta0 2.041087 1_556
O14 Ti11 1.928985 1_556
O14 Ti15 2.046912 1_565
O15 Ti0 1.918038 1_555
O15 Ti7 2.049925 1_554
O16 Ti1 1.973306 1_555
O16 Ti12 1.996005 1_554
O17 Ti2 1.977263 1_555
O17 Ti8 1.990008 1_554
O18 Ti3 1.977263 1_555
O18 Ti13 1.990008 1_554
O19 Ti4 1.918038 1_555
O19 Ti14 2.049925 1_554
O20 Ti10 1.920998 1_555
O20 Ti17 2.067299 1_565
O21 Ta0 1.966251 1_555
O21 Ti6 2.063556 1_565
O22 Ta1 1.966251 1_555
O22 Ti5 2.063556 1_565
O23 Ti16 1.973306 1_555
O23 Ti9 1.996005 1_554
O24 Ti11 1.920998 1_555
O24 Ti15 2.067299 1_565
O25 Ti11 1.914914 1_555
O25 Ti7 2.011888 1_554
O26 Ti12 1.955539 1_554
O26 Ti8 1.977952 1_554
O27 Ti10 1.914914 1_555
O27 Ti14 2.011888 1_554
O28 Ta0 1.990232 1_555
O28 Ta1 1.990232 1_455
O29 Ti9 1.955539 1_554
O29 Ti13 1.977952 1_554
O30 Ti13 1.967422 1_555
O30 Ti8 1.967422 1_555
O31 Ti14 1.936532 1_555
O31 Ti9 1.991165 1_555
O32 Ti7 1.936532 1_555
O32 Ti12 1.991165 1_555
O33 Ta0 1.996939 1_556
O33 Ti11 2.031041 1_556
O34 Ta1 1.996939 1_556
O34 Ti10 2.031041 1_556
O35 Ti15 1.916593 1_555
O35 Ti11 2.050631 1_556
O36 Ti7 1.917574 1_555
O36 Ti0 2.057316 1_545
O37 Ti8 1.978738 1_555
O37 Ti2 1.989202 1_545
O38 Ti12 1.971193 1_555
O38 Ti1 1.994921 1_545
O39 Ti14 1.917574 1_555
O39 Ti4 2.057316 1_545
O40 Ti13 1.978738 1_555
O40 Ti3 1.989202 1_545
O41 Ti9 1.971193 1_555
O41 Ti16 1.994921 1_545
O42 Ti17 1.916593 1_555
O42 Ti10 2.050631 1_556
O43 Ti5 1.890803 1_555
O43 Ta1 2.027022 1_556
O44 Ti6 1.890803 1_555
O44 Ta0 2.027022 1_556
O45 Ti15 1.938536 1_555
O45 Ti11 2.037552 1_555
O46 Ti12 1.969452 1_554
O46 Ti1 1.997268 1_545
O47 Ti7 1.941705 1_554
O47 Ti0 2.028311 1_545
O48 Ti13 1.978146 1_554
O48 Ti3 1.988247 1_545
O49 Ti14 1.941705 1_554
O49 Ti4 2.028311 1_545
O50 Ti17 1.938536 1_555
O50 Ti10 2.037552 1_555
O51 Ti8 1.978146 1_554
O51 Ti2 1.988247 1_545
O52 Ti9 1.969452 1_554
O52 Ti16 1.997268 1_545
O53 Ta1 1.953660 1_555
O53 Ti5 1.998909 1_555
O54 Ta0 1.953660 1_555
O54 Ti6 1.998909 1_555
O55 Ti1 1.949149 1_545
O55 Ti0 2.012101 1_545
O56 Ti3 1.975724 1_545
O56 Ti2 1.975724 1_545
O57 Ti16 1.949149 1_545
O57 Ti4 2.012101 1_545
O58 Ti17 1.911157 1_555
O58 Ti5 2.086984 1_555
O59 Ti15 1.911157 1_555
O59 Ti6 2.086984 1_555
