# generated using pymatgen
data_NdVSb3
_symmetry_space_group_name_H-M   'P 1'
_cell_length_a   6.24485500
_cell_length_b   7.93895200
_cell_length_c   10.30595300
_cell_angle_alpha   90.00000000
_cell_angle_beta   90.00000000
_cell_angle_gamma   90.00000000
_symmetry_Int_Tables_number   1
_chemical_formula_structural   NdVSb3
_chemical_formula_sum   'Nd4 V4 Sb12'
_cell_volume   510.94445762
_cell_formula_units_Z   4
loop_
 _symmetry_equiv_pos_site_id
 _symmetry_equiv_pos_as_xyz
  1  'x, y, z'
loop_
 _atom_site_type_symbol
 _atom_site_label
 _atom_site_symmetry_multiplicity
 _atom_site_fract_x
 _atom_site_fract_y
 _atom_site_fract_z
 _atom_site_occupancy
  Nd  Nd0  1  0.75000000  0.41227300  0.25168600  1
  Nd  Nd1  1  0.75000000  0.91227300  0.74831400  1
  Nd  Nd2  1  0.25000000  0.58772700  0.74831400  1
  Nd  Nd3  1  0.25000000  0.08772700  0.25168600  1
  V  V0  1  0.50000000  0.75000000  0.45446300  1
  V  V1  1  0.50000000  0.25000000  0.54553700  1
  V  V2  1  0.00000000  0.75000000  0.45446300  1
  V  V3  1  0.00000000  0.25000000  0.54553700  1
  Sb  Sb0  1  0.00000000  0.75000000  0.19103800  1
  Sb  Sb1  1  0.25000000  0.43667700  0.07815600  1
  Sb  Sb2  1  0.25000000  0.46629600  0.41019200  1
  Sb  Sb3  1  0.50000000  0.75000000  0.19103800  1
  Sb  Sb4  1  0.50000000  0.25000000  0.80896200  1
  Sb  Sb5  1  0.75000000  0.53370400  0.58980800  1
  Sb  Sb6  1  0.75000000  0.56332300  0.92184400  1
  Sb  Sb7  1  0.75000000  0.03370400  0.41019200  1
  Sb  Sb8  1  0.75000000  0.06332300  0.07815600  1
  Sb  Sb9  1  0.00000000  0.25000000  0.80896200  1
  Sb  Sb10  1  0.25000000  0.93667700  0.92184400  1
  Sb  Sb11  1  0.25000000  0.96629600  0.58980800  1
loop_
_geom_bond_atom_site_label_1
_geom_bond_atom_site_label_2
_geom_bond_distance
_geom_bond_site_symmetry_2
Nd0 Sb0 3.164946 1_655
Nd0 Sb3 3.164946 1_555
Nd0 Sb8 3.297407 1_555
Nd1 Sb9 3.164946 1_665
Nd1 Sb4 3.164946 1_565
Nd1 Sb6 3.297407 1_555
Nd2 Sb9 3.164946 1_555
Nd2 Sb4 3.164946 1_555
Nd2 Sb10 3.297407 1_555
Nd3 Sb3 3.164946 1_545
Nd3 Sb0 3.164946 1_545
Nd3 Sb1 3.297407 1_555
Sb0 V2 2.714846 1_555
Sb2 V3 2.707706 1_555
Sb2 V1 2.707706 1_555
Sb2 V0 2.778213 1_555
Sb2 V2 2.778213 1_555
Sb3 V0 2.714846 1_555
Sb4 V1 2.714846 1_555
Sb5 V2 2.707706 1_655
Sb5 V0 2.707706 1_555
Sb5 V3 2.778213 1_655
Sb5 V1 2.778213 1_555
Sb7 V3 2.707706 1_655
Sb7 V1 2.707706 1_555
Sb7 V2 2.778213 1_645
Sb7 V0 2.778213 1_545
Sb9 V3 2.714846 1_555
Sb11 V0 2.707706 1_555
Sb11 V2 2.707706 1_555
Sb11 V3 2.778213 1_565
Sb11 V1 2.778213 1_565
