# generated using pymatgen
data_SrHf2Mo
_symmetry_space_group_name_H-M   'P 1'
_cell_length_a   5.07673395
_cell_length_b   5.07673395
_cell_length_c   5.07673395
_cell_angle_alpha   60.00000000
_cell_angle_beta   60.00000000
_cell_angle_gamma   60.00000000
_symmetry_Int_Tables_number   1
_chemical_formula_structural   SrHf2Mo
_chemical_formula_sum   'Sr1 Hf2 Mo1'
_cell_volume   92.52055190
_cell_formula_units_Z   1
loop_
 _symmetry_equiv_pos_site_id
 _symmetry_equiv_pos_as_xyz
  1  'x, y, z'
loop_
 _atom_site_type_symbol
 _atom_site_label
 _atom_site_symmetry_multiplicity
 _atom_site_fract_x
 _atom_site_fract_y
 _atom_site_fract_z
 _atom_site_occupancy
  Sr  Sr0  1  0.25000000  0.25000000  0.25000000  1
  Hf  Hf0  1  0.00000000  0.00000000  0.00000000  1
  Hf  Hf1  1  0.75000000  0.75000000  0.75000000  1
  Mo  Mo0  1  0.50000000  0.50000000  0.50000000  1
loop_
_geom_bond_atom_site_label_1
_geom_bond_atom_site_label_2
_geom_bond_distance
_geom_bond_site_symmetry_2
Hf0 Sr0 3.108852 1_455
Hf0 Sr0 3.108852 1_554
Hf0 Sr0 3.108852 1_555
Hf0 Hf1 3.108852 1_445
Hf0 Hf1 3.108852 1_444
Hf0 Hf1 3.108852 1_544
Hf0 Hf1 3.108852 1_454
Hf0 Sr0 3.108852 1_545
Hf0 Mo0 3.589793 1_554
Hf0 Mo0 3.589793 1_454
Hf0 Mo0 3.589793 1_544
Hf0 Mo0 3.589793 1_545
Hf0 Mo0 3.589793 1_445
Hf0 Mo0 3.589793 1_455
Hf1 Mo0 3.108852 1_565
Hf1 Mo0 3.108852 1_556
Hf1 Mo0 3.108852 1_655
Hf1 Mo0 3.108852 1_555
Mo0 Sr0 3.108852 1_555
Mo0 Sr0 3.108852 1_556
Mo0 Sr0 3.108852 1_655
Mo0 Sr0 3.108852 1_565
