# generated using pymatgen
data_Yb2EuSe4
_symmetry_space_group_name_H-M   'P 1'
_cell_length_a   4.23054900
_cell_length_b   12.13961400
_cell_length_c   15.28780500
_cell_angle_alpha   90.00000000
_cell_angle_beta   90.00000000
_cell_angle_gamma   90.00000000
_symmetry_Int_Tables_number   1
_chemical_formula_structural   Yb2EuSe4
_chemical_formula_sum   'Yb8 Eu4 Se16'
_cell_volume   785.13934614
_cell_formula_units_Z   4
loop_
 _symmetry_equiv_pos_site_id
 _symmetry_equiv_pos_as_xyz
  1  'x, y, z'
loop_
 _atom_site_type_symbol
 _atom_site_label
 _atom_site_symmetry_multiplicity
 _atom_site_fract_x
 _atom_site_fract_y
 _atom_site_fract_z
 _atom_site_occupancy
  Yb  Yb0  1  0.25000000  0.91252800  0.59664300  1
  Yb  Yb1  1  0.25000000  0.93260400  0.10803500  1
  Yb  Yb2  1  0.75000000  0.56739600  0.60803500  1
  Yb  Yb3  1  0.75000000  0.06739600  0.89196500  1
  Yb  Yb4  1  0.75000000  0.08747200  0.40335700  1
  Yb  Yb5  1  0.75000000  0.58747200  0.09664300  1
  Yb  Yb6  1  0.25000000  0.43260400  0.39196500  1
  Yb  Yb7  1  0.25000000  0.41252800  0.90335700  1
  Eu  Eu0  1  0.25000000  0.76042700  0.33036300  1
  Eu  Eu1  1  0.75000000  0.73957300  0.83036300  1
  Eu  Eu2  1  0.25000000  0.26042700  0.16963700  1
  Eu  Eu3  1  0.75000000  0.23957300  0.66963700  1
  Se  Se0  1  0.75000000  0.29449100  0.31454300  1
  Se  Se1  1  0.75000000  0.10544600  0.08576700  1
  Se  Se2  1  0.75000000  0.35782500  0.03747200  1
  Se  Se3  1  0.25000000  0.70550900  0.68545700  1
  Se  Se4  1  0.25000000  0.52435800  0.21782100  1
  Se  Se5  1  0.75000000  0.47564200  0.78217900  1
  Se  Se6  1  0.75000000  0.79449100  0.18545700  1
  Se  Se7  1  0.75000000  0.85782500  0.46252800  1
  Se  Se8  1  0.25000000  0.89455400  0.91423300  1
  Se  Se9  1  0.75000000  0.97564200  0.71782100  1
  Se  Se10  1  0.25000000  0.64217500  0.96252800  1
  Se  Se11  1  0.25000000  0.20550900  0.81454300  1
  Se  Se12  1  0.25000000  0.02435800  0.28217900  1
  Se  Se13  1  0.25000000  0.14217500  0.53747200  1
  Se  Se14  1  0.25000000  0.39455400  0.58576700  1
  Se  Se15  1  0.75000000  0.60544600  0.41423300  1
loop_
_geom_bond_atom_site_label_1
_geom_bond_atom_site_label_2
_geom_bond_distance
_geom_bond_site_symmetry_2
Eu0 Se6 3.090780 1_555
Eu0 Se6 3.090780 1_455
Eu0 Se15 3.107748 1_455
Eu0 Se15 3.107748 1_555
Eu0 Se7 3.155133 1_555
Eu0 Se7 3.155133 1_455
Eu0 Se12 3.287608 1_565
Eu0 Se4 3.342592 1_555
Eu1 Se3 3.090780 1_555
Eu1 Se3 3.090780 1_655
Eu1 Se8 3.107748 1_555
Eu1 Se8 3.107748 1_655
Eu1 Se10 3.155133 1_555
Eu1 Se10 3.155133 1_655
Eu1 Se5 3.287608 1_555
Eu1 Se9 3.342592 1_555
Eu2 Se0 3.090780 1_455
Eu2 Se0 3.090780 1_555
Eu2 Se1 3.107748 1_555
Eu2 Se1 3.107748 1_455
Eu2 Se2 3.155133 1_455
Eu2 Se2 3.155133 1_555
Eu2 Se4 3.287608 1_555
Eu2 Se12 3.342592 1_555
Eu3 Se11 3.090780 1_655
Eu3 Se11 3.090780 1_555
Eu3 Se14 3.107748 1_655
Eu3 Se14 3.107748 1_555
Eu3 Se13 3.155133 1_555
Eu3 Se13 3.155133 1_655
Eu3 Se9 3.287608 1_545
Eu3 Se5 3.342592 1_555
Se0 Yb4 2.856461 1_555
Se0 Yb6 2.947277 1_655
Se0 Yb6 2.947277 1_555
Se1 Yb3 2.998598 1_554
Se1 Yb1 2.998811 1_645
Se1 Yb1 2.998811 1_545
Se2 Yb5 2.930915 1_555
Se2 Yb7 3.019803 1_554
Se2 Yb7 3.019803 1_654
Se3 Yb0 2.856461 1_555
Se3 Yb2 2.947277 1_455
Se3 Yb2 2.947277 1_555
Se4 Yb6 2.885899 1_555
Se4 Yb5 2.914334 1_455
Se4 Yb5 2.914334 1_555
Se5 Yb2 2.885899 1_555
Se5 Yb7 2.914334 1_555
Se5 Yb7 2.914334 1_655
Se6 Yb5 2.856461 1_555
Se6 Yb1 2.947277 1_555
Se6 Yb1 2.947277 1_655
Se7 Yb4 2.930915 1_565
Se7 Yb0 3.019803 1_655
Se7 Yb0 3.019803 1_555
Se8 Yb1 2.998598 1_556
Se8 Yb3 2.998811 1_565
Se8 Yb3 2.998811 1_465
Se9 Yb3 2.885899 1_565
Se9 Yb0 2.914334 1_555
Se9 Yb0 2.914334 1_655
Se10 Yb7 2.930915 1_555
Se10 Yb5 3.019803 1_556
Se10 Yb5 3.019803 1_456
Se11 Yb7 2.856461 1_555
Se11 Yb3 2.947277 1_455
Se11 Yb3 2.947277 1_555
Se12 Yb1 2.885899 1_545
Se12 Yb4 2.914334 1_455
Se12 Yb4 2.914334 1_555
Se13 Yb0 2.930915 1_545
Se13 Yb4 3.019803 1_455
Se13 Yb4 3.019803 1_555
Se14 Yb6 2.998598 1_555
Se14 Yb2 2.998811 1_555
Se14 Yb2 2.998811 1_455
Se15 Yb2 2.998598 1_555
Se15 Yb6 2.998811 1_555
Se15 Yb6 2.998811 1_655
