# generated using pymatgen
data_KCN
_symmetry_space_group_name_H-M   'P 1'
_cell_length_a   5.54534000
_cell_length_b   5.73360918
_cell_length_c   6.82913238
_cell_angle_alpha   78.59731272
_cell_angle_beta   80.49071027
_cell_angle_gamma   73.28516279
_symmetry_Int_Tables_number   1
_chemical_formula_structural   KCN
_chemical_formula_sum   'K4 C4 N4'
_cell_volume   202.49009371
_cell_formula_units_Z   4
loop_
 _symmetry_equiv_pos_site_id
 _symmetry_equiv_pos_as_xyz
  1  'x, y, z'
loop_
 _atom_site_type_symbol
 _atom_site_label
 _atom_site_symmetry_multiplicity
 _atom_site_fract_x
 _atom_site_fract_y
 _atom_site_fract_z
 _atom_site_occupancy
  K  K0  1  0.24051500  0.52174400  0.75966100  1
  K  K1  1  0.65622100  0.86894000  0.72628300  1
  K  K2  1  0.31038900  0.13481800  0.29998200  1
  K  K3  1  0.72451100  0.49013900  0.25032200  1
  C  C0  1  0.77960700  0.29153400  0.82963400  1
  C  C1  1  0.99217500  0.07475700  0.90510000  1
  C  C2  1  0.02676800  0.91611900  0.08364900  1
  C  C3  1  0.89127800  0.91025700  0.29437100  1
  N  N0  1  0.91550500  0.28065300  0.64471800  1
  N  N1  1  0.13349400  0.07445000  0.71411100  1
  N  N2  1  0.23345200  0.71372500  0.14289800  1
  N  N3  1  0.09608500  0.72286400  0.34927000  1
loop_
_geom_bond_atom_site_label_1
_geom_bond_atom_site_label_2
_geom_bond_distance
_geom_bond_site_symmetry_2
K0 N0 2.846890 1_455
K0 N1 2.877171 1_555
K0 N3 2.959457 1_555
K0 N1 3.013459 1_565
K0 N2 3.023775 1_556
K1 N1 2.806061 1_565
K2 N1 2.823478 1_555
K2 N3 2.876214 1_545
K2 N2 2.988295 1_545
K2 N0 3.009734 1_455
K2 N2 3.206057 1_555
K2 N3 3.302304 1_555
K3 N2 2.806600 1_555
K3 N0 2.958102 1_555
K3 N3 2.980082 1_655
C0 N0 1.362415 1_555
C0 K0 2.976617 1_555
C0 K3 3.232213 1_556
C1 N1 1.406303 1_655
C2 N2 1.423549 1_555
C2 K2 2.977120 1_565
C3 N3 1.365409 1_655
C3 K3 2.899616 1_555
C3 K2 2.971692 1_665
C3 K2 3.102994 1_565
C3 K3 3.150862 1_565
