# generated using pymatgen
data_NaEu(PO3)4
_symmetry_space_group_name_H-M   'P 1'
_cell_length_a   13.20546900
_cell_length_b   7.26535100
_cell_length_c   12.24605287
_cell_angle_alpha   54.11522887
_cell_angle_beta   90.00000000
_cell_angle_gamma   90.00000000
_symmetry_Int_Tables_number   1
_chemical_formula_structural   NaEu(PO3)4
_chemical_formula_sum   'Na4 Eu4 P16 O48'
_cell_volume   951.91340147
_cell_formula_units_Z   4
loop_
 _symmetry_equiv_pos_site_id
 _symmetry_equiv_pos_as_xyz
  1  'x, y, z'
loop_
 _atom_site_type_symbol
 _atom_site_label
 _atom_site_symmetry_multiplicity
 _atom_site_fract_x
 _atom_site_fract_y
 _atom_site_fract_z
 _atom_site_occupancy
  Na  Na0  1  0.77825300  0.56505800  0.93543700  1
  Na  Na1  1  0.22174700  0.43494200  0.06456300  1
  Na  Na2  1  0.27825300  0.43494200  0.56456300  1
  Na  Na3  1  0.72174700  0.56505800  0.43543700  1
  Eu  Eu0  1  0.21809200  0.03650300  0.97631700  1
  Eu  Eu1  1  0.71809200  0.96349700  0.52368300  1
  Eu  Eu2  1  0.78190800  0.96349700  0.02368300  1
  Eu  Eu3  1  0.28190800  0.03650300  0.47631700  1
  P  P0  1  0.59044000  0.92960500  0.80162700  1
  P  P1  1  0.62827600  0.15763100  0.19540900  1
  P  P2  1  0.10120500  0.50593500  0.24372600  1
  P  P3  1  0.09044000  0.07039500  0.69837300  1
  P  P4  1  0.38512300  0.61364800  0.26398300  1
  P  P5  1  0.12827600  0.84236900  0.30459100  1
  P  P6  1  0.87172400  0.15763100  0.69540900  1
  P  P7  1  0.89879500  0.49406500  0.75627400  1
  P  P8  1  0.40956000  0.07039500  0.19837300  1
  P  P9  1  0.90956000  0.92960500  0.30162700  1
  P  P10  1  0.61487700  0.38635200  0.73601700  1
  P  P11  1  0.88512300  0.38635200  0.23601700  1
  P  P12  1  0.37172400  0.84236900  0.80459100  1
  P  P13  1  0.39879500  0.50593500  0.74372600  1
  P  P14  1  0.11487700  0.61364800  0.76398300  1
  P  P15  1  0.60120500  0.49406500  0.25627400  1
  O  O0  1  0.14588700  0.40422800  0.89829200  1
  O  O1  1  0.33451700  0.29820700  0.79491500  1
  O  O2  1  0.78883700  0.17553600  0.60552600  1
  O  O3  1  0.85411300  0.59577200  0.10170800  1
  O  O4  1  0.61044900  0.86122000  0.70918200  1
  O  O5  1  0.60733800  0.30880100  0.40544700  1
  O  O6  1  0.41981000  0.79681300  0.29113000  1
  O  O7  1  0.66164800  0.84339200  0.91798400  1
  O  O8  1  0.47817000  0.85032900  0.86674700  1
  O  O9  1  0.36722600  0.02456600  0.65577700  1
  O  O10  1  0.11044900  0.13878000  0.79081800  1
  O  O11  1  0.08019000  0.79681300  0.79113000  1
  O  O12  1  0.64588700  0.59577200  0.60170800  1
  O  O13  1  0.91981000  0.20318700  0.20887000  1
  O  O14  1  0.13277400  0.02456600  0.15577700  1
  O  O15  1  0.63277400  0.97543400  0.34422300  1
  O  O16  1  0.62473500  0.40605700  0.16529000  1
  O  O17  1  0.52183000  0.14967100  0.13325300  1
  O  O18  1  0.39266200  0.69119900  0.59455300  1
  O  O19  1  0.83835200  0.84339200  0.41798400  1
  O  O20  1  0.66548300  0.70179300  0.20508500  1
  O  O21  1  0.98646800  0.42452300  0.29177300  1
  O  O22  1  0.35411300  0.40422800  0.39829200  1
  O  O23  1  0.83451700  0.70179300  0.70508500  1
  O  O24  1  0.28883700  0.82446400  0.89447400  1
  O  O25  1  0.18964800  0.71601900  0.65077600  1
  O  O26  1  0.33835200  0.15660800  0.08201600  1
  O  O27  1  0.10733800  0.69119900  0.09455300  1
  O  O28  1  0.86722600  0.97543400  0.84422300  1
  O  O29  1  0.16548300  0.29820700  0.29491500  1
  O  O30  1  0.38955100  0.13878000  0.29081800  1
  O  O31  1  0.21116300  0.82446400  0.39447400  1
  O  O32  1  0.48646800  0.57547700  0.20822700  1
  O  O33  1  0.87526500  0.40605700  0.66529000  1
  O  O34  1  0.01353200  0.57547700  0.70822700  1
  O  O35  1  0.12473500  0.59394300  0.33471000  1
  O  O36  1  0.89266200  0.30880100  0.90544700  1
  O  O37  1  0.68964800  0.28398100  0.84922400  1
  O  O38  1  0.02183000  0.85032900  0.36674700  1
  O  O39  1  0.71116300  0.17553600  0.10552600  1
  O  O40  1  0.37526500  0.59394300  0.83471000  1
  O  O41  1  0.97817000  0.14967100  0.63325300  1
  O  O42  1  0.88955100  0.86122000  0.20918200  1
  O  O43  1  0.16164800  0.15660800  0.58201600  1
  O  O44  1  0.81035200  0.28398100  0.34922400  1
  O  O45  1  0.51353200  0.42452300  0.79177300  1
  O  O46  1  0.31035200  0.71601900  0.15077600  1
  O  O47  1  0.58019000  0.20318700  0.70887000  1
loop_
_geom_bond_atom_site_label_1
_geom_bond_atom_site_label_2
_geom_bond_distance
_geom_bond_site_symmetry_2
Na0 O3 2.394150 1_556
Na0 O7 2.449353 1_555
Na0 O23 2.492224 1_555
Na0 O39 2.494398 1_556
Na0 O36 2.585603 1_555
Na0 O28 2.759239 1_555
Na1 O0 2.394150 1_554
Na1 O26 2.449353 1_555
Na1 O29 2.492224 1_555
Na1 O24 2.494398 1_554
Na1 O27 2.585603 1_555
Na1 O14 2.759239 1_555
Na2 O22 2.394150 1_555
Na2 O43 2.449353 1_555
Na2 O1 2.492224 1_555
Na2 O31 2.494398 1_555
Na2 O18 2.585603 1_555
Na2 O9 2.759239 1_555
Na3 O12 2.394150 1_555
Na3 O19 2.449353 1_555
Na3 O20 2.492224 1_555
Na3 O2 2.494398 1_555
Na3 O5 2.585603 1_555
Na3 O15 2.759239 1_555
Eu0 O46 2.374565 1_546
Eu0 O10 2.398791 1_555
Eu0 O14 2.425539 1_556
Eu0 O1 2.441760 1_555
Eu0 O0 2.442791 1_555
Eu0 O24 2.461829 1_545
Eu0 O27 2.504196 1_546
Eu0 O26 2.506602 1_556
Eu1 O44 2.374565 1_565
Eu1 O4 2.398791 1_555
Eu1 O15 2.425539 1_555
Eu1 O23 2.441760 1_555
Eu1 O12 2.442791 1_555
Eu1 O2 2.461829 1_565
Eu1 O5 2.504196 1_565
Eu1 O19 2.506602 1_555
Eu2 O37 2.374565 1_564
Eu2 O42 2.398791 1_555
Eu2 O28 2.425539 1_554
Eu2 O20 2.441760 1_555
Eu2 O3 2.442791 1_555
Eu2 O39 2.461829 1_565
Eu2 O36 2.504196 1_564
Eu2 O7 2.506602 1_554
Eu3 O25 2.374565 1_545
Eu3 O30 2.398791 1_555
Eu3 O9 2.425539 1_555
Eu3 O29 2.441760 1_555
Eu3 O22 2.442791 1_555
Eu3 O31 2.461829 1_545
Eu3 O18 2.504196 1_545
Eu3 O43 2.506602 1_555
O0 P14 1.501391 1_555
O1 P13 1.510661 1_555
O2 P6 1.502895 1_555
O3 P11 1.501391 1_555
O4 P0 1.502556 1_555
O5 P15 1.507603 1_555
O6 P4 1.615514 1_555
O6 P8 1.616346 1_565
O7 P0 1.503540 1_555
O8 P12 1.615620 1_555
O8 P0 1.620884 1_555
O9 P12 1.499615 1_545
O10 P3 1.502556 1_555
O11 P14 1.615514 1_555
O11 P3 1.616346 1_565
O12 P10 1.501391 1_555
O13 P11 1.615514 1_555
O13 P9 1.616346 1_545
O14 P5 1.499615 1_545
O15 P1 1.499615 1_565
O16 P15 1.606864 1_555
O16 P1 1.617241 1_555
O17 P1 1.615620 1_555
O17 P8 1.620884 1_555
O18 P13 1.507603 1_555
O19 P9 1.503540 1_555
O20 P15 1.510661 1_555
O21 P11 1.598801 1_555
O21 P2 1.607408 1_655
O22 P4 1.501391 1_555
O23 P7 1.510661 1_555
O24 P12 1.502895 1_555
O25 P14 1.497087 1_555
O26 P8 1.503540 1_555
O27 P2 1.507603 1_555
O28 P6 1.499615 1_565
O29 P2 1.510661 1_555
O30 P8 1.502556 1_555
O31 P5 1.502895 1_555
O32 P4 1.598801 1_555
O32 P15 1.607408 1_555
O33 P7 1.606864 1_555
O33 P6 1.617241 1_555
O34 P14 1.598801 1_555
O34 P7 1.607408 1_455
O35 P2 1.606864 1_555
O35 P5 1.617241 1_555
O36 P7 1.507603 1_555
O37 P10 1.497087 1_555
O38 P5 1.615620 1_555
O38 P9 1.620884 1_455
O39 P1 1.502895 1_555
O40 P13 1.606864 1_555
O40 P12 1.617241 1_555
O41 P6 1.615620 1_555
O41 P3 1.620884 1_655
O42 P9 1.502556 1_555
O43 P3 1.503540 1_555
O44 P11 1.497087 1_555
O45 P10 1.598801 1_555
O45 P13 1.607408 1_555
O46 P4 1.497087 1_555
O47 P10 1.615514 1_555
O47 P0 1.616346 1_545
