# generated using pymatgen
data_Hg4Pb2N6O19
_symmetry_space_group_name_H-M   'P 1'
_cell_length_a   10.98461576
_cell_length_b   10.98461576
_cell_length_c   10.98461576
_cell_angle_alpha   60.00000000
_cell_angle_beta   60.00000000
_cell_angle_gamma   60.00000000
_symmetry_Int_Tables_number   1
_chemical_formula_structural   Hg4Pb2N6O19
_chemical_formula_sum   'Hg8 Pb4 N12 O38'
_cell_volume   937.21582187
_cell_formula_units_Z   2
loop_
 _symmetry_equiv_pos_site_id
 _symmetry_equiv_pos_as_xyz
  1  'x, y, z'
loop_
 _atom_site_type_symbol
 _atom_site_label
 _atom_site_symmetry_multiplicity
 _atom_site_fract_x
 _atom_site_fract_y
 _atom_site_fract_z
 _atom_site_occupancy
  Hg  Hg0  1  0.17117499  0.48647403  0.17117499  1
  Hg  Hg1  1  0.17117499  0.17117499  0.17117499  1
  Hg  Hg2  1  0.07882501  0.07882501  0.76352597  1
  Hg  Hg3  1  0.76352597  0.07882501  0.07882501  1
  Hg  Hg4  1  0.07882501  0.76352597  0.07882501  1
  Hg  Hg5  1  0.17117499  0.17117499  0.48647403  1
  Hg  Hg6  1  0.07882501  0.07882501  0.07882501  1
  Hg  Hg7  1  0.48647403  0.17117499  0.17117499  1
  Pb  Pb0  1  0.62500000  0.12500000  0.62500000  1
  Pb  Pb1  1  0.12500000  0.62500000  0.62500000  1
  Pb  Pb2  1  0.62500000  0.62500000  0.12500000  1
  Pb  Pb3  1  0.62500000  0.62500000  0.62500000  1
  N  N0  1  0.26265842  0.26265842  0.73734158  1
  N  N1  1  0.98734158  0.98734158  0.51265842  1
  N  N2  1  0.51265842  0.98734158  0.51265842  1
  N  N3  1  0.98734158  0.51265842  0.98734158  1
  N  N4  1  0.51265842  0.51265842  0.98734158  1
  N  N5  1  0.26265842  0.73734158  0.73734158  1
  N  N6  1  0.51265842  0.98734158  0.98734158  1
  N  N7  1  0.73734158  0.73734158  0.26265842  1
  N  N8  1  0.73734158  0.26265842  0.73734158  1
  N  N9  1  0.98734158  0.51265842  0.51265842  1
  N  N10  1  0.73734158  0.26265842  0.26265842  1
  N  N11  1  0.26265842  0.73734158  0.26265842  1
  O  O0  1  0.12275797  0.77770951  0.32182300  1
  O  O1  1  0.12275797  0.77770951  0.77770951  1
  O  O2  1  0.65569497  0.34430503  0.34430503  1
  O  O3  1  0.47229049  0.92817700  0.12724203  1
  O  O4  1  0.77770951  0.77770951  0.32182300  1
  O  O5  1  0.77770951  0.12275797  0.77770951  1
  O  O6  1  0.92817700  0.12724203  0.47229049  1
  O  O7  1  0.47229049  0.12724203  0.47229049  1
  O  O8  1  0.59430503  0.90569497  0.59430503  1
  O  O9  1  0.34430503  0.65569497  0.34430503  1
  O  O10  1  0.34430503  0.34430503  0.65569497  1
  O  O11  1  0.47229049  0.47229049  0.92817700  1
  O  O12  1  0.32182300  0.77770951  0.77770951  1
  O  O13  1  0.34430503  0.65569497  0.65569497  1
  O  O14  1  0.65569497  0.34430503  0.65569497  1
  O  O15  1  0.47229049  0.92817700  0.47229049  1
  O  O16  1  0.77770951  0.32182300  0.12275797  1
  O  O17  1  0.90569497  0.59430503  0.59430503  1
  O  O18  1  0.12724203  0.47229049  0.47229049  1
  O  O19  1  0.12275797  0.32182300  0.77770951  1
  O  O20  1  0.92817700  0.47229049  0.12724203  1
  O  O21  1  0.47229049  0.47229049  0.12724203  1
  O  O22  1  0.12724203  0.92817700  0.47229049  1
  O  O23  1  0.12724203  0.47229049  0.92817700  1
  O  O24  1  0.59430503  0.59430503  0.90569497  1
  O  O25  1  0.59430503  0.90569497  0.90569497  1
  O  O26  1  0.25000000  0.25000000  0.25000000  1
  O  O27  1  0.65569497  0.65569497  0.34430503  1
  O  O28  1  0.90569497  0.59430503  0.90569497  1
  O  O29  1  0.92817700  0.47229049  0.47229049  1
  O  O30  1  0.47229049  0.12724203  0.92817700  1
  O  O31  1  0.32182300  0.77770951  0.12275797  1
  O  O32  1  0.00000000  0.00000000  -0.00000000  1
  O  O33  1  0.77770951  0.32182300  0.77770951  1
  O  O34  1  0.32182300  0.12275797  0.77770951  1
  O  O35  1  0.77770951  0.12275797  0.32182300  1
  O  O36  1  0.77770951  0.77770951  0.12275797  1
  O  O37  1  0.90569497  0.90569497  0.59430503  1
loop_
_geom_bond_atom_site_label_1
_geom_bond_atom_site_label_2
_geom_bond_distance
_geom_bond_site_symmetry_2
Hg0 O26 2.120912 1_555
Hg1 O26 2.120921 1_555
Hg2 O32 2.120912 1_556
Hg3 O32 2.120912 1_655
Hg4 O32 2.120912 1_565
Hg5 O26 2.120912 1_555
Hg6 O32 2.120921 1_555
Hg7 O26 2.120912 1_555
N0 O34 1.260403 1_555
N0 O19 1.260403 1_555
N0 O10 1.268347 1_555
N1 O22 1.260403 1_655
N1 O6 1.260403 1_565
N1 O37 1.268347 1_555
N2 O15 1.260403 1_555
N2 O7 1.260403 1_565
N2 O8 1.268347 1_555
N3 O20 1.260403 1_556
N3 O23 1.260403 1_655
N3 O28 1.268347 1_555
N4 O11 1.260403 1_555
N4 O21 1.260403 1_556
N4 O24 1.268347 1_555
N5 O12 1.260403 1_555
N5 O1 1.260403 1_555
N5 O13 1.268347 1_555
N6 O3 1.260403 1_556
N6 O30 1.260403 1_565
N6 O25 1.268347 1_555
N7 O4 1.260403 1_555
N7 O36 1.260403 1_555
N7 O27 1.268347 1_555
N8 O33 1.260403 1_555
N8 O5 1.260403 1_555
N8 O14 1.268347 1_555
N9 O29 1.260403 1_555
N9 O18 1.260403 1_655
N9 O17 1.268347 1_555
N10 O35 1.260403 1_555
N10 O16 1.260403 1_555
N10 O2 1.268347 1_555
N11 O0 1.260403 1_555
N11 O31 1.260403 1_555
N11 O9 1.268347 1_555
O2 Pb0 2.787245 1_555
O2 Pb2 2.787245 1_555
O8 Pb3 2.787245 1_555
O8 Pb0 2.787245 1_565
O9 Pb2 2.787245 1_555
O9 Pb1 2.787245 1_555
O10 Pb0 2.787245 1_555
O10 Pb1 2.787245 1_555
O13 Pb3 2.787245 1_555
O13 Pb1 2.787245 1_555
O14 Pb3 2.787245 1_555
O14 Pb0 2.787245 1_555
O17 Pb3 2.787245 1_555
O17 Pb1 2.787245 1_655
O24 Pb2 2.787245 1_556
O24 Pb3 2.787245 1_555
O25 Pb2 2.787245 1_556
O25 Pb0 2.787245 1_565
O27 Pb3 2.787245 1_555
O27 Pb2 2.787245 1_555
O28 Pb2 2.787245 1_556
O28 Pb1 2.787245 1_655
O37 Pb0 2.787245 1_565
O37 Pb1 2.787245 1_655
