# generated using pymatgen
data_Ti5P3
_symmetry_space_group_name_H-M   'P 1'
_cell_length_a   6.48971648
_cell_length_b   7.40298322
_cell_length_c   9.77984847
_cell_angle_alpha   90.00000000
_cell_angle_beta   90.00000000
_cell_angle_gamma   90.00000000
_symmetry_Int_Tables_number   1
_chemical_formula_structural   Ti5P3
_chemical_formula_sum   'Ti20 P12'
_cell_volume   469.85582436
_cell_formula_units_Z   4
loop_
 _symmetry_equiv_pos_site_id
 _symmetry_equiv_pos_as_xyz
  1  'x, y, z'
loop_
 _atom_site_type_symbol
 _atom_site_label
 _atom_site_symmetry_multiplicity
 _atom_site_fract_x
 _atom_site_fract_y
 _atom_site_fract_z
 _atom_site_occupancy
  Ti  Ti0  1  0.84407120  0.25000000  0.22340249  1
  Ti  Ti1  1  0.80543803  0.95493833  0.92707531  1
  Ti  Ti2  1  0.14464576  0.25000000  0.79239417  1
  Ti  Ti3  1  0.15592880  0.75000000  0.77659751  1
  Ti  Ti4  1  0.35535424  0.25000000  0.29239417  1
  Ti  Ti5  1  0.69456197  0.95493833  0.42707531  1
  Ti  Ti6  1  0.96976597  0.25000000  0.49991986  1
  Ti  Ti7  1  0.03023403  0.75000000  0.50008014  1
  Ti  Ti8  1  0.19456197  0.04506167  0.07292469  1
  Ti  Ti9  1  0.64464576  0.75000000  0.70760583  1
  Ti  Ti10  1  0.46976597  0.75000000  0.00008014  1
  Ti  Ti11  1  0.69456197  0.54506167  0.42707531  1
  Ti  Ti12  1  0.34407120  0.75000000  0.27659751  1
  Ti  Ti13  1  0.65592880  0.25000000  0.72340249  1
  Ti  Ti14  1  0.30543803  0.04506167  0.57292469  1
  Ti  Ti15  1  0.30543803  0.45493833  0.57292469  1
  Ti  Ti16  1  0.85535424  0.75000000  0.20760583  1
  Ti  Ti17  1  0.19456197  0.45493833  0.07292469  1
  Ti  Ti18  1  0.80543803  0.54506167  0.92707531  1
  Ti  Ti19  1  0.53023403  0.25000000  -0.00008014  1
  P  P0  1  0.42352479  0.75000000  0.51352504  1
  P  P1  1  0.92822698  0.99089631  0.67388122  1
  P  P2  1  0.92352479  0.25000000  0.98647496  1
  P  P3  1  0.42822698  0.49089631  0.82611878  1
  P  P4  1  0.07647521  0.75000000  0.01352504  1
  P  P5  1  0.07177302  0.49089631  0.32611878  1
  P  P6  1  0.57647521  0.25000000  0.48647496  1
  P  P7  1  0.57177302  0.50910369  0.17388122  1
  P  P8  1  0.57177302  0.99089631  0.17388122  1
  P  P9  1  0.92822698  0.50910369  0.67388122  1
  P  P10  1  0.07177302  0.00910469  0.32611878  1
  P  P11  1  0.42822698  0.00910469  0.82611878  1
loop_
_geom_bond_atom_site_label_1
_geom_bond_atom_site_label_2
_geom_bond_distance
_geom_bond_site_symmetry_2
P0 Ti12 2.373794 1_555
P0 Ti9 2.379490 1_555
P0 Ti14 2.386647 1_565
P0 Ti15 2.386647 1_555
P0 Ti11 2.471941 1_555
P0 Ti5 2.471941 1_555
P0 Ti7 2.555730 1_555
P1 Ti3 2.524504 1_655
P1 Ti7 2.551024 1_655
P1 Ti6 2.578063 1_565
P1 Ti9 2.583806 1_555
P1 Ti1 2.614846 1_555
P1 Ti2 2.644852 1_665
P1 Ti13 2.652658 1_565
P1 Ti14 2.669887 1_665
P1 Ti5 2.862945 1_555
P2 Ti0 2.373794 1_556
P2 Ti2 2.379490 1_655
P2 Ti1 2.386647 1_545
P2 Ti18 2.386647 1_555
P2 Ti17 2.471941 1_656
P2 Ti8 2.471941 1_656
P2 Ti19 2.555730 1_556
P3 Ti13 2.524504 1_555
P3 Ti19 2.551024 1_556
P3 Ti10 2.578063 1_556
P3 Ti2 2.583806 1_555
P3 Ti15 2.614846 1_555
P3 Ti9 2.644852 1_555
P3 Ti3 2.652658 1_555
P3 Ti18 2.669887 1_555
P3 Ti17 2.862945 1_556
P4 Ti3 2.373794 1_554
P4 Ti16 2.379490 1_455
P4 Ti8 2.386647 1_565
P4 Ti17 2.386647 1_555
P4 Ti18 2.471941 1_454
P4 Ti1 2.471941 1_454
P4 Ti10 2.555730 1_555
P5 Ti0 2.524504 1_455
P5 Ti6 2.551024 1_455
P5 Ti7 2.578063 1_555
P5 Ti4 2.583806 1_555
P5 Ti17 2.614846 1_555
P5 Ti16 2.644852 1_455
P5 Ti12 2.652658 1_555
P5 Ti11 2.669887 1_455
P5 Ti15 2.862945 1_555
P6 Ti13 2.373794 1_555
P6 Ti4 2.379490 1_555
P6 Ti5 2.386647 1_545
P6 Ti11 2.386647 1_555
P6 Ti15 2.471941 1_555
P6 Ti14 2.471941 1_555
P6 Ti6 2.555730 1_555
P7 Ti12 2.524504 1_555
P7 Ti10 2.551024 1_555
P7 Ti19 2.578063 1_555
P7 Ti16 2.583806 1_555
P7 Ti11 2.614846 1_555
P7 Ti4 2.644852 1_555
P7 Ti0 2.652658 1_555
P7 Ti17 2.669887 1_555
P7 Ti18 2.862945 1_554
P8 Ti12 2.524504 1_555
P8 Ti10 2.551024 1_555
P8 Ti19 2.578063 1_565
P8 Ti16 2.583806 1_555
P8 Ti5 2.614846 1_555
P8 Ti4 2.644852 1_565
P8 Ti0 2.652658 1_565
P8 Ti8 2.669887 1_565
P8 Ti1 2.862945 1_554
P9 Ti3 2.524504 1_655
P9 Ti7 2.551024 1_655
P9 Ti6 2.578063 1_555
P9 Ti9 2.583806 1_555
P9 Ti18 2.614846 1_555
P9 Ti2 2.644852 1_655
P9 Ti13 2.652658 1_555
P9 Ti15 2.669887 1_655
P9 Ti11 2.862945 1_555
P10 Ti0 2.524499 1_455
P10 Ti6 2.551019 1_455
P10 Ti7 2.578068 1_545
P10 Ti4 2.583801 1_555
P10 Ti8 2.614845 1_555
P10 Ti16 2.644858 1_445
P10 Ti12 2.652664 1_545
P10 Ti5 2.669888 1_445
P10 Ti14 2.862944 1_555
P11 Ti13 2.524499 1_555
P11 Ti19 2.551019 1_556
P11 Ti10 2.578068 1_546
P11 Ti2 2.583801 1_555
P11 Ti14 2.614845 1_555
P11 Ti9 2.644858 1_545
P11 Ti3 2.652664 1_545
P11 Ti1 2.669888 1_545
P11 Ti8 2.862944 1_556
