# generated using pymatgen
data_K3Nb4Mo4(PO4)12
_symmetry_space_group_name_H-M   'P 1'
_cell_length_a   9.06052100
_cell_length_b   10.39570626
_cell_length_c   12.15110906
_cell_angle_alpha   90.32780226
_cell_angle_beta   90.34375008
_cell_angle_gamma   90.87933133
_symmetry_Int_Tables_number   1
_chemical_formula_structural   K3Nb4Mo4(PO4)12
_chemical_formula_sum   'K3 Nb4 Mo4 P12 O48'
_cell_volume   1144.34449561
_cell_formula_units_Z   1
loop_
 _symmetry_equiv_pos_site_id
 _symmetry_equiv_pos_as_xyz
  1  'x, y, z'
loop_
 _atom_site_type_symbol
 _atom_site_label
 _atom_site_symmetry_multiplicity
 _atom_site_fract_x
 _atom_site_fract_y
 _atom_site_fract_z
 _atom_site_occupancy
  K  K0  1  0.13397300  0.16153700  0.24666400  1
  K  K1  1  0.82919600  0.83855300  0.74519400  1
  K  K2  1  0.80486900  0.66637600  0.24734200  1
  Nb  Nb0  1  0.21537100  0.01009200  0.90233500  1
  Nb  Nb1  1  0.22449800  0.99105100  0.55597800  1
  Nb  Nb2  1  0.21985100  0.51683300  0.43848000  1
  Nb  Nb3  1  0.76986200  0.50222600  0.90368600  1
  Mo  Mo0  1  0.24411000  0.50478000  0.10433900  1
  Mo  Mo1  1  0.77406000  0.47900600  0.58286300  1
  Mo  Mo2  1  0.77310700  0.01573800  0.40103000  1
  Mo  Mo3  1  0.75798400  0.99694400  0.08966100  1
  P  P0  1  0.00231900  0.26087500  0.00965500  1
  P  P1  1  0.02282800  0.24662000  0.50269700  1
  P  P2  1  0.54508000  0.65309100  0.99052300  1
  P  P3  1  0.53748500  0.85630200  0.98563800  1
  P  P4  1  0.55522500  0.66496600  0.45606900  1
  P  P5  1  0.54625500  0.86995400  0.51208600  1
  P  P6  1  0.44012200  0.35646400  0.59091400  1
  P  P7  1  0.47266000  0.12705500  0.40711800  1
  P  P8  1  0.45036800  0.35409100  0.00368100  1
  P  P9  1  0.43913400  0.15039200  0.00173000  1
  P  P10  1  0.99675400  0.74628200  0.00787300  1
  P  P11  1  0.97731100  0.74980300  0.49344000  1
  O  O0  1  0.09257800  0.85463000  0.95072200  1
  O  O1  1  0.07216500  0.84375800  0.56845700  1
  O  O2  1  0.08998000  0.64393500  0.06745500  1
  O  O3  1  0.06986200  0.66279500  0.41381800  1
  O  O4  1  0.09156400  0.17756700  0.92671300  1
  O  O5  1  0.12585100  0.16184300  0.57717200  1
  O  O6  1  0.11523300  0.33908300  0.42538500  1
  O  O7  1  0.10226000  0.34446600  0.08869900  1
  O  O8  1  0.22900700  0.96851800  0.73706000  1
  O  O9  1  0.22972300  0.51403600  0.24959200  1
  O  O10  1  0.30138700  0.08544000  0.05697200  1
  O  O11  1  0.21044600  0.96756400  0.40682600  1
  O  O12  1  0.19223800  0.53093300  0.58665400  1
  O  O13  1  0.31768300  0.42204300  0.94971100  1
  O  O14  1  0.19209400  0.92525700  0.30517700  1
  O  O15  1  0.16797000  0.54396000  0.69112500  1
  O  O16  1  0.38449800  0.87737500  0.93345500  1
  O  O17  1  0.40301300  0.87277000  0.58017900  1
  O  O18  1  0.39506100  0.63421700  0.05019300  1
  O  O19  1  0.38660000  0.64835700  0.42609500  1
  O  O20  1  0.40699200  0.11634800  0.87673000  1
  O  O21  1  0.41132500  0.11613400  0.52843400  1
  O  O22  1  0.40735400  0.39734400  0.46879500  1
  O  O23  1  0.43377100  0.39101700  0.12781400  1
  O  O24  1  0.53587100  0.94171200  0.39521200  1
  O  O25  1  0.57230300  0.60472800  0.87044500  1
  O  O26  1  0.59166400  0.59948100  0.56862800  1
  O  O27  1  0.56155400  0.88232500  0.11043300  1
  O  O28  1  0.60641200  0.34079200  0.60840400  1
  O  O29  1  0.64026700  0.16814200  0.42066100  1
  O  O30  1  0.60289000  0.37271800  0.94952800  1
  O  O31  1  0.58691400  0.12984100  0.05584800  1
  O  O32  1  0.81986000  0.41930700  0.33177400  1
  O  O33  1  0.08161100  0.01373600  0.77280200  1
  O  O34  1  0.67815800  0.59747000  0.05427700  1
  O  O35  1  0.76024800  0.47993300  0.41418400  1
  O  O36  1  0.68421100  0.92985600  0.56691500  1
  O  O37  1  0.66965500  0.91994200  0.92564600  1
  O  O38  1  0.78970700  0.48798700  0.75748400  1
  O  O39  1  0.81992800  0.02373700  0.25200200  1
  O  O40  1  0.90841200  0.66590500  0.91700500  1
  O  O41  1  0.87742700  0.83191800  0.41860100  1
  O  O42  1  0.89279600  0.66211100  0.57365300  1
  O  O43  1  0.89725500  0.81891400  0.08746300  1
  O  O44  1  0.92788600  0.32765900  0.57846700  1
  O  O45  1  0.94681100  0.14914200  0.42507800  1
  O  O46  1  0.90913300  0.36533800  0.94722000  1
  O  O47  1  0.90752900  0.16805700  0.07604200  1
loop_
_geom_bond_atom_site_label_1
_geom_bond_atom_site_label_2
_geom_bond_distance
_geom_bond_site_symmetry_2
K0 O14 2.621340 1_545
K0 O7 2.726746 1_555
K0 O45 2.762753 1_455
K0 O6 2.849522 1_555
K0 O10 2.880532 1_555
K0 O11 2.899207 1_545
K0 O47 2.909855 1_455
K0 O39 3.167156 1_455
K0 P7 3.649188 1_555
K1 O36 2.710536 1_555
K1 O37 2.769054 1_555
K1 O42 2.836262 1_555
K1 O40 2.856457 1_555
K1 O33 2.918136 1_665
K1 O1 3.084733 1_655
K2 O43 2.646390 1_555
K2 O34 2.694048 1_555
K2 O41 2.762638 1_555
K2 O32 2.776178 1_555
K2 O35 2.839163 1_555
K2 O3 3.131036 1_655
Nb0 O33 1.981617 1_555
Nb0 O0 2.039346 1_545
Nb0 O8 2.056673 1_545
Nb0 O20 2.069504 1_555
Nb0 O4 2.106007 1_555
Nb0 O16 2.111545 1_545
Nb0 O10 2.167596 1_556
Nb1 O11 1.830764 1_555
Nb1 O5 2.015897 1_565
Nb1 O1 2.052537 1_555
Nb1 O17 2.067368 1_555
Nb1 O21 2.147670 1_565
Nb1 O8 2.214313 1_555
Nb2 O12 1.824641 1_555
Nb2 O19 2.028894 1_555
Nb2 O6 2.068668 1_555
Nb2 O3 2.074288 1_555
Nb2 O22 2.151129 1_555
Nb2 O9 2.297512 1_555
Nb3 O38 1.792175 1_555
Nb3 O46 1.988195 1_555
Nb3 O30 2.089924 1_555
Nb3 O40 2.103856 1_555
Nb3 O25 2.134820 1_555
Nb3 O34 2.245402 1_556
Mo0 O9 1.772745 1_555
Mo0 O18 2.019534 1_555
Mo0 O2 2.075014 1_555
Mo0 O7 2.095979 1_555
Mo0 O23 2.119757 1_555
Mo0 O13 2.174526 1_554
Mo1 O35 2.052791 1_555
Mo1 O26 2.095747 1_555
Mo1 O28 2.100445 1_555
Mo1 O44 2.118507 1_555
Mo1 O38 2.127142 1_555
Mo1 O42 2.175834 1_555
Mo2 O39 1.864386 1_555
Mo2 O29 2.018256 1_555
Mo2 O45 2.099651 1_555
Mo2 O41 2.156003 1_545
Mo2 O24 2.272502 1_545
Mo2 O36 2.350922 1_545
Mo3 O39 2.063843 1_565
Mo3 O31 2.131793 1_565
Mo3 O27 2.143541 1_555
Mo3 O47 2.227026 1_565
Mo3 O43 2.256061 1_555
Mo3 O37 2.279501 1_554
O0 P10 1.578258 1_456
O1 P11 1.574219 1_455
O2 P10 1.548782 1_455
O3 P11 1.574919 1_455
O4 P0 1.562338 1_556
O5 P1 1.578358 1_555
O6 P1 1.581929 1_555
O7 P0 1.566356 1_555
O10 P9 1.566374 1_555
O11 O14 1.317478 1_555
O12 O15 1.296325 1_555
O13 P8 1.547986 1_556
O16 P3 1.540066 1_555
O17 P5 1.543904 1_555
O18 P2 1.554681 1_554
O19 P4 1.575195 1_555
O20 P9 1.581918 1_556
O21 P7 1.582584 1_555
O22 P6 1.573676 1_555
O23 P8 1.563000 1_555
O24 P5 1.610846 1_555
O24 P7 2.023133 1_565
O25 P2 1.562774 1_555
O26 P4 1.566916 1_555
O27 P3 1.552331 1_554
O28 P6 1.531621 1_555
O29 P7 1.578599 1_555
O30 P8 1.544140 1_556
O31 P9 1.506891 1_555
O32 O35 1.304379 1_555
O33 O8 1.488960 1_545
O34 P2 1.550366 1_554
O36 P5 1.534733 1_555
O37 P3 1.547527 1_555
O40 P10 1.586290 1_556
O41 P11 1.548360 1_555
O42 P11 1.537893 1_555
O43 P10 1.530077 1_555
O44 P1 1.523240 1_655
O45 P1 1.533185 1_655
O46 P0 1.580389 1_656
O47 P0 1.520255 1_655
