# generated using pymatgen
data_Zn(Bi19O30)2
_symmetry_space_group_name_H-M   'P 1'
_cell_length_a   8.99593737
_cell_length_b   8.99593791
_cell_length_c   53.91745002
_cell_angle_alpha   109.47806059
_cell_angle_beta   109.43374986
_cell_angle_gamma   109.54550438
_symmetry_Int_Tables_number   1
_chemical_formula_structural   Zn(Bi19O30)2
_chemical_formula_sum   'Zn2 Bi76 O120'
_cell_volume   3357.11193101
_cell_formula_units_Z   2
loop_
 _symmetry_equiv_pos_site_id
 _symmetry_equiv_pos_as_xyz
  1  'x, y, z'
loop_
 _atom_site_type_symbol
 _atom_site_label
 _atom_site_symmetry_multiplicity
 _atom_site_fract_x
 _atom_site_fract_y
 _atom_site_fract_z
 _atom_site_occupancy
  Zn  Zn0  1  0.00019042  0.00084290  0.00062411  1
  Zn  Zn1  1  0.99709826  0.99644578  0.16604289  1
  Bi  Bi0  1  0.18272452  0.86725210  0.95137737  1
  Bi  Bi1  1  0.14360445  0.33002354  0.97356018  1
  Bi  Bi2  1  0.17606063  0.51917934  0.88743391  1
  Bi  Bi3  1  0.19712318  0.85766185  0.78329460  1
  Bi  Bi4  1  0.35046129  0.83944997  0.85942258  1
  Bi  Bi5  1  0.50669450  0.67973795  0.96937372  1
  Bi  Bi6  1  0.14486924  0.34410037  0.80778445  1
  Bi  Bi7  1  0.32031852  0.17139169  0.91932057  1
  Bi  Bi8  1  0.69160604  0.82089480  0.92160579  1
  Bi  Bi9  1  0.16250596  0.49932114  0.71794701  1
  Bi  Bi10  1  0.19183018  0.85633912  0.61536874  1
  Bi  Bi11  1  0.50774480  0.30880060  0.86176159  1
  Bi  Bi12  1  0.33596345  0.83675780  0.69066953  1
  Bi  Bi13  1  0.49895452  0.66084127  0.80123323  1
  Bi  Bi14  1  0.70193388  0.18368354  0.97877416  1
  Bi  Bi15  1  0.14332299  0.33633386  0.63943477  1
  Bi  Bi16  1  0.81874482  0.51954555  0.94901576  1
  Bi  Bi17  1  0.30714078  0.16235182  0.75016415  1
  Bi  Bi18  1  0.66118047  0.80519036  0.75005154  1
  Bi  Bi19  1  0.16412467  0.49961572  0.55129726  1
  Bi  Bi20  1  0.85509918  0.69932958  0.86630050  1
  Bi  Bi21  1  0.00257538  0.00201357  0.83407337  1
  Bi  Bi22  1  0.19163911  0.85482393  0.44871999  1
  Bi  Bi23  1  0.49878997  0.30645957  0.69370494  1
  Bi  Bi24  1  0.33556940  0.83627353  0.52393975  1
  Bi  Bi25  1  0.69622616  0.19553539  0.80946043  1
  Bi  Bi26  1  0.84280928  0.15588788  0.89170933  1
  Bi  Bi27  1  0.50067711  0.66532158  0.63478456  1
  Bi  Bi28  1  0.14423195  0.33656235  0.47296206  1
  Bi  Bi29  1  0.30724967  0.16420433  0.58329263  1
  Bi  Bi30  1  0.80599830  0.50017997  0.77685785  1
  Bi  Bi31  1  0.66444854  0.80749389  0.58337437  1
  Bi  Bi32  1  0.15789427  0.49735560  0.38337240  1
  Bi  Bi33  1  0.85663737  0.69189051  0.69870673  1
  Bi  Bi34  1  0.19457790  0.85145919  0.27923309  1
  Bi  Bi35  1  0.49972722  0.30671635  0.52723223  1
  Bi  Bi36  1  0.33877283  0.83946361  0.35720657  1
  Bi  Bi37  1  0.69263305  0.19192892  0.64272625  1
  Bi  Bi38  1  0.83803080  0.14399681  0.72317837  1
  Bi  Bi39  1  0.49964812  0.66439498  0.46795927  1
  Bi  Bi40  1  0.13822905  0.33717325  0.30490441  1
  Bi  Bi41  1  0.30487911  0.16086922  0.41661446  1
  Bi  Bi42  1  0.80758446  0.50027816  0.61069771  1
  Bi  Bi43  1  0.85661421  0.69196974  0.53188244  1
  Bi  Bi44  1  0.66136893  0.80615790  0.41650285  1
  Bi  Bi45  1  0.15898986  0.47446228  0.21528963  1
  Bi  Bi46  1  0.00001240  0.00021607  0.66657284  1
  Bi  Bi47  1  0.00078103  0.00057737  0.50009416  1
  Bi  Bi48  1  0.18482266  0.86302648  0.11529936  1
  Bi  Bi49  1  0.49739169  0.29816056  0.35888155  1
  Bi  Bi50  1  0.31104060  0.82929094  0.18789284  1
  Bi  Bi51  1  0.83609390  0.14340020  0.55596929  1
  Bi  Bi52  1  0.69274060  0.19194625  0.47599747  1
  Bi  Bi53  1  0.50152655  0.65729615  0.30036650  1
  Bi  Bi54  1  0.13588987  0.32169074  0.13785528  1
  Bi  Bi55  1  0.29126005  0.16197130  0.24506121  1
  Bi  Bi56  1  0.80492862  0.49896261  0.44348863  1
  Bi  Bi57  1  0.85344386  0.69155712  0.36543377  1
  Bi  Bi58  1  0.65546627  0.80439310  0.24734543  1
  Bi  Bi59  1  0.17122831  0.49302450  0.05136664  1
  Bi  Bi60  1  0.48866247  0.30224339  0.19310682  1
  Bi  Bi61  1  0.32610942  0.83073307  0.02341432  1
  Bi  Bi62  1  0.50815651  0.67727629  0.13556876  1
  Bi  Bi63  1  0.83903085  0.14484919  0.38980815  1
  Bi  Bi64  1  0.68291650  0.19392781  0.30724442  1
  Bi  Bi65  1  0.30316060  0.16919041  0.08137742  1
  Bi  Bi66  1  0.80562993  0.49255132  0.27495667  1
  Bi  Bi67  1  0.68092592  0.81489611  0.08528958  1
  Bi  Bi68  1  0.86349362  0.69045018  0.19729228  1
  Bi  Bi69  1  0.99757136  0.99813317  0.33259263  1
  Bi  Bi70  1  0.49456104  0.30876016  0.02881172  1
  Bi  Bi71  1  0.82545099  0.12465026  0.21765124  1
  Bi  Bi72  1  0.69024513  0.18562149  0.14325168  1
  Bi  Bi73  1  0.81380097  0.50794787  0.11287213  1
  Bi  Bi74  1  0.86386375  0.69474397  0.03109824  1
  Bi  Bi75  1  0.83071710  0.13657020  0.05379487  1
  O  O0  1  0.24069320  0.61768121  0.98046130  1
  O  O1  1  0.11474041  0.74103174  0.89246798  1
  O  O2  1  0.37387864  0.75531474  0.93933075  1
  O  O3  1  0.26495738  0.38021779  0.93741897  1
  O  O4  1  0.37154668  -0.00026866  0.83304368  1
  O  O5  1  0.24441878  0.62563279  0.81442227  1
  O  O6  1  0.35511676  0.11866450  0.95725037  1
  O  O7  1  0.23114951  0.23006546  0.87104572  1
  O  O8  1  0.37795856  0.62844581  0.87665155  1
  O  O9  1  0.11669005  0.73779618  0.72599962  1
  O  O10  1  0.62198801  0.62139251  0.93722263  1
  O  O11  1  0.37955913  0.75492134  0.77327564  1
  O  O12  1  0.62724492  0.88679862  0.87282242  1
  O  O13  1  0.63687159  0.37528286  0.95989933  1
  O  O14  1  0.26121826  0.37738465  0.76973913  1
  O  O15  1  0.35529695  0.11568558  0.78940506  1
  O  O16  1  0.24397885  0.62347698  0.64728768  1
  O  O17  1  0.62680917  0.25944251  0.89651765  1
  O  O18  1  0.99527830  0.99036117  0.96136691  1
  O  O19  1  0.23830226  0.23902720  0.70591739  1
  O  O20  1  0.00194835  0.76321362  0.50050773  1
  O  O21  1  0.37619832  0.62048511  0.71005373  1
  O  O22  1  0.11642076  0.73940912  0.56015744  1
  O  O23  1  0.76143813  0.64281532  0.89708475  1
  O  O24  1  0.76819189  0.99678093  0.83167113  1
  O  O25  1  0.62693053  0.62657488  0.77111281  1
  O  O26  1  0.00051596  0.00083380  0.89462959  1
  O  O27  1  0.62223280  0.88322265  0.70717324  1
  O  O28  1  0.37846448  0.75547612  0.60650956  1
  O  O29  1  0.73930233  0.35654525  0.85248356  1
  O  O30  1  0.63821357  0.37929374  0.79225017  1
  O  O31  1  0.88400094  0.23587474  0.93746807  1
  O  O32  1  0.26080313  0.37729116  0.60361281  1
  O  O33  1  0.36982031  -0.00047468  0.66652916  1
  O  O34  1  0.37009021  0.99970383  0.50002915  1
  O  O35  1  0.36089489  0.11666677  0.62327695  1
  O  O36  1  0.62016940  0.25981276  0.72920213  1
  O  O37  1  0.24407890  0.62360645  0.48064272  1
  O  O38  1  0.99446211  0.76750357  0.83205613  1
  O  O39  1  0.99762644  0.99674653  0.79519149  1
  O  O40  1  0.23900721  0.23950646  0.53985614  1
  O  O41  1  0.75558077  0.63970175  0.72983779  1
  O  O42  1  0.37700505  0.62123318  0.54339005  1
  O  O43  1  0.11526551  0.73990330  0.39339036  1
  O  O44  1  0.99726642  0.37180577  0.83313614  1
  O  O45  1  0.62999930  0.62997826  0.60505812  1
  O  O46  1  0.73974814  0.36022060  0.68602328  1
  O  O47  1  0.62302787  0.88333596  0.54069281  1
  O  O48  1  0.38180048  0.76069435  0.44066738  1
  O  O49  1  0.88487396  0.24307685  0.77052133  1
  O  O50  1  0.63917709  0.37886900  0.62597319  1
  O  O51  1  0.26067702  0.37655604  0.43682921  1
  O  O52  1  0.36016071  0.11587391  0.45661227  1
  O  O53  1  0.24164386  0.62440094  0.31418344  1
  O  O54  1  0.62117194  0.26033711  0.56281407  1
  O  O55  1  0.22559762  0.22647753  0.37147551  1
  O  O56  1  0.00036760  -0.00013165  0.62680986  1
  O  O57  1  0.00008974  0.76149159  0.66655926  1
  O  O58  1  0.75561629  0.63912826  0.56305419  1
  O  O59  1  0.37925721  0.61886858  0.37726194  1
  O  O60  1  0.11933022  0.73789412  0.22733625  1
  O  O61  1  0.76016724  0.99890197  0.66615927  1
  O  O62  1  0.76213804  0.00073618  0.50010774  1
  O  O63  1  -0.00096466  0.99866583  0.72823790  1
  O  O64  1  0.62923641  0.62960592  0.43842810  1
  O  O65  1  -0.00047109  0.36991529  0.66663785  1
  O  O66  1  0.99962952  0.99965056  0.56160888  1
  O  O67  1  0.73975092  0.36025278  0.51937932  1
  O  O68  1  0.38622188  0.75993056  0.27419802  1
  O  O69  1  0.62579270  0.88471253  0.37441683  1
  O  O70  1  0.64018319  0.37919334  0.45949376  1
  O  O71  1  0.88345071  0.24428554  0.60385193  1
  O  O72  1  0.26030480  0.37892761  0.26958125  1
  O  O73  1  0.37298693  0.99844757  0.33352986  1
  O  O74  1  0.36853652  0.11804927  0.29001545  1
  O  O75  1  0.23816470  0.61647635  0.14655343  1
  O  O76  1  0.61994888  0.26174599  0.39614567  1
  O  O77  1  0.22216172  0.22707884  0.20530009  1
  O  O78  1  0.99235595  0.76730261  0.99905764  1
  O  O79  1  0.75894787  0.64278147  0.39692687  1
  O  O80  1  0.37516029  0.61161256  0.20941563  1
  O  O81  1  0.11802262  0.73575929  0.05988571  1
  O  O82  1  0.63305627  0.63273843  0.27203741  1
  O  O83  1  0.00035237  0.37064736  0.50013784  1
  O  O84  1  0.73910118  0.35788718  0.35224473  1
  O  O85  1  0.61588887  0.87747760  0.20676767  1
  O  O86  1  0.37644504  0.75870837  0.10678129  1
  O  O87  1  0.64986610  0.39031239  0.29384458  1
  O  O88  1  0.88459995  0.24495659  0.43746487  1
  O  O89  1  0.26418991  0.38216830  0.10387057  1
  O  O90  1  0.37665138  0.99919527  0.16643593  1
  O  O91  1  0.35998462  0.11842131  0.12279873  1
  O  O92  1  0.61106833  0.25919453  0.22919893  1
  O  O93  1  0.00352287  0.00279792  0.46074961  1
  O  O94  1  0.00379317  0.00487721  0.29562128  1
  O  O95  1  0.00675216  0.77816313  0.33499487  1
  O  O96  1  0.22617731  0.22718603  0.03808326  1
  O  O97  1  0.75570397  0.64044357  0.22924803  1
  O  O98  1  0.38162894  0.62319225  0.04386827  1
  O  O99  1  0.77516479  0.00212333  0.33460987  1
  O  O100  1  -0.00009996  0.00025569  0.39555419  1
  O  O101  1  0.00146725  0.37328259  0.33362232  1
  O  O102  1  0.99805472  0.99865022  0.22944337  1
  O  O103  1  0.62370662  0.62372403  0.10401392  1
  O  O104  1  0.73491140  0.35792339  0.18620470  1
  O  O105  1  0.61626605  0.88170414  0.03967326  1
  O  O106  1  0.88033864  0.24770529  0.27014935  1
  O  O107  1  0.64366255  0.37822446  0.12699274  1
  O  O108  1  0.37737877  -0.00005063  0.00023474  1
  O  O109  1  0.62328867  0.26483248  0.06391224  1
  O  O110  1  0.99868449  0.99767577  0.12858274  1
  O  O111  1  0.00573336  0.77472829  0.16752685  1
  O  O112  1  0.75894690  0.64096851  0.06279643  1
  O  O113  1  0.77295674  0.99801008  0.16760936  1
  O  O114  1  0.99964053  0.99962312  0.06265308  1
  O  O115  1  0.99854093  0.37597032  0.16643226  1
  O  O116  1  0.73715575  0.35884410  0.02011357  1
  O  O117  1  0.88135706  0.23981326  0.10275376  1
  O  O118  1  0.76956916  0.00057424  0.99914015  1
  O  O119  1  0.00058171  0.37803781  0.00023107  1
loop_
_geom_bond_atom_site_label_1
_geom_bond_atom_site_label_2
_geom_bond_distance
_geom_bond_site_symmetry_2
Bi0 O6 2.114069 1_565
Bi0 O108 2.205756 1_566
Bi0 O18 2.411680 1_455
Bi0 O2 2.420465 1_555
Bi0 O1 2.754888 1_555
Bi1 O31 2.124014 1_455
Bi1 O119 2.258028 1_556
Bi1 O0 2.286275 1_555
Bi1 O3 2.620193 1_555
Bi1 O18 2.626357 1_445
Bi2 O8 2.119466 1_555
Bi2 O1 2.199112 1_555
Bi2 O2 2.387891 1_555
Bi2 O44 2.401434 1_455
Bi2 O7 2.722498 1_555
Bi3 O15 2.118761 1_565
Bi3 O4 2.204924 1_565
Bi3 O11 2.260853 1_555
Bi3 O39 2.632685 1_455
Bi3 O9 2.645466 1_555
Bi4 O5 2.148593 1_555
Bi4 O12 2.188884 1_555
Bi4 O4 2.345644 1_565
Bi4 O8 2.421654 1_555
Bi4 O38 2.772025 1_455
Bi5 O2 2.122214 1_555
Bi5 O10 2.304374 1_555
Bi5 O3 2.334069 1_555
Bi5 O118 2.513315 1_565
Bi5 O0 2.583755 1_555
Bi6 O49 2.136837 1_455
Bi6 O44 2.212613 1_455
Bi6 O5 2.238085 1_555
Bi6 O14 2.649840 1_555
Bi6 O39 2.682703 1_445
Bi7 O3 2.110976 1_555
Bi7 O6 2.196722 1_555
Bi7 O26 2.353465 1_555
Bi7 O13 2.437908 1_555
Bi7 O7 2.739904 1_555
Bi8 O23 2.126635 1_555
Bi8 O10 2.220099 1_555
Bi8 O18 2.349376 1_555
Bi8 O8 2.493093 1_555
Bi8 O12 2.803803 1_555
Bi9 O21 2.125187 1_555
Bi9 O9 2.247279 1_555
Bi9 O65 2.273607 1_555
Bi9 O11 2.558190 1_555
Bi9 O19 2.591991 1_555
Bi10 O35 2.121015 1_565
Bi10 O28 2.265896 1_555
Bi10 O33 2.267890 1_565
Bi10 O22 2.553195 1_555
Bi10 O56 2.584217 1_565
Bi11 O17 2.096092 1_555
Bi11 O29 2.238747 1_555
Bi11 O4 2.283925 1_555
Bi11 O23 2.562656 1_555
Bi11 O7 2.613351 1_555
Bi12 O16 2.119886 1_555
Bi12 O27 2.259493 1_555
Bi12 O33 2.273169 1_565
Bi12 O21 2.565956 1_555
Bi12 O57 2.590023 1_555
Bi13 O11 2.126934 1_555
Bi13 O14 2.237493 1_555
Bi13 O25 2.281579 1_555
Bi13 O5 2.568580 1_555
Bi13 O24 2.615802 1_555
Bi14 O116 2.098840 1_556
Bi14 O119 2.247893 1_656
Bi14 O118 2.392006 1_555
Bi14 O13 2.407809 1_555
Bi14 O6 2.709221 1_555
Bi15 O71 2.119535 1_455
Bi15 O16 2.263216 1_555
Bi15 O65 2.268114 1_555
Bi15 O32 2.560356 1_555
Bi15 O56 2.591862 1_555
Bi16 O13 2.105110 1_555
Bi16 O10 2.258623 1_555
Bi16 O78 2.354367 1_555
Bi16 O17 2.468997 1_555
Bi16 O31 2.725872 1_555
Bi17 O14 2.118935 1_555
Bi17 O15 2.223624 1_555
Bi17 O63 2.275073 1_545
Bi17 O30 2.547251 1_555
Bi17 O19 2.636443 1_555
Bi18 O41 2.122514 1_555
Bi18 O21 2.250593 1_555
Bi18 O25 2.254930 1_555
Bi18 O27 2.582286 1_555
Bi18 O39 2.620121 1_555
Bi19 O42 2.120998 1_555
Bi19 O22 2.265907 1_555
Bi19 O83 2.267846 1_555
Bi19 O28 2.553234 1_555
Bi19 O40 2.584217 1_555
Bi20 O1 2.110623 1_655
Bi20 O23 2.220382 1_555
Bi20 O26 2.221353 1_665
Bi20 O29 2.636541 1_555
Bi20 O38 2.671704 1_555
Bi21 O7 2.033028 1_555
Bi21 O38 2.050950 1_445
Bi21 O24 2.052451 1_445
Bi21 O39 2.066254 1_445
Bi22 O52 2.125189 1_565
Bi22 O48 2.247285 1_555
Bi22 O34 2.273608 1_555
Bi22 O43 2.558235 1_555
Bi22 O93 2.591991 1_565
Bi23 O36 2.117312 1_555
Bi23 O46 2.265760 1_555
Bi23 O33 2.268084 1_555
Bi23 O41 2.568169 1_555
Bi23 O19 2.575803 1_555
Bi24 O37 2.115814 1_555
Bi24 O47 2.267245 1_555
Bi24 O34 2.268242 1_555
Bi24 O42 2.560525 1_555
Bi24 O20 2.576584 1_555
Bi25 O29 2.101116 1_555
Bi25 O44 2.225827 1_555
Bi25 O30 2.268052 1_555
Bi25 O24 2.595511 1_545
Bi25 O15 2.625386 1_555
Bi26 O12 2.135032 1_545
Bi26 O31 2.184359 1_555
Bi26 O26 2.303283 1_655
Bi26 O17 2.469032 1_555
Bi26 O24 2.792738 1_545
Bi27 O28 2.120491 1_555
Bi27 O32 2.266331 1_555
Bi27 O45 2.274170 1_555
Bi27 O16 2.559739 1_555
Bi27 O61 2.572113 1_555
Bi28 O88 2.117319 1_455
Bi28 O37 2.265745 1_555
Bi28 O83 2.268084 1_555
Bi28 O51 2.568169 1_555
Bi28 O93 2.575820 1_555
Bi29 O32 2.118833 1_555
Bi29 O35 2.263644 1_555
Bi29 O66 2.273366 1_445
Bi29 O50 2.558636 1_555
Bi29 O40 2.588476 1_555
Bi30 O30 2.118197 1_555
Bi30 O36 2.256145 1_555
Bi30 O25 2.261010 1_555
Bi30 O38 2.579987 1_555
Bi30 O49 2.588836 1_555
Bi31 O58 2.118836 1_555
Bi31 O42 2.263644 1_555
Bi31 O45 2.273350 1_555
Bi31 O47 2.558674 1_555
Bi31 O56 2.588449 1_665
Bi32 O59 2.118780 1_555
Bi32 O101 2.204968 1_555
Bi32 O43 2.260848 1_555
Bi32 O55 2.632685 1_555
Bi32 O48 2.645472 1_555
Bi33 O9 2.113384 1_655
Bi33 O41 2.262658 1_555
Bi33 O63 2.266975 1_655
Bi33 O46 2.556794 1_555
Bi33 O57 2.594864 1_655
Bi34 O74 2.119447 1_565
Bi34 O68 2.199113 1_555
Bi34 O60 2.387886 1_555
Bi34 O73 2.401390 1_555
Bi34 O94 2.722498 1_565
Bi35 O54 2.119506 1_555
Bi35 O67 2.263200 1_555
Bi35 O34 2.268114 1_545
Bi35 O58 2.560356 1_555
Bi35 O40 2.591861 1_555
Bi36 O53 2.101117 1_555
Bi36 O73 2.225855 1_555
Bi36 O69 2.268052 1_555
Bi36 O95 2.595523 1_555
Bi36 O59 2.625374 1_555
Bi37 O46 2.115814 1_555
Bi37 O50 2.267245 1_555
Bi37 O65 2.268254 1_655
Bi37 O35 2.560504 1_555
Bi37 O61 2.576607 1_545
Bi38 O27 2.122402 1_545
Bi38 O49 2.236838 1_555
Bi38 O63 2.263507 1_645
Bi38 O36 2.568317 1_555
Bi38 O61 2.631539 1_545
Bi39 O48 2.113363 1_555
Bi39 O51 2.262623 1_555
Bi39 O64 2.266975 1_555
Bi39 O37 2.556794 1_555
Bi39 O62 2.594897 1_565
Bi40 O106 2.096056 1_455
Bi40 O53 2.238747 1_555
Bi40 O101 2.283925 1_555
Bi40 O72 2.562656 1_555
Bi40 O94 2.613336 1_555
Bi41 O51 2.122534 1_555
Bi41 O52 2.250593 1_555
Bi41 O100 2.254903 1_555
Bi41 O70 2.582312 1_555
Bi41 O55 2.620083 1_555
Bi42 O50 2.118832 1_555
Bi42 O54 2.262168 1_555
Bi42 O45 2.273001 1_555
Bi42 O71 2.560811 1_555
Bi42 O57 2.584330 1_655
Bi43 O22 2.120498 1_655
Bi43 O58 2.266315 1_555
Bi43 O66 2.274170 1_555
Bi43 O67 2.559739 1_555
Bi43 O20 2.572130 1_655
Bi44 O79 2.118951 1_555
Bi44 O59 2.223624 1_555
Bi44 O64 2.275062 1_555
Bi44 O69 2.547238 1_555
Bi44 O93 2.636432 1_665
Bi45 O80 2.114065 1_555
Bi45 O115 2.205754 1_455
Bi45 O77 2.411680 1_555
Bi45 O60 2.420458 1_555
Bi45 O68 2.754844 1_555
Bi46 O19 2.136344 1_555
Bi46 O56 2.143945 1_555
Bi46 O61 2.146335 1_445
Bi46 O57 2.147540 1_545
Bi47 O93 2.136332 1_555
Bi47 O40 2.143903 1_555
Bi47 O20 2.146335 1_545
Bi47 O62 2.147539 1_455
Bi48 O91 2.111670 1_565
Bi48 O90 2.290741 1_555
Bi48 O86 2.320557 1_555
Bi48 O110 2.522051 1_455
Bi48 O81 2.581147 1_555
Bi49 O76 2.136875 1_555
Bi49 O73 2.212613 1_545
Bi49 O84 2.238087 1_555
Bi49 O79 2.649840 1_555
Bi49 O55 2.682720 1_555
Bi50 O75 2.098840 1_555
Bi50 O90 2.247876 1_555
Bi50 O111 2.392016 1_555
Bi50 O85 2.407809 1_555
Bi50 O80 2.709211 1_555
Bi51 O47 2.118855 1_545
Bi51 O71 2.262130 1_555
Bi51 O66 2.273001 1_545
Bi51 O54 2.560808 1_555
Bi51 O62 2.584330 1_555
Bi52 O67 2.119886 1_555
Bi52 O70 2.259493 1_555
Bi52 O83 2.273185 1_655
Bi52 O52 2.565965 1_555
Bi52 O62 2.590012 1_555
Bi53 O68 2.110651 1_555
Bi53 O72 2.220401 1_555
Bi53 O82 2.221353 1_555
Bi53 O53 2.636541 1_555
Bi53 O99 2.671688 1_565
Bi54 O117 2.103702 1_455
Bi54 O115 2.303898 1_455
Bi54 O75 2.312964 1_555
Bi54 O110 2.545553 1_445
Bi54 O89 2.576370 1_555
Bi55 O72 2.126613 1_555
Bi55 O102 2.220104 1_445
Bi55 O77 2.349387 1_555
Bi55 O74 2.493093 1_555
Bi55 O87 2.803814 1_555
Bi56 O70 2.122422 1_555
Bi56 O76 2.236845 1_555
Bi56 O64 2.263512 1_555
Bi56 O88 2.568323 1_555
Bi56 O20 2.631539 1_655
Bi57 O43 2.126905 1_655
Bi57 O79 2.237474 1_555
Bi57 O100 2.281580 1_665
Bi57 O84 2.568580 1_555
Bi57 O95 2.615816 1_655
Bi58 O97 2.110958 1_555
Bi58 O80 2.196722 1_555
Bi58 O82 2.353493 1_555
Bi58 O85 2.437882 1_555
Bi58 O94 2.739944 1_665
Bi59 O98 2.111654 1_555
Bi59 O119 2.290698 1_555
Bi59 O81 2.320567 1_555
Bi59 O96 2.522051 1_555
Bi59 O86 2.581185 1_555
Bi60 O92 2.124008 1_555
Bi60 O90 2.258029 1_545
Bi60 O104 2.286289 1_555
Bi60 O97 2.620193 1_555
Bi60 O77 2.626340 1_555
Bi61 O0 2.120746 1_554
Bi61 O105 2.280455 1_555
Bi61 O108 2.296629 1_565
Bi61 O98 2.565540 1_555
Bi61 O78 2.606711 1_454
Bi62 O86 2.113050 1_555
Bi62 O103 2.274319 1_555
Bi62 O89 2.316279 1_555
Bi62 O113 2.514453 1_555
Bi62 O75 2.614102 1_555
Bi63 O69 2.118193 1_545
Bi63 O88 2.256189 1_555
Bi63 O100 2.261015 1_655
Bi63 O99 2.579987 1_555
Bi63 O76 2.588843 1_555
Bi64 O84 2.148593 1_555
Bi64 O87 2.188884 1_555
Bi64 O101 2.345615 1_655
Bi64 O74 2.421667 1_555
Bi64 O99 2.772011 1_555
Bi65 O89 2.108863 1_555
Bi65 O114 2.270074 1_445
Bi65 O91 2.352535 1_555
Bi65 O96 2.485763 1_555
Bi65 O107 2.648822 1_555
Bi66 O87 2.135040 1_555
Bi66 O92 2.184315 1_555
Bi66 O82 2.303281 1_555
Bi66 O106 2.469025 1_555
Bi66 O95 2.792738 1_655
Bi67 O112 2.108865 1_555
Bi67 O103 2.270058 1_555
Bi67 O98 2.352535 1_555
Bi67 O110 2.485735 1_555
Bi67 O105 2.648861 1_555
Bi68 O60 2.122239 1_655
Bi68 O102 2.304374 1_555
Bi68 O97 2.334103 1_555
Bi68 O111 2.513283 1_655
Bi68 O104 2.583756 1_555
Bi69 O94 2.032999 1_665
Bi69 O99 2.050950 1_565
Bi69 O95 2.052451 1_655
Bi69 O55 2.066285 1_665
Bi70 O109 2.103673 1_555
Bi70 O108 2.303898 1_555
Bi70 O116 2.312948 1_555
Bi70 O96 2.545554 1_555
Bi70 O112 2.576370 1_555
Bi71 O85 2.105090 1_545
Bi71 O102 2.258613 1_545
Bi71 O113 2.354367 1_545
Bi71 O106 2.468991 1_555
Bi71 O92 2.725866 1_555
Bi72 O104 2.120746 1_555
Bi72 O107 2.280455 1_555
Bi72 O115 2.296640 1_555
Bi72 O91 2.565518 1_555
Bi72 O113 2.606734 1_545
Bi73 O107 2.111141 1_555
Bi73 O103 2.284121 1_555
Bi73 O109 2.306555 1_555
Bi73 O111 2.559290 1_655
Bi73 O117 2.609443 1_555
Bi74 O81 2.113056 1_655
Bi74 O114 2.274319 1_555
Bi74 O112 2.316263 1_555
Bi74 O78 2.514470 1_554
Bi74 O116 2.614103 1_555
Bi75 O105 2.111164 1_545
Bi75 O114 2.284122 1_545
Bi75 O117 2.306517 1_555
Bi75 O118 2.559289 1_554
Bi75 O109 2.609439 1_555
O18 Zn0 2.071935 1_666
O77 Zn1 2.071946 1_445
O78 Zn0 2.050505 1_666
O96 Zn0 2.028188 1_555
O110 Zn1 2.028230 1_555
O111 Zn1 2.048574 1_455
O113 Zn1 2.050505 1_555
O118 Zn0 2.048574 1_656
