# generated using pymatgen
data_Mn5Ge3
_symmetry_space_group_name_H-M   'P 1'
_cell_length_a   7.19772566
_cell_length_b   7.20164705
_cell_length_c   4.99794068
_cell_angle_alpha   90.00162767
_cell_angle_beta   89.99878024
_cell_angle_gamma   119.96535691
_symmetry_Int_Tables_number   1
_chemical_formula_structural   Mn5Ge3
_chemical_formula_sum   'Mn10 Ge6'
_cell_volume   224.44004777
_cell_formula_units_Z   2
loop_
 _symmetry_equiv_pos_site_id
 _symmetry_equiv_pos_as_xyz
  1  'x, y, z'
loop_
 _atom_site_type_symbol
 _atom_site_label
 _atom_site_symmetry_multiplicity
 _atom_site_fract_x
 _atom_site_fract_y
 _atom_site_fract_z
 _atom_site_occupancy
  Mn  Mn0  1  0.24166355  0.24148838  0.75000469  1
  Mn  Mn1  1  0.00024165  0.75875992  0.75003920  1
  Mn  Mn2  1  0.75922492  0.00005487  0.74999300  1
  Mn  Mn3  1  0.24077575  0.99994700  0.24999968  1
  Mn  Mn4  1  0.33333001  0.66673405  -0.00000111  1
  Mn  Mn5  1  0.75833771  0.75850679  0.25000355  1
  Mn  Mn6  1  0.66667178  0.33326901  -0.00000191  1
  Mn  Mn7  1  0.99975902  0.24124072  0.24996031  1
  Mn  Mn8  1  0.33334713  0.66674313  0.50000452  1
  Mn  Mn9  1  0.66664922  0.33325731  0.49999789  1
  Ge  Ge0  1  0.60532565  0.99993631  0.24997807  1
  Ge  Ge1  1  0.60573547  0.60569765  0.75002469  1
  Ge  Ge2  1  0.99993497  0.60559036  0.25001924  1
  Ge  Ge3  1  0.00011665  0.39443296  0.74997864  1
  Ge  Ge4  1  0.39423769  0.39432832  0.24998303  1
  Ge  Ge5  1  0.39465083  0.00001323  0.75001454  1
loop_
_geom_bond_atom_site_label_1
_geom_bond_atom_site_label_2
_geom_bond_distance
_geom_bond_site_symmetry_2
Ge0 Mn5 2.479692 1_555
Ge0 Mn7 2.480223 1_565
Ge0 Mn4 2.541431 1_555
Ge0 Mn8 2.541500 1_555
Ge0 Mn6 2.541621 1_565
Ge0 Mn9 2.541637 1_565
Ge0 Mn3 2.623969 1_555
Ge0 Mn2 2.733216 1_564
Ge0 Mn2 2.733396 1_565
Ge1 Mn1 2.480189 1_655
Ge1 Mn2 2.480313 1_565
Ge1 Mn4 2.541508 1_556
Ge1 Mn8 2.541605 1_555
Ge1 Mn6 2.542088 1_556
Ge1 Mn9 2.542137 1_555
Ge1 Mn0 2.623072 1_555
Ge1 Mn5 2.730258 1_556
Ge1 Mn5 2.730466 1_555
Ge2 Mn5 2.479862 1_555
Ge2 Mn3 2.480466 1_655
Ge2 Mn4 2.541299 1_655
Ge2 Mn8 2.541337 1_655
Ge2 Mn6 2.542081 1_555
Ge2 Mn9 2.542097 1_555
Ge2 Mn7 2.623285 1_555
Ge2 Mn1 2.731090 1_654
Ge2 Mn1 2.731215 1_655
Ge3 Mn0 2.479689 1_555
Ge3 Mn2 2.480635 1_455
Ge3 Mn6 2.541561 1_456
Ge3 Mn9 2.541618 1_455
Ge3 Mn8 2.541815 1_555
Ge3 Mn4 2.541835 1_556
Ge3 Mn1 2.623305 1_555
Ge3 Mn7 2.731090 1_456
Ge3 Mn7 2.731200 1_455
Ge4 Mn7 2.479983 1_455
Ge4 Mn3 2.480498 1_545
Ge4 Mn6 2.541803 1_555
Ge4 Mn9 2.541838 1_555
Ge4 Mn4 2.541858 1_555
Ge4 Mn8 2.541873 1_555
Ge4 Mn5 2.623062 1_555
Ge4 Mn0 2.730260 1_554
Ge4 Mn0 2.730472 1_555
Ge5 Mn0 2.479854 1_555
Ge5 Mn1 2.480038 1_545
Ge5 Mn8 2.541341 1_545
Ge5 Mn4 2.541355 1_546
Ge5 Mn6 2.541712 1_556
Ge5 Mn9 2.541723 1_555
Ge5 Mn2 2.623955 1_555
Ge5 Mn3 2.733222 1_546
Ge5 Mn3 2.733401 1_545
