# generated using pymatgen
data_CsKPt6(S3O14)2
_symmetry_space_group_name_H-M   'P 1'
_cell_length_a   11.56854975
_cell_length_b   11.56854976
_cell_length_c   11.56854951
_cell_angle_alpha   62.74563211
_cell_angle_beta   62.74563211
_cell_angle_gamma   62.74563328
_symmetry_Int_Tables_number   1
_chemical_formula_structural   CsKPt6(S3O14)2
_chemical_formula_sum   'Cs2 K2 Pt12 S12 O56'
_cell_volume   1161.62859467
_cell_formula_units_Z   2
loop_
 _symmetry_equiv_pos_site_id
 _symmetry_equiv_pos_as_xyz
  1  'x, y, z'
loop_
 _atom_site_type_symbol
 _atom_site_label
 _atom_site_symmetry_multiplicity
 _atom_site_fract_x
 _atom_site_fract_y
 _atom_site_fract_z
 _atom_site_occupancy
  Cs  Cs0  1  0.41353991  0.41353991  0.41353991  1
  Cs  Cs1  1  0.58646009  0.58646009  0.58646009  1
  K  K0  1  0.20549712  0.20549712  0.20549712  1
  K  K1  1  0.79450288  0.79450288  0.79450288  1
  Pt  Pt0  1  0.14787724  0.75134772  0.19833789  1
  Pt  Pt1  1  0.19833789  0.14787724  0.75134772  1
  Pt  Pt2  1  0.72659946  0.98189097  0.03710493  1
  Pt  Pt3  1  0.85212276  0.24865228  0.80166211  1
  Pt  Pt4  1  0.80166211  0.85212276  0.24865228  1
  Pt  Pt5  1  0.24865228  0.80166211  0.85212276  1
  Pt  Pt6  1  0.98189097  0.03710493  0.72659946  1
  Pt  Pt7  1  0.75134772  0.19833789  0.14787724  1
  Pt  Pt8  1  0.27340054  0.01810903  0.96289507  1
  Pt  Pt9  1  0.96289507  0.27340054  0.01810903  1
  Pt  Pt10  1  0.01810903  0.96289507  0.27340054  1
  Pt  Pt11  1  0.03710493  0.72659946  0.98189097  1
  S  S0  1  0.29532293  0.51143141  0.05648646  1
  S  S1  1  0.74017565  0.67838847  0.15930498  1
  S  S2  1  0.70467707  0.48856859  0.94351354  1
  S  S3  1  0.25982435  0.32161153  0.84069502  1
  S  S4  1  0.67838847  0.15930498  0.74017565  1
  S  S5  1  0.05648646  0.29532293  0.51143141  1
  S  S6  1  0.32161153  0.84069502  0.25982435  1
  S  S7  1  0.48856859  0.94351354  0.70467707  1
  S  S8  1  0.15930498  0.74017565  0.67838847  1
  S  S9  1  0.94351354  0.70467707  0.48856859  1
  S  S10  1  0.84069502  0.25982435  0.32161153  1
  S  S11  1  0.51143141  0.05648646  0.29532293  1
  O  O0  1  0.07251998  0.37406771  0.37119046  1
  O  O1  1  0.82012666  0.07507371  0.67255693  1
  O  O2  1  0.37165369  0.92805010  0.11830907  1
  O  O3  1  0.88169093  0.62834631  0.07194990  1
  O  O4  1  0.00467156  0.24092610  0.84536142  1
  O  O5  1  0.66280812  0.59046511  0.20699509  1
  O  O6  1  0.24092610  0.84536142  0.00467156  1
  O  O7  1  0.74558686  0.69471725  0.27923991  1
  O  O8  1  0.39726477  0.07828814  0.63720378  1
  O  O9  1  0.15650944  0.53398060  0.05455086  1
  O  O10  1  0.20699509  0.66280812  0.59046511  1
  O  O11  1  0.44687066  0.83091478  0.72367777  1
  O  O12  1  0.94544914  0.84349056  0.46601940  1
  O  O13  1  0.72076009  0.25441314  0.30528275  1
  O  O14  1  0.37406771  0.37119046  0.07251998  1
  O  O15  1  0.69471725  0.27923991  0.74558686  1
  O  O16  1  0.30528275  0.72076009  0.25441314  1
  O  O17  1  0.05455086  0.15650944  0.53398060  1
  O  O18  1  0.92492629  0.32744307  0.17987334  1
  O  O19  1  0.63720378  0.39726477  0.07828814  1
  O  O20  1  0.11830907  0.37165369  0.92805010  1
  O  O21  1  0.75907390  0.15463858  0.99532844  1
  O  O22  1  0.07194990  0.88169093  0.62834631  1
  O  O23  1  0.37119046  0.07251998  0.37406771  1
  O  O24  1  0.72367777  0.44687066  0.83091478  1
  O  O25  1  0.27632223  0.55312934  0.16908522  1
  O  O26  1  0.17987334  0.92492629  0.32744307  1
  O  O27  1  0.90652521  0.90652521  0.90652521  1
  O  O28  1  0.62880954  0.92748002  0.62593229  1
  O  O29  1  0.15463858  0.99532844  0.75907390  1
  O  O30  1  0.09347479  0.09347479  0.09347479  1
  O  O31  1  0.79300491  0.33719188  0.40953489  1
  O  O32  1  0.07507371  0.67255693  0.82012666  1
  O  O33  1  0.60273523  0.92171186  0.36279622  1
  O  O34  1  0.92171186  0.36279622  0.60273523  1
  O  O35  1  0.62834631  0.07194990  0.88169093  1
  O  O36  1  0.27923991  0.74558686  0.69471725  1
  O  O37  1  0.46601940  0.94544914  0.84349056  1
  O  O38  1  0.62593229  0.62880954  0.92748002  1
  O  O39  1  0.33719188  0.40953489  0.79300491  1
  O  O40  1  0.25441314  0.30528275  0.72076009  1
  O  O41  1  0.07828814  0.63720378  0.39726477  1
  O  O42  1  0.59046511  0.20699509  0.66280812  1
  O  O43  1  0.32744307  0.17987334  0.92492629  1
  O  O44  1  0.84349056  0.46601940  0.94544914  1
  O  O45  1  0.99532844  0.75907390  0.15463858  1
  O  O46  1  0.92805010  0.11830907  0.37165369  1
  O  O47  1  0.40953489  0.79300491  0.33719188  1
  O  O48  1  0.36279622  0.60273523  0.92171186  1
  O  O49  1  0.83091478  0.72367777  0.44687066  1
  O  O50  1  0.53398060  0.05455086  0.15650944  1
  O  O51  1  0.92748002  0.62593229  0.62880954  1
  O  O52  1  0.55312934  0.16908522  0.27632223  1
  O  O53  1  0.16908522  0.27632223  0.55312934  1
  O  O54  1  0.84536142  0.00467156  0.24092610  1
  O  O55  1  0.67255693  0.82012666  0.07507371  1
loop_
_geom_bond_atom_site_label_1
_geom_bond_atom_site_label_2
_geom_bond_distance
_geom_bond_site_symmetry_2
Cs0 O40 3.103452 1_555
Cs0 O16 3.103453 1_555
Cs0 O13 3.103453 1_555
Cs0 O25 3.272040 1_555
Cs0 O53 3.272040 1_555
Cs0 O52 3.272040 1_555
Cs0 O19 3.578240 1_555
Cs0 O8 3.578240 1_555
Cs0 O41 3.578240 1_555
Cs0 O5 3.581894 1_555
Cs0 O42 3.581894 1_555
Cs0 O10 3.581894 1_555
Cs1 O7 3.103452 1_555
Cs1 O15 3.103453 1_555
Cs1 O36 3.103453 1_555
Cs1 O24 3.272040 1_555
Cs1 O49 3.272040 1_555
Cs1 O11 3.272040 1_555
Cs1 O48 3.578240 1_555
Cs1 O33 3.578240 1_555
Cs1 O34 3.578240 1_555
Cs1 O39 3.581894 1_555
Cs1 O47 3.581894 1_555
Cs1 O31 3.581894 1_555
K0 O14 2.796248 1_555
K0 O23 2.796248 1_555
K0 O0 2.796248 1_555
K0 O43 2.986245 1_554
K0 O26 2.986245 1_545
K0 O18 2.986246 1_455
K0 O30 3.106910 1_555
K0 O20 3.248512 1_554
K0 O46 3.248512 1_455
K0 O2 3.248512 1_545
K0 O17 3.266099 1_555
K0 O9 3.266100 1_555
K0 O50 3.266100 1_555
K1 O38 2.796248 1_555
K1 O28 2.796248 1_555
K1 O51 2.796248 1_555
K1 O55 2.986245 1_556
K1 O1 2.986245 1_565
K1 O32 2.986246 1_655
K1 O27 3.106910 1_555
K1 O3 3.248512 1_556
K1 O22 3.248512 1_655
K1 O35 3.248512 1_565
K1 O12 3.266099 1_555
K1 O44 3.266100 1_555
K1 O37 3.266100 1_555
O0 S5 1.421942 1_555
O1 S4 1.519886 1_555
O1 Pt6 2.037905 1_555
O2 S6 1.479561 1_555
O2 Pt8 2.163656 1_564
O3 S1 1.479561 1_555
O3 Pt11 2.163656 1_654
O4 Pt1 1.998213 1_555
O4 Pt9 2.001303 1_456
O4 Pt3 2.002305 1_455
O5 S1 1.416906 1_555
O6 Pt0 1.998213 1_555
O6 Pt8 2.001303 1_564
O6 Pt5 2.002305 1_554
O7 S1 1.514963 1_555
O7 Pt4 2.035540 1_555
O8 S7 1.512629 1_545
O8 Pt1 2.044833 1_555
O9 S0 1.513698 1_555
O9 Pt11 2.027031 1_554
O10 S8 1.416906 1_555
O11 S7 1.481194 1_555
O11 Pt5 2.170304 1_555
O12 S9 1.513698 1_555
O12 Pt10 2.027031 1_655
O13 S10 1.514963 1_555
O13 Pt7 2.035540 1_555
O14 S0 1.421942 1_555
O15 S4 1.514963 1_555
O15 Pt3 2.035540 1_555
O16 S6 1.514963 1_555
O16 Pt0 2.035540 1_555
O17 S5 1.513698 1_555
O17 Pt6 2.027031 1_455
O18 S10 1.519886 1_555
O18 Pt9 2.037905 1_555
O19 S2 1.512629 1_554
O19 Pt7 2.044833 1_555
O20 S3 1.479561 1_555
O20 Pt9 2.163656 1_456
O21 Pt3 1.998213 1_555
O21 Pt2 2.001303 1_546
O21 Pt7 2.002305 1_556
O22 S8 1.479561 1_555
O22 Pt6 2.163656 1_465
O23 S11 1.421942 1_555
O24 S2 1.481194 1_555
O24 Pt3 2.170304 1_555
O25 S0 1.481194 1_555
O25 Pt0 2.170304 1_555
O26 S6 1.519886 1_555
O26 Pt10 2.037905 1_555
O27 Pt6 2.009727 1_565
O27 Pt2 2.009727 1_556
O27 Pt11 2.009727 1_655
O28 S7 1.421942 1_555
O29 Pt5 1.998213 1_555
O29 Pt6 2.001303 1_465
O29 Pt1 2.002305 1_565
O30 Pt10 2.009727 1_545
O30 Pt8 2.009727 1_554
O30 Pt9 2.009727 1_455
O31 S10 1.416906 1_555
O32 S8 1.519886 1_555
O32 Pt11 2.037905 1_555
O33 S11 1.512629 1_565
O33 Pt4 2.044833 1_555
O34 S5 1.512629 1_655
O34 Pt3 2.044833 1_555
O35 S4 1.479561 1_555
O35 Pt2 2.163656 1_546
O36 S8 1.514963 1_555
O36 Pt5 2.035540 1_555
O37 S7 1.513698 1_555
O37 Pt8 2.027031 1_565
O38 S2 1.421942 1_555
O39 S3 1.416906 1_555
O40 S3 1.514963 1_555
O40 Pt1 2.035540 1_555
O41 S9 1.512629 1_455
O41 Pt0 2.044833 1_555
O42 S4 1.416906 1_555
O43 S3 1.519886 1_555
O43 Pt8 2.037905 1_555
O44 S2 1.513698 1_555
O44 Pt9 2.027031 1_556
O45 Pt4 1.998213 1_555
O45 Pt11 2.001303 1_654
O45 Pt0 2.002305 1_655
O46 S10 1.479561 1_555
O46 Pt10 2.163656 1_645
O47 S6 1.416906 1_555
O48 S0 1.512629 1_556
O48 Pt5 2.044833 1_555
O49 S9 1.481194 1_555
O49 Pt4 2.170304 1_555
O50 S11 1.513698 1_555
O50 Pt2 2.027031 1_545
O51 S9 1.421942 1_555
O52 S11 1.481194 1_555
O52 Pt7 2.170304 1_555
O53 S5 1.481194 1_555
O53 Pt1 2.170304 1_555
O54 Pt7 1.998213 1_555
O54 Pt10 2.001303 1_645
O54 Pt4 2.002305 1_545
O55 S1 1.519886 1_555
O55 Pt2 2.037905 1_555
