# generated using pymatgen
data_La3Zn3Ge2SbO14
_symmetry_space_group_name_H-M   'P 1'
_cell_length_a   8.40304574
_cell_length_b   8.40304574
_cell_length_c   5.28652600
_cell_angle_alpha   90.00000000
_cell_angle_beta   90.00000000
_cell_angle_gamma   119.99999792
_symmetry_Int_Tables_number   1
_chemical_formula_structural   La3Zn3Ge2SbO14
_chemical_formula_sum   'La3 Zn3 Ge2 Sb1 O14'
_cell_volume   323.27674742
_cell_formula_units_Z   1
loop_
 _symmetry_equiv_pos_site_id
 _symmetry_equiv_pos_as_xyz
  1  'x, y, z'
loop_
 _atom_site_type_symbol
 _atom_site_label
 _atom_site_symmetry_multiplicity
 _atom_site_fract_x
 _atom_site_fract_y
 _atom_site_fract_z
 _atom_site_occupancy
  La  La0  1  0.41990400  0.00000000  0.00000000  1
  La  La1  1  0.00000000  0.41990400  0.00000000  1
  La  La2  1  0.58009600  0.58009600  0.00000000  1
  Zn  Zn0  1  0.76057500  0.00000000  0.50000000  1
  Zn  Zn1  1  0.00000000  0.76057500  0.50000000  1
  Zn  Zn2  1  0.23942500  0.23942500  0.50000000  1
  Ge  Ge0  1  0.66666700  0.33333300  0.44843200  1
  Ge  Ge1  1  0.33333300  0.66666700  0.55156800  1
  Sb  Sb0  1  0.00000000  0.00000000  0.00000000  1
  O  O0  1  0.47186000  0.32624400  0.29584500  1
  O  O1  1  0.08134800  0.22299800  0.22038900  1
  O  O2  1  0.66666700  0.33333300  0.78218500  1
  O  O3  1  0.85438400  0.52814000  0.29584500  1
  O  O4  1  0.33333300  0.66666700  0.21781500  1
  O  O5  1  0.85834900  0.77700200  0.77961100  1
  O  O6  1  0.32624400  0.47186000  0.70415500  1
  O  O7  1  0.14165100  0.91865200  0.22038900  1
  O  O8  1  0.14561600  0.67375600  0.70415500  1
  O  O9  1  0.67375600  0.14561600  0.29584500  1
  O  O10  1  0.22299800  0.08134800  0.77961100  1
  O  O11  1  0.52814000  0.85438400  0.70415500  1
  O  O12  1  0.91865200  0.14165100  0.77961100  1
  O  O13  1  0.77700200  0.85834900  0.22038900  1
loop_
_geom_bond_atom_site_label_1
_geom_bond_atom_site_label_2
_geom_bond_distance
_geom_bond_site_symmetry_2
La0 O7 2.386096 1_545
La0 O10 2.386103 1_554
La0 O11 2.425576 1_544
La0 O9 2.425576 1_555
La0 O4 2.768242 1_545
La0 O2 2.768244 1_554
La0 O0 2.992542 1_555
La0 O8 2.992542 1_544
La1 O12 2.386096 1_454
La1 O1 2.386103 1_555
La1 O3 2.425576 1_455
La1 O8 2.425576 1_554
La1 O2 2.768242 1_454
La1 O4 2.768244 1_555
La1 O6 2.992542 1_554
La1 O9 2.992542 1_455
La2 O5 2.386098 1_554
La2 O13 2.386098 1_555
La2 O0 2.425576 1_555
La2 O6 2.425576 1_554
La2 O2 2.768249 1_554
La2 O4 2.768249 1_555
La2 O11 2.992542 1_554
La2 O3 2.992542 1_555
Ge0 O2 1.764394 1_555
Ge0 O9 1.798994 1_555
Ge0 O3 1.798998 1_555
Ge0 O0 1.799001 1_555
Ge1 O4 1.764394 1_555
Ge1 O8 1.798994 1_555
Ge1 O11 1.798998 1_555
Ge1 O6 1.799001 1_555
O0 Zn2 2.021629 1_555
O1 Zn2 1.945544 1_555
O1 Sb0 2.013741 1_555
O3 Zn1 2.021629 1_655
O5 Zn1 1.945549 1_655
O5 Sb0 2.013742 1_666
O6 Zn2 2.021629 1_555
O7 Zn1 1.945546 1_555
O7 Sb0 2.013747 1_565
O8 Zn1 2.021629 1_555
O9 Zn0 2.021629 1_555
O10 Zn2 1.945544 1_555
O10 Sb0 2.013741 1_556
O11 Zn0 2.021629 1_565
O12 Zn0 1.945546 1_555
O12 Sb0 2.013747 1_656
O13 Zn0 1.945549 1_565
O13 Sb0 2.013742 1_665
