# generated using pymatgen
data_Sb3WC6O6F17
_symmetry_space_group_name_H-M   'P 1'
_cell_length_a   16.91103600
_cell_length_b   8.33028900
_cell_length_c   8.39199068
_cell_angle_alpha   68.53518806
_cell_angle_beta   90.00000000
_cell_angle_gamma   90.00000000
_symmetry_Int_Tables_number   1
_chemical_formula_structural   Sb3WC6O6F17
_chemical_formula_sum   'Sb6 W2 C12 O12 F34'
_cell_volume   1100.21648229
_cell_formula_units_Z   2
loop_
 _symmetry_equiv_pos_site_id
 _symmetry_equiv_pos_as_xyz
  1  'x, y, z'
loop_
 _atom_site_type_symbol
 _atom_site_label
 _atom_site_symmetry_multiplicity
 _atom_site_fract_x
 _atom_site_fract_y
 _atom_site_fract_z
 _atom_site_occupancy
  Sb  Sb0  1  0.68579300  0.86673700  0.11913500  1
  Sb  Sb1  1  0.23617300  0.50722900  0.43001000  1
  Sb  Sb2  1  0.18579300  0.13326300  0.88086500  1
  Sb  Sb3  1  0.73617300  0.49277100  0.56999000  1
  Sb  Sb4  1  0.49399300  0.34786700  0.09997300  1
  Sb  Sb5  1  0.99399300  0.65213300  0.90002700  1
  W  W0  1  0.44824200  0.82011700  0.73640100  1
  W  W1  1  0.94824200  0.17988300  0.26359900  1
  C  C0  1  0.36681700  0.92797900  0.53756100  1
  C  C1  1  0.57042100  0.89891200  0.67707600  1
  C  C2  1  0.97854600  0.28327900  0.45719000  1
  C  C3  1  0.07042100  0.10108800  0.32292400  1
  C  C4  1  0.94836800  0.90983600  0.34135800  1
  C  C5  1  0.83522300  0.30442300  0.17343000  1
  C  C6  1  0.92813200  0.12821800  0.03128900  1
  C  C7  1  0.44836800  0.09016400  0.65864200  1
  C  C8  1  0.33522300  0.69557700  0.82657000  1
  C  C9  1  0.47854600  0.71672100  0.54281000  1
  C  C10  1  0.86681700  0.07202100  0.46243900  1
  C  C11  1  0.42813200  0.87178200  0.96871100  1
  O  O0  1  0.63434400  0.94007800  0.64215800  1
  O  O1  1  0.45217800  0.23685700  0.61980800  1
  O  O2  1  0.27379800  0.64016800  0.86931600  1
  O  O3  1  0.13434400  0.05992200  0.35784200  1
  O  O4  1  0.32160500  0.97682200  0.42846000  1
  O  O5  1  0.41473000  0.90010000  0.08911000  1
  O  O6  1  0.77379800  0.35983200  0.13068400  1
  O  O7  1  0.99632000  0.33830700  0.55825500  1
  O  O8  1  0.95217800  0.76314300  0.38019200  1
  O  O9  1  0.91473000  0.09990000  0.91089000  1
  O  O10  1  0.49632000  0.66169300  0.44174500  1
  O  O11  1  0.82160500  0.02317800  0.57154000  1
  F  F0  1  0.78717900  0.70063600  0.55530800  1
  F  F1  1  0.14229500  0.04234000  0.72230000  1
  F  F2  1  0.28179400  0.63798300  0.21504100  1
  F  F3  1  0.38979400  0.34068400  0.01653000  1
  F  F4  1  0.45461300  0.48631900  0.21982800  1
  F  F5  1  0.32242800  0.55635800  0.55381900  1
  F  F6  1  0.64426700  0.56066400  0.66103900  1
  F  F7  1  0.50232800  0.58158200  0.89286600  1
  F  F8  1  0.67979600  0.07588100  0.92697300  1
  F  F9  1  0.09940500  0.61325600  0.84800600  1
  F  F10  1  0.02980500  0.76051300  0.05082800  1
  F  F11  1  0.68941600  0.63574000  0.32798000  1
  F  F12  1  0.82242800  0.44364200  0.44618100  1
  F  F13  1  0.28717900  0.29936400  0.44469200  1
  F  F14  1  0.59940500  0.38674400  0.15199400  1
  F  F15  1  0.28959200  0.08393400  0.81922900  1
  F  F16  1  0.14426700  0.43933600  0.33896100  1
  F  F17  1  0.18941600  0.36426000  0.67202000  1
  F  F18  1  0.52980500  0.23948700  0.94917200  1
  F  F19  1  0.00232800  0.41841800  0.10713400  1
  F  F20  1  0.17979600  0.92411900  0.07302700  1
  F  F21  1  0.88979400  0.65931600  0.98347000  1
  F  F22  1  0.78179400  0.36201700  0.78495900  1
  F  F23  1  0.64229500  0.95766000  0.27770000  1
  F  F24  1  0.72933500  0.73986600  0.99366100  1
  F  F25  1  0.67906400  0.30807300  0.54326900  1
  F  F26  1  0.08208800  0.20156400  0.92347900  1
  F  F27  1  0.17906400  0.69192700  0.45673100  1
  F  F28  1  0.78959200  0.91606600  0.18077100  1
  F  F29  1  0.48279800  0.13665200  0.29288800  1
  F  F30  1  0.98279800  0.86334800  0.70711200  1
  F  F31  1  0.58208800  0.79843600  0.07652100  1
  F  F32  1  0.95461300  0.51368100  0.78017200  1
  F  F33  1  0.22933500  0.26013400  0.00633900  1
loop_
_geom_bond_atom_site_label_1
_geom_bond_atom_site_label_2
_geom_bond_distance
_geom_bond_site_symmetry_2
C0 O4 1.147072 1_555
C0 W0 2.095366 1_555
C1 O0 1.139514 1_555
C1 W0 2.169934 1_555
C2 O7 1.142080 1_555
C2 W1 2.160548 1_555
C3 O3 1.139514 1_555
C3 W1 2.169934 1_455
C4 O8 1.145502 1_555
C4 W1 2.100488 1_565
C5 O6 1.139990 1_555
C5 W1 2.174238 1_555
C6 O9 1.141198 1_554
C6 W1 2.171560 1_555
C7 O1 1.145502 1_555
C7 W0 2.100488 1_545
C8 O2 1.139990 1_555
C8 W0 2.174238 1_555
C9 O10 1.142080 1_555
C9 W0 2.160548 1_555
C10 O11 1.147072 1_555
C10 W1 2.095366 1_555
C11 O5 1.141198 1_556
C11 W0 2.171560 1_555
F0 Sb3 1.897738 1_555
F1 Sb2 1.903444 1_555
F2 Sb1 1.896841 1_555
F3 Sb4 1.905162 1_555
F4 Sb4 1.906406 1_555
F5 Sb1 1.919874 1_555
F6 Sb3 1.906718 1_555
F7 Sb4 2.086779 1_556
F7 W0 2.144670 1_555
F8 Sb0 1.894729 1_546
F9 Sb5 1.891215 1_455
F10 Sb5 1.902530 1_454
F11 Sb0 2.076067 1_555
F11 Sb3 2.097178 1_555
F12 Sb3 1.919874 1_555
F13 Sb1 1.897738 1_555
F14 Sb4 1.891215 1_555
F15 Sb2 1.916562 1_555
F16 Sb1 1.906718 1_555
F17 Sb2 2.076067 1_555
F17 Sb1 2.097178 1_555
F18 Sb4 1.902530 1_556
F19 Sb5 2.086779 1_454
F19 W1 2.144670 1_455
F20 Sb2 1.894729 1_564
F21 Sb5 1.905162 1_555
F22 Sb3 1.896841 1_555
F23 Sb0 1.903444 1_555
F24 Sb0 1.892721 1_556
F25 Sb3 1.898093 1_555
F26 Sb2 1.917341 1_555
F27 Sb1 1.898093 1_555
F28 Sb0 1.916562 1_555
F29 Sb4 1.915173 1_555
F30 Sb5 1.915173 1_555
F31 Sb0 1.917341 1_555
F32 Sb5 1.906406 1_555
F33 Sb2 1.892721 1_554
