# generated using pymatgen
data_Ca5Ho3Ti5Mn3O24
_symmetry_space_group_name_H-M   'P 1'
_cell_length_a   5.37524900
_cell_length_b   5.61694959
_cell_length_c   15.28231429
_cell_angle_alpha   90.12174599
_cell_angle_beta   90.16575791
_cell_angle_gamma   90.50778829
_symmetry_Int_Tables_number   1
_chemical_formula_structural   Ca5Ho3Ti5Mn3O24
_chemical_formula_sum   'Ca5 Ho3 Ti5 Mn3 O24'
_cell_volume   461.39019662
_cell_formula_units_Z   1
loop_
 _symmetry_equiv_pos_site_id
 _symmetry_equiv_pos_as_xyz
  1  'x, y, z'
loop_
 _atom_site_type_symbol
 _atom_site_label
 _atom_site_symmetry_multiplicity
 _atom_site_fract_x
 _atom_site_fract_y
 _atom_site_fract_z
 _atom_site_occupancy
  Ca  Ca0  1  0.01158200  0.05061300  0.62372000  1
  Ca  Ca1  1  0.01301800  0.05806800  0.12806900  1
  Ca  Ca2  1  0.49051400  0.55247700  0.62371300  1
  Ca  Ca3  1  0.50981300  0.45375000  0.87285800  1
  Ca  Ca4  1  0.99176000  0.95412800  0.87217400  1
  Ho  Ho0  1  0.48512700  0.57034800  0.12896500  1
  Ho  Ho1  1  0.51691100  0.42760400  0.37364900  1
  Ho  Ho2  1  0.97848100  0.92694700  0.37469200  1
  Ti  Ti0  1  0.99149800  0.51725300  0.00125300  1
  Ti  Ti1  1  0.00976100  0.50204700  0.74854600  1
  Ti  Ti2  1  0.00739200  0.49548100  0.50001000  1
  Ti  Ti3  1  0.51100700  0.99685600  0.74911100  1
  Ti  Ti4  1  0.50628100  0.02336200  0.00162500  1
  Mn  Mn0  1  0.00263200  0.49565300  0.25005800  1
  Mn  Mn1  1  0.49630500  0.00050400  0.25059800  1
  Mn  Mn2  1  0.49189200  0.99429300  0.49937500  1
  O  O0  1  0.07744300  0.52181600  0.87631300  1
  O  O1  1  0.11215700  0.53381000  0.37436700  1
  O  O2  1  0.18403800  0.80210100  0.51995700  1
  O  O3  1  0.20234300  0.79055700  0.72949200  1
  O  O4  1  0.21268900  0.80671200  0.22443400  1
  O  O5  1  0.21002000  0.78199000  0.02679700  1
  O  O6  1  0.30416700  0.31979600  0.22615600  1
  O  O7  1  0.28673500  0.29409400  0.72965400  1
  O  O8  1  0.29677600  0.31920600  0.51943200  1
  O  O9  1  0.30842000  0.29733000  0.02803600  1
  O  O10  1  0.41836600  0.02261800  0.87688400  1
  O  O11  1  0.38651800  0.03214200  0.37769400  1
  O  O12  1  0.59300000  0.96369300  0.12270300  1
  O  O13  1  0.57886400  0.97385800  0.62444900  1
  O  O14  1  0.70583100  0.69877600  0.98093900  1
  O  O15  1  0.70450400  0.71404000  0.77155300  1
  O  O16  1  0.70816400  0.68307700  0.27647400  1
  O  O17  1  0.71106800  0.68575700  0.46595500  1
  O  O18  1  0.80004500  0.20006200  0.97870700  1
  O  O19  1  0.78562200  0.21047600  0.77137200  1
  O  O20  1  0.80108200  0.19973300  0.46984900  1
  O  O21  1  0.79002700  0.18452100  0.28140500  1
  O  O22  1  0.91435400  0.47424100  0.62472300  1
  O  O23  1  0.89379500  0.47021000  0.12423600  1
loop_
_geom_bond_atom_site_label_1
_geom_bond_atom_site_label_2
_geom_bond_distance
_geom_bond_site_symmetry_2
Ca0 O2 2.311796 1_545
Ca0 O13 2.361888 1_445
Ca0 O3 2.413504 1_545
Ca0 O22 2.440761 1_455
Ca0 O7 2.572868 1_555
Ca0 O8 2.673871 1_555
Ca0 O19 2.720247 1_455
Ca0 O20 2.742479 1_455
Ca1 O4 2.310974 1_545
Ca1 O12 2.315702 1_445
Ca1 O23 2.408301 1_455
Ca1 O5 2.439208 1_545
Ca1 O9 2.578645 1_555
Ca1 O6 2.606477 1_555
Ca1 O18 2.676883 1_454
Ca1 O21 2.730692 1_455
Ca2 O8 2.301821 1_555
Ca2 O22 2.324075 1_555
Ca2 O13 2.409916 1_555
Ca2 O7 2.432996 1_555
Ca2 O3 2.615902 1_555
Ca2 O15 2.684952 1_555
Ca2 O2 2.688743 1_555
Ca2 O17 2.790498 1_555
Ca3 O0 2.359398 1_555
Ca3 O15 2.370961 1_555
Ca3 O14 2.384772 1_555
Ca3 O10 2.467689 1_555
Ca3 O19 2.551619 1_555
Ca3 O7 2.643663 1_555
Ca3 O18 2.667506 1_555
Ca3 O9 2.752198 1_556
Ca4 O10 2.322679 1_665
Ca4 O18 2.376178 1_565
Ca4 O19 2.387883 1_565
Ca4 O0 2.476479 1_655
Ca4 O15 2.551060 1_555
Ca4 O3 2.627593 1_655
Ca4 O14 2.677328 1_555
Ca4 O5 2.812261 1_656
Ho0 O6 2.264036 1_555
Ho0 O23 2.273697 1_555
Ho0 O12 2.281520 1_555
Ho0 O9 2.364033 1_555
Ho0 O5 2.462418 1_555
Ho0 O4 2.464631 1_555
Ho0 O16 2.623902 1_555
Ho0 O14 2.655660 1_554
Ho1 O1 2.261102 1_555
Ho1 O17 2.266645 1_555
Ho1 O16 2.305029 1_555
Ho1 O11 2.324316 1_555
Ho1 O21 2.458877 1_555
Ho1 O20 2.482437 1_555
Ho1 O6 2.592699 1_555
Ho1 O8 2.596664 1_555
Ho2 O11 2.266746 1_665
Ho2 O21 2.275556 1_565
Ho2 O20 2.322973 1_565
Ho2 O1 2.328241 1_655
Ho2 O17 2.414919 1_555
Ho2 O16 2.486765 1_555
Ho2 O2 2.578197 1_655
Ho2 O4 2.709087 1_655
Mn0 O6 1.940743 1_555
Mn0 O16 1.951426 1_455
Mn0 O1 1.997765 1_555
Mn0 O23 2.012679 1_455
Mn0 O4 2.109846 1_555
Mn0 O21 2.135643 1_455
Mn1 O4 1.906327 1_545
Mn1 O21 1.935825 1_555
Mn1 O12 2.034493 1_545
Mn1 O11 2.039478 1_555
Mn1 O6 2.110942 1_555
Mn1 O16 2.160694 1_545
Mn2 O11 1.954924 1_565
Mn2 O13 1.970271 1_555
Mn2 O2 1.993854 1_555
Mn2 O20 2.066376 1_565
Mn2 O8 2.134956 1_565
Mn2 O17 2.165211 1_555
O0 Ti0 1.965931 1_456
O0 Ti1 1.987835 1_555
O1 Ti2 2.013997 1_555
O2 Ti2 1.981874 1_555
O3 Ti1 1.938186 1_555
O3 Ti3 2.036413 1_555
O5 Ti0 1.925417 1_455
O5 Ti4 2.118863 1_565
O7 Ti1 1.922535 1_555
O7 Ti3 2.089226 1_545
O8 Ti2 1.874551 1_555
O9 Ti4 1.921200 1_555
O9 Ti0 2.151960 1_455
O10 Ti4 1.962690 1_556
O10 Ti3 2.021762 1_545
O12 Ti4 1.937480 1_565
O13 Ti3 1.945003 1_555
O14 Ti0 1.876210 1_556
O14 Ti4 2.146776 1_566
O15 Ti3 1.937135 1_555
O15 Ti1 2.066407 1_655
O17 Ti2 1.994475 1_655
O18 Ti4 1.891578 1_556
O18 Ti0 2.077230 1_556
O19 Ti3 1.923119 1_545
O19 Ti1 2.055556 1_655
O20 Ti2 2.040341 1_655
O22 Ti1 1.964666 1_655
O22 Ti2 1.975405 1_655
O23 Ti0 1.970630 1_555
