# generated using pymatgen
data_Li3Mo2P3O14
_symmetry_space_group_name_H-M   'P 1'
_cell_length_a   8.21922300
_cell_length_b   15.36403200
_cell_length_c   18.24780514
_cell_angle_alpha   77.01281865
_cell_angle_beta   90.00000000
_cell_angle_gamma   90.00000000
_symmetry_Int_Tables_number   1
_chemical_formula_structural   Li3Mo2P3O14
_chemical_formula_sum   'Li24 Mo16 P24 O112'
_cell_volume   2245.39605189
_cell_formula_units_Z   8
loop_
 _symmetry_equiv_pos_site_id
 _symmetry_equiv_pos_as_xyz
  1  'x, y, z'
loop_
 _atom_site_type_symbol
 _atom_site_label
 _atom_site_symmetry_multiplicity
 _atom_site_fract_x
 _atom_site_fract_y
 _atom_site_fract_z
 _atom_site_occupancy
  Li  Li0  1  0.76933500  0.11638400  0.71324200  1
  Li  Li1  1  0.97492200  0.37086800  0.34167200  1
  Li  Li2  1  0.86886700  0.76203700  0.91969800  1
  Li  Li3  1  0.36886700  0.23796300  0.58030200  1
  Li  Li4  1  0.63113300  0.76203700  0.41969800  1
  Li  Li5  1  0.94498600  0.43212600  0.14325000  1
  Li  Li6  1  0.47492200  0.62913200  0.15832800  1
  Li  Li7  1  0.02507800  0.62913200  0.65832800  1
  Li  Li8  1  0.26933500  0.88361600  0.78675800  1
  Li  Li9  1  0.43176400  0.27156600  0.73213200  1
  Li  Li10  1  0.17158700  0.16607400  0.35380100  1
  Li  Li11  1  0.44498600  0.56787400  0.35675000  1
  Li  Li12  1  0.13113300  0.23796300  0.08030200  1
  Li  Li13  1  0.52507800  0.37086800  0.84167200  1
  Li  Li14  1  0.06823600  0.27156600  0.23213200  1
  Li  Li15  1  0.67158700  0.83392600  0.14619900  1
  Li  Li16  1  0.32841300  0.16607400  0.85380100  1
  Li  Li17  1  0.05501400  0.56787400  0.85675000  1
  Li  Li18  1  0.93176400  0.72843400  0.76786800  1
  Li  Li19  1  0.73066500  0.11638400  0.21324200  1
  Li  Li20  1  0.82841300  0.83392600  0.64619900  1
  Li  Li21  1  0.23066500  0.88361600  0.28675800  1
  Li  Li22  1  0.56823600  0.72843400  0.26786800  1
  Li  Li23  1  0.55501400  0.43212600  0.64325000  1
  Mo  Mo0  1  0.01236500  0.32501900  0.91728300  1
  Mo  Mo1  1  0.48315300  0.84477100  0.95690300  1
  Mo  Mo2  1  0.48584700  0.57753500  0.85518600  1
  Mo  Mo3  1  0.48763500  0.32501900  0.41728300  1
  Mo  Mo4  1  0.51415300  0.42246500  0.14481400  1
  Mo  Mo5  1  0.98584700  0.42246500  0.64481400  1
  Mo  Mo6  1  0.04660300  0.97720500  0.15030400  1
  Mo  Mo7  1  0.45339700  0.97720500  0.65030400  1
  Mo  Mo8  1  0.98315300  0.15522900  0.54309700  1
  Mo  Mo9  1  0.98763500  0.67498100  0.08271700  1
  Mo  Mo10  1  0.51236500  0.67498100  0.58271700  1
  Mo  Mo11  1  0.51684700  0.15522900  0.04309700  1
  Mo  Mo12  1  0.01415300  0.57753500  0.35518600  1
  Mo  Mo13  1  0.01684700  0.84477100  0.45690300  1
  Mo  Mo14  1  0.95339700  0.02279500  0.84969600  1
  Mo  Mo15  1  0.54660300  0.02279500  0.34969600  1
  P  P0  1  0.69626400  0.29357100  0.58763800  1
  P  P1  1  0.27095700  0.46739200  0.74992300  1
  P  P2  1  0.30373600  0.70642900  0.41236200  1
  P  P3  1  0.84715600  0.89067900  0.01886900  1
  P  P4  1  0.86062000  0.62264100  0.51251000  1
  P  P5  1  0.15284400  0.10932100  0.98113100  1
  P  P6  1  0.29864200  0.79747000  0.12831100  1
  P  P7  1  0.19626400  0.70642900  0.91236200  1
  P  P8  1  0.63938000  0.62264100  0.01251000  1
  P  P9  1  0.68944200  0.88523900  0.79417800  1
  P  P10  1  0.36062000  0.37735900  0.98749000  1
  P  P11  1  0.18944200  0.11476100  0.70582200  1
  P  P12  1  0.77095700  0.53260800  0.75007700  1
  P  P13  1  0.34715600  0.10932100  0.48113100  1
  P  P14  1  0.80373600  0.29357100  0.08763800  1
  P  P15  1  0.72904300  0.53260800  0.25007700  1
  P  P16  1  0.22904300  0.46739200  0.24992300  1
  P  P17  1  0.70135800  0.20253000  0.87168900  1
  P  P18  1  0.31055800  0.11476100  0.20582200  1
  P  P19  1  0.13938000  0.37735900  0.48749000  1
  P  P20  1  0.65284400  0.89067900  0.51886900  1
  P  P21  1  0.20135800  0.79747000  0.62831100  1
  P  P22  1  0.81055800  0.88523900  0.29417800  1
  P  P23  1  0.79864200  0.20253000  0.37168900  1
  O  O0  1  0.54518800  0.24344600  0.83227700  1
  O  O1  1  0.04224300  0.71891900  0.86341500  1
  O  O2  1  0.33043800  0.55329100  0.77339500  1
  O  O3  1  0.88969200  0.56878500  0.45160100  1
  O  O4  1  0.53437700  0.70721600  0.00110500  1
  O  O5  1  0.41795900  0.93785800  0.33983800  1
  O  O6  1  0.32759200  0.83967400  0.04426000  1
  O  O7  1  0.99874800  0.55966900  0.11923400  1
  O  O8  1  0.38969200  0.43121500  0.04839900  1
  O  O9  1  0.01696500  0.09802400  0.74257600  1
  O  O10  1  0.04943500  0.95315000  0.41205600  1
  O  O11  1  0.66291200  0.86558600  0.03000100  1
  O  O12  1  0.16956200  0.55329100  0.27339500  1
  O  O13  1  0.63607500  0.97389100  0.45450800  1
  O  O14  1  0.45775700  0.71891900  0.36341500  1
  O  O15  1  0.36392500  0.02610900  0.54549200  1
  O  O16  1  0.67715500  0.65154700  0.50209400  1
  O  O17  1  0.98303500  0.90197600  0.25742400  1
  O  O18  1  0.57256900  0.67211600  0.80382800  1
  O  O19  1  0.13607500  0.02610900  0.04549200  1
  O  O20  1  0.15448700  0.50436400  0.68195900  1
  O  O21  1  0.72143900  0.13406900  0.33202700  1
  O  O22  1  0.07256900  0.32788400  0.69617200  1
  O  O23  1  0.86392500  0.97389100  0.95450800  1
  O  O24  1  0.28048800  0.62209800  0.89472700  1
  O  O25  1  0.84572500  0.31929000  0.00360600  1
  O  O26  1  0.17240800  0.83967400  0.54426000  1
  O  O27  1  0.80833500  0.20981300  0.60761400  1
  O  O28  1  0.80186500  0.83523200  0.75217900  1
  O  O29  1  0.54224300  0.28108100  0.63658500  1
  O  O30  1  0.49874800  0.44033100  0.38076600  1
  O  O31  1  0.67438500  0.28200000  0.36734400  1
  O  O32  1  0.83381300  0.70797200  0.13639000  1
  O  O33  1  0.16618700  0.29202800  0.86361000  1
  O  O34  1  0.11030800  0.43121500  0.54839900  1
  O  O35  1  0.16841000  0.16884600  0.62223600  1
  O  O36  1  0.45481200  0.75655400  0.16772300  1
  O  O37  1  0.65427500  0.31929000  0.50360600  1
  O  O38  1  0.19166500  0.79018700  0.39238600  1
  O  O39  1  0.82561500  0.28200000  0.86734400  1
  O  O40  1  0.54943500  0.04685000  0.08794400  1
  O  O41  1  0.67240800  0.16032600  0.95574000  1
  O  O42  1  0.40654800  0.40427300  0.73507400  1
  O  O43  1  0.95056500  0.04685000  0.58794400  1
  O  O44  1  0.32284500  0.34845300  0.49790600  1
  O  O45  1  0.78048800  0.37790200  0.60527300  1
  O  O46  1  0.95481200  0.24344600  0.33227700  1
  O  O47  1  0.34572500  0.68071000  0.49639400  1
  O  O48  1  0.76166900  0.97937700  0.79504500  1
  O  O49  1  0.89587000  0.56369500  0.59119500  1
  O  O50  1  0.88973400  0.90734900  0.09794300  1
  O  O51  1  0.42743100  0.32788400  0.19617200  1
  O  O52  1  0.08204100  0.93785800  0.83983800  1
  O  O53  1  0.17715500  0.34845300  0.99790600  1
  O  O54  1  0.69166500  0.20981300  0.10761400  1
  O  O55  1  0.39587000  0.43630500  0.90880500  1
  O  O56  1  0.16291200  0.13441400  0.46999900  1
  O  O57  1  0.96562300  0.70721600  0.50110500  1
  O  O58  1  0.58204100  0.06214200  0.66016200  1
  O  O59  1  0.51696500  0.90197600  0.75742400  1
  O  O60  1  0.05031600  0.18647600  0.99699600  1
  O  O61  1  0.26166900  0.02062300  0.70495500  1
  O  O62  1  0.00125200  0.44033100  0.88076600  1
  O  O63  1  0.32561500  0.71800000  0.63265600  1
  O  O64  1  0.38973400  0.09265100  0.40205700  1
  O  O65  1  0.69813500  0.83523200  0.25217900  1
  O  O66  1  0.48303500  0.09802400  0.24257600  1
  O  O67  1  0.45056500  0.95315000  0.91205600  1
  O  O68  1  0.90654800  0.59572700  0.76492600  1
  O  O69  1  0.30833500  0.79018700  0.89238600  1
  O  O70  1  0.09345200  0.40427300  0.23507400  1
  O  O71  1  0.30186500  0.16476800  0.74782100  1
  O  O72  1  0.66618700  0.70797200  0.63639000  1
  O  O73  1  0.10413000  0.43630500  0.40880500  1
  O  O74  1  0.83708800  0.86558600  0.53000100  1
  O  O75  1  0.60413000  0.56369500  0.09119500  1
  O  O76  1  0.46562300  0.29278400  0.99889500  1
  O  O77  1  0.33708800  0.13441400  0.96999900  1
  O  O78  1  0.95775700  0.28108100  0.13658500  1
  O  O79  1  0.33381300  0.29202800  0.36361000  1
  O  O80  1  0.82759200  0.16032600  0.45574000  1
  O  O81  1  0.66841000  0.83115400  0.87776400  1
  O  O82  1  0.44968400  0.18647600  0.49699600  1
  O  O83  1  0.34551300  0.50436400  0.18195900  1
  O  O84  1  0.77856100  0.13406900  0.83202700  1
  O  O85  1  0.17438500  0.71800000  0.13265600  1
  O  O86  1  0.27856100  0.86593100  0.66797300  1
  O  O87  1  0.82284500  0.65154700  0.00209400  1
  O  O88  1  0.19813500  0.16476800  0.24782100  1
  O  O89  1  0.92743100  0.67211600  0.30382800  1
  O  O90  1  0.61026600  0.90734900  0.59794300  1
  O  O91  1  0.55031600  0.81352400  0.50300400  1
  O  O92  1  0.65448700  0.49563600  0.81804100  1
  O  O93  1  0.03437700  0.29278400  0.49889500  1
  O  O94  1  0.91795900  0.06214200  0.16016200  1
  O  O95  1  0.50125200  0.55966900  0.61923400  1
  O  O96  1  0.59345200  0.59572700  0.26492600  1
  O  O97  1  0.21951200  0.62209800  0.39472700  1
  O  O98  1  0.11026600  0.09265100  0.90205700  1
  O  O99  1  0.33159000  0.16884600  0.12223600  1
  O  O100  1  0.15427500  0.68071000  0.99639400  1
  O  O101  1  0.66956200  0.44670900  0.22660500  1
  O  O102  1  0.22143900  0.86593100  0.16797300  1
  O  O103  1  0.83159000  0.83115400  0.37776400  1
  O  O104  1  0.61030800  0.56878500  0.95160100  1
  O  O105  1  0.83043800  0.44670900  0.72660500  1
  O  O106  1  0.94968400  0.81352400  0.00300400  1
  O  O107  1  0.73833100  0.97937700  0.29504500  1
  O  O108  1  0.71951200  0.37790200  0.10527300  1
  O  O109  1  0.84551300  0.49563600  0.31804100  1
  O  O110  1  0.04518800  0.75655400  0.66772300  1
  O  O111  1  0.23833100  0.02062300  0.20495500  1
loop_
_geom_bond_atom_site_label_1
_geom_bond_atom_site_label_2
_geom_bond_distance
_geom_bond_site_symmetry_2
Li0 O58 2.089327 1_555
Li0 O9 2.107317 1_655
Li0 O27 2.152871 1_555
Li0 O84 2.245581 1_555
Li0 O48 2.291473 1_545
Li1 O46 2.010029 1_555
Li1 O73 2.047650 1_655
Li1 O70 2.132494 1_655
Li1 O109 2.149512 1_555
Li2 O1 1.957078 1_655
Li2 O106 1.979479 1_556
Li2 O81 2.015580 1_555
Li2 O87 2.034276 1_556
Li3 O29 1.957078 1_555
Li3 O82 1.979479 1_555
Li3 O35 2.015580 1_555
Li3 O44 2.034276 1_555
Li4 O14 1.957078 1_555
Li4 O91 1.979479 1_555
Li4 O103 2.015580 1_555
Li4 O16 2.034276 1_555
Li5 O7 1.959914 1_555
Li5 O70 2.038996 1_655
Li5 O108 2.206404 1_555
Li5 O78 2.353324 1_555
Li6 O36 2.010029 1_555
Li6 O75 2.047650 1_555
Li6 O96 2.132494 1_555
Li6 O83 2.149512 1_555
Li7 O110 2.010029 1_555
Li7 O49 2.047650 1_455
Li7 O68 2.132494 1_455
Li7 O20 2.149512 1_555
Li8 O52 2.089327 1_555
Li8 O59 2.107317 1_555
Li8 O69 2.152871 1_555
Li8 O86 2.245581 1_555
Li8 O61 2.291473 1_565
Li9 O71 1.924349 1_555
Li9 O29 1.941968 1_555
Li9 O0 2.010071 1_555
Li9 O42 2.062088 1_555
Li10 O88 1.950753 1_555
Li10 O56 2.067374 1_555
Li10 O46 2.128864 1_455
Li10 O64 2.194611 1_555
Li10 O79 2.389656 1_555
Li11 O30 1.959914 1_555
Li11 O96 2.038996 1_555
Li11 O97 2.206404 1_555
Li11 O14 2.353324 1_555
Li12 O78 1.957078 1_455
Li12 O60 1.979479 1_554
Li12 O99 2.015580 1_555
Li12 O53 2.034276 1_554
Li13 O0 2.010029 1_555
Li13 O55 2.047650 1_555
Li13 O42 2.132494 1_555
Li13 O92 2.149512 1_555
Li14 O88 1.924349 1_555
Li14 O78 1.941968 1_455
Li14 O46 2.010071 1_455
Li14 O70 2.062088 1_555
Li15 O65 1.950753 1_555
Li15 O11 2.067374 1_555
Li15 O36 2.128864 1_555
Li15 O50 2.194611 1_555
Li15 O32 2.389656 1_555
Li16 O71 1.950753 1_555
Li16 O77 2.067374 1_555
Li16 O0 2.128864 1_555
Li16 O98 2.194611 1_555
Li16 O33 2.389656 1_555
Li17 O62 1.959914 1_555
Li17 O68 2.038996 1_455
Li17 O24 2.206404 1_555
Li17 O1 2.353324 1_555
Li18 O28 1.924349 1_555
Li18 O1 1.941968 1_655
Li18 O110 2.010071 1_655
Li18 O68 2.062088 1_555
Li19 O94 2.089327 1_555
Li19 O66 2.107317 1_555
Li19 O54 2.152871 1_555
Li19 O21 2.245581 1_555
Li19 O107 2.291473 1_545
Li20 O28 1.950753 1_555
Li20 O74 2.067374 1_555
Li20 O110 2.128864 1_655
Li20 O90 2.194611 1_555
Li20 O72 2.389656 1_555
Li21 O5 2.089327 1_555
Li21 O17 2.107317 1_455
Li21 O38 2.152871 1_555
Li21 O102 2.245581 1_555
Li21 O111 2.291473 1_565
Li22 O65 1.924349 1_555
Li22 O14 1.941968 1_555
Li22 O36 2.010071 1_555
Li22 O96 2.062088 1_555
Li23 O95 1.959914 1_555
Li23 O42 2.038996 1_555
Li23 O45 2.206404 1_555
Li23 O29 2.353324 1_555
Mo0 O33 1.742916 1_555
Mo0 O62 1.749435 1_555
Mo0 O39 1.973330 1_455
Mo0 O25 2.074282 1_456
Mo0 O53 2.089650 1_555
Mo0 O60 2.313511 1_555
Mo1 O67 1.703426 1_555
Mo1 O6 2.031228 1_556
Mo1 O11 2.063051 1_556
Mo1 O4 2.127939 1_556
Mo1 O81 2.140922 1_555
Mo1 O69 2.144219 1_555
Mo2 O18 1.698789 1_555
Mo2 O104 2.013354 1_555
Mo2 O24 2.015044 1_555
Mo2 O2 2.061018 1_555
Mo2 O92 2.085028 1_555
Mo2 O55 2.293099 1_555
Mo3 O79 1.742916 1_555
Mo3 O30 1.749435 1_555
Mo3 O31 1.973330 1_555
Mo3 O37 2.074282 1_555
Mo3 O44 2.089650 1_555
Mo3 O82 2.313511 1_555
Mo4 O51 1.698789 1_555
Mo4 O8 2.013354 1_555
Mo4 O108 2.015044 1_555
Mo4 O101 2.061018 1_555
Mo4 O83 2.085028 1_555
Mo4 O75 2.293099 1_555
Mo5 O22 1.698789 1_655
Mo5 O34 2.013354 1_655
Mo5 O45 2.015044 1_555
Mo5 O105 2.061018 1_555
Mo5 O20 2.085028 1_655
Mo5 O49 2.293099 1_555
Mo6 O94 1.720124 1_465
Mo6 O19 2.029147 1_565
Mo6 O50 2.046499 1_455
Mo6 O111 2.054713 1_565
Mo6 O17 2.101025 1_455
Mo6 O102 2.200911 1_555
Mo7 O58 1.720124 1_565
Mo7 O15 2.029147 1_565
Mo7 O90 2.046499 1_555
Mo7 O61 2.054713 1_565
Mo7 O59 2.101025 1_555
Mo7 O86 2.200911 1_555
Mo8 O43 1.703426 1_555
Mo8 O80 2.031228 1_555
Mo8 O56 2.063051 1_655
Mo8 O93 2.127939 1_655
Mo8 O35 2.140922 1_655
Mo8 O27 2.144219 1_555
Mo9 O32 1.742916 1_555
Mo9 O7 1.749435 1_555
Mo9 O85 1.973330 1_655
Mo9 O100 2.074282 1_654
Mo9 O87 2.089650 1_555
Mo9 O106 2.313511 1_555
Mo10 O72 1.742916 1_555
Mo10 O95 1.749435 1_555
Mo10 O63 1.973330 1_555
Mo10 O47 2.074282 1_555
Mo10 O16 2.089650 1_555
Mo10 O91 2.313511 1_555
Mo11 O40 1.703426 1_555
Mo11 O41 2.031228 1_554
Mo11 O77 2.063051 1_554
Mo11 O76 2.127939 1_554
Mo11 O99 2.140922 1_555
Mo11 O54 2.144219 1_555
Mo12 O89 1.698789 1_455
Mo12 O3 2.013354 1_455
Mo12 O97 2.015044 1_555
Mo12 O12 2.061018 1_555
Mo12 O109 2.085028 1_455
Mo12 O73 2.293099 1_555
Mo13 O10 1.703426 1_555
Mo13 O26 2.031228 1_555
Mo13 O74 2.063051 1_455
Mo13 O57 2.127939 1_455
Mo13 O103 2.140922 1_455
Mo13 O38 2.144219 1_555
Mo14 O52 1.720124 1_645
Mo14 O23 2.029147 1_545
Mo14 O98 2.046499 1_655
Mo14 O48 2.054713 1_545
Mo14 O9 2.101025 1_655
Mo14 O84 2.200911 1_555
Mo15 O5 1.720124 1_545
Mo15 O13 2.029147 1_545
Mo15 O64 2.046499 1_555
Mo15 O107 2.054713 1_545
Mo15 O66 2.101025 1_555
Mo15 O21 2.200911 1_555
O0 P17 1.535193 1_555
O1 P7 1.536273 1_555
O2 P1 1.555083 1_555
O3 P4 1.546110 1_555
O4 P8 1.534627 1_555
O6 P6 1.543518 1_555
O8 P10 1.546110 1_554
O9 P11 1.564636 1_555
O11 P3 1.564586 1_555
O12 P16 1.555083 1_555
O13 P20 1.535559 1_555
O14 P2 1.536273 1_555
O15 P13 1.535559 1_555
O16 P4 1.571402 1_555
O17 P22 1.564636 1_555
O19 P5 1.535559 1_554
O20 P1 1.568604 1_555
O21 P23 1.541097 1_555
O23 P3 1.535559 1_556
O24 P7 1.564903 1_555
O25 P14 1.534347 1_555
O26 P21 1.543518 1_555
O27 P0 1.557735 1_555
O28 P9 1.515302 1_555
O29 P0 1.536273 1_555
O31 P23 1.580067 1_555
O34 P19 1.546110 1_555
O35 P11 1.573892 1_555
O36 P6 1.535193 1_555
O37 P0 1.534347 1_555
O38 P2 1.557735 1_555
O39 P17 1.580067 1_555
O41 P17 1.543518 1_555
O42 P1 1.540769 1_555
O44 P19 1.571402 1_555
O45 P0 1.564903 1_555
O46 P23 1.535193 1_555
O47 P2 1.534347 1_555
O48 P9 1.566797 1_555
O49 P4 1.543139 1_555
O50 P3 1.560836 1_555
O53 P10 1.571402 1_555
O54 P14 1.557735 1_555
O55 P10 1.543139 1_555
O56 P13 1.564586 1_555
O57 P4 1.534627 1_555
O59 P9 1.564636 1_555
O60 P5 1.534081 1_555
O61 P11 1.566797 1_555
O63 P21 1.580067 1_555
O64 P13 1.560836 1_555
O65 P22 1.515302 1_555
O66 P18 1.564636 1_555
O68 P12 1.540769 1_555
O69 P7 1.557735 1_555
O70 P16 1.540769 1_555
O71 P11 1.515302 1_555
O73 P19 1.543139 1_555
O74 P20 1.564586 1_555
O75 P8 1.543139 1_555
O76 P10 1.534627 1_555
O77 P5 1.564586 1_555
O78 P14 1.536273 1_555
O80 P23 1.543518 1_555
O81 P9 1.573892 1_555
O82 P13 1.534081 1_555
O83 P16 1.568604 1_555
O84 P17 1.541097 1_555
O85 P6 1.580067 1_555
O86 P21 1.541097 1_555
O87 P8 1.571402 1_555
O88 P18 1.515302 1_555
O90 P20 1.560836 1_555
O91 P20 1.534081 1_555
O92 P12 1.568604 1_555
O93 P19 1.534627 1_555
O96 P15 1.540769 1_555
O97 P2 1.564903 1_555
O98 P5 1.560836 1_555
O99 P18 1.573892 1_555
O100 P7 1.534347 1_555
O101 P15 1.555083 1_555
O102 P6 1.541097 1_555
O103 P22 1.573892 1_555
O104 P8 1.546110 1_556
O105 P12 1.555083 1_555
O106 P3 1.534081 1_555
O107 P22 1.566797 1_555
O108 P14 1.564903 1_555
O109 P15 1.568604 1_555
O110 P21 1.535193 1_555
O111 P18 1.566797 1_555
