# generated using pymatgen
data_Sb2OsC6(OF2)6
_symmetry_space_group_name_H-M   'P 1'
_cell_length_a   8.44550700
_cell_length_b   8.44550700
_cell_length_c   12.66606200
_cell_angle_alpha   90.00000000
_cell_angle_beta   90.00000000
_cell_angle_gamma   90.00000000
_symmetry_Int_Tables_number   1
_chemical_formula_structural   Sb2OsC6(OF2)6
_chemical_formula_sum   'Sb4 Os2 C12 O12 F24'
_cell_volume   903.42699203
_cell_formula_units_Z   2
loop_
 _symmetry_equiv_pos_site_id
 _symmetry_equiv_pos_as_xyz
  1  'x, y, z'
loop_
 _atom_site_type_symbol
 _atom_site_label
 _atom_site_symmetry_multiplicity
 _atom_site_fract_x
 _atom_site_fract_y
 _atom_site_fract_z
 _atom_site_occupancy
  Sb  Sb0  1  0.00000000  0.50000000  0.75000000  1
  Sb  Sb1  1  0.50000000  0.00000000  0.75000000  1
  Sb  Sb2  1  0.50000000  0.00000000  0.25000000  1
  Sb  Sb3  1  0.00000000  0.50000000  0.25000000  1
  Os  Os0  1  0.50000000  0.50000000  0.50000000  1
  Os  Os1  1  0.00000000  0.00000000  0.00000000  1
  C  C0  1  0.62893400  0.70127100  0.50000000  1
  C  C1  1  0.37106600  0.29872900  0.50000000  1
  C  C2  1  0.00000000  0.00000000  0.15898300  1
  C  C3  1  0.50000000  0.50000000  0.34101700  1
  C  C4  1  0.00000000  0.00000000  0.84101700  1
  C  C5  1  0.50000000  0.50000000  0.65898300  1
  C  C6  1  0.20127100  0.12893400  0.00000000  1
  C  C7  1  0.87106600  0.20127100  0.00000000  1
  C  C8  1  0.12893400  0.79872900  0.00000000  1
  C  C9  1  0.70127100  0.37106600  0.50000000  1
  C  C10  1  0.29872900  0.62893400  0.50000000  1
  C  C11  1  0.79872900  0.87106600  0.00000000  1
  O  O0  1  0.29971400  0.18461900  0.50000000  1
  O  O1  1  0.70028600  0.81538100  0.50000000  1
  O  O2  1  0.00000000  0.00000000  0.24879000  1
  O  O3  1  0.50000000  0.50000000  0.25121000  1
  O  O4  1  0.00000000  0.00000000  0.75121000  1
  O  O5  1  0.50000000  0.50000000  0.74879000  1
  O  O6  1  0.31538100  0.20028600  0.00000000  1
  O  O7  1  0.79971400  0.31538100  0.00000000  1
  O  O8  1  0.20028600  0.68461900  0.00000000  1
  O  O9  1  0.81538100  0.29971400  0.50000000  1
  O  O10  1  0.18461900  0.70028600  0.50000000  1
  O  O11  1  0.68461900  0.79971400  0.00000000  1
  F  F0  1  0.33959900  0.16040100  0.75000000  1
  F  F1  1  0.83959900  0.33959900  0.75000000  1
  F  F2  1  0.66040100  0.83959900  0.75000000  1
  F  F3  1  0.38087000  0.89301700  0.85814500  1
  F  F4  1  0.66040100  0.83959900  0.25000000  1
  F  F5  1  0.16040100  0.66040100  0.25000000  1
  F  F6  1  0.61913000  0.10698300  0.14185500  1
  F  F7  1  0.89301700  0.61913000  0.14185500  1
  F  F8  1  0.10698300  0.38087000  0.14185500  1
  F  F9  1  0.11913000  0.39301700  0.35814500  1
  F  F10  1  0.88087000  0.60698300  0.35814500  1
  F  F11  1  0.38087000  0.89301700  0.14185500  1
  F  F12  1  0.60698300  0.11913000  0.35814500  1
  F  F13  1  0.39301700  0.88087000  0.35814500  1
  F  F14  1  0.83959900  0.33959900  0.25000000  1
  F  F15  1  0.10698300  0.38087000  0.85814500  1
  F  F16  1  0.89301700  0.61913000  0.85814500  1
  F  F17  1  0.88087000  0.60698300  0.64185500  1
  F  F18  1  0.11913000  0.39301700  0.64185500  1
  F  F19  1  0.61913000  0.10698300  0.85814500  1
  F  F20  1  0.39301700  0.88087000  0.64185500  1
  F  F21  1  0.60698300  0.11913000  0.64185500  1
  F  F22  1  0.33959900  0.16040100  0.25000000  1
  F  F23  1  0.16040100  0.66040100  0.75000000  1
loop_
_geom_bond_atom_site_label_1
_geom_bond_atom_site_label_2
_geom_bond_distance
_geom_bond_site_symmetry_2
C0 O1 1.136610 1_555
C0 Os0 2.018706 1_555
C1 O0 1.136610 1_555
C1 Os0 2.018706 1_555
C2 O2 1.137501 1_555
C2 Os1 2.013689 1_555
C3 O3 1.137501 1_555
C3 Os0 2.013689 1_555
C4 O4 1.137501 1_555
C4 Os1 2.013689 1_556
C5 O5 1.137501 1_555
C5 Os0 2.013689 1_555
C6 O6 1.136610 1_555
C6 Os1 2.018706 1_555
C7 O7 1.136610 1_555
C7 Os1 2.018706 1_655
C8 O8 1.136610 1_555
C8 Os1 2.018706 1_565
C9 O9 1.136610 1_555
C9 Os0 2.018706 1_555
C10 O10 1.136610 1_555
C10 Os0 2.018706 1_555
C11 O11 1.136610 1_555
C11 Os1 2.018706 1_665
F0 Sb1 1.915790 1_555
F1 Sb0 1.915790 1_655
F2 Sb1 1.915790 1_565
F3 Sb1 1.924811 1_565
F4 Sb2 1.915790 1_565
F5 Sb3 1.915790 1_555
F6 Sb2 1.924811 1_555
F7 Sb3 1.924811 1_655
F8 Sb3 1.924811 1_555
F9 Sb3 1.924811 1_555
F10 Sb3 1.924811 1_655
F11 Sb2 1.924811 1_565
F12 Sb2 1.924811 1_555
F13 Sb2 1.924811 1_565
F14 Sb3 1.915790 1_655
F15 Sb0 1.924811 1_555
F16 Sb0 1.924811 1_655
F17 Sb0 1.924811 1_655
F18 Sb0 1.924811 1_555
F19 Sb1 1.924811 1_555
F20 Sb1 1.924811 1_565
F21 Sb1 1.924811 1_555
F22 Sb2 1.915790 1_555
F23 Sb0 1.915790 1_555
