# generated using pymatgen
data_Ba3MgTa2O9
_symmetry_space_group_name_H-M   'P 1'
_cell_length_a   5.84342209
_cell_length_b   5.84342209
_cell_length_c   7.17866600
_cell_angle_alpha   90.00000000
_cell_angle_beta   90.00000000
_cell_angle_gamma   120.00000101
_symmetry_Int_Tables_number   1
_chemical_formula_structural   Ba3MgTa2O9
_chemical_formula_sum   'Ba3 Mg1 Ta2 O9'
_cell_volume   212.27990795
_cell_formula_units_Z   1
loop_
 _symmetry_equiv_pos_site_id
 _symmetry_equiv_pos_as_xyz
  1  'x, y, z'
loop_
 _atom_site_type_symbol
 _atom_site_label
 _atom_site_symmetry_multiplicity
 _atom_site_fract_x
 _atom_site_fract_y
 _atom_site_fract_z
 _atom_site_occupancy
  Ba  Ba0  1  0.33333300  0.66666700  0.66412400  1
  Ba  Ba1  1  0.00000000  0.00000000  0.00000000  1
  Ba  Ba2  1  0.66666700  0.33333300  0.33587600  1
  Mg  Mg0  1  0.00000000  0.00000000  0.50000000  1
  Ta  Ta0  1  0.33333300  0.66666700  0.17675200  1
  Ta  Ta1  1  0.66666700  0.33333300  0.82324800  1
  O  O0  1  0.82790600  0.17209400  0.67542400  1
  O  O1  1  0.82790600  0.65581200  0.67542400  1
  O  O2  1  0.34418800  0.17209400  0.67542400  1
  O  O3  1  0.65581200  0.82790600  0.32457600  1
  O  O4  1  0.17209400  0.34418800  0.32457600  1
  O  O5  1  0.17209400  0.82790600  0.32457600  1
  O  O6  1  0.50000000  0.00000000  0.00000000  1
  O  O7  1  0.00000000  0.50000000  0.00000000  1
  O  O8  1  0.50000000  0.50000000  0.00000000  1
loop_
_geom_bond_atom_site_label_1
_geom_bond_atom_site_label_2
_geom_bond_distance
_geom_bond_site_symmetry_2
Ba0 O2 2.923350 1_565
Ba0 O1 2.923350 1_455
Ba0 O0 2.923353 1_565
Ba0 O0 2.923353 1_455
Ba0 O1 2.923356 1_555
Ba0 O2 2.923356 1_555
Ba0 O5 2.933354 1_555
Ba0 O3 2.933357 1_555
Ba0 O4 2.933357 1_555
Ba0 O7 2.942629 1_556
Ba0 O6 2.942629 1_566
Ba0 O8 2.942632 1_556
Ba1 O4 2.909091 1_555
Ba1 O2 2.909091 1_554
Ba1 O3 2.909091 1_445
Ba1 O1 2.909091 1_444
Ba1 O0 2.909091 1_454
Ba1 O5 2.909091 1_545
Ba1 O8 2.921711 1_555
Ba1 O8 2.921711 1_445
Ba1 O7 2.921711 1_555
Ba1 O6 2.921711 1_455
Ba1 O6 2.921711 1_555
Ba1 O7 2.921711 1_545
Ba2 O4 2.923350 1_655
Ba2 O3 2.923350 1_545
Ba2 O5 2.923353 1_545
Ba2 O5 2.923353 1_655
Ba2 O3 2.923356 1_555
Ba2 O4 2.923356 1_555
Ba2 O0 2.933354 1_555
Ba2 O1 2.933357 1_555
Ba2 O2 2.933357 1_555
Ba2 O7 2.942629 1_655
Ba2 O6 2.942629 1_555
Ba2 O8 2.942632 1_555
Mg0 O2 2.149340 1_555
Mg0 O4 2.149340 1_555
Mg0 O3 2.149340 1_445
Mg0 O1 2.149340 1_445
Mg0 O0 2.149340 1_455
Mg0 O5 2.149340 1_545
O0 Ta1 1.946600 1_555
O1 Ta1 1.946605 1_555
O2 Ta1 1.946605 1_555
O3 Ta0 1.946605 1_555
O4 Ta0 1.946605 1_555
O5 Ta0 1.946600 1_555
O6 Ta1 2.110787 1_554
O6 Ta0 2.110787 1_545
O7 Ta1 2.110787 1_454
O7 Ta0 2.110787 1_555
O8 Ta1 2.110791 1_554
O8 Ta0 2.110791 1_555
