# generated using pymatgen
data_V5Fe3O16
_symmetry_space_group_name_H-M   'P 1'
_cell_length_a   11.10766400
_cell_length_b   4.52903200
_cell_length_c   4.93098168
_cell_angle_alpha   89.54911040
_cell_angle_beta   90.00000000
_cell_angle_gamma   90.00000000
_symmetry_Int_Tables_number   1
_chemical_formula_structural   V5Fe3O16
_chemical_formula_sum   'V5 Fe3 O16'
_cell_volume   248.05504538
_cell_formula_units_Z   1
loop_
 _symmetry_equiv_pos_site_id
 _symmetry_equiv_pos_as_xyz
  1  'x, y, z'
loop_
 _atom_site_type_symbol
 _atom_site_label
 _atom_site_symmetry_multiplicity
 _atom_site_fract_x
 _atom_site_fract_y
 _atom_site_fract_z
 _atom_site_occupancy
  V  V0  1  0.41356500  0.50000000  0.50000000  1
  V  V1  1  0.91550400  0.50000000  0.50000000  1
  V  V2  1  0.33460700  0.00000000  0.00000000  1
  V  V3  1  0.66064800  0.00000000  0.50000000  1
  V  V4  1  0.08453300  0.50000000  0.00000000  1
  Fe  Fe0  1  0.83379200  0.00000000  0.00000000  1
  Fe  Fe1  1  0.16618300  0.00000000  0.50000000  1
  Fe  Fe2  1  0.58041900  0.50000000  0.00000000  1
  O  O0  1  0.05686300  0.27806600  0.68387000  1
  O  O1  1  0.56178300  0.26206600  0.65481200  1
  O  O2  1  0.94487300  0.27973400  0.18257200  1
  O  O3  1  0.43655200  0.27207300  0.16742600  1
  O  O4  1  0.31246500  0.22635500  0.66632600  1
  O  O5  1  0.81290400  0.23993500  0.65330900  1
  O  O6  1  0.18823800  0.23520100  0.15095400  1
  O  O7  1  0.69201600  0.21444200  0.18661300  1
  O  O8  1  0.31246500  0.77364500  0.33367400  1
  O  O9  1  0.81290400  0.76006500  0.34669100  1
  O  O10  1  0.18823800  0.76479900  0.84904600  1
  O  O11  1  0.69201600  0.78555800  0.81338700  1
  O  O12  1  0.05686300  0.72193400  0.31613000  1
  O  O13  1  0.56178300  0.73793400  0.34518800  1
  O  O14  1  0.43655200  0.72792700  0.83257400  1
  O  O15  1  0.94487300  0.72026600  0.81742800  1
loop_
_geom_bond_atom_site_label_1
_geom_bond_atom_site_label_2
_geom_bond_distance
_geom_bond_site_symmetry_2
Fe0 O15 1.988945 1_544
Fe0 O2 1.988945 1_555
Fe0 O9 2.031732 1_545
Fe0 O5 2.031732 1_554
Fe0 O11 2.069797 1_544
Fe0 O7 2.069797 1_555
Fe1 O0 1.974972 1_555
Fe1 O12 1.974972 1_545
Fe1 O10 2.031798 1_545
Fe1 O6 2.031798 1_555
Fe1 O8 2.092126 1_545
Fe1 O4 2.092126 1_555
Fe2 O7 2.009279 1_555
Fe2 O11 2.009279 1_554
Fe2 O13 2.032280 1_555
Fe2 O1 2.032280 1_554
Fe2 O3 2.070620 1_555
Fe2 O14 2.070620 1_554
O0 V4 1.886637 1_556
O0 V1 2.069646 1_455
O1 V3 1.792122 1_555
O1 V0 2.107493 1_555
O2 V1 1.891067 1_555
O2 V4 2.048912 1_655
O3 V2 1.870356 1_555
O3 V0 1.961322 1_555
O4 V0 1.858420 1_555
O4 V2 1.947321 1_556
O5 V1 1.800993 1_555
O5 V3 2.150687 1_555
O6 V4 1.818024 1_555
O6 V2 2.084357 1_555
O7 V3 1.851758 1_555
O8 V0 1.858420 1_555
O8 V2 1.947321 1_565
O9 V1 1.800993 1_555
O9 V3 2.150687 1_565
O10 V4 1.818024 1_556
O10 V2 2.084357 1_566
O11 V3 1.851758 1_565
O12 V4 1.886637 1_555
O12 V1 2.069646 1_455
O13 V3 1.792122 1_565
O13 V0 2.107493 1_555
O14 V2 1.870356 1_566
O14 V0 1.961322 1_555
O15 V1 1.891067 1_555
O15 V4 2.048912 1_656
