# generated using pymatgen
data_LiIrRh
_symmetry_space_group_name_H-M   'P 1'
_cell_length_a   3.90681871
_cell_length_b   3.90681871
_cell_length_c   3.90681871
_cell_angle_alpha   60.00000000
_cell_angle_beta   60.00000000
_cell_angle_gamma   60.00000000
_symmetry_Int_Tables_number   1
_chemical_formula_structural   LiIrRh
_chemical_formula_sum   'Li1 Ir1 Rh1'
_cell_volume   42.16525952
_cell_formula_units_Z   1
loop_
 _symmetry_equiv_pos_site_id
 _symmetry_equiv_pos_as_xyz
  1  'x, y, z'
loop_
 _atom_site_type_symbol
 _atom_site_label
 _atom_site_symmetry_multiplicity
 _atom_site_fract_x
 _atom_site_fract_y
 _atom_site_fract_z
 _atom_site_occupancy
  Li  Li0  1  0.75000000  0.75000000  0.75000000  1
  Ir  Ir0  1  0.50000000  0.50000000  0.50000000  1
  Rh  Rh0  1  0.00000000  0.00000000  0.00000000  1
loop_
_geom_bond_atom_site_label_1
_geom_bond_atom_site_label_2
_geom_bond_distance
_geom_bond_site_symmetry_2
Li0 Rh0 2.392428 1_665
Li0 Rh0 2.392428 1_656
Li0 Rh0 2.392428 1_666
Li0 Rh0 2.392428 1_566
Ir0 Li0 2.392428 1_554
Ir0 Li0 2.392428 1_545
Ir0 Li0 2.392428 1_455
Ir0 Li0 2.392428 1_555
Ir0 Rh0 2.762538 1_656
Ir0 Rh0 2.762538 1_565
Ir0 Rh0 2.762538 1_655
Ir0 Rh0 2.762538 1_665
Ir0 Rh0 2.762538 1_566
Ir0 Rh0 2.762538 1_556
