# generated using pymatgen
data_Li20Nb19O60
_symmetry_space_group_name_H-M   'P 1'
_cell_length_a   5.60124231
_cell_length_b   11.22887059
_cell_length_c   56.18149924
_cell_angle_alpha   55.59865515
_cell_angle_beta   55.72011340
_cell_angle_gamma   55.62501827
_symmetry_Int_Tables_number   1
_chemical_formula_structural   Li20Nb19O60
_chemical_formula_sum   'Li40 Nb38 O120'
_cell_volume   2246.28922203
_cell_formula_units_Z   2
loop_
 _symmetry_equiv_pos_site_id
 _symmetry_equiv_pos_as_xyz
  1  'x, y, z'
loop_
 _atom_site_type_symbol
 _atom_site_label
 _atom_site_symmetry_multiplicity
 _atom_site_fract_x
 _atom_site_fract_y
 _atom_site_fract_z
 _atom_site_occupancy
  Li  Li0  1  0.30189923  0.13565497  0.02710080  1
  Li  Li1  1  0.27095250  0.64832699  0.02738061  1
  Li  Li2  1  0.27314344  0.13536156  0.13004699  1
  Li  Li3  1  0.78225158  0.39188533  0.07834673  1
  Li  Li4  1  0.30578185  0.13470013  0.22694288  1
  Li  Li5  1  0.28287436  0.64010235  0.12798127  1
  Li  Li6  1  0.76888954  0.39238348  0.17872689  1
  Li  Li7  1  0.78822530  0.88545984  0.07800964  1
  Li  Li8  1  0.28019462  0.14080041  0.32822493  1
  Li  Li9  1  0.27201731  0.64900544  0.22726748  1
  Li  Li10  1  0.78132932  0.39258292  0.27833005  1
  Li  Li11  1  0.79687652  0.90344742  0.17856376  1
  Li  Li12  1  0.28349725  0.63911377  0.32831903  1
  Li  Li13  1  0.28223175  0.14044362  0.42802924  1
  Li  Li14  1  0.78129845  0.39090432  0.37800008  1
  Li  Li15  1  0.78834852  0.88628092  0.27791135  1
  Li  Li16  1  0.28168654  0.14063478  0.52811793  1
  Li  Li17  1  0.28169485  0.64077970  0.42810744  1
  Li  Li18  1  0.78116649  0.39083010  0.47812834  1
  Li  Li19  1  0.78114836  0.89099778  0.37819933  1
  Li  Li20  1  0.28133800  0.14064687  0.62814920  1
  Li  Li21  1  0.28170262  0.64063454  0.52810582  1
  Li  Li22  1  0.78126316  0.39070606  0.57814241  1
  Li  Li23  1  0.78124435  0.89081332  0.47810634  1
  Li  Li24  1  0.28061452  0.14069000  0.72821721  1
  Li  Li25  1  0.28136631  0.64063323  0.62814844  1
  Li  Li26  1  0.78129784  0.39043945  0.67819937  1
  Li  Li27  1  0.78127434  0.89070845  0.57813977  1
  Li  Li28  1  0.28049588  0.64074477  0.72822381  1
  Li  Li29  1  0.27959997  0.14123433  0.82822573  1
  Li  Li30  1  0.78150507  0.38990309  0.77829504  1
  Li  Li31  1  0.78125935  0.89044318  0.67820813  1
  Li  Li32  1  0.27379137  0.13424668  0.93015336  1
  Li  Li33  1  0.27948359  0.64080138  0.82829131  1
  Li  Li34  1  0.78380195  0.38973557  0.87805541  1
  Li  Li35  1  0.78181231  0.88993067  0.77823924  1
  Li  Li36  1  0.28209767  0.64219611  0.92765684  1
  Li  Li37  1  0.76945028  0.39169713  0.97892540  1
  Li  Li38  1  0.78295913  0.88939741  0.87822125  1
  Li  Li39  1  0.79997792  0.90374975  0.97812735  1
  Nb  Nb0  1  0.00134342  0.50376983  0.99864962  1
  Nb  Nb1  1  0.00067117  0.99522637  0.10059286  1
  Nb  Nb2  1  0.50223891  0.25447585  0.04980272  1
  Nb  Nb3  1  0.99638979  0.49746025  0.10082496  1
  Nb  Nb4  1  0.50072695  0.24995278  0.15020794  1
  Nb  Nb5  1  0.48721583  0.74838386  0.05212622  1
  Nb  Nb6  1  0.00207114  0.50438188  0.19852698  1
  Nb  Nb7  1  0.99842585  0.99861514  0.30035463  1
  Nb  Nb8  1  0.50570677  0.25270898  0.24990960  1
  Nb  Nb9  1  0.49809666  0.75434970  0.14982832  1
  Nb  Nb10  1  0.99851368  0.00049348  0.40003690  1
  Nb  Nb11  1  0.00051110  0.49982392  0.30004008  1
  Nb  Nb12  1  0.49901089  0.25103127  0.35001881  1
  Nb  Nb13  1  0.49553485  0.75011534  0.25156890  1
  Nb  Nb14  1  0.99898422  0.50045548  0.40016119  1
  Nb  Nb15  1  0.99922587  0.00047202  0.50009673  1
  Nb  Nb16  1  0.50026379  0.25029493  0.45002740  1
  Nb  Nb17  1  0.50113270  0.74912055  0.35000356  1
  Nb  Nb18  1  0.99920947  0.00023701  0.60012916  1
  Nb  Nb19  1  0.99895656  0.50044886  0.50010553  1
  Nb  Nb20  1  0.49967873  0.25045888  0.55003742  1
  Nb  Nb21  1  0.49964054  0.75053099  0.45000900  1
  Nb  Nb22  1  0.99936171  -0.00001644  0.70012855  1
  Nb  Nb23  1  0.99920703  0.50024829  0.60012866  1
  Nb  Nb24  1  0.49919585  0.25050864  0.65006275  1
  Nb  Nb25  1  0.49972872  0.75047903  0.55003690  1
  Nb  Nb26  1  -0.00064694  0.99980385  0.80008845  1
  Nb  Nb27  1  0.99936950  0.50002241  0.70012114  1
  Nb  Nb28  1  0.49890023  0.25055273  0.75001489  1
  Nb  Nb29  1  0.49922135  0.75050562  0.65006268  1
  Nb  Nb30  1  0.00116471  0.99851271  0.90004465  1
  Nb  Nb31  1  -0.00018570  0.49959452  0.80006712  1
  Nb  Nb32  1  0.49806156  0.25025669  0.85016308  1
  Nb  Nb33  1  0.49874430  0.75059059  0.75003168  1
  Nb  Nb34  1  0.99668461  0.49946079  0.90037195  1
  Nb  Nb35  1  0.49804248  0.75035519  0.84997560  1
  Nb  Nb36  1  0.50200034  0.25073665  0.94963567  1
  Nb  Nb37  1  0.49933958  0.75511742  0.94955681  1
  O  O0  1  0.12561769  0.17487968  0.07124567  1
  O  O1  1  0.35258196  0.36447265  0.01118020  1
  O  O2  1  0.66713979  0.05835193  0.04136915  1
  O  O3  1  0.20999899  0.43369407  0.06097922  1
  O  O4  1  0.60968800  0.11470498  0.08625649  1
  O  O5  1  0.10795723  0.67962413  0.07198288  1
  O  O6  1  0.11298715  0.20429830  0.16820908  1
  O  O7  1  0.86517543  0.30318036  0.02165314  1
  O  O8  1  0.41806331  0.84036669  0.01091087  1
  O  O9  1  0.36106628  0.35845885  0.11099155  1
  O  O10  1  0.70920715  0.55850368  0.03548968  1
  O  O11  1  0.72976590  0.05698820  0.13503415  1
  O  O12  1  0.22237012  0.43619930  0.16064528  1
  O  O13  1  0.21572268  0.93456899  0.06031522  1
  O  O14  1  0.55157353  0.10744300  0.18720040  1
  O  O15  1  0.60657188  0.60356452  0.08749482  1
  O  O16  1  0.11967944  0.17638885  0.27184864  1
  O  O17  1  0.11303193  0.68072141  0.17171998  1
  O  O18  1  0.87291318  0.30369834  0.12132576  1
  O  O19  1  0.86034327  0.78574146  0.02294240  1
  O  O20  1  0.34985907  0.36587170  0.21152756  1
  O  O21  1  0.36679041  0.85654873  0.11042631  1
  O  O22  1  0.66167715  0.05926933  0.24155167  1
  O  O23  1  0.72020242  0.55205564  0.13612729  1
  O  O24  1  0.22572869  0.93261734  0.15728196  1
  O  O25  1  0.20736658  0.43157175  0.26182684  1
  O  O26  1  0.60681253  0.11474177  0.28672798  1
  O  O27  1  0.60881427  0.60913017  0.18633544  1
  O  O28  1  0.10525226  0.67973694  0.27259178  1
  O  O29  1  0.10932779  0.17891599  0.37214204  1
  O  O30  1  0.86542316  0.30219095  0.22204273  1
  O  O31  1  0.86999084  0.80487040  0.12118322  1
  O  O32  1  0.35991556  0.35816185  0.31133963  1
  O  O33  1  0.41852235  0.83263192  0.21165717  1
  O  O34  1  0.70678380  0.55917351  0.23554003  1
  O  O35  1  0.72258492  0.05430474  0.33586810  1
  O  O36  1  0.22002186  0.42903325  0.36119976  1
  O  O37  1  0.21279418  0.93422193  0.26081118  1
  O  O38  1  0.60991477  0.10899676  0.38593205  1
  O  O39  1  0.60696971  0.60272700  0.28778657  1
  O  O40  1  0.10990673  0.17923901  0.47208209  1
  O  O41  1  0.10936257  0.67948431  0.37214475  1
  O  O42  1  0.86214887  0.78639473  0.22321813  1
  O  O43  1  0.86020336  0.30184882  0.32254846  1
  O  O44  1  0.35826383  0.36009838  0.41110758  1
  O  O45  1  0.35952007  0.85868503  0.31120128  1
  O  O46  1  0.72012496  0.05506009  0.43582902  1
  O  O47  1  0.71997996  0.55459385  0.33612303  1
  O  O48  1  0.22153374  0.92791598  0.36113289  1
  O  O49  1  0.22066963  0.42883291  0.46108783  1
  O  O50  1  0.61025709  0.60985157  0.38590866  1
  O  O51  1  0.61021759  0.10978825  0.48585189  1
  O  O52  1  0.11011940  0.17918907  0.57203376  1
  O  O53  1  0.10960373  0.67920413  0.47209470  1
  O  O54  1  0.85898866  0.30483599  0.42213976  1
  O  O55  1  0.86100972  0.80476642  0.32192898  1
  O  O56  1  0.35795509  0.85972533  0.41115309  1
  O  O57  1  0.35850390  0.35990517  0.51107541  1
  O  O58  1  0.72042495  0.55479439  0.43587596  1
  O  O59  1  0.72064672  0.05496968  0.53581577  1
  O  O60  1  0.22064416  0.42902923  0.56102811  1
  O  O61  1  0.22043751  0.92892746  0.46109677  1
  O  O62  1  0.61027959  0.10988792  0.58582243  1
  O  O63  1  0.61018921  0.60972949  0.48586098  1
  O  O64  1  0.11060513  0.17912257  0.67195841  1
  O  O65  1  0.11014142  0.67918595  0.57203370  1
  O  O66  1  0.85867206  0.80448602  0.42213596  1
  O  O67  1  0.85874515  0.30486582  0.52207921  1
  O  O68  1  0.35883937  0.35997028  0.61100056  1
  O  O69  1  0.35853336  0.85994387  0.51106880  1
  O  O70  1  0.72088765  0.05498626  0.63577901  1
  O  O71  1  0.72058249  0.55496550  0.53581683  1
  O  O72  1  0.22061379  0.42925569  0.66094388  1
  O  O73  1  0.22063715  0.92902422  0.56103223  1
  O  O74  1  0.61024548  0.11005228  0.68578649  1
  O  O75  1  0.61027071  0.60989721  0.58582068  1
  O  O76  1  0.11060573  0.67914664  0.67195665  1
  O  O77  1  0.11130784  0.17904963  0.77180287  1
  O  O78  1  0.85884270  0.80485274  0.52208696  1
  O  O79  1  0.85869688  0.30506908  0.62202496  1
  O  O80  1  0.35935341  0.35990760  0.71088791  1
  O  O81  1  0.35882075  0.85997062  0.61100379  1
  O  O82  1  0.72113793  0.05500719  0.73575352  1
  O  O83  1  0.72085982  0.55499932  0.63578350  1
  O  O84  1  0.22029338  0.42955975  0.76080223  1
  O  O85  1  0.22065553  0.92925077  0.66093680  1
  O  O86  1  0.61045987  0.11028340  0.78574268  1
  O  O87  1  0.61028724  0.61003379  0.68578752  1
  O  O88  1  0.11464928  0.17864206  0.87147914  1
  O  O89  1  0.11129169  0.67890703  0.77181644  1
  O  O90  1  0.85853281  0.30536518  0.72191200  1
  O  O91  1  0.85870526  0.80508201  0.62202267  1
  O  O92  1  0.35936352  0.85991426  0.71087823  1
  O  O93  1  0.36053202  0.35957502  0.81071078  1
  O  O94  1  0.72269836  0.05472676  0.83569338  1
  O  O95  1  0.72118448  0.55498125  0.73575072  1
  O  O96  1  0.22033724  0.92951395  0.76080242  1
  O  O97  1  0.22148041  0.43044579  0.86043699  1
  O  O98  1  0.61259019  0.11042446  0.88565140  1
  O  O99  1  0.61029368  0.61033526  0.78575586  1
  O  O100  1  0.11601989  0.20042476  0.96923180  1
  O  O101  1  0.11364194  0.67887490  0.87160366  1
  O  O102  1  0.85814503  0.30583624  0.82173019  1
  O  O103  1  0.85845208  0.80537804  0.72190890  1
  O  O104  1  0.36041235  0.85970114  0.81073639  1
  O  O105  1  0.36164051  0.35989814  0.91079452  1
  O  O106  1  0.72865543  0.05722558  0.93505000  1
  O  O107  1  0.72240444  0.55468787  0.83572535  1
  O  O108  1  0.22432207  0.43613346  0.96026244  1
  O  O109  1  0.22197013  0.93017216  0.86048261  1
  O  O110  1  0.55011093  0.10714550  0.98723713  1
  O  O111  1  0.61119812  0.61020548  0.88564170  1
  O  O112  1  0.11381796  0.67999642  0.97166656  1
  O  O113  1  0.87329511  0.30535396  0.92111497  1
  O  O114  1  0.85829971  0.80568975  0.82174224  1
  O  O115  1  0.36626489  0.85740029  0.91023047  1
  O  O116  1  0.72165101  0.55238795  0.93584900  1
  O  O117  1  0.22460528  0.93281329  0.95722195  1
  O  O118  1  0.60955219  0.60957412  0.98621881  1
  O  O119  1  0.86860725  0.80513955  0.92120563  1
loop_
_geom_bond_atom_site_label_1
_geom_bond_atom_site_label_2
_geom_bond_distance
_geom_bond_site_symmetry_2
Li0 O110 1.962467 1_554
Li0 O13 2.066040 1_545
Li0 O7 2.147740 1_455
Li0 O2 2.153413 1_555
Li0 O0 2.303181 1_555
Li0 O1 2.328739 1_555
Li1 O19 1.984085 1_455
Li1 O118 2.097316 1_554
Li1 O3 2.133252 1_555
Li1 O8 2.253470 1_555
Li1 O10 2.279358 1_555
Li1 O5 2.300404 1_555
Li2 O24 1.970640 1_545
Li2 O18 2.060197 1_455
Li2 O4 2.141684 1_555
Li2 O6 2.219307 1_555
Li2 O11 2.319808 1_555
Li2 O9 2.330894 1_555
Li3 O9 2.101964 1_555
Li3 O10 2.149465 1_555
Li3 O0 2.176669 1_655
Li3 O3 2.243203 1_655
Li3 O15 2.247604 1_555
Li3 O18 2.276065 1_555
Li4 O14 1.951432 1_555
Li4 O37 2.080130 1_545
Li4 O22 2.125036 1_555
Li4 O30 2.153685 1_455
Li4 O16 2.343427 1_555
Li4 O20 2.343434 1_555
Li5 O12 2.037797 1_555
Li5 O15 2.048975 1_555
Li5 O31 2.069346 1_455
Li5 O21 2.271544 1_555
Li5 O23 2.281267 1_555
Li5 O17 2.300988 1_555
Li6 O6 2.013731 1_655
Li6 O20 2.071288 1_555
Li6 O23 2.085963 1_555
Li6 O27 2.278110 1_555
Li6 O30 2.306332 1_555
Li6 O12 2.380267 1_655
Li7 O2 2.009117 1_565
Li7 O5 2.047229 1_655
Li7 O21 2.085407 1_555
Li7 O31 2.283661 1_555
Li7 O13 2.283901 1_655
Li7 O4 2.399984 1_565
Li8 O26 2.056598 1_555
Li8 O43 2.072598 1_455
Li8 O48 2.109277 1_545
Li8 O32 2.278960 1_555
Li8 O29 2.292930 1_555
Li8 O35 2.297292 1_555
Li9 O42 1.973499 1_455
Li9 O27 2.090545 1_555
Li9 O25 2.170662 1_555
Li9 O33 2.179600 1_555
Li9 O34 2.266101 1_555
Li9 O28 2.329215 1_555
Li10 O32 2.109377 1_555
Li10 O34 2.149439 1_555
Li10 O16 2.154962 1_655
Li10 O25 2.230384 1_655
Li10 O39 2.243648 1_555
Li10 O43 2.296252 1_555
Li11 O14 2.078759 1_565
Li11 O33 2.091444 1_555
Li11 O24 2.125464 1_655
Li11 O11 2.152649 1_565
Li11 O17 2.203874 1_655
Li11 O42 2.218027 1_555
Li12 O39 2.050109 1_555
Li12 O36 2.094461 1_555
Li12 O55 2.102564 1_455
Li12 O47 2.277584 1_555
Li12 O45 2.286922 1_555
Li12 O41 2.296933 1_555
Li13 O54 2.094989 1_455
Li13 O38 2.099759 1_555
Li13 O61 2.104819 1_545
Li13 O46 2.282049 1_555
Li13 O44 2.291096 1_555
Li13 O40 2.302018 1_555
Li14 O47 2.083888 1_555
Li14 O29 2.101373 1_655
Li14 O44 2.104217 1_555
Li14 O36 2.287274 1_655
Li14 O50 2.292322 1_555
Li14 O54 2.303375 1_555
Li15 O22 2.010489 1_565
Li15 O28 2.038619 1_655
Li15 O45 2.118613 1_555
Li15 O37 2.269981 1_655
Li15 O55 2.296610 1_555
Li15 O26 2.404841 1_565
Li16 O67 2.096002 1_455
Li16 O73 2.103015 1_545
Li16 O51 2.105275 1_555
Li16 O59 2.283569 1_555
Li16 O57 2.287459 1_555
Li16 O52 2.294465 1_555
Li17 O66 2.094314 1_455
Li17 O50 2.102832 1_555
Li17 O49 2.106265 1_555
Li17 O58 2.283512 1_555
Li17 O56 2.283727 1_555
Li17 O53 2.296586 1_555
Li18 O58 2.098658 1_555
Li18 O57 2.101719 1_555
Li18 O40 2.101943 1_655
Li18 O63 2.286356 1_555
Li18 O49 2.286627 1_655
Li18 O67 2.293338 1_555
Li19 O35 2.097110 1_565
Li19 O41 2.101022 1_655
Li19 O56 2.105118 1_555
Li19 O38 2.276375 1_565
Li19 O48 2.284105 1_655
Li19 O66 2.290608 1_555
Li20 O79 2.096557 1_455
Li20 O85 2.099583 1_545
Li20 O62 2.107794 1_555
Li20 O70 2.284576 1_555
Li20 O68 2.288411 1_555
Li20 O64 2.289677 1_555
Li21 O78 2.095314 1_455
Li21 O60 2.103055 1_555
Li21 O63 2.104574 1_555
Li21 O71 2.283543 1_555
Li21 O69 2.288006 1_555
Li21 O65 2.295097 1_555
Li22 O68 2.099345 1_555
Li22 O71 2.102030 1_555
Li22 O52 2.102511 1_655
Li22 O60 2.286775 1_655
Li22 O75 2.287716 1_555
Li22 O79 2.290338 1_555
Li23 O46 2.100785 1_565
Li23 O53 2.101182 1_655
Li23 O69 2.101859 1_555
Li23 O61 2.286192 1_655
Li23 O51 2.287484 1_565
Li23 O78 2.294993 1_555
Li24 O96 2.095434 1_545
Li24 O90 2.097805 1_455
Li24 O74 2.112194 1_555
Li24 O77 2.279415 1_555
Li24 O82 2.286740 1_555
Li24 O80 2.288205 1_555
Li25 O91 2.096709 1_455
Li25 O72 2.099617 1_555
Li25 O75 2.107725 1_555
Li25 O83 2.284531 1_555
Li25 O81 2.288478 1_555
Li25 O76 2.289815 1_555
Li26 O80 2.095268 1_555
Li26 O64 2.103544 1_655
Li26 O83 2.105799 1_555
Li26 O90 2.282554 1_555
Li26 O72 2.287215 1_655
Li26 O87 2.289135 1_555
Li27 O81 2.099523 1_555
Li27 O59 2.101878 1_565
Li27 O65 2.102520 1_655
Li27 O73 2.286743 1_655
Li27 O62 2.287726 1_565
Li27 O91 2.290383 1_555
Li28 O84 2.095324 1_555
Li28 O103 2.097747 1_455
Li28 O87 2.112806 1_555
Li28 O89 2.278713 1_555
Li28 O95 2.287057 1_555
Li28 O92 2.287834 1_555
Li29 O109 2.087331 1_545
Li29 O102 2.098428 1_455
Li29 O86 2.116426 1_555
Li29 O88 2.263008 1_555
Li29 O93 2.282795 1_555
Li29 O94 2.295538 1_555
Li30 O93 2.088360 1_555
Li30 O77 2.104572 1_655
Li30 O95 2.111701 1_555
Li30 O102 2.269297 1_555
Li30 O84 2.285861 1_655
Li30 O99 2.293713 1_555
Li31 O92 2.094906 1_555
Li31 O76 2.103593 1_655
Li31 O70 2.106200 1_565
Li31 O103 2.281821 1_555
Li31 O85 2.287327 1_655
Li31 O74 2.288978 1_565
Li32 O117 1.962024 1_545
Li32 O113 2.072536 1_455
Li32 O98 2.182105 1_555
Li32 O100 2.251605 1_555
Li32 O106 2.312456 1_555
Li32 O105 2.352932 1_555
Li33 O97 2.081293 1_555
Li33 O114 2.098735 1_455
Li33 O99 2.116860 1_555
Li33 O101 2.268851 1_555
Li33 O104 2.288056 1_555
Li33 O107 2.294842 1_555
Li34 O105 2.094212 1_555
Li34 O107 2.104583 1_555
Li34 O88 2.108869 1_655
Li34 O97 2.284617 1_655
Li34 O113 2.289310 1_555
Li34 O111 2.295756 1_555
Li35 O104 2.090427 1_555
Li35 O89 2.104475 1_655
Li35 O82 2.109907 1_565
Li35 O114 2.271845 1_555
Li35 O96 2.284909 1_655
Li35 O86 2.293971 1_565
Li36 O108 2.050006 1_555
Li36 O119 2.062587 1_455
Li36 O111 2.099465 1_555
Li36 O115 2.261285 1_555
Li36 O116 2.288844 1_555
Li36 O112 2.300181 1_555
Li37 O100 2.025002 1_655
Li37 O1 2.059863 1_556
Li37 O116 2.105795 1_555
Li37 O7 2.278128 1_556
Li37 O118 2.280470 1_555
Li37 O108 2.382216 1_655
Li38 O115 2.073487 1_555
Li38 O101 2.104809 1_655
Li38 O94 2.111349 1_565
Li38 O119 2.273301 1_555
Li38 O109 2.290139 1_655
Li38 O98 2.300471 1_565
Li39 O8 2.067534 1_556
Li39 O110 2.083598 1_565
Li39 O117 2.107023 1_655
Li39 O106 2.141377 1_565
Li39 O112 2.204296 1_655
Li39 O19 2.211905 1_556
Nb0 O112 1.884931 1_555
Nb0 O1 1.911475 1_556
Nb0 O10 1.955952 1_456
Nb0 O108 2.129157 1_555
Nb0 O118 2.135394 1_455
Nb0 O7 2.205785 1_456
Nb1 O11 1.883647 1_465
Nb1 O21 1.906214 1_555
Nb1 O0 1.952894 1_565
Nb1 O31 2.112273 1_455
Nb1 O4 2.166313 1_465
Nb1 O13 2.186336 1_555
Nb2 O7 1.894564 1_555
Nb2 O3 1.916718 1_555
Nb2 O4 1.926042 1_555
Nb2 O2 2.077661 1_555
Nb2 O0 2.179439 1_555
Nb2 O1 2.188145 1_555
Nb3 O23 1.883978 1_555
Nb3 O9 1.908277 1_655
Nb3 O5 1.938478 1_655
Nb3 O18 2.123429 1_555
Nb3 O15 2.155012 1_555
Nb3 O3 2.186821 1_655
Nb4 O14 1.831739 1_555
Nb4 O12 1.955066 1_555
Nb4 O18 1.961319 1_555
Nb4 O6 2.049293 1_555
Nb4 O9 2.186917 1_555
Nb4 O11 2.187188 1_555
Nb5 O19 1.893399 1_555
Nb5 O13 1.898342 1_555
Nb5 O15 1.912410 1_555
Nb5 O8 2.105861 1_555
Nb5 O5 2.136034 1_555
Nb5 O10 2.216909 1_555
Nb6 O17 1.881699 1_555
Nb6 O20 1.909237 1_555
Nb6 O34 1.964815 1_455
Nb6 O12 2.110534 1_555
Nb6 O27 2.137331 1_455
Nb6 O30 2.218040 1_455
Nb7 O35 1.898762 1_565
Nb7 O45 1.910194 1_655
Nb7 O16 1.924616 1_665
Nb7 O26 2.152146 1_565
Nb7 O55 2.158547 1_555
Nb7 O37 2.174848 1_655
Nb8 O30 1.883422 1_555
Nb8 O26 1.925441 1_555
Nb8 O25 1.934884 1_555
Nb8 O22 2.061397 1_555
Nb8 O20 2.190490 1_555
Nb8 O16 2.196725 1_555
Nb9 O24 1.813525 1_555
Nb9 O27 1.939591 1_555
Nb9 O31 1.943552 1_555
Nb9 O17 2.173607 1_555
Nb9 O21 2.183707 1_555
Nb9 O23 2.237413 1_555
Nb10 O29 1.901532 1_655
Nb10 O46 1.905693 1_555
Nb10 O56 1.910318 1_645
Nb10 O38 2.169683 1_555
Nb10 O66 2.182345 1_545
Nb10 O48 2.188469 1_645
Nb11 O28 1.898022 1_555
Nb11 O32 1.915321 1_555
Nb11 O47 1.919922 1_455
Nb11 O25 2.143204 1_555
Nb11 O39 2.145343 1_455
Nb11 O43 2.198960 1_455
Nb12 O43 1.895196 1_555
Nb12 O36 1.901989 1_555
Nb12 O38 1.912445 1_555
Nb12 O32 2.161309 1_555
Nb12 O29 2.183426 1_555
Nb12 O35 2.195266 1_555
Nb13 O42 1.856546 1_555
Nb13 O37 1.908160 1_555
Nb13 O39 1.930763 1_555
Nb13 O33 2.088799 1_555
Nb13 O28 2.187696 1_555
Nb13 O34 2.219160 1_555
Nb14 O58 1.901203 1_555
Nb14 O44 1.905088 1_655
Nb14 O41 1.905989 1_655
Nb14 O50 2.173306 1_555
Nb14 O54 2.180375 1_555
Nb14 O36 2.185633 1_655
Nb15 O59 1.902204 1_555
Nb15 O40 1.904488 1_655
Nb15 O69 1.905952 1_645
Nb15 O51 2.174631 1_555
Nb15 O78 2.181562 1_545
Nb15 O61 2.188202 1_645
Nb16 O49 1.903677 1_555
Nb16 O54 1.904258 1_555
Nb16 O51 1.905335 1_555
Nb16 O44 2.176987 1_555
Nb16 O40 2.180280 1_555
Nb16 O46 2.186264 1_555
Nb17 O50 1.906108 1_555
Nb17 O48 1.907692 1_555
Nb17 O55 1.915366 1_555
Nb17 O47 2.169425 1_555
Nb17 O45 2.170339 1_555
Nb17 O41 2.176642 1_555
Nb18 O70 1.900415 1_555
Nb18 O81 1.904658 1_645
Nb18 O52 1.906891 1_655
Nb18 O62 2.175589 1_555
Nb18 O91 2.178454 1_545
Nb18 O73 2.190520 1_645
Nb19 O71 1.901913 1_555
Nb19 O53 1.904290 1_655
Nb19 O57 1.906941 1_655
Nb19 O63 2.173502 1_555
Nb19 O67 2.180804 1_555
Nb19 O49 2.189005 1_655
Nb20 O60 1.902027 1_555
Nb20 O67 1.905245 1_555
Nb20 O62 1.905297 1_555
Nb20 O57 2.177108 1_555
Nb20 O52 2.178443 1_555
Nb20 O59 2.188324 1_555
Nb21 O66 1.902577 1_555
Nb21 O61 1.903057 1_555
Nb21 O63 1.908189 1_555
Nb21 O56 2.174137 1_555
Nb21 O53 2.180191 1_555
Nb21 O58 2.187959 1_555
Nb22 O82 1.900714 1_555
Nb22 O92 1.903092 1_645
Nb22 O64 1.909563 1_655
Nb22 O103 2.175669 1_545
Nb22 O74 2.176762 1_555
Nb22 O85 2.192122 1_645
Nb23 O83 1.900647 1_555
Nb23 O68 1.904687 1_655
Nb23 O65 1.906828 1_655
Nb23 O75 2.175669 1_555
Nb23 O79 2.178684 1_555
Nb23 O60 2.190733 1_655
Nb24 O72 1.900642 1_555
Nb24 O74 1.903720 1_555
Nb24 O79 1.908121 1_555
Nb24 O64 2.175578 1_555
Nb24 O68 2.179292 1_555
Nb24 O70 2.189960 1_555
Nb25 O73 1.901942 1_555
Nb25 O75 1.905100 1_555
Nb25 O78 1.905260 1_555
Nb25 O69 2.177440 1_555
Nb25 O65 2.178737 1_555
Nb25 O71 2.188644 1_555
Nb26 O94 1.898959 1_465
Nb26 O104 1.905131 1_555
Nb26 O77 1.912623 1_565
Nb26 O114 2.172739 1_455
Nb26 O86 2.174831 1_465
Nb26 O96 2.194164 1_555
Nb27 O95 1.900573 1_555
Nb27 O80 1.903469 1_655
Nb27 O76 1.909401 1_655
Nb27 O90 2.175813 1_555
Nb27 O87 2.176435 1_555
Nb27 O72 2.191687 1_655
Nb28 O84 1.900511 1_555
Nb28 O86 1.905092 1_555
Nb28 O90 1.910148 1_555
Nb28 O77 2.172660 1_555
Nb28 O80 2.180027 1_555
Nb28 O82 2.188795 1_555
Nb29 O85 1.900442 1_555
Nb29 O87 1.903817 1_555
Nb29 O91 1.908134 1_555
Nb29 O76 2.175535 1_555
Nb29 O81 2.179269 1_555
Nb29 O83 2.189704 1_555
Nb30 O106 1.891944 1_465
Nb30 O115 1.911773 1_555
Nb30 O88 1.924955 1_565
Nb30 O119 2.142126 1_455
Nb30 O98 2.171646 1_465
Nb30 O109 2.194926 1_555
Nb31 O107 1.902332 1_455
Nb31 O93 1.903501 1_555
Nb31 O89 1.911885 1_555
Nb31 O102 2.171187 1_455
Nb31 O99 2.176168 1_455
Nb31 O84 2.191941 1_555
Nb32 O97 1.897320 1_555
Nb32 O98 1.902111 1_555
Nb32 O102 1.916958 1_555
Nb32 O88 2.158180 1_555
Nb32 O93 2.189574 1_555
Nb32 O94 2.193097 1_555
Nb33 O96 1.899310 1_555
Nb33 O99 1.904902 1_555
Nb33 O103 1.910403 1_555
Nb33 O89 2.173249 1_555
Nb33 O92 2.180861 1_555
Nb33 O95 2.189875 1_555
Nb34 O116 1.882794 1_555
Nb34 O105 1.916128 1_655
Nb34 O101 1.928309 1_655
Nb34 O113 2.123672 1_555
Nb34 O111 2.170582 1_555
Nb34 O97 2.213660 1_655
Nb35 O109 1.899842 1_555
Nb35 O111 1.906438 1_555
Nb35 O114 1.915861 1_555
Nb35 O101 2.158456 1_555
Nb35 O104 2.179158 1_555
Nb35 O107 2.187232 1_555
Nb36 O110 1.853866 1_555
Nb36 O108 1.952315 1_555
Nb36 O113 1.960819 1_555
Nb36 O100 2.049518 1_555
Nb36 O105 2.168938 1_555
Nb36 O106 2.174817 1_555
Nb37 O117 1.814392 1_555
Nb37 O119 1.928841 1_555
Nb37 O118 1.945212 1_555
Nb37 O112 2.183767 1_555
Nb37 O115 2.185696 1_555
Nb37 O116 2.241780 1_555
