# generated using pymatgen
data_K2SO3
_symmetry_space_group_name_H-M   'P 1'
_cell_length_a   7.19364257
_cell_length_b   7.19364257
_cell_length_c   6.29171022
_cell_angle_alpha   89.93509315
_cell_angle_beta   89.93509315
_cell_angle_gamma   112.90828979
_symmetry_Int_Tables_number   1
_chemical_formula_structural   K2SO3
_chemical_formula_sum   'K4 S2 O6'
_cell_volume   299.90659154
_cell_formula_units_Z   2
loop_
 _symmetry_equiv_pos_site_id
 _symmetry_equiv_pos_as_xyz
  1  'x, y, z'
loop_
 _atom_site_type_symbol
 _atom_site_label
 _atom_site_symmetry_multiplicity
 _atom_site_fract_x
 _atom_site_fract_y
 _atom_site_fract_z
 _atom_site_occupancy
  K  K0  1  0.92955400  0.08355500  0.47011900  1
  K  K1  1  0.63504700  0.43876800  0.97677100  1
  K  K2  1  0.08355500  0.92955400  0.97011900  1
  K  K3  1  0.43876800  0.63504700  0.47677100  1
  S  S0  1  0.44712500  0.12863800  0.47147000  1
  S  S1  1  0.12863800  0.44712500  0.97147000  1
  O  O0  1  0.95052700  0.28702800  0.86370200  1
  O  O1  1  0.78871300  0.73499800  0.69038600  1
  O  O2  1  0.35867900  0.21735900  0.64355200  1
  O  O3  1  0.21735900  0.35867900  0.14355200  1
  O  O4  1  0.28702800  0.95052700  0.36370200  1
  O  O5  1  0.73499800  0.78871300  0.19038600  1
loop_
_geom_bond_atom_site_label_1
_geom_bond_atom_site_label_2
_geom_bond_distance
_geom_bond_site_symmetry_2
K0 O1 2.691715 1_545
K0 O5 2.694071 1_545
K0 O0 2.852098 1_555
K0 O3 3.035823 1_655
K0 O2 3.056691 1_655
K0 O4 3.144874 1_645
K0 S0 3.609049 1_555
K1 O1 2.676298 1_555
K1 O5 2.694670 1_556
K1 O2 2.904573 1_555
K1 O0 2.962208 1_555
K1 O3 3.017457 1_556
K2 O5 2.691715 1_456
K2 O1 2.694071 1_455
K2 O4 2.852098 1_556
K2 O2 3.035823 1_565
K2 O3 3.056691 1_566
K2 O0 3.144874 1_465
K2 S1 3.609049 1_555
K3 O5 2.676298 1_555
K3 O1 2.694670 1_555
K3 O3 2.904573 1_555
K3 O4 2.962208 1_555
K3 O2 3.017457 1_555
O0 S1 1.510865 1_655
O2 S0 1.516740 1_555
O3 S1 1.516740 1_554
O4 S0 1.510865 1_565
