# generated using pymatgen
data_Ce3Mn(Al3Cu)8
_symmetry_space_group_name_H-M   'P 1'
_cell_length_a   8.44820800
_cell_length_b   8.44820800
_cell_length_c   8.44820800
_cell_angle_alpha   90.00000000
_cell_angle_beta   90.00000000
_cell_angle_gamma   90.00000000
_symmetry_Int_Tables_number   1
_chemical_formula_structural   Ce3Mn(Al3Cu)8
_chemical_formula_sum   'Ce3 Mn1 Al24 Cu8'
_cell_volume   602.96734656
_cell_formula_units_Z   1
loop_
 _symmetry_equiv_pos_site_id
 _symmetry_equiv_pos_as_xyz
  1  'x, y, z'
loop_
 _atom_site_type_symbol
 _atom_site_label
 _atom_site_symmetry_multiplicity
 _atom_site_fract_x
 _atom_site_fract_y
 _atom_site_fract_z
 _atom_site_occupancy
  Ce  Ce0  1  0.50000000  0.50000000  0.00000000  1
  Ce  Ce1  1  0.00000000  0.50000000  0.50000000  1
  Ce  Ce2  1  0.50000000  0.00000000  0.50000000  1
  Mn  Mn0  1  0.00000000  0.00000000  0.00000000  1
  Al  Al0  1  0.50000000  0.83632800  0.83632800  1
  Al  Al1  1  0.77112500  0.77112500  0.00000000  1
  Al  Al2  1  0.16367200  0.83632800  0.50000000  1
  Al  Al3  1  0.16367200  0.16367200  0.50000000  1
  Al  Al4  1  0.83632800  0.16367200  0.50000000  1
  Al  Al5  1  0.50000000  0.83632800  0.16367200  1
  Al  Al6  1  0.16367200  0.50000000  0.16367200  1
  Al  Al7  1  0.16367200  0.50000000  0.83632800  1
  Al  Al8  1  0.22887500  0.77112500  0.00000000  1
  Al  Al9  1  0.83632800  0.83632800  0.50000000  1
  Al  Al10  1  0.77112500  0.00000000  0.22887500  1
  Al  Al11  1  0.50000000  0.16367200  0.16367200  1
  Al  Al12  1  0.00000000  0.77112500  0.77112500  1
  Al  Al13  1  0.83632800  0.50000000  0.83632800  1
  Al  Al14  1  0.00000000  0.22887500  0.22887500  1
  Al  Al15  1  0.00000000  0.22887500  0.77112500  1
  Al  Al16  1  0.50000000  0.16367200  0.83632800  1
  Al  Al17  1  0.22887500  0.00000000  0.22887500  1
  Al  Al18  1  0.77112500  0.00000000  0.77112500  1
  Al  Al19  1  0.00000000  0.77112500  0.22887500  1
  Al  Al20  1  0.77112500  0.22887500  0.00000000  1
  Al  Al21  1  0.83632800  0.50000000  0.16367200  1
  Al  Al22  1  0.22887500  0.22887500  0.00000000  1
  Al  Al23  1  0.22887500  0.00000000  0.77112500  1
  Cu  Cu0  1  0.34541500  0.34541500  0.34541500  1
  Cu  Cu1  1  0.34541500  0.65458500  0.34541500  1
  Cu  Cu2  1  0.65458500  0.65458500  0.34541500  1
  Cu  Cu3  1  0.34541500  0.34541500  0.65458500  1
  Cu  Cu4  1  0.34541500  0.65458500  0.65458500  1
  Cu  Cu5  1  0.65458500  0.34541500  0.34541500  1
  Cu  Cu6  1  0.65458500  0.65458500  0.65458500  1
  Cu  Cu7  1  0.65458500  0.34541500  0.65458500  1
loop_
_geom_bond_atom_site_label_1
_geom_bond_atom_site_label_2
_geom_bond_distance
_geom_bond_site_symmetry_2
Ce0 Cu2 3.453494 1_555
Ce0 Cu5 3.453494 1_555
Ce0 Cu1 3.453494 1_555
Ce0 Cu0 3.453494 1_555
Ce0 Cu6 3.453494 1_554
Ce0 Cu7 3.453494 1_554
Ce0 Cu4 3.453494 1_554
Ce0 Cu3 3.453494 1_554
Ce1 Cu4 3.453494 1_555
Ce1 Cu3 3.453494 1_555
Ce1 Cu1 3.453494 1_555
Ce1 Cu0 3.453494 1_555
Ce1 Cu6 3.453494 1_455
Ce1 Cu7 3.453494 1_455
Ce1 Cu2 3.453494 1_455
Ce1 Cu5 3.453494 1_455
Ce2 Cu7 3.453494 1_555
Ce2 Cu5 3.453494 1_555
Ce2 Cu3 3.453494 1_555
Ce2 Cu0 3.453494 1_555
Ce2 Cu6 3.453494 1_545
Ce2 Cu4 3.453494 1_545
Ce2 Cu2 3.453494 1_545
Ce2 Cu1 3.453494 1_545
Al0 Cu6 2.533865 1_555
Al0 Cu4 2.533865 1_555
Al0 Al18 2.731643 1_565
Al0 Al8 2.731643 1_556
Al0 Al1 2.731643 1_556
Al0 Al23 2.731643 1_565
Al0 Al16 2.765470 1_565
Al0 Al5 2.765470 1_556
Al0 Ce2 3.159958 1_565
Al0 Ce0 3.159958 1_556
Al1 Al5 2.731643 1_555
Al1 Al21 2.731643 1_555
Al1 Al13 2.731643 1_554
Al1 Al19 2.734500 1_655
Al1 Al10 2.734500 1_565
Al1 Mn0 2.734500 1_665
Al1 Al18 2.734500 1_564
Al1 Al12 2.734500 1_654
Al1 Ce0 3.239285 1_555
Al2 Cu4 2.533865 1_555
Al2 Cu1 2.533865 1_555
Al2 Al23 2.731643 1_565
Al2 Al3 2.765470 1_565
Al2 Al9 2.765470 1_455
Al2 Ce1 3.159958 1_555
Al2 Ce2 3.159958 1_565
Al3 Cu3 2.533865 1_555
Al3 Cu0 2.533865 1_555
Al3 Al4 2.765470 1_455
Al3 Ce2 3.159958 1_555
Al3 Ce1 3.159958 1_555
Al4 Cu7 2.533865 1_555
Al4 Cu5 2.533865 1_555
Al4 Al9 2.765470 1_545
Al4 Ce2 3.159958 1_555
Al4 Ce1 3.159958 1_655
Al5 Cu2 2.533865 1_555
Al5 Cu1 2.533865 1_555
Al5 Al8 2.731643 1_555
Al5 Ce0 3.159958 1_555
Al5 Ce2 3.159958 1_565
Al6 Cu1 2.533865 1_555
Al6 Cu0 2.533865 1_555
Al6 Al8 2.731643 1_555
Al6 Al7 2.765470 1_554
Al6 Ce0 3.159958 1_555
Al6 Ce1 3.159958 1_555
Al7 Cu4 2.533865 1_555
Al7 Cu3 2.533865 1_555
Al7 Al8 2.731643 1_556
Al7 Ce1 3.159958 1_555
Al7 Ce0 3.159958 1_556
Al8 Mn0 2.734500 1_565
Al8 Ce0 3.239285 1_555
Al9 Cu6 2.533865 1_555
Al9 Cu2 2.533865 1_555
Al9 Ce2 3.159958 1_565
Al9 Ce1 3.159958 1_655
Al10 Al4 2.731643 1_555
Al10 Al11 2.731643 1_555
Al10 Al9 2.731643 1_545
Al10 Al5 2.731643 1_545
Al10 Mn0 2.734500 1_655
Al10 Al20 2.734500 1_555
Al10 Al14 2.734500 1_655
Al10 Al19 2.734500 1_645
Al10 Ce2 3.239285 1_555
Al11 Cu5 2.533865 1_555
Al11 Cu0 2.533865 1_555
Al11 Al20 2.731643 1_555
Al11 Al22 2.731643 1_555
Al11 Al17 2.731643 1_555
Al11 Al16 2.765470 1_554
Al11 Al5 2.765470 1_545
Al11 Ce2 3.159958 1_555
Al11 Ce0 3.159958 1_555
Al12 Al2 2.731643 1_555
Al12 Al7 2.731643 1_555
Al12 Al9 2.731643 1_455
Al12 Al13 2.731643 1_455
Al12 Al8 2.734500 1_556
Al12 Al23 2.734500 1_565
Al12 Mn0 2.734500 1_566
Al12 Al18 2.734500 1_465
Al12 Ce1 3.239285 1_555
Al13 Cu6 2.533865 1_555
Al13 Cu7 2.533865 1_555
Al13 Al20 2.731643 1_556
Al13 Al15 2.731643 1_655
Al13 Al7 2.765470 1_655
Al13 Al21 2.765470 1_556
Al13 Ce1 3.159958 1_655
Al13 Ce0 3.159958 1_556
Al14 Al3 2.731643 1_555
Al14 Al6 2.731643 1_555
Al14 Al21 2.731643 1_455
Al14 Al4 2.731643 1_455
Al14 Al20 2.734500 1_455
Al14 Al22 2.734500 1_555
Al14 Mn0 2.734500 1_555
Al14 Al17 2.734500 1_555
Al14 Ce1 3.239285 1_555
Al15 Al7 2.731643 1_555
Al15 Al3 2.731643 1_555
Al15 Al4 2.731643 1_455
Al15 Al22 2.734500 1_556
Al15 Al18 2.734500 1_455
Al15 Mn0 2.734500 1_556
Al15 Al23 2.734500 1_555
Al15 Al20 2.734500 1_456
Al15 Ce1 3.239285 1_555
Al16 Cu7 2.533865 1_555
Al16 Cu3 2.533865 1_555
Al16 Al23 2.731643 1_555
Al16 Al18 2.731643 1_555
Al16 Al20 2.731643 1_556
Al16 Al22 2.731643 1_556
Al16 Ce2 3.159958 1_555
Al16 Ce0 3.159958 1_556
Al17 Al3 2.731643 1_555
Al17 Al2 2.731643 1_545
Al17 Al5 2.731643 1_545
Al17 Al8 2.734500 1_545
Al17 Al19 2.734500 1_545
Al17 Al22 2.734500 1_555
Al17 Mn0 2.734500 1_555
Al17 Ce2 3.239285 1_555
Al18 Al4 2.731643 1_555
Al18 Al9 2.731643 1_545
Al18 Al20 2.734500 1_556
Al18 Mn0 2.734500 1_656
Al18 Ce2 3.239285 1_555
Al19 Al2 2.731643 1_555
Al19 Al6 2.731643 1_555
Al19 Al9 2.731643 1_455
Al19 Al21 2.731643 1_455
Al19 Mn0 2.734500 1_565
Al19 Al8 2.734500 1_555
Al19 Ce1 3.239285 1_555
Al20 Al21 2.731643 1_555
Al20 Mn0 2.734500 1_655
Al20 Ce0 3.239285 1_555
Al21 Cu2 2.533865 1_555
Al21 Cu5 2.533865 1_555
Al21 Al6 2.765470 1_655
Al21 Ce0 3.159958 1_555
Al21 Ce1 3.159958 1_655
Al22 Al6 2.731643 1_555
Al22 Al7 2.731643 1_554
Al22 Al23 2.734500 1_554
Al22 Mn0 2.734500 1_555
Al22 Ce0 3.239285 1_555
Al23 Al3 2.731643 1_555
Al23 Mn0 2.734500 1_556
Al23 Al8 2.734500 1_546
Al23 Ce2 3.239285 1_555
