# generated using pymatgen
data_DyFeGe2O7
_symmetry_space_group_name_H-M   'P 1'
_cell_length_a   8.68055800
_cell_length_b   6.74204800
_cell_length_c   9.81920087
_cell_angle_alpha   79.40372364
_cell_angle_beta   90.00000000
_cell_angle_gamma   90.00000000
_symmetry_Int_Tables_number   1
_chemical_formula_structural   DyFeGe2O7
_chemical_formula_sum   'Dy4 Fe4 Ge8 O28'
_cell_volume   564.86655645
_cell_formula_units_Z   4
loop_
 _symmetry_equiv_pos_site_id
 _symmetry_equiv_pos_as_xyz
  1  'x, y, z'
loop_
 _atom_site_type_symbol
 _atom_site_label
 _atom_site_symmetry_multiplicity
 _atom_site_fract_x
 _atom_site_fract_y
 _atom_site_fract_z
 _atom_site_occupancy
  Dy  Dy0  1  0.04261700  0.25011500  0.74739800  1
  Dy  Dy1  1  0.54261700  0.74988500  0.25260200  1
  Dy  Dy2  1  0.95738300  0.74988500  0.25260200  1
  Dy  Dy3  1  0.45738300  0.25011500  0.74739800  1
  Fe  Fe0  1  0.05514100  0.24856600  0.24858900  1
  Fe  Fe1  1  0.94485900  0.75143400  0.75141100  1
  Fe  Fe2  1  0.55514100  0.75143400  0.75141100  1
  Fe  Fe3  1  0.44485900  0.24856600  0.24858900  1
  Ge  Ge0  1  0.75000000  0.45393200  0.03328500  1
  Ge  Ge1  1  0.75000000  0.04821600  0.46939800  1
  Ge  Ge2  1  0.25000000  0.47739800  0.44601900  1
  Ge  Ge3  1  0.25000000  0.95178400  0.53060200  1
  Ge  Ge4  1  0.25000000  0.54606800  0.96671500  1
  Ge  Ge5  1  0.25000000  0.02048800  0.05024600  1
  Ge  Ge6  1  0.75000000  0.52260200  0.55398100  1
  Ge  Ge7  1  0.75000000  0.97951200  0.94975400  1
  O  O0  1  0.25000000  0.75064900  0.43421600  1
  O  O1  1  0.41463900  0.95781300  0.63822100  1
  O  O2  1  0.42667400  0.02773200  0.13995300  1
  O  O3  1  0.92726400  0.53239000  0.64061100  1
  O  O4  1  0.58573300  0.45965900  0.14112000  1
  O  O5  1  0.07332600  0.02773200  0.13995300  1
  O  O6  1  0.91463900  0.04218700  0.36177900  1
  O  O7  1  0.08573300  0.54034100  0.85888000  1
  O  O8  1  0.75000000  0.25296600  0.93825900  1
  O  O9  1  0.75000000  0.84900600  0.12077100  1
  O  O10  1  0.57332600  0.97226800  0.86004700  1
  O  O11  1  0.75000000  0.65669300  0.88609600  1
  O  O12  1  0.91426700  0.45965900  0.14112000  1
  O  O13  1  0.75000000  0.84905900  0.61897400  1
  O  O14  1  0.92667400  0.97226800  0.86004700  1
  O  O15  1  0.75000000  0.65653100  0.38403300  1
  O  O16  1  0.41426700  0.54034100  0.85888000  1
  O  O17  1  0.25000000  0.74703400  0.06174100  1
  O  O18  1  0.42726400  0.46761000  0.35938900  1
  O  O19  1  0.25000000  0.34330700  0.11390400  1
  O  O20  1  0.25000000  0.15099400  0.87922900  1
  O  O21  1  0.25000000  0.15094100  0.38102600  1
  O  O22  1  0.75000000  0.24935100  0.56578400  1
  O  O23  1  0.58536100  0.04218700  0.36177900  1
  O  O24  1  0.07273600  0.46761000  0.35938900  1
  O  O25  1  0.25000000  0.34346900  0.61596700  1
  O  O26  1  0.08536100  0.95781300  0.63822100  1
  O  O27  1  0.57273600  0.53239000  0.64061100  1
loop_
_geom_bond_atom_site_label_1
_geom_bond_atom_site_label_2
_geom_bond_distance
_geom_bond_site_symmetry_2
Dy0 O14 2.232374 1_445
Dy0 O3 2.233846 1_455
Dy0 O25 2.236882 1_555
Dy0 O20 2.246070 1_555
Dy0 O26 2.438775 1_545
Dy0 O7 2.440260 1_555
Dy1 O2 2.232374 1_565
Dy1 O18 2.233846 1_555
Dy1 O15 2.236882 1_555
Dy1 O9 2.246070 1_555
Dy1 O23 2.438775 1_565
Dy1 O4 2.440260 1_555
Dy2 O5 2.232374 1_665
Dy2 O24 2.233846 1_655
Dy2 O15 2.236882 1_555
Dy2 O9 2.246070 1_555
Dy2 O6 2.438775 1_565
Dy2 O12 2.440260 1_555
Dy3 O10 2.232374 1_545
Dy3 O27 2.233846 1_555
Dy3 O25 2.236882 1_555
Dy3 O20 2.246070 1_555
Dy3 O1 2.438775 1_545
Dy3 O16 2.440260 1_555
Fe0 O5 1.990893 1_555
Fe0 O24 1.994709 1_555
Fe0 O12 2.020427 1_455
Fe0 O6 2.022397 1_455
Fe0 O21 2.161170 1_555
Fe0 O19 2.169666 1_555
Fe1 O14 1.990893 1_555
Fe1 O3 1.994709 1_555
Fe1 O7 2.020427 1_655
Fe1 O26 2.022397 1_655
Fe1 O13 2.161170 1_555
Fe1 O11 2.169666 1_555
Fe2 O10 1.990893 1_555
Fe2 O27 1.994709 1_555
Fe2 O16 2.020427 1_555
Fe2 O1 2.022397 1_555
Fe2 O13 2.161170 1_555
Fe2 O11 2.169666 1_555
Fe3 O2 1.990893 1_555
Fe3 O18 1.994709 1_555
Fe3 O4 2.020427 1_555
Fe3 O23 2.022397 1_555
Fe3 O21 2.161170 1_555
Fe3 O19 2.169666 1_555
Ge0 O4 1.780722 1_555
Ge0 O12 1.780722 1_555
Ge0 O8 1.780846 1_554
Ge0 O11 1.797487 1_554
Ge1 O6 1.782309 1_555
Ge1 O23 1.782309 1_555
Ge1 O22 1.790712 1_555
Ge1 O13 1.798544 1_545
Ge2 O25 1.745251 1_555
Ge2 O18 1.765315 1_555
Ge2 O24 1.765315 1_555
Ge2 O0 1.824519 1_555
Ge2 O21 2.401710 1_555
Ge3 O1 1.782309 1_555
Ge3 O26 1.782309 1_555
Ge3 O0 1.790712 1_555
Ge3 O21 1.798544 1_565
Ge4 O7 1.780722 1_555
Ge4 O16 1.780722 1_555
Ge4 O17 1.780846 1_556
Ge4 O19 1.797487 1_556
Ge5 O20 1.746616 1_554
Ge5 O5 1.773731 1_555
Ge5 O2 1.773731 1_555
Ge5 O17 1.826257 1_545
Ge5 O19 2.372348 1_555
Ge6 O15 1.745251 1_555
Ge6 O27 1.765315 1_555
Ge6 O3 1.765315 1_555
Ge6 O22 1.824519 1_555
Ge6 O13 2.401710 1_555
Ge7 O9 1.746616 1_556
Ge7 O14 1.773731 1_555
Ge7 O10 1.773731 1_555
Ge7 O8 1.826257 1_565
Ge7 O11 2.372348 1_555
