# generated using pymatgen
data_Na3VSi4(HO6)2
_symmetry_space_group_name_H-M   'P 1'
_cell_length_a   7.60474200
_cell_length_b   8.78852759
_cell_length_c   9.22433509
_cell_angle_alpha   117.53566225
_cell_angle_beta   96.09645559
_cell_angle_gamma   88.45389058
_symmetry_Int_Tables_number   1
_chemical_formula_structural   Na3VSi4(HO6)2
_chemical_formula_sum   'Na6 V2 Si8 H4 O24'
_cell_volume   543.40545558
_cell_formula_units_Z   2
loop_
 _symmetry_equiv_pos_site_id
 _symmetry_equiv_pos_as_xyz
  1  'x, y, z'
loop_
 _atom_site_type_symbol
 _atom_site_label
 _atom_site_symmetry_multiplicity
 _atom_site_fract_x
 _atom_site_fract_y
 _atom_site_fract_z
 _atom_site_occupancy
  Na  Na0  1  0.14726200  0.73665400  0.87072700  1
  Na  Na1  1  0.85273800  0.26334600  0.12927300  1
  Na  Na2  1  0.34222400  0.85357500  0.57580300  1
  Na  Na3  1  0.65777600  0.14642500  0.42419700  1
  Na  Na4  1  0.36156100  0.39657300  0.17535800  1
  Na  Na5  1  0.63843900  0.60342700  0.82464200  1
  V  V0  1  0.00000000  0.50000000  0.00000000  1
  V  V1  1  0.50000000  0.00000000  0.00000000  1
  Si  Si0  1  0.22407000  0.29026800  0.68153400  1
  Si  Si1  1  0.77593000  0.70973200  0.31846600  1
  Si  Si2  1  0.11421100  0.09051500  0.84298000  1
  Si  Si3  1  0.88578900  0.90948500  0.15702000  1
  Si  Si4  1  0.39782000  0.74545700  0.16714100  1
  Si  Si5  1  0.60218000  0.25454300  0.83285900  1
  Si  Si6  1  0.26491400  0.09175700  0.30744800  1
  Si  Si7  1  0.73508600  0.90824300  0.69255200  1
  H  H0  1  0.09417800  0.56964500  0.36219700  1
  H  H1  1  0.90582200  0.43035500  0.63780300  1
  H  H2  1  0.19583800  0.48374900  0.46534900  1
  H  H3  1  0.80416200  0.51625100  0.53465100  1
  O  O0  1  0.22993100  0.25045400  0.48891800  1
  O  O1  1  0.77006900  0.74954600  0.51108200  1
  O  O2  1  0.09449600  0.27831700  0.99555600  1
  O  O3  1  0.90550400  0.72168300  0.00444400  1
  O  O4  1  0.39625100  0.16135900  0.22532900  1
  O  O5  1  0.60374900  0.83864100  0.77467100  1
  O  O6  1  0.44133000  0.78626500  0.01993600  1
  O  O7  1  0.55867000  0.21373500  0.98006400  1
  O  O8  1  0.09219800  0.44573100  0.76794200  1
  O  O9  1  0.90780200  0.55426900  0.23205800  1
  O  O10  1  0.43123200  0.33741500  0.76691600  1
  O  O11  1  0.56876800  0.66258500  0.23308400  1
  O  O12  1  0.26588100  0.96752600  0.86312800  1
  O  O13  1  0.73411900  0.03247400  0.13687200  1
  O  O14  1  0.92811000  0.97674000  0.79878900  1
  O  O15  1  0.07189000  0.02326000  0.20121100  1
  O  O16  1  0.15820100  0.11024200  0.67773600  1
  O  O17  1  0.84179900  0.88975800  0.32226400  1
  O  O18  1  0.36056100  0.93165200  0.33491200  1
  O  O19  1  0.63943900  0.06834800  0.66508800  1
  O  O20  1  0.23275200  0.61496900  0.11828700  1
  O  O21  1  0.76724800  0.38503100  0.88171300  1
  O  O22  1  0.20642100  0.57477000  0.43348900  1
  O  O23  1  0.79357900  0.42523000  0.56651100  1
loop_
_geom_bond_atom_site_label_1
_geom_bond_atom_site_label_2
_geom_bond_distance
_geom_bond_site_symmetry_2
Na0 O12 2.275804 1_555
Na0 O8 2.311604 1_555
Na0 O3 2.358728 1_456
Na0 O6 2.435063 1_556
Na1 O13 2.275804 1_555
Na1 O9 2.311604 1_555
Na1 O2 2.358728 1_654
Na1 O7 2.435063 1_554
Na2 O22 2.380815 1_555
Na2 O16 2.465549 1_565
Na2 O12 2.491153 1_555
Na2 O5 2.602188 1_555
Na2 O18 2.628420 1_555
Na2 O19 2.783394 1_565
Na3 O23 2.380815 1_555
Na3 O17 2.465549 1_545
Na3 O13 2.491153 1_555
Na3 O4 2.602188 1_555
Na3 O19 2.628420 1_555
Na3 O18 2.783394 1_545
Na4 O4 2.319717 1_555
Na4 O20 2.375702 1_555
Na4 O2 2.400084 1_554
Na4 O7 2.416881 1_554
Na4 O22 2.561892 1_555
Na4 O11 2.664896 1_555
Na5 O5 2.319717 1_555
Na5 O21 2.375702 1_555
Na5 O3 2.400084 1_556
Na5 O6 2.416881 1_556
Na5 O23 2.561892 1_555
Na5 O10 2.664896 1_555
H0 O22 1.009232 1_555
H0 O9 1.722539 1_455
H1 O23 1.009232 1_555
H1 O8 1.722539 1_655
H2 O22 0.979090 1_555
H3 O23 0.979090 1_555
O0 Si0 1.649980 1_555
O0 Si6 1.653484 1_555
O1 Si1 1.649980 1_555
O1 Si7 1.653484 1_555
O2 Si2 1.615897 1_555
O2 V0 2.042229 1_556
O3 Si3 1.615897 1_555
O3 V0 2.042229 1_655
O4 Si6 1.602383 1_555
O4 V1 2.125175 1_555
O5 Si7 1.602383 1_555
O5 V1 2.125175 1_566
O6 Si4 1.622966 1_555
O6 V1 2.035528 1_565
O7 Si5 1.622966 1_555
O7 V1 2.035528 1_556
O8 Si0 1.611429 1_555
O8 V0 2.158227 1_556
O9 Si1 1.611429 1_555
O9 V0 2.158227 1_655
O10 Si0 1.656460 1_555
O10 Si5 1.667652 1_555
O11 Si1 1.656460 1_555
O11 Si4 1.667652 1_555
O12 Si2 1.614360 1_565
O12 V1 2.015482 1_566
O13 Si3 1.614360 1_545
O13 V1 2.015482 1_555
O14 Si7 1.635280 1_555
O14 Si2 1.657072 1_665
O15 Si6 1.635280 1_555
O15 Si3 1.657072 1_445
O16 Si0 1.656254 1_555
O16 Si2 1.679623 1_555
O17 Si1 1.656254 1_555
O17 Si3 1.679623 1_555
O18 Si6 1.675817 1_565
O18 Si4 1.696954 1_555
O19 Si7 1.675817 1_545
O19 Si5 1.696954 1_555
O20 Si4 1.604274 1_555
O20 V0 2.002841 1_555
O21 Si5 1.604274 1_555
O21 V0 2.002841 1_656
