# generated using pymatgen
data_TaTiAl
_symmetry_space_group_name_H-M   'P 1'
_cell_length_a   4.48849889
_cell_length_b   4.48849889
_cell_length_c   4.48849889
_cell_angle_alpha   60.00000000
_cell_angle_beta   60.00000000
_cell_angle_gamma   60.00000000
_symmetry_Int_Tables_number   1
_chemical_formula_structural   TaTiAl
_chemical_formula_sum   'Ta1 Ti1 Al1'
_cell_volume   63.94231675
_cell_formula_units_Z   1
loop_
 _symmetry_equiv_pos_site_id
 _symmetry_equiv_pos_as_xyz
  1  'x, y, z'
loop_
 _atom_site_type_symbol
 _atom_site_label
 _atom_site_symmetry_multiplicity
 _atom_site_fract_x
 _atom_site_fract_y
 _atom_site_fract_z
 _atom_site_occupancy
  Ta  Ta0  1  0.25000000  0.25000000  0.25000000  1
  Ti  Ti0  1  0.00000000  0.00000000  0.00000000  1
  Al  Al0  1  0.50000000  0.50000000  0.50000000  1
loop_
_geom_bond_atom_site_label_1
_geom_bond_atom_site_label_2
_geom_bond_distance
_geom_bond_site_symmetry_2
Ta0 Ti0 2.748633 1_565
Ta0 Ti0 2.748633 1_555
Ta0 Ti0 2.748633 1_556
Ta0 Ti0 2.748633 1_655
Al0 Ta0 2.748633 1_565
Al0 Ta0 2.748633 1_556
Al0 Ta0 2.748633 1_555
Al0 Ta0 2.748633 1_655
Al0 Ti0 3.173848 1_556
Al0 Ti0 3.173848 1_566
Al0 Ti0 3.173848 1_565
Al0 Ti0 3.173848 1_655
Al0 Ti0 3.173848 1_665
Al0 Ti0 3.173848 1_656
