# generated using pymatgen
data_Na2ZnP2O7
_symmetry_space_group_name_H-M   'P 1'
_cell_length_a   7.83377800
_cell_length_b   7.83377800
_cell_length_c   10.42038200
_cell_angle_alpha   90.00000000
_cell_angle_beta   90.00000000
_cell_angle_gamma   90.00000000
_symmetry_Int_Tables_number   1
_chemical_formula_structural   Na2ZnP2O7
_chemical_formula_sum   'Na8 Zn4 P8 O28'
_cell_volume   639.47881279
_cell_formula_units_Z   4
loop_
 _symmetry_equiv_pos_site_id
 _symmetry_equiv_pos_as_xyz
  1  'x, y, z'
loop_
 _atom_site_type_symbol
 _atom_site_label
 _atom_site_symmetry_multiplicity
 _atom_site_fract_x
 _atom_site_fract_y
 _atom_site_fract_z
 _atom_site_occupancy
  Na  Na0  1  0.80607800  0.19392200  0.50000000  1
  Na  Na1  1  0.64592900  0.64592900  0.50000000  1
  Na  Na2  1  0.14592900  0.85407100  0.00000000  1
  Na  Na3  1  0.19392200  0.80607800  0.50000000  1
  Na  Na4  1  0.85407100  0.14592900  0.00000000  1
  Na  Na5  1  0.69392200  0.69392200  0.00000000  1
  Na  Na6  1  0.30607800  0.30607800  0.00000000  1
  Na  Na7  1  0.35407100  0.35407100  0.50000000  1
  Zn  Zn0  1  0.50000000  0.00000000  0.25000000  1
  Zn  Zn1  1  0.00000000  0.50000000  0.25000000  1
  Zn  Zn2  1  0.00000000  0.50000000  0.75000000  1
  Zn  Zn3  1  0.50000000  0.00000000  0.75000000  1
  P  P0  1  0.36191000  0.63809000  0.78867800  1
  P  P1  1  0.63809000  0.36191000  0.78867800  1
  P  P2  1  0.86191000  0.86191000  0.71132200  1
  P  P3  1  0.36191000  0.63809000  0.21132200  1
  P  P4  1  0.86191000  0.86191000  0.28867800  1
  P  P5  1  0.13809000  0.13809000  0.71132200  1
  P  P6  1  0.13809000  0.13809000  0.28867800  1
  P  P7  1  0.63809000  0.36191000  0.21132200  1
  O  O0  1  0.08045600  0.30602900  0.35319000  1
  O  O1  1  0.91954400  0.69397100  0.35319000  1
  O  O2  1  0.30602900  0.08045600  0.64681000  1
  O  O3  1  0.80602900  0.41954400  0.85319000  1
  O  O4  1  0.19397100  0.58045600  0.85319000  1
  O  O5  1  0.41954400  0.80602900  0.14681000  1
  O  O6  1  0.58045600  0.19397100  0.14681000  1
  O  O7  1  0.69397100  0.91954400  0.64681000  1
  O  O8  1  0.91954400  0.69397100  0.64681000  1
  O  O9  1  0.08045600  0.30602900  0.64681000  1
  O  O10  1  0.69397100  0.91954400  0.35319000  1
  O  O11  1  0.19397100  0.58045600  0.14681000  1
  O  O12  1  0.80602900  0.41954400  0.14681000  1
  O  O13  1  0.58045600  0.19397100  0.85319000  1
  O  O14  1  0.41954400  0.80602900  0.85319000  1
  O  O15  1  0.30602900  0.08045600  0.35319000  1
  O  O16  1  0.86350400  0.86350400  0.85651900  1
  O  O17  1  0.13649600  0.13649600  0.85651900  1
  O  O18  1  0.86350400  0.86350400  0.14348100  1
  O  O19  1  0.36350400  0.63649600  0.35651900  1
  O  O20  1  0.00000000  0.00000000  0.34540600  1
  O  O21  1  0.50000000  0.50000000  0.84540600  1
  O  O22  1  0.50000000  0.50000000  0.15459400  1
  O  O23  1  0.00000000  0.00000000  0.65459400  1
  O  O24  1  0.13649600  0.13649600  0.14348100  1
  O  O25  1  0.36350400  0.63649600  0.64348100  1
  O  O26  1  0.63649600  0.36350400  0.64348100  1
  O  O27  1  0.63649600  0.36350400  0.35651900  1
loop_
_geom_bond_atom_site_label_1
_geom_bond_atom_site_label_2
_geom_bond_distance
_geom_bond_site_symmetry_2
Na0 O26 2.401053 1_555
Na0 O27 2.401053 1_555
Na0 O23 2.685270 1_655
Na0 O20 2.685270 1_655
Na0 O10 2.780576 1_545
Na0 O7 2.780576 1_545
Na0 O0 2.780576 1_655
Na0 O9 2.780576 1_655
Na1 O1 2.660133 1_555
Na1 O10 2.660133 1_555
Na1 O7 2.660133 1_555
Na1 O8 2.660133 1_555
Na1 O26 2.671296 1_555
Na1 O27 2.671296 1_555
Na1 O25 2.671296 1_555
Na1 O19 2.671296 1_555
Na2 O4 2.660133 1_554
Na2 O11 2.660133 1_555
Na2 O14 2.660133 1_554
Na2 O5 2.660133 1_555
Na2 O18 2.671296 1_455
Na2 O24 2.671296 1_565
Na2 O16 2.671296 1_454
Na2 O17 2.671296 1_564
Na3 O25 2.401053 1_555
Na3 O19 2.401053 1_555
Na3 O23 2.685270 1_565
Na3 O20 2.685270 1_565
Na3 O1 2.780576 1_455
Na3 O8 2.780576 1_455
Na3 O15 2.780576 1_565
Na3 O2 2.780576 1_565
Na4 O13 2.660133 1_554
Na4 O6 2.660133 1_555
Na4 O3 2.660133 1_554
Na4 O12 2.660133 1_555
Na4 O24 2.671296 1_655
Na4 O18 2.671296 1_545
Na4 O17 2.671296 1_654
Na4 O16 2.671296 1_544
Na5 O18 2.401053 1_555
Na5 O16 2.401053 1_554
Na5 O22 2.685270 1_555
Na5 O21 2.685270 1_554
Na5 O3 2.780576 1_554
Na5 O14 2.780576 1_554
Na5 O12 2.780576 1_555
Na5 O5 2.780576 1_555
Na6 O24 2.401053 1_555
Na6 O17 2.401053 1_554
Na6 O22 2.685270 1_555
Na6 O21 2.685270 1_554
Na6 O13 2.780576 1_554
Na6 O4 2.780576 1_554
Na6 O11 2.780576 1_555
Na6 O6 2.780576 1_555
Na7 O0 2.660133 1_555
Na7 O15 2.660133 1_555
Na7 O2 2.660133 1_555
Na7 O9 2.660133 1_555
Na7 O26 2.671296 1_555
Na7 O25 2.671296 1_555
Na7 O27 2.671296 1_555
Na7 O19 2.671296 1_555
O0 P6 1.544845 1_555
O0 Zn1 1.965307 1_555
O1 P4 1.544845 1_555
O1 Zn1 1.965307 1_655
O2 P5 1.544845 1_555
O2 Zn3 1.965307 1_555
O3 P1 1.544845 1_555
O3 Zn2 1.965307 1_655
O4 P0 1.544845 1_555
O4 Zn2 1.965307 1_555
O5 P3 1.544845 1_555
O5 Zn0 1.965307 1_565
O6 P7 1.544845 1_555
O6 Zn0 1.965307 1_555
O7 P2 1.544845 1_555
O7 Zn3 1.965307 1_565
O8 P2 1.544845 1_555
O8 Zn2 1.965307 1_655
O9 P5 1.544845 1_555
O9 Zn2 1.965307 1_555
O10 P4 1.544845 1_555
O10 Zn0 1.965307 1_565
O11 P3 1.544845 1_555
O11 Zn1 1.965307 1_555
O12 P7 1.544845 1_555
O12 Zn1 1.965307 1_655
O13 P1 1.544845 1_555
O13 Zn3 1.965307 1_555
O14 P0 1.544845 1_555
O14 Zn3 1.965307 1_565
O15 P6 1.544845 1_555
O15 Zn0 1.965307 1_555
O16 P2 1.513111 1_555
O17 P5 1.513111 1_555
O18 P4 1.513111 1_555
O19 P3 1.513111 1_555
O20 P4 1.640082 1_445
O20 P6 1.640082 1_555
O21 P1 1.640082 1_555
O21 P0 1.640082 1_555
O22 P3 1.640082 1_555
O22 P7 1.640082 1_555
O23 P2 1.640082 1_445
O23 P5 1.640082 1_555
O24 P6 1.513111 1_555
O25 P0 1.513111 1_555
O26 P1 1.513111 1_555
O27 P7 1.513111 1_555
