# generated using pymatgen
data_Mg4Al3(HO)17
_symmetry_space_group_name_H-M   'P 1'
_cell_length_a   3.03599500
_cell_length_b   7.17337068
_cell_length_c   18.56360278
_cell_angle_alpha   95.51891660
_cell_angle_beta   94.51798339
_cell_angle_gamma   101.95289907
_symmetry_Int_Tables_number   1
_chemical_formula_structural   Mg4Al3(HO)17
_chemical_formula_sum   'Mg4 Al3 H17 O17'
_cell_volume   391.65795160
_cell_formula_units_Z   1
loop_
 _symmetry_equiv_pos_site_id
 _symmetry_equiv_pos_as_xyz
  1  'x, y, z'
loop_
 _atom_site_type_symbol
 _atom_site_label
 _atom_site_symmetry_multiplicity
 _atom_site_fract_x
 _atom_site_fract_y
 _atom_site_fract_z
 _atom_site_occupancy
  Mg  Mg0  1  0.56937300  0.00299800  0.13685800  1
  Mg  Mg1  1  0.14247300  0.99958300  0.28424600  1
  Mg  Mg2  1  0.71700600  0.00081700  0.43235700  1
  Mg  Mg3  1  0.29037900  0.99817900  0.57819000  1
  Al  Al0  1  0.98538600  0.99680900  0.98696400  1
  Al  Al1  1  0.85502900  0.98738500  0.71599000  1
  Al  Al2  1  0.41670000  0.99224600  0.85216000  1
  H  H0  1  0.65373300  0.28654100  0.03691800  1
  H  H1  1  0.88263000  0.72549700  0.05633900  1
  H  H2  1  0.24265800  0.28764500  0.20237800  1
  H  H3  1  0.46787000  0.71082400  0.22418900  1
  H  H4  1  0.81820200  0.28966700  0.35095200  1
  H  H5  1  0.04385200  0.71265700  0.37470400  1
  H  H6  1  0.37682600  0.29053600  0.49991800  1
  H  H7  1  0.50303700  0.50569200  0.61605800  1
  H  H8  1  0.59513600  0.71068400  0.52523500  1
  H  H9  1  0.98353000  0.28677300  0.64018700  1
  H  H10  1  0.04640600  0.51480200  0.74704900  1
  H  H11  1  0.22613300  0.66339900  0.64196400  1
  H  H12  1  0.54789300  0.28938600  0.77608700  1
  H  H13  1  0.63531900  0.50875500  0.89154000  1
  H  H14  1  0.79422100  0.66029900  0.78809400  1
  H  H15  1  0.12811700  0.29571900  0.91813700  1
  H  H16  1  0.38755300  0.64756600  0.93398700  1
  O  O0  1  0.58962100  0.15019900  0.04118900  1
  O  O1  1  0.96578800  0.86332500  0.07106400  1
  O  O2  1  0.16910800  0.15017500  0.19034300  1
  O  O3  1  0.53744800  0.84826900  0.22354300  1
  O  O4  1  0.74428600  0.15203000  0.33812000  1
  O  O5  1  0.11380700  0.84984200  0.37292200  1
  O  O6  1  0.31819400  0.15295700  0.48727900  1
  O  O7  1  0.69059900  0.84670900  0.52116600  1
  O  O8  1  0.88926500  0.14662000  0.63923000  1
  O  O9  1  0.19119200  0.52377300  0.61395400  1
  O  O10  1  0.27495300  0.86199500  0.67514400  1
  O  O11  1  0.44483900  0.14676000  0.77427900  1
  O  O12  1  0.79129700  0.51637600  0.77626400  1
  O  O13  1  0.83672100  0.87499900  0.80689300  1
  O  O14  1  0.01235300  0.15240800  0.90946000  1
  O  O15  1  0.46258100  0.51546600  0.93378100  1
  O  O16  1  0.40048600  0.87518500  0.93982100  1
loop_
_geom_bond_atom_site_label_1
_geom_bond_atom_site_label_2
_geom_bond_distance
_geom_bond_site_symmetry_2
Mg0 O2 2.024108 1_555
Mg0 O2 2.032982 1_655
Mg0 O3 2.038229 1_545
Mg0 O1 2.107066 1_545
Mg0 O1 2.122523 1_445
Mg0 O0 2.150307 1_555
Mg1 O4 2.045772 1_465
Mg1 O5 2.048200 1_555
Mg1 O4 2.051463 1_565
Mg1 O3 2.098257 1_555
Mg1 O3 2.105896 1_455
Mg1 O2 2.135506 1_565
Mg2 O6 2.055325 1_555
Mg2 O6 2.056604 1_655
Mg2 O7 2.069082 1_545
Mg2 O5 2.088413 1_645
Mg2 O5 2.091468 1_545
Mg2 O4 2.143451 1_555
Mg3 O7 2.067001 1_455
Mg3 O7 2.075044 1_555
Mg3 O8 2.089283 1_565
Mg3 O8 2.103148 1_465
Mg3 O6 2.105231 1_565
Mg3 O10 2.128000 1_555
Al0 O16 1.896730 1_655
Al0 O14 1.900564 1_665
Al0 O1 1.906915 1_556
Al0 O16 1.909694 1_555
Al0 O0 2.047634 1_566
Al0 O0 2.061346 1_666
Al1 O10 1.867560 1_555
Al1 O10 1.872277 1_655
Al1 O8 1.906104 1_565
Al1 O13 1.938693 1_555
Al1 O11 2.071994 1_665
Al1 O11 2.143085 1_565
Al2 O13 1.875292 1_555
Al2 O13 1.879227 1_455
Al2 O16 1.901056 1_555
Al2 O11 1.901179 1_565
Al2 O14 2.079185 1_665
Al2 O14 2.124445 1_565
H0 O0 0.969129 1_555
H1 O1 0.974536 1_555
H2 O2 0.964763 1_555
H3 O3 0.966052 1_555
H4 O4 0.967714 1_555
H5 O5 0.967165 1_555
H6 O6 0.967900 1_555
H7 O9 0.980161 1_555
H8 O7 0.970718 1_555
H9 O8 0.984668 1_555
H10 O12 0.981193 1_455
H11 O9 1.063920 1_555
H11 O10 1.469768 1_555
H12 O11 1.002456 1_555
H12 O12 1.642431 1_555
H13 O15 0.979905 1_555
H14 O12 1.032700 1_555
H14 O13 1.522374 1_555
H15 O14 1.007904 1_555
H16 O15 1.019166 1_555
H16 O16 1.618040 1_555
