# generated using pymatgen
data_NaTaNi
_symmetry_space_group_name_H-M   'P 1'
_cell_length_a   4.26750545
_cell_length_b   4.26750545
_cell_length_c   4.26750545
_cell_angle_alpha   60.00000000
_cell_angle_beta   60.00000000
_cell_angle_gamma   60.00000000
_symmetry_Int_Tables_number   1
_chemical_formula_structural   NaTaNi
_chemical_formula_sum   'Na1 Ta1 Ni1'
_cell_volume   54.95500534
_cell_formula_units_Z   1
loop_
 _symmetry_equiv_pos_site_id
 _symmetry_equiv_pos_as_xyz
  1  'x, y, z'
loop_
 _atom_site_type_symbol
 _atom_site_label
 _atom_site_symmetry_multiplicity
 _atom_site_fract_x
 _atom_site_fract_y
 _atom_site_fract_z
 _atom_site_occupancy
  Na  Na0  1  0.00000000  -0.00000000  0.00000000  1
  Ta  Ta0  1  0.75000000  0.75000000  0.75000000  1
  Ni  Ni0  1  0.50000000  0.50000000  0.50000000  1
loop_
_geom_bond_atom_site_label_1
_geom_bond_atom_site_label_2
_geom_bond_distance
_geom_bond_site_symmetry_2
Na0 Ta0 2.613303 1_444
Na0 Ta0 2.613303 1_445
Na0 Ta0 2.613303 1_544
Na0 Ta0 2.613303 1_454
Na0 Ni0 3.017582 1_455
Na0 Ni0 3.017582 1_454
Na0 Ni0 3.017582 1_544
Na0 Ni0 3.017582 1_445
Na0 Ni0 3.017582 1_545
Na0 Ni0 3.017582 1_554
Ni0 Ta0 2.613303 1_554
Ni0 Ta0 2.613303 1_555
Ni0 Ta0 2.613303 1_455
Ni0 Ta0 2.613303 1_545
