# generated using pymatgen
data_Np2InPt2
_symmetry_space_group_name_H-M   'P 1'
_cell_length_a   7.77545231
_cell_length_b   7.77545231
_cell_length_c   3.75681276
_cell_angle_alpha   90.00000000
_cell_angle_beta   90.00000000
_cell_angle_gamma   89.99564194
_symmetry_Int_Tables_number   1
_chemical_formula_structural   Np2InPt2
_chemical_formula_sum   'Np4 In2 Pt4'
_cell_volume   227.12810245
_cell_formula_units_Z   2
loop_
 _symmetry_equiv_pos_site_id
 _symmetry_equiv_pos_as_xyz
  1  'x, y, z'
loop_
 _atom_site_type_symbol
 _atom_site_label
 _atom_site_symmetry_multiplicity
 _atom_site_fract_x
 _atom_site_fract_y
 _atom_site_fract_z
 _atom_site_occupancy
  Np  Np0  1  0.17242601  0.67242601  0.50000000  1
  Np  Np1  1  0.32760199  0.17239801  0.50000000  1
  Np  Np2  1  0.67239801  0.82760199  0.50000000  1
  Np  Np3  1  0.82757399  0.32757399  0.50000000  1
  In  In0  1  -0.00000000  -0.00000000  -0.00000000  1
  In  In1  1  0.50000000  0.50000000  -0.00000000  1
  Pt  Pt0  1  0.87017478  0.62982522  -0.00000000  1
  Pt  Pt1  1  0.37022815  0.87022815  0.00000000  1
  Pt  Pt2  1  0.62977185  0.12977185  0.00000000  1
  Pt  Pt3  1  0.12982522  0.37017478  -0.00000000  1
loop_
_geom_bond_atom_site_label_1
_geom_bond_atom_site_label_2
_geom_bond_distance
_geom_bond_site_symmetry_2
Np0 Pt1 2.873963 1_555
Np0 Pt1 2.873963 1_556
Np0 Pt0 3.026782 1_455
Np0 Pt0 3.026782 1_456
Np0 Pt3 3.026782 1_555
Np0 Pt3 3.026782 1_556
Np1 Pt3 2.873627 1_555
Np1 Pt3 2.873627 1_556
Np1 Pt1 3.026273 1_546
Np1 Pt2 3.026273 1_555
Np1 Pt2 3.026273 1_556
Np1 Pt1 3.026273 1_545
Np2 Pt0 2.873627 1_556
Np2 Pt0 2.873627 1_555
Np2 Pt1 3.026273 1_555
Np2 Pt1 3.026273 1_556
Np2 Pt2 3.026273 1_566
Np2 Pt2 3.026273 1_565
Np3 Pt2 2.873963 1_555
Np3 Pt2 2.873963 1_556
Np3 Pt0 3.026782 1_556
Np3 Pt0 3.026782 1_555
Np3 Pt3 3.026782 1_656
Np3 Pt3 3.026782 1_655
In0 Pt3 3.050230 1_555
In0 Pt0 3.050230 1_445
In0 Pt2 3.050340 1_455
In0 Pt1 3.050340 1_545
In0 Np0 3.436966 1_545
In0 Np0 3.436966 1_544
In0 Np3 3.436966 1_455
In0 Np3 3.436966 1_454
In0 Np2 3.437193 1_445
In0 Np1 3.437193 1_554
In0 Np2 3.437193 1_444
In0 Np1 3.437193 1_555
In1 Pt3 3.050230 1_555
In1 Pt0 3.050230 1_555
In1 Pt1 3.050340 1_555
In1 Pt2 3.050340 1_555
In1 Np0 3.436966 1_555
In1 Np3 3.436966 1_555
In1 Np0 3.436966 1_554
In1 Np3 3.436966 1_554
In1 Np2 3.437193 1_555
In1 Np1 3.437193 1_554
In1 Np2 3.437193 1_554
In1 Np1 3.437193 1_555
Pt0 Pt3 2.855047 1_655
Pt1 Pt2 2.854090 1_565
