# generated using pymatgen
data_Sr6La4Mg2Ru3O20
_symmetry_space_group_name_H-M   'P 1'
_cell_length_a   3.95834000
_cell_length_b   6.03314407
_cell_length_c   23.74778933
_cell_angle_alpha   86.03520282
_cell_angle_beta   85.58780482
_cell_angle_gamma   75.24189044
_symmetry_Int_Tables_number   1
_chemical_formula_structural   Sr6La4Mg2Ru3O20
_chemical_formula_sum   'Sr6 La4 Mg2 Ru3 O20'
_cell_volume   546.06923282
_cell_formula_units_Z   1
loop_
 _symmetry_equiv_pos_site_id
 _symmetry_equiv_pos_as_xyz
  1  'x, y, z'
loop_
 _atom_site_type_symbol
 _atom_site_label
 _atom_site_symmetry_multiplicity
 _atom_site_fract_x
 _atom_site_fract_y
 _atom_site_fract_z
 _atom_site_occupancy
  Sr  Sr0  1  0.16648400  0.66984200  0.93589900  1
  Sr  Sr1  1  0.09914300  0.77718700  0.12533800  1
  Sr  Sr2  1  0.86593700  0.14846500  0.33317800  1
  Sr  Sr3  1  0.90085700  0.22281300  0.87466200  1
  Sr  Sr4  1  0.83351600  0.33015800  0.06410100  1
  Sr  Sr5  1  0.13406300  0.85153500  0.66682200  1
  La  La0  1  0.36467400  0.75525300  0.51352100  1
  La  La1  1  0.41889900  0.28729100  0.73757600  1
  La  La2  1  0.58110100  0.71270900  0.26242400  1
  La  La3  1  0.63532600  0.24474700  0.48647900  1
  Mg  Mg0  1  0.96325300  0.36577400  0.59803000  1
  Mg  Mg1  1  0.03674700  0.63422600  0.40197000  1
  Ru  Ru0  1  0.65437800  0.75789800  0.80330100  1
  Ru  Ru1  1  0.50000000  0.00000000  0.00000000  1
  Ru  Ru2  1  0.34562200  0.24210200  0.19669900  1
  O  O0  1  0.48662000  0.08344100  0.82548800  1
  O  O1  1  0.51338000  0.91655900  0.17451200  1
  O  O2  1  0.17431900  0.56114500  0.21814700  1
  O  O3  1  0.00000000  0.50000000  0.50000000  1
  O  O4  1  0.82568100  0.43885500  0.78185300  1
  O  O5  1  0.69406700  0.64156400  0.88271100  1
  O  O6  1  0.60662900  0.72253600  0.04746100  1
  O  O7  1  0.39662600  0.11757500  0.28035300  1
  O  O8  1  0.95583200  0.93949400  0.44132700  1
  O  O9  1  0.96732900  0.25586900  0.67589000  1
  O  O10  1  0.15382500  0.75979100  0.80100300  1
  O  O11  1  0.00000000  0.00000000  0.00000000  1
  O  O12  1  0.84617500  0.24020900  0.19899700  1
  O  O13  1  0.58374400  0.48218000  0.40841500  1
  O  O14  1  0.41625600  0.51782000  0.59158500  1
  O  O15  1  0.39337100  0.27746400  0.95253900  1
  O  O16  1  0.30593300  0.35843600  0.11728900  1
  O  O17  1  0.03267100  0.74413100  0.32411000  1
  O  O18  1  0.04416800  0.06050600  0.55867300  1
  O  O19  1  0.60337400  0.88242500  0.71964700  1
loop_
_geom_bond_atom_site_label_1
_geom_bond_atom_site_label_2
_geom_bond_distance
_geom_bond_site_symmetry_2
La0 O18 2.241496 1_565
La0 O14 2.252199 1_555
La0 O3 2.414660 1_555
La0 O8 2.457799 1_455
La0 O3 2.601936 1_655
La0 O8 3.177243 1_555
La1 O0 2.346495 1_555
La1 O4 2.382863 1_555
La1 O19 2.422421 1_545
La1 O9 2.447623 1_455
La1 O4 2.472798 1_455
La1 O9 2.496799 1_555
La2 O1 2.346495 1_555
La2 O2 2.382863 1_555
La2 O7 2.422421 1_565
La2 O17 2.447623 1_655
La2 O2 2.472798 1_655
La2 O17 2.496799 1_555
La3 O8 2.241496 1_545
La3 O13 2.252199 1_555
La3 O3 2.414660 1_655
La3 O18 2.457799 1_655
La3 O3 2.601936 1_555
La3 O18 3.177243 1_555
Mg0 O9 1.920504 1_555
Mg0 O18 2.063866 1_655
Mg0 O14 2.138375 1_555
Mg0 O14 2.203776 1_655
Mg0 O3 2.417378 1_655
Mg1 O17 1.920504 1_555
Mg1 O8 2.063866 1_455
Mg1 O13 2.138375 1_555
Mg1 O13 2.203776 1_455
Mg1 O3 2.417378 1_555
O0 Ru0 2.000214 1_545
O0 Sr3 2.427375 1_555
O0 Sr3 2.484501 1_455
O1 Ru2 2.000214 1_565
O1 Sr1 2.427375 1_555
O1 Sr1 2.484501 1_655
O2 Ru2 1.960018 1_555
O2 Sr1 2.480147 1_555
O4 Ru0 1.960018 1_555
O4 Sr3 2.480147 1_555
O5 Ru0 1.969759 1_555
O5 Sr0 2.329842 1_555
O5 Sr0 2.382673 1_655
O5 Sr3 2.465421 1_555
O6 Ru1 1.924321 1_565
O6 Sr4 2.325680 1_555
O6 Sr1 2.596068 1_555
O6 Sr1 2.880327 1_655
O7 Ru2 2.080818 1_555
O7 Sr2 2.334219 1_455
O7 Sr2 2.372076 1_555
O8 Sr2 2.788648 1_565
O9 Sr5 2.379745 1_645
O10 Ru0 1.976456 1_455
O10 Ru0 1.983410 1_555
O11 Ru1 1.979170 1_555
O11 Ru1 1.979170 1_455
O11 Sr0 2.513040 1_544
O11 Sr4 2.513040 1_455
O12 Ru2 1.976456 1_655
O12 Ru2 1.983410 1_555
O13 Sr2 2.745586 1_555
O14 Sr5 2.745586 1_555
O15 Ru1 1.924321 1_556
O15 Sr0 2.325680 1_555
O15 Sr3 2.596068 1_555
O15 Sr3 2.880327 1_455
O16 Ru2 1.969759 1_555
O16 Sr4 2.329842 1_555
O16 Sr4 2.382673 1_455
O16 Sr1 2.465421 1_555
O17 Sr2 2.379745 1_465
O18 Sr5 2.788648 1_545
O19 Ru0 2.080818 1_555
O19 Sr5 2.334219 1_655
O19 Sr5 2.372076 1_555
