# generated using pymatgen
data_Y4CuTe8
_symmetry_space_group_name_H-M   'P 1'
_cell_length_a   6.10247600
_cell_length_b   11.22346000
_cell_length_c   15.39983874
_cell_angle_alpha   46.97457281
_cell_angle_beta   90.00000000
_cell_angle_gamma   90.00000000
_symmetry_Int_Tables_number   1
_chemical_formula_structural   Y4CuTe8
_chemical_formula_sum   'Y8 Cu2 Te16'
_cell_volume   771.07508803
_cell_formula_units_Z   2
loop_
 _symmetry_equiv_pos_site_id
 _symmetry_equiv_pos_as_xyz
  1  'x, y, z'
loop_
 _atom_site_type_symbol
 _atom_site_label
 _atom_site_symmetry_multiplicity
 _atom_site_fract_x
 _atom_site_fract_y
 _atom_site_fract_z
 _atom_site_occupancy
  Y  Y0  1  0.00107800  0.93228000  0.65815900  1
  Y  Y1  1  0.99892200  0.93228000  0.15815900  1
  Y  Y2  1  0.00222300  0.43983900  0.15278400  1
  Y  Y3  1  0.99777700  0.43983900  0.65278400  1
  Y  Y4  1  0.50205100  0.06125600  0.84755000  1
  Y  Y5  1  0.49365700  0.56398900  0.33843600  1
  Y  Y6  1  0.49794900  0.06125600  0.34755000  1
  Y  Y7  1  0.50634300  0.56398900  0.83843600  1
  Cu  Cu0  1  0.69741500  0.21302900  0.59801000  1
  Cu  Cu1  1  0.30258500  0.21302900  0.09801000  1
  Te  Te0  1  0.24534500  0.24931500  0.40907400  1
  Te  Te1  1  0.24958200  0.25194500  0.91038900  1
  Te  Te2  1  0.99611000  0.58802200  0.39726000  1
  Te  Te3  1  0.00389000  0.58802200  0.89726000  1
  Te  Te4  1  0.99859200  0.08596500  0.76654600  1
  Te  Te5  1  0.00140800  0.08596500  0.26654600  1
  Te  Te6  1  0.75041800  0.25194500  0.41038900  1
  Te  Te7  1  0.74452900  0.74661700  0.08803700  1
  Te  Te8  1  0.75465500  0.24931500  0.90907400  1
  Te  Te9  1  0.75084100  0.75424600  0.58524100  1
  Te  Te10  1  0.49790100  0.41929800  0.09749500  1
  Te  Te11  1  0.49531600  0.91253600  0.73899800  1
  Te  Te12  1  0.50209900  0.41929800  0.59749500  1
  Te  Te13  1  0.50468400  0.91253600  0.23899800  1
  Te  Te14  1  0.24915900  0.75424600  0.08524100  1
  Te  Te15  1  0.25547100  0.74661700  0.58803700  1
loop_
_geom_bond_atom_site_label_1
_geom_bond_atom_site_label_2
_geom_bond_distance
_geom_bond_site_symmetry_2
Cu0 Te12 2.599062 1_555
Cu0 Te6 2.630870 1_555
Cu0 Te4 2.664012 1_555
Cu0 Te11 2.759843 1_545
Cu0 Y4 3.187111 1_555
Cu0 Y0 3.199628 1_645
Cu0 Y5 3.399061 1_555
Cu1 Te10 2.599062 1_555
Cu1 Te1 2.630870 1_554
Cu1 Te5 2.664012 1_555
Cu1 Te13 2.759843 1_545
Cu1 Y6 3.187111 1_555
Cu1 Y1 3.199628 1_445
Cu1 Y7 3.399061 1_554
Te0 Te6 3.020627 1_455
Te0 Te6 3.082536 1_555
Te0 Y6 3.233861 1_555
Te0 Y5 3.272593 1_555
Te0 Y2 3.291503 1_555
Te0 Y0 3.312244 1_545
Te1 Te8 3.020627 1_455
Te1 Te8 3.082536 1_555
Te1 Y7 3.263841 1_555
Te1 Y4 3.273666 1_555
Te1 Y1 3.330076 1_446
Te1 Y3 3.336111 1_455
Te2 Y1 3.012038 1_555
Te2 Y3 3.052816 1_555
Te2 Y5 3.231988 1_655
Te2 Y5 3.260130 1_555
Te3 Y0 3.012038 1_555
Te3 Y2 3.052816 1_556
Te3 Y7 3.231988 1_455
Te3 Y7 3.260130 1_555
Te4 Y3 3.057493 1_555
Te4 Y0 3.112936 1_645
Te4 Y4 3.215996 1_555
Te4 Y4 3.255804 1_655
Te5 Y2 3.057493 1_555
Te5 Y1 3.112936 1_445
Te5 Y6 3.215996 1_555
Te5 Y6 3.255804 1_455
Te6 Y5 3.263841 1_555
Te6 Y6 3.273666 1_555
Te6 Y0 3.330076 1_645
Te6 Y2 3.336111 1_655
Te7 Y4 3.244759 1_564
Te7 Y5 3.260154 1_555
Te7 Y2 3.261475 1_655
Te7 Y1 3.314970 1_555
Te8 Y4 3.233861 1_555
Te8 Y7 3.272593 1_555
Te8 Y3 3.291503 1_555
Te8 Y1 3.312244 1_546
Te9 Y6 3.231300 1_565
Te9 Y7 3.259945 1_555
Te9 Y0 3.263049 1_655
Te9 Y3 3.285707 1_555
Te10 Y7 3.116830 1_554
Te10 Y6 3.140033 1_555
Te10 Y2 3.193081 1_555
Te10 Y2 3.243096 1_655
Te11 Y4 3.064319 1_565
Te11 Y7 3.078587 1_555
Te11 Y0 3.212344 1_555
Te11 Y0 3.278461 1_655
Te12 Y5 3.116830 1_555
Te12 Y4 3.140033 1_555
Te12 Y3 3.193081 1_555
Te12 Y3 3.243096 1_455
Te13 Y6 3.064319 1_565
Te13 Y5 3.078587 1_555
Te13 Y1 3.212344 1_555
Te13 Y1 3.278461 1_455
Te14 Te7 3.023671 1_555
Te14 Te7 3.080167 1_455
Te14 Y4 3.231300 1_564
Te14 Y5 3.259945 1_555
Te14 Y1 3.263049 1_455
Te14 Y2 3.285707 1_555
Te15 Te9 3.023671 1_555
Te15 Te9 3.080167 1_455
Te15 Y6 3.244759 1_565
Te15 Y7 3.260154 1_555
Te15 Y3 3.261475 1_455
Te15 Y0 3.314970 1_555
