# generated using pymatgen
data_Ca5Si2HO9F
_symmetry_space_group_name_H-M   'P 1'
_cell_length_a   8.87109900
_cell_length_b   7.14504300
_cell_length_c   7.46755723
_cell_angle_alpha   70.78447738
_cell_angle_beta   90.00000000
_cell_angle_gamma   90.00000000
_symmetry_Int_Tables_number   1
_chemical_formula_structural   Ca5Si2HO9F
_chemical_formula_sum   'Ca10 Si4 H2 O18 F2'
_cell_volume   446.95618676
_cell_formula_units_Z   2
loop_
 _symmetry_equiv_pos_site_id
 _symmetry_equiv_pos_as_xyz
  1  'x, y, z'
loop_
 _atom_site_type_symbol
 _atom_site_label
 _atom_site_symmetry_multiplicity
 _atom_site_fract_x
 _atom_site_fract_y
 _atom_site_fract_z
 _atom_site_occupancy
  Ca  Ca0  1  0.25221700  0.94858100  0.33649900  1
  Ca  Ca1  1  0.56334800  0.18679500  0.11521300  1
  Ca  Ca2  1  0.85960700  0.92355000  0.28930600  1
  Ca  Ca3  1  0.39470000  0.60091500  0.24825400  1
  Ca  Ca4  1  0.56338800  0.61269900  0.65789900  1
  Ca  Ca5  1  0.75221700  0.05141900  0.66350100  1
  Ca  Ca6  1  0.06334800  0.81320500  0.88478700  1
  Ca  Ca7  1  0.35960700  0.07645000  0.71069400  1
  Ca  Ca8  1  0.89470000  0.39908500  0.75174600  1
  Ca  Ca9  1  0.06338800  0.38730100  0.34210100  1
  Si  Si0  1  0.75967500  0.45978200  0.33082100  1
  Si  Si1  1  0.73178500  0.63434500  0.96554100  1
  Si  Si2  1  0.25967500  0.54021800  0.66917900  1
  Si  Si3  1  0.23178500  0.36565500  0.03445900  1
  H  H0  1  0.59624500  0.76880200  0.88204800  1
  H  H1  1  0.09624500  0.23119800  0.11795200  1
  O  O0  1  0.37435700  0.39936000  0.86870600  1
  O  O1  1  0.23880200  0.00662900  0.00191100  1
  O  O2  1  0.78476700  0.22708000  0.33684300  1
  O  O3  1  0.11602300  0.45829800  0.81798600  1
  O  O4  1  0.55174400  0.94845100  0.52854300  1
  O  O5  1  0.89938900  0.06128700  0.97058700  1
  O  O6  1  0.69870400  0.42866500  0.91274200  1
  O  O7  1  0.04872100  0.13379800  0.63208900  1
  O  O8  1  0.33918700  0.26028100  0.23587300  1
  O  O9  1  0.87435700  0.60064000  0.13129400  1
  O  O10  1  0.73880200  0.99337100  0.99808900  1
  O  O11  1  0.28476700  0.77292000  0.66315700  1
  O  O12  1  0.61602300  0.54170200  0.18201400  1
  O  O13  1  0.05174400  0.05154900  0.47145700  1
  O  O14  1  0.39938900  0.93871300  0.02941300  1
  O  O15  1  0.19870400  0.57133500  0.08725800  1
  O  O16  1  0.54872100  0.86620200  0.36791100  1
  O  O17  1  0.83918700  0.73971900  0.76412700  1
  F  F0  1  0.05834100  0.70724200  0.38368500  1
  F  F1  1  0.55834100  0.29275800  0.61631500  1
loop_
_geom_bond_atom_site_label_1
_geom_bond_atom_site_label_2
_geom_bond_distance
_geom_bond_site_symmetry_2
Ca0 O8 2.240162 1_565
Ca0 O13 2.282053 1_565
Ca0 O11 2.365108 1_555
Ca0 F0 2.378175 1_555
Ca0 O1 2.397255 1_565
Ca0 H1 2.546817 1_565
Ca0 O14 2.659815 1_555
Ca0 O16 2.688709 1_555
Ca1 O6 2.234833 1_554
Ca1 O8 2.313724 1_555
Ca1 O10 2.427596 1_544
Ca1 O16 2.445309 1_545
Ca1 O14 2.532905 1_545
Ca1 O0 2.581822 1_554
Ca1 O2 2.644573 1_555
Ca1 O12 2.780336 1_555
Ca2 O5 2.283838 1_564
Ca2 F0 2.297065 1_655
Ca2 O10 2.326471 1_554
Ca2 O2 2.403533 1_565
Ca2 O13 2.531934 1_665
Ca2 O16 2.821373 1_555
Ca2 O9 2.919701 1_555
Ca3 O12 2.101496 1_555
Ca3 O15 2.163423 1_555
Ca3 O14 2.429286 1_555
Ca3 O8 2.514515 1_555
Ca3 O16 2.715334 1_555
Ca4 O6 2.268136 1_555
Ca4 O4 2.274516 1_555
Ca4 H0 2.315094 1_555
Ca4 O16 2.324915 1_555
Ca4 F1 2.406546 1_555
Ca4 O0 2.456461 1_555
Ca4 O17 2.812985 1_555
Ca5 O17 2.240162 1_545
Ca5 O4 2.282053 1_545
Ca5 O2 2.365108 1_555
Ca5 F1 2.378175 1_555
Ca5 O10 2.397255 1_545
Ca5 H0 2.546817 1_545
Ca5 O5 2.659815 1_555
Ca5 O7 2.688709 1_655
Ca6 O15 2.234833 1_556
Ca6 O17 2.313724 1_455
Ca6 O1 2.427596 1_566
Ca6 O7 2.445309 1_565
Ca6 O5 2.532905 1_465
Ca6 O9 2.581822 1_456
Ca6 O11 2.644573 1_555
Ca6 O3 2.780336 1_555
Ca7 O14 2.283838 1_546
Ca7 F1 2.297065 1_555
Ca7 O1 2.326471 1_556
Ca7 O11 2.403533 1_545
Ca7 O4 2.531934 1_545
Ca7 O7 2.821373 1_555
Ca7 O0 2.919701 1_555
Ca8 O3 2.101496 1_655
Ca8 O6 2.163423 1_555
Ca8 O5 2.429286 1_555
Ca8 O17 2.514515 1_555
Ca8 O7 2.715334 1_655
Ca9 O15 2.268136 1_555
Ca9 O13 2.274516 1_555
Ca9 H1 2.315094 1_555
Ca9 O7 2.324915 1_555
Ca9 F0 2.406546 1_555
Ca9 O9 2.456461 1_455
Ca9 O8 2.812985 1_555
H0 Si1 1.537252 1_555
H1 Si3 1.537252 1_555
O0 Si3 1.730174 1_556
O0 Si2 1.811320 1_555
O1 O14 1.497162 1_545
O2 Si0 1.663373 1_555
O3 Si2 1.665309 1_555
O3 Si3 1.844333 1_556
O6 Si1 1.668139 1_555
O8 Si3 1.729584 1_555
O9 Si1 1.730174 1_554
O9 Si0 1.811320 1_555
O10 O5 1.497162 1_565
O11 Si2 1.663373 1_555
O12 Si0 1.665309 1_555
O12 Si1 1.844333 1_554
O13 O7 1.499655 1_555
O15 Si3 1.668139 1_555
O16 O4 1.499655 1_555
O17 Si1 1.729584 1_555
