# generated using pymatgen
data_Ni3O4
_symmetry_space_group_name_H-M   'P 1'
_cell_length_a   5.05507343
_cell_length_b   5.80735263
_cell_length_c   5.70487547
_cell_angle_alpha   60.54613682
_cell_angle_beta   89.99538855
_cell_angle_gamma   105.48140810
_symmetry_Int_Tables_number   1
_chemical_formula_structural   Ni3O4
_chemical_formula_sum   'Ni6 O8'
_cell_volume   138.80680474
_cell_formula_units_Z   2
loop_
 _symmetry_equiv_pos_site_id
 _symmetry_equiv_pos_as_xyz
  1  'x, y, z'
loop_
 _atom_site_type_symbol
 _atom_site_label
 _atom_site_symmetry_multiplicity
 _atom_site_fract_x
 _atom_site_fract_y
 _atom_site_fract_z
 _atom_site_occupancy
  Ni  Ni0  1  0.00000300  0.00000928  -0.00000074  1
  Ni  Ni1  1  0.00001696  0.00000515  0.50000650  1
  Ni  Ni2  1  0.50001540  0.50003836  0.74997787  1
  Ni  Ni3  1  0.50000947  0.50004402  0.24997590  1
  Ni  Ni4  1  0.00000430  0.49998655  0.50000552  1
  Ni  Ni5  1  0.00000876  0.49999426  0.00001308  1
  O  O0  1  0.79371419  0.29373381  0.35326716  1
  O  O1  1  0.79371409  0.29373046  0.85326750  1
  O  O2  1  0.20630874  0.70628147  0.14671974  1
  O  O3  1  0.20630181  0.70628945  0.64671592  1
  O  O4  1  0.77223120  0.72766513  0.88609904  1
  O  O5  1  0.77223234  0.72766538  0.38609898  1
  O  O6  1  0.22772446  0.27227867  0.61392440  1
  O  O7  1  0.22772327  0.27227900  0.11392513  1
loop_
_geom_bond_atom_site_label_1
_geom_bond_atom_site_label_2
_geom_bond_distance
_geom_bond_site_symmetry_2
Ni0 O1 2.059911 1_454
Ni0 O2 2.060002 1_545
Ni0 O6 2.068645 1_554
Ni0 O5 2.068871 1_445
Ni0 O7 2.070435 1_555
Ni0 O4 2.070758 1_444
Ni1 O3 2.059871 1_545
Ni1 O0 2.059995 1_455
Ni1 O7 2.068646 1_555
Ni1 O4 2.068867 1_445
Ni1 O6 2.070398 1_555
Ni1 O5 2.070790 1_445
Ni2 O3 2.059556 1_555
Ni2 O1 2.059699 1_555
Ni2 O5 2.068831 1_555
Ni2 O7 2.069263 1_556
Ni2 O4 2.069460 1_555
Ni2 O6 2.069880 1_555
Ni3 O2 2.059449 1_555
Ni3 O0 2.059734 1_555
Ni3 O4 2.068836 1_554
Ni3 O6 2.069249 1_555
Ni3 O5 2.069465 1_555
Ni3 O7 2.069878 1_555
Ni4 O6 1.861122 1_555
Ni4 O5 1.861215 1_455
Ni4 O0 1.882109 1_455
Ni4 O1 1.882162 1_455
Ni4 O3 1.882209 1_555
Ni4 O2 1.882284 1_555
Ni5 O7 1.861129 1_555
Ni5 O4 1.861205 1_454
Ni5 O2 1.882133 1_555
Ni5 O0 1.882136 1_455
Ni5 O1 1.882195 1_454
Ni5 O3 1.882311 1_554
