# generated using pymatgen
data_Ce10US16
_symmetry_space_group_name_H-M   'P 1'
_cell_length_a   8.48755900
_cell_length_b   8.48755900
_cell_length_c   8.46699800
_cell_angle_alpha   90.00000000
_cell_angle_beta   90.00000000
_cell_angle_gamma   90.00000000
_symmetry_Int_Tables_number   1
_chemical_formula_structural   Ce10US16
_chemical_formula_sum   'Ce10 U1 S16'
_cell_volume   609.95117133
_cell_formula_units_Z   1
loop_
 _symmetry_equiv_pos_site_id
 _symmetry_equiv_pos_as_xyz
  1  'x, y, z'
loop_
 _atom_site_type_symbol
 _atom_site_label
 _atom_site_symmetry_multiplicity
 _atom_site_fract_x
 _atom_site_fract_y
 _atom_site_fract_z
 _atom_site_occupancy
  Ce  Ce0  1  0.87517800  0.75532900  0.86230600  1
  Ce  Ce1  1  0.24467100  0.87517800  0.13769400  1
  Ce  Ce2  1  0.50000000  0.00000000  0.75337200  1
  Ce  Ce3  1  0.12482200  0.24467100  0.86230600  1
  Ce  Ce4  1  0.75532900  0.12482200  0.13769400  1
  Ce  Ce5  1  0.36647700  0.24552300  0.38034100  1
  Ce  Ce6  1  0.75447700  0.36647700  0.61965900  1
  Ce  Ce7  1  0.00000000  0.50000000  0.24662800  1
  Ce  Ce8  1  0.24552300  0.63352300  0.61965900  1
  Ce  Ce9  1  0.63352300  0.75447700  0.38034100  1
  U  U0  1  0.50000000  0.50000000  0.00000000  1
  S  S0  1  0.33265300  0.92149700  0.45567900  1
  S  S1  1  0.56922400  0.81960600  0.05189000  1
  S  S2  1  0.92106300  0.81850300  0.18678300  1
  S  S3  1  0.43077600  0.18039400  0.05189000  1
  S  S4  1  0.07893700  0.18149700  0.18678300  1
  S  S5  1  0.18149700  0.92106300  0.81321700  1
  S  S6  1  0.66734700  0.07850300  0.45567900  1
  S  S7  1  0.81850300  0.07893700  0.81321700  1
  S  S8  1  0.81960600  0.43077600  0.94811000  1
  S  S9  1  0.07850300  0.33265300  0.54432100  1
  S  S10  1  0.42604800  0.32817200  0.70458000  1
  S  S11  1  0.92149700  0.66734700  0.54432100  1
  S  S12  1  0.57395200  0.67182800  0.70458000  1
  S  S13  1  0.18039400  0.56922400  0.94811000  1
  S  S14  1  0.67182800  0.42604800  0.29542000  1
  S  S15  1  0.32817200  0.57395200  0.29542000  1
loop_
_geom_bond_atom_site_label_1
_geom_bond_atom_site_label_2
_geom_bond_distance
_geom_bond_site_symmetry_2
Ce0 S7 2.819253 1_565
Ce0 S11 2.821541 1_555
Ce0 S2 2.826143 1_556
Ce0 S8 2.887637 1_555
Ce0 S12 2.970241 1_555
Ce0 S5 2.985126 1_655
Ce0 S1 3.101242 1_556
Ce0 S13 3.119898 1_655
Ce1 S2 2.819253 1_455
Ce1 S0 2.821541 1_555
Ce1 S5 2.826143 1_554
Ce1 S1 2.887637 1_555
Ce1 S15 2.970241 1_555
Ce1 S4 2.985126 1_565
Ce1 S13 3.101242 1_554
Ce1 S3 3.119898 1_565
Ce2 S7 2.830818 1_555
Ce2 S5 2.830818 1_545
Ce2 S10 2.884957 1_555
Ce2 S12 2.884957 1_545
Ce2 S0 2.968948 1_545
Ce2 S6 2.968948 1_555
Ce2 S1 3.012973 1_546
Ce2 S3 3.012973 1_556
Ce3 S5 2.819253 1_545
Ce3 S9 2.821541 1_555
Ce3 S4 2.826143 1_556
Ce3 S13 2.887637 1_555
Ce3 S10 2.970241 1_555
Ce3 S7 2.985126 1_455
Ce3 S3 3.101242 1_556
Ce3 S8 3.119898 1_455
Ce4 S4 2.819253 1_655
Ce4 S6 2.821541 1_555
Ce4 S7 2.826143 1_554
Ce4 S3 2.887637 1_555
Ce4 S14 2.970241 1_555
Ce4 S2 2.985126 1_545
Ce4 S8 3.101242 1_554
Ce4 S1 3.119898 1_545
Ce5 S0 2.837756 1_545
Ce5 S10 2.878293 1_555
Ce5 S3 2.887444 1_555
Ce5 S15 2.897101 1_555
Ce5 S9 2.906663 1_555
Ce5 S4 2.989525 1_555
Ce5 S6 2.989583 1_555
Ce5 S14 3.095402 1_555
Ce6 S9 2.837756 1_655
Ce6 S14 2.878293 1_555
Ce6 S8 2.887444 1_555
Ce6 S10 2.897101 1_555
Ce6 S6 2.906663 1_555
Ce6 S7 2.989525 1_555
Ce6 S11 2.989583 1_555
Ce6 S12 3.095402 1_555
Ce7 S2 2.830818 1_455
Ce7 S4 2.830818 1_555
Ce7 S15 2.884957 1_555
Ce7 S14 2.884957 1_455
Ce7 S11 2.968948 1_455
Ce7 S9 2.968948 1_555
Ce7 S13 3.012973 1_554
Ce7 S8 3.012973 1_454
Ce8 S11 2.837756 1_455
Ce8 S15 2.878293 1_555
Ce8 S13 2.887444 1_555
Ce8 S12 2.897101 1_555
Ce8 S0 2.906663 1_555
Ce8 S5 2.989525 1_555
Ce8 S9 2.989583 1_555
Ce8 S10 3.095402 1_555
Ce9 S6 2.837756 1_565
Ce9 S12 2.878293 1_555
Ce9 S1 2.887444 1_555
Ce9 S14 2.897101 1_555
Ce9 S11 2.906663 1_555
Ce9 S2 2.989525 1_555
Ce9 S0 2.989583 1_555
Ce9 S15 3.095402 1_555
S1 U0 2.810132 1_555
S3 U0 2.810132 1_555
S8 U0 2.810132 1_556
S10 U0 2.962686 1_556
S12 U0 2.962686 1_556
S13 U0 2.810132 1_556
S14 U0 2.962686 1_555
S15 U0 2.962686 1_555
