# generated using pymatgen
data_Mn(SbO3)2
_symmetry_space_group_name_H-M   'P 1'
_cell_length_a   6.94825785
_cell_length_b   7.40708566
_cell_length_c   9.23554262
_cell_angle_alpha   110.70453806
_cell_angle_beta   89.99988957
_cell_angle_gamma   90.00038043
_symmetry_Int_Tables_number   1
_chemical_formula_structural   Mn(SbO3)2
_chemical_formula_sum   'Mn4 Sb8 O24'
_cell_volume   444.62156157
_cell_formula_units_Z   4
loop_
 _symmetry_equiv_pos_site_id
 _symmetry_equiv_pos_as_xyz
  1  'x, y, z'
loop_
 _atom_site_type_symbol
 _atom_site_label
 _atom_site_symmetry_multiplicity
 _atom_site_fract_x
 _atom_site_fract_y
 _atom_site_fract_z
 _atom_site_occupancy
  Mn  Mn0  1  0.50000500  0.17197600  0.17238100  1
  Mn  Mn1  1  0.50004400  0.49459000  0.49431000  1
  Mn  Mn2  1  0.99999900  0.17209900  0.67232000  1
  Mn  Mn3  1  0.99999600  0.49449300  0.99433000  1
  Sb  Sb0  1  0.00001200  0.33337500  0.33333100  1
  Sb  Sb1  1  0.49999600  0.33336700  0.83333600  1
  Sb  Sb2  1  0.99999600  0.83336500  0.33331000  1
  Sb  Sb3  1  0.49999500  0.83337200  0.83331800  1
  Sb  Sb4  1  0.99999700  0.01247900  0.00546700  1
  Sb  Sb5  1  0.49999600  0.01248800  0.50548100  1
  Sb  Sb6  1  0.00000600  0.65422200  0.66118900  1
  Sb  Sb7  1  0.49999600  0.65419400  0.16118900  1
  O  O0  1  0.00000200  0.85786100  0.55889900  1
  O  O1  1  0.50000300  0.85782500  0.05889900  1
  O  O2  1  0.99999000  0.80876500  0.10771100  1
  O  O3  1  0.49999200  0.80879600  0.60772100  1
  O  O4  1  0.99999900  0.19514000  0.90065700  1
  O  O5  1  0.50000300  0.19519300  0.40072400  1
  O  O6  1  0.99999400  0.47150100  0.76598600  1
  O  O7  1  0.49999700  0.47144600  0.26595700  1
  O  O8  1  0.99999800  0.54621500  0.23862500  1
  O  O9  1  0.50000200  0.54622800  0.73861900  1
  O  O10  1  0.99999300  0.12049000  0.42804800  1
  O  O11  1  0.49999400  0.12049100  0.92808700  1
  O  O12  1  0.69240500  0.83333100  0.33334100  1
  O  O13  1  0.19240900  0.83332700  0.83334100  1
  O  O14  1  0.30758900  0.83332800  0.33333700  1
  O  O15  1  0.80758700  0.83332200  0.83333600  1
  O  O16  1  0.31338400  0.17326900  0.67056500  1
  O  O17  1  0.81338400  0.17327300  0.17056100  1
  O  O18  1  0.68661100  0.17327200  0.67056600  1
  O  O19  1  0.18661800  0.17327000  0.17055900  1
  O  O20  1  0.68661800  0.49341200  0.99612200  1
  O  O21  1  0.18663000  0.49340700  0.49613100  1
  O  O22  1  0.31337500  0.49341200  0.99612000  1
  O  O23  1  0.81338600  0.49340600  0.49613000  1
loop_
_geom_bond_atom_site_label_1
_geom_bond_atom_site_label_2
_geom_bond_distance
_geom_bond_site_symmetry_2
Mn0 O5 2.054379 1_555
Mn0 O7 2.076481 1_555
Mn0 O11 2.151144 1_554
Mn0 O17 2.177550 1_555
Mn0 O19 2.177606 1_555
Mn0 O1 2.188297 1_545
Mn1 O7 2.054622 1_555
Mn1 O5 2.075986 1_555
Mn1 O9 2.151062 1_555
Mn1 O23 2.177288 1_555
Mn1 O21 2.177788 1_555
Mn1 O3 2.188594 1_555
Mn2 O4 2.054688 1_555
Mn2 O6 2.076049 1_555
Mn2 O10 2.150767 1_555
Mn2 O16 2.177580 1_655
Mn2 O18 2.177601 1_555
Mn2 O0 2.188816 1_645
Mn3 O6 2.054854 1_555
Mn3 O4 2.075717 1_555
Mn3 O8 2.150814 1_556
Mn3 O20 2.177530 1_555
Mn3 O22 2.177537 1_655
Mn3 O2 2.189003 1_556
O0 Sb2 2.026408 1_455
O0 Sb6 2.043340 1_555
O1 Sb3 2.026422 1_554
O1 Sb7 2.043287 1_555
O2 Sb2 2.026289 1_555
O2 Sb4 2.043534 1_565
O3 Sb3 2.026319 1_555
O3 Sb5 2.043360 1_565
O4 Sb4 1.921876 1_556
O5 Sb5 1.921795 1_555
O6 Sb6 1.922178 1_655
O7 Sb7 1.922153 1_555
O8 Sb2 1.993345 1_555
O8 Sb0 2.055601 1_655
O9 Sb3 1.993312 1_555
O9 Sb1 2.055814 1_555
O10 Sb2 1.993206 1_545
O10 Sb0 2.055978 1_655
O11 Sb3 1.993184 1_545
O11 Sb1 2.056135 1_555
O12 Sb2 2.137222 1_555
O12 Sb7 2.141038 1_555
O12 Sb5 2.141040 1_565
O13 Sb3 2.137187 1_555
O13 Sb6 2.140927 1_555
O13 Sb4 2.140972 1_466
O14 Sb2 2.137236 1_455
O14 Sb7 2.141009 1_555
O14 Sb5 2.141051 1_565
O15 Sb3 2.137229 1_555
O15 Sb6 2.140966 1_655
O15 Sb4 2.140994 1_566
O16 Sb1 2.021587 1_555
O16 Sb5 2.034743 1_555
O17 Sb0 2.021663 1_655
O17 Sb4 2.034828 1_555
O18 Sb1 2.021595 1_555
O18 Sb5 2.034762 1_555
O19 Sb0 2.021588 1_555
O19 Sb4 2.034840 1_455
O20 Sb1 2.021579 1_555
O20 Sb7 2.034705 1_556
O21 Sb0 2.021599 1_555
O21 Sb6 2.034747 1_555
O22 Sb1 2.021571 1_555
O22 Sb7 2.034704 1_556
O23 Sb0 2.021634 1_655
O23 Sb6 2.034730 1_655
