# generated using pymatgen
data_K6CdPb8
_symmetry_space_group_name_H-M   'P 1'
_cell_length_a   15.11849468
_cell_length_b   15.11849468
_cell_length_c   19.01302436
_cell_angle_alpha   63.95043444
_cell_angle_beta   63.95043444
_cell_angle_gamma   26.82588898
_symmetry_Int_Tables_number   1
_chemical_formula_structural   K6CdPb8
_chemical_formula_sum   'K18 Cd3 Pb24'
_cell_volume   1749.93194349
_cell_formula_units_Z   3
loop_
 _symmetry_equiv_pos_site_id
 _symmetry_equiv_pos_as_xyz
  1  'x, y, z'
loop_
 _atom_site_type_symbol
 _atom_site_label
 _atom_site_symmetry_multiplicity
 _atom_site_fract_x
 _atom_site_fract_y
 _atom_site_fract_z
 _atom_site_occupancy
  K  K0  1  0.42837900  0.42837900  0.44636200  1
  K  K1  1  0.72595300  0.72595300  0.47343700  1
  K  K2  1  0.91377000  0.91377000  0.60814500  1
  K  K3  1  0.08623000  0.08623000  0.39185500  1
  K  K4  1  0.48626900  0.48626900  0.21847700  1
  K  K5  1  0.04454700  0.04454700  0.86888000  1
  K  K6  1  0.95545300  0.95545300  0.13112000  1
  K  K7  1  0.21090300  0.21090300  0.00249200  1
  K  K8  1  0.18773900  0.18773900  0.81214500  1
  K  K9  1  0.07706000  0.07706000  0.19399200  1
  K  K10  1  0.78909700  0.78909700  0.99750800  1
  K  K11  1  0.81226100  0.81226100  0.18785500  1
  K  K12  1  0.92294000  0.92294000  0.80600800  1
  K  K13  1  0.57162100  0.57162100  0.55363800  1
  K  K14  1  0.25024800  0.25024800  0.31101700  1
  K  K15  1  0.51373100  0.51373100  0.78152300  1
  K  K16  1  0.27404700  0.27404700  0.52656300  1
  K  K17  1  0.74975200  0.74975200  0.68898300  1
  Cd  Cd0  1  0.63360000  0.63360000  0.11264000  1
  Cd  Cd1  1  0.50000000  0.50000000  0.00000000  1
  Cd  Cd2  1  0.36640000  0.36640000  0.88736000  1
  Pb  Pb0  1  0.37402400  0.90340500  0.66524400  1
  Pb  Pb1  1  0.04870900  0.04870900  0.65832400  1
  Pb  Pb2  1  0.84638300  0.84638300  0.48574000  1
  Pb  Pb3  1  0.92874700  0.44455500  0.19400600  1
  Pb  Pb4  1  0.34236100  0.83034800  0.01584800  1
  Pb  Pb5  1  0.44455500  0.92874700  0.19400600  1
  Pb  Pb6  1  0.62597600  0.09659500  0.33475600  1
  Pb  Pb7  1  0.38955300  0.38955300  0.14362000  1
  Pb  Pb8  1  0.90340500  0.37402400  0.66524400  1
  Pb  Pb9  1  0.41960600  0.41960600  0.70184600  1
  Pb  Pb10  1  0.61044700  0.61044700  0.85638000  1
  Pb  Pb11  1  0.31123000  0.31123000  0.07682400  1
  Pb  Pb12  1  0.65763900  0.16965200  0.98415200  1
  Pb  Pb13  1  0.66999900  0.66999900  0.33939600  1
  Pb  Pb14  1  0.68877000  0.68877000  0.92317600  1
  Pb  Pb15  1  0.07125300  0.55544500  0.80599400  1
  Pb  Pb16  1  0.55544500  0.07125300  0.80599400  1
  Pb  Pb17  1  0.09659500  0.62597600  0.33475600  1
  Pb  Pb18  1  0.58039400  0.58039400  0.29815400  1
  Pb  Pb19  1  0.15361700  0.15361700  0.51426000  1
  Pb  Pb20  1  0.16965200  0.65763900  0.98415200  1
  Pb  Pb21  1  0.33000100  0.33000100  0.66060400  1
  Pb  Pb22  1  0.83034800  0.34236100  0.01584800  1
  Pb  Pb23  1  0.95129100  0.95129100  0.34167600  1
loop_
_geom_bond_atom_site_label_1
_geom_bond_atom_site_label_2
_geom_bond_distance
_geom_bond_site_symmetry_2
K0 Pb21 3.784531 1_555
K0 Pb23 3.937483 1_545
K0 Pb23 3.937483 1_455
K0 Pb17 3.952798 1_555
K0 Pb6 3.952798 1_555
K0 Pb18 4.068809 1_555
K0 Pb2 4.128619 1_455
K0 Pb2 4.128619 1_545
K1 Pb13 3.604227 1_555
K1 Pb2 3.653686 1_555
K1 Pb0 3.857575 1_555
K1 Pb8 3.857575 1_555
K1 Pb19 3.992115 1_565
K1 Pb19 3.992115 1_655
K1 Pb17 4.005462 1_655
K1 Pb6 4.005462 1_565
K2 Pb2 3.675531 1_555
K2 Pb9 3.972219 1_655
K2 Pb9 3.972219 1_565
K2 Pb15 4.014280 1_655
K2 Pb16 4.014280 1_565
K2 Pb21 4.140709 1_655
K2 Pb21 4.140709 1_565
K3 Pb19 3.675531 1_555
K3 Pb18 3.972219 1_545
K3 Pb18 3.972219 1_455
K3 Pb3 4.014280 1_455
K3 Pb5 4.014280 1_545
K3 Pb13 4.140709 1_545
K3 Pb13 4.140709 1_455
K4 Pb18 3.707544 1_555
K4 Pb7 3.711230 1_555
K4 Pb17 3.809149 1_555
K4 Pb6 3.809149 1_555
K4 Pb4 4.024517 1_555
K4 Pb22 4.024517 1_555
K4 Pb23 4.082689 1_545
K4 Pb23 4.082689 1_455
K5 K8 3.846959 1_555
K5 Pb20 3.902817 1_545
K5 Pb12 3.902817 1_455
K5 Pb1 3.949552 1_555
K5 Pb4 3.955623 1_546
K5 Pb22 3.955623 1_456
K5 Pb10 3.961879 1_545
K5 Pb10 3.961879 1_455
K5 Pb8 3.962700 1_455
K5 Pb0 3.962700 1_545
K6 Pb22 3.902817 1_565
K6 Pb4 3.902817 1_655
K6 Pb23 3.949552 1_555
K6 Pb20 3.955623 1_654
K6 Pb12 3.955623 1_564
K6 Pb7 3.961879 1_565
K6 Pb7 3.961879 1_655
K6 Pb17 3.962700 1_655
K6 Pb6 3.962700 1_565
K7 Pb11 3.803989 1_555
K7 Pb5 3.833360 1_545
K7 Pb3 3.833360 1_455
K7 Pb15 3.969380 1_554
K7 Pb16 3.969380 1_554
K7 K8 3.973436 1_554
K7 Pb22 3.983495 1_455
K7 Pb4 3.983495 1_545
K7 Pb14 3.985401 1_454
K7 Pb14 3.985401 1_544
K8 Pb21 3.863154 1_555
K8 Pb16 4.019463 1_555
K8 Pb15 4.019463 1_555
K8 Pb8 4.029958 1_455
K8 Pb0 4.029958 1_545
K8 Pb10 4.055623 1_455
K8 Pb10 4.055623 1_545
K8 Pb22 4.085157 1_456
K8 Pb4 4.085157 1_546
K8 Pb14 4.100519 1_455
K8 Pb14 4.100519 1_545
K9 Pb23 3.491346 1_445
K9 Pb5 3.696323 1_545
K9 Pb3 3.696323 1_455
K9 Pb4 3.732979 1_545
K9 Pb22 3.732979 1_455
K9 Pb18 4.050451 1_545
K9 Pb18 4.050451 1_455
K10 Pb14 3.803989 1_555
K10 Pb15 3.833360 1_655
K10 Pb16 3.833360 1_565
K10 Pb3 3.969380 1_556
K10 Pb5 3.969380 1_556
K10 K11 3.973436 1_556
K10 Pb20 3.983495 1_655
K10 Pb12 3.983495 1_565
K10 Pb11 3.985401 1_566
K10 Pb11 3.985401 1_656
K11 K6 3.846959 1_555
K11 Pb13 3.863154 1_555
K11 Pb5 4.019463 1_555
K11 Pb3 4.019463 1_555
K11 Pb6 4.029958 1_565
K11 Pb17 4.029958 1_655
K11 Pb7 4.055623 1_565
K11 Pb7 4.055623 1_655
K11 Pb20 4.085157 1_654
K11 Pb12 4.085157 1_564
K11 Pb11 4.100519 1_655
K11 Pb11 4.100519 1_565
K11 K14 4.153652 1_655
K11 K14 4.153652 1_565
K12 Pb1 3.491346 1_665
K12 Pb15 3.696323 1_655
K12 Pb16 3.696323 1_565
K12 Pb12 3.732979 1_565
K12 Pb20 3.732979 1_655
K12 Pb9 4.050451 1_565
K12 Pb9 4.050451 1_655
K13 Pb13 3.784531 1_555
K13 Pb1 3.937483 1_565
K13 Pb1 3.937483 1_655
K13 Pb8 3.952798 1_555
K13 Pb0 3.952798 1_555
K13 Pb9 4.068809 1_555
K13 Pb19 4.128619 1_565
K13 Pb19 4.128619 1_655
K14 Pb19 3.618515 1_555
K14 Pb7 3.891371 1_555
K14 Pb3 3.934214 1_455
K14 Pb5 3.934214 1_545
K14 Pb6 3.955662 1_555
K14 Pb17 3.955662 1_555
K14 Pb11 3.979016 1_555
K14 Pb13 4.124476 1_545
K14 Pb13 4.124476 1_455
K15 Pb9 3.707544 1_555
K15 Pb10 3.711230 1_555
K15 Pb0 3.809149 1_555
K15 Pb8 3.809149 1_555
K15 Pb20 4.024517 1_555
K15 Pb12 4.024517 1_555
K15 Pb1 4.082689 1_655
K15 Pb1 4.082689 1_565
K16 Pb21 3.604227 1_555
K16 Pb19 3.653686 1_555
K16 Pb17 3.857575 1_555
K16 Pb6 3.857575 1_555
K16 Pb2 3.992115 1_545
K16 Pb2 3.992115 1_455
K16 Pb8 4.005462 1_455
K16 Pb0 4.005462 1_545
K17 Pb2 3.618515 1_555
K17 Pb10 3.891371 1_555
K17 Pb15 3.934214 1_655
K17 Pb16 3.934214 1_565
K17 Pb8 3.955662 1_555
K17 Pb0 3.955662 1_555
K17 Pb14 3.979016 1_555
K17 Pb21 4.124476 1_655
K17 Pb21 4.124476 1_565
K17 K8 4.153652 1_655
K17 K8 4.153652 1_565
Cd0 Pb3 3.144981 1_555
Cd0 Pb5 3.144981 1_555
Cd0 Pb18 3.147389 1_555
Cd0 Pb14 3.214283 1_554
Cd0 Pb4 3.248929 1_555
Cd0 Pb22 3.248929 1_555
Cd0 K4 3.866994 1_555
Cd1 Pb10 3.162239 1_554
Cd1 Pb7 3.162239 1_555
Cd1 Pb22 3.187724 1_555
Cd1 Pb4 3.187724 1_555
Cd1 Pb20 3.187724 1_554
Cd1 Pb12 3.187724 1_554
Cd1 K4 3.987896 1_555
Cd1 K15 3.987896 1_554
Cd2 Pb15 3.144981 1_555
Cd2 Pb16 3.144981 1_555
Cd2 Pb9 3.147389 1_555
Cd2 Pb11 3.214283 1_556
Cd2 Pb20 3.248929 1_555
Cd2 Pb12 3.248929 1_555
Cd2 K15 3.866994 1_555
Pb0 Pb19 3.165555 1_565
Pb0 Pb1 3.172353 1_565
Pb0 Pb8 3.300924 1_465
Pb1 Pb19 3.064666 1_555
Pb1 Pb8 3.172353 1_455
Pb2 Pb23 3.064666 1_555
Pb2 Pb6 3.165555 1_565
Pb3 Pb5 3.396125 1_555
Pb3 Pb5 3.617879 1_645
Pb10 Pb14 3.092140 1_555
Pb10 Pb4 3.268613 1_556
Pb10 Pb22 3.268613 1_556
Pb11 Pb7 3.092140 1_555
Pb11 Pb20 3.211665 1_554
Pb11 Pb12 3.211665 1_554
Pb12 Pb7 3.268613 1_556
Pb12 Pb20 3.422743 1_555
Pb12 Pb20 3.591261 1_645
Pb13 Pb18 3.070277 1_555
Pb13 Pb3 3.089047 1_555
Pb13 Pb5 3.089047 1_555
Pb14 Pb22 3.211665 1_556
Pb14 Pb4 3.211665 1_556
Pb15 Pb21 3.089047 1_555
Pb15 Pb9 3.314200 1_555
Pb15 Pb16 3.396125 1_555
Pb15 Pb16 3.617879 1_465
Pb16 Pb21 3.089047 1_555
Pb16 Pb9 3.314200 1_555
Pb17 Pb2 3.165555 1_455
Pb17 Pb23 3.172353 1_455
Pb17 Pb6 3.300924 1_465
Pb18 Pb5 3.314200 1_555
Pb18 Pb3 3.314200 1_555
Pb19 Pb8 3.165555 1_455
Pb20 Pb7 3.268613 1_556
Pb21 Pb9 3.070277 1_555
Pb22 Pb4 3.422743 1_555
Pb22 Pb4 3.591261 1_645
Pb23 Pb6 3.172353 1_565
