# generated using pymatgen
data_Ba2PPd2
_symmetry_space_group_name_H-M   'P 1'
_cell_length_a   6.88352400
_cell_length_b   7.84614300
_cell_length_c   9.78954600
_cell_angle_alpha   90.00000000
_cell_angle_beta   90.00000000
_cell_angle_gamma   90.00000000
_symmetry_Int_Tables_number   1
_chemical_formula_structural   Ba2PPd2
_chemical_formula_sum   'Ba8 P4 Pd8'
_cell_volume   528.72470248
_cell_formula_units_Z   4
loop_
 _symmetry_equiv_pos_site_id
 _symmetry_equiv_pos_as_xyz
  1  'x, y, z'
loop_
 _atom_site_type_symbol
 _atom_site_label
 _atom_site_symmetry_multiplicity
 _atom_site_fract_x
 _atom_site_fract_y
 _atom_site_fract_z
 _atom_site_occupancy
  Ba  Ba0  1  0.99498100  0.23963500  0.55884400  1
  Ba  Ba1  1  0.49498100  0.26036500  0.44115600  1
  Ba  Ba2  1  0.50501900  0.73963500  0.55884400  1
  Ba  Ba3  1  0.00501900  0.76036500  0.44115600  1
  Ba  Ba4  1  0.00501900  0.76036500  0.05884400  1
  Ba  Ba5  1  0.50501900  0.73963500  0.94115600  1
  Ba  Ba6  1  0.49498100  0.26036500  0.05884400  1
  Ba  Ba7  1  0.99498100  0.23963500  0.94115600  1
  P  P0  1  0.84235000  0.91144500  0.75000000  1
  P  P1  1  0.65765000  0.41144500  0.75000000  1
  P  P2  1  0.34235000  0.58855500  0.25000000  1
  P  P3  1  0.15765000  0.08855500  0.25000000  1
  Pd  Pd0  1  0.19517200  0.95415000  0.75000000  1
  Pd  Pd1  1  0.30482800  0.45415000  0.75000000  1
  Pd  Pd2  1  0.06238000  0.39471800  0.25000000  1
  Pd  Pd3  1  0.69517200  0.54585000  0.25000000  1
  Pd  Pd4  1  0.43762000  0.89471800  0.25000000  1
  Pd  Pd5  1  0.80482800  0.04585000  0.25000000  1
  Pd  Pd6  1  0.56238000  0.10528200  0.75000000  1
  Pd  Pd7  1  0.93762000  0.60528200  0.75000000  1
loop_
_geom_bond_atom_site_label_1
_geom_bond_atom_site_label_2
_geom_bond_distance
_geom_bond_site_symmetry_2
Ba0 Pd0 3.227727 1_645
Ba0 P1 3.272753 1_555
Ba0 Pd2 3.291969 1_655
Ba0 Pd1 3.299054 1_655
Ba0 P0 3.352086 1_545
Ba0 P3 3.435138 1_655
Ba0 Pd7 3.447967 1_555
Ba0 Pd5 3.628539 1_555
Ba0 Pd6 3.671583 1_555
Ba1 Pd3 3.227727 1_555
Ba1 P3 3.272753 1_555
Ba1 Pd6 3.291969 1_555
Ba1 Pd5 3.299054 1_555
Ba1 P2 3.352086 1_555
Ba1 P1 3.435138 1_555
Ba1 Pd4 3.447967 1_545
Ba1 Pd1 3.628539 1_555
Ba1 Pd2 3.671583 1_555
Ba2 Pd1 3.227727 1_555
Ba2 P0 3.272753 1_555
Ba2 Pd4 3.291969 1_555
Ba2 Pd0 3.299054 1_555
Ba2 P1 3.352086 1_555
Ba2 P2 3.435138 1_555
Ba2 Pd6 3.447967 1_565
Ba2 Pd3 3.628539 1_555
Ba2 Pd7 3.671583 1_555
Ba3 Pd5 3.227727 1_465
Ba3 P2 3.272753 1_555
Ba3 Pd7 3.291969 1_455
Ba3 Pd3 3.299054 1_455
Ba3 P3 3.352086 1_565
Ba3 P0 3.435138 1_455
Ba3 Pd2 3.447967 1_555
Ba3 Pd0 3.628539 1_555
Ba3 Pd4 3.671583 1_555
Ba4 Pd5 3.227727 1_465
Ba4 P2 3.272753 1_555
Ba4 Pd7 3.291969 1_454
Ba4 Pd3 3.299054 1_455
Ba4 P3 3.352086 1_565
Ba4 P0 3.435138 1_454
Ba4 Pd2 3.447967 1_555
Ba4 Pd0 3.628539 1_554
Ba4 Pd4 3.671583 1_555
Ba5 Pd1 3.227727 1_555
Ba5 P0 3.272753 1_555
Ba5 Pd4 3.291969 1_556
Ba5 Pd0 3.299054 1_555
Ba5 P1 3.352086 1_555
Ba5 P2 3.435138 1_556
Ba5 Pd6 3.447967 1_565
Ba5 Pd3 3.628539 1_556
Ba5 Pd7 3.671583 1_555
Ba6 Pd3 3.227727 1_555
Ba6 P3 3.272753 1_555
Ba6 Pd6 3.291969 1_554
Ba6 Pd5 3.299054 1_555
Ba6 P2 3.352086 1_555
Ba6 P1 3.435138 1_554
Ba6 Pd4 3.447967 1_545
Ba6 Pd1 3.628539 1_554
Ba6 Pd2 3.671583 1_555
Ba7 Pd0 3.227727 1_645
Ba7 P1 3.272753 1_555
Ba7 Pd2 3.291969 1_656
Ba7 Pd1 3.299054 1_655
Ba7 P0 3.352086 1_545
Ba7 P3 3.435138 1_656
Ba7 Pd7 3.447967 1_555
Ba7 Pd5 3.628539 1_556
Ba7 Pd6 3.671583 1_555
P0 Pd0 2.451664 1_655
P0 Pd6 2.455011 1_565
P0 Pd7 2.490105 1_555
P1 Pd1 2.451664 1_555
P1 Pd7 2.455011 1_555
P1 Pd6 2.490105 1_555
P2 Pd3 2.451664 1_555
P2 Pd2 2.455011 1_555
P2 Pd4 2.490105 1_555
P3 Pd5 2.451664 1_455
P3 Pd4 2.455011 1_545
P3 Pd2 2.490105 1_555
Pd0 Pd6 2.792010 1_565
Pd0 Pd7 3.261240 1_455
Pd1 Pd7 2.792010 1_455
Pd1 Pd6 3.261240 1_555
Pd2 Pd3 2.792010 1_455
Pd2 Pd5 3.261240 1_455
Pd3 Pd4 3.261240 1_555
Pd4 Pd5 2.792010 1_565
