# generated using pymatgen
data_V2PbO6
_symmetry_space_group_name_H-M   'P 1'
_cell_length_a   3.67847900
_cell_length_b   9.96348700
_cell_length_c   13.08921300
_cell_angle_alpha   90.00000000
_cell_angle_beta   90.00000000
_cell_angle_gamma   90.00000000
_symmetry_Int_Tables_number   1
_chemical_formula_structural   V2PbO6
_chemical_formula_sum   'V8 Pb4 O24'
_cell_volume   479.72590912
_cell_formula_units_Z   4
loop_
 _symmetry_equiv_pos_site_id
 _symmetry_equiv_pos_as_xyz
  1  'x, y, z'
loop_
 _atom_site_type_symbol
 _atom_site_label
 _atom_site_symmetry_multiplicity
 _atom_site_fract_x
 _atom_site_fract_y
 _atom_site_fract_z
 _atom_site_occupancy
  V  V0  1  0.25000000  0.74078400  0.90926400  1
  V  V1  1  0.25000000  0.50421600  0.12725700  1
  V  V2  1  0.75000000  0.49578400  0.87274300  1
  V  V3  1  0.75000000  0.25921600  0.09073600  1
  V  V4  1  0.75000000  0.75921600  0.40926400  1
  V  V5  1  0.25000000  0.00421600  0.37274300  1
  V  V6  1  0.25000000  0.24078400  0.59073600  1
  V  V7  1  0.75000000  0.99578400  0.62725700  1
  Pb  Pb0  1  0.75000000  0.36988400  0.38070900  1
  Pb  Pb1  1  0.25000000  0.13011600  0.88070900  1
  Pb  Pb2  1  0.75000000  0.86988400  0.11929100  1
  Pb  Pb3  1  0.25000000  0.63011600  0.61929100  1
  O  O0  1  0.75000000  0.52287300  0.74631600  1
  O  O1  1  0.75000000  0.69116700  0.93139100  1
  O  O2  1  0.75000000  0.10729900  0.02419700  1
  O  O3  1  0.75000000  0.96711400  0.41007600  1
  O  O4  1  0.75000000  0.19116700  0.56860900  1
  O  O5  1  0.75000000  0.32663700  0.89549100  1
  O  O6  1  0.25000000  0.80883300  0.43139100  1
  O  O7  1  0.25000000  0.47712700  0.25368400  1
  O  O8  1  0.75000000  0.22172000  0.21267500  1
  O  O9  1  0.75000000  0.60729900  0.47580300  1
  O  O10  1  0.25000000  0.89270100  0.97580300  1
  O  O11  1  0.75000000  0.72172000  0.28732500  1
  O  O12  1  0.25000000  0.97712700  0.24631600  1
  O  O13  1  0.25000000  0.30883300  0.06860900  1
  O  O14  1  0.25000000  0.39270100  0.52419700  1
  O  O15  1  0.25000000  0.27828000  0.71267500  1
  O  O16  1  0.25000000  0.17336300  0.39549100  1
  O  O17  1  0.75000000  0.02287300  0.75368400  1
  O  O18  1  0.25000000  0.77828000  0.78732500  1
  O  O19  1  0.75000000  0.82663700  0.60450900  1
  O  O20  1  0.25000000  0.03288600  0.58992400  1
  O  O21  1  0.75000000  0.46711400  0.08992400  1
  O  O22  1  0.25000000  0.67336300  0.10450900  1
  O  O23  1  0.25000000  0.53288600  0.91007600  1
loop_
_geom_bond_atom_site_label_1
_geom_bond_atom_site_label_2
_geom_bond_distance
_geom_bond_site_symmetry_2
O0 V2 1.676696 1_555
O0 Pb3 2.699806 1_655
O0 Pb3 2.699806 1_555
O1 V0 1.926415 1_655
O1 V0 1.926415 1_555
O1 V2 2.092587 1_555
O2 V3 1.746309 1_555
O2 Pb1 2.638544 1_554
O2 Pb1 2.638544 1_654
O2 Pb2 2.672975 1_545
O3 V5 1.938619 1_565
O3 V5 1.938619 1_665
O3 V4 2.071416 1_555
O4 V6 1.926415 1_555
O4 V6 1.926415 1_655
O4 V7 2.092587 1_545
O5 V2 1.711395 1_555
O5 Pb1 2.693351 1_655
O5 Pb1 2.693351 1_555
O6 V4 1.926415 1_455
O6 V4 1.926415 1_555
O6 V5 2.092587 1_565
O7 V1 1.676696 1_555
O7 Pb0 2.699806 1_455
O7 Pb0 2.699806 1_555
O8 V3 1.639225 1_555
O8 Pb0 2.648917 1_555
O9 V4 1.746309 1_555
O9 Pb3 2.638544 1_555
O9 Pb3 2.638544 1_655
O9 Pb0 2.672975 1_555
O10 V0 1.746309 1_555
O10 Pb2 2.638544 1_456
O10 Pb2 2.638544 1_556
O10 Pb1 2.672975 1_565
O11 V4 1.639225 1_555
O11 Pb2 2.648917 1_555
O12 V5 1.676696 1_565
O12 Pb2 2.699806 1_555
O12 Pb2 2.699806 1_455
O13 V3 1.926415 1_555
O13 V3 1.926415 1_455
O13 V1 2.092587 1_555
O14 V6 1.746309 1_555
O14 Pb0 2.638544 1_555
O14 Pb0 2.638544 1_455
O14 Pb3 2.672975 1_555
O15 V6 1.639225 1_555
O15 Pb1 2.648917 1_555
O16 V5 1.711395 1_555
O16 Pb0 2.693351 1_555
O16 Pb0 2.693351 1_455
O17 V7 1.676696 1_545
O17 Pb1 2.699806 1_555
O17 Pb1 2.699806 1_655
O18 V0 1.639225 1_555
O18 Pb3 2.648917 1_555
O19 V7 1.711395 1_555
O19 Pb3 2.693351 1_655
O19 Pb3 2.693351 1_555
O20 V7 1.938619 1_445
O20 V7 1.938619 1_545
O20 V6 2.071416 1_555
O21 V1 1.938619 1_555
O21 V1 1.938619 1_655
O21 V3 2.071416 1_555
O22 V1 1.711395 1_555
O22 Pb2 2.693351 1_455
O22 Pb2 2.693351 1_555
O23 V2 1.938619 1_555
O23 V2 1.938619 1_455
O23 V0 2.071416 1_555
