# generated using pymatgen
data_Tm2In8Co
_symmetry_space_group_name_H-M   'P 1'
_cell_length_a   4.58775800
_cell_length_b   4.58775800
_cell_length_c   12.18873400
_cell_angle_alpha   90.00000000
_cell_angle_beta   90.00000000
_cell_angle_gamma   90.00000000
_symmetry_Int_Tables_number   1
_chemical_formula_structural   Tm2In8Co
_chemical_formula_sum   'Tm2 In8 Co1'
_cell_volume   256.54266489
_cell_formula_units_Z   1
loop_
 _symmetry_equiv_pos_site_id
 _symmetry_equiv_pos_as_xyz
  1  'x, y, z'
loop_
 _atom_site_type_symbol
 _atom_site_label
 _atom_site_symmetry_multiplicity
 _atom_site_fract_x
 _atom_site_fract_y
 _atom_site_fract_z
 _atom_site_occupancy
  Tm  Tm0  1  0.50000000  0.50000000  0.30749800  1
  Tm  Tm1  1  0.50000000  0.50000000  0.69250200  1
  In  In0  1  0.50000000  0.00000000  0.11984800  1
  In  In1  1  0.00000000  0.50000000  0.11984800  1
  In  In2  1  0.00000000  0.00000000  0.69612500  1
  In  In3  1  0.00000000  0.50000000  0.88015200  1
  In  In4  1  0.00000000  0.00000000  0.30387500  1
  In  In5  1  0.50000000  0.00000000  0.50000000  1
  In  In6  1  0.50000000  0.00000000  0.88015200  1
  In  In7  1  0.00000000  0.50000000  0.50000000  1
  Co  Co0  1  0.50000000  0.50000000  0.00000000  1
loop_
_geom_bond_atom_site_label_1
_geom_bond_atom_site_label_2
_geom_bond_distance
_geom_bond_site_symmetry_2
In0 In6 2.921591 1_554
In0 In4 3.208299 1_655
In0 In4 3.208299 1_555
In0 Tm0 3.239327 1_555
In0 Tm0 3.239327 1_545
In0 In1 3.244035 1_655
In0 In1 3.244035 1_555
In0 In1 3.244035 1_645
In0 In1 3.244035 1_545
In1 In3 2.921591 1_554
In1 In4 3.208299 1_565
In1 In4 3.208299 1_555
In1 Tm0 3.239327 1_455
In1 Tm0 3.239327 1_555
In2 In6 3.208299 1_455
In2 In3 3.208299 1_555
In2 In3 3.208299 1_545
In2 In6 3.208299 1_555
In2 Tm1 3.244335 1_455
In2 Tm1 3.244335 1_445
In2 Tm1 3.244335 1_555
In2 Tm1 3.244335 1_545
In2 In7 3.313072 1_545
In2 In7 3.313072 1_555
In2 In5 3.313072 1_555
In2 In5 3.313072 1_455
In3 Tm1 3.239327 1_455
In3 Tm1 3.239327 1_555
In3 In6 3.244035 1_455
In3 In6 3.244035 1_555
In3 In6 3.244035 1_465
In3 In6 3.244035 1_565
In4 Tm0 3.244335 1_445
In4 Tm0 3.244335 1_455
In4 Tm0 3.244335 1_555
In4 Tm0 3.244335 1_545
In4 In7 3.313072 1_545
In4 In7 3.313072 1_555
In4 In5 3.313072 1_555
In4 In5 3.313072 1_455
In5 In7 3.244035 1_645
In5 In7 3.244035 1_555
In5 In7 3.244035 1_655
In5 In7 3.244035 1_545
In5 Tm1 3.281351 1_555
In5 Tm1 3.281351 1_545
In5 Tm0 3.281351 1_555
In5 Tm0 3.281351 1_545
In6 Tm1 3.239327 1_555
In6 Tm1 3.239327 1_545
In7 Tm1 3.281351 1_455
In7 Tm1 3.281351 1_555
In7 Tm0 3.281351 1_455
In7 Tm0 3.281351 1_555
Co0 In0 2.719523 1_555
Co0 In0 2.719523 1_565
Co0 In1 2.719523 1_555
Co0 In1 2.719523 1_655
Co0 In6 2.719523 1_564
Co0 In3 2.719523 1_554
Co0 In3 2.719523 1_654
Co0 In6 2.719523 1_554
