# generated using pymatgen
data_KAl(SO4)2
_symmetry_space_group_name_H-M   'P 1'
_cell_length_a   4.91019422
_cell_length_b   4.91019422
_cell_length_c   8.18428000
_cell_angle_alpha   90.00000000
_cell_angle_beta   90.00000000
_cell_angle_gamma   120.00000302
_symmetry_Int_Tables_number   1
_chemical_formula_structural   KAl(SO4)2
_chemical_formula_sum   'K1 Al1 S2 O8'
_cell_volume   170.88676944
_cell_formula_units_Z   1
loop_
 _symmetry_equiv_pos_site_id
 _symmetry_equiv_pos_as_xyz
  1  'x, y, z'
loop_
 _atom_site_type_symbol
 _atom_site_label
 _atom_site_symmetry_multiplicity
 _atom_site_fract_x
 _atom_site_fract_y
 _atom_site_fract_z
 _atom_site_occupancy
  K  K0  1  0.00000000  0.00000000  0.00000000  1
  Al  Al0  1  0.00000000  0.00000000  0.50000000  1
  S  S0  1  0.66666700  0.33333300  0.70582400  1
  S  S1  1  0.33333300  0.66666700  0.29417600  1
  O  O0  1  0.88365800  0.65617100  0.64480300  1
  O  O1  1  0.11634200  0.77251400  0.35519700  1
  O  O2  1  0.34382900  0.22748600  0.64480300  1
  O  O3  1  0.66666700  0.33333300  0.88426700  1
  O  O4  1  0.33333300  0.66666700  0.11573300  1
  O  O5  1  0.77251400  0.11634200  0.64480300  1
  O  O6  1  0.65617100  0.88365800  0.35519700  1
  O  O7  1  0.22748600  0.34382900  0.35519700  1
loop_
_geom_bond_atom_site_label_1
_geom_bond_atom_site_label_2
_geom_bond_distance
_geom_bond_site_symmetry_2
K0 O4 2.988950 1_545
K0 O3 2.988950 1_454
K0 O3 2.988954 1_554
K0 O3 2.988954 1_444
K0 O4 2.988954 1_555
K0 O4 2.988954 1_445
K0 O1 3.265419 1_545
K0 O5 3.265419 1_454
K0 O2 3.265421 1_554
K0 O7 3.265421 1_555
K0 O0 3.265421 1_444
K0 O6 3.265421 1_445
Al0 O5 1.901739 1_455
Al0 O1 1.901739 1_545
Al0 O2 1.901742 1_555
Al0 O7 1.901742 1_555
Al0 O0 1.901743 1_445
Al0 O6 1.901743 1_445
O0 S0 1.486105 1_555
O1 S1 1.486105 1_555
O2 S0 1.486105 1_555
O3 S0 1.460427 1_555
O4 S1 1.460427 1_555
O5 S0 1.486105 1_555
O6 S1 1.486105 1_555
O7 S1 1.486105 1_555
