# generated using pymatgen
data_Al2P3H11O13
_symmetry_space_group_name_H-M   'P 1'
_cell_length_a   10.04941400
_cell_length_b   7.72197000
_cell_length_c   8.18791974
_cell_angle_alpha   68.24775153
_cell_angle_beta   90.00000000
_cell_angle_gamma   90.00000000
_symmetry_Int_Tables_number   1
_chemical_formula_structural   Al2P3H11O13
_chemical_formula_sum   'Al4 P6 H22 O26'
_cell_volume   590.14984667
_cell_formula_units_Z   2
loop_
 _symmetry_equiv_pos_site_id
 _symmetry_equiv_pos_as_xyz
  1  'x, y, z'
loop_
 _atom_site_type_symbol
 _atom_site_label
 _atom_site_symmetry_multiplicity
 _atom_site_fract_x
 _atom_site_fract_y
 _atom_site_fract_z
 _atom_site_occupancy
  Al  Al0  1  0.14648700  0.56388500  0.97515800  1
  Al  Al1  1  0.42323200  0.08725100  0.63168800  1
  Al  Al2  1  0.64648700  0.43611500  0.02484200  1
  Al  Al3  1  0.92323200  0.91274900  0.36831200  1
  P  P0  1  0.41959500  0.74589600  0.00904200  1
  P  P1  1  0.91959500  0.25410400  0.99095800  1
  P  P2  1  0.62496500  0.04421400  0.34896400  1
  P  P3  1  0.86882000  0.71874500  0.08212200  1
  P  P4  1  0.12496500  0.95578600  0.65103600  1
  P  P5  1  0.36882000  0.28125500  0.91787800  1
  H  H0  1  0.59999700  0.96007200  0.22699600  1
  H  H1  1  0.18207200  0.79334100  0.37804900  1
  H  H2  1  0.82887700  0.85018400  0.91806800  1
  H  H3  1  0.09999700  0.03992800  0.77300400  1
  H  H4  1  0.32887700  0.14981600  0.08193200  1
  H  H5  1  0.59851500  0.21429300  0.78681800  1
  H  H6  1  0.58808500  0.73375200  0.76128100  1
  H  H7  1  0.94900300  0.13437800  0.90176700  1
  H  H8  1  0.38948100  0.44882800  0.46509100  1
  H  H9  1  0.09851500  0.78570700  0.21318200  1
  H  H10  1  0.80787600  0.39558500  0.37664200  1
  H  H11  1  0.46884500  0.37243400  0.33498200  1
  H  H12  1  0.22925900  0.32964600  0.29862900  1
  H  H13  1  0.08808500  0.26624800  0.23871900  1
  H  H14  1  0.39245000  0.76303900  0.48943200  1
  H  H15  1  0.30787600  0.60441500  0.62335800  1
  H  H16  1  0.96884500  0.62756600  0.66501800  1
  H  H17  1  0.88948100  0.55117200  0.53490900  1
  H  H18  1  0.44900300  0.86562200  0.09823300  1
  H  H19  1  0.72925900  0.67035400  0.70137100  1
  H  H20  1  0.89245000  0.23696100  0.51056800  1
  H  H21  1  0.68207200  0.20665900  0.62195100  1
  O  O0  1  0.60001700  0.16317600  0.69215300  1
  O  O1  1  0.62771400  0.25689500  0.25319900  1
  O  O2  1  0.01340900  0.42223700  0.91728800  1
  O  O3  1  0.27292900  0.69627600  0.05105200  1
  O  O4  1  0.65771800  0.63585000  0.78916500  1
  O  O5  1  0.51340900  0.57776300  0.08271200  1
  O  O6  1  0.01850100  0.68469600  0.06916500  1
  O  O7  1  0.40475900  0.33735800  0.43328200  1
  O  O8  1  0.33479200  0.65678500  0.49859400  1
  O  O9  1  0.15771800  0.36415000  0.21083500  1
  O  O10  1  0.83479200  0.34321500  0.50140600  1
  O  O11  1  0.00742400  0.01052700  0.52087600  1
  O  O12  1  0.10001700  0.83682400  0.30784700  1
  O  O13  1  0.28333600  0.45611600  0.88034000  1
  O  O14  1  0.51850100  0.31530400  0.93083500  1
  O  O15  1  0.94790400  0.14840100  0.18781400  1
  O  O16  1  0.44790400  0.85159900  0.81218600  1
  O  O17  1  0.25637500  0.03418000  0.55881300  1
  O  O18  1  0.12771400  0.74310500  0.74680100  1
  O  O19  1  0.50742400  0.98947300  0.47912400  1
  O  O20  1  0.90475900  0.66264200  0.56671800  1
  O  O21  1  0.34587100  0.19627000  0.77824000  1
  O  O22  1  0.78333600  0.54388400  0.11966000  1
  O  O23  1  0.75637500  0.96582000  0.44118700  1
  O  O24  1  0.84587100  0.80373000  0.22176000  1
  O  O25  1  0.77292900  0.30372400  0.94894800  1
loop_
_geom_bond_atom_site_label_1
_geom_bond_atom_site_label_2
_geom_bond_distance
_geom_bond_site_symmetry_2
Al0 O3 1.875301 1_556
Al0 O18 1.878556 1_555
Al0 O2 1.895676 1_555
Al0 O6 1.910306 1_556
Al0 O13 1.914540 1_555
Al0 O9 1.977209 1_556
Al1 O21 1.871289 1_555
Al1 O17 1.875352 1_555
Al1 O19 1.882940 1_545
Al1 O16 1.887768 1_545
Al1 O0 1.990035 1_555
Al1 O7 2.019429 1_555
Al2 O25 1.875301 1_554
Al2 O1 1.878556 1_555
Al2 O5 1.895676 1_555
Al2 O14 1.910306 1_554
Al2 O22 1.914540 1_555
Al2 O4 1.977209 1_554
Al3 O24 1.871289 1_555
Al3 O23 1.875352 1_555
Al3 O11 1.882940 1_665
Al3 O15 1.887768 1_565
Al3 O12 1.990035 1_655
Al3 O20 2.019429 1_555
H0 P2 1.401210 1_565
H1 O12 0.989984 1_555
H2 P3 1.408944 1_556
H3 P4 1.401210 1_545
H4 P5 1.408944 1_554
H5 O0 0.991766 1_555
H6 O4 0.992676 1_555
H7 P1 1.405641 1_555
H8 O7 0.999246 1_555
H9 O12 0.991766 1_555
H10 O10 0.986958 1_555
H11 O7 0.987102 1_555
H12 O9 0.981151 1_555
H13 O9 0.992676 1_555
H14 O8 0.984352 1_555
H15 O8 0.986958 1_555
H16 O20 0.987102 1_555
H17 O20 0.999246 1_555
H18 P0 1.405641 1_555
H19 O4 0.981151 1_555
H20 O10 0.984352 1_555
H21 O0 0.989984 1_555
O1 P2 1.535685 1_555
O2 P1 1.535529 1_455
O3 P0 1.529656 1_555
O5 P0 1.535529 1_555
O6 P3 1.537432 1_455
O11 P4 1.541381 1_545
O13 P5 1.532347 1_555
O14 P5 1.537432 1_555
O15 P1 1.539503 1_554
O16 P0 1.539503 1_556
O17 P4 1.530299 1_545
O18 P4 1.535685 1_555
O19 P2 1.541381 1_565
O21 P5 1.532064 1_555
O22 P3 1.532347 1_555
O23 P2 1.530299 1_565
O24 P3 1.532064 1_555
O25 P1 1.529656 1_555
