# generated using pymatgen
data_LaMg2NiH7
_symmetry_space_group_name_H-M   'P 1'
_cell_length_a   4.67481600
_cell_length_b   13.96806600
_cell_length_c   16.01520274
_cell_angle_alpha   54.58983630
_cell_angle_beta   90.00000000
_cell_angle_gamma   90.00000000
_symmetry_Int_Tables_number   1
_chemical_formula_structural   LaMg2NiH7
_chemical_formula_sum   'La8 Mg16 Ni8 H56'
_cell_volume   852.32295356
_cell_formula_units_Z   8
loop_
 _symmetry_equiv_pos_site_id
 _symmetry_equiv_pos_as_xyz
  1  'x, y, z'
loop_
 _atom_site_type_symbol
 _atom_site_label
 _atom_site_symmetry_multiplicity
 _atom_site_fract_x
 _atom_site_fract_y
 _atom_site_fract_z
 _atom_site_occupancy
  La  La0  1  0.76748900  0.78034800  0.50700100  1
  La  La1  1  0.26748900  0.21965200  0.99299900  1
  La  La2  1  0.23251100  0.21965200  0.49299900  1
  La  La3  1  0.73251100  0.78034800  0.00700100  1
  La  La4  1  0.75874900  0.71910100  0.78797700  1
  La  La5  1  0.25874900  0.28089900  0.71202300  1
  La  La6  1  0.24125100  0.28089900  0.21202300  1
  La  La7  1  0.74125100  0.71910100  0.28797700  1
  Mg  Mg0  1  0.25876900  0.90657100  0.59037300  1
  Mg  Mg1  1  0.75876900  0.09342900  0.90962700  1
  Mg  Mg2  1  0.74123100  0.09342900  0.40962700  1
  Mg  Mg3  1  0.24123100  0.90657100  0.09037300  1
  Mg  Mg4  1  0.25307800  0.89987500  0.78842400  1
  Mg  Mg5  1  0.75307800  0.10012500  0.71157600  1
  Mg  Mg6  1  0.74692200  0.10012500  0.21157600  1
  Mg  Mg7  1  0.24692200  0.89987500  0.28842400  1
  Mg  Mg8  1  0.23622800  0.59287600  0.49893700  1
  Mg  Mg9  1  0.73622800  0.40712400  0.00106300  1
  Mg  Mg10  1  0.76377200  0.40712400  0.50106300  1
  Mg  Mg11  1  0.26377200  0.59287600  0.99893700  1
  Mg  Mg12  1  0.26063100  0.59954100  0.69104900  1
  Mg  Mg13  1  0.76063100  0.40045900  0.80895100  1
  Mg  Mg14  1  0.73936900  0.40045900  0.30895100  1
  Mg  Mg15  1  0.23936900  0.59954100  0.19104900  1
  Ni  Ni0  1  0.77810900  0.99536000  0.61363500  1
  Ni  Ni1  1  0.27810900  0.00464000  0.88636500  1
  Ni  Ni2  1  0.22189100  0.00464000  0.38636500  1
  Ni  Ni3  1  0.72189100  0.99536000  0.11363500  1
  Ni  Ni4  1  0.72486300  0.50480900  0.60842800  1
  Ni  Ni5  1  0.22486300  0.49519100  0.89157200  1
  Ni  Ni6  1  0.27513700  0.49519100  0.39157200  1
  Ni  Ni7  1  0.77513700  0.50480900  0.10842800  1
  H  H0  1  0.72620900  0.89450300  0.59838800  1
  H  H1  1  0.22620900  0.10549700  0.90161200  1
  H  H2  1  0.27379100  0.10549700  0.40161200  1
  H  H3  1  0.77379100  0.89450300  0.09838800  1
  H  H4  1  0.69724100  0.12223000  0.51823900  1
  H  H5  1  0.19724100  0.87777000  0.98176100  1
  H  H6  1  0.30275900  0.87777000  0.48176100  1
  H  H7  1  0.80275900  0.12223000  0.01823900  1
  H  H8  1  0.09944900  0.01497200  0.63198000  1
  H  H9  1  0.59944900  0.98502800  0.86802000  1
  H  H10  1  0.90055100  0.98502800  0.36802000  1
  H  H11  1  0.40055100  0.01497200  0.13198000  1
  H  H12  1  0.63116100  0.95625100  0.71764100  1
  H  H13  1  0.13116100  0.04374900  0.78235900  1
  H  H14  1  0.36883900  0.04374900  0.28235900  1
  H  H15  1  0.86883900  0.95625100  0.21764100  1
  H  H16  1  0.72713100  0.60458800  0.48887800  1
  H  H17  1  0.22713100  0.39541200  0.01112200  1
  H  H18  1  0.27286900  0.39541200  0.51112200  1
  H  H19  1  0.77286900  0.60458800  0.98887800  1
  H  H20  1  0.78259300  0.37673000  0.64208400  1
  H  H21  1  0.28259300  0.62327000  0.85791600  1
  H  H22  1  0.21740700  0.62327000  0.35791600  1
  H  H23  1  0.71740700  0.37673000  0.14208400  1
  H  H24  1  0.40753300  0.48044900  0.65386000  1
  H  H25  1  0.90753300  0.51955100  0.84614000  1
  H  H26  1  0.59246700  0.51955100  0.34614000  1
  H  H27  1  0.09246700  0.48044900  0.15386000  1
  H  H28  1  0.86826500  0.55800200  0.66206000  1
  H  H29  1  0.36826500  0.44199800  0.83794000  1
  H  H30  1  0.13173500  0.44199800  0.33794000  1
  H  H31  1  0.63173500  0.55800200  0.16206000  1
  H  H32  1  0.26207600  0.70045000  0.53951700  1
  H  H33  1  0.76207600  0.29955000  0.96048300  1
  H  H34  1  0.73792400  0.29955000  0.46048300  1
  H  H35  1  0.23792400  0.70045000  0.03951700  1
  H  H36  1  0.01344000  0.73456800  0.65227200  1
  H  H37  1  0.51344000  0.26543200  0.84772800  1
  H  H38  1  0.98656000  0.26543200  0.34772800  1
  H  H39  1  0.48656000  0.73456800  0.15227200  1
  H  H40  1  0.26932100  0.79859700  0.73913200  1
  H  H41  1  0.76932100  0.20140300  0.76086800  1
  H  H42  1  0.73067900  0.20140300  0.26086800  1
  H  H43  1  0.23067900  0.79859700  0.23913200  1
  H  H44  1  0.49431500  0.76166200  0.88770400  1
  H  H45  1  0.99431500  0.23833800  0.61229600  1
  H  H46  1  0.50568500  0.23833800  0.11229600  1
  H  H47  1  0.00568500  0.76166200  0.38770400  1
  H  H48  1  0.53807600  0.71599400  0.65934700  1
  H  H49  1  0.03807600  0.28400600  0.84065300  1
  H  H50  1  0.46192400  0.28400600  0.34065300  1
  H  H51  1  0.96192400  0.71599400  0.15934700  1
  H  H52  1  0.96757400  0.78908800  0.87316600  1
  H  H53  1  0.46757400  0.21091200  0.62683400  1
  H  H54  1  0.03242600  0.21091200  0.12683400  1
  H  H55  1  0.53242600  0.78908800  0.37316600  1
loop_
_geom_bond_atom_site_label_1
_geom_bond_atom_site_label_2
_geom_bond_distance
_geom_bond_site_symmetry_2
H0 Ni0 1.581705 1_555
H0 Mg0 2.189726 1_555
H0 La4 2.573751 1_555
H0 La0 2.725115 1_555
H1 Ni1 1.581705 1_555
H1 Mg1 2.189726 1_455
H1 La5 2.573751 1_555
H1 La1 2.725115 1_555
H2 Ni2 1.581705 1_555
H2 Mg2 2.189726 1_555
H2 La6 2.573751 1_555
H2 La2 2.725115 1_555
H3 Ni3 1.581705 1_555
H3 Mg3 2.189726 1_655
H3 La7 2.573751 1_555
H3 La3 2.725115 1_555
H4 Ni0 1.574793 1_545
H4 Mg2 2.010154 1_555
H4 La2 2.469331 1_555
H4 La2 2.763905 1_655
H5 Ni1 1.574793 1_565
H5 Mg3 2.010154 1_556
H5 La3 2.469331 1_456
H5 La3 2.763905 1_556
H6 Ni2 1.574793 1_565
H6 Mg0 2.010154 1_555
H6 La0 2.469331 1_555
H6 La0 2.763905 1_455
H7 Ni3 1.574793 1_545
H7 Mg1 2.010154 1_554
H7 La1 2.469331 1_654
H7 La1 2.763905 1_554
H8 Ni0 1.584693 1_445
H8 Mg0 2.112015 1_545
H8 Mg4 2.170254 1_545
H8 La2 2.478011 1_555
H9 Ni1 1.584693 1_565
H9 Mg1 2.112015 1_565
H9 Mg5 2.170254 1_565
H9 La3 2.478011 1_556
H10 Ni2 1.584693 1_665
H10 Mg2 2.112015 1_565
H10 Mg6 2.170254 1_565
H10 La0 2.478011 1_555
H11 Ni3 1.584693 1_545
H11 Mg3 2.112015 1_545
H11 Mg7 2.170254 1_545
H11 La1 2.478011 1_554
H12 Ni0 1.578082 1_555
H12 Mg4 1.998656 1_555
H12 Mg5 2.036349 1_565
H12 La4 2.876343 1_555
H13 Ni1 1.578082 1_555
H13 Mg5 1.998656 1_455
H13 Mg4 2.036349 1_545
H13 La5 2.876343 1_555
H14 Ni2 1.578082 1_555
H14 Mg6 1.998656 1_555
H14 Mg7 2.036349 1_545
H14 La6 2.876343 1_555
H15 Ni3 1.578082 1_555
H15 Mg7 1.998656 1_655
H15 Mg6 2.036349 1_565
H15 La7 2.876343 1_555
H16 Ni4 1.586191 1_555
H16 Mg8 2.299707 1_555
H16 Mg8 2.384589 1_655
H16 La7 2.636477 1_555
H16 La0 2.640595 1_555
H17 Ni5 1.586191 1_554
H17 Mg9 2.299707 1_455
H17 Mg9 2.384589 1_555
H17 La6 2.636477 1_555
H17 La1 2.640595 1_554
H18 Ni6 1.586191 1_555
H18 Mg10 2.299707 1_555
H18 Mg10 2.384589 1_455
H18 La5 2.636477 1_555
H18 La2 2.640595 1_555
H19 Ni7 1.586191 1_556
H19 Mg11 2.299707 1_655
H19 Mg11 2.384589 1_555
H19 La4 2.636477 1_555
H19 La3 2.640595 1_556
H20 Ni4 1.564119 1_555
H20 Mg10 2.043911 1_555
H20 La5 2.502739 1_655
H20 La5 2.702938 1_555
H21 Ni5 1.564119 1_555
H21 Mg11 2.043911 1_555
H21 La4 2.502739 1_555
H21 La4 2.702938 1_455
H22 Ni6 1.564119 1_555
H22 Mg8 2.043911 1_555
H22 La7 2.502739 1_455
H22 La7 2.702938 1_555
H23 Ni7 1.564119 1_555
H23 Mg9 2.043911 1_555
H23 La6 2.502739 1_555
H23 La6 2.702938 1_655
H24 Ni4 1.599666 1_555
H24 Mg12 2.177535 1_555
H24 Mg8 2.179023 1_555
H24 La5 2.472212 1_555
H25 Ni5 1.599666 1_655
H25 Mg13 2.177535 1_555
H25 Mg9 2.179023 1_556
H25 La4 2.472212 1_555
H26 Ni6 1.599666 1_555
H26 Mg14 2.177535 1_555
H26 Mg10 2.179023 1_555
H26 La7 2.472212 1_555
H27 Ni7 1.599666 1_455
H27 Mg15 2.177535 1_555
H27 Mg11 2.179023 1_554
H27 La6 2.472212 1_555
H28 Ni4 1.574414 1_555
H28 Mg12 2.056403 1_655
H28 Mg13 2.151914 1_555
H28 La0 2.663970 1_555
H29 Ni5 1.574414 1_555
H29 Mg13 2.056403 1_555
H29 Mg12 2.151914 1_555
H29 La1 2.663970 1_555
H30 Ni6 1.574414 1_555
H30 Mg14 2.056403 1_455
H30 Mg15 2.151914 1_555
H30 La2 2.663970 1_555
H31 Ni7 1.574414 1_555
H31 Mg15 2.056403 1_555
H31 Mg14 2.151914 1_555
H31 La3 2.663970 1_555
H32 Mg8 1.956128 1_555
H32 Mg12 1.977930 1_555
H32 La0 2.487773 1_455
H32 La0 2.534878 1_555
H33 Mg9 1.956128 1_556
H33 Mg13 1.977930 1_555
H33 La1 2.487773 1_555
H33 La1 2.534878 1_655
H34 Mg10 1.956128 1_555
H34 Mg14 1.977930 1_555
H34 La2 2.487773 1_655
H34 La2 2.534878 1_555
H35 Mg11 1.956128 1_554
H35 Mg15 1.977930 1_555
H35 La3 2.487773 1_555
H35 La3 2.534878 1_455
H36 Mg12 1.980129 1_555
H36 Mg0 2.304393 1_555
H36 La0 2.328013 1_455
H36 La4 2.375622 1_455
H37 Mg13 1.980129 1_555
H37 Mg1 2.304393 1_555
H37 La1 2.328013 1_555
H37 La5 2.375622 1_555
H38 Mg14 1.980129 1_555
H38 Mg2 2.304393 1_555
H38 La2 2.328013 1_655
H38 La6 2.375622 1_655
H39 Mg15 1.980129 1_555
H39 Mg3 2.304393 1_555
H39 La3 2.328013 1_555
H39 La7 2.375622 1_555
H40 Mg0 1.946544 1_555
H40 Mg4 1.981002 1_555
H40 La4 2.464387 1_555
H40 La4 2.556420 1_455
H41 Mg1 1.946544 1_555
H41 Mg5 1.981002 1_555
H41 La5 2.464387 1_655
H41 La5 2.556420 1_555
H42 Mg2 1.946544 1_555
H42 Mg6 1.981002 1_555
H42 La6 2.464387 1_555
H42 La6 2.556420 1_655
H43 Mg3 1.946544 1_555
H43 Mg7 1.981002 1_555
H43 La7 2.464387 1_455
H43 La7 2.556420 1_555
H44 Mg4 1.992427 1_555
H44 Mg11 2.241936 1_555
H44 La4 2.352185 1_555
H44 La3 2.352914 1_556
H45 Mg5 1.992427 1_555
H45 Mg10 2.241936 1_555
H45 La5 2.352185 1_655
H45 La2 2.352914 1_655
H46 Mg6 1.992427 1_555
H46 Mg9 2.241936 1_555
H46 La6 2.352185 1_555
H46 La1 2.352914 1_554
H47 Mg7 1.992427 1_555
H47 Mg8 2.241936 1_555
H47 La7 2.352185 1_455
H47 La0 2.352914 1_455
H48 Mg12 1.904954 1_555
H48 La0 2.317219 1_555
H48 La4 2.326681 1_555
H49 Mg13 1.904954 1_455
H49 La1 2.317219 1_555
H49 La5 2.326681 1_555
H50 Mg14 1.904954 1_555
H50 La2 2.317219 1_555
H50 La6 2.326681 1_555
H51 Mg15 1.904954 1_655
H51 La3 2.317219 1_555
H51 La7 2.326681 1_555
H52 Mg4 1.893185 1_655
H52 La4 2.305567 1_555
H52 La3 2.348050 1_556
H53 Mg5 1.893185 1_555
H53 La5 2.305567 1_555
H53 La2 2.348050 1_555
H54 Mg6 1.893185 1_455
H54 La6 2.305567 1_555
H54 La1 2.348050 1_554
H55 Mg7 1.893185 1_555
H55 La7 2.305567 1_555
H55 La0 2.348050 1_555
