# generated using pymatgen
data_K2CdH4(SeO5)2
_symmetry_space_group_name_H-M   'P 1'
_cell_length_a   6.70858600
_cell_length_b   7.69968953
_cell_length_c   11.59073646
_cell_angle_alpha   72.15109725
_cell_angle_beta   74.46356278
_cell_angle_gamma   70.04296130
_symmetry_Int_Tables_number   1
_chemical_formula_structural   K2CdH4(SeO5)2
_chemical_formula_sum   'K4 Cd2 H8 Se4 O20'
_cell_volume   526.67796902
_cell_formula_units_Z   2
loop_
 _symmetry_equiv_pos_site_id
 _symmetry_equiv_pos_as_xyz
  1  'x, y, z'
loop_
 _atom_site_type_symbol
 _atom_site_label
 _atom_site_symmetry_multiplicity
 _atom_site_fract_x
 _atom_site_fract_y
 _atom_site_fract_z
 _atom_site_occupancy
  K  K0  1  0.79798600  0.74779500  0.40111900  1
  K  K1  1  0.20201400  0.25220500  0.59888100  1
  K  K2  1  0.72975400  0.26671300  0.07871900  1
  K  K3  1  0.27024600  0.73328700  0.92128100  1
  Cd  Cd0  1  0.75159600  0.97358200  0.74869600  1
  Cd  Cd1  1  0.24840400  0.02641800  0.25130400  1
  H  H0  1  0.69840200  0.36087500  0.65703200  1
  H  H1  1  0.30159800  0.63912500  0.34296800  1
  H  H2  1  0.66303500  0.31139600  0.80170000  1
  H  H3  1  0.33696500  0.68860400  0.19830000  1
  H  H4  1  0.64734000  0.66570000  0.70723500  1
  H  H5  1  0.35266000  0.33430000  0.29276500  1
  H  H6  1  0.83122300  0.58466000  0.79170900  1
  H  H7  1  0.16877700  0.41534000  0.20829100  1
  Se  Se0  1  0.73748900  0.76528400  0.08410400  1
  Se  Se1  1  0.26251100  0.23471600  0.91589600  1
  Se  Se2  1  0.73892300  0.23125200  0.42464000  1
  Se  Se3  1  0.26107700  0.76874800  0.57536000  1
  O  O0  1  0.95500300  0.60309400  0.13130200  1
  O  O1  1  0.04499700  0.39690600  0.86869800  1
  O  O2  1  0.56061600  0.66335600  0.07406300  1
  O  O3  1  0.43938400  0.33664400  0.92593700  1
  O  O4  1  0.81912000  0.90512900  0.94795200  1
  O  O5  1  0.18088000  0.09487100  0.05204800  1
  O  O6  1  0.62107900  0.90663100  0.18482200  1
  O  O7  1  0.37892100  0.09336900  0.81517800  1
  O  O8  1  0.87873000  0.34921700  0.45364400  1
  O  O9  1  0.12127000  0.65078300  0.54635600  1
  O  O10  1  0.50518800  0.37504200  0.38384600  1
  O  O11  1  0.49481200  0.62495800  0.61615400  1
  O  O12  1  0.68036600  0.06077000  0.54934400  1
  O  O13  1  0.31963400  0.93923000  0.45065600  1
  O  O14  1  0.87768800  0.12071500  0.30929200  1
  O  O15  1  0.12231200  0.87928500  0.69070800  1
  O  O16  1  0.77012800  0.28002900  0.72716600  1
  O  O17  1  0.22987200  0.71997100  0.27283400  1
  O  O18  1  0.69529600  0.68361400  0.77607600  1
  O  O19  1  0.30470400  0.31638600  0.22392400  1
loop_
_geom_bond_atom_site_label_1
_geom_bond_atom_site_label_2
_geom_bond_distance
_geom_bond_site_symmetry_2
K0 O6 2.813004 1_555
K0 O8 2.824695 1_555
K0 O17 2.848704 1_655
K0 O9 2.859112 1_655
K0 O11 2.897542 1_555
K0 O14 2.921163 1_565
K0 O13 3.017157 1_555
K0 O12 3.145662 1_565
K1 O7 2.813004 1_555
K1 O9 2.824695 1_555
K1 O16 2.848704 1_455
K1 O8 2.859112 1_455
K1 O10 2.897542 1_555
K1 O15 2.921163 1_545
K1 O12 3.017157 1_555
K1 O13 3.145662 1_545
K2 O3 2.787092 1_554
K2 O5 2.832226 1_655
K2 O2 2.860719 1_555
K2 O19 2.861653 1_555
K2 O14 2.865051 1_555
K2 O6 2.922352 1_545
K2 O1 2.932001 1_654
K3 O2 2.787092 1_556
K3 O4 2.832226 1_455
K3 O3 2.860719 1_555
K3 O18 2.861653 1_555
K3 O15 2.865051 1_555
K3 O7 2.922352 1_565
K3 O0 2.932001 1_456
Cd0 O18 2.303308 1_555
Cd0 O15 2.309774 1_655
Cd0 O12 2.332310 1_565
Cd0 O16 2.338346 1_565
Cd0 O4 2.338409 1_555
Cd0 O7 2.350451 1_565
Cd1 O19 2.303308 1_555
Cd1 O14 2.309774 1_455
Cd1 O13 2.332310 1_545
Cd1 O17 2.338346 1_545
Cd1 O5 2.338409 1_555
Cd1 O6 2.350451 1_545
H0 O16 0.987276 1_555
H1 O17 0.987276 1_555
H2 O16 0.998892 1_555
H3 O17 0.998892 1_555
H4 O18 0.997234 1_555
H5 O19 0.997234 1_555
H6 O18 0.987156 1_555
H7 O19 0.987156 1_555
O0 Se0 1.659217 1_555
O1 Se1 1.659217 1_555
O2 Se0 1.674240 1_555
O3 Se1 1.674240 1_555
O4 Se0 1.687490 1_556
O5 Se1 1.687490 1_554
O6 Se0 1.693346 1_555
O7 Se1 1.693346 1_555
O8 Se2 1.659911 1_555
O9 Se3 1.659911 1_555
O10 Se2 1.673097 1_555
O11 Se3 1.673097 1_555
O12 Se2 1.688591 1_555
O13 Se3 1.688591 1_555
O14 Se2 1.693641 1_555
O15 Se3 1.693641 1_555
