# generated using pymatgen
data_H22IrC3(N3O4)2
_symmetry_space_group_name_H-M   'P 1'
_cell_length_a   9.70501300
_cell_length_b   10.42605300
_cell_length_c   13.47259500
_cell_angle_alpha   90.00000000
_cell_angle_beta   90.00000000
_cell_angle_gamma   90.00000000
_symmetry_Int_Tables_number   1
_chemical_formula_structural   H22IrC3(N3O4)2
_chemical_formula_sum   'H88 Ir4 C12 N24 O32'
_cell_volume   1363.22425433
_cell_formula_units_Z   4
loop_
 _symmetry_equiv_pos_site_id
 _symmetry_equiv_pos_as_xyz
  1  'x, y, z'
loop_
 _atom_site_type_symbol
 _atom_site_label
 _atom_site_symmetry_multiplicity
 _atom_site_fract_x
 _atom_site_fract_y
 _atom_site_fract_z
 _atom_site_occupancy
  H  H0  1  0.64705200  0.00690200  0.83335000  1
  H  H1  1  0.35294800  0.99309800  0.83335000  1
  H  H2  1  0.14705200  0.49309800  0.66665000  1
  H  H3  1  0.85294800  0.50690200  0.66665000  1
  H  H4  1  0.35294800  0.99309800  0.16665000  1
  H  H5  1  0.64705200  0.00690200  0.16665000  1
  H  H6  1  0.85294800  0.50690200  0.33335000  1
  H  H7  1  0.14705200  0.49309800  0.33335000  1
  H  H8  1  0.59703300  0.85426100  0.85100600  1
  H  H9  1  0.40296700  0.14573900  0.85100600  1
  H  H10  1  0.09703300  0.64573900  0.64899400  1
  H  H11  1  0.90296700  0.35426100  0.64899400  1
  H  H12  1  0.40296700  0.14573900  0.14899400  1
  H  H13  1  0.59703300  0.85426100  0.14899400  1
  H  H14  1  0.90296700  0.35426100  0.35100600  1
  H  H15  1  0.09703300  0.64573900  0.35100600  1
  H  H16  1  0.72843200  0.91407700  0.91544100  1
  H  H17  1  0.27156800  0.08592300  0.91544100  1
  H  H18  1  0.22843200  0.58592300  0.58455900  1
  H  H19  1  0.77156800  0.41407700  0.58455900  1
  H  H20  1  0.27156800  0.08592300  0.08455900  1
  H  H21  1  0.72843200  0.91407700  0.08455900  1
  H  H22  1  0.77156800  0.41407700  0.41544100  1
  H  H23  1  0.22843200  0.58592300  0.41544100  1
  H  H24  1  0.55085700  0.23910600  0.93939100  1
  H  H25  1  0.44914300  0.76089400  0.93939100  1
  H  H26  1  0.05085700  0.26089400  0.56060900  1
  H  H27  1  0.94914300  0.73910600  0.56060900  1
  H  H28  1  0.44914300  0.76089400  0.06060900  1
  H  H29  1  0.55085700  0.23910600  0.06060900  1
  H  H30  1  0.94914300  0.73910600  0.43939100  1
  H  H31  1  0.05085700  0.26089400  0.43939100  1
  H  H32  1  0.68821600  0.18105800  0.00000000  1
  H  H33  1  0.31178400  0.81894200  0.00000000  1
  H  H34  1  0.18821600  0.31894200  0.50000000  1
  H  H35  1  0.81178400  0.68105800  0.50000000  1
  H  H36  1  0.01896600  0.35150800  0.84019400  1
  H  H37  1  0.98103400  0.64849200  0.84019400  1
  H  H38  1  0.51896600  0.14849200  0.65980600  1
  H  H39  1  0.48103400  0.85150800  0.65980600  1
  H  H40  1  0.98103400  0.64849200  0.15980600  1
  H  H41  1  0.01896600  0.35150800  0.15980600  1
  H  H42  1  0.48103400  0.85150800  0.34019400  1
  H  H43  1  0.51896600  0.14849200  0.34019400  1
  H  H44  1  0.91572200  0.27841000  0.92208100  1
  H  H45  1  0.08427800  0.72159000  0.92208100  1
  H  H46  1  0.41572200  0.22159000  0.57791900  1
  H  H47  1  0.58427800  0.77841000  0.57791900  1
  H  H48  1  0.08427800  0.72159000  0.07791900  1
  H  H49  1  0.91572200  0.27841000  0.07791900  1
  H  H50  1  0.58427800  0.77841000  0.42208100  1
  H  H51  1  0.41572200  0.22159000  0.42208100  1
  H  H52  1  0.85330800  0.39575100  0.85277500  1
  H  H53  1  0.14669200  0.60424900  0.85277500  1
  H  H54  1  0.35330800  0.10424900  0.64722500  1
  H  H55  1  0.64669200  0.89575100  0.64722500  1
  H  H56  1  0.14669200  0.60424900  0.14722500  1
  H  H57  1  0.85330800  0.39575100  0.14722500  1
  H  H58  1  0.64669200  0.89575100  0.35277500  1
  H  H59  1  0.35330800  0.10424900  0.35277500  1
  H  H60  1  0.74682700  0.57149600  0.93877700  1
  H  H61  1  0.25317300  0.42850400  0.93877700  1
  H  H62  1  0.24682700  0.92850400  0.56122300  1
  H  H63  1  0.75317300  0.07149600  0.56122300  1
  H  H64  1  0.25317300  0.42850400  0.06122300  1
  H  H65  1  0.74682700  0.57149600  0.06122300  1
  H  H66  1  0.75317300  0.07149600  0.43877700  1
  H  H67  1  0.24682700  0.92850400  0.43877700  1
  H  H68  1  0.82400400  0.69059500  0.00000000  1
  H  H69  1  0.17599600  0.30940500  0.00000000  1
  H  H70  1  0.32400400  0.80940500  0.50000000  1
  H  H71  1  0.67599600  0.19059500  0.50000000  1
  H  H72  1  0.76746500  0.14901100  0.73007400  1
  H  H73  1  0.23253500  0.85098900  0.73007400  1
  H  H74  1  0.26746500  0.35098900  0.76992600  1
  H  H75  1  0.73253500  0.64901100  0.76992600  1
  H  H76  1  0.23253500  0.85098900  0.26992600  1
  H  H77  1  0.76746500  0.14901100  0.26992600  1
  H  H78  1  0.73253500  0.64901100  0.23007400  1
  H  H79  1  0.26746500  0.35098900  0.23007400  1
  H  H80  1  0.66096100  0.24172000  0.78449900  1
  H  H81  1  0.33903900  0.75828100  0.78449900  1
  H  H82  1  0.16096100  0.25828100  0.71550100  1
  H  H83  1  0.83903900  0.74171900  0.71550100  1
  H  H84  1  0.33903900  0.75828100  0.21550100  1
  H  H85  1  0.66096100  0.24172000  0.21550100  1
  H  H86  1  0.83903900  0.74171900  0.28449900  1
  H  H87  1  0.16096100  0.25828100  0.28449900  1
  Ir  Ir0  1  0.50000000  0.00000000  0.00000000  1
  Ir  Ir1  1  0.00000000  0.50000000  0.50000000  1
  Ir  Ir2  1  0.00000000  0.50000000  0.00000000  1
  Ir  Ir3  1  0.50000000  0.00000000  0.50000000  1
  C  C0  1  0.99835900  0.07537700  0.00000000  1
  C  C1  1  0.00164100  0.92462300  0.00000000  1
  C  C2  1  0.49835900  0.42462300  0.50000000  1
  C  C3  1  0.50164100  0.57537700  0.50000000  1
  C  C4  1  0.52332400  0.42807800  0.82716900  1
  C  C5  1  0.47667600  0.57192100  0.82716900  1
  C  C6  1  0.02332400  0.07192200  0.67283100  1
  C  C7  1  0.97667600  0.92807900  0.67283100  1
  C  C8  1  0.47667600  0.57192100  0.17283100  1
  C  C9  1  0.52332400  0.42807800  0.17283100  1
  C  C10  1  0.97667600  0.92807900  0.32716900  1
  C  C11  1  0.02332400  0.07192200  0.32716900  1
  N  N0  1  0.63289900  0.93562500  0.88607100  1
  N  N1  1  0.36710100  0.06437500  0.88607100  1
  N  N2  1  0.13289900  0.56437500  0.61392900  1
  N  N3  1  0.86710100  0.43562500  0.61392900  1
  N  N4  1  0.36710100  0.06437500  0.11392900  1
  N  N5  1  0.63289900  0.93562500  0.11392900  1
  N  N6  1  0.86710100  0.43562500  0.38607100  1
  N  N7  1  0.13289900  0.56437500  0.38607100  1
  N  N8  1  0.58236100  0.18654600  0.00000000  1
  N  N9  1  0.41763900  0.81345400  0.00000000  1
  N  N10  1  0.08236100  0.31345400  0.50000000  1
  N  N11  1  0.91763900  0.68654600  0.50000000  1
  N  N12  1  0.93978100  0.36634100  0.89047900  1
  N  N13  1  0.06021900  0.63365900  0.89047900  1
  N  N14  1  0.43978100  0.13365900  0.60952100  1
  N  N15  1  0.56021900  0.86634100  0.60952100  1
  N  N16  1  0.06021900  0.63365900  0.10952100  1
  N  N17  1  0.93978100  0.36634100  0.10952100  1
  N  N18  1  0.56021900  0.86634100  0.39047900  1
  N  N19  1  0.43978100  0.13365900  0.39047900  1
  N  N20  1  0.80618600  0.59241500  0.00000000  1
  N  N21  1  0.19381400  0.40758500  0.00000000  1
  N  N22  1  0.30618600  0.90758500  0.50000000  1
  N  N23  1  0.69381400  0.09241500  0.50000000  1
  O  O0  1  0.88050200  0.12826000  0.00000000  1
  O  O1  1  0.11949800  0.87174000  0.00000000  1
  O  O2  1  0.38050200  0.37174000  0.50000000  1
  O  O3  1  0.61949800  0.62826000  0.50000000  1
  O  O4  1  0.11281800  0.13422700  0.00000000  1
  O  O5  1  0.88718200  0.86577300  0.00000000  1
  O  O6  1  0.61281800  0.36577300  0.50000000  1
  O  O7  1  0.38718200  0.63422700  0.50000000  1
  O  O8  1  0.65212900  0.40580300  0.82472700  1
  O  O9  1  0.34787100  0.59419700  0.82472700  1
  O  O10  1  0.15212900  0.09419700  0.67527300  1
  O  O11  1  0.84787100  0.90580300  0.67527300  1
  O  O12  1  0.34787100  0.59419700  0.17527300  1
  O  O13  1  0.65212900  0.40580300  0.17527300  1
  O  O14  1  0.84787100  0.90580300  0.32472700  1
  O  O15  1  0.15212900  0.09419700  0.32472700  1
  O  O16  1  0.43046600  0.34245600  0.83240500  1
  O  O17  1  0.56953400  0.65754400  0.83240500  1
  O  O18  1  0.93046600  0.15754400  0.66759500  1
  O  O19  1  0.06953400  0.84245600  0.66759500  1
  O  O20  1  0.56953400  0.65754400  0.16759500  1
  O  O21  1  0.43046600  0.34245600  0.16759500  1
  O  O22  1  0.06953400  0.84245600  0.33240500  1
  O  O23  1  0.93046600  0.15754400  0.33240500  1
  O  O24  1  0.67213000  0.15378600  0.75692000  1
  O  O25  1  0.32787000  0.84621400  0.75692000  1
  O  O26  1  0.17213000  0.34621400  0.74308000  1
  O  O27  1  0.82787000  0.65378600  0.74308000  1
  O  O28  1  0.32787000  0.84621400  0.24308000  1
  O  O29  1  0.67213000  0.15378600  0.24308000  1
  O  O30  1  0.82787000  0.65378600  0.25692000  1
  O  O31  1  0.17213000  0.34621400  0.25692000  1
loop_
_geom_bond_atom_site_label_1
_geom_bond_atom_site_label_2
_geom_bond_distance
_geom_bond_site_symmetry_2
H0 N0 1.037126 1_545
H1 N1 1.037126 1_565
H2 N2 1.037126 1_555
H3 N3 1.037126 1_555
H4 N4 1.037126 1_565
H5 N5 1.037126 1_545
H6 N6 1.037126 1_555
H7 N7 1.037126 1_555
H8 N0 1.031484 1_555
H9 N1 1.031484 1_555
H10 N2 1.031484 1_555
H11 N3 1.031484 1_555
H12 N4 1.031484 1_555
H13 N5 1.031484 1_555
H14 N6 1.031484 1_555
H15 N7 1.031484 1_555
H16 N0 1.032787 1_555
H17 N1 1.032787 1_555
H18 N2 1.032787 1_555
H19 N3 1.032787 1_555
H20 N4 1.032787 1_555
H21 N5 1.032787 1_555
H22 N6 1.032787 1_555
H23 N7 1.032787 1_555
H24 N8 1.029830 1_556
H25 N9 1.029830 1_556
H26 N10 1.029830 1_555
H27 N11 1.029830 1_555
H28 N9 1.029830 1_555
H29 N8 1.029830 1_555
H30 N11 1.029830 1_555
H31 N10 1.029830 1_555
H32 N8 1.028916 1_555
H33 N9 1.028916 1_555
H34 N10 1.028916 1_555
H35 N11 1.028916 1_555
H36 N12 1.036079 1_455
H37 N13 1.036079 1_655
H38 N14 1.036079 1_555
H39 N15 1.036079 1_555
H40 N16 1.036079 1_655
H41 N17 1.036079 1_455
H42 N18 1.036079 1_555
H43 N19 1.036079 1_555
H44 N12 1.037432 1_555
H45 N13 1.037432 1_555
H46 N14 1.037432 1_555
H47 N15 1.037432 1_555
H48 N16 1.037432 1_555
H49 N17 1.037432 1_555
H50 N18 1.037432 1_555
H51 N19 1.037432 1_555
H52 N12 1.027789 1_555
H53 N13 1.027789 1_555
H54 N14 1.027789 1_555
H55 N15 1.027789 1_555
H56 N16 1.027789 1_555
H57 N17 1.027789 1_555
H58 N18 1.027789 1_555
H59 N19 1.027789 1_555
H60 N20 1.029459 1_556
H61 N21 1.029459 1_556
H62 N22 1.029459 1_555
H63 N23 1.029459 1_555
H64 N21 1.029459 1_555
H65 N20 1.029459 1_555
H66 N23 1.029459 1_555
H67 N22 1.029459 1_555
H68 N20 1.038133 1_555
H69 N21 1.038133 1_555
H70 N22 1.038133 1_555
H71 N23 1.038133 1_555
H72 O24 0.994656 1_555
H73 O25 0.994656 1_555
H74 O26 0.994656 1_555
H75 O27 0.994656 1_555
H76 O28 0.994656 1_555
H77 O29 0.994656 1_555
H78 O30 0.994656 1_555
H79 O31 0.994656 1_555
H80 O24 0.995157 1_555
H81 O25 0.995147 1_555
H82 O26 0.995147 1_555
H83 O27 0.995147 1_555
H84 O28 0.995147 1_555
H85 O29 0.995157 1_555
H86 O30 0.995147 1_555
H87 O31 0.995147 1_555
Ir0 N8 2.102781 1_555
Ir0 N9 2.102781 1_545
Ir0 N4 2.114239 1_555
Ir0 N5 2.114239 1_545
Ir0 N1 2.114239 1_554
Ir0 N0 2.114239 1_544
Ir1 N10 2.102781 1_555
Ir1 N11 2.102781 1_455
Ir1 N2 2.114239 1_555
Ir1 N3 2.114239 1_455
Ir1 N7 2.114239 1_555
Ir1 N6 2.114239 1_455
Ir2 N16 2.112035 1_555
Ir2 N13 2.112035 1_554
Ir2 N17 2.112035 1_455
Ir2 N12 2.112035 1_454
Ir2 N21 2.113390 1_555
Ir2 N20 2.113390 1_455
Ir3 N14 2.112035 1_555
Ir3 N15 2.112035 1_545
Ir3 N19 2.112035 1_555
Ir3 N18 2.112035 1_545
Ir3 N23 2.113390 1_555
Ir3 N22 2.113390 1_545
C0 O4 1.269018 1_655
C0 O0 1.269758 1_555
C1 O5 1.269018 1_455
C1 O1 1.269758 1_555
C2 O6 1.269018 1_555
C2 O2 1.269758 1_555
C3 O7 1.269018 1_555
C3 O3 1.269758 1_555
C4 O16 1.270444 1_555
C4 O8 1.271870 1_555
C5 O17 1.270452 1_555
C5 O9 1.271872 1_555
C6 O18 1.270444 1_455
C6 O10 1.271870 1_555
C7 O19 1.270452 1_655
C7 O11 1.271872 1_555
C8 O20 1.270452 1_555
C8 O12 1.271872 1_555
C9 O21 1.270444 1_555
C9 O13 1.271870 1_555
C10 O22 1.270452 1_655
C10 O14 1.271872 1_555
C11 O23 1.270444 1_455
C11 O15 1.271870 1_555
