# generated using pymatgen
data_Mo3H8C4SN2Cl6O7
_symmetry_space_group_name_H-M   'P 1'
_cell_length_a   15.30936900
_cell_length_b   11.03537000
_cell_length_c   12.61107006
_cell_angle_alpha   89.63918750
_cell_angle_beta   90.00000000
_cell_angle_gamma   90.00000000
_symmetry_Int_Tables_number   1
_chemical_formula_structural   Mo3H8C4SN2Cl6O7
_chemical_formula_sum   'Mo12 H32 C16 S4 N8 Cl24 O28'
_cell_volume   2130.52932745
_cell_formula_units_Z   4
loop_
 _symmetry_equiv_pos_site_id
 _symmetry_equiv_pos_as_xyz
  1  'x, y, z'
loop_
 _atom_site_type_symbol
 _atom_site_label
 _atom_site_symmetry_multiplicity
 _atom_site_fract_x
 _atom_site_fract_y
 _atom_site_fract_z
 _atom_site_occupancy
  Mo  Mo0  1  0.31069100  0.64912900  0.57210500  1
  Mo  Mo1  1  0.81069100  0.35087100  0.92789500  1
  Mo  Mo2  1  0.68930900  0.35087100  0.42789500  1
  Mo  Mo3  1  0.18930900  0.64912900  0.07210500  1
  Mo  Mo4  1  0.10772900  0.75831100  0.57108600  1
  Mo  Mo5  1  0.60772900  0.24168900  0.92891400  1
  Mo  Mo6  1  0.89227100  0.24168900  0.42891400  1
  Mo  Mo7  1  0.39227100  0.75831100  0.07108600  1
  Mo  Mo8  1  0.28166900  0.94784900  0.55107800  1
  Mo  Mo9  1  0.78166900  0.05215100  0.94892200  1
  Mo  Mo10  1  0.71833100  0.05215100  0.44892200  1
  Mo  Mo11  1  0.21833100  0.94784900  0.05107800  1
  H  H0  1  0.24405500  0.21069200  0.75386500  1
  H  H1  1  0.74405500  0.78930800  0.74613500  1
  H  H2  1  0.75594500  0.78930800  0.24613500  1
  H  H3  1  0.25594500  0.21069200  0.25386500  1
  H  H4  1  0.23683900  0.22387200  0.89215600  1
  H  H5  1  0.73683900  0.77612800  0.60784400  1
  H  H6  1  0.76316100  0.77612800  0.10784400  1
  H  H7  1  0.26316100  0.22387200  0.39215600  1
  H  H8  1  0.03660800  0.39385300  0.87819700  1
  H  H9  1  0.53660800  0.60614700  0.62180300  1
  H  H10  1  0.96339200  0.60614700  0.12180300  1
  H  H11  1  0.46339200  0.39385300  0.37819700  1
  H  H12  1  0.12519800  0.36166400  0.96176600  1
  H  H13  1  0.62519800  0.63833600  0.53823400  1
  H  H14  1  0.87480200  0.63833600  0.03823400  1
  H  H15  1  0.37480200  0.36166400  0.46176600  1
  H  H16  1  0.14076500  0.45165500  0.39202500  1
  H  H17  1  0.64076500  0.54834500  0.10797500  1
  H  H18  1  0.85923500  0.54834500  0.60797500  1
  H  H19  1  0.35923500  0.45165500  0.89202500  1
  H  H20  1  0.07785000  0.03116800  0.35125600  1
  H  H21  1  0.57785000  0.96883200  0.14874400  1
  H  H22  1  0.92215000  0.96883200  0.64874400  1
  H  H23  1  0.42215000  0.03116800  0.85125600  1
  H  H24  1  0.48051200  0.80669400  0.36687300  1
  H  H25  1  0.98051200  0.19330600  0.13312700  1
  H  H26  1  0.51948800  0.19330600  0.63312700  1
  H  H27  1  0.01948800  0.80669400  0.86687300  1
  H  H28  1  0.09306400  0.19412900  0.66017100  1
  H  H29  1  0.59306400  0.80587100  0.83982900  1
  H  H30  1  0.90693600  0.80587100  0.33982900  1
  H  H31  1  0.40693600  0.19412900  0.16017100  1
  C  C0  1  0.16087600  0.52613500  0.44506500  1
  C  C1  1  0.66087600  0.47386500  0.05493500  1
  C  C2  1  0.83912400  0.47386500  0.55493500  1
  C  C3  1  0.33912400  0.52613500  0.94506500  1
  C  C4  1  0.11301800  0.97667300  0.41134600  1
  C  C5  1  0.61301800  0.02332700  0.08865400  1
  C  C6  1  0.88698200  0.02332700  0.58865400  1
  C  C7  1  0.38698200  0.97667300  0.91134600  1
  C  C8  1  0.42516500  0.80632300  0.42274600  1
  C  C9  1  0.92516500  0.19367700  0.07725400  1
  C  C10  1  0.57483500  0.19367700  0.57725400  1
  C  C11  1  0.07483500  0.80632300  0.92274600  1
  C  C12  1  0.13587900  0.30045800  0.80836100  1
  C  C13  1  0.63587900  0.69954200  0.69163900  1
  C  C14  1  0.86412100  0.69954200  0.19163900  1
  C  C15  1  0.36412100  0.30045800  0.30836100  1
  S  S0  1  0.08427900  0.31315600  0.68381300  1
  S  S1  1  0.58427900  0.68684400  0.81618700  1
  S  S2  1  0.91572100  0.68684400  0.31618700  1
  S  S3  1  0.41572100  0.31315600  0.18381300  1
  N  N0  1  0.21057800  0.24092200  0.81907700  1
  N  N1  1  0.71057800  0.75907800  0.68092300  1
  N  N2  1  0.78942200  0.75907800  0.18092300  1
  N  N3  1  0.28942200  0.24092200  0.31907700  1
  N  N4  1  0.09710600  0.35599000  0.88845800  1
  N  N5  1  0.59710600  0.64401000  0.61154200  1
  N  N6  1  0.90289400  0.64401000  0.11154200  1
  N  N7  1  0.40289400  0.35599000  0.38845800  1
  Cl  Cl0  1  0.15251200  0.94510700  0.67802600  1
  Cl  Cl1  1  0.65251200  0.05489300  0.82197400  1
  Cl  Cl2  1  0.84748800  0.05489300  0.32197400  1
  Cl  Cl3  1  0.34748800  0.94510700  0.17802600  1
  Cl  Cl4  1  0.37150200  0.81802700  0.68351800  1
  Cl  Cl5  1  0.87150200  0.18197300  0.81648200  1
  Cl  Cl6  1  0.62849800  0.18197300  0.31648200  1
  Cl  Cl7  1  0.12849800  0.81802700  0.18351800  1
  Cl  Cl8  1  0.19074300  0.61799900  0.70325900  1
  Cl  Cl9  1  0.69074300  0.38200100  0.79674100  1
  Cl  Cl10  1  0.80925700  0.38200100  0.29674100  1
  Cl  Cl11  1  0.30925700  0.61799900  0.20325900  1
  Cl  Cl12  1  0.40279200  0.49499100  0.64506000  1
  Cl  Cl13  1  0.90279200  0.50500900  0.85494000  1
  Cl  Cl14  1  0.59720800  0.50500900  0.35494000  1
  Cl  Cl15  1  0.09720800  0.49499100  0.14506000  1
  Cl  Cl16  1  0.96457900  0.73473000  0.65004600  1
  Cl  Cl17  1  0.46457900  0.26527000  0.84995400  1
  Cl  Cl18  1  0.03542100  0.26527000  0.34995400  1
  Cl  Cl19  1  0.53542100  0.73473000  0.15004600  1
  Cl  Cl20  1  0.32910600  0.15158500  0.60405300  1
  Cl  Cl21  1  0.82910600  0.84841500  0.89594700  1
  Cl  Cl22  1  0.67089400  0.84841500  0.39594700  1
  Cl  Cl23  1  0.17089400  0.15158500  0.10405300  1
  O  O0  1  0.23556700  0.77507800  0.51613600  1
  O  O1  1  0.73556700  0.22492200  0.98386400  1
  O  O2  1  0.76443300  0.22492200  0.48386400  1
  O  O3  1  0.26443300  0.77507800  0.01613600  1
  O  O4  1  0.24159100  0.52544900  0.47351900  1
  O  O5  1  0.74159100  0.47455100  0.02648100  1
  O  O6  1  0.75840900  0.47455100  0.52648100  1
  O  O7  1  0.25840900  0.52544900  0.97351900  1
  O  O8  1  0.10158900  0.60023100  0.47067000  1
  O  O9  1  0.60158900  0.39976900  0.02933000  1
  O  O10  1  0.89841100  0.39976900  0.52933000  1
  O  O11  1  0.39841100  0.60023100  0.97067000  1
  O  O12  1  0.07212500  0.88532500  0.44898800  1
  O  O13  1  0.57212500  0.11467500  0.05101200  1
  O  O14  1  0.92787500  0.11467500  0.55101200  1
  O  O15  1  0.42787500  0.88532500  0.94898800  1
  O  O16  1  0.18904800  0.01527900  0.43544500  1
  O  O17  1  0.68904800  0.98472100  0.06455500  1
  O  O18  1  0.81095200  0.98472100  0.56455500  1
  O  O19  1  0.31095200  0.01527900  0.93544500  1
  O  O20  1  0.38962100  0.90676600  0.44407900  1
  O  O21  1  0.88962100  0.09323400  0.05592100  1
  O  O22  1  0.61037900  0.09323400  0.55592100  1
  O  O23  1  0.11037900  0.90676600  0.94407900  1
  O  O24  1  0.40439200  0.70032900  0.45910600  1
  O  O25  1  0.90439200  0.29967100  0.04089400  1
  O  O26  1  0.59560800  0.29967100  0.54089400  1
  O  O27  1  0.09560800  0.70032900  0.95910600  1
loop_
_geom_bond_atom_site_label_1
_geom_bond_atom_site_label_2
_geom_bond_distance
_geom_bond_site_symmetry_2
Mo0 O0 1.934005 1_555
Mo0 O24 2.097053 1_555
Mo0 O4 2.132847 1_555
Mo1 O1 1.934005 1_555
Mo1 O25 2.097053 1_556
Mo1 O5 2.132847 1_556
Mo2 O2 1.934005 1_555
Mo2 O26 2.097053 1_555
Mo2 O6 2.132847 1_555
Mo3 O3 1.934005 1_555
Mo3 O27 2.097053 1_554
Mo3 O7 2.132847 1_554
Mo4 O0 2.084024 1_555
Mo4 O12 2.146038 1_555
Mo4 O8 2.164137 1_555
Mo5 O1 2.084024 1_555
Mo5 O13 2.146038 1_556
Mo5 O9 2.164137 1_556
Mo6 O2 2.084024 1_555
Mo6 O14 2.146038 1_555
Mo6 O10 2.164137 1_555
Mo7 O3 2.084024 1_555
Mo7 O15 2.146038 1_554
Mo7 O11 2.164137 1_554
Mo8 O0 2.082785 1_555
Mo8 O16 2.162681 1_565
Mo8 O20 2.182978 1_555
Mo9 O1 2.082785 1_555
Mo9 O17 2.162681 1_546
Mo9 O21 2.182978 1_556
Mo10 O2 2.082785 1_555
Mo10 O18 2.162681 1_545
Mo10 O22 2.182978 1_555
Mo11 O3 2.082785 1_555
Mo11 O19 2.162681 1_564
Mo11 O23 2.182978 1_554
H0 N0 1.026520 1_555
H1 N1 1.026520 1_555
H2 N2 1.026520 1_555
H3 N3 1.026520 1_555
H4 N0 1.021865 1_555
H5 N1 1.021865 1_555
H6 N2 1.021865 1_555
H7 N3 1.021865 1_555
H8 N4 1.023948 1_555
H9 N5 1.023948 1_555
H10 N6 1.023948 1_555
H11 N7 1.023948 1_555
H12 N4 1.021908 1_555
H13 N5 1.021908 1_555
H14 N6 1.021908 1_555
H15 N7 1.021908 1_555
H28 S0 1.355439 1_555
H29 S1 1.355439 1_555
H30 S2 1.355439 1_555
H31 S3 1.355439 1_555
C0 H16 1.106651 1_555
C0 O8 1.264916 1_555
C0 O4 1.286752 1_555
C1 H17 1.106651 1_555
C1 O9 1.264916 1_555
C1 O5 1.286752 1_555
C2 H18 1.106651 1_555
C2 O10 1.264916 1_555
C2 O6 1.286752 1_555
C3 H19 1.106651 1_555
C3 O11 1.264916 1_555
C3 O7 1.286752 1_555
C4 H20 1.104556 1_565
C4 O12 1.275710 1_555
C4 O16 1.276842 1_565
C5 H21 1.104556 1_545
C5 O13 1.275710 1_555
C5 O17 1.276842 1_545
C6 H22 1.104556 1_545
C6 O14 1.275710 1_555
C6 O18 1.276842 1_545
C7 H23 1.104556 1_565
C7 O15 1.275710 1_555
C7 O19 1.276842 1_565
C8 H24 1.102012 1_555
C8 O20 1.265246 1_555
C8 O24 1.293367 1_555
C9 H25 1.102012 1_555
C9 O21 1.265246 1_555
C9 O25 1.293367 1_555
C10 H26 1.102012 1_555
C10 O22 1.265246 1_555
C10 O26 1.293367 1_555
C11 H27 1.102012 1_555
C11 O23 1.265246 1_555
C11 O27 1.293367 1_555
C12 N4 1.325145 1_555
C12 N0 1.325370 1_555
C12 S0 1.762939 1_555
C13 N5 1.325145 1_555
C13 N1 1.325370 1_555
C13 S1 1.762939 1_555
C14 N6 1.325145 1_555
C14 N2 1.325370 1_555
C14 S2 1.762939 1_555
C15 N7 1.325145 1_555
C15 N3 1.325370 1_555
C15 S3 1.762939 1_555
Cl0 Mo8 2.544231 1_555
Cl0 Mo4 2.563801 1_555
Cl1 Mo9 2.544231 1_555
Cl1 Mo5 2.563801 1_555
Cl2 Mo10 2.544231 1_555
Cl2 Mo6 2.563801 1_555
Cl3 Mo11 2.544231 1_555
Cl3 Mo7 2.563801 1_555
Cl4 Mo0 2.519479 1_555
Cl4 Mo8 2.589077 1_555
Cl5 Mo1 2.519479 1_555
Cl5 Mo9 2.589077 1_555
Cl6 Mo2 2.519479 1_555
Cl6 Mo10 2.589077 1_555
Cl7 Mo3 2.519479 1_555
Cl7 Mo11 2.589077 1_555
Cl8 Mo0 2.493722 1_555
Cl8 Mo4 2.599722 1_555
Cl9 Mo1 2.493722 1_555
Cl9 Mo5 2.599722 1_555
Cl10 Mo2 2.493722 1_555
Cl10 Mo6 2.599722 1_555
Cl11 Mo3 2.493722 1_555
Cl11 Mo7 2.599722 1_555
Cl12 Mo0 2.389181 1_555
Cl13 Mo1 2.389181 1_555
Cl14 Mo2 2.389181 1_555
Cl15 Mo3 2.389181 1_555
Cl16 Mo4 2.420505 1_655
Cl17 Mo5 2.420505 1_555
Cl18 Mo6 2.420505 1_455
Cl19 Mo7 2.420505 1_555
Cl20 Mo8 2.459169 1_545
Cl21 Mo9 2.459169 1_565
Cl22 Mo10 2.459169 1_565
Cl23 Mo11 2.459169 1_545
