# generated using pymatgen
data_Y6AgTe2
_symmetry_space_group_name_H-M   'P 1'
_cell_length_a   4.08706220
_cell_length_b   11.62155010
_cell_length_c   22.03101505
_cell_angle_alpha   89.99894989
_cell_angle_beta   90.00000990
_cell_angle_gamma   89.99998335
_symmetry_Int_Tables_number   1
_chemical_formula_structural   Y6AgTe2
_chemical_formula_sum   'Y24 Ag4 Te8'
_cell_volume   1046.42911132
_cell_formula_units_Z   4
loop_
 _symmetry_equiv_pos_site_id
 _symmetry_equiv_pos_as_xyz
  1  'x, y, z'
loop_
 _atom_site_type_symbol
 _atom_site_label
 _atom_site_symmetry_multiplicity
 _atom_site_fract_x
 _atom_site_fract_y
 _atom_site_fract_z
 _atom_site_occupancy
  Y  Y0  1  0.75000088  0.66848281  0.89238146  1
  Y  Y1  1  0.24999981  0.12225214  0.97218034  1
  Y  Y2  1  0.75000032  0.83144848  0.39243425  1
  Y  Y3  1  0.74999943  0.38837212  0.98482877  1
  Y  Y4  1  0.24999943  0.45989465  0.65806326  1
  Y  Y5  1  0.74999929  0.11168323  0.48490857  1
  Y  Y6  1  0.25000012  0.75539549  0.26655503  1
  Y  Y7  1  0.25000004  0.33145866  0.10759067  1
  Y  Y8  1  0.75000098  0.87772000  0.02778863  1
  Y  Y9  1  0.75000048  0.54012599  0.34197096  1
  Y  Y10  1  0.24999866  0.07986098  0.35288913  1
  Y  Y11  1  0.75000121  0.62216134  0.52782004  1
  Y  Y12  1  0.25000000  0.16863783  0.60760790  1
  Y  Y13  1  0.25000028  0.04014851  0.15805578  1
  Y  Y14  1  0.75000129  0.57971551  0.14712948  1
  Y  Y15  1  0.24999874  0.42021557  0.85285560  1
  Y  Y16  1  0.24999737  0.37779216  0.47223508  1
  Y  Y17  1  0.25000031  0.74453296  0.76654186  1
  Y  Y18  1  0.75000023  0.25541249  0.23343016  1
  Y  Y19  1  0.75000041  0.24465277  0.73345689  1
  Y  Y20  1  0.25000047  0.61153555  0.01513380  1
  Y  Y21  1  0.75000066  0.92018536  0.64713991  1
  Y  Y22  1  0.75000174  0.95980959  0.84191137  1
  Y  Y23  1  0.25000024  0.88847595  0.51513989  1
  Ag  Ag0  1  0.75000022  0.14801061  0.07563763  1
  Ag  Ag1  1  0.25000161  0.85197760  0.92434189  1
  Ag  Ag2  1  0.24999955  0.64795566  0.42440116  1
  Ag  Ag3  1  0.74999989  0.35206709  0.57565352  1
  Te  Te0  1  0.25000527  0.02927038  0.73795161  1
  Te  Te1  1  0.25000340  0.77988262  0.12680984  1
  Te  Te2  1  0.25000294  0.47077821  0.23801368  1
  Te  Te3  1  0.74999873  0.97079269  0.26202852  1
  Te  Te4  1  0.74999653  0.52916007  0.76198817  1
  Te  Te5  1  0.74999275  0.27993941  0.37322823  1
  Te  Te6  1  0.24999999  0.72011566  0.62674875  1
  Te  Te7  1  0.74999672  0.22007784  0.87314818  1
loop_
_geom_bond_atom_site_label_1
_geom_bond_atom_site_label_2
_geom_bond_distance
_geom_bond_site_symmetry_2
Ag0 Y13 3.007362 1_655
Ag0 Y13 3.007363 1_555
Ag0 Y7 3.035926 1_655
Ag0 Y7 3.035926 1_555
Ag0 Y1 3.075828 1_654
Ag0 Y1 3.075830 1_554
Ag0 Y8 3.313381 1_545
Ag0 Y3 3.435866 1_554
Ag0 Y18 3.693639 1_555
Ag1 Y22 3.007380 1_455
Ag1 Y22 3.007382 1_555
Ag1 Y0 3.036343 1_555
Ag1 Y0 3.036347 1_455
Ag1 Y8 3.075637 1_556
Ag1 Y8 3.075641 1_456
Ag1 Y1 3.313130 1_565
Ag1 Y20 3.436410 1_556
Ag1 Y17 3.693963 1_555
Ag2 Y9 3.007391 1_455
Ag2 Y9 3.007396 1_555
Ag2 Y2 3.036341 1_455
Ag2 Y2 3.036346 1_555
Ag2 Y11 3.075230 1_455
Ag2 Y11 3.075239 1_555
Ag2 Y16 3.311838 1_555
Ag2 Y23 3.436527 1_555
Ag2 Y6 3.694857 1_555
Ag3 Y4 3.007110 1_655
Ag3 Y4 3.007112 1_555
Ag3 Y12 3.035761 1_655
Ag3 Y12 3.035761 1_555
Ag3 Y16 3.075142 1_655
Ag3 Y16 3.075156 1_555
Ag3 Y11 3.311072 1_555
Ag3 Y5 3.435317 1_555
Ag3 Y19 3.693870 1_555
Te0 Y21 3.128240 1_545
Te0 Y21 3.128265 1_445
Te0 Y22 3.173828 1_545
Te0 Y22 3.173847 1_445
Te0 Y19 3.232821 1_555
Te0 Y19 3.232845 1_455
Te0 Y12 3.296856 1_555
Te0 Y17 3.368492 1_545
Te1 Y6 3.091848 1_555
Te1 Y13 3.102050 1_565
Te1 Y14 3.128545 1_555
Te1 Y14 3.128557 1_455
Te1 Y20 3.143429 1_555
Te1 Y8 3.198096 1_555
Te1 Y8 3.198108 1_455
Te2 Y14 3.128546 1_555
Te2 Y14 3.128554 1_455
Te2 Y9 3.173479 1_555
Te2 Y9 3.173492 1_455
Te2 Y18 3.232739 1_555
Te2 Y18 3.232754 1_455
Te2 Y7 3.298156 1_555
Te2 Y6 3.366942 1_555
Te3 Y10 3.128863 1_665
Te3 Y10 3.128863 1_565
Te3 Y13 3.173729 1_565
Te3 Y13 3.173738 1_665
Te3 Y6 3.232985 1_555
Te3 Y6 3.232991 1_655
Te3 Y2 3.297913 1_555
Te3 Y18 3.367183 1_565
Te4 Y15 3.128342 1_555
Te4 Y15 3.128353 1_655
Te4 Y4 3.172720 1_555
Te4 Y4 3.172736 1_655
Te4 Y17 3.232781 1_555
Te4 Y17 3.232801 1_655
Te4 Y0 3.297604 1_555
Te4 Y19 3.365645 1_555
Te5 Y18 3.093061 1_555
Te5 Y9 3.101182 1_555
Te5 Y10 3.127843 1_555
Te5 Y10 3.127874 1_655
Te5 Y5 3.142789 1_555
Te5 Y16 3.197966 1_555
Te5 Y16 3.197990 1_655
Te6 Y17 3.092835 1_555
Te6 Y4 3.101852 1_555
Te6 Y21 3.127945 1_455
Te6 Y21 3.127950 1_555
Te6 Y23 3.142310 1_555
Te6 Y11 3.197221 1_455
Te6 Y11 3.197227 1_555
Te7 Y19 3.090759 1_555
Te7 Y22 3.102032 1_545
Te7 Y15 3.128206 1_555
Te7 Y15 3.128218 1_655
Te7 Y3 3.143125 1_555
Te7 Y1 3.198210 1_555
Te7 Y1 3.198226 1_655
