# generated using pymatgen
data_DyNiGe2
_symmetry_space_group_name_H-M   'P 1'
_cell_length_a   4.15701943
_cell_length_b   8.44638650
_cell_length_c   9.20349459
_cell_angle_alpha   117.32029409
_cell_angle_beta   103.03924088
_cell_angle_gamma   89.99741002
_symmetry_Int_Tables_number   1
_chemical_formula_structural   DyNiGe2
_chemical_formula_sum   'Dy4 Ni4 Ge8'
_cell_volume   277.69529835
_cell_formula_units_Z   4
loop_
 _symmetry_equiv_pos_site_id
 _symmetry_equiv_pos_as_xyz
  1  'x, y, z'
loop_
 _atom_site_type_symbol
 _atom_site_label
 _atom_site_symmetry_multiplicity
 _atom_site_fract_x
 _atom_site_fract_y
 _atom_site_fract_z
 _atom_site_occupancy
  Dy  Dy0  1  0.79516190  0.29539209  0.59086138  1
  Dy  Dy1  1  0.00000283  0.73949807  -0.00005576  1
  Dy  Dy2  1  0.99999517  0.26050193  0.00005276  1
  Dy  Dy3  1  0.20483810  0.70460691  0.40913962  1
  Ni  Ni0  1  0.35230346  0.60214260  0.70296461  1
  Ni  Ni1  1  0.64766892  0.89915721  0.29681956  1
  Ni  Ni2  1  0.64769554  0.39785640  0.29703439  1
  Ni  Ni3  1  0.35233108  0.10084279  0.70318144  1
  Ge  Ge0  1  0.80538922  0.96250773  0.60911929  1
  Ge  Ge1  1  0.42068563  0.92054370  0.84106365  1
  Ge  Ge2  1  0.19461078  0.03749427  0.39087971  1
  Ge  Ge3  1  0.19460062  0.35352221  0.39101287  1
  Ge  Ge4  1  0.80540038  0.64647779  0.60899113  1
  Ge  Ge5  1  0.57749139  0.57717743  0.15438603  1
  Ge  Ge6  1  0.57931637  0.07945830  0.15893835  1
  Ge  Ge7  1  0.42250661  0.42281957  0.84561097  1
loop_
_geom_bond_atom_site_label_1
_geom_bond_atom_site_label_2
_geom_bond_distance
_geom_bond_site_symmetry_2
Dy0 Ge4 2.892386 1_555
Dy0 Ge0 2.892401 1_545
Dy0 Ge7 2.894431 1_555
Dy0 Ge7 2.895065 1_655
Dy0 Ge2 2.930605 1_655
Dy0 Ge3 2.930606 1_655
Dy0 Ge2 2.934622 1_555
Dy0 Ge3 2.934904 1_555
Dy0 Ni0 3.093456 1_555
Dy0 Ni3 3.094482 1_555
Dy0 Ni0 3.100001 1_655
Dy0 Ni3 3.100319 1_655
Dy0 Ni2 3.136545 1_555
Dy0 Ni1 3.136564 1_545
Dy1 Ni1 3.135517 1_555
Dy1 Ni0 3.136069 1_454
Dy1 Ni1 3.138887 1_455
Dy1 Ni0 3.139553 1_554
Dy1 Ge7 3.145577 1_554
Dy1 Ge5 3.146519 1_455
Dy1 Ge7 3.147961 1_454
Dy1 Ge5 3.148321 1_555
Dy1 Ge2 3.210771 1_565
Dy1 Ge4 3.210908 1_454
Dy1 Ge1 3.277098 1_454
Dy1 Ge6 3.277112 1_565
Dy1 Ge1 3.277425 1_554
Dy1 Ge6 3.277505 1_465
Dy2 Ni3 3.135494 1_554
Dy2 Ni2 3.136081 1_655
Dy2 Ni3 3.138863 1_654
Dy2 Ni2 3.139565 1_555
Dy2 Ge5 3.145561 1_555
Dy2 Ge7 3.146502 1_654
Dy2 Ge5 3.147945 1_655
Dy2 Ge7 3.148305 1_554
Dy2 Ge0 3.210754 1_544
Dy2 Ge3 3.210969 1_655
Dy2 Ge1 3.277096 1_544
Dy2 Ge6 3.277120 1_655
Dy2 Ge6 3.277439 1_555
Dy2 Ge1 3.277497 1_644
Dy3 Ge3 2.892390 1_555
Dy3 Ge2 2.892436 1_565
Dy3 Ge5 2.894453 1_555
Dy3 Ge5 2.895087 1_455
Dy3 Ge0 2.930609 1_455
Dy3 Ge4 2.930623 1_455
Dy3 Ge0 2.934632 1_555
Dy3 Ge4 2.934918 1_555
Dy3 Ni2 3.093455 1_555
Dy3 Ni1 3.094488 1_555
Dy3 Ni2 3.100000 1_455
Dy3 Ni1 3.100325 1_455
Dy3 Ni0 3.136528 1_555
Dy3 Ni3 3.136570 1_565
Ge0 Ni3 2.338316 1_665
Ge0 Ni3 2.338541 1_565
Ge0 Ni1 2.591415 1_555
Ge0 Ge4 2.668770 1_555
Ge1 Ni3 2.370954 1_565
Ge1 Ni0 2.372385 1_555
Ge1 Ge6 2.514036 1_566
Ge2 Ni1 2.338323 1_445
Ge2 Ni1 2.338541 1_545
Ge2 Ni3 2.591438 1_555
Ge2 Ge3 2.668732 1_555
Ge3 Ni2 2.338165 1_455
Ge3 Ni2 2.338477 1_555
Ge3 Ni0 2.588250 1_555
Ge4 Ni0 2.338150 1_655
Ge4 Ni0 2.338459 1_555
Ge4 Ni2 2.588284 1_555
Ge5 Ni1 2.398879 1_555
Ge5 Ni2 2.398998 1_555
Ge5 Ge7 2.442070 1_554
Ge6 Ni1 2.370961 1_545
Ge6 Ni2 2.372363 1_555
Ge7 Ni3 2.398857 1_555
Ge7 Ni0 2.398999 1_555
