# generated using pymatgen
data_P2W9O31
_symmetry_space_group_name_H-M   'P 1'
_cell_length_a   5.39694700
_cell_length_b   6.67699491
_cell_length_c   33.48074422
_cell_angle_alpha   89.99428363
_cell_angle_beta   89.83545776
_cell_angle_gamma   89.91755302
_symmetry_Int_Tables_number   1
_chemical_formula_structural   P2W9O31
_chemical_formula_sum   'P4 W18 O62'
_cell_volume   1206.48536733
_cell_formula_units_Z   2
loop_
 _symmetry_equiv_pos_site_id
 _symmetry_equiv_pos_as_xyz
  1  'x, y, z'
loop_
 _atom_site_type_symbol
 _atom_site_label
 _atom_site_symmetry_multiplicity
 _atom_site_fract_x
 _atom_site_fract_y
 _atom_site_fract_z
 _atom_site_occupancy
  P  P0  1  0.98260100  0.13219200  0.71677600  1
  P  P1  1  0.50445900  0.63690900  0.78347600  1
  P  P2  1  0.49554100  0.36309100  0.21652400  1
  P  P3  1  0.01739900  0.86780800  0.28322400  1
  W  W0  1  0.00245800  0.17063000  0.45383600  1
  W  W1  1  0.50037700  0.32922400  0.95407500  1
  W  W2  1  0.49836700  0.15963700  0.59208300  1
  W  W3  1  0.99754200  0.82937000  0.54616400  1
  W  W4  1  0.50163300  0.84036300  0.40791700  1
  W  W5  1  0.99679200  0.65927300  0.90808500  1
  W  W6  1  0.50135300  0.99083400  0.86079300  1
  W  W7  1  0.49299700  0.82682100  0.68577000  1
  W  W8  1  0.00289500  0.67052100  0.18569100  1
  W  W9  1  0.00320800  0.34072700  0.09191500  1
  W  W10  1  0.00796500  0.51102300  0.36060800  1
  W  W11  1  0.50000000  0.50000000  0.50000000  1
  W  W12  1  0.50700300  0.17317900  0.31423000  1
  W  W13  1  0.99203500  0.48897700  0.63939200  1
  W  W14  1  0.49864700  0.00916600  0.13920700  1
  W  W15  1  0.99710500  0.32947900  0.81430900  1
  W  W16  1  0.00000000  0.00000000  0.00000000  1
  W  W17  1  0.49962300  0.67077600  0.04592500  1
  O  O0  1  0.50884900  0.00936400  0.35894300  1
  O  O1  1  0.50208400  0.83705100  0.09524800  1
  O  O2  1  0.27939100  0.80858300  0.88410100  1
  O  O3  1  0.48756400  0.69529200  0.73904200  1
  O  O4  1  0.80369200  0.01337300  0.29254100  1
  O  O5  1  0.76830500  0.67887600  0.66952600  1
  O  O6  1  0.78536300  0.35841500  0.47912600  1
  O  O7  1  0.99950800  0.16832900  0.04731900  1
  O  O8  1  0.78077000  0.84998200  0.87853200  1
  O  O9  1  0.72540700  0.17881500  0.83081900  1
  O  O10  1  0.21463700  0.64158500  0.52087400  1
  O  O11  1  0.71182400  0.52119300  0.92609300  1
  O  O12  1  0.50081700  0.67102700  0.45301900  1
  O  O13  1  0.00049200  0.83167100  0.95268100  1
  O  O14  1  0.99446000  0.66262500  0.59568600  1
  O  O15  1  0.72688500  0.03211900  0.71205500  1
  O  O16  1  0.28555900  0.14191700  0.97972900  1
  O  O17  1  0.27459300  0.82118500  0.16918100  1
  O  O18  1  0.72948500  0.35932500  0.33544500  1
  O  O19  1  0.99678700  0.49309700  0.85913400  1
  O  O20  1  0.24721200  0.47303300  0.21079400  1
  O  O21  1  0.27311500  0.96788100  0.28794500  1
  O  O22  1  0.71435600  0.68695400  0.52732400  1
  O  O23  1  0.00893800  0.19804800  0.76082500  1
  O  O24  1  0.21265000  0.30840500  0.61506900  1
  O  O25  1  0.21666100  0.98005000  0.42570600  1
  O  O26  1  0.49791600  0.16294900  0.90475200  1
  O  O27  1  0.29067000  0.65088500  0.37781400  1
  O  O28  1  0.49747700  0.82900500  0.80894000  1
  O  O29  1  0.51243600  0.30470800  0.26095800  1
  O  O30  1  0.78614600  0.52584300  0.06735800  1
  O  O31  1  0.71792300  0.49894100  0.20704400  1
  O  O32  1  0.77556200  0.85192900  0.16430600  1
  O  O33  1  0.72060900  0.19141700  0.11589900  1
  O  O34  1  0.28207700  0.50105900  0.79295600  1
  O  O35  1  0.78735000  0.69159500  0.38493100  1
  O  O36  1  0.78568400  0.18882600  0.97289600  1
  O  O37  1  0.99985700  0.32005100  0.69013000  1
  O  O38  1  0.27051500  0.64067500  0.66455500  1
  O  O39  1  0.28817600  0.47880700  0.07390700  1
  O  O40  1  0.78333900  0.01995000  0.57429400  1
  O  O41  1  0.99106200  0.80195200  0.23917500  1
  O  O42  1  0.23169500  0.32112400  0.33047400  1
  O  O43  1  0.49115100  0.99063600  0.64105700  1
  O  O44  1  0.75278800  0.52696700  0.78920600  1
  O  O45  1  0.21385400  0.47415700  0.93264200  1
  O  O46  1  0.28115100  0.97425200  0.56764000  1
  O  O47  1  0.71884900  0.02574800  0.43236000  1
  O  O48  1  0.22443800  0.14807100  0.83569400  1
  O  O49  1  0.00014300  0.67994900  0.30987000  1
  O  O50  1  0.19630800  0.98662700  0.70745900  1
  O  O51  1  0.70933000  0.34911500  0.62218600  1
  O  O52  1  0.21431600  0.81117400  0.02710400  1
  O  O53  1  0.00321300  0.50690300  0.14086600  1
  O  O54  1  0.71444100  0.85808300  0.02027100  1
  O  O55  1  0.50252300  0.17099500  0.19106000  1
  O  O56  1  0.49918300  0.32897300  0.54698100  1
  O  O57  1  0.21923000  0.15001800  0.12146800  1
  O  O58  1  0.00000000  0.00000000  0.50000000  1
  O  O59  1  0.28564400  0.31304600  0.47267600  1
  O  O60  1  0.50000000  0.50000000  0.00000000  1
  O  O61  1  0.00554000  0.33737500  0.40431400  1
loop_
_geom_bond_atom_site_label_1
_geom_bond_atom_site_label_2
_geom_bond_distance
_geom_bond_site_symmetry_2
O0 W12 1.853993 1_555
O0 W4 1.990680 1_545
O1 W14 1.867428 1_565
O1 W17 1.990055 1_555
O2 W6 1.877082 1_555
O2 W5 1.990487 1_455
O3 P1 1.540792 1_555
O3 W7 1.988157 1_555
O4 P3 1.538502 1_645
O4 W12 2.053851 1_555
O5 W7 1.862928 1_555
O5 W13 2.018023 1_555
O6 W0 1.911050 1_655
O6 W11 1.934883 1_555
O7 W9 1.885572 1_655
O7 W16 1.942545 1_655
O8 W6 1.874093 1_555
O8 W5 1.990429 1_555
O9 W15 1.862038 1_555
O9 W6 2.010434 1_545
O10 W3 1.911050 1_455
O10 W11 1.934883 1_555
O11 W5 1.891423 1_555
O11 W1 1.954673 1_555
O12 W4 1.886341 1_555
O12 W11 1.943676 1_555
O13 W5 1.885572 1_455
O13 W16 1.942545 1_566
O14 W13 1.866911 1_555
O14 W3 1.997108 1_555
O15 P0 1.542732 1_555
O15 W7 2.063601 1_545
O16 W1 1.908982 1_555
O16 W16 1.931767 1_556
O17 W8 1.862038 1_555
O17 W14 2.010434 1_565
O18 W12 1.870939 1_555
O18 W10 2.001590 1_655
O19 W15 1.856378 1_555
O19 W5 1.979274 1_555
O20 P2 1.539638 1_555
O20 W8 2.045707 1_555
O21 P3 1.542732 1_555
O21 W12 2.063601 1_565
O22 W3 1.909915 1_555
O22 W11 1.934928 1_555
O23 P0 1.545990 1_455
O23 W15 1.995054 1_455
O24 W13 1.877489 1_455
O24 W2 1.986366 1_555
O25 W4 1.892283 1_555
O25 W0 1.957667 1_565
O26 W6 1.867428 1_545
O26 W1 1.990055 1_555
O27 W10 1.881780 1_555
O27 W4 1.980831 1_555
O28 P1 1.540548 1_555
O28 W6 2.045140 1_555
O29 P2 1.540792 1_555
O29 W12 1.988157 1_555
O30 W9 1.891360 1_655
O30 W17 1.960750 1_555
O31 P2 1.537805 1_555
O31 W8 2.046353 1_655
O32 W8 1.866997 1_655
O32 W14 2.011076 1_565
O33 W14 1.877082 1_555
O33 W9 1.990487 1_655
O34 P1 1.537805 1_555
O34 W15 2.046353 1_455
O35 W10 1.877489 1_655
O35 W4 1.986366 1_555
O36 W1 1.910002 1_555
O36 W16 1.937144 1_656
O37 P0 1.541932 1_555
O37 W13 2.039513 1_555
O38 W7 1.870939 1_555
O38 W13 2.001590 1_455
O39 W9 1.891423 1_555
O39 W17 1.954673 1_555
O40 W2 1.892283 1_555
O40 W3 1.957667 1_545
O41 P3 1.545990 1_655
O41 W8 1.995054 1_655
O42 W12 1.862928 1_555
O42 W10 2.018023 1_555
O43 W7 1.853993 1_555
O43 W2 1.990680 1_565
O44 P1 1.539638 1_555
O44 W15 2.045707 1_555
O45 W5 1.891360 1_455
O45 W1 1.960750 1_555
O46 W2 1.893700 1_565
O46 W3 1.950987 1_455
O47 W4 1.893700 1_545
O47 W0 1.950987 1_655
O48 W15 1.866997 1_455
O48 W6 2.011076 1_545
O49 P3 1.541932 1_555
O49 W10 2.039513 1_555
O50 P0 1.538502 1_465
O50 W7 2.053851 1_555
O51 W13 1.881780 1_555
O51 W2 1.980831 1_555
O52 W17 1.910002 1_555
O52 W16 1.937144 1_565
O53 W8 1.856378 1_555
O53 W9 1.979274 1_555
O54 W17 1.908982 1_555
O54 W16 1.931767 1_665
O55 P2 1.540548 1_555
O55 W14 2.045140 1_555
O56 W2 1.886341 1_555
O56 W11 1.943676 1_555
O57 W14 1.874093 1_555
O57 W9 1.990429 1_555
O58 W3 1.920062 1_445
O58 W0 1.920062 1_555
O59 W0 1.909915 1_555
O59 W11 1.934928 1_555
O60 W17 1.914359 1_555
O60 W1 1.914359 1_554
O61 W10 1.866911 1_555
O61 W0 1.997108 1_555
