# generated using pymatgen
data_SiO2
_symmetry_space_group_name_H-M   'P 1'
_cell_length_a   13.04614500
_cell_length_b   13.04614500
_cell_length_c   25.71342500
_cell_angle_alpha   90.00000000
_cell_angle_beta   90.00000000
_cell_angle_gamma   90.00000000
_symmetry_Int_Tables_number   1
_chemical_formula_structural   SiO2
_chemical_formula_sum   'Si64 O128'
_cell_volume   4376.47377408
_cell_formula_units_Z   64
loop_
 _symmetry_equiv_pos_site_id
 _symmetry_equiv_pos_as_xyz
  1  'x, y, z'
loop_
 _atom_site_type_symbol
 _atom_site_label
 _atom_site_symmetry_multiplicity
 _atom_site_fract_x
 _atom_site_fract_y
 _atom_site_fract_z
 _atom_site_occupancy
  Si  Si0  1  0.30708600  0.24886900  0.90363300  1
  Si  Si1  1  0.75113100  0.30708600  0.40363300  1
  Si  Si2  1  0.24886900  0.69291400  0.40363300  1
  Si  Si3  1  0.30708600  0.75113100  0.09636700  1
  Si  Si4  1  0.69291400  0.24886900  0.09636700  1
  Si  Si5  1  0.69291400  0.75113100  0.90363300  1
  Si  Si6  1  0.24886900  0.30708600  0.59636700  1
  Si  Si7  1  0.75113100  0.69291400  0.59636700  1
  Si  Si8  1  0.69291400  0.75113100  0.09636700  1
  Si  Si9  1  0.24886900  0.69291400  0.59636700  1
  Si  Si10  1  0.75113100  0.30708600  0.59636700  1
  Si  Si11  1  0.69291400  0.24886900  0.90363300  1
  Si  Si12  1  0.30708600  0.75113100  0.90363300  1
  Si  Si13  1  0.30708600  0.24886900  0.09636700  1
  Si  Si14  1  0.75113100  0.69291400  0.40363300  1
  Si  Si15  1  0.24886900  0.30708600  0.40363300  1
  Si  Si16  1  0.11853600  0.11770200  0.06185100  1
  Si  Si17  1  0.88229800  0.11853600  0.56185100  1
  Si  Si18  1  0.11770200  0.88146400  0.56185100  1
  Si  Si19  1  0.11853600  0.88229800  0.93814900  1
  Si  Si20  1  0.88146400  0.11770200  0.93814900  1
  Si  Si21  1  0.88146400  0.88229800  0.06185100  1
  Si  Si22  1  0.11770200  0.11853600  0.43814900  1
  Si  Si23  1  0.88229800  0.88146400  0.43814900  1
  Si  Si24  1  0.88146400  0.88229800  0.93814900  1
  Si  Si25  1  0.11770200  0.88146400  0.43814900  1
  Si  Si26  1  0.88229800  0.11853600  0.43814900  1
  Si  Si27  1  0.88146400  0.11770200  0.06185100  1
  Si  Si28  1  0.11853600  0.88229800  0.06185100  1
  Si  Si29  1  0.11853600  0.11770200  0.93814900  1
  Si  Si30  1  0.88229800  0.88146400  0.56185100  1
  Si  Si31  1  0.11770200  0.11853600  0.56185100  1
  Si  Si32  1  0.37727600  0.38200300  0.18999400  1
  Si  Si33  1  0.61799700  0.37727600  0.68999400  1
  Si  Si34  1  0.38200300  0.62272400  0.68999400  1
  Si  Si35  1  0.37727600  0.61799700  0.81000600  1
  Si  Si36  1  0.62272400  0.38200300  0.81000600  1
  Si  Si37  1  0.62272400  0.61799700  0.18999400  1
  Si  Si38  1  0.38200300  0.37727600  0.31000600  1
  Si  Si39  1  0.61799700  0.62272400  0.31000600  1
  Si  Si40  1  0.62272400  0.61799700  0.81000600  1
  Si  Si41  1  0.38200300  0.62272400  0.31000600  1
  Si  Si42  1  0.61799700  0.37727600  0.31000600  1
  Si  Si43  1  0.62272400  0.38200300  0.18999400  1
  Si  Si44  1  0.37727600  0.61799700  0.18999400  1
  Si  Si45  1  0.37727600  0.38200300  0.81000600  1
  Si  Si46  1  0.61799700  0.62272400  0.68999400  1
  Si  Si47  1  0.38200300  0.37727600  0.68999400  1
  Si  Si48  1  0.50000000  0.12163000  0.06166700  1
  Si  Si49  1  0.87837000  0.50000000  0.56166700  1
  Si  Si50  1  0.12163000  0.50000000  0.56166700  1
  Si  Si51  1  0.50000000  0.87837000  0.93833300  1
  Si  Si52  1  0.50000000  0.12163000  0.93833300  1
  Si  Si53  1  0.50000000  0.87837000  0.06166700  1
  Si  Si54  1  0.12163000  0.50000000  0.43833300  1
  Si  Si55  1  0.87837000  0.50000000  0.43833300  1
  Si  Si56  1  0.37789200  0.37852600  0.00000000  1
  Si  Si57  1  0.62147400  0.37789200  0.50000000  1
  Si  Si58  1  0.37852600  0.62210800  0.50000000  1
  Si  Si59  1  0.37789200  0.62147400  0.00000000  1
  Si  Si60  1  0.62210800  0.37852600  0.00000000  1
  Si  Si61  1  0.62210800  0.62147400  0.00000000  1
  Si  Si62  1  0.37852600  0.37789200  0.50000000  1
  Si  Si63  1  0.62147400  0.62210800  0.50000000  1
  O  O0  1  0.14593800  0.12263800  0.00000000  1
  O  O1  1  0.87736200  0.14593800  0.50000000  1
  O  O2  1  0.12263800  0.85406200  0.50000000  1
  O  O3  1  0.14593800  0.87736200  0.00000000  1
  O  O4  1  0.85406200  0.12263800  0.00000000  1
  O  O5  1  0.85406200  0.87736200  0.00000000  1
  O  O6  1  0.12263800  0.14593800  0.50000000  1
  O  O7  1  0.87736200  0.85406200  0.50000000  1
  O  O8  1  0.13465600  0.00000000  0.08231500  1
  O  O9  1  0.00000000  0.13465600  0.58231500  1
  O  O10  1  0.00000000  0.86534400  0.58231500  1
  O  O11  1  0.13465600  0.00000000  0.91768500  1
  O  O12  1  0.86534400  0.00000000  0.91768500  1
  O  O13  1  0.86534400  0.00000000  0.08231500  1
  O  O14  1  0.00000000  0.13465600  0.41768500  1
  O  O15  1  0.00000000  0.86534400  0.41768500  1
  O  O16  1  0.00000000  0.15364800  0.07162100  1
  O  O17  1  0.84635200  0.00000000  0.57162100  1
  O  O18  1  0.15364800  0.00000000  0.57162100  1
  O  O19  1  0.00000000  0.84635200  0.92837900  1
  O  O20  1  0.00000000  0.15364800  0.92837900  1
  O  O21  1  0.00000000  0.84635200  0.07162100  1
  O  O22  1  0.15364800  0.00000000  0.42837900  1
  O  O23  1  0.84635200  0.00000000  0.42837900  1
  O  O24  1  0.19514200  0.19453800  0.09265900  1
  O  O25  1  0.80546200  0.19514200  0.59265900  1
  O  O26  1  0.19453800  0.80485800  0.59265900  1
  O  O27  1  0.19514200  0.80546200  0.90734100  1
  O  O28  1  0.80485800  0.19453800  0.90734100  1
  O  O29  1  0.80485800  0.80546200  0.09265900  1
  O  O30  1  0.19453800  0.19514200  0.40734100  1
  O  O31  1  0.80546200  0.80485800  0.40734100  1
  O  O32  1  0.80485800  0.80546200  0.90734100  1
  O  O33  1  0.19453800  0.80485800  0.40734100  1
  O  O34  1  0.80546200  0.19514200  0.40734100  1
  O  O35  1  0.80485800  0.19453800  0.09265900  1
  O  O36  1  0.19514200  0.80546200  0.09265900  1
  O  O37  1  0.19514200  0.19453800  0.90734100  1
  O  O38  1  0.80546200  0.80485800  0.59265900  1
  O  O39  1  0.19453800  0.19514200  0.59265900  1
  O  O40  1  0.39739200  0.16420000  0.90992800  1
  O  O41  1  0.83580000  0.39739200  0.40992800  1
  O  O42  1  0.16420000  0.60260800  0.40992800  1
  O  O43  1  0.39739200  0.83580000  0.09007200  1
  O  O44  1  0.60260800  0.16420000  0.09007200  1
  O  O45  1  0.60260800  0.83580000  0.90992800  1
  O  O46  1  0.16420000  0.39739200  0.59007200  1
  O  O47  1  0.83580000  0.60260800  0.59007200  1
  O  O48  1  0.60260800  0.83580000  0.09007200  1
  O  O49  1  0.16420000  0.60260800  0.59007200  1
  O  O50  1  0.83580000  0.39739200  0.59007200  1
  O  O51  1  0.60260800  0.16420000  0.90992800  1
  O  O52  1  0.39739200  0.83580000  0.90992800  1
  O  O53  1  0.39739200  0.16420000  0.09007200  1
  O  O54  1  0.83580000  0.60260800  0.40992800  1
  O  O55  1  0.16420000  0.39739200  0.40992800  1
  O  O56  1  0.32076900  0.33486100  0.94861600  1
  O  O57  1  0.66513900  0.32076900  0.44861600  1
  O  O58  1  0.33486100  0.67923100  0.44861600  1
  O  O59  1  0.32076900  0.66513900  0.05138400  1
  O  O60  1  0.67923100  0.33486100  0.05138400  1
  O  O61  1  0.67923100  0.66513900  0.94861600  1
  O  O62  1  0.33486100  0.32076900  0.55138400  1
  O  O63  1  0.66513900  0.67923100  0.55138400  1
  O  O64  1  0.67923100  0.66513900  0.05138400  1
  O  O65  1  0.33486100  0.67923100  0.55138400  1
  O  O66  1  0.66513900  0.32076900  0.55138400  1
  O  O67  1  0.67923100  0.33486100  0.94861600  1
  O  O68  1  0.32076900  0.66513900  0.94861600  1
  O  O69  1  0.32076900  0.33486100  0.05138400  1
  O  O70  1  0.66513900  0.67923100  0.44861600  1
  O  O71  1  0.33486100  0.32076900  0.44861600  1
  O  O72  1  0.31449800  0.30405500  0.84713400  1
  O  O73  1  0.69594500  0.31449800  0.34713400  1
  O  O74  1  0.30405500  0.68550200  0.34713400  1
  O  O75  1  0.31449800  0.69594500  0.15286600  1
  O  O76  1  0.68550200  0.30405500  0.15286600  1
  O  O77  1  0.68550200  0.69594500  0.84713400  1
  O  O78  1  0.30405500  0.31449800  0.65286600  1
  O  O79  1  0.69594500  0.68550200  0.65286600  1
  O  O80  1  0.68550200  0.69594500  0.15286600  1
  O  O81  1  0.30405500  0.68550200  0.65286600  1
  O  O82  1  0.69594500  0.31449800  0.65286600  1
  O  O83  1  0.68550200  0.30405500  0.84713400  1
  O  O84  1  0.31449800  0.69594500  0.84713400  1
  O  O85  1  0.31449800  0.30405500  0.15286600  1
  O  O86  1  0.69594500  0.68550200  0.34713400  1
  O  O87  1  0.30405500  0.31449800  0.34713400  1
  O  O88  1  0.50000000  0.00000000  0.06764400  1
  O  O89  1  0.00000000  0.50000000  0.56764400  1
  O  O90  1  0.50000000  0.00000000  0.93235600  1
  O  O91  1  0.00000000  0.50000000  0.43235600  1
  O  O92  1  0.50000000  0.14939200  0.00000000  1
  O  O93  1  0.85060800  0.50000000  0.50000000  1
  O  O94  1  0.14939200  0.50000000  0.50000000  1
  O  O95  1  0.50000000  0.85060800  0.00000000  1
  O  O96  1  0.50000000  0.35278800  0.00000000  1
  O  O97  1  0.64721200  0.50000000  0.50000000  1
  O  O98  1  0.35278800  0.50000000  0.50000000  1
  O  O99  1  0.50000000  0.64721200  0.00000000  1
  O  O100  1  0.36453000  0.50000000  0.00000000  1
  O  O101  1  0.50000000  0.36453000  0.50000000  1
  O  O102  1  0.50000000  0.63547000  0.50000000  1
  O  O103  1  0.63547000  0.50000000  0.00000000  1
  O  O104  1  0.35141100  0.35141100  0.25000000  1
  O  O105  1  0.64858900  0.35141100  0.75000000  1
  O  O106  1  0.35141100  0.64858900  0.75000000  1
  O  O107  1  0.64858900  0.64858900  0.25000000  1
  O  O108  1  0.64858900  0.64858900  0.75000000  1
  O  O109  1  0.35141100  0.64858900  0.25000000  1
  O  O110  1  0.64858900  0.35141100  0.25000000  1
  O  O111  1  0.35141100  0.35141100  0.75000000  1
  O  O112  1  0.50000000  0.37159300  0.17878700  1
  O  O113  1  0.62840700  0.50000000  0.67878700  1
  O  O114  1  0.37159300  0.50000000  0.67878700  1
  O  O115  1  0.50000000  0.62840700  0.82121300  1
  O  O116  1  0.50000000  0.37159300  0.82121300  1
  O  O117  1  0.50000000  0.62840700  0.17878700  1
  O  O118  1  0.37159300  0.50000000  0.32121300  1
  O  O119  1  0.62840700  0.50000000  0.32121300  1
  O  O120  1  0.34163700  0.50000000  0.17857400  1
  O  O121  1  0.50000000  0.34163700  0.67857400  1
  O  O122  1  0.50000000  0.65836300  0.67857400  1
  O  O123  1  0.34163700  0.50000000  0.82142600  1
  O  O124  1  0.65836300  0.50000000  0.82142600  1
  O  O125  1  0.65836300  0.50000000  0.17857400  1
  O  O126  1  0.50000000  0.34163700  0.32142600  1
  O  O127  1  0.50000000  0.65836300  0.32142600  1
loop_
_geom_bond_atom_site_label_1
_geom_bond_atom_site_label_2
_geom_bond_distance
_geom_bond_site_symmetry_2
O0 Si29 1.631356 1_554
O0 Si16 1.631356 1_555
O1 Si17 1.631356 1_555
O1 Si26 1.631356 1_555
O2 Si25 1.631356 1_555
O2 Si18 1.631356 1_555
O3 Si19 1.631356 1_554
O3 Si28 1.631356 1_555
O4 Si20 1.631356 1_554
O4 Si27 1.631356 1_555
O5 Si24 1.631356 1_554
O5 Si21 1.631356 1_555
O6 Si31 1.631356 1_555
O6 Si22 1.631356 1_555
O7 Si23 1.631356 1_555
O7 Si30 1.631356 1_555
O8 Si28 1.636780 1_545
O8 Si16 1.636780 1_555
O9 Si17 1.636780 1_455
O9 Si31 1.636780 1_555
O10 Si30 1.636780 1_455
O10 Si18 1.636780 1_555
O11 Si19 1.636780 1_545
O11 Si29 1.636780 1_555
O12 Si24 1.636780 1_545
O12 Si20 1.636780 1_555
O13 Si21 1.636780 1_545
O13 Si27 1.636780 1_555
O14 Si26 1.636780 1_455
O14 Si22 1.636780 1_555
O15 Si23 1.636780 1_455
O15 Si25 1.636780 1_555
O16 Si27 1.635390 1_455
O16 Si16 1.635390 1_555
O17 Si30 1.635390 1_545
O17 Si17 1.635390 1_555
O18 Si18 1.635390 1_545
O18 Si31 1.635390 1_555
O19 Si24 1.635390 1_455
O19 Si19 1.635390 1_555
O20 Si20 1.635390 1_455
O20 Si29 1.635390 1_555
O21 Si21 1.635390 1_455
O21 Si28 1.635390 1_555
O22 Si25 1.635390 1_545
O22 Si22 1.635390 1_555
O23 Si23 1.635390 1_545
O23 Si26 1.635390 1_555
O24 Si16 1.622100 1_555
O24 Si13 1.626155 1_555
O25 Si17 1.622100 1_555
O25 Si10 1.626155 1_555
O26 Si18 1.622100 1_555
O26 Si9 1.626155 1_555
O27 Si19 1.622100 1_555
O27 Si12 1.626155 1_555
O28 Si20 1.622100 1_555
O28 Si11 1.626155 1_555
O29 Si21 1.622100 1_555
O29 Si8 1.626155 1_555
O30 Si22 1.622100 1_555
O30 Si15 1.626155 1_555
O31 Si23 1.622100 1_555
O31 Si14 1.626155 1_555
O32 Si24 1.622100 1_555
O32 Si5 1.626155 1_555
O33 Si25 1.622100 1_555
O33 Si2 1.626155 1_555
O34 Si26 1.622100 1_555
O34 Si1 1.626155 1_555
O35 Si27 1.622100 1_555
O35 Si4 1.626155 1_555
O36 Si28 1.622100 1_555
O36 Si3 1.626155 1_555
O37 Si29 1.622100 1_555
O37 Si0 1.626155 1_555
O38 Si30 1.622100 1_555
O38 Si7 1.626155 1_555
O39 Si31 1.622100 1_555
O39 Si6 1.626155 1_555
O40 Si52 1.622918 1_555
O40 Si0 1.623076 1_555
O41 Si55 1.622918 1_555
O41 Si1 1.623076 1_555
O42 Si54 1.622918 1_555
O42 Si2 1.623076 1_555
O43 Si53 1.622918 1_555
O43 Si3 1.623076 1_555
O44 Si48 1.622918 1_555
O44 Si4 1.623076 1_555
O45 Si51 1.622918 1_555
O45 Si5 1.623076 1_555
O46 Si50 1.622918 1_555
O46 Si6 1.623076 1_555
O47 Si49 1.622918 1_555
O47 Si7 1.623076 1_555
O48 Si53 1.622918 1_555
O48 Si8 1.623076 1_555
O49 Si50 1.622918 1_555
O49 Si9 1.623076 1_555
O50 Si49 1.622918 1_555
O50 Si10 1.623076 1_555
O51 Si52 1.622918 1_555
O51 Si11 1.623076 1_555
O52 Si51 1.622918 1_555
O52 Si12 1.623076 1_555
O53 Si48 1.622918 1_555
O53 Si13 1.623076 1_555
O54 Si55 1.622918 1_555
O54 Si14 1.623076 1_555
O55 Si54 1.622918 1_555
O55 Si15 1.623076 1_555
O56 Si56 1.620374 1_556
O56 Si0 1.621211 1_555
O57 Si57 1.620374 1_555
O57 Si1 1.621211 1_555
O58 Si58 1.620374 1_555
O58 Si2 1.621211 1_555
O59 Si59 1.620374 1_555
O59 Si3 1.621211 1_555
O60 Si60 1.620374 1_555
O60 Si4 1.621211 1_555
O61 Si61 1.620374 1_556
O61 Si5 1.621211 1_555
O62 Si62 1.620374 1_555
O62 Si6 1.621211 1_555
O63 Si63 1.620374 1_555
O63 Si7 1.621211 1_555
O64 Si61 1.620374 1_555
O64 Si8 1.621211 1_555
O65 Si58 1.620374 1_555
O65 Si9 1.621211 1_555
O66 Si57 1.620374 1_555
O66 Si10 1.621211 1_555
O67 Si60 1.620374 1_556
O67 Si11 1.621211 1_555
O68 Si59 1.620374 1_556
O68 Si12 1.621211 1_555
O69 Si56 1.620374 1_555
O69 Si13 1.621211 1_555
O70 Si63 1.620374 1_555
O70 Si14 1.621211 1_555
O71 Si62 1.620374 1_555
O71 Si15 1.621211 1_555
O72 Si45 1.617509 1_555
O72 Si0 1.624277 1_555
O73 Si42 1.617509 1_555
O73 Si1 1.624277 1_555
O74 Si41 1.617509 1_555
O74 Si2 1.624277 1_555
O75 Si44 1.617509 1_555
O75 Si3 1.624277 1_555
O76 Si43 1.617509 1_555
O76 Si4 1.624277 1_555
O77 Si40 1.617509 1_555
O77 Si5 1.624277 1_555
O78 Si47 1.617509 1_555
O78 Si6 1.624277 1_555
O79 Si46 1.617509 1_555
O79 Si7 1.624277 1_555
O80 Si37 1.617509 1_555
O80 Si8 1.624277 1_555
O81 Si34 1.617509 1_555
O81 Si9 1.624277 1_555
O82 Si33 1.617509 1_555
O82 Si10 1.624277 1_555
O83 Si36 1.617509 1_555
O83 Si11 1.624277 1_555
O84 Si35 1.617509 1_555
O84 Si12 1.624277 1_555
O85 Si32 1.617509 1_555
O85 Si13 1.624277 1_555
O86 Si39 1.617509 1_555
O86 Si14 1.624277 1_555
O87 Si38 1.617509 1_555
O87 Si15 1.624277 1_555
O88 Si48 1.594228 1_555
O88 Si53 1.594228 1_545
O89 Si50 1.594228 1_555
O89 Si49 1.594228 1_455
O90 Si52 1.594228 1_555
O90 Si51 1.594228 1_545
O91 Si54 1.594228 1_555
O91 Si55 1.594228 1_455
O92 Si48 1.626508 1_555
O92 Si52 1.626508 1_554
O93 Si55 1.626508 1_555
O93 Si49 1.626508 1_555
O94 Si54 1.626508 1_555
O94 Si50 1.626508 1_555
O95 Si53 1.626508 1_555
O95 Si51 1.626508 1_554
O96 Si56 1.628042 1_555
O96 Si60 1.628042 1_555
O97 Si63 1.628042 1_555
O97 Si57 1.628042 1_555
O98 Si58 1.628042 1_555
O98 Si62 1.628042 1_555
O99 Si61 1.628042 1_555
O99 Si59 1.628042 1_555
O100 Si59 1.594326 1_555
O100 Si56 1.594326 1_555
O101 Si57 1.594326 1_555
O101 Si62 1.594326 1_555
O102 Si63 1.594326 1_555
O102 Si58 1.594326 1_555
O103 Si61 1.594326 1_555
O103 Si60 1.594326 1_555
O104 Si32 1.629072 1_555
O104 Si38 1.629072 1_555
O105 Si33 1.629072 1_555
O105 Si36 1.629072 1_555
O106 Si34 1.629072 1_555
O106 Si35 1.629072 1_555
O107 Si37 1.629072 1_555
O107 Si39 1.629072 1_555
O108 Si40 1.629072 1_555
O108 Si46 1.629072 1_555
O109 Si44 1.629072 1_555
O109 Si41 1.629072 1_555
O110 Si43 1.629072 1_555
O110 Si42 1.629072 1_555
O111 Si45 1.629072 1_555
O111 Si47 1.629072 1_555
O112 Si32 1.632461 1_555
O112 Si43 1.632461 1_555
O113 Si33 1.632461 1_555
O113 Si46 1.632461 1_555
O114 Si47 1.632461 1_555
O114 Si34 1.632461 1_555
O115 Si35 1.632461 1_555
O115 Si40 1.632461 1_555
O116 Si45 1.632461 1_555
O116 Si36 1.632461 1_555
O117 Si44 1.632461 1_555
O117 Si37 1.632461 1_555
O118 Si38 1.632461 1_555
O118 Si41 1.632461 1_555
O119 Si42 1.632461 1_555
O119 Si39 1.632461 1_555
O120 Si44 1.634680 1_555
O120 Si32 1.634680 1_555
O121 Si33 1.634680 1_555
O121 Si47 1.634680 1_555
O122 Si46 1.634680 1_555
O122 Si34 1.634680 1_555
O123 Si35 1.634680 1_555
O123 Si45 1.634680 1_555
O124 Si40 1.634680 1_555
O124 Si36 1.634680 1_555
O125 Si43 1.634680 1_555
O125 Si37 1.634680 1_555
O126 Si38 1.634680 1_555
O126 Si42 1.634680 1_555
O127 Si41 1.634680 1_555
O127 Si39 1.634680 1_555
