# generated using pymatgen
data_K2SO4
_symmetry_space_group_name_H-M   'P 1'
_cell_length_a   5.74885069
_cell_length_b   5.74885069
_cell_length_c   7.86671805
_cell_angle_alpha   90.00000000
_cell_angle_beta   90.00000000
_cell_angle_gamma   118.41704652
_symmetry_Int_Tables_number   1
_chemical_formula_structural   K2SO4
_chemical_formula_sum   'K4 S2 O8'
_cell_volume   228.66250548
_cell_formula_units_Z   2
loop_
 _symmetry_equiv_pos_site_id
 _symmetry_equiv_pos_as_xyz
  1  'x, y, z'
loop_
 _atom_site_type_symbol
 _atom_site_label
 _atom_site_symmetry_multiplicity
 _atom_site_fract_x
 _atom_site_fract_y
 _atom_site_fract_z
 _atom_site_occupancy
  K  K0  1  0.30964789  0.69035211  0.75000000  1
  K  K1  1  -0.00000000  0.00000000  0.00000000  1
  K  K2  1  -0.00000000  0.00000000  0.50000000  1
  K  K3  1  0.69035211  0.30964789  0.25000000  1
  S  S0  1  0.34791804  0.65208196  0.25000000  1
  S  S1  1  0.65208196  0.34791804  0.75000000  1
  O  O0  1  0.23036674  0.35923790  0.25000000  1
  O  O1  1  0.26190151  0.73809849  0.40309556  1
  O  O2  1  0.26190151  0.73809849  0.09690444  1
  O  O3  1  0.64076210  0.76963326  0.25000000  1
  O  O4  1  0.35923790  0.23036674  0.75000000  1
  O  O5  1  0.73809849  0.26190151  0.59690444  1
  O  O6  1  0.73809849  0.26190151  0.90309556  1
  O  O7  1  0.76963326  0.64076210  0.75000000  1
loop_
_geom_bond_atom_site_label_1
_geom_bond_atom_site_label_2
_geom_bond_distance
_geom_bond_site_symmetry_2
K0 O1 2.769446 1_555
K0 O2 2.769446 1_556
K0 O7 2.791339 1_555
K0 O4 2.791339 1_555
K0 O7 2.979365 1_455
K0 O4 2.979365 1_565
K0 O6 3.257405 1_565
K0 O5 3.257405 1_455
K0 O5 3.257405 1_565
K0 O6 3.257405 1_455
K1 O2 2.696774 1_545
K1 O6 2.696774 1_454
K1 O4 2.698824 1_554
K1 O7 2.698824 1_444
K1 O3 2.698824 1_445
K1 O0 2.698824 1_555
K2 O1 2.696774 1_545
K2 O5 2.696774 1_455
K2 O3 2.698824 1_445
K2 O4 2.698824 1_555
K2 O0 2.698824 1_555
K2 O7 2.698824 1_445
K3 O5 2.769446 1_555
K3 O6 2.769446 1_554
K3 O0 2.791339 1_555
K3 O3 2.791339 1_555
K3 O3 2.979365 1_545
K3 O0 2.979365 1_655
K3 O2 3.257405 1_545
K3 O2 3.257405 1_655
K3 O1 3.257405 1_655
K3 O1 3.257405 1_545
O0 S0 1.485964 1_555
O1 S0 1.473862 1_555
O2 S0 1.473862 1_555
O3 S0 1.485964 1_555
O4 S1 1.485964 1_555
O5 S1 1.473862 1_555
O6 S1 1.473862 1_555
O7 S1 1.485964 1_555
