# generated using pymatgen
data_RbAlSiO4
_symmetry_space_group_name_H-M   'P 1'
_cell_length_a   5.37988400
_cell_length_b   8.90839600
_cell_length_c   9.34334700
_cell_angle_alpha   90.00000000
_cell_angle_beta   90.00000000
_cell_angle_gamma   90.00000000
_symmetry_Int_Tables_number   1
_chemical_formula_structural   RbAlSiO4
_chemical_formula_sum   'Rb4 Al4 Si4 O16'
_cell_volume   447.79052935
_cell_formula_units_Z   4
loop_
 _symmetry_equiv_pos_site_id
 _symmetry_equiv_pos_as_xyz
  1  'x, y, z'
loop_
 _atom_site_type_symbol
 _atom_site_label
 _atom_site_symmetry_multiplicity
 _atom_site_fract_x
 _atom_site_fract_y
 _atom_site_fract_z
 _atom_site_occupancy
  Rb  Rb0  1  0.48794300  0.00118300  0.30136800  1
  Rb  Rb1  1  0.98794300  0.99881700  0.69863200  1
  Rb  Rb2  1  0.98794300  0.49881700  0.80136800  1
  Rb  Rb3  1  0.48794300  0.50118300  0.19863200  1
  Al  Al0  1  0.01154800  0.81484100  0.08394200  1
  Al  Al1  1  0.51154800  0.18515900  0.91605800  1
  Al  Al2  1  0.51154800  0.68515900  0.58394200  1
  Al  Al3  1  0.01154800  0.31484100  0.41605800  1
  Si  Si0  1  0.01206700  0.69220500  0.41522600  1
  Si  Si1  1  0.51206700  0.30779500  0.58477400  1
  Si  Si2  1  0.51206700  0.80779500  0.91522600  1
  Si  Si3  1  0.01206700  0.19220500  0.08477400  1
  O  O0  1  0.08911900  0.75352500  0.25652400  1
  O  O1  1  0.58911900  0.24647500  0.74347600  1
  O  O2  1  0.58911900  0.74647500  0.75652400  1
  O  O3  1  0.08911900  0.25352500  0.24347600  1
  O  O4  1  0.21838800  0.75509300  0.53114100  1
  O  O5  1  0.71838800  0.24490700  0.46885900  1
  O  O6  1  0.71838800  0.74490700  0.03114100  1
  O  O7  1  0.21838800  0.25509300  0.96885900  1
  O  O8  1  0.73670000  0.75560000  0.46239900  1
  O  O9  1  0.23670000  0.24440000  0.53760100  1
  O  O10  1  0.23670000  0.74440000  0.96239900  1
  O  O11  1  0.73670000  0.25560000  0.03760100  1
  O  O12  1  0.01196600  0.01006000  0.08873700  1
  O  O13  1  0.51196600  0.98994000  0.91126300  1
  O  O14  1  0.51196600  0.48994000  0.58873700  1
  O  O15  1  0.01196600  0.51006000  0.41126300  1
loop_
_geom_bond_atom_site_label_1
_geom_bond_atom_site_label_2
_geom_bond_distance
_geom_bond_site_symmetry_2
Al0 O12 1.739667 1_565
Al0 O0 1.752900 1_555
Al0 O6 1.766060 1_455
Al0 O10 1.775002 1_554
Al1 O13 1.739667 1_545
Al1 O1 1.752900 1_555
Al1 O7 1.766060 1_555
Al1 O11 1.775002 1_556
Al2 O14 1.739667 1_555
Al2 O2 1.752900 1_555
Al2 O4 1.766060 1_555
Al2 O8 1.775002 1_555
Al3 O15 1.739667 1_555
Al3 O3 1.752900 1_555
Al3 O5 1.766060 1_455
Al3 O9 1.775002 1_555
O0 Si0 1.633695 1_555
O0 Rb0 3.105921 1_565
O0 Rb3 3.154303 1_555
O1 Si1 1.633695 1_555
O1 Rb1 3.105921 1_545
O1 Rb2 3.154303 1_555
O2 Si2 1.633695 1_555
O2 Rb2 3.105921 1_555
O2 Rb1 3.154303 1_555
O3 Si3 1.633695 1_555
O3 Rb3 3.105921 1_555
O3 Rb0 3.154303 1_555
O4 Si0 1.648904 1_555
O4 Rb1 2.949590 1_455
O4 Rb0 3.393818 1_565
O5 Si1 1.648904 1_555
O5 Rb0 2.949590 1_555
O5 Rb1 3.393818 1_545
O6 Si2 1.648904 1_554
O6 Rb3 2.949590 1_555
O6 Rb2 3.393818 1_554
O7 Si3 1.648904 1_556
O7 Rb2 2.949590 1_455
O7 Rb3 3.393818 1_556
O8 Si0 1.645562 1_655
O8 Rb0 2.973379 1_565
O8 Rb1 3.375384 1_555
O9 Si1 1.645562 1_555
O9 Rb1 2.973379 1_445
O9 Rb0 3.375384 1_555
O10 Si2 1.645562 1_555
O10 Rb2 2.973379 1_455
O10 Rb3 3.375384 1_556
O11 Si3 1.645562 1_655
O11 Rb3 2.973379 1_555
O11 Rb2 3.375384 1_554
O12 Si3 1.623042 1_555
O12 Rb0 3.241969 1_555
O12 Rb0 3.449777 1_455
O13 Si2 1.623042 1_555
O13 Rb1 3.241969 1_555
O13 Rb1 3.449777 1_455
O14 Si1 1.623042 1_555
O14 Rb2 3.241969 1_555
O14 Rb2 3.449777 1_455
O15 Si0 1.623042 1_555
O15 Rb3 3.241969 1_555
O15 Rb3 3.449777 1_455
