# generated using pymatgen
data_Li7VP4
_symmetry_space_group_name_H-M   'P 1'
_cell_length_a   4.54189700
_cell_length_b   8.09043441
_cell_length_c   9.14600672
_cell_angle_alpha   87.90654412
_cell_angle_beta   103.80777586
_cell_angle_gamma   103.39753779
_symmetry_Int_Tables_number   1
_chemical_formula_structural   Li7VP4
_chemical_formula_sum   'Li14 V2 P8'
_cell_volume   317.42193177
_cell_formula_units_Z   2
loop_
 _symmetry_equiv_pos_site_id
 _symmetry_equiv_pos_as_xyz
  1  'x, y, z'
loop_
 _atom_site_type_symbol
 _atom_site_label
 _atom_site_symmetry_multiplicity
 _atom_site_fract_x
 _atom_site_fract_y
 _atom_site_fract_z
 _atom_site_occupancy
  Li  Li0  1  0.76872700  0.84902600  0.63829100  1
  Li  Li1  1  0.09167100  0.11365300  0.47358300  1
  Li  Li2  1  0.07614400  0.44601300  0.71847800  1
  Li  Li3  1  0.20611800  0.80667000  0.46867600  1
  Li  Li4  1  0.34153200  0.22225800  0.80206000  1
  Li  Li5  1  0.55263500  0.65170000  0.33160000  1
  Li  Li6  1  0.25030800  0.72547600  0.79528200  1
  Li  Li7  1  0.56365300  0.07612400  0.26766200  1
  Li  Li8  1  0.61439400  0.51810000  0.69017100  1
  Li  Li9  1  0.96635000  0.90387800  0.19271100  1
  Li  Li10  1  0.55618100  0.32348700  0.44133100  1
  Li  Li11  1  0.08508500  0.25371100  0.17705300  1
  Li  Li12  1  0.78844100  0.15853900  0.65610200  1
  Li  Li13  1  0.09447000  0.45628600  0.46085100  1
  V  V0  1  0.04398500  0.54559700  0.03488900  1
  V  V1  1  0.66635200  0.99800600  0.92175100  1
  P  P0  1  0.23185900  0.05423500  0.01891000  1
  P  P1  1  0.33135000  0.97786200  0.67486000  1
  P  P2  1  0.80540400  0.74072500  0.88695200  1
  P  P3  1  0.47371000  0.50617000  0.92800000  1
  P  P4  1  0.41872200  0.82190900  0.09166200  1
  P  P5  1  0.00811400  0.63124000  0.26435900  1
  P  P6  1  0.66160700  0.39452300  0.20078300  1
  P  P7  1  0.89565200  0.28262800  0.89997600  1
loop_
_geom_bond_atom_site_label_1
_geom_bond_atom_site_label_2
_geom_bond_distance
_geom_bond_site_symmetry_2
Li0 P2 2.389337 1_555
Li0 P1 2.472136 1_655
Li0 P1 2.539049 1_555
Li1 P1 2.287078 1_545
Li2 P7 2.271994 1_455
Li2 P3 2.275698 1_555
Li3 P1 2.260896 1_555
Li3 P5 2.261697 1_555
Li4 P1 2.316284 1_545
Li4 P7 2.400226 1_555
Li4 P0 2.447523 1_556
Li4 P3 2.487455 1_555
Li4 P7 2.549069 1_455
Li5 P5 2.336386 1_655
Li5 P5 2.369355 1_555
Li5 P4 2.571421 1_555
Li5 P6 2.635798 1_555
Li6 P1 2.280096 1_555
Li6 P2 2.394409 1_455
Li6 P3 2.395844 1_555
Li6 P2 2.434951 1_555
Li6 P4 2.725780 1_556
Li6 V0 2.813139 1_556
Li7 P0 2.397414 1_555
Li7 P4 2.522537 1_545
Li7 P6 2.586788 1_555
Li8 P3 2.401780 1_555
Li8 P2 2.450159 1_555
Li9 P5 2.315109 1_655
Li9 P0 2.356841 1_665
Li9 P4 2.379827 1_555
Li9 P4 2.664209 1_655
Li10 P6 2.383854 1_555
Li11 P7 2.495220 1_454
Li11 P0 2.504046 1_555
Li11 P6 2.505422 1_455
Li11 P6 2.562403 1_555
Li11 V0 2.676969 1_555
Li12 P1 2.285074 1_545
Li12 P7 2.374580 1_555
Li13 P5 2.263173 1_555
Li13 P6 2.678059 1_455
P0 P4 2.252632 1_545
P0 V1 2.447909 1_444
P0 V1 2.484673 1_544
P1 V1 2.390086 1_555
P2 V0 2.331084 1_656
P2 V1 2.363561 1_555
P3 V0 2.467575 1_556
P3 V0 2.489475 1_656
P3 P6 2.635315 1_556
P4 V1 2.374795 1_554
P4 V0 2.462441 1_555
P5 P6 2.174976 1_455
P5 V0 2.287596 1_555
P6 V0 2.636442 1_655
P7 V1 2.319687 1_545
P7 V0 2.373519 1_656
