# generated using pymatgen
data_Cs2Cr4Cu(HO4)4
_symmetry_space_group_name_H-M   'P 1'
_cell_length_a   7.74572000
_cell_length_b   7.85218009
_cell_length_c   7.96617285
_cell_angle_alpha   93.26895009
_cell_angle_beta   117.35409967
_cell_angle_gamma   98.99704793
_symmetry_Int_Tables_number   1
_chemical_formula_structural   Cs2Cr4Cu(HO4)4
_chemical_formula_sum   'Cs2 Cr4 Cu1 H4 O16'
_cell_volume   420.42645807
_cell_formula_units_Z   1
loop_
 _symmetry_equiv_pos_site_id
 _symmetry_equiv_pos_as_xyz
  1  'x, y, z'
loop_
 _atom_site_type_symbol
 _atom_site_label
 _atom_site_symmetry_multiplicity
 _atom_site_fract_x
 _atom_site_fract_y
 _atom_site_fract_z
 _atom_site_occupancy
  Cs  Cs0  1  0.74010100  0.83424400  0.26177400  1
  Cs  Cs1  1  0.25989900  0.16575600  0.73822600  1
  Cr  Cr0  1  0.70158200  0.84781600  0.75539000  1
  Cr  Cr1  1  0.29841800  0.15218400  0.24461000  1
  Cr  Cr2  1  0.24511200  0.66887500  0.46883300  1
  Cr  Cr3  1  0.75488800  0.33112500  0.53116700  1
  Cu  Cu0  1  0.00000000  0.50000000  0.00000000  1
  H  H0  1  0.21075800  0.79512100  0.99991800  1
  H  H1  1  0.68573800  0.36335700  0.98957400  1
  H  H2  1  0.78924200  0.20487900  0.00008200  1
  H  H3  1  0.31426200  0.63664300  0.01042600  1
  O  O0  1  0.81411200  0.33127500  0.05399800  1
  O  O1  1  0.33348300  0.00243300  0.11542800  1
  O  O2  1  0.08771400  0.64992100  0.23414200  1
  O  O3  1  0.91228600  0.35007900  0.76585800  1
  O  O4  1  0.88862900  0.92380200  0.72261900  1
  O  O5  1  0.26345600  0.32387700  0.13402200  1
  O  O6  1  0.51315000  0.21237000  0.47679300  1
  O  O7  1  0.73123000  0.51881400  0.46065900  1
  O  O8  1  0.26877000  0.48118600  0.53934100  1
  O  O9  1  0.11137100  0.07619800  0.27738100  1
  O  O10  1  0.66651700  0.99756700  0.88457200  1
  O  O11  1  0.48685000  0.78763000  0.52320700  1
  O  O12  1  0.73654400  0.67612300  0.86597800  1
  O  O13  1  0.18588800  0.66872500  0.94600200  1
  O  O14  1  0.16173200  0.77665000  0.58457300  1
  O  O15  1  0.83826800  0.22335000  0.41542700  1
loop_
_geom_bond_atom_site_label_1
_geom_bond_atom_site_label_2
_geom_bond_distance
_geom_bond_site_symmetry_2
Cs0 O7 3.023879 1_555
Cs0 H3 3.044987 1_555
Cs0 O15 3.066434 1_565
Cs0 O9 3.135376 1_665
Cs0 O10 3.176930 1_554
Cs0 O14 3.218643 1_655
Cs0 O4 3.296481 1_555
Cs0 O12 3.308566 1_554
Cs0 O2 3.334672 1_655
Cs0 O1 3.335437 1_565
Cs0 O11 3.454831 1_555
Cs1 O8 3.023879 1_555
Cs1 H1 3.044987 1_555
Cs1 O14 3.066434 1_545
Cs1 O4 3.135376 1_445
Cs1 O1 3.176930 1_556
Cs1 O15 3.218643 1_455
Cs1 O9 3.296481 1_555
Cs1 O5 3.308566 1_556
Cs1 O3 3.334672 1_455
Cs1 O10 3.335437 1_545
Cs1 O6 3.454831 1_555
Cr0 O4 1.618081 1_555
Cr0 O12 1.642370 1_555
Cr0 O10 1.653543 1_555
Cr0 O11 1.799490 1_555
Cr1 O9 1.618081 1_555
Cr1 O5 1.642370 1_555
Cr1 O1 1.653543 1_555
Cr1 O6 1.799490 1_555
Cr2 O8 1.614107 1_555
Cr2 O14 1.616338 1_555
Cr2 O2 1.679503 1_555
Cr2 O11 1.796014 1_555
Cr3 O7 1.614107 1_555
Cr3 O15 1.616338 1_555
Cr3 O3 1.679503 1_555
Cr3 O6 1.796014 1_555
Cu0 O2 1.913454 1_555
Cu0 O3 1.913454 1_454
Cu0 O13 2.012699 1_554
Cu0 O0 2.012699 1_455
Cu0 O12 2.503114 1_454
Cu0 O5 2.503114 1_555
H0 O13 1.011020 1_555
H1 O0 0.969382 1_556
H2 O0 1.011020 1_555
H3 O13 0.969382 1_554
