# generated using pymatgen
data_Pr3(ZnAs3)2
_symmetry_space_group_name_H-M   'P 1'
_cell_length_a   5.74612300
_cell_length_b   7.78428400
_cell_length_c   12.43290137
_cell_angle_alpha   74.50368414
_cell_angle_beta   90.00000000
_cell_angle_gamma   90.00000000
_symmetry_Int_Tables_number   1
_chemical_formula_structural   Pr3(ZnAs3)2
_chemical_formula_sum   'Pr6 Zn4 As12'
_cell_volume   535.90071767
_cell_formula_units_Z   2
loop_
 _symmetry_equiv_pos_site_id
 _symmetry_equiv_pos_as_xyz
  1  'x, y, z'
loop_
 _atom_site_type_symbol
 _atom_site_label
 _atom_site_symmetry_multiplicity
 _atom_site_fract_x
 _atom_site_fract_y
 _atom_site_fract_z
 _atom_site_occupancy
  Pr  Pr0  1  0.25000000  0.05560000  0.89509700  1
  Pr  Pr1  1  0.25000000  0.28896600  0.15940400  1
  Pr  Pr2  1  0.25000000  0.72741500  0.51358000  1
  Pr  Pr3  1  0.75000000  0.71103400  0.84059600  1
  Pr  Pr4  1  0.75000000  0.94440000  0.10490300  1
  Pr  Pr5  1  0.75000000  0.27258500  0.48642000  1
  Zn  Zn0  1  0.25000000  0.45304400  0.87120800  1
  Zn  Zn1  1  0.25000000  0.08102300  0.63117900  1
  Zn  Zn2  1  0.75000000  0.54695600  0.12879200  1
  Zn  Zn3  1  0.75000000  0.91897700  0.36882100  1
  As  As0  1  0.25000000  0.78250900  0.75888100  1
  As  As1  1  0.25000000  0.68877700  0.04636900  1
  As  As2  1  0.25000000  0.88933100  0.17374500  1
  As  As3  1  0.25000000  0.48888300  0.35006000  1
  As  As4  1  0.25000000  0.15884500  0.42508000  1
  As  As5  1  0.25000000  0.37339800  0.67824200  1
  As  As6  1  0.75000000  0.84115500  0.57492000  1
  As  As7  1  0.75000000  0.11066900  0.82625500  1
  As  As8  1  0.75000000  0.31122300  0.95363100  1
  As  As9  1  0.75000000  0.62660200  0.32175800  1
  As  As10  1  0.75000000  0.21749100  0.24111900  1
  As  As11  1  0.75000000  0.51111700  0.64994000  1
loop_
_geom_bond_atom_site_label_1
_geom_bond_atom_site_label_2
_geom_bond_distance
_geom_bond_site_symmetry_2
Pr0 Zn0 3.028020 1_555
Pr0 Zn1 3.234020 1_555
Pr1 Zn2 3.467571 1_455
Pr1 Zn2 3.467571 1_555
Pr1 Zn0 3.467646 1_554
Pr3 Zn0 3.467571 1_555
Pr3 Zn0 3.467571 1_655
Pr3 Zn2 3.467646 1_556
Pr4 Zn2 3.028020 1_555
Pr4 Zn3 3.234020 1_555
As0 Zn1 2.439066 1_565
As0 Zn0 2.571752 1_555
As0 Pr3 3.048632 1_455
As0 Pr3 3.048632 1_555
As0 Pr0 3.051397 1_565
As0 Pr2 3.191260 1_555
As1 As2 2.503261 1_555
As1 Pr0 2.970043 1_564
As1 Pr1 3.053509 1_555
As1 Zn2 3.149421 1_555
As1 Zn2 3.149421 1_455
As1 Zn0 3.200828 1_554
As1 Pr4 3.676597 1_455
As1 Pr4 3.676597 1_555
As1 Pr3 3.820056 1_454
As1 Pr3 3.820056 1_554
As2 Pr4 2.995791 1_455
As2 Pr4 2.995791 1_555
As2 Pr1 3.068050 1_565
As2 Pr0 3.358759 1_564
As3 As4 2.487939 1_555
As3 As9 3.053851 1_455
As3 As9 3.053851 1_555
As3 Pr2 3.098073 1_555
As3 Pr1 3.164138 1_555
As3 Pr5 3.526799 1_555
As3 Pr5 3.526799 1_455
As4 Zn1 2.470517 1_555
As4 Pr5 3.159242 1_555
As4 Pr5 3.159242 1_455
As4 Pr1 3.185716 1_555
As4 Pr2 3.242651 1_545
As5 Zn1 2.496766 1_555
As5 Zn0 2.633440 1_555
As5 Pr2 2.961545 1_555
As5 Pr0 3.134481 1_555
As6 Zn3 2.470517 1_555
As6 Pr2 3.159242 1_655
As6 Pr2 3.159242 1_555
As6 Pr3 3.185716 1_555
As6 Pr5 3.242651 1_565
As7 As8 2.503261 1_555
As7 Pr0 2.995791 1_555
As7 Pr0 2.995791 1_655
As7 Pr3 3.068050 1_545
As7 Pr4 3.358759 1_546
As8 Pr4 2.970043 1_546
As8 Pr3 3.053509 1_555
As8 Zn0 3.149421 1_555
As8 Zn0 3.149421 1_655
As8 Zn2 3.200828 1_556
As8 Pr0 3.676597 1_555
As8 Pr0 3.676597 1_655
As8 Pr1 3.820056 1_556
As8 Pr1 3.820056 1_656
As9 Zn3 2.496766 1_555
As9 Zn2 2.633440 1_555
As9 Pr5 2.961545 1_555
As9 Pr4 3.134481 1_555
As10 Zn3 2.439066 1_545
As10 Zn2 2.571752 1_555
As10 Pr1 3.048632 1_655
As10 Pr1 3.048632 1_555
As10 Pr4 3.051397 1_545
As10 Pr5 3.191260 1_555
As11 As6 2.487939 1_555
As11 As5 3.053851 1_555
As11 As5 3.053851 1_655
As11 Pr5 3.098073 1_555
As11 Pr3 3.164138 1_555
As11 Pr2 3.526799 1_655
As11 Pr2 3.526799 1_555
