# generated using pymatgen
data_DyCuPbSe3
_symmetry_space_group_name_H-M   'P 1'
_cell_length_a   4.06241100
_cell_length_b   10.60762900
_cell_length_c   13.62857700
_cell_angle_alpha   90.00000000
_cell_angle_beta   90.00000000
_cell_angle_gamma   90.00000000
_symmetry_Int_Tables_number   1
_chemical_formula_structural   DyCuPbSe3
_chemical_formula_sum   'Dy4 Cu4 Pb4 Se12'
_cell_volume   587.29011854
_cell_formula_units_Z   4
loop_
 _symmetry_equiv_pos_site_id
 _symmetry_equiv_pos_as_xyz
  1  'x, y, z'
loop_
 _atom_site_type_symbol
 _atom_site_label
 _atom_site_symmetry_multiplicity
 _atom_site_fract_x
 _atom_site_fract_y
 _atom_site_fract_z
 _atom_site_occupancy
  Dy  Dy0  1  0.25000000  0.51427400  0.74235500  1
  Dy  Dy1  1  0.75000000  0.98572600  0.24235500  1
  Dy  Dy2  1  0.75000000  0.48572600  0.25764500  1
  Dy  Dy3  1  0.25000000  0.01427400  0.75764500  1
  Cu  Cu0  1  0.25000000  0.74105100  0.22262500  1
  Cu  Cu1  1  0.75000000  0.25894900  0.77737500  1
  Cu  Cu2  1  0.75000000  0.75894900  0.72262500  1
  Cu  Cu3  1  0.25000000  0.24105100  0.27737500  1
  Pb  Pb0  1  0.75000000  0.22529100  0.49507000  1
  Pb  Pb1  1  0.25000000  0.27470900  0.99507000  1
  Pb  Pb2  1  0.25000000  0.77470900  0.50493000  1
  Pb  Pb3  1  0.75000000  0.72529100  0.00493000  1
  Se  Se0  1  0.75000000  0.23961400  0.16950500  1
  Se  Se1  1  0.25000000  0.55084900  0.11566400  1
  Se  Se2  1  0.75000000  0.94915100  0.61566400  1
  Se  Se3  1  0.75000000  0.73961400  0.33049500  1
  Se  Se4  1  0.75000000  0.08379600  0.89425400  1
  Se  Se5  1  0.25000000  0.91620400  0.10574600  1
  Se  Se6  1  0.75000000  0.44915100  0.88433600  1
  Se  Se7  1  0.25000000  0.41620400  0.39425400  1
  Se  Se8  1  0.25000000  0.05084900  0.38433600  1
  Se  Se9  1  0.25000000  0.26038600  0.66950500  1
  Se  Se10  1  0.25000000  0.76038600  0.83049500  1
  Se  Se11  1  0.75000000  0.58379600  0.60574600  1
loop_
_geom_bond_atom_site_label_1
_geom_bond_atom_site_label_2
_geom_bond_distance
_geom_bond_site_symmetry_2
Dy0 Se11 2.852349 1_455
Dy0 Se11 2.852349 1_555
Dy0 Se9 2.870329 1_555
Dy0 Se10 2.873762 1_555
Dy0 Se6 2.889156 1_555
Dy0 Se6 2.889156 1_455
Dy1 Se5 2.852349 1_555
Dy1 Se5 2.852349 1_655
Dy1 Se0 2.870329 1_565
Dy1 Se3 2.873762 1_555
Dy1 Se8 2.889156 1_665
Dy1 Se8 2.889156 1_565
Dy2 Se7 2.852349 1_655
Dy2 Se7 2.852349 1_555
Dy2 Se3 2.870329 1_555
Dy2 Se0 2.873762 1_555
Dy2 Se1 2.889156 1_655
Dy2 Se1 2.889156 1_555
Dy3 Se4 2.852349 1_555
Dy3 Se4 2.852349 1_455
Dy3 Se10 2.870329 1_545
Dy3 Se9 2.873762 1_555
Dy3 Se2 2.889156 1_445
Dy3 Se2 2.889156 1_545
Cu0 Se5 2.447309 1_555
Cu0 Se1 2.489105 1_555
Cu0 Se3 2.507442 1_555
Cu0 Se3 2.507442 1_455
Cu1 Se4 2.447309 1_555
Cu1 Se6 2.489105 1_555
Cu1 Se9 2.507442 1_555
Cu1 Se9 2.507442 1_655
Cu2 Se11 2.447309 1_555
Cu2 Se2 2.489105 1_555
Cu2 Se10 2.507442 1_555
Cu2 Se10 2.507442 1_655
Cu3 Se7 2.447309 1_555
Cu3 Se8 2.489105 1_555
Cu3 Se0 2.507442 1_455
Cu3 Se0 2.507442 1_555
Pb0 Se8 3.134862 1_655
Pb0 Se8 3.134862 1_555
Pb0 Se9 3.148959 1_555
Pb0 Se9 3.148959 1_655
Pb0 Se7 3.180374 1_555
Pb0 Se7 3.180374 1_655
Pb0 Se2 3.358769 1_545
Pb1 Se6 3.134862 1_555
Pb1 Se6 3.134862 1_455
Pb1 Se0 3.148959 1_456
Pb1 Se0 3.148959 1_556
Pb1 Se4 3.180374 1_455
Pb1 Se4 3.180374 1_555
Pb1 Se1 3.358769 1_556
Pb2 Se2 3.134862 1_455
Pb2 Se2 3.134862 1_555
Pb2 Se3 3.148959 1_555
Pb2 Se3 3.148959 1_455
Pb2 Se11 3.180374 1_555
Pb2 Se11 3.180374 1_455
Pb2 Se8 3.358769 1_565
Pb3 Se1 3.134862 1_655
Pb3 Se1 3.134862 1_555
Pb3 Se10 3.148959 1_554
Pb3 Se10 3.148959 1_654
Pb3 Se5 3.180374 1_655
Pb3 Se5 3.180374 1_555
Pb3 Se6 3.358769 1_554
