# generated using pymatgen
data_Mg5Al4Fe(SiO4)6
_symmetry_space_group_name_H-M   'P 1'
_cell_length_a   7.28909500
_cell_length_b   8.91684209
_cell_length_c   13.79810807
_cell_angle_alpha   77.00989107
_cell_angle_beta   81.22795882
_cell_angle_gamma   66.76857787
_symmetry_Int_Tables_number   1
_chemical_formula_structural   Mg5Al4Fe(SiO4)6
_chemical_formula_sum   'Mg10 Al8 Fe2 Si12 O48'
_cell_volume   800.96983105
_cell_formula_units_Z   2
loop_
 _symmetry_equiv_pos_site_id
 _symmetry_equiv_pos_as_xyz
  1  'x, y, z'
loop_
 _atom_site_type_symbol
 _atom_site_label
 _atom_site_symmetry_multiplicity
 _atom_site_fract_x
 _atom_site_fract_y
 _atom_site_fract_z
 _atom_site_occupancy
  Mg  Mg0  1  0.02156700  0.97495700  0.99831100  1
  Mg  Mg1  1  0.95117300  0.77168300  0.27576400  1
  Mg  Mg2  1  0.96026400  0.25240800  0.77290300  1
  Mg  Mg3  1  0.72381500  0.35112900  0.14574900  1
  Mg  Mg4  1  0.69210500  0.89146800  0.64837800  1
  Mg  Mg5  1  0.48996600  0.46754400  0.50685600  1
  Mg  Mg6  1  0.23608100  0.09783700  0.38444400  1
  Mg  Mg7  1  0.24477400  0.58799000  0.87564200  1
  Mg  Mg8  1  0.26821500  0.36491900  0.11092200  1
  Mg  Mg9  1  0.26863600  0.85266000  0.61638300  1
  Al  Al0  1  0.89034800  0.65315700  0.06761600  1
  Al  Al1  1  0.88667300  0.16135800  0.56380500  1
  Al  Al2  1  0.57249700  0.80310200  0.44033800  1
  Al  Al3  1  0.58135300  0.29331300  0.93475600  1
  Al  Al4  1  0.37245000  0.40652600  0.33502400  1
  Al  Al5  1  0.36436200  0.89962300  0.84204700  1
  Al  Al6  1  0.19865400  0.05071200  0.17627600  1
  Al  Al7  1  0.11139000  0.54804600  0.67876900  1
  Fe  Fe0  1  0.01868400  0.48141500  0.48493400  1
  Fe  Fe1  1  0.51727600  0.95468100  0.99001700  1
  Si  Si0  1  0.98130000  0.38646800  0.28124300  1
  Si  Si1  1  0.97370400  0.89207600  0.78405900  1
  Si  Si2  1  0.69067100  0.10095900  0.38496900  1
  Si  Si3  1  0.69259300  0.59642900  0.88832800  1
  Si  Si4  1  0.66867200  0.03080100  0.13512500  1
  Si  Si5  1  0.68620400  0.53747900  0.63607000  1
  Si  Si6  1  0.33066200  0.68839900  0.08025600  1
  Si  Si7  1  0.32360200  0.19394800  0.57429600  1
  Si  Si8  1  0.48065800  0.70327000  0.28422400  1
  Si  Si9  1  0.47384500  0.21587600  0.77196600  1
  Si  Si10  1  0.09572200  0.80941000  0.46274800  1
  Si  Si11  1  0.10130900  0.30167000  0.96082400  1
  O  O0  1  0.85800500  0.49774000  0.18201000  1
  O  O1  1  0.85834400  0.00688100  0.68304900  1
  O  O2  1  0.90755700  0.38747900  0.39795000  1
  O  O3  1  0.89205700  0.91123000  0.89849300  1
  O  O4  1  0.89587500  0.93102000  0.39109800  1
  O  O5  1  0.89806400  0.42601400  0.89247000  1
  O  O6  1  0.68795700  0.67425800  0.98796900  1
  O  O7  1  0.68576100  0.17737300  0.48546600  1
  O  O8  1  0.84861000  0.00007000  0.20030500  1
  O  O9  1  0.88043400  0.49382800  0.69940800  1
  O  O10  1  0.70608600  0.85494600  0.10026900  1
  O  O11  1  0.71002900  0.36624400  0.59821900  1
  O  O12  1  0.61536600  0.75899700  0.79605000  1
  O  O13  1  0.61550100  0.26064100  0.29032600  1
  O  O14  1  0.49107100  0.52911000  0.36171900  1
  O  O15  1  0.47936500  0.03967800  0.84527100  1
  O  O16  1  0.53333400  0.00894800  0.38050200  1
  O  O17  1  0.53737900  0.50291100  0.88590900  1
  O  O18  1  0.45737000  0.47721600  0.07490400  1
  O  O19  1  0.44712300  0.97968500  0.56944600  1
  O  O20  1  0.72546000  0.15741300  0.03380600  1
  O  O21  1  0.73196200  0.65999600  0.53125800  1
  O  O22  1  0.67301100  0.73036100  0.31934100  1
  O  O23  1  0.66533700  0.23961900  0.81019200  1
  O  O24  1  0.45937200  0.64368200  0.18413400  1
  O  O25  1  0.47593800  0.15464400  0.66766700  1
  O  O26  1  0.30198700  0.27284400  0.44507500  1
  O  O27  1  0.29248800  0.76790400  0.94912700  1
  O  O28  1  0.42549100  0.11657200  0.16330300  1
  O  O29  1  0.45516000  0.62486500  0.67481900  1
  O  O30  1  0.35531800  0.74465800  0.47850100  1
  O  O31  1  0.35830600  0.24714700  0.96812000  1
  O  O32  1  0.19060300  0.42807800  0.25603300  1
  O  O33  1  0.18765400  0.92816100  0.75895200  1
  O  O34  1  0.08834700  0.50354400  0.99551600  1
  O  O35  1  0.08464800  0.00343000  0.49716300  1
  O  O36  1  0.11507300  0.65464800  0.39653400  1
  O  O37  1  0.10836500  0.14336100  0.90096800  1
  O  O38  1  0.08673100  0.70924100  0.11360800  1
  O  O39  1  0.08865600  0.20354100  0.61429800  1
  O  O40  1  0.28816800  0.88302500  0.28626300  1
  O  O41  1  0.27106100  0.38598400  0.77812300  1
  O  O42  1  0.27513100  0.91328700  0.08095400  1
  O  O43  1  0.25235500  0.42184500  0.57989700  1
  O  O44  1  0.03948100  0.23061600  0.08065100  1
  O  O45  1  0.02165900  0.74025200  0.58110500  1
  O  O46  1  0.06105900  0.18994400  0.26915600  1
  O  O47  1  0.04667000  0.69575500  0.77156200  1
loop_
_geom_bond_atom_site_label_1
_geom_bond_atom_site_label_2
_geom_bond_distance
_geom_bond_site_symmetry_2
Mg0 O37 2.010670 1_565
Mg0 O3 2.069447 1_455
Mg0 O42 2.139598 1_556
Mg0 O20 2.193370 1_466
Mg0 O27 2.246602 1_555
Mg0 O38 2.453243 1_556
Mg1 O8 1.968089 1_565
Mg1 O36 2.033487 1_655
Mg1 O22 2.173977 1_555
Mg1 O4 2.254477 1_555
Mg1 O38 2.396714 1_655
Mg2 O9 2.052189 1_555
Mg2 O37 2.052954 1_655
Mg2 O23 2.174585 1_555
Mg2 O39 2.310267 1_655
Mg2 O5 2.385389 1_555
Mg3 O18 2.086602 1_555
Mg3 O0 2.090023 1_555
Mg3 O13 2.133655 1_555
Mg3 O44 2.260262 1_655
Mg3 O20 2.558730 1_555
Mg4 O19 2.023254 1_555
Mg4 O1 2.034243 1_565
Mg4 O12 2.225204 1_555
Mg4 O25 2.301394 1_565
Mg4 O45 2.403629 1_655
Mg5 O14 1.953518 1_555
Mg5 O11 1.984926 1_555
Mg5 O43 2.005299 1_555
Mg5 O30 2.234142 1_555
Mg5 O7 2.473929 1_555
Mg6 O16 1.988575 1_555
Mg6 O35 1.991692 1_555
Mg6 O46 2.009386 1_555
Mg6 O26 2.160267 1_555
Mg6 O40 2.466638 1_545
Mg7 O17 1.977859 1_555
Mg7 O47 1.997092 1_555
Mg7 O34 2.035946 1_555
Mg7 O27 2.236456 1_555
Mg7 O41 2.414649 1_555
Mg8 O18 1.951178 1_555
Mg8 O34 2.062990 1_554
Mg8 O28 2.066624 1_555
Mg8 O32 2.134563 1_555
Mg8 O31 2.325528 1_554
Mg8 O44 2.529978 1_555
Mg9 O19 1.992667 1_555
Mg9 O29 2.010944 1_555
Mg9 O35 2.137363 1_565
Mg9 O33 2.144573 1_555
Mg9 O30 2.218834 1_555
Mg9 O45 2.528354 1_555
Al0 O34 1.868746 1_654
Al0 O10 1.875598 1_555
Al0 O6 1.897912 1_554
Al0 O0 1.904827 1_555
Al0 O38 1.919988 1_655
Al1 O35 1.866901 1_655
Al1 O11 1.889134 1_555
Al1 O7 1.892594 1_555
Al1 O39 1.913639 1_655
Al1 O1 1.936240 1_555
Al2 O21 1.763005 1_555
Al2 O16 1.763360 1_565
Al2 O30 1.824301 1_555
Al2 O22 1.866461 1_555
Al3 O17 1.754136 1_555
Al3 O20 1.768851 1_556
Al3 O31 1.799765 1_555
Al3 O23 1.837358 1_555
Al4 O14 1.761190 1_555
Al4 O32 1.768430 1_555
Al4 O13 1.849469 1_555
Al4 O26 1.849837 1_555
Al5 O33 1.760423 1_555
Al5 O15 1.768194 1_565
Al5 O27 1.818281 1_555
Al5 O12 1.875184 1_555
Al5 O37 2.449231 1_565
Al6 O40 1.864626 1_545
Al6 O42 1.871983 1_545
Al6 O46 1.878993 1_555
Al6 O44 1.925489 1_555
Al6 O28 1.933716 1_555
Al7 O45 1.878114 1_555
Al7 O43 1.879821 1_555
Al7 O9 1.892830 1_455
Al7 O41 1.895100 1_555
Al7 O47 1.918429 1_555
Fe0 O2 2.020387 1_455
Fe0 O36 2.028605 1_555
Fe0 O43 2.134057 1_555
Fe0 O21 2.176420 1_455
Fe0 O26 2.260379 1_555
Fe0 O39 2.622590 1_555
Fe1 O15 1.990547 1_565
Fe1 O10 2.015946 1_556
Fe1 O42 2.110968 1_556
Fe1 O6 2.316882 1_555
Fe1 O31 2.367195 1_565
O0 Si0 1.651675 1_555
O1 Si1 1.653633 1_545
O2 Si0 1.618914 1_555
O3 Si1 1.622019 1_555
O4 Si2 1.653339 1_565
O4 Si10 1.728123 1_655
O5 Si3 1.657440 1_555
O5 Si11 1.724490 1_655
O6 Si3 1.664113 1_555
O7 Si2 1.666970 1_555
O8 Si4 1.603013 1_555
O9 Si5 1.646023 1_555
O10 Si4 1.651124 1_565
O11 Si5 1.660100 1_555
O12 Si3 1.668681 1_555
O13 Si2 1.673261 1_555
O14 Si8 1.657120 1_555
O15 Si9 1.655673 1_555
O16 Si2 1.666964 1_555
O17 Si3 1.656736 1_555
O18 Si6 1.753327 1_555
O19 Si7 1.774088 1_565
O20 Si4 1.697932 1_555
O21 Si5 1.681156 1_555
O22 Si8 1.669131 1_555
O23 Si9 1.667083 1_555
O24 Si8 1.635232 1_555
O24 Si6 1.718045 1_555
O25 Si9 1.646031 1_555
O25 Si7 1.715216 1_555
O26 Si7 1.770078 1_555
O27 Si6 1.809689 1_556
O28 Si4 1.652906 1_555
O29 Si5 1.614512 1_555
O30 Si10 1.779957 1_555
O31 Si11 1.752913 1_555
O32 Si0 1.677163 1_455
O33 Si1 1.684208 1_455
O34 Si11 1.928149 1_555
O35 Si10 1.863476 1_545
O36 Si10 1.770008 1_555
O37 Si11 1.769552 1_555
O38 Si6 1.713455 1_555
O39 Si7 1.691783 1_555
O40 Si8 1.665118 1_555
O41 Si9 1.656411 1_555
O42 Si6 1.884751 1_555
O43 Si7 1.905520 1_555
O44 Si11 1.692706 1_554
O45 Si10 1.696974 1_555
O46 Si0 1.653701 1_455
O47 Si1 1.658407 1_455
