# generated using pymatgen
data_MgH12SO10
_symmetry_space_group_name_H-M   'P 1'
_cell_length_a   6.86044401
_cell_length_b   6.86044401
_cell_length_c   27.02919228
_cell_angle_alpha   82.65363120
_cell_angle_beta   82.65363120
_cell_angle_gamma   66.87675983
_symmetry_Int_Tables_number   1
_chemical_formula_structural   MgH12SO10
_chemical_formula_sum   'Mg4 H48 S4 O40'
_cell_volume   1156.12976470
_cell_formula_units_Z   4
loop_
 _symmetry_equiv_pos_site_id
 _symmetry_equiv_pos_as_xyz
  1  'x, y, z'
loop_
 _atom_site_type_symbol
 _atom_site_label
 _atom_site_symmetry_multiplicity
 _atom_site_fract_x
 _atom_site_fract_y
 _atom_site_fract_z
 _atom_site_occupancy
  Mg  Mg0  1  0.00000000  0.00000000  0.00000000  1
  Mg  Mg1  1  0.00000000  0.00000000  0.50000000  1
  Mg  Mg2  1  0.05924400  0.94075600  0.25000000  1
  Mg  Mg3  1  0.94075600  0.05924400  0.75000000  1
  H  H0  1  0.04128000  0.16371800  0.08062200  1
  H  H1  1  0.83628200  0.95872000  0.41937800  1
  H  H2  1  0.95872000  0.83628200  0.91937800  1
  H  H3  1  0.16371800  0.04128000  0.58062200  1
  H  H4  1  0.65450000  0.32818000  0.02897300  1
  H  H5  1  0.67182000  0.34550000  0.47102700  1
  H  H6  1  0.34550000  0.67182000  0.97102700  1
  H  H7  1  0.32818000  0.65450000  0.52897300  1
  H  H8  1  0.26257200  0.59090800  0.02387400  1
  H  H9  1  0.40909200  0.73742800  0.47612600  1
  H  H10  1  0.73742800  0.40909200  0.97612600  1
  H  H11  1  0.59090800  0.26257200  0.52387400  1
  H  H12  1  0.25013300  0.97256200  0.07409200  1
  H  H13  1  0.02743800  0.74986700  0.42590800  1
  H  H14  1  0.74986700  0.02743800  0.92590800  1
  H  H15  1  0.97256200  0.25013300  0.57409200  1
  H  H16  1  0.71720500  0.92345600  0.04315100  1
  H  H17  1  0.07654400  0.28279500  0.45684900  1
  H  H18  1  0.28279500  0.07654400  0.95684900  1
  H  H19  1  0.92345600  0.71720500  0.54315100  1
  H  H20  1  0.38086100  0.55315500  0.75119900  1
  H  H21  1  0.44684500  0.61913900  0.74880100  1
  H  H22  1  0.61913900  0.44684500  0.24880100  1
  H  H23  1  0.55315500  0.38086100  0.25119900  1
  H  H24  1  0.74971400  0.88788300  0.32335900  1
  H  H25  1  0.11211700  0.25028600  0.17664100  1
  H  H26  1  0.25028600  0.11211700  0.67664100  1
  H  H27  1  0.88788300  0.74971400  0.82335900  1
  H  H28  1  0.54204500  0.32008500  0.33637200  1
  H  H29  1  0.67991500  0.45795500  0.16362800  1
  H  H30  1  0.45795500  0.67991500  0.66362800  1
  H  H31  1  0.32008500  0.54204500  0.83637200  1
  H  H32  1  0.32759900  0.65368800  0.31467900  1
  H  H33  1  0.34631200  0.67240100  0.18532100  1
  H  H34  1  0.67240100  0.34631200  0.68532100  1
  H  H35  1  0.65368800  0.32759900  0.81467900  1
  H  H36  1  0.06187500  0.32150300  0.23401200  1
  H  H37  1  0.67849700  0.93812500  0.26598800  1
  H  H38  1  0.93812500  0.67849700  0.76598800  1
  H  H39  1  0.32150300  0.06187500  0.73401200  1
  H  H40  1  0.10452200  0.72311900  0.17511400  1
  H  H41  1  0.27688100  0.89547800  0.32488600  1
  H  H42  1  0.89547800  0.27688100  0.82488600  1
  H  H43  1  0.72311900  0.10452200  0.67511400  1
  H  H44  1  0.64071200  0.69849700  0.14626400  1
  H  H45  1  0.30150300  0.35928800  0.35373600  1
  H  H46  1  0.35928800  0.30150300  0.85373600  1
  H  H47  1  0.69849700  0.64071200  0.64626400  1
  S  S0  1  0.39666400  0.24232900  0.10880600  1
  S  S1  1  0.75767100  0.60333600  0.39119400  1
  S  S2  1  0.60333600  0.75767100  0.89119400  1
  S  S3  1  0.24232900  0.39666400  0.60880600  1
  O  O0  1  0.15573600  0.32009900  0.12527800  1
  O  O1  1  0.67990100  0.84426400  0.37472200  1
  O  O2  1  0.84426400  0.67990100  0.87472200  1
  O  O3  1  0.32009900  0.15573600  0.62527800  1
  O  O4  1  0.57101800  0.59704200  0.15604600  1
  O  O5  1  0.40295800  0.42898200  0.34395400  1
  O  O6  1  0.42898200  0.40295800  0.84395400  1
  O  O7  1  0.59704200  0.57101800  0.65604600  1
  O  O8  1  0.42067300  0.38706500  0.06296900  1
  O  O9  1  0.61293500  0.57932700  0.43703100  1
  O  O10  1  0.57932700  0.61293500  0.93703100  1
  O  O11  1  0.38706500  0.42067300  0.56296900  1
  O  O12  1  0.46614500  0.01617800  0.09370900  1
  O  O13  1  0.98382200  0.53385500  0.40629100  1
  O  O14  1  0.53385500  0.98382200  0.90629100  1
  O  O15  1  0.01617800  0.46614500  0.59370900  1
  O  O16  1  0.78533900  0.29979600  0.00483700  1
  O  O17  1  0.70020400  0.21466100  0.49516300  1
  O  O18  1  0.21466100  0.70020400  0.99516300  1
  O  O19  1  0.29979600  0.78533900  0.50483700  1
  O  O20  1  0.09770800  0.02348100  0.06707700  1
  O  O21  1  0.97651900  0.90229200  0.43292300  1
  O  O22  1  0.90229200  0.97651900  0.93292300  1
  O  O23  1  0.02348100  0.09770800  0.56707700  1
  O  O24  1  0.97648500  0.24801500  0.32010900  1
  O  O25  1  0.75198500  0.02351500  0.17989100  1
  O  O26  1  0.02351500  0.75198500  0.67989100  1
  O  O27  1  0.24801500  0.97648500  0.82010900  1
  O  O28  1  0.79191600  0.92931100  0.28545500  1
  O  O29  1  0.07068900  0.20808400  0.21454500  1
  O  O30  1  0.20808400  0.07068900  0.71454500  1
  O  O31  1  0.92931100  0.79191600  0.78545500  1
  O  O32  1  0.27967400  0.80618900  0.29873400  1
  O  O33  1  0.19381100  0.72032600  0.20126600  1
  O  O34  1  0.72032600  0.19381100  0.70126600  1
  O  O35  1  0.80618900  0.27967400  0.79873400  1
  O  O36  1  0.82065300  0.84847400  0.15925500  1
  O  O37  1  0.15152600  0.17934700  0.34074500  1
  O  O38  1  0.17934700  0.15152600  0.84074500  1
  O  O39  1  0.84847400  0.82065300  0.65925500  1
loop_
_geom_bond_atom_site_label_1
_geom_bond_atom_site_label_2
_geom_bond_distance
_geom_bond_site_symmetry_2
Mg0 O18 2.014095 1_544
Mg0 O16 2.014095 1_455
Mg0 O20 2.057348 1_555
Mg0 O22 2.057348 1_444
Mg1 O17 2.014095 1_455
Mg1 O19 2.014095 1_545
Mg1 O21 2.057348 1_445
Mg1 O23 2.057348 1_555
Mg2 O29 1.983040 1_565
Mg2 O28 1.983040 1_455
Mg2 O32 1.994043 1_555
Mg2 O33 1.994043 1_555
Mg3 O30 1.983040 1_655
Mg3 O31 1.983040 1_545
Mg3 O35 1.994043 1_555
Mg3 O34 1.994043 1_555
H0 O20 0.985302 1_555
H1 O21 0.985302 1_555
H2 O22 0.985302 1_555
H3 O23 0.985302 1_555
H4 O16 1.007311 1_555
H4 O8 1.670284 1_555
H5 O17 1.007311 1_555
H5 O9 1.670284 1_555
H6 O18 1.007311 1_555
H6 O10 1.670284 1_555
H7 O19 1.007311 1_555
H7 O11 1.670284 1_555
H8 O18 0.997671 1_554
H8 O8 1.724124 1_555
H9 O19 0.997671 1_555
H9 O9 1.724124 1_555
H10 O16 0.997671 1_556
H10 O10 1.724124 1_555
H11 O17 0.997671 1_555
H11 O11 1.724124 1_555
H12 O20 0.999167 1_565
H13 O21 0.999167 1_455
H14 O22 0.999167 1_545
H15 O23 0.999167 1_655
H16 Mg0 2.337725 1_665
H17 Mg1 2.337725 1_555
H18 Mg0 2.337725 1_556
H19 Mg1 2.337725 1_665
H20 H21 0.748317 1_555
H22 H23 0.748317 1_555
H24 O28 1.062328 1_555
H24 O1 1.443121 1_555
H25 O29 1.062328 1_555
H25 O0 1.443121 1_555
H26 O30 1.062328 1_555
H26 O3 1.443121 1_555
H27 O31 1.062328 1_555
H27 O2 1.443121 1_555
H28 O5 0.969470 1_555
H29 O4 0.969470 1_555
H30 O7 0.969470 1_555
H31 O6 0.969470 1_555
H32 O32 1.019404 1_555
H32 O5 1.560955 1_555
H33 O33 1.019404 1_555
H33 O4 1.560955 1_555
H34 O34 1.019404 1_555
H34 O7 1.560955 1_555
H35 O35 1.019404 1_555
H35 O6 1.560955 1_555
H36 O29 0.972408 1_555
H37 O28 0.972408 1_555
H38 O31 0.972408 1_555
H39 O30 0.972408 1_555
H40 O33 0.986566 1_555
H41 O32 0.986566 1_555
H42 O35 0.986566 1_555
H43 O34 0.986566 1_555
H44 O4 0.982324 1_555
H45 O5 0.982324 1_555
H46 O6 0.982324 1_555
H47 O7 0.982324 1_555
O0 S0 1.547511 1_555
O1 S1 1.547511 1_555
O2 S2 1.547511 1_555
O3 S3 1.547511 1_555
O8 S0 1.519774 1_555
O9 S1 1.519774 1_555
O10 S2 1.519774 1_555
O11 S3 1.519774 1_555
O12 S0 1.527145 1_555
O13 S1 1.527145 1_555
O14 S2 1.527145 1_555
O15 S3 1.527145 1_555
O24 O37 1.278622 1_655
O25 O36 1.278622 1_545
O26 O39 1.278622 1_455
O27 O38 1.278622 1_565
