# generated using pymatgen
data_VBi(PbO3)2
_symmetry_space_group_name_H-M   'P 1'
_cell_length_a   5.82473300
_cell_length_b   7.90925800
_cell_length_c   30.35800003
_cell_angle_alpha   79.68016401
_cell_angle_beta   90.00000000
_cell_angle_gamma   90.00000000
_symmetry_Int_Tables_number   1
_chemical_formula_structural   VBi(PbO3)2
_chemical_formula_sum   'V8 Bi8 Pb16 O48'
_cell_volume   1375.94770244
_cell_formula_units_Z   8
loop_
 _symmetry_equiv_pos_site_id
 _symmetry_equiv_pos_as_xyz
  1  'x, y, z'
loop_
 _atom_site_type_symbol
 _atom_site_label
 _atom_site_symmetry_multiplicity
 _atom_site_fract_x
 _atom_site_fract_y
 _atom_site_fract_z
 _atom_site_occupancy
  V  V0  1  0.27911300  0.30959700  0.19284400  1
  V  V1  1  0.22088700  0.30959700  0.69284400  1
  V  V2  1  0.26821500  0.37227000  0.95165500  1
  V  V3  1  0.73178500  0.62773000  0.04834500  1
  V  V4  1  0.72088700  0.69040300  0.80715600  1
  V  V5  1  0.76821500  0.62773000  0.54834500  1
  V  V6  1  0.77911300  0.69040300  0.30715600  1
  V  V7  1  0.23178500  0.37227000  0.45165500  1
  Bi  Bi0  1  0.75351700  0.06807900  0.64941700  1
  Bi  Bi1  1  0.75533400  0.13991600  0.89130800  1
  Bi  Bi2  1  0.24648300  0.93192100  0.35058300  1
  Bi  Bi3  1  0.74466600  0.13991600  0.39130800  1
  Bi  Bi4  1  0.25533400  0.86008400  0.60869200  1
  Bi  Bi5  1  0.24466600  0.86008400  0.10869200  1
  Bi  Bi6  1  0.25351700  0.93192100  0.85058300  1
  Bi  Bi7  1  0.74648300  0.06807900  0.14941700  1
  Pb  Pb0  1  0.78443800  0.58320100  0.17576300  1
  Pb  Pb1  1  0.27953000  0.33812300  0.57890400  1
  Pb  Pb2  1  0.71556200  0.58320100  0.67576300  1
  Pb  Pb3  1  0.74753100  0.14693600  0.02605500  1
  Pb  Pb4  1  0.21556200  0.41679900  0.82423700  1
  Pb  Pb5  1  0.72135000  0.19320500  0.77077900  1
  Pb  Pb6  1  0.27865000  0.80679500  0.22922100  1
  Pb  Pb7  1  0.72047000  0.66187700  0.42109600  1
  Pb  Pb8  1  0.77953000  0.66187700  0.92109600  1
  Pb  Pb9  1  0.22047000  0.33812300  0.07890400  1
  Pb  Pb10  1  0.75246900  0.14693600  0.52605500  1
  Pb  Pb11  1  0.28443800  0.41679900  0.32423700  1
  Pb  Pb12  1  0.22135000  0.80679500  0.72922100  1
  Pb  Pb13  1  0.77865000  0.19320500  0.27077900  1
  Pb  Pb14  1  0.25246900  0.85306400  0.97394500  1
  Pb  Pb15  1  0.24753100  0.85306400  0.47394500  1
  O  O0  1  0.84927100  0.74914700  0.99926600  1
  O  O1  1  0.97937200  0.91001500  0.40747600  1
  O  O2  1  0.44092500  0.67063000  0.04838700  1
  O  O3  1  0.47030900  0.85578000  0.67059900  1
  O  O4  1  0.15000100  0.10781100  0.72459200  1
  O  O5  1  0.26929000  0.46070100  0.72625800  1
  O  O6  1  0.55907500  0.32937000  0.95161300  1
  O  O7  1  0.77223000  0.40578000  0.05016800  1
  O  O8  1  0.52969100  0.14422000  0.32940100  1
  O  O9  1  0.97030900  0.14422000  0.82940100  1
  O  O10  1  0.02062800  0.08998500  0.59252400  1
  O  O11  1  0.73071000  0.53929900  0.27374200  1
  O  O12  1  0.86107400  0.68451000  0.09583800  1
  O  O13  1  0.46275900  0.30050100  0.65830900  1
  O  O14  1  0.96275900  0.69949900  0.84169100  1
  O  O15  1  0.34999900  0.10781100  0.22459200  1
  O  O16  1  0.36107400  0.31549000  0.40416200  1
  O  O17  1  0.01329600  0.18318900  0.33395300  1
  O  O18  1  0.94092500  0.32937000  0.45161300  1
  O  O19  1  0.23071000  0.46070100  0.22625800  1
  O  O20  1  0.27223000  0.59422000  0.44983200  1
  O  O21  1  0.76929000  0.53929900  0.77374200  1
  O  O22  1  0.65072900  0.74914700  0.49926600  1
  O  O23  1  0.48087300  0.92219800  0.40895700  1
  O  O24  1  0.13892600  0.31549000  0.90416200  1
  O  O25  1  0.84999900  0.89218900  0.27540800  1
  O  O26  1  0.51912700  0.07780200  0.59104300  1
  O  O27  1  0.53724100  0.69949900  0.34169100  1
  O  O28  1  0.72777000  0.40578000  0.55016800  1
  O  O29  1  0.50361200  0.37201100  0.15514300  1
  O  O30  1  0.98670400  0.81681100  0.66604700  1
  O  O31  1  0.98087300  0.07780200  0.09104300  1
  O  O32  1  0.47937200  0.08998500  0.09252400  1
  O  O33  1  0.51329600  0.81681100  0.16604700  1
  O  O34  1  0.34927100  0.25085300  0.50073400  1
  O  O35  1  0.15072900  0.25085300  0.00073400  1
  O  O36  1  0.22777000  0.59422000  0.94983200  1
  O  O37  1  0.63892600  0.68451000  0.59583800  1
  O  O38  1  0.99638800  0.37201100  0.65514300  1
  O  O39  1  0.52062800  0.91001500  0.90747600  1
  O  O40  1  0.03724100  0.30050100  0.15830900  1
  O  O41  1  0.49638800  0.62798900  0.84485700  1
  O  O42  1  0.05907500  0.67063000  0.54838700  1
  O  O43  1  0.02969100  0.85578000  0.17059900  1
  O  O44  1  0.65000100  0.89218900  0.77540800  1
  O  O45  1  0.01912700  0.92219800  0.90895700  1
  O  O46  1  0.48670400  0.18318900  0.83395300  1
  O  O47  1  0.00361200  0.62798900  0.34485700  1
loop_
_geom_bond_atom_site_label_1
_geom_bond_atom_site_label_2
_geom_bond_distance
_geom_bond_site_symmetry_2
Bi0 O26 2.227425 1_555
Bi0 O10 2.307931 1_655
Bi0 O3 2.359519 1_545
Bi0 O30 2.385327 1_545
Bi0 O13 2.549156 1_555
Bi0 O38 2.821314 1_555
Bi1 O9 2.253489 1_555
Bi1 O39 2.257540 1_545
Bi1 O45 2.298403 1_645
Bi1 O46 2.320264 1_555
Bi1 O24 2.695735 1_655
Bi1 O6 2.808310 1_555
Bi2 O23 2.227425 1_555
Bi2 O1 2.307931 1_455
Bi2 O8 2.359519 1_565
Bi2 O17 2.385327 1_565
Bi2 O27 2.549156 1_555
Bi2 O47 2.821314 1_555
Bi3 O8 2.253489 1_555
Bi3 O1 2.257540 1_545
Bi3 O23 2.298403 1_545
Bi3 O17 2.320264 1_655
Bi3 O16 2.695735 1_555
Bi3 O18 2.808310 1_555
Bi4 O3 2.253489 1_555
Bi4 O10 2.257540 1_565
Bi4 O26 2.298403 1_565
Bi4 O30 2.320264 1_455
Bi4 O37 2.695735 1_555
Bi4 O42 2.808310 1_555
Bi5 O43 2.253489 1_555
Bi5 O32 2.257540 1_565
Bi5 O31 2.298403 1_465
Bi5 O33 2.320264 1_555
Bi5 O12 2.695735 1_455
Bi5 O2 2.808310 1_555
Bi6 O45 2.227425 1_555
Bi6 O39 2.307931 1_555
Bi6 O9 2.359519 1_465
Bi6 O46 2.385327 1_565
Bi6 O14 2.549156 1_455
Bi6 O41 2.821314 1_555
Bi7 O31 2.227425 1_555
Bi7 O32 2.307931 1_555
Bi7 O43 2.359519 1_645
Bi7 O33 2.385327 1_545
Bi7 O40 2.549156 1_655
Bi7 O29 2.821314 1_555
O0 V3 1.760055 1_556
O0 Pb14 2.560392 1_655
O0 Pb8 2.619132 1_555
O1 Pb7 2.450743 1_555
O1 Pb15 2.527593 1_655
O2 V3 1.727871 1_555
O2 Pb14 2.688093 1_554
O3 Pb12 2.274436 1_555
O3 Pb2 2.567506 1_555
O4 V1 1.759382 1_555
O4 Pb12 2.396010 1_545
O5 V1 1.723695 1_555
O5 Pb12 2.768998 1_555
O6 V2 1.727871 1_555
O6 Pb3 2.688093 1_556
O7 V3 1.762212 1_555
O7 Pb3 2.298866 1_555
O7 Pb9 2.774312 1_655
O8 Pb13 2.274436 1_555
O8 Pb11 2.567506 1_555
O9 Pb5 2.274436 1_555
O9 Pb4 2.567506 1_655
O10 Pb1 2.450743 1_555
O10 Pb10 2.527593 1_455
O11 V6 1.723695 1_555
O11 Pb13 2.768998 1_555
O12 V3 1.754865 1_555
O12 Pb0 2.456007 1_555
O13 V1 1.765276 1_555
O13 Pb1 2.604126 1_555
O14 V4 1.765276 1_555
O14 Pb8 2.604126 1_555
O15 V0 1.759382 1_555
O15 Pb6 2.396010 1_545
O16 V7 1.754865 1_555
O16 Pb11 2.456007 1_555
O17 Pb13 2.344769 1_455
O17 Pb11 2.408308 1_555
O18 V7 1.727871 1_655
O18 Pb10 2.688093 1_555
O19 V0 1.723695 1_555
O19 Pb6 2.768998 1_555
O20 V7 1.762212 1_555
O20 Pb15 2.298866 1_555
O20 Pb7 2.774312 1_555
O21 V4 1.723695 1_555
O21 Pb5 2.768998 1_555
O22 V5 1.760055 1_555
O22 Pb15 2.560392 1_555
O22 Pb7 2.619132 1_555
O23 Pb15 2.377422 1_555
O23 Pb7 2.459853 1_555
O24 V2 1.754865 1_555
O24 Pb4 2.456007 1_555
O25 V6 1.759382 1_555
O25 Pb13 2.396010 1_565
O26 Pb10 2.377422 1_555
O26 Pb1 2.459853 1_555
O27 V6 1.765276 1_555
O27 Pb7 2.604126 1_555
O28 V5 1.762212 1_555
O28 Pb10 2.298866 1_555
O28 Pb1 2.774312 1_555
O29 V0 1.749612 1_555
O29 Pb0 2.496438 1_555
O30 Pb12 2.344769 1_655
O30 Pb2 2.408308 1_555
O31 Pb3 2.377422 1_555
O31 Pb9 2.459853 1_655
O32 Pb9 2.450743 1_555
O32 Pb3 2.527593 1_555
O33 Pb6 2.344769 1_555
O33 Pb0 2.408308 1_555
O34 V7 1.760055 1_555
O34 Pb10 2.560392 1_555
O34 Pb1 2.619132 1_555
O35 V2 1.760055 1_554
O35 Pb3 2.560392 1_455
O35 Pb9 2.619132 1_555
O36 V2 1.762212 1_555
O36 Pb14 2.298866 1_555
O36 Pb8 2.774312 1_455
O37 V5 1.754865 1_555
O37 Pb2 2.456007 1_555
O38 V1 1.749612 1_655
O38 Pb2 2.496438 1_555
O39 Pb8 2.450743 1_555
O39 Pb14 2.527593 1_555
O40 V0 1.765276 1_555
O40 Pb9 2.604126 1_555
O41 V4 1.749612 1_555
O41 Pb4 2.496438 1_555
O42 V5 1.727871 1_455
O42 Pb15 2.688093 1_555
O43 Pb6 2.274436 1_555
O43 Pb0 2.567506 1_455
O44 V4 1.759382 1_555
O44 Pb5 2.396010 1_565
O45 Pb14 2.377422 1_555
O45 Pb8 2.459853 1_455
O46 Pb5 2.344769 1_555
O46 Pb4 2.408308 1_555
O47 V6 1.749612 1_455
O47 Pb11 2.496438 1_555
