# generated using pymatgen
data_Sr
_symmetry_space_group_name_H-M   'P 1'
_cell_length_a   7.73449091
_cell_length_b   10.84464329
_cell_length_c   10.79401366
_cell_angle_alpha   90.00001632
_cell_angle_beta   89.97041759
_cell_angle_gamma   89.99223494
_symmetry_Int_Tables_number   1
_chemical_formula_structural   Sr
_chemical_formula_sum   Sr16
_cell_volume   905.37793565
_cell_formula_units_Z   16
loop_
 _symmetry_equiv_pos_site_id
 _symmetry_equiv_pos_as_xyz
  1  'x, y, z'
loop_
 _atom_site_type_symbol
 _atom_site_label
 _atom_site_symmetry_multiplicity
 _atom_site_fract_x
 _atom_site_fract_y
 _atom_site_fract_z
 _atom_site_occupancy
  Sr  Sr0_0  1  0.49999955  0.99999936  0.00000049  1
  Sr  Sr0_1  1  0.49999955  0.99999936  0.50000049  1
  Sr  Sr0_2  1  0.49999955  0.49999936  0.00000049  1
  Sr  Sr0_3  1  0.49999955  0.49999936  0.50000049  1
  Sr  Sr0_4  1  0.99999955  0.99999936  0.00000049  1
  Sr  Sr0_5  1  0.99999955  0.99999936  0.50000049  1
  Sr  Sr0_6  1  0.99999955  0.49999936  0.00000049  1
  Sr  Sr0_7  1  0.99999956  0.49999936  0.50000049  1
  Sr  Sr1_0  1  0.00000044  0.25000065  0.24999950  1
  Sr  Sr1_1  1  0.00000044  0.25000065  0.74999951  1
  Sr  Sr1_2  1  0.00000044  0.75000065  0.24999951  1
  Sr  Sr1_3  1  0.00000044  0.75000065  0.74999951  1
  Sr  Sr1_4  1  0.50000044  0.25000065  0.24999950  1
  Sr  Sr1_5  1  0.50000044  0.25000065  0.74999951  1
  Sr  Sr1_6  1  0.50000044  0.75000065  0.24999950  1
  Sr  Sr1_7  1  0.50000044  0.75000065  0.74999951  1
loop_
_geom_bond_atom_site_label_1
_geom_bond_atom_site_label_2
_geom_bond_distance
_geom_bond_site_symmetry_2
Sr0_0 Sr1_6 3.825204 1_555
Sr0_0 Sr1_7 3.825218 1_554
Sr0_0 Sr1_4 3.825223 1_565
Sr0_0 Sr1_5 3.825239 1_564
Sr0_0 Sr0_4 3.867245 1_555
Sr0_0 Sr0_4 3.867245 1_455
Sr0_1 Sr1_7 3.825204 1_555
Sr0_1 Sr1_6 3.825218 1_555
Sr0_1 Sr1_5 3.825223 1_565
Sr0_1 Sr1_4 3.825239 1_565
Sr0_1 Sr0_5 3.867245 1_555
Sr0_1 Sr0_5 3.867245 1_455
Sr0_2 Sr1_4 3.825204 1_555
Sr0_2 Sr1_5 3.825218 1_554
Sr0_2 Sr1_6 3.825223 1_555
Sr0_2 Sr1_7 3.825239 1_554
Sr0_2 Sr0_6 3.867245 1_455
Sr0_2 Sr0_6 3.867245 1_555
Sr0_3 Sr1_5 3.825204 1_555
Sr0_3 Sr1_4 3.825218 1_555
Sr0_3 Sr1_7 3.825223 1_555
Sr0_3 Sr1_6 3.825239 1_555
Sr0_3 Sr0_7 3.867245 1_455
Sr0_3 Sr0_7 3.867245 1_555
Sr0_4 Sr1_2 3.825204 1_655
Sr0_4 Sr1_3 3.825218 1_654
Sr0_4 Sr1_0 3.825223 1_665
Sr0_4 Sr1_1 3.825239 1_664
Sr0_5 Sr1_3 3.825204 1_655
Sr0_5 Sr1_2 3.825218 1_655
Sr0_5 Sr1_1 3.825223 1_665
Sr0_5 Sr1_0 3.825239 1_665
Sr0_6 Sr1_0 3.825204 1_655
Sr0_6 Sr1_1 3.825218 1_654
Sr0_6 Sr1_2 3.825223 1_655
Sr0_6 Sr1_3 3.825239 1_654
Sr0_7 Sr1_1 3.825204 1_655
Sr0_7 Sr1_0 3.825218 1_655
Sr0_7 Sr1_3 3.825223 1_655
Sr0_7 Sr1_2 3.825239 1_655
Sr1_0 Sr1_4 3.867245 1_555
Sr1_0 Sr1_4 3.867245 1_455
Sr1_1 Sr1_5 3.867245 1_555
Sr1_1 Sr1_5 3.867245 1_455
Sr1_2 Sr1_6 3.867245 1_555
Sr1_2 Sr1_6 3.867245 1_455
Sr1_3 Sr1_7 3.867245 1_555
Sr1_3 Sr1_7 3.867245 1_455
