# generated using pymatgen
data_Zr5(In2Rh)2
_symmetry_space_group_name_H-M   'P 1'
_cell_length_a   3.41506431
_cell_length_b   7.60646568
_cell_length_c   17.45105059
_cell_angle_alpha   90.00000000
_cell_angle_beta   90.00000000
_cell_angle_gamma   90.00000000
_symmetry_Int_Tables_number   1
_chemical_formula_structural   Zr5(In2Rh)2
_chemical_formula_sum   'Zr10 In8 Rh4'
_cell_volume   453.31842796
_cell_formula_units_Z   2
loop_
 _symmetry_equiv_pos_site_id
 _symmetry_equiv_pos_as_xyz
  1  'x, y, z'
loop_
 _atom_site_type_symbol
 _atom_site_label
 _atom_site_symmetry_multiplicity
 _atom_site_fract_x
 _atom_site_fract_y
 _atom_site_fract_z
 _atom_site_occupancy
  Zr  Zr0  1  0.00000000  0.13675326  0.91909547  1
  Zr  Zr1  1  0.00000000  0.75801186  0.77781057  1
  Zr  Zr2  1  -0.00000000  0.63675326  0.58090453  1
  Zr  Zr3  1  0.00000000  0.25801186  0.72218943  1
  Zr  Zr4  1  -0.00000000  0.36324674  0.41909547  1
  Zr  Zr5  1  0.00000000  0.24198814  0.22218943  1
  Zr  Zr6  1  -0.00000000  -0.00000000  0.50000000  1
  Zr  Zr7  1  -0.00000000  0.74198814  0.27781057  1
  Zr  Zr8  1  0.00000000  0.50000000  -0.00000000  1
  Zr  Zr9  1  -0.00000000  0.86324674  0.08090453  1
  In  In0  1  0.50000000  0.80032210  0.93243233  1
  In  In1  1  0.50000000  0.56205280  0.14983895  1
  In  In2  1  0.50000000  0.43794720  0.85016105  1
  In  In3  1  0.50000000  0.06205280  0.35016105  1
  In  In4  1  0.50000000  0.30032210  0.56756767  1
  In  In5  1  0.50000000  0.93794720  0.64983895  1
  In  In6  1  0.50000000  0.69967790  0.43243233  1
  In  In7  1  0.50000000  0.19967790  0.06756767  1
  Rh  Rh0  1  0.50000000  0.55085778  0.69308434  1
  Rh  Rh1  1  0.50000000  0.44914222  0.30691566  1
  Rh  Rh2  1  0.50000000  0.05085778  0.80691566  1
  Rh  Rh3  1  0.50000000  0.94914222  0.19308434  1
loop_
_geom_bond_atom_site_label_1
_geom_bond_atom_site_label_2
_geom_bond_distance
_geom_bond_site_symmetry_2
In0 Rh2 2.903360 1_565
In0 Zr0 3.085220 1_565
In0 Zr0 3.085220 1_665
In0 Zr8 3.086170 1_656
In0 Zr8 3.086170 1_556
In0 Zr9 3.139748 1_656
In0 Zr9 3.139748 1_556
In0 Zr1 3.209382 1_655
In0 Zr1 3.209382 1_555
In1 Rh1 2.872551 1_555
In1 Rh3 3.039560 1_555
In1 Zr9 3.100258 1_655
In1 Zr9 3.100258 1_555
In1 Zr7 3.126705 1_655
In1 Zr7 3.126705 1_555
In1 Zr8 3.158461 1_555
In1 Zr8 3.158461 1_655
In1 Zr5 3.230618 1_655
In1 Zr5 3.230618 1_555
In2 Rh0 2.872551 1_555
In2 Rh2 3.039560 1_555
In2 Zr0 3.100258 1_555
In2 Zr0 3.100258 1_655
In2 Zr3 3.126705 1_555
In2 Zr3 3.126705 1_655
In2 Zr8 3.158461 1_656
In2 Zr8 3.158461 1_556
In2 Zr1 3.230618 1_655
In2 Zr1 3.230618 1_555
In3 Rh3 2.872551 1_545
In3 Rh1 3.039560 1_555
In3 Zr4 3.100258 1_555
In3 Zr4 3.100258 1_655
In3 Zr5 3.126705 1_555
In3 Zr5 3.126705 1_655
In3 Zr6 3.158461 1_655
In3 Zr6 3.158461 1_555
In3 Zr7 3.230618 1_545
In3 Zr7 3.230618 1_645
In4 Rh0 2.903360 1_555
In4 Zr2 3.085220 1_655
In4 Zr2 3.085220 1_555
In4 Zr6 3.086170 1_555
In4 Zr6 3.086170 1_655
In4 Zr4 3.139748 1_655
In4 Zr4 3.139748 1_555
In4 Zr3 3.209382 1_655
In4 Zr3 3.209382 1_555
In5 Rh2 2.872551 1_565
In5 Rh0 3.039560 1_555
In5 Zr2 3.100258 1_555
In5 Zr2 3.100258 1_655
In5 Zr1 3.126705 1_655
In5 Zr1 3.126705 1_555
In5 Zr6 3.158461 1_565
In5 Zr6 3.158461 1_665
In5 Zr3 3.230618 1_665
In5 Zr3 3.230618 1_565
In6 Rh1 2.903360 1_555
In6 Zr4 3.085220 1_655
In6 Zr4 3.085220 1_555
In6 Zr6 3.086170 1_565
In6 Zr6 3.086170 1_665
In6 Zr2 3.139748 1_555
In6 Zr2 3.139748 1_655
In6 Zr7 3.209382 1_555
In6 Zr7 3.209382 1_655
In7 Rh3 2.903360 1_545
In7 Zr9 3.085220 1_645
In7 Zr9 3.085220 1_545
In7 Zr8 3.086170 1_555
In7 Zr8 3.086170 1_655
In7 Zr0 3.139748 1_654
In7 Zr0 3.139748 1_554
In7 Zr5 3.209382 1_655
In7 Zr5 3.209382 1_555
Rh0 Zr2 2.678612 1_655
Rh0 Zr2 2.678612 1_555
Rh0 Zr1 2.754029 1_655
Rh0 Zr1 2.754029 1_555
Rh0 Zr3 2.852280 1_555
Rh0 Zr3 2.852280 1_655
Rh1 Zr4 2.678612 1_655
Rh1 Zr4 2.678612 1_555
Rh1 Zr5 2.754029 1_655
Rh1 Zr5 2.754029 1_555
Rh1 Zr7 2.852280 1_655
Rh1 Zr7 2.852280 1_555
Rh2 Zr0 2.678612 1_655
Rh2 Zr0 2.678612 1_555
Rh2 Zr3 2.754029 1_655
Rh2 Zr3 2.754029 1_555
Rh2 Zr1 2.852280 1_545
Rh2 Zr1 2.852280 1_645
Rh3 Zr9 2.678612 1_655
Rh3 Zr9 2.678612 1_555
Rh3 Zr7 2.754029 1_555
Rh3 Zr7 2.754029 1_655
Rh3 Zr5 2.852280 1_565
Rh3 Zr5 2.852280 1_665
