# generated using pymatgen
data_YInAu
_symmetry_space_group_name_H-M   'P 1'
_cell_length_a   7.67437540
_cell_length_b   7.67437394
_cell_length_c   4.03104734
_cell_angle_alpha   90.00000000
_cell_angle_beta   90.00000000
_cell_angle_gamma   120.00000629
_symmetry_Int_Tables_number   1
_chemical_formula_structural   YInAu
_chemical_formula_sum   'Y3 In3 Au3'
_cell_volume   205.60539150
_cell_formula_units_Z   3
loop_
 _symmetry_equiv_pos_site_id
 _symmetry_equiv_pos_as_xyz
  1  'x, y, z'
loop_
 _atom_site_type_symbol
 _atom_site_label
 _atom_site_symmetry_multiplicity
 _atom_site_fract_x
 _atom_site_fract_y
 _atom_site_fract_z
 _atom_site_occupancy
  Y  Y0  1  -0.00000000  0.59420046  0.50000000  1
  Y  Y1  1  0.59420046  0.00000000  0.50000000  1
  Y  Y2  1  0.40579954  0.40579954  0.50000000  1
  In  In0  1  0.00000000  0.25840519  -0.00000000  1
  In  In1  1  0.25840519  0.00000000  0.00000000  1
  In  In2  1  0.74159481  0.74159481  0.00000000  1
  Au  Au0  1  -0.00000000  0.00000000  0.50000000  1
  Au  Au1  1  0.66666700  0.33333300  0.00000000  1
  Au  Au2  1  0.33333300  0.66666700  -0.00000000  1
loop_
_geom_bond_atom_site_label_1
_geom_bond_atom_site_label_2
_geom_bond_distance
_geom_bond_site_symmetry_2
In0 Y0 3.271599 1_554
In0 Y0 3.271599 1_555
In0 Y1 3.393779 1_455
In0 Y1 3.393779 1_454
In0 Y2 3.393779 1_555
In0 Y2 3.393779 1_554
In1 Y1 3.271599 1_555
In1 Y1 3.271599 1_554
In1 Y0 3.393779 1_545
In1 Y0 3.393779 1_544
In1 Y2 3.393779 1_554
In1 Y2 3.393779 1_555
In2 Y2 3.271599 1_555
In2 Y2 3.271599 1_554
In2 Y1 3.393779 1_564
In2 Y1 3.393779 1_565
In2 Y0 3.393779 1_655
In2 Y0 3.393779 1_654
Au0 In2 2.827546 1_445
Au0 In2 2.827546 1_446
Au0 In0 2.827546 1_555
Au0 In0 2.827546 1_556
Au0 In1 2.827546 1_555
Au0 In1 2.827546 1_556
Au0 Y0 3.114257 1_545
Au0 Y2 3.114257 1_555
Au0 Y1 3.114258 1_455
Au1 In0 2.888880 1_655
Au1 In1 2.888884 1_555
Au1 In2 2.888887 1_555
Au1 Y1 3.081063 1_554
Au1 Y1 3.081063 1_555
Au1 Y0 3.081065 1_655
Au1 Y0 3.081065 1_654
Au1 Y2 3.081069 1_554
Au1 Y2 3.081069 1_555
Au2 In1 2.888879 1_565
Au2 In0 2.888884 1_555
Au2 In2 2.888887 1_555
Au2 Y0 3.081063 1_554
Au2 Y0 3.081063 1_555
Au2 Y1 3.081065 1_564
Au2 Y1 3.081065 1_565
Au2 Y2 3.081069 1_554
Au2 Y2 3.081069 1_555
