# generated using pymatgen
data_Ti7S12
_symmetry_space_group_name_H-M   'P 1'
_cell_length_a   6.85002407
_cell_length_b   9.04162300
_cell_length_c   11.76312780
_cell_angle_alpha   99.51614087
_cell_angle_beta   89.85109241
_cell_angle_gamma   100.96397649
_symmetry_Int_Tables_number   1
_chemical_formula_structural   Ti7S12
_chemical_formula_sum   'Ti14 S24'
_cell_volume   705.09927779
_cell_formula_units_Z   2
loop_
 _symmetry_equiv_pos_site_id
 _symmetry_equiv_pos_as_xyz
  1  'x, y, z'
loop_
 _atom_site_type_symbol
 _atom_site_label
 _atom_site_symmetry_multiplicity
 _atom_site_fract_x
 _atom_site_fract_y
 _atom_site_fract_z
 _atom_site_occupancy
  Ti  Ti0  1  0.16652997  0.66904238  0.49472471  1
  Ti  Ti1  1  0.17977574  0.72346865  0.76536052  1
  Ti  Ti2  1  0.24819529  0.00154258  0.99753415  1
  Ti  Ti3  1  0.50000000  -0.00000000  0.50000000  1
  Ti  Ti4  1  0.57849941  0.33427267  -0.00020148  1
  Ti  Ti5  1  0.32998852  0.32229122  0.50145993  1
  Ti  Ti6  1  0.83347003  0.33095762  0.50527529  1
  Ti  Ti7  1  0.91848896  0.66234391  0.99762783  1
  Ti  Ti8  1  0.42150059  0.66572733  0.00020148  1
  Ti  Ti9  1  0.67001148  0.67770878  0.49854007  1
  Ti  Ti10  1  0.75180471  0.99845742  0.00246585  1
  Ti  Ti11  1  -0.00000000  -0.00000000  0.50000000  1
  Ti  Ti12  1  0.08151104  0.33765609  0.00237217  1
  Ti  Ti13  1  0.82022426  0.27653135  0.23463948  1
  S  S0  1  0.20145464  0.80262694  0.11588636  1
  S  S1  1  0.22795995  0.91452700  0.62566984  1
  S  S2  1  0.53051814  0.13661336  0.12681896  1
  S  S3  1  0.27069142  0.08208850  0.37860739  1
  S  S4  1  0.56074633  0.24810900  0.62272472  1
  S  S5  1  0.30002069  0.19656999  0.87985824  1
  S  S6  1  0.36878388  0.47322860  0.12256053  1
  S  S7  1  0.86769183  0.47934024  0.12881243  1
  S  S8  1  0.60857504  0.41662813  0.37864377  1
  S  S9  1  0.39142496  0.58337187  0.62135623  1
  S  S10  1  0.89944255  0.58621775  0.62551646  1
  S  S11  1  0.63121612  0.52677140  0.87743947  1
  S  S12  1  0.69997931  0.80343001  0.12014176  1
  S  S13  1  0.93723016  0.75136565  0.37683923  1
  S  S14  1  0.43925367  0.75189100  0.37727528  1
  S  S15  1  0.72930858  0.91791150  0.62139261  1
  S  S16  1  0.96163095  0.86309475  0.87290524  1
  S  S17  1  0.46948186  0.86338664  0.87318104  1
  S  S18  1  0.03836905  0.13690525  0.12709476  1
  S  S19  1  0.77204005  0.08547300  0.37433016  1
  S  S20  1  0.06276984  0.24863435  0.62316077  1
  S  S21  1  0.79854536  0.19737306  0.88411364  1
  S  S22  1  0.10055745  0.41378225  0.37448354  1
  S  S23  1  0.13230817  0.52065976  0.87118757  1
loop_
_geom_bond_atom_site_label_1
_geom_bond_atom_site_label_2
_geom_bond_distance
_geom_bond_site_symmetry_2
S0 Ti7 2.407580 1_454
S0 Ti8 2.407916 1_555
S0 Ti2 2.425271 1_564
S1 Ti0 2.448232 1_555
S1 Ti11 2.463673 1_565
S1 Ti3 2.463882 1_565
S1 Ti1 2.551882 1_555
S2 Ti13 2.382191 1_555
S2 Ti2 2.459087 1_554
S2 Ti10 2.470297 1_545
S2 Ti4 2.488258 1_555
S3 Ti5 2.366415 1_555
S3 Ti11 2.416885 1_555
S3 Ti3 2.421327 1_555
S4 Ti5 2.390525 1_555
S4 Ti6 2.399245 1_555
S4 Ti3 2.422163 1_555
S5 Ti4 2.389423 1_556
S5 Ti2 2.391236 1_555
S5 Ti12 2.460040 1_556
S6 Ti4 2.409022 1_555
S6 Ti8 2.412043 1_555
S6 Ti12 2.428500 1_555
S7 Ti13 2.354529 1_555
S7 Ti7 2.421302 1_554
S7 Ti12 2.463919 1_655
S7 Ti4 2.513342 1_555
S8 Ti6 2.457533 1_555
S8 Ti5 2.496070 1_555
S8 Ti9 2.502595 1_555
S8 Ti13 2.559728 1_555
S9 Ti0 2.457533 1_555
S9 Ti9 2.496070 1_555
S9 Ti5 2.502595 1_555
S9 Ti1 2.559728 1_555
S10 Ti6 2.461442 1_555
S10 Ti0 2.473921 1_655
S10 Ti9 2.510078 1_555
S10 Ti1 2.523593 1_655
S11 Ti8 2.409022 1_556
S11 Ti4 2.412043 1_556
S11 Ti7 2.428500 1_555
S12 Ti8 2.389423 1_555
S12 Ti10 2.391236 1_555
S12 Ti7 2.460040 1_554
S13 Ti9 2.383577 1_555
S13 Ti0 2.396129 1_655
S13 Ti11 2.428209 1_665
S14 Ti9 2.390525 1_555
S14 Ti0 2.399245 1_555
S14 Ti3 2.422163 1_565
S15 Ti9 2.366415 1_555
S15 Ti11 2.416885 1_665
S15 Ti3 2.421327 1_565
S16 Ti1 2.367860 1_655
S16 Ti10 2.434645 1_556
S16 Ti2 2.458241 1_665
S16 Ti7 2.491719 1_555
S17 Ti1 2.382191 1_555
S17 Ti10 2.459087 1_556
S17 Ti2 2.470297 1_565
S17 Ti8 2.488258 1_556
S18 Ti13 2.367860 1_455
S18 Ti2 2.434645 1_554
S18 Ti10 2.458241 1_445
S18 Ti12 2.491719 1_555
S19 Ti6 2.448232 1_555
S19 Ti11 2.463673 1_655
S19 Ti3 2.463882 1_555
S19 Ti13 2.551882 1_555
S20 Ti5 2.383577 1_555
S20 Ti6 2.396129 1_455
S20 Ti11 2.428209 1_555
S21 Ti12 2.407580 1_656
S21 Ti4 2.407916 1_556
S21 Ti10 2.425271 1_546
S22 Ti0 2.461442 1_555
S22 Ti6 2.473921 1_455
S22 Ti5 2.510078 1_555
S22 Ti13 2.523593 1_455
S23 Ti1 2.354529 1_555
S23 Ti12 2.421302 1_556
S23 Ti7 2.463919 1_455
S23 Ti8 2.513342 1_556
