# generated using pymatgen
data_Rb6Pb5Cl16
_symmetry_space_group_name_H-M   'P 1'
_cell_length_a   11.96584452
_cell_length_b   11.96584452
_cell_length_c   11.40578611
_cell_angle_alpha   89.91394151
_cell_angle_beta   89.91394151
_cell_angle_gamma   90.83902803
_symmetry_Int_Tables_number   1
_chemical_formula_structural   Rb6Pb5Cl16
_chemical_formula_sum   'Rb12 Pb10 Cl32'
_cell_volume   1632.91798624
_cell_formula_units_Z   2
loop_
 _symmetry_equiv_pos_site_id
 _symmetry_equiv_pos_as_xyz
  1  'x, y, z'
loop_
 _atom_site_type_symbol
 _atom_site_label
 _atom_site_symmetry_multiplicity
 _atom_site_fract_x
 _atom_site_fract_y
 _atom_site_fract_z
 _atom_site_occupancy
  Rb  Rb0  1  0.00000000  0.50000000  0.00000000  1
  Rb  Rb1  1  0.62157000  0.37843000  0.00000000  1
  Rb  Rb2  1  0.12639300  0.12639300  0.00032700  1
  Rb  Rb3  1  0.67747700  0.67747700  0.26532000  1
  Rb  Rb4  1  0.86416400  0.86416400  0.50189700  1
  Rb  Rb5  1  0.36318900  0.63681100  0.50000000  1
  Rb  Rb6  1  0.63681100  0.36318900  0.50000000  1
  Rb  Rb7  1  0.13583600  0.13583600  0.49810300  1
  Rb  Rb8  1  0.32252300  0.32252300  0.73468000  1
  Rb  Rb9  1  0.50000000  0.00000000  0.00000000  1
  Rb  Rb10  1  0.87360700  0.87360700  0.99967300  1
  Rb  Rb11  1  0.37843000  0.62157000  0.00000000  1
  Pb  Pb0  1  0.32403500  0.32403500  0.26243400  1
  Pb  Pb1  1  0.17143600  0.82090500  0.25645700  1
  Pb  Pb2  1  0.82090500  0.17143600  0.25645700  1
  Pb  Pb3  1  0.00265700  0.49793600  0.34242900  1
  Pb  Pb4  1  0.49793600  0.00265700  0.34242900  1
  Pb  Pb5  1  0.50206400  0.99734300  0.65757100  1
  Pb  Pb6  1  0.99734300  0.50206400  0.65757100  1
  Pb  Pb7  1  0.82856400  0.17909500  0.74354300  1
  Pb  Pb8  1  0.17909500  0.82856400  0.74354300  1
  Pb  Pb9  1  0.67596500  0.67596500  0.73756600  1
  Cl  Cl0  1  0.84121300  0.15878700  0.00000000  1
  Cl  Cl1  1  0.65871600  0.65871600  0.97997300  1
  Cl  Cl2  1  0.80242700  0.41907500  0.21448200  1
  Cl  Cl3  1  0.06724100  0.29965000  0.21440800  1
  Cl  Cl4  1  0.94819900  0.70202500  0.21082500  1
  Cl  Cl5  1  0.20197000  0.57264300  0.21582300  1
  Cl  Cl6  1  0.57264300  0.20197000  0.21582300  1
  Cl  Cl7  1  0.70202500  0.94819900  0.21082500  1
  Cl  Cl8  1  0.29965000  0.06724100  0.21440800  1
  Cl  Cl9  1  0.41907500  0.80242700  0.21448200  1
  Cl  Cl10  1  0.48733400  0.48733400  0.29019100  1
  Cl  Cl11  1  0.00045500  0.00045500  0.28301000  1
  Cl  Cl12  1  0.90803200  0.29602900  0.50238100  1
  Cl  Cl13  1  0.19490000  0.41079600  0.49055700  1
  Cl  Cl14  1  0.80510000  0.58920400  0.50944300  1
  Cl  Cl15  1  0.09196800  0.70397100  0.49761900  1
  Cl  Cl16  1  0.41079600  0.19490000  0.49055700  1
  Cl  Cl17  1  0.29602900  0.90803200  0.50238100  1
  Cl  Cl18  1  0.70397100  0.09196800  0.49761900  1
  Cl  Cl19  1  0.58920400  0.80510000  0.50944300  1
  Cl  Cl20  1  0.99954500  0.99954500  0.71699000  1
  Cl  Cl21  1  0.51266600  0.51266600  0.70980900  1
  Cl  Cl22  1  0.58092500  0.19757300  0.78551800  1
  Cl  Cl23  1  0.70035000  0.93275900  0.78559200  1
  Cl  Cl24  1  0.79803000  0.42735700  0.78417700  1
  Cl  Cl25  1  0.05180100  0.29797500  0.78917500  1
  Cl  Cl26  1  0.29797500  0.05180100  0.78917500  1
  Cl  Cl27  1  0.42735700  0.79803000  0.78417700  1
  Cl  Cl28  1  0.93275900  0.70035000  0.78559200  1
  Cl  Cl29  1  0.19757300  0.58092500  0.78551800  1
  Cl  Cl30  1  0.34128400  0.34128400  0.02002700  1
  Cl  Cl31  1  0.15878700  0.84121300  0.00000000  1
loop_
_geom_bond_atom_site_label_1
_geom_bond_atom_site_label_2
_geom_bond_distance
_geom_bond_site_symmetry_2
Cl0 Pb2 2.939116 1_555
Cl0 Pb7 2.939116 1_554
Cl0 Rb2 3.440006 1_655
Cl0 Rb10 3.440006 1_544
Cl0 Rb1 3.743970 1_555
Cl1 Pb9 2.779367 1_555
Cl1 Rb3 3.270500 1_556
Cl1 Rb1 3.384058 1_556
Cl1 Rb11 3.384058 1_556
Cl1 Rb10 3.617185 1_555
Cl2 Pb3 2.951098 1_655
Cl2 Pb2 3.012300 1_555
Cl2 Rb1 3.300471 1_555
Cl2 Rb3 3.502894 1_555
Cl2 Rb0 3.524174 1_655
Cl2 Rb6 3.861980 1_555
Cl3 Pb3 2.901651 1_555
Cl3 Pb0 3.131503 1_555
Cl3 Rb2 3.288495 1_555
Cl3 Rb0 3.524190 1_555
Cl4 Pb3 2.946208 1_655
Cl4 Pb1 3.053674 1_655
Cl4 Rb10 3.295059 1_554
Cl4 Rb3 3.306354 1_555
Cl4 Rb0 3.473775 1_655
Cl5 Pb3 2.914736 1_555
Cl5 Pb1 3.034559 1_555
Cl5 Rb11 3.287041 1_555
Cl5 Rb0 3.552269 1_555
Cl5 Rb5 3.847041 1_555
Cl6 Pb4 2.914736 1_555
Cl6 Pb2 3.034559 1_555
Cl6 Rb1 3.287041 1_555
Cl6 Rb9 3.552269 1_555
Cl6 Rb6 3.847041 1_555
Cl7 Pb4 2.946208 1_565
Cl7 Pb2 3.053674 1_565
Cl7 Rb10 3.295059 1_554
Cl7 Rb3 3.306354 1_555
Cl7 Rb9 3.473775 1_565
Cl8 Pb4 2.901651 1_555
Cl8 Pb0 3.131503 1_555
Cl8 Rb2 3.288495 1_555
Cl8 Rb9 3.524190 1_555
Cl9 Pb4 2.951098 1_565
Cl9 Pb1 3.012300 1_555
Cl9 Rb11 3.300471 1_555
Cl9 Rb3 3.502894 1_555
Cl9 Rb9 3.524174 1_565
Cl9 Rb5 3.861980 1_555
Cl10 Pb0 2.761963 1_555
Cl10 Rb3 3.205972 1_555
Cl10 Rb6 3.348505 1_555
Cl10 Rb5 3.348505 1_555
Cl11 Pb2 3.003714 1_455
Cl11 Pb1 3.003714 1_545
Cl11 Rb7 3.348759 1_555
Cl11 Rb4 3.383757 1_445
Cl11 Rb2 3.852497 1_555
Cl11 Rb10 3.874721 1_444
Cl12 Rb6 3.354948 1_555
Cl12 Rb7 3.355582 1_655
Cl13 Pb3 3.051219 1_555
Cl13 Pb0 3.206007 1_555
Cl13 Pb6 3.236966 1_455
Cl13 Rb5 3.350046 1_555
Cl13 Rb8 3.354388 1_555
Cl13 Rb7 3.355997 1_555
Cl14 Pb6 3.051219 1_555
Cl14 Pb9 3.206007 1_555
Cl14 Pb3 3.236966 1_655
Cl14 Rb6 3.350046 1_555
Cl14 Rb3 3.354388 1_555
Cl14 Rb4 3.355997 1_555
Cl15 Rb5 3.354948 1_555
Cl15 Rb4 3.355582 1_455
Cl16 Pb4 3.051219 1_555
Cl16 Pb0 3.206007 1_555
Cl16 Pb5 3.236966 1_545
Cl16 Rb6 3.350046 1_555
Cl16 Rb8 3.354388 1_555
Cl16 Rb7 3.355997 1_555
Cl17 Rb5 3.354948 1_555
Cl17 Rb7 3.355582 1_565
Cl18 Rb6 3.354948 1_555
Cl18 Rb4 3.355582 1_545
Cl19 Pb5 3.051219 1_555
Cl19 Pb9 3.206007 1_555
Cl19 Pb4 3.236966 1_565
Cl19 Rb5 3.350046 1_555
Cl19 Rb3 3.354388 1_555
Cl19 Rb4 3.355997 1_555
Cl20 Pb7 3.003714 1_565
Cl20 Pb8 3.003714 1_655
Cl20 Rb4 3.348759 1_555
Cl20 Rb7 3.383757 1_665
Cl20 Rb10 3.852497 1_555
Cl20 Rb2 3.874721 1_666
Cl21 Pb9 2.761963 1_555
Cl21 Rb8 3.205972 1_555
Cl21 Rb6 3.348505 1_555
Cl21 Rb5 3.348505 1_555
Cl22 Pb5 2.951098 1_545
Cl22 Pb7 3.012300 1_555
Cl22 Rb1 3.300471 1_556
Cl22 Rb8 3.502894 1_555
Cl22 Rb9 3.524174 1_556
Cl22 Rb6 3.861980 1_555
Cl23 Pb5 2.901651 1_555
Cl23 Pb9 3.131503 1_555
Cl23 Rb10 3.288495 1_555
Cl23 Rb9 3.524190 1_566
Cl24 Pb6 2.914736 1_555
Cl24 Pb7 3.034559 1_555
Cl24 Rb1 3.287041 1_556
Cl24 Rb0 3.552269 1_656
Cl24 Rb6 3.847041 1_555
Cl25 Pb6 2.946208 1_455
Cl25 Pb7 3.053674 1_455
Cl25 Rb2 3.295059 1_556
Cl25 Rb8 3.306354 1_555
Cl25 Rb0 3.473775 1_556
Cl26 Pb5 2.946208 1_545
Cl26 Pb8 3.053674 1_545
Cl26 Rb2 3.295059 1_556
Cl26 Rb8 3.306354 1_555
Cl26 Rb9 3.473775 1_556
Cl27 Pb5 2.914736 1_555
Cl27 Pb8 3.034559 1_555
Cl27 Rb11 3.287041 1_556
Cl27 Rb9 3.552269 1_566
Cl27 Rb5 3.847041 1_555
Cl28 Pb6 2.901651 1_555
Cl28 Pb9 3.131503 1_555
Cl28 Rb10 3.288495 1_555
Cl28 Rb0 3.524190 1_656
Cl29 Pb6 2.951098 1_455
Cl29 Pb8 3.012300 1_555
Cl29 Rb11 3.300471 1_556
Cl29 Rb8 3.502894 1_555
Cl29 Rb0 3.524174 1_556
Cl29 Rb5 3.861980 1_555
Cl30 Pb0 2.779367 1_555
Cl30 Rb8 3.270500 1_554
Cl30 Rb1 3.384058 1_555
Cl30 Rb11 3.384058 1_555
Cl30 Rb2 3.617185 1_555
Cl31 Pb1 2.939116 1_555
Cl31 Pb8 2.939116 1_554
Cl31 Rb2 3.440006 1_565
Cl31 Rb10 3.440006 1_454
Cl31 Rb11 3.743970 1_555
