# generated using pymatgen
data_Pb(C2N3)2
_symmetry_space_group_name_H-M   'P 1'
_cell_length_a   4.05065800
_cell_length_b   12.17051800
_cell_length_c   13.68576100
_cell_angle_alpha   90.00000000
_cell_angle_beta   90.00000000
_cell_angle_gamma   90.00000000
_symmetry_Int_Tables_number   1
_chemical_formula_structural   Pb(C2N3)2
_chemical_formula_sum   'Pb4 C16 N24'
_cell_volume   674.68894073
_cell_formula_units_Z   4
loop_
 _symmetry_equiv_pos_site_id
 _symmetry_equiv_pos_as_xyz
  1  'x, y, z'
loop_
 _atom_site_type_symbol
 _atom_site_label
 _atom_site_symmetry_multiplicity
 _atom_site_fract_x
 _atom_site_fract_y
 _atom_site_fract_z
 _atom_site_occupancy
  Pb  Pb0  1  0.75000000  0.88012800  0.28439500  1
  Pb  Pb1  1  0.25000000  0.11987200  0.71560500  1
  Pb  Pb2  1  0.25000000  0.38012800  0.21560500  1
  Pb  Pb3  1  0.75000000  0.61987200  0.78439500  1
  C  C0  1  0.25000000  0.67678200  0.17439800  1
  C  C1  1  0.75000000  0.64570400  0.50099600  1
  C  C2  1  0.75000000  0.32321800  0.82560200  1
  C  C3  1  0.75000000  0.10860500  0.48198800  1
  C  C4  1  0.25000000  0.42351300  0.65481300  1
  C  C5  1  0.75000000  0.57648700  0.34518700  1
  C  C6  1  0.25000000  0.14570400  0.99900400  1
  C  C7  1  0.25000000  0.60860400  0.01801200  1
  C  C8  1  0.25000000  0.35429600  0.49900400  1
  C  C9  1  0.75000000  0.92351300  0.84518700  1
  C  C10  1  0.75000000  0.17678200  0.32560200  1
  C  C11  1  0.75000000  0.39139600  0.98198800  1
  C  C12  1  0.25000000  0.82321800  0.67439800  1
  C  C13  1  0.25000000  0.89139600  0.51801200  1
  C  C14  1  0.75000000  0.85429600  0.00099600  1
  C  C15  1  0.25000000  0.07648700  0.15481300  1
  N  N0  1  0.25000000  0.34339300  0.59373400  1
  N  N1  1  0.25000000  0.49177900  0.71700200  1
  N  N2  1  0.75000000  0.24428700  0.26299300  1
  N  N3  1  0.75000000  0.85738300  0.08708300  1
  N  N4  1  0.25000000  0.00822100  0.21700200  1
  N  N5  1  0.75000000  0.38848700  0.06843400  1
  N  N6  1  0.75000000  0.65660700  0.40626600  1
  N  N7  1  0.75000000  0.50822100  0.28299800  1
  N  N8  1  0.25000000  0.61151300  0.93156600  1
  N  N9  1  0.25000000  0.59729500  0.11228500  1
  N  N10  1  0.75000000  0.11151300  0.56843400  1
  N  N11  1  0.75000000  0.09729500  0.38771500  1
  N  N12  1  0.25000000  0.90270500  0.61228500  1
  N  N13  1  0.25000000  0.88848700  0.43156600  1
  N  N14  1  0.25000000  0.35738300  0.41291700  1
  N  N15  1  0.75000000  0.25571300  0.76299300  1
  N  N16  1  0.75000000  0.84339300  0.90626600  1
  N  N17  1  0.75000000  0.99177900  0.78299800  1
  N  N18  1  0.25000000  0.14261700  0.91291700  1
  N  N19  1  0.25000000  0.75571300  0.73700700  1
  N  N20  1  0.75000000  0.40270500  0.88771500  1
  N  N21  1  0.75000000  0.64261700  0.58708300  1
  N  N22  1  0.25000000  0.15660700  0.09373400  1
  N  N23  1  0.25000000  0.74428700  0.23700700  1
loop_
_geom_bond_atom_site_label_1
_geom_bond_atom_site_label_2
_geom_bond_distance
_geom_bond_site_symmetry_2
C0 N23 1.187086 1_555
C0 N9 1.287815 1_555
C1 N21 1.178765 1_555
C1 N6 1.303225 1_555
C2 N15 1.187086 1_555
C2 N20 1.287815 1_555
C3 N10 1.183609 1_555
C3 N11 1.297520 1_555
C4 N1 1.189395 1_555
C4 N0 1.284357 1_555
C5 N7 1.189395 1_555
C5 N6 1.284357 1_555
C6 N18 1.178765 1_555
C6 N22 1.303225 1_556
C7 N8 1.183609 1_554
C7 N9 1.297518 1_555
C8 N14 1.178765 1_555
C8 N0 1.303225 1_555
C9 N17 1.189395 1_555
C9 N16 1.284357 1_555
C10 N2 1.187086 1_555
C10 N11 1.287815 1_555
C11 N5 1.183609 1_556
C11 N20 1.297518 1_555
C12 N19 1.187086 1_555
C12 N12 1.287815 1_555
C13 N13 1.183609 1_555
C13 N12 1.297518 1_555
C14 N3 1.178765 1_555
C14 N16 1.303225 1_554
C15 N4 1.189395 1_555
C15 N22 1.284357 1_555
N1 Pb3 2.717166 1_455
N1 Pb3 2.717166 1_555
N2 Pb2 2.693662 1_555
N2 Pb2 2.693662 1_655
N3 Pb0 2.714516 1_555
N4 Pb0 2.717166 1_545
N4 Pb0 2.717166 1_445
N5 Pb2 2.858163 1_655
N5 Pb2 2.858163 1_555
N7 Pb2 2.717166 1_555
N7 Pb2 2.717166 1_655
N8 Pb3 2.858163 1_455
N8 Pb3 2.858163 1_555
N10 Pb1 2.858163 1_655
N10 Pb1 2.858163 1_555
N13 Pb0 2.858163 1_555
N13 Pb0 2.858163 1_455
N14 Pb2 2.714516 1_555
N15 Pb1 2.693662 1_655
N15 Pb1 2.693662 1_555
N17 Pb1 2.717166 1_565
N17 Pb1 2.717166 1_665
N18 Pb1 2.714516 1_555
N19 Pb3 2.693662 1_455
N19 Pb3 2.693662 1_555
N21 Pb3 2.714516 1_555
N23 Pb0 2.693662 1_555
N23 Pb0 2.693662 1_455
