# generated using pymatgen
data_V2P2O9
_symmetry_space_group_name_H-M   'P 1'
_cell_length_a   7.52725000
_cell_length_b   8.54910300
_cell_length_c   9.69204300
_cell_angle_alpha   90.00000000
_cell_angle_beta   90.00000000
_cell_angle_gamma   90.00000000
_symmetry_Int_Tables_number   1
_chemical_formula_structural   V2P2O9
_chemical_formula_sum   'V8 P8 O36'
_cell_volume   623.69494212
_cell_formula_units_Z   4
loop_
 _symmetry_equiv_pos_site_id
 _symmetry_equiv_pos_as_xyz
  1  'x, y, z'
loop_
 _atom_site_type_symbol
 _atom_site_label
 _atom_site_symmetry_multiplicity
 _atom_site_fract_x
 _atom_site_fract_y
 _atom_site_fract_z
 _atom_site_occupancy
  V  V0  1  0.53279600  0.69139900  0.49574800  1
  V  V1  1  0.96720400  0.19139900  0.99574800  1
  V  V2  1  0.46720400  0.19139900  0.00425200  1
  V  V3  1  0.46720400  0.30860100  0.50425200  1
  V  V4  1  0.03279600  0.69139900  0.50425200  1
  V  V5  1  0.96720400  0.30860100  0.49574800  1
  V  V6  1  0.03279600  0.80860100  0.00425200  1
  V  V7  1  0.53279600  0.80860100  0.99574800  1
  P  P0  1  0.54382300  0.50091900  0.79780400  1
  P  P1  1  0.95617700  0.00091900  0.29780400  1
  P  P2  1  0.45617700  0.00091900  0.70219600  1
  P  P3  1  0.45617700  0.49908100  0.20219600  1
  P  P4  1  0.04382300  0.50091900  0.20219600  1
  P  P5  1  0.54382300  0.99908100  0.29780400  1
  P  P6  1  0.04382300  0.99908100  0.70219600  1
  P  P7  1  0.95617700  0.49908100  0.79780400  1
  O  O0  1  0.02886100  0.34642800  0.85436700  1
  O  O1  1  0.97113900  0.65357200  0.14563300  1
  O  O2  1  0.47113900  0.84642800  0.35436700  1
  O  O3  1  0.74609800  0.18129300  0.97356400  1
  O  O4  1  0.97595400  0.50099100  0.63676300  1
  O  O5  1  0.96399200  0.35515800  0.13969300  1
  O  O6  1  0.74609800  0.31870700  0.47356400  1
  O  O7  1  0.02404600  0.00099100  0.86323700  1
  O  O8  1  0.52886100  0.15357200  0.64563300  1
  O  O9  1  0.24609800  0.18129300  0.02643600  1
  O  O10  1  0.53600800  0.85515800  0.63969300  1
  O  O11  1  0.97595400  0.99900900  0.13676300  1
  O  O12  1  0.03600800  0.85515800  0.36030700  1
  O  O13  1  0.75390200  0.68129300  0.47356400  1
  O  O14  1  0.53600800  0.64484200  0.13969300  1
  O  O15  1  0.97113900  0.84642800  0.64563300  1
  O  O16  1  0.46399200  0.14484200  0.36030700  1
  O  O17  1  0.25000000  0.00000000  0.66807300  1
  O  O18  1  0.25000000  0.50000000  0.16807300  1
  O  O19  1  0.02404600  0.49900900  0.36323700  1
  O  O20  1  0.52404600  0.00099100  0.13676300  1
  O  O21  1  0.96399200  0.14484200  0.63969300  1
  O  O22  1  0.75000000  0.00000000  0.33192700  1
  O  O23  1  0.25390200  0.68129300  0.52643600  1
  O  O24  1  0.25390200  0.81870700  0.02643600  1
  O  O25  1  0.47113900  0.65357200  0.85436700  1
  O  O26  1  0.46399200  0.35515800  0.86030700  1
  O  O27  1  0.52886100  0.34642800  0.14563300  1
  O  O28  1  0.47595400  0.99900900  0.86323700  1
  O  O29  1  0.03600800  0.64484200  0.86030700  1
  O  O30  1  0.02886100  0.15357200  0.35436700  1
  O  O31  1  0.75390200  0.81870700  0.97356400  1
  O  O32  1  0.47595400  0.50099100  0.36323700  1
  O  O33  1  0.24609800  0.31870700  0.52643600  1
  O  O34  1  0.52404600  0.49900900  0.63676300  1
  O  O35  1  0.75000000  0.50000000  0.83192700  1
loop_
_geom_bond_atom_site_label_1
_geom_bond_atom_site_label_2
_geom_bond_distance
_geom_bond_site_symmetry_2
O0 P7 1.517567 1_455
O0 V1 1.962043 1_455
O1 P4 1.517567 1_655
O1 V6 1.962043 1_655
O2 P5 1.517567 1_555
O2 V0 1.962043 1_555
O3 V1 1.680373 1_555
O3 V2 2.122030 1_556
O4 P7 1.567984 1_555
O4 V4 2.117142 1_655
O4 V5 2.139512 1_555
O5 P4 1.510262 1_655
O5 V1 1.976595 1_554
O6 V5 1.680373 1_555
O6 V3 2.122030 1_555
O7 P6 1.567984 1_545
O7 V1 2.117142 1_455
O7 V6 2.139512 1_546
O8 P2 1.517567 1_555
O8 V3 1.962043 1_555
O9 V2 1.680373 1_555
O9 V1 2.122030 1_454
O10 P2 1.510262 1_565
O10 V0 1.976595 1_555
O11 P1 1.567984 1_565
O11 V6 2.117142 1_655
O11 V1 2.139512 1_564
O12 P1 1.510262 1_465
O12 V4 1.976595 1_555
O13 V0 1.680373 1_555
O13 V4 2.122030 1_655
O14 P3 1.510262 1_555
O14 V7 1.976595 1_554
O15 P6 1.517567 1_655
O15 V4 1.962043 1_655
O16 P5 1.510262 1_545
O16 V3 1.976595 1_555
O17 P2 1.586813 1_555
O17 P6 1.586813 1_545
O18 P4 1.586813 1_555
O18 P3 1.586813 1_555
O19 P4 1.567984 1_555
O19 V5 2.117142 1_455
O19 V4 2.139512 1_555
O20 P5 1.567984 1_545
O20 V2 2.117142 1_555
O20 V7 2.139512 1_544
O21 P6 1.510262 1_645
O21 V5 1.976595 1_555
O22 P1 1.586813 1_555
O22 P5 1.586813 1_545
O23 V4 1.680373 1_555
O23 V0 2.122030 1_555
O24 V6 1.680373 1_555
O24 V7 2.122030 1_554
O25 P0 1.517567 1_555
O25 V7 1.962043 1_555
O26 P0 1.510262 1_555
O26 V2 1.976595 1_556
O27 P3 1.517567 1_555
O27 V2 1.962043 1_555
O28 P2 1.567984 1_565
O28 V7 2.117142 1_555
O28 V2 2.139512 1_566
O29 P7 1.510262 1_455
O29 V6 1.976595 1_556
O30 P1 1.517567 1_455
O30 V5 1.962043 1_455
O31 V7 1.680373 1_555
O31 V6 2.122030 1_656
O32 P3 1.567984 1_555
O32 V0 2.117142 1_555
O32 V3 2.139512 1_555
O33 V3 1.680373 1_555
O33 V5 2.122030 1_455
O34 P0 1.567984 1_555
O34 V3 2.117142 1_555
O34 V0 2.139512 1_555
O35 P0 1.586813 1_555
O35 P7 1.586813 1_555
