# generated using pymatgen
data_Na27Ca3Al5(P2O7)12
_symmetry_space_group_name_H-M   'P 1'
_cell_length_a   9.38216600
_cell_length_b   15.16375266
_cell_length_c   15.16655560
_cell_angle_alpha   115.86012649
_cell_angle_beta   101.89388372
_cell_angle_gamma   101.89023353
_symmetry_Int_Tables_number   1
_chemical_formula_structural   Na27Ca3Al5(P2O7)12
_chemical_formula_sum   'Na27 Ca3 Al5 P24 O84'
_cell_volume   1789.45622420
_cell_formula_units_Z   1
loop_
 _symmetry_equiv_pos_site_id
 _symmetry_equiv_pos_as_xyz
  1  'x, y, z'
loop_
 _atom_site_type_symbol
 _atom_site_label
 _atom_site_symmetry_multiplicity
 _atom_site_fract_x
 _atom_site_fract_y
 _atom_site_fract_z
 _atom_site_occupancy
  Na  Na0  1  0.35228400  0.42667000  0.18473700  1
  Na  Na1  1  0.17244700  0.28932500  0.71319500  1
  Na  Na2  1  0.53574000  0.71118100  0.42186600  1
  Na  Na3  1  0.10673900  0.45439700  0.95214300  1
  Na  Na4  1  0.06957500  0.24134600  0.42414100  1
  Na  Na5  1  0.84478100  0.95032700  0.49704500  1
  Na  Na6  1  0.34941700  0.50560600  0.45270000  1
  Na  Na7  1  0.43573400  0.80591400  0.07066700  1
  Na  Na8  1  0.05074000  0.72757900  0.95525400  1
  Na  Na9  1  0.90394900  0.95489300  0.22743300  1
  Na  Na10  1  0.83211100  0.18238500  0.75875800  1
  Na  Na11  1  0.37056700  0.73622600  0.80566200  1
  Na  Na12  1  0.67585800  0.77297800  0.72582100  1
  Na  Na13  1  0.12180300  0.57829300  0.29083200  1
  Na  Na14  1  0.63471100  0.06938700  0.26345100  1
  Na  Na15  1  0.36592500  0.92894200  0.73522400  1
  Na  Na16  1  0.32147500  0.22811900  0.27204100  1
  Na  Na17  1  0.62993900  0.26436500  0.19345500  1
  Na  Na18  1  0.17232900  0.81504400  0.24128800  1
  Na  Na19  1  0.09430800  0.04604900  0.77236700  1
  Na  Na20  1  0.95157100  0.27374300  0.04628700  1
  Na  Na21  1  0.56408400  0.19373600  0.93027800  1
  Na  Na22  1  0.64943800  0.49774300  0.54414600  1
  Na  Na23  1  0.15246700  0.04915700  0.50474500  1
  Na  Na24  1  0.92751700  0.75887400  0.57458400  1
  Na  Na25  1  0.89795300  0.54566000  0.05103800  1
  Na  Na26  1  0.64507400  0.57661900  0.81739200  1
  Ca  Ca0  1  0.88631700  0.42272100  0.71095600  1
  Ca  Ca1  1  0.45293400  0.28652400  0.57750400  1
  Ca  Ca2  1  0.82960900  0.70920000  0.28936900  1
  Al  Al0  1  0.00082400  0.50157200  0.49844000  1
  Al  Al1  1  0.50046400  0.99814300  0.50003800  1
  Al  Al2  1  0.99972400  0.00064700  0.99983700  1
  Al  Al3  1  0.50067800  0.00065400  0.99995400  1
  Al  Al4  1  0.49684300  0.49925600  0.00083200  1
  P  P0  1  0.22445400  0.28791100  0.92225400  1
  P  P1  1  0.32240500  0.62580400  0.15700400  1
  P  P2  1  0.69822400  0.92238500  0.63446800  1
  P  P3  1  0.29343000  0.55311600  0.84702600  1
  P  P4  1  0.30334700  0.46929800  0.62600100  1
  P  P5  1  0.55348400  0.84624200  0.29325000  1
  P  P6  1  0.06376000  0.36544100  0.28809100  1
  P  P7  1  0.69506900  0.83465600  0.97536100  1
  P  P8  1  0.83375600  0.15639800  0.53016300  1
  P  P9  1  0.26025800  0.70539000  0.55250200  1
  P  P10  1  0.28024000  0.97535400  0.14058700  1
  P  P11  1  0.13971000  0.85941700  0.83480600  1
  P  P12  1  0.86070900  0.14158200  0.16589600  1
  P  P13  1  0.71912700  0.02432400  0.85844100  1
  P  P14  1  0.74074100  0.29328800  0.44685300  1
  P  P15  1  0.16640500  0.84316600  0.46953200  1
  P  P16  1  0.30511800  0.16576700  0.02426800  1
  P  P17  1  0.93755500  0.63503200  0.71193500  1
  P  P18  1  0.44660700  0.15285100  0.70555600  1
  P  P19  1  0.69647900  0.52982900  0.37350300  1
  P  P20  1  0.70669800  0.44725700  0.15343400  1
  P  P21  1  0.30240800  0.07652800  0.36480900  1
  P  P22  1  0.67665800  0.37340500  0.84368900  1
  P  P23  1  0.77452600  0.71170800  0.07657200  1
  O  O0  1  0.10210600  0.21391600  0.81581600  1
  O  O1  1  0.16136800  0.33942000  0.00908000  1
  O  O2  1  0.34418800  0.36665100  0.91274100  1
  O  O3  1  0.36976500  0.60867400  0.24828900  1
  O  O4  1  0.71466200  0.81608800  0.60243000  1
  O  O5  1  0.35589000  0.55430600  0.06017800  1
  O  O6  1  0.24444200  0.35890300  0.60829200  1
  O  O7  1  0.43895800  0.53379300  0.89215000  1
  O  O8  1  0.14281900  0.46305300  0.80799800  1
  O  O9  1  0.15367000  0.61986700  0.12352700  1
  O  O10  1  0.66600700  0.80844800  0.34518100  1
  O  O11  1  0.17787000  0.32992000  0.33980600  1
  O  O12  1  0.46691600  0.49150500  0.61915400  1
  O  O13  1  0.56931100  0.91319400  0.54646800  1
  O  O14  1  0.42466300  0.74360300  0.18804500  1
  O  O15  1  0.84771800  0.00942800  0.66981200  1
  O  O16  1  0.31851000  0.55464700  0.74286100  1
  O  O17  1  0.28373200  0.65958400  0.91164000  1
  O  O18  1  0.19798100  0.49269600  0.55405000  1
  O  O19  1  0.67941900  0.78005900  0.04780300  1
  O  O20  1  0.45421700  0.89298100  0.35848200  1
  O  O21  1  0.62812200  0.91214900  0.25245600  1
  O  O22  1  0.11155600  0.39723800  0.21361900  1
  O  O23  1  0.64664800  0.74938600  0.86326500  1
  O  O24  1  0.02245100  0.45321700  0.36682000  1
  O  O25  1  0.70483000  0.06140000  0.50765500  1
  O  O26  1  0.97140900  0.12544800  0.50547600  1
  O  O27  1  0.21659100  0.86335000  0.11381900  1
  O  O28  1  0.86237200  0.90892900  0.02659800  1
  O  O29  1  0.10047500  0.73204200  0.78033900  1
  O  O30  1  0.57418200  0.88949800  0.99374000  1
  O  O31  1  0.09469600  0.64237500  0.53567400  1
  O  O32  1  0.31649800  0.65282400  0.46240600  1
  O  O33  1  0.37453300  0.74802000  0.66017700  1
  O  O34  1  0.87812300  0.25043800  0.63882700  1
  O  O35  1  0.36844700  0.04802800  0.26781000  1
  O  O36  1  0.89678200  0.11352900  0.25040700  1
  O  O37  1  0.41955100  0.99377600  0.10423100  1
  O  O38  1  0.76235800  0.18775800  0.44432000  1
  O  O39  1  0.31525900  0.89564300  0.88988100  1
  O  O40  1  0.04689000  0.88232700  0.90927500  1
  O  O41  1  0.83535900  0.97343900  0.88267800  1
  O  O42  1  0.16420600  0.02663800  0.11762200  1
  O  O43  1  0.95292200  0.11726000  0.09102700  1
  O  O44  1  0.68463800  0.10392800  0.11056000  1
  O  O45  1  0.23566600  0.81197900  0.55486500  1
  O  O46  1  0.58058700  0.00616600  0.89593300  1
  O  O47  1  0.10318800  0.88633900  0.74966100  1
  O  O48  1  0.63127300  0.95255600  0.73261100  1
  O  O49  1  0.11414500  0.75136500  0.35885700  1
  O  O50  1  0.62328200  0.25316100  0.34157600  1
  O  O51  1  0.68349300  0.34591500  0.53975300  1
  O  O52  1  0.90528100  0.35896900  0.46791100  1
  O  O53  1  0.42554200  0.11014600  0.00614600  1
  O  O54  1  0.89851500  0.26730500  0.22013500  1
  O  O55  1  0.13811700  0.09069900  0.97346900  1
  O  O56  1  0.78290500  0.13688100  0.88658300  1
  O  O57  1  0.02614600  0.87389700  0.49211100  1
  O  O58  1  0.29468900  0.93946700  0.49282600  1
  O  O59  1  0.97543300  0.54347600  0.63398100  1
  O  O60  1  0.35380200  0.25011400  0.13679200  1
  O  O61  1  0.88777400  0.59920600  0.78478000  1
  O  O62  1  0.37137500  0.08842000  0.74714000  1
  O  O63  1  0.54796100  0.10851800  0.64165900  1
  O  O64  1  0.32121900  0.21980100  0.95237300  1
  O  O65  1  0.80273800  0.50749800  0.44689500  1
  O  O66  1  0.71682600  0.34114700  0.08801700  1
  O  O67  1  0.68149100  0.44424600  0.25655800  1
  O  O68  1  0.15211800  0.99117800  0.33016300  1
  O  O69  1  0.57548700  0.25716800  0.81218500  1
  O  O70  1  0.43181200  0.09004000  0.45617100  1
  O  O71  1  0.53504500  0.50481500  0.38095100  1
  O  O72  1  0.82189300  0.66959500  0.66115800  1
  O  O73  1  0.34010200  0.19281300  0.65227400  1
  O  O74  1  0.84724700  0.38169700  0.87202500  1
  O  O75  1  0.85261700  0.54029400  0.19231900  1
  O  O76  1  0.56070000  0.46620300  0.10783300  1
  O  O77  1  0.76055700  0.63888400  0.38932100  1
  O  O78  1  0.64433000  0.44708300  0.93849900  1
  O  O79  1  0.28858900  0.18519900  0.40043200  1
  O  O80  1  0.63403900  0.38963400  0.74910600  1
  O  O81  1  0.65814700  0.63359800  0.08937000  1
  O  O82  1  0.83867900  0.66079200  0.99072500  1
  O  O83  1  0.89698200  0.78494000  0.18487100  1
loop_
_geom_bond_atom_site_label_1
_geom_bond_atom_site_label_2
_geom_bond_distance
_geom_bond_site_symmetry_2
Na0 O22 2.378043 1_555
Na0 O3 2.449597 1_555
Na0 O60 2.453230 1_555
Na0 O1 2.457232 1_555
Na0 O76 2.571063 1_555
Na0 O71 2.680190 1_555
Na1 O6 2.390485 1_555
Na1 O0 2.414635 1_555
Na1 O73 2.416153 1_555
Na1 O8 2.499352 1_555
Na1 O34 2.590401 1_455
Na1 O2 2.691864 1_555
Na1 O26 2.906472 1_455
Na2 O3 2.348299 1_555
Na2 O32 2.374469 1_555
Na2 O4 2.460174 1_555
Na2 O10 2.522180 1_555
Na2 O77 2.608542 1_555
Na2 O13 2.713158 1_555
Na2 O71 2.910924 1_555
Na3 O74 2.263872 1_455
Na3 O5 2.289239 1_556
Na3 O8 2.334154 1_555
Na3 O1 2.355271 1_556
Na3 O9 2.574789 1_556
Na4 O36 2.411847 1_455
Na4 O79 2.415554 1_555
Na4 O11 2.438097 1_555
Na4 O6 2.496546 1_555
Na4 O52 2.553385 1_455
Na4 O26 2.674155 1_455
Na5 O57 2.243593 1_655
Na5 O10 2.311868 1_555
Na5 O25 2.312740 1_565
Na5 O15 2.362484 1_565
Na5 O26 2.611623 1_565
Na6 O71 2.235139 1_555
Na6 O32 2.262023 1_555
Na6 O18 2.338348 1_555
Na6 O11 2.395274 1_555
Na6 O12 2.656151 1_555
Na7 O17 2.320381 1_554
Na7 O14 2.361331 1_555
Na7 O30 2.427173 1_554
Na7 O19 2.465494 1_555
Na7 O27 2.491881 1_555
Na7 O21 2.516090 1_555
Na7 O37 2.709669 1_555
Na8 O27 2.293822 1_556
Na8 O82 2.315104 1_455
Na8 O61 2.359113 1_455
Na8 O17 2.684943 1_555
Na8 O40 2.728729 1_555
Na8 O29 2.813153 1_555
Na9 O36 2.292940 1_565
Na9 O68 2.319583 1_655
Na9 O83 2.350426 1_555
Na9 O21 2.681298 1_555
Na9 O28 2.731686 1_555
Na9 O19 2.814367 1_555
Na10 O0 2.372898 1_655
Na10 O56 2.419145 1_555
Na10 O15 2.423423 1_555
Na10 O34 2.517406 1_555
Na10 O63 2.568757 1_555
Na10 O74 2.701671 1_555
Na11 O33 2.297255 1_555
Na11 O16 2.386077 1_555
Na11 O39 2.416807 1_555
Na11 O29 2.466628 1_555
Na11 O23 2.492897 1_555
Na11 O17 2.525279 1_555
Na11 O30 2.707165 1_555
Na12 O4 2.304788 1_555
Na12 O23 2.322513 1_555
Na12 O72 2.322591 1_555
Na12 O33 2.682733 1_555
Na12 O41 2.736541 1_555
Na12 O48 2.800578 1_555
Na13 O49 2.388183 1_555
Na13 O22 2.440976 1_555
Na13 O32 2.451494 1_555
Na13 O75 2.456961 1_455
Na13 O3 2.545034 1_555
Na13 O24 2.723114 1_555
Na13 O9 2.925051 1_555
Na14 O21 2.303208 1_545
Na14 O38 2.376075 1_555
Na14 O37 2.417138 1_545
Na14 O35 2.470483 1_555
Na14 O36 2.484083 1_555
Na14 O50 2.544845 1_555
Na14 O44 2.697565 1_555
Na15 O62 2.333958 1_565
Na15 O45 2.370303 1_555
Na15 O46 2.425529 1_565
Na15 O48 2.452203 1_555
Na15 O47 2.496274 1_555
Na15 O33 2.496750 1_555
Na15 O39 2.716014 1_555
Na16 O60 2.285276 1_555
Na16 O11 2.301817 1_555
Na16 O79 2.362417 1_555
Na16 O50 2.692771 1_555
Na16 O42 2.733574 1_555
Na16 O35 2.830304 1_555
Na17 O50 2.337920 1_555
Na17 O67 2.361848 1_555
Na17 O44 2.423816 1_555
Na17 O54 2.456200 1_555
Na17 O60 2.487335 1_555
Na17 O66 2.519483 1_555
Na17 O53 2.706966 1_555
Na18 O83 2.424128 1_455
Na18 O27 2.426408 1_555
Na18 O49 2.468996 1_555
Na18 O68 2.481896 1_555
Na18 O20 2.548018 1_555
Na18 O9 2.650712 1_555
Na19 O15 2.305206 1_455
Na19 O47 2.314755 1_545
Na19 O0 2.315001 1_555
Na19 O62 2.693086 1_555
Na19 O55 2.738088 1_555
Na19 O64 2.818765 1_555
Na20 O1 2.307594 1_655
Na20 O22 2.307851 1_655
Na20 O56 2.315095 1_554
Na20 O66 2.689565 1_555
Na20 O43 2.739441 1_555
Na20 O54 2.820443 1_555
Na21 O66 2.318489 1_556
Na21 O69 2.384110 1_555
Na21 O53 2.414562 1_556
Na21 O64 2.455778 1_555
Na21 O56 2.487788 1_555
Na21 O62 2.530781 1_555
Na21 O46 2.703224 1_555
Na22 O12 2.250718 1_555
Na22 O65 2.289797 1_555
Na22 O51 2.363285 1_555
Na22 O72 2.367029 1_555
Na22 O71 2.544312 1_555
Na23 O26 2.242867 1_455
Na23 O58 2.309000 1_545
Na23 O73 2.322711 1_555
Na23 O68 2.397571 1_545
Na23 O57 2.582328 1_545
Na24 O4 2.379328 1_555
Na24 O47 2.430884 1_655
Na24 O72 2.464360 1_555
Na24 O77 2.492138 1_555
Na24 O31 2.557949 1_655
Na24 O57 2.679223 1_655
Na25 O9 2.225317 1_655
Na25 O75 2.300527 1_555
Na25 O78 2.333309 1_554
Na25 O82 2.403638 1_554
Na25 O74 2.621222 1_554
Na26 O23 2.395287 1_555
Na26 O61 2.416105 1_555
Na26 O82 2.447182 1_555
Na26 O80 2.529020 1_555
Na26 O7 2.544706 1_555
Na26 O12 2.674634 1_555
Ca0 O34 2.327456 1_555
Ca0 O8 2.340932 1_655
Ca0 O61 2.404254 1_555
Ca0 O51 2.476213 1_555
Ca0 O80 2.552879 1_555
Ca0 O59 2.655413 1_555
Ca0 O74 2.844246 1_555
Ca1 O80 2.374431 1_555
Ca1 O79 2.380718 1_555
Ca1 O73 2.388843 1_555
Ca1 O51 2.444510 1_555
Ca1 O6 2.462335 1_555
Ca1 O70 2.669482 1_555
Ca1 O12 2.857034 1_555
Ca2 O77 2.320530 1_555
Ca2 O10 2.390330 1_555
Ca2 O75 2.417274 1_555
Ca2 O83 2.435593 1_555
Ca2 O49 2.489015 1_655
Ca2 O81 2.701511 1_555
Ca2 O57 2.856289 1_655
Al0 O24 1.874864 1_555
Al0 O65 1.898520 1_455
Al0 O31 1.903033 1_555
Al0 O18 1.926036 1_555
Al0 O59 1.952208 1_455
Al0 O52 1.962298 1_455
Al1 O13 1.875927 1_555
Al1 O58 1.910785 1_555
Al1 O25 1.914154 1_565
Al1 O20 1.919573 1_555
Al1 O63 1.943039 1_565
Al1 O70 1.949706 1_565
Al2 O43 1.915545 1_556
Al2 O55 1.915802 1_655
Al2 O41 1.916890 1_545
Al2 O42 1.930504 1_656
Al2 O28 1.931100 1_546
Al2 O40 1.931160 1_645
Al3 O46 1.906507 1_555
Al3 O53 1.906818 1_556
Al3 O44 1.909567 1_556
Al3 O39 1.921281 1_545
Al3 O30 1.921647 1_545
Al3 O37 1.923229 1_546
Al4 O5 1.883063 1_555
Al4 O2 1.886931 1_554
Al4 O76 1.917360 1_555
Al4 O81 1.936230 1_555
Al4 O78 1.942236 1_554
Al4 O7 1.946144 1_554
O0 P0 1.519185 1_555
O1 P0 1.519544 1_554
O2 P0 1.540377 1_555
O3 P1 1.513075 1_555
O4 P2 1.519235 1_555
O5 P1 1.540229 1_555
O6 P4 1.531410 1_555
O7 P3 1.540478 1_555
O8 P3 1.538516 1_555
O9 P1 1.530416 1_555
O10 P5 1.537413 1_555
O11 P6 1.520372 1_555
O12 P4 1.537049 1_555
O13 P2 1.538331 1_555
O14 P5 1.640918 1_555
O14 P1 1.645262 1_555
O15 P2 1.518789 1_545
O16 P4 1.629626 1_555
O16 P3 1.653701 1_555
O17 P3 1.514004 1_555
O18 P4 1.526952 1_555
O19 P23 1.635838 1_555
O19 P7 1.650455 1_554
O20 P5 1.545520 1_555
O21 P5 1.517091 1_555
O22 P6 1.517913 1_555
O23 P7 1.513461 1_555
O24 P6 1.537680 1_555
O25 P8 1.528915 1_555
O26 P8 1.524524 1_555
O27 P10 1.512158 1_555
O28 P7 1.530168 1_554
O29 P17 1.632527 1_455
O29 P11 1.654788 1_555
O30 P7 1.540263 1_555
O31 P9 1.550240 1_555
O32 P9 1.517008 1_555
O33 P9 1.518565 1_555
O34 P8 1.531446 1_555
O35 P21 1.632897 1_555
O35 P10 1.653314 1_545
O36 P12 1.514765 1_555
O37 P10 1.539937 1_555
O38 P8 1.637612 1_555
O38 P14 1.639106 1_555
O39 P11 1.540129 1_555
O40 P11 1.530528 1_555
O41 P13 1.532528 1_565
O42 P10 1.529730 1_545
O43 P12 1.531335 1_555
O44 P12 1.543068 1_555
O45 P15 1.623199 1_555
O45 P9 1.665370 1_555
O46 P13 1.543503 1_555
O47 P11 1.512220 1_555
O48 P13 1.635838 1_565
O48 P2 1.652042 1_555
O49 P15 1.528690 1_555
O50 P14 1.511609 1_555
O51 P14 1.555068 1_555
O52 P14 1.537143 1_555
O53 P16 1.543339 1_555
O54 P12 1.634012 1_555
O54 P6 1.653188 1_655
O55 P16 1.531894 1_556
O56 P13 1.513844 1_555
O57 P15 1.537966 1_555
O58 P15 1.535018 1_555
O59 P17 1.547962 1_555
O60 P16 1.513542 1_555
O61 P17 1.538047 1_555
O62 P18 1.512412 1_555
O63 P18 1.539573 1_555
O64 P16 1.636892 1_556
O64 P0 1.651232 1_555
O65 P19 1.535596 1_555
O66 P20 1.513804 1_555
O67 P19 1.632126 1_555
O67 P20 1.647585 1_555
O68 P21 1.512843 1_565
O69 P22 1.620173 1_555
O69 P18 1.659460 1_555
O70 P21 1.546737 1_555
O71 P19 1.523750 1_555
O72 P17 1.512388 1_555
O73 P18 1.537070 1_555
O74 P22 1.532481 1_555
O75 P20 1.535542 1_555
O76 P20 1.543421 1_555
O77 P19 1.529196 1_555
O78 P22 1.525073 1_555
O79 P21 1.537664 1_555
O80 P22 1.546061 1_555
O81 P23 1.545245 1_555
O82 P23 1.513667 1_556
O83 P23 1.535012 1_555
