# generated using pymatgen
data_Li7Mn11O24
_symmetry_space_group_name_H-M   'P 1'
_cell_length_a   5.75214427
_cell_length_b   17.30381010
_cell_length_c   10.02278357
_cell_angle_alpha   30.39710261
_cell_angle_beta   54.98679629
_cell_angle_gamma   60.08034956
_symmetry_Int_Tables_number   1
_chemical_formula_structural   Li7Mn11O24
_chemical_formula_sum   'Li7 Mn11 O24'
_cell_volume   413.40641623
_cell_formula_units_Z   1
loop_
 _symmetry_equiv_pos_site_id
 _symmetry_equiv_pos_as_xyz
  1  'x, y, z'
loop_
 _atom_site_type_symbol
 _atom_site_label
 _atom_site_symmetry_multiplicity
 _atom_site_fract_x
 _atom_site_fract_y
 _atom_site_fract_z
 _atom_site_occupancy
  Li  Li0  1  0.13613100  0.02796000  0.06955000  1
  Li  Li1  1  0.12571700  0.33819200  0.11679300  1
  Li  Li2  1  0.12899600  0.67097200  0.11641300  1
  Li  Li3  1  0.87238300  0.99452800  0.88430300  1
  Li  Li4  1  0.87552800  0.33042000  0.87945200  1
  Li  Li5  1  0.85540800  0.63850200  0.93234200  1
  Li  Li6  1  0.00462700  0.83221000  0.50141100  1
  Mn  Mn0  1  0.50114400  0.15573100  0.01445900  1
  Mn  Mn1  1  0.49830200  0.99653500  0.50006800  1
  Mn  Mn2  1  0.99994700  0.33223900  0.50121400  1
  Mn  Mn3  1  0.50292600  0.16672500  0.49671000  1
  Mn  Mn4  1  0.49758900  0.50989100  0.98712100  1
  Mn  Mn5  1  0.01009700  0.99631500  0.50062400  1
  Mn  Mn6  1  0.49888600  0.33283000  0.50116000  1
  Mn  Mn7  1  0.99078300  0.66942000  0.50088600  1
  Mn  Mn8  1  0.49784300  0.49866200  0.50503200  1
  Mn  Mn9  1  0.50101100  0.83284000  0.00054300  1
  Mn  Mn10  1  0.50365200  0.66948100  0.50010900  1
  O  O0  1  0.23789000  0.01318600  0.24763000  1
  O  O1  1  0.26384600  0.14784300  0.26365700  1
  O  O2  1  0.72384300  0.01226900  0.24930000  1
  O  O3  1  0.26394600  0.33320900  0.26323700  1
  O  O4  1  0.73267800  0.14797700  0.29452900  1
  O  O5  1  0.26816200  0.18947700  0.69729800  1
  O  O6  1  0.26200300  0.48428500  0.26066000  1
  O  O7  1  0.70912500  0.33344400  0.26337700  1
  O  O8  1  0.29080500  0.33261800  0.73765600  1
  O  O9  1  0.26707400  0.66536200  0.26496700  1
  O  O10  1  0.73122600  0.47542700  0.30539800  1
  O  O11  1  0.73655600  0.18094500  0.74139400  1
  O  O12  1  0.26848500  0.51816300  0.70618800  1
  O  O13  1  0.25689600  0.81864300  0.26639700  1
  O  O14  1  0.73681800  0.33137200  0.73915800  1
  O  O15  1  0.71002700  0.66562200  0.26399700  1
  O  O16  1  0.27285600  0.65222600  0.75398000  1
  O  O17  1  0.75607000  0.80619000  0.28543600  1
  O  O18  1  0.24407500  0.85996300  0.71537400  1
  O  O19  1  0.73665400  0.51812800  0.73748100  1
  O  O20  1  0.75971300  0.65292600  0.75364300  1
  O  O21  1  0.29199500  0.99966200  0.73760400  1
  O  O22  1  0.74389800  0.84711900  0.73456900  1
  O  O23  1  0.73393100  0.99982400  0.73699000  1
loop_
_geom_bond_atom_site_label_1
_geom_bond_atom_site_label_2
_geom_bond_distance
_geom_bond_site_symmetry_2
Li0 O5 1.784871 1_554
Li0 O2 1.959410 1_455
Li0 O0 1.963704 1_555
Li0 O13 2.056509 1_545
Li1 O3 1.961253 1_555
Li1 O7 1.963585 1_455
Li1 O12 1.968054 1_554
Li1 O1 2.003626 1_555
Li2 O18 1.928632 1_554
Li2 O6 1.964197 1_555
Li2 O9 1.971783 1_555
Li2 O15 1.974878 1_455
Li3 O17 1.928230 1_556
Li3 O23 1.966159 1_555
Li3 O11 1.966451 1_565
Li3 O21 1.977795 1_655
Li4 O8 1.956776 1_655
Li4 O14 1.961754 1_555
Li4 O19 1.988936 1_555
Li4 O4 1.989334 1_556
Li5 O10 1.788331 1_556
Li5 O20 1.948414 1_555
Li5 O16 1.982082 1_655
Li5 O22 2.043783 1_555
Li6 O13 2.097839 1_555
Li6 O22 2.099786 1_455
Li6 O16 2.139222 1_555
Li6 O0 2.147356 1_565
Li6 O20 2.177952 1_455
Li6 O2 2.187013 1_465
Mn0 O2 1.884573 1_555
Mn0 O0 1.886685 1_555
Mn0 O11 1.947079 1_554
Mn0 O1 1.950803 1_555
Mn0 O8 2.009499 1_554
Mn0 O14 2.009812 1_554
Mn1 O18 1.846297 1_555
Mn1 O2 1.872025 1_565
Mn1 O1 1.931533 1_565
Mn1 O22 1.971858 1_555
Mn1 O4 1.988231 1_565
Mn1 O21 1.998838 1_555
Mn2 O5 1.909838 1_655
Mn2 O10 1.911058 1_555
Mn2 O3 1.948176 1_655
Mn2 O14 1.948697 1_555
Mn2 O11 1.960588 1_555
Mn2 O6 1.962205 1_655
Mn3 O4 1.895092 1_555
Mn3 O5 1.933933 1_555
Mn3 O23 1.936975 1_545
Mn3 O21 1.937845 1_545
Mn3 O3 1.943251 1_555
Mn3 O7 1.946872 1_555
Mn4 O20 1.886207 1_555
Mn4 O16 1.886648 1_555
Mn4 O6 1.946596 1_556
Mn4 O19 1.950321 1_555
Mn4 O7 2.011381 1_556
Mn4 O3 2.011733 1_556
Mn5 O18 1.845769 1_555
Mn5 O0 1.877176 1_565
Mn5 O1 1.934730 1_565
Mn5 O22 1.971894 1_455
Mn5 O4 1.988427 1_465
Mn5 O23 1.993219 1_455
Mn6 O10 1.911305 1_555
Mn6 O5 1.912350 1_555
Mn6 O8 1.945478 1_555
Mn6 O7 1.950452 1_555
Mn6 O6 1.960697 1_555
Mn6 O11 1.962244 1_555
Mn7 O17 1.851706 1_555
Mn7 O20 1.879642 1_555
Mn7 O19 1.934967 1_555
Mn7 O13 1.969741 1_655
Mn7 O12 1.986602 1_655
Mn7 O9 1.996155 1_655
Mn8 O12 1.896433 1_555
Mn8 O10 1.932444 1_555
Mn8 O9 1.935063 1_555
Mn8 O15 1.940711 1_555
Mn8 O8 1.944340 1_555
Mn8 O14 1.946687 1_555
Mn9 O23 1.937913 1_554
Mn9 O21 1.942644 1_554
Mn9 O9 1.944585 1_555
Mn9 O15 1.944914 1_555
Mn9 O13 2.013324 1_555
Mn9 O22 2.013375 1_554
Mn10 O17 1.842461 1_555
Mn10 O16 1.880031 1_555
Mn10 O19 1.929850 1_555
Mn10 O13 1.973439 1_555
Mn10 O12 1.987325 1_555
Mn10 O15 1.995943 1_555
