# generated using pymatgen
data_RbU2H5C4O15
_symmetry_space_group_name_H-M   'P 1'
_cell_length_a   13.94114400
_cell_length_b   5.73160200
_cell_length_c   9.57018201
_cell_angle_alpha   83.38251249
_cell_angle_beta   90.00000000
_cell_angle_gamma   90.00000000
_symmetry_Int_Tables_number   1
_chemical_formula_structural   RbU2H5C4O15
_chemical_formula_sum   'Rb2 U4 H10 C8 O30'
_cell_volume   759.61149439
_cell_formula_units_Z   2
loop_
 _symmetry_equiv_pos_site_id
 _symmetry_equiv_pos_as_xyz
  1  'x, y, z'
loop_
 _atom_site_type_symbol
 _atom_site_label
 _atom_site_symmetry_multiplicity
 _atom_site_fract_x
 _atom_site_fract_y
 _atom_site_fract_z
 _atom_site_occupancy
  Rb  Rb0  1  0.25000000  0.14442700  0.40214400  1
  Rb  Rb1  1  0.75000000  0.85557300  0.59785600  1
  U  U0  1  0.90808600  0.28489400  0.23636500  1
  U  U1  1  0.09191400  0.71510600  0.76363500  1
  U  U2  1  0.59191400  0.28489400  0.23636500  1
  U  U3  1  0.40808600  0.71510600  0.76363500  1
  H  H0  1  0.80551500  0.29539700  0.81927700  1
  H  H1  1  0.75000000  0.53075700  0.11850200  1
  H  H2  1  0.25000000  0.46924300  0.88149800  1
  H  H3  1  0.30551500  0.70460300  0.18072300  1
  H  H4  1  0.75000000  0.63397100  0.88585100  1
  H  H5  1  0.25000000  0.11899100  0.05254900  1
  H  H6  1  0.25000000  0.36602900  0.11414900  1
  H  H7  1  0.19448500  0.70460300  0.18072300  1
  H  H8  1  0.69448500  0.29539700  0.81927700  1
  H  H9  1  0.75000000  0.88100900  0.94745100  1
  C  C0  1  0.44998400  0.45873700  0.48057800  1
  C  C1  1  0.54664800  0.01472600  0.95737700  1
  C  C2  1  0.95335200  0.01472600  0.95737700  1
  C  C3  1  0.45335200  0.98527400  0.04262300  1
  C  C4  1  0.94998400  0.54126300  0.51942200  1
  C  C5  1  0.55001600  0.54126300  0.51942200  1
  C  C6  1  0.04664800  0.98527400  0.04262300  1
  C  C7  1  0.05001600  0.45873700  0.48057800  1
  O  O0  1  0.55733600  0.55679900  0.13569300  1
  O  O1  1  0.88526800  0.12371800  0.01018200  1
  O  O2  1  0.88079700  0.48277900  0.44527400  1
  O  O3  1  0.62845400  0.01866000  0.34323700  1
  O  O4  1  0.12845400  0.98134000  0.65676300  1
  O  O5  1  0.05733600  0.44320100  0.86430700  1
  O  O6  1  0.11920300  0.51722100  0.55472600  1
  O  O7  1  0.37154600  0.98134000  0.65676300  1
  O  O8  1  0.45143700  0.06993200  0.15847200  1
  O  O9  1  0.54856300  0.93006800  0.84152800  1
  O  O10  1  0.25000000  0.61113100  0.80936000  1
  O  O11  1  0.55466200  0.66021000  0.62227600  1
  O  O12  1  0.11473200  0.87628200  0.98981800  1
  O  O13  1  0.75000000  0.32859800  0.75721600  1
  O  O14  1  0.05466200  0.33979000  0.37772400  1
  O  O15  1  0.75000000  0.71157800  0.97094200  1
  O  O16  1  0.38526800  0.87628200  0.98981800  1
  O  O17  1  0.95143700  0.93006800  0.84152800  1
  O  O18  1  0.94533800  0.66021000  0.62227600  1
  O  O19  1  0.44533800  0.33979000  0.37772400  1
  O  O20  1  0.25000000  0.28842200  0.02905800  1
  O  O21  1  0.44266400  0.44320100  0.86430700  1
  O  O22  1  0.04856300  0.06993200  0.15847200  1
  O  O23  1  0.38079700  0.51722100  0.55472600  1
  O  O24  1  0.25000000  0.67140200  0.24278400  1
  O  O25  1  0.75000000  0.38886900  0.19064000  1
  O  O26  1  0.87154600  0.01866000  0.34323700  1
  O  O27  1  0.61920300  0.48277900  0.44527400  1
  O  O28  1  0.61473200  0.12371800  0.01018200  1
  O  O29  1  0.94266400  0.55679900  0.13569300  1
loop_
_geom_bond_atom_site_label_1
_geom_bond_atom_site_label_2
_geom_bond_distance
_geom_bond_site_symmetry_2
H0 O13 0.980769 1_555
H1 O25 1.004282 1_555
H1 O15 1.652583 1_554
H2 O10 1.004282 1_555
H2 O20 1.652583 1_556
H3 O24 0.980769 1_555
H4 O15 0.971848 1_555
H4 Rb1 2.898765 1_555
H5 O20 0.971226 1_555
H6 O20 0.971848 1_555
H6 Rb0 2.898765 1_555
H7 O24 0.980769 1_555
H8 O13 0.980769 1_555
H9 O15 0.971226 1_555
C0 O19 1.261969 1_555
C0 O23 1.265339 1_555
C1 O9 1.260696 1_545
C1 O28 1.272522 1_556
C2 O17 1.260696 1_545
C2 O1 1.272522 1_556
C3 O8 1.260696 1_565
C3 O16 1.272522 1_554
C4 O18 1.261969 1_555
C4 O2 1.265339 1_555
C5 O11 1.261969 1_555
C5 O27 1.265339 1_555
C6 O22 1.260696 1_565
C6 O12 1.272522 1_554
C7 O14 1.261969 1_555
C7 O6 1.265339 1_555
O0 U2 1.800922 1_555
O1 U0 2.470025 1_555
O2 U0 2.439460 1_555
O2 Rb1 3.277490 1_555
O3 U2 1.809527 1_555
O3 Rb1 3.026190 1_545
O4 U1 1.809527 1_555
O4 Rb0 3.026190 1_565
O5 U1 1.800922 1_555
O6 U1 2.439460 1_555
O6 Rb0 3.277490 1_555
O7 U3 1.809527 1_555
O7 Rb0 3.026190 1_565
O8 U2 2.474018 1_555
O9 U3 2.474018 1_555
O10 U3 2.311646 1_555
O10 U1 2.311646 1_555
O11 U3 2.490561 1_555
O11 Rb1 2.943491 1_555
O12 U1 2.470025 1_555
O13 Rb1 3.222907 1_555
O13 Rb1 3.260292 1_545
O14 U0 2.490561 1_455
O14 Rb0 2.943491 1_555
O16 U3 2.470025 1_555
O17 U1 2.474018 1_655
O18 U1 2.490561 1_655
O18 Rb1 2.943491 1_555
O19 U2 2.490561 1_555
O19 Rb0 2.943491 1_555
O21 U3 1.800922 1_555
O22 U0 2.474018 1_455
O23 U3 2.439460 1_555
O23 Rb0 3.277490 1_555
O24 Rb0 3.222907 1_555
O24 Rb0 3.260292 1_565
O25 U0 2.311646 1_555
O25 U2 2.311646 1_555
O26 U0 1.809527 1_555
O26 Rb1 3.026190 1_545
O27 U2 2.439460 1_555
O27 Rb1 3.277490 1_555
O28 U2 2.470025 1_555
O29 U0 1.800922 1_555
