# generated using pymatgen
data_Al(HO)3
_symmetry_space_group_name_H-M   'P 1'
_cell_length_a   5.17301876
_cell_length_b   5.17301876
_cell_length_c   4.78538257
_cell_angle_alpha   89.71456911
_cell_angle_beta   89.71456911
_cell_angle_gamma   121.60911432
_symmetry_Int_Tables_number   1
_chemical_formula_structural   Al(HO)3
_chemical_formula_sum   'Al2 H6 O6'
_cell_volume   109.05359644
_cell_formula_units_Z   2
loop_
 _symmetry_equiv_pos_site_id
 _symmetry_equiv_pos_as_xyz
  1  'x, y, z'
loop_
 _atom_site_type_symbol
 _atom_site_label
 _atom_site_symmetry_multiplicity
 _atom_site_fract_x
 _atom_site_fract_y
 _atom_site_fract_z
 _atom_site_occupancy
  Al  Al0  1  0.32170200  0.65005600  0.99681500  1
  Al  Al1  1  0.65005600  0.32170200  0.99681500  1
  H  H0  1  0.01860800  0.78970100  0.28497100  1
  H  H1  1  0.78970100  0.01860800  0.28497100  1
  H  H2  1  0.41359800  0.41359800  0.41138300  1
  H  H3  1  0.99239500  0.40622400  0.58973400  1
  H  H4  1  0.40622400  0.99239500  0.58973400  1
  H  H5  1  0.80568400  0.80568400  0.74220800  1
  O  O0  1  0.99030700  0.59695100  0.22707000  1
  O  O1  1  0.59695100  0.99030700  0.22707000  1
  O  O2  1  0.35402300  0.35402300  0.21662900  1
  O  O3  1  0.98620900  0.35543600  0.78826300  1
  O  O4  1  0.35543600  0.98620900  0.78826300  1
  O  O5  1  0.61437300  0.61437300  0.77680300  1
loop_
_geom_bond_atom_site_label_1
_geom_bond_atom_site_label_2
_geom_bond_distance
_geom_bond_site_symmetry_2
Al0 O3 1.894879 1_455
Al0 O0 1.926896 1_456
Al0 O4 1.926967 1_555
Al0 O5 1.927103 1_555
Al0 O2 1.932271 1_556
Al0 O1 1.935819 1_556
Al1 O4 1.894879 1_545
Al1 O1 1.926896 1_546
Al1 O3 1.926967 1_555
Al1 O5 1.927103 1_555
Al1 O2 1.932271 1_556
Al1 O0 1.935819 1_556
H0 O0 0.970850 1_455
H1 O1 0.970850 1_545
H2 O2 0.982187 1_555
H3 O3 0.980315 1_555
H4 O4 0.980315 1_555
H5 O5 0.977911 1_555
