# generated using pymatgen
data_Sm8CrTe13Cl
_symmetry_space_group_name_H-M   'P 1'
_cell_length_a   4.10609861
_cell_length_b   13.75179788
_cell_length_c   24.45925595
_cell_angle_alpha   90.00000000
_cell_angle_beta   90.00000000
_cell_angle_gamma   98.58596612
_symmetry_Int_Tables_number   1
_chemical_formula_structural   Sm8CrTe13Cl
_chemical_formula_sum   'Sm16 Cr2 Te26 Cl2'
_cell_volume   1365.64390527
_cell_formula_units_Z   2
loop_
 _symmetry_equiv_pos_site_id
 _symmetry_equiv_pos_as_xyz
  1  'x, y, z'
loop_
 _atom_site_type_symbol
 _atom_site_label
 _atom_site_symmetry_multiplicity
 _atom_site_fract_x
 _atom_site_fract_y
 _atom_site_fract_z
 _atom_site_occupancy
  Sm  Sm0  1  0.27505142  0.55010283  0.40584474  1
  Sm  Sm1  1  0.72494858  0.44989717  0.90584474  1
  Sm  Sm2  1  0.85147451  0.70294903  0.21672714  1
  Sm  Sm3  1  0.69321324  0.38642648  0.23115682  1
  Sm  Sm4  1  0.01714362  0.03428724  0.22199771  1
  Sm  Sm5  1  0.30678676  0.61357352  0.73115682  1
  Sm  Sm6  1  0.14852549  0.29705097  0.71672714  1
  Sm  Sm7  1  0.44013060  0.88026120  0.39733699  1
  Sm  Sm8  1  0.94672940  0.89345880  0.05656273  1
  Sm  Sm9  1  0.89238702  0.78477404  0.88512191  1
  Sm  Sm10  1  0.98285638  0.96571276  0.72199771  1
  Sm  Sm11  1  0.36733593  0.73467185  0.56480919  1
  Sm  Sm12  1  0.05327060  0.10654120  0.55656273  1
  Sm  Sm13  1  0.10761298  0.21522596  0.38512191  1
  Sm  Sm14  1  0.55986940  0.11973880  0.89733699  1
  Sm  Sm15  1  0.63266407  0.26532815  0.06480919  1
  Cr  Cr0  1  0.29097473  0.58194946  0.05921006  1
  Cr  Cr1  1  0.70902527  0.41805054  0.55921006  1
  Te  Te0  1  0.24452706  0.48905412  0.62359604  1
  Te  Te1  1  0.43366595  0.86733189  0.25936869  1
  Te  Te2  1  0.72547880  0.45095761  0.76646296  1
  Te  Te3  1  0.06209889  0.12419777  0.99976923  1
  Te  Te4  1  0.17307576  0.34615153  0.49570335  1
  Te  Te5  1  0.48171719  0.96343439  0.62143778  1
  Te  Te6  1  0.12937309  0.25874619  0.16355319  1
  Te  Te7  1  0.58686296  0.17372592  0.28545271  1
  Te  Te8  1  0.82692424  0.65384847  0.99570335  1
  Te  Te9  1  0.30481791  0.60963582  0.86314720  1
  Te  Te10  1  0.14446765  0.28893529  0.85839814  1
  Te  Te11  1  0.87062691  0.74125381  0.66355319  1
  Te  Te12  1  0.37555844  0.75111688  0.11896558  1
  Te  Te13  1  0.45015693  0.90031386  0.95862127  1
  Te  Te14  1  0.85553235  0.71106471  0.35839814  1
  Te  Te15  1  0.69518209  0.39036418  0.36314720  1
  Te  Te16  1  0.62444156  0.24888312  0.61896558  1
  Te  Te17  1  0.20376855  0.40753709  0.00280735  1
  Te  Te18  1  0.79623145  0.59246291  0.50280735  1
  Te  Te19  1  0.54984307  0.09968614  0.45862127  1
  Te  Te20  1  0.93790111  0.87580223  0.49976923  1
  Te  Te21  1  0.56633405  0.13266811  0.75936869  1
  Te  Te22  1  0.75547294  0.51094588  0.12359604  1
  Te  Te23  1  0.51828281  0.03656561  0.12143778  1
  Te  Te24  1  0.27452120  0.54904239  0.26646296  1
  Te  Te25  1  0.41313704  0.82627408  0.78545271  1
  Cl  Cl0  1  0.99930389  0.99860779  0.35344921  1
  Cl  Cl1  1  0.00069611  0.00139221  0.85344921  1
loop_
_geom_bond_atom_site_label_1
_geom_bond_atom_site_label_2
_geom_bond_distance
_geom_bond_site_symmetry_2
Sm0 Te15 3.166005 1_555
Sm0 Te15 3.166005 1_455
Sm0 Te18 3.189268 1_555
Sm0 Te18 3.189268 1_455
Sm0 Te14 3.217489 1_555
Sm0 Te14 3.217489 1_455
Sm0 Te24 3.409205 1_555
Sm0 Te4 3.538594 1_555
Sm1 Te9 3.166005 1_555
Sm1 Te9 3.166005 1_655
Sm1 Te17 3.189268 1_556
Sm1 Te17 3.189268 1_656
Sm1 Te10 3.217489 1_555
Sm1 Te10 3.217489 1_655
Sm1 Te2 3.409205 1_555
Sm1 Te8 3.538594 1_555
Sm2 Te24 3.174049 1_555
Sm2 Te24 3.174049 1_655
Sm2 Te1 3.209214 1_555
Sm2 Te1 3.209214 1_655
Sm2 Te12 3.218962 1_555
Sm2 Te12 3.218962 1_655
Sm2 Te22 3.464848 1_555
Sm2 Te14 3.466924 1_555
Sm3 Te22 3.128618 1_555
Sm3 Te24 3.138495 1_555
Sm3 Te24 3.138495 1_655
Sm3 Te6 3.156489 1_655
Sm3 Te6 3.156489 1_555
Sm3 Te7 3.182562 1_555
Sm3 Te15 3.228830 1_555
Sm4 Te1 3.194427 1_445
Sm4 Te1 3.194427 1_545
Sm4 Te7 3.196699 1_455
Sm4 Te7 3.196699 1_555
Sm4 Te23 3.204014 1_455
Sm4 Te23 3.204014 1_555
Sm4 Te6 3.370303 1_555
Sm5 Te0 3.128618 1_555
Sm5 Te2 3.138495 1_555
Sm5 Te2 3.138495 1_455
Sm5 Te11 3.156489 1_455
Sm5 Te11 3.156489 1_555
Sm5 Te25 3.182562 1_555
Sm5 Te9 3.228830 1_555
Sm6 Te2 3.174049 1_555
Sm6 Te2 3.174049 1_455
Sm6 Te21 3.209214 1_555
Sm6 Te21 3.209214 1_455
Sm6 Te16 3.218962 1_555
Sm6 Te16 3.218962 1_455
Sm6 Te0 3.464848 1_555
Sm6 Te10 3.466924 1_555
Sm7 Te14 3.227264 1_555
Sm7 Te14 3.227264 1_455
Sm7 Te20 3.239722 1_555
Sm7 Te20 3.239722 1_455
Sm7 Te19 3.339041 1_565
Sm7 Te1 3.379178 1_555
Sm8 Te13 3.156340 1_554
Sm8 Te13 3.156340 1_654
Sm8 Te12 3.207947 1_655
Sm8 Te12 3.207947 1_555
Sm8 Te23 3.243384 1_565
Sm8 Te23 3.243384 1_665
Sm8 Te3 3.431279 1_664
Sm8 Te8 3.582089 1_554
Sm9 Te13 3.148833 1_555
Sm9 Te13 3.148833 1_655
Sm9 Te9 3.189878 1_655
Sm9 Te9 3.189878 1_555
Sm9 Te25 3.236740 1_555
Sm9 Te25 3.236740 1_655
Sm9 Te8 3.238059 1_555
Sm10 Te21 3.194427 1_665
Sm10 Te21 3.194427 1_565
Sm10 Te25 3.196699 1_655
Sm10 Te25 3.196699 1_555
Sm10 Te5 3.204014 1_655
Sm10 Te5 3.204014 1_555
Sm10 Te11 3.370303 1_555
Sm11 Te11 3.171157 1_455
Sm11 Te11 3.171157 1_555
Sm11 Te18 3.202200 1_555
Sm11 Te18 3.202200 1_455
Sm11 Te20 3.229317 1_555
Sm11 Te20 3.229317 1_455
Sm11 Te5 3.405079 1_555
Sm11 Te0 3.636204 1_555
Sm12 Te19 3.156340 1_555
Sm12 Te19 3.156340 1_455
Sm12 Te16 3.207947 1_455
Sm12 Te16 3.207947 1_555
Sm12 Te5 3.243384 1_545
Sm12 Te5 3.243384 1_445
Sm12 Te20 3.431279 1_445
Sm12 Te4 3.582089 1_555
Sm13 Te19 3.148833 1_555
Sm13 Te19 3.148833 1_455
Sm13 Te15 3.189878 1_455
Sm13 Te15 3.189878 1_555
Sm13 Te7 3.236740 1_555
Sm13 Te7 3.236740 1_455
Sm13 Te4 3.238059 1_555
Sm14 Te10 3.227264 1_555
Sm14 Te10 3.227264 1_655
Sm14 Te3 3.239722 1_555
Sm14 Te3 3.239722 1_655
Sm14 Te13 3.339041 1_545
Sm14 Te21 3.379178 1_555
Sm15 Te6 3.171157 1_655
Sm15 Te6 3.171157 1_555
Sm15 Te17 3.202200 1_555
Sm15 Te17 3.202200 1_655
Sm15 Te3 3.229317 1_554
Sm15 Te3 3.229317 1_654
Sm15 Te23 3.405079 1_555
Sm15 Te22 3.636204 1_555
Cr0 Te12 2.725346 1_555
Cr0 Te17 2.743668 1_555
Cr0 Te8 2.753844 1_454
Cr0 Te8 2.753844 1_554
Cr0 Te22 2.761751 1_555
Cr0 Te22 2.761751 1_455
Cr1 Te16 2.725346 1_555
Cr1 Te18 2.743668 1_555
Cr1 Te4 2.753844 1_655
Cr1 Te4 2.753844 1_555
Cr1 Te0 2.761751 1_555
Cr1 Te0 2.761751 1_655
Cl0 Sm7 2.820813 1_555
Cl0 Sm7 2.820813 1_655
Cl0 Sm13 3.045676 1_665
Cl0 Sm4 3.251604 1_665
Cl1 Sm14 2.820813 1_555
Cl1 Sm14 2.820813 1_455
Cl1 Sm9 3.045676 1_445
Cl1 Sm10 3.251604 1_445
