# generated using pymatgen
data_Ca11Cr7O28
_symmetry_space_group_name_H-M   'P 1'
_cell_length_a   14.27816453
_cell_length_b   14.27816453
_cell_length_c   14.27816494
_cell_angle_alpha   44.68348309
_cell_angle_beta   44.68348309
_cell_angle_gamma   44.68348222
_symmetry_Int_Tables_number   1
_chemical_formula_structural   Ca11Cr7O28
_chemical_formula_sum   'Ca22 Cr14 O56'
_cell_volume   1309.17931386
_cell_formula_units_Z   2
loop_
 _symmetry_equiv_pos_site_id
 _symmetry_equiv_pos_as_xyz
  1  'x, y, z'
loop_
 _atom_site_type_symbol
 _atom_site_label
 _atom_site_symmetry_multiplicity
 _atom_site_fract_x
 _atom_site_fract_y
 _atom_site_fract_z
 _atom_site_occupancy
  Ca  Ca0  1  0.92022600  0.92022600  0.92022600  1
  Ca  Ca1  1  0.72656400  0.72656400  0.72656400  1
  Ca  Ca2  1  0.78712900  0.38068700  0.80505900  1
  Ca  Ca3  1  0.38068700  0.80505900  0.78712900  1
  Ca  Ca4  1  0.80505900  0.78712900  0.38068700  1
  Ca  Ca5  1  0.66548300  0.29454800  0.69437100  1
  Ca  Ca6  1  0.28712900  0.30505900  0.88068700  1
  Ca  Ca7  1  0.29454800  0.69437100  0.66548300  1
  Ca  Ca8  1  0.69437100  0.66548300  0.29454800  1
  Ca  Ca9  1  0.07998500  0.63071000  0.66087300  1
  Ca  Ca10  1  0.88068700  0.28712900  0.30505900  1
  Ca  Ca11  1  0.66087300  0.07998500  0.63071000  1
  Ca  Ca12  1  0.30505900  0.88068700  0.28712900  1
  Ca  Ca13  1  0.16548300  0.19437100  0.79454800  1
  Ca  Ca14  1  0.63071000  0.66087300  0.07998500  1
  Ca  Ca15  1  0.42022600  0.42022600  0.42022600  1
  Ca  Ca16  1  0.79454800  0.16548300  0.19437100  1
  Ca  Ca17  1  0.19437100  0.79454800  0.16548300  1
  Ca  Ca18  1  0.16087300  0.13071000  0.57998500  1
  Ca  Ca19  1  0.13071000  0.57998500  0.16087300  1
  Ca  Ca20  1  0.57998500  0.16087300  0.13071000  1
  Ca  Ca21  1  0.22656400  0.22656400  0.22656400  1
  Cr  Cr0  1  0.99369900  0.99369900  0.99369900  1
  Cr  Cr1  1  0.99309100  0.55432600  0.02839000  1
  Cr  Cr2  1  0.55432600  0.02839000  0.99309100  1
  Cr  Cr3  1  0.02839000  0.99309100  0.55432600  1
  Cr  Cr4  1  0.91030100  0.40847100  0.95516900  1
  Cr  Cr5  1  0.40847100  0.95516900  0.91030100  1
  Cr  Cr6  1  0.95516900  0.91030100  0.40847100  1
  Cr  Cr7  1  0.49369900  0.49369900  0.49369900  1
  Cr  Cr8  1  0.05432600  0.49309100  0.52839000  1
  Cr  Cr9  1  0.52839000  0.05432600  0.49309100  1
  Cr  Cr10  1  0.49309100  0.52839000  0.05432600  1
  Cr  Cr11  1  0.90847100  0.41030100  0.45516900  1
  Cr  Cr12  1  0.45516900  0.90847100  0.41030100  1
  Cr  Cr13  1  0.41030100  0.45516900  0.90847100  1
  O  O0  1  0.03976100  0.03976100  0.03976100  1
  O  O1  1  0.97138400  0.82505000  0.12517000  1
  O  O2  1  0.82505000  0.12517000  0.97138400  1
  O  O3  1  0.12517000  0.97138400  0.82505000  1
  O  O4  1  0.97966100  0.66325600  0.05862200  1
  O  O5  1  0.66325600  0.05862200  0.97966100  1
  O  O6  1  0.05862200  0.97966100  0.66325600  1
  O  O7  1  0.59529600  0.84623100  0.08850200  1
  O  O8  1  0.36567800  0.10600600  0.08723500  1
  O  O9  1  0.08723500  0.36567800  0.10600600  1
  O  O10  1  0.81580100  0.57066600  0.12784700  1
  O  O11  1  0.57066600  0.12784700  0.81580100  1
  O  O12  1  0.08850200  0.59529600  0.84623100  1
  O  O13  1  0.12784700  0.81580100  0.57066600  1
  O  O14  1  0.84623100  0.08850200  0.59529600  1
  O  O15  1  0.33882500  0.89112100  0.09472200  1
  O  O16  1  0.80092500  0.36859500  0.13827200  1
  O  O17  1  0.09472200  0.33882500  0.89112100  1
  O  O18  1  0.10600600  0.08723500  0.36567800  1
  O  O19  1  0.84773300  0.59640200  0.86441000  1
  O  O20  1  0.59640200  0.86441000  0.84773300  1
  O  O21  1  0.36859500  0.13827200  0.80092500  1
  O  O22  1  0.89281400  0.33615000  0.91278000  1
  O  O23  1  0.33615000  0.91278000  0.89281400  1
  O  O24  1  0.86441000  0.84773300  0.59640200  1
  O  O25  1  0.89112100  0.09472200  0.33882500  1
  O  O26  1  0.13827200  0.80092500  0.36859500  1
  O  O27  1  0.91278000  0.89281400  0.33615000  1
  O  O28  1  0.53976100  0.53976100  0.53976100  1
  O  O29  1  0.32505000  0.47138400  0.62517000  1
  O  O30  1  0.62517000  0.32505000  0.47138400  1
  O  O31  1  0.47138400  0.62517000  0.32505000  1
  O  O32  1  0.16325600  0.47966100  0.55862200  1
  O  O33  1  0.55862200  0.16325600  0.47966100  1
  O  O34  1  0.47966100  0.55862200  0.16325600  1
  O  O35  1  0.34623100  0.09529600  0.58850200  1
  O  O36  1  0.07066600  0.31580100  0.62784700  1
  O  O37  1  0.60600600  0.86567800  0.58723500  1
  O  O38  1  0.86567800  0.58723500  0.60600600  1
  O  O39  1  0.09529600  0.58850200  0.34623100  1
  O  O40  1  0.62784700  0.07066600  0.31580100  1
  O  O41  1  0.58850200  0.34623100  0.09529600  1
  O  O42  1  0.31580100  0.62784700  0.07066600  1
  O  O43  1  0.39112100  0.83882500  0.59472200  1
  O  O44  1  0.86859500  0.30092500  0.63827200  1
  O  O45  1  0.83882500  0.59472200  0.39112100  1
  O  O46  1  0.58723500  0.60600600  0.86567800  1
  O  O47  1  0.09640200  0.34773300  0.36441000  1
  O  O48  1  0.36441000  0.09640200  0.34773300  1
  O  O49  1  0.63827200  0.86859500  0.30092500  1
  O  O50  1  0.83615000  0.39281400  0.41278000  1
  O  O51  1  0.41278000  0.83615000  0.39281400  1
  O  O52  1  0.34773300  0.36441000  0.09640200  1
  O  O53  1  0.59472200  0.39112100  0.83882500  1
  O  O54  1  0.30092500  0.63827200  0.86859500  1
  O  O55  1  0.39281400  0.41278000  0.83615000  1
loop_
_geom_bond_atom_site_label_1
_geom_bond_atom_site_label_2
_geom_bond_distance
_geom_bond_site_symmetry_2
Ca0 O5 2.394582 1_565
Ca0 O4 2.394582 1_556
Ca0 O6 2.394582 1_655
Ca0 O3 2.629884 1_655
Ca0 O2 2.629884 1_565
Ca0 O1 2.629884 1_556
Ca1 O46 2.292266 1_555
Ca1 O38 2.292266 1_555
Ca1 O37 2.292266 1_555
Ca1 O24 2.321487 1_555
Ca1 O20 2.321487 1_555
Ca1 O19 2.321487 1_555
Ca2 O53 2.332074 1_555
Ca2 O22 2.364754 1_555
Ca2 O2 2.437672 1_555
Ca2 O38 2.506906 1_555
Ca2 O44 2.520912 1_555
Ca2 O46 2.575838 1_555
Ca2 O36 2.661522 1_655
Ca2 O41 2.798369 1_556
Ca3 O43 2.332074 1_555
Ca3 O23 2.364754 1_555
Ca3 O3 2.437672 1_555
Ca3 O46 2.506906 1_555
Ca3 O54 2.520912 1_555
Ca3 O37 2.575838 1_555
Ca3 O42 2.661522 1_556
Ca3 O35 2.798369 1_565
Ca4 O45 2.332074 1_555
Ca4 O27 2.364754 1_555
Ca4 O1 2.437672 1_555
Ca4 O37 2.506906 1_555
Ca4 O49 2.520912 1_555
Ca4 O38 2.575838 1_555
Ca4 O40 2.661522 1_565
Ca4 O39 2.798369 1_655
Ca5 O11 2.424923 1_555
Ca5 O44 2.455368 1_555
Ca5 O28 2.461912 1_555
Ca5 O53 2.505204 1_555
Ca5 O55 2.532091 1_555
Ca5 O50 2.641958 1_555
Ca5 O14 2.691951 1_555
Ca5 O5 2.897756 1_555
Ca6 O17 2.332074 1_555
Ca6 O55 2.364754 1_555
Ca6 O29 2.437672 1_555
Ca6 O8 2.506906 1_556
Ca6 O21 2.520912 1_555
Ca6 O9 2.575838 1_556
Ca6 O11 2.661522 1_555
Ca6 O12 2.798369 1_555
Ca7 O13 2.424923 1_555
Ca7 O54 2.455368 1_555
Ca7 O28 2.461912 1_555
Ca7 O43 2.505204 1_555
Ca7 O51 2.532091 1_555
Ca7 O55 2.641958 1_555
Ca7 O12 2.691951 1_555
Ca7 O6 2.897756 1_555
Ca8 O10 2.424923 1_555
Ca8 O49 2.455368 1_555
Ca8 O28 2.461912 1_555
Ca8 O45 2.505204 1_555
Ca8 O50 2.532091 1_555
Ca8 O51 2.641958 1_555
Ca8 O7 2.691951 1_555
Ca8 O4 2.897756 1_555
Ca9 O29 2.339219 1_555
Ca9 O13 2.363545 1_555
Ca9 O12 2.396260 1_555
Ca9 O19 2.502772 1_455
Ca9 O24 2.516655 1_455
Ca9 O32 2.561097 1_555
Ca9 O26 2.744045 1_555
Ca9 O17 2.911113 1_555
Ca10 O25 2.332074 1_555
Ca10 O50 2.364754 1_555
Ca10 O30 2.437672 1_555
Ca10 O9 2.506906 1_655
Ca10 O16 2.520912 1_555
Ca10 O18 2.575838 1_655
Ca10 O10 2.661522 1_555
Ca10 O14 2.798369 1_555
Ca11 O30 2.339219 1_555
Ca11 O11 2.363545 1_555
Ca11 O14 2.396260 1_555
Ca11 O24 2.502772 1_545
Ca11 O20 2.516655 1_545
Ca11 O33 2.561097 1_555
Ca11 O21 2.744045 1_555
Ca11 O25 2.911113 1_555
Ca12 O15 2.332074 1_555
Ca12 O51 2.364754 1_555
Ca12 O31 2.437672 1_555
Ca12 O18 2.506906 1_565
Ca12 O26 2.520912 1_555
Ca12 O8 2.575838 1_565
Ca12 O13 2.661522 1_555
Ca12 O7 2.798369 1_555
Ca13 O36 2.424923 1_555
Ca13 O21 2.455368 1_555
Ca13 O0 2.461912 1_556
Ca13 O17 2.505204 1_555
Ca13 O22 2.532091 1_455
Ca13 O23 2.641958 1_545
Ca13 O35 2.691951 1_555
Ca13 O32 2.897756 1_555
Ca14 O31 2.339219 1_555
Ca14 O10 2.363545 1_555
Ca14 O7 2.396260 1_555
Ca14 O20 2.502772 1_554
Ca14 O19 2.516655 1_554
Ca14 O34 2.561097 1_555
Ca14 O16 2.744045 1_555
Ca14 O15 2.911113 1_555
Ca15 O33 2.394582 1_555
Ca15 O32 2.394582 1_555
Ca15 O34 2.394582 1_555
Ca15 O31 2.629884 1_555
Ca15 O30 2.629884 1_555
Ca15 O29 2.629884 1_555
Ca16 O40 2.424923 1_555
Ca16 O16 2.455368 1_555
Ca16 O0 2.461912 1_655
Ca16 O25 2.505204 1_555
Ca16 O27 2.532091 1_545
Ca16 O22 2.641958 1_554
Ca16 O41 2.691951 1_555
Ca16 O33 2.897756 1_555
Ca17 O42 2.424923 1_555
Ca17 O26 2.455368 1_555
Ca17 O0 2.461912 1_565
Ca17 O15 2.505204 1_555
Ca17 O23 2.532091 1_554
Ca17 O27 2.641958 1_455
Ca17 O39 2.691951 1_555
Ca17 O34 2.897756 1_555
Ca18 O3 2.339219 1_545
Ca18 O36 2.363545 1_555
Ca18 O35 2.396260 1_555
Ca18 O48 2.502772 1_555
Ca18 O47 2.516655 1_555
Ca18 O6 2.561097 1_545
Ca18 O44 2.744045 1_455
Ca18 O43 2.911113 1_545
Ca19 O1 2.339219 1_455
Ca19 O42 2.363545 1_555
Ca19 O39 2.396260 1_555
Ca19 O47 2.502772 1_555
Ca19 O52 2.516655 1_555
Ca19 O4 2.561097 1_455
Ca19 O54 2.744045 1_554
Ca19 O45 2.911113 1_455
Ca20 O2 2.339219 1_554
Ca20 O40 2.363545 1_555
Ca20 O41 2.396260 1_555
Ca20 O52 2.502772 1_555
Ca20 O48 2.516655 1_555
Ca20 O5 2.561097 1_554
Ca20 O49 2.744045 1_545
Ca20 O53 2.911113 1_554
Ca21 O18 2.292266 1_555
Ca21 O9 2.292266 1_555
Ca21 O8 2.292266 1_555
Ca21 O52 2.321487 1_555
Ca21 O48 2.321487 1_555
Ca21 O47 2.321487 1_555
Cr0 O0 1.772814 1_666
Cr0 O2 1.799019 1_565
Cr0 O1 1.799019 1_556
Cr0 O3 1.799019 1_655
Cr1 O12 1.701165 1_654
Cr1 O10 1.731613 1_555
Cr1 O9 1.736430 1_655
Cr1 O4 1.747856 1_555
Cr2 O7 1.701164 1_546
Cr2 O11 1.731614 1_555
Cr2 O8 1.736430 1_556
Cr2 O5 1.747856 1_555
Cr3 O14 1.701164 1_465
Cr3 O13 1.731613 1_555
Cr3 O18 1.736430 1_565
Cr3 O6 1.747856 1_555
Cr4 O17 1.704194 1_655
Cr4 O16 1.714612 1_556
Cr4 O22 1.721968 1_555
Cr4 O19 1.723470 1_555
Cr5 O15 1.704194 1_556
Cr5 O21 1.714612 1_565
Cr5 O23 1.721968 1_555
Cr5 O20 1.723470 1_555
Cr6 O25 1.704194 1_565
Cr6 O26 1.714612 1_655
Cr6 O27 1.721968 1_555
Cr6 O24 1.723470 1_555
Cr7 O28 1.772814 1_555
Cr7 O30 1.799019 1_555
Cr7 O29 1.799019 1_555
Cr7 O31 1.799019 1_555
Cr8 O39 1.701165 1_555
Cr8 O36 1.731613 1_555
Cr8 O38 1.736430 1_455
Cr8 O32 1.747856 1_555
Cr9 O35 1.701164 1_555
Cr9 O40 1.731614 1_555
Cr9 O37 1.736430 1_545
Cr9 O33 1.747856 1_555
Cr10 O41 1.701164 1_555
Cr10 O42 1.731613 1_555
Cr10 O46 1.736430 1_554
Cr10 O34 1.747856 1_555
Cr11 O45 1.704194 1_555
Cr11 O44 1.714612 1_555
Cr11 O50 1.721968 1_555
Cr11 O47 1.723470 1_655
Cr12 O43 1.704194 1_555
Cr12 O49 1.714612 1_555
Cr12 O51 1.721968 1_555
Cr12 O48 1.723470 1_565
Cr13 O53 1.704194 1_555
Cr13 O54 1.714612 1_555
Cr13 O55 1.721968 1_555
Cr13 O52 1.723470 1_556
