# generated using pymatgen
data_KMnH24(C7N4)2
_symmetry_space_group_name_H-M   'P 1'
_cell_length_a   8.87257206
_cell_length_b   8.87257206
_cell_length_c   8.87257206
_cell_angle_alpha   119.32461917
_cell_angle_beta   119.32461917
_cell_angle_gamma   91.17382946
_symmetry_Int_Tables_number   1
_chemical_formula_structural   KMnH24(C7N4)2
_chemical_formula_sum   'K1 Mn1 H24 C14 N8'
_cell_volume   498.82238320
_cell_formula_units_Z   1
loop_
 _symmetry_equiv_pos_site_id
 _symmetry_equiv_pos_as_xyz
  1  'x, y, z'
loop_
 _atom_site_type_symbol
 _atom_site_label
 _atom_site_symmetry_multiplicity
 _atom_site_fract_x
 _atom_site_fract_y
 _atom_site_fract_z
 _atom_site_occupancy
  K  K0  1  0.50000000  0.50000000  0.00000000  1
  Mn  Mn0  1  0.00000000  0.00000000  0.00000000  1
  H  H0  1  0.02365600  0.34608800  0.77395600  1
  H  H1  1  0.57213200  0.24970000  0.22604400  1
  H  H2  1  0.24970000  0.02365600  0.67756800  1
  H  H3  1  0.34608800  0.57213200  0.32243200  1
  H  H4  1  0.97634400  0.65391200  0.22604400  1
  H  H5  1  0.42786800  0.75030000  0.77395600  1
  H  H6  1  0.75030000  0.97634400  0.32243200  1
  H  H7  1  0.65391200  0.42786800  0.67756800  1
  H  H8  1  0.99856200  0.45557900  0.64473600  1
  H  H9  1  0.81084300  0.35382500  0.35526400  1
  H  H10  1  0.35382500  0.99856200  0.54298200  1
  H  H11  1  0.45557900  0.81084300  0.45701800  1
  H  H12  1  0.00143800  0.54442100  0.35526400  1
  H  H13  1  0.18915700  0.64617500  0.64473600  1
  H  H14  1  0.64617500  0.00143800  0.45701800  1
  H  H15  1  0.54442100  0.18915700  0.54298200  1
  H  H16  1  0.91070300  0.51219300  0.79995400  1
  H  H17  1  0.71224000  0.11074900  0.20004600  1
  H  H18  1  0.11074900  0.91070300  0.39851000  1
  H  H19  1  0.51219300  0.71224000  0.60149000  1
  H  H20  1  0.08929700  0.48780700  0.20004600  1
  H  H21  1  0.28776000  0.88925100  0.79995400  1
  H  H22  1  0.88925100  0.08929700  0.60149000  1
  H  H23  1  0.48780700  0.28776000  0.39851000  1
  C  C0  1  0.84036000  0.84036000  0.00000000  1
  C  C1  1  0.15964000  0.15964000  0.00000000  1
  C  C2  1  0.17799600  0.86604800  0.04404500  1
  C  C3  1  0.82200400  0.13395200  0.95595500  1
  C  C4  1  0.13395200  0.17799600  0.31194800  1
  C  C5  1  0.86604800  0.82200400  0.68805200  1
  C  C6  1  0.93370000  0.40150700  0.69355000  1
  C  C7  1  0.70795700  0.24015000  0.30645000  1
  C  C8  1  0.24015000  0.93370000  0.53219300  1
  C  C9  1  0.40150700  0.70795700  0.46780700  1
  C  C10  1  0.06630000  0.59849300  0.30645000  1
  C  C11  1  0.29204300  0.75985000  0.69355000  1
  C  C12  1  0.75985000  0.06630000  0.46780700  1
  C  C13  1  0.59849300  0.29204300  0.53219300  1
  N  N0  1  0.74523700  0.74523700  0.00000000  1
  N  N1  1  0.25476300  0.25476300  0.00000000  1
  N  N2  1  0.28104100  0.78457900  0.06562000  1
  N  N3  1  0.71895900  0.21542100  0.93438000  1
  N  N4  1  0.21542100  0.28104100  0.49646200  1
  N  N5  1  0.78457900  0.71895900  0.50353800  1
  N  N6  1  0.75000000  0.25000000  0.50000000  1
  N  N7  1  0.25000000  0.75000000  0.50000000  1
loop_
_geom_bond_atom_site_label_1
_geom_bond_atom_site_label_2
_geom_bond_distance
_geom_bond_site_symmetry_2
K0 N0 3.045481 1_555
K0 N1 3.045481 1_555
K0 N5 3.218304 1_555
K0 N2 3.218304 1_555
K0 N3 3.218304 1_554
K0 N4 3.218304 1_554
C0 N0 1.181287 1_555
C0 Mn0 1.982493 1_665
C1 N1 1.181287 1_555
C1 Mn0 1.982493 1_555
C2 N2 1.177379 1_555
C2 Mn0 1.996671 1_565
C3 N3 1.177379 1_555
C3 Mn0 1.996671 1_656
C4 N4 1.177379 1_555
C4 Mn0 1.996670 1_555
C5 N5 1.177379 1_555
C5 Mn0 1.996670 1_666
C6 H8 1.088715 1_555
C6 H16 1.089089 1_555
C6 H0 1.090736 1_655
C6 N6 1.523169 1_555
C7 H9 1.088709 1_555
C7 H17 1.089093 1_555
C7 H1 1.090736 1_555
C7 N6 1.523169 1_555
C8 H10 1.088713 1_555
C8 H18 1.089089 1_555
C8 H2 1.090736 1_565
C8 N7 1.523169 1_555
C9 H11 1.088709 1_555
C9 H19 1.089085 1_555
C9 H3 1.090736 1_555
C9 N7 1.523169 1_555
C10 H12 1.088715 1_555
C10 H20 1.089089 1_555
C10 H4 1.090736 1_455
C10 N7 1.523169 1_555
C11 H13 1.088709 1_555
C11 H21 1.089093 1_555
C11 H5 1.090736 1_555
C11 N7 1.523169 1_555
C12 H14 1.088713 1_555
C12 H22 1.089089 1_555
C12 H6 1.090736 1_545
C12 N6 1.523169 1_555
C13 H15 1.088709 1_555
C13 H23 1.089085 1_555
C13 H7 1.090736 1_555
C13 N6 1.523169 1_555
