# generated using pymatgen
data_Li2Cr3(P2O7)2
_symmetry_space_group_name_H-M   'P 1'
_cell_length_a   5.44090600
_cell_length_b   6.47017315
_cell_length_c   16.84207185
_cell_angle_alpha   92.29328075
_cell_angle_beta   96.22384848
_cell_angle_gamma   108.32897648
_symmetry_Int_Tables_number   1
_chemical_formula_structural   Li2Cr3(P2O7)2
_chemical_formula_sum   'Li4 Cr6 P8 O28'
_cell_volume   557.77643543
_cell_formula_units_Z   2
loop_
 _symmetry_equiv_pos_site_id
 _symmetry_equiv_pos_as_xyz
  1  'x, y, z'
loop_
 _atom_site_type_symbol
 _atom_site_label
 _atom_site_symmetry_multiplicity
 _atom_site_fract_x
 _atom_site_fract_y
 _atom_site_fract_z
 _atom_site_occupancy
  Li  Li0  1  0.90735200  0.18768600  0.99457500  1
  Li  Li1  1  0.55468400  0.69607400  0.89009200  1
  Li  Li2  1  0.44531600  0.30392600  0.10990800  1
  Li  Li3  1  0.09264800  0.81231400  0.00542500  1
  Cr  Cr0  1  0.86076000  0.37972800  0.81849100  1
  Cr  Cr1  1  0.75879400  0.72051800  0.58241200  1
  Cr  Cr2  1  0.58503500  0.02522800  0.33336800  1
  Cr  Cr3  1  0.24120600  0.27948200  0.41758800  1
  Cr  Cr4  1  0.41496500  0.97477200  0.66663200  1
  Cr  Cr5  1  0.13924000  0.62027200  0.18150900  1
  P  P0  1  0.01349400  0.08376900  0.20108700  1
  P  P1  1  0.69657500  0.56682300  0.32103800  1
  P  P2  1  0.30342500  0.43317700  0.67896200  1
  P  P3  1  0.84968200  0.22956000  0.54775100  1
  P  P4  1  0.37495200  0.24161200  0.92704000  1
  P  P5  1  0.15031800  0.77044000  0.45224900  1
  P  P6  1  0.98650600  0.91623100  0.79891300  1
  P  P7  1  0.62504800  0.75838800  0.07296000  1
  O  O0  1  0.48183300  0.29931700  0.70395500  1
  O  O1  1  0.30122400  0.97506400  0.41141000  1
  O  O2  1  0.85856300  0.69020000  0.40503700  1
  O  O3  1  0.67161200  0.30416800  0.92552200  1
  O  O4  1  0.07399700  0.88641100  0.71780000  1
  O  O5  1  0.71980700  0.40323900  0.55204300  1
  O  O6  1  0.14143700  0.30980000  0.59496300  1
  O  O7  1  0.86360400  0.70034200  0.83729700  1
  O  O8  1  0.89317300  0.16562900  0.46308500  1
  O  O9  1  0.28019300  0.59676100  0.44795700  1
  O  O10  1  0.80080000  0.04991800  0.80114200  1
  O  O11  1  0.27084400  0.42925800  0.90823900  1
  O  O12  1  0.69877600  0.02493600  0.58859000  1
  O  O13  1  0.71957700  0.85886800  0.99537900  1
  O  O14  1  0.28042300  0.14113200  0.00462100  1
  O  O15  1  0.53517600  0.33803500  0.34404500  1
  O  O16  1  0.19920000  0.95008200  0.19885800  1
  O  O17  1  0.92600300  0.11358900  0.28220000  1
  O  O18  1  0.51816700  0.70068300  0.29604500  1
  O  O19  1  0.46482400  0.66196500  0.65595500  1
  O  O20  1  0.74394000  0.96093400  0.14161300  1
  O  O21  1  0.72915600  0.57074200  0.09176100  1
  O  O22  1  0.12198500  0.45616500  0.73752500  1
  O  O23  1  0.32838800  0.69583200  0.07447800  1
  O  O24  1  0.87801500  0.54383500  0.26247500  1
  O  O25  1  0.10682700  0.83437100  0.53691500  1
  O  O26  1  0.13639600  0.29965800  0.16270300  1
  O  O27  1  0.25606000  0.03906600  0.85838700  1
loop_
_geom_bond_atom_site_label_1
_geom_bond_atom_site_label_2
_geom_bond_distance
_geom_bond_site_symmetry_2
Li0 O3 1.980003 1_555
Li0 O13 2.051465 1_545
Li0 O14 2.133959 1_656
Li1 O7 1.978214 1_555
Li1 O11 1.981525 1_555
Li1 O13 1.992488 1_555
Li2 O26 1.978214 1_555
Li2 O21 1.981525 1_555
Li2 O14 1.992488 1_555
Li3 O23 1.980003 1_555
Li3 O14 2.051465 1_565
Li3 O13 2.133959 1_454
Cr0 O22 2.038700 1_655
Cr0 O10 2.058406 1_555
Cr0 O7 2.080860 1_555
Cr0 O3 2.168851 1_555
Cr0 O11 2.479130 1_655
Cr0 O0 2.573938 1_555
Cr1 O5 2.034543 1_555
Cr1 O25 2.048913 1_655
Cr1 O19 2.078937 1_555
Cr1 O12 2.095813 1_565
Cr1 O4 2.662916 1_655
Cr2 O17 2.056742 1_555
Cr2 O18 2.073933 1_545
Cr2 O1 2.092005 1_545
Cr2 O15 2.128129 1_555
Cr2 O8 2.549131 1_555
Cr3 O9 2.034543 1_555
Cr3 O8 2.048913 1_455
Cr3 O15 2.078937 1_555
Cr3 O1 2.095813 1_545
Cr3 O17 2.662916 1_455
Cr4 O4 2.056742 1_555
Cr4 O0 2.073933 1_565
Cr4 O12 2.092005 1_565
Cr4 O19 2.128129 1_555
Cr4 O25 2.549131 1_555
Cr5 O24 2.038700 1_455
Cr5 O16 2.058406 1_555
Cr5 O26 2.080860 1_555
Cr5 O23 2.168851 1_555
Cr5 O21 2.479130 1_455
Cr5 O18 2.573938 1_555
O0 P2 1.529353 1_555
O1 P5 1.552971 1_555
O2 P5 1.611402 1_655
O2 P1 1.616236 1_555
O3 P4 1.539050 1_555
O4 P6 1.519133 1_455
O5 P3 1.507097 1_555
O6 P3 1.611402 1_455
O6 P2 1.616236 1_555
O7 P6 1.547501 1_555
O8 P3 1.532303 1_555
O9 P5 1.507097 1_555
O10 P6 1.525069 1_545
O11 P4 1.523017 1_555
O12 P3 1.552971 1_555
O13 P7 1.548499 1_556
O14 P4 1.548499 1_554
O15 P1 1.553925 1_555
O16 P0 1.525069 1_565
O17 P0 1.519133 1_655
O18 P1 1.529353 1_555
O19 P2 1.553925 1_555
O20 P7 1.629783 1_555
O20 P0 1.634198 1_665
O21 P7 1.523017 1_555
O22 P2 1.503744 1_555
O23 P7 1.539050 1_555
O24 P1 1.503744 1_555
O25 P5 1.532303 1_555
O26 P0 1.547501 1_555
O27 P4 1.629783 1_555
O27 P6 1.634198 1_445
