# generated using pymatgen
data_H5ClO6
_symmetry_space_group_name_H-M   'P 1'
_cell_length_a   6.04774200
_cell_length_b   8.07204000
_cell_length_c   10.90293200
_cell_angle_alpha   90.00000000
_cell_angle_beta   90.00000000
_cell_angle_gamma   90.00000000
_symmetry_Int_Tables_number   1
_chemical_formula_structural   H5ClO6
_chemical_formula_sum   'H20 Cl4 O24'
_cell_volume   532.25514039
_cell_formula_units_Z   4
loop_
 _symmetry_equiv_pos_site_id
 _symmetry_equiv_pos_as_xyz
  1  'x, y, z'
loop_
 _atom_site_type_symbol
 _atom_site_label
 _atom_site_symmetry_multiplicity
 _atom_site_fract_x
 _atom_site_fract_y
 _atom_site_fract_z
 _atom_site_occupancy
  H  H0  1  0.51825900  0.23072400  0.02692400  1
  H  H1  1  0.50000000  0.00000000  0.00000000  1
  H  H2  1  0.36634800  0.16680000  0.91588200  1
  H  H3  1  0.01825900  0.26927600  0.47307600  1
  H  H4  1  0.86634800  0.33320000  0.58411800  1
  H  H5  1  0.00000000  0.50000000  0.50000000  1
  H  H6  1  0.50000000  0.00000000  0.50000000  1
  H  H7  1  0.48174100  0.76927600  0.52692400  1
  H  H8  1  0.63365200  0.83320000  0.41588200  1
  H  H9  1  0.00000000  0.50000000  0.00000000  1
  H  H10  1  0.98174100  0.73072400  0.97307600  1
  H  H11  1  0.13365200  0.66680000  0.08411800  1
  H  H12  1  0.63365200  0.83320000  0.08411800  1
  H  H13  1  0.48174100  0.76927600  0.97307600  1
  H  H14  1  0.98174100  0.73072400  0.52692400  1
  H  H15  1  0.13365200  0.66680000  0.41588200  1
  H  H16  1  0.51825900  0.23072400  0.47307600  1
  H  H17  1  0.36634800  0.16680000  0.58411800  1
  H  H18  1  0.86634800  0.33320000  0.91588200  1
  H  H19  1  0.01825900  0.26927600  0.02692400  1
  Cl  Cl0  1  0.56054200  0.50621100  0.25000000  1
  Cl  Cl1  1  0.06054200  0.99378900  0.25000000  1
  Cl  Cl2  1  0.43945800  0.49378900  0.75000000  1
  Cl  Cl3  1  0.93945800  0.00621100  0.75000000  1
  O  O0  1  0.59722900  0.32884100  0.25000000  1
  O  O1  1  0.09722900  0.17115900  0.25000000  1
  O  O2  1  0.40277100  0.67115900  0.75000000  1
  O  O3  1  0.90277100  0.82884100  0.75000000  1
  O  O4  1  0.77071700  0.59618000  0.25000000  1
  O  O5  1  0.27071700  0.90382000  0.25000000  1
  O  O6  1  0.22928300  0.40382000  0.75000000  1
  O  O7  1  0.72928300  0.09618000  0.75000000  1
  O  O8  1  0.43501300  0.55350300  0.13951300  1
  O  O9  1  0.93501300  0.94649700  0.36048700  1
  O  O10  1  0.56498700  0.44649700  0.63951300  1
  O  O11  1  0.06498700  0.05350300  0.86048700  1
  O  O12  1  0.56498700  0.44649700  0.86048700  1
  O  O13  1  0.06498700  0.05350300  0.63951300  1
  O  O14  1  0.43501300  0.55350300  0.36048700  1
  O  O15  1  0.93501300  0.94649700  0.13951300  1
  O  O16  1  0.41976700  0.14141800  0.99912500  1
  O  O17  1  0.91976700  0.35858200  0.50087500  1
  O  O18  1  0.58023300  0.85858200  0.49912500  1
  O  O19  1  0.08023300  0.64141800  0.00087500  1
  O  O20  1  0.58023300  0.85858200  0.00087500  1
  O  O21  1  0.08023300  0.64141800  0.49912500  1
  O  O22  1  0.41976700  0.14141800  0.50087500  1
  O  O23  1  0.91976700  0.35858200  0.99912500  1
loop_
_geom_bond_atom_site_label_1
_geom_bond_atom_site_label_2
_geom_bond_distance
_geom_bond_site_symmetry_2
H0 O16 0.983025 1_554
H1 O16 1.240416 1_554
H1 O20 1.240416 1_545
H2 O16 0.984923 1_555
H3 O17 0.983025 1_455
H4 O17 0.984923 1_555
H5 O17 1.240416 1_455
H5 O21 1.240416 1_555
H6 O22 1.240416 1_555
H6 O18 1.240416 1_545
H7 O18 0.983025 1_555
H8 O18 0.984923 1_555
H9 O23 1.240416 1_454
H9 O19 1.240416 1_555
H10 O19 0.983025 1_656
H11 O19 0.984923 1_555
H12 O20 0.984923 1_555
H13 O20 0.983025 1_556
H14 O21 0.983025 1_655
H15 O21 0.984923 1_555
H16 O22 0.983025 1_555
H17 O22 0.984923 1_555
H18 O23 0.984923 1_555
H19 O23 0.983025 1_454
Cl0 O0 1.448827 1_555
Cl0 O4 1.463923 1_555
Cl0 O14 1.474178 1_555
Cl0 O8 1.474178 1_555
Cl1 O1 1.448827 1_565
Cl1 O5 1.463923 1_555
Cl1 O9 1.474178 1_455
Cl1 O15 1.474178 1_455
Cl2 O2 1.448827 1_555
Cl2 O6 1.463923 1_555
Cl2 O10 1.474178 1_555
Cl2 O12 1.474178 1_555
Cl3 O3 1.448827 1_545
Cl3 O7 1.463923 1_555
Cl3 O11 1.474178 1_655
Cl3 O13 1.474178 1_655
