# generated using pymatgen
data_Lu2FeS4
_symmetry_space_group_name_H-M   'P 1'
_cell_length_a   7.75417560
_cell_length_b   7.59526180
_cell_length_c   30.24943528
_cell_angle_alpha   59.75131939
_cell_angle_beta   60.26504511
_cell_angle_gamma   60.58062560
_symmetry_Int_Tables_number   1
_chemical_formula_structural   Lu2FeS4
_chemical_formula_sum   'Lu16 Fe8 S32'
_cell_volume   1265.28167741
_cell_formula_units_Z   8
loop_
 _symmetry_equiv_pos_site_id
 _symmetry_equiv_pos_as_xyz
  1  'x, y, z'
loop_
 _atom_site_type_symbol
 _atom_site_label
 _atom_site_symmetry_multiplicity
 _atom_site_fract_x
 _atom_site_fract_y
 _atom_site_fract_z
 _atom_site_occupancy
  Lu  Lu0  1  0.49284181  0.49650157  0.00353515  1
  Lu  Lu1  1  0.50062052  0.50591765  0.11967827  1
  Lu  Lu2  1  0.44863044  0.01810575  0.25380622  1
  Lu  Lu3  1  0.50074917  0.01433900  0.11982073  1
  Lu  Lu4  1  0.50584975  0.49094866  0.25311121  1
  Lu  Lu5  1  0.50388778  0.48993977  0.37703505  1
  Lu  Lu6  1  0.01637536  0.50003777  0.12091630  1
  Lu  Lu7  1  0.49723629  0.98731880  0.50332245  1
  Lu  Lu8  1  0.00500940  0.50257899  0.62280739  1
  Lu  Lu9  1  0.50398212  0.99748003  0.37685170  1
  Lu  Lu10  1  0.50425278  0.00984941  0.74702555  1
  Lu  Lu11  1  0.99366510  0.49462371  0.37888636  1
  Lu  Lu12  1  0.00631593  0.49816009  0.87471277  1
  Lu  Lu13  1  0.50148358  0.00533893  0.62342585  1
  Lu  Lu14  1  0.49473315  0.49450430  0.87623641  1
  Lu  Lu15  1  0.49495741  0.00564496  0.87636734  1
  Fe  Fe0  1  0.05825100  0.12705103  0.54459821  1
  Fe  Fe1  1  0.91698597  0.86408905  0.21358718  1
  Fe  Fe2  1  0.07039684  0.14223727  0.78601953  1
  Fe  Fe3  1  0.50055369  0.49955750  0.62403076  1
  Fe  Fe4  1  0.93600410  0.86312767  0.45957451  1
  Fe  Fe5  1  0.50296974  0.49791325  0.74754623  1
  Fe  Fe6  1  0.94069772  0.86485575  0.70986488  1
  Fe  Fe7  1  0.88133885  0.87360575  0.96778694  1
  S  S0  1  0.25061773  0.25560590  0.06414482  1
  S  S1  1  0.25107061  0.25237832  0.18606048  1
  S  S2  1  0.25020588  0.73788001  0.06404448  1
  S  S3  1  0.73244594  0.25788483  0.06286440  1
  S  S4  1  0.27484991  0.73822663  0.18709962  1
  S  S5  1  0.25136758  0.25305346  0.31601397  1
  S  S6  1  0.24228253  0.24305727  0.44246940  1
  S  S7  1  0.73609946  0.23982163  0.19068519  1
  S  S8  1  0.25112717  0.73141786  0.31609995  1
  S  S9  1  0.75588761  0.74561542  0.06317850  1
  S  S10  1  0.72550513  0.25358076  0.31668369  1
  S  S11  1  0.73636032  0.76106116  0.19073240  1
  S  S12  1  0.27948183  0.73764917  0.43614635  1
  S  S13  1  0.24097140  0.23644047  0.56480716  1
  S  S14  1  0.75627013  0.23225557  0.43849974  1
  S  S15  1  0.24843015  0.25356848  0.68746956  1
  S  S16  1  0.23996942  0.75842353  0.56697743  1
  S  S17  1  0.74381842  0.75248765  0.31262848  1
  S  S18  1  0.75862418  0.75630312  0.43779504  1
  S  S19  1  0.70866927  0.27908768  0.57019648  1
  S  S20  1  0.30258712  0.70888097  0.68629572  1
  S  S21  1  0.25157764  0.25302028  0.80906978  1
  S  S22  1  0.74949918  0.25375734  0.68745212  1
  S  S23  1  0.25338697  0.26179542  0.93077300  1
  S  S24  1  0.25435575  0.75968867  0.80809854  1
  S  S25  1  0.75253955  0.74963342  0.56131824  1
  S  S26  1  0.74903265  0.74812278  0.68813966  1
  S  S27  1  0.71416081  0.27843661  0.80719441  1
  S  S28  1  0.25534845  0.75140924  0.93544870  1
  S  S29  1  0.75298522  0.25755442  0.93453282  1
  S  S30  1  0.74987630  0.75663019  0.80939294  1
  S  S31  1  0.75280716  0.75154507  0.93463994  1
loop_
_geom_bond_atom_site_label_1
_geom_bond_atom_site_label_2
_geom_bond_distance
_geom_bond_site_symmetry_2
Lu0 S3 2.584584 1_555
Lu0 S0 2.610990 1_555
Lu0 S2 2.612924 1_555
Lu0 S28 2.761148 1_554
Lu0 S31 2.785792 1_554
Lu0 S29 2.786211 1_554
Lu1 S2 2.569064 1_555
Lu1 S3 2.569906 1_555
Lu1 S9 2.683824 1_555
Lu1 S4 2.717845 1_555
Lu1 S1 2.719430 1_555
Lu1 S7 2.814922 1_555
Lu2 S1 2.544582 1_555
Lu2 S5 2.628971 1_555
Lu2 S8 2.630019 1_545
Lu2 S7 2.770652 1_555
Lu2 S11 2.771410 1_545
Lu2 S17 2.891766 1_545
Lu3 S0 2.568194 1_555
Lu3 S3 2.569306 1_555
Lu3 S9 2.685041 1_545
Lu3 S4 2.716736 1_545
Lu3 S1 2.719358 1_555
Lu3 S11 2.813724 1_545
Lu4 S10 2.566880 1_555
Lu4 S5 2.663362 1_555
Lu4 S8 2.663924 1_555
Lu4 S4 2.681000 1_555
Lu4 S11 2.705714 1_555
Lu4 S7 2.707499 1_555
Lu5 S10 2.582223 1_555
Lu5 S12 2.617558 1_555
Lu5 S8 2.692406 1_555
Lu5 S14 2.701432 1_555
Lu5 S17 2.714483 1_555
Lu5 S6 2.750154 1_555
Lu6 S0 2.549542 1_555
Lu6 S2 2.550086 1_555
Lu6 S9 2.669355 1_455
Lu6 S1 2.682026 1_555
Lu6 S11 2.923319 1_455
Lu6 S7 2.924194 1_455
Lu7 S16 2.633193 1_555
Lu7 S25 2.645595 1_555
Lu7 S18 2.672229 1_555
Lu7 S13 2.678377 1_565
Lu7 S6 2.702746 1_565
Lu7 S14 2.725623 1_565
Lu8 S16 2.658388 1_555
Lu8 S13 2.695788 1_555
Lu8 S25 2.701875 1_455
Lu8 S15 2.719168 1_555
Lu8 S22 2.726308 1_455
Lu8 S26 2.740269 1_455
Lu9 S10 2.580909 1_565
Lu9 S12 2.617933 1_555
Lu9 S5 2.689443 1_565
Lu9 S18 2.703347 1_555
Lu9 S17 2.711786 1_555
Lu9 S6 2.748254 1_565
Lu10 S22 2.644573 1_555
Lu10 S21 2.657460 1_555
Lu10 S15 2.680471 1_555
Lu10 S30 2.682500 1_545
Lu10 S26 2.689651 1_545
Lu10 S24 2.703202 1_545
Lu11 S5 2.668426 1_655
Lu11 S8 2.674335 1_655
Lu11 S18 2.689856 1_555
Lu11 S14 2.702187 1_555
Lu11 S6 2.724610 1_655
Lu11 S17 2.788479 1_555
Lu12 S23 2.558466 1_555
Lu12 S31 2.667882 1_455
Lu12 S29 2.672386 1_455
Lu12 S21 2.743461 1_555
Lu12 S24 2.753428 1_555
Lu12 S30 2.804741 1_455
Lu13 S19 2.615184 1_555
Lu13 S13 2.690698 1_555
Lu13 S20 2.693163 1_545
Lu13 S25 2.724912 1_545
Lu13 S15 2.726289 1_555
Lu13 S26 2.742932 1_545
Lu14 S23 2.568474 1_555
Lu14 S29 2.669037 1_555
Lu14 S28 2.669472 1_555
Lu14 S27 2.671134 1_555
Lu14 S24 2.778404 1_555
Lu14 S30 2.794958 1_555
Lu15 S23 2.567103 1_555
Lu15 S31 2.665952 1_545
Lu15 S27 2.669089 1_555
Lu15 S28 2.669928 1_545
Lu15 S21 2.776666 1_555
Lu15 S30 2.793576 1_545
Fe0 S19 2.241574 1_455
Fe0 S16 2.333173 1_545
Fe0 S13 2.366178 1_555
Fe0 S6 2.544860 1_555
Fe0 Lu7 2.800413 1_545
Fe1 S4 2.283912 1_655
Fe1 S7 2.372993 1_565
Fe1 S11 2.373665 1_555
Fe1 S17 2.462969 1_555
Fe2 S27 2.283857 1_455
Fe2 S24 2.416885 1_545
Fe2 S21 2.427358 1_555
Fe2 S15 2.456089 1_555
Fe2 Lu10 2.766870 1_555
Fe3 S19 2.354979 1_555
Fe3 S20 2.486545 1_555
Fe3 S16 2.657964 1_555
Fe3 S15 2.692556 1_555
Fe3 S25 2.713498 1_555
Fe3 S22 2.723401 1_555
Fe4 S12 2.195139 1_655
Fe4 S14 2.334759 1_565
Fe4 S18 2.349029 1_555
Fe4 S25 2.535278 1_555
Fe4 Lu7 2.802700 1_555
Fe5 S20 2.415248 1_555
Fe5 S27 2.436204 1_555
Fe5 S22 2.619982 1_555
Fe5 S21 2.683061 1_555
Fe5 S26 2.683576 1_555
Fe5 S24 2.724979 1_555
Fe6 S20 2.320937 1_655
Fe6 S22 2.461699 1_565
Fe6 S30 2.492327 1_555
Fe6 S26 2.505429 1_555
Fe6 Lu10 2.782407 1_565
Fe7 S9 2.352881 1_556
Fe7 S28 2.384393 1_655
Fe7 S29 2.385991 1_565
Fe7 S31 2.386157 1_555
