# generated using pymatgen
data_MgIn2O4
_symmetry_space_group_name_H-M   'P 1'
_cell_length_a   6.36293092
_cell_length_b   6.36293092
_cell_length_c   26.20333953
_cell_angle_alpha   83.00446855
_cell_angle_beta   83.00446855
_cell_angle_gamma   60.70362342
_symmetry_Int_Tables_number   1
_chemical_formula_structural   MgIn2O4
_chemical_formula_sum   'Mg10 In20 O40'
_cell_volume   915.94278696
_cell_formula_units_Z   10
loop_
 _symmetry_equiv_pos_site_id
 _symmetry_equiv_pos_as_xyz
  1  'x, y, z'
loop_
 _atom_site_type_symbol
 _atom_site_label
 _atom_site_symmetry_multiplicity
 _atom_site_fract_x
 _atom_site_fract_y
 _atom_site_fract_z
 _atom_site_occupancy
  Mg  Mg0  1  0.00194100  0.00194100  0.00023300  1
  Mg  Mg1  1  0.87780700  0.87780700  0.87439300  1
  Mg  Mg2  1  0.27505700  0.27505700  0.67492500  1
  Mg  Mg3  1  0.07499500  0.07499500  0.77461300  1
  Mg  Mg4  1  0.67504100  0.67504100  0.47493000  1
  Mg  Mg5  1  0.47501200  0.47501200  0.57491000  1
  Mg  Mg6  1  0.07503000  0.07503000  0.27492100  1
  Mg  Mg7  1  0.87504000  0.87504000  0.37488900  1
  Mg  Mg8  1  0.47490800  0.47490800  0.07546000  1
  Mg  Mg9  1  0.27499100  0.27499100  0.17503500  1
  In  In0  1  0.34644300  0.34644300  0.95059900  1
  In  In1  1  0.67389700  0.67389700  0.97699700  1
  In  In2  1  0.36876200  0.87786600  0.87442600  1
  In  In3  1  0.74696800  0.74696800  0.74926800  1
  In  In4  1  0.87786600  0.36876200  0.87442600  1
  In  In5  1  0.77506000  0.27489300  0.67488300  1
  In  In6  1  0.20297100  0.20297100  0.40082300  1
  In  In7  1  0.14716200  0.14716200  0.54900100  1
  In  In8  1  0.27489300  0.77506000  0.67488300  1
  In  In9  1  0.54719200  0.54719200  0.34900800  1
  In  In10  1  0.40324200  0.40324200  0.80049600  1
  In  In11  1  0.17506600  0.67498700  0.47490500  1
  In  In12  1  0.67498700  0.17506600  0.47490500  1
  In  In13  1  0.80291600  0.80291600  0.60077800  1
  In  In14  1  0.57512300  0.07492700  0.27488600  1
  In  In15  1  0.94728600  0.94728600  0.14868600  1
  In  In16  1  0.07492700  0.57512300  0.27488600  1
  In  In17  1  0.97504600  0.47476600  0.07551800  1
  In  In18  1  0.47476600  0.97504600  0.07551800  1
  In  In19  1  0.60281500  0.60281500  0.20096500  1
  O  O0  1  0.54362700  0.00210500  0.92199400  1
  O  O1  1  0.72611400  0.72611400  0.83093600  1
  O  O2  1  0.00210500  0.54362700  0.92199400  1
  O  O3  1  0.53613000  0.53613000  0.92290400  1
  O  O4  1  0.21241500  0.21241500  0.82469700  1
  O  O5  1  0.94453100  0.39685200  0.72368300  1
  O  O6  1  0.02375700  0.02375700  0.92059400  1
  O  O7  1  0.75227400  0.20481600  0.82600800  1
  O  O8  1  0.12706500  0.12706500  0.63043700  1
  O  O9  1  0.39685200  0.94453100  0.72368300  1
  O  O10  1  0.93831300  0.93831300  0.72481600  1
  O  O11  1  0.20481600  0.75227400  0.82600800  1
  O  O12  1  0.61155400  0.61155400  0.62531400  1
  O  O13  1  0.34456400  0.79693900  0.52366600  1
  O  O14  1  0.42298900  0.42298900  0.71951700  1
  O  O15  1  0.15285500  0.60538500  0.62646800  1
  O  O16  1  0.52707000  0.52707000  0.43044100  1
  O  O17  1  0.79693900  0.34456400  0.52366600  1
  O  O18  1  0.33845500  0.33845500  0.52479500  1
  O  O19  1  0.60538500  0.15285500  0.62646800  1
  O  O20  1  0.01157300  0.01157300  0.42532100  1
  O  O21  1  0.74456400  0.19693200  0.32365300  1
  O  O22  1  0.82293000  0.82293000  0.51962200  1
  O  O23  1  0.55296100  0.00538700  0.42647200  1
  O  O24  1  0.92710100  0.92710100  0.23030300  1
  O  O25  1  0.19693200  0.74456400  0.32365300  1
  O  O26  1  0.73849600  0.73849600  0.32478500  1
  O  O27  1  0.00538700  0.55296100  0.42647200  1
  O  O28  1  0.41152300  0.41152300  0.22536500  1
  O  O29  1  0.14506200  0.59613800  0.12381700  1
  O  O30  1  0.22296100  0.22296100  0.31965900  1
  O  O31  1  0.95291300  0.40536600  0.22648400  1
  O  O32  1  0.32743200  0.32743200  0.03046200  1
  O  O33  1  0.59613800  0.14506200  0.12381700  1
  O  O34  1  0.13873700  0.13873700  0.12497200  1
  O  O35  1  0.40536600  0.95291300  0.22648400  1
  O  O36  1  0.81826200  0.81826200  0.02634600  1
  O  O37  1  0.62273300  0.62273300  0.11991700  1
  O  O38  1  0.34163600  0.81226900  0.02707200  1
  O  O39  1  0.81226900  0.34163600  0.02707200  1
loop_
_geom_bond_atom_site_label_1
_geom_bond_atom_site_label_2
_geom_bond_distance
_geom_bond_site_symmetry_2
Mg0 O36 2.036488 1_445
Mg0 O38 2.057578 1_545
Mg0 O39 2.057578 1_455
Mg0 O6 2.066650 1_554
Mg1 O11 2.133654 1_655
Mg1 O7 2.133654 1_565
Mg1 O6 2.140603 1_665
Mg1 O1 2.146426 1_555
Mg1 O2 2.156648 1_655
Mg1 O0 2.156648 1_565
Mg2 O8 2.129548 1_555
Mg2 O14 2.130781 1_555
Mg2 O15 2.150720 1_555
Mg2 O19 2.150720 1_555
Mg2 O5 2.155828 1_455
Mg2 O9 2.155828 1_545
Mg3 O10 2.123313 1_445
Mg3 O4 2.135116 1_555
Mg3 O5 2.145823 1_455
Mg3 O9 2.145823 1_545
Mg3 O7 2.156385 1_455
Mg3 O11 2.156385 1_545
Mg4 O16 2.129371 1_555
Mg4 O22 2.132104 1_555
Mg4 O23 2.150852 1_565
Mg4 O27 2.150852 1_655
Mg4 O13 2.155273 1_555
Mg4 O17 2.155273 1_555
Mg5 O18 2.128186 1_555
Mg5 O12 2.133488 1_555
Mg5 O17 2.150689 1_555
Mg5 O13 2.150689 1_555
Mg5 O15 2.156275 1_555
Mg5 O19 2.156275 1_555
Mg6 O24 2.131200 1_445
Mg6 O30 2.133283 1_555
Mg6 O35 2.150512 1_545
Mg6 O31 2.150512 1_455
Mg6 O21 2.155167 1_455
Mg6 O25 2.155167 1_545
Mg7 O26 2.127866 1_555
Mg7 O20 2.133937 1_665
Mg7 O21 2.150419 1_565
Mg7 O25 2.150419 1_655
Mg7 O27 2.156301 1_655
Mg7 O23 2.156301 1_565
Mg8 O37 2.127474 1_555
Mg8 O32 2.133581 1_555
Mg8 O29 2.147419 1_555
Mg8 O33 2.147419 1_555
Mg8 O38 2.179936 1_555
Mg8 O39 2.179936 1_555
Mg9 O34 2.124575 1_555
Mg9 O28 2.132009 1_555
Mg9 O29 2.146913 1_555
Mg9 O33 2.146913 1_555
Mg9 O35 2.154339 1_545
Mg9 O31 2.154339 1_455
In0 O32 2.073538 1_556
In0 O0 2.101700 1_555
In0 O2 2.101700 1_555
In0 O3 2.106925 1_555
In1 O39 2.179575 1_556
In1 O38 2.179575 1_556
In1 O36 2.182701 1_556
In1 O3 2.214334 1_555
In1 O0 2.233680 1_565
In1 O2 2.233680 1_655
In2 O11 2.172936 1_555
In2 O6 2.185557 1_565
In2 O4 2.187848 1_565
In2 O0 2.203446 1_565
In2 O3 2.205992 1_555
In2 O1 2.211192 1_555
In3 O9 2.100107 1_555
In3 O5 2.100107 1_555
In3 O10 2.108525 1_555
In3 O1 2.119811 1_555
In4 O7 2.172936 1_555
In4 O6 2.185557 1_655
In4 O4 2.187848 1_655
In4 O2 2.203446 1_655
In4 O3 2.205992 1_555
In4 O1 2.211192 1_555
In5 O19 2.184505 1_555
In5 O5 2.190128 1_555
In5 O8 2.197134 1_655
In5 O12 2.197410 1_555
In5 O14 2.199698 1_555
In5 O10 2.202025 1_545
In6 O27 2.100096 1_555
In6 O23 2.100096 1_555
In6 O30 2.107023 1_555
In6 O20 2.109277 1_555
In7 O17 2.098164 1_455
In7 O13 2.098164 1_545
In7 O18 2.106938 1_555
In7 O8 2.114067 1_555
In8 O15 2.184505 1_555
In8 O9 2.190128 1_555
In8 O8 2.197134 1_565
In8 O12 2.197410 1_555
In8 O14 2.199698 1_555
In8 O10 2.202025 1_455
In9 O21 2.098542 1_555
In9 O25 2.098542 1_555
In9 O26 2.107125 1_555
In9 O16 2.113979 1_555
In10 O11 2.094068 1_555
In10 O7 2.094068 1_555
In10 O4 2.102032 1_555
In10 O14 2.102305 1_555
In11 O27 2.184796 1_555
In11 O13 2.189523 1_555
In11 O20 2.197292 1_565
In11 O16 2.197342 1_555
In11 O22 2.201012 1_455
In11 O18 2.201279 1_555
In12 O23 2.184796 1_555
In12 O17 2.189523 1_555
In12 O20 2.197292 1_655
In12 O16 2.197342 1_555
In12 O22 2.201012 1_545
In12 O18 2.201279 1_555
In13 O15 2.100225 1_655
In13 O19 2.100225 1_565
In13 O22 2.106804 1_555
In13 O12 2.109064 1_555
In14 O35 2.184556 1_545
In14 O21 2.189589 1_555
In14 O28 2.196507 1_555
In14 O24 2.198653 1_545
In14 O26 2.200967 1_545
In14 O30 2.201808 1_555
In15 O29 2.098500 1_655
In15 O33 2.098500 1_565
In15 O34 2.106569 1_665
In15 O24 2.118748 1_555
In16 O31 2.184556 1_455
In16 O25 2.189589 1_555
In16 O28 2.196507 1_555
In16 O24 2.198653 1_455
In16 O26 2.200967 1_455
In16 O30 2.201808 1_555
In17 O29 2.181201 1_655
In17 O34 2.193196 1_655
In17 O37 2.198026 1_555
In17 O39 2.200607 1_555
In17 O32 2.206321 1_655
In17 O36 2.219385 1_555
In18 O33 2.181201 1_565
In18 O34 2.193196 1_565
In18 O37 2.198026 1_555
In18 O38 2.200607 1_555
In18 O32 2.206321 1_565
In18 O36 2.219385 1_555
In19 O35 2.099336 1_555
In19 O31 2.099336 1_555
In19 O37 2.104030 1_555
In19 O28 2.107748 1_555
