# generated using pymatgen
data_Ag9Te4Br3
_symmetry_space_group_name_H-M   'P 1'
_cell_length_a   7.57605900
_cell_length_b   7.59231477
_cell_length_c   8.37323631
_cell_angle_alpha   90.59427404
_cell_angle_beta   89.99400577
_cell_angle_gamma   114.83844426
_symmetry_Int_Tables_number   1
_chemical_formula_structural   Ag9Te4Br3
_chemical_formula_sum   'Ag9 Te4 Br3'
_cell_volume   437.04626293
_cell_formula_units_Z   1
loop_
 _symmetry_equiv_pos_site_id
 _symmetry_equiv_pos_as_xyz
  1  'x, y, z'
loop_
 _atom_site_type_symbol
 _atom_site_label
 _atom_site_symmetry_multiplicity
 _atom_site_fract_x
 _atom_site_fract_y
 _atom_site_fract_z
 _atom_site_occupancy
  Ag  Ag0  1  0.85760900  0.79029600  0.08659700  1
  Ag  Ag1  1  0.01730100  0.68953700  0.55841400  1
  Ag  Ag2  1  0.39747500  0.21900800  0.77425100  1
  Ag  Ag3  1  0.02832700  0.37324600  0.35251100  1
  Ag  Ag4  1  0.64684700  0.99115400  0.33444100  1
  Ag  Ag5  1  0.63215200  0.00048600  0.68500300  1
  Ag  Ag6  1  0.30882100  0.68803900  0.84288000  1
  Ag  Ag7  1  0.99606800  0.33961600  0.70951100  1
  Ag  Ag8  1  0.18095800  0.17771300  0.06946400  1
  Te  Te0  1  0.98775400  0.96927100  0.78442500  1
  Te  Te1  1  0.02298200  0.99889000  0.35649400  1
  Te  Te2  1  0.65637400  0.34096000  0.51665300  1
  Te  Te3  1  0.37377100  0.64671200  0.52023200  1
  Br  Br0  1  0.51098900  0.50541900  0.01684100  1
  Br  Br1  1  0.49496000  0.00198300  0.03972300  1
  Br  Br2  1  0.99514500  0.48403600  0.04306200  1
loop_
_geom_bond_atom_site_label_1
_geom_bond_atom_site_label_2
_geom_bond_distance
_geom_bond_site_symmetry_2
Ag0 Br0 2.667878 1_555
Ag0 Te1 2.728447 1_655
Ag0 Te0 2.857535 1_554
Ag0 Br2 2.939912 1_555
Ag1 Te3 2.869972 1_555
Ag1 Te1 2.893829 1_555
Ag1 Ag7 2.897462 1_455
Ag1 Te0 2.908272 1_455
Ag1 Te2 2.916264 1_455
Ag1 Ag3 2.971305 1_555
Ag1 Ag6 3.251790 1_555
Ag2 Te2 2.805648 1_555
Ag2 Br0 2.816348 1_556
Ag2 Te0 2.880336 1_445
Ag2 Ag5 2.987338 1_555
Ag2 Br1 3.049630 1_556
Ag3 Br2 2.776234 1_455
Ag3 Te1 2.826002 1_545
Ag3 Te3 2.916768 1_555
Ag3 Ag7 3.003958 1_455
Ag3 Te2 3.052163 1_455
Ag4 Br1 2.739512 1_565
Ag4 Te1 2.831459 1_655
Ag4 Ag5 2.938685 1_565
Ag4 Te3 3.012884 1_555
Ag4 Te2 3.023471 1_565
Ag5 Ag7 2.880665 1_555
Ag5 Te2 2.894807 1_555
Ag5 Te3 2.907959 1_545
Ag5 Te0 2.923718 1_545
Ag5 Ag6 2.925370 1_545
Ag5 Br1 3.148146 1_556
Ag6 Br1 2.735275 1_566
Ag6 Te3 2.784082 1_555
Ag6 Br2 2.795829 1_456
Ag6 Br0 2.866447 1_556
Ag6 Ag7 2.921052 1_455
Ag7 Te0 2.862046 1_545
Ag7 Br2 2.990908 1_556
Ag7 Te2 3.042075 1_555
Ag7 Te3 3.256812 1_655
Ag8 Br0 2.726234 1_555
Ag8 Te1 2.784574 1_545
Ag8 Te0 2.884373 1_444
Ag8 Br1 3.187588 1_555
Ag8 Br2 3.193856 1_455
