# generated using pymatgen
data_Ag13(BiI4)14
_symmetry_space_group_name_H-M   'P 1'
_cell_length_a   8.79762000
_cell_length_b   9.02745759
_cell_length_c   51.75631317
_cell_angle_alpha   93.75761381
_cell_angle_beta   90.00464842
_cell_angle_gamma   118.92536088
_symmetry_Int_Tables_number   1
_chemical_formula_structural   Ag13(BiI4)14
_chemical_formula_sum   'Ag13 Bi14 I56'
_cell_volume   3587.60020104
_cell_formula_units_Z   1
loop_
 _symmetry_equiv_pos_site_id
 _symmetry_equiv_pos_as_xyz
  1  'x, y, z'
loop_
 _atom_site_type_symbol
 _atom_site_label
 _atom_site_symmetry_multiplicity
 _atom_site_fract_x
 _atom_site_fract_y
 _atom_site_fract_z
 _atom_site_occupancy
  Ag  Ag0  1  0.00000000  0.50000000  0.00000000  1
  Ag  Ag1  1  0.78758000  0.07270500  0.85831500  1
  Ag  Ag2  1  0.28369700  0.07138300  0.85799300  1
  Ag  Ag3  1  0.57120100  0.64304100  0.71452600  1
  Ag  Ag4  1  0.07188500  0.64319100  0.71455200  1
  Ag  Ag5  1  0.64251500  0.78533700  0.42851900  1
  Ag  Ag6  1  0.14292000  0.78548900  0.42850800  1
  Ag  Ag7  1  0.85708000  0.21451100  0.57149200  1
  Ag  Ag8  1  0.35748500  0.21466300  0.57148100  1
  Ag  Ag9  1  0.42879900  0.35695900  0.28547400  1
  Ag  Ag10  1  0.92811500  0.35680900  0.28544800  1
  Ag  Ag11  1  0.71630300  0.92861700  0.14200700  1
  Ag  Ag12  1  0.21242000  0.92729500  0.14168500  1
  Bi  Bi0  1  0.00000000  0.00000000  0.00000000  1
  Bi  Bi1  1  0.14691900  0.29000900  0.93025200  1
  Bi  Bi2  1  0.28367400  0.56911300  0.85761700  1
  Bi  Bi3  1  0.57071400  0.14193500  0.71444700  1
  Bi  Bi4  1  0.71413800  0.42795300  0.64301100  1
  Bi  Bi5  1  0.14296800  0.28593000  0.42851400  1
  Bi  Bi6  1  0.28586200  0.57204700  0.35698900  1
  Bi  Bi7  1  0.42818400  0.85557700  0.78610800  1
  Bi  Bi8  1  0.00000000  0.00000000  0.50000000  1
  Bi  Bi9  1  0.42928600  0.85806500  0.28555300  1
  Bi  Bi10  1  0.85703200  0.71407000  0.57148600  1
  Bi  Bi11  1  0.85308100  0.70999100  0.06974800  1
  Bi  Bi12  1  0.57181600  0.14442300  0.21389200  1
  Bi  Bi13  1  0.71632600  0.43088700  0.14238300  1
  I  I0  1  0.29563200  0.61596700  0.96429600  1
  I  I1  1  0.81252700  0.12403600  0.96226700  1
  I  I2  1  0.46035200  0.92274600  0.88846500  1
  I  I3  1  0.31864400  0.14083700  0.96367700  1
  I  I4  1  0.96817000  0.43776600  0.89292700  1
  I  I5  1  0.59149800  0.18338800  0.82304500  1
  I  I6  1  0.46980300  0.44126400  0.89410000  1
  I  I7  1  0.10271400  0.70437600  0.82004700  1
  I  I8  1  0.74701000  0.49420200  0.74556400  1
  I  I9  1  0.84298300  0.64951800  0.96910600  1
  I  I10  1  0.97880300  0.95637400  0.89113300  1
  I  I11  1  0.60271900  0.70504300  0.82014100  1
  I  I12  1  0.25485100  0.01030300  0.75061700  1
  I  I13  1  0.87862600  0.75730100  0.67960200  1
  I  I14  1  0.75503700  0.00960400  0.75080400  1
  I  I15  1  0.11170900  0.22118100  0.82544200  1
  I  I16  1  0.38834400  0.27657200  0.67739100  1
  I  I17  1  0.03268400  0.06559300  0.60275100  1
  I  I18  1  0.88791700  0.27590500  0.67751700  1
  I  I19  1  0.26352100  0.52683500  0.74870800  1
  I  I20  1  0.54085100  0.58163800  0.60796500  1
  I  I21  1  0.16458500  0.32919000  0.53684600  1
  I  I22  1  0.04038400  0.58090400  0.60809100  1
  I  I23  1  0.39609100  0.79188100  0.68282600  1
  I  I24  1  0.67411300  0.84782000  0.53463500  1
  I  I25  1  0.31822500  0.63668500  0.45999300  1
  I  I26  1  0.17342400  0.84699700  0.53476000  1
  I  I27  1  0.54942200  0.09880700  0.60592300  1
  I  I28  1  0.82657600  0.15300300  0.46524000  1
  I  I29  1  0.45057800  0.90119300  0.39407700  1
  I  I30  1  0.32588700  0.15218000  0.46536500  1
  I  I31  1  0.68177500  0.36331500  0.54000700  1
  I  I32  1  0.95961600  0.41909600  0.39190900  1
  I  I33  1  0.60390900  0.20811900  0.31717400  1
  I  I34  1  0.83541500  0.67081000  0.46315400  1
  I  I35  1  0.45914900  0.41836200  0.39203500  1
  I  I36  1  0.11208300  0.72409500  0.32248300  1
  I  I37  1  0.73647900  0.47316500  0.25129200  1
  I  I38  1  0.61165600  0.72342800  0.32260900  1
  I  I39  1  0.96731600  0.93440700  0.39724900  1
  I  I40  1  0.24496300  0.99039600  0.24919600  1
  I  I41  1  0.88829100  0.77881900  0.17455800  1
  I  I42  1  0.12137400  0.24269900  0.32039800  1
  I  I43  1  0.74514900  0.98969700  0.24938300  1
  I  I44  1  0.02119700  0.04362600  0.10886700  1
  I  I45  1  0.39728100  0.29495700  0.17985900  1
  I  I46  1  0.89728600  0.29562400  0.17995300  1
  I  I47  1  0.25299000  0.50579800  0.25443600  1
  I  I48  1  0.53019700  0.55873600  0.10590000  1
  I  I49  1  0.15701700  0.35048200  0.03089400  1
  I  I50  1  0.03183000  0.56223400  0.10707300  1
  I  I51  1  0.40850200  0.81661200  0.17695500  1
  I  I52  1  0.68135600  0.85916300  0.03632300  1
  I  I53  1  0.18747300  0.87596400  0.03773300  1
  I  I54  1  0.53964800  0.07725400  0.11153500  1
  I  I55  1  0.70436800  0.38403300  0.03570400  1
loop_
_geom_bond_atom_site_label_1
_geom_bond_atom_site_label_2
_geom_bond_distance
_geom_bond_site_symmetry_2
Ag0 I49 2.893597 1_555
Ag0 I9 2.893597 1_454
Ag0 I55 2.982560 1_455
Ag0 I0 2.982560 1_554
Ag0 I53 3.430616 1_555
Ag0 I1 3.430616 1_454
Ag1 I10 2.959798 1_545
Ag1 I2 3.010479 1_545
Ag1 I5 3.035186 1_555
Ag1 I15 3.070032 1_655
Ag1 I4 3.279467 1_555
Ag1 I11 3.388660 1_545
Ag2 I10 2.958889 1_445
Ag2 I2 2.999561 1_545
Ag2 I5 3.036242 1_555
Ag2 I15 3.038736 1_555
Ag2 I6 3.348973 1_555
Ag2 I7 3.378286 1_545
Ag3 I19 3.009077 1_555
Ag3 I8 3.011817 1_555
Ag3 I23 3.026778 1_555
Ag3 I13 3.031927 1_555
Ag3 I14 3.331593 1_565
Ag3 I16 3.353282 1_555
Ag4 I19 3.004461 1_555
Ag4 I8 3.019806 1_455
Ag4 I13 3.026867 1_455
Ag4 I23 3.036348 1_555
Ag4 I12 3.329673 1_565
Ag4 I18 3.355979 1_455
Ag5 I29 3.012492 1_555
Ag5 I34 3.016947 1_555
Ag5 I39 3.026856 1_555
Ag5 I25 3.029465 1_555
Ag5 I35 3.339584 1_555
Ag5 I28 3.350251 1_565
Ag6 I29 3.017044 1_555
Ag6 I39 3.017474 1_455
Ag6 I25 3.021445 1_555
Ag6 I34 3.023365 1_455
Ag6 I32 3.338780 1_455
Ag6 I30 3.347432 1_565
Ag7 I27 3.017044 1_555
Ag7 I17 3.017474 1_655
Ag7 I31 3.021445 1_555
Ag7 I21 3.023365 1_655
Ag7 I22 3.338780 1_655
Ag7 I24 3.347432 1_545
Ag8 I27 3.012492 1_555
Ag8 I21 3.016947 1_555
Ag8 I17 3.026856 1_555
Ag8 I31 3.029465 1_555
Ag8 I20 3.339584 1_555
Ag8 I26 3.350251 1_545
Ag9 I37 3.009077 1_555
Ag9 I47 3.011817 1_555
Ag9 I33 3.026778 1_555
Ag9 I42 3.031927 1_555
Ag9 I40 3.331593 1_545
Ag9 I38 3.353282 1_555
Ag10 I37 3.004461 1_555
Ag10 I47 3.019806 1_655
Ag10 I42 3.026867 1_655
Ag10 I33 3.036348 1_555
Ag10 I43 3.329673 1_545
Ag10 I36 3.355979 1_655
Ag11 I44 2.958889 1_665
Ag11 I54 2.999561 1_565
Ag11 I51 3.036242 1_555
Ag11 I41 3.038736 1_555
Ag11 I48 3.348973 1_555
Ag11 I46 3.378286 1_565
Ag12 I44 2.959798 1_565
Ag12 I54 3.010479 1_565
Ag12 I51 3.035186 1_555
Ag12 I41 3.070032 1_455
Ag12 I50 3.279467 1_555
Ag12 I45 3.388660 1_565
Bi0 I49 3.095835 1_555
Bi0 I9 3.095835 1_444
Bi0 I53 3.140145 1_545
Bi0 I1 3.140145 1_454
Bi0 I3 3.142548 1_554
Bi0 I52 3.142548 1_445
Bi1 I0 3.011811 1_555
Bi1 I3 3.059669 1_555
Bi1 I1 3.115664 1_455
Bi1 I6 3.165157 1_555
Bi1 I10 3.201442 1_445
Bi1 I4 3.217201 1_455
Bi2 I4 3.090521 1_455
Bi2 I15 3.105602 1_555
Bi2 I2 3.112557 1_555
Bi2 I6 3.113225 1_555
Bi2 I7 3.161927 1_555
Bi2 I11 3.182342 1_555
Bi3 I23 3.106489 1_545
Bi3 I8 3.109549 1_555
Bi3 I12 3.120364 1_555
Bi3 I14 3.124991 1_555
Bi3 I16 3.149781 1_555
Bi3 I18 3.153198 1_555
Bi4 I13 3.101610 1_555
Bi4 I27 3.114524 1_555
Bi4 I18 3.124368 1_555
Bi4 I16 3.127216 1_555
Bi4 I22 3.147260 1_655
Bi4 I20 3.148720 1_555
Bi5 I25 3.107842 1_555
Bi5 I39 3.107976 1_445
Bi5 I32 3.132131 1_455
Bi5 I35 3.132285 1_555
Bi5 I30 3.141047 1_555
Bi5 I28 3.141596 1_455
Bi6 I42 3.101610 1_555
Bi6 I29 3.114524 1_555
Bi6 I36 3.124368 1_555
Bi6 I38 3.127216 1_555
Bi6 I32 3.147260 1_455
Bi6 I35 3.148720 1_555
Bi7 I5 3.101857 1_565
Bi7 I11 3.104651 1_555
Bi7 I7 3.111559 1_555
Bi7 I19 3.120991 1_555
Bi7 I14 3.163362 1_565
Bi7 I12 3.169664 1_565
Bi8 I21 3.107875 1_555
Bi8 I34 3.107875 1_445
Bi8 I24 3.135931 1_445
Bi8 I30 3.135931 1_555
Bi8 I28 3.136236 1_455
Bi8 I26 3.136236 1_545
Bi9 I33 3.106489 1_565
Bi9 I47 3.109549 1_555
Bi9 I43 3.120364 1_555
Bi9 I40 3.124991 1_555
Bi9 I38 3.149781 1_555
Bi9 I36 3.153198 1_555
Bi10 I31 3.107842 1_555
Bi10 I17 3.107976 1_665
Bi10 I22 3.132131 1_655
Bi10 I20 3.132285 1_555
Bi10 I24 3.141047 1_555
Bi10 I26 3.141596 1_655
Bi11 I55 3.011811 1_555
Bi11 I52 3.059669 1_555
Bi11 I53 3.115664 1_655
Bi11 I48 3.165157 1_555
Bi11 I44 3.201442 1_665
Bi11 I50 3.217201 1_655
Bi12 I51 3.101857 1_545
Bi12 I45 3.104651 1_555
Bi12 I46 3.111559 1_555
Bi12 I37 3.120991 1_555
Bi12 I40 3.163362 1_545
Bi12 I43 3.169664 1_545
Bi13 I50 3.090521 1_655
Bi13 I41 3.105602 1_555
Bi13 I54 3.112557 1_555
Bi13 I48 3.113225 1_555
Bi13 I46 3.161927 1_555
Bi13 I45 3.182342 1_555
