# generated using pymatgen
data_CeSnRu
_symmetry_space_group_name_H-M   'P 1'
_cell_length_a   6.37386094
_cell_length_b   6.37386094
_cell_length_c   9.98873927
_cell_angle_alpha   75.83704497
_cell_angle_beta   75.83704497
_cell_angle_gamma   44.59527942
_symmetry_Int_Tables_number   1
_chemical_formula_structural   CeSnRu
_chemical_formula_sum   'Ce4 Sn4 Ru4'
_cell_volume   274.76894817
_cell_formula_units_Z   4
loop_
 _symmetry_equiv_pos_site_id
 _symmetry_equiv_pos_as_xyz
  1  'x, y, z'
loop_
 _atom_site_type_symbol
 _atom_site_label
 _atom_site_symmetry_multiplicity
 _atom_site_fract_x
 _atom_site_fract_y
 _atom_site_fract_z
 _atom_site_occupancy
  Ce  Ce0  1  0.13447624  0.13447624  0.58293371  1
  Ce  Ce1  1  0.86552376  0.86552376  0.41706629  1
  Ce  Ce2  1  0.86511036  0.86511036  0.91694488  1
  Ce  Ce3  1  0.13488964  0.13488964  0.08305512  1
  Sn  Sn0  1  0.41400252  0.41400252  0.16195786  1
  Sn  Sn1  1  0.41319872  0.41319872  0.66169010  1
  Sn  Sn2  1  0.58599748  0.58599748  0.83804214  1
  Sn  Sn3  1  0.58680128  0.58680128  0.33830990  1
  Ru  Ru0  1  0.81298341  0.81298341  0.15622871  1
  Ru  Ru1  1  0.18760003  0.18760003  0.34302408  1
  Ru  Ru2  1  0.18701659  0.18701659  0.84377129  1
  Ru  Ru3  1  0.81239997  0.81239997  0.65697592  1
loop_
_geom_bond_atom_site_label_1
_geom_bond_atom_site_label_2
_geom_bond_distance
_geom_bond_site_symmetry_2
Ce0 Ru1 2.311089 1_555
Ce0 Ru2 2.833069 1_555
Ce0 Sn2 3.449368 1_545
Ce0 Sn2 3.449368 1_455
Ce0 Sn1 3.491816 1_455
Ce0 Sn1 3.491816 1_545
Ce0 Sn1 3.576823 1_555
Ce0 Sn3 3.586358 1_455
Ce0 Sn3 3.586358 1_545
Ce1 Ru3 2.311089 1_555
Ce1 Ru0 2.833069 1_555
Ce1 Sn0 3.449368 1_565
Ce1 Sn0 3.449368 1_655
Ce1 Sn3 3.491816 1_565
Ce1 Sn3 3.491816 1_655
Ce1 Sn3 3.576823 1_555
Ce1 Sn1 3.586358 1_655
Ce1 Sn1 3.586358 1_565
Ce2 Ru0 2.305115 1_556
Ce2 Ru3 2.825517 1_555
Ce2 Sn1 3.450524 1_565
Ce2 Sn1 3.450524 1_655
Ce2 Sn2 3.488691 1_565
Ce2 Sn2 3.488691 1_655
Ce2 Sn2 3.582000 1_555
Ce2 Sn0 3.594032 1_566
Ce2 Sn0 3.594032 1_656
Ce3 Ru2 2.305115 1_554
Ce3 Ru1 2.825517 1_555
Ce3 Sn3 3.450524 1_545
Ce3 Sn3 3.450524 1_455
Ce3 Sn0 3.488691 1_455
Ce3 Sn0 3.488691 1_545
Ce3 Sn0 3.582000 1_555
Ce3 Sn2 3.594032 1_454
Ce3 Sn2 3.594032 1_544
Sn0 Sn3 3.025827 1_555
Sn0 Sn2 3.333497 1_554
Sn1 Sn2 3.025827 1_555
Sn1 Sn3 3.335903 1_555
Ru0 Sn0 2.703220 1_655
Ru0 Sn0 2.703220 1_565
Ru0 Sn3 2.803271 1_555
Ru1 Sn3 2.700685 1_455
Ru1 Sn3 2.700685 1_545
Ru1 Sn0 2.801294 1_555
Ru2 Sn2 2.703220 1_455
Ru2 Sn2 2.703220 1_545
Ru2 Sn1 2.803271 1_555
Ru3 Sn1 2.700685 1_565
Ru3 Sn1 2.700685 1_655
Ru3 Sn2 2.801294 1_555
