# generated using pymatgen
data_Re3(SeBr)7
_symmetry_space_group_name_H-M   'P 1'
_cell_length_a   9.87311886
_cell_length_b   9.87311886
_cell_length_c   24.65127900
_cell_angle_alpha   90.00000000
_cell_angle_beta   90.00000000
_cell_angle_gamma   120.00000579
_symmetry_Int_Tables_number   1
_chemical_formula_structural   Re3(SeBr)7
_chemical_formula_sum   'Re12 Se28 Br28'
_cell_volume   2081.03217309
_cell_formula_units_Z   4
loop_
 _symmetry_equiv_pos_site_id
 _symmetry_equiv_pos_as_xyz
  1  'x, y, z'
loop_
 _atom_site_type_symbol
 _atom_site_label
 _atom_site_symmetry_multiplicity
 _atom_site_fract_x
 _atom_site_fract_y
 _atom_site_fract_z
 _atom_site_occupancy
  Re  Re0  1  0.85317100  0.02834600  0.42130700  1
  Re  Re1  1  0.63671900  0.47937600  0.65939300  1
  Re  Re2  1  0.47937600  0.63671900  0.15939300  1
  Re  Re3  1  0.14682900  0.17517500  0.92130700  1
  Re  Re4  1  0.97165400  0.82482500  0.42130700  1
  Re  Re5  1  0.15734300  0.52062400  0.15939300  1
  Re  Re6  1  0.17517500  0.14682900  0.42130700  1
  Re  Re7  1  0.82482500  0.97165400  0.92130700  1
  Re  Re8  1  0.02834600  0.85317100  0.92130700  1
  Re  Re9  1  0.52062400  0.15734300  0.65939300  1
  Re  Re10  1  0.36328100  0.84265700  0.15939300  1
  Re  Re11  1  0.84265700  0.36328100  0.65939300  1
  Se  Se0  1  0.00000000  0.00000000  0.99848000  1
  Se  Se1  1  0.45739200  0.29758500  0.73200900  1
  Se  Se2  1  0.00000000  0.00000000  0.49848000  1
  Se  Se3  1  0.93731600  0.65917900  0.64641300  1
  Se  Se4  1  0.34082100  0.27813700  0.64641300  1
  Se  Se5  1  0.66666700  0.33333300  0.58175700  1
  Se  Se6  1  0.27813700  0.34082100  0.14641300  1
  Se  Se7  1  0.54260800  0.84019300  0.23200900  1
  Se  Se8  1  0.15980700  0.70241500  0.23200900  1
  Se  Se9  1  0.20838100  0.03403800  0.84836400  1
  Se  Se10  1  0.70241500  0.15980700  0.73200900  1
  Se  Se11  1  0.05230900  0.32532100  0.43370200  1
  Se  Se12  1  0.72698800  0.67467900  0.93370200  1
  Se  Se13  1  0.06268400  0.72186300  0.14641300  1
  Se  Se14  1  0.27301200  0.94769100  0.43370200  1
  Se  Se15  1  0.96596200  0.17434300  0.84836400  1
  Se  Se16  1  0.84019300  0.54260800  0.73200900  1
  Se  Se17  1  0.33333300  0.66666700  0.08175700  1
  Se  Se18  1  0.29758500  0.45739200  0.23200900  1
  Se  Se19  1  0.32532100  0.05230900  0.93370200  1
  Se  Se20  1  0.94769100  0.27301200  0.93370200  1
  Se  Se21  1  0.03403800  0.20838100  0.34836400  1
  Se  Se22  1  0.17434300  0.96596200  0.34836400  1
  Se  Se23  1  0.67467900  0.72698800  0.43370200  1
  Se  Se24  1  0.82565700  0.79161900  0.84836400  1
  Se  Se25  1  0.79161900  0.82565700  0.34836400  1
  Se  Se26  1  0.65917900  0.93731600  0.14641300  1
  Se  Se27  1  0.72186300  0.06268400  0.64641300  1
  Br  Br0  1  0.57526000  0.91361000  0.86738700  1
  Br  Br1  1  0.91361000  0.57526000  0.36738700  1
  Br  Br2  1  0.09013000  0.42092500  0.71614500  1
  Br  Br3  1  0.42092500  0.09013000  0.21614500  1
  Br  Br4  1  0.35566900  0.31612900  0.49998700  1
  Br  Br5  1  0.35235400  0.96593300  0.58325900  1
  Br  Br6  1  0.90987000  0.33079500  0.21614500  1
  Br  Br7  1  0.33079500  0.90987000  0.71614500  1
  Br  Br8  1  0.08639000  0.66164900  0.86738700  1
  Br  Br9  1  0.00000000  0.00000000  0.75921200  1
  Br  Br10  1  0.66666700  0.33333300  0.82145300  1
  Br  Br11  1  0.61357800  0.64764600  0.58325900  1
  Br  Br12  1  0.33333300  0.66666700  0.32145300  1
  Br  Br13  1  0.00000000  0.00000000  0.25921200  1
  Br  Br14  1  0.66920500  0.57907500  0.21614500  1
  Br  Br15  1  0.31612900  0.35566900  0.99998700  1
  Br  Br16  1  0.03954000  0.68387100  0.99998700  1
  Br  Br17  1  0.57907500  0.66920500  0.71614500  1
  Br  Br18  1  0.64433100  0.96046000  0.99998700  1
  Br  Br19  1  0.64764600  0.61357800  0.08325900  1
  Br  Br20  1  0.96046000  0.64433100  0.49998700  1
  Br  Br21  1  0.38642200  0.03406700  0.08325900  1
  Br  Br22  1  0.03406700  0.38642200  0.58325900  1
  Br  Br23  1  0.96593300  0.35235400  0.08325900  1
  Br  Br24  1  0.66164900  0.08639000  0.36738700  1
  Br  Br25  1  0.33835100  0.42474000  0.86738700  1
  Br  Br26  1  0.42474000  0.33835100  0.36738700  1
  Br  Br27  1  0.68387100  0.03954000  0.49998700  1
loop_
_geom_bond_atom_site_label_1
_geom_bond_atom_site_label_2
_geom_bond_distance
_geom_bond_site_symmetry_2
Re0 Se2 2.490928 1_655
Re0 Se25 2.528077 1_545
Re0 Se21 2.531304 1_655
Re0 Se11 2.605996 1_655
Re0 Se23 2.609266 1_545
Re1 Se5 2.501115 1_555
Re1 Se16 2.525021 1_555
Re1 Se1 2.526414 1_555
Re1 Se4 2.603900 1_555
Re1 Se3 2.606386 1_555
Re2 Se17 2.501115 1_555
Re2 Se7 2.525021 1_555
Re2 Se18 2.526414 1_555
Re2 Se6 2.603900 1_555
Re2 Se26 2.606386 1_555
Re3 Se0 2.490928 1_555
Re3 Se9 2.528077 1_555
Re3 Se15 2.531304 1_455
Re3 Se20 2.605996 1_455
Re3 Se19 2.609266 1_555
Re4 Se2 2.490928 1_665
Re4 Se22 2.528077 1_655
Re4 Se25 2.531304 1_555
Re4 Se23 2.605996 1_555
Re4 Se14 2.609266 1_655
Re5 Se17 2.501111 1_555
Re5 Se18 2.525021 1_555
Re5 Se8 2.526414 1_555
Re5 Se13 2.603900 1_555
Re5 Se6 2.606387 1_555
Re6 Se2 2.490928 1_555
Re6 Se21 2.528077 1_555
Re6 Se22 2.531304 1_545
Re6 Se14 2.605996 1_545
Re6 Se11 2.609266 1_555
Re7 Se0 2.490928 1_665
Re7 Se15 2.528077 1_565
Re7 Se24 2.531304 1_555
Re7 Se12 2.605996 1_555
Re7 Se20 2.609266 1_565
Re8 Se0 2.490928 1_565
Re8 Se24 2.528077 1_455
Re8 Se9 2.531304 1_565
Re8 Se19 2.605996 1_565
Re8 Se12 2.609266 1_455
Re9 Se5 2.501111 1_555
Re9 Se1 2.525021 1_555
Re9 Se10 2.526414 1_555
Re9 Se27 2.603900 1_555
Re9 Se4 2.606387 1_555
Re10 Se17 2.501109 1_555
Re10 Se8 2.525021 1_555
Re10 Se7 2.526414 1_555
Re10 Se26 2.603900 1_555
Re10 Se13 2.606386 1_555
Re11 Se5 2.501109 1_555
Re11 Se10 2.525021 1_555
Re11 Se16 2.526414 1_555
Re11 Se3 2.603900 1_555
Re11 Se27 2.606386 1_555
Se1 Se4 2.364912 1_555
Se10 Se27 2.364912 1_555
Se11 Se21 2.362794 1_555
Se12 Se24 2.362794 1_555
Se13 Se8 2.364912 1_555
Se14 Se22 2.362794 1_555
Se15 Se20 2.362794 1_555
Se16 Se3 2.364912 1_555
Se18 Se6 2.364912 1_555
Se19 Se9 2.362794 1_555
Se23 Se25 2.362794 1_555
Se26 Se7 2.364912 1_555
Br0 Re7 2.598914 1_555
Br1 Re4 2.598914 1_555
Br2 Re11 2.619243 1_455
Br3 Re10 2.619243 1_545
Br4 Re6 2.598621 1_555
Br5 Re9 2.591181 1_565
Br6 Re5 2.619242 1_655
Br7 Re9 2.619242 1_565
Br8 Re8 2.598922 1_555
Br9 Se24 2.912772 1_445
Br9 Se9 2.912772 1_555
Br9 Se15 2.912772 1_455
Br10 Se10 2.919944 1_555
Br10 Se16 2.919948 1_555
Br10 Se1 2.919950 1_555
Br11 Re1 2.591185 1_555
Br12 Se8 2.919944 1_555
Br12 Se7 2.919948 1_555
Br12 Se18 2.919950 1_555
Br13 Se25 2.912772 1_445
Br13 Se21 2.912772 1_555
Br13 Se22 2.912772 1_545
Br14 Re2 2.619243 1_555
Br15 Re3 2.598621 1_555
Br16 Re8 2.598621 1_555
Br17 Re1 2.619243 1_555
Br18 Re7 2.598621 1_555
Br19 Re2 2.591185 1_555
Br20 Re4 2.598621 1_555
Br21 Re10 2.591178 1_545
Br22 Re11 2.591178 1_455
Br23 Re5 2.591181 1_655
Br24 Re0 2.598922 1_555
Br25 Re3 2.598916 1_555
Br26 Re6 2.598916 1_555
Br27 Re0 2.598621 1_555
