# generated using pymatgen
data_Ca3Zr2Fe2SiO12
_symmetry_space_group_name_H-M   'P 1'
_cell_length_a   11.07186628
_cell_length_b   11.07186628
_cell_length_c   11.07186628
_cell_angle_alpha   108.95630571
_cell_angle_beta   108.95630571
_cell_angle_gamma   110.50603274
_symmetry_Int_Tables_number   1
_chemical_formula_structural   Ca3Zr2Fe2SiO12
_chemical_formula_sum   'Ca12 Zr8 Fe8 Si4 O48'
_cell_volume   1044.56176078
_cell_formula_units_Z   4
loop_
 _symmetry_equiv_pos_site_id
 _symmetry_equiv_pos_as_xyz
  1  'x, y, z'
loop_
 _atom_site_type_symbol
 _atom_site_label
 _atom_site_symmetry_multiplicity
 _atom_site_fract_x
 _atom_site_fract_y
 _atom_site_fract_z
 _atom_site_occupancy
  Ca  Ca0  1  0.25000000  0.25000000  0.00000000  1
  Ca  Ca1  1  0.37500000  0.74938800  0.87438800  1
  Ca  Ca2  1  0.99938800  0.62500000  0.87438800  1
  Ca  Ca3  1  0.75000000  0.75000000  0.00000000  1
  Ca  Ca4  1  0.37500000  0.24938800  0.37438800  1
  Ca  Ca5  1  0.75061200  0.12500000  0.12561200  1
  Ca  Ca6  1  0.49938800  0.62500000  0.37438800  1
  Ca  Ca7  1  0.50000000  0.00000000  0.50000000  1
  Ca  Ca8  1  0.87500000  0.50061200  0.12561200  1
  Ca  Ca9  1  0.25061200  0.12500000  0.62561200  1
  Ca  Ca10  1  0.87500000  0.00061200  0.62561200  1
  Ca  Ca11  1  0.00000000  0.50000000  0.50000000  1
  Zr  Zr0  1  0.12500000  0.87500000  0.75000000  1
  Zr  Zr1  1  0.62500000  0.87500000  0.75000000  1
  Zr  Zr2  1  0.62500000  0.37500000  0.75000000  1
  Zr  Zr3  1  0.12500000  0.87500000  0.25000000  1
  Zr  Zr4  1  0.12500000  0.37500000  0.25000000  1
  Zr  Zr5  1  0.62500000  0.87500000  0.25000000  1
  Zr  Zr6  1  0.62500000  0.37500000  0.25000000  1
  Zr  Zr7  1  0.12500000  0.37500000  0.75000000  1
  Fe  Fe0  1  0.50074600  0.12500000  0.87574600  1
  Fe  Fe1  1  0.87500000  0.25074600  0.87574600  1
  Fe  Fe2  1  0.37500000  0.99925400  0.12425400  1
  Fe  Fe3  1  0.24925400  0.62500000  0.12425400  1
  Fe  Fe4  1  0.00074600  0.12500000  0.37574600  1
  Fe  Fe5  1  0.87500000  0.75074600  0.37574600  1
  Fe  Fe6  1  0.37500000  0.49925400  0.62425400  1
  Fe  Fe7  1  0.74925400  0.62500000  0.62425400  1
  Si  Si0  1  0.50000000  0.50000000  0.00000000  1
  Si  Si1  1  0.00000000  0.00000000  0.00000000  1
  Si  Si2  1  0.25000000  0.75000000  0.50000000  1
  Si  Si3  1  0.75000000  0.25000000  0.50000000  1
  O  O0  1  0.32709100  0.37668500  0.86456400  1
  O  O1  1  0.54716200  0.97504100  0.87626100  1
  O  O2  1  0.53020900  0.69396500  0.78030200  1
  O  O3  1  0.30603500  0.08633700  0.83624400  1
  O  O4  1  0.03020900  0.24990700  0.83624400  1
  O  O5  1  0.03747300  0.98787900  0.86456400  1
  O  O6  1  0.22504100  0.84878000  0.92787900  1
  O  O7  1  0.41366300  0.19396500  0.16375600  1
  O  O8  1  0.53747300  0.67290900  0.04959400  1
  O  O9  1  0.52495900  0.95283800  0.12373900  1
  O  O10  1  0.92090100  0.29716200  0.07212100  1
  O  O11  1  0.75009300  0.58633700  0.78030200  1
  O  O12  1  0.20283800  0.57909900  0.92787900  1
  O  O13  1  0.82709100  0.96252700  0.95040600  1
  O  O14  1  0.12331500  0.17290900  0.13543600  1
  O  O15  1  0.65122000  0.27495900  0.07212100  1
  O  O16  1  0.01212100  0.87668500  0.04959400  1
  O  O17  1  0.82909900  0.40122000  0.87626100  1
  O  O18  1  0.51212100  0.46252700  0.13543600  1
  O  O19  1  0.33633700  0.00009300  0.28030200  1
  O  O20  1  0.44396500  0.78020900  0.28030200  1
  O  O21  1  0.09878000  0.67090100  0.12373900  1
  O  O22  1  0.99990700  0.28020900  0.33624400  1
  O  O23  1  0.62331500  0.48787900  0.95040600  1
  O  O24  1  0.62668500  0.26212100  0.54959400  1
  O  O25  1  0.25009300  0.46979100  0.16375600  1
  O  O26  1  0.15122000  0.07909900  0.37626100  1
  O  O27  1  0.80603500  0.96979100  0.21969800  1
  O  O28  1  0.91366300  0.74990700  0.21969800  1
  O  O29  1  0.73787900  0.28747300  0.36456400  1
  O  O30  1  0.42090100  0.34878000  0.62373900  1
  O  O31  1  0.23787900  0.87331500  0.45040600  1
  O  O32  1  0.59878000  0.47504100  0.42787900  1
  O  O33  1  0.12668500  0.57709100  0.36456400  1
  O  O34  1  0.42290900  0.78747300  0.54959400  1
  O  O35  1  0.04716200  0.17090100  0.57212100  1
  O  O36  1  0.49990700  0.16366300  0.71969800  1
  O  O37  1  0.32909900  0.45283800  0.42787900  1
  O  O38  1  0.72504100  0.79716200  0.37626100  1
  O  O39  1  0.71252700  0.07709100  0.45040600  1
  O  O40  1  0.83633700  0.55603500  0.33624400  1
  O  O41  1  0.02495900  0.90122000  0.57212100  1
  O  O42  1  0.21252700  0.76212100  0.63543600  1
  O  O43  1  0.21979100  0.50009300  0.66375600  1
  O  O44  1  0.94396500  0.66366300  0.66375600  1
  O  O45  1  0.71979100  0.05603500  0.71969800  1
  O  O46  1  0.70283800  0.77495900  0.62373900  1
  O  O47  1  0.92290900  0.37331500  0.63543600  1
loop_
_geom_bond_atom_site_label_1
_geom_bond_atom_site_label_2
_geom_bond_distance
_geom_bond_site_symmetry_2
Ca0 O14 2.510735 1_555
Ca0 O0 2.510735 1_554
Ca0 O18 2.510735 1_555
Ca0 O5 2.510735 1_544
Ca0 O7 2.517871 1_555
Ca0 O4 2.517871 1_554
Ca0 O25 2.517871 1_555
Ca0 O3 2.517871 1_554
Ca1 O6 2.411216 1_555
Ca1 O9 2.411216 1_556
Ca1 O2 2.429262 1_555
Ca1 O43 2.429262 1_555
Ca1 O12 2.545577 1_555
Ca1 O1 2.545577 1_555
Ca1 O8 2.753771 1_556
Ca1 O42 2.753771 1_555
Ca2 O12 2.411216 1_655
Ca2 O21 2.411216 1_656
Ca2 O44 2.429262 1_555
Ca2 O11 2.429262 1_555
Ca2 O17 2.545577 1_555
Ca2 O6 2.545577 1_655
Ca2 O16 2.753771 1_656
Ca2 O47 2.753771 1_555
Ca3 O23 2.510735 1_554
Ca3 O13 2.510735 1_554
Ca3 O16 2.510735 1_655
Ca3 O8 2.510735 1_555
Ca3 O2 2.517871 1_554
Ca3 O11 2.517871 1_554
Ca3 O28 2.517871 1_555
Ca3 O27 2.517871 1_555
Ca4 O30 2.411216 1_555
Ca4 O37 2.411216 1_555
Ca4 O19 2.429262 1_555
Ca4 O7 2.429262 1_555
Ca4 O32 2.545577 1_555
Ca4 O26 2.545577 1_555
Ca4 O14 2.753771 1_555
Ca4 O24 2.753771 1_555
Ca5 O15 2.411216 1_555
Ca5 O1 2.411216 1_544
Ca5 O22 2.429262 1_555
Ca5 O27 2.429262 1_545
Ca5 O10 2.545577 1_555
Ca5 O9 2.545577 1_545
Ca5 O29 2.753771 1_555
Ca5 O13 2.753771 1_544
Ca6 O46 2.411216 1_555
Ca6 O32 2.411216 1_555
Ca6 O25 2.429262 1_555
Ca6 O20 2.429262 1_555
Ca6 O37 2.545577 1_555
Ca6 O38 2.545577 1_555
Ca6 O18 2.753771 1_555
Ca6 O34 2.753771 1_555
Ca7 O24 2.510735 1_555
Ca7 O31 2.510735 1_545
Ca7 O39 2.510735 1_555
Ca7 O34 2.510735 1_545
Ca7 O45 2.517871 1_555
Ca7 O36 2.517871 1_555
Ca7 O20 2.517871 1_545
Ca7 O19 2.517871 1_555
Ca8 O10 2.411216 1_555
Ca8 O17 2.411216 1_554
Ca8 O40 2.429262 1_555
Ca8 O28 2.429262 1_555
Ca8 O15 2.545577 1_555
Ca8 O21 2.545577 1_655
Ca8 O33 2.753771 1_655
Ca8 O23 2.753771 1_554
Ca9 O26 2.411216 1_555
Ca9 O35 2.411216 1_555
Ca9 O36 2.429262 1_555
Ca9 O3 2.429262 1_555
Ca9 O30 2.545577 1_555
Ca9 O41 2.545577 1_545
Ca9 O31 2.753771 1_545
Ca9 O0 2.753771 1_555
Ca10 O41 2.411216 1_645
Ca10 O38 2.411216 1_545
Ca10 O4 2.429262 1_655
Ca10 O45 2.429262 1_555
Ca10 O35 2.545577 1_655
Ca10 O46 2.545577 1_545
Ca10 O39 2.753771 1_555
Ca10 O5 2.753771 1_645
Ca11 O47 2.510735 1_455
Ca11 O33 2.510735 1_555
Ca11 O42 2.510735 1_555
Ca11 O29 2.510735 1_455
Ca11 O44 2.517871 1_455
Ca11 O43 2.517871 1_555
Ca11 O40 2.517871 1_455
Ca11 O22 2.517871 1_455
Fe0 O1 1.903384 1_545
Fe0 O15 1.903384 1_556
Fe0 O3 1.908218 1_555
Fe0 O36 1.908218 1_555
Fe1 O17 1.903384 1_555
Fe1 O10 1.903384 1_556
Fe1 O4 1.908218 1_655
Fe1 O45 1.908218 1_555
Fe2 O9 1.903384 1_555
Fe2 O6 1.903384 1_554
Fe2 O7 1.908218 1_565
Fe2 O19 1.908218 1_565
Fe3 O21 1.903384 1_555
Fe3 O12 1.903384 1_554
Fe3 O25 1.908218 1_555
Fe3 O20 1.908218 1_555
Fe4 O35 1.903384 1_555
Fe4 O26 1.903384 1_555
Fe4 O22 1.908218 1_455
Fe4 O27 1.908218 1_445
Fe5 O41 1.903384 1_655
Fe5 O38 1.903384 1_555
Fe5 O28 1.908218 1_555
Fe5 O40 1.908218 1_555
Fe6 O37 1.903384 1_555
Fe6 O30 1.903384 1_555
Fe6 O43 1.908218 1_555
Fe6 O2 1.908218 1_555
Fe7 O46 1.903384 1_555
Fe7 O32 1.903384 1_555
Fe7 O44 1.908218 1_555
Fe7 O11 1.908218 1_555
O0 Si0 1.658677 1_556
O0 Zr7 2.174222 1_555
O1 Zr1 2.090300 1_555
O2 Zr1 2.103205 1_555
O3 Zr0 2.103205 1_545
O4 Zr7 2.103205 1_555
O5 Si1 1.658677 1_566
O5 Zr0 2.174222 1_555
O6 Zr0 2.090300 1_555
O7 Zr6 2.103205 1_555
O8 Si0 1.658677 1_555
O8 Zr5 2.174222 1_555
O9 Zr5 2.090300 1_555
O10 Zr4 2.090300 1_655
O11 Zr2 2.103205 1_555
O12 Zr7 2.090300 1_555
O13 Si1 1.658677 1_666
O13 Zr1 2.174222 1_555
O14 Si1 1.658677 1_555
O14 Zr4 2.174222 1_555
O15 Zr6 2.090300 1_555
O16 Si1 1.658677 1_565
O16 Zr3 2.174222 1_555
O17 Zr2 2.090300 1_555
O18 Si0 1.658677 1_555
O18 Zr6 2.174222 1_555
O19 Zr3 2.103205 1_545
O20 Zr5 2.103205 1_555
O21 Zr3 2.090300 1_555
O22 Zr4 2.103205 1_655
O23 Si0 1.658677 1_556
O23 Zr2 2.174222 1_555
O24 Si3 1.658677 1_555
O24 Zr2 2.174222 1_555
O25 Zr4 2.103205 1_555
O26 Zr3 2.090300 1_545
O27 Zr5 2.103205 1_555
O28 Zr3 2.103205 1_655
O29 Si3 1.658677 1_555
O29 Zr6 2.174222 1_555
O30 Zr2 2.090300 1_555
O31 Si2 1.658677 1_555
O31 Zr3 2.174222 1_555
O32 Zr6 2.090300 1_555
O33 Si2 1.658677 1_555
O33 Zr4 2.174222 1_555
O34 Si2 1.658677 1_555
O34 Zr1 2.174222 1_555
O35 Zr7 2.090300 1_555
O36 Zr2 2.103205 1_555
O37 Zr4 2.090300 1_555
O38 Zr5 2.090300 1_555
O39 Si3 1.658677 1_555
O39 Zr5 2.174222 1_545
O40 Zr6 2.103205 1_555
O41 Zr0 2.090300 1_555
O42 Si2 1.658677 1_555
O42 Zr0 2.174222 1_555
O43 Zr7 2.103205 1_555
O44 Zr0 2.103205 1_655
O45 Zr1 2.103205 1_545
O46 Zr1 2.090300 1_555
O47 Si3 1.658677 1_555
O47 Zr7 2.174222 1_655
