# generated using pymatgen
data_Tl2(ReSe2)3
_symmetry_space_group_name_H-M   'P 1'
_cell_length_a   10.07807633
_cell_length_b   10.07807633
_cell_length_c   12.36449158
_cell_angle_alpha   89.44600767
_cell_angle_beta   89.44600767
_cell_angle_gamma   59.85630893
_symmetry_Int_Tables_number   1
_chemical_formula_structural   Tl2(ReSe2)3
_chemical_formula_sum   'Tl8 Re12 Se24'
_cell_volume   1085.93667989
_cell_formula_units_Z   4
loop_
 _symmetry_equiv_pos_site_id
 _symmetry_equiv_pos_as_xyz
  1  'x, y, z'
loop_
 _atom_site_type_symbol
 _atom_site_label
 _atom_site_symmetry_multiplicity
 _atom_site_fract_x
 _atom_site_fract_y
 _atom_site_fract_z
 _atom_site_occupancy
  Tl  Tl0  1  0.35373257  0.85777326  0.51016681  1
  Tl  Tl1  1  0.78674927  0.21325073  0.75000000  1
  Tl  Tl2  1  0.14222674  0.64626743  0.98983319  1
  Tl  Tl3  1  0.21325073  0.78674927  0.25000000  1
  Tl  Tl4  1  0.40815229  0.59184771  0.75000000  1
  Tl  Tl5  1  0.85777326  0.35373257  0.01016681  1
  Tl  Tl6  1  0.64626743  0.14222674  0.48983319  1
  Tl  Tl7  1  0.59184771  0.40815229  0.25000000  1
  Re  Re0  1  0.52948935  0.88401793  0.12616235  1
  Re  Re1  1  0.18049642  0.39992234  0.58133976  1
  Re  Re2  1  0.99154824  0.68611889  0.52336460  1
  Re  Re3  1  0.68611889  0.99154824  0.02336460  1
  Re  Re4  1  0.00845176  0.31388111  0.47663540  1
  Re  Re5  1  0.47051065  0.11598207  0.87383765  1
  Re  Re6  1  0.39992234  0.18049642  0.08133976  1
  Re  Re7  1  0.31388111  0.00845176  0.97663540  1
  Re  Re8  1  0.60007766  0.81950358  0.91866024  1
  Re  Re9  1  0.88401793  0.52948935  0.62616235  1
  Re  Re10  1  0.11598207  0.47051065  0.37383765  1
  Re  Re11  1  0.81950358  0.60007766  0.41866024  1
  Se  Se0  1  0.74851450  0.92794560  0.82605382  1
  Se  Se1  1  0.80362155  0.70628641  0.06509126  1
  Se  Se2  1  0.92794560  0.74851450  0.32605382  1
  Se  Se3  1  0.25148550  0.07205440  0.17394618  1
  Se  Se4  1  0.70628641  0.80362155  0.56509126  1
  Se  Se5  1  0.94743909  0.39022778  0.27969816  1
  Se  Se6  1  0.55463927  0.27890590  0.97789261  1
  Se  Se7  1  0.56259387  0.72630972  0.30512450  1
  Se  Se8  1  0.93579364  0.98911916  0.07978766  1
  Se  Se9  1  0.06420636  0.01088084  0.92021234  1
  Se  Se10  1  0.07205440  0.25148550  0.67394618  1
  Se  Se11  1  0.01088084  0.06420636  0.42021234  1
  Se  Se12  1  0.19637845  0.29371359  0.93490874  1
  Se  Se13  1  0.72630972  0.56259387  0.80512450  1
  Se  Se14  1  0.39022778  0.94743909  0.77969816  1
  Se  Se15  1  0.98911916  0.93579364  0.57978766  1
  Se  Se16  1  0.72109410  0.44536073  0.52210739  1
  Se  Se17  1  0.60977222  0.05256091  0.22030184  1
  Se  Se18  1  0.43740613  0.27369028  0.69487550  1
  Se  Se19  1  0.27369028  0.43740613  0.19487550  1
  Se  Se20  1  0.27890590  0.55463927  0.47789261  1
  Se  Se21  1  0.29371359  0.19637845  0.43490874  1
  Se  Se22  1  0.44536073  0.72109410  0.02210739  1
  Se  Se23  1  0.05256091  0.60977222  0.72030184  1
loop_
_geom_bond_atom_site_label_1
_geom_bond_atom_site_label_2
_geom_bond_distance
_geom_bond_site_symmetry_2
Re0 Se17 2.516236 1_565
Re0 Se1 2.535148 1_555
Re0 Se3 2.539134 1_565
Re0 Se22 2.555450 1_555
Re0 Se7 2.635822 1_555
Re1 Se10 2.515566 1_555
Re1 Se23 2.525097 1_555
Re1 Se21 2.543435 1_555
Re1 Se20 2.557528 1_555
Re1 Se18 2.649611 1_555
Re2 Se2 2.520699 1_555
Re2 Se23 2.533186 1_655
Re2 Se4 2.549003 1_555
Re2 Se20 2.566643 1_655
Re2 Se15 2.605863 1_555
Re3 Se0 2.520699 1_554
Re3 Se17 2.533186 1_565
Re3 Se1 2.549003 1_555
Re3 Se6 2.566643 1_564
Re3 Se8 2.605863 1_555
Re4 Se10 2.520699 1_555
Re4 Se5 2.533186 1_455
Re4 Se21 2.549003 1_555
Re4 Se16 2.566643 1_455
Re4 Se11 2.605863 1_555
Re5 Se14 2.516236 1_545
Re5 Se12 2.535148 1_555
Re5 Se0 2.539134 1_545
Re5 Se6 2.555450 1_555
Re5 Se18 2.635822 1_555
Re6 Se3 2.515566 1_555
Re6 Se17 2.525097 1_555
Re6 Se12 2.543435 1_554
Re6 Se6 2.557528 1_554
Re6 Se19 2.649611 1_555
Re7 Se3 2.520699 1_556
Re7 Se14 2.533186 1_545
Re7 Se12 2.549003 1_555
Re7 Se22 2.566643 1_546
Re7 Se9 2.605863 1_555
Re8 Se0 2.515566 1_555
Re8 Se14 2.525097 1_555
Re8 Se1 2.543435 1_556
Re8 Se22 2.557528 1_556
Re8 Se13 2.649611 1_555
Re9 Se23 2.516236 1_655
Re9 Se4 2.535148 1_555
Re9 Se10 2.539134 1_655
Re9 Se16 2.555450 1_555
Re9 Se13 2.635822 1_555
Re10 Se5 2.516236 1_455
Re10 Se21 2.535148 1_555
Re10 Se2 2.539134 1_455
Re10 Se20 2.555450 1_555
Re10 Se19 2.635822 1_555
Re11 Se2 2.515566 1_555
Re11 Se5 2.525097 1_555
Re11 Se4 2.543435 1_555
Re11 Se16 2.557528 1_555
Re11 Se7 2.649611 1_555
Se0 Tl1 3.217724 1_565
Se1 Tl2 3.279211 1_654
Se1 Tl5 3.387523 1_555
Se2 Tl3 3.217724 1_655
Se3 Tl3 3.217724 1_545
Se4 Tl6 3.279211 1_565
Se4 Tl0 3.387523 1_555
Se7 Tl0 3.126397 1_555
Se7 Tl7 3.149845 1_555
Se7 Tl3 3.333993 1_555
Se8 Se9 2.417280 1_664
Se8 Tl2 3.211568 1_654
Se8 Tl3 3.272751 1_655
Se9 Tl5 3.211568 1_456
Se9 Tl1 3.272751 1_455
Se10 Tl1 3.217724 1_455
Se11 Se15 2.417280 1_445
Se11 Tl0 3.211568 1_545
Se11 Tl3 3.272751 1_545
Se12 Tl5 3.279211 1_456
Se12 Tl2 3.387523 1_555
Se13 Tl5 3.126397 1_556
Se13 Tl4 3.149845 1_555
Se13 Tl1 3.333993 1_555
Se15 Tl6 3.211568 1_565
Se15 Tl1 3.272751 1_565
Se18 Tl6 3.126397 1_555
Se18 Tl4 3.149845 1_555
Se18 Tl1 3.333993 1_555
Se19 Tl2 3.126397 1_554
Se19 Tl7 3.149845 1_555
Se19 Tl3 3.333993 1_555
Se21 Tl0 3.279211 1_545
Se21 Tl6 3.387523 1_555
