# generated using pymatgen
data_Ti2H2CSe4Cl16O5
_symmetry_space_group_name_H-M   'P 1'
_cell_length_a   11.21697900
_cell_length_b   11.19685900
_cell_length_c   14.80559539
_cell_angle_alpha   53.20177862
_cell_angle_beta   90.00000000
_cell_angle_gamma   90.00000000
_symmetry_Int_Tables_number   1
_chemical_formula_structural   Ti2H2CSe4Cl16O5
_chemical_formula_sum   'Ti4 H4 C2 Se8 Cl32 O10'
_cell_volume   1489.00076711
_cell_formula_units_Z   2
loop_
 _symmetry_equiv_pos_site_id
 _symmetry_equiv_pos_as_xyz
  1  'x, y, z'
loop_
 _atom_site_type_symbol
 _atom_site_label
 _atom_site_symmetry_multiplicity
 _atom_site_fract_x
 _atom_site_fract_y
 _atom_site_fract_z
 _atom_site_occupancy
  Ti  Ti0  1  0.13451300  0.58243800  0.43230400  1
  Ti  Ti1  1  0.13451300  0.41756200  0.06769600  1
  Ti  Ti2  1  0.86548700  0.58243800  0.93230400  1
  Ti  Ti3  1  0.86548700  0.41756200  0.56769600  1
  H  H0  1  0.15052000  0.96301100  0.94985700  1
  H  H1  1  0.15052000  0.03698900  0.55014300  1
  H  H2  1  0.84948000  0.96301100  0.44985700  1
  H  H3  1  0.84948000  0.03698900  0.05014300  1
  C  C0  1  0.07724800  0.00000000  0.25000000  1
  C  C1  1  0.92275200  0.00000000  0.75000000  1
  Se  Se0  1  0.66409300  0.00093500  0.36840200  1
  Se  Se1  1  0.66409300  0.99906500  0.13159800  1
  Se  Se2  1  0.63863900  0.19744500  0.15227900  1
  Se  Se3  1  0.63863900  0.80255500  0.34772100  1
  Se  Se4  1  0.36136100  0.19744500  0.65227900  1
  Se  Se5  1  0.36136100  0.80255500  0.84772100  1
  Se  Se6  1  0.33590700  0.00093500  0.86840200  1
  Se  Se7  1  0.33590700  0.99906500  0.63159800  1
  Cl  Cl0  1  0.59406100  0.62317200  0.28107700  1
  Cl  Cl1  1  0.59406100  0.37682800  0.21892300  1
  Cl  Cl2  1  0.69345900  0.65174000  0.94956200  1
  Cl  Cl3  1  0.69345900  0.34826000  0.55043800  1
  Cl  Cl4  1  0.63507600  0.02897400  0.80494800  1
  Cl  Cl5  1  0.63507600  0.97102600  0.69505200  1
  Cl  Cl6  1  0.36764500  0.83441000  0.07709700  1
  Cl  Cl7  1  0.36764500  0.16559000  0.42290300  1
  Cl  Cl8  1  0.80477000  0.57536000  0.59954000  1
  Cl  Cl9  1  0.80477000  0.42464000  0.90046000  1
  Cl  Cl10  1  0.74548100  0.28212700  0.35176800  1
  Cl  Cl11  1  0.74548100  0.71787300  0.14823200  1
  Cl  Cl12  1  0.92561200  0.42037600  0.11813600  1
  Cl  Cl13  1  0.92561200  0.57962400  0.38186400  1
  Cl  Cl14  1  0.90149900  0.18017000  0.47739600  1
  Cl  Cl15  1  0.90149900  0.81983000  0.02260400  1
  Cl  Cl16  1  0.09850100  0.18017000  0.97739600  1
  Cl  Cl17  1  0.09850100  0.81983000  0.52260400  1
  Cl  Cl18  1  0.07438800  0.42037600  0.61813600  1
  Cl  Cl19  1  0.07438800  0.57962400  0.88186400  1
  Cl  Cl20  1  0.25451900  0.28212700  0.85176800  1
  Cl  Cl21  1  0.25451900  0.71787300  0.64823200  1
  Cl  Cl22  1  0.19523000  0.57536000  0.09954000  1
  Cl  Cl23  1  0.19523000  0.42464000  0.40046000  1
  Cl  Cl24  1  0.63235500  0.83441000  0.57709700  1
  Cl  Cl25  1  0.63235500  0.16559000  0.92290300  1
  Cl  Cl26  1  0.36492400  0.02897400  0.30494800  1
  Cl  Cl27  1  0.36492400  0.97102600  0.19505200  1
  Cl  Cl28  1  0.30654100  0.65174000  0.44956200  1
  Cl  Cl29  1  0.30654100  0.34826000  0.05043800  1
  Cl  Cl30  1  0.40593900  0.62317200  0.78107700  1
  Cl  Cl31  1  0.40593900  0.37682800  0.71892300  1
  O  O0  1  0.07655800  0.12505800  0.21797900  1
  O  O1  1  0.07655800  0.87494200  0.28202100  1
  O  O2  1  0.17374600  0.98303100  0.87740000  1
  O  O3  1  0.17374600  0.01696900  0.62260000  1
  O  O4  1  0.85494500  0.50000000  0.75000000  1
  O  O5  1  0.14505500  0.50000000  0.25000000  1
  O  O6  1  0.82625400  0.98303100  0.37740000  1
  O  O7  1  0.82625400  0.01696900  0.12260000  1
  O  O8  1  0.92344200  0.12505800  0.71797900  1
  O  O9  1  0.92344200  0.87494200  0.78202100  1
loop_
_geom_bond_atom_site_label_1
_geom_bond_atom_site_label_2
_geom_bond_distance
_geom_bond_site_symmetry_2
H0 O2 0.990388 1_555
H1 O3 0.990388 1_555
H2 O6 0.990388 1_555
H3 O7 0.990388 1_555
C0 O1 1.179090 1_545
C0 O0 1.179090 1_555
C1 O9 1.179090 1_545
C1 O8 1.179090 1_555
Se0 Se3 2.433915 1_545
Se0 Se2 2.593674 1_555
Se1 Se2 2.433915 1_565
Se1 Se3 2.593674 1_555
Se4 Se7 2.433915 1_545
Se4 Se6 2.593674 1_555
Se5 Se6 2.433915 1_565
Se5 Se7 2.593674 1_555
Cl0 Cl11 2.319304 1_555
Cl0 Se3 2.762609 1_555
Cl1 Cl10 2.319304 1_555
Cl1 Se2 2.762609 1_555
Cl2 Ti2 2.151378 1_555
Cl3 Ti3 2.151378 1_555
Cl4 Cl5 2.081609 1_545
Cl6 Se6 2.499719 1_564
Cl7 Se7 2.499719 1_545
Cl8 O4 1.933732 1_555
Cl8 Ti3 2.192215 1_555
Cl9 O4 1.933732 1_555
Cl9 Ti2 2.192215 1_555
Cl10 Cl14 2.298200 1_555
Cl11 Cl15 2.298200 1_555
Cl12 Ti2 2.310071 1_554
Cl12 Ti1 2.465289 1_655
Cl13 Ti3 2.310071 1_555
Cl13 Ti0 2.465289 1_655
Cl16 Cl20 2.298200 1_555
Cl17 Cl21 2.298200 1_555
Cl18 Ti0 2.310071 1_555
Cl18 Ti3 2.465289 1_455
Cl19 Ti1 2.310071 1_556
Cl19 Ti2 2.465289 1_455
Cl20 Cl31 2.319304 1_555
Cl21 Cl30 2.319304 1_555
Cl22 O5 1.933732 1_555
Cl22 Ti1 2.192215 1_555
Cl23 O5 1.933732 1_555
Cl23 Ti0 2.192215 1_555
Cl24 Se0 2.499719 1_565
Cl25 Se1 2.499719 1_546
Cl26 Cl27 2.081609 1_545
Cl28 Ti0 2.151378 1_555
Cl29 Ti1 2.151378 1_555
Cl30 Se5 2.762609 1_555
Cl31 Se4 2.762609 1_555
O0 Ti1 2.714719 1_555
O1 Ti0 2.714719 1_555
O2 Se6 1.826073 1_565
O3 Se7 1.826073 1_545
O6 Se0 1.826073 1_565
O7 Se1 1.826073 1_545
O8 Ti3 2.714719 1_555
O9 Ti2 2.714719 1_555
