# generated using pymatgen
data_Ce2USe4
_symmetry_space_group_name_H-M   'P 1'
_cell_length_a   7.76944970
_cell_length_b   7.76948219
_cell_length_c   7.76966056
_cell_angle_alpha   109.34416422
_cell_angle_beta   109.34367424
_cell_angle_gamma   109.72785442
_symmetry_Int_Tables_number   1
_chemical_formula_structural   Ce2USe4
_chemical_formula_sum   'Ce4 U2 Se8'
_cell_volume   361.03285329
_cell_formula_units_Z   2
loop_
 _symmetry_equiv_pos_site_id
 _symmetry_equiv_pos_as_xyz
  1  'x, y, z'
loop_
 _atom_site_type_symbol
 _atom_site_label
 _atom_site_symmetry_multiplicity
 _atom_site_fract_x
 _atom_site_fract_y
 _atom_site_fract_z
 _atom_site_occupancy
  Ce  Ce0  1  0.62500027  0.00066156  0.87569074  1
  Ce  Ce1  1  0.99933900  0.87502837  0.62433755  1
  Ce  Ce2  1  0.12497066  0.74932450  0.12431658  1
  Ce  Ce3  1  0.25069802  0.37500154  0.37566890  1
  U  U0  1  0.49995372  0.49994885  0.99998893  1
  U  U1  1  0.75001185  0.25002518  0.49999832  1
  Se  Se0  1  0.52756758  0.77805828  0.39920931  1
  Se  Se1  1  0.87113008  0.97195617  0.24955224  1
  Se  Se2  1  0.72237223  0.62158763  0.75044689  1
  Se  Se3  1  0.02807632  0.27759760  0.89921530  1
  Se  Se4  1  0.87169295  0.47250693  0.25056635  1
  Se  Se5  1  0.37835955  0.12885049  0.10078802  1
  Se  Se6  1  0.22196641  0.62112322  0.74944676  1
  Se  Se7  1  0.37886237  0.12832868  0.60077411  1
loop_
_geom_bond_atom_site_label_1
_geom_bond_atom_site_label_2
_geom_bond_distance
_geom_bond_site_symmetry_2
Ce0 Se1 3.030112 1_546
Ce0 Se7 3.030129 1_555
Ce0 Se6 3.046029 1_545
Ce0 Se3 3.046577 1_655
Ce0 Se5 3.174500 1_556
Ce0 Se4 3.175048 1_556
Ce0 Se2 3.207297 1_545
Ce0 Se0 3.207429 1_545
Ce1 Se4 3.029704 1_555
Ce1 Se3 3.030053 1_665
Ce1 Se7 3.046309 1_665
Ce1 Se2 3.046700 1_555
Ce1 Se1 3.174348 1_555
Ce1 Se0 3.174535 1_555
Ce1 Se5 3.207178 1_666
Ce1 Se6 3.207558 1_655
Ce2 Se2 3.030223 1_454
Ce2 Se0 3.030279 1_555
Ce2 Se4 3.046201 1_455
Ce2 Se5 3.046404 1_565
Ce2 Se3 3.174407 1_554
Ce2 Se6 3.175255 1_554
Ce2 Se7 3.207126 1_565
Ce2 Se1 3.207440 1_455
Ce3 Se6 3.029697 1_555
Ce3 Se5 3.029964 1_555
Ce3 Se0 3.046230 1_555
Ce3 Se1 3.046537 1_445
Ce3 Se2 3.174010 1_555
Ce3 Se7 3.174718 1_555
Ce3 Se3 3.207327 1_554
Ce3 Se4 3.207403 1_455
Se0 U0 3.023603 1_554
Se0 U1 3.157402 1_565
Se1 U1 3.023248 1_565
Se1 U0 3.157540 1_554
Se2 U1 3.023304 1_555
Se2 U0 3.157450 1_555
Se3 U1 3.023637 1_455
Se3 U0 3.156756 1_555
Se4 U0 3.023783 1_554
Se4 U1 3.157116 1_555
Se5 U1 3.023540 1_555
Se5 U0 3.156920 1_554
Se6 U0 3.023591 1_555
Se6 U1 3.157144 1_455
Se7 U0 3.023653 1_555
Se7 U1 3.157201 1_555
