# generated using pymatgen
data_CdHClO
_symmetry_space_group_name_H-M   'P 1'
_cell_length_a   3.73493560
_cell_length_b   3.73493560
_cell_length_c   10.41954400
_cell_angle_alpha   90.00000000
_cell_angle_beta   90.00000000
_cell_angle_gamma   119.99999298
_symmetry_Int_Tables_number   1
_chemical_formula_structural   CdHClO
_chemical_formula_sum   'Cd2 H2 Cl2 O2'
_cell_volume   125.87677625
_cell_formula_units_Z   2
loop_
 _symmetry_equiv_pos_site_id
 _symmetry_equiv_pos_as_xyz
  1  'x, y, z'
loop_
 _atom_site_type_symbol
 _atom_site_label
 _atom_site_symmetry_multiplicity
 _atom_site_fract_x
 _atom_site_fract_y
 _atom_site_fract_z
 _atom_site_occupancy
  Cd  Cd0  1  0.66666700  0.33333300  0.49219400  1
  Cd  Cd1  1  0.33333300  0.66666700  0.99219400  1
  H  H0  1  0.00000000  0.00000000  0.31841900  1
  H  H1  1  0.00000000  0.00000000  0.81841900  1
  Cl  Cl0  1  0.66666700  0.33333300  0.15574000  1
  Cl  Cl1  1  0.33333300  0.66666700  0.65574000  1
  O  O0  1  0.00000000  0.00000000  0.41323600  1
  O  O1  1  0.00000000  0.00000000  0.91323600  1
loop_
_geom_bond_atom_site_label_1
_geom_bond_atom_site_label_2
_geom_bond_distance
_geom_bond_site_symmetry_2
Cd0 O0 2.307975 1_655
Cd0 O0 2.307979 1_555
Cd0 O0 2.307979 1_665
Cd0 Cl1 2.748413 1_545
Cd0 Cl1 2.748413 1_655
Cd0 Cl1 2.748418 1_555
Cd1 O1 2.307975 1_565
Cd1 O1 2.307979 1_555
Cd1 O1 2.307979 1_665
Cd1 Cl0 2.748413 1_456
Cd1 Cl0 2.748413 1_566
Cd1 Cl0 2.748418 1_556
H0 O0 0.987950 1_555
H1 O1 0.987950 1_555
