# generated using pymatgen
data_ZrInNi4
_symmetry_space_group_name_H-M   'P 1'
_cell_length_a   4.85169899
_cell_length_b   4.85170014
_cell_length_c   4.85169967
_cell_angle_alpha   60.00000329
_cell_angle_beta   59.99999541
_cell_angle_gamma   59.99998880
_symmetry_Int_Tables_number   1
_chemical_formula_structural   ZrInNi4
_chemical_formula_sum   'Zr1 In1 Ni4'
_cell_volume   80.75448842
_cell_formula_units_Z   1
loop_
 _symmetry_equiv_pos_site_id
 _symmetry_equiv_pos_as_xyz
  1  'x, y, z'
loop_
 _atom_site_type_symbol
 _atom_site_label
 _atom_site_symmetry_multiplicity
 _atom_site_fract_x
 _atom_site_fract_y
 _atom_site_fract_z
 _atom_site_occupancy
  Zr  Zr0  1  0.00000000  0.00000000  -0.00000000  1
  In  In0  1  0.25000000  0.25000000  0.25000000  1
  Ni  Ni0  1  0.62482988  0.62482988  0.12551037  1
  Ni  Ni1  1  0.62482988  0.62482988  0.62482988  1
  Ni  Ni2  1  0.12551037  0.62482988  0.62482988  1
  Ni  Ni3  1  0.62482988  0.12551037  0.62482988  1
loop_
_geom_bond_atom_site_label_1
_geom_bond_atom_site_label_2
_geom_bond_distance
_geom_bond_site_symmetry_2
In0 Ni0 2.844209 1_455
In0 Ni1 2.844209 1_455
In0 Ni3 2.844209 1_455
In0 Ni3 2.844210 1_554
In0 Ni3 2.844210 1_555
In0 Ni0 2.844210 1_545
In0 Ni1 2.844210 1_545
In0 Ni2 2.844210 1_554
In0 Ni2 2.844210 1_555
In0 Ni1 2.844210 1_554
In0 Ni0 2.844210 1_555
In0 Ni2 2.844210 1_545
In0 Zr0 2.971046 1_655
In0 Zr0 2.971047 1_555
In0 Zr0 2.971047 1_556
In0 Zr0 2.971047 1_565
Ni0 Ni2 2.422548 1_555
Ni0 Ni1 2.422548 1_555
Ni0 Ni3 2.422549 1_555
Ni0 Ni2 2.429151 1_654
Ni0 Ni1 2.429151 1_554
Ni0 Ni3 2.429152 1_564
Ni0 Zr0 2.844913 1_565
Ni0 Zr0 2.844914 1_655
Ni0 Zr0 2.844914 1_665
Ni1 Ni2 2.422548 1_555
Ni1 Ni3 2.422549 1_555
Ni1 Ni2 2.429151 1_655
Ni1 Ni3 2.429152 1_565
Ni1 Zr0 2.844913 1_566
Ni1 Zr0 2.844914 1_656
Ni1 Zr0 2.844914 1_665
Ni2 Ni3 2.422548 1_555
Ni2 Ni3 2.429151 1_465
Ni2 Zr0 2.844914 1_566
Ni2 Zr0 2.844914 1_565
Ni2 Zr0 2.844914 1_556
Ni3 Zr0 2.844913 1_556
Ni3 Zr0 2.844913 1_656
Ni3 Zr0 2.844914 1_655
