# generated using pymatgen
data_MgNb2(PbO3)3
_symmetry_space_group_name_H-M   'P 1'
_cell_length_a   4.12712500
_cell_length_b   5.78465473
_cell_length_c   9.21080873
_cell_angle_alpha   71.89390656
_cell_angle_beta   89.43067237
_cell_angle_gamma   89.65032909
_symmetry_Int_Tables_number   1
_chemical_formula_structural   MgNb2(PbO3)3
_chemical_formula_sum   'Mg1 Nb2 Pb3 O9'
_cell_volume   208.99861719
_cell_formula_units_Z   1
loop_
 _symmetry_equiv_pos_site_id
 _symmetry_equiv_pos_as_xyz
  1  'x, y, z'
loop_
 _atom_site_type_symbol
 _atom_site_label
 _atom_site_symmetry_multiplicity
 _atom_site_fract_x
 _atom_site_fract_y
 _atom_site_fract_z
 _atom_site_occupancy
  Mg  Mg0  1  0.48223100  0.48054300  0.00659800  1
  Nb  Nb0  1  0.45258200  0.82034300  0.34807100  1
  Nb  Nb1  1  0.52152700  0.16346200  0.66851900  1
  Pb  Pb0  1  0.99651600  0.62731900  0.72877300  1
  Pb  Pb1  1  0.94831100  0.33795600  0.28703400  1
  Pb  Pb2  1  0.89809800  0.94253300  0.01523100  1
  O  O0  1  0.49668100  0.33859600  0.82172500  1
  O  O1  1  0.51780900  0.66508300  0.17874000  1
  O  O2  1  0.49679400  0.99019500  0.50531800  1
  O  O3  1  0.50358900  0.84177600  0.82946100  1
  O  O4  1  0.49668000  0.49154800  0.50004700  1
  O  O5  1  0.51535200  0.14753500  0.18355600  1
  O  O6  1  0.99413500  0.16248100  0.66797500  1
  O  O7  1  0.99449000  0.82549200  0.33771700  1
  O  O8  1  0.98862500  0.51754900  0.00413400  1
loop_
_geom_bond_atom_site_label_1
_geom_bond_atom_site_label_2
_geom_bond_distance
_geom_bond_site_symmetry_2
Mg0 O8 2.046703 1_455
Mg0 O8 2.101365 1_555
Mg0 O5 2.106129 1_555
Mg0 O0 2.108049 1_554
Mg0 O1 2.175711 1_555
Mg0 O3 2.217332 1_554
Nb0 O7 1.893540 1_455
Nb0 O4 1.988995 1_555
Nb0 O2 1.997101 1_555
Nb0 O5 2.039884 1_565
Nb0 O1 2.042316 1_555
Nb0 O7 2.237593 1_555
Nb1 O6 1.950447 1_555
Nb1 O0 1.978044 1_555
Nb1 O3 1.987629 1_545
Nb1 O4 2.047110 1_555
Nb1 O2 2.053149 1_545
Nb1 O6 2.176714 1_455
O0 Pb0 2.624466 1_455
O0 Pb0 2.626045 1_555
O1 Pb2 2.405988 1_555
O1 Pb1 2.559996 1_555
O3 Pb2 2.570090 1_556
O3 Pb0 2.680405 1_555
O3 Pb0 2.750287 1_455
O5 Pb1 2.454613 1_555
O5 Pb2 2.715981 1_545
O8 Pb0 2.415505 1_554
O8 Pb1 2.491534 1_555
O8 Pb2 2.517521 1_555
