# generated using pymatgen
data_Rb4NaW2N5O
_symmetry_space_group_name_H-M   'P 1'
_cell_length_a   8.82706800
_cell_length_b   9.11468538
_cell_length_c   10.06367472
_cell_angle_alpha   81.89250399
_cell_angle_beta   65.71457067
_cell_angle_gamma   85.14882085
_symmetry_Int_Tables_number   1
_chemical_formula_structural   Rb4NaW2N5O
_chemical_formula_sum   'Rb8 Na2 W4 N10 O2'
_cell_volume   730.33885840
_cell_formula_units_Z   2
loop_
 _symmetry_equiv_pos_site_id
 _symmetry_equiv_pos_as_xyz
  1  'x, y, z'
loop_
 _atom_site_type_symbol
 _atom_site_label
 _atom_site_symmetry_multiplicity
 _atom_site_fract_x
 _atom_site_fract_y
 _atom_site_fract_z
 _atom_site_occupancy
  Rb  Rb0  1  0.19491000  0.34188400  0.75990100  1
  Rb  Rb1  1  0.23100900  0.94842300  0.41827200  1
  Rb  Rb2  1  0.71714700  0.46015700  0.72767100  1
  Rb  Rb3  1  0.63982300  0.20216600  0.26573100  1
  Rb  Rb4  1  0.36017700  0.79783400  0.73426900  1
  Rb  Rb5  1  0.28285300  0.53984300  0.27232900  1
  Rb  Rb6  1  0.76899100  0.05157700  0.58172800  1
  Rb  Rb7  1  0.80509000  0.65811600  0.24009900  1
  Na  Na0  1  0.85374000  0.11309600  0.94442100  1
  Na  Na1  1  0.14626000  0.88690400  0.05557900  1
  W  W0  1  0.58737400  0.87943800  0.02268400  1
  W  W1  1  0.06545500  0.18535900  0.17648000  1
  W  W2  1  0.93454500  0.81464100  0.82352000  1
  W  W3  1  0.41262600  0.12056200  0.97731600  1
  N  N0  1  0.01436300  0.99630900  0.73072200  1
  N  N1  1  0.96851100  0.69158200  0.65731700  1
  N  N2  1  0.96807400  0.25620500  0.05191200  1
  N  N3  1  0.91545800  0.36900200  0.44112900  1
  N  N4  1  0.57710500  0.90801400  0.19662000  1
  N  N5  1  0.42289500  0.09198600  0.80338000  1
  N  N6  1  0.08454200  0.63099800  0.55887100  1
  N  N7  1  0.03192600  0.74379500  0.94808800  1
  N  N8  1  0.03148900  0.30841800  0.34268300  1
  N  N9  1  0.98563700  0.00369100  0.26927800  1
  O  O0  1  0.75808600  0.36820200  0.44603100  1
  O  O1  1  0.24191400  0.63179800  0.55396900  1
loop_
_geom_bond_atom_site_label_1
_geom_bond_atom_site_label_2
_geom_bond_distance
_geom_bond_site_symmetry_2
N0 W2 1.824910 1_455
N0 Na0 2.377123 1_465
N0 Rb1 3.005745 1_555
N0 Rb6 3.076854 1_465
N1 N6 1.248786 1_655
N1 W2 2.050707 1_555
N1 Rb2 2.991982 1_555
N2 W1 1.814274 1_655
N2 Na0 2.325699 1_554
N2 Rb0 2.834094 1_654
N2 Rb3 2.842923 1_555
N3 N8 1.248786 1_655
N3 O0 1.370190 1_555
N3 Rb2 2.889238 1_555
N4 W0 1.770359 1_555
N4 Rb1 2.980007 1_555
N4 Rb3 3.012023 1_565
N4 Rb7 3.016188 1_555
N5 W3 1.770359 1_555
N5 Rb6 2.980007 1_555
N5 Rb4 3.012023 1_545
N5 Rb0 3.016188 1_555
N6 O1 1.370190 1_555
N6 Rb5 2.889238 1_555
N7 W2 1.814274 1_455
N7 Na1 2.325699 1_556
N7 Rb7 2.834094 1_456
N7 Rb4 2.842923 1_555
N8 W1 2.050707 1_555
N8 Rb5 2.991982 1_555
N9 W1 1.824910 1_655
N9 Na1 2.377123 1_645
N9 Rb6 3.005745 1_555
N9 Rb1 3.076854 1_645
O0 Rb2 2.939870 1_555
O0 Rb6 3.025279 1_555
O0 Rb3 3.045027 1_555
O0 Rb7 3.063213 1_555
O1 Rb5 2.939870 1_555
O1 Rb1 3.025279 1_555
O1 Rb4 3.045027 1_555
O1 Rb0 3.063213 1_555
