# generated using pymatgen
data_Mn(ReO4)2
_symmetry_space_group_name_H-M   'P 1'
_cell_length_a   6.77380200
_cell_length_b   10.29419300
_cell_length_c   11.88671000
_cell_angle_alpha   90.00000000
_cell_angle_beta   90.00000000
_cell_angle_gamma   90.00000000
_symmetry_Int_Tables_number   1
_chemical_formula_structural   Mn(ReO4)2
_chemical_formula_sum   'Mn4 Re8 O32'
_cell_volume   828.87009640
_cell_formula_units_Z   4
loop_
 _symmetry_equiv_pos_site_id
 _symmetry_equiv_pos_as_xyz
  1  'x, y, z'
loop_
 _atom_site_type_symbol
 _atom_site_label
 _atom_site_symmetry_multiplicity
 _atom_site_fract_x
 _atom_site_fract_y
 _atom_site_fract_z
 _atom_site_occupancy
  Mn  Mn0  1  0.00000000  0.00000000  0.50000000  1
  Mn  Mn1  1  0.00000000  0.50000000  0.75000000  1
  Mn  Mn2  1  0.00000000  0.00000000  0.00000000  1
  Mn  Mn3  1  0.00000000  0.50000000  0.25000000  1
  Re  Re0  1  0.26960800  0.33333300  0.50000000  1
  Re  Re1  1  0.26960800  0.83333300  0.75000000  1
  Re  Re2  1  0.26960800  0.33333300  0.00000000  1
  Re  Re3  1  0.26960800  0.83333300  0.25000000  1
  Re  Re4  1  0.73039200  0.16666700  0.25000000  1
  Re  Re5  1  0.73039200  0.66666700  0.50000000  1
  Re  Re6  1  0.73039200  0.16666700  0.75000000  1
  Re  Re7  1  0.73039200  0.66666700  0.00000000  1
  O  O0  1  0.47451000  0.16666700  0.25000000  1
  O  O1  1  0.47451000  0.66666700  0.50000000  1
  O  O2  1  0.47451000  0.16666700  0.75000000  1
  O  O3  1  0.47451000  0.66666700  0.00000000  1
  O  O4  1  0.52549000  0.33333300  0.50000000  1
  O  O5  1  0.52549000  0.83333300  0.75000000  1
  O  O6  1  0.52549000  0.33333300  0.00000000  1
  O  O7  1  0.52549000  0.83333300  0.25000000  1
  O  O8  1  0.81696500  0.08155400  0.13153200  1
  O  O9  1  0.81696500  0.58155400  0.38153200  1
  O  O10  1  0.81696500  0.08155400  0.63153200  1
  O  O11  1  0.81696500  0.58155400  0.88153200  1
  O  O12  1  0.18303500  0.17230900  0.50460100  1
  O  O13  1  0.18303500  0.67230900  0.75460100  1
  O  O14  1  0.18303500  0.17230900  0.00460100  1
  O  O15  1  0.18303500  0.67230900  0.25460100  1
  O  O16  1  0.18303500  0.40924500  0.37693100  1
  O  O17  1  0.18303500  0.90924500  0.62693100  1
  O  O18  1  0.18303500  0.40924500  0.87693100  1
  O  O19  1  0.18303500  0.90924500  0.12693100  1
  O  O20  1  0.18303500  0.41844600  0.61846800  1
  O  O21  1  0.18303500  0.91844600  0.86846800  1
  O  O22  1  0.18303500  0.41844600  0.11846800  1
  O  O23  1  0.18303500  0.91844600  0.36846800  1
  O  O24  1  0.81696500  0.32769100  0.24539900  1
  O  O25  1  0.81696500  0.82769100  0.49539900  1
  O  O26  1  0.81696500  0.32769100  0.74539900  1
  O  O27  1  0.81696500  0.82769100  0.99539900  1
  O  O28  1  0.81696500  0.09075500  0.37306900  1
  O  O29  1  0.81696500  0.59075500  0.62306900  1
  O  O30  1  0.81696500  0.09075500  0.87306900  1
  O  O31  1  0.81696500  0.59075500  0.12306900  1
loop_
_geom_bond_atom_site_label_1
_geom_bond_atom_site_label_2
_geom_bond_distance
_geom_bond_site_symmetry_2
Mn0 O28 2.164829 1_455
Mn0 O17 2.164829 1_545
Mn0 O10 2.164833 1_455
Mn0 O23 2.164833 1_545
Mn0 O12 2.164834 1_555
Mn0 O25 2.164834 1_445
Mn1 O18 2.164829 1_555
Mn1 O29 2.164829 1_455
Mn1 O11 2.164833 1_455
Mn1 O20 2.164833 1_555
Mn1 O26 2.164834 1_455
Mn1 O13 2.164834 1_555
Mn2 O30 2.164829 1_454
Mn2 O19 2.164829 1_545
Mn2 O8 2.164833 1_455
Mn2 O21 2.164833 1_544
Mn2 O14 2.164834 1_555
Mn2 O27 2.164834 1_444
Mn3 O16 2.164829 1_555
Mn3 O31 2.164829 1_455
Mn3 O9 2.164833 1_455
Mn3 O22 2.164833 1_555
Mn3 O24 2.164834 1_455
Mn3 O15 2.164834 1_555
O0 Re4 1.733294 1_555
O1 Re5 1.733294 1_555
O2 Re6 1.733294 1_555
O3 Re7 1.733294 1_555
O4 Re0 1.733294 1_555
O5 Re1 1.733294 1_555
O6 Re2 1.733294 1_555
O7 Re3 1.733294 1_555
O8 Re4 1.759143 1_555
O9 Re5 1.759143 1_555
O10 Re6 1.759143 1_555
O11 Re7 1.759143 1_556
O12 Re0 1.759138 1_555
O13 Re1 1.759138 1_555
O14 Re2 1.759138 1_555
O15 Re3 1.759138 1_555
O16 Re0 1.759148 1_555
O17 Re1 1.759148 1_555
O18 Re2 1.759148 1_556
O19 Re3 1.759148 1_555
O20 Re0 1.759143 1_555
O21 Re1 1.759143 1_555
O22 Re2 1.759143 1_555
O23 Re3 1.759143 1_555
O24 Re4 1.759138 1_555
O25 Re5 1.759138 1_555
O26 Re6 1.759138 1_555
O27 Re7 1.759138 1_556
O28 Re4 1.759148 1_555
O29 Re5 1.759148 1_555
O30 Re6 1.759148 1_555
O31 Re7 1.759148 1_555
