# generated using pymatgen
data_Te8I3
_symmetry_space_group_name_H-M   'P 1'
_cell_length_a   6.49894516
_cell_length_b   6.49894516
_cell_length_c   180.89841121
_cell_angle_alpha   89.38172320
_cell_angle_beta   89.38172320
_cell_angle_gamma   91.15689501
_symmetry_Int_Tables_number   1
_chemical_formula_structural   Te8I3
_chemical_formula_sum   'Te64 I24'
_cell_volume   7638.01210702
_cell_formula_units_Z   8
loop_
 _symmetry_equiv_pos_site_id
 _symmetry_equiv_pos_as_xyz
  1  'x, y, z'
loop_
 _atom_site_type_symbol
 _atom_site_label
 _atom_site_symmetry_multiplicity
 _atom_site_fract_x
 _atom_site_fract_y
 _atom_site_fract_z
 _atom_site_occupancy
  Te  Te0_0  1  0.49231750  0.49231750  0.19363650  1
  Te  Te0_1  1  0.49231750  0.49231750  0.69363650  1
  Te  Te0_2  1  0.49231750  0.99231750  0.19363650  1
  Te  Te0_3  1  0.49231750  0.99231750  0.69363650  1
  Te  Te0_4  1  0.99231750  0.49231750  0.19363650  1
  Te  Te0_5  1  0.99231750  0.49231750  0.69363650  1
  Te  Te0_6  1  0.99231750  0.99231750  0.19363650  1
  Te  Te0_7  1  0.99231750  0.99231750  0.69363650  1
  Te  Te1_0  1  0.48886300  0.48886300  0.09863200  1
  Te  Te1_1  1  0.48886300  0.48886300  0.59863200  1
  Te  Te1_2  1  0.48886300  0.98886300  0.09863200  1
  Te  Te1_3  1  0.48886300  0.98886300  0.59863200  1
  Te  Te1_4  1  0.98886300  0.48886300  0.09863200  1
  Te  Te1_5  1  0.98886300  0.48886300  0.59863200  1
  Te  Te1_6  1  0.98886300  0.98886300  0.09863200  1
  Te  Te1_7  1  0.98886300  0.98886300  0.59863200  1
  Te  Te2_0  1  0.49593100  0.49593100  0.06520650  1
  Te  Te2_1  1  0.49593100  0.49593100  0.56520650  1
  Te  Te2_2  1  0.49593100  0.99593100  0.06520650  1
  Te  Te2_3  1  0.49593100  0.99593100  0.56520650  1
  Te  Te2_4  1  0.99593100  0.49593100  0.06520650  1
  Te  Te2_5  1  0.99593100  0.49593100  0.56520650  1
  Te  Te2_6  1  0.99593100  0.99593100  0.06520650  1
  Te  Te2_7  1  0.99593100  0.99593100  0.56520650  1
  Te  Te3_0  1  0.49522750  0.49522750  0.00582900  1
  Te  Te3_1  1  0.49522750  0.49522750  0.50582900  1
  Te  Te3_2  1  0.49522750  0.99522750  0.00582900  1
  Te  Te3_3  1  0.49522750  0.99522750  0.50582900  1
  Te  Te3_4  1  0.99522750  0.49522750  0.00582900  1
  Te  Te3_5  1  0.99522750  0.49522750  0.50582900  1
  Te  Te3_6  1  0.99522750  0.99522750  0.00582900  1
  Te  Te3_7  1  0.99522750  0.99522750  0.50582900  1
  Te  Te4_0  1  0.49230700  0.49230700  0.08195100  1
  Te  Te4_1  1  0.49230700  0.49230700  0.58195100  1
  Te  Te4_2  1  0.49230700  0.99230700  0.08195100  1
  Te  Te4_3  1  0.49230700  0.99230700  0.58195100  1
  Te  Te4_4  1  0.99230700  0.49230700  0.08195100  1
  Te  Te4_5  1  0.99230700  0.49230700  0.58195100  1
  Te  Te4_6  1  0.99230700  0.99230700  0.08195100  1
  Te  Te4_7  1  0.99230700  0.99230700  0.58195100  1
  Te  Te5_0  1  0.48404350  0.48404350  0.15510550  1
  Te  Te5_1  1  0.48404350  0.48404350  0.65510550  1
  Te  Te5_2  1  0.48404350  0.98404350  0.15510550  1
  Te  Te5_3  1  0.48404350  0.98404350  0.65510550  1
  Te  Te5_4  1  0.98404350  0.48404350  0.15510550  1
  Te  Te5_5  1  0.98404350  0.48404350  0.65510550  1
  Te  Te5_6  1  0.98404350  0.98404350  0.15510550  1
  Te  Te5_7  1  0.98404350  0.98404350  0.65510550  1
  Te  Te6_0  1  0.49225550  0.49225550  0.13984300  1
  Te  Te6_1  1  0.49225550  0.49225550  0.63984300  1
  Te  Te6_2  1  0.49225550  0.99225550  0.13984300  1
  Te  Te6_3  1  0.49225550  0.99225550  0.63984300  1
  Te  Te6_4  1  0.99225550  0.49225550  0.13984300  1
  Te  Te6_5  1  0.99225550  0.49225550  0.63984300  1
  Te  Te6_6  1  0.99225550  0.99225550  0.13984300  1
  Te  Te6_7  1  0.99225550  0.99225550  0.63984300  1
  Te  Te7_0  1  0.48877650  0.48877650  0.02167650  1
  Te  Te7_1  1  0.48877650  0.48877650  0.52167650  1
  Te  Te7_2  1  0.48877650  0.98877650  0.02167650  1
  Te  Te7_3  1  0.48877650  0.98877650  0.52167650  1
  Te  Te7_4  1  0.98877650  0.48877650  0.02167650  1
  Te  Te7_5  1  0.98877650  0.48877650  0.52167650  1
  Te  Te7_6  1  0.98877650  0.98877650  0.02167650  1
  Te  Te7_7  1  0.98877650  0.98877650  0.52167650  1
  I  I0_0  1  0.24225050  0.24225050  0.17242300  1
  I  I0_1  1  0.24225050  0.24225050  0.67242300  1
  I  I0_2  1  0.24225050  0.74225050  0.17242300  1
  I  I0_3  1  0.24225050  0.74225050  0.67242300  1
  I  I0_4  1  0.74225050  0.24225050  0.17242300  1
  I  I0_5  1  0.74225050  0.24225050  0.67242300  1
  I  I0_6  1  0.74225050  0.74225050  0.17242300  1
  I  I0_7  1  0.74225050  0.74225050  0.67242300  1
  I  I1_0  1  0.23790400  0.23790400  0.12085050  1
  I  I1_1  1  0.23790400  0.23790400  0.62085050  1
  I  I1_2  1  0.23790400  0.73790400  0.12085050  1
  I  I1_3  1  0.23790400  0.73790400  0.62085050  1
  I  I1_4  1  0.73790400  0.23790400  0.12085050  1
  I  I1_5  1  0.73790400  0.23790400  0.62085050  1
  I  I1_6  1  0.73790400  0.73790400  0.12085050  1
  I  I1_7  1  0.73790400  0.73790400  0.62085050  1
  I  I2_0  1  0.23962400  0.23962400  0.04223650  1
  I  I2_1  1  0.23962400  0.23962400  0.54223650  1
  I  I2_2  1  0.23962400  0.73962400  0.04223650  1
  I  I2_3  1  0.23962400  0.73962400  0.54223650  1
  I  I2_4  1  0.73962400  0.23962400  0.04223650  1
  I  I2_5  1  0.73962400  0.23962400  0.54223650  1
  I  I2_6  1  0.73962400  0.73962400  0.04223650  1
  I  I2_7  1  0.73962400  0.73962400  0.54223650  1
loop_
_geom_bond_atom_site_label_1
_geom_bond_atom_site_label_2
_geom_bond_distance
_geom_bond_site_symmetry_2
Te1_0 Te4_0 3.017246 1_555
Te1_0 Te1_4 3.249473 1_455
Te1_0 Te1_2 3.249473 1_545
Te1_0 Te1_4 3.249473 1_555
Te1_0 Te1_2 3.249473 1_555
Te1_1 Te4_1 3.017246 1_555
Te1_1 Te1_5 3.249473 1_455
Te1_1 Te1_5 3.249473 1_555
Te1_1 Te1_3 3.249473 1_545
Te1_1 Te1_3 3.249473 1_555
Te1_2 Te4_2 3.017246 1_555
Te1_2 Te1_6 3.249473 1_455
Te1_2 Te1_6 3.249473 1_555
Te1_3 Te4_3 3.017246 1_555
Te1_3 Te1_7 3.249473 1_455
Te1_3 Te1_7 3.249473 1_555
Te1_4 Te4_4 3.017246 1_555
Te1_4 Te1_6 3.249473 1_545
Te1_4 Te1_6 3.249473 1_555
Te1_5 Te4_5 3.017246 1_555
Te1_5 Te1_7 3.249473 1_555
Te1_5 Te1_7 3.249473 1_545
Te1_6 Te4_6 3.017246 1_555
Te1_7 Te4_7 3.017246 1_555
Te2_0 Te4_0 3.028725 1_555
Te2_0 Te2_4 3.249473 1_455
Te2_0 Te2_2 3.249473 1_545
Te2_0 Te2_2 3.249473 1_555
Te2_0 Te2_4 3.249473 1_555
Te2_1 Te4_1 3.028725 1_555
Te2_1 Te2_5 3.249473 1_555
Te2_1 Te2_3 3.249473 1_555
Te2_1 Te2_3 3.249473 1_545
Te2_1 Te2_5 3.249473 1_455
Te2_2 Te4_2 3.028725 1_555
Te2_2 Te2_6 3.249473 1_555
Te2_2 Te2_6 3.249473 1_455
Te2_3 Te4_3 3.028725 1_555
Te2_3 Te2_7 3.249473 1_555
Te2_3 Te2_7 3.249473 1_455
Te2_4 Te4_4 3.028725 1_555
Te2_4 Te2_6 3.249473 1_555
Te2_4 Te2_6 3.249473 1_545
Te2_5 Te4_5 3.028725 1_555
Te2_5 Te2_7 3.249473 1_555
Te2_5 Te2_7 3.249473 1_545
Te2_6 Te4_6 3.028725 1_555
Te2_7 Te4_7 3.028725 1_555
Te3_0 Te7_0 2.866483 1_555
Te3_1 Te7_1 2.866483 1_555
Te3_2 Te7_2 2.866483 1_555
Te3_3 Te7_3 2.866483 1_555
Te3_4 Te7_4 2.866483 1_555
Te3_5 Te7_5 2.866483 1_555
Te3_6 Te7_6 2.866483 1_555
Te3_7 Te7_7 2.866483 1_555
Te4_0 Te4_4 3.249473 1_555
Te4_0 Te4_2 3.249473 1_555
Te4_0 Te4_2 3.249473 1_545
Te4_0 Te4_4 3.249473 1_455
Te4_1 Te4_5 3.249473 1_455
Te4_1 Te4_3 3.249473 1_555
Te4_1 Te4_5 3.249473 1_555
Te4_1 Te4_3 3.249473 1_545
Te4_2 Te4_6 3.249473 1_455
Te4_2 Te4_6 3.249473 1_555
Te4_3 Te4_7 3.249473 1_555
Te4_3 Te4_7 3.249473 1_455
Te4_4 Te4_6 3.249473 1_545
Te4_4 Te4_6 3.249473 1_555
Te4_5 Te4_7 3.249473 1_545
Te4_5 Te4_7 3.249473 1_555
Te5_0 Te6_0 2.760821 1_555
Te5_0 Te5_4 3.249473 1_555
Te5_0 Te5_4 3.249473 1_455
Te5_0 Te5_2 3.249473 1_545
Te5_0 Te5_2 3.249473 1_555
Te5_1 Te6_1 2.760821 1_555
Te5_1 Te5_3 3.249473 1_545
Te5_1 Te5_5 3.249473 1_455
Te5_1 Te5_5 3.249473 1_555
Te5_1 Te5_3 3.249473 1_555
Te5_2 Te6_2 2.760821 1_555
Te5_2 Te5_6 3.249473 1_555
Te5_2 Te5_6 3.249473 1_455
Te5_3 Te6_3 2.760821 1_555
Te5_3 Te5_7 3.249473 1_455
Te5_3 Te5_7 3.249473 1_555
Te5_4 Te6_4 2.760821 1_555
Te5_4 Te5_6 3.249473 1_545
Te5_4 Te5_6 3.249473 1_555
Te5_5 Te6_5 2.760821 1_555
Te5_5 Te5_7 3.249473 1_545
Te5_5 Te5_7 3.249473 1_555
Te5_6 Te6_6 2.760821 1_555
Te5_7 Te6_7 2.760821 1_555
Te6_0 Te6_4 3.249473 1_455
Te6_0 Te6_2 3.249473 1_555
Te6_0 Te6_2 3.249473 1_545
Te6_0 Te6_4 3.249473 1_555
Te6_1 Te6_5 3.249473 1_555
Te6_1 Te6_3 3.249473 1_555
Te6_1 Te6_5 3.249473 1_455
Te6_1 Te6_3 3.249473 1_545
Te6_2 Te6_6 3.249473 1_455
Te6_2 Te6_6 3.249473 1_555
Te6_3 Te6_7 3.249473 1_455
Te6_3 Te6_7 3.249473 1_555
Te6_4 Te6_6 3.249473 1_545
Te6_4 Te6_6 3.249473 1_555
Te6_5 Te6_7 3.249473 1_545
Te6_5 Te6_7 3.249473 1_555
Te7_0 Te7_4 3.249473 1_555
Te7_0 Te7_2 3.249473 1_555
Te7_0 Te7_2 3.249473 1_545
Te7_0 Te7_4 3.249473 1_455
Te7_1 Te7_3 3.249473 1_555
Te7_1 Te7_5 3.249473 1_555
Te7_1 Te7_5 3.249473 1_455
Te7_1 Te7_3 3.249473 1_545
Te7_2 Te7_6 3.249473 1_455
Te7_2 Te7_6 3.249473 1_555
Te7_3 Te7_7 3.249473 1_555
Te7_3 Te7_7 3.249473 1_455
Te7_4 Te7_6 3.249473 1_545
Te7_4 Te7_6 3.249473 1_555
Te7_5 Te7_7 3.249473 1_545
Te7_5 Te7_7 3.249473 1_555
I0_0 I0_4 3.249473 1_555
I0_0 I0_2 3.249473 1_555
I0_0 I0_4 3.249473 1_455
I0_0 I0_2 3.249473 1_545
I0_1 I0_5 3.249473 1_555
I0_1 I0_3 3.249473 1_555
I0_1 I0_3 3.249473 1_545
I0_1 I0_5 3.249473 1_455
I0_2 I0_6 3.249473 1_455
I0_2 I0_6 3.249473 1_555
I0_3 I0_7 3.249473 1_455
I0_3 I0_7 3.249473 1_555
I0_4 I0_6 3.249473 1_545
I0_4 I0_6 3.249473 1_555
I0_5 I0_7 3.249473 1_545
I0_5 I0_7 3.249473 1_555
I1_0 I1_2 3.249473 1_555
I1_0 I1_4 3.249473 1_455
I1_0 I1_4 3.249473 1_555
I1_0 I1_2 3.249473 1_545
I1_1 I1_5 3.249473 1_555
I1_1 I1_3 3.249473 1_545
I1_1 I1_5 3.249473 1_455
I1_1 I1_3 3.249473 1_555
I1_2 I1_6 3.249473 1_555
I1_2 I1_6 3.249473 1_455
I1_3 I1_7 3.249473 1_555
I1_3 I1_7 3.249473 1_455
I1_4 I1_6 3.249473 1_555
I1_4 I1_6 3.249473 1_545
I1_5 I1_7 3.249473 1_555
I1_5 I1_7 3.249473 1_545
I2_0 I2_4 3.249473 1_555
I2_0 I2_2 3.249473 1_545
I2_0 I2_4 3.249473 1_455
I2_0 I2_2 3.249473 1_555
I2_1 I2_5 3.249473 1_555
I2_1 I2_3 3.249473 1_555
I2_1 I2_5 3.249473 1_455
I2_1 I2_3 3.249473 1_545
I2_2 I2_6 3.249473 1_455
I2_2 I2_6 3.249473 1_555
I2_3 I2_7 3.249473 1_455
I2_3 I2_7 3.249473 1_555
I2_4 I2_6 3.249473 1_555
I2_4 I2_6 3.249473 1_545
I2_5 I2_7 3.249473 1_545
I2_5 I2_7 3.249473 1_555
