# generated using pymatgen
data_Cs2CaAl4(SiO4)4
_symmetry_space_group_name_H-M   'P 1'
_cell_length_a   12.23582800
_cell_length_b   12.35067983
_cell_length_c   12.55172721
_cell_angle_alpha   88.45106845
_cell_angle_beta   89.53360748
_cell_angle_gamma   89.91426515
_symmetry_Int_Tables_number   1
_chemical_formula_structural   Cs2CaAl4(SiO4)4
_chemical_formula_sum   'Cs6 Ca3 Al12 Si12 O48'
_cell_volume   1896.06952645
_cell_formula_units_Z   3
loop_
 _symmetry_equiv_pos_site_id
 _symmetry_equiv_pos_as_xyz
  1  'x, y, z'
loop_
 _atom_site_type_symbol
 _atom_site_label
 _atom_site_symmetry_multiplicity
 _atom_site_fract_x
 _atom_site_fract_y
 _atom_site_fract_z
 _atom_site_occupancy
  Cs  Cs0  1  0.49365400  0.52102900  0.03251500  1
  Cs  Cs1  1  0.99202400  0.46751800  0.45580500  1
  Cs  Cs2  1  0.51091700  0.03581800  0.49570100  1
  Cs  Cs3  1  0.75899400  0.73083100  0.52141900  1
  Cs  Cs4  1  0.21305100  0.63243300  0.62369200  1
  Cs  Cs5  1  0.90042400  0.11092800  0.90809300  1
  Ca  Ca0  1  0.19091800  0.19282200  0.77278000  1
  Ca  Ca1  1  0.81912200  0.82438300  0.79644100  1
  Ca  Ca2  1  0.16447200  0.85101700  0.82807400  1
  Al  Al0  1  0.63367800  0.81708100  0.01877000  1
  Al  Al1  1  0.18622200  0.63057000  0.00495500  1
  Al  Al2  1  0.00016800  0.36568800  0.17905800  1
  Al  Al3  1  0.99879300  0.80883100  0.37187600  1
  Al  Al4  1  0.80867900  0.01502300  0.62348300  1
  Al  Al5  1  0.98979500  0.18787500  0.62490600  1
  Al  Al6  1  0.18919900  0.99117100  0.62098500  1
  Al  Al7  1  0.00458800  0.81391800  0.61985200  1
  Al  Al8  1  0.63202600  0.99110000  0.82742000  1
  Al  Al9  1  0.36643600  0.00461500  0.83854900  1
  Al  Al10  1  0.01506400  0.37546300  0.81847700  1
  Al  Al11  1  0.00000200  0.63650600  0.83451100  1
  Si  Si0  1  0.81861600  0.36902900  0.99672700  1
  Si  Si1  1  0.37465100  0.19021600  0.00481100  1
  Si  Si2  1  0.80628100  0.62162900  0.01440500  1
  Si  Si3  1  0.36984300  0.81964400  0.02047700  1
  Si  Si4  1  0.37558300  0.00462300  0.18994600  1
  Si  Si5  1  0.99069700  0.61959500  0.18693400  1
  Si  Si6  1  0.62873900  0.00707700  0.18941400  1
  Si  Si7  1  0.81286000  0.00127800  0.37428100  1
  Si  Si8  1  0.00290900  0.17906800  0.37320100  1
  Si  Si9  1  0.18967600  0.99720300  0.37733700  1
  Si  Si10  1  0.63168000  0.18283300  0.99707800  1
  Si  Si11  1  0.19472300  0.37318000  0.99934500  1
  O  O0  1  0.50377300  0.22458100  0.99369100  1
  O  O1  1  0.77172600  0.49458900  0.99186700  1
  O  O2  1  0.31037300  0.30383100  0.01769100  1
  O  O3  1  0.69257900  0.68717900  0.02355300  1
  O  O4  1  0.23353500  0.49820100  0.98094800  1
  O  O5  1  0.30206100  0.70812700  0.03141900  1
  O  O6  1  0.64932100  0.11346800  0.10944800  1
  O  O7  1  0.88279100  0.34080000  0.10452900  1
  O  O8  1  0.11623700  0.35159300  0.09940000  1
  O  O9  1  0.64688000  0.89410500  0.13291500  1
  O  O10  1  0.35546300  0.10732300  0.10683400  1
  O  O11  1  0.87181900  0.63268100  0.12513500  1
  O  O12  1  0.08751500  0.64212100  0.10180000  1
  O  O13  1  0.36015100  0.89118500  0.12951300  1
  O  O14  1  0.50079300  0.01514600  0.23772200  1
  O  O15  1  0.99528400  0.49561500  0.23477500  1
  O  O16  1  0.00700300  0.27900000  0.29002400  1
  O  O17  1  0.29124700  0.00853400  0.28964900  1
  O  O18  1  0.99309300  0.70189600  0.28494900  1
  O  O19  1  0.70771500  0.01650400  0.29297000  1
  O  O20  1  0.89768500  0.10038500  0.34921100  1
  O  O21  1  0.11576500  0.10694500  0.36508000  1
  O  O22  1  0.87322900  0.88449100  0.36460600  1
  O  O23  1  0.11666600  0.89046400  0.36137100  1
  O  O24  1  0.75536700  0.00985800  0.49232800  1
  O  O25  1  0.99223300  0.23090100  0.49094600  1
  O  O26  1  0.99731100  0.74397500  0.50145900  1
  O  O27  1  0.25106200  0.99588800  0.49429900  1
  O  O28  1  0.86573100  0.13384700  0.66573000  1
  O  O29  1  0.10049500  0.09747100  0.64938700  1
  O  O30  1  0.90049500  0.90601100  0.64183900  1
  O  O31  1  0.13838000  0.85882100  0.64999500  1
  O  O32  1  0.26802600  0.00640300  0.73805300  1
  O  O33  1  0.03577200  0.28902700  0.71139400  1
  O  O34  1  0.97337300  0.73096500  0.73192200  1
  O  O35  1  0.70884100  0.96440900  0.71265300  1
  O  O36  1  0.49605900  0.98863100  0.79468300  1
  O  O37  1  0.02344200  0.51074700  0.78307000  1
  O  O38  1  0.66290300  0.11180100  0.89554800  1
  O  O39  1  0.89441700  0.34446600  0.89235300  1
  O  O40  1  0.13780500  0.32652800  0.88945200  1
  O  O41  1  0.69264600  0.88653600  0.90887900  1
  O  O42  1  0.33114300  0.13269500  0.89650800  1
  O  O43  1  0.87930300  0.66785700  0.91136900  1
  O  O44  1  0.12579700  0.68715500  0.88627300  1
  O  O45  1  0.31424300  0.89572100  0.92271900  1
  O  O46  1  0.70750400  0.29166200  0.99432100  1
  O  O47  1  0.49526400  0.79106900  0.99479800  1
loop_
_geom_bond_atom_site_label_1
_geom_bond_atom_site_label_2
_geom_bond_distance
_geom_bond_site_symmetry_2
Cs0 O3 3.185287 1_555
Cs0 O4 3.267193 1_554
Cs0 O5 3.289112 1_555
Cs0 O47 3.355980 1_554
Cs0 O1 3.452676 1_554
Cs0 O2 3.508799 1_555
Cs0 O0 3.708407 1_554
Cs1 O15 2.786573 1_555
Cs1 O25 2.943668 1_555
Cs1 O16 3.168440 1_655
Cs1 O26 3.478210 1_555
Cs1 O18 3.555659 1_555
Cs2 O24 3.007784 1_555
Cs2 O27 3.218551 1_545
Cs2 O14 3.258378 1_555
Cs3 O26 2.929084 1_555
Cs3 O22 3.031618 1_555
Cs3 O30 3.192803 1_555
Cs3 O24 3.455892 1_565
Cs4 O31 2.966310 1_555
Cs4 O26 3.340781 1_455
Cs4 O37 3.378676 1_555
Cs4 O34 3.455533 1_455
Cs4 O44 3.538386 1_555
Cs5 O39 2.886645 1_555
Cs5 O38 2.911796 1_555
Cs5 O28 3.080365 1_555
Ca0 O29 2.267189 1_555
Ca0 O40 2.325067 1_555
Ca0 O33 2.361513 1_555
Ca0 O42 2.425770 1_555
Ca0 O32 2.534218 1_555
Ca1 O41 2.235024 1_555
Ca1 O34 2.359738 1_555
Ca1 O30 2.374690 1_555
Ca1 O35 2.415686 1_555
Ca1 O43 2.494536 1_555
Ca2 O44 2.184188 1_555
Ca2 O31 2.259913 1_555
Ca2 O45 2.268995 1_555
Ca2 O32 2.536129 1_565
Al0 O9 1.749758 1_555
Al0 O47 1.754198 1_554
Al0 O41 1.755180 1_554
Al0 O3 1.757578 1_555
Al1 O12 1.715114 1_555
Al1 O5 1.750939 1_555
Al1 O4 1.766246 1_554
Al1 O44 1.792833 1_554
Al2 O16 1.736157 1_555
Al2 O8 1.741412 1_555
Al2 O7 1.752429 1_455
Al2 O15 1.768439 1_455
Al3 O18 1.737541 1_555
Al3 O23 1.762987 1_655
Al3 O26 1.793476 1_555
Al3 O22 1.798712 1_555
Al4 O28 1.724352 1_555
Al4 O35 1.754416 1_545
Al4 O30 1.763760 1_545
Al4 O24 1.778459 1_555
Al5 O28 1.727460 1_555
Al5 O25 1.749688 1_555
Al5 O33 1.772302 1_655
Al5 O29 1.777497 1_655
Al6 O29 1.744562 1_565
Al6 O27 1.755106 1_555
Al6 O31 1.777182 1_555
Al6 O32 1.778592 1_565
Al7 O30 1.731762 1_455
Al7 O26 1.741908 1_455
Al7 O34 1.757490 1_455
Al7 O31 1.776177 1_555
Al8 O36 1.717418 1_555
Al8 O35 1.752109 1_555
Al8 O38 1.781050 1_565
Al8 O41 1.789269 1_555
Al9 O36 1.687716 1_545
Al9 O32 1.750623 1_555
Al9 O45 1.802098 1_545
Al9 O42 1.809172 1_555
Al10 O37 1.720285 1_555
Al10 O33 1.755451 1_555
Al10 O39 1.773647 1_455
Al10 O40 1.845096 1_555
Al11 O37 1.720895 1_555
Al11 O34 1.746358 1_455
Al11 O44 1.795470 1_555
Al11 O43 1.804704 1_455
O0 Si1 1.640417 1_556
O0 Si10 1.647582 1_555
O1 Si0 1.652428 1_555
O1 Si2 1.657884 1_556
O2 Si1 1.618837 1_555
O2 Si11 1.667357 1_554
O3 Si2 1.613448 1_555
O4 Si11 1.626102 1_555
O5 Si3 1.610912 1_555
O6 Si10 1.645888 1_554
O6 Si6 1.650161 1_555
O7 Si0 1.600002 1_554
O8 Si11 1.591716 1_554
O9 Si6 1.596556 1_565
O10 Si1 1.633418 1_555
O10 Si4 1.639957 1_555
O11 Si2 1.619294 1_555
O11 Si5 1.659660 1_555
O12 Si5 1.608403 1_455
O13 Si4 1.623119 1_565
O13 Si3 1.652342 1_555
O14 Si4 1.656332 1_555
O14 Si6 1.678036 1_555
O15 Si5 1.630646 1_555
O16 Si8 1.595452 1_555
O17 Si4 1.617221 1_555
O17 Si9 1.656947 1_545
O18 Si5 1.617372 1_555
O19 Si6 1.632736 1_555
O19 Si7 1.656027 1_555
O20 Si7 1.628557 1_555
O20 Si8 1.648812 1_655
O21 Si9 1.632771 1_545
O21 Si8 1.646099 1_555
O22 Si7 1.626563 1_565
O23 Si9 1.611474 1_555
O24 Si7 1.640981 1_555
O25 Si8 1.630594 1_655
O27 Si9 1.654176 1_555
O38 Si10 1.609704 1_555
O39 Si0 1.633837 1_555
O40 Si11 1.667159 1_555
O42 Si1 1.643523 1_556
O43 Si2 1.655193 1_556
O45 Si3 1.673509 1_556
O46 Si10 1.633795 1_555
O46 Si0 1.663864 1_555
O47 Si3 1.606239 1_556
