# generated using pymatgen
data_As4Pd5Pb
_symmetry_space_group_name_H-M   'P 1'
_cell_length_a   19.72310211
_cell_length_b   6.81606979
_cell_length_c   6.88341192
_cell_angle_alpha   60.10400328
_cell_angle_beta   55.62289422
_cell_angle_gamma   29.59527156
_symmetry_Int_Tables_number   1
_chemical_formula_structural   As4Pd5Pb
_chemical_formula_sum   'As8 Pd10 Pb2'
_cell_volume   377.12521230
_cell_formula_units_Z   2
loop_
 _symmetry_equiv_pos_site_id
 _symmetry_equiv_pos_as_xyz
  1  'x, y, z'
loop_
 _atom_site_type_symbol
 _atom_site_label
 _atom_site_symmetry_multiplicity
 _atom_site_fract_x
 _atom_site_fract_y
 _atom_site_fract_z
 _atom_site_occupancy
  As  As0  1  0.06004400  0.31129500  0.72124100  1
  As  As1  1  0.14012300  0.68388800  0.28006300  1
  As  As2  1  0.24258800  0.35027700  0.78017500  1
  As  As3  1  0.45282700  0.35333900  0.73236000  1
  As  As4  1  0.56137700  0.66376400  0.21353800  1
  As  As5  1  0.64259700  0.33149800  0.77780800  1
  As  As6  1  0.74043400  0.65888200  0.28360300  1
  As  As7  1  0.95077900  0.65385900  0.23174000  1
  Pd  Pd0  1  0.99857900  0.03444200  0.01542500  1
  Pd  Pd1  1  0.10268100  0.99019900  0.50158000  1
  Pd  Pd2  1  0.19565600  0.98889800  0.98742000  1
  Pd  Pd3  1  0.38206600  0.10360600  0.99622500  1
  Pd  Pd4  1  0.32176800  0.00959300  0.50061800  1
  Pd  Pd5  1  0.60006200  0.99843400  0.00850900  1
  Pd  Pd6  1  0.49906600  0.95309500  0.51408900  1
  Pd  Pd7  1  0.82186800  0.88054500  0.99623000  1
  Pd  Pd8  1  0.69276100  0.05977300  0.48846300  1
  Pd  Pd9  1  0.88446400  0.98407200  0.50366300  1
  Pb  Pb0  1  0.34846000  0.69019300  0.25276700  1
  Pb  Pb1  1  0.84955700  0.31074800  0.75313200  1
loop_
_geom_bond_atom_site_label_1
_geom_bond_atom_site_label_2
_geom_bond_distance
_geom_bond_site_symmetry_2
As0 Pd7 2.507412 1_455
As0 Pd1 2.538818 1_545
As0 Pd0 2.555011 1_456
As0 Pd2 2.576612 1_545
As0 Pd9 2.580259 1_455
As0 Pd4 2.996875 1_555
As1 Pd1 2.539686 1_555
As1 Pd3 2.565890 1_554
As1 Pd0 2.573816 1_465
As1 Pd4 2.610517 1_555
As1 Pd2 2.621690 1_554
As1 Pd9 2.900678 1_455
As2 Pd4 2.507642 1_555
As2 Pd3 2.586503 1_555
As2 Pd6 2.633768 1_545
As2 Pd1 2.650117 1_555
As2 Pd0 2.688396 1_466
As2 Pd2 2.816078 1_545
As3 Pd3 2.516156 1_555
As3 Pd4 2.582690 1_565
As3 Pd2 2.624687 1_555
As3 Pd8 2.669482 1_555
As3 Pd5 2.707584 1_546
As3 Pd6 2.956924 1_545
As4 Pd5 2.525680 1_555
As4 Pd8 2.542362 1_555
As4 Pd4 2.553331 1_565
As4 Pd6 2.580802 1_555
As4 Pd3 2.607258 1_564
As4 Pd7 2.952310 1_544
As5 Pd6 2.556927 1_555
As5 Pd9 2.562917 1_545
As5 Pd5 2.567726 1_546
As5 Pd8 2.577030 1_555
As5 Pd7 2.589634 1_545
As5 Pd3 2.914653 1_565
As6 Pd7 2.535418 1_554
As6 Pd9 2.590613 1_545
As6 Pd0 2.641610 1_555
As6 Pd5 2.648653 1_555
As6 Pd6 2.690987 1_555
As6 Pd8 2.866145 1_565
As7 Pd9 2.568172 1_555
As7 Pd7 2.608742 1_554
As7 Pd8 2.628221 1_565
As7 Pd2 2.656034 1_644
As7 Pd1 2.688529 1_645
As7 Pd0 2.941528 1_565
Pd0 Pd9 2.851295 1_545
Pd0 Pd1 2.932998 1_644
Pd0 Pd7 3.198314 1_554
Pd3 Pd6 2.831984 1_545
Pd3 Pd4 2.885138 1_556
Pd5 Pd6 2.888710 1_555
Pd5 Pd8 2.962813 1_564
Pd7 Pd9 2.814412 1_555
Pd7 Pd8 2.903425 1_566
Pb0 Pd5 2.733846 1_545
Pb0 Pd1 2.736841 1_555
Pb0 Pd6 2.893496 1_545
Pb0 Pd2 2.898687 1_554
Pb0 Pd3 2.909284 1_564
Pb0 Pd4 2.936397 1_565
Pb1 Pd5 2.758336 1_556
Pb1 Pd1 2.781322 1_645
Pb1 Pd9 2.862032 1_545
Pb1 Pd0 2.902055 1_556
Pb1 Pd7 2.925454 1_545
Pb1 Pd8 2.929322 1_565
