# generated using pymatgen
data_La2GeO5
_symmetry_space_group_name_H-M   'P 1'
_cell_length_a   7.47272249
_cell_length_b   7.10139137
_cell_length_c   9.60805539
_cell_angle_alpha   72.58969249
_cell_angle_beta   90.00000000
_cell_angle_gamma   90.00000000
_symmetry_Int_Tables_number   1
_chemical_formula_structural   La2GeO5
_chemical_formula_sum   'La8 Ge4 O20'
_cell_volume   486.50922060
_cell_formula_units_Z   4
loop_
 _symmetry_equiv_pos_site_id
 _symmetry_equiv_pos_as_xyz
  1  'x, y, z'
loop_
 _atom_site_type_symbol
 _atom_site_label
 _atom_site_symmetry_multiplicity
 _atom_site_fract_x
 _atom_site_fract_y
 _atom_site_fract_z
 _atom_site_occupancy
  La  La0  1  0.35536084  0.91642878  0.38246991  1
  La  La1  1  0.14463916  0.41642878  0.38246991  1
  La  La2  1  0.62477424  0.23471647  0.97829430  1
  La  La3  1  0.64463916  0.08357122  0.61753009  1
  La  La4  1  0.87522576  0.73471647  0.97829430  1
  La  La5  1  0.37522576  0.76528353  0.02170570  1
  La  La6  1  0.85536084  0.58357122  0.61753009  1
  La  La7  1  0.12477424  0.26528353  0.02170570  1
  Ge  Ge0  1  0.58832008  0.45982252  0.29802105  1
  Ge  Ge1  1  0.91167992  0.95982252  0.29802105  1
  Ge  Ge2  1  0.08832008  0.04017748  0.70197895  1
  Ge  Ge3  1  0.41167992  0.54017748  0.70197895  1
  O  O0  1  0.22725030  0.55271749  0.59189279  1
  O  O1  1  0.86235640  0.00968476  0.11016937  1
  O  O2  1  0.13764360  0.99031524  0.88983063  1
  O  O3  1  0.87880149  0.44900581  0.88624882  1
  O  O4  1  0.77274970  0.44728251  0.40810721  1
  O  O5  1  0.63764360  0.50968476  0.11016937  1
  O  O6  1  0.95494452  0.24993199  0.63072799  1
  O  O7  1  0.12119851  0.55099419  0.11375118  1
  O  O8  1  0.45494452  0.25006801  0.36927201  1
  O  O9  1  0.07639799  0.14425666  0.29132708  1
  O  O10  1  0.72725030  0.94728251  0.40810721  1
  O  O11  1  0.62119851  0.94900581  0.88624882  1
  O  O12  1  0.54505548  0.74993199  0.63072799  1
  O  O13  1  0.27274970  0.05271749  0.59189279  1
  O  O14  1  0.04505548  0.75006801  0.36927201  1
  O  O15  1  0.37880149  0.05099419  0.11375118  1
  O  O16  1  0.92360201  0.85574334  0.70867292  1
  O  O17  1  0.57639799  0.35574334  0.70867292  1
  O  O18  1  0.36235640  0.49031524  0.88983063  1
  O  O19  1  0.42360201  0.64425666  0.29132708  1
loop_
_geom_bond_atom_site_label_1
_geom_bond_atom_site_label_2
_geom_bond_distance
_geom_bond_site_symmetry_2
La0 O19 2.403226 1_555
La0 O8 2.450237 1_565
La0 O15 2.476576 1_565
La0 O13 2.555766 1_565
La0 O14 2.622665 1_555
La0 O9 2.623395 1_565
La0 O12 2.721988 1_555
La0 O10 2.804277 1_555
La0 O0 2.919984 1_555
La1 O9 2.403226 1_555
La1 O14 2.450237 1_555
La1 O7 2.476576 1_555
La1 O0 2.555766 1_555
La1 O8 2.622665 1_555
La1 O19 2.623395 1_555
La1 O6 2.721988 1_455
La1 O4 2.804277 1_455
La1 O13 2.919984 1_555
La2 O15 2.399681 1_556
La2 O3 2.428156 1_555
La2 O11 2.444020 1_545
La2 O1 2.469710 1_556
La2 O17 2.499573 1_555
La2 O5 2.628337 1_556
La2 O18 2.634244 1_555
La3 O17 2.403226 1_555
La3 O12 2.450237 1_545
La3 O11 2.476576 1_545
La3 O10 2.555766 1_545
La3 O6 2.622665 1_555
La3 O16 2.623395 1_545
La3 O8 2.721988 1_555
La3 O13 2.804277 1_555
La3 O4 2.919984 1_555
La4 O7 2.399681 1_656
La4 O11 2.428156 1_555
La4 O3 2.444020 1_555
La4 O5 2.469710 1_556
La4 O16 2.499573 1_555
La4 O1 2.628337 1_566
La4 O2 2.634244 1_655
La5 O11 2.399681 1_554
La5 O7 2.428156 1_555
La5 O15 2.444020 1_565
La5 O2 2.469710 1_554
La5 O19 2.499573 1_555
La5 O18 2.628337 1_554
La5 O5 2.634244 1_555
La6 O16 2.403226 1_555
La6 O6 2.450237 1_555
La6 O3 2.476576 1_555
La6 O4 2.555766 1_555
La6 O12 2.622665 1_555
La6 O17 2.623395 1_555
La6 O14 2.721988 1_655
La6 O0 2.804277 1_655
La6 O10 2.919984 1_555
La7 O3 2.399681 1_454
La7 O15 2.428156 1_555
La7 O7 2.444020 1_555
La7 O18 2.469710 1_554
La7 O9 2.499573 1_555
La7 O2 2.628337 1_544
La7 O1 2.634244 1_455
Ge0 O4 1.723292 1_555
Ge0 O8 1.752299 1_555
Ge0 O5 1.770991 1_555
Ge0 O19 1.784444 1_555
Ge1 O10 1.723292 1_555
Ge1 O14 1.752299 1_655
Ge1 O1 1.770991 1_565
Ge1 O9 1.784444 1_665
Ge2 O13 1.723292 1_555
Ge2 O6 1.752299 1_455
Ge2 O2 1.770991 1_545
Ge2 O16 1.784444 1_445
Ge3 O0 1.723292 1_555
Ge3 O12 1.752299 1_555
Ge3 O18 1.770991 1_555
Ge3 O17 1.784444 1_555
