# generated using pymatgen
data_SrLaMn2O6
_symmetry_space_group_name_H-M   'P 1'
_cell_length_a   5.49559000
_cell_length_b   5.49559000
_cell_length_c   23.64605500
_cell_angle_alpha   90.00000000
_cell_angle_beta   90.00000000
_cell_angle_gamma   90.00000000
_symmetry_Int_Tables_number   1
_chemical_formula_structural   SrLaMn2O6
_chemical_formula_sum   'Sr6 La6 Mn12 O36'
_cell_volume   714.14655349
_cell_formula_units_Z   6
loop_
 _symmetry_equiv_pos_site_id
 _symmetry_equiv_pos_as_xyz
  1  'x, y, z'
loop_
 _atom_site_type_symbol
 _atom_site_label
 _atom_site_symmetry_multiplicity
 _atom_site_fract_x
 _atom_site_fract_y
 _atom_site_fract_z
 _atom_site_occupancy
  Sr  Sr0  1  0.50000000  0.50000000  0.33368400  1
  Sr  Sr1  1  0.00000000  0.00000000  0.16661000  1
  Sr  Sr2  1  0.50000000  0.50000000  0.00000000  1
  Sr  Sr3  1  0.00000000  0.00000000  0.83339000  1
  Sr  Sr4  1  0.50000000  0.50000000  0.66631600  1
  Sr  Sr5  1  0.50000000  0.50000000  0.50000000  1
  La  La0  1  0.00000000  0.00000000  0.33338000  1
  La  La1  1  0.50000000  0.50000000  0.16674400  1
  La  La2  1  0.00000000  0.00000000  0.00000000  1
  La  La3  1  0.50000000  0.50000000  0.83325600  1
  La  La4  1  0.00000000  0.00000000  0.50000000  1
  La  La5  1  0.00000000  0.00000000  0.66662000  1
  Mn  Mn0  1  0.00000000  0.50000000  0.24993500  1
  Mn  Mn1  1  0.50000000  0.00000000  0.08325400  1
  Mn  Mn2  1  0.50000000  0.00000000  0.24993500  1
  Mn  Mn3  1  0.00000000  0.50000000  0.08325400  1
  Mn  Mn4  1  0.50000000  0.00000000  0.75006500  1
  Mn  Mn5  1  0.50000000  0.00000000  0.91674600  1
  Mn  Mn6  1  0.00000000  0.50000000  0.58330000  1
  Mn  Mn7  1  0.00000000  0.50000000  0.75006500  1
  Mn  Mn8  1  0.00000000  0.50000000  0.91674600  1
  Mn  Mn9  1  0.50000000  0.00000000  0.41670000  1
  Mn  Mn10  1  0.50000000  0.00000000  0.58330000  1
  Mn  Mn11  1  0.00000000  0.50000000  0.41670000  1
  O  O0  1  0.00000000  0.50000000  0.33336200  1
  O  O1  1  0.28397800  0.71602200  0.24805000  1
  O  O2  1  0.78409200  0.78409200  0.25185000  1
  O  O3  1  0.50000000  0.00000000  0.16663900  1
  O  O4  1  0.50000000  0.00000000  0.33336200  1
  O  O5  1  0.78400200  0.21599800  0.08104200  1
  O  O6  1  0.21590800  0.21590800  0.25185000  1
  O  O7  1  0.28469800  0.28469800  0.08551500  1
  O  O8  1  0.71602200  0.28397800  0.24805000  1
  O  O9  1  0.00000000  0.50000000  0.00000000  1
  O  O10  1  0.00000000  0.50000000  0.16663900  1
  O  O11  1  0.28469800  0.71530200  0.91448500  1
  O  O12  1  0.71530200  0.71530200  0.08551500  1
  O  O13  1  0.78400200  0.78400200  0.91895800  1
  O  O14  1  0.21599800  0.78400200  0.08104200  1
  O  O15  1  0.50000000  0.00000000  0.83336100  1
  O  O16  1  0.50000000  0.00000000  0.00000000  1
  O  O17  1  0.78409200  0.21590800  0.74815000  1
  O  O18  1  0.21599800  0.21599800  0.91895800  1
  O  O19  1  0.28397800  0.28397800  0.75195000  1
  O  O20  1  0.71530200  0.28469800  0.91448500  1
  O  O21  1  0.00000000  0.50000000  0.66663800  1
  O  O22  1  0.00000000  0.50000000  0.83336100  1
  O  O23  1  0.27320500  0.72679500  0.58291200  1
  O  O24  1  0.71602200  0.71602200  0.75195000  1
  O  O25  1  0.78866500  0.78866500  0.58365700  1
  O  O26  1  0.21590800  0.78409200  0.74815000  1
  O  O27  1  0.50000000  0.00000000  0.50000000  1
  O  O28  1  0.50000000  0.00000000  0.66663800  1
  O  O29  1  0.78866500  0.21133500  0.41634300  1
  O  O30  1  0.21133500  0.21133500  0.58365700  1
  O  O31  1  0.27320500  0.27320500  0.41708800  1
  O  O32  1  0.72679500  0.27320500  0.58291200  1
  O  O33  1  0.00000000  0.50000000  0.50000000  1
  O  O34  1  0.72679500  0.72679500  0.41708800  1
  O  O35  1  0.21133500  0.78866500  0.41634300  1
loop_
_geom_bond_atom_site_label_1
_geom_bond_atom_site_label_2
_geom_bond_distance
_geom_bond_site_symmetry_2
La0 O2 2.555860 1_445
La0 O6 2.555860 1_555
La0 O35 2.558555 1_545
La0 O29 2.558555 1_455
La0 O4 2.747795 1_455
La0 O0 2.747795 1_555
La0 O4 2.747795 1_555
La0 O0 2.747795 1_545
La0 O31 2.902830 1_555
La0 O34 2.902830 1_445
La0 O8 2.990367 1_455
La0 O1 2.990367 1_545
La1 O7 2.547399 1_555
La1 O12 2.547399 1_555
La1 O8 2.552449 1_555
La1 O1 2.552449 1_555
La1 O3 2.747796 1_555
La1 O10 2.747796 1_555
La1 O3 2.747796 1_565
La1 O10 2.747796 1_655
La1 O6 2.987451 1_555
La1 O2 2.987451 1_555
La1 O5 2.996447 1_555
La1 O14 2.996447 1_555
La2 O14 2.547628 1_545
La2 O5 2.547628 1_455
La2 O18 2.547628 1_554
La2 O13 2.547628 1_444
La2 O16 2.747795 1_555
La2 O9 2.747795 1_545
La2 O9 2.747795 1_555
La2 O16 2.747795 1_455
La2 O7 2.997449 1_555
La2 O12 2.997449 1_445
La2 O20 2.997449 1_454
La2 O11 2.997449 1_544
La3 O11 2.547399 1_555
La3 O20 2.547399 1_555
La3 O24 2.552449 1_555
La3 O19 2.552449 1_555
La3 O15 2.747796 1_555
La3 O15 2.747796 1_565
La3 O22 2.747796 1_555
La3 O22 2.747796 1_655
La3 O17 2.987451 1_555
La3 O26 2.987451 1_555
La3 O13 2.996447 1_555
La3 O18 2.996447 1_555
La4 O25 2.571159 1_445
La4 O30 2.571159 1_555
La4 O35 2.571159 1_545
La4 O29 2.571159 1_455
La4 O33 2.747795 1_545
La4 O33 2.747795 1_555
La4 O27 2.747795 1_455
La4 O27 2.747795 1_555
La4 O32 2.890028 1_455
La4 O23 2.890028 1_545
La4 O31 2.890028 1_555
La4 O34 2.890028 1_445
La5 O26 2.555860 1_545
La5 O17 2.555860 1_455
La5 O25 2.558555 1_445
La5 O30 2.558555 1_555
La5 O28 2.747795 1_455
La5 O21 2.747795 1_545
La5 O28 2.747795 1_555
La5 O21 2.747795 1_555
La5 O23 2.902830 1_545
La5 O32 2.902830 1_455
La5 O19 2.990367 1_555
La5 O24 2.990367 1_445
Mn0 O1 1.961354 1_555
Mn0 O8 1.961354 1_455
Mn0 O6 1.961490 1_555
Mn0 O2 1.961490 1_455
Mn0 O10 1.969622 1_555
Mn0 O0 1.972719 1_555
Mn1 O5 1.961570 1_555
Mn1 O14 1.961570 1_545
Mn1 O12 1.962338 1_545
Mn1 O7 1.962338 1_555
Mn1 O16 1.968629 1_555
Mn1 O3 1.971726 1_555
Mn2 O8 1.961354 1_555
Mn2 O1 1.961354 1_545
Mn2 O6 1.961490 1_555
Mn2 O2 1.961490 1_545
Mn2 O3 1.969622 1_555
Mn2 O4 1.972719 1_555
Mn3 O5 1.961570 1_455
Mn3 O14 1.961570 1_555
Mn3 O12 1.962338 1_455
Mn3 O7 1.962338 1_555
Mn3 O9 1.968629 1_555
Mn3 O10 1.971726 1_555
Mn4 O19 1.961354 1_555
Mn4 O24 1.961354 1_545
Mn4 O17 1.961490 1_555
Mn4 O26 1.961490 1_545
Mn4 O15 1.969622 1_555
Mn4 O28 1.972719 1_555
Mn5 O18 1.961570 1_555
Mn5 O13 1.961570 1_545
Mn5 O11 1.962338 1_545
Mn5 O20 1.962338 1_555
Mn5 O16 1.968629 1_556
Mn5 O15 1.971726 1_555
Mn6 O23 1.951358 1_555
Mn6 O32 1.951358 1_455
Mn6 O25 1.966103 1_455
Mn6 O30 1.966103 1_555
Mn6 O33 1.969716 1_555
Mn6 O21 1.970615 1_555
Mn7 O19 1.961354 1_555
Mn7 O24 1.961354 1_455
Mn7 O17 1.961490 1_455
Mn7 O26 1.961490 1_555
Mn7 O22 1.969622 1_555
Mn7 O21 1.972719 1_555
Mn8 O18 1.961570 1_555
Mn8 O13 1.961570 1_455
Mn8 O11 1.962338 1_555
Mn8 O20 1.962338 1_455
Mn8 O9 1.968629 1_556
Mn8 O22 1.971726 1_555
Mn9 O34 1.951358 1_545
Mn9 O31 1.951358 1_555
Mn9 O29 1.966103 1_555
Mn9 O35 1.966103 1_545
Mn9 O27 1.969716 1_555
Mn9 O4 1.970615 1_555
Mn10 O32 1.951358 1_555
Mn10 O23 1.951358 1_545
Mn10 O30 1.966103 1_555
Mn10 O25 1.966103 1_545
Mn10 O27 1.969716 1_555
Mn10 O28 1.970615 1_555
Mn11 O34 1.951358 1_455
Mn11 O31 1.951358 1_555
Mn11 O35 1.966103 1_555
Mn11 O29 1.966103 1_455
Mn11 O33 1.969716 1_555
Mn11 O0 1.970615 1_555
O0 Sr0 2.747806 1_555
O0 Sr0 2.747806 1_455
O1 Sr0 2.630396 1_555
O1 Sr1 2.929090 1_565
O2 Sr1 2.622664 1_665
O2 Sr0 2.935889 1_555
O3 Sr1 2.747795 1_655
O3 Sr1 2.747795 1_555
O4 Sr0 2.747806 1_555
O4 Sr0 2.747806 1_545
O5 Sr1 2.629076 1_655
O5 Sr2 2.923052 1_555
O6 Sr1 2.622664 1_555
O6 Sr0 2.935889 1_555
O7 Sr2 2.624659 1_555
O7 Sr1 2.927959 1_555
O8 Sr0 2.630396 1_555
O8 Sr1 2.929090 1_655
O9 Sr2 2.747795 1_455
O9 Sr2 2.747795 1_555
O10 Sr1 2.747795 1_555
O10 Sr1 2.747795 1_565
O11 Sr2 2.624659 1_556
O11 Sr3 2.927959 1_565
O12 Sr2 2.624659 1_555
O12 Sr1 2.927959 1_665
O13 Sr3 2.629076 1_665
O13 Sr2 2.923052 1_556
O14 Sr1 2.629076 1_565
O14 Sr2 2.923052 1_555
O15 Sr3 2.747795 1_555
O15 Sr3 2.747795 1_655
O16 Sr2 2.747795 1_545
O16 Sr2 2.747795 1_555
O17 Sr3 2.622664 1_655
O17 Sr4 2.935889 1_555
O18 Sr3 2.629076 1_555
O18 Sr2 2.923052 1_556
O19 Sr4 2.630396 1_555
O19 Sr3 2.929090 1_555
O20 Sr2 2.624659 1_556
O20 Sr3 2.927959 1_655
O21 Sr4 2.747806 1_455
O21 Sr4 2.747806 1_555
O22 Sr3 2.747795 1_565
O22 Sr3 2.747795 1_555
O23 Sr5 2.636401 1_555
O23 Sr4 2.645064 1_555
O24 Sr4 2.630396 1_555
O24 Sr3 2.929090 1_665
O25 Sr4 2.975489 1_555
O25 Sr5 2.991043 1_555
O26 Sr3 2.622664 1_565
O26 Sr4 2.935889 1_555
O27 Sr5 2.747795 1_555
O27 Sr5 2.747795 1_545
O28 Sr4 2.747806 1_545
O28 Sr4 2.747806 1_555
O29 Sr0 2.975489 1_555
O29 Sr5 2.991043 1_555
O30 Sr4 2.975489 1_555
O30 Sr5 2.991043 1_555
O31 Sr5 2.636401 1_555
O31 Sr0 2.645064 1_555
O32 Sr5 2.636401 1_555
O32 Sr4 2.645064 1_555
O33 Sr5 2.747795 1_455
O33 Sr5 2.747795 1_555
O34 Sr5 2.636401 1_555
O34 Sr0 2.645064 1_555
O35 Sr0 2.975489 1_555
O35 Sr5 2.991043 1_555
