# generated using pymatgen
data_Na21S7Cl(O14F3)2
_symmetry_space_group_name_H-M   'P 1'
_cell_length_a   12.33823033
_cell_length_b   12.33823033
_cell_length_c   19.57228000
_cell_angle_alpha   90.00000000
_cell_angle_beta   90.00000000
_cell_angle_gamma   120.00000178
_symmetry_Int_Tables_number   1
_chemical_formula_structural   Na21S7Cl(O14F3)2
_chemical_formula_sum   'Na63 S21 Cl3 O84 F18'
_cell_volume   2580.34508654
_cell_formula_units_Z   3
loop_
 _symmetry_equiv_pos_site_id
 _symmetry_equiv_pos_as_xyz
  1  'x, y, z'
loop_
 _atom_site_type_symbol
 _atom_site_label
 _atom_site_symmetry_multiplicity
 _atom_site_fract_x
 _atom_site_fract_y
 _atom_site_fract_z
 _atom_site_occupancy
  Na  Na0  1  0.66432100  0.51076800  0.93403000  1
  Na  Na1  1  0.00000000  0.82340600  0.09597200  1
  Na  Na2  1  0.00000000  0.18912800  0.92885400  1
  Na  Na3  1  0.52134500  0.85247900  0.10308100  1
  Na  Na4  1  0.00000000  0.17771100  0.64759100  1
  Na  Na5  1  0.84090900  0.17444400  0.51537400  1
  Na  Na6  1  0.82555600  0.66646600  0.51537400  1
  Na  Na7  1  0.82228900  0.82228900  0.64759100  1
  Na  Na8  1  0.00000000  0.48762400  0.79227800  1
  Na  Na9  1  0.33353400  0.15909100  0.51537400  1
  Na  Na10  1  0.66886600  0.14752100  0.10308100  1
  Na  Na11  1  0.48661500  0.15285100  0.65339500  1
  Na  Na12  1  0.51843200  0.85029600  0.38488900  1
  Na  Na13  1  0.84948200  0.18323300  0.79404600  1
  Na  Na14  1  0.51338500  0.66623600  0.65339500  1
  Na  Na15  1  0.17659400  0.17659400  0.09597200  1
  Na  Na16  1  0.82340600  0.00000000  0.09597200  1
  Na  Na17  1  0.14752100  0.66886600  0.10308100  1
  Na  Na18  1  0.33268300  0.18034500  0.23867300  1
  Na  Na19  1  0.66813500  0.14970400  0.38488900  1
  Na  Na20  1  0.15909100  0.33353400  0.51537400  1
  Na  Na21  1  0.18034500  0.33268300  0.23867300  1
  Na  Na22  1  0.15355300  0.48923200  0.93403000  1
  Na  Na23  1  0.18912800  0.00000000  0.92885400  1
  Na  Na24  1  0.51733400  0.00000000  0.23574500  1
  Na  Na25  1  0.85029600  0.51843200  0.38488900  1
  Na  Na26  1  0.00000000  0.81584000  0.37905200  1
  Na  Na27  1  0.18323300  0.84948200  0.79404600  1
  Na  Na28  1  0.51076800  0.66432100  0.93403000  1
  Na  Na29  1  0.66624900  0.81676700  0.79404600  1
  Na  Na30  1  0.51568900  0.00000000  0.51732900  1
  Na  Na31  1  0.17771100  0.00000000  0.64759100  1
  Na  Na32  1  0.81676700  0.66624900  0.79404600  1
  Na  Na33  1  0.15051800  0.33375100  0.79404600  1
  Na  Na34  1  0.84714900  0.33376400  0.65339500  1
  Na  Na35  1  0.85247900  0.52134500  0.10308100  1
  Na  Na36  1  0.00000000  0.51568900  0.51732900  1
  Na  Na37  1  0.33376400  0.84714900  0.65339500  1
  Na  Na38  1  0.48431100  0.48431100  0.51732900  1
  Na  Na39  1  0.51237600  0.51237600  0.79227800  1
  Na  Na40  1  0.14970400  0.66813500  0.38488900  1
  Na  Na41  1  0.47865500  0.33113400  0.10308100  1
  Na  Na42  1  0.18416000  0.18416000  0.37905200  1
  Na  Na43  1  0.66646600  0.82555600  0.51537400  1
  Na  Na44  1  0.15233800  0.81965500  0.23867300  1
  Na  Na45  1  0.84644700  0.33567900  0.93403000  1
  Na  Na46  1  0.33186500  0.48156800  0.38488900  1
  Na  Na47  1  0.81965500  0.15233800  0.23867300  1
  Na  Na48  1  0.66731700  0.84766200  0.23867300  1
  Na  Na49  1  0.81584000  0.00000000  0.37905200  1
  Na  Na50  1  0.33375100  0.15051800  0.79404600  1
  Na  Na51  1  0.33567900  0.84644700  0.93403000  1
  Na  Na52  1  0.33113400  0.47865500  0.10308100  1
  Na  Na53  1  0.66623600  0.51338500  0.65339500  1
  Na  Na54  1  0.81087200  0.81087200  0.92885400  1
  Na  Na55  1  0.84766200  0.66731700  0.23867300  1
  Na  Na56  1  0.17444400  0.84090900  0.51537400  1
  Na  Na57  1  0.48923200  0.15355300  0.93403000  1
  Na  Na58  1  0.48266600  0.48266600  0.23574500  1
  Na  Na59  1  0.00000000  0.51733400  0.23574500  1
  Na  Na60  1  0.48156800  0.33186500  0.38488900  1
  Na  Na61  1  0.15285100  0.48661500  0.65339500  1
  Na  Na62  1  0.48762400  0.00000000  0.79227800  1
  S  S0  1  0.00000000  0.66696600  0.93893000  1
  S  S1  1  0.00000000  0.33452300  0.09390100  1
  S  S2  1  0.66666700  0.33333300  0.52677900  1
  S  S3  1  0.33333300  0.66666700  0.25550400  1
  S  S4  1  0.66350600  0.66350600  0.36834800  1
  S  S5  1  0.66666700  0.33333300  0.25550400  1
  S  S6  1  0.00000000  0.00000000  0.78056700  1
  S  S7  1  0.00000000  0.00000000  0.50684400  1
  S  S8  1  0.33025700  0.33025700  0.66648000  1
  S  S9  1  0.66974300  0.00000000  0.66648000  1
  S  S10  1  0.33649400  0.00000000  0.36834800  1
  S  S11  1  0.33333300  0.66666700  0.52677900  1
  S  S12  1  0.00000000  0.66974300  0.66648000  1
  S  S13  1  0.66696600  0.00000000  0.93893000  1
  S  S14  1  0.33303400  0.33303400  0.93893000  1
  S  S15  1  0.00000000  0.33649400  0.36834800  1
  S  S16  1  0.33452300  0.00000000  0.09390100  1
  S  S17  1  0.33333300  0.66666700  0.79541300  1
  S  S18  1  0.66666700  0.33333300  0.79541300  1
  S  S19  1  0.00000000  0.00000000  0.23831700  1
  S  S20  1  0.66547700  0.66547700  0.09390100  1
  Cl  Cl0  1  0.33333300  0.66666700  0.03008500  1
  Cl  Cl1  1  0.66666700  0.33333300  0.03008500  1
  Cl  Cl2  1  0.00000000  0.00000000  0.00043400  1
  O  O0  1  0.00000000  0.88567900  0.26371600  1
  O  O1  1  0.88624500  0.21988400  0.11957600  1
  O  O2  1  0.55256900  0.00000000  0.91362500  1
  O  O3  1  0.33333300  0.66666700  0.87197400  1
  O  O4  1  0.77843400  0.45015900  0.50195100  1
  O  O5  1  0.55059100  0.55059100  0.39575000  1
  O  O6  1  0.44940900  0.00000000  0.39575000  1
  O  O7  1  0.22107900  0.88582200  0.39239700  1
  O  O8  1  0.00000000  0.00000000  0.16180900  1
  O  O9  1  0.67606900  0.00000000  0.74312300  1
  O  O10  1  0.66583900  0.88545600  0.91302900  1
  O  O11  1  0.11435200  0.00000000  0.80546600  1
  O  O12  1  0.55176300  0.33174400  0.23019100  1
  O  O13  1  0.32827500  0.54984100  0.50195100  1
  O  O14  1  0.33187500  0.33187500  0.01549100  1
  O  O15  1  0.54984100  0.32827500  0.50195100  1
  O  O16  1  0.44823700  0.77998000  0.23019100  1
  O  O17  1  0.88567900  0.00000000  0.26371600  1
  O  O18  1  0.78152300  0.11423000  0.63902700  1
  O  O19  1  0.21961700  0.33416100  0.91302900  1
  O  O20  1  0.00000000  0.11423500  0.53215300  1
  O  O21  1  0.66058000  0.66058000  0.29158700  1
  O  O22  1  0.88582200  0.22107900  0.39239700  1
  O  O23  1  0.00000000  0.67606900  0.74312300  1
  O  O24  1  0.00000000  0.44875800  0.11992300  1
  O  O25  1  0.00000000  0.66812500  0.01549100  1
  O  O26  1  0.33333300  0.66666700  0.60359600  1
  O  O27  1  0.33416100  0.21961700  0.91302900  1
  O  O28  1  0.66666700  0.33333300  0.33263200  1
  O  O29  1  0.44875800  0.00000000  0.11992300  1
  O  O30  1  0.11432100  0.11432100  0.26371600  1
  O  O31  1  0.55362300  0.00000000  0.64502300  1
  O  O32  1  0.67172500  0.22156600  0.50195100  1
  O  O33  1  0.88577000  0.66729200  0.63902700  1
  O  O34  1  0.11423000  0.78152300  0.63902700  1
  O  O35  1  0.11417800  0.33525800  0.39239700  1
  O  O36  1  0.44743100  0.44743100  0.91362500  1
  O  O37  1  0.33522200  0.00000000  0.01770200  1
  O  O38  1  0.00000000  0.44940900  0.39575000  1
  O  O39  1  0.55304400  0.21853300  0.76994500  1
  O  O40  1  0.22156600  0.67172500  0.50195100  1
  O  O41  1  0.00000000  0.55256900  0.91362500  1
  O  O42  1  0.78011600  0.66636200  0.11957600  1
  O  O43  1  0.33270800  0.21847700  0.63902700  1
  O  O44  1  0.33525800  0.11417800  0.39239700  1
  O  O45  1  0.11375500  0.33363800  0.11957600  1
  O  O46  1  0.00000000  0.11435200  0.80546600  1
  O  O47  1  0.00000000  0.33942000  0.29158700  1
  O  O48  1  0.66666700  0.33333300  0.87197400  1
  O  O49  1  0.33942000  0.00000000  0.29158700  1
  O  O50  1  0.33451100  0.78146700  0.76994500  1
  O  O51  1  0.77892100  0.66474200  0.39239700  1
  O  O52  1  0.00000000  0.55362300  0.64502300  1
  O  O53  1  0.78146700  0.33451100  0.76994500  1
  O  O54  1  0.66666700  0.33333300  0.60359600  1
  O  O55  1  0.00000000  0.00000000  0.70353900  1
  O  O56  1  0.88564800  0.88564800  0.80546600  1
  O  O57  1  0.11423500  0.00000000  0.53215300  1
  O  O58  1  0.66636200  0.78011600  0.11957600  1
  O  O59  1  0.11454400  0.78038300  0.91302900  1
  O  O60  1  0.88576500  0.88576500  0.53215300  1
  O  O61  1  0.44637700  0.44637700  0.64502300  1
  O  O62  1  0.66477800  0.66477800  0.01770200  1
  O  O63  1  0.66812500  0.00000000  0.01549100  1
  O  O64  1  0.55124200  0.55124200  0.11992300  1
  O  O65  1  0.33333300  0.66666700  0.33263200  1
  O  O66  1  0.66825600  0.22002000  0.23019100  1
  O  O67  1  0.77998000  0.44823700  0.23019100  1
  O  O68  1  0.66729200  0.88577000  0.63902700  1
  O  O69  1  0.45015900  0.77843400  0.50195100  1
  O  O70  1  0.22002000  0.66825600  0.23019100  1
  O  O71  1  0.66474200  0.77892100  0.39239700  1
  O  O72  1  0.33174400  0.55176300  0.23019100  1
  O  O73  1  0.21853300  0.55304400  0.76994500  1
  O  O74  1  0.88545600  0.66583900  0.91302900  1
  O  O75  1  0.66548900  0.44695600  0.76994500  1
  O  O76  1  0.32393100  0.32393100  0.74312300  1
  O  O77  1  0.00000000  0.00000000  0.43022200  1
  O  O78  1  0.21847700  0.33270800  0.63902700  1
  O  O79  1  0.21988400  0.88624500  0.11957600  1
  O  O80  1  0.44695600  0.66548900  0.76994500  1
  O  O81  1  0.78038300  0.11454400  0.91302900  1
  O  O82  1  0.00000000  0.33522200  0.01770200  1
  O  O83  1  0.33363800  0.11375500  0.11957600  1
  F  F0  1  0.00000000  0.66146800  0.31311500  1
  F  F1  1  0.65981300  0.65981300  0.86396100  1
  F  F2  1  0.00000000  0.34943600  0.56649600  1
  F  F3  1  0.32604200  0.00000000  0.71755100  1
  F  F4  1  0.00000000  0.67537000  0.16739200  1
  F  F5  1  0.65056400  0.65056400  0.56649600  1
  F  F6  1  0.67537000  0.00000000  0.16739200  1
  F  F7  1  0.67395800  0.67395800  0.71755100  1
  F  F8  1  0.33853200  0.33853200  0.31311500  1
  F  F9  1  0.31483000  0.31483000  0.46530300  1
  F  F10  1  0.66146800  0.00000000  0.31311500  1
  F  F11  1  0.32463000  0.32463000  0.16739200  1
  F  F12  1  0.68517000  0.00000000  0.46530300  1
  F  F13  1  0.00000000  0.32604200  0.71755100  1
  F  F14  1  0.00000000  0.68517000  0.46530300  1
  F  F15  1  0.34018700  0.00000000  0.86396100  1
  F  F16  1  0.34943600  0.00000000  0.56649600  1
  F  F17  1  0.00000000  0.34018700  0.86396100  1
loop_
_geom_bond_atom_site_label_1
_geom_bond_atom_site_label_2
_geom_bond_distance
_geom_bond_site_symmetry_2
Na0 O36 2.416638 1_555
Na0 O74 2.460415 1_555
Na0 O62 2.506396 1_556
Na0 O48 2.516376 1_555
Na1 O42 2.464014 1_455
Na1 O79 2.464017 1_555
Na1 O25 2.480300 1_555
Na1 O8 2.531375 1_565
Na2 O19 2.406577 1_555
Na2 O81 2.406577 1_455
Na2 O82 2.504622 1_556
Na2 O46 2.585217 1_555
Na3 O58 2.387531 1_555
Na3 O29 2.419464 1_565
Na3 O63 2.497064 1_565
Na3 O16 2.645040 1_555
Na4 O20 2.391274 1_555
Na4 O18 2.407614 1_455
Na4 O78 2.407617 1_555
Na4 O55 2.450869 1_555
Na5 O20 2.443538 1_655
Na5 O32 2.445006 1_555
Na5 O22 2.472381 1_555
Na5 O18 2.530157 1_555
Na6 O60 2.443526 1_555
Na6 O4 2.445018 1_555
Na6 O51 2.472378 1_555
Na6 O33 2.530160 1_555
Na7 O60 2.391274 1_555
Na7 O33 2.407626 1_555
Na7 O68 2.407626 1_555
Na7 O55 2.450869 1_665
Na8 O53 2.436452 1_455
Na8 O73 2.436452 1_555
Na8 O41 2.506570 1_555
Na8 O23 2.516262 1_555
Na9 O57 2.443529 1_555
Na9 O15 2.445014 1_555
Na9 O44 2.472383 1_555
Na9 O43 2.530153 1_555
Na10 O1 2.387520 1_555
Na10 O29 2.419464 1_555
Na10 O63 2.497064 1_555
Na10 O66 2.645042 1_555
Na11 O31 2.413760 1_555
Na11 O39 2.422384 1_555
Na11 O43 2.424515 1_555
Na11 O54 2.428370 1_555
Na12 O71 2.376054 1_555
Na12 O6 2.398995 1_565
Na12 O69 2.449144 1_555
Na12 O65 2.494137 1_555
Na13 O46 2.408209 1_655
Na13 O9 2.417688 1_555
Na13 O53 2.444773 1_555
Na13 O81 2.479059 1_555
Na14 O61 2.413760 1_555
Na14 O80 2.422384 1_555
Na14 O68 2.424524 1_555
Na14 O26 2.428375 1_555
Na15 O83 2.464005 1_555
Na15 O45 2.464005 1_555
Na15 O14 2.480300 1_555
Na15 O8 2.531375 1_555
Na16 O58 2.464014 1_545
Na16 O1 2.464017 1_555
Na16 O63 2.480300 1_555
Na16 O8 2.531375 1_655
Na17 O79 2.387520 1_555
Na17 O24 2.419464 1_555
Na17 O25 2.497064 1_555
Na17 O70 2.645042 1_555
Na18 O12 2.402955 1_555
Na18 O30 2.442912 1_555
Na18 O83 2.473542 1_555
Na18 O49 2.493125 1_555
Na19 O22 2.376077 1_555
Na19 O6 2.398986 1_555
Na19 O32 2.449142 1_555
Na19 O28 2.494126 1_555
Na20 O20 2.443529 1_555
Na20 O13 2.445014 1_555
Na20 O35 2.472383 1_555
Na20 O78 2.530153 1_555
Na21 O72 2.402955 1_555
Na21 O30 2.442912 1_555
Na21 O45 2.473542 1_555
Na21 O47 2.493125 1_555
Na22 O41 2.416638 1_555
Na22 O19 2.460415 1_555
Na22 O82 2.506396 1_556
Na22 O3 2.516371 1_555
Na23 O27 2.406577 1_555
Na23 O59 2.406577 1_545
Na23 O37 2.504622 1_556
Na23 O11 2.585217 1_555
Na24 O66 2.406999 1_555
Na24 O16 2.407002 1_545
Na24 O29 2.419656 1_555
Na24 O49 2.452184 1_555
Na25 O51 2.376054 1_555
Na25 O38 2.398995 1_655
Na25 O4 2.449144 1_555
Na25 O28 2.494137 1_555
Na26 O0 2.416260 1_555
Na26 O7 2.428783 1_555
Na26 O51 2.428785 1_455
Na26 O77 2.483135 1_565
Na27 O11 2.408209 1_565
Na27 O23 2.417688 1_555
Na27 O50 2.444773 1_555
Na27 O59 2.479059 1_555
Na28 O36 2.416638 1_555
Na28 O10 2.460415 1_555
Na28 O62 2.506396 1_556
Na28 O3 2.516376 1_555
Na29 O56 2.408209 1_555
Na29 O9 2.417688 1_565
Na29 O80 2.444773 1_555
Na29 O10 2.479059 1_555
Na30 O32 2.450980 1_555
Na30 O69 2.450981 1_545
Na30 O6 2.516178 1_555
Na30 O31 2.542710 1_555
Na31 O57 2.391274 1_555
Na31 O34 2.407614 1_545
Na31 O43 2.407617 1_555
Na31 O55 2.450869 1_555
Na32 O56 2.408209 1_555
Na32 O23 2.417688 1_655
Na32 O75 2.444773 1_555
Na32 O74 2.479059 1_555
Na33 O46 2.408208 1_555
Na33 O76 2.417688 1_555
Na33 O73 2.444773 1_555
Na33 O19 2.479059 1_555
Na34 O52 2.413760 1_655
Na34 O53 2.422384 1_555
Na34 O18 2.424526 1_555
Na34 O54 2.428364 1_555
Na35 O42 2.387531 1_555
Na35 O24 2.419464 1_655
Na35 O25 2.497064 1_655
Na35 O67 2.645040 1_555
Na36 O40 2.450980 1_555
Na36 O4 2.450981 1_455
Na36 O38 2.516178 1_555
Na36 O52 2.542710 1_555
Na37 O31 2.413760 1_565
Na37 O50 2.422384 1_555
Na37 O34 2.424526 1_555
Na37 O26 2.428364 1_555
Na38 O13 2.450981 1_555
Na38 O15 2.450981 1_555
Na38 O5 2.516178 1_555
Na38 O61 2.542710 1_555
Na39 O75 2.436452 1_555
Na39 O80 2.436452 1_555
Na39 O36 2.506570 1_555
Na39 O76 2.516262 1_555
Na40 O7 2.376077 1_555
Na40 O38 2.398986 1_555
Na40 O40 2.449142 1_555
Na40 O65 2.494126 1_555
Na41 O83 2.387522 1_555
Na41 O64 2.419464 1_555
Na41 O14 2.497064 1_555
Na41 O12 2.645038 1_555
Na42 O30 2.416260 1_555
Na42 O44 2.428795 1_555
Na42 O35 2.428795 1_555
Na42 O77 2.483135 1_555
Na43 O60 2.443526 1_555
Na43 O69 2.445018 1_555
Na43 O71 2.472378 1_555
Na43 O68 2.530160 1_555
Na44 O70 2.402965 1_555
Na44 O0 2.442912 1_555
Na44 O79 2.473544 1_555
Na44 O49 2.493125 1_565
Na45 O41 2.416637 1_655
Na45 O81 2.460415 1_555
Na45 O82 2.506396 1_656
Na45 O48 2.516365 1_555
Na46 O35 2.376072 1_555
Na46 O5 2.398983 1_555
Na46 O13 2.449147 1_555
Na46 O65 2.494148 1_555
Na47 O66 2.402965 1_555
Na47 O17 2.442912 1_555
Na47 O1 2.473544 1_555
Na47 O47 2.493125 1_655
Na48 O16 2.402953 1_555
Na48 O17 2.442912 1_565
Na48 O58 2.473546 1_555
Na48 O21 2.493125 1_555
Na49 O17 2.416260 1_555
Na49 O22 2.428783 1_555
Na49 O71 2.428785 1_545
Na49 O77 2.483135 1_655
Na50 O11 2.408208 1_555
Na50 O76 2.417688 1_555
Na50 O39 2.444773 1_555
Na50 O27 2.479059 1_555
Na51 O2 2.416637 1_565
Na51 O59 2.460415 1_555
Na51 O37 2.506396 1_566
Na51 O3 2.516365 1_555
Na52 O45 2.387522 1_555
Na52 O64 2.419464 1_555
Na52 O14 2.497064 1_555
Na52 O72 2.645038 1_555
Na53 O61 2.413760 1_555
Na53 O75 2.422384 1_555
Na53 O33 2.424524 1_555
Na53 O54 2.428375 1_555
Na54 O10 2.406577 1_555
Na54 O74 2.406577 1_555
Na54 O62 2.504622 1_556
Na54 O56 2.585217 1_555
Na55 O67 2.402953 1_555
Na55 O0 2.442912 1_655
Na55 O42 2.473546 1_555
Na55 O21 2.493125 1_555
Na56 O57 2.443538 1_565
Na56 O40 2.445006 1_555
Na56 O7 2.472381 1_555
Na56 O34 2.530157 1_555
Na57 O2 2.416638 1_555
Na57 O27 2.460415 1_555
Na57 O37 2.506396 1_556
Na57 O48 2.516371 1_555
Na58 O12 2.406990 1_555
Na58 O72 2.406990 1_555
Na58 O64 2.419656 1_555
Na58 O21 2.452184 1_555
Na59 O70 2.406999 1_555
Na59 O67 2.407002 1_455
Na59 O24 2.419656 1_555
Na59 O47 2.452184 1_555
Na60 O44 2.376072 1_555
Na60 O5 2.398983 1_555
Na60 O15 2.449147 1_555
Na60 O28 2.494148 1_555
Na61 O52 2.413760 1_555
Na61 O73 2.422384 1_555
Na61 O78 2.424515 1_555
Na61 O26 2.428370 1_555
Na62 O50 2.436452 1_545
Na62 O39 2.436452 1_555
Na62 O2 2.506570 1_555
Na62 O9 2.516262 1_555
Cl0 Na17 2.712949 1_555
Cl0 Na3 2.712954 1_555
Cl0 Na52 2.712959 1_555
Cl0 Na51 2.896784 1_554
Cl0 Na22 2.896788 1_554
Cl0 Na28 2.896793 1_554
Cl1 Na10 2.712949 1_555
Cl1 Na35 2.712954 1_555
Cl1 Na41 2.712959 1_555
Cl1 Na45 2.896784 1_554
Cl1 Na57 2.896788 1_554
Cl1 Na0 2.896793 1_554
Cl2 Na54 2.721764 1_444
Cl2 Na23 2.721764 1_554
Cl2 Na2 2.721764 1_554
Cl2 Na15 2.871225 1_555
Cl2 Na16 2.871225 1_455
Cl2 Na1 2.871225 1_545
O0 S19 1.495556 1_565
O1 S1 1.495949 1_655
O2 S13 1.495830 1_555
O3 S17 1.498473 1_555
O4 S2 1.492572 1_555
O5 S4 1.492838 1_555
O6 S10 1.492838 1_555
O7 S10 1.492607 1_565
O8 S19 1.497436 1_555
O9 S9 1.502107 1_555
O10 S13 1.494946 1_565
O11 S6 1.492693 1_555
O12 S5 1.492632 1_555
O13 S11 1.492577 1_555
O14 S14 1.498542 1_554
O15 S2 1.492577 1_555
O16 S3 1.492621 1_555
O17 S19 1.495556 1_655
O18 S9 1.494462 1_555
O19 S14 1.494946 1_555
O20 S7 1.493970 1_555
O21 S4 1.502821 1_555
O22 S15 1.492607 1_655
O23 S12 1.502107 1_555
O24 S1 1.498655 1_555
O25 S0 1.498542 1_554
O26 S11 1.503484 1_555
O27 S14 1.494946 1_555
O28 S5 1.509571 1_555
O29 S16 1.498655 1_555
O30 S19 1.495556 1_555
O31 S9 1.492998 1_555
O32 S2 1.492566 1_555
O33 S12 1.494457 1_655
O34 S12 1.494462 1_555
O35 S15 1.492601 1_555
O36 S14 1.495830 1_555
O37 S16 1.491413 1_555
O38 S15 1.492838 1_555
O39 S18 1.494785 1_555
O40 S11 1.492566 1_555
O41 S0 1.495830 1_555
O42 S20 1.495943 1_555
O43 S8 1.494468 1_555
O44 S10 1.492601 1_555
O45 S1 1.495955 1_555
O46 S6 1.492693 1_555
O47 S15 1.502821 1_555
O48 S18 1.498473 1_555
O49 S10 1.502821 1_555
O50 S17 1.494779 1_555
O51 S4 1.492613 1_555
O52 S12 1.492998 1_555
O53 S18 1.494779 1_555
O54 S2 1.503484 1_555
O55 S6 1.507614 1_555
O56 S6 1.492693 1_665
O57 S7 1.493970 1_555
O58 S20 1.495943 1_555
O59 S0 1.494946 1_555
O60 S7 1.493970 1_665
O61 S8 1.492997 1_555
O62 S20 1.491413 1_555
O63 S13 1.498542 1_554
O64 S20 1.498655 1_555
O65 S3 1.509571 1_555
O66 S5 1.492609 1_555
O67 S5 1.492621 1_555
O68 S9 1.494457 1_565
O69 S11 1.492572 1_555
O70 S3 1.492609 1_555
O71 S4 1.492613 1_555
O72 S3 1.492632 1_555
O73 S17 1.494785 1_555
O74 S0 1.494946 1_655
O75 S18 1.494791 1_555
O76 S8 1.502107 1_555
O77 S7 1.499667 1_555
O78 S8 1.494468 1_555
O79 S16 1.495949 1_565
O80 S17 1.494791 1_555
O81 S13 1.494946 1_555
O82 S1 1.491413 1_555
O83 S16 1.495955 1_555
F0 Na25 2.289089 1_455
F0 Na40 2.289094 1_555
F0 Na26 2.300713 1_555
F0 Na59 2.335741 1_555
F0 Na44 2.407597 1_555
F0 Na55 2.407597 1_455
F1 Na54 2.255419 1_555
F1 Na39 2.297297 1_555
F1 Na28 2.316870 1_555
F1 Na0 2.316870 1_555
F1 Na32 2.339915 1_555
F1 Na29 2.339915 1_555
F2 Na36 2.265776 1_555
F2 Na5 2.297329 1_455
F2 Na20 2.297336 1_555
F2 Na61 2.474296 1_555
F2 Na34 2.474296 1_455
F2 Na4 2.647355 1_555
F3 Na31 2.285681 1_555
F3 Na11 2.306978 1_555
F3 Na37 2.306978 1_545
F3 Na27 2.350080 1_545
F3 Na50 2.350080 1_555
F3 Na62 2.472593 1_555
F4 Na35 2.247176 1_455
F4 Na17 2.247176 1_555
F4 Na1 2.300022 1_555
F4 Na44 2.302680 1_555
F4 Na55 2.302680 1_455
F4 Na59 2.364704 1_555
F5 Na38 2.265776 1_555
F5 Na43 2.297325 1_555
F5 Na6 2.297325 1_555
F5 Na53 2.474296 1_555
F5 Na14 2.474296 1_555
F5 Na7 2.647355 1_555
F6 Na3 2.247176 1_545
F6 Na10 2.247176 1_555
F6 Na16 2.300022 1_555
F6 Na47 2.302680 1_555
F6 Na48 2.302680 1_545
F6 Na24 2.364704 1_555
F7 Na7 2.285681 1_555
F7 Na53 2.306978 1_555
F7 Na14 2.306978 1_555
F7 Na29 2.350080 1_555
F7 Na32 2.350080 1_555
F7 Na39 2.472593 1_555
F8 Na46 2.289084 1_555
F8 Na60 2.289084 1_555
F8 Na42 2.300713 1_555
F8 Na58 2.335741 1_555
F8 Na18 2.407597 1_555
F8 Na21 2.407597 1_555
F9 Na9 2.269237 1_555
F9 Na20 2.269237 1_555
F9 Na38 2.325844 1_555
F9 Na42 2.334328 1_555
F9 Na46 2.514196 1_555
F9 Na60 2.514196 1_555
F10 Na12 2.289089 1_545
F10 Na19 2.289094 1_555
F10 Na49 2.300713 1_555
F10 Na24 2.335741 1_555
F10 Na47 2.407597 1_555
F10 Na48 2.407597 1_545
F11 Na52 2.247176 1_555
F11 Na41 2.247176 1_555
F11 Na15 2.300022 1_555
F11 Na21 2.302680 1_555
F11 Na18 2.302680 1_555
F11 Na58 2.364704 1_555
F12 Na5 2.269243 1_555
F12 Na43 2.269248 1_545
F12 Na30 2.325844 1_555
F12 Na49 2.334328 1_555
F12 Na12 2.514200 1_545
F12 Na19 2.514205 1_555
F13 Na4 2.285681 1_555
F13 Na61 2.306978 1_555
F13 Na34 2.306978 1_455
F13 Na13 2.350080 1_455
F13 Na33 2.350080 1_555
F13 Na8 2.472593 1_555
F14 Na56 2.269243 1_555
F14 Na6 2.269248 1_455
F14 Na36 2.325844 1_555
F14 Na26 2.334328 1_555
F14 Na25 2.514200 1_455
F14 Na40 2.514205 1_555
F15 Na23 2.255420 1_555
F15 Na62 2.297297 1_555
F15 Na57 2.316870 1_555
F15 Na51 2.316870 1_545
F15 Na27 2.339915 1_545
F15 Na50 2.339915 1_555
F16 Na30 2.265776 1_555
F16 Na56 2.297329 1_545
F16 Na9 2.297336 1_555
F16 Na11 2.474296 1_555
F16 Na37 2.474296 1_545
F16 Na31 2.647355 1_555
F17 Na2 2.255420 1_555
F17 Na8 2.297297 1_555
F17 Na22 2.316870 1_555
F17 Na45 2.316870 1_455
F17 Na13 2.339915 1_455
F17 Na33 2.339915 1_555
