# generated using pymatgen
data_KMn4O8
_symmetry_space_group_name_H-M   'P 1'
_cell_length_a   4.81572400
_cell_length_b   5.44215489
_cell_length_c   7.16221507
_cell_angle_alpha   86.62165623
_cell_angle_beta   83.90632463
_cell_angle_gamma   64.51930388
_symmetry_Int_Tables_number   1
_chemical_formula_structural   KMn4O8
_chemical_formula_sum   'K1 Mn4 O8'
_cell_volume   168.47272142
_cell_formula_units_Z   1
loop_
 _symmetry_equiv_pos_site_id
 _symmetry_equiv_pos_as_xyz
  1  'x, y, z'
loop_
 _atom_site_type_symbol
 _atom_site_label
 _atom_site_symmetry_multiplicity
 _atom_site_fract_x
 _atom_site_fract_y
 _atom_site_fract_z
 _atom_site_occupancy
  K  K0  1  0.83018900  0.42719800  0.43611200  1
  Mn  Mn0  1  0.03887100  0.87144600  0.87758800  1
  Mn  Mn1  1  0.51250400  0.99372400  0.67326800  1
  Mn  Mn2  1  0.75870600  0.40689500  0.96901900  1
  Mn  Mn3  1  0.47408700  0.06697300  0.16024000  1
  O  O0  1  0.07487100  0.07987800  0.09473800  1
  O  O1  1  0.48777600  0.98194000  0.41153800  1
  O  O2  1  0.47723000  0.41807600  0.17758600  1
  O  O3  1  0.07556500  0.18934900  0.74849800  1
  O  O4  1  0.94180400  0.78476200  0.65249700  1
  O  O5  1  0.60586300  0.13362900  0.89963100  1
  O  O6  1  0.86911000  0.66869600  0.05487300  1
  O  O7  1  0.46688700  0.66933600  0.81296600  1
loop_
_geom_bond_atom_site_label_1
_geom_bond_atom_site_label_2
_geom_bond_distance
_geom_bond_site_symmetry_2
K0 O3 2.642273 1_655
K0 O2 2.659277 1_555
K0 O1 2.753188 1_555
K0 O4 2.812404 1_555
K0 O6 2.983035 1_555
K0 O0 2.992634 1_655
K0 O1 3.043113 1_645
K0 O7 3.084732 1_555
Mn0 O4 1.865328 1_455
Mn0 O7 1.891923 1_555
Mn0 O5 1.950822 1_465
Mn0 O6 1.971985 1_456
Mn0 O3 1.979661 1_565
Mn0 O0 2.042055 1_566
Mn1 O4 1.876496 1_555
Mn1 O1 1.897479 1_555
Mn1 O3 1.936684 1_565
Mn1 O5 2.001272 1_565
Mn1 O7 2.060272 1_555
Mn2 O6 1.874878 1_556
Mn2 O2 1.892724 1_556
Mn2 O7 1.918955 1_555
Mn2 O0 2.016676 1_656
Mn2 O5 2.026568 1_555
Mn2 O3 2.092593 1_655
Mn3 O1 1.832685 1_545
Mn3 O2 1.928708 1_555
Mn3 O5 1.971054 1_554
Mn3 O0 1.998128 1_555
Mn3 O6 2.286180 1_545
