# generated using pymatgen
data_CsXe3O3F13
_symmetry_space_group_name_H-M   'P 1'
_cell_length_a   14.37818800
_cell_length_b   14.37818800
_cell_length_c   14.37818800
_cell_angle_alpha   90.00000000
_cell_angle_beta   90.00000000
_cell_angle_gamma   90.00000000
_symmetry_Int_Tables_number   1
_chemical_formula_structural   CsXe3O3F13
_chemical_formula_sum   'Cs8 Xe24 O24 F104'
_cell_volume   2972.43573364
_cell_formula_units_Z   8
loop_
 _symmetry_equiv_pos_site_id
 _symmetry_equiv_pos_as_xyz
  1  'x, y, z'
loop_
 _atom_site_type_symbol
 _atom_site_label
 _atom_site_symmetry_multiplicity
 _atom_site_fract_x
 _atom_site_fract_y
 _atom_site_fract_z
 _atom_site_occupancy
  Cs  Cs0  1  0.50000000  0.50000000  0.50000000  1
  Cs  Cs1  1  0.00000000  0.00000000  0.00000000  1
  Cs  Cs2  1  0.00000000  0.50000000  0.50000000  1
  Cs  Cs3  1  0.50000000  0.50000000  0.00000000  1
  Cs  Cs4  1  0.50000000  0.00000000  0.00000000  1
  Cs  Cs5  1  0.00000000  0.00000000  0.50000000  1
  Cs  Cs6  1  0.50000000  0.00000000  0.50000000  1
  Cs  Cs7  1  0.00000000  0.50000000  0.00000000  1
  Xe  Xe0  1  0.02387200  0.74461700  0.25128400  1
  Xe  Xe1  1  0.74871600  0.97612800  0.25538300  1
  Xe  Xe2  1  0.74871600  0.52387200  0.75538300  1
  Xe  Xe3  1  0.74461700  0.25128400  0.02387200  1
  Xe  Xe4  1  0.24871600  0.97612800  0.24461700  1
  Xe  Xe5  1  0.97612800  0.25538300  0.74871600  1
  Xe  Xe6  1  0.52387200  0.75538300  0.74871600  1
  Xe  Xe7  1  0.24461700  0.25128400  0.47612800  1
  Xe  Xe8  1  0.74461700  0.24871600  0.52387200  1
  Xe  Xe9  1  0.47612800  0.25538300  0.75128400  1
  Xe  Xe10  1  0.25128400  0.47612800  0.24461700  1
  Xe  Xe11  1  0.75538300  0.75128400  0.02387200  1
  Xe  Xe12  1  0.25538300  0.75128400  0.47612800  1
  Xe  Xe13  1  0.47612800  0.24461700  0.25128400  1
  Xe  Xe14  1  0.75128400  0.02387200  0.75538300  1
  Xe  Xe15  1  0.24461700  0.24871600  0.97612800  1
  Xe  Xe16  1  0.25128400  0.02387200  0.74461700  1
  Xe  Xe17  1  0.02387200  0.75538300  0.75128400  1
  Xe  Xe18  1  0.75538300  0.74871600  0.52387200  1
  Xe  Xe19  1  0.25538300  0.74871600  0.97612800  1
  Xe  Xe20  1  0.75128400  0.47612800  0.25538300  1
  Xe  Xe21  1  0.97612800  0.24461700  0.24871600  1
  Xe  Xe22  1  0.24871600  0.52387200  0.74461700  1
  Xe  Xe23  1  0.52387200  0.74461700  0.24871600  1
  O  O0  1  0.10039200  0.25585200  0.77893400  1
  O  O1  1  0.25585200  0.72106600  0.60039200  1
  O  O2  1  0.75585200  0.72106600  0.89960800  1
  O  O3  1  0.22106600  0.89960800  0.74414800  1
  O  O4  1  0.60039200  0.24414800  0.22106600  1
  O  O5  1  0.39960800  0.74414800  0.27893400  1
  O  O6  1  0.27893400  0.10039200  0.24414800  1
  O  O7  1  0.27893400  0.39960800  0.74414800  1
  O  O8  1  0.60039200  0.25585200  0.72106600  1
  O  O9  1  0.72106600  0.89960800  0.75585200  1
  O  O10  1  0.77893400  0.10039200  0.25585200  1
  O  O11  1  0.22106600  0.60039200  0.24414800  1
  O  O12  1  0.24414800  0.22106600  0.60039200  1
  O  O13  1  0.10039200  0.24414800  0.27893400  1
  O  O14  1  0.25585200  0.77893400  0.10039200  1
  O  O15  1  0.89960800  0.75585200  0.72106600  1
  O  O16  1  0.75585200  0.77893400  0.39960800  1
  O  O17  1  0.74414800  0.22106600  0.89960800  1
  O  O18  1  0.77893400  0.39960800  0.75585200  1
  O  O19  1  0.74414800  0.27893400  0.39960800  1
  O  O20  1  0.89960800  0.74414800  0.22106600  1
  O  O21  1  0.39960800  0.75585200  0.77893400  1
  O  O22  1  0.24414800  0.27893400  0.10039200  1
  O  O23  1  0.72106600  0.60039200  0.25585200  1
  F  F0  1  0.50236600  0.31337900  0.37239000  1
  F  F1  1  0.67850200  0.45655600  0.13479200  1
  F  F2  1  0.48995100  0.12030800  0.32016200  1
  F  F3  1  0.95655600  0.13479200  0.82149800  1
  F  F4  1  0.67850200  0.04344400  0.63479200  1
  F  F5  1  0.37239000  0.50236600  0.31337900  1
  F  F6  1  0.45655600  0.36520800  0.17850200  1
  F  F7  1  0.63229200  0.05258300  0.82858300  1
  F  F8  1  0.62030800  0.32016200  0.01004900  1
  F  F9  1  0.05258300  0.67141700  0.13229200  1
  F  F10  1  0.04344400  0.86520800  0.17850200  1
  F  F11  1  0.95655600  0.36520800  0.32149800  1
  F  F12  1  0.12030800  0.32016200  0.48995100  1
  F  F13  1  0.30599100  0.30599100  0.30599100  1
  F  F14  1  0.82858300  0.86770800  0.55258300  1
  F  F15  1  0.51004900  0.87969200  0.67983800  1
  F  F16  1  0.44741700  0.17141700  0.13229200  1
  F  F17  1  0.62030800  0.17983800  0.51004900  1
  F  F18  1  0.94741700  0.17141700  0.36770800  1
  F  F19  1  0.55258300  0.82858300  0.86770800  1
  F  F20  1  0.19400900  0.69400900  0.80599100  1
  F  F21  1  0.82858300  0.63229200  0.05258300  1
  F  F22  1  0.18662100  0.87239000  0.50236600  1
  F  F23  1  0.17141700  0.13229200  0.44741700  1
  F  F24  1  0.86770800  0.55258300  0.82858300  1
  F  F25  1  0.31337900  0.37239000  0.50236600  1
  F  F26  1  0.05258300  0.82858300  0.63229200  1
  F  F27  1  0.94741700  0.32858300  0.86770800  1
  F  F28  1  0.12030800  0.17983800  0.98995100  1
  F  F29  1  0.49763400  0.81337900  0.12761000  1
  F  F30  1  0.86770800  0.94741700  0.32858300  1
  F  F31  1  0.81337900  0.37239000  0.99763400  1
  F  F32  1  0.82149800  0.54344400  0.63479200  1
  F  F33  1  0.80599100  0.30599100  0.19400900  1
  F  F34  1  0.87969200  0.67983800  0.51004900  1
  F  F35  1  0.87239000  0.99763400  0.68662100  1
  F  F36  1  0.69400900  0.80599100  0.19400900  1
  F  F37  1  0.54344400  0.86520800  0.32149800  1
  F  F38  1  0.00236600  0.18662100  0.62761000  1
  F  F39  1  0.17141700  0.36770800  0.94741700  1
  F  F40  1  0.99763400  0.81337900  0.37239000  1
  F  F41  1  0.49763400  0.68662100  0.62761000  1
  F  F42  1  0.30599100  0.19400900  0.80599100  1
  F  F43  1  0.63479200  0.82149800  0.54344400  1
  F  F44  1  0.63229200  0.44741700  0.32858300  1
  F  F45  1  0.19400900  0.80599100  0.30599100  1
  F  F46  1  0.68662100  0.62761000  0.49763400  1
  F  F47  1  0.36770800  0.55258300  0.67141700  1
  F  F48  1  0.86520800  0.32149800  0.54344400  1
  F  F49  1  0.67983800  0.51004900  0.87969200  1
  F  F50  1  0.62761000  0.49763400  0.68662100  1
  F  F51  1  0.82016200  0.01004900  0.87969200  1
  F  F52  1  0.00236600  0.31337900  0.12761000  1
  F  F53  1  0.98995100  0.12030800  0.17983800  1
  F  F54  1  0.67983800  0.98995100  0.37969200  1
  F  F55  1  0.36770800  0.94741700  0.17141700  1
  F  F56  1  0.62761000  0.00236600  0.18662100  1
  F  F57  1  0.68662100  0.87239000  0.99763400  1
  F  F58  1  0.45655600  0.13479200  0.67850200  1
  F  F59  1  0.87239000  0.50236600  0.18662100  1
  F  F60  1  0.98995100  0.37969200  0.67983800  1
  F  F61  1  0.12761000  0.49763400  0.81337900  1
  F  F62  1  0.32858300  0.86770800  0.94741700  1
  F  F63  1  0.86520800  0.17850200  0.04344400  1
  F  F64  1  0.82149800  0.95655600  0.13479200  1
  F  F65  1  0.69400900  0.69400900  0.69400900  1
  F  F66  1  0.04344400  0.63479200  0.67850200  1
  F  F67  1  0.44741700  0.32858300  0.63229200  1
  F  F68  1  0.13229200  0.44741700  0.17141700  1
  F  F69  1  0.12761000  0.00236600  0.31337900  1
  F  F70  1  0.37969200  0.67983800  0.98995100  1
  F  F71  1  0.87969200  0.82016200  0.01004900  1
  F  F72  1  0.13479200  0.67850200  0.45655600  1
  F  F73  1  0.50236600  0.18662100  0.87239000  1
  F  F74  1  0.54344400  0.63479200  0.82149800  1
  F  F75  1  0.13229200  0.05258300  0.67141700  1
  F  F76  1  0.17850200  0.45655600  0.36520800  1
  F  F77  1  0.37239000  0.99763400  0.81337900  1
  F  F78  1  0.17983800  0.51004900  0.62030800  1
  F  F79  1  0.32016200  0.48995100  0.12030800  1
  F  F80  1  0.63479200  0.67850200  0.04344400  1
  F  F81  1  0.01004900  0.62030800  0.32016200  1
  F  F82  1  0.81337900  0.12761000  0.49763400  1
  F  F83  1  0.36520800  0.17850200  0.45655600  1
  F  F84  1  0.17850200  0.04344400  0.86520800  1
  F  F85  1  0.32149800  0.54344400  0.86520800  1
  F  F86  1  0.01004900  0.87969200  0.82016200  1
  F  F87  1  0.67141700  0.36770800  0.55258300  1
  F  F88  1  0.51004900  0.62030800  0.17983800  1
  F  F89  1  0.80599100  0.19400900  0.69400900  1
  F  F90  1  0.99763400  0.68662100  0.87239000  1
  F  F91  1  0.37969200  0.82016200  0.48995100  1
  F  F92  1  0.18662100  0.62761000  0.00236600  1
  F  F93  1  0.32858300  0.63229200  0.44741700  1
  F  F94  1  0.82016200  0.48995100  0.37969200  1
  F  F95  1  0.55258300  0.67141700  0.36770800  1
  F  F96  1  0.32016200  0.01004900  0.62030800  1
  F  F97  1  0.31337900  0.12761000  0.00236600  1
  F  F98  1  0.32149800  0.95655600  0.36520800  1
  F  F99  1  0.36520800  0.32149800  0.95655600  1
  F  F100  1  0.17983800  0.98995100  0.12030800  1
  F  F101  1  0.13479200  0.82149800  0.95655600  1
  F  F102  1  0.48995100  0.37969200  0.82016200  1
  F  F103  1  0.67141700  0.13229200  0.05258300  1
loop_
_geom_bond_atom_site_label_1
_geom_bond_atom_site_label_2
_geom_bond_distance
_geom_bond_site_symmetry_2
Cs0 F93 3.203786 1_555
Cs0 F44 3.203786 1_555
Cs0 F67 3.203786 1_555
Cs0 F47 3.203786 1_555
Cs0 F87 3.203786 1_555
Cs0 F95 3.203786 1_555
Cs0 F5 3.250784 1_555
Cs0 F25 3.250784 1_555
Cs0 F0 3.250784 1_555
Cs0 F46 3.250784 1_555
Cs0 F41 3.250784 1_555
Cs0 F50 3.250784 1_555
Cs1 F100 3.114353 1_545
Cs1 F53 3.114353 1_455
Cs1 F86 3.114353 1_544
Cs1 F28 3.114353 1_554
Cs1 F71 3.114353 1_445
Cs1 F51 3.114353 1_454
Cs1 F10 3.276184 1_545
Cs1 F63 3.276184 1_455
Cs1 F84 3.276184 1_554
Cs1 F3 3.276184 1_454
Cs1 F101 3.276184 1_544
Cs1 F64 3.276184 1_445
Cs2 F78 3.114353 1_555
Cs2 F81 3.114353 1_555
Cs2 F12 3.114353 1_555
Cs2 F60 3.114353 1_455
Cs2 F94 3.114353 1_455
Cs2 F34 3.114353 1_455
Cs2 F76 3.276184 1_555
Cs2 F11 3.276184 1_455
Cs2 F48 3.276184 1_455
Cs2 F72 3.276184 1_555
Cs2 F66 3.276184 1_555
Cs2 F32 3.276184 1_455
Cs3 F88 3.114353 1_555
Cs3 F8 3.114353 1_555
Cs3 F79 3.114353 1_555
Cs3 F49 3.114353 1_554
Cs3 F102 3.114353 1_554
Cs3 F70 3.114353 1_554
Cs3 F6 3.276184 1_555
Cs3 F1 3.276184 1_555
Cs3 F85 3.276184 1_554
Cs3 F99 3.276184 1_554
Cs3 F80 3.276184 1_555
Cs3 F74 3.276184 1_554
Cs4 F7 3.203786 1_554
Cs4 F16 3.203786 1_555
Cs4 F62 3.203786 1_544
Cs4 F103 3.203786 1_555
Cs4 F19 3.203786 1_544
Cs4 F55 3.203786 1_545
Cs4 F97 3.250784 1_555
Cs4 F56 3.250784 1_555
Cs4 F73 3.250784 1_554
Cs4 F77 3.250784 1_544
Cs4 F29 3.250784 1_545
Cs4 F57 3.250784 1_544
Cs5 F30 3.203786 1_445
Cs5 F23 3.203786 1_555
Cs5 F14 3.203786 1_445
Cs5 F18 3.203786 1_455
Cs5 F75 3.203786 1_555
Cs5 F26 3.203786 1_545
Cs5 F69 3.250784 1_555
Cs5 F38 3.250784 1_555
Cs5 F22 3.250784 1_545
Cs5 F82 3.250784 1_455
Cs5 F40 3.250784 1_445
Cs5 F35 3.250784 1_445
Cs6 F96 3.114353 1_555
Cs6 F17 3.114353 1_555
Cs6 F2 3.114353 1_555
Cs6 F15 3.114353 1_545
Cs6 F91 3.114353 1_545
Cs6 F54 3.114353 1_545
Cs6 F58 3.276184 1_555
Cs6 F37 3.276184 1_545
Cs6 F83 3.276184 1_555
Cs6 F98 3.276184 1_545
Cs6 F43 3.276184 1_545
Cs6 F4 3.276184 1_555
Cs7 F27 3.203786 1_454
Cs7 F21 3.203786 1_455
Cs7 F68 3.203786 1_555
Cs7 F9 3.203786 1_555
Cs7 F39 3.203786 1_554
Cs7 F24 3.203786 1_454
Cs7 F59 3.250784 1_455
Cs7 F52 3.250784 1_555
Cs7 F92 3.250784 1_555
Cs7 F61 3.250784 1_554
Cs7 F31 3.250784 1_454
Cs7 F90 3.250784 1_454
O0 Xe5 1.838772 1_455
O1 Xe12 1.838772 1_555
O2 Xe11 1.838772 1_556
O3 Xe16 1.838772 1_565
O4 Xe13 1.838772 1_555
O5 Xe23 1.838772 1_555
O6 Xe4 1.838772 1_545
O7 Xe22 1.838772 1_555
O8 Xe9 1.838772 1_555
O9 Xe14 1.838772 1_565
O10 Xe1 1.838772 1_545
O11 Xe10 1.838772 1_555
O12 Xe7 1.838772 1_555
O13 Xe21 1.838772 1_455
O14 Xe19 1.838772 1_554
O15 Xe17 1.838772 1_655
O16 Xe18 1.838772 1_555
O17 Xe3 1.838772 1_556
O18 Xe2 1.838772 1_555
O19 Xe8 1.838772 1_555
O20 Xe0 1.838772 1_655
O21 Xe6 1.838772 1_555
O22 Xe15 1.838772 1_554
O23 Xe20 1.838772 1_555
F0 Xe13 2.037613 1_555
F1 Xe20 2.044661 1_555
F2 Xe13 2.053011 1_555
F3 Xe5 2.044661 1_555
F4 Xe14 2.044661 1_555
F5 Xe10 2.037613 1_555
F6 Xe13 2.044661 1_555
F7 Xe14 2.050677 1_555
F8 Xe3 2.053011 1_555
F9 Xe0 2.050677 1_555
F10 Xe0 2.044661 1_555
F11 Xe21 2.044661 1_555
F12 Xe7 2.053011 1_555
F13 Xe10 2.716915 1_555
F13 Xe13 2.716915 1_555
F13 Xe7 2.716915 1_555
F14 Xe18 2.050677 1_555
F15 Xe6 2.053011 1_555
F16 Xe13 2.050677 1_555
F17 Xe8 2.053011 1_555
F18 Xe21 2.050677 1_555
F19 Xe6 2.050677 1_555
F20 Xe22 2.716915 1_555
F20 Xe19 2.716915 1_555
F20 Xe17 2.716915 1_555
F21 Xe11 2.050677 1_555
F22 Xe12 2.037613 1_555
F23 Xe7 2.050677 1_555
F24 Xe2 2.050677 1_555
F25 Xe7 2.037613 1_555
F26 Xe17 2.050677 1_555
F27 Xe5 2.050677 1_555
F28 Xe15 2.053011 1_555
F29 Xe23 2.037613 1_555
F30 Xe1 2.050677 1_555
F31 Xe3 2.037613 1_556
F32 Xe2 2.044661 1_555
F33 Xe21 2.716915 1_555
F33 Xe3 2.716915 1_555
F33 Xe20 2.716915 1_555
F34 Xe18 2.053011 1_555
F35 Xe14 2.037613 1_565
F36 Xe11 2.716915 1_555
F36 Xe1 2.716915 1_555
F36 Xe23 2.716915 1_555
F37 Xe23 2.044661 1_555
F38 Xe5 2.037613 1_455
F39 Xe15 2.050677 1_555
F40 Xe0 2.037613 1_655
F41 Xe6 2.037613 1_555
F42 Xe16 2.716915 1_555
F42 Xe15 2.716915 1_555
F42 Xe9 2.716915 1_555
F43 Xe18 2.044661 1_555
F44 Xe20 2.050677 1_555
F45 Xe4 2.716915 1_555
F45 Xe0 2.716915 1_555
F45 Xe12 2.716915 1_555
F46 Xe18 2.037613 1_555
F47 Xe22 2.050677 1_555
F48 Xe8 2.044661 1_555
F49 Xe2 2.053011 1_555
F50 Xe2 2.037613 1_555
F51 Xe14 2.053011 1_555
F52 Xe21 2.037613 1_455
F53 Xe21 2.053011 1_555
F54 Xe1 2.053011 1_555
F55 Xe4 2.050677 1_555
F56 Xe1 2.037613 1_545
F57 Xe11 2.037613 1_556
F58 Xe9 2.044661 1_555
F59 Xe20 2.037613 1_555
F60 Xe5 2.053011 1_555
F61 Xe22 2.037613 1_555
F62 Xe19 2.050677 1_555
F63 Xe3 2.044661 1_555
F64 Xe1 2.044661 1_555
F65 Xe18 2.716915 1_555
F65 Xe2 2.716915 1_555
F65 Xe6 2.716915 1_555
F66 Xe17 2.044661 1_555
F67 Xe9 2.050677 1_555
F68 Xe10 2.050677 1_555
F69 Xe4 2.037613 1_545
F70 Xe19 2.053011 1_555
F71 Xe11 2.053011 1_555
F72 Xe12 2.044661 1_555
F73 Xe9 2.037613 1_555
F74 Xe6 2.044661 1_555
F75 Xe16 2.050677 1_555
F76 Xe10 2.044661 1_555
F77 Xe16 2.037613 1_565
F78 Xe22 2.053011 1_555
F79 Xe10 2.053011 1_555
F80 Xe11 2.044661 1_555
F81 Xe0 2.053011 1_555
F82 Xe8 2.037613 1_555
F83 Xe7 2.044661 1_555
F84 Xe16 2.044661 1_555
F85 Xe22 2.044661 1_555
F86 Xe17 2.053011 1_555
F87 Xe8 2.050677 1_555
F88 Xe23 2.053011 1_555
F89 Xe8 2.716915 1_555
F89 Xe5 2.716915 1_555
F89 Xe14 2.716915 1_555
F90 Xe17 2.037613 1_655
F91 Xe12 2.053011 1_555
F92 Xe19 2.037613 1_554
F93 Xe12 2.050677 1_555
F94 Xe20 2.053011 1_555
F95 Xe23 2.050677 1_555
F96 Xe16 2.053011 1_555
F97 Xe15 2.037613 1_554
F98 Xe4 2.044661 1_555
F99 Xe15 2.044661 1_555
F100 Xe4 2.053011 1_555
F101 Xe19 2.044661 1_555
F102 Xe9 2.053011 1_555
F103 Xe3 2.050677 1_555
