# generated using pymatgen
data_CaLa9Ti5Cr5O30
_symmetry_space_group_name_H-M   'P 1'
_cell_length_a   5.56970700
_cell_length_b   9.69818944
_cell_length_c   12.45186878
_cell_angle_alpha   75.61114133
_cell_angle_beta   77.94953869
_cell_angle_gamma   73.76921585
_symmetry_Int_Tables_number   1
_chemical_formula_structural   CaLa9Ti5Cr5O30
_chemical_formula_sum   'Ca1 La9 Ti5 Cr5 O30'
_cell_volume   618.47798027
_cell_formula_units_Z   1
loop_
 _symmetry_equiv_pos_site_id
 _symmetry_equiv_pos_as_xyz
  1  'x, y, z'
loop_
 _atom_site_type_symbol
 _atom_site_label
 _atom_site_symmetry_multiplicity
 _atom_site_fract_x
 _atom_site_fract_y
 _atom_site_fract_z
 _atom_site_occupancy
  Ca  Ca0  1  0.19979600  0.15270500  0.45105300  1
  La  La0  1  0.79950600  0.35043300  0.04575400  1
  La  La1  1  0.40045800  0.54661400  0.65259500  1
  La  La2  1  0.39756900  0.04883300  0.14708400  1
  La  La3  1  0.99859200  0.74983000  0.24721800  1
  La  La4  1  0.00307000  0.25113100  0.75081700  1
  La  La5  1  0.60115300  0.95099100  0.85387700  1
  La  La6  1  0.60125700  0.45033100  0.35176700  1
  La  La7  1  0.19988700  0.65038100  0.94891600  1
  La  La8  1  0.79968700  0.84990400  0.55042300  1
  Ti  Ti0  1  0.60547100  0.19759500  0.59750000  1
  Ti  Ti1  1  0.20136700  0.39625100  0.20232900  1
  Ti  Ti2  1  0.79639300  0.10018700  0.30183500  1
  Ti  Ti3  1  0.39673300  0.80426000  0.40082300  1
  Ti  Ti4  1  0.20061500  0.90279000  0.69753000  1
  Cr  Cr0  1  0.99834800  0.99987200  0.00062500  1
  Cr  Cr1  1  0.79995400  0.60136300  0.79918900  1
  Cr  Cr2  1  0.39956500  0.30038900  0.90003700  1
  Cr  Cr3  1  0.00148100  0.49916800  0.49981000  1
  Cr  Cr4  1  0.60106900  0.69829700  0.10009900  1
  O  O0  1  0.45004700  0.02521500  0.63902900  1
  O  O1  1  0.04794000  0.22608000  0.23512300  1
  O  O2  1  0.93953800  0.06258700  0.62331800  1
  O  O3  1  0.91247900  0.00838000  0.16470200  1
  O  O4  1  0.68851400  0.18547000  0.43852100  1
  O  O5  1  0.66123200  0.42213900  0.83493100  1
  O  O6  1  0.53723900  0.26348000  0.22400100  1
  O  O7  1  0.65352700  0.13413600  0.97897200  1
  O  O8  1  0.51449500  0.20955500  0.76266500  1
  O  O9  1  0.28475900  0.39131200  0.03823100  1
  O  O10  1  0.25532700  0.62322900  0.43615300  1
  O  O11  1  0.14120200  0.46739700  0.82065900  1
  O  O12  1  0.26320500  0.33916500  0.57769100  1
  O  O13  1  0.14067800  0.18009900  0.96363700  1
  O  O14  1  0.11551500  0.40747800  0.36254100  1
  O  O15  1  0.88555100  0.59528100  0.63386100  1
  O  O16  1  0.85979700  0.81697100  0.03665100  1
  O  O17  1  0.74023500  0.66286300  0.42193900  1
  O  O18  1  0.86046300  0.53396800  0.17950300  1
  O  O19  1  0.74571700  0.37760800  0.56372300  1
  O  O20  1  0.71334200  0.60573100  0.96469700  1
  O  O21  1  0.48719600  0.79003700  0.23732700  1
  O  O22  1  0.34808100  0.86400300  0.02289100  1
  O  O23  1  0.45599300  0.73792800  0.77612800  1
  O  O24  1  0.34317800  0.57510400  0.16429600  1
  O  O25  1  0.31287100  0.81222600  0.56285700  1
  O  O26  1  0.08659700  0.99095800  0.83545500  1
  O  O27  1  0.06180800  0.93469900  0.37412900  1
  O  O28  1  0.94450900  0.78002300  0.76340400  1
  O  O29  1  0.54699400  0.97555100  0.36368100  1
loop_
_geom_bond_atom_site_label_1
_geom_bond_atom_site_label_2
_geom_bond_distance
_geom_bond_site_symmetry_2
Ca0 O14 2.398813 1_555
Ca0 O2 2.438107 1_455
Ca0 O29 2.463373 1_545
Ca0 O4 2.795749 1_555
Ca0 O12 2.808571 1_555
Ca0 O4 2.808865 1_455
Ca0 O0 2.812587 1_555
Ca0 O1 2.848367 1_555
Ca0 O27 2.863650 1_545
La0 O13 2.378803 1_654
La0 O20 2.382280 1_554
La0 O6 2.485110 1_555
La0 O5 2.757817 1_554
La0 O9 2.800692 1_555
La0 O7 2.802774 1_554
La0 O1 2.818756 1_655
La0 O9 2.818766 1_655
La0 O18 2.846820 1_555
La1 O11 2.369404 1_555
La1 O19 2.420739 1_555
La1 O25 2.493328 1_555
La1 O12 2.755370 1_555
La1 O5 2.785006 1_555
La1 O23 2.800397 1_555
La1 O15 2.823096 1_455
La1 O15 2.823477 1_555
La1 O10 2.836852 1_555
La2 O7 2.377236 1_554
La2 O21 2.437903 1_545
La2 O1 2.474407 1_555
La2 O22 2.740880 1_545
La2 O13 2.790496 1_554
La2 O3 2.793581 1_455
La2 O3 2.831579 1_555
La2 O6 2.839569 1_555
La2 O29 2.850559 1_545
La3 O3 2.413743 1_565
La3 O24 2.417674 1_655
La3 O17 2.444288 1_555
La3 O16 2.759102 1_555
La3 O18 2.780997 1_555
La3 O21 2.789608 1_555
La3 O27 2.798050 1_655
La3 O21 2.828873 1_655
La3 O10 2.841570 1_655
La4 O5 2.395414 1_455
La4 O26 2.433228 1_545
La4 O12 2.438850 1_555
La4 O13 2.780311 1_555
La4 O8 2.793220 1_555
La4 O11 2.799147 1_555
La4 O19 2.824488 1_455
La4 O8 2.829409 1_455
La4 O2 2.833425 1_455
La5 O22 2.381450 1_556
La5 O28 2.435533 1_555
La5 O8 2.438813 1_565
La5 O7 2.742377 1_565
La5 O26 2.792128 1_655
La5 O16 2.792187 1_556
La5 O26 2.832970 1_555
La5 O0 2.833346 1_565
La5 O23 2.848786 1_555
La6 O18 2.416635 1_555
La6 O10 2.419164 1_555
La6 O4 2.478604 1_555
La6 O17 2.771374 1_555
La6 O19 2.784737 1_555
La6 O14 2.803933 1_655
La6 O14 2.821242 1_555
La6 O6 2.823620 1_555
La6 O24 2.829228 1_555
La7 O16 2.386236 1_456
La7 O23 2.423296 1_555
La7 O9 2.437169 1_556
La7 O11 2.785213 1_555
La7 O28 2.805115 1_455
La7 O20 2.811519 1_555
La7 O24 2.820874 1_556
La7 O20 2.821541 1_455
La7 O22 2.836146 1_556
La8 O15 2.382895 1_555
La8 O27 2.462178 1_655
La8 O0 2.466700 1_565
La8 O2 2.794449 1_565
La8 O28 2.799541 1_555
La8 O25 2.803526 1_555
La8 O29 2.805743 1_555
La8 O25 2.810710 1_655
La8 O17 2.821168 1_555
Cr0 O3 2.015785 1_565
Cr0 O7 2.024964 1_564
Cr0 O13 2.029199 1_664
Cr0 O26 2.030147 1_654
Cr0 O16 2.041644 1_555
Cr0 O22 2.053438 1_655
Cr1 O11 2.007750 1_655
Cr1 O5 2.009700 1_555
Cr1 O28 2.023681 1_555
Cr1 O20 2.024500 1_555
Cr1 O15 2.025736 1_555
Cr1 O23 2.031999 1_555
Cr2 O13 2.017828 1_555
Cr2 O7 2.021015 1_555
Cr2 O8 2.021934 1_555
Cr2 O9 2.031499 1_556
Cr2 O11 2.041166 1_555
Cr2 O5 2.041650 1_555
Cr3 O12 2.012752 1_555
Cr3 O19 2.012862 1_455
Cr3 O15 2.014636 1_455
Cr3 O10 2.020861 1_555
Cr3 O14 2.025356 1_555
Cr3 O17 2.027425 1_455
Cr4 O22 2.006053 1_555
Cr4 O16 2.006301 1_555
Cr4 O20 2.009422 1_554
Cr4 O21 2.025162 1_555
Cr4 O18 2.032468 1_555
Cr4 O24 2.033431 1_555
O0 Ti4 1.984953 1_545
O0 Ti0 2.001011 1_555
O1 Ti1 1.982015 1_555
O1 Ti2 2.027280 1_455
O2 Ti0 1.989579 1_555
O2 Ti4 1.989890 1_645
O3 Ti2 2.024691 1_555
O4 Ti0 1.962013 1_555
O4 Ti2 1.984116 1_555
O6 Ti1 1.980385 1_555
O6 Ti2 2.018453 1_555
O8 Ti0 2.037263 1_555
O9 Ti1 2.008268 1_555
O10 Ti3 2.034861 1_555
O12 Ti0 2.035892 1_555
O14 Ti1 1.975051 1_555
O17 Ti3 2.043079 1_555
O18 Ti1 2.022091 1_655
O19 Ti0 2.023633 1_555
O21 Ti3 2.022354 1_555
O23 Ti4 2.017327 1_555
O24 Ti1 2.014501 1_555
O25 Ti3 1.989661 1_555
O25 Ti4 1.990398 1_555
O26 Ti4 2.013675 1_555
O27 Ti3 1.980242 1_555
O27 Ti2 2.020594 1_465
O28 Ti4 2.024988 1_655
O29 Ti3 1.976783 1_555
O29 Ti2 2.003238 1_565
