# generated using pymatgen
data_Li3(RuO3)2
_symmetry_space_group_name_H-M   'P 1'
_cell_length_a   6.15734961
_cell_length_b   6.15734961
_cell_length_c   6.12883211
_cell_angle_alpha   79.96257456
_cell_angle_beta   79.96257456
_cell_angle_gamma   119.85576974
_symmetry_Int_Tables_number   1
_chemical_formula_structural   Li3(RuO3)2
_chemical_formula_sum   'Li6 Ru4 O12'
_cell_volume   188.94012263
_cell_formula_units_Z   2
loop_
 _symmetry_equiv_pos_site_id
 _symmetry_equiv_pos_as_xyz
  1  'x, y, z'
loop_
 _atom_site_type_symbol
 _atom_site_label
 _atom_site_symmetry_multiplicity
 _atom_site_fract_x
 _atom_site_fract_y
 _atom_site_fract_z
 _atom_site_occupancy
  Li  Li0  1  0.60453500  0.39546500  0.25000000  1
  Li  Li1  1  0.74698700  0.25301300  0.75000000  1
  Li  Li2  1  0.50000000  0.00000000  0.50000000  1
  Li  Li3  1  0.25301300  0.74698700  0.25000000  1
  Li  Li4  1  0.39546500  0.60453500  0.75000000  1
  Li  Li5  1  0.00000000  0.50000000  0.00000000  1
  Ru  Ru0  1  0.84245400  0.67648600  0.50099000  1
  Ru  Ru1  1  0.67648600  0.84245400  0.00099000  1
  Ru  Ru2  1  0.32351400  0.15754600  0.99901000  1
  Ru  Ru3  1  0.15754600  0.32351400  0.49901000  1
  O  O0  1  0.95903300  0.80327000  0.13141700  1
  O  O1  1  0.88083600  0.38994900  0.38484500  1
  O  O2  1  0.69399800  0.54207500  0.87041100  1
  O  O3  1  0.61005100  0.11916400  0.11515500  1
  O  O4  1  0.80327000  0.95903300  0.63141700  1
  O  O5  1  0.45792500  0.30600200  0.62958900  1
  O  O6  1  0.54207500  0.69399800  0.37041100  1
  O  O7  1  0.19673000  0.04096700  0.36858300  1
  O  O8  1  0.38994900  0.88083600  0.88484500  1
  O  O9  1  0.30600200  0.45792500  0.12958900  1
  O  O10  1  0.11916400  0.61005100  0.61515500  1
  O  O11  1  0.04096700  0.19673000  0.86858300  1
loop_
_geom_bond_atom_site_label_1
_geom_bond_atom_site_label_2
_geom_bond_distance
_geom_bond_site_symmetry_2
Li0 O3 2.028886 1_555
Li0 O1 2.028886 1_555
Li0 O5 2.203809 1_555
Li0 O2 2.203809 1_554
Li0 O7 2.225231 1_555
Li0 O0 2.225231 1_555
Li0 O9 2.269181 1_555
Li0 O6 2.269181 1_555
Li1 O3 2.099074 1_556
Li1 O1 2.099074 1_555
Li1 O10 2.111421 1_655
Li1 O8 2.111421 1_545
Li1 O2 2.184277 1_555
Li1 O5 2.184277 1_555
Li1 O11 2.218166 1_655
Li1 O4 2.218166 1_545
Li2 O3 2.214802 1_555
Li2 O8 2.214802 1_545
Li2 O1 2.233505 1_555
Li2 O10 2.233505 1_545
Li2 O7 2.263126 1_555
Li2 O4 2.263126 1_545
Li2 O6 2.276817 1_545
Li2 O5 2.276817 1_555
Li3 O10 2.099074 1_555
Li3 O8 2.099074 1_554
Li3 O3 2.111421 1_565
Li3 O1 2.111421 1_455
Li3 O6 2.184277 1_555
Li3 O9 2.184277 1_555
Li3 O7 2.218166 1_565
Li3 O0 2.218166 1_455
Li4 O10 2.028886 1_555
Li4 O8 2.028886 1_555
Li4 O9 2.203809 1_556
Li4 O6 2.203809 1_555
Li4 O11 2.225231 1_555
Li4 O4 2.225231 1_555
Li4 O5 2.269181 1_555
Li4 O2 2.269181 1_555
Li5 O10 2.214802 1_554
Li5 O1 2.214802 1_455
Li5 O8 2.233505 1_554
Li5 O3 2.233505 1_455
Li5 O11 2.263126 1_554
Li5 O0 2.263126 1_455
Li5 O9 2.276817 1_555
Li5 O2 2.276817 1_454
O0 Ru2 2.080269 1_664
O0 Ru0 2.124638 1_555
O0 Ru1 2.135263 1_555
O1 Ru0 2.114149 1_555
O1 Ru3 2.137652 1_655
O2 Ru0 2.125775 1_555
O2 Ru1 2.181133 1_556
O2 Ru2 2.185443 1_555
O3 Ru2 2.114149 1_554
O3 Ru1 2.137652 1_545
O4 Ru3 2.080269 1_665
O4 Ru1 2.124638 1_556
O4 Ru0 2.135263 1_555
O5 Ru2 2.125775 1_555
O5 Ru3 2.181133 1_555
O5 Ru0 2.185443 1_555
O6 Ru1 2.125775 1_555
O6 Ru0 2.181133 1_555
O6 Ru3 2.185443 1_555
O7 Ru0 2.080269 1_445
O7 Ru2 2.124638 1_554
O7 Ru3 2.135263 1_555
O8 Ru1 2.114149 1_556
O8 Ru2 2.137652 1_565
O9 Ru3 2.125775 1_555
O9 Ru2 2.181133 1_554
O9 Ru1 2.185443 1_555
O10 Ru3 2.114149 1_555
O10 Ru0 2.137652 1_455
O11 Ru1 2.080269 1_446
O11 Ru3 2.124638 1_555
O11 Ru2 2.135263 1_555
