# generated using pymatgen
data_KCa10(PO4)7
_symmetry_space_group_name_H-M   'P 1'
_cell_length_a   13.94147232
_cell_length_b   13.94147232
_cell_length_c   13.94147189
_cell_angle_alpha   44.71720418
_cell_angle_beta   44.71720418
_cell_angle_gamma   44.71720732
_symmetry_Int_Tables_number   1
_chemical_formula_structural   KCa10(PO4)7
_chemical_formula_sum   'K2 Ca20 P14 O56'
_cell_volume   1220.26830685
_cell_formula_units_Z   2
loop_
 _symmetry_equiv_pos_site_id
 _symmetry_equiv_pos_as_xyz
  1  'x, y, z'
loop_
 _atom_site_type_symbol
 _atom_site_label
 _atom_site_symmetry_multiplicity
 _atom_site_fract_x
 _atom_site_fract_y
 _atom_site_fract_z
 _atom_site_occupancy
  K  K0  1  0.54869100  0.54869100  0.54869100  1
  K  K1  1  0.04869100  0.04869100  0.04869100  1
  Ca  Ca0  1  0.86707800  0.86707800  0.86707800  1
  Ca  Ca1  1  0.36707800  0.36707800  0.36707800  1
  Ca  Ca2  1  0.21300100  0.77554300  0.81342900  1
  Ca  Ca3  1  0.81342900  0.21300100  0.77554300  1
  Ca  Ca4  1  0.77554300  0.81342900  0.21300100  1
  Ca  Ca5  1  0.71300100  0.31342900  0.27554300  1
  Ca  Ca6  1  0.27554300  0.71300100  0.31342900  1
  Ca  Ca7  1  0.31342900  0.27554300  0.71300100  1
  Ca  Ca8  1  0.44035900  0.02462900  0.43145100  1
  Ca  Ca9  1  0.43145100  0.44035900  0.02462900  1
  Ca  Ca10  1  0.02462900  0.43145100  0.44035900  1
  Ca  Ca11  1  0.94035900  0.93145100  0.52462900  1
  Ca  Ca12  1  0.52462900  0.94035900  0.93145100  1
  Ca  Ca13  1  0.93145100  0.52462900  0.94035900  1
  Ca  Ca14  1  0.34074900  0.93261900  0.30768800  1
  Ca  Ca15  1  0.30768800  0.34074900  0.93261900  1
  Ca  Ca16  1  0.93261900  0.30768800  0.34074900  1
  Ca  Ca17  1  0.84074900  0.80768800  0.43261900  1
  Ca  Ca18  1  0.43261900  0.84074900  0.80768800  1
  Ca  Ca19  1  0.80768800  0.43261900  0.84074900  1
  P  P0  1  0.09655600  0.04959600  0.55255800  1
  P  P1  1  0.55255800  0.09655600  0.04959600  1
  P  P2  1  0.04959600  0.55255800  0.09655600  1
  P  P3  1  0.59655600  0.05255800  0.54959600  1
  P  P4  1  0.54959600  0.59655600  0.05255800  1
  P  P5  1  0.05255800  0.54959600  0.59655600  1
  P  P6  1  0.18741300  0.63610800  0.68066000  1
  P  P7  1  0.68066000  0.18741300  0.63610800  1
  P  P8  1  0.63610800  0.68066000  0.18741300  1
  P  P9  1  0.68741300  0.18066000  0.13610800  1
  P  P10  1  0.13610800  0.68741300  0.18066000  1
  P  P11  1  0.18066000  0.13610800  0.68741300  1
  P  P12  1  0.63440100  0.63440100  0.63440100  1
  P  P13  1  0.13440100  0.13440100  0.13440100  1
  O  O0  1  0.26848900  0.96040300  0.50569300  1
  O  O1  1  0.50569300  0.26848900  0.96040300  1
  O  O2  1  0.96040300  0.50569300  0.26848900  1
  O  O3  1  0.76848900  0.00569300  0.46040300  1
  O  O4  1  0.46040300  0.76848900  0.00569300  1
  O  O5  1  0.00569300  0.46040300  0.76848900  1
  O  O6  1  0.03961100  0.21956700  0.49268600  1
  O  O7  1  0.49268600  0.03961100  0.21956700  1
  O  O8  1  0.21956700  0.49268600  0.03961100  1
  O  O9  1  0.53961100  0.99268600  0.71956700  1
  O  O10  1  0.71956700  0.53961100  0.99268600  1
  O  O11  1  0.99268600  0.71956700  0.53961100  1
  O  O12  1  0.05819400  0.03095700  0.48713500  1
  O  O13  1  0.48713500  0.05819400  0.03095700  1
  O  O14  1  0.03095700  0.48713500  0.05819400  1
  O  O15  1  0.55819400  0.98713500  0.53095700  1
  O  O16  1  0.53095700  0.55819400  0.98713500  1
  O  O17  1  0.98713500  0.53095700  0.55819400  1
  O  O18  1  0.01634000  0.98468500  0.72726700  1
  O  O19  1  0.72726700  0.01634000  0.98468500  1
  O  O20  1  0.98468500  0.72726700  0.01634000  1
  O  O21  1  0.51634000  0.22726700  0.48468500  1
  O  O22  1  0.25921400  0.70059800  0.50778700  1
  O  O23  1  0.48468500  0.51634000  0.22726700  1
  O  O24  1  0.01299100  0.73113900  0.73541500  1
  O  O25  1  0.73541500  0.01299100  0.73113900  1
  O  O26  1  0.73113900  0.73541500  0.01299100  1
  O  O27  1  0.51299100  0.23541500  0.23113900  1
  O  O28  1  0.23113900  0.51299100  0.23541500  1
  O  O29  1  0.23541500  0.23113900  0.51299100  1
  O  O30  1  0.20721900  0.47133500  0.76395200  1
  O  O31  1  0.76395200  0.20721900  0.47133500  1
  O  O32  1  0.47133500  0.76395200  0.20721900  1
  O  O33  1  0.70721900  0.26395200  0.97133500  1
  O  O34  1  0.97133500  0.70721900  0.26395200  1
  O  O35  1  0.26395200  0.97133500  0.70721900  1
  O  O36  1  0.17590600  0.17590600  0.17590600  1
  O  O37  1  0.67590600  0.67590600  0.67590600  1
  O  O38  1  0.25752500  0.12702200  0.97873000  1
  O  O39  1  0.12702200  0.97873000  0.25752500  1
  O  O40  1  0.97873000  0.25752500  0.12702200  1
  O  O41  1  0.62702200  0.75752500  0.47873000  1
  O  O42  1  0.75752500  0.47873000  0.62702200  1
  O  O43  1  0.47873000  0.62702200  0.75752500  1
  O  O44  1  0.23463100  0.13394000  0.75533500  1
  O  O45  1  0.13394000  0.75533500  0.23463100  1
  O  O46  1  0.75533500  0.23463100  0.13394000  1
  O  O47  1  0.63394000  0.73463100  0.25533500  1
  O  O48  1  0.73463100  0.25533500  0.63394000  1
  O  O49  1  0.25533500  0.63394000  0.73463100  1
  O  O50  1  0.00778700  0.20059800  0.75921400  1
  O  O51  1  0.20059800  0.75921400  0.00778700  1
  O  O52  1  0.75921400  0.00778700  0.20059800  1
  O  O53  1  0.70059800  0.50778700  0.25921400  1
  O  O54  1  0.50778700  0.25921400  0.70059800  1
  O  O55  1  0.22726700  0.48468500  0.51634000  1
loop_
_geom_bond_atom_site_label_1
_geom_bond_atom_site_label_2
_geom_bond_distance
_geom_bond_site_symmetry_2
K0 O47 2.694876 1_555
K0 O49 2.694876 1_555
K0 O48 2.694876 1_555
K0 O43 3.096697 1_555
K0 O41 3.096697 1_555
K0 O42 3.096697 1_555
K0 O53 3.241168 1_555
K0 O54 3.241168 1_555
K0 O22 3.241168 1_555
K1 O44 2.694876 1_554
K1 O45 2.694876 1_545
K1 O46 2.694876 1_455
K1 O39 3.096697 1_545
K1 O38 3.096697 1_554
K1 O40 3.096697 1_455
K1 O50 3.241168 1_554
K1 O52 3.241168 1_455
K1 O51 3.241168 1_545
Ca0 O26 2.292914 1_556
Ca0 O25 2.292914 1_565
Ca0 O24 2.292914 1_655
Ca0 O18 2.315272 1_655
Ca0 O20 2.315272 1_556
Ca0 O19 2.315272 1_565
Ca1 O29 2.292914 1_555
Ca1 O27 2.292914 1_555
Ca1 O28 2.292914 1_555
Ca1 O23 2.315272 1_555
Ca1 O55 2.315272 1_555
Ca1 O21 2.315272 1_555
Ca2 O35 2.380046 1_555
Ca2 O18 2.409029 1_555
Ca2 O43 2.430575 1_555
Ca2 O51 2.436651 1_556
Ca2 O49 2.440754 1_555
Ca2 O20 2.475725 1_456
Ca2 O8 2.779840 1_556
Ca2 O0 2.837211 1_555
Ca3 O33 2.380046 1_555
Ca3 O19 2.409028 1_555
Ca3 O42 2.430575 1_555
Ca3 O50 2.436651 1_655
Ca3 O48 2.440754 1_555
Ca3 O18 2.475726 1_645
Ca3 O6 2.779840 1_655
Ca3 O1 2.837211 1_555
Ca4 O34 2.380046 1_555
Ca4 O20 2.409029 1_555
Ca4 O41 2.430575 1_555
Ca4 O52 2.436651 1_565
Ca4 O47 2.440754 1_555
Ca4 O19 2.475725 1_564
Ca4 O7 2.779840 1_565
Ca4 O2 2.837211 1_555
Ca5 O31 2.380046 1_555
Ca5 O21 2.409028 1_555
Ca5 O40 2.430575 1_555
Ca5 O53 2.436651 1_555
Ca5 O46 2.440754 1_555
Ca5 O23 2.475726 1_555
Ca5 O10 2.779840 1_554
Ca5 O3 2.837211 1_555
Ca6 O32 2.380046 1_555
Ca6 O23 2.409029 1_555
Ca6 O39 2.430575 1_555
Ca6 O22 2.436651 1_555
Ca6 O45 2.440754 1_555
Ca6 O55 2.475725 1_555
Ca6 O11 2.779840 1_455
Ca6 O4 2.837211 1_555
Ca7 O30 2.380046 1_555
Ca7 O55 2.409029 1_555
Ca7 O38 2.430575 1_555
Ca7 O54 2.436651 1_555
Ca7 O44 2.440754 1_555
Ca7 O21 2.475725 1_555
Ca7 O9 2.779840 1_545
Ca7 O5 2.837211 1_555
Ca8 O7 2.361965 1_555
Ca8 O0 2.412846 1_545
Ca8 O15 2.425772 1_545
Ca8 O27 2.450922 1_555
Ca8 O29 2.467689 1_555
Ca8 O41 2.500166 1_545
Ca8 O35 2.545817 1_545
Ca9 O8 2.361965 1_555
Ca9 O1 2.412846 1_554
Ca9 O16 2.425772 1_554
Ca9 O28 2.450922 1_555
Ca9 O27 2.467689 1_555
Ca9 O43 2.500166 1_554
Ca9 O33 2.545818 1_554
Ca10 O6 2.361965 1_555
Ca10 O2 2.412846 1_455
Ca10 O17 2.425772 1_455
Ca10 O29 2.450922 1_555
Ca10 O28 2.467689 1_555
Ca10 O42 2.500166 1_455
Ca10 O34 2.545818 1_455
Ca11 O11 2.361965 1_555
Ca11 O3 2.412846 1_565
Ca11 O12 2.425772 1_665
Ca11 O24 2.450922 1_655
Ca11 O25 2.467689 1_565
Ca11 O39 2.500166 1_655
Ca11 O31 2.545818 1_565
Ca12 O9 2.361965 1_555
Ca12 O4 2.412846 1_556
Ca12 O13 2.425772 1_566
Ca12 O25 2.450922 1_565
Ca12 O26 2.467689 1_556
Ca12 O38 2.500166 1_565
Ca12 O32 2.545817 1_556
Ca13 O10 2.361965 1_555
Ca13 O5 2.412846 1_655
Ca13 O14 2.425772 1_656
Ca13 O26 2.450922 1_556
Ca13 O24 2.467689 1_655
Ca13 O40 2.500166 1_556
Ca13 O30 2.545818 1_655
Ca14 O32 2.403861 1_555
Ca14 O0 2.407908 1_555
Ca14 O36 2.495553 1_565
Ca14 O13 2.530477 1_565
Ca14 O7 2.531560 1_565
Ca14 O12 2.617144 1_565
Ca14 O22 2.726229 1_555
Ca14 O47 2.729141 1_555
Ca15 O30 2.403861 1_555
Ca15 O1 2.407908 1_555
Ca15 O36 2.495553 1_556
Ca15 O14 2.530477 1_556
Ca15 O8 2.531560 1_556
Ca15 O13 2.617144 1_556
Ca15 O54 2.726230 1_555
Ca15 O49 2.729141 1_555
Ca16 O31 2.403861 1_555
Ca16 O2 2.407908 1_555
Ca16 O36 2.495553 1_655
Ca16 O12 2.530477 1_655
Ca16 O6 2.531560 1_655
Ca16 O14 2.617144 1_655
Ca16 O53 2.726230 1_555
Ca16 O48 2.729140 1_555
Ca17 O34 2.403861 1_555
Ca17 O3 2.407908 1_565
Ca17 O37 2.495553 1_555
Ca17 O17 2.530477 1_555
Ca17 O11 2.531560 1_555
Ca17 O15 2.617144 1_555
Ca17 O52 2.726230 1_565
Ca17 O45 2.729141 1_655
Ca18 O35 2.403861 1_555
Ca18 O4 2.407908 1_556
Ca18 O37 2.495553 1_555
Ca18 O15 2.530477 1_555
Ca18 O9 2.531560 1_555
Ca18 O16 2.617144 1_555
Ca18 O51 2.726229 1_556
Ca18 O44 2.729141 1_565
Ca19 O33 2.403861 1_555
Ca19 O5 2.407908 1_655
Ca19 O37 2.495553 1_555
Ca19 O16 2.530477 1_555
Ca19 O10 2.531560 1_555
Ca19 O17 2.617144 1_555
Ca19 O50 2.726230 1_655
Ca19 O46 2.729140 1_556
O0 P0 1.552948 1_565
O1 P1 1.552948 1_556
O2 P2 1.552948 1_655
O3 P3 1.552948 1_555
O4 P4 1.552948 1_555
O5 P5 1.552948 1_555
O6 P0 1.548993 1_555
O7 P1 1.548993 1_555
O8 P2 1.548993 1_555
O9 P3 1.548993 1_565
O10 P4 1.548993 1_556
O11 P5 1.548993 1_655
O12 P0 1.553409 1_555
O13 P1 1.553409 1_555
O14 P2 1.553409 1_555
O15 P3 1.553409 1_565
O16 P4 1.553409 1_556
O17 P5 1.553409 1_655
O18 P0 1.561027 1_565
O19 P1 1.561027 1_556
O20 P2 1.561027 1_655
O21 P3 1.561027 1_555
O22 P6 1.545914 1_555
O23 P4 1.561027 1_555
O24 P6 1.572200 1_555
O25 P7 1.572200 1_555
O26 P8 1.572200 1_555
O27 P9 1.572200 1_555
O28 P10 1.572200 1_555
O29 P11 1.572200 1_555
O30 P6 1.570001 1_555
O31 P7 1.570001 1_555
O32 P8 1.570001 1_555
O33 P9 1.570001 1_556
O34 P10 1.570001 1_655
O35 P11 1.570001 1_565
O36 P13 1.559491 1_555
O37 P12 1.559491 1_555
O38 P13 1.561774 1_556
O39 P13 1.561774 1_565
O40 P13 1.561774 1_655
O41 P12 1.561774 1_555
O42 P12 1.561774 1_555
O43 P12 1.561774 1_555
O44 P11 1.550275 1_555
O45 P10 1.550275 1_555
O46 P9 1.550275 1_555
O47 P8 1.550275 1_555
O48 P7 1.550275 1_555
O49 P6 1.550275 1_555
O50 P11 1.545915 1_555
O51 P10 1.545914 1_555
O52 P9 1.545915 1_555
O53 P8 1.545915 1_555
O54 P7 1.545915 1_555
O55 P5 1.561027 1_555
