# generated using pymatgen
data_V2GaSn2
_symmetry_space_group_name_H-M   'P 1'
_cell_length_a   9.74935759
_cell_length_b   9.74935759
_cell_length_c   6.73699476
_cell_angle_alpha   90.00000000
_cell_angle_beta   90.00000000
_cell_angle_gamma   146.70065699
_symmetry_Int_Tables_number   1
_chemical_formula_structural   V2GaSn2
_chemical_formula_sum   'V8 Ga4 Sn8'
_cell_volume   351.56126833
_cell_formula_units_Z   4
loop_
 _symmetry_equiv_pos_site_id
 _symmetry_equiv_pos_as_xyz
  1  'x, y, z'
loop_
 _atom_site_type_symbol
 _atom_site_label
 _atom_site_symmetry_multiplicity
 _atom_site_fract_x
 _atom_site_fract_y
 _atom_site_fract_z
 _atom_site_occupancy
  V  V0  1  0.57287828  0.42712172  0.47371390  1
  V  V1  1  0.42712172  0.57287828  0.52628610  1
  V  V2  1  0.07287828  0.92712172  0.02628610  1
  V  V3  1  0.90822513  0.59177487  0.75000000  1
  V  V4  1  0.40822513  0.09177487  0.75000000  1
  V  V5  1  0.59177487  0.90822513  0.25000000  1
  V  V6  1  0.92712172  0.07287828  0.97371390  1
  V  V7  1  0.09177487  0.40822513  0.25000000  1
  Ga  Ga0  1  0.76733151  0.73266849  0.75000000  1
  Ga  Ga1  1  0.73266849  0.76733151  0.25000000  1
  Ga  Ga2  1  0.23266849  0.26733151  0.25000000  1
  Ga  Ga3  1  0.26733151  0.23266849  0.75000000  1
  Sn  Sn0  1  0.72125300  0.27874700  0.42455596  1
  Sn  Sn1  1  0.38924568  0.61075432  0.92158091  1
  Sn  Sn2  1  0.27874700  0.72125300  0.57544404  1
  Sn  Sn3  1  0.22125300  0.77874700  0.07544404  1
  Sn  Sn4  1  0.77874700  0.22125300  0.92455596  1
  Sn  Sn5  1  0.88924568  0.11075432  0.57841909  1
  Sn  Sn6  1  0.61075432  0.38924568  0.07841909  1
  Sn  Sn7  1  0.11075432  0.88924568  0.42158091  1
loop_
_geom_bond_atom_site_label_1
_geom_bond_atom_site_label_2
_geom_bond_distance
_geom_bond_site_symmetry_2
V0 V1 2.745849 1_555
V0 V4 2.820882 1_555
V0 V3 2.820882 1_555
V1 V7 2.820882 1_555
V1 V5 2.820882 1_555
V2 V6 2.745849 1_464
V2 V4 2.820882 1_564
V2 V3 2.820882 1_454
V3 V4 2.793377 1_665
V3 V4 2.793377 1_555
V5 V7 2.793377 1_665
V5 V7 2.793377 1_555
V5 V6 2.820882 1_564
V6 V7 2.820882 1_656
Ga0 V2 2.547960 1_656
Ga0 V0 2.547960 1_555
Ga0 V3 2.632065 1_555
Ga0 V6 2.657492 1_565
Ga0 V1 2.657492 1_555
Ga0 Ga3 2.793377 1_665
Ga0 Ga3 2.793377 1_555
Ga0 Sn1 3.002070 1_555
Ga0 Sn5 3.002070 1_565
Ga0 Sn6 3.145164 1_556
Ga0 Sn7 3.145164 1_655
Ga1 V1 2.547960 1_555
Ga1 V6 2.547960 1_564
Ga1 V5 2.632065 1_555
Ga1 V0 2.657492 1_555
Ga1 V2 2.657492 1_655
Ga1 Ga2 2.793377 1_665
Ga1 Ga2 2.793377 1_555
Ga1 Sn6 3.002070 1_555
Ga1 Sn7 3.002070 1_655
Ga1 Sn1 3.145164 1_554
Ga1 Sn5 3.145164 1_565
Ga2 V1 2.547960 1_555
Ga2 V6 2.547960 1_454
Ga2 V7 2.632065 1_555
Ga2 V0 2.657492 1_555
Ga2 V2 2.657492 1_545
Ga2 Sn7 3.002070 1_545
Ga2 Sn6 3.002070 1_555
Ga2 Sn1 3.145164 1_554
Ga2 Sn5 3.145164 1_455
Ga3 V2 2.547960 1_546
Ga3 V0 2.547960 1_555
Ga3 V4 2.632065 1_555
Ga3 V6 2.657492 1_455
Ga3 V1 2.657492 1_555
Ga3 Sn5 3.002070 1_455
Ga3 Sn1 3.002070 1_555
Ga3 Sn6 3.145164 1_556
Ga3 Sn7 3.145164 1_545
Sn0 V0 2.791536 1_555
Sn0 V4 2.853808 1_555
Sn0 V3 2.853808 1_555
Sn0 V5 2.898777 1_545
Sn0 V7 2.898777 1_655
Sn0 Sn6 3.114320 1_555
Sn0 Sn2 3.160679 1_545
Sn0 Sn2 3.160679 1_655
Sn0 Sn5 3.305067 1_555
Sn1 V1 2.755495 1_555
Sn1 V7 2.762714 1_556
Sn1 V5 2.762714 1_556
Sn1 V6 2.902924 1_455
Sn1 V6 2.902924 1_565
Sn1 Sn2 3.114320 1_555
Sn1 Sn3 3.305067 1_556
Sn2 V1 2.791536 1_555
Sn2 V7 2.853808 1_555
Sn2 V5 2.853808 1_555
Sn2 V3 2.898777 1_455
Sn2 V4 2.898777 1_565
Sn2 Sn7 3.305067 1_555
Sn3 V2 2.791536 1_555
Sn3 V3 2.853808 1_454
Sn3 V4 2.853808 1_564
Sn3 V7 2.898777 1_555
Sn3 V5 2.898777 1_555
Sn3 Sn7 3.114320 1_555
Sn3 Sn4 3.160679 1_454
Sn3 Sn4 3.160679 1_564
Sn4 V6 2.791536 1_555
Sn4 V5 2.853808 1_546
Sn4 V7 2.853808 1_656
Sn4 V4 2.898777 1_555
Sn4 V3 2.898777 1_555
Sn4 Sn5 3.114320 1_555
Sn4 Sn6 3.305067 1_556
Sn5 V6 2.755495 1_555
Sn5 V5 2.762714 1_545
Sn5 V7 2.762714 1_655
Sn5 V1 2.902924 1_655
Sn5 V1 2.902924 1_545
Sn6 V0 2.755495 1_555
Sn6 V4 2.762714 1_554
Sn6 V3 2.762714 1_554
Sn6 V2 2.902924 1_655
Sn6 V2 2.902924 1_545
Sn7 V2 2.755495 1_555
Sn7 V3 2.762714 1_455
Sn7 V4 2.762714 1_565
Sn7 V0 2.902924 1_565
Sn7 V0 2.902924 1_455
