# generated using pymatgen
data_FeP2O7
_symmetry_space_group_name_H-M   'P 1'
_cell_length_a   7.06683217
_cell_length_b   8.36021900
_cell_length_c   9.31999631
_cell_angle_alpha   90.00000000
_cell_angle_beta   112.20351483
_cell_angle_gamma   90.00000000
_symmetry_Int_Tables_number   1
_chemical_formula_structural   FeP2O7
_chemical_formula_sum   'Fe4 P8 O28'
_cell_volume   509.79736364
_cell_formula_units_Z   4
loop_
 _symmetry_equiv_pos_site_id
 _symmetry_equiv_pos_as_xyz
  1  'x, y, z'
loop_
 _atom_site_type_symbol
 _atom_site_label
 _atom_site_symmetry_multiplicity
 _atom_site_fract_x
 _atom_site_fract_y
 _atom_site_fract_z
 _atom_site_occupancy
  Fe  Fe0  1  0.87185800  0.41882900  0.13739000  1
  Fe  Fe1  1  0.37185800  0.08117100  0.63739000  1
  Fe  Fe2  1  0.12814200  0.58117100  0.86261000  1
  Fe  Fe3  1  0.62814200  0.91882900  0.36261000  1
  P  P0  1  0.57023100  0.75567900  0.03521600  1
  P  P1  1  0.42976900  0.24432100  0.96478400  1
  P  P2  1  0.92976900  0.25567900  0.46478400  1
  P  P3  1  0.67837200  0.77793700  0.75378100  1
  P  P4  1  0.07023100  0.74432100  0.53521600  1
  P  P5  1  0.17837200  0.72206300  0.25378100  1
  P  P6  1  0.32162800  0.22206300  0.24621900  1
  P  P7  1  0.82162800  0.27793700  0.74621900  1
  O  O0  1  0.40078600  0.08272400  0.36174000  1
  O  O1  1  0.63620000  0.88740800  0.15847400  1
  O  O2  1  0.83880600  0.76623000  0.47146600  1
  O  O3  1  0.68889800  0.60074600  0.08566500  1
  O  O4  1  0.36380000  0.11259200  0.84152600  1
  O  O5  1  0.90078600  0.41727600  0.86174000  1
  O  O6  1  0.59921400  0.91727600  0.63826000  1
  O  O7  1  0.86380000  0.38740800  0.34152600  1
  O  O8  1  0.16119400  0.23377000  0.52853400  1
  O  O9  1  0.06979500  0.88031300  0.18548900  1
  O  O10  1  0.90774100  0.74752100  0.81211200  1
  O  O11  1  0.81110200  0.10074600  0.41433500  1
  O  O12  1  0.59225900  0.24752100  0.68788800  1
  O  O13  1  0.37401700  0.16543300  0.10190500  1
  O  O14  1  0.13619900  0.61259200  0.65847400  1
  O  O15  1  0.12598300  0.66543300  0.39809500  1
  O  O16  1  0.33880600  0.73377000  0.97146600  1
  O  O17  1  0.09921400  0.58272400  0.13826000  1
  O  O18  1  0.31110200  0.39925400  0.91433500  1
  O  O19  1  0.43020500  0.38031400  0.31451100  1
  O  O20  1  0.93020500  0.11968700  0.81451100  1
  O  O21  1  0.40774100  0.75247900  0.31211200  1
  O  O22  1  0.87401700  0.33456700  0.60190500  1
  O  O23  1  0.09225900  0.25247900  0.18788800  1
  O  O24  1  0.66119400  0.26623000  0.02853400  1
  O  O25  1  0.18889800  0.89925400  0.58566500  1
  O  O26  1  0.62598300  0.83456700  0.89809500  1
  O  O27  1  0.56979500  0.61968700  0.68548900  1
loop_
_geom_bond_atom_site_label_1
_geom_bond_atom_site_label_2
_geom_bond_distance
_geom_bond_site_symmetry_2
Fe0 O24 1.931743 1_555
Fe0 O3 1.935474 1_555
Fe0 O7 1.942631 1_555
Fe0 O23 2.006864 1_655
Fe0 O17 2.109290 1_655
Fe1 O8 1.931743 1_555
Fe1 O25 1.935474 1_545
Fe1 O4 1.942631 1_555
Fe1 O12 2.006864 1_555
Fe1 O6 2.109290 1_545
Fe2 O16 1.931743 1_555
Fe2 O18 1.935474 1_555
Fe2 O14 1.942628 1_555
Fe2 O10 2.006864 1_455
Fe2 O5 2.109290 1_455
Fe3 O2 1.931743 1_555
Fe3 O11 1.935474 1_565
Fe3 O1 1.942631 1_555
Fe3 O21 2.006864 1_555
Fe3 O0 2.109290 1_565
O0 P6 1.540752 1_555
O1 P0 1.531358 1_555
O2 P4 1.525394 1_655
O3 P0 1.517910 1_555
O4 P1 1.531358 1_555
O5 P7 1.540752 1_555
O6 P3 1.540752 1_555
O7 P2 1.531358 1_555
O8 P2 1.525394 1_455
O9 P5 1.541131 1_555
O10 P3 1.523667 1_555
O11 P2 1.517910 1_555
O12 P7 1.523667 1_555
O13 P6 1.595808 1_555
O13 P1 1.613674 1_554
O14 P4 1.531358 1_555
O15 P5 1.595808 1_555
O15 P4 1.613674 1_555
O16 P0 1.525394 1_556
O17 P5 1.540752 1_555
O18 P1 1.517910 1_555
O19 P6 1.541138 1_555
O20 P7 1.541131 1_555
O21 P5 1.523667 1_555
O22 P7 1.595808 1_555
O22 P2 1.613674 1_555
O23 P6 1.523667 1_555
O24 P1 1.525394 1_554
O25 P4 1.517910 1_555
O26 P3 1.595808 1_555
O26 P0 1.613674 1_556
O27 P3 1.541131 1_555
