# generated using pymatgen
data_Ta2H4O7
_symmetry_space_group_name_H-M   'P 1'
_cell_length_a   7.35230398
_cell_length_b   7.35230398
_cell_length_c   7.35230398
_cell_angle_alpha   60.00000000
_cell_angle_beta   60.00000000
_cell_angle_gamma   60.00000000
_symmetry_Int_Tables_number   1
_chemical_formula_structural   Ta2H4O7
_chemical_formula_sum   'Ta4 H8 O14'
_cell_volume   281.03173562
_cell_formula_units_Z   2
loop_
 _symmetry_equiv_pos_site_id
 _symmetry_equiv_pos_as_xyz
  1  'x, y, z'
loop_
 _atom_site_type_symbol
 _atom_site_label
 _atom_site_symmetry_multiplicity
 _atom_site_fract_x
 _atom_site_fract_y
 _atom_site_fract_z
 _atom_site_occupancy
  Ta  Ta0  1  0.62500000  0.12500000  0.12500000  1
  Ta  Ta1  1  0.12500000  0.62500000  0.12500000  1
  Ta  Ta2  1  0.12500000  0.12500000  0.62500000  1
  Ta  Ta3  1  0.12500000  0.12500000  0.12500000  1
  H  H0  1  0.32487600  0.55837500  0.55837500  1
  H  H1  1  0.55837500  0.55837500  0.32487600  1
  H  H2  1  0.55837500  0.55837500  0.55837500  1
  H  H3  1  0.55837500  0.32487600  0.55837500  1
  H  H4  1  0.69162500  0.69162500  0.69162500  1
  H  H5  1  0.69162500  0.92512400  0.69162500  1
  H  H6  1  0.69162500  0.69162500  0.92512400  1
  H  H7  1  0.92512400  0.69162500  0.69162500  1
  O  O0  1  0.80279500  0.80279500  0.19720500  1
  O  O1  1  0.19720500  0.19720500  0.80279500  1
  O  O2  1  0.80279500  0.19720500  0.80279500  1
  O  O3  1  0.19720500  0.80279500  0.19720500  1
  O  O4  1  0.19720500  0.80279500  0.80279500  1
  O  O5  1  0.80279500  0.19720500  0.19720500  1
  O  O6  1  0.44720500  0.44720500  0.05279500  1
  O  O7  1  0.05279500  0.05279500  0.44720500  1
  O  O8  1  0.44720500  0.05279500  0.44720500  1
  O  O9  1  0.05279500  0.44720500  0.05279500  1
  O  O10  1  0.05279500  0.44720500  0.44720500  1
  O  O11  1  0.44720500  0.05279500  0.05279500  1
  O  O12  1  0.50000000  0.50000000  0.50000000  1
  O  O13  1  0.75000000  0.75000000  0.75000000  1
loop_
_geom_bond_atom_site_label_1
_geom_bond_atom_site_label_2
_geom_bond_distance
_geom_bond_site_symmetry_2
H0 O12 1.051292 1_555
H1 O12 1.051292 1_555
H2 O12 1.051298 1_555
H3 O12 1.051292 1_555
H4 O13 1.051298 1_555
H5 O13 1.051292 1_555
H6 O13 1.051292 1_555
H7 O13 1.051292 1_555
O0 Ta1 1.985491 1_655
O0 Ta0 1.985491 1_565
O1 Ta3 1.985491 1_556
O1 Ta2 1.985491 1_555
O2 Ta0 1.985491 1_556
O2 Ta2 1.985491 1_655
O3 Ta3 1.985491 1_565
O3 Ta1 1.985491 1_555
O4 Ta2 1.985491 1_565
O4 Ta1 1.985491 1_556
O5 Ta0 1.985491 1_555
O5 Ta3 1.985491 1_655
O6 Ta1 1.985491 1_555
O6 Ta0 1.985491 1_555
O7 Ta2 1.985491 1_555
O7 Ta3 1.985491 1_555
O8 Ta2 1.985491 1_555
O8 Ta0 1.985491 1_555
O9 Ta1 1.985491 1_555
O9 Ta3 1.985491 1_555
O10 Ta2 1.985491 1_555
O10 Ta1 1.985491 1_555
O11 Ta0 1.985491 1_555
O11 Ta3 1.985491 1_555
