# generated using pymatgen
data_Ca9LaTi8Mn2O30
_symmetry_space_group_name_H-M   'P 1'
_cell_length_a   5.43177420
_cell_length_b   5.50639093
_cell_length_c   38.57845856
_cell_angle_alpha   89.95365134
_cell_angle_beta   89.98801389
_cell_angle_gamma   89.92208176
_symmetry_Int_Tables_number   1
_chemical_formula_structural   Ca9LaTi8Mn2O30
_chemical_formula_sum   'Ca18 La2 Ti16 Mn4 O60'
_cell_volume   1153.85986387
_cell_formula_units_Z   2
loop_
 _symmetry_equiv_pos_site_id
 _symmetry_equiv_pos_as_xyz
  1  'x, y, z'
loop_
 _atom_site_type_symbol
 _atom_site_label
 _atom_site_symmetry_multiplicity
 _atom_site_fract_x
 _atom_site_fract_y
 _atom_site_fract_z
 _atom_site_occupancy
  Ca  Ca0  1  0.01077500  0.95984800  0.14998200  1
  Ca  Ca1  1  0.01354100  0.96027500  0.35055900  1
  Ca  Ca2  1  0.01051600  0.96260200  0.55082800  1
  Ca  Ca3  1  0.01209100  0.96241800  0.75031500  1
  Ca  Ca4  1  0.01243000  0.96207800  0.94977800  1
  Ca  Ca5  1  0.49028000  0.45808200  0.35053400  1
  Ca  Ca6  1  0.48778400  0.45865500  0.15000700  1
  Ca  Ca7  1  0.48965400  0.45736600  0.74962600  1
  Ca  Ca8  1  0.49061600  0.45804500  0.95056100  1
  Ca  Ca9  1  0.51260400  0.54135100  0.05003400  1
  Ca  Ca10  1  0.51304000  0.54099300  0.25022300  1
  Ca  Ca11  1  0.51041600  0.54364400  0.65074500  1
  Ca  Ca12  1  0.50993300  0.54030000  0.44718300  1
  Ca  Ca13  1  0.98929100  0.03994200  0.04995000  1
  Ca  Ca14  1  0.98959600  0.03971400  0.25021200  1
  Ca  Ca15  1  0.98780400  0.03737700  0.44785900  1
  Ca  Ca16  1  0.98887300  0.03714200  0.65001600  1
  Ca  Ca17  1  0.98675800  0.03613200  0.85008200  1
  La  La0  1  0.49447900  0.46786000  0.55090900  1
  La  La1  1  0.50453700  0.53342300  0.85006900  1
  Ti  Ti0  1  0.00022500  0.49946900  0.49812100  1
  Ti  Ti1  1  0.00726700  0.49883700  0.00078500  1
  Ti  Ti2  1  0.00026400  0.49950900  0.19997000  1
  Ti  Ti3  1  0.99934000  0.49885100  0.39862800  1
  Ti  Ti4  1  0.99779600  0.50098100  0.60179800  1
  Ti  Ti5  1  0.99920400  0.49885400  0.79866500  1
  Ti  Ti6  1  0.49681600  0.99968100  0.09949200  1
  Ti  Ti7  1  0.50775200  0.00003400  0.99933800  1
  Ti  Ti8  1  0.50581500  0.00101500  0.30005900  1
  Ti  Ti9  1  0.49826800  0.99892900  0.49820500  1
  Ti  Ti10  1  0.50453700  0.99995500  0.70063000  1
  Ti  Ti11  1  0.50107500  0.99976000  0.19988000  1
  Ti  Ti12  1  0.99751200  0.50034900  0.10029200  1
  Ti  Ti13  1  0.00798600  0.49933200  0.29990800  1
  Ti  Ti14  1  0.00140000  0.49872600  0.70002100  1
  Ti  Ti15  1  0.99872800  0.49858900  0.90184200  1
  Mn  Mn0  1  0.50140600  0.99967300  0.39942200  1
  Mn  Mn1  1  0.49767100  0.99976100  0.60107700  1
  Mn  Mn2  1  0.49836700  0.99969700  0.90049500  1
  Mn  Mn3  1  0.49891100  0.99972900  0.79939200  1
  O  O0  1  0.08217600  0.48036500  0.04998500  1
  O  O1  1  0.08114900  0.48065400  0.25010600  1
  O  O2  1  0.07948700  0.47977900  0.45033600  1
  O  O3  1  0.08147300  0.47866000  0.65024500  1
  O  O4  1  0.06502500  0.48456000  0.84990500  1
  O  O5  1  0.21453300  0.21516500  0.10870700  1
  O  O6  1  0.21211200  0.21474500  0.30883200  1
  O  O7  1  0.21693500  0.21748600  0.50873200  1
  O  O8  1  0.21135800  0.21516000  0.70870400  1
  O  O9  1  0.21957000  0.22033700  0.90856400  1
  O  O10  1  0.21381300  0.21550400  0.19137100  1
  O  O11  1  0.21475800  0.21641200  0.39151400  1
  O  O12  1  0.21583200  0.21946200  0.59118300  1
  O  O13  1  0.22005800  0.21949700  0.79148000  1
  O  O14  1  0.21031000  0.21556100  0.99127400  1
  O  O15  1  0.28541600  0.71451400  0.10873900  1
  O  O16  1  0.28445900  0.71510100  0.19137500  1
  O  O17  1  0.28377100  0.71333600  0.30883400  1
  O  O18  1  0.28373200  0.71334400  0.39171700  1
  O  O19  1  0.27745100  0.71767400  0.59224400  1
  O  O20  1  0.28474300  0.71368300  0.70828200  1
  O  O21  1  0.28636700  0.71503900  0.79197100  1
  O  O22  1  0.28077800  0.71982800  0.50765700  1
  O  O23  1  0.28551900  0.71456800  0.90811900  1
  O  O24  1  0.28306800  0.71418100  0.99141800  1
  O  O25  1  0.41758800  0.98045700  0.05039800  1
  O  O26  1  0.41822600  0.98027300  0.25031300  1
  O  O27  1  0.41815100  0.98186000  0.64938600  1
  O  O28  1  0.41984700  0.98296700  0.44956300  1
  O  O29  1  0.42075400  0.99045400  0.85091700  1
  O  O30  1  0.58131900  0.01856100  0.35051700  1
  O  O31  1  0.58116800  0.01945300  0.15020600  1
  O  O32  1  0.57914100  0.01074800  0.55036700  1
  O  O33  1  0.58608100  0.01971000  0.74781500  1
  O  O34  1  0.58370300  0.01911100  0.95136600  1
  O  O35  1  0.71204500  0.28684900  0.00874200  1
  O  O36  1  0.71545900  0.28516800  0.09132000  1
  O  O37  1  0.71437500  0.28525700  0.20878900  1
  O  O38  1  0.71269500  0.28372700  0.29167500  1
  O  O39  1  0.71469800  0.28875500  0.60826200  1
  O  O40  1  0.71869900  0.28375300  0.40845900  1
  O  O41  1  0.71090800  0.28752700  0.49190800  1
  O  O42  1  0.71437600  0.28809200  0.69125700  1
  O  O43  1  0.71886800  0.28142000  0.80740200  1
  O  O44  1  0.71980700  0.28117900  0.89250600  1
  O  O45  1  0.78402800  0.78485700  0.00896800  1
  O  O46  1  0.78515500  0.78493200  0.20880000  1
  O  O47  1  0.78509000  0.78162200  0.40869400  1
  O  O48  1  0.78178500  0.77947400  0.60857400  1
  O  O49  1  0.78136500  0.78299400  0.80865000  1
  O  O50  1  0.78627800  0.78451200  0.09127100  1
  O  O51  1  0.78642900  0.78373800  0.69095900  1
  O  O52  1  0.78373300  0.78473100  0.29153700  1
  O  O53  1  0.78083100  0.78343300  0.49152300  1
  O  O54  1  0.78128500  0.78201800  0.89127200  1
  O  O55  1  0.91780800  0.51941000  0.14999000  1
  O  O56  1  0.91897400  0.51929100  0.34992700  1
  O  O57  1  0.93213300  0.51669400  0.54976900  1
  O  O58  1  0.91921200  0.52168300  0.75003900  1
  O  O59  1  0.91874000  0.52169500  0.95007400  1
loop_
_geom_bond_atom_site_label_1
_geom_bond_atom_site_label_2
_geom_bond_distance
_geom_bond_site_symmetry_2
Ca0 O31 2.356069 1_465
Ca0 O5 2.395161 1_565
Ca0 O10 2.399198 1_565
Ca0 O55 2.477911 1_455
Ca0 O16 2.562860 1_555
Ca0 O15 2.564946 1_555
Ca0 O50 2.749025 1_455
Ca0 O46 2.752621 1_455
Ca1 O30 2.369136 1_465
Ca1 O11 2.385086 1_565
Ca1 O6 2.391198 1_565
Ca1 O56 2.482790 1_455
Ca1 O18 2.552622 1_555
Ca1 O17 2.567418 1_555
Ca1 O47 2.745196 1_455
Ca1 O52 2.772214 1_455
Ca2 O32 2.357793 1_465
Ca2 O12 2.382540 1_565
Ca2 O7 2.421596 1_565
Ca2 O57 2.492923 1_455
Ca2 O19 2.542878 1_555
Ca2 O22 2.590969 1_555
Ca2 O48 2.742609 1_455
Ca2 O53 2.787918 1_455
Ca3 O33 2.336971 1_465
Ca3 O8 2.384336 1_565
Ca3 O13 2.410532 1_565
Ca3 O58 2.479446 1_455
Ca3 O21 2.578659 1_555
Ca3 O20 2.587617 1_555
Ca3 O49 2.758617 1_455
Ca3 O51 2.778857 1_455
Ca4 O34 2.350198 1_465
Ca4 O14 2.382145 1_565
Ca4 O9 2.411678 1_565
Ca4 O59 2.478440 1_455
Ca4 O24 2.568430 1_555
Ca4 O23 2.576385 1_555
Ca4 O54 2.768022 1_455
Ca4 O45 2.775631 1_456
Ca5 O56 2.353397 1_555
Ca5 O18 2.399402 1_555
Ca5 O17 2.411335 1_555
Ca5 O30 2.469519 1_555
Ca5 O11 2.551663 1_555
Ca5 O6 2.583903 1_555
Ca5 O40 2.729283 1_555
Ca5 O38 2.745270 1_555
Ca6 O55 2.360079 1_555
Ca6 O15 2.391798 1_555
Ca6 O16 2.399863 1_555
Ca6 O31 2.470371 1_555
Ca6 O5 2.559103 1_555
Ca6 O10 2.560198 1_555
Ca6 O37 2.750182 1_555
Ca6 O36 2.750819 1_555
Ca7 O58 2.360522 1_555
Ca7 O20 2.401593 1_555
Ca7 O21 2.428952 1_555
Ca7 O33 2.466512 1_555
Ca7 O13 2.543214 1_555
Ca7 O8 2.562415 1_555
Ca7 O42 2.725517 1_555
Ca7 O43 2.729683 1_555
Ca8 O59 2.352276 1_555
Ca8 O24 2.396466 1_555
Ca8 O23 2.431036 1_555
Ca8 O34 2.468764 1_555
Ca8 O9 2.552539 1_555
Ca8 O14 2.563013 1_555
Ca8 O35 2.714368 1_556
Ca8 O44 2.741072 1_555
Ca9 O0 2.362435 1_555
Ca9 O35 2.381978 1_555
Ca9 O36 2.394523 1_555
Ca9 O25 2.471722 1_555
Ca9 O45 2.546037 1_555
Ca9 O50 2.557974 1_555
Ca9 O15 2.749585 1_555
Ca9 O24 2.751031 1_554
Ca10 O1 2.369799 1_555
Ca10 O37 2.394316 1_555
Ca10 O38 2.394379 1_555
Ca10 O26 2.472386 1_555
Ca10 O52 2.552115 1_555
Ca10 O46 2.558044 1_555
Ca10 O17 2.750126 1_555
Ca10 O16 2.758480 1_555
Ca11 O3 2.357805 1_555
Ca11 O42 2.375509 1_555
Ca11 O39 2.426091 1_555
Ca11 O27 2.464334 1_555
Ca11 O51 2.532202 1_555
Ca11 O48 2.550799 1_555
Ca11 O20 2.702846 1_555
Ca11 O19 2.758163 1_555
Ca12 O40 2.347676 1_555
Ca12 O2 2.365255 1_555
Ca12 O41 2.469584 1_555
Ca12 O28 2.487240 1_555
Ca12 O47 2.491103 1_555
Ca12 O53 2.625584 1_555
Ca12 O18 2.644028 1_555
Ca12 O22 2.822868 1_555
Ca13 O25 2.348982 1_645
Ca13 O45 2.392533 1_545
Ca13 O50 2.394836 1_545
Ca13 O0 2.477740 1_655
Ca13 O36 2.565131 1_555
Ca13 O35 2.575943 1_555
Ca13 O14 2.738412 1_654
Ca13 O5 2.752068 1_655
Ca14 O26 2.350678 1_645
Ca14 O46 2.400487 1_545
Ca14 O52 2.400675 1_545
Ca14 O1 2.479055 1_655
Ca14 O37 2.570723 1_555
Ca14 O38 2.573554 1_555
Ca14 O6 2.740770 1_655
Ca14 O10 2.751655 1_655
Ca15 O47 2.342421 1_545
Ca15 O28 2.366323 1_645
Ca15 O53 2.460967 1_545
Ca15 O2 2.488999 1_655
Ca15 O40 2.505927 1_555
Ca15 O41 2.654104 1_555
Ca15 O11 2.686128 1_655
Ca15 O7 2.838280 1_655
Ca16 O27 2.351240 1_645
Ca16 O51 2.377167 1_545
Ca16 O48 2.417266 1_545
Ca16 O3 2.483349 1_655
Ca16 O42 2.580859 1_555
Ca16 O39 2.593051 1_555
Ca16 O8 2.748705 1_655
Ca16 O12 2.770852 1_655
Ca17 O29 2.370631 1_645
Ca17 O54 2.393433 1_545
Ca17 O49 2.398118 1_545
Ca17 O4 2.506123 1_655
Ca17 O44 2.568875 1_555
Ca17 O43 2.577740 1_555
Ca17 O9 2.779669 1_655
Ca17 O13 2.781191 1_655
La0 O57 2.393152 1_555
La0 O19 2.413113 1_555
La0 O22 2.459526 1_555
La0 O32 2.558187 1_555
La0 O12 2.564539 1_555
La0 O7 2.613668 1_555
La0 O39 2.700630 1_555
La0 O41 2.747424 1_555
La1 O4 2.402818 1_555
La1 O44 2.443242 1_555
La1 O43 2.447196 1_555
La1 O29 2.557034 1_555
La1 O54 2.582687 1_555
La1 O49 2.589175 1_555
La1 O21 2.724384 1_555
La1 O23 2.724837 1_555
Mn0 O30 1.938622 1_565
Mn0 O11 1.983991 1_565
Mn0 O47 1.984557 1_555
Mn0 O28 1.986440 1_555
Mn0 O40 1.991882 1_565
Mn0 O18 1.994515 1_555
Mn1 O27 1.915488 1_555
Mn1 O48 1.982703 1_555
Mn1 O12 1.986777 1_565
Mn1 O19 1.991417 1_555
Mn1 O39 2.001183 1_565
Mn1 O32 2.006532 1_565
Mn2 O29 1.959355 1_555
Mn2 O9 1.965111 1_565
Mn2 O23 1.972871 1_555
Mn2 O54 1.979986 1_555
Mn2 O44 1.987016 1_565
Mn2 O34 2.019565 1_565
Mn3 O13 1.961225 1_565
Mn3 O21 1.969267 1_555
Mn3 O49 1.974903 1_555
Mn3 O43 1.983637 1_565
Mn3 O29 2.033113 1_555
Mn3 O33 2.048131 1_565
O0 Ti1 1.943820 1_555
O0 Ti12 1.997499 1_455
O1 Ti13 1.964620 1_555
O1 Ti2 1.986133 1_555
O2 Ti0 1.896145 1_555
O2 Ti3 2.044440 1_455
O3 Ti4 1.927361 1_455
O3 Ti14 1.971985 1_555
O4 Ti5 2.010365 1_455
O4 Ti15 2.037187 1_455
O5 Ti6 1.969965 1_545
O5 Ti12 1.988776 1_455
O6 Ti13 1.948868 1_555
O6 Ti8 2.009970 1_555
O7 Ti9 1.985945 1_545
O7 Ti0 1.989545 1_555
O8 Ti14 1.960954 1_555
O8 Ti10 2.008111 1_545
O9 Ti15 1.961688 1_455
O10 Ti2 1.974052 1_555
O10 Ti11 1.987018 1_545
O11 Ti3 1.964376 1_455
O12 Ti4 1.992266 1_455
O13 Ti5 1.969183 1_455
O14 Ti1 1.944254 1_556
O14 Ti7 2.027289 1_555
O15 Ti6 1.978707 1_555
O15 Ti12 1.987033 1_455
O16 Ti2 1.976442 1_555
O16 Ti11 1.988707 1_555
O17 Ti13 1.938263 1_555
O17 Ti8 2.020571 1_565
O18 Ti3 1.963818 1_455
O19 Ti4 1.967481 1_455
O20 Ti14 1.969016 1_555
O20 Ti10 2.000373 1_555
O21 Ti5 1.980180 1_455
O22 Ti9 1.973397 1_555
O22 Ti0 1.983909 1_555
O23 Ti15 1.976194 1_455
O24 Ti1 1.945459 1_556
O24 Ti7 2.016558 1_565
O25 Ti6 1.945333 1_555
O25 Ti7 2.032498 1_564
O26 Ti8 1.980737 1_565
O26 Ti11 1.999731 1_555
O27 Ti10 2.034485 1_555
O28 Ti9 1.926461 1_555
O30 Ti8 1.991858 1_555
O31 Ti11 1.967956 1_545
O31 Ti6 2.012562 1_545
O32 Ti9 2.060906 1_545
O33 Ti10 1.876803 1_545
O34 Ti7 1.898882 1_555
O35 Ti7 1.965475 1_554
O35 Ti1 2.008125 1_655
O36 Ti12 1.968938 1_555
O36 Ti6 1.996282 1_545
O37 Ti2 1.980691 1_655
O37 Ti11 1.984398 1_545
O38 Ti8 1.947961 1_555
O38 Ti13 2.022130 1_655
O39 Ti4 1.948503 1_555
O40 Ti3 1.968337 1_555
O41 Ti0 1.973486 1_655
O41 Ti9 1.980571 1_545
O42 Ti14 1.973812 1_655
O42 Ti10 1.987710 1_545
O43 Ti5 1.967194 1_555
O44 Ti15 1.965723 1_555
O45 Ti7 1.946427 1_564
O45 Ti1 2.011442 1_655
O46 Ti11 1.973161 1_555
O46 Ti2 1.986717 1_655
O47 Ti3 1.981260 1_555
O48 Ti4 1.947368 1_555
O49 Ti5 1.998036 1_555
O50 Ti12 1.969851 1_555
O50 Ti6 1.992933 1_555
O51 Ti10 1.974001 1_555
O51 Ti14 1.985688 1_655
O52 Ti8 1.949571 1_565
O52 Ti13 2.012920 1_655
O53 Ti9 1.955895 1_555
O53 Ti0 1.980972 1_655
O54 Ti15 1.997782 1_555
O55 Ti12 1.968308 1_555
O55 Ti2 1.982488 1_655
O56 Ti3 1.932102 1_555
O56 Ti13 1.992291 1_655
O57 Ti0 2.028732 1_655
O57 Ti4 2.040460 1_555
O58 Ti5 1.929628 1_555
O58 Ti14 1.984586 1_655
O59 Ti15 1.914972 1_555
O59 Ti1 2.018468 1_656
