# generated using pymatgen
data_Ti9Se2
_symmetry_space_group_name_H-M   'P 1'
_cell_length_a   3.47984524
_cell_length_b   6.80060377
_cell_length_c   15.40461874
_cell_angle_alpha   90.00000000
_cell_angle_beta   90.00000000
_cell_angle_gamma   90.00000000
_symmetry_Int_Tables_number   1
_chemical_formula_structural   Ti9Se2
_chemical_formula_sum   'Ti18 Se4'
_cell_volume   364.55105204
_cell_formula_units_Z   2
loop_
 _symmetry_equiv_pos_site_id
 _symmetry_equiv_pos_as_xyz
  1  'x, y, z'
loop_
 _atom_site_type_symbol
 _atom_site_label
 _atom_site_symmetry_multiplicity
 _atom_site_fract_x
 _atom_site_fract_y
 _atom_site_fract_z
 _atom_site_occupancy
  Ti  Ti0  1  -0.00000000  0.71948789  0.70911584  1
  Ti  Ti1  1  0.50000000  0.40361409  0.63935954  1
  Ti  Ti2  1  -0.00000000  0.60956173  0.92334567  1
  Ti  Ti3  1  -0.00000000  0.78051211  0.20911584  1
  Ti  Ti4  1  0.50000000  0.27752201  0.94393907  1
  Ti  Ti5  1  0.50000000  0.72247799  0.05606093  1
  Ti  Ti6  1  -0.00000000  0.10956173  0.57665433  1
  Ti  Ti7  1  0.00000000  0.89043827  0.42334567  1
  Ti  Ti8  1  0.50000000  0.22247799  0.44393907  1
  Ti  Ti9  1  -0.00000000  0.39043827  0.07665433  1
  Ti  Ti10  1  0.50000000  0.59638591  0.36064046  1
  Ti  Ti11  1  0.00000000  0.21948789  0.79088416  1
  Ti  Ti12  1  0.50000000  0.90361409  0.86064046  1
  Ti  Ti13  1  -0.00000000  -0.00000000  0.00000000  1
  Ti  Ti14  1  -0.00000000  0.28051211  0.29088416  1
  Ti  Ti15  1  0.50000000  0.09638591  0.13935954  1
  Ti  Ti16  1  0.50000000  0.77752201  0.55606093  1
  Ti  Ti17  1  -0.00000000  0.50000000  0.50000000  1
  Se  Se0  1  0.50000000  0.51806817  0.80324622  1
  Se  Se1  1  0.50000000  0.48193183  0.19675378  1
  Se  Se2  1  0.50000000  0.01806817  0.69675378  1
  Se  Se3  1  0.50000000  0.98193183  0.30324622  1
loop_
_geom_bond_atom_site_label_1
_geom_bond_atom_site_label_2
_geom_bond_distance
_geom_bond_site_symmetry_2
Ti1 Ti17 2.840010 1_655
Ti1 Ti17 2.840010 1_555
Ti10 Ti17 2.840010 1_555
Ti10 Ti17 2.840010 1_655
Ti12 Ti13 2.840010 1_666
Ti12 Ti13 2.840010 1_566
Ti13 Ti4 2.708338 1_554
Ti13 Ti5 2.708338 1_545
Ti13 Ti4 2.708338 1_454
Ti13 Ti5 2.708338 1_445
Ti13 Ti15 2.840010 1_555
Ti13 Ti15 2.840010 1_455
Ti13 Ti9 2.905948 1_555
Ti13 Ti2 2.905948 1_544
Ti16 Ti17 2.708338 1_655
Ti16 Ti17 2.708338 1_555
Ti17 Ti8 2.708338 1_455
Ti17 Ti8 2.708338 1_555
Ti17 Ti7 2.905948 1_555
Ti17 Ti6 2.905948 1_555
Se0 Ti2 2.614823 1_555
Se0 Ti2 2.614823 1_655
Se0 Ti1 2.641875 1_555
Se0 Ti0 2.646930 1_655
Se0 Ti0 2.646930 1_555
Se0 Ti11 2.680789 1_555
Se0 Ti11 2.680789 1_655
Se0 Ti4 2.715384 1_555
Se0 Ti12 2.767001 1_555
Se1 Ti9 2.614823 1_555
Se1 Ti9 2.614823 1_655
Se1 Ti10 2.641875 1_555
Se1 Ti14 2.646930 1_655
Se1 Ti14 2.646930 1_555
Se1 Ti3 2.680789 1_555
Se1 Ti3 2.680789 1_655
Se1 Ti5 2.715384 1_555
Se1 Ti15 2.767001 1_555
Se2 Ti6 2.614823 1_655
Se2 Ti6 2.614823 1_555
Se2 Ti12 2.641875 1_545
Se2 Ti11 2.646930 1_555
Se2 Ti11 2.646930 1_655
Se2 Ti0 2.680789 1_645
Se2 Ti0 2.680789 1_545
Se2 Ti16 2.715384 1_545
Se2 Ti1 2.767001 1_555
Se3 Ti7 2.614823 1_655
Se3 Ti7 2.614823 1_555
Se3 Ti15 2.641875 1_565
Se3 Ti3 2.646930 1_655
Se3 Ti3 2.646930 1_555
Se3 Ti14 2.680789 1_565
Se3 Ti14 2.680789 1_665
Se3 Ti8 2.715384 1_565
Se3 Ti10 2.767001 1_555
