# generated using pymatgen
data_Cs3Cr2I9
_symmetry_space_group_name_H-M   'P 1'
_cell_length_a   8.18217701
_cell_length_b   8.18204509
_cell_length_c   20.62946098
_cell_angle_alpha   89.99747273
_cell_angle_beta   90.00780229
_cell_angle_gamma   120.00733893
_symmetry_Int_Tables_number   1
_chemical_formula_structural   Cs3Cr2I9
_chemical_formula_sum   'Cs6 Cr4 I18'
_cell_volume   1195.96129702
_cell_formula_units_Z   2
loop_
 _symmetry_equiv_pos_site_id
 _symmetry_equiv_pos_as_xyz
  1  'x, y, z'
loop_
 _atom_site_type_symbol
 _atom_site_label
 _atom_site_symmetry_multiplicity
 _atom_site_fract_x
 _atom_site_fract_y
 _atom_site_fract_z
 _atom_site_occupancy
  Cs  Cs0  1  0.33332157  0.66666087  0.43093323  1
  Cs  Cs1  1  0.66667807  0.33329902  0.93095096  1
  Cs  Cs2  1  -0.00001289  -0.00000637  0.25001904  1
  Cs  Cs3  1  0.33332141  0.66665611  0.06909413  1
  Cs  Cs4  1  -0.00000739  -0.00000936  0.74999779  1
  Cs  Cs5  1  0.66663367  0.33335504  0.56906090  1
  Cr  Cr0  1  0.66666326  0.33333649  0.16290041  1
  Cr  Cr1  1  0.33334954  0.66667320  0.83713940  1
  Cr  Cr2  1  0.33333677  0.66671781  0.66285452  1
  Cr  Cr3  1  0.66667473  0.33333490  0.33709851  1
  I  I0  1  0.82621385  0.65242320  0.09164763  1
  I  I1  1  0.51303465  0.48693980  0.24999759  1
  I  I2  1  0.51300252  0.02601395  0.24999569  1
  I  I3  1  0.02612549  0.51308446  0.75001275  1
  I  I4  1  0.65246294  0.82646447  0.59157297  1
  I  I5  1  0.17383284  0.82631005  0.59156092  1
  I  I6  1  0.97396060  0.48702297  0.24999103  1
  I  I7  1  0.34761522  0.17381452  0.09160610  1
  I  I8  1  0.82622939  0.17372934  0.40839954  1
  I  I9  1  0.17397191  0.34751778  0.90843170  1
  I  I10  1  0.48693571  0.51308370  0.74995025  1
  I  I11  1  0.17352364  0.34757210  0.59157446  1
  I  I12  1  0.48690553  0.97380536  0.75001413  1
  I  I13  1  0.34760884  0.17385961  0.40837696  1
  I  I14  1  0.82618367  0.17376540  0.09162447  1
  I  I15  1  0.82620604  0.65240544  0.40836895  1
  I  I16  1  0.17374052  0.82612349  0.90839182  1
  I  I17  1  0.65248690  0.82604665  0.90843311  1
loop_
_geom_bond_atom_site_label_1
_geom_bond_atom_site_label_2
_geom_bond_distance
_geom_bond_site_symmetry_2
Cs0 I4 4.011650 1_555
Cs0 I11 4.011742 1_555
Cs0 I5 4.012002 1_555
Cs0 I8 4.118096 1_565
Cs0 I8 4.118208 1_455
Cs0 I13 4.118233 1_555
Cs0 I15 4.118550 1_455
Cs0 I15 4.118898 1_555
Cs0 I13 4.119060 1_565
Cs0 I6 4.518202 1_455
Cs0 I2 4.518403 1_565
Cs0 I1 4.519026 1_555
Cs1 I14 4.012000 1_556
Cs1 I7 4.012090 1_556
Cs1 I0 4.012725 1_556
Cs1 I9 4.117063 1_555
Cs1 I17 4.117257 1_555
Cs1 I16 4.117812 1_655
Cs1 I16 4.118642 1_545
Cs1 I17 4.119819 1_545
Cs1 I9 4.120163 1_655
Cs1 I12 4.518836 1_545
Cs1 I3 4.519034 1_655
Cs1 I10 4.520068 1_555
Cs2 I13 4.091058 1_555
Cs2 I15 4.091073 1_445
Cs2 I0 4.091243 1_445
Cs2 I8 4.091499 1_455
Cs2 I14 4.091671 1_455
Cs2 I7 4.092510 1_555
Cs2 I1 4.094759 1_555
Cs2 I6 4.094803 1_445
Cs2 I1 4.094803 1_445
Cs2 I2 4.095219 1_455
Cs2 I2 4.095262 1_555
Cs2 I6 4.095550 1_455
Cs3 I9 4.012198 1_554
Cs3 I16 4.012527 1_554
Cs3 I17 4.012601 1_554
Cs3 I14 4.118001 1_565
Cs3 I14 4.118321 1_455
Cs3 I7 4.118442 1_555
Cs3 I7 4.118642 1_565
Cs3 I0 4.118674 1_455
Cs3 I0 4.118716 1_555
Cs3 I2 4.517693 1_565
Cs3 I6 4.517984 1_455
Cs3 I1 4.518022 1_555
Cs4 I4 4.091768 1_445
Cs4 I16 4.091832 1_545
Cs4 I9 4.092088 1_555
Cs4 I11 4.092254 1_555
Cs4 I17 4.092357 1_445
Cs4 I5 4.092545 1_545
Cs4 I10 4.094652 1_445
Cs4 I10 4.094941 1_555
Cs4 I3 4.095012 1_545
Cs4 I12 4.095226 1_445
Cs4 I12 4.095361 1_545
Cs4 I3 4.095409 1_555
Cs5 I13 4.011937 1_555
Cs5 I15 4.012453 1_555
Cs5 I8 4.012909 1_555
Cs5 I11 4.116748 1_655
Cs5 I4 4.116906 1_545
Cs5 I5 4.117502 1_545
Cs5 I5 4.118674 1_655
Cs5 I4 4.120141 1_555
Cs5 I11 4.120450 1_555
Cs5 I10 4.518207 1_555
Cs5 I3 4.518889 1_655
Cs5 I12 4.519456 1_545
Cr0 I0 2.696700 1_555
Cr0 I7 2.696771 1_555
Cr0 I14 2.697308 1_555
Cr0 I6 2.822705 1_555
Cr0 I1 2.822934 1_555
Cr0 I2 2.823098 1_555
Cr1 I16 2.696853 1_555
Cr1 I17 2.697295 1_555
Cr1 I9 2.697553 1_555
Cr1 I12 2.822452 1_555
Cr1 I3 2.822778 1_555
Cr1 I10 2.823834 1_555
Cr2 I5 2.697278 1_555
Cr2 I11 2.697289 1_555
Cr2 I4 2.697417 1_555
Cr2 I12 2.822583 1_555
Cr2 I10 2.822632 1_555
Cr2 I3 2.823488 1_555
Cr3 I15 2.696734 1_555
Cr3 I13 2.697024 1_555
Cr3 I8 2.697742 1_555
Cr3 I1 2.822766 1_555
Cr3 I2 2.823112 1_555
Cr3 I6 2.823229 1_555
