# generated using pymatgen
data_Ho6Mn23
_symmetry_space_group_name_H-M   'P 1'
_cell_length_a   8.50622170
_cell_length_b   8.50622110
_cell_length_c   8.50622100
_cell_angle_alpha   59.99999650
_cell_angle_beta   59.99999885
_cell_angle_gamma   59.99999464
_symmetry_Int_Tables_number   1
_chemical_formula_structural   Ho6Mn23
_chemical_formula_sum   'Ho6 Mn23'
_cell_volume   435.20612220
_cell_formula_units_Z   1
loop_
 _symmetry_equiv_pos_site_id
 _symmetry_equiv_pos_as_xyz
  1  'x, y, z'
loop_
 _atom_site_type_symbol
 _atom_site_label
 _atom_site_symmetry_multiplicity
 _atom_site_fract_x
 _atom_site_fract_y
 _atom_site_fract_z
 _atom_site_occupancy
  Ho  Ho0  1  0.79566800  0.20433200  0.20433200  1
  Ho  Ho1  1  0.79566800  0.79566800  0.20433200  1
  Ho  Ho2  1  0.20433200  0.79566800  0.79566800  1
  Ho  Ho3  1  0.79566800  0.20433200  0.79566800  1
  Ho  Ho4  1  0.20433200  0.20433200  0.79566800  1
  Ho  Ho5  1  0.20433200  0.79566800  0.20433200  1
  Mn  Mn0  1  0.82290700  0.53128000  0.82290700  1
  Mn  Mn1  1  0.17709300  0.46872000  0.17709300  1
  Mn  Mn2  1  0.00000000  0.00000000  0.50000000  1
  Mn  Mn3  1  0.37817900  0.37817900  0.37817900  1
  Mn  Mn4  1  0.53128000  0.82290700  0.82290700  1
  Mn  Mn5  1  0.13453600  0.62182100  0.62182100  1
  Mn  Mn6  1  0.17709300  0.17709300  0.46872000  1
  Mn  Mn7  1  0.82290700  0.82290700  0.82290700  1
  Mn  Mn8  1  0.62182100  0.13453600  0.62182100  1
  Mn  Mn9  1  0.00000000  0.50000000  0.50000000  1
  Mn  Mn10  1  0.46872000  0.17709300  0.17709300  1
  Mn  Mn11  1  0.86546400  0.37817900  0.37817900  1
  Mn  Mn12  1  0.17709300  0.17709300  0.17709300  1
  Mn  Mn13  1  0.00000000  0.50000000  0.00000000  1
  Mn  Mn14  1  0.50000000  0.00000000  0.00000000  1
  Mn  Mn15  1  0.62182100  0.62182100  0.13453600  1
  Mn  Mn16  1  0.82290700  0.82290700  0.53128000  1
  Mn  Mn17  1  0.62182100  0.62182100  0.62182100  1
  Mn  Mn18  1  0.37817900  0.86546400  0.37817900  1
  Mn  Mn19  1  0.37817900  0.37817900  0.86546400  1
  Mn  Mn20  1  0.50000000  0.00000000  0.50000000  1
  Mn  Mn21  1  0.50000000  0.50000000  0.50000000  1
  Mn  Mn22  1  0.50000000  0.50000000  0.00000000  1
loop_
_geom_bond_atom_site_label_1
_geom_bond_atom_site_label_2
_geom_bond_distance
_geom_bond_site_symmetry_2
Ho0 Mn15 2.944269 1_555
Ho0 Mn8 2.944269 1_555
Ho0 Mn3 2.944271 1_555
Ho0 Mn11 2.944277 1_555
Ho0 Mn12 3.030551 1_655
Ho0 Mn16 3.030555 1_545
Ho0 Mn0 3.030555 1_554
Ho0 Mn10 3.030560 1_555
Ho0 Mn22 3.057169 1_555
Ho0 Mn2 3.057169 1_655
Ho0 Mn13 3.057169 1_655
Ho0 Mn20 3.057169 1_555
Ho1 Mn11 2.944269 1_555
Ho1 Mn18 2.944270 1_555
Ho1 Mn17 2.944271 1_555
Ho1 Mn15 2.944277 1_555
Ho1 Mn7 3.030551 1_554
Ho1 Mn10 3.030555 1_565
Ho1 Mn1 3.030555 1_655
Ho1 Mn16 3.030560 1_555
Ho1 Mn9 3.057169 1_655
Ho1 Mn13 3.057169 1_655
Ho1 Mn20 3.057169 1_565
Ho1 Mn14 3.057169 1_565
Ho2 Mn19 2.944269 1_555
Ho2 Mn18 2.944269 1_555
Ho2 Mn17 2.944271 1_555
Ho2 Mn5 2.944277 1_555
Ho2 Mn7 3.030551 1_455
Ho2 Mn6 3.030555 1_565
Ho2 Mn1 3.030555 1_556
Ho2 Mn4 3.030560 1_555
Ho2 Mn22 3.057169 1_556
Ho2 Mn2 3.057169 1_565
Ho2 Mn13 3.057169 1_556
Ho2 Mn20 3.057169 1_565
Ho3 Mn11 2.944269 1_555
Ho3 Mn19 2.944269 1_555
Ho3 Mn17 2.944270 1_555
Ho3 Mn8 2.944277 1_555
Ho3 Mn7 3.030551 1_545
Ho3 Mn10 3.030555 1_556
Ho3 Mn6 3.030555 1_655
Ho3 Mn0 3.030560 1_555
Ho3 Mn22 3.057169 1_556
Ho3 Mn2 3.057169 1_655
Ho3 Mn9 3.057169 1_655
Ho3 Mn14 3.057169 1_556
Ho4 Mn5 2.944269 1_555
Ho4 Mn8 2.944270 1_555
Ho4 Mn3 2.944271 1_555
Ho4 Mn19 2.944277 1_555
Ho4 Mn12 3.030551 1_556
Ho4 Mn4 3.030555 1_545
Ho4 Mn0 3.030555 1_455
Ho4 Mn6 3.030560 1_555
Ho4 Mn9 3.057169 1_555
Ho4 Mn13 3.057169 1_556
Ho4 Mn20 3.057169 1_555
Ho4 Mn14 3.057169 1_556
Ho5 Mn5 2.944269 1_555
Ho5 Mn15 2.944269 1_555
Ho5 Mn3 2.944270 1_555
Ho5 Mn18 2.944277 1_555
Ho5 Mn12 3.030551 1_565
Ho5 Mn4 3.030555 1_554
Ho5 Mn16 3.030555 1_455
Ho5 Mn1 3.030560 1_555
Ho5 Mn22 3.057169 1_555
Ho5 Mn2 3.057169 1_565
Ho5 Mn9 3.057169 1_555
Ho5 Mn14 3.057169 1_565
Mn0 Mn13 2.465121 1_656
Mn0 Mn9 2.465129 1_655
Mn0 Mn22 2.465129 1_556
Mn0 Mn16 2.480644 1_555
Mn0 Mn4 2.480644 1_555
Mn0 Mn7 2.480644 1_555
Mn0 Mn15 2.595308 1_556
Mn0 Mn5 2.595308 1_655
Mn0 Mn17 2.595323 1_555
Mn1 Mn13 2.465121 1_555
Mn1 Mn9 2.465129 1_555
Mn1 Mn22 2.465129 1_555
Mn1 Mn6 2.480644 1_555
Mn1 Mn10 2.480644 1_555
Mn1 Mn12 2.480644 1_555
Mn1 Mn19 2.595308 1_554
Mn1 Mn11 2.595308 1_455
Mn1 Mn3 2.595323 1_555
Mn2 Mn6 2.465121 1_555
Mn2 Mn7 2.465126 1_445
Mn2 Mn5 2.627309 1_545
Mn2 Mn8 2.627309 1_455
Mn3 Mn6 2.595323 1_555
Mn3 Mn9 2.627309 1_555
Mn3 Mn8 2.930919 1_555
Mn3 Mn5 2.930919 1_555
Mn4 Mn7 2.480644 1_555
Mn4 Mn8 2.595308 1_565
Mn5 Mn7 2.595316 1_455
Mn5 Mn9 2.627302 1_555
Mn6 Mn9 2.465128 1_555
Mn7 Mn8 2.595316 1_565
Mn10 Mn14 2.465121 1_555
Mn10 Mn20 2.465128 1_555
Mn10 Mn22 2.465129 1_555
Mn10 Mn6 2.480644 1_555
Mn10 Mn12 2.480644 1_555
Mn10 Mn19 2.595308 1_554
Mn10 Mn18 2.595308 1_545
Mn10 Mn3 2.595323 1_555
Mn11 Mn21 2.538257 1_555
Mn11 Mn6 2.595308 1_655
Mn11 Mn12 2.595316 1_655
Mn11 Mn9 2.627302 1_655
Mn11 Mn2 2.627309 1_655
Mn11 Mn13 2.627309 1_655
Mn11 Mn17 2.930919 1_555
Mn11 Mn15 2.930931 1_555
Mn11 Mn8 2.930931 1_555
Mn12 Mn13 2.465125 1_555
Mn12 Mn14 2.465126 1_555
Mn12 Mn2 2.465126 1_555
Mn12 Mn6 2.480644 1_555
Mn12 Mn18 2.595316 1_545
Mn12 Mn19 2.595316 1_554
Mn13 Mn7 2.465125 1_454
Mn13 Mn5 2.627309 1_554
Mn13 Mn19 2.627309 1_554
Mn13 Mn15 2.627309 1_455
Mn14 Mn4 2.465121 1_544
Mn14 Mn7 2.465126 1_544
Mn14 Mn19 2.627309 1_554
Mn14 Mn15 2.627309 1_545
Mn14 Mn18 2.627309 1_545
Mn14 Mn8 2.627309 1_554
Mn15 Mn21 2.538257 1_555
Mn15 Mn4 2.595308 1_554
Mn15 Mn7 2.595316 1_554
Mn15 Mn22 2.627302 1_555
Mn15 Mn3 2.930919 1_555
Mn15 Mn18 2.930931 1_555
Mn16 Mn2 2.465121 1_665
Mn16 Mn9 2.465128 1_655
Mn16 Mn20 2.465129 1_565
Mn16 Mn7 2.480644 1_555
Mn16 Mn4 2.480644 1_555
Mn16 Mn8 2.595308 1_565
Mn16 Mn5 2.595308 1_655
Mn16 Mn17 2.595323 1_555
Mn17 Mn21 2.538250 1_555
Mn17 Mn4 2.595323 1_555
Mn17 Mn20 2.627309 1_565
Mn17 Mn22 2.627309 1_556
Mn17 Mn9 2.627309 1_655
Mn17 Mn18 2.930919 1_555
Mn17 Mn19 2.930919 1_555
Mn18 Mn21 2.538257 1_555
Mn18 Mn6 2.595308 1_565
Mn18 Mn20 2.627302 1_565
Mn18 Mn2 2.627309 1_565
Mn18 Mn5 2.930931 1_555
Mn19 Mn21 2.538257 1_555
Mn19 Mn22 2.627302 1_556
Mn19 Mn8 2.930931 1_555
Mn19 Mn5 2.930931 1_555
Mn20 Mn4 2.465128 1_545
Mn20 Mn6 2.465129 1_555
Mn20 Mn8 2.627302 1_555
Mn20 Mn3 2.627309 1_555
Mn21 Mn3 2.538250 1_555
Mn21 Mn8 2.538257 1_555
Mn21 Mn5 2.538257 1_555
Mn22 Mn4 2.465129 1_554
Mn22 Mn3 2.627309 1_555
