# generated using pymatgen
data_NaCe4I7N2
_symmetry_space_group_name_H-M   'P 1'
_cell_length_a   11.18002698
_cell_length_b   11.92581390
_cell_length_c   14.33055019
_cell_angle_alpha   89.99324038
_cell_angle_beta   89.82573172
_cell_angle_gamma   90.01163463
_symmetry_Int_Tables_number   1
_chemical_formula_structural   NaCe4I7N2
_chemical_formula_sum   'Na4 Ce16 I28 N8'
_cell_volume   1910.69656666
_cell_formula_units_Z   4
loop_
 _symmetry_equiv_pos_site_id
 _symmetry_equiv_pos_as_xyz
  1  'x, y, z'
loop_
 _atom_site_type_symbol
 _atom_site_label
 _atom_site_symmetry_multiplicity
 _atom_site_fract_x
 _atom_site_fract_y
 _atom_site_fract_z
 _atom_site_occupancy
  Na  Na0  1  0.04728605  0.24973968  0.90644052  1
  Na  Na1  1  0.95262388  0.74973838  0.09357874  1
  Na  Na2  1  0.54687122  0.74975363  0.59341250  1
  Na  Na3  1  0.45294737  0.24974099  0.40659807  1
  Ce  Ce0  1  0.12050054  0.31310936  0.58714833  1
  Ce  Ce1  1  0.37930732  0.31331954  0.08719076  1
  Ce  Ce2  1  0.87900994  0.81369414  0.41292346  1
  Ce  Ce3  1  0.62320714  0.07719814  0.08517339  1
  Ce  Ce4  1  0.12401089  0.57732333  0.41444785  1
  Ce  Ce5  1  0.91358957  0.31928917  0.39876120  1
  Ce  Ce6  1  0.58584838  0.31979574  0.89869097  1
  Ce  Ce7  1  0.08582582  0.81982614  0.60130042  1
  Ce  Ce8  1  0.87633605  0.07724146  0.58560859  1
  Ce  Ce9  1  0.39550878  0.05658187  0.91228034  1
  Ce  Ce10  1  0.37703030  0.57752612  0.91495278  1
  Ce  Ce11  1  0.89557195  0.55673999  0.58758487  1
  Ce  Ce12  1  0.10428206  0.05672355  0.41226958  1
  Ce  Ce13  1  0.60484417  0.55687252  0.08785624  1
  Ce  Ce14  1  0.62097136  0.81326652  0.91267084  1
  Ce  Ce15  1  0.41435365  0.81970908  0.10141279  1
  I  I0  1  0.09975762  0.82975590  0.26482780  1
  I  I1  1  0.31605043  0.29844958  0.79868484  1
  I  I2  1  0.31189149  0.78890348  0.47073707  1
  I  I3  1  0.86995160  0.08732697  0.27519986  1
  I  I4  1  0.34893707  0.45801294  0.51808041  1
  I  I5  1  0.31766128  0.11018159  0.55188002  1
  I  I6  1  0.59937313  0.32968032  0.23503265  1
  I  I7  1  0.81556610  0.79853811  0.70117015  1
  I  I8  1  0.57381803  0.53691044  0.75053051  1
  I  I9  1  0.18863126  0.78864894  0.97111434  1
  I  I10  1  0.18168618  0.11048303  0.05217976  1
  I  I11  1  0.12985991  0.58765233  0.72459973  1
  I  I12  1  0.81834495  0.61047723  0.94774395  1
  I  I13  1  0.15146577  0.45807876  0.01831140  1
  I  I14  1  0.40071445  0.82969137  0.76504684  1
  I  I15  1  0.18438627  0.29831410  0.29875640  1
  I  I16  1  0.36934856  0.58725819  0.22509148  1
  I  I17  1  0.63073722  0.08733926  0.77489682  1
  I  I18  1  0.84861110  0.95808915  0.98163525  1
  I  I19  1  0.92678870  0.53663274  0.25078769  1
  I  I20  1  0.68229255  0.61041025  0.44816656  1
  I  I21  1  0.65092490  0.95825726  0.48206095  1
  I  I22  1  0.68805141  0.28863720  0.52938766  1
  I  I23  1  0.42616292  0.03669577  0.24932728  1
  I  I24  1  0.68395946  0.79839345  0.20138095  1
  I  I25  1  0.90003776  0.32975482  0.73513910  1
  I  I26  1  0.81154187  0.28878151  0.02898983  1
  I  I27  1  0.07323004  0.03682732  0.74928125  1
  N  N0  1  0.00342106  0.19126375  0.49711803  1
  N  N1  1  0.98708934  0.94251149  0.50353307  1
  N  N2  1  0.99647469  0.69132807  0.50260628  1
  N  N3  1  0.51277090  0.94225363  0.00324945  1
  N  N4  1  0.48754107  0.44255184  0.99680051  1
  N  N5  1  0.49630903  0.19127873  0.99703738  1
  N  N6  1  0.01266184  0.44234254  0.49625220  1
  N  N7  1  0.50402359  0.69145861  0.00306025  1
loop_
_geom_bond_atom_site_label_1
_geom_bond_atom_site_label_2
_geom_bond_distance
_geom_bond_site_symmetry_2
Ce0 N0 2.345079 1_555
Ce0 N6 2.352759 1_555
Ce0 I4 3.235883 1_555
Ce0 I25 3.252813 1_455
Ce0 I5 3.311597 1_555
Ce0 I1 3.747027 1_555
Ce0 I11 3.822769 1_555
Ce1 N5 2.342955 1_554
Ce1 N4 2.346632 1_554
Ce1 I13 3.234188 1_555
Ce1 I6 3.257555 1_555
Ce1 I10 3.315056 1_555
Ce1 I15 3.732651 1_555
Ce1 I16 3.819813 1_555
Ce2 N1 2.348501 1_555
Ce2 N2 2.348745 1_555
Ce2 I21 3.231599 1_555
Ce2 I0 3.255690 1_655
Ce2 I20 3.310615 1_555
Ce2 I24 3.744184 1_555
Ce2 I3 3.815035 1_565
Ce3 N5 2.338866 1_554
Ce3 N3 2.345447 1_545
Ce3 I18 3.247922 1_544
Ce3 I23 3.253917 1_555
Ce3 I26 3.381695 1_555
Ce3 I6 3.707812 1_555
Ce3 I24 3.781078 1_545
Ce3 I3 3.884056 1_555
Ce4 N2 2.338352 1_455
Ce4 N6 2.346318 1_555
Ce4 I4 3.252294 1_555
Ce4 I19 3.260245 1_455
Ce4 I2 3.382061 1_555
Ce4 I0 3.706223 1_555
Ce4 I15 3.777752 1_555
Ce4 I16 3.854280 1_555
Ce5 N0 2.309812 1_655
Ce5 N6 2.311182 1_655
Ce5 I22 3.157000 1_555
Ce5 I3 3.321430 1_555
Ce5 I19 3.351653 1_555
Ce5 I15 3.355035 1_655
Ce6 N4 2.306435 1_555
Ce6 N5 2.308194 1_555
Ce6 I26 3.165305 1_556
Ce6 I17 3.328762 1_555
Ce6 I8 3.351277 1_555
Ce6 I1 3.353078 1_555
Ce7 N1 2.309074 1_455
Ce7 N2 2.314115 1_455
Ce7 I2 3.161714 1_555
Ce7 I11 3.322010 1_555
Ce7 I27 3.348717 1_565
Ce7 I7 3.348967 1_455
Ce8 N0 2.337470 1_655
Ce8 N1 2.343225 1_545
Ce8 I21 3.253946 1_545
Ce8 I27 3.257447 1_655
Ce8 I22 3.383493 1_555
Ce8 I25 3.706129 1_555
Ce8 I7 3.773921 1_545
Ce8 I17 3.855782 1_555
Ce9 N3 2.299542 1_546
Ce9 N5 2.309498 1_555
Ce9 I10 3.181045 1_556
Ce9 I17 3.300720 1_555
Ce9 I1 3.430461 1_555
Ce9 I14 3.431841 1_545
Ce10 N7 2.338103 1_556
Ce10 N4 2.345737 1_555
Ce10 I13 3.249310 1_556
Ce10 I8 3.255174 1_555
Ce10 I9 3.378752 1_555
Ce10 I14 3.704514 1_555
Ce10 I1 3.784874 1_555
Ce10 I11 3.890753 1_555
Ce11 N6 2.297549 1_655
Ce11 N2 2.307014 1_555
Ce11 I20 3.180635 1_555
Ce11 I11 3.298980 1_655
Ce11 I7 3.429035 1_555
Ce11 I25 3.435236 1_555
Ce12 N1 2.295829 1_445
Ce12 N0 2.305927 1_555
Ce12 I5 3.182602 1_555
Ce12 I3 3.299485 1_455
Ce12 I15 3.426121 1_555
Ce12 I0 3.434467 1_545
Ce13 N4 2.300323 1_554
Ce13 N7 2.309104 1_555
Ce13 I12 3.179263 1_554
Ce13 I16 3.301514 1_555
Ce13 I24 3.425524 1_555
Ce13 I6 3.433810 1_555
Ce14 N7 2.342238 1_556
Ce14 N3 2.346533 1_556
Ce14 I18 3.232760 1_555
Ce14 I14 3.257213 1_555
Ce14 I12 3.313504 1_555
Ce14 I7 3.729696 1_555
Ce14 I17 3.819747 1_565
Ce15 N3 2.305394 1_555
Ce15 N7 2.307260 1_555
Ce15 I9 3.165556 1_554
Ce15 I16 3.327501 1_555
Ce15 I23 3.348106 1_565
Ce15 I24 3.350949 1_555
I0 Na1 3.108629 1_455
I1 Na0 3.423687 1_555
I2 Na2 3.199769 1_555
I4 Na3 3.172485 1_555
I5 Na3 3.061268 1_555
I6 Na3 3.099669 1_555
I7 Na2 3.431465 1_555
I8 Na2 3.406847 1_555
I9 Na1 3.198200 1_456
I10 Na0 3.065469 1_554
I12 Na1 3.065703 1_556
I13 Na0 3.179809 1_554
I14 Na2 3.099248 1_555
I15 Na3 3.430417 1_555
I18 Na1 3.179831 1_556
I19 Na1 3.407689 1_555
I20 Na2 3.060863 1_555
I21 Na2 3.173220 1_555
I22 Na3 3.201281 1_555
I23 Na3 3.410231 1_555
I24 Na1 3.423165 1_555
I25 Na0 3.109922 1_655
I26 Na0 3.196887 1_654
I27 Na0 3.406085 1_555
