# generated using pymatgen
data_KCoPH2O5
_symmetry_space_group_name_H-M   'P 1'
_cell_length_a   5.64955501
_cell_length_b   9.72042796
_cell_length_c   9.65186881
_cell_angle_alpha   120.20393816
_cell_angle_beta   89.99929390
_cell_angle_gamma   90.00647163
_symmetry_Int_Tables_number   1
_chemical_formula_structural   KCoPH2O5
_chemical_formula_sum   'K4 Co4 P4 H8 O20'
_cell_volume   458.08440936
_cell_formula_units_Z   4
loop_
 _symmetry_equiv_pos_site_id
 _symmetry_equiv_pos_as_xyz
  1  'x, y, z'
loop_
 _atom_site_type_symbol
 _atom_site_label
 _atom_site_symmetry_multiplicity
 _atom_site_fract_x
 _atom_site_fract_y
 _atom_site_fract_z
 _atom_site_occupancy
  K  K0  1  0.50000100  0.33383600  0.87093000  1
  K  K1  1  0.50000300  0.83497700  0.37157600  1
  K  K2  1  0.00000000  0.61891100  0.08295500  1
  K  K3  1  0.99999700  0.12055100  0.58504700  1
  Co  Co0  1  0.49999500  0.55260200  0.53281800  1
  Co  Co1  1  0.99999300  0.28483500  0.30213900  1
  Co  Co2  1  0.49993600  0.05162800  0.03451700  1
  Co  Co3  1  0.00001900  0.78399800  0.80497000  1
  P  P0  1  0.50004500  0.72337200  0.93190800  1
  P  P1  1  0.49999800  0.22361700  0.43301800  1
  P  P2  1  0.99997400  0.18499400  0.97365500  1
  P  P3  1  0.00000100  0.68348300  0.47511200  1
  H  H0  1  0.63940600  0.42757500  0.23376900  1
  H  H1  1  0.63970200  0.92977700  0.73558700  1
  H  H2  1  0.36058700  0.42757100  0.23376800  1
  H  H3  1  0.36028500  0.92977900  0.73557600  1
  H  H4  1  0.86108600  0.48322300  0.67872400  1
  H  H5  1  0.86031200  0.98514500  0.17905000  1
  H  H6  1  0.13891300  0.48322500  0.67872600  1
  H  H7  1  0.13967200  0.98515600  0.17906500  1
  O  O0  1  0.49999500  0.58191900  0.75931200  1
  O  O1  1  0.50001000  0.08127700  0.25887300  1
  O  O2  1  0.99999500  0.51087300  0.33424000  1
  O  O3  1  0.99998700  0.01292700  0.83189000  1
  O  O4  1  0.49998500  0.66443000  0.05209000  1
  O  O5  1  0.49998600  0.16114900  0.55055900  1
  O  O6  1  0.00001500  0.30308500  0.91220000  1
  O  O7  1  0.00001600  0.80025300  0.41227900  1
  O  O8  1  0.50000500  0.49606300  0.28604000  1
  O  O9  1  0.50000400  0.99849700  0.78582100  1
  O  O10  1  0.00000600  0.53292600  0.74850800  1
  O  O11  1  0.99999400  0.03673500  0.24718300  1
  O  O12  1  0.71967700  0.83731300  0.96055300  1
  O  O13  1  0.72034700  0.33630800  0.46331700  1
  O  O14  1  0.28048300  0.83735700  0.96054200  1
  O  O15  1  0.27966900  0.33629800  0.46331700  1
  O  O16  1  0.77909800  0.21619500  0.08824500  1
  O  O17  1  0.78043000  0.71403700  0.58997900  1
  O  O18  1  0.22080000  0.21618100  0.08827700  1
  O  O19  1  0.21957100  0.71404000  0.58998400  1
loop_
_geom_bond_atom_site_label_1
_geom_bond_atom_site_label_2
_geom_bond_distance
_geom_bond_site_symmetry_2
K0 O5 2.675214 1_555
K0 O4 2.780379 1_556
K0 O6 2.889035 1_555
K0 O6 2.889265 1_655
K0 O9 2.933579 1_545
K0 O0 3.096734 1_555
K0 O16 3.256860 1_556
K0 O18 3.257339 1_556
K1 O4 2.667129 1_555
K1 O5 2.743302 1_565
K1 O7 2.894891 1_555
K1 O7 2.895119 1_655
K1 O8 2.966150 1_555
K1 O1 3.087974 1_565
K1 O19 3.290706 1_555
K1 O17 3.290825 1_555
K2 O6 2.655211 1_554
K2 O7 2.751937 1_555
K2 O4 2.897539 1_555
K2 O4 2.897809 1_455
K2 O10 2.898994 1_554
K3 O7 2.692658 1_645
K3 O6 2.735273 1_655
K3 O5 2.894383 1_655
K3 O5 2.894599 1_555
K3 O11 2.936805 1_555
K3 O3 3.046067 1_555
K3 O15 3.279228 1_655
K3 O13 3.279490 1_555
Co0 O0 2.057519 1_555
Co0 O17 2.098884 1_555
Co0 O19 2.099107 1_555
Co0 O8 2.158297 1_555
Co0 O15 2.236175 1_555
Co0 O13 2.236435 1_555
Co1 O2 2.058802 1_555
Co1 O13 2.093660 1_555
Co1 O15 2.093745 1_655
Co1 O11 2.193234 1_555
Co1 O18 2.208263 1_655
Co1 O16 2.208752 1_555
Co2 O1 2.035761 1_555
Co2 O16 2.116603 1_555
Co2 O18 2.116625 1_555
Co2 O9 2.186602 1_544
Co2 O14 2.210920 1_544
Co2 O12 2.212436 1_544
Co3 O12 2.061342 1_455
Co3 O14 2.061697 1_555
Co3 O3 2.106576 1_465
Co3 O19 2.210662 1_555
Co3 O17 2.210754 1_455
Co3 O10 2.216973 1_555
H0 O8 0.990022 1_555
H1 O9 0.989149 1_555
H2 O8 0.990006 1_555
H3 O9 0.989140 1_555
H4 O10 0.987705 1_655
H5 O11 0.987315 1_565
H6 O10 0.987709 1_555
H7 O11 0.987296 1_465
O0 P0 1.536574 1_555
O1 P1 1.549069 1_555
O2 P3 1.538995 1_655
O3 P2 1.538522 1_555
O4 P0 1.530527 1_554
O5 P1 1.532613 1_555
O6 P2 1.534461 1_455
O7 P3 1.532559 1_555
O12 P0 1.591967 1_555
O13 P1 1.585096 1_555
O14 P0 1.592127 1_555
O15 P1 1.585138 1_555
O16 P2 1.592142 1_554
O17 P3 1.588998 1_655
O18 P2 1.592095 1_454
O19 P3 1.588987 1_555
