# generated using pymatgen
data_NdTh9O20
_symmetry_space_group_name_H-M   'P 1'
_cell_length_a   6.86169773
_cell_length_b   7.91996146
_cell_length_c   8.86124726
_cell_angle_alpha   102.93349197
_cell_angle_beta   97.41586658
_cell_angle_gamma   106.79143719
_symmetry_Int_Tables_number   1
_chemical_formula_structural   NdTh9O20
_chemical_formula_sum   'Nd1 Th9 O20'
_cell_volume   439.53907003
_cell_formula_units_Z   1
loop_
 _symmetry_equiv_pos_site_id
 _symmetry_equiv_pos_as_xyz
  1  'x, y, z'
loop_
 _atom_site_type_symbol
 _atom_site_label
 _atom_site_symmetry_multiplicity
 _atom_site_fract_x
 _atom_site_fract_y
 _atom_site_fract_z
 _atom_site_occupancy
  Nd  Nd0  1  -0.00000000  0.50000000  0.00000000  1
  Th  Th0  1  0.79993043  0.59978167  0.60160162  1
  Th  Th1  1  0.60236455  0.20122625  0.19938787  1
  Th  Th2  1  0.80061879  0.10116366  0.60156310  1
  Th  Th3  1  0.39763545  0.79877375  0.80061213  1
  Th  Th4  1  0.59981105  0.69887189  0.19876360  1
  Th  Th5  1  0.20006957  0.40021833  0.39839838  1
  Th  Th6  1  0.40018895  0.30112811  0.80123640  1
  Th  Th7  1  -0.00000000  -0.00000000  0.00000000  1
  Th  Th8  1  0.19938121  0.89883634  0.39843690  1
  O  O0  1  0.64892289  0.92507293  0.04940207  1
  O  O1  1  0.44896350  0.52518957  0.64914597  1
  O  O2  1  0.64456292  0.42332109  0.05134201  1
  O  O3  1  0.74511487  0.37264369  0.74552378  1
  O  O4  1  0.25254388  0.12541000  0.24986460  1
  O  O5  1  0.44895632  0.02385117  0.64984631  1
  O  O6  1  0.05036507  0.72908624  0.84729800  1
  O  O7  1  0.55104368  0.97614883  0.35015369  1
  O  O8  1  0.74745612  0.87459000  0.75013540  1
  O  O9  1  0.25488513  0.62735631  0.25447622  1
  O  O10  1  0.35543708  0.57667891  0.94865799  1
  O  O11  1  0.85135934  0.32584283  0.45073554  1
  O  O12  1  0.05096548  0.21962241  0.84701665  1
  O  O13  1  0.55103650  0.47481043  0.35085403  1
  O  O14  1  0.14982374  0.17510167  0.54869656  1
  O  O15  1  0.35107711  0.07492707  0.95059793  1
  O  O16  1  0.85017626  0.82489833  0.45130344  1
  O  O17  1  0.94903452  0.78037759  0.15298335  1
  O  O18  1  0.14864066  0.67415717  0.54926446  1
  O  O19  1  0.94963493  0.27091376  0.15270200  1
loop_
_geom_bond_atom_site_label_1
_geom_bond_atom_site_label_2
_geom_bond_distance
_geom_bond_site_symmetry_2
Nd0 O2 2.465436 1_455
Nd0 O10 2.465436 1_554
Nd0 O6 2.469755 1_554
Nd0 O19 2.469755 1_455
Nd0 O3 2.470961 1_454
Nd0 O9 2.470961 1_555
Nd0 O17 2.472757 1_455
Nd0 O12 2.472757 1_554
O0 Th1 2.421585 1_565
O0 Th3 2.422586 1_554
O0 Th4 2.429506 1_555
O0 Th7 2.430957 1_665
O1 Th0 2.424332 1_555
O1 Th3 2.425186 1_555
O1 Th5 2.427483 1_555
O1 Th6 2.433362 1_555
O2 Th1 2.394912 1_555
O2 Th4 2.403757 1_555
O2 Th6 2.408949 1_554
O3 Th0 2.400820 1_555
O3 Th2 2.401271 1_555
O3 Th6 2.412141 1_555
O4 Th1 2.426310 1_555
O4 Th8 2.426870 1_545
O4 Th5 2.427308 1_555
O4 Th7 2.433595 1_555
O5 Th2 2.431185 1_555
O5 Th3 2.431321 1_545
O5 Th8 2.433970 1_545
O5 Th6 2.440461 1_555
O6 Th3 2.398044 1_555
O6 Th0 2.400242 1_455
O6 Th7 2.409068 1_566
O7 Th8 2.431185 1_555
O7 Th1 2.431321 1_565
O7 Th2 2.433970 1_565
O7 Th4 2.440461 1_555
O8 Th3 2.426310 1_555
O8 Th2 2.426870 1_565
O8 Th0 2.427308 1_555
O8 Th7 2.433595 1_666
O9 Th5 2.400820 1_555
O9 Th8 2.401271 1_555
O9 Th4 2.412141 1_555
O10 Th3 2.394912 1_555
O10 Th6 2.403757 1_555
O10 Th4 2.408949 1_556
O11 Th5 2.425219 1_655
O11 Th0 2.425824 1_555
O11 Th2 2.429140 1_555
O11 Th1 2.431712 1_555
O12 Th2 2.398477 1_455
O12 Th6 2.407859 1_555
O12 Th7 2.410804 1_556
O13 Th5 2.424332 1_555
O13 Th1 2.425186 1_555
O13 Th0 2.427483 1_555
O13 Th4 2.433362 1_555
O14 Th5 2.428525 1_555
O14 Th2 2.430166 1_455
O14 Th8 2.432803 1_545
O14 Th6 2.443847 1_555
O15 Th3 2.421585 1_545
O15 Th1 2.422586 1_556
O15 Th6 2.429506 1_555
O15 Th7 2.430957 1_556
O16 Th0 2.428525 1_555
O16 Th8 2.430166 1_655
O16 Th2 2.432803 1_565
O16 Th4 2.443847 1_555
O17 Th8 2.398477 1_655
O17 Th4 2.407859 1_555
O17 Th7 2.410804 1_665
O18 Th0 2.425219 1_455
O18 Th5 2.425824 1_555
O18 Th8 2.429140 1_555
O18 Th3 2.431712 1_555
O19 Th1 2.398044 1_555
O19 Th5 2.400242 1_655
O19 Th7 2.409068 1_655
