# generated using pymatgen
data_Pr4Ag2Se7
_symmetry_space_group_name_H-M   'P 1'
_cell_length_a   12.38878500
_cell_length_b   7.56419600
_cell_length_c   7.88456151
_cell_angle_alpha   71.09593525
_cell_angle_beta   90.00000000
_cell_angle_gamma   90.00000000
_symmetry_Int_Tables_number   1
_chemical_formula_structural   Pr4Ag2Se7
_chemical_formula_sum   'Pr8 Ag4 Se14'
_cell_volume   699.01872056
_cell_formula_units_Z   2
loop_
 _symmetry_equiv_pos_site_id
 _symmetry_equiv_pos_as_xyz
  1  'x, y, z'
loop_
 _atom_site_type_symbol
 _atom_site_label
 _atom_site_symmetry_multiplicity
 _atom_site_fract_x
 _atom_site_fract_y
 _atom_site_fract_z
 _atom_site_occupancy
  Pr  Pr0  1  0.20447600  0.17605300  0.20133600  1
  Pr  Pr1  1  0.93781200  0.55692400  0.05334000  1
  Pr  Pr2  1  0.06218800  0.55692400  0.55334000  1
  Pr  Pr3  1  0.79552400  0.17605300  0.70133600  1
  Pr  Pr4  1  0.85125800  0.98626300  0.26038800  1
  Pr  Pr5  1  0.14874200  0.98626300  0.76038800  1
  Pr  Pr6  1  0.37226500  0.48351100  0.75176200  1
  Pr  Pr7  1  0.62773500  0.48351100  0.25176200  1
  Ag  Ag0  1  0.68485400  0.69021300  0.68096000  1
  Ag  Ag1  1  0.44207700  0.09303800  0.55139000  1
  Ag  Ag2  1  0.55792300  0.09303800  0.05139000  1
  Ag  Ag3  1  0.31514600  0.69021300  0.18096000  1
  Se  Se0  1  0.00402300  0.23848300  0.38745100  1
  Se  Se1  1  0.16922200  0.56440100  0.91767000  1
  Se  Se2  1  0.93203800  0.82937200  0.68063200  1
  Se  Se3  1  0.83077800  0.56440100  0.41767000  1
  Se  Se4  1  0.71006900  0.84943300  0.00296100  1
  Se  Se5  1  0.06796200  0.82937200  0.18063200  1
  Se  Se6  1  0.65105200  0.04276100  0.45274500  1
  Se  Se7  1  0.42214400  0.39787500  0.13606200  1
  Se  Se8  1  0.34894800  0.04276100  0.95274500  1
  Se  Se9  1  0.25280400  0.34167500  0.50730400  1
  Se  Se10  1  0.99597700  0.23848300  0.88745100  1
  Se  Se11  1  0.57785600  0.39787500  0.63606200  1
  Se  Se12  1  0.74719600  0.34167500  0.00730400  1
  Se  Se13  1  0.28993100  0.84943300  0.50296100  1
loop_
_geom_bond_atom_site_label_1
_geom_bond_atom_site_label_2
_geom_bond_distance
_geom_bond_site_symmetry_2
Pr0 Se0 2.998752 1_555
Pr0 Se13 3.012194 1_545
Pr0 Se8 3.056517 1_554
Pr0 Se1 3.092735 1_554
Pr0 Se9 3.115462 1_555
Pr0 Se7 3.129307 1_555
Pr0 Se5 3.168773 1_545
Pr0 Se10 3.501817 1_454
Pr1 Se12 2.956749 1_555
Pr1 Se2 2.993937 1_554
Pr1 Se5 3.032238 1_655
Pr1 Se0 3.050070 1_655
Pr1 Se1 3.054063 1_654
Pr1 Se10 3.173887 1_554
Pr1 Se3 3.180964 1_555
Pr1 Se4 3.527677 1_555
Pr2 Se9 2.956749 1_555
Pr2 Se5 2.993937 1_555
Pr2 Se2 3.032238 1_455
Pr2 Se10 3.050070 1_455
Pr2 Se3 3.054063 1_455
Pr2 Se0 3.173887 1_555
Pr2 Se1 3.180964 1_555
Pr2 Se13 3.527677 1_555
Pr3 Se10 2.998752 1_555
Pr3 Se4 3.012194 1_546
Pr3 Se6 3.056517 1_555
Pr3 Se3 3.092735 1_555
Pr3 Se12 3.115462 1_556
Pr3 Se11 3.129307 1_555
Pr3 Se2 3.168773 1_545
Pr3 Se0 3.501817 1_655
Pr4 Se6 3.009117 1_565
Pr4 Se3 3.036585 1_555
Pr4 Se12 3.065179 1_565
Pr4 Se0 3.076338 1_665
Pr4 Se5 3.081396 1_655
Pr4 Se4 3.100276 1_555
Pr4 Se2 3.292542 1_555
Pr4 Se10 3.444633 1_564
Pr5 Se8 3.009117 1_565
Pr5 Se1 3.036585 1_555
Pr5 Se9 3.065179 1_565
Pr5 Se10 3.076338 1_465
Pr5 Se2 3.081396 1_455
Pr5 Se13 3.100276 1_555
Pr5 Se5 3.292542 1_556
Pr5 Se0 3.444633 1_565
Pr6 Se11 2.849915 1_555
Pr6 Se9 2.897650 1_555
Pr6 Se7 2.951401 1_556
Pr6 Se1 2.988593 1_555
Pr6 Se13 3.005268 1_555
Pr6 Se8 3.207228 1_555
Pr7 Se7 2.849915 1_555
Pr7 Se12 2.897650 1_555
Pr7 Se11 2.951401 1_555
Pr7 Se3 2.988593 1_555
Pr7 Se4 3.005268 1_555
Pr7 Se6 3.207228 1_555
Ag0 Se11 2.698065 1_555
Ag0 Se6 2.723118 1_565
Ag0 Se3 3.124656 1_555
Ag0 Se12 3.126065 1_556
Ag0 Se4 3.158335 1_556
Ag0 Se2 3.237901 1_555
Ag1 Se13 2.747733 1_545
Ag1 Se6 2.764755 1_555
Ag1 Se9 2.955128 1_555
Ag1 Se11 3.096721 1_555
Ag1 Se8 3.272626 1_555
Ag1 Se7 3.347937 1_555
Ag2 Se4 2.747733 1_545
Ag2 Se8 2.764755 1_554
Ag2 Se12 2.955128 1_555
Ag2 Se7 3.096721 1_555
Ag2 Se6 3.272626 1_555
Ag2 Se11 3.347937 1_554
Ag3 Se7 2.698065 1_555
Ag3 Se8 2.723118 1_564
Ag3 Se1 3.124656 1_554
Ag3 Se9 3.126065 1_555
Ag3 Se13 3.158335 1_555
Ag3 Se5 3.237901 1_555
