# generated using pymatgen
data_Li4Mn13O24
_symmetry_space_group_name_H-M   'P 1'
_cell_length_a   6.03020000
_cell_length_b   8.34405788
_cell_length_c   10.29110657
_cell_angle_alpha   113.56745985
_cell_angle_beta   105.44286358
_cell_angle_gamma   90.47345449
_symmetry_Int_Tables_number   1
_chemical_formula_structural   Li4Mn13O24
_chemical_formula_sum   'Li4 Mn13 O24'
_cell_volume   453.61105359
_cell_formula_units_Z   1
loop_
 _symmetry_equiv_pos_site_id
 _symmetry_equiv_pos_as_xyz
  1  'x, y, z'
loop_
 _atom_site_type_symbol
 _atom_site_label
 _atom_site_symmetry_multiplicity
 _atom_site_fract_x
 _atom_site_fract_y
 _atom_site_fract_z
 _atom_site_occupancy
  Li  Li0  1  0.07545200  0.20739800  0.66330100  1
  Li  Li1  1  0.41629900  0.54365300  0.33572900  1
  Li  Li2  1  0.59040800  0.45687900  0.66771400  1
  Li  Li3  1  0.91801700  0.78733300  0.33047900  1
  Mn  Mn0  1  0.16755500  0.66126900  0.83419600  1
  Mn  Mn1  1  0.00174900  0.49929600  0.00035500  1
  Mn  Mn2  1  0.82707500  0.83110100  0.65983400  1
  Mn  Mn3  1  0.48720300  0.99061900  0.48908300  1
  Mn  Mn4  1  0.66525600  0.16577300  0.82373100  1
  Mn  Mn5  1  0.50116000  0.49846100  0.99827600  1
  Mn  Mn6  1  0.33058500  0.83222700  0.65852900  1
  Mn  Mn7  1  0.84467700  0.34369700  0.17645000  1
  Mn  Mn8  1  0.00765400  0.50124500  0.50739600  1
  Mn  Mn9  1  0.67431300  0.17118400  0.33942700  1
  Mn  Mn10  1  0.32986400  0.82586600  0.16443600  1
  Mn  Mn11  1  0.16961900  0.17379500  0.34058800  1
  Mn  Mn12  1  0.25468300  0.12058800  0.99968900  1
  O  O0  1  0.45959700  0.72757500  0.99685100  1
  O  O1  1  0.15914800  0.43559300  0.84800200  1
  O  O2  1  0.03683600  0.73281400  0.00086000  1
  O  O3  1  0.78806200  0.06409100  0.64745700  1
  O  O4  1  0.64013800  0.91928700  0.79716900  1
  O  O5  1  0.48198300  0.76978700  0.50430300  1
  O  O6  1  0.69723200  0.41197500  0.85056700  1
  O  O7  1  0.33555000  0.05734700  0.64421600  1
  O  O8  1  0.30568000  0.59688600  0.66905300  1
  O  O9  1  0.16187500  0.41824200  0.35700900  1
  O  O10  1  0.17916900  0.89103200  0.81801900  1
  O  O11  1  0.99814300  0.27287800  0.50122900  1
  O  O12  1  0.85666700  0.12425100  0.20262700  1
  O  O13  1  0.01582300  0.74560700  0.52194700  1
  O  O14  1  0.87183100  0.59912000  0.67366800  1
  O  O15  1  0.71209400  0.42432000  0.35136100  1
  O  O16  1  0.62411100  0.91494100  0.32566400  1
  O  O17  1  0.30728400  0.58305200  0.14765600  1
  O  O18  1  0.48766800  0.22049800  0.47713900  1
  O  O19  1  0.34090800  0.06512500  0.17573400  1
  O  O20  1  0.19579200  0.92408400  0.32931400  1
  O  O21  1  0.99038200  0.26821900  0.00639900  1
  O  O22  1  0.84083800  0.56151100  0.15031200  1
  O  O23  1  0.52067300  0.26241800  0.99131100  1
loop_
_geom_bond_atom_site_label_1
_geom_bond_atom_site_label_2
_geom_bond_distance
_geom_bond_site_symmetry_2
Li0 O11 1.901731 1_455
Li0 O7 2.016444 1_555
Li0 O1 2.017985 1_555
Li0 O3 2.029568 1_455
Li1 O5 1.931552 1_555
Li1 O9 1.957676 1_555
Li1 O17 2.030047 1_555
Li1 O15 2.050260 1_555
Li2 O6 2.004647 1_555
Li2 O14 2.036056 1_555
Li2 O8 2.084657 1_555
Li2 O18 2.088046 1_555
Li3 O22 1.984203 1_555
Li3 O20 2.024342 1_655
Li3 O13 2.069951 1_655
Li3 O16 2.074581 1_555
Mn0 O1 1.945469 1_555
Mn0 O2 1.956658 1_556
Mn0 O0 1.970495 1_555
Mn0 O8 1.975308 1_555
Mn0 O14 1.977090 1_455
Mn0 O10 1.991813 1_555
Mn1 O22 1.938485 1_455
Mn1 O1 1.943218 1_554
Mn1 O21 1.955045 1_455
Mn1 O17 1.955782 1_555
Mn1 O2 1.955991 1_555
Mn1 O6 1.962482 1_454
Mn2 O4 1.959651 1_555
Mn2 O13 1.970286 1_655
Mn2 O3 2.010134 1_565
Mn2 O14 2.012072 1_555
Mn2 O5 2.169755 1_555
Mn2 O10 2.213341 1_655
Mn3 O5 1.911357 1_555
Mn3 O7 1.941705 1_565
Mn3 O16 1.951276 1_555
Mn3 O20 1.953158 1_555
Mn3 O18 1.970519 1_565
Mn3 O3 1.982822 1_565
Mn4 O6 1.960895 1_555
Mn4 O4 1.962367 1_545
Mn4 O3 2.013479 1_555
Mn4 O23 2.021114 1_555
Mn4 O21 2.198397 1_556
Mn4 O7 2.204996 1_555
Mn5 O0 1.935501 1_555
Mn5 O23 1.947708 1_555
Mn5 O6 2.079293 1_555
Mn5 O17 2.081192 1_556
Mn5 O22 2.130177 1_556
Mn5 O1 2.134274 1_555
Mn6 O5 1.934502 1_555
Mn6 O7 1.942603 1_565
Mn6 O4 1.943769 1_555
Mn6 O13 1.960840 1_555
Mn6 O10 1.982403 1_555
Mn6 O8 2.015999 1_555
Mn7 O22 1.940190 1_555
Mn7 O12 1.953684 1_555
Mn7 O15 2.034414 1_555
Mn7 O21 2.043978 1_555
Mn7 O9 2.159073 1_655
Mn7 O23 2.206758 1_554
Mn8 O11 1.880911 1_455
Mn8 O9 1.913052 1_555
Mn8 O15 1.949306 1_455
Mn8 O14 1.976279 1_455
Mn8 O13 1.983055 1_555
Mn8 O8 1.989147 1_555
Mn9 O12 1.932668 1_555
Mn9 O18 1.958407 1_555
Mn9 O15 2.073164 1_555
Mn9 O16 2.099407 1_545
Mn9 O11 2.101675 1_555
Mn9 O19 2.153572 1_555
Mn10 O19 1.952331 1_565
Mn10 O20 1.958027 1_555
Mn10 O17 1.963772 1_555
Mn10 O0 1.963945 1_554
Mn10 O16 1.969260 1_555
Mn10 O2 1.976612 1_555
Mn11 O12 1.959312 1_455
Mn11 O18 1.979743 1_555
Mn11 O9 1.980197 1_555
Mn11 O20 2.049792 1_545
Mn11 O11 2.077808 1_455
Mn11 O19 2.117988 1_555
Mn12 O19 1.984827 1_556
Mn12 O10 2.010013 1_545
Mn12 O21 2.021237 1_456
Mn12 O23 2.025971 1_555
