# generated using pymatgen
data_Zr(MoO4)2
_symmetry_space_group_name_H-M   'P 1'
_cell_length_a   5.90349325
_cell_length_b   7.31610021
_cell_length_c   9.18448894
_cell_angle_alpha   90.00000000
_cell_angle_beta   90.00000000
_cell_angle_gamma   90.00000000
_symmetry_Int_Tables_number   1
_chemical_formula_structural   Zr(MoO4)2
_chemical_formula_sum   'Zr2 Mo4 O16'
_cell_volume   396.68311231
_cell_formula_units_Z   2
loop_
 _symmetry_equiv_pos_site_id
 _symmetry_equiv_pos_as_xyz
  1  'x, y, z'
loop_
 _atom_site_type_symbol
 _atom_site_label
 _atom_site_symmetry_multiplicity
 _atom_site_fract_x
 _atom_site_fract_y
 _atom_site_fract_z
 _atom_site_occupancy
  Zr  Zr0  1  0.00000000  0.73799597  0.00011217  1
  Zr  Zr1  1  0.50000000  0.26200403  0.50011217  1
  Mo  Mo0  1  0.00000000  0.58025764  0.40233973  1
  Mo  Mo1  1  0.00000000  0.04445920  0.67560396  1
  Mo  Mo2  1  0.50000000  0.95554080  0.17560396  1
  Mo  Mo3  1  0.50000000  0.41974236  0.90233973  1
  O  O0  1  0.00000000  0.84685341  0.79452146  1
  O  O1  1  0.00000000  0.22166562  0.79334379  1
  O  O2  1  0.25673002  0.55228273  0.94873000  1
  O  O3  1  0.50000000  0.22083642  -0.00087187  1
  O  O4  1  0.75673002  0.44771727  0.44873000  1
  O  O5  1  0.00000000  0.77916358  0.49912813  1
  O  O6  1  0.24326998  0.44771727  0.44873000  1
  O  O7  1  0.25460617  0.08066851  0.57251120  1
  O  O8  1  0.24539383  0.91933149  0.07251120  1
  O  O9  1  0.74539383  0.08066851  0.57251120  1
  O  O10  1  0.50000000  0.77833438  0.29334379  1
  O  O11  1  0.50000000  0.15314659  0.29452146  1
  O  O12  1  0.50000000  0.37267468  0.71286636  1
  O  O13  1  0.00000000  0.62732532  0.21286636  1
  O  O14  1  0.75460617  0.91933149  0.07251120  1
  O  O15  1  0.74326998  0.55228273  0.94873000  1
loop_
_geom_bond_atom_site_label_1
_geom_bond_atom_site_label_2
_geom_bond_distance
_geom_bond_site_symmetry_2
Mo0 O5 1.705253 1_555
Mo0 O13 1.773959 1_555
Mo0 O6 1.784466 1_555
Mo0 O4 1.784466 1_455
Mo1 O1 1.688251 1_555
Mo1 O9 1.796084 1_455
Mo1 O7 1.796084 1_555
Mo1 O0 1.811892 1_545
Mo2 O10 1.688251 1_555
Mo2 O8 1.796084 1_555
Mo2 O14 1.796084 1_555
Mo2 O11 1.811892 1_565
Mo3 O3 1.705253 1_556
Mo3 O12 1.773959 1_555
Mo3 O15 1.784466 1_555
Mo3 O2 1.784466 1_555
O0 Zr0 2.049328 1_556
O2 Zr0 2.089454 1_556
O4 Zr1 2.089454 1_555
O6 Zr1 2.089454 1_555
O7 Zr1 2.073857 1_555
O8 Zr0 2.073857 1_555
O9 Zr1 2.073857 1_555
O11 Zr1 2.049328 1_555
O12 Zr1 2.115146 1_555
O13 Zr0 2.115146 1_555
O14 Zr0 2.073857 1_655
O15 Zr0 2.089454 1_656
