# generated using pymatgen
data_Na2PdO3
_symmetry_space_group_name_H-M   'P 1'
_cell_length_a   5.37280513
_cell_length_b   5.37280513
_cell_length_c   42.16745917
_cell_angle_alpha   88.88933862
_cell_angle_beta   88.88933862
_cell_angle_gamma   120.00887098
_symmetry_Int_Tables_number   1
_chemical_formula_structural   Na2PdO3
_chemical_formula_sum   'Na32 Pd16 O48'
_cell_volume   1053.28217621
_cell_formula_units_Z   16
loop_
 _symmetry_equiv_pos_site_id
 _symmetry_equiv_pos_as_xyz
  1  'x, y, z'
loop_
 _atom_site_type_symbol
 _atom_site_label
 _atom_site_symmetry_multiplicity
 _atom_site_fract_x
 _atom_site_fract_y
 _atom_site_fract_z
 _atom_site_occupancy
  Na  Na0  1  0.66503715  0.95447446  0.06223371  1
  Na  Na1  1  0.12646516  0.75198167  0.68778618  1
  Na  Na2  1  0.01345463  0.98654537  0.00000000  1
  Na  Na3  1  0.35451424  0.64548576  0.00000000  1
  Na  Na4  1  0.05544770  0.67221375  0.87522271  1
  Na  Na5  1  0.87469196  0.49977014  0.43742879  1
  Na  Na6  1  0.77866879  0.72208066  0.75039274  1
  Na  Na7  1  0.09629180  0.40437929  0.75041523  1
  Na  Na8  1  0.81302865  0.43809181  0.62517728  1
  Na  Na9  1  0.04552554  0.33496285  0.93776629  1
  Na  Na10  1  0.62424806  0.25167258  0.18711473  1
  Na  Na11  1  0.52860493  0.47139507  0.50000000  1
  Na  Na12  1  0.84635645  0.15364355  0.50000000  1
  Na  Na13  1  0.74832742  0.37575194  0.81288527  1
  Na  Na14  1  0.56190819  0.18697135  0.37482272  1
  Na  Na15  1  0.27791934  0.22133121  0.24960726  1
  Na  Na16  1  0.59562071  0.90370820  0.24958477  1
  Na  Na17  1  0.69600104  0.30399896  0.00000000  1
  Na  Na18  1  0.50022986  0.12530804  0.56257121  1
  Na  Na19  1  0.32778625  0.94455230  0.12477729  1
  Na  Na20  1  0.39629971  0.35430309  0.87539255  1
  Na  Na21  1  0.73864756  0.03710593  0.87546373  1
  Na  Na22  1  0.43809767  0.06349233  0.75028346  1
  Na  Na23  1  0.24801833  0.87353484  0.31221382  1
  Na  Na24  1  0.15381889  0.09674476  0.62520051  1
  Na  Na25  1  0.47160032  0.77894214  0.62519618  1
  Na  Na26  1  0.18748944  0.81251056  0.50000000  1
  Na  Na27  1  0.90325524  0.84618111  0.37479949  1
  Na  Na28  1  0.22105786  0.52839968  0.37480382  1
  Na  Na29  1  0.93650767  0.56190233  0.24971654  1
  Na  Na30  1  0.64569691  0.60370029  0.12460745  1
  Na  Na31  1  0.96289407  0.26135244  0.12453627  1
  Pd  Pd0  1  0.37631389  0.00032409  0.93767038  1
  Pd  Pd1  1  0.41696953  0.70945340  0.81284879  1
  Pd  Pd2  1  0.16713575  0.45830233  0.56257784  1
  Pd  Pd3  1  -0.00032409  0.62368611  0.06232962  1
  Pd  Pd4  1  0.91592251  0.20728831  0.31227365  1
  Pd  Pd5  1  0.71023240  0.66731232  0.93767510  1
  Pd  Pd6  1  0.79271169  0.08407749  0.68772635  1
  Pd  Pd7  1  0.45882495  0.41791730  0.68772505  1
  Pd  Pd8  1  0.54169767  0.83286425  0.43742216  1
  Pd  Pd9  1  0.20781862  0.16674677  0.43742580  1
  Pd  Pd10  1  0.29054660  0.58303047  0.18715121  1
  Pd  Pd11  1  0.95760711  0.91699647  0.18716402  1
  Pd  Pd12  1  0.08300353  0.04239289  0.81283598  1
  Pd  Pd13  1  0.83325323  0.79218138  0.56257420  1
  Pd  Pd14  1  0.58208270  0.54117505  0.31227495  1
  Pd  Pd15  1  0.33268768  0.28976760  0.06232490  1
  O  O0  1  0.67390850  0.96417726  0.96392438  1
  O  O1  1  0.48046563  0.74257892  0.71406922  1
  O  O2  1  0.31135059  0.96441473  0.03605497  1
  O  O3  1  0.22950037  0.49147266  0.46375764  1
  O  O4  1  0.41440460  0.70486041  0.91134971  1
  O  O5  1  0.11948201  0.74575505  0.78654500  1
  O  O6  1  0.97891774  0.24247767  0.21345423  1
  O  O7  1  0.13399230  0.39635213  0.66140369  1
  O  O8  1  0.86976742  0.49481690  0.53624337  1
  O  O9  1  0.03558527  0.68864941  0.96394503  1
  O  O10  1  0.74131042  0.73041731  0.83916816  1
  O  O11  1  0.10271657  0.36730426  0.83910323  1
  O  O12  1  0.88310354  0.14508126  0.41108867  1
  O  O13  1  0.61841258  0.24373084  0.28595777  1
  O  O14  1  0.75626916  0.38158742  0.71404223  1
  O  O15  1  0.49183929  0.47997975  0.58891380  1
  O  O16  1  0.85491874  0.11689646  0.58891133  1
  O  O17  1  0.67428469  0.60191247  0.03602241  1
  O  O18  1  0.03582274  0.32609150  0.03607562  1
  O  O19  1  0.69099909  0.34241723  0.91148356  1
  O  O20  1  0.63269574  0.89728343  0.16089677  1
  O  O21  1  0.50518310  0.13023258  0.46375663  1
  O  O22  1  0.24073978  0.22893017  0.33860126  1
  O  O23  1  0.60364787  0.86600770  0.33859631  1
  O  O24  1  0.39508678  0.38385033  0.78651186  1
  O  O25  1  0.75752233  0.02108226  0.78654577  1
  O  O26  1  0.49535658  0.12056814  0.66139191  1
  O  O27  1  0.39808753  0.32571531  0.96397759  1
  O  O28  1  0.25424495  0.88051799  0.21345500  1
  O  O29  1  0.02052263  0.94811199  0.08859779  1
  O  O30  1  0.29513959  0.58559540  0.08865029  1
  O  O31  1  0.14544223  0.13356209  0.53624323  1
  O  O32  1  0.50852734  0.77049963  0.53624236  1
  O  O33  1  0.24427959  0.86933855  0.41109318  1
  O  O34  1  0.37874237  0.00479052  0.83919333  1
  O  O35  1  0.11727950  0.10589249  0.71408552  1
  O  O36  1  0.89410751  0.88272050  0.28591448  1
  O  O37  1  0.25742108  0.51953437  0.28593078  1
  O  O38  1  0.99520948  0.62125763  0.16080667  1
  O  O39  1  0.13066145  0.75572041  0.58890682  1
  O  O40  1  0.86643791  0.85455777  0.46375677  1
  O  O41  1  0.05188801  0.97947737  0.91140221  1
  O  O42  1  0.87943186  0.50464342  0.33860809  1
  O  O43  1  0.61614967  0.60491322  0.21348814  1
  O  O44  1  0.77106983  0.75926022  0.66139874  1
  O  O45  1  0.65758277  0.30900091  0.08851644  1
  O  O46  1  0.52002025  0.50816071  0.41108620  1
  O  O47  1  0.26958269  0.25868958  0.16083184  1
loop_
_geom_bond_atom_site_label_1
_geom_bond_atom_site_label_2
_geom_bond_distance
_geom_bond_site_symmetry_2
Na0 O17 2.232806 1_555
Na0 O30 2.237681 1_555
Na0 O2 2.238990 1_555
Na0 O45 2.239325 1_565
Na0 O18 2.241125 1_665
Na0 O29 2.243019 1_655
Na1 O26 2.234215 1_565
Na1 O14 2.238781 1_455
Na1 O35 2.240857 1_565
Na1 O1 2.241434 1_555
Na1 O44 2.245230 1_455
Na1 O7 2.246796 1_555
Na2 O2 2.272663 1_555
Na2 O9 2.272663 1_554
Na2 O0 2.356277 1_454
Na2 O18 2.356277 1_565
Na2 O27 2.429570 1_564
Na2 O17 2.429570 1_455
Na3 O0 2.247104 1_554
Na3 O18 2.247104 1_555
Na3 O2 2.405470 1_555
Na3 O9 2.405470 1_554
Na3 O27 2.409054 1_554
Na3 O17 2.409054 1_555
Na4 O41 2.276239 1_555
Na4 O34 2.281682 1_565
Na4 O11 2.359214 1_555
Na4 O19 2.370696 1_455
Na4 O4 2.420096 1_555
Na4 O10 2.422157 1_455
Na5 O21 2.236574 1_555
Na5 O33 2.236981 1_655
Na5 O40 2.243386 1_555
Na5 O46 2.243479 1_555
Na5 O12 2.243555 1_555
Na5 O3 2.243603 1_655
Na6 O25 2.277832 1_565
Na6 O1 2.278211 1_555
Na6 O5 2.361333 1_655
Na6 O14 2.367771 1_555
Na6 O24 2.427809 1_555
Na6 O35 2.433753 1_665
Na7 O24 2.274094 1_555
Na7 O35 2.280538 1_555
Na7 O5 2.363845 1_555
Na7 O14 2.365801 1_455
Na7 O25 2.428294 1_455
Na7 O1 2.434943 1_555
Na8 O26 2.245200 1_555
Na8 O39 2.246862 1_655
Na8 O7 2.415216 1_655
Na8 O44 2.416448 1_555
Na8 O15 2.417509 1_555
Na8 O16 2.417606 1_555
Na9 O27 2.232806 1_555
Na9 O4 2.237681 1_555
Na9 O9 2.238990 1_555
Na9 O19 2.239325 1_455
Na9 O0 2.241125 1_445
Na9 O41 2.243019 1_545
Na10 O43 2.236785 1_555
Na10 O47 2.238959 1_555
Na10 O20 2.239610 1_545
Na10 O38 2.239698 1_555
Na10 O28 2.241748 1_545
Na10 O6 2.245287 1_555
Na11 O3 2.278584 1_555
Na11 O32 2.278584 1_555
Na11 O8 2.365740 1_555
Na11 O21 2.365740 1_555
Na11 O31 2.429229 1_555
Na11 O40 2.429229 1_555
Na12 O31 2.278543 1_655
Na12 O40 2.278543 1_545
Na12 O21 2.365803 1_555
Na12 O8 2.365803 1_555
Na12 O3 2.429154 1_655
Na12 O32 2.429154 1_545
Na13 O24 2.236785 1_555
Na13 O10 2.238959 1_555
Na13 O11 2.239610 1_655
Na13 O34 2.239698 1_555
Na13 O5 2.241748 1_655
Na13 O25 2.245287 1_555
Na14 O42 2.245200 1_555
Na14 O33 2.246862 1_545
Na14 O23 2.415216 1_545
Na14 O22 2.416448 1_555
Na14 O46 2.417509 1_555
Na14 O12 2.417606 1_555
Na15 O6 2.277832 1_455
Na15 O37 2.278211 1_555
Na15 O28 2.361333 1_545
Na15 O13 2.367771 1_555
Na15 O43 2.427809 1_555
Na15 O36 2.433753 1_445
Na16 O43 2.274094 1_555
Na16 O36 2.280538 1_555
Na16 O28 2.363845 1_555
Na16 O13 2.365801 1_565
Na16 O6 2.428294 1_565
Na16 O37 2.434943 1_555
Na17 O27 2.270926 1_554
Na17 O17 2.270926 1_555
Na17 O0 2.357884 1_544
Na17 O18 2.357884 1_655
Na17 O2 2.431126 1_545
Na17 O9 2.431126 1_654
Na18 O8 2.236574 1_555
Na18 O39 2.236981 1_545
Na18 O31 2.243386 1_555
Na18 O15 2.243479 1_555
Na18 O16 2.243555 1_555
Na18 O32 2.243603 1_545
Na19 O29 2.276239 1_555
Na19 O38 2.281682 1_455
Na19 O20 2.359214 1_555
Na19 O45 2.370696 1_565
Na19 O30 2.420096 1_555
Na19 O47 2.422157 1_565
Na20 O19 2.240085 1_555
Na20 O11 2.243702 1_555
Na20 O4 2.406042 1_555
Na20 O34 2.409309 1_555
Na20 O41 2.414632 1_545
Na20 O10 2.424171 1_555
Na21 O10 2.275584 1_545
Na21 O4 2.278976 1_545
Na21 O19 2.359005 1_555
Na21 O11 2.373081 1_655
Na21 O41 2.413866 1_645
Na21 O34 2.428501 1_555
Na22 O14 2.248040 1_555
Na22 O5 2.248771 1_545
Na22 O25 2.411387 1_555
Na22 O35 2.415394 1_555
Na22 O24 2.415752 1_555
Na22 O1 2.416156 1_545
Na23 O42 2.234215 1_455
Na23 O13 2.238781 1_565
Na23 O36 2.240857 1_455
Na23 O37 2.241434 1_555
Na23 O22 2.245230 1_565
Na23 O23 2.246796 1_555
Na24 O7 2.278939 1_555
Na24 O16 2.279274 1_455
Na24 O26 2.365130 1_555
Na24 O39 2.367038 1_545
Na24 O44 2.426485 1_445
Na24 O15 2.430818 1_555
Na25 O44 2.278071 1_555
Na25 O15 2.279507 1_555
Na25 O26 2.365728 1_565
Na25 O39 2.366456 1_555
Na25 O7 2.426532 1_555
Na25 O16 2.430868 1_565
Na26 O21 2.246422 1_565
Na26 O8 2.246422 1_455
Na26 O3 2.416596 1_555
Na26 O32 2.416596 1_555
Na26 O31 2.416762 1_565
Na26 O40 2.416762 1_455
Na27 O23 2.278939 1_555
Na27 O12 2.279274 1_565
Na27 O42 2.365130 1_555
Na27 O33 2.367038 1_655
Na27 O22 2.426485 1_665
Na27 O46 2.430818 1_555
Na28 O22 2.278071 1_555
Na28 O46 2.279507 1_555
Na28 O42 2.365728 1_455
Na28 O33 2.366456 1_555
Na28 O23 2.426532 1_555
Na28 O12 2.430868 1_455
Na29 O13 2.248040 1_555
Na29 O28 2.248771 1_655
Na29 O6 2.411387 1_555
Na29 O36 2.415394 1_555
Na29 O43 2.415752 1_555
Na29 O37 2.416156 1_655
Na30 O45 2.240085 1_555
Na30 O20 2.243702 1_555
Na30 O30 2.406042 1_555
Na30 O38 2.409309 1_555
Na30 O29 2.414632 1_655
Na30 O47 2.424171 1_555
Na31 O47 2.275584 1_655
Na31 O30 2.278976 1_655
Na31 O45 2.359005 1_555
Na31 O20 2.373081 1_545
Na31 O29 2.413866 1_645
Na31 O38 2.428501 1_555
O0 Pd5 2.044184 1_555
O0 Pd0 2.047130 1_565
O1 Pd7 2.041454 1_555
O1 Pd6 2.045645 1_565
O2 Pd3 2.041100 1_555
O2 Pd15 2.043396 1_565
O3 Pd9 2.041371 1_555
O3 Pd8 2.045117 1_555
O4 Pd0 2.044072 1_565
O4 Pd5 2.044429 1_555
O5 Pd12 2.044532 1_565
O5 Pd1 2.048207 1_555
O6 Pd10 2.041171 1_655
O6 Pd11 2.044504 1_545
O7 Pd7 2.041829 1_555
O7 Pd6 2.044708 1_455
O8 Pd13 2.048828 1_555
O8 Pd2 2.048932 1_655
O9 Pd0 2.041100 1_565
O9 Pd5 2.043396 1_455
O10 Pd1 2.040736 1_555
O10 Pd12 2.045389 1_665
O11 Pd12 2.044512 1_555
O11 Pd1 2.049324 1_555
O12 Pd9 2.041480 1_655
O12 Pd8 2.045149 1_545
O13 Pd14 2.048397 1_555
O13 Pd4 2.048950 1_555
O14 Pd7 2.048397 1_555
O14 Pd6 2.048950 1_555
O15 Pd2 2.041377 1_555
O15 Pd13 2.045271 1_555
O16 Pd13 2.041480 1_545
O16 Pd2 2.045149 1_655
O17 Pd3 2.043603 1_655
O17 Pd15 2.044833 1_555
O18 Pd15 2.044184 1_555
O18 Pd3 2.047130 1_555
O19 Pd5 2.043597 1_555
O19 Pd0 2.048586 1_555
O20 Pd11 2.044512 1_555
O20 Pd10 2.049324 1_555
O21 Pd9 2.048828 1_555
O21 Pd8 2.048932 1_545
O22 Pd4 2.041759 1_455
O22 Pd14 2.044888 1_555
O23 Pd14 2.041829 1_555
O23 Pd4 2.044708 1_565
O24 Pd12 2.044821 1_555
O24 Pd1 2.045048 1_555
O25 Pd1 2.041171 1_545
O25 Pd12 2.044504 1_655
O26 Pd6 2.048810 1_555
O26 Pd7 2.048858 1_555
O27 Pd0 2.043603 1_555
O27 Pd5 2.044833 1_555
O28 Pd11 2.044532 1_455
O28 Pd10 2.048207 1_555
O29 Pd3 2.040135 1_555
O29 Pd15 2.044387 1_565
O30 Pd3 2.044072 1_555
O30 Pd15 2.044429 1_555
O31 Pd2 2.041479 1_555
O31 Pd13 2.044976 1_445
O32 Pd13 2.041371 1_555
O32 Pd2 2.045117 1_555
O33 Pd8 2.048924 1_555
O33 Pd9 2.048931 1_565
O34 Pd1 2.044413 1_545
O34 Pd12 2.044918 1_555
O35 Pd6 2.041051 1_455
O35 Pd7 2.045714 1_555
O36 Pd4 2.041051 1_565
O36 Pd14 2.045714 1_555
O37 Pd14 2.041454 1_555
O37 Pd4 2.045645 1_455
O38 Pd10 2.044413 1_655
O38 Pd11 2.044918 1_555
O39 Pd2 2.048924 1_555
O39 Pd13 2.048931 1_455
O40 Pd8 2.041479 1_555
O40 Pd9 2.044976 1_665
O41 Pd0 2.040135 1_565
O41 Pd5 2.044387 1_455
O42 Pd4 2.048810 1_555
O42 Pd14 2.048858 1_555
O43 Pd11 2.044821 1_555
O43 Pd10 2.045048 1_555
O44 Pd6 2.041759 1_565
O44 Pd7 2.044888 1_555
O45 Pd15 2.043597 1_555
O45 Pd3 2.048586 1_655
O46 Pd8 2.041377 1_555
O46 Pd9 2.045271 1_555
O47 Pd10 2.040736 1_555
O47 Pd11 2.045389 1_445
