# generated using pymatgen
data_MnFeO3
_symmetry_space_group_name_H-M   'P 1'
_cell_length_a   8.27018221
_cell_length_b   8.27018249
_cell_length_c   8.27018269
_cell_angle_alpha   109.70983636
_cell_angle_beta   109.27085988
_cell_angle_gamma   109.43326911
_symmetry_Int_Tables_number   1
_chemical_formula_structural   MnFeO3
_chemical_formula_sum   'Mn8 Fe8 O24'
_cell_volume   435.42851582
_cell_formula_units_Z   8
loop_
 _symmetry_equiv_pos_site_id
 _symmetry_equiv_pos_as_xyz
  1  'x, y, z'
loop_
 _atom_site_type_symbol
 _atom_site_label
 _atom_site_symmetry_multiplicity
 _atom_site_fract_x
 _atom_site_fract_y
 _atom_site_fract_z
 _atom_site_occupancy
  Mn  Mn0  1  0.21814000  0.96814000  0.25000000  1
  Mn  Mn1  1  0.25000000  0.21632100  0.96632100  1
  Mn  Mn2  1  0.28186000  0.53186000  0.75000000  1
  Mn  Mn3  1  0.25000000  0.71632100  0.46632100  1
  Mn  Mn4  1  0.75000000  0.28367900  0.53367900  1
  Mn  Mn5  1  0.75000000  0.78367900  0.03367900  1
  Mn  Mn6  1  0.71814000  0.46814000  0.25000000  1
  Mn  Mn7  1  0.78186000  0.03186000  0.75000000  1
  Fe  Fe0  1  0.00000000  0.00000000  0.50000000  1
  Fe  Fe1  1  0.03999900  0.75000000  0.78999900  1
  Fe  Fe2  1  0.00000000  0.50000000  0.00000000  1
  Fe  Fe3  1  0.46000100  0.25000000  0.71000100  1
  Fe  Fe4  1  0.50000000  0.50000000  0.50000000  1
  Fe  Fe5  1  0.53999900  0.75000000  0.28999900  1
  Fe  Fe6  1  0.50000000  0.00000000  0.00000000  1
  Fe  Fe7  1  0.96000100  0.25000000  0.21000100  1
  O  O0  1  0.05919400  0.50916100  0.78594600  1
  O  O1  1  0.22464900  0.95027500  0.49267500  1
  O  O2  1  0.27535100  0.76802700  0.72562600  1
  O  O3  1  0.22321500  0.27324800  0.71405400  1
  O  O4  1  0.98313600  0.04414300  0.26928500  1
  O  O5  1  0.22514100  0.45585700  0.43899300  1
  O  O6  1  0.04240000  0.26802700  0.99267500  1
  O  O7  1  0.27485900  0.71385200  0.23071500  1
  O  O8  1  0.72321500  0.00916100  0.94996700  1
  O  O9  1  0.55919400  0.77324800  0.55003300  1
  O  O10  1  0.48313600  0.21385200  0.93899300  1
  O  O11  1  0.54240000  0.54972500  0.77437400  1
  O  O12  1  0.45760000  0.45027500  0.22562600  1
  O  O13  1  0.51686400  0.78614800  0.06100700  1
  O  O14  1  0.44080600  0.22675200  0.44996700  1
  O  O15  1  0.27678500  0.99083900  0.05003300  1
  O  O16  1  0.95760000  0.73197300  0.00732500  1
  O  O17  1  0.72514100  0.28614800  0.76928500  1
  O  O18  1  0.77485900  0.54414300  0.56100700  1
  O  O19  1  0.01686400  0.95585700  0.73071500  1
  O  O20  1  0.77678500  0.72675200  0.28594600  1
  O  O21  1  0.72464900  0.23197300  0.27437400  1
  O  O22  1  0.77535100  0.04972500  0.50732500  1
  O  O23  1  0.94080600  0.49083900  0.21405400  1
loop_
_geom_bond_atom_site_label_1
_geom_bond_atom_site_label_2
_geom_bond_distance
_geom_bond_site_symmetry_2
Mn0 O14 1.919285 1_565
Mn0 O15 1.919285 1_555
Mn0 O1 2.046126 1_555
Mn0 O16 2.046128 1_455
Mn0 O7 2.268848 1_555
Mn0 O4 2.268852 1_465
Mn1 O12 1.962325 1_556
Mn1 O6 1.962329 1_555
Mn1 O10 2.019825 1_555
Mn1 O19 2.019828 1_545
Mn1 O15 2.247267 1_546
Mn1 O3 2.247267 1_555
Mn2 O0 1.919285 1_555
Mn2 O3 1.919285 1_555
Mn2 O11 2.046126 1_555
Mn2 O2 2.046134 1_555
Mn2 O13 2.268850 1_556
Mn2 O5 2.268850 1_555
Mn3 O2 1.962324 1_555
Mn3 O1 1.962325 1_555
Mn3 O5 2.019825 1_555
Mn3 O7 2.019834 1_555
Mn3 O9 2.247267 1_555
Mn3 O23 2.247267 1_455
Mn4 O21 1.962324 1_555
Mn4 O22 1.962325 1_555
Mn4 O18 2.019825 1_555
Mn4 O17 2.019834 1_555
Mn4 O14 2.247267 1_555
Mn4 O0 2.247267 1_655
Mn5 O11 1.962325 1_554
Mn5 O16 1.962329 1_555
Mn5 O13 2.019825 1_555
Mn5 O4 2.019828 1_565
Mn5 O8 2.247267 1_564
Mn5 O20 2.247267 1_555
Mn6 O23 1.919285 1_555
Mn6 O20 1.919285 1_555
Mn6 O12 2.046126 1_555
Mn6 O21 2.046134 1_555
Mn6 O10 2.268850 1_554
Mn6 O18 2.268850 1_555
Mn7 O9 1.919285 1_545
Mn7 O8 1.919285 1_555
Mn7 O22 2.046126 1_555
Mn7 O6 2.046128 1_655
Mn7 O17 2.268848 1_555
Mn7 O19 2.268852 1_645
Fe0 O3 2.004259 1_555
Fe0 O20 2.004259 1_445
Fe0 O4 2.030143 1_455
Fe0 O19 2.030143 1_545
Fe0 O22 2.047051 1_455
Fe0 O1 2.047051 1_545
Fe1 O18 1.973131 1_455
Fe1 O19 1.973135 1_555
Fe1 O0 2.040196 1_555
Fe1 O15 2.040196 1_556
Fe1 O2 2.153732 1_555
Fe1 O16 2.153735 1_456
Fe2 O0 2.004259 1_554
Fe2 O23 2.004259 1_455
Fe2 O17 2.030148 1_454
Fe2 O7 2.030148 1_555
Fe2 O16 2.047043 1_455
Fe2 O6 2.047043 1_554
Fe3 O17 1.973130 1_555
Fe3 O10 1.973131 1_555
Fe3 O3 2.040196 1_555
Fe3 O14 2.040196 1_555
Fe3 O11 2.153733 1_555
Fe3 O1 2.153733 1_545
Fe4 O14 2.004259 1_555
Fe4 O9 2.004259 1_555
Fe4 O18 2.030151 1_555
Fe4 O5 2.030151 1_555
Fe4 O11 2.047051 1_555
Fe4 O12 2.047051 1_555
Fe5 O7 1.973130 1_555
Fe5 O13 1.973131 1_555
Fe5 O20 2.040196 1_555
Fe5 O9 2.040196 1_555
Fe5 O12 2.153733 1_555
Fe5 O22 2.153733 1_565
Fe6 O15 2.004259 1_545
Fe6 O8 2.004259 1_554
Fe6 O10 2.030151 1_554
Fe6 O13 2.030151 1_545
Fe6 O2 2.047049 1_544
Fe6 O21 2.047049 1_555
Fe7 O5 1.973131 1_655
Fe7 O4 1.973135 1_555
Fe7 O23 2.040196 1_555
Fe7 O8 2.040196 1_554
Fe7 O21 2.153732 1_555
Fe7 O6 2.153735 1_654
