# generated using pymatgen
data_Na2Ca(SO4)2
_symmetry_space_group_name_H-M   'P 1'
_cell_length_a   6.61750148
_cell_length_b   6.61750148
_cell_length_c   8.69985974
_cell_angle_alpha   72.94830647
_cell_angle_beta   72.94830647
_cell_angle_gamma   78.32570231
_symmetry_Int_Tables_number   1
_chemical_formula_structural   Na2Ca(SO4)2
_chemical_formula_sum   'Na4 Ca2 S4 O16'
_cell_volume   345.38603247
_cell_formula_units_Z   2
loop_
 _symmetry_equiv_pos_site_id
 _symmetry_equiv_pos_as_xyz
  1  'x, y, z'
loop_
 _atom_site_type_symbol
 _atom_site_label
 _atom_site_symmetry_multiplicity
 _atom_site_fract_x
 _atom_site_fract_y
 _atom_site_fract_z
 _atom_site_occupancy
  Na  Na0  1  0.58605700  0.69533500  0.56215900  1
  Na  Na1  1  0.41394300  0.30466500  0.43784100  1
  Na  Na2  1  0.30466500  0.41394300  0.93784100  1
  Na  Na3  1  0.69533500  0.58605700  0.06215900  1
  Ca  Ca0  1  0.06117300  0.93882700  0.25000000  1
  Ca  Ca1  1  0.93882700  0.06117300  0.75000000  1
  S  S0  1  0.60022500  0.03185500  0.18602700  1
  S  S1  1  0.39977500  0.96814500  0.81397300  1
  S  S2  1  0.96814500  0.39977500  0.31397300  1
  S  S3  1  0.03185500  0.60022500  0.68602700  1
  O  O0  1  0.48152200  0.73897000  0.86874300  1
  O  O1  1  0.26103000  0.51847800  0.63125700  1
  O  O2  1  0.51847800  0.26103000  0.13125700  1
  O  O3  1  0.73897000  0.48152200  0.36874300  1
  O  O4  1  0.32606100  0.99983400  0.65990200  1
  O  O5  1  0.00016600  0.67393900  0.84009800  1
  O  O6  1  0.67393900  0.00016600  0.34009800  1
  O  O7  1  0.99983400  0.32606100  0.15990200  1
  O  O8  1  0.56935700  0.10527900  0.77672800  1
  O  O9  1  0.89472100  0.43064300  0.72327200  1
  O  O10  1  0.03666700  0.21159200  0.44075200  1
  O  O11  1  0.78840800  0.96333300  0.05924800  1
  O  O12  1  0.96333300  0.78840800  0.55924800  1
  O  O13  1  0.21159200  0.03666700  0.94075200  1
  O  O14  1  0.10527900  0.56935700  0.27672800  1
  O  O15  1  0.43064300  0.89472100  0.22327200  1
loop_
_geom_bond_atom_site_label_1
_geom_bond_atom_site_label_2
_geom_bond_distance
_geom_bond_site_symmetry_2
Na0 O6 2.381170 1_565
Na0 O3 2.382361 1_555
Na0 O1 2.491014 1_555
Na0 O4 2.547046 1_555
Na0 O0 2.639096 1_555
Na0 O12 2.681267 1_555
Na0 O9 2.827753 1_555
Na1 O4 2.381170 1_545
Na1 O1 2.382361 1_555
Na1 O3 2.491014 1_555
Na1 O6 2.547046 1_555
Na1 O2 2.639096 1_555
Na1 O10 2.681267 1_555
Na1 O14 2.827753 1_555
Na2 O7 2.381170 1_456
Na2 O2 2.382361 1_556
Na2 O0 2.491014 1_555
Na2 O5 2.547046 1_555
Na2 O1 2.639096 1_555
Na2 O13 2.681267 1_555
Na2 O8 2.827753 1_555
Na3 O5 2.381170 1_654
Na3 O0 2.382361 1_554
Na3 O2 2.491014 1_555
Na3 O7 2.547046 1_555
Na3 O3 2.639096 1_555
Na3 O11 2.681267 1_555
Na3 O15 2.827753 1_555
Ca0 O14 2.352596 1_555
Ca0 O15 2.352596 1_555
Ca0 O7 2.435847 1_465
Ca0 O6 2.435847 1_465
Ca0 O12 2.513363 1_455
Ca0 O13 2.513363 1_564
Ca0 O11 2.742052 1_455
Ca0 O10 2.742052 1_565
Ca1 O8 2.352596 1_555
Ca1 O9 2.352596 1_555
Ca1 O4 2.435847 1_645
Ca1 O5 2.435847 1_645
Ca1 O11 2.513363 1_546
Ca1 O10 2.513363 1_655
Ca1 O12 2.742052 1_545
Ca1 O13 2.742052 1_655
O0 S1 1.488291 1_555
O1 S3 1.488291 1_555
O2 S0 1.488291 1_555
O3 S2 1.488291 1_555
O4 S1 1.501934 1_555
O5 S3 1.501934 1_555
O6 S0 1.501934 1_555
O7 S2 1.501934 1_555
O8 S1 1.488055 1_545
O9 S3 1.488055 1_655
O10 S2 1.494045 1_455
O11 S0 1.494045 1_565
O12 S3 1.494045 1_655
O13 S1 1.494045 1_545
O14 S2 1.488055 1_455
O15 S0 1.488055 1_565
