# generated using pymatgen
data_Mg4Al9Cu(SiO4)9
_symmetry_space_group_name_H-M   'P 1'
_cell_length_a   9.47970900
_cell_length_b   9.83220700
_cell_length_c   9.88382226
_cell_angle_alpha   60.38430875
_cell_angle_beta   90.00000000
_cell_angle_gamma   90.00000000
_symmetry_Int_Tables_number   1
_chemical_formula_structural   Mg4Al9Cu(SiO4)9
_chemical_formula_sum   'Mg4 Al9 Cu1 Si9 O36'
_cell_volume   800.88546558
_cell_formula_units_Z   1
loop_
 _symmetry_equiv_pos_site_id
 _symmetry_equiv_pos_as_xyz
  1  'x, y, z'
loop_
 _atom_site_type_symbol
 _atom_site_label
 _atom_site_symmetry_multiplicity
 _atom_site_fract_x
 _atom_site_fract_y
 _atom_site_fract_z
 _atom_site_occupancy
  Mg  Mg0  1  0.74838300  0.66204400  0.67564100  1
  Mg  Mg1  1  0.25267200  0.66087200  0.67826500  1
  Mg  Mg2  1  0.74838300  0.33795600  0.32435900  1
  Mg  Mg3  1  0.25267200  0.33912800  0.32173500  1
  Al  Al0  1  0.50075100  0.74277700  0.89516000  1
  Al  Al1  1  0.25313400  0.50000000  0.00000000  1
  Al  Al2  1  0.00246100  0.35889100  0.89907300  1
  Al  Al3  1  0.74734100  0.50000000  0.50000000  1
  Al  Al4  1  0.25421700  0.50000000  0.50000000  1
  Al  Al5  1  0.75122300  0.00000000  0.50000000  1
  Al  Al6  1  0.25172700  0.00000000  0.50000000  1
  Al  Al7  1  0.00246100  0.64110900  0.10092700  1
  Al  Al8  1  0.50075100  0.25722300  0.10484000  1
  Cu  Cu0  1  0.01423100  0.00000000  0.00000000  1
  Si  Si0  1  0.00219600  0.90011900  0.72698200  1
  Si  Si1  1  0.50099600  0.37461500  0.72984300  1
  Si  Si2  1  0.50287800  0.88523100  0.38354500  1
  Si  Si3  1  0.00072700  0.26910000  0.61718200  1
  Si  Si4  1  0.00072700  0.73090000  0.38281800  1
  Si  Si5  1  0.50287800  0.11476900  0.61645500  1
  Si  Si6  1  0.50099600  0.62538500  0.27015700  1
  Si  Si7  1  0.00219600  0.09988100  0.27301800  1
  Si  Si8  1  0.74938300  0.50000000  0.00000000  1
  O  O0  1  0.00634700  0.81809300  0.91644500  1
  O  O1  1  0.51131400  0.94087000  0.76043200  1
  O  O2  1  0.35585400  0.65505200  0.86042300  1
  O  O3  1  0.65493900  0.64753100  0.87323900  1
  O  O4  1  0.84752100  0.47097700  0.87885500  1
  O  O5  1  0.14367600  0.48442200  0.86248900  1
  O  O6  1  0.85904000  0.86152400  0.65692200  1
  O  O7  1  0.14178200  0.86261900  0.65250200  1
  O  O8  1  0.50071700  0.29422900  0.91412800  1
  O  O9  1  0.99746800  0.27272300  0.77942800  1
  O  O10  1  0.64260700  0.85463400  0.49698100  1
  O  O11  1  0.35852500  0.85907900  0.48820400  1
  O  O12  1  0.64229900  0.48651400  0.65319100  1
  O  O13  1  0.36070100  0.48591700  0.65187300  1
  O  O14  1  0.85991900  0.64848600  0.49044900  1
  O  O15  1  0.14267200  0.64997500  0.48681500  1
  O  O16  1  0.50361100  0.24889200  0.66714800  1
  O  O17  1  0.00061800  0.91252800  0.34082700  1
  O  O18  1  0.00061800  0.08747200  0.65917300  1
  O  O19  1  0.50361100  0.75110800  0.33285200  1
  O  O20  1  0.85991900  0.35151400  0.50955100  1
  O  O21  1  0.14267200  0.35002500  0.51318500  1
  O  O22  1  0.64229900  0.51348600  0.34680900  1
  O  O23  1  0.36070100  0.51408300  0.34812700  1
  O  O24  1  0.64260700  0.14536600  0.50301900  1
  O  O25  1  0.35852500  0.14092100  0.51179600  1
  O  O26  1  0.99746800  0.72727700  0.22057200  1
  O  O27  1  0.50071700  0.70577100  0.08587200  1
  O  O28  1  0.14178200  0.13738100  0.34749800  1
  O  O29  1  0.85904000  0.13847600  0.34307800  1
  O  O30  1  0.84752100  0.52902300  0.12114500  1
  O  O31  1  0.14367600  0.51557800  0.13751100  1
  O  O32  1  0.65493900  0.35246900  0.12676100  1
  O  O33  1  0.35585400  0.34494800  0.13957700  1
  O  O34  1  0.51131400  0.05913000  0.23956800  1
  O  O35  1  0.00634700  0.18190700  0.08355500  1
loop_
_geom_bond_atom_site_label_1
_geom_bond_atom_site_label_2
_geom_bond_distance
_geom_bond_site_symmetry_2
Mg0 O3 2.084203 1_555
Mg0 O10 2.098684 1_555
Mg0 O12 2.101809 1_555
Mg0 O6 2.150066 1_555
Mg0 O4 2.171928 1_555
Mg0 O14 2.174226 1_555
Mg1 O2 2.024771 1_555
Mg1 O5 2.066572 1_555
Mg1 O13 2.125877 1_555
Mg1 O7 2.146017 1_555
Mg1 O11 2.171492 1_555
Mg1 O15 2.209041 1_555
Mg2 O32 2.084203 1_555
Mg2 O24 2.098684 1_555
Mg2 O22 2.101809 1_555
Mg2 O29 2.150066 1_555
Mg2 O30 2.171928 1_555
Mg2 O20 2.174226 1_555
Mg3 O33 2.024771 1_555
Mg3 O31 2.066572 1_555
Mg3 O23 2.125877 1_555
Mg3 O28 2.146017 1_555
Mg3 O25 2.171492 1_555
Mg3 O21 2.209041 1_555
Al0 O27 1.734247 1_556
Al0 O1 1.735901 1_555
Al0 O2 1.743919 1_555
Al0 O3 1.805801 1_555
Al1 O2 1.759780 1_554
Al1 O33 1.759780 1_555
Al1 O31 1.775706 1_555
Al1 O5 1.775706 1_554
Al2 O5 1.733514 1_555
Al2 O9 1.763142 1_455
Al2 O4 1.787211 1_455
Al2 O35 1.793927 1_556
Al3 O12 1.761602 1_555
Al3 O22 1.761602 1_555
Al3 O14 1.772869 1_555
Al3 O20 1.772869 1_555
Al4 O23 1.756691 1_555
Al4 O13 1.756691 1_555
Al4 O15 1.766233 1_555
Al4 O21 1.766233 1_555
Al5 O24 1.773704 1_555
Al5 O10 1.773704 1_545
Al5 O29 1.793550 1_555
Al5 O6 1.793550 1_545
Al6 O11 1.765793 1_545
Al6 O25 1.765793 1_555
Al6 O7 1.780586 1_545
Al6 O28 1.780586 1_555
Al7 O31 1.733514 1_555
Al7 O26 1.763142 1_455
Al7 O30 1.787211 1_455
Al7 O0 1.793927 1_554
Al8 O8 1.734247 1_554
Al8 O34 1.735901 1_555
Al8 O33 1.743919 1_555
Al8 O32 1.805801 1_555
Cu0 O35 2.312222 1_555
Cu0 O0 2.312222 1_544
Cu0 O9 2.488078 1_454
Cu0 O26 2.488078 1_445
O0 Si0 1.632790 1_555
O1 Si5 1.596899 1_565
O3 Si8 1.636817 1_556
O4 Si8 1.648739 1_556
O6 Si0 1.650719 1_655
O7 Si0 1.642276 1_555
O8 Si1 1.587287 1_555
O9 Si3 1.621804 1_655
O10 Si2 1.663948 1_555
O11 Si2 1.657064 1_555
O12 Si1 1.659791 1_555
O13 Si1 1.651281 1_555
O14 Si4 1.648651 1_655
O15 Si4 1.640712 1_555
O16 Si5 1.625783 1_555
O16 Si1 1.633923 1_555
O17 Si7 1.619412 1_565
O17 Si4 1.621361 1_555
O18 Si0 1.619412 1_545
O18 Si3 1.621361 1_555
O19 Si2 1.625783 1_555
O19 Si6 1.633923 1_555
O20 Si3 1.648651 1_655
O21 Si3 1.640712 1_555
O22 Si6 1.659791 1_555
O23 Si6 1.651281 1_555
O24 Si5 1.663948 1_555
O25 Si5 1.657064 1_555
O26 Si4 1.621804 1_655
O27 Si6 1.587287 1_555
O28 Si7 1.642276 1_555
O29 Si7 1.650719 1_655
O30 Si8 1.648739 1_555
O32 Si8 1.636817 1_555
O34 Si2 1.596899 1_545
O35 Si7 1.632790 1_555
