# generated using pymatgen
data_Tl2O3
_symmetry_space_group_name_H-M   'P 1'
_cell_length_a   17.82430390
_cell_length_b   17.82430390
_cell_length_c   17.82430385
_cell_angle_alpha   11.44605325
_cell_angle_beta   11.44605325
_cell_angle_gamma   11.44605159
_symmetry_Int_Tables_number   1
_chemical_formula_structural   Tl2O3
_chemical_formula_sum   'Tl4 O6'
_cell_volume   193.77217775
_cell_formula_units_Z   2
loop_
 _symmetry_equiv_pos_site_id
 _symmetry_equiv_pos_as_xyz
  1  'x, y, z'
loop_
 _atom_site_type_symbol
 _atom_site_label
 _atom_site_symmetry_multiplicity
 _atom_site_fract_x
 _atom_site_fract_y
 _atom_site_fract_z
 _atom_site_occupancy
  Tl  Tl0  1  0.25707600  0.25707600  0.25707600  1
  Tl  Tl1  1  0.74292400  0.74292400  0.74292400  1
  Tl  Tl2  1  0.13343800  0.13343800  0.13343800  1
  Tl  Tl3  1  0.86656200  0.86656200  0.86656200  1
  O  O0  1  0.93918100  0.93918100  0.93918100  1
  O  O1  1  0.43815700  0.43815700  0.43815700  1
  O  O2  1  0.18544300  0.18544300  0.18544300  1
  O  O3  1  0.06081900  0.06081900  0.06081900  1
  O  O4  1  0.81455700  0.81455700  0.81455700  1
  O  O5  1  0.56184300  0.56184300  0.56184300  1
loop_
_geom_bond_atom_site_label_1
_geom_bond_atom_site_label_2
_geom_bond_distance
_geom_bond_site_symmetry_2
O0 Tl0 2.210164 1_566
O0 Tl0 2.210164 1_656
O0 Tl0 2.210165 1_665
O1 Tl1 2.552402 1_545
O1 Tl1 2.552402 1_455
O1 Tl1 2.552402 1_554
O1 Tl2 2.553918 1_655
O1 Tl2 2.553918 1_565
O1 Tl2 2.553918 1_556
O2 Tl3 2.191272 1_544
O2 Tl3 2.191272 1_454
O2 Tl3 2.191272 1_445
O3 Tl1 2.210164 1_454
O3 Tl1 2.210164 1_544
O3 Tl1 2.210165 1_445
O4 Tl2 2.191272 1_566
O4 Tl2 2.191272 1_656
O4 Tl2 2.191272 1_665
O5 Tl0 2.552402 1_565
O5 Tl0 2.552402 1_655
O5 Tl0 2.552402 1_556
O5 Tl3 2.553918 1_455
O5 Tl3 2.553918 1_545
O5 Tl3 2.553918 1_554
