# generated using pymatgen
data_KLiPH2O4F
_symmetry_space_group_name_H-M   'P 1'
_cell_length_a   7.59886800
_cell_length_b   5.48995100
_cell_length_c   12.56985040
_cell_angle_alpha   71.93511984
_cell_angle_beta   90.00000000
_cell_angle_gamma   90.00000000
_symmetry_Int_Tables_number   1
_chemical_formula_structural   KLiPH2O4F
_chemical_formula_sum   'K4 Li4 P4 H8 O16 F4'
_cell_volume   498.53276350
_cell_formula_units_Z   4
loop_
 _symmetry_equiv_pos_site_id
 _symmetry_equiv_pos_as_xyz
  1  'x, y, z'
loop_
 _atom_site_type_symbol
 _atom_site_label
 _atom_site_symmetry_multiplicity
 _atom_site_fract_x
 _atom_site_fract_y
 _atom_site_fract_z
 _atom_site_occupancy
  K  K0  1  0.72542300  0.67635900  0.65347100  1
  K  K1  1  0.22542300  0.32364100  0.84652900  1
  K  K2  1  0.27457700  0.32364100  0.34652900  1
  K  K3  1  0.77457700  0.67635900  0.15347100  1
  Li  Li0  1  0.54143100  0.81859500  0.36359400  1
  Li  Li1  1  0.04143100  0.18140500  0.13640600  1
  Li  Li2  1  0.45856900  0.18140500  0.63640600  1
  Li  Li3  1  0.95856900  0.81859500  0.86359400  1
  P  P0  1  0.77391400  0.26216200  0.94718500  1
  P  P1  1  0.27391400  0.73783800  0.55281500  1
  P  P2  1  0.22608600  0.73783800  0.05281500  1
  P  P3  1  0.72608600  0.26216200  0.44718500  1
  H  H0  1  0.58304300  0.15306300  0.16178600  1
  H  H1  1  0.08304300  0.84693700  0.33821400  1
  H  H2  1  0.41695700  0.84693700  0.83821400  1
  H  H3  1  0.91695700  0.15306300  0.66178600  1
  H  H4  1  0.39216300  0.04051800  0.15836200  1
  H  H5  1  0.89216300  0.95948200  0.34163800  1
  H  H6  1  0.60783700  0.95948200  0.84163800  1
  H  H7  1  0.10783700  0.04051800  0.65836200  1
  O  O0  1  0.78214600  0.00394700  0.92455800  1
  O  O1  1  0.28214600  0.99605300  0.57544200  1
  O  O2  1  0.21785400  0.99605300  0.07544200  1
  O  O3  1  0.71785400  0.00394700  0.42455800  1
  O  O4  1  0.87608000  0.47619800  0.86417500  1
  O  O5  1  0.37608000  0.52380200  0.63582500  1
  O  O6  1  0.12392000  0.52380200  0.13582500  1
  O  O7  1  0.62392000  0.47619800  0.36417500  1
  O  O8  1  0.79917900  0.23915100  0.07078500  1
  O  O9  1  0.29917900  0.76084900  0.42921500  1
  O  O10  1  0.20082100  0.76084900  0.92921500  1
  O  O11  1  0.70082100  0.23915100  0.57078500  1
  O  O12  1  0.48633200  0.06147300  0.21023300  1
  O  O13  1  0.98633200  0.93852700  0.28976700  1
  O  O14  1  0.51366800  0.93852700  0.78976700  1
  O  O15  1  0.01366800  0.06147300  0.71023300  1
  F  F0  1  0.56869700  0.34531300  0.92300300  1
  F  F1  1  0.06869700  0.65468700  0.57699700  1
  F  F2  1  0.43130300  0.65468700  0.07699700  1
  F  F3  1  0.93130300  0.34531300  0.42300300  1
loop_
_geom_bond_atom_site_label_1
_geom_bond_atom_site_label_2
_geom_bond_distance
_geom_bond_site_symmetry_2
K0 O4 2.779893 1_555
K0 O5 2.812975 1_555
K0 O3 2.882321 1_565
K0 O11 2.902341 1_555
K0 O11 2.944461 1_565
K0 O14 3.020786 1_555
K1 O5 2.779893 1_555
K1 O4 2.812975 1_455
K1 O2 2.882321 1_546
K1 O10 2.902341 1_555
K1 O10 2.944461 1_545
K1 O15 3.020786 1_555
K2 O6 2.779893 1_555
K2 O7 2.812975 1_555
K2 O1 2.882321 1_545
K2 O9 2.902341 1_555
K2 O9 2.944461 1_545
K2 O12 3.020786 1_555
K3 O7 2.779893 1_555
K3 O6 2.812975 1_655
K3 O0 2.882321 1_564
K3 O8 2.902341 1_555
K3 O8 2.944461 1_565
K3 O13 3.020786 1_555
Li0 O3 1.975738 1_565
Li0 O7 1.979363 1_555
Li0 O9 2.001848 1_555
Li0 O12 2.018716 1_565
Li1 O2 1.975738 1_545
Li1 O6 1.979363 1_555
Li1 O8 2.001848 1_455
Li1 O13 2.018716 1_445
Li2 O1 1.975738 1_545
Li2 O5 1.979363 1_555
Li2 O11 2.001848 1_555
Li2 O14 2.018716 1_545
Li3 O0 1.975738 1_565
Li3 O4 1.979363 1_555
Li3 O10 2.001848 1_655
Li3 O15 2.018716 1_665
H0 O12 0.986835 1_555
H1 O13 0.986835 1_455
H2 O14 0.986835 1_555
H3 O15 0.986835 1_655
H4 O12 0.998461 1_555
H5 O13 0.998461 1_555
H6 O14 0.998461 1_555
H7 O15 0.998461 1_555
O0 P0 1.531148 1_555
O1 P1 1.531148 1_555
O2 P2 1.531148 1_555
O3 P3 1.531148 1_555
O4 P0 1.520456 1_555
O5 P1 1.520456 1_555
O6 P2 1.520456 1_555
O7 P3 1.520456 1_555
O8 P0 1.531297 1_554
O9 P1 1.531297 1_555
O10 P2 1.531297 1_556
O11 P3 1.531297 1_555
F0 P0 1.626809 1_555
F0 K1 2.795239 1_555
F1 P1 1.626809 1_555
F1 K0 2.795239 1_455
F2 P2 1.626809 1_555
F2 K3 2.795239 1_555
F3 P3 1.626809 1_555
F3 K2 2.795239 1_655
