# generated using pymatgen
data_NaFe8F24
_symmetry_space_group_name_H-M   'P 1'
_cell_length_a   7.75178300
_cell_length_b   9.58812335
_cell_length_c   14.34781932
_cell_angle_alpha   89.51113712
_cell_angle_beta   105.58825866
_cell_angle_gamma   113.25926973
_symmetry_Int_Tables_number   1
_chemical_formula_structural   NaFe8F24
_chemical_formula_sum   'Na2 Fe16 F48'
_cell_volume   937.94088601
_cell_formula_units_Z   2
loop_
 _symmetry_equiv_pos_site_id
 _symmetry_equiv_pos_as_xyz
  1  'x, y, z'
loop_
 _atom_site_type_symbol
 _atom_site_label
 _atom_site_symmetry_multiplicity
 _atom_site_fract_x
 _atom_site_fract_y
 _atom_site_fract_z
 _atom_site_occupancy
  Na  Na0  1  0.99952100  0.75121600  0.75150300  1
  Na  Na1  1  0.00047900  0.24878400  0.24849700  1
  Fe  Fe0  1  0.81031500  0.18682800  0.43953100  1
  Fe  Fe1  1  0.56014800  0.43461700  0.68793000  1
  Fe  Fe2  1  0.68411800  0.81270700  0.55997500  1
  Fe  Fe3  1  0.18968500  0.81317200  0.56046900  1
  Fe  Fe4  1  0.31588200  0.18729300  0.44002500  1
  Fe  Fe5  1  0.31863900  0.68678600  0.94057900  1
  Fe  Fe6  1  0.43935100  0.06434600  0.81377900  1
  Fe  Fe7  1  0.93630000  0.06534600  0.81315900  1
  Fe  Fe8  1  0.06463800  0.43643400  0.68746000  1
  Fe  Fe9  1  0.06370000  0.93465400  0.18684100  1
  Fe  Fe10  1  0.19008300  0.31346400  0.05905000  1
  Fe  Fe11  1  0.68136100  0.31321400  0.05942100  1
  Fe  Fe12  1  0.80991700  0.68653600  0.94095000  1
  Fe  Fe13  1  0.93536200  0.56356600  0.31254000  1
  Fe  Fe14  1  0.43985200  0.56538300  0.31207000  1
  Fe  Fe15  1  0.56064900  0.93565400  0.18622100  1
  F  F0  1  0.58913900  0.65847400  0.44625900  1
  F  F1  1  0.76924700  0.98466300  0.48072600  1
  F  F2  1  0.94970300  0.80132800  0.59156900  1
  F  F3  1  0.23075300  0.01533700  0.51927400  1
  F  F4  1  0.41086100  0.34152600  0.55374100  1
  F  F5  1  0.32809500  0.90598300  0.69611500  1
  F  F6  1  0.57540500  0.17795300  0.46633600  1
  F  F7  1  0.51705000  0.23187800  0.72953200  1
  F  F8  1  0.80769900  0.45328000  0.66144400  1
  F  F9  1  0.69576100  0.05256600  0.83790500  1
  F  F10  1  0.96650500  0.28598200  0.57197200  1
  F  F11  1  0.98131500  0.26745600  0.76687100  1
  F  F12  1  0.14008500  0.60881100  0.60716400  1
  F  F13  1  0.15193700  0.58898200  0.79656600  1
  F  F14  1  0.42459500  0.82204700  0.53366400  1
  F  F15  1  0.08897600  0.15595900  0.94558600  1
  F  F16  1  0.32250200  0.42898800  0.71394900  1
  F  F17  1  0.26808100  0.47439700  0.98144900  1
  F  F18  1  0.62005200  0.64282400  0.64554900  1
  F  F19  1  0.56077000  0.69847000  0.90718300  1
  F  F20  1  0.78714100  0.96189900  0.67878300  1
  F  F21  1  0.43923000  0.30153000  0.09281700  1
  F  F22  1  0.72332400  0.54232400  0.81752500  1
  F  F23  1  0.73191900  0.52560300  0.01855100  1
  F  F24  1  0.89383700  0.85733700  0.85393000  1
  F  F25  1  0.91102400  0.84404100  0.05441400  1
  F  F26  1  0.16782300  0.06103400  0.78145900  1
  F  F27  1  0.84806300  0.41101800  0.20343400  1
  F  F28  1  0.06325300  0.68150800  0.95991400  1
  F  F29  1  0.01868500  0.73254400  0.23312900  1
  F  F30  1  0.34369100  0.89287600  0.88457400  1
  F  F31  1  0.30423900  0.94743400  0.16209500  1
  F  F32  1  0.52617500  0.21301700  0.92157700  1
  F  F33  1  0.19230100  0.54672000  0.33855600  1
  F  F34  1  0.47382500  0.78698300  0.07842300  1
  F  F35  1  0.48295000  0.76812200  0.27046800  1
  F  F36  1  0.65630900  0.10712400  0.11542600  1
  F  F37  1  0.67190500  0.09401700  0.30388500  1
  F  F38  1  0.93674700  0.31849200  0.04008600  1
  F  F39  1  0.83217700  0.93896600  0.21854100  1
  F  F40  1  0.10616300  0.14266300  0.14607000  1
  F  F41  1  0.05029700  0.19867200  0.40843100  1
  F  F42  1  0.27667600  0.45767600  0.18247500  1
  F  F43  1  0.21285900  0.03810100  0.32121700  1
  F  F44  1  0.37994800  0.35717600  0.35445100  1
  F  F45  1  0.67749800  0.57101200  0.28605100  1
  F  F46  1  0.85991500  0.39118900  0.39283600  1
  F  F47  1  0.03349500  0.71401800  0.42802800  1
loop_
_geom_bond_atom_site_label_1
_geom_bond_atom_site_label_2
_geom_bond_distance
_geom_bond_site_symmetry_2
F0 Fe14 1.964389 1_555
F0 Fe2 1.981575 1_555
F1 Fe0 1.949933 1_565
F1 Fe2 1.989641 1_555
F2 Fe3 1.987736 1_655
F2 Fe2 2.032451 1_555
F2 Na0 2.301549 1_555
F3 Fe3 1.949933 1_545
F3 Fe4 1.989641 1_555
F4 Fe1 1.964389 1_555
F4 Fe4 1.981575 1_555
F5 Fe3 1.970804 1_555
F5 Fe6 2.031361 1_565
F5 Na0 2.720958 1_455
F6 Fe0 1.929907 1_555
F6 Fe4 1.982745 1_555
F7 Fe1 1.954754 1_555
F7 Fe6 1.999542 1_555
F8 Fe1 1.994595 1_555
F8 Fe8 1.996475 1_655
F8 Na0 2.777896 1_555
F9 Fe7 1.947420 1_555
F9 Fe6 1.972342 1_555
F10 Fe0 1.966186 1_555
F10 Fe8 1.975336 1_655
F11 Fe8 1.969233 1_655
F11 Fe7 1.971459 1_555
F12 Fe3 1.989252 1_555
F12 Fe8 1.991779 1_555
F13 Fe8 1.932838 1_555
F13 Fe5 2.111802 1_555
F13 Na0 2.292900 1_455
F14 Fe3 1.929907 1_555
F14 Fe2 1.982745 1_555
F15 Fe7 1.942470 1_455
F15 Fe10 1.991628 1_556
F16 Fe1 1.956182 1_555
F16 Fe8 1.961916 1_555
F17 Fe10 1.892585 1_556
F17 Fe5 2.029098 1_555
F18 Fe1 1.992375 1_555
F18 Fe2 2.015444 1_555
F18 Na0 2.693155 1_555
F19 Fe12 1.910123 1_555
F19 Fe5 2.020259 1_555
F20 Fe7 1.991651 1_565
F20 Fe2 1.999383 1_555
F21 Fe10 1.910123 1_555
F21 Fe11 2.020259 1_555
F22 Fe1 1.964916 1_555
F22 Fe12 2.041664 1_555
F22 Na0 2.676507 1_555
F23 Fe12 1.892585 1_554
F23 Fe11 2.029098 1_555
F24 Fe7 1.998332 1_565
F24 Fe12 2.055293 1_555
F24 Na0 2.279720 1_555
F25 Fe9 1.942470 1_655
F25 Fe12 1.991628 1_554
F26 Fe7 1.981720 1_455
F26 Fe6 2.017232 1_555
F26 Na0 2.714905 1_445
F27 Fe13 1.932838 1_555
F27 Fe11 2.111802 1_555
F27 Na1 2.292900 1_655
F28 Fe12 1.928798 1_455
F28 Fe5 2.052929 1_555
F29 Fe13 1.969233 1_455
F29 Fe9 1.971459 1_555
F30 Fe6 1.923037 1_565
F30 Fe5 2.083686 1_555
F30 Na0 2.655691 1_455
F31 Fe9 1.947420 1_555
F31 Fe15 1.972342 1_555
F32 Fe6 1.896728 1_555
F32 Fe11 2.030421 1_556
F33 Fe14 1.994595 1_555
F33 Fe13 1.996475 1_455
F33 Na1 2.777896 1_555
F34 Fe15 1.896728 1_555
F34 Fe5 2.030421 1_554
F35 Fe14 1.954754 1_555
F35 Fe15 1.999542 1_555
F36 Fe15 1.923037 1_545
F36 Fe11 2.083686 1_555
F36 Na1 2.655691 1_655
F37 Fe0 1.970804 1_555
F37 Fe15 2.031361 1_545
F37 Na1 2.720958 1_655
F38 Fe10 1.928798 1_655
F38 Fe11 2.052929 1_555
F39 Fe9 1.981720 1_655
F39 Fe15 2.017232 1_555
F39 Na1 2.714905 1_665
F40 Fe9 1.998332 1_545
F40 Fe10 2.055293 1_555
F40 Na1 2.279720 1_555
F41 Fe0 1.987736 1_455
F41 Fe4 2.032451 1_555
F41 Na1 2.301549 1_555
F42 Fe14 1.964916 1_555
F42 Fe10 2.041664 1_555
F42 Na1 2.676507 1_555
F43 Fe9 1.991651 1_545
F43 Fe4 1.999383 1_555
F44 Fe14 1.992375 1_555
F44 Fe4 2.015444 1_555
F44 Na1 2.693155 1_555
F45 Fe14 1.956182 1_555
F45 Fe13 1.961916 1_555
F46 Fe0 1.989252 1_555
F46 Fe13 1.991779 1_555
F47 Fe3 1.966186 1_555
F47 Fe13 1.975336 1_455
