# generated using pymatgen
data_Li2SeO4
_symmetry_space_group_name_H-M   'P 1'
_cell_length_a   8.63434500
_cell_length_b   9.07239497
_cell_length_c   9.08747216
_cell_angle_alpha   92.87802271
_cell_angle_beta   113.42088352
_cell_angle_gamma   104.85194428
_symmetry_Int_Tables_number   1
_chemical_formula_structural   Li2SeO4
_chemical_formula_sum   'Li12 Se6 O24'
_cell_volume   622.03450808
_cell_formula_units_Z   6
loop_
 _symmetry_equiv_pos_site_id
 _symmetry_equiv_pos_as_xyz
  1  'x, y, z'
loop_
 _atom_site_type_symbol
 _atom_site_label
 _atom_site_symmetry_multiplicity
 _atom_site_fract_x
 _atom_site_fract_y
 _atom_site_fract_z
 _atom_site_occupancy
  Li  Li0  1  0.75058400  0.54769600  0.46341700  1
  Li  Li1  1  0.24941600  0.45230400  0.53658300  1
  Li  Li2  1  0.70515900  0.09293500  0.91947900  1
  Li  Li3  1  0.65556700  0.36031600  0.81123100  1
  Li  Li4  1  0.43676400  0.82287300  0.61091400  1
  Li  Li5  1  0.34443300  0.63968400  0.18876900  1
  Li  Li6  1  0.86552300  0.72821400  0.06574000  1
  Li  Li7  1  0.07797800  0.90079300  0.63886700  1
  Li  Li8  1  0.56323600  0.17712700  0.38908600  1
  Li  Li9  1  0.29484100  0.90706500  0.08052100  1
  Li  Li10  1  0.13447700  0.27178600  0.93426000  1
  Li  Li11  1  0.92202200  0.09920700  0.36113300  1
  Se  Se0  1  0.31791200  0.21665300  0.69879600  1
  Se  Se1  1  0.68208800  0.78334700  0.30120400  1
  Se  Se2  1  0.28450100  0.68829000  0.81664300  1
  Se  Se3  1  0.86596600  0.26696200  0.65348000  1
  Se  Se4  1  0.71549900  0.31171000  0.18335700  1
  Se  Se5  1  0.13403400  0.73303800  0.34652000  1
  O  O0  1  0.83813700  0.41050100  0.36982200  1
  O  O1  1  0.42150200  0.40740200  0.74707400  1
  O  O2  1  0.51035000  0.21181900  0.16856200  1
  O  O3  1  0.81131600  0.17700700  0.15499300  1
  O  O4  1  0.16186300  0.58949900  0.63017800  1
  O  O5  1  0.22340000  0.88583600  0.50499200  1
  O  O6  1  0.31476800  0.66079100  0.39622800  1
  O  O7  1  0.04739000  0.46863200  0.04999600  1
  O  O8  1  0.87136000  0.18769600  0.82765700  1
  O  O9  1  0.48047100  0.13401200  0.75502300  1
  O  O10  1  0.95261000  0.53136800  0.95000400  1
  O  O11  1  0.81499300  0.85228300  0.20906100  1
  O  O12  1  0.57849800  0.59259800  0.25292600  1
  O  O13  1  0.68523200  0.33920900  0.60377200  1
  O  O14  1  0.29055500  0.57300600  0.95385000  1
  O  O15  1  0.18360100  0.19737500  0.49935800  1
  O  O16  1  0.81639900  0.80262500  0.50064200  1
  O  O17  1  0.70944500  0.42699400  0.04615000  1
  O  O18  1  0.77660000  0.11416400  0.49500800  1
  O  O19  1  0.51952900  0.86598800  0.24497700  1
  O  O20  1  0.18868400  0.82299300  0.84500700  1
  O  O21  1  0.48965000  0.78818100  0.83143800  1
  O  O22  1  0.18500700  0.14771700  0.79093900  1
  O  O23  1  0.12864000  0.81230400  0.17234300  1
loop_
_geom_bond_atom_site_label_1
_geom_bond_atom_site_label_2
_geom_bond_distance
_geom_bond_site_symmetry_2
Li0 O0 1.931670 1_555
Li0 O12 2.040034 1_555
Li0 O16 2.209373 1_555
Li0 O13 2.406279 1_555
Li1 O4 1.931670 1_555
Li1 O1 2.040034 1_555
Li1 O15 2.209373 1_555
Li1 O6 2.406279 1_555
Li2 O8 1.971346 1_555
Li2 O3 1.980064 1_556
Li2 O9 2.063440 1_555
Li3 O13 2.007317 1_555
Li3 O17 2.019000 1_556
Li3 O1 2.034141 1_555
Li3 O9 2.109837 1_555
Li3 O10 2.401767 1_555
Li4 O21 1.932139 1_555
Li4 O5 1.957481 1_555
Li4 O6 2.088597 1_555
Li5 O6 2.007317 1_555
Li5 O14 2.019000 1_554
Li5 O12 2.034141 1_555
Li5 O19 2.109837 1_555
Li5 O7 2.401767 1_555
Li6 O11 1.926114 1_555
Li6 O23 1.992346 1_655
Li6 O10 2.447323 1_554
Li7 O20 1.994061 1_555
Li7 O16 2.018235 1_455
Li7 O5 2.088114 1_555
Li7 O22 2.322680 1_565
Li8 O2 1.932139 1_555
Li8 O18 1.957481 1_555
Li8 O13 2.088597 1_555
Li9 O23 1.971346 1_555
Li9 O20 1.980064 1_554
Li9 O19 2.063440 1_555
Li10 O22 1.926114 1_555
Li10 O8 1.992346 1_455
Li10 O7 2.447323 1_556
Li11 O3 1.994061 1_555
Li11 O15 2.018235 1_655
Li11 O18 2.088114 1_555
Li11 O11 2.322680 1_545
O0 Se4 1.652404 1_555
O1 Se0 1.674992 1_555
O2 Se4 1.718277 1_555
O3 Se4 1.703105 1_555
O4 Se2 1.652404 1_555
O5 Se5 1.720112 1_555
O6 Se5 1.750028 1_555
O8 Se3 1.759982 1_555
O9 Se0 1.673646 1_555
O10 O7 1.232444 1_656
O11 Se1 1.690475 1_555
O12 Se1 1.674992 1_555
O13 Se3 1.750028 1_555
O14 Se2 1.660869 1_555
O15 Se0 1.689243 1_555
O16 Se1 1.689243 1_555
O17 Se4 1.660869 1_555
O18 Se3 1.720112 1_555
O19 Se1 1.673646 1_555
O20 Se2 1.703105 1_555
O21 Se2 1.718277 1_555
O22 Se0 1.690475 1_555
O23 Se5 1.759982 1_555
