# generated using pymatgen
data_Rb2Cu3H2S3O14
_symmetry_space_group_name_H-M   'P 1'
_cell_length_a   5.28262000
_cell_length_b   16.33398500
_cell_length_c   17.68790100
_cell_angle_alpha   90.00000000
_cell_angle_beta   90.00000000
_cell_angle_gamma   90.00000000
_symmetry_Int_Tables_number   1
_chemical_formula_structural   Rb2Cu3H2S3O14
_chemical_formula_sum   'Rb8 Cu12 H8 S12 O56'
_cell_volume   1526.22239721
_cell_formula_units_Z   4
loop_
 _symmetry_equiv_pos_site_id
 _symmetry_equiv_pos_as_xyz
  1  'x, y, z'
loop_
 _atom_site_type_symbol
 _atom_site_label
 _atom_site_symmetry_multiplicity
 _atom_site_fract_x
 _atom_site_fract_y
 _atom_site_fract_z
 _atom_site_occupancy
  Rb  Rb0  1  0.27848800  0.38473400  0.44503900  1
  Rb  Rb1  1  0.22151200  0.88473400  0.05496100  1
  Rb  Rb2  1  0.72151200  0.61526600  0.94503900  1
  Rb  Rb3  1  0.77848800  0.11526600  0.55496100  1
  Rb  Rb4  1  0.72151200  0.61526600  0.55496100  1
  Rb  Rb5  1  0.77848800  0.11526600  0.94503900  1
  Rb  Rb6  1  0.27848800  0.38473400  0.05496100  1
  Rb  Rb7  1  0.22151200  0.88473400  0.44503900  1
  Cu  Cu0  1  0.29648100  0.28729200  0.67752700  1
  Cu  Cu1  1  0.20351900  0.78729200  0.82247300  1
  Cu  Cu2  1  0.70351900  0.71270800  0.17752700  1
  Cu  Cu3  1  0.79648100  0.21270800  0.32247300  1
  Cu  Cu4  1  0.70351900  0.71270800  0.32247300  1
  Cu  Cu5  1  0.79648100  0.21270800  0.17752700  1
  Cu  Cu6  1  0.29648100  0.28729200  0.82247300  1
  Cu  Cu7  1  0.20351900  0.78729200  0.67752700  1
  Cu  Cu8  1  0.60173900  0.95716900  0.75000000  1
  Cu  Cu9  1  0.89826100  0.45716900  0.75000000  1
  Cu  Cu10  1  0.39826100  0.04283100  0.25000000  1
  Cu  Cu11  1  0.10173900  0.54283100  0.25000000  1
  H  H0  1  0.69713000  0.13355400  0.75000000  1
  H  H1  1  0.80287000  0.63355400  0.75000000  1
  H  H2  1  0.30287000  0.86644600  0.25000000  1
  H  H3  1  0.19713000  0.36644600  0.25000000  1
  H  H4  1  0.10001900  0.73761100  0.75000000  1
  H  H5  1  0.39998100  0.23761100  0.75000000  1
  H  H6  1  0.89998100  0.26238900  0.25000000  1
  H  H7  1  0.60001900  0.76238900  0.25000000  1
  S  S0  1  0.83237800  0.36946400  0.58696300  1
  S  S1  1  0.66762200  0.86946400  0.91303700  1
  S  S2  1  0.16762200  0.63053600  0.08696300  1
  S  S3  1  0.33237800  0.13053600  0.41303700  1
  S  S4  1  0.16762200  0.63053600  0.41303700  1
  S  S5  1  0.33237800  0.13053600  0.08696300  1
  S  S6  1  0.83237800  0.36946400  0.91303700  1
  S  S7  1  0.66762200  0.86946400  0.58696300  1
  S  S8  1  0.10034400  0.11771800  0.75000000  1
  S  S9  1  0.39965600  0.61771800  0.75000000  1
  S  S10  1  0.89965600  0.88228200  0.25000000  1
  S  S11  1  0.60034400  0.38228200  0.25000000  1
  O  O0  1  0.78800900  0.40122000  0.51006400  1
  O  O1  1  0.71199100  0.90122000  0.98993600  1
  O  O2  1  0.21199100  0.59878000  0.01006400  1
  O  O3  1  0.28800900  0.09878000  0.48993600  1
  O  O4  1  0.21199100  0.59878000  0.48993600  1
  O  O5  1  0.28800900  0.09878000  0.01006400  1
  O  O6  1  0.78800900  0.40122000  0.98993600  1
  O  O7  1  0.71199100  0.90122000  0.51006400  1
  O  O8  1  0.85227500  0.44274400  0.63870900  1
  O  O9  1  0.64772500  0.94274400  0.86129100  1
  O  O10  1  0.14772500  0.55725600  0.13870900  1
  O  O11  1  0.35227500  0.05725600  0.36129100  1
  O  O12  1  0.14772500  0.55725600  0.36129100  1
  O  O13  1  0.35227500  0.05725600  0.13870900  1
  O  O14  1  0.85227500  0.44274400  0.86129100  1
  O  O15  1  0.64772500  0.94274400  0.63870900  1
  O  O16  1  0.62910800  0.31065700  0.60775300  1
  O  O17  1  0.87089200  0.81065700  0.89224700  1
  O  O18  1  0.37089200  0.68934300  0.10775300  1
  O  O19  1  0.12910800  0.18934300  0.39224700  1
  O  O20  1  0.37089200  0.68934300  0.39224700  1
  O  O21  1  0.12910800  0.18934300  0.10775300  1
  O  O22  1  0.62910800  0.31065700  0.89224700  1
  O  O23  1  0.87089200  0.81065700  0.60775300  1
  O  O24  1  0.08278600  0.32456900  0.58962800  1
  O  O25  1  0.41721400  0.82456900  0.91037200  1
  O  O26  1  0.91721400  0.67543100  0.08962800  1
  O  O27  1  0.58278600  0.17543100  0.41037200  1
  O  O28  1  0.91721400  0.67543100  0.41037200  1
  O  O29  1  0.58278600  0.17543100  0.08962800  1
  O  O30  1  0.08278600  0.32456900  0.91037200  1
  O  O31  1  0.41721400  0.82456900  0.58962800  1
  O  O32  1  0.26523400  0.04720600  0.75000000  1
  O  O33  1  0.23476600  0.54720600  0.75000000  1
  O  O34  1  0.73476600  0.95279400  0.25000000  1
  O  O35  1  0.76523400  0.45279400  0.25000000  1
  O  O36  1  0.11061400  0.16553700  0.67956500  1
  O  O37  1  0.38938600  0.66553700  0.82043500  1
  O  O38  1  0.88938600  0.83446300  0.17956500  1
  O  O39  1  0.61061400  0.33446300  0.32043500  1
  O  O40  1  0.88938600  0.83446300  0.32043500  1
  O  O41  1  0.61061400  0.33446300  0.17956500  1
  O  O42  1  0.11061400  0.16553700  0.82043500  1
  O  O43  1  0.38938600  0.66553700  0.67956500  1
  O  O44  1  0.80505100  0.08430300  0.75000000  1
  O  O45  1  0.69494900  0.58430300  0.75000000  1
  O  O46  1  0.19494900  0.91569700  0.25000000  1
  O  O47  1  0.30505100  0.41569700  0.25000000  1
  O  O48  1  0.53162000  0.35286100  0.75000000  1
  O  O49  1  0.96838000  0.85286100  0.75000000  1
  O  O50  1  0.46838000  0.64713900  0.25000000  1
  O  O51  1  0.03162000  0.14713900  0.25000000  1
  O  O52  1  0.96641500  0.93233500  0.75000000  1
  O  O53  1  0.53358500  0.43233500  0.75000000  1
  O  O54  1  0.03358500  0.06766500  0.25000000  1
  O  O55  1  0.46641500  0.56766500  0.25000000  1
loop_
_geom_bond_atom_site_label_1
_geom_bond_atom_site_label_2
_geom_bond_distance
_geom_bond_site_symmetry_2
Cu0 H5 1.612671 1_555
Cu0 O24 2.015522 1_555
Cu0 O48 2.081643 1_555
Cu0 O16 2.180903 1_555
Cu0 O36 2.218211 1_555
Cu1 H4 1.612671 1_555
Cu1 O25 2.015522 1_555
Cu1 O49 2.081643 1_455
Cu1 O17 2.180903 1_455
Cu1 O37 2.218211 1_555
Cu2 H7 1.612671 1_555
Cu2 O26 2.015522 1_555
Cu2 O50 2.081643 1_555
Cu2 O18 2.180903 1_555
Cu2 O38 2.218211 1_555
Cu3 H6 1.612671 1_555
Cu3 O27 2.015522 1_555
Cu3 O51 2.081643 1_655
Cu3 O19 2.180903 1_655
Cu3 O39 2.218211 1_555
Cu4 H7 1.612671 1_555
Cu4 O28 2.015522 1_555
Cu4 O50 2.081643 1_555
Cu4 O20 2.180903 1_555
Cu4 O40 2.218211 1_555
Cu5 H6 1.612671 1_555
Cu5 O29 2.015522 1_555
Cu5 O51 2.081643 1_655
Cu5 O21 2.180903 1_655
Cu5 O41 2.218211 1_555
Cu6 H5 1.612671 1_555
Cu6 O30 2.015522 1_555
Cu6 O48 2.081643 1_555
Cu6 O22 2.180903 1_555
Cu6 O42 2.218211 1_555
Cu7 H4 1.612671 1_555
Cu7 O31 2.015522 1_555
Cu7 O49 2.081643 1_455
Cu7 O23 2.180903 1_455
Cu7 O43 2.218211 1_555
Cu8 O52 1.968688 1_555
Cu8 O9 1.997383 1_555
Cu8 O15 1.997383 1_555
Cu8 O32 2.307122 1_565
Cu8 O44 2.337906 1_565
Cu9 O53 1.968688 1_555
Cu9 O14 1.997383 1_555
Cu9 O8 1.997383 1_555
Cu9 O33 2.307122 1_655
Cu9 O45 2.337906 1_555
Cu10 O54 1.968688 1_555
Cu10 O11 1.997383 1_555
Cu10 O13 1.997383 1_555
Cu10 O34 2.307122 1_545
Cu10 O46 2.337906 1_545
Cu11 O55 1.968688 1_555
Cu11 O12 1.997383 1_555
Cu11 O10 1.997383 1_555
Cu11 O35 2.307122 1_455
Cu11 O47 2.337906 1_555
H0 O44 0.985994 1_555
H1 O45 0.985994 1_555
H2 O46 0.985994 1_555
H3 O47 0.985994 1_555
O0 S0 1.474477 1_555
O0 Rb0 2.847582 1_655
O0 Rb0 2.939407 1_555
O1 S1 1.474477 1_555
O1 Rb1 2.847582 1_556
O1 Rb1 2.939407 1_656
O2 S2 1.474477 1_555
O2 Rb2 2.847582 1_454
O2 Rb2 2.939407 1_554
O3 S3 1.474477 1_555
O3 Rb3 2.847582 1_555
O3 Rb3 2.939407 1_455
O4 S4 1.474477 1_555
O4 Rb4 2.847582 1_455
O4 Rb4 2.939407 1_555
O5 S5 1.474477 1_555
O5 Rb5 2.847582 1_554
O5 Rb5 2.939407 1_454
O6 S6 1.474477 1_555
O6 Rb6 2.847582 1_656
O6 Rb6 2.939407 1_556
O7 S7 1.474477 1_555
O7 Rb7 2.847582 1_555
O7 Rb7 2.939407 1_655
O8 S0 1.510457 1_555
O8 Rb4 3.257677 1_555
O9 S1 1.510457 1_555
O9 Rb5 3.257677 1_565
O10 S2 1.510457 1_555
O10 Rb6 3.257677 1_555
O11 S3 1.510457 1_555
O11 Rb7 3.257677 1_545
O12 S4 1.510457 1_555
O12 Rb0 3.257677 1_555
O13 S5 1.510457 1_555
O13 Rb1 3.257677 1_545
O14 S6 1.510457 1_555
O14 Rb2 3.257677 1_555
O15 S7 1.510457 1_555
O15 Rb3 3.257677 1_565
O16 S0 1.486920 1_555
O16 Rb3 3.417662 1_555
O17 S1 1.486920 1_555
O17 Rb2 3.417662 1_555
O18 S2 1.486920 1_555
O18 Rb1 3.417662 1_555
O19 S3 1.486920 1_555
O19 Rb0 3.417662 1_555
O20 S4 1.486920 1_555
O20 Rb7 3.417662 1_555
O21 S5 1.486920 1_555
O21 Rb6 3.417662 1_555
O22 S6 1.486920 1_555
O22 Rb5 3.417662 1_555
O23 S7 1.486920 1_555
O23 Rb4 3.417662 1_555
O24 S0 1.513208 1_455
O24 Rb0 2.928350 1_555
O25 S1 1.513208 1_555
O25 Rb1 2.928350 1_556
O26 S2 1.513208 1_655
O26 Rb2 2.928350 1_554
O27 S3 1.513208 1_555
O27 Rb3 2.928350 1_555
O28 S4 1.513208 1_655
O28 Rb4 2.928350 1_555
O29 S5 1.513208 1_555
O29 Rb5 2.928350 1_554
O30 S6 1.513208 1_455
O30 Rb6 2.928350 1_556
O31 S7 1.513208 1_555
O31 Rb7 2.928350 1_555
O32 S8 1.444036 1_555
O33 S9 1.444036 1_555
O34 S10 1.444036 1_555
O35 S11 1.444036 1_555
O36 S8 1.471447 1_555
O36 Rb3 2.934288 1_455
O37 S9 1.471447 1_555
O37 Rb2 2.934288 1_555
O38 S10 1.471447 1_555
O38 Rb1 2.934288 1_655
O39 S11 1.471447 1_555
O39 Rb0 2.934288 1_555
O40 S10 1.471447 1_555
O40 Rb7 2.934288 1_655
O41 S11 1.471447 1_555
O41 Rb6 2.934288 1_555
O42 S8 1.471447 1_555
O42 Rb5 2.934288 1_455
O43 S9 1.471447 1_555
O43 Rb4 2.934288 1_555
O44 S8 1.652650 1_655
O45 S9 1.652650 1_555
O46 S10 1.652650 1_455
O47 S11 1.652650 1_555
O48 O53 1.298169 1_555
O49 O52 1.298169 1_555
O50 O55 1.298169 1_555
O51 O54 1.298169 1_555
