# generated using pymatgen
data_Zr10C9
_symmetry_space_group_name_H-M   'P 1'
_cell_length_a   8.81799141
_cell_length_b   8.81799141
_cell_length_c   11.05363520
_cell_angle_alpha   62.92424593
_cell_angle_beta   62.92424593
_cell_angle_gamma   44.54408168
_symmetry_Int_Tables_number   1
_chemical_formula_structural   Zr10C9
_chemical_formula_sum   'Zr20 C18'
_cell_volume   524.92915239
_cell_formula_units_Z   2
loop_
 _symmetry_equiv_pos_site_id
 _symmetry_equiv_pos_as_xyz
  1  'x, y, z'
loop_
 _atom_site_type_symbol
 _atom_site_label
 _atom_site_symmetry_multiplicity
 _atom_site_fract_x
 _atom_site_fract_y
 _atom_site_fract_z
 _atom_site_occupancy
  Zr  Zr0  1  0.22326917  0.47874042  0.94737650  1
  Zr  Zr1  1  0.72120405  0.96671728  0.95638962  1
  Zr  Zr2  1  0.56316682  0.33163549  0.64850425  1
  Zr  Zr3  1  0.43683318  0.66836451  0.35149575  1
  Zr  Zr4  1  0.27879595  0.03328272  0.04361038  1
  Zr  Zr5  1  0.08237162  0.81352820  0.64471915  1
  Zr  Zr6  1  0.12325720  0.37216539  0.75029363  1
  Zr  Zr7  1  0.91762838  0.18647180  0.35528085  1
  Zr  Zr8  1  0.96671728  0.72120405  0.45638962  1
  Zr  Zr9  1  0.77673083  0.52125958  0.05262350  1
  Zr  Zr10  1  0.62783461  0.87674280  0.74970637  1
  Zr  Zr11  1  0.81352820  0.08237162  0.14471915  1
  Zr  Zr12  1  0.47874042  0.22326917  0.44737650  1
  Zr  Zr13  1  0.66836451  0.43683318  0.85149575  1
  Zr  Zr14  1  0.52125958  0.77673083  0.55262350  1
  Zr  Zr15  1  0.33163549  0.56316682  0.14850425  1
  Zr  Zr16  1  0.37216539  0.12325720  0.25029363  1
  Zr  Zr17  1  0.18647180  0.91762838  0.85528085  1
  Zr  Zr18  1  0.03328272  0.27879595  0.54361038  1
  Zr  Zr19  1  0.87674280  0.62783461  0.24970637  1
  C  C0  1  0.07616014  0.32076233  0.15000089  1
  C  C1  1  0.92383986  0.67923767  0.84999911  1
  C  C2  1  0.57476831  0.82751862  0.14769900  1
  C  C3  1  0.77674012  0.02457676  0.55017453  1
  C  C4  1  0.42523169  0.17248138  0.85230100  1
  C  C5  1  0.62320866  0.37679134  0.25000000  1
  C  C6  1  0.27562981  0.52836954  0.55117928  1
  C  C7  1  0.47163046  0.72437019  0.94882072  1
  C  C8  1  0.32076233  0.07616014  0.65000089  1
  C  C9  1  0.17248138  0.42523169  0.35230100  1
  C  C10  1  0.97542324  0.22325988  0.94982547  1
  C  C11  1  0.82751862  0.57476831  0.64769900  1
  C  C12  1  0.02457676  0.77674012  0.05017453  1
  C  C13  1  0.67923767  0.92383986  0.34999911  1
  C  C14  1  0.72437019  0.47163046  0.44882072  1
  C  C15  1  0.52836954  0.27562981  0.05117928  1
  C  C16  1  0.37679134  0.62320866  0.75000000  1
  C  C17  1  0.22325988  0.97542324  0.44982547  1
loop_
_geom_bond_atom_site_label_1
_geom_bond_atom_site_label_2
_geom_bond_distance
_geom_bond_site_symmetry_2
C0 Zr4 2.312202 1_555
C0 Zr9 2.335946 1_455
C0 Zr16 2.339216 1_555
C0 Zr7 2.351849 1_455
C0 Zr0 2.393824 1_554
C0 Zr19 2.409167 1_455
C1 Zr1 2.312202 1_555
C1 Zr0 2.335946 1_655
C1 Zr10 2.339216 1_555
C1 Zr5 2.351849 1_655
C1 Zr9 2.393824 1_556
C1 Zr6 2.409167 1_655
C2 Zr1 2.248643 1_554
C2 Zr16 2.342082 1_565
C2 Zr4 2.347460 1_565
C2 Zr3 2.363157 1_555
C2 Zr9 2.365072 1_555
C2 Zr19 2.388484 1_555
C3 Zr5 2.337319 1_645
C3 Zr10 2.339682 1_545
C3 Zr7 2.348273 1_555
C3 Zr8 2.364971 1_545
C3 Zr2 2.367803 1_555
C3 Zr12 2.368371 1_555
C4 Zr4 2.248643 1_556
C4 Zr10 2.342082 1_545
C4 Zr1 2.347460 1_545
C4 Zr2 2.363157 1_555
C4 Zr0 2.365072 1_555
C4 Zr6 2.388484 1_555
C5 Zr12 2.335567 1_555
C5 Zr9 2.335567 1_555
C5 Zr3 2.344017 1_555
C5 Zr15 2.344017 1_555
C5 Zr11 2.381773 1_555
C5 Zr7 2.381773 1_555
C6 Zr5 2.225013 1_555
C6 Zr2 2.260517 1_555
C6 Zr3 2.362426 1_555
C6 Zr6 2.394348 1_555
C6 Zr8 2.404834 1_455
C6 Zr12 2.415232 1_555
C7 Zr17 2.225013 1_555
C7 Zr13 2.260517 1_555
C7 Zr15 2.362426 1_556
C7 Zr10 2.394348 1_555
C7 Zr4 2.404834 1_566
C7 Zr9 2.415232 1_556
C8 Zr18 2.312202 1_555
C8 Zr14 2.335946 1_545
C8 Zr6 2.339216 1_555
C8 Zr17 2.351849 1_545
C8 Zr12 2.393824 1_555
C8 Zr10 2.409167 1_545
C9 Zr18 2.248643 1_555
C9 Zr19 2.342082 1_455
C9 Zr8 2.347460 1_455
C9 Zr15 2.363157 1_555
C9 Zr12 2.365072 1_555
C9 Zr16 2.388484 1_555
C10 Zr17 2.337319 1_645
C10 Zr6 2.339682 1_655
C10 Zr11 2.348273 1_556
C10 Zr4 2.364971 1_656
C10 Zr13 2.367803 1_555
C10 Zr9 2.368371 1_556
C11 Zr8 2.248643 1_555
C11 Zr6 2.342082 1_655
C11 Zr18 2.347460 1_655
C11 Zr13 2.363157 1_555
C11 Zr14 2.365072 1_555
C11 Zr10 2.388484 1_555
C12 Zr11 2.337319 1_465
C12 Zr19 2.339682 1_455
C12 Zr17 2.348273 1_554
C12 Zr1 2.364971 1_454
C12 Zr15 2.367803 1_555
C12 Zr0 2.368371 1_554
C13 Zr8 2.312202 1_555
C13 Zr12 2.335946 1_565
C13 Zr19 2.339216 1_555
C13 Zr11 2.351849 1_565
C13 Zr14 2.393824 1_555
C13 Zr16 2.409167 1_565
C14 Zr7 2.225013 1_555
C14 Zr3 2.260517 1_555
C14 Zr2 2.362426 1_555
C14 Zr19 2.394348 1_555
C14 Zr18 2.404834 1_655
C14 Zr14 2.415232 1_555
C15 Zr11 2.225013 1_555
C15 Zr15 2.260517 1_555
C15 Zr13 2.362426 1_554
C15 Zr16 2.394348 1_555
C15 Zr1 2.404834 1_544
C15 Zr0 2.415232 1_554
C16 Zr0 2.335567 1_555
C16 Zr14 2.335567 1_555
C16 Zr2 2.344017 1_555
C16 Zr13 2.344017 1_555
C16 Zr5 2.381773 1_555
C16 Zr17 2.381773 1_555
C17 Zr7 2.337319 1_465
C17 Zr16 2.339682 1_565
C17 Zr5 2.348273 1_555
C17 Zr18 2.364971 1_565
C17 Zr3 2.367803 1_555
C17 Zr14 2.368371 1_555
