# generated using pymatgen
data_La2SnSb4
_symmetry_space_group_name_H-M   'P 1'
_cell_length_a   6.54427800
_cell_length_b   7.59980600
_cell_length_c   11.53492505
_cell_angle_alpha   53.45969687
_cell_angle_beta   90.00000000
_cell_angle_gamma   90.00000000
_symmetry_Int_Tables_number   1
_chemical_formula_structural   La2SnSb4
_chemical_formula_sum   'La4 Sn2 Sb8'
_cell_volume   460.92633997
_cell_formula_units_Z   2
loop_
 _symmetry_equiv_pos_site_id
 _symmetry_equiv_pos_as_xyz
  1  'x, y, z'
loop_
 _atom_site_type_symbol
 _atom_site_label
 _atom_site_symmetry_multiplicity
 _atom_site_fract_x
 _atom_site_fract_y
 _atom_site_fract_z
 _atom_site_occupancy
  La  La0  1  0.34075900  0.74591900  0.85278100  1
  La  La1  1  0.84075900  0.25408100  0.64721900  1
  La  La2  1  0.15924100  0.74591900  0.35278100  1
  La  La3  1  0.65924100  0.25408100  0.14721900  1
  Sn  Sn0  1  0.50000000  0.00000000  0.50000000  1
  Sn  Sn1  1  0.00000000  0.00000000  0.00000000  1
  Sb  Sb0  1  0.60964500  0.45028200  0.79061900  1
  Sb  Sb1  1  0.15875800  0.26442300  0.12704700  1
  Sb  Sb2  1  0.65875800  0.73557700  0.37295300  1
  Sb  Sb3  1  0.10964500  0.54971800  0.70938100  1
  Sb  Sb4  1  0.89035500  0.45028200  0.29061900  1
  Sb  Sb5  1  0.34124200  0.26442300  0.62704700  1
  Sb  Sb6  1  0.84124200  0.73557700  0.87295300  1
  Sb  Sb7  1  0.39035500  0.54971800  0.20938100  1
loop_
_geom_bond_atom_site_label_1
_geom_bond_atom_site_label_2
_geom_bond_distance
_geom_bond_site_symmetry_2
La0 Sb5 3.176443 1_565
La0 Sb3 3.191232 1_555
La0 Sb0 3.252224 1_555
La0 Sb6 3.274868 1_455
La0 Sb6 3.281178 1_555
La0 Sb1 3.321502 1_556
La0 Sb7 3.456139 1_556
La0 Sn0 3.466571 1_565
La0 Sn1 3.935738 1_566
La1 Sb6 3.176443 1_545
La1 Sb0 3.191232 1_555
La1 Sb3 3.252224 1_655
La1 Sb5 3.274868 1_555
La1 Sb5 3.281178 1_655
La1 Sb2 3.321502 1_555
La1 Sb4 3.456139 1_555
La1 Sn1 3.466571 1_656
La1 Sn0 3.935738 1_555
La2 Sb1 3.176443 1_565
La2 Sb7 3.191232 1_555
La2 Sb4 3.252224 1_455
La2 Sb2 3.274868 1_555
La2 Sb2 3.281178 1_455
La2 Sb5 3.321502 1_555
La2 Sb3 3.456139 1_555
La2 Sn1 3.466571 1_565
La2 Sn0 3.935738 1_565
La3 Sb2 3.176443 1_545
La3 Sb4 3.191232 1_555
La3 Sb7 3.252224 1_555
La3 Sb1 3.274868 1_655
La3 Sb1 3.281178 1_555
La3 Sb6 3.321502 1_554
La3 Sb0 3.456139 1_554
La3 Sn0 3.466571 1_555
La3 Sn1 3.935738 1_655
Sb0 Sn0 3.539693 1_565
Sb1 Sn1 3.282103 1_555
Sb2 Sn0 3.282103 1_565
Sb3 Sn1 3.539693 1_556
Sb4 Sn1 3.539693 1_665
Sb5 Sn0 3.282103 1_555
Sb6 Sn1 3.282103 1_666
Sb7 Sn0 3.539693 1_555
