# generated using pymatgen
data_Ce(Al4Fe)2
_symmetry_space_group_name_H-M   'P 1'
_cell_length_a   4.02760014
_cell_length_b   12.40192738
_cell_length_c   14.21043293
_cell_angle_alpha   90.00000000
_cell_angle_beta   90.00000000
_cell_angle_gamma   90.00000000
_symmetry_Int_Tables_number   1
_chemical_formula_structural   Ce(Al4Fe)2
_chemical_formula_sum   'Ce4 Al32 Fe8'
_cell_volume   709.81118812
_cell_formula_units_Z   4
loop_
 _symmetry_equiv_pos_site_id
 _symmetry_equiv_pos_as_xyz
  1  'x, y, z'
loop_
 _atom_site_type_symbol
 _atom_site_label
 _atom_site_symmetry_multiplicity
 _atom_site_fract_x
 _atom_site_fract_y
 _atom_site_fract_z
 _atom_site_occupancy
  Ce  Ce0  1  -0.00000000  0.34027252  0.31902854  1
  Ce  Ce1  1  0.00000000  0.84027252  0.18097146  1
  Ce  Ce2  1  -0.00000000  0.15971740  0.81901489  1
  Ce  Ce3  1  -0.00000000  0.65971740  0.68098511  1
  Al  Al0  1  0.50000000  0.76779913  0.82648656  1
  Al  Al1  1  0.50000000  0.34114606  0.87850586  1
  Al  Al2  1  0.50000000  -0.00001057  0.50002824  1
  Al  Al3  1  0.50000000  0.52493745  0.36795032  1
  Al  Al4  1  0.50000000  0.23219801  0.17350107  1
  Al  Al5  1  0.50000000  0.95190550  0.32040583  1
  Al  Al6  1  0.00000000  0.33248095  0.04613948  1
  Al  Al7  1  0.50000000  0.04810805  0.67961614  1
  Al  Al8  1  0.50000000  0.97507552  0.86791309  1
  Al  Al9  1  0.50000000  0.47507552  0.63208691  1
  Al  Al10  1  0.50000000  0.49998943  -0.00002824  1
  Al  Al11  1  0.50000000  0.45190550  0.17959417  1
  Al  Al12  1  0.50000000  0.26779913  0.67351344  1
  Al  Al13  1  0.50000000  0.65883897  0.12148054  1
  Al  Al14  1  0.00000000  0.90738327  0.74597954  1
  Al  Al15  1  0.50000000  0.02493745  0.13204968  1
  Al  Al16  1  0.50000000  0.84114606  0.62149414  1
  Al  Al17  1  0.50000000  0.16660797  0.99333051  1
  Al  Al18  1  0.50000000  0.54810805  0.82038386  1
  Al  Al19  1  0.00000000  0.00001466  -0.00001078  1
  Al  Al20  1  0.50000000  0.66660797  0.50666949  1
  Al  Al21  1  0.50000000  0.15883897  0.37851946  1
  Al  Al22  1  0.00000000  0.16753470  0.54619063  1
  Al  Al23  1  0.00000000  0.59261035  0.24597447  1
  Al  Al24  1  0.00000000  0.09261035  0.25402553  1
  Al  Al25  1  0.50000000  0.73219801  0.32649893  1
  Al  Al26  1  0.00000000  0.50001466  0.50001078  1
  Al  Al27  1  0.50000000  0.83339474  0.00663710  1
  Al  Al28  1  0.50000000  0.33339474  0.49336290  1
  Al  Al29  1  0.00000000  0.66753470  0.95380937  1
  Al  Al30  1  0.00000000  0.83248095  0.45386052  1
  Al  Al31  1  0.00000000  0.40738327  0.75402046  1
  Fe  Fe0  1  0.00000000  0.14889767  0.09835754  1
  Fe  Fe1  1  -0.00000000  0.96750924  0.58764001  1
  Fe  Fe2  1  0.00000000  0.85106776  0.90167529  1
  Fe  Fe3  1  -0.00000000  0.64889767  0.40164246  1
  Fe  Fe4  1  0.00000000  0.03250965  0.41233069  1
  Fe  Fe5  1  -0.00000000  0.35106776  0.59832471  1
  Fe  Fe6  1  0.00000000  0.53250965  0.08766931  1
  Fe  Fe7  1  -0.00000000  0.46750924  0.91235999  1
loop_
_geom_bond_atom_site_label_1
_geom_bond_atom_site_label_2
_geom_bond_distance
_geom_bond_site_symmetry_2
Al0 Fe2 2.502690 1_555
Al0 Fe2 2.502690 1_655
Al0 Al8 2.637172 1_555
Al0 Al27 2.686166 1_556
Al0 Al18 2.725973 1_555
Al0 Al14 2.891534 1_655
Al0 Al14 2.891534 1_555
Al0 Al29 2.979132 1_655
Al0 Al29 2.979132 1_555
Al0 Al16 3.051754 1_555
Al0 Ce3 3.182334 1_655
Al0 Ce3 3.182334 1_555
Al1 Fe7 2.596686 1_655
Al1 Fe7 2.596686 1_555
Al1 Al10 2.619183 1_556
Al1 Al18 2.696343 1_555
Al1 Al17 2.710720 1_555
Al1 Al31 2.803486 1_655
Al1 Al31 2.803486 1_555
Al1 Al12 3.051754 1_555
Al1 Al6 3.121147 1_556
Al1 Al6 3.121147 1_656
Al1 Ce2 3.135741 1_655
Al1 Ce2 3.135741 1_555
Al2 Fe1 2.401600 1_645
Al2 Fe1 2.401600 1_545
Al2 Fe4 2.402315 1_555
Al2 Fe4 2.402315 1_655
Al2 Al21 2.619642 1_555
Al2 Al7 2.620867 1_555
Al2 Al5 2.621246 1_545
Al3 Fe3 2.578382 1_555
Al3 Fe3 2.578382 1_655
Al3 Ce0 3.127893 1_555
Al3 Ce0 3.127893 1_655
Al4 Fe0 2.502578 1_555
Al4 Fe0 2.502578 1_655
Al4 Al6 2.979562 1_655
Al4 Al6 2.979562 1_555
Al4 Ce0 3.182537 1_555
Al4 Ce0 3.182537 1_655
Al5 Fe4 2.600208 1_665
Al5 Fe4 2.600208 1_565
Al5 Ce1 3.146135 1_555
Al5 Ce1 3.146135 1_655
Al6 Fe0 2.394657 1_555
Al6 Fe7 2.533450 1_554
Al6 Fe6 2.549973 1_555
Al7 Fe1 2.600549 1_645
Al7 Fe1 2.600549 1_545
Al7 Al8 2.824921 1_545
Al7 Ce2 3.145688 1_555
Al7 Ce2 3.145688 1_655
Al8 Fe2 2.578918 1_555
Al8 Fe2 2.578918 1_655
Al8 Ce2 3.127609 1_665
Al8 Ce2 3.127609 1_565
Al9 Fe5 2.578918 1_555
Al9 Fe5 2.578918 1_655
Al9 Ce3 3.127609 1_655
Al9 Ce3 3.127609 1_555
Al10 Fe7 2.401600 1_554
Al10 Fe7 2.401600 1_654
Al10 Fe6 2.402315 1_655
Al10 Fe6 2.402315 1_555
Al10 Al13 2.619642 1_555
Al10 Al18 2.620867 1_554
Al10 Al11 2.621246 1_555
Al11 Fe6 2.600208 1_655
Al11 Fe6 2.600208 1_555
Al11 Al13 2.695970 1_555
Al11 Al4 2.726172 1_555
Al11 Al3 2.825715 1_555
Al11 Al23 2.826704 1_555
Al11 Al23 2.826704 1_655
Al11 Ce0 3.146135 1_555
Al11 Ce0 3.146135 1_655
Al12 Fe5 2.502690 1_555
Al12 Fe5 2.502690 1_655
Al12 Al9 2.637172 1_555
Al12 Al28 2.686166 1_555
Al12 Al7 2.725973 1_555
Al12 Al31 2.891534 1_655
Al12 Al31 2.891534 1_555
Al12 Al22 2.979132 1_655
Al12 Al22 2.979132 1_555
Al12 Ce2 3.182334 1_655
Al12 Ce2 3.182334 1_555
Al13 Fe6 2.596320 1_555
Al13 Fe6 2.596320 1_655
Al13 Al27 2.711056 1_555
Al13 Al23 2.803531 1_655
Al13 Al23 2.803531 1_555
Al13 Al25 3.052151 1_555
Al13 Al29 3.121568 1_554
Al13 Al29 3.121568 1_654
Al13 Ce1 3.135784 1_555
Al13 Ce1 3.135784 1_655
Al14 Fe2 2.320122 1_555
Al14 Fe1 2.370415 1_555
Al14 Al8 2.786131 1_455
Al14 Al8 2.786131 1_555
Al14 Al16 2.803486 1_555
Al14 Al16 2.803486 1_455
Al14 Al7 2.826777 1_565
Al14 Al7 2.826777 1_465
Al14 Ce3 3.207391 1_555
Al14 Ce2 3.297043 1_565
Al15 Fe0 2.578382 1_555
Al15 Fe0 2.578382 1_655
Al15 Al4 2.637060 1_555
Al15 Al17 2.640619 1_554
Al15 Al19 2.769962 1_555
Al15 Al19 2.769962 1_655
Al15 Al24 2.786432 1_655
Al15 Al24 2.786432 1_555
Al15 Al5 2.825715 1_545
Al15 Al27 2.969699 1_545
Al15 Ce1 3.127893 1_645
Al15 Ce1 3.127893 1_545
Al16 Fe1 2.596686 1_555
Al16 Fe1 2.596686 1_655
Al16 Al2 2.619183 1_565
Al16 Al7 2.696343 1_565
Al16 Al20 2.710720 1_555
Al16 Al30 3.121147 1_555
Al16 Al30 3.121147 1_655
Al16 Ce3 3.135741 1_655
Al16 Ce3 3.135741 1_555
Al17 Fe0 2.516173 1_556
Al17 Fe0 2.516173 1_656
Al17 Al4 2.686417 1_556
Al17 Al19 2.886698 1_656
Al17 Al19 2.886698 1_556
Al17 Al8 2.969639 1_545
Al17 Al6 2.974961 1_656
Al17 Al6 2.974961 1_556
Al17 Ce2 3.193543 1_555
Al17 Ce2 3.193543 1_655
Al18 Fe7 2.600549 1_555
Al18 Fe7 2.600549 1_655
Al18 Al9 2.824921 1_555
Al18 Al31 2.826777 1_655
Al18 Al31 2.826777 1_555
Al18 Ce3 3.145688 1_555
Al18 Ce3 3.145688 1_655
Al19 Fe0 2.315886 1_555
Al19 Fe2 2.316052 1_544
Al19 Al8 2.770136 1_544
Al19 Al8 2.770136 1_444
Al19 Al27 2.886929 1_445
Al19 Al27 2.886929 1_545
Al19 Ce2 3.246017 1_554
Al19 Ce1 3.246404 1_545
Al20 Fe3 2.516173 1_555
Al20 Fe3 2.516173 1_655
Al20 Al3 2.640619 1_555
Al20 Al25 2.686417 1_555
Al20 Al26 2.886698 1_555
Al20 Al26 2.886698 1_655
Al20 Al9 2.969639 1_555
Al20 Al30 2.974961 1_655
Al20 Al30 2.974961 1_555
Al20 Ce3 3.193543 1_655
Al20 Ce3 3.193543 1_555
Al21 Fe4 2.596320 1_555
Al21 Fe4 2.596320 1_655
Al21 Al5 2.695970 1_545
Al21 Al28 2.711056 1_555
Al21 Al24 2.803531 1_655
Al21 Al24 2.803531 1_555
Al21 Al4 3.052151 1_555
Al21 Al22 3.121568 1_555
Al21 Al22 3.121568 1_655
Al21 Ce0 3.135784 1_555
Al21 Ce0 3.135784 1_655
Al22 Fe5 2.393695 1_555
Al22 Fe4 2.534281 1_555
Al22 Fe1 2.549670 1_545
Al22 Al28 2.974917 1_455
Al22 Al28 2.974917 1_555
Al23 Fe3 2.319641 1_555
Al23 Fe6 2.369852 1_555
Al23 Al3 2.786432 1_555
Al23 Al3 2.786432 1_455
Al23 Al25 2.891658 1_455
Al23 Al25 2.891658 1_555
Al23 Ce1 3.207382 1_555
Al23 Ce0 3.297170 1_555
Al24 Fe0 2.319641 1_555
Al24 Fe4 2.369852 1_555
Al24 Al5 2.826704 1_545
Al24 Al5 2.826704 1_445
Al24 Al4 2.891658 1_555
Al24 Al4 2.891658 1_455
Al24 Ce0 3.207382 1_555
Al24 Ce1 3.297170 1_545
Al25 Fe3 2.502578 1_655
Al25 Fe3 2.502578 1_555
Al25 Al3 2.637060 1_555
Al25 Al5 2.726172 1_555
Al25 Al30 2.979562 1_555
Al25 Al30 2.979562 1_655
Al25 Ce1 3.182537 1_555
Al25 Ce1 3.182537 1_655
Al26 Fe3 2.315886 1_555
Al26 Fe5 2.316052 1_555
Al26 Al3 2.769962 1_555
Al26 Al3 2.769962 1_455
Al26 Al9 2.770136 1_555
Al26 Al9 2.770136 1_455
Al26 Al28 2.886929 1_455
Al26 Al28 2.886929 1_555
Al26 Ce3 3.246017 1_555
Al26 Ce0 3.246404 1_555
Al27 Fe2 2.515583 1_654
Al27 Fe2 2.515583 1_554
Al27 Al8 2.640755 1_554
Al27 Al29 2.974917 1_554
Al27 Al29 2.974917 1_654
Al27 Ce1 3.193746 1_555
Al27 Ce1 3.193746 1_655
Al28 Fe5 2.515583 1_555
Al28 Fe5 2.515583 1_655
Al28 Al9 2.640755 1_555
Al28 Al3 2.969699 1_555
Al28 Ce0 3.193746 1_555
Al28 Ce0 3.193746 1_655
Al29 Fe2 2.393695 1_555
Al29 Fe6 2.534281 1_556
Al29 Fe7 2.549670 1_555
Al30 Fe3 2.394657 1_555
Al30 Fe1 2.533450 1_555
Al30 Fe4 2.549973 1_565
Al31 Fe5 2.320122 1_555
Al31 Fe7 2.370415 1_555
Al31 Al9 2.786131 1_555
Al31 Al9 2.786131 1_455
Al31 Ce2 3.207391 1_555
Al31 Ce3 3.297043 1_555
