# generated using pymatgen
data_MgU2O6
_symmetry_space_group_name_H-M   'P 1'
_cell_length_a   6.42025019
_cell_length_b   6.42025019
_cell_length_c   6.55675625
_cell_angle_alpha   80.40494200
_cell_angle_beta   80.40494200
_cell_angle_gamma   120.25552072
_symmetry_Int_Tables_number   1
_chemical_formula_structural   MgU2O6
_chemical_formula_sum   'Mg2 U4 O12'
_cell_volume   219.99185596
_cell_formula_units_Z   2
loop_
 _symmetry_equiv_pos_site_id
 _symmetry_equiv_pos_as_xyz
  1  'x, y, z'
loop_
 _atom_site_type_symbol
 _atom_site_label
 _atom_site_symmetry_multiplicity
 _atom_site_fract_x
 _atom_site_fract_y
 _atom_site_fract_z
 _atom_site_occupancy
  Mg  Mg0  1  0.42231500  0.57768500  0.75000000  1
  Mg  Mg1  1  0.57768500  0.42231500  0.25000000  1
  U  U0  1  0.74561100  0.25438900  0.75000000  1
  U  U1  1  0.25438900  0.74561100  0.25000000  1
  U  U2  1  0.08395200  0.91604800  0.75000000  1
  U  U3  1  0.91604800  0.08395200  0.25000000  1
  O  O0  1  0.12720300  0.62245600  0.62327300  1
  O  O1  1  0.79891200  0.97059100  0.62087000  1
  O  O2  1  0.62245600  0.12720300  0.12327300  1
  O  O3  1  0.44819600  0.28096100  0.63305700  1
  O  O4  1  0.55180400  0.71903900  0.36694300  1
  O  O5  1  0.28096100  0.44819600  0.13305700  1
  O  O6  1  0.20108800  0.02940900  0.37913000  1
  O  O7  1  0.97059100  0.79891200  0.12087000  1
  O  O8  1  0.02940900  0.20108800  0.87913000  1
  O  O9  1  0.87279700  0.37754400  0.37672700  1
  O  O10  1  0.71903900  0.55180400  0.86694300  1
  O  O11  1  0.37754400  0.87279700  0.87672700  1
loop_
_geom_bond_atom_site_label_1
_geom_bond_atom_site_label_2
_geom_bond_distance
_geom_bond_site_symmetry_2
Mg0 O3 2.237901 1_555
Mg0 O10 2.237901 1_555
Mg0 O0 2.314505 1_555
Mg0 O11 2.314505 1_555
Mg0 O8 2.320663 1_555
Mg0 O1 2.320663 1_555
Mg0 O4 2.367848 1_555
Mg0 O5 2.367848 1_556
Mg1 O4 2.237901 1_555
Mg1 O5 2.237901 1_555
Mg1 O2 2.314505 1_555
Mg1 O9 2.314505 1_555
Mg1 O6 2.320663 1_555
Mg1 O7 2.320663 1_555
Mg1 O3 2.367848 1_555
Mg1 O10 2.367848 1_554
O0 U0 2.260410 1_455
O0 U2 2.300689 1_555
O0 U1 2.306520 1_555
O1 U0 2.280321 1_565
O1 U2 2.291716 1_655
O1 U3 2.292870 1_565
O2 U1 2.260410 1_545
O2 U3 2.300689 1_555
O2 U0 2.306520 1_554
O3 U2 2.197239 1_545
O3 U0 2.244080 1_555
O4 U3 2.197239 1_565
O4 U1 2.244080 1_555
O5 U3 2.197239 1_455
O5 U1 2.244080 1_555
O6 U1 2.280321 1_545
O6 U3 2.291716 1_455
O6 U2 2.292870 1_545
O7 U1 2.280321 1_655
O7 U3 2.291716 1_565
O7 U2 2.292870 1_654
O8 U0 2.280321 1_455
O8 U2 2.291716 1_545
O8 U3 2.292870 1_456
O9 U1 2.260410 1_655
O9 U3 2.300689 1_555
O9 U0 2.306520 1_555
O10 U2 2.197239 1_655
O10 U0 2.244080 1_555
O11 U0 2.260410 1_565
O11 U2 2.300689 1_555
O11 U1 2.306520 1_556
