# generated using pymatgen
data_Ba19(InN)9
_symmetry_space_group_name_H-M   'P 1'
_cell_length_a   8.05968700
_cell_length_b   10.27859767
_cell_length_c   29.50092075
_cell_angle_alpha   96.90027041
_cell_angle_beta   97.78787696
_cell_angle_gamma   89.95870016
_symmetry_Int_Tables_number   1
_chemical_formula_structural   Ba19(InN)9
_chemical_formula_sum   'Ba38 In18 N18'
_cell_volume   2403.54270719
_cell_formula_units_Z   2
loop_
 _symmetry_equiv_pos_site_id
 _symmetry_equiv_pos_as_xyz
  1  'x, y, z'
loop_
 _atom_site_type_symbol
 _atom_site_label
 _atom_site_symmetry_multiplicity
 _atom_site_fract_x
 _atom_site_fract_y
 _atom_site_fract_z
 _atom_site_occupancy
  Ba  Ba0  1  0.94273000  0.12748000  0.88298700  1
  Ba  Ba1  1  0.28998200  0.18937300  0.12746900  1
  Ba  Ba2  1  0.75334700  0.99611100  0.50466600  1
  Ba  Ba3  1  0.78597400  0.36092900  0.57465700  1
  Ba  Ba4  1  0.86217200  0.30648300  0.71755800  1
  Ba  Ba5  1  0.95319700  0.94652100  0.38097000  1
  Ba  Ba6  1  0.05734100  0.87155000  0.11734700  1
  Ba  Ba7  1  0.33872400  0.95958900  0.23449500  1
  Ba  Ba8  1  0.21283500  0.63901700  0.42513900  1
  Ba  Ba9  1  0.04815300  0.05382600  0.61890200  1
  Ba  Ba10  1  0.98699800  0.32188400  0.46369000  1
  Ba  Ba11  1  0.71043400  0.81025100  0.87223600  1
  Ba  Ba12  1  0.66141500  0.04062300  0.76542600  1
  Ba  Ba13  1  0.82814000  0.79654300  0.65685200  1
  Ba  Ba14  1  0.42870200  0.94409300  0.38061700  1
  Ba  Ba15  1  0.16309800  0.80916300  0.87228200  1
  Ba  Ba16  1  0.22859000  0.99911300  0.00004000  1
  Ba  Ba17  1  0.68023400  0.41835600  0.83714700  1
  Ba  Ba18  1  0.57237900  0.05505100  0.61932200  1
  Ba  Ba19  1  0.83793400  0.19032900  0.12775500  1
  Ba  Ba20  1  0.77111400  0.99977700  0.00005100  1
  Ba  Ba21  1  0.32262500  0.58083400  0.16267200  1
  Ba  Ba22  1  0.88525300  0.67198500  0.77059600  1
  Ba  Ba23  1  0.10666600  0.03757200  0.76492000  1
  Ba  Ba24  1  0.84210800  0.58123900  0.16262100  1
  Ba  Ba25  1  0.02408600  0.37308000  0.04801900  1
  Ba  Ba26  1  0.71474800  0.65039700  0.42638200  1
  Ba  Ba27  1  0.52426400  0.67894400  0.53579800  1
  Ba  Ba28  1  0.01214100  0.67678800  0.53593900  1
  Ba  Ba29  1  0.28617500  0.34973500  0.57310500  1
  Ba  Ba30  1  0.17439500  0.20293900  0.34289800  1
  Ba  Ba31  1  0.16003500  0.41762500  0.83739700  1
  Ba  Ba32  1  0.47613400  0.32352700  0.46373000  1
  Ba  Ba33  1  0.11594300  0.32743400  0.22921900  1
  Ba  Ba34  1  0.24893900  0.00417400  0.49524300  1
  Ba  Ba35  1  0.97563800  0.62619500  0.95174300  1
  Ba  Ba36  1  0.89272600  0.96210400  0.23515700  1
  Ba  Ba37  1  0.13978700  0.69334500  0.28227300  1
  In  In0  1  0.64176700  0.65117700  0.27726500  1
  In  In1  1  0.33200300  0.66647500  0.04453700  1
  In  In2  1  0.66610200  0.22014500  0.33211600  1
  In  In3  1  0.33620500  0.77987000  0.66743800  1
  In  In4  1  0.28720300  0.33200100  0.95547400  1
  In  In5  1  0.71184200  0.66537100  0.04430000  1
  In  In6  1  0.54130000  0.53568100  0.67423900  1
  In  In7  1  0.66773100  0.33408300  0.95499900  1
  In  In8  1  0.13426800  0.53725500  0.67410400  1
  In  In9  1  0.86836500  0.46175600  0.32546200  1
  In  In10  1  0.61912900  0.33930200  0.23567800  1
  In  In11  1  0.38185200  0.66122600  0.76397400  1
  In  In12  1  0.47426800  0.59631300  0.95192900  1
  In  In13  1  0.46031300  0.46425500  0.32547200  1
  In  In14  1  0.36186000  0.34959700  0.72320200  1
  In  In15  1  0.44611700  0.13040500  0.89057900  1
  In  In16  1  0.55505200  0.86668900  0.11018700  1
  In  In17  1  0.52315600  0.40186100  0.04754900  1
  N  N0  1  0.09242000  0.08957100  0.18614900  1
  N  N1  1  0.47370200  0.80889500  0.45385500  1
  N  N2  1  0.90327900  0.25392300  0.80426900  1
  N  N3  1  0.07325500  0.39762800  0.14435700  1
  N  N4  1  0.01806000  0.19098000  0.54591600  1
  N  N5  1  0.52674300  0.18992700  0.54610000  1
  N  N6  1  0.75138000  0.51348200  0.50630200  1
  N  N7  1  0.02898600  0.10830300  0.05872600  1
  N  N8  1  0.98260200  0.80915900  0.45459700  1
  N  N9  1  0.15213400  0.94320200  0.30724600  1
  N  N10  1  0.90709800  0.90989000  0.81382200  1
  N  N11  1  0.24501400  0.48531700  0.49300400  1
  N  N12  1  0.84849900  0.05656100  0.69246500  1
  N  N13  1  0.92897900  0.60141700  0.85540300  1
  N  N14  1  0.09883400  0.74481500  0.19554600  1
  N  N15  1  0.97068600  0.89187800  0.94106800  1
  N  N16  1  0.20972800  0.11634600  0.41937200  1
  N  N17  1  0.79027400  0.88198300  0.58024900  1
loop_
_geom_bond_atom_site_label_1
_geom_bond_atom_site_label_2
_geom_bond_distance
_geom_bond_site_symmetry_2
Ba0 N2 2.776251 1_555
Ba0 N10 2.827269 1_545
Ba0 N15 3.121328 1_545
Ba0 In4 3.744253 1_655
Ba0 In7 3.757729 1_555
Ba0 In15 4.032835 1_655
Ba0 In15 4.038885 1_555
Ba1 N7 2.769898 1_555
Ba1 N0 2.785773 1_555
Ba1 N3 2.802784 1_555
Ba1 In16 3.962760 1_545
Ba1 In10 4.016422 1_555
Ba1 In17 4.037930 1_555
Ba2 N17 2.623872 1_555
Ba2 N4 2.959984 1_665
Ba2 N5 2.968677 1_565
Ba2 N8 3.056295 1_555
Ba2 N1 3.070393 1_555
Ba3 N6 2.685078 1_555
Ba3 N5 2.708659 1_555
Ba3 N4 2.708967 1_655
Ba3 In6 4.005317 1_555
Ba3 In8 4.033562 1_655
Ba4 N12 2.584664 1_555
Ba4 N2 2.654692 1_555
Ba4 In8 3.684985 1_655
Ba4 In6 3.700015 1_555
Ba4 In14 4.030707 1_655
Ba4 In14 4.079911 1_555
Ba5 N8 2.713733 1_555
Ba5 N16 2.738700 1_665
Ba5 N9 2.868698 1_655
Ba5 In2 3.924548 1_565
Ba6 N14 2.764619 1_555
Ba6 N0 2.823832 1_565
Ba6 N7 3.141357 1_565
Ba6 In1 3.761825 1_555
Ba6 In5 3.764830 1_455
Ba6 In16 4.025145 1_455
Ba6 In16 4.045394 1_555
Ba7 N0 2.728856 1_565
Ba7 N9 2.803243 1_555
Ba7 N14 2.954053 1_555
Ba7 In0 4.209680 1_555
Ba7 In16 4.276574 1_555
Ba7 In2 4.304177 1_565
Ba8 N11 2.681437 1_555
Ba8 N8 2.706298 1_455
Ba8 N1 2.711870 1_555
Ba8 In13 4.020628 1_555
Ba8 In9 4.022678 1_455
Ba9 N4 2.696225 1_555
Ba9 N17 2.760252 1_445
Ba9 N12 2.869059 1_455
Ba9 In3 3.927819 1_545
Ba10 N11 2.657599 1_655
Ba10 N4 2.894215 1_655
Ba10 N6 3.018543 1_555
Ba10 N16 3.059742 1_655
Ba10 In2 4.376869 1_555
Ba11 N15 2.768730 1_555
Ba11 N10 2.774452 1_555
Ba11 N13 2.816411 1_555
Ba11 In15 3.941373 1_565
Ba11 In11 4.012264 1_555
Ba11 In12 4.055473 1_555
Ba12 N10 2.730560 1_545
Ba12 N12 2.810331 1_555
Ba12 N2 2.952440 1_555
Ba12 In14 4.194146 1_555
Ba12 In15 4.290660 1_555
Ba12 In3 4.301730 1_545
Ba13 N17 2.502182 1_555
Ba13 N12 2.748243 1_565
Ba13 In8 3.664090 1_655
Ba13 In6 3.668491 1_555
Ba13 In3 4.024460 1_555
Ba13 In3 4.069389 1_655
Ba14 N1 2.690565 1_555
Ba14 N16 2.759089 1_565
Ba14 N9 2.888175 1_555
Ba14 In2 3.935038 1_565
Ba15 N15 2.771644 1_455
Ba15 N10 2.786568 1_455
Ba15 N13 2.804244 1_455
Ba15 In15 3.955515 1_565
Ba15 In11 3.998162 1_555
Ba15 In12 4.028320 1_555
Ba16 N15 2.669220 1_454
Ba16 N7 2.670275 1_565
Ba16 In1 3.858186 1_555
Ba16 In4 3.861447 1_564
Ba16 In15 4.231716 1_564
Ba16 In16 4.251485 1_555
Ba17 N2 2.665189 1_555
Ba17 N13 2.705381 1_555
Ba17 In7 3.696879 1_555
Ba17 In14 3.934149 1_555
Ba17 In11 4.068703 1_555
Ba17 In15 4.091490 1_555
Ba17 In12 4.195042 1_555
Ba18 N5 2.688275 1_555
Ba18 N17 2.762008 1_545
Ba18 N12 2.880879 1_555
Ba18 In3 3.917035 1_545
Ba19 N7 2.768444 1_655
Ba19 N0 2.777617 1_655
Ba19 N3 2.807207 1_655
Ba19 In16 3.976079 1_545
Ba19 In10 3.992204 1_555
Ba19 In17 4.045221 1_555
Ba20 N7 2.669191 1_665
Ba20 N15 2.671565 1_554
Ba20 In5 3.872500 1_555
Ba20 In7 3.880886 1_564
Ba20 In15 4.223504 1_564
Ba20 In16 4.250327 1_555
Ba21 N14 2.666763 1_555
Ba21 N3 2.710010 1_555
Ba21 In1 3.706087 1_555
Ba21 In0 3.952990 1_555
Ba21 In10 4.048967 1_555
Ba21 In16 4.052988 1_555
Ba21 In17 4.184825 1_555
Ba22 N10 2.612908 1_555
Ba22 N13 2.665796 1_555
Ba22 In6 3.826382 1_555
Ba22 In8 3.827008 1_655
Ba22 In11 4.034344 1_655
Ba22 In11 4.036379 1_555
Ba23 N10 2.734520 1_445
Ba23 N12 2.798352 1_455
Ba23 N2 2.978257 1_455
Ba23 In14 4.204163 1_555
Ba23 In3 4.279426 1_545
Ba23 In15 4.306152 1_555
Ba24 N14 2.668252 1_655
Ba24 N3 2.710235 1_655
Ba24 In5 3.710126 1_555
Ba24 In0 3.931506 1_555
Ba24 In10 4.050040 1_555
Ba24 In16 4.057680 1_555
Ba24 In17 4.203539 1_555
Ba25 N7 2.776889 1_555
Ba25 N3 2.796536 1_555
Ba25 In4 3.663329 1_554
Ba25 In7 3.679883 1_454
Ba25 In5 3.919796 1_455
Ba25 In1 3.926596 1_555
Ba25 In17 4.035444 1_555
Ba25 In17 4.046221 1_455
Ba26 N1 2.681447 1_555
Ba26 N8 2.684769 1_555
Ba26 N6 2.869576 1_555
Ba26 In13 3.702790 1_555
Ba26 In9 3.710099 1_555
Ba27 N6 2.659300 1_555
Ba27 N1 2.881335 1_555
Ba27 N11 3.041866 1_555
Ba27 N17 3.042776 1_555
Ba27 In3 4.368068 1_555
Ba28 N6 2.674582 1_455
Ba28 N8 2.880188 1_455
Ba28 N11 3.006699 1_555
Ba28 N17 3.052913 1_455
Ba28 In3 4.389087 1_555
Ba29 N5 2.681747 1_555
Ba29 N4 2.682630 1_555
Ba29 N11 2.866067 1_555
Ba29 In8 3.700960 1_555
Ba29 In6 3.708830 1_555
Ba30 N16 2.504213 1_555
Ba30 N9 2.746038 1_545
Ba30 In9 3.660711 1_455
Ba30 In13 3.667525 1_555
Ba30 In2 4.024178 1_555
Ba30 In2 4.071190 1_455
Ba31 N2 2.670292 1_455
Ba31 N13 2.709388 1_455
Ba31 In4 3.704964 1_555
Ba31 In14 3.924485 1_555
Ba31 In11 4.064037 1_555
Ba31 In15 4.076302 1_555
Ba31 In12 4.171360 1_555
Ba32 N11 2.658493 1_555
Ba32 N5 2.913648 1_555
Ba32 N6 2.995449 1_555
Ba32 N16 3.071335 1_555
Ba32 In2 4.377943 1_555
Ba33 N0 2.610910 1_555
Ba33 N3 2.665840 1_555
Ba33 In9 3.812965 1_455
Ba33 In13 3.828118 1_555
Ba33 In10 4.035362 1_555
Ba33 In10 4.035470 1_455
Ba34 N16 2.620478 1_555
Ba34 N8 2.965590 1_445
Ba34 N1 2.967583 1_545
Ba34 N5 3.052373 1_555
Ba34 N4 3.072976 1_555
Ba35 N15 2.785926 1_555
Ba35 N13 2.796511 1_555
Ba35 In5 3.666896 1_556
Ba35 In1 3.676051 1_656
Ba35 In7 3.915022 1_555
Ba35 In4 3.931402 1_655
Ba35 In12 4.029613 1_655
Ba35 In12 4.053557 1_555
Ba36 N0 2.736070 1_665
Ba36 N9 2.797403 1_655
Ba36 N14 3.001136 1_655
Ba36 In0 4.182363 1_555
Ba36 In2 4.258948 1_565
Ba36 In16 4.286778 1_555
Ba37 N9 2.583426 1_555
Ba37 N14 2.651604 1_555
Ba37 In9 3.683320 1_455
Ba37 In13 3.696288 1_555
Ba37 In0 4.018379 1_455
Ba37 In0 4.089288 1_555
In0 In13 3.012797 1_555
In0 In9 3.017304 1_555
In0 In10 3.287819 1_555
In1 In16 3.053161 1_555
In1 In5 3.062348 1_555
In1 In12 3.110160 1_554
In1 In17 3.129540 1_555
In2 In9 3.012157 1_555
In3 In6 3.016208 1_555
In3 In8 3.019398 1_555
In4 In7 3.068969 1_555
In6 In8 3.280044 1_555
In10 In2 3.206579 1_555
In10 In9 3.224228 1_555
In10 In13 3.225562 1_555
In11 In3 3.206706 1_555
In11 In8 3.223783 1_555
In11 In6 3.228538 1_555
In11 In14 3.279497 1_555
In12 In7 3.117489 1_555
In12 In5 3.117544 1_556
In12 In4 3.127575 1_555
In13 In2 3.018120 1_555
In13 In9 3.288893 1_555
In14 In6 3.011705 1_555
In14 In8 3.021484 1_555
In15 In4 3.050706 1_555
In15 In7 3.051933 1_555
In16 In5 3.058151 1_555
In17 In4 3.105437 1_554
In17 In7 3.114753 1_554
In17 In5 3.125017 1_555
