# generated using pymatgen
data_ZrAsPd
_symmetry_space_group_name_H-M   'P 1'
_cell_length_a   3.90649303
_cell_length_b   6.76291413
_cell_length_c   19.59287482
_cell_angle_alpha   90.00000000
_cell_angle_beta   90.00000000
_cell_angle_gamma   90.00000000
_symmetry_Int_Tables_number   1
_chemical_formula_structural   ZrAsPd
_chemical_formula_sum   'Zr10 As10 Pd10'
_cell_volume   517.62958536
_cell_formula_units_Z   10
loop_
 _symmetry_equiv_pos_site_id
 _symmetry_equiv_pos_as_xyz
  1  'x, y, z'
loop_
 _atom_site_type_symbol
 _atom_site_label
 _atom_site_symmetry_multiplicity
 _atom_site_fract_x
 _atom_site_fract_y
 _atom_site_fract_z
 _atom_site_occupancy
  Zr  Zr0  1  0.50000000  0.97167619  0.68283008  1
  Zr  Zr1  1  -0.00000000  0.15462655  0.00000000  1
  Zr  Zr2  1  -0.00000000  0.54346875  0.87775875  1
  Zr  Zr3  1  0.50000000  0.45653125  0.37775875  1
  Zr  Zr4  1  0.50000000  0.45653125  0.62224125  1
  Zr  Zr5  1  -0.00000000  0.54346875  0.12224125  1
  Zr  Zr6  1  0.00000000  0.02832381  0.18283008  1
  Zr  Zr7  1  0.50000000  0.84537345  0.50000000  1
  Zr  Zr8  1  0.00000000  0.02832381  0.81716992  1
  Zr  Zr9  1  0.50000000  0.97167619  0.31716992  1
  As  As0  1  0.00000000  0.75651330  0.40149973  1
  As  As1  1  0.50000000  0.25245333  0.50000000  1
  As  As2  1  0.50000000  0.24348670  0.09850027  1
  As  As3  1  -0.00000000  0.25999090  0.30305779  1
  As  As4  1  0.50000000  0.74000910  0.19694221  1
  As  As5  1  0.50000000  0.74000910  0.80305779  1
  As  As6  1  0.50000000  0.24348670  0.90149973  1
  As  As7  1  0.00000000  0.74754667  0.00000000  1
  As  As8  1  -0.00000000  0.25999090  0.69694221  1
  As  As9  1  0.00000000  0.75651330  0.59850027  1
  Pd  Pd0  1  -0.00000000  0.11879107  0.42376487  1
  Pd  Pd1  1  0.50000000  0.35228027  0.22153317  1
  Pd  Pd2  1  0.50000000  0.48859271  0.00000000  1
  Pd  Pd3  1  0.50000000  0.35228027  0.77846683  1
  Pd  Pd4  1  0.00000000  0.64771973  0.27846683  1
  Pd  Pd5  1  0.00000000  0.64771973  0.72153317  1
  Pd  Pd6  1  0.50000000  0.88120893  0.07623513  1
  Pd  Pd7  1  0.50000000  0.88120893  0.92376487  1
  Pd  Pd8  1  0.00000000  0.11879107  0.57623513  1
  Pd  Pd9  1  -0.00000000  0.51140729  0.50000000  1
loop_
_geom_bond_atom_site_label_1
_geom_bond_atom_site_label_2
_geom_bond_distance
_geom_bond_site_symmetry_2
As0 Pd0 2.488587 1_565
As0 Pd4 2.520354 1_555
As0 Pd9 2.544065 1_555
As0 Zr7 2.810844 1_555
As0 Zr7 2.810844 1_455
As0 Zr3 2.854361 1_455
As0 Zr3 2.854361 1_555
As0 Zr9 2.943220 1_555
As0 Zr9 2.943220 1_455
As1 Pd0 2.619795 1_655
As1 Pd0 2.619795 1_555
As1 Pd8 2.619795 1_655
As1 Pd8 2.619795 1_555
As1 Pd9 2.623388 1_655
As1 Pd9 2.623388 1_555
As1 Zr7 2.753046 1_545
As1 Zr4 2.764262 1_555
As1 Zr3 2.764262 1_555
As2 Pd6 2.488587 1_545
As2 Pd1 2.520354 1_555
As2 Pd2 2.544065 1_555
As2 Zr1 2.810844 1_655
As2 Zr1 2.810844 1_555
As2 Zr5 2.854361 1_655
As2 Zr5 2.854361 1_555
As2 Zr6 2.943220 1_655
As2 Zr6 2.943220 1_555
As3 Pd0 2.550509 1_555
As3 Pd1 2.599250 1_455
As3 Pd1 2.599250 1_555
As3 Pd4 2.666074 1_555
As3 Zr9 2.773721 1_445
As3 Zr9 2.773721 1_545
As3 Zr3 2.779218 1_455
As3 Zr3 2.779218 1_555
As3 Zr6 2.829058 1_555
As4 Pd6 2.550509 1_555
As4 Pd4 2.599250 1_555
As4 Pd4 2.599250 1_655
As4 Pd1 2.666074 1_555
As4 Zr6 2.773721 1_565
As4 Zr6 2.773721 1_665
As4 Zr5 2.779218 1_555
As4 Zr5 2.779218 1_655
As4 Zr9 2.829058 1_555
As5 Pd7 2.550509 1_555
As5 Pd5 2.599250 1_555
As5 Pd5 2.599250 1_655
As5 Pd3 2.666074 1_555
As5 Zr8 2.773721 1_565
As5 Zr8 2.773721 1_665
As5 Zr2 2.779218 1_655
As5 Zr2 2.779218 1_555
As5 Zr0 2.829058 1_555
As6 Pd7 2.488587 1_545
As6 Pd3 2.520354 1_555
As6 Pd2 2.544065 1_556
As6 Zr1 2.810844 1_556
As6 Zr1 2.810844 1_656
As6 Zr2 2.854361 1_555
As6 Zr2 2.854361 1_655
As6 Zr8 2.943220 1_555
As6 Zr8 2.943220 1_655
As7 Pd6 2.619795 1_555
As7 Pd6 2.619795 1_455
As7 Pd7 2.619795 1_454
As7 Pd7 2.619795 1_554
As7 Pd2 2.623388 1_455
As7 Pd2 2.623388 1_555
As7 Zr1 2.753046 1_565
As7 Zr2 2.764262 1_554
As7 Zr5 2.764262 1_555
As8 Pd8 2.550509 1_555
As8 Pd3 2.599250 1_555
As8 Pd3 2.599250 1_455
As8 Pd5 2.666074 1_555
As8 Zr0 2.773721 1_545
As8 Zr0 2.773721 1_445
As8 Zr4 2.779218 1_555
As8 Zr4 2.779218 1_455
As8 Zr8 2.829058 1_555
As9 Pd8 2.488587 1_565
As9 Pd5 2.520354 1_555
As9 Pd9 2.544065 1_555
As9 Zr7 2.810844 1_555
As9 Zr7 2.810844 1_455
As9 Zr4 2.854361 1_555
As9 Zr4 2.854361 1_455
As9 Zr0 2.943220 1_455
As9 Zr0 2.943220 1_555
Pd0 Zr9 3.027687 1_445
Pd0 Zr9 3.027687 1_545
Pd0 Zr7 3.076586 1_445
Pd0 Zr7 3.076586 1_545
Pd0 Zr3 3.137647 1_455
Pd0 Zr3 3.137647 1_555
Pd1 Pd4 3.008593 1_555
Pd1 Pd4 3.008593 1_655
Pd1 Zr6 3.031534 1_655
Pd1 Zr6 3.031534 1_555
Pd1 Zr5 3.044936 1_655
Pd1 Zr5 3.044936 1_555
Pd1 Zr3 3.141057 1_555
Pd1 Zr9 3.183797 1_545
Pd2 Zr1 2.986030 1_655
Pd2 Zr1 2.986030 1_555
Pd2 Zr2 3.112749 1_554
Pd2 Zr5 3.112749 1_655
Pd2 Zr2 3.112749 1_654
Pd2 Zr5 3.112749 1_555
Pd3 Pd5 3.008593 1_655
Pd3 Pd5 3.008593 1_555
Pd3 Zr8 3.031534 1_555
Pd3 Zr8 3.031534 1_655
Pd3 Zr2 3.044936 1_555
Pd3 Zr2 3.044936 1_655
Pd3 Zr4 3.141057 1_555
Pd3 Zr0 3.183797 1_545
Pd4 Zr9 3.031534 1_555
Pd4 Zr9 3.031534 1_455
Pd4 Zr3 3.044936 1_555
Pd4 Zr3 3.044936 1_455
Pd4 Zr5 3.141057 1_555
Pd4 Zr6 3.183797 1_565
Pd5 Zr0 3.031534 1_455
Pd5 Zr0 3.031534 1_555
Pd5 Zr4 3.044936 1_455
Pd5 Zr4 3.044936 1_555
Pd5 Zr2 3.141057 1_555
Pd5 Zr8 3.183797 1_565
Pd6 Zr6 3.027687 1_565
Pd6 Zr6 3.027687 1_665
Pd6 Zr1 3.076586 1_565
Pd6 Zr1 3.076586 1_665
Pd6 Zr5 3.137647 1_555
Pd6 Zr5 3.137647 1_655
Pd7 Zr8 3.027687 1_665
Pd7 Zr8 3.027687 1_565
Pd7 Zr1 3.076586 1_666
Pd7 Zr1 3.076586 1_566
Pd7 Zr2 3.137647 1_655
Pd7 Zr2 3.137647 1_555
Pd8 Zr0 3.027687 1_445
Pd8 Zr0 3.027687 1_545
Pd8 Zr7 3.076586 1_545
Pd8 Zr7 3.076586 1_445
Pd8 Zr4 3.137647 1_455
Pd8 Zr4 3.137647 1_555
Pd9 Zr7 2.986030 1_455
Pd9 Zr7 2.986030 1_555
Pd9 Zr4 3.112749 1_455
Pd9 Zr4 3.112749 1_555
Pd9 Zr3 3.112749 1_455
Pd9 Zr3 3.112749 1_555
