# generated using pymatgen
data_KCu3Ag(MoO4)4
_symmetry_space_group_name_H-M   'P 1'
_cell_length_a   14.75295000
_cell_length_b   5.11432700
_cell_length_c   20.06213917
_cell_angle_alpha   86.43688806
_cell_angle_beta   90.00000000
_cell_angle_gamma   90.00000000
_symmetry_Int_Tables_number   1
_chemical_formula_structural   KCu3Ag(MoO4)4
_chemical_formula_sum   'K4 Cu12 Ag4 Mo16 O64'
_cell_volume   1510.79060434
_cell_formula_units_Z   4
loop_
 _symmetry_equiv_pos_site_id
 _symmetry_equiv_pos_as_xyz
  1  'x, y, z'
loop_
 _atom_site_type_symbol
 _atom_site_label
 _atom_site_symmetry_multiplicity
 _atom_site_fract_x
 _atom_site_fract_y
 _atom_site_fract_z
 _atom_site_occupancy
  K  K0  1  0.02794900  0.80781500  0.09923500  1
  K  K1  1  0.52794900  0.19218500  0.40076500  1
  K  K2  1  0.47205100  0.80781500  0.59923500  1
  K  K3  1  0.97205100  0.19218500  0.90076500  1
  Cu  Cu0  1  0.29428200  0.22639600  0.32749800  1
  Cu  Cu1  1  0.05999600  0.29138800  0.61259600  1
  Cu  Cu2  1  0.79428200  0.77360400  0.17250200  1
  Cu  Cu3  1  0.32459800  0.80683000  0.07194100  1
  Cu  Cu4  1  0.94000400  0.70861200  0.38740400  1
  Cu  Cu5  1  0.20571800  0.22639600  0.82749800  1
  Cu  Cu6  1  0.82459800  0.19317000  0.42805900  1
  Cu  Cu7  1  0.17540200  0.80683000  0.57194100  1
  Cu  Cu8  1  0.44000400  0.29138800  0.11259600  1
  Cu  Cu9  1  0.70571800  0.77360400  0.67250200  1
  Cu  Cu10  1  0.67540200  0.19317000  0.92805900  1
  Cu  Cu11  1  0.55999600  0.70861200  0.88740400  1
  Ag  Ag0  1  0.13814300  0.72504900  0.29106700  1
  Ag  Ag1  1  0.36185700  0.72504900  0.79106700  1
  Ag  Ag2  1  0.63814300  0.27495100  0.20893300  1
  Ag  Ag3  1  0.86185700  0.27495100  0.70893300  1
  Mo  Mo0  1  0.22996500  0.27870100  0.17048700  1
  Mo  Mo1  1  0.90009800  0.24952400  0.27120100  1
  Mo  Mo2  1  0.58438800  0.80670800  0.07035600  1
  Mo  Mo3  1  0.32206300  0.67653500  0.43965600  1
  Mo  Mo4  1  0.40009800  0.75047600  0.22879900  1
  Mo  Mo5  1  0.59990200  0.24952400  0.77120100  1
  Mo  Mo6  1  0.72996500  0.72129900  0.32951300  1
  Mo  Mo7  1  0.82206300  0.32346500  0.06034400  1
  Mo  Mo8  1  0.67793700  0.32346500  0.56034400  1
  Mo  Mo9  1  0.91561200  0.80670800  0.57035600  1
  Mo  Mo10  1  0.08438800  0.19329200  0.42964400  1
  Mo  Mo11  1  0.09990200  0.75047600  0.72879900  1
  Mo  Mo12  1  0.41561200  0.19329200  0.92964400  1
  Mo  Mo13  1  0.17793700  0.67653500  0.93965600  1
  Mo  Mo14  1  0.77003500  0.72129900  0.82951300  1
  Mo  Mo15  1  0.27003500  0.27870100  0.67048700  1
  O  O0  1  0.81098600  0.92495400  0.88974500  1
  O  O1  1  0.35705000  0.50691200  0.68173500  1
  O  O2  1  0.18901400  0.07504600  0.11025500  1
  O  O3  1  0.83543900  0.61840500  0.61834800  1
  O  O4  1  0.62829300  0.01648200  0.84849700  1
  O  O5  1  0.87170700  0.01648200  0.34849700  1
  O  O6  1  0.01562900  0.60760000  0.56213900  1
  O  O7  1  0.75311000  0.37559300  0.48956200  1
  O  O8  1  0.98437100  0.39240000  0.43786100  1
  O  O9  1  0.12829300  0.98351800  0.65150300  1
  O  O10  1  0.23825700  0.06867200  0.24946800  1
  O  O11  1  0.00647400  0.55353000  0.71036200  1
  O  O12  1  0.81216700  0.46469400  0.23293000  1
  O  O13  1  0.76174300  0.93132800  0.75053200  1
  O  O14  1  0.16456100  0.38159500  0.38165200  1
  O  O15  1  0.57587200  0.19171600  0.53209200  1
  O  O16  1  0.92412800  0.19171600  0.03209200  1
  O  O17  1  0.55321800  0.09811900  0.11370900  1
  O  O18  1  0.26847400  0.90475000  0.37954300  1
  O  O19  1  0.76847400  0.09525000  0.12045700  1
  O  O20  1  0.73825700  0.93132800  0.25053200  1
  O  O21  1  0.31098600  0.07504600  0.61025500  1
  O  O22  1  0.67110600  0.51190800  0.86655600  1
  O  O23  1  0.49352600  0.55353000  0.21036200  1
  O  O24  1  0.64428300  0.62509600  0.59833800  1
  O  O25  1  0.82889400  0.51190800  0.36655600  1
  O  O26  1  0.44678200  0.90188100  0.88629100  1
  O  O27  1  0.37170700  0.98351800  0.15150300  1
  O  O28  1  0.85705000  0.49308800  0.81826500  1
  O  O29  1  0.17110600  0.48809200  0.63344400  1
  O  O30  1  0.07587200  0.80828400  0.96790800  1
  O  O31  1  0.42412800  0.80828400  0.46790800  1
  O  O32  1  0.18783300  0.53530600  0.76707000  1
  O  O33  1  0.85571700  0.62509600  0.09833800  1
  O  O34  1  0.05321800  0.90188100  0.38629100  1
  O  O35  1  0.32889400  0.48809200  0.13344400  1
  O  O36  1  0.25311000  0.62440700  0.01043800  1
  O  O37  1  0.94678200  0.09811900  0.61370900  1
  O  O38  1  0.35571700  0.37490400  0.40166200  1
  O  O39  1  0.73152600  0.09525000  0.62045700  1
  O  O40  1  0.06150000  0.95698600  0.78939200  1
  O  O41  1  0.24689000  0.62440700  0.51043800  1
  O  O42  1  0.74689000  0.37559300  0.98956200  1
  O  O43  1  0.93850000  0.04301400  0.21060800  1
  O  O44  1  0.31216700  0.53530600  0.26707000  1
  O  O45  1  0.14428300  0.37490400  0.90166200  1
  O  O46  1  0.33543900  0.38159500  0.88165200  1
  O  O47  1  0.14295000  0.50691200  0.18173500  1
  O  O48  1  0.66456100  0.61840500  0.11834800  1
  O  O49  1  0.99352600  0.44647000  0.28963800  1
  O  O50  1  0.68901400  0.92495400  0.38974500  1
  O  O51  1  0.68783300  0.46469400  0.73293000  1
  O  O52  1  0.56150000  0.04301400  0.71060800  1
  O  O53  1  0.23152600  0.90475000  0.87954300  1
  O  O54  1  0.51562900  0.39240000  0.93786100  1
  O  O55  1  0.12662400  0.09617500  0.51271200  1
  O  O56  1  0.64295000  0.49308800  0.31826500  1
  O  O57  1  0.43850000  0.95698600  0.28939200  1
  O  O58  1  0.50647400  0.44647000  0.78963800  1
  O  O59  1  0.87337600  0.90382500  0.48728800  1
  O  O60  1  0.26174300  0.06867200  0.74946800  1
  O  O61  1  0.48437100  0.60760000  0.06213900  1
  O  O62  1  0.62662400  0.90382500  0.98728800  1
  O  O63  1  0.37337600  0.09617500  0.01271200  1
loop_
_geom_bond_atom_site_label_1
_geom_bond_atom_site_label_2
_geom_bond_distance
_geom_bond_site_symmetry_2
K0 O33 2.707767 1_455
K0 O30 2.727769 1_554
K0 O2 2.756914 1_565
K0 O47 2.769400 1_555
K0 O16 2.772487 1_465
K0 O43 2.918030 1_465
K1 O38 2.707767 1_555
K1 O15 2.727769 1_555
K1 O50 2.756914 1_545
K1 O56 2.769400 1_555
K1 O31 2.772487 1_545
K1 O57 2.918030 1_545
K2 O24 2.707767 1_555
K2 O31 2.727769 1_555
K2 O21 2.756914 1_565
K2 O1 2.769400 1_555
K2 O15 2.772487 1_565
K2 O52 2.918030 1_565
K3 O45 2.707767 1_655
K3 O16 2.727769 1_556
K3 O0 2.756914 1_545
K3 O28 2.769400 1_555
K3 O30 2.772487 1_645
K3 O40 2.918030 1_645
Cu0 O18 1.930732 1_545
Cu0 O38 1.937166 1_555
Cu0 O44 1.948652 1_555
Cu0 O10 1.985304 1_555
Cu0 O14 2.362219 1_555
Cu0 O57 2.672208 1_545
Cu1 O37 1.940225 1_455
Cu1 O6 1.965966 1_555
Cu1 O29 1.981481 1_555
Cu1 O9 1.987695 1_545
Cu1 O55 2.495438 1_555
Cu1 O11 2.568039 1_555
Cu2 O19 1.930732 1_565
Cu2 O33 1.937166 1_555
Cu2 O12 1.948652 1_555
Cu2 O20 1.985304 1_555
Cu2 O48 2.362219 1_555
Cu2 O43 2.672208 1_565
Cu3 O36 1.910050 1_555
Cu3 O63 1.975114 1_565
Cu3 O35 1.983381 1_555
Cu3 O27 2.006657 1_555
Cu3 O2 2.569949 1_565
Cu3 O61 2.580275 1_555
Cu4 O34 1.940225 1_655
Cu4 O8 1.965966 1_555
Cu4 O25 1.981481 1_555
Cu4 O5 1.987695 1_565
Cu4 O59 2.495438 1_555
Cu4 O49 2.568039 1_555
Cu5 O53 1.930732 1_545
Cu5 O45 1.937166 1_555
Cu5 O32 1.948652 1_555
Cu5 O60 1.985304 1_555
Cu5 O46 2.362219 1_555
Cu5 O40 2.672208 1_545
Cu6 O7 1.910050 1_555
Cu6 O59 1.975114 1_545
Cu6 O25 1.983381 1_555
Cu6 O5 2.006657 1_555
Cu6 O50 2.569949 1_545
Cu6 O8 2.580275 1_555
Cu7 O41 1.910050 1_555
Cu7 O55 1.975114 1_565
Cu7 O29 1.983381 1_555
Cu7 O9 2.006657 1_555
Cu7 O21 2.569949 1_565
Cu7 O6 2.580275 1_555
Cu8 O17 1.940225 1_555
Cu8 O61 1.965966 1_555
Cu8 O35 1.981481 1_555
Cu8 O27 1.987695 1_545
Cu8 O63 2.495438 1_555
Cu8 O23 2.568039 1_555
Cu9 O39 1.930732 1_565
Cu9 O24 1.937166 1_555
Cu9 O51 1.948652 1_555
Cu9 O13 1.985304 1_555
Cu9 O3 2.362219 1_555
Cu9 O52 2.672208 1_565
Cu10 O42 1.910050 1_555
Cu10 O62 1.975114 1_545
Cu10 O22 1.983381 1_555
Cu10 O4 2.006657 1_555
Cu10 O0 2.569949 1_545
Cu10 O54 2.580275 1_555
Cu11 O26 1.940225 1_555
Cu11 O54 1.965966 1_555
Cu11 O22 1.981481 1_555
Cu11 O4 1.987695 1_565
Cu11 O62 2.495438 1_555
Cu11 O58 2.568039 1_555
Ag0 O10 2.405019 1_565
Ag0 O14 2.478553 1_555
Ag0 O34 2.500401 1_555
Ag0 O47 2.522886 1_555
Ag0 O49 2.566658 1_455
Ag0 O44 2.796947 1_555
Ag0 O18 2.809829 1_555
Ag1 O60 2.405019 1_565
Ag1 O46 2.478553 1_555
Ag1 O26 2.500401 1_555
Ag1 O1 2.522886 1_555
Ag1 O58 2.566658 1_555
Ag1 O32 2.796947 1_555
Ag1 O53 2.809829 1_555
Ag2 O20 2.405019 1_545
Ag2 O48 2.478553 1_555
Ag2 O17 2.500401 1_555
Ag2 O56 2.522886 1_555
Ag2 O23 2.566658 1_555
Ag2 O12 2.796947 1_555
Ag2 O19 2.809829 1_555
Ag3 O13 2.405019 1_545
Ag3 O3 2.478553 1_555
Ag3 O37 2.500401 1_555
Ag3 O28 2.522886 1_555
Ag3 O11 2.566658 1_655
Ag3 O51 2.796947 1_555
Ag3 O39 2.809829 1_555
Mo0 O2 1.751133 1_555
Mo0 O47 1.758933 1_555
Mo0 O10 1.862244 1_555
Mo0 O35 1.931400 1_555
Mo1 O43 1.753217 1_555
Mo1 O49 1.759968 1_555
Mo1 O12 1.838020 1_555
Mo1 O5 1.941897 1_555
Mo2 O48 1.771501 1_555
Mo2 O61 1.806161 1_555
Mo2 O62 1.819167 1_554
Mo2 O17 1.830371 1_565
Mo3 O31 1.757856 1_555
Mo3 O18 1.807425 1_555
Mo3 O41 1.808442 1_555
Mo3 O38 1.831232 1_555
Mo4 O57 1.753217 1_555
Mo4 O23 1.759968 1_555
Mo4 O44 1.838020 1_555
Mo4 O27 1.941897 1_555
Mo5 O52 1.753217 1_555
Mo5 O58 1.759968 1_555
Mo5 O51 1.838020 1_555
Mo5 O4 1.941897 1_555
Mo6 O50 1.751133 1_555
Mo6 O56 1.758933 1_555
Mo6 O20 1.862244 1_555
Mo6 O25 1.931400 1_555
Mo7 O16 1.757856 1_555
Mo7 O19 1.807425 1_555
Mo7 O42 1.808442 1_554
Mo7 O33 1.831232 1_555
Mo8 O15 1.757856 1_555
Mo8 O39 1.807425 1_555
Mo8 O7 1.808442 1_555
Mo8 O24 1.831232 1_555
Mo9 O3 1.771501 1_555
Mo9 O6 1.806161 1_655
Mo9 O59 1.819167 1_555
Mo9 O37 1.830371 1_565
Mo10 O14 1.771501 1_555
Mo10 O8 1.806161 1_455
Mo10 O55 1.819167 1_555
Mo10 O34 1.830371 1_545
Mo11 O40 1.753217 1_555
Mo11 O11 1.759968 1_555
Mo11 O32 1.838020 1_555
Mo11 O9 1.941897 1_555
Mo12 O46 1.771501 1_555
Mo12 O54 1.806161 1_555
Mo12 O63 1.819167 1_556
Mo12 O26 1.830371 1_545
Mo13 O30 1.757856 1_555
Mo13 O53 1.807425 1_555
Mo13 O36 1.808442 1_556
Mo13 O45 1.831232 1_555
Mo14 O0 1.751133 1_555
Mo14 O28 1.758933 1_555
Mo14 O13 1.862244 1_555
Mo14 O22 1.931400 1_555
Mo15 O21 1.751133 1_555
Mo15 O1 1.758933 1_555
Mo15 O60 1.862244 1_555
Mo15 O29 1.931400 1_555
