# generated using pymatgen
data_PbSe2O5
_symmetry_space_group_name_H-M   'P 1'
_cell_length_a   9.52214328
_cell_length_b   4.55708763
_cell_length_c   12.52035686
_cell_angle_alpha   68.92818985
_cell_angle_beta   90.00000000
_cell_angle_gamma   90.00000000
_symmetry_Int_Tables_number   1
_chemical_formula_structural   PbSe2O5
_chemical_formula_sum   'Pb4 Se8 O20'
_cell_volume   506.96876677
_cell_formula_units_Z   4
loop_
 _symmetry_equiv_pos_site_id
 _symmetry_equiv_pos_as_xyz
  1  'x, y, z'
loop_
 _atom_site_type_symbol
 _atom_site_label
 _atom_site_symmetry_multiplicity
 _atom_site_fract_x
 _atom_site_fract_y
 _atom_site_fract_z
 _atom_site_occupancy
  Pb  Pb0  1  0.45769096  0.45685132  0.84627627  1
  Pb  Pb1  1  0.04230904  0.45685132  0.34627627  1
  Pb  Pb2  1  0.54230904  0.54314868  0.15372373  1
  Pb  Pb3  1  0.95769096  0.54314868  0.65372373  1
  Se  Se0  1  0.75015117  0.90670574  0.88628612  1
  Se  Se1  1  0.64447209  0.14658366  0.57997528  1
  Se  Se2  1  0.85552791  0.14658366  0.07997528  1
  Se  Se3  1  0.14447209  0.85341634  0.92002472  1
  Se  Se4  1  0.35552791  0.85341634  0.42002472  1
  Se  Se5  1  0.25015117  0.09329426  0.61371388  1
  Se  Se6  1  0.24984883  0.09329426  0.11371388  1
  Se  Se7  1  0.74984883  0.90670574  0.38628612  1
  O  O0  1  0.34255563  0.17831149  0.47534418  1
  O  O1  1  0.40972450  0.23750865  0.05700064  1
  O  O2  1  0.84255563  0.82168851  0.02465582  1
  O  O3  1  0.90972450  0.76249135  0.44299936  1
  O  O4  1  0.09027550  0.23750865  0.55700064  1
  O  O5  1  0.15744437  0.17831149  0.97534418  1
  O  O6  1  0.59027550  0.76249135  0.94299936  1
  O  O7  1  0.95749992  0.96318016  0.19276168  1
  O  O8  1  0.80689164  0.11774547  0.63488541  1
  O  O9  1  0.22887255  0.70486231  0.65344308  1
  O  O10  1  0.30689164  0.88225453  0.86511459  1
  O  O11  1  0.04250008  0.03681984  0.80723832  1
  O  O12  1  0.27112745  0.70486231  0.15344308  1
  O  O13  1  0.54250008  0.96318016  0.69276168  1
  O  O14  1  0.19310836  0.88225453  0.36511459  1
  O  O15  1  0.77112745  0.29513769  0.34655692  1
  O  O16  1  0.72887255  0.29513769  0.84655692  1
  O  O17  1  0.69310836  0.11774547  0.13488541  1
  O  O18  1  0.65744437  0.82168851  0.52465582  1
  O  O19  1  0.45749992  0.03681984  0.30723832  1
loop_
_geom_bond_atom_site_label_1
_geom_bond_atom_site_label_2
_geom_bond_distance
_geom_bond_site_symmetry_2
O0 Se4 1.850535 1_545
O0 Se5 1.855533 1_555
O1 Se6 1.708252 1_555
O1 Pb2 2.492644 1_555
O1 Pb0 2.504448 1_554
O2 Se2 1.850535 1_565
O2 Se0 1.855533 1_554
O3 Se7 1.708252 1_555
O3 Pb1 2.492644 1_655
O3 Pb3 2.504448 1_555
O4 Se5 1.708252 1_555
O4 Pb3 2.492644 1_455
O4 Pb1 2.504448 1_555
O5 Se3 1.850535 1_545
O5 Se6 1.855533 1_556
O6 Se0 1.708252 1_555
O6 Pb0 2.492644 1_555
O6 Pb2 2.504448 1_556
O7 Se2 1.669367 1_565
O7 Pb1 2.545868 1_655
O8 Se1 1.678353 1_555
O8 Pb3 2.490882 1_555
O9 Se5 1.669928 1_565
O9 Pb3 2.684985 1_455
O10 Se3 1.678353 1_555
O10 Pb0 2.490882 1_555
O11 Se3 1.669367 1_545
O11 Pb3 2.545868 1_455
O12 Se6 1.669928 1_565
O12 Pb2 2.684985 1_555
O13 Se1 1.669367 1_565
O13 Pb0 2.545868 1_555
O14 Se4 1.678353 1_555
O14 Pb1 2.490882 1_555
O15 Se7 1.669928 1_545
O15 Pb1 2.684985 1_655
O16 Se0 1.669928 1_545
O16 Pb0 2.684985 1_555
O17 Se2 1.678353 1_555
O17 Pb2 2.490882 1_555
O18 Se1 1.850535 1_565
O18 Se7 1.855533 1_555
O19 Se4 1.669367 1_545
O19 Pb2 2.545868 1_555
