# generated using pymatgen
data_BaLaMnInO6
_symmetry_space_group_name_H-M   'P 1'
_cell_length_a   5.85453900
_cell_length_b   8.17979300
_cell_length_c   11.38959300
_cell_angle_alpha   90.00000000
_cell_angle_beta   90.00000000
_cell_angle_gamma   90.00000000
_symmetry_Int_Tables_number   1
_chemical_formula_structural   BaLaMnInO6
_chemical_formula_sum   'Ba4 La4 Mn4 In4 O24'
_cell_volume   545.43527533
_cell_formula_units_Z   4
loop_
 _symmetry_equiv_pos_site_id
 _symmetry_equiv_pos_as_xyz
  1  'x, y, z'
loop_
 _atom_site_type_symbol
 _atom_site_label
 _atom_site_symmetry_multiplicity
 _atom_site_fract_x
 _atom_site_fract_y
 _atom_site_fract_z
 _atom_site_occupancy
  Ba  Ba0  1  0.25187400  0.00000000  0.38247000  1
  Ba  Ba1  1  0.24812600  0.50000000  0.38247000  1
  Ba  Ba2  1  0.75187400  0.50000000  0.61753000  1
  Ba  Ba3  1  0.74812600  0.00000000  0.61753000  1
  La  La0  1  0.23865800  0.00000000  0.85992700  1
  La  La1  1  0.26134200  0.50000000  0.85992700  1
  La  La2  1  0.73865800  0.50000000  0.14007300  1
  La  La3  1  0.76134200  0.00000000  0.14007300  1
  Mn  Mn0  1  0.75000000  0.75000000  0.37775100  1
  Mn  Mn1  1  0.25000000  0.25000000  0.62224900  1
  Mn  Mn2  1  0.75000000  0.25000000  0.37775100  1
  Mn  Mn3  1  0.25000000  0.75000000  0.62224900  1
  In  In0  1  0.75000000  0.25000000  0.87503200  1
  In  In1  1  0.75000000  0.75000000  0.87503200  1
  In  In2  1  0.25000000  0.25000000  0.12496800  1
  In  In3  1  0.25000000  0.75000000  0.12496800  1
  O  O0  1  0.78126000  0.50000000  0.37000700  1
  O  O1  1  0.00000000  0.24207700  0.50000000  1
  O  O2  1  0.28126000  0.00000000  0.62999300  1
  O  O3  1  0.50000000  0.74207700  0.50000000  1
  O  O4  1  0.46955300  0.72106400  0.74657900  1
  O  O5  1  0.50000000  0.25792300  0.50000000  1
  O  O6  1  0.71874000  0.00000000  0.37000700  1
  O  O7  1  0.85864600  0.50000000  0.87066100  1
  O  O8  1  0.03044700  0.22106400  0.74657900  1
  O  O9  1  0.00000000  0.17685900  0.00000000  1
  O  O10  1  0.00000000  0.75792300  0.50000000  1
  O  O11  1  0.03044700  0.77893600  0.74657900  1
  O  O12  1  0.21874000  0.50000000  0.62999300  1
  O  O13  1  0.35864600  0.00000000  0.12933900  1
  O  O14  1  0.50000000  0.67685900  0.00000000  1
  O  O15  1  0.53044700  0.72106400  0.25342100  1
  O  O16  1  0.46955300  0.27893600  0.74657900  1
  O  O17  1  0.50000000  0.32314100  0.00000000  1
  O  O18  1  0.64135400  0.00000000  0.87066100  1
  O  O19  1  0.96955300  0.22106400  0.25342100  1
  O  O20  1  0.00000000  0.82314100  0.00000000  1
  O  O21  1  0.96955300  0.77893600  0.25342100  1
  O  O22  1  0.14135400  0.50000000  0.12933900  1
  O  O23  1  0.53044700  0.27893600  0.25342100  1
loop_
_geom_bond_atom_site_label_1
_geom_bond_atom_site_label_2
_geom_bond_distance
_geom_bond_site_symmetry_2
Ba0 O6 2.736969 1_555
Ba0 O10 2.808437 1_545
Ba0 O1 2.808437 1_555
Ba0 O2 2.824431 1_555
Ba0 O19 2.856939 1_455
Ba0 O21 2.856939 1_445
Ba0 O3 2.890191 1_545
Ba0 O5 2.890191 1_555
Ba0 O13 2.950048 1_555
Ba0 O6 3.124480 1_455
Ba0 O15 3.166405 1_545
Ba0 O23 3.166405 1_555
Ba1 O0 2.736969 1_455
Ba1 O3 2.808437 1_555
Ba1 O5 2.808437 1_555
Ba1 O12 2.824431 1_555
Ba1 O23 2.856939 1_555
Ba1 O15 2.856939 1_555
Ba1 O10 2.890191 1_555
Ba1 O1 2.890191 1_555
Ba1 O22 2.950048 1_555
Ba1 O0 3.124480 1_555
Ba1 O19 3.166405 1_455
Ba1 O21 3.166405 1_455
Ba2 O12 2.736969 1_655
Ba2 O3 2.808437 1_555
Ba2 O5 2.808437 1_555
Ba2 O0 2.824431 1_555
Ba2 O16 2.856939 1_555
Ba2 O4 2.856939 1_555
Ba2 O1 2.890191 1_655
Ba2 O10 2.890191 1_655
Ba2 O7 2.950048 1_555
Ba2 O12 3.124480 1_555
Ba2 O11 3.166405 1_655
Ba2 O8 3.166405 1_655
Ba3 O2 2.736969 1_555
Ba3 O10 2.808437 1_645
Ba3 O1 2.808437 1_655
Ba3 O6 2.824431 1_555
Ba3 O8 2.856939 1_655
Ba3 O11 2.856939 1_645
Ba3 O5 2.890191 1_555
Ba3 O3 2.890191 1_545
Ba3 O18 2.950048 1_555
Ba3 O2 3.124480 1_655
Ba3 O4 3.166405 1_545
Ba3 O16 3.166405 1_555
La0 O18 2.360767 1_555
La0 O8 2.534237 1_555
La0 O11 2.534237 1_545
La0 O20 2.567164 1_546
La0 O9 2.567164 1_556
La0 O2 2.630705 1_555
La0 O4 2.949550 1_545
La0 O16 2.949550 1_555
La1 O7 2.360767 1_455
La1 O16 2.534237 1_555
La1 O4 2.534237 1_555
La1 O17 2.567164 1_556
La1 O14 2.567164 1_556
La1 O12 2.630705 1_555
La1 O11 2.949550 1_555
La1 O8 2.949550 1_555
La2 O22 2.360767 1_655
La2 O23 2.534237 1_555
La2 O15 2.534237 1_555
La2 O14 2.567164 1_555
La2 O17 2.567164 1_555
La2 O0 2.630705 1_555
La2 O21 2.949550 1_555
La2 O19 2.949550 1_555
La3 O13 2.360767 1_555
La3 O19 2.534237 1_555
La3 O21 2.534237 1_545
La3 O20 2.567164 1_645
La3 O9 2.567164 1_655
La3 O6 2.630705 1_555
La3 O15 2.949550 1_545
La3 O23 2.949550 1_555
Mn0 O21 1.927038 1_555
Mn0 O15 1.927038 1_555
Mn0 O3 2.021166 1_555
Mn0 O10 2.021166 1_655
Mn0 O6 2.055015 1_565
Mn0 O0 2.055015 1_555
Mn1 O8 1.927038 1_555
Mn1 O16 1.927038 1_555
Mn1 O1 2.021166 1_555
Mn1 O5 2.021166 1_555
Mn1 O12 2.055015 1_555
Mn1 O2 2.055015 1_555
Mn2 O19 1.927038 1_555
Mn2 O23 1.927038 1_555
Mn2 O1 2.021166 1_655
Mn2 O5 2.021166 1_555
Mn2 O6 2.055015 1_555
Mn2 O0 2.055015 1_555
Mn3 O4 1.927038 1_555
Mn3 O11 1.927038 1_555
Mn3 O10 2.021166 1_555
Mn3 O3 2.021166 1_555
Mn3 O2 2.055015 1_565
Mn3 O12 2.055015 1_555
In0 O9 2.127450 1_656
In0 O17 2.127450 1_556
In0 O18 2.142167 1_555
In0 O7 2.142167 1_555
In0 O8 2.211847 1_655
In0 O16 2.211847 1_555
In1 O14 2.127450 1_556
In1 O20 2.127450 1_656
In1 O18 2.142167 1_565
In1 O7 2.142167 1_555
In1 O11 2.211847 1_655
In1 O4 2.211847 1_555
In2 O9 2.127450 1_555
In2 O17 2.127450 1_555
In2 O13 2.142167 1_555
In2 O22 2.142167 1_555
In2 O19 2.211847 1_455
In2 O23 2.211847 1_555
In3 O14 2.127450 1_555
In3 O20 2.127450 1_555
In3 O13 2.142167 1_565
In3 O22 2.142167 1_555
In3 O21 2.211847 1_455
In3 O15 2.211847 1_555
