# generated using pymatgen
data_H4N2O3
_symmetry_space_group_name_H-M   'P 1'
_cell_length_a   5.94321500
_cell_length_b   7.29504600
_cell_length_c   7.75653600
_cell_angle_alpha   90.00000000
_cell_angle_beta   90.00000000
_cell_angle_gamma   90.00000000
_symmetry_Int_Tables_number   1
_chemical_formula_structural   H4N2O3
_chemical_formula_sum   'H16 N8 O12'
_cell_volume   336.29258279
_cell_formula_units_Z   4
loop_
 _symmetry_equiv_pos_site_id
 _symmetry_equiv_pos_as_xyz
  1  'x, y, z'
loop_
 _atom_site_type_symbol
 _atom_site_label
 _atom_site_symmetry_multiplicity
 _atom_site_fract_x
 _atom_site_fract_y
 _atom_site_fract_z
 _atom_site_occupancy
  H  H0  1  0.25000000  0.79554200  0.08660000  1
  H  H1  1  0.25000000  0.70445800  0.58660000  1
  H  H2  1  0.75000000  0.20445800  0.91340000  1
  H  H3  1  0.75000000  0.29554200  0.41340000  1
  H  H4  1  0.25000000  0.56507600  0.08485400  1
  H  H5  1  0.25000000  0.93492400  0.58485400  1
  H  H6  1  0.75000000  0.43492400  0.91514600  1
  H  H7  1  0.75000000  0.06507600  0.41514600  1
  H  H8  1  0.39401300  0.68310600  0.93448700  1
  H  H9  1  0.10598700  0.81689400  0.43448700  1
  H  H10  1  0.89401300  0.31689400  0.06551300  1
  H  H11  1  0.60598700  0.18310600  0.56551300  1
  H  H12  1  0.60598700  0.31689400  0.06551300  1
  H  H13  1  0.89401300  0.18310600  0.56551300  1
  H  H14  1  0.10598700  0.68310600  0.93448700  1
  H  H15  1  0.39401300  0.81689400  0.43448700  1
  N  N0  1  0.25000000  0.68069900  0.00909700  1
  N  N1  1  0.25000000  0.81930100  0.50909700  1
  N  N2  1  0.75000000  0.31930100  0.99090300  1
  N  N3  1  0.75000000  0.18069900  0.49090300  1
  N  N4  1  0.25000000  0.12619100  0.15774500  1
  N  N5  1  0.25000000  0.37380900  0.65774500  1
  N  N6  1  0.75000000  0.87380900  0.84225500  1
  N  N7  1  0.75000000  0.62619100  0.34225500  1
  O  O0  1  0.25000000  0.27174900  0.06658200  1
  O  O1  1  0.25000000  0.22825100  0.56658200  1
  O  O2  1  0.75000000  0.72825100  0.93341800  1
  O  O3  1  0.75000000  0.77174900  0.43341800  1
  O  O4  1  0.43455800  0.05288800  0.20098700  1
  O  O5  1  0.06544200  0.44711200  0.70098700  1
  O  O6  1  0.93455800  0.94711200  0.79901300  1
  O  O7  1  0.56544200  0.55288800  0.29901300  1
  O  O8  1  0.56544200  0.94711200  0.79901300  1
  O  O9  1  0.93455800  0.55288800  0.29901300  1
  O  O10  1  0.06544200  0.05288800  0.20098700  1
  O  O11  1  0.43455800  0.44711200  0.70098700  1
loop_
_geom_bond_atom_site_label_1
_geom_bond_atom_site_label_2
_geom_bond_distance
_geom_bond_site_symmetry_2
H0 N0 1.031150 1_555
H1 N1 1.031150 1_555
H2 N2 1.031150 1_555
H3 N3 1.031150 1_555
H4 N0 1.027978 1_555
H5 N1 1.027978 1_555
H6 N2 1.027978 1_555
H7 N3 1.027978 1_555
H8 N0 1.033337 1_556
H9 N1 1.033337 1_555
H10 N2 1.033337 1_554
H11 N3 1.033337 1_555
H12 N2 1.033337 1_554
H13 N3 1.033337 1_555
H14 N0 1.033337 1_556
H15 N1 1.033337 1_555
N4 O10 1.265533 1_555
N4 O4 1.265533 1_555
N4 O0 1.275748 1_555
N5 O5 1.265533 1_555
N5 O11 1.265533 1_555
N5 O1 1.275748 1_555
N6 O6 1.265533 1_555
N6 O8 1.265533 1_555
N6 O2 1.275748 1_555
N7 O7 1.265533 1_555
N7 O9 1.265533 1_555
N7 O3 1.275748 1_555
