# generated using pymatgen
data_Ce5NiPb3
_symmetry_space_group_name_H-M   'P 1'
_cell_length_a   9.60609449
_cell_length_b   9.60609449
_cell_length_c   6.41984500
_cell_angle_alpha   90.00000000
_cell_angle_beta   90.00000000
_cell_angle_gamma   120.00000337
_symmetry_Int_Tables_number   1
_chemical_formula_structural   Ce5NiPb3
_chemical_formula_sum   'Ce10 Ni2 Pb6'
_cell_volume   513.03721340
_cell_formula_units_Z   2
loop_
 _symmetry_equiv_pos_site_id
 _symmetry_equiv_pos_as_xyz
  1  'x, y, z'
loop_
 _atom_site_type_symbol
 _atom_site_label
 _atom_site_symmetry_multiplicity
 _atom_site_fract_x
 _atom_site_fract_y
 _atom_site_fract_z
 _atom_site_occupancy
  Ce  Ce0  1  0.23853000  0.23853000  0.75000000  1
  Ce  Ce1  1  0.76147000  0.76147000  0.25000000  1
  Ce  Ce2  1  0.23853000  0.00000000  0.25000000  1
  Ce  Ce3  1  0.76147000  0.00000000  0.75000000  1
  Ce  Ce4  1  0.33333300  0.66666700  0.50000000  1
  Ce  Ce5  1  0.66666700  0.33333300  0.50000000  1
  Ce  Ce6  1  0.00000000  0.23853000  0.25000000  1
  Ce  Ce7  1  0.00000000  0.76147000  0.75000000  1
  Ce  Ce8  1  0.33333300  0.66666700  0.00000000  1
  Ce  Ce9  1  0.66666700  0.33333300  0.00000000  1
  Ni  Ni0  1  0.00000000  0.00000000  0.00000000  1
  Ni  Ni1  1  0.00000000  0.00000000  0.50000000  1
  Pb  Pb0  1  0.39544000  0.39544000  0.25000000  1
  Pb  Pb1  1  0.60456000  0.60456000  0.75000000  1
  Pb  Pb2  1  0.00000000  0.39544000  0.75000000  1
  Pb  Pb3  1  0.60456000  0.00000000  0.25000000  1
  Pb  Pb4  1  0.39544000  0.00000000  0.75000000  1
  Pb  Pb5  1  0.00000000  0.60456000  0.25000000  1
loop_
_geom_bond_atom_site_label_1
_geom_bond_atom_site_label_2
_geom_bond_distance
_geom_bond_site_symmetry_2
Ce0 Ni0 2.797525 1_556
Ce0 Ni1 2.797525 1_555
Ce0 Pb2 3.312989 1_555
Ce0 Pb4 3.312989 1_555
Ce0 Pb1 3.516119 1_555
Ce0 Pb0 3.546200 1_555
Ce0 Pb0 3.546200 1_556
Ce1 Ni0 2.797525 1_665
Ce1 Ni1 2.797525 1_665
Ce1 Pb5 3.312989 1_655
Ce1 Pb3 3.312989 1_565
Ce1 Pb0 3.516119 1_555
Ce1 Pb1 3.546200 1_554
Ce1 Pb1 3.546200 1_555
Ce2 Ni0 2.797525 1_555
Ce2 Ni1 2.797525 1_555
Ce2 Pb5 3.312989 1_545
Ce2 Pb0 3.312989 1_555
Ce2 Pb3 3.516119 1_555
Ce2 Pb4 3.546200 1_554
Ce2 Pb4 3.546200 1_555
Ce3 Ni1 2.797525 1_655
Ce3 Ni0 2.797525 1_656
Ce3 Pb2 3.312989 1_655
Ce3 Pb1 3.312989 1_545
Ce3 Pb4 3.516119 1_555
Ce3 Pb3 3.546200 1_555
Ce3 Pb3 3.546200 1_556
Ce4 Ce8 3.209922 1_555
Ce4 Ce8 3.209922 1_556
Ce4 Pb5 3.357749 1_555
Ce4 Pb4 3.357749 1_565
Ce4 Pb2 3.357751 1_555
Ce4 Pb3 3.357751 1_565
Ce4 Pb0 3.357757 1_555
Ce4 Pb1 3.357757 1_555
Ce5 Ce9 3.209922 1_555
Ce5 Ce9 3.209922 1_556
Ce5 Pb2 3.357749 1_655
Ce5 Pb3 3.357749 1_555
Ce5 Pb5 3.357751 1_655
Ce5 Pb4 3.357751 1_555
Ce5 Pb1 3.357757 1_555
Ce5 Pb0 3.357757 1_555
Ce6 Ni0 2.797525 1_555
Ce6 Ni1 2.797525 1_555
Ce6 Pb3 3.312989 1_455
Ce6 Pb0 3.312989 1_555
Ce6 Pb5 3.516119 1_555
Ce6 Pb2 3.546200 1_555
Ce6 Pb2 3.546200 1_554
Ce7 Ni1 2.797525 1_565
Ce7 Ni0 2.797525 1_566
Ce7 Pb4 3.312989 1_565
Ce7 Pb1 3.312989 1_455
Ce7 Pb2 3.516119 1_555
Ce7 Pb5 3.546200 1_556
Ce7 Pb5 3.546200 1_555
Ce8 Pb4 3.357749 1_564
Ce8 Pb5 3.357749 1_555
Ce8 Pb3 3.357751 1_565
Ce8 Pb2 3.357751 1_554
Ce8 Pb0 3.357757 1_555
Ce8 Pb1 3.357757 1_554
Ce9 Pb2 3.357749 1_654
Ce9 Pb3 3.357749 1_555
Ce9 Pb5 3.357751 1_655
Ce9 Pb4 3.357751 1_554
Ce9 Pb1 3.357757 1_554
Ce9 Pb0 3.357757 1_555
