# generated using pymatgen
data_Y2FeB
_symmetry_space_group_name_H-M   'P 1'
_cell_length_a   4.56240852
_cell_length_b   4.56240852
_cell_length_c   4.56240852
_cell_angle_alpha   60.00000000
_cell_angle_beta   60.00000000
_cell_angle_gamma   60.00000000
_symmetry_Int_Tables_number   1
_chemical_formula_structural   Y2FeB
_chemical_formula_sum   'Y2 Fe1 B1'
_cell_volume   67.15332326
_cell_formula_units_Z   1
loop_
 _symmetry_equiv_pos_site_id
 _symmetry_equiv_pos_as_xyz
  1  'x, y, z'
loop_
 _atom_site_type_symbol
 _atom_site_label
 _atom_site_symmetry_multiplicity
 _atom_site_fract_x
 _atom_site_fract_y
 _atom_site_fract_z
 _atom_site_occupancy
  Y  Y0  1  0.75000000  0.75000000  0.75000000  1
  Y  Y1  1  0.00000000  0.00000000  0.00000000  1
  Fe  Fe0  1  0.50000000  0.50000000  0.50000000  1
  B  B0  1  0.25000000  0.25000000  0.25000000  1
loop_
_geom_bond_atom_site_label_1
_geom_bond_atom_site_label_2
_geom_bond_distance
_geom_bond_site_symmetry_2
Fe0 Y0 2.793893 1_455
Fe0 Y0 2.793893 1_545
Fe0 Y0 2.793893 1_554
Fe0 Y0 2.793893 1_555
B0 Y1 2.793893 1_655
B0 Fe0 2.793893 1_455
B0 Fe0 2.793893 1_545
B0 Y1 2.793893 1_556
B0 Y1 2.793893 1_565
B0 Y1 2.793893 1_555
B0 Fe0 2.793893 1_555
B0 Fe0 2.793893 1_554
B0 Y0 3.226110 1_554
B0 Y0 3.226110 1_455
B0 Y0 3.226110 1_454
B0 Y0 3.226110 1_544
B0 Y0 3.226110 1_445
B0 Y0 3.226110 1_545
