# generated using pymatgen
data_Bi15AsO25
_symmetry_space_group_name_H-M   'P 1'
_cell_length_a   17.24219377
_cell_length_b   17.24219377
_cell_length_c   17.24219312
_cell_angle_alpha   50.47068297
_cell_angle_beta   50.47068297
_cell_angle_gamma   50.47068393
_symmetry_Int_Tables_number   1
_chemical_formula_structural   Bi15AsO25
_chemical_formula_sum   'Bi60 As4 O100'
_cell_volume   2809.36924174
_cell_formula_units_Z   4
loop_
 _symmetry_equiv_pos_site_id
 _symmetry_equiv_pos_as_xyz
  1  'x, y, z'
loop_
 _atom_site_type_symbol
 _atom_site_label
 _atom_site_symmetry_multiplicity
 _atom_site_fract_x
 _atom_site_fract_y
 _atom_site_fract_z
 _atom_site_occupancy
  Bi  Bi0  1  0.28255300  0.08183400  0.43187700  1
  Bi  Bi1  1  0.19844600  0.02969300  0.72131800  1
  Bi  Bi2  1  0.48566700  0.18428400  0.31941500  1
  Bi  Bi3  1  0.44327600  0.10119300  0.60823800  1
  Bi  Bi4  1  0.20865600  0.07887300  0.90160200  1
  Bi  Bi5  1  0.69195300  0.18143500  0.38794400  1
  Bi  Bi6  1  0.49504400  0.00674200  0.84594400  1
  Bi  Bi7  1  0.48235000  0.28018800  0.62645800  1
  Bi  Bi8  1  0.98227600  0.12862400  0.28275700  1
  Bi  Bi9  1  0.79202400  0.08555800  0.58918900  1
  Bi  Bi10  1  0.40117700  0.24960100  0.90414700  1
  Bi  Bi11  1  0.68166600  0.02386600  0.88907700  1
  Bi  Bi12  1  0.68198800  0.38103800  0.52667700  1
  Bi  Bi13  1  0.98562700  0.18780100  0.49612500  1
  Bi  Bi14  1  0.64646700  0.30306300  0.79985400  1
  Bi  Bi15  1  0.43187700  0.28255300  0.08183400  1
  Bi  Bi16  1  0.92251500  0.09260400  0.79337700  1
  Bi  Bi17  1  0.88826200  0.39218500  0.58719300  1
  Bi  Bi18  1  0.72131800  0.19844600  0.02969300  1
  Bi  Bi19  1  0.67927200  0.48371300  0.82704000  1
  Bi  Bi20  1  0.18428400  0.31941500  0.48566700  1
  Bi  Bi21  1  0.97711400  0.27733000  0.79949300  1
  Bi  Bi22  1  0.60823800  0.44327600  0.10119300  1
  Bi  Bi23  1  0.90160200  0.20865600  0.07887300  1
  Bi  Bi24  1  0.88224600  0.57849200  0.72663400  1
  Bi  Bi25  1  0.18143500  0.38794400  0.69195300  1
  Bi  Bi26  1  0.84594400  0.49504400  0.00674200  1
  Bi  Bi27  1  0.62645800  0.48235000  0.28018800  1
  Bi  Bi28  1  0.12862400  0.28275700  0.98227600  1
  Bi  Bi29  1  0.08555800  0.58918900  0.79202400  1
  Bi  Bi30  1  0.90414700  0.40117700  0.24960100  1
  Bi  Bi31  1  0.88907700  0.68166600  0.02386600  1
  Bi  Bi32  1  0.38103800  0.52667700  0.68198800  1
  Bi  Bi33  1  0.18780100  0.49612500  0.98562700  1
  Bi  Bi34  1  0.79985400  0.64646700  0.30306300  1
  Bi  Bi35  1  0.08183400  0.43187700  0.28255300  1
  Bi  Bi36  1  0.09260400  0.79337700  0.92251500  1
  Bi  Bi37  1  0.39218500  0.58719300  0.88826200  1
  Bi  Bi38  1  0.02969300  0.72131800  0.19844600  1
  Bi  Bi39  1  0.82704000  0.67927200  0.48371300  1
  Bi  Bi40  1  0.31941500  0.48566700  0.18428400  1
  Bi  Bi41  1  0.27733000  0.79949300  0.97711400  1
  Bi  Bi42  1  0.10119300  0.60823800  0.44327600  1
  Bi  Bi43  1  0.07887300  0.90160200  0.20865600  1
  Bi  Bi44  1  0.57849200  0.72663400  0.88224600  1
  Bi  Bi45  1  0.38794400  0.69195300  0.18143500  1
  Bi  Bi46  1  0.00674200  0.84594400  0.49504400  1
  Bi  Bi47  1  0.28018800  0.62645800  0.48235000  1
  Bi  Bi48  1  0.28275700  0.98227600  0.12862400  1
  Bi  Bi49  1  0.58918900  0.79202400  0.08555800  1
  Bi  Bi50  1  0.24960100  0.90414700  0.40117700  1
  Bi  Bi51  1  0.02386600  0.88907700  0.68166600  1
  Bi  Bi52  1  0.52667700  0.68198800  0.38103800  1
  Bi  Bi53  1  0.49612500  0.98562700  0.18780100  1
  Bi  Bi54  1  0.30306300  0.79985400  0.64646700  1
  Bi  Bi55  1  0.79337700  0.92251500  0.09260400  1
  Bi  Bi56  1  0.58719300  0.88826200  0.39218500  1
  Bi  Bi57  1  0.48371300  0.82704000  0.67927200  1
  Bi  Bi58  1  0.79949300  0.97711400  0.27733000  1
  Bi  Bi59  1  0.72663400  0.88224600  0.57849200  1
  As  As0  1  0.20069800  0.20069800  0.20069800  1
  As  As1  1  0.39987100  0.39987100  0.39987100  1
  As  As2  1  0.59995100  0.59995100  0.59995100  1
  As  As3  1  0.79969100  0.79969100  0.79969100  1
  O  O0  1  0.05466000  0.05466000  0.05466000  1
  O  O1  1  0.12307100  0.12307100  0.12307100  1
  O  O2  1  0.12470500  0.12165300  0.31590000  1
  O  O3  1  0.31590000  0.12470500  0.12165300  1
  O  O4  1  0.23896800  0.23896800  0.23896800  1
  O  O5  1  0.44309100  0.07989500  0.32903100  1
  O  O6  1  0.65538500  0.01526600  0.27747100  1
  O  O7  1  0.26991500  0.14970000  0.52976500  1
  O  O8  1  0.32044400  0.32044400  0.32044400  1
  O  O9  1  0.77911500  0.14713200  0.14756500  1
  O  O10  1  0.14713200  0.14756500  0.77911500  1
  O  O11  1  0.68041500  0.04919600  0.41978500  1
  O  O12  1  0.32331800  0.32234200  0.51595600  1
  O  O13  1  0.51595600  0.32331800  0.32234200  1
  O  O14  1  0.37321600  0.12353100  0.75008900  1
  O  O15  1  0.88431800  0.12501400  0.24409600  1
  O  O16  1  0.55962000  0.16121900  0.55829600  1
  O  O17  1  0.43841100  0.43841100  0.43841100  1
  O  O18  1  0.81920800  0.07776800  0.45494200  1
  O  O19  1  0.32696400  0.07205100  0.95773700  1
  O  O20  1  0.52418200  0.14695300  0.77048200  1
  O  O21  1  0.64160300  0.28236300  0.52795400  1
  O  O22  1  0.85635800  0.21698000  0.47850200  1
  O  O23  1  0.46930100  0.35503200  0.73096200  1
  O  O24  1  0.52065100  0.52065100  0.52065100  1
  O  O25  1  0.54679800  0.17190000  0.92561100  1
  O  O26  1  0.92605200  0.04894700  0.67634800  1
  O  O27  1  0.96068100  0.35982700  0.36081200  1
  O  O28  1  0.35982700  0.36081200  0.96068100  1
  O  O29  1  0.87281100  0.26152500  0.61768100  1
  O  O30  1  0.75168700  0.13238700  0.87107200  1
  O  O31  1  0.71532100  0.52299100  0.52257400  1
  O  O32  1  0.52299100  0.52257400  0.71532100  1
  O  O33  1  0.57229100  0.32914800  0.94153500  1
  O  O34  1  0.07989500  0.32903100  0.44309100  1
  O  O35  1  0.75347100  0.36957600  0.75352300  1
  O  O36  1  0.63839800  0.63839800  0.63839800  1
  O  O37  1  0.01526600  0.27747100  0.65538500  1
  O  O38  1  0.52976500  0.26991500  0.14970000  1
  O  O39  1  0.89034200  0.16387600  0.89063000  1
  O  O40  1  0.72606000  0.34894300  0.96854600  1
  O  O41  1  0.83908700  0.48254200  0.72565700  1
  O  O42  1  0.04919600  0.41978500  0.68041500  1
  O  O43  1  0.66933600  0.55492600  0.92918300  1
  O  O44  1  0.71963800  0.71963800  0.71963800  1
  O  O45  1  0.75008900  0.37321600  0.12353100  1
  O  O46  1  0.12501400  0.24409600  0.88431800  1
  O  O47  1  0.16121900  0.55829600  0.55962000  1
  O  O48  1  0.55829600  0.55962000  0.16121900  1
  O  O49  1  0.07776800  0.45494200  0.81920800  1
  O  O50  1  0.95773700  0.32696400  0.07205100  1
  O  O51  1  0.72068000  0.72474500  0.91578000  1
  O  O52  1  0.91578000  0.72068000  0.72474500  1
  O  O53  1  0.77048200  0.52418200  0.14695300  1
  O  O54  1  0.28236300  0.52795400  0.64160300  1
  O  O55  1  0.95855000  0.55977500  0.96077900  1
  O  O56  1  0.83844800  0.83844800  0.83844800  1
  O  O57  1  0.21698000  0.47850200  0.85635800  1
  O  O58  1  0.73096200  0.46930100  0.35503200  1
  O  O59  1  0.12165300  0.31590000  0.12470500  1
  O  O60  1  0.92561100  0.54679800  0.17190000  1
  O  O61  1  0.04894700  0.67634800  0.92605200  1
  O  O62  1  0.26152500  0.61768100  0.87281100  1
  O  O63  1  0.87107200  0.75168700  0.13238700  1
  O  O64  1  0.92669600  0.92669600  0.92669600  1
  O  O65  1  0.94153500  0.57229100  0.32914800  1
  O  O66  1  0.32903100  0.44309100  0.07989500  1
  O  O67  1  0.36957600  0.75352300  0.75347100  1
  O  O68  1  0.75352300  0.75347100  0.36957600  1
  O  O69  1  0.27747100  0.65538500  0.01526600  1
  O  O70  1  0.14970000  0.52976500  0.26991500  1
  O  O71  1  0.89063000  0.89034200  0.16387600  1
  O  O72  1  0.16387600  0.89063000  0.89034200  1
  O  O73  1  0.96854600  0.72606000  0.34894300  1
  O  O74  1  0.48254200  0.72565700  0.83908700  1
  O  O75  1  0.14756500  0.77911500  0.14713200  1
  O  O76  1  0.41978500  0.68041500  0.04919600  1
  O  O77  1  0.92918300  0.66933600  0.55492600  1
  O  O78  1  0.32234200  0.51595600  0.32331800  1
  O  O79  1  0.12353100  0.75008900  0.37321600  1
  O  O80  1  0.24409600  0.88431800  0.12501400  1
  O  O81  1  0.45494200  0.81920800  0.07776800  1
  O  O82  1  0.07205100  0.95773700  0.32696400  1
  O  O83  1  0.14695300  0.77048200  0.52418200  1
  O  O84  1  0.52795400  0.64160300  0.28236300  1
  O  O85  1  0.55977500  0.96077900  0.95855000  1
  O  O86  1  0.96077900  0.95855000  0.55977500  1
  O  O87  1  0.47850200  0.85635800  0.21698000  1
  O  O88  1  0.35503200  0.73096200  0.46930100  1
  O  O89  1  0.17190000  0.92561100  0.54679800  1
  O  O90  1  0.67634800  0.92605200  0.04894700  1
  O  O91  1  0.36081200  0.96068100  0.35982700  1
  O  O92  1  0.61768100  0.87281100  0.26152500  1
  O  O93  1  0.13238700  0.87107200  0.75168700  1
  O  O94  1  0.52257400  0.71532100  0.52299100  1
  O  O95  1  0.32914800  0.94153500  0.57229100  1
  O  O96  1  0.34894300  0.96854600  0.72606000  1
  O  O97  1  0.72565700  0.83908700  0.48254200  1
  O  O98  1  0.55492600  0.92918300  0.66933600  1
  O  O99  1  0.72474500  0.91578000  0.72068000  1
loop_
_geom_bond_atom_site_label_1
_geom_bond_atom_site_label_2
_geom_bond_distance
_geom_bond_site_symmetry_2
Bi0 O5 2.125333 1_555
Bi0 O95 2.214857 1_545
Bi0 O91 2.304178 1_545
Bi0 O7 2.446784 1_555
Bi0 O4 2.843824 1_555
Bi1 O96 2.128271 1_545
Bi1 O10 2.252392 1_555
Bi1 O72 2.304507 1_545
Bi1 O7 2.464546 1_555
Bi1 O95 2.689214 1_545
Bi2 O38 2.101917 1_555
Bi2 O5 2.225570 1_555
Bi2 O8 2.258926 1_555
Bi2 O6 2.590822 1_555
Bi2 O13 2.793446 1_555
Bi3 O14 2.106079 1_555
Bi3 O98 2.224500 1_545
Bi3 O16 2.268553 1_555
Bi3 O96 2.572592 1_545
Bi3 O12 2.788570 1_555
Bi4 O46 2.126241 1_555
Bi4 O10 2.248735 1_555
Bi4 O0 2.297354 1_556
Bi4 O14 2.500645 1_555
Bi4 O19 2.678568 1_555
Bi5 O11 2.093972 1_555
Bi5 O18 2.224726 1_555
Bi5 O16 2.265619 1_555
Bi5 O15 2.567364 1_555
Bi5 O13 2.805312 1_555
Bi6 O20 2.121262 1_555
Bi6 O19 2.209125 1_555
Bi6 O85 2.305929 1_545
Bi6 O14 2.448942 1_555
Bi7 O21 2.130559 1_555
Bi7 O20 2.207560 1_555
Bi7 O16 2.227286 1_555
Bi7 O23 2.652735 1_555
Bi7 O17 2.786657 1_555
Bi8 O82 2.120370 1_645
Bi8 O15 2.218296 1_555
Bi8 O1 2.239335 1_655
Bi8 O18 2.585948 1_555
Bi8 O2 2.774015 1_655
Bi9 O18 2.128424 1_555
Bi9 O86 2.223375 1_545
Bi9 O22 2.237709 1_555
Bi9 O21 2.660501 1_555
Bi9 O99 2.753482 1_545
Bi10 O25 2.122690 1_555
Bi10 O28 2.211280 1_555
Bi10 O23 2.223595 1_555
Bi10 O20 2.670981 1_555
Bi10 O3 2.755870 1_556
Bi11 O90 2.099619 1_546
Bi11 O25 2.223912 1_555
Bi11 O85 2.254308 1_545
Bi11 O30 2.591190 1_555
Bi11 O56 2.799639 1_545
Bi12 O58 2.123498 1_555
Bi12 O21 2.195654 1_555
Bi12 O24 2.251516 1_555
Bi12 O22 2.591696 1_555
Bi12 O31 2.800798 1_555
Bi13 O22 2.133878 1_555
Bi13 O29 2.201489 1_555
Bi13 O27 2.295753 1_555
Bi13 O26 2.457701 1_555
Bi14 O33 2.120137 1_555
Bi14 O30 2.213410 1_555
Bi14 O35 2.237945 1_555
Bi14 O25 2.594450 1_555
Bi14 O32 2.766334 1_555
Bi15 O66 2.125333 1_555
Bi15 O33 2.214857 1_554
Bi15 O28 2.304178 1_554
Bi15 O38 2.446784 1_555
Bi15 O4 2.843824 1_555
Bi16 O30 2.125051 1_555
Bi16 O64 2.247284 1_545
Bi16 O39 2.280563 1_555
Bi16 O26 2.521986 1_555
Bi16 O29 2.700102 1_555
Bi17 O29 2.121535 1_555
Bi17 O37 2.212152 1_655
Bi17 O35 2.241391 1_555
Bi17 O34 2.586554 1_655
Bi17 O31 2.772943 1_555
Bi18 O40 2.128271 1_554
Bi18 O9 2.252392 1_555
Bi18 O39 2.304507 1_554
Bi18 O38 2.464546 1_555
Bi18 O33 2.689215 1_554
Bi19 O41 2.119365 1_555
Bi19 O40 2.214877 1_555
Bi19 O35 2.241129 1_555
Bi19 O43 2.596075 1_555
Bi19 O36 2.769832 1_555
Bi20 O7 2.101917 1_555
Bi20 O34 2.225570 1_555
Bi20 O8 2.258926 1_555
Bi20 O37 2.590822 1_555
Bi20 O12 2.793446 1_555
Bi21 O37 2.126112 1_655
Bi21 O10 2.250218 1_655
Bi21 O39 2.313933 1_555
Bi21 O42 2.451819 1_655
Bi21 O41 2.684725 1_555
Bi22 O45 2.106079 1_555
Bi22 O43 2.224500 1_554
Bi22 O48 2.268553 1_555
Bi22 O40 2.572592 1_554
Bi22 O13 2.788570 1_555
Bi23 O15 2.126240 1_555
Bi23 O9 2.248735 1_555
Bi23 O0 2.297354 1_655
Bi23 O45 2.500646 1_555
Bi23 O50 2.678568 1_555
Bi24 O77 2.129368 1_555
Bi24 O41 2.215771 1_555
Bi24 O44 2.273594 1_555
Bi24 O42 2.497637 1_655
Bi24 O52 2.832791 1_555
Bi25 O42 2.093972 1_555
Bi25 O49 2.224726 1_555
Bi25 O47 2.265619 1_555
Bi25 O46 2.567364 1_555
Bi25 O12 2.805312 1_555
Bi26 O53 2.121262 1_555
Bi26 O50 2.209125 1_555
Bi26 O55 2.305929 1_554
Bi26 O45 2.448942 1_555
Bi27 O84 2.130559 1_555
Bi27 O53 2.207560 1_555
Bi27 O48 2.227286 1_555
Bi27 O58 2.652735 1_555
Bi27 O17 2.786657 1_555
Bi28 O50 2.120369 1_456
Bi28 O46 2.218296 1_555
Bi28 O1 2.239335 1_556
Bi28 O49 2.585948 1_555
Bi28 O59 2.774015 1_556
Bi29 O49 2.128425 1_555
Bi29 O55 2.223374 1_455
Bi29 O57 2.237709 1_555
Bi29 O54 2.660501 1_555
Bi29 O52 2.753482 1_455
Bi30 O60 2.122690 1_555
Bi30 O27 2.211280 1_555
Bi30 O58 2.223595 1_555
Bi30 O53 2.670981 1_555
Bi30 O59 2.755870 1_655
Bi31 O61 2.099620 1_654
Bi31 O60 2.223912 1_555
Bi31 O55 2.254308 1_554
Bi31 O63 2.591190 1_555
Bi31 O56 2.799638 1_554
Bi32 O23 2.123499 1_555
Bi32 O54 2.195654 1_555
Bi32 O24 2.251516 1_555
Bi32 O57 2.591696 1_555
Bi32 O32 2.800798 1_555
Bi33 O57 2.133878 1_555
Bi33 O62 2.201489 1_555
Bi33 O28 2.295753 1_555
Bi33 O61 2.457701 1_555
Bi34 O65 2.120137 1_555
Bi34 O63 2.213409 1_555
Bi34 O68 2.237945 1_555
Bi34 O60 2.594450 1_555
Bi34 O31 2.766334 1_555
Bi35 O34 2.125333 1_555
Bi35 O65 2.214857 1_455
Bi35 O27 2.304178 1_455
Bi35 O70 2.446784 1_555
Bi35 O4 2.843824 1_555
Bi36 O93 2.125050 1_555
Bi36 O64 2.247284 1_455
Bi36 O72 2.280563 1_555
Bi36 O61 2.521986 1_555
Bi36 O62 2.700102 1_555
Bi37 O62 2.121535 1_555
Bi37 O69 2.212152 1_556
Bi37 O67 2.241391 1_555
Bi37 O66 2.586554 1_556
Bi37 O32 2.772943 1_555
Bi38 O73 2.128271 1_455
Bi38 O75 2.252392 1_555
Bi38 O71 2.304507 1_455
Bi38 O70 2.464546 1_555
Bi38 O65 2.689215 1_455
Bi39 O97 2.119365 1_555
Bi39 O73 2.214877 1_555
Bi39 O68 2.241129 1_555
Bi39 O77 2.596075 1_555
Bi39 O36 2.769832 1_555
Bi40 O70 2.101917 1_555
Bi40 O66 2.225570 1_555
Bi40 O8 2.258926 1_555
Bi40 O69 2.590822 1_555
Bi40 O78 2.793446 1_555
Bi41 O69 2.126112 1_556
Bi41 O75 2.250218 1_556
Bi41 O72 2.313933 1_555
Bi41 O76 2.451819 1_556
Bi41 O74 2.684725 1_555
Bi42 O79 2.106079 1_555
Bi42 O77 2.224500 1_455
Bi42 O47 2.268553 1_555
Bi42 O73 2.572592 1_455
Bi42 O78 2.788570 1_555
Bi43 O80 2.126241 1_555
Bi43 O75 2.248735 1_555
Bi43 O0 2.297354 1_565
Bi43 O79 2.500645 1_555
Bi43 O82 2.678568 1_555
Bi44 O43 2.129368 1_555
Bi44 O74 2.215771 1_555
Bi44 O44 2.273594 1_555
Bi44 O76 2.497637 1_556
Bi44 O51 2.832791 1_555
Bi45 O76 2.093972 1_555
Bi45 O81 2.224726 1_555
Bi45 O48 2.265619 1_555
Bi45 O80 2.567364 1_555
Bi45 O78 2.805312 1_555
Bi46 O83 2.121262 1_555
Bi46 O82 2.209125 1_555
Bi46 O86 2.305929 1_455
Bi46 O79 2.448942 1_555
Bi47 O54 2.130559 1_555
Bi47 O83 2.207560 1_555
Bi47 O47 2.227286 1_555
Bi47 O88 2.652735 1_555
Bi47 O17 2.786657 1_555
Bi48 O19 2.120369 1_564
Bi48 O80 2.218296 1_555
Bi48 O1 2.239335 1_565
Bi48 O81 2.585948 1_555
Bi48 O3 2.774015 1_565
Bi49 O81 2.128425 1_555
Bi49 O85 2.223374 1_554
Bi49 O87 2.237709 1_555
Bi49 O84 2.660501 1_555
Bi49 O51 2.753482 1_554
Bi50 O89 2.122690 1_555
Bi50 O91 2.211280 1_555
Bi50 O88 2.223595 1_555
Bi50 O83 2.670981 1_555
Bi50 O2 2.755870 1_565
Bi51 O26 2.099620 1_465
Bi51 O89 2.223912 1_555
Bi51 O86 2.254307 1_455
Bi51 O93 2.591190 1_555
Bi51 O56 2.799638 1_455
Bi52 O88 2.123499 1_555
Bi52 O84 2.195654 1_555
Bi52 O24 2.251516 1_555
Bi52 O87 2.591696 1_555
Bi52 O94 2.800798 1_555
Bi53 O87 2.133878 1_555
Bi53 O92 2.201489 1_555
Bi53 O91 2.295753 1_555
Bi53 O90 2.457701 1_555
Bi54 O95 2.120137 1_555
Bi54 O93 2.213410 1_555
Bi54 O67 2.237945 1_555
Bi54 O89 2.594450 1_555
Bi54 O94 2.766334 1_555
Bi55 O63 2.125051 1_555
Bi55 O64 2.247284 1_554
Bi55 O71 2.280563 1_555
Bi55 O90 2.521986 1_555
Bi55 O92 2.700102 1_555
Bi56 O92 2.121535 1_555
Bi56 O6 2.212152 1_565
Bi56 O68 2.241391 1_555
Bi56 O5 2.586554 1_565
Bi56 O94 2.772943 1_555
Bi57 O74 2.119365 1_555
Bi57 O96 2.214877 1_555
Bi57 O67 2.241129 1_555
Bi57 O98 2.596075 1_555
Bi57 O36 2.769832 1_555
Bi58 O6 2.126112 1_565
Bi58 O9 2.250218 1_565
Bi58 O71 2.313933 1_555
Bi58 O11 2.451819 1_565
Bi58 O97 2.684725 1_555
Bi59 O98 2.129368 1_555
Bi59 O97 2.215770 1_555
Bi59 O44 2.273594 1_555
Bi59 O11 2.497637 1_565
Bi59 O99 2.832791 1_555
As0 O4 1.723083 1_555
As0 O2 1.741826 1_555
As0 O3 1.741826 1_555
As0 O59 1.741826 1_555
As1 O17 1.735239 1_555
As1 O12 1.735663 1_555
As1 O13 1.735663 1_555
As1 O78 1.735663 1_555
As2 O36 1.731052 1_555
As2 O32 1.735792 1_555
As2 O31 1.735792 1_555
As2 O94 1.735792 1_555
As3 O51 1.734801 1_555
As3 O99 1.734801 1_555
As3 O52 1.734801 1_555
As3 O56 1.745010 1_555
