# generated using pymatgen
data_NaSr2LaTi4O12
_symmetry_space_group_name_H-M   'P 1'
_cell_length_a   5.53073800
_cell_length_b   5.53073800
_cell_length_c   23.62070800
_cell_angle_alpha   90.00000000
_cell_angle_beta   90.00000000
_cell_angle_gamma   90.00000000
_symmetry_Int_Tables_number   1
_chemical_formula_structural   NaSr2LaTi4O12
_chemical_formula_sum   'Na3 Sr6 La3 Ti12 O36'
_cell_volume   722.53532097
_cell_formula_units_Z   3
loop_
 _symmetry_equiv_pos_site_id
 _symmetry_equiv_pos_as_xyz
  1  'x, y, z'
loop_
 _atom_site_type_symbol
 _atom_site_label
 _atom_site_symmetry_multiplicity
 _atom_site_fract_x
 _atom_site_fract_y
 _atom_site_fract_z
 _atom_site_occupancy
  Na  Na0  1  0.50000000  0.50000000  0.66638900  1
  Na  Na1  1  0.00000000  0.00000000  0.50000000  1
  Na  Na2  1  0.50000000  0.50000000  0.33361100  1
  Sr  Sr0  1  0.00000000  0.00000000  0.16688500  1
  Sr  Sr1  1  0.50000000  0.50000000  0.00000000  1
  Sr  Sr2  1  0.50000000  0.50000000  0.16765100  1
  Sr  Sr3  1  0.00000000  0.00000000  0.83311500  1
  Sr  Sr4  1  0.00000000  0.00000000  0.00000000  1
  Sr  Sr5  1  0.50000000  0.50000000  0.83234900  1
  La  La0  1  0.00000000  0.00000000  0.66620400  1
  La  La1  1  0.50000000  0.50000000  0.50000000  1
  La  La2  1  0.00000000  0.00000000  0.33379600  1
  Ti  Ti0  1  0.50000000  0.00000000  0.41716100  1
  Ti  Ti1  1  0.50000000  0.00000000  0.58283900  1
  Ti  Ti2  1  0.00000000  0.50000000  0.25166400  1
  Ti  Ti3  1  0.00000000  0.50000000  0.41716100  1
  Ti  Ti4  1  0.00000000  0.50000000  0.58283900  1
  Ti  Ti5  1  0.50000000  0.00000000  0.08371900  1
  Ti  Ti6  1  0.50000000  0.00000000  0.25166400  1
  Ti  Ti7  1  0.00000000  0.50000000  0.91628100  1
  Ti  Ti8  1  0.00000000  0.50000000  0.08371900  1
  Ti  Ti9  1  0.50000000  0.00000000  0.74833600  1
  Ti  Ti10  1  0.50000000  0.00000000  0.91628100  1
  Ti  Ti11  1  0.00000000  0.50000000  0.74833600  1
  O  O0  1  0.00000000  0.50000000  0.66600900  1
  O  O1  1  0.28657300  0.71342700  0.58128000  1
  O  O2  1  0.78599100  0.78599100  0.58481700  1
  O  O3  1  0.50000000  0.00000000  0.50000000  1
  O  O4  1  0.50000000  0.00000000  0.66600900  1
  O  O5  1  0.78599100  0.21400900  0.41518300  1
  O  O6  1  0.21400900  0.21400900  0.58481700  1
  O  O7  1  0.28657300  0.28657300  0.41872000  1
  O  O8  1  0.71342700  0.28657300  0.58128000  1
  O  O9  1  0.00000000  0.50000000  0.33399100  1
  O  O10  1  0.00000000  0.50000000  0.50000000  1
  O  O11  1  0.27309600  0.72690400  0.25088600  1
  O  O12  1  0.71342700  0.71342700  0.41872000  1
  O  O13  1  0.78587900  0.78587900  0.25267700  1
  O  O14  1  0.21400900  0.78599100  0.41518300  1
  O  O15  1  0.50000000  0.00000000  0.16741400  1
  O  O16  1  0.50000000  0.00000000  0.33399100  1
  O  O17  1  0.77459600  0.22540400  0.08324900  1
  O  O18  1  0.21412100  0.21412100  0.25267700  1
  O  O19  1  0.27483700  0.27483700  0.08373600  1
  O  O20  1  0.72690400  0.27309600  0.25088600  1
  O  O21  1  0.00000000  0.50000000  0.00000000  1
  O  O22  1  0.00000000  0.50000000  0.16741400  1
  O  O23  1  0.27483700  0.72516300  0.91626400  1
  O  O24  1  0.72516300  0.72516300  0.08373600  1
  O  O25  1  0.77459600  0.77459600  0.91675100  1
  O  O26  1  0.22540400  0.77459600  0.08324900  1
  O  O27  1  0.50000000  0.00000000  0.83258600  1
  O  O28  1  0.50000000  0.00000000  0.00000000  1
  O  O29  1  0.78587900  0.21412100  0.74732300  1
  O  O30  1  0.22540400  0.22540400  0.91675100  1
  O  O31  1  0.27309600  0.27309600  0.74911400  1
  O  O32  1  0.72516300  0.27483700  0.91626400  1
  O  O33  1  0.00000000  0.50000000  0.83258600  1
  O  O34  1  0.72690400  0.72690400  0.74911400  1
  O  O35  1  0.21412100  0.78587900  0.74732300  1
loop_
_geom_bond_atom_site_label_1
_geom_bond_atom_site_label_2
_geom_bond_distance
_geom_bond_site_symmetry_2
Na0 O8 2.613078 1_555
Na0 O1 2.613078 1_555
Na0 O31 2.639695 1_555
Na0 O34 2.639695 1_555
Na0 O4 2.765384 1_555
Na0 O4 2.765384 1_565
Na0 O0 2.765384 1_555
Na0 O0 2.765384 1_655
Na0 O29 2.941863 1_555
Na0 O35 2.941863 1_555
Na0 O2 2.952342 1_555
Na0 O6 2.952342 1_555
Na1 O5 2.610692 1_455
Na1 O14 2.610692 1_545
Na1 O6 2.610692 1_555
Na1 O2 2.610692 1_445
Na1 O10 2.765369 1_555
Na1 O10 2.765369 1_545
Na1 O3 2.765369 1_455
Na1 O3 2.765369 1_555
Na1 O12 2.951301 1_445
Na1 O8 2.951301 1_455
Na1 O7 2.951301 1_555
Na1 O1 2.951301 1_545
Na2 O7 2.613078 1_555
Na2 O12 2.613078 1_555
Na2 O11 2.639695 1_555
Na2 O20 2.639695 1_555
Na2 O9 2.765384 1_655
Na2 O9 2.765384 1_555
Na2 O16 2.765384 1_555
Na2 O16 2.765384 1_565
Na2 O18 2.941863 1_555
Na2 O13 2.941863 1_555
Na2 O5 2.952342 1_555
Na2 O14 2.952342 1_555
La0 O35 2.544853 1_545
La0 O29 2.544853 1_455
La0 O2 2.549047 1_445
La0 O6 2.549047 1_555
La0 O4 2.765373 1_555
La0 O0 2.765373 1_545
La0 O4 2.765373 1_455
La0 O0 2.765373 1_555
La0 O34 2.897940 1_445
La0 O31 2.897940 1_555
La0 O8 3.008005 1_455
La0 O1 3.008005 1_545
La1 O7 2.544153 1_555
La1 O8 2.544153 1_555
La1 O1 2.544153 1_555
La1 O12 2.544153 1_555
La1 O10 2.765369 1_555
La1 O3 2.765369 1_565
La1 O10 2.765369 1_655
La1 O3 2.765369 1_555
La1 O14 3.002927 1_555
La1 O5 3.002927 1_555
La1 O2 3.002927 1_555
La1 O6 3.002927 1_555
La2 O18 2.544853 1_555
La2 O13 2.544853 1_445
La2 O14 2.549047 1_545
La2 O5 2.549047 1_455
La2 O9 2.765373 1_545
La2 O9 2.765373 1_555
La2 O16 2.765373 1_455
La2 O16 2.765373 1_555
La2 O11 2.897940 1_545
La2 O20 2.897940 1_455
La2 O7 3.008005 1_555
La2 O12 3.008005 1_445
O0 Ti11 1.944622 1_555
O0 Ti4 1.964534 1_555
O1 Ti1 1.976568 1_565
O1 Ti4 1.976568 1_555
O2 Ti1 1.976123 1_565
O2 Ti4 1.976123 1_655
O3 Ti1 1.956716 1_555
O3 Ti0 1.956716 1_555
O4 Ti9 1.944622 1_555
O4 Ti1 1.964534 1_555
O5 Ti0 1.976123 1_555
O5 Ti3 1.976123 1_655
O6 Ti1 1.976123 1_555
O6 Ti4 1.976123 1_555
O7 Ti3 1.976568 1_555
O7 Ti0 1.976568 1_555
O8 Ti4 1.976568 1_655
O8 Ti1 1.976568 1_555
O9 Ti2 1.944622 1_555
O9 Ti3 1.964534 1_555
O10 Ti4 1.956716 1_555
O10 Ti3 1.956716 1_555
O11 Ti6 1.963824 1_565
O11 Ti2 1.963824 1_555
O11 Sr2 2.648624 1_555
O11 Sr0 2.915417 1_565
O12 Ti0 1.976568 1_565
O12 Ti3 1.976568 1_655
O13 Ti2 1.975591 1_655
O13 Ti6 1.975591 1_565
O13 Sr0 2.628964 1_665
O13 Sr2 3.005571 1_555
O14 Ti3 1.976123 1_555
O14 Ti0 1.976123 1_565
O15 Ti5 1.976935 1_555
O15 Ti6 1.990045 1_555
O15 Sr2 2.765375 1_555
O15 Sr2 2.765375 1_545
O15 Sr0 2.765397 1_555
O15 Sr0 2.765397 1_655
O16 Ti6 1.944622 1_555
O16 Ti0 1.964534 1_555
O17 Ti5 1.964883 1_555
O17 Ti8 1.964883 1_655
O17 Sr4 2.641023 1_655
O17 Sr0 2.647837 1_655
O17 Sr1 2.912000 1_555
O17 Sr2 2.930459 1_555
O18 Ti2 1.975591 1_555
O18 Ti6 1.975591 1_555
O18 Sr0 2.628964 1_555
O18 Sr2 3.005571 1_555
O19 Ti5 1.965037 1_555
O19 Ti8 1.965037 1_555
O19 Sr1 2.648346 1_555
O19 Sr2 2.651505 1_555
O19 Sr0 2.911797 1_555
O19 Sr4 2.921167 1_555
O20 Ti6 1.963824 1_555
O20 Ti2 1.963824 1_655
O20 Sr2 2.648624 1_555
O20 Sr0 2.915417 1_655
O21 Ti7 1.977502 1_554
O21 Ti8 1.977502 1_555
O21 Sr4 2.765369 1_565
O21 Sr1 2.765369 1_455
O21 Sr1 2.765369 1_555
O21 Sr4 2.765369 1_555
O22 Ti8 1.976935 1_555
O22 Ti2 1.990045 1_555
O22 Sr2 2.765375 1_555
O22 Sr2 2.765375 1_455
O22 Sr0 2.765397 1_565
O22 Sr0 2.765397 1_555
O23 Ti10 1.965037 1_565
O23 Ti7 1.965037 1_555
O23 Sr1 2.648346 1_556
O23 Sr5 2.651505 1_555
O23 Sr3 2.911797 1_565
O23 Sr4 2.921167 1_566
O24 Ti5 1.965037 1_565
O24 Ti8 1.965037 1_655
O24 Sr1 2.648346 1_555
O24 Sr2 2.651505 1_555
O24 Sr0 2.911797 1_665
O24 Sr4 2.921167 1_665
O25 Ti7 1.964883 1_655
O25 Ti10 1.964883 1_565
O25 Sr4 2.641023 1_666
O25 Sr3 2.647837 1_665
O25 Sr1 2.912000 1_556
O25 Sr5 2.930459 1_555
O26 Ti8 1.964883 1_555
O26 Ti5 1.964883 1_565
O26 Sr4 2.641023 1_565
O26 Sr0 2.647837 1_565
O26 Sr1 2.912000 1_555
O26 Sr2 2.930459 1_555
O27 Ti10 1.976935 1_555
O27 Ti9 1.990045 1_555
O27 Sr5 2.765375 1_545
O27 Sr5 2.765375 1_555
O27 Sr3 2.765397 1_655
O27 Sr3 2.765397 1_555
O28 Ti10 1.977502 1_554
O28 Ti5 1.977502 1_555
O28 Sr4 2.765369 1_655
O28 Sr1 2.765369 1_545
O28 Sr1 2.765369 1_555
O28 Sr4 2.765369 1_555
O29 Ti9 1.975591 1_555
O29 Ti11 1.975591 1_655
O29 Sr3 2.628964 1_655
O29 Sr5 3.005571 1_555
O30 Ti10 1.964883 1_555
O30 Ti7 1.964883 1_555
O30 Sr4 2.641023 1_556
O30 Sr3 2.647837 1_555
O30 Sr1 2.912000 1_556
O30 Sr5 2.930459 1_555
O31 Ti11 1.963824 1_555
O31 Ti9 1.963824 1_555
O31 Sr5 2.648624 1_555
O31 Sr3 2.915417 1_555
O32 Ti10 1.965037 1_555
O32 Ti7 1.965037 1_655
O32 Sr1 2.648346 1_556
O32 Sr5 2.651505 1_555
O32 Sr3 2.911797 1_655
O32 Sr4 2.921167 1_656
O33 Ti7 1.976935 1_555
O33 Ti11 1.990045 1_555
O33 Sr5 2.765375 1_455
O33 Sr5 2.765375 1_555
O33 Sr3 2.765397 1_565
O33 Sr3 2.765397 1_555
O34 Ti11 1.963824 1_655
O34 Ti9 1.963824 1_565
O34 Sr5 2.648624 1_555
O34 Sr3 2.915417 1_665
O35 Ti11 1.975591 1_555
O35 Ti9 1.975591 1_565
O35 Sr3 2.628964 1_565
O35 Sr5 3.005571 1_555
