# generated using pymatgen
data_P(HO)3
_symmetry_space_group_name_H-M   'P 1'
_cell_length_a   7.14944000
_cell_length_b   7.53609300
_cell_length_c   11.86611100
_cell_angle_alpha   90.00000000
_cell_angle_beta   90.00000000
_cell_angle_gamma   90.00000000
_symmetry_Int_Tables_number   1
_chemical_formula_structural   P(HO)3
_chemical_formula_sum   'P8 H24 O24'
_cell_volume   639.33235221
_cell_formula_units_Z   8
loop_
 _symmetry_equiv_pos_site_id
 _symmetry_equiv_pos_as_xyz
  1  'x, y, z'
loop_
 _atom_site_type_symbol
 _atom_site_label
 _atom_site_symmetry_multiplicity
 _atom_site_fract_x
 _atom_site_fract_y
 _atom_site_fract_z
 _atom_site_occupancy
  P  P0  1  0.03342000  0.51105600  0.38591100  1
  P  P1  1  0.53342000  0.48894400  0.61408900  1
  P  P2  1  0.53342000  0.98894400  0.88591100  1
  P  P3  1  0.03342000  0.01105600  0.11408900  1
  P  P4  1  0.46722000  0.57859800  0.13570100  1
  P  P5  1  0.96722000  0.42140200  0.86429900  1
  P  P6  1  0.96722000  0.92140200  0.63570100  1
  P  P7  1  0.46722000  0.07859800  0.36429900  1
  H  H0  1  0.82218500  0.73084500  0.41834500  1
  H  H1  1  0.32218500  0.26915500  0.58165500  1
  H  H2  1  0.32218500  0.76915500  0.91834500  1
  H  H3  1  0.82218500  0.23084500  0.08165500  1
  H  H4  1  0.93482500  0.33926600  0.24133100  1
  H  H5  1  0.43482500  0.66073400  0.75866900  1
  H  H6  1  0.43482500  0.16073400  0.74133100  1
  H  H7  1  0.93482500  0.83926600  0.25866900  1
  H  H8  1  0.96999700  0.50888500  0.57522600  1
  H  H9  1  0.46999700  0.49111500  0.42477400  1
  H  H10  1  0.46999700  0.99111500  0.07522600  1
  H  H11  1  0.96999700  0.00888500  0.92477400  1
  H  H12  1  0.65278700  0.46042800  0.26900500  1
  H  H13  1  0.15278700  0.53957200  0.73099500  1
  H  H14  1  0.15278700  0.03957200  0.76900500  1
  H  H15  1  0.65278700  0.96042800  0.23099500  1
  H  H16  1  0.16488200  0.55942200  0.08062100  1
  H  H17  1  0.66488200  0.44057800  0.91937900  1
  H  H18  1  0.66488200  0.94057800  0.58062100  1
  H  H19  1  0.16488200  0.05942200  0.41937900  1
  H  H20  1  0.45307200  0.30542400  0.04339900  1
  H  H21  1  0.95307200  0.69457600  0.95660100  1
  H  H22  1  0.95307200  0.19457600  0.54339900  1
  H  H23  1  0.45307200  0.80542400  0.45660100  1
  O  O0  1  0.94531500  0.71646300  0.38224500  1
  O  O1  1  0.44531500  0.28353700  0.61775500  1
  O  O2  1  0.44531500  0.78353700  0.88224500  1
  O  O3  1  0.94531500  0.21646300  0.11775500  1
  O  O4  1  0.88091500  0.40438000  0.30687300  1
  O  O5  1  0.38091500  0.59562000  0.69312700  1
  O  O6  1  0.38091500  0.09562000  0.80687300  1
  O  O7  1  0.88091500  0.90438000  0.19312700  1
  O  O8  1  0.93779500  0.44230100  0.50605300  1
  O  O9  1  0.43779500  0.55769900  0.49394700  1
  O  O10  1  0.43779500  0.05769900  0.00605300  1
  O  O11  1  0.93779500  0.94230100  0.99394700  1
  O  O12  1  0.51620800  0.47649800  0.25540200  1
  O  O13  1  0.01620800  0.52350200  0.74459800  1
  O  O14  1  0.01620800  0.02350200  0.75540200  1
  O  O15  1  0.51620800  0.97649800  0.24459800  1
  O  O16  1  0.24087500  0.56078400  0.15117800  1
  O  O17  1  0.74087500  0.43921600  0.84882200  1
  O  O18  1  0.74087500  0.93921600  0.65117800  1
  O  O19  1  0.24087500  0.06078400  0.34882200  1
  O  O20  1  0.51500900  0.42282100  0.03942800  1
  O  O21  1  0.01500900  0.57717900  0.96057200  1
  O  O22  1  0.01500900  0.07717900  0.53942800  1
  O  O23  1  0.51500900  0.92282100  0.46057200  1
loop_
_geom_bond_atom_site_label_1
_geom_bond_atom_site_label_2
_geom_bond_distance
_geom_bond_site_symmetry_2
H0 O0 0.984983 1_555
H1 O1 0.984983 1_555
H2 O2 0.984983 1_555
H3 O3 0.984983 1_555
H4 O4 0.997099 1_555
H5 O5 0.997099 1_555
H6 O6 0.997099 1_555
H7 O7 0.997099 1_555
H8 O8 0.989205 1_555
H9 O9 0.989205 1_555
H10 O10 0.989205 1_565
H11 O11 0.989205 1_545
H12 O12 0.997097 1_555
H13 O13 0.997097 1_555
H14 O14 0.997097 1_555
H15 O15 0.997097 1_555
H16 O16 0.998125 1_555
H17 O17 0.998125 1_555
H18 O18 0.998125 1_555
H19 O19 0.998125 1_555
H20 O20 0.990467 1_555
H21 O21 0.990467 1_655
H22 O22 0.990467 1_655
H23 O23 0.990467 1_555
O0 P0 1.671786 1_655
O1 P1 1.671786 1_555
O2 P2 1.671786 1_555
O3 P3 1.671786 1_655
O4 P0 1.647636 1_655
O5 P1 1.647636 1_555
O6 P2 1.647636 1_545
O7 P3 1.647636 1_665
O8 P0 1.663809 1_655
O9 P1 1.663809 1_555
O10 P2 1.663809 1_544
O11 P3 1.663809 1_666
O12 P4 1.652934 1_555
O13 P5 1.652934 1_455
O14 P6 1.652934 1_445
O15 P7 1.652934 1_565
O16 P4 1.634152 1_555
O17 P5 1.634152 1_555
O18 P6 1.634152 1_555
O19 P7 1.634152 1_555
O20 P4 1.673302 1_555
O21 P5 1.673302 1_455
O22 P6 1.673302 1_445
O23 P7 1.673302 1_565
