# generated using pymatgen
data_Gd5AgSe8
_symmetry_space_group_name_H-M   'P 1'
_cell_length_a   7.61331908
_cell_length_b   7.61331910
_cell_length_c   7.61331933
_cell_angle_alpha   109.76909980
_cell_angle_beta   109.76909026
_cell_angle_gamma   108.87710031
_symmetry_Int_Tables_number   1
_chemical_formula_structural   Gd5AgSe8
_chemical_formula_sum   'Gd5 Ag1 Se8'
_cell_volume   339.67629537
_cell_formula_units_Z   1
loop_
 _symmetry_equiv_pos_site_id
 _symmetry_equiv_pos_as_xyz
  1  'x, y, z'
loop_
 _atom_site_type_symbol
 _atom_site_label
 _atom_site_symmetry_multiplicity
 _atom_site_fract_x
 _atom_site_fract_y
 _atom_site_fract_z
 _atom_site_occupancy
  Gd  Gd0  1  0.11372000  0.74762500  0.87148100  1
  Gd  Gd1  1  0.25237500  0.62385600  0.36609500  1
  Gd  Gd2  1  0.37614400  0.24223900  0.62851900  1
  Gd  Gd3  1  0.62500000  0.37500000  0.25000000  1
  Gd  Gd4  1  0.75776100  0.88628000  0.13390500  1
  Ag  Ag0  1  0.87500000  0.12500000  0.75000000  1
  Se  Se0  1  0.99409500  0.85508600  0.50079200  1
  Se  Se1  1  0.14491400  0.14570600  0.13900900  1
  Se  Se2  1  0.50669700  0.00590500  0.36099100  1
  Se  Se3  1  0.37298500  0.51460600  0.00755700  1
  Se  Se4  1  0.63457200  0.62701500  0.64162100  1
  Se  Se5  1  0.48539400  0.99295000  0.85837900  1
  Se  Se6  1  0.85429400  0.49330300  0.99920800  1
  Se  Se7  1  0.00705000  0.36542800  0.49244300  1
loop_
_geom_bond_atom_site_label_1
_geom_bond_atom_site_label_2
_geom_bond_distance
_geom_bond_site_symmetry_2
Gd0 Se5 2.898714 1_555
Gd0 Se1 2.901970 1_566
Gd0 Se7 2.942669 1_555
Gd0 Se6 2.948547 1_455
Gd0 Se4 3.104829 1_455
Gd0 Se0 3.125510 1_455
Gd0 Se3 3.200396 1_556
Gd0 Se2 3.224928 1_566
Gd1 Se7 2.898712 1_555
Gd1 Se6 2.901970 1_454
Gd1 Se4 2.942666 1_555
Gd1 Se2 2.948547 1_565
Gd1 Se3 3.104828 1_555
Gd1 Se1 3.125509 1_555
Gd1 Se5 3.200394 1_555
Gd1 Se0 3.224928 1_455
Gd2 Se4 2.898716 1_555
Gd2 Se2 2.901970 1_555
Gd2 Se3 2.942666 1_556
Gd2 Se0 2.948547 1_445
Gd2 Se5 3.104835 1_545
Gd2 Se6 3.125510 1_555
Gd2 Se7 3.200390 1_555
Gd2 Se1 3.224928 1_555
Gd3 Se4 2.910147 1_555
Gd3 Se3 2.910147 1_555
Gd3 Se5 2.910151 1_544
Gd3 Se7 2.910153 1_655
Gd3 Se0 3.147215 1_555
Gd3 Se6 3.147215 1_554
Gd3 Se1 3.147215 1_555
Gd3 Se2 3.147215 1_555
Gd4 Se3 2.898716 1_555
Gd4 Se0 2.901970 1_555
Gd4 Se5 2.942660 1_554
Gd4 Se1 2.948547 1_665
Gd4 Se7 3.104828 1_665
Gd4 Se2 3.125509 1_565
Gd4 Se4 3.200396 1_554
Gd4 Se6 3.224928 1_554
Ag0 Se6 2.894237 1_555
Ag0 Se0 2.894237 1_545
Ag0 Se2 2.894238 1_555
Ag0 Se1 2.894238 1_656
Ag0 Se4 3.282834 1_545
Ag0 Se3 3.282834 1_656
Ag0 Se5 3.282835 1_545
Ag0 Se7 3.282837 1_655
