# generated using pymatgen
data_TlCr4BiO14
_symmetry_space_group_name_H-M   'P 1'
_cell_length_a   17.26948700
_cell_length_b   8.40394100
_cell_length_c   8.77749089
_cell_angle_alpha   88.34604692
_cell_angle_beta   90.00000000
_cell_angle_gamma   90.00000000
_symmetry_Int_Tables_number   1
_chemical_formula_structural   TlCr4BiO14
_chemical_formula_sum   'Tl4 Cr16 Bi4 O56'
_cell_volume   1273.36188130
_cell_formula_units_Z   4
loop_
 _symmetry_equiv_pos_site_id
 _symmetry_equiv_pos_as_xyz
  1  'x, y, z'
loop_
 _atom_site_type_symbol
 _atom_site_label
 _atom_site_symmetry_multiplicity
 _atom_site_fract_x
 _atom_site_fract_y
 _atom_site_fract_z
 _atom_site_occupancy
  Tl  Tl0  1  0.62443900  0.23555600  0.49971600  1
  Tl  Tl1  1  0.87556100  0.73555600  0.49971600  1
  Tl  Tl2  1  0.37556100  0.76444400  0.50028400  1
  Tl  Tl3  1  0.12443900  0.26444400  0.50028400  1
  Cr  Cr0  1  0.05221800  0.63143900  0.27445000  1
  Cr  Cr1  1  0.31609900  0.41744400  0.21819100  1
  Cr  Cr2  1  0.44778200  0.13143900  0.27445000  1
  Cr  Cr3  1  0.44091100  0.41232500  0.79407000  1
  Cr  Cr4  1  0.70436800  0.83369200  0.23724400  1
  Cr  Cr5  1  0.94091100  0.08767500  0.20593000  1
  Cr  Cr6  1  0.55908900  0.58767500  0.20593000  1
  Cr  Cr7  1  0.79563200  0.33369200  0.23724400  1
  Cr  Cr8  1  0.68390100  0.58255600  0.78180900  1
  Cr  Cr9  1  0.29563200  0.16630800  0.76275600  1
  Cr  Cr10  1  0.81609900  0.08255600  0.78180900  1
  Cr  Cr11  1  0.20436800  0.66630800  0.76275600  1
  Cr  Cr12  1  0.05908900  0.91232500  0.79407000  1
  Cr  Cr13  1  0.94778200  0.36856100  0.72555000  1
  Cr  Cr14  1  0.18390100  0.91744400  0.21819100  1
  Cr  Cr15  1  0.55221800  0.86856100  0.72555000  1
  Bi  Bi0  1  0.62323600  0.20844100  0.99270400  1
  Bi  Bi1  1  0.12323600  0.29155900  0.00729600  1
  Bi  Bi2  1  0.37676400  0.79155900  0.00729600  1
  Bi  Bi3  1  0.87676400  0.70844100  0.99270400  1
  O  O0  1  0.70755800  0.94149600  0.38537700  1
  O  O1  1  0.89964800  0.53148300  0.77077500  1
  O  O2  1  0.53726100  0.13204000  0.20579400  1
  O  O3  1  0.15982500  0.11159300  0.20990900  1
  O  O4  1  0.29477800  0.72733500  0.80237500  1
  O  O5  1  0.01594700  0.00637100  0.65629700  1
  O  O6  1  0.20755800  0.55850400  0.61462300  1
  O  O7  1  0.77873300  0.12424100  0.61853000  1
  O  O8  1  0.85412400  0.16564300  0.28275800  1
  O  O9  1  0.50358300  0.73126700  0.13632500  1
  O  O10  1  0.66556700  0.93262700  0.09380100  1
  O  O11  1  0.10080200  0.79826900  0.19295000  1
  O  O12  1  0.41781800  0.53846300  0.92878000  1
  O  O13  1  0.79244200  0.44149600  0.38537700  1
  O  O14  1  0.33443300  0.06737300  0.90619900  1
  O  O15  1  0.27873300  0.37575900  0.38147000  1
  O  O16  1  0.91781800  0.96153700  0.07122000  1
  O  O17  1  0.70522200  0.27266500  0.19762500  1
  O  O18  1  0.99641700  0.23126700  0.13632500  1
  O  O19  1  0.34017500  0.61159300  0.20990900  1
  O  O20  1  0.16556700  0.56737300  0.90619900  1
  O  O21  1  0.08218200  0.03846300  0.92878000  1
  O  O22  1  0.98405300  0.99362900  0.34370300  1
  O  O23  1  0.03726100  0.36796000  0.79420600  1
  O  O24  1  0.51594700  0.49362900  0.34370300  1
  O  O25  1  0.58218200  0.46153700  0.07122000  1
  O  O26  1  0.60080200  0.70173100  0.80705000  1
  O  O27  1  0.65982500  0.38840700  0.79009100  1
  O  O28  1  0.35412400  0.33435700  0.71724200  1
  O  O29  1  0.60035200  0.03148300  0.77077500  1
  O  O30  1  0.22126700  0.87575900  0.38147000  1
  O  O31  1  0.89919800  0.20173100  0.80705000  1
  O  O32  1  0.39964800  0.96851700  0.22922500  1
  O  O33  1  0.84017500  0.88840700  0.79009100  1
  O  O34  1  0.20522200  0.22733500  0.80237500  1
  O  O35  1  0.83443300  0.43262700  0.09380100  1
  O  O36  1  0.10035200  0.46851700  0.22922500  1
  O  O37  1  0.72126700  0.62424100  0.61853000  1
  O  O38  1  0.95161300  0.35896800  0.54291700  1
  O  O39  1  0.96273900  0.63204000  0.20579400  1
  O  O40  1  0.25472800  0.37351200  0.08328300  1
  O  O41  1  0.24527200  0.87351200  0.08328300  1
  O  O42  1  0.54838700  0.85896800  0.54291700  1
  O  O43  1  0.75472800  0.12648800  0.91671700  1
  O  O44  1  0.48405300  0.50637100  0.65629700  1
  O  O45  1  0.04838700  0.64103200  0.45708300  1
  O  O46  1  0.00358300  0.76873300  0.86367500  1
  O  O47  1  0.74527200  0.62648800  0.91671700  1
  O  O48  1  0.49641700  0.26873300  0.86367500  1
  O  O49  1  0.29244200  0.05850400  0.61462300  1
  O  O50  1  0.14587600  0.83435700  0.71724200  1
  O  O51  1  0.64587600  0.66564300  0.28275800  1
  O  O52  1  0.46273900  0.86796000  0.79420600  1
  O  O53  1  0.45161300  0.14103200  0.45708300  1
  O  O54  1  0.39919800  0.29826900  0.19295000  1
  O  O55  1  0.79477800  0.77266500  0.19762500  1
loop_
_geom_bond_atom_site_label_1
_geom_bond_atom_site_label_2
_geom_bond_distance
_geom_bond_site_symmetry_2
Cr0 O45 1.608769 1_555
Cr0 O39 1.658562 1_455
Cr0 O36 1.659699 1_555
Cr0 O11 1.767341 1_555
Cr1 O15 1.601295 1_555
Cr1 O40 1.639219 1_555
Cr1 O19 1.683296 1_555
Cr1 O54 1.767604 1_555
Cr2 O53 1.608769 1_555
Cr2 O2 1.658562 1_555
Cr2 O32 1.659699 1_545
Cr2 O54 1.767341 1_555
Cr3 O44 1.608411 1_555
Cr3 O48 1.644921 1_555
Cr3 O12 1.659285 1_555
Cr3 O28 1.776487 1_555
Cr4 O0 1.606999 1_555
Cr4 O10 1.632521 1_555
Cr4 O55 1.682863 1_555
Cr4 O51 1.772542 1_555
Cr5 O22 1.608411 1_545
Cr5 O18 1.644921 1_555
Cr5 O16 1.659285 1_545
Cr5 O8 1.776487 1_555
Cr6 O24 1.608411 1_555
Cr6 O9 1.644921 1_555
Cr6 O25 1.659285 1_555
Cr6 O51 1.776487 1_555
Cr7 O13 1.606999 1_555
Cr7 O35 1.632521 1_555
Cr7 O17 1.682863 1_555
Cr7 O8 1.772542 1_555
Cr8 O37 1.601295 1_555
Cr8 O47 1.639219 1_555
Cr8 O27 1.683296 1_555
Cr8 O26 1.767604 1_555
Cr9 O49 1.606999 1_555
Cr9 O14 1.632521 1_555
Cr9 O34 1.682863 1_555
Cr9 O28 1.772542 1_555
Cr10 O7 1.601295 1_555
Cr10 O43 1.639219 1_555
Cr10 O33 1.683296 1_545
Cr10 O31 1.767604 1_555
Cr11 O6 1.606999 1_555
Cr11 O20 1.632521 1_555
Cr11 O4 1.682863 1_555
Cr11 O50 1.772542 1_555
Cr12 O5 1.608411 1_565
Cr12 O46 1.644921 1_555
Cr12 O21 1.659285 1_565
Cr12 O50 1.776487 1_555
Cr13 O38 1.608769 1_555
Cr13 O23 1.658562 1_655
Cr13 O1 1.659699 1_555
Cr13 O31 1.767341 1_555
Cr14 O30 1.601295 1_555
Cr14 O41 1.639219 1_555
Cr14 O3 1.683296 1_565
Cr14 O11 1.767604 1_555
Cr15 O42 1.608769 1_555
Cr15 O52 1.658562 1_555
Cr15 O29 1.659699 1_565
Cr15 O26 1.767341 1_555
Bi0 O25 2.363552 1_556
Bi0 O17 2.363746 1_556
Bi0 O27 2.386262 1_555
Bi0 O2 2.458815 1_556
Bi0 O43 2.470273 1_555
Bi0 O48 2.510541 1_555
Bi0 O29 2.515876 1_555
Bi0 O10 2.564350 1_546
Bi1 O21 2.363552 1_554
Bi1 O34 2.363746 1_554
Bi1 O3 2.386262 1_555
Bi1 O23 2.458815 1_554
Bi1 O40 2.470273 1_555
Bi1 O18 2.510541 1_455
Bi1 O36 2.515876 1_555
Bi1 O20 2.564350 1_554
Bi2 O12 2.363552 1_554
Bi2 O4 2.363746 1_554
Bi2 O19 2.386262 1_555
Bi2 O52 2.458815 1_554
Bi2 O41 2.470273 1_555
Bi2 O9 2.510541 1_555
Bi2 O32 2.515876 1_555
Bi2 O14 2.564350 1_564
Bi3 O16 2.363552 1_556
Bi3 O55 2.363746 1_556
Bi3 O33 2.386262 1_555
Bi3 O39 2.458815 1_556
Bi3 O47 2.470273 1_555
Bi3 O46 2.510541 1_655
Bi3 O1 2.515876 1_555
Bi3 O35 2.564350 1_556
