# generated using pymatgen
data_Ce20Ti11(S22O3)2
_symmetry_space_group_name_H-M   'P 1'
_cell_length_a   10.31113432
_cell_length_b   14.15526049
_cell_length_c   22.44107206
_cell_angle_alpha   90.00000000
_cell_angle_beta   90.00000000
_cell_angle_gamma   90.00000000
_symmetry_Int_Tables_number   1
_chemical_formula_structural   Ce20Ti11(S22O3)2
_chemical_formula_sum   'Ce40 Ti22 S88 O12'
_cell_volume   3275.42689246
_cell_formula_units_Z   2
loop_
 _symmetry_equiv_pos_site_id
 _symmetry_equiv_pos_as_xyz
  1  'x, y, z'
loop_
 _atom_site_type_symbol
 _atom_site_label
 _atom_site_symmetry_multiplicity
 _atom_site_fract_x
 _atom_site_fract_y
 _atom_site_fract_z
 _atom_site_occupancy
  Ce  Ce0  1  0.66894846  0.94568821  0.46926176  1
  Ce  Ce1  1  0.38141990  0.75000000  0.53188976  1
  Ce  Ce2  1  0.95111330  0.04019173  0.16074093  1
  Ce  Ce3  1  0.93364034  0.75000000  0.96874874  1
  Ce  Ce4  1  0.63630650  0.53681388  0.83512284  1
  Ce  Ce5  1  0.06635966  0.25000000  0.46874874  1
  Ce  Ce6  1  0.36369350  0.03681388  0.16487716  1
  Ce  Ce7  1  0.63227393  0.25000000  0.66042281  1
  Ce  Ce8  1  0.63630650  0.96318612  0.66487716  1
  Ce  Ce9  1  0.95557055  0.75000000  0.34106736  1
  Ce  Ce10  1  0.61858010  0.25000000  0.46811024  1
  Ce  Ce11  1  0.95111330  0.45980827  0.33925907  1
  Ce  Ce12  1  0.63630650  0.96318612  0.83512284  1
  Ce  Ce13  1  0.63227393  0.25000000  0.83957719  1
  Ce  Ce14  1  0.61858010  0.25000000  0.03188976  1
  Ce  Ce15  1  0.63630650  0.53681388  0.66487716  1
  Ce  Ce16  1  0.36369350  0.46318612  0.33512284  1
  Ce  Ce17  1  0.93364034  0.75000000  0.53125126  1
  Ce  Ce18  1  0.38141990  0.75000000  0.96811024  1
  Ce  Ce19  1  0.36772607  0.75000000  0.16042281  1
  Ce  Ce20  1  0.66894846  0.94568821  0.03073824  1
  Ce  Ce21  1  0.06635966  0.25000000  0.03125126  1
  Ce  Ce22  1  0.33105154  0.05431179  0.53073824  1
  Ce  Ce23  1  0.04888670  0.54019173  0.83925907  1
  Ce  Ce24  1  0.66894846  0.55431179  0.46926176  1
  Ce  Ce25  1  0.33105154  0.44568821  0.96926176  1
  Ce  Ce26  1  0.04442945  0.25000000  0.84106736  1
  Ce  Ce27  1  0.95111330  0.04019173  0.33925907  1
  Ce  Ce28  1  0.36772607  0.75000000  0.33957719  1
  Ce  Ce29  1  0.04888670  0.95980827  0.66074093  1
  Ce  Ce30  1  0.04888670  0.95980827  0.83925907  1
  Ce  Ce31  1  0.95111330  0.45980827  0.16074093  1
  Ce  Ce32  1  0.36369350  0.46318612  0.16487716  1
  Ce  Ce33  1  0.95557055  0.75000000  0.15893264  1
  Ce  Ce34  1  0.04442945  0.25000000  0.65893264  1
  Ce  Ce35  1  0.33105154  0.44568821  0.53073824  1
  Ce  Ce36  1  0.36369350  0.03681388  0.33512284  1
  Ce  Ce37  1  0.04888670  0.54019173  0.66074093  1
  Ce  Ce38  1  0.66894846  0.55431179  0.03073824  1
  Ce  Ce39  1  0.33105154  0.05431179  0.96926176  1
  Ti  Ti0  1  0.33367693  0.13397386  0.75000000  1
  Ti  Ti1  1  0.84535143  0.11637079  0.56223728  1
  Ti  Ti2  1  0.33763758  0.90174564  0.75000000  1
  Ti  Ti3  1  0.15464857  0.88362921  0.43776272  1
  Ti  Ti4  1  0.15464857  0.61637079  0.43776272  1
  Ti  Ti5  1  0.86058609  0.25000000  0.25000000  1
  Ti  Ti6  1  0.84535143  0.11637079  0.93776272  1
  Ti  Ti7  1  0.66236242  0.40174564  0.25000000  1
  Ti  Ti8  1  0.66236242  0.09825436  0.25000000  1
  Ti  Ti9  1  0.13941391  0.75000000  0.75000000  1
  Ti  Ti10  1  0.54143648  0.75000000  0.75000000  1
  Ti  Ti11  1  0.33763758  0.59825436  0.75000000  1
  Ti  Ti12  1  0.45856352  0.25000000  0.25000000  1
  Ti  Ti13  1  0.84535143  0.38362921  0.93776272  1
  Ti  Ti14  1  0.33367693  0.36602614  0.75000000  1
  Ti  Ti15  1  0.83909709  0.75000000  0.75000000  1
  Ti  Ti16  1  0.15464857  0.61637079  0.06223728  1
  Ti  Ti17  1  0.16090291  0.25000000  0.25000000  1
  Ti  Ti18  1  0.66632307  0.63397386  0.25000000  1
  Ti  Ti19  1  0.84535143  0.38362921  0.56223728  1
  Ti  Ti20  1  0.66632307  0.86602614  0.25000000  1
  Ti  Ti21  1  0.15464857  0.88362921  0.06223728  1
  S  S0  1  0.57107611  0.11562834  0.75000000  1
  S  S1  1  0.32087806  0.25000000  0.33331467  1
  S  S2  1  0.50253402  0.90988156  0.93419646  1
  S  S3  1  0.91617593  0.61362342  0.42883904  1
  S  S4  1  0.39677170  0.87948140  0.43064638  1
  S  S5  1  0.16355008  0.43624122  0.42459327  1
  S  S6  1  0.49746598  0.40988156  0.06580354  1
  S  S7  1  0.91617593  0.61362342  0.07116096  1
  S  S8  1  0.16081891  0.61829854  0.17116468  1
  S  S9  1  0.83641150  0.38091263  0.04770883  1
  S  S10  1  0.16081891  0.88170146  0.32883532  1
  S  S11  1  0.91617593  0.88637658  0.42883904  1
  S  S12  1  0.66191145  0.25000000  0.31880203  1
  S  S13  1  0.15575397  0.42276123  0.25000000  1
  S  S14  1  0.39677170  0.62051860  0.06935362  1
  S  S15  1  0.89936152  0.88468167  0.25000000  1
  S  S16  1  0.83644992  0.93624122  0.92459327  1
  S  S17  1  0.83641150  0.38091263  0.45229117  1
  S  S18  1  0.39677170  0.62051860  0.43064638  1
  S  S19  1  0.16081891  0.61829854  0.32883532  1
  S  S20  1  0.50253402  0.59011844  0.93419646  1
  S  S21  1  0.33341319  0.49054713  0.66856058  1
  S  S22  1  0.32767866  0.25000000  0.50964967  1
  S  S23  1  0.16358850  0.88091263  0.95229117  1
  S  S24  1  0.83918109  0.11829854  0.82883532  1
  S  S25  1  0.66658681  0.99054713  0.16856058  1
  S  S26  1  0.83641150  0.11908737  0.04770883  1
  S  S27  1  0.49746598  0.09011844  0.06580354  1
  S  S28  1  0.67232134  0.75000000  0.49035033  1
  S  S29  1  0.10063848  0.38468167  0.75000000  1
  S  S30  1  0.66658681  0.50945287  0.33143942  1
  S  S31  1  0.00338411  0.25000000  0.33551034  1
  S  S32  1  0.33341319  0.49054713  0.83143942  1
  S  S33  1  0.50253402  0.59011844  0.56580354  1
  S  S34  1  0.08382407  0.38637658  0.57116096  1
  S  S35  1  0.83644992  0.93624122  0.57540673  1
  S  S36  1  0.16355008  0.06375878  0.42459327  1
  S  S37  1  0.57107611  0.38437166  0.75000000  1
  S  S38  1  0.16355008  0.43624122  0.07540673  1
  S  S39  1  0.10063848  0.11531833  0.75000000  1
  S  S40  1  0.89936152  0.61531833  0.25000000  1
  S  S41  1  0.50253402  0.90988156  0.56580354  1
  S  S42  1  0.60322830  0.37948140  0.93064638  1
  S  S43  1  0.33779924  0.25000000  0.67037054  1
  S  S44  1  0.16081891  0.88170146  0.17116468  1
  S  S45  1  0.83918109  0.38170146  0.82883532  1
  S  S46  1  0.33341319  0.00945287  0.83143942  1
  S  S47  1  0.83641150  0.11908737  0.45229117  1
  S  S48  1  0.16358850  0.88091263  0.54770883  1
  S  S49  1  0.49746598  0.09011844  0.43419646  1
  S  S50  1  0.83644992  0.56375878  0.92459327  1
  S  S51  1  0.60322830  0.12051860  0.93064638  1
  S  S52  1  0.67912194  0.75000000  0.83331467  1
  S  S53  1  0.39677170  0.87948140  0.06935362  1
  S  S54  1  0.33808855  0.75000000  0.68119797  1
  S  S55  1  0.08382407  0.38637658  0.92883904  1
  S  S56  1  0.16358850  0.61908737  0.54770883  1
  S  S57  1  0.15575397  0.07723877  0.25000000  1
  S  S58  1  0.83918109  0.11829854  0.67116468  1
  S  S59  1  0.66220076  0.75000000  0.17037054  1
  S  S60  1  0.84424603  0.57723877  0.75000000  1
  S  S61  1  0.08382407  0.11362342  0.92883904  1
  S  S62  1  0.91617593  0.88637658  0.07116096  1
  S  S63  1  0.66191145  0.25000000  0.18119797  1
  S  S64  1  0.99661589  0.75000000  0.83551034  1
  S  S65  1  0.00338411  0.25000000  0.16448966  1
  S  S66  1  0.66658681  0.99054713  0.33143942  1
  S  S67  1  0.42892389  0.61562834  0.25000000  1
  S  S68  1  0.33341319  0.00945287  0.66856058  1
  S  S69  1  0.32087806  0.25000000  0.16668533  1
  S  S70  1  0.99661589  0.75000000  0.66448966  1
  S  S71  1  0.08382407  0.11362342  0.57116096  1
  S  S72  1  0.67232134  0.75000000  0.00964967  1
  S  S73  1  0.32767866  0.25000000  0.99035033  1
  S  S74  1  0.16358850  0.61908737  0.95229117  1
  S  S75  1  0.33808855  0.75000000  0.81880203  1
  S  S76  1  0.67912194  0.75000000  0.66668533  1
  S  S77  1  0.42892389  0.88437166  0.25000000  1
  S  S78  1  0.60322830  0.12051860  0.56935362  1
  S  S79  1  0.66658681  0.50945287  0.16856058  1
  S  S80  1  0.83644992  0.56375878  0.57540673  1
  S  S81  1  0.66220076  0.75000000  0.32962946  1
  S  S82  1  0.49746598  0.40988156  0.43419646  1
  S  S83  1  0.60322830  0.37948140  0.56935362  1
  S  S84  1  0.83918109  0.38170146  0.67116468  1
  S  S85  1  0.84424603  0.92276123  0.75000000  1
  S  S86  1  0.33779924  0.25000000  0.82962946  1
  S  S87  1  0.16355008  0.06375878  0.07540673  1
  O  O0  1  0.14238947  0.75000000  0.43808457  1
  O  O1  1  0.85410745  0.10933459  0.25000000  1
  O  O2  1  0.53029611  0.60848004  0.75000000  1
  O  O3  1  0.46970389  0.10848004  0.25000000  1
  O  O4  1  0.85761053  0.25000000  0.93808457  1
  O  O5  1  0.53029611  0.89151996  0.75000000  1
  O  O6  1  0.14238947  0.75000000  0.06191543  1
  O  O7  1  0.14589255  0.89066541  0.75000000  1
  O  O8  1  0.85410745  0.39066541  0.25000000  1
  O  O9  1  0.85761053  0.25000000  0.56191543  1
  O  O10  1  0.14589255  0.60933459  0.75000000  1
  O  O11  1  0.46970389  0.39151996  0.25000000  1
loop_
_geom_bond_atom_site_label_1
_geom_bond_atom_site_label_2
_geom_bond_distance
_geom_bond_site_symmetry_2
Ce0 S41 2.809807 1_555
Ce0 S28 2.810369 1_555
Ce0 S49 2.815216 1_565
Ce0 S11 2.833048 1_555
Ce0 S35 2.945304 1_555
Ce0 S47 3.025106 1_565
Ce0 S4 3.083084 1_555
Ce0 S66 3.157486 1_555
Ce0 S78 3.410127 1_565
Ce1 S41 2.694567 1_555
Ce1 S33 2.694567 1_555
Ce1 S18 2.923423 1_555
Ce1 S4 2.923423 1_555
Ce1 S56 2.933415 1_555
Ce1 S48 2.933415 1_555
Ce1 S28 3.141038 1_555
Ce1 O0 3.241299 1_555
Ce1 S54 3.380294 1_555
Ce2 O1 2.443499 1_555
Ce2 S87 2.928585 1_655
Ce2 S57 2.956302 1_655
Ce2 S62 2.985225 1_545
Ce2 S26 3.013329 1_555
Ce2 S65 3.019572 1_655
Ce2 S25 3.021879 1_545
Ce2 S15 3.023689 1_545
Ce2 S44 3.124649 1_645
Ce3 S72 2.846537 1_556
Ce3 S16 2.989349 1_555
Ce3 S50 2.989349 1_555
Ce3 O6 3.000713 1_656
Ce3 S7 3.006818 1_556
Ce3 S62 3.006818 1_556
Ce3 S23 3.031857 1_655
Ce3 S74 3.031857 1_655
Ce3 S64 3.059711 1_555
Ce4 O2 2.423428 1_555
Ce4 S20 2.723063 1_555
Ce4 S50 2.904422 1_555
Ce4 S60 2.928074 1_555
Ce4 S37 2.959357 1_555
Ce4 S45 3.035906 1_555
Ce4 S52 3.050097 1_555
Ce4 S42 3.109898 1_555
Ce4 S32 3.192172 1_555
Ce5 S22 2.846537 1_555
Ce5 S36 2.989349 1_555
Ce5 S5 2.989349 1_555
Ce5 O9 3.000713 1_455
Ce5 S34 3.006818 1_555
Ce5 S71 3.006818 1_555
Ce5 S17 3.031857 1_455
Ce5 S47 3.031857 1_455
Ce5 S31 3.059711 1_555
Ce6 O3 2.423428 1_555
Ce6 S27 2.723063 1_555
Ce6 S87 2.904422 1_555
Ce6 S57 2.928074 1_555
Ce6 S77 2.959357 1_545
Ce6 S44 3.035906 1_545
Ce6 S69 3.050097 1_555
Ce6 S53 3.109898 1_545
Ce6 S25 3.192172 1_545
Ce7 S78 2.761463 1_555
Ce7 S83 2.761463 1_555
Ce7 S0 2.838481 1_555
Ce7 S37 2.838481 1_555
Ce7 S84 2.843449 1_555
Ce7 S58 2.843449 1_555
Ce7 S43 3.044563 1_555
Ce7 O9 3.207077 1_555
Ce8 O5 2.423428 1_555
Ce8 S41 2.723063 1_555
Ce8 S35 2.904422 1_555
Ce8 S85 2.928074 1_555
Ce8 S0 2.959357 1_565
Ce8 S58 3.035906 1_565
Ce8 S76 3.050097 1_555
Ce8 S78 3.109898 1_565
Ce8 S68 3.192172 1_565
Ce9 S11 2.787706 1_555
Ce9 S3 2.787706 1_555
Ce9 S10 2.833683 1_655
Ce9 S19 2.833683 1_655
Ce9 S15 2.854292 1_555
Ce9 S40 2.854292 1_555
Ce9 O0 2.907019 1_655
Ce9 S81 3.035846 1_555
Ce10 S82 2.694567 1_555
Ce10 S49 2.694567 1_555
Ce10 S83 2.923423 1_555
Ce10 S78 2.923423 1_555
Ce10 S47 2.933415 1_555
Ce10 S17 2.933415 1_555
Ce10 S22 3.141038 1_555
Ce10 O9 3.241299 1_555
Ce10 S12 3.380294 1_555
Ce11 O8 2.443499 1_555
Ce11 S5 2.928585 1_655
Ce11 S13 2.956302 1_655
Ce11 S3 2.985225 1_555
Ce11 S17 3.013329 1_555
Ce11 S31 3.019572 1_655
Ce11 S30 3.021879 1_555
Ce11 S40 3.023689 1_555
Ce11 S19 3.124649 1_655
Ce12 O5 2.423428 1_555
Ce12 S2 2.723063 1_555
Ce12 S16 2.904422 1_555
Ce12 S85 2.928074 1_555
Ce12 S0 2.959357 1_565
Ce12 S24 3.035906 1_565
Ce12 S52 3.050097 1_555
Ce12 S51 3.109898 1_565
Ce12 S46 3.192172 1_565
Ce13 S51 2.761463 1_555
Ce13 S42 2.761463 1_555
Ce13 S0 2.838481 1_555
Ce13 S37 2.838481 1_555
Ce13 S24 2.843449 1_555
Ce13 S45 2.843449 1_555
Ce13 S86 3.044563 1_555
Ce13 O4 3.207077 1_555
Ce14 S6 2.694567 1_555
Ce14 S27 2.694567 1_555
Ce14 S51 2.923423 1_554
Ce14 S42 2.923423 1_554
Ce14 S26 2.933415 1_555
Ce14 S9 2.933415 1_555
Ce14 S73 3.141038 1_554
Ce14 O4 3.241299 1_554
Ce14 S63 3.380294 1_555
Ce15 O2 2.423428 1_555
Ce15 S33 2.723063 1_555
Ce15 S80 2.904422 1_555
Ce15 S60 2.928074 1_555
Ce15 S37 2.959357 1_555
Ce15 S84 3.035906 1_555
Ce15 S76 3.050097 1_555
Ce15 S83 3.109898 1_555
Ce15 S21 3.192172 1_555
Ce16 O11 2.423428 1_555
Ce16 S82 2.723063 1_555
Ce16 S5 2.904422 1_555
Ce16 S13 2.928074 1_555
Ce16 S67 2.959357 1_555
Ce16 S19 3.035906 1_555
Ce16 S1 3.050097 1_555
Ce16 S18 3.109898 1_555
Ce16 S30 3.192172 1_555
Ce17 S28 2.846537 1_555
Ce17 S35 2.989349 1_555
Ce17 S80 2.989349 1_555
Ce17 O0 3.000713 1_655
Ce17 S11 3.006818 1_555
Ce17 S3 3.006818 1_555
Ce17 S56 3.031857 1_655
Ce17 S48 3.031857 1_655
Ce17 S70 3.059711 1_555
Ce18 S20 2.694567 1_555
Ce18 S2 2.694567 1_555
Ce18 S14 2.923423 1_556
Ce18 S53 2.923423 1_556
Ce18 S23 2.933415 1_555
Ce18 S74 2.933415 1_555
Ce18 S72 3.141038 1_556
Ce18 O6 3.241299 1_556
Ce18 S75 3.380294 1_555
Ce19 S14 2.761463 1_555
Ce19 S53 2.761463 1_555
Ce19 S67 2.838481 1_555
Ce19 S77 2.838481 1_555
Ce19 S44 2.843449 1_555
Ce19 S8 2.843449 1_555
Ce19 S59 3.044563 1_555
Ce19 O6 3.207077 1_555
Ce20 S2 2.809807 1_554
Ce20 S72 2.810369 1_555
Ce20 S27 2.815216 1_565
Ce20 S62 2.833048 1_555
Ce20 S16 2.945304 1_554
Ce20 S26 3.025106 1_565
Ce20 S53 3.083084 1_555
Ce20 S25 3.157486 1_555
Ce20 S51 3.410127 1_564
Ce21 S73 2.846537 1_554
Ce21 S38 2.989349 1_555
Ce21 S87 2.989349 1_555
Ce21 O4 3.000713 1_454
Ce21 S61 3.006818 1_554
Ce21 S55 3.006818 1_554
Ce21 S9 3.031857 1_455
Ce21 S26 3.031857 1_455
Ce21 S65 3.059711 1_555
Ce22 S49 2.809807 1_555
Ce22 S22 2.810369 1_555
Ce22 S41 2.815216 1_545
Ce22 S71 2.833048 1_555
Ce22 S36 2.945304 1_555
Ce22 S48 3.025106 1_545
Ce22 S78 3.083084 1_555
Ce22 S68 3.157486 1_555
Ce22 S4 3.410127 1_545
Ce23 O10 2.443499 1_555
Ce23 S50 2.928585 1_455
Ce23 S60 2.956302 1_455
Ce23 S55 2.985225 1_555
Ce23 S74 3.013329 1_555
Ce23 S64 3.019572 1_455
Ce23 S32 3.021879 1_555
Ce23 S29 3.023689 1_555
Ce23 S45 3.124649 1_455
Ce24 S33 2.809807 1_555
Ce24 S28 2.810369 1_555
Ce24 S82 2.815216 1_555
Ce24 S3 2.833048 1_555
Ce24 S80 2.945304 1_555
Ce24 S17 3.025106 1_555
Ce24 S18 3.083084 1_555
Ce24 S30 3.157486 1_555
Ce24 S83 3.410127 1_555
Ce25 S6 2.809807 1_556
Ce25 S73 2.810369 1_555
Ce25 S20 2.815216 1_555
Ce25 S55 2.833048 1_555
Ce25 S38 2.945304 1_556
Ce25 S74 3.025106 1_555
Ce25 S42 3.083084 1_555
Ce25 S32 3.157486 1_555
Ce25 S14 3.410127 1_556
Ce26 S61 2.787706 1_555
Ce26 S55 2.787706 1_555
Ce26 S45 2.833683 1_455
Ce26 S24 2.833683 1_455
Ce26 S29 2.854292 1_555
Ce26 S39 2.854292 1_555
Ce26 O4 2.907019 1_455
Ce26 S86 3.035846 1_555
Ce27 O1 2.443499 1_555
Ce27 S36 2.928585 1_655
Ce27 S57 2.956302 1_655
Ce27 S11 2.985225 1_545
Ce27 S47 3.013329 1_555
Ce27 S31 3.019572 1_655
Ce27 S66 3.021879 1_545
Ce27 S15 3.023689 1_545
Ce27 S10 3.124649 1_645
Ce28 S4 2.761463 1_555
Ce28 S18 2.761463 1_555
Ce28 S67 2.838481 1_555
Ce28 S77 2.838481 1_555
Ce28 S19 2.843449 1_555
Ce28 S10 2.843449 1_555
Ce28 S81 3.044563 1_555
Ce28 O0 3.207077 1_555
Ce29 O7 2.443499 1_555
Ce29 S35 2.928585 1_455
Ce29 S85 2.956302 1_455
Ce29 S71 2.985225 1_565
Ce29 S48 3.013329 1_555
Ce29 S70 3.019572 1_455
Ce29 S68 3.021879 1_565
Ce29 S39 3.023689 1_565
Ce29 S58 3.124649 1_465
Ce30 O7 2.443499 1_555
Ce30 S16 2.928585 1_455
Ce30 S85 2.956302 1_455
Ce30 S61 2.985225 1_565
Ce30 S23 3.013329 1_555
Ce30 S64 3.019572 1_455
Ce30 S46 3.021879 1_565
Ce30 S39 3.023689 1_565
Ce30 S24 3.124649 1_465
Ce31 O8 2.443499 1_555
Ce31 S38 2.928585 1_655
Ce31 S13 2.956302 1_655
Ce31 S7 2.985225 1_555
Ce31 S9 3.013329 1_555
Ce31 S65 3.019572 1_655
Ce31 S79 3.021879 1_555
Ce31 S40 3.023689 1_555
Ce31 S8 3.124649 1_655
Ce32 O11 2.423428 1_555
Ce32 S6 2.723063 1_555
Ce32 S38 2.904422 1_555
Ce32 S13 2.928074 1_555
Ce32 S67 2.959357 1_555
Ce32 S8 3.035906 1_555
Ce32 S69 3.050097 1_555
Ce32 S14 3.109898 1_555
Ce32 S79 3.192172 1_555
Ce33 S62 2.787706 1_555
Ce33 S7 2.787706 1_555
Ce33 S44 2.833683 1_655
Ce33 S8 2.833683 1_655
Ce33 S40 2.854292 1_555
Ce33 S15 2.854292 1_555
Ce33 O6 2.907019 1_655
Ce33 S59 3.035846 1_555
Ce34 S71 2.787706 1_555
Ce34 S34 2.787706 1_555
Ce34 S84 2.833683 1_455
Ce34 S58 2.833683 1_455
Ce34 S29 2.854292 1_555
Ce34 S39 2.854292 1_555
Ce34 O9 2.907019 1_455
Ce34 S43 3.035846 1_555
Ce35 S82 2.809807 1_555
Ce35 S22 2.810369 1_555
Ce35 S33 2.815216 1_555
Ce35 S34 2.833048 1_555
Ce35 S5 2.945304 1_555
Ce35 S56 3.025106 1_555
Ce35 S83 3.083084 1_555
Ce35 S21 3.157486 1_555
Ce35 S18 3.410127 1_555
Ce36 O3 2.423428 1_555
Ce36 S49 2.723063 1_555
Ce36 S36 2.904422 1_555
Ce36 S57 2.928074 1_555
Ce36 S77 2.959357 1_545
Ce36 S10 3.035906 1_545
Ce36 S1 3.050097 1_555
Ce36 S4 3.109898 1_545
Ce36 S66 3.192172 1_545
Ce37 O10 2.443499 1_555
Ce37 S80 2.928585 1_455
Ce37 S60 2.956302 1_455
Ce37 S34 2.985225 1_555
Ce37 S56 3.013329 1_555
Ce37 S70 3.019572 1_455
Ce37 S21 3.021879 1_555
Ce37 S29 3.023689 1_555
Ce37 S84 3.124649 1_455
Ce38 S20 2.809807 1_554
Ce38 S72 2.810369 1_555
Ce38 S6 2.815216 1_555
Ce38 S7 2.833048 1_555
Ce38 S50 2.945304 1_554
Ce38 S9 3.025106 1_555
Ce38 S14 3.083084 1_555
Ce38 S79 3.157486 1_555
Ce38 S42 3.410127 1_554
Ce39 S27 2.809807 1_556
Ce39 S73 2.810369 1_555
Ce39 S2 2.815216 1_545
Ce39 S61 2.833048 1_555
Ce39 S87 2.945304 1_556
Ce39 S23 3.025106 1_545
Ce39 S51 3.083084 1_555
Ce39 S46 3.157486 1_555
Ce39 S53 3.410127 1_546
S0 Ti0 2.461591 1_555
S1 Ti12 2.347594 1_555
S1 Ti17 2.493311 1_555
S3 Ti4 2.467371 1_655
S4 Ti3 2.502356 1_555
S5 Ti4 2.568492 1_555
S7 Ti16 2.467371 1_655
S8 Ti16 2.445428 1_555
S9 Ti13 2.469329 1_554
S10 Ti3 2.445428 1_555
S11 Ti3 2.467371 1_655
S12 Ti5 2.565251 1_555
S12 Ti12 2.603893 1_555
S12 Ti7 2.645341 1_555
S12 Ti8 2.645341 1_555
S13 Ti17 2.446056 1_555
S14 Ti16 2.502356 1_555
S15 Ti20 2.417358 1_555
S16 Ti6 2.568492 1_565
S17 Ti19 2.469329 1_555
S18 Ti4 2.502356 1_555
S19 Ti4 2.445428 1_555
S21 Ti11 2.380431 1_555
S21 Ti14 2.539082 1_555
S23 Ti21 2.469329 1_556
S24 Ti6 2.445428 1_555
S25 Ti8 2.380431 1_565
S25 Ti20 2.539082 1_555
S26 Ti6 2.469329 1_554
S29 Ti14 2.417358 1_555
S30 Ti7 2.380431 1_555
S30 Ti18 2.539082 1_555
S31 Ti5 2.418747 1_455
S31 Ti17 2.514033 1_555
S32 Ti11 2.380431 1_555
S32 Ti14 2.539082 1_555
S34 Ti19 2.467371 1_455
S35 Ti1 2.568492 1_565
S36 Ti3 2.568492 1_545
S37 Ti14 2.461591 1_555
S38 Ti16 2.568492 1_555
S39 Ti0 2.417358 1_555
S40 Ti18 2.417358 1_555
S42 Ti13 2.502356 1_555
S43 Ti0 2.427444 1_555
S43 Ti14 2.427444 1_555
S44 Ti21 2.445428 1_555
S45 Ti13 2.445428 1_555
S46 Ti2 2.380431 1_545
S46 Ti0 2.539082 1_555
S47 Ti1 2.469329 1_555
S48 Ti3 2.469329 1_555
S50 Ti13 2.568492 1_555
S51 Ti6 2.502356 1_555
S52 Ti10 2.347594 1_555
S52 Ti15 2.493311 1_555
S53 Ti21 2.502356 1_555
S54 Ti9 2.565251 1_555
S54 Ti10 2.603893 1_555
S54 Ti2 2.645341 1_555
S54 Ti11 2.645341 1_555
S55 Ti13 2.467371 1_455
S56 Ti4 2.469329 1_555
S57 Ti17 2.446056 1_555
S58 Ti1 2.445428 1_555
S59 Ti18 2.427444 1_555
S59 Ti20 2.427444 1_555
S60 Ti15 2.446056 1_555
S61 Ti6 2.467371 1_455
S62 Ti21 2.467371 1_655
S63 Ti5 2.565251 1_555
S63 Ti12 2.603893 1_555
S63 Ti7 2.645341 1_555
S63 Ti8 2.645341 1_555
S64 Ti9 2.418747 1_655
S64 Ti15 2.514033 1_555
S65 Ti5 2.418747 1_455
S65 Ti17 2.514033 1_555
S66 Ti8 2.380431 1_565
S66 Ti20 2.539082 1_555
S67 Ti18 2.461591 1_555
S68 Ti2 2.380431 1_545
S68 Ti0 2.539082 1_555
S69 Ti12 2.347594 1_555
S69 Ti17 2.493311 1_555
S70 Ti9 2.418747 1_655
S70 Ti15 2.514033 1_555
S71 Ti1 2.467371 1_455
S74 Ti16 2.469329 1_556
S75 Ti9 2.565251 1_555
S75 Ti10 2.603893 1_555
S75 Ti2 2.645341 1_555
S75 Ti11 2.645341 1_555
S76 Ti10 2.347594 1_555
S76 Ti15 2.493311 1_555
S77 Ti20 2.461591 1_555
S78 Ti1 2.502356 1_555
S79 Ti7 2.380431 1_555
S79 Ti18 2.539082 1_555
S80 Ti19 2.568492 1_555
S81 Ti20 2.427444 1_555
S81 Ti18 2.427444 1_555
S83 Ti19 2.502356 1_555
S84 Ti19 2.445428 1_555
S85 Ti15 2.446056 1_555
S86 Ti0 2.427444 1_555
S86 Ti14 2.427444 1_555
S87 Ti21 2.568492 1_545
O0 Ti3 1.895789 1_555
O0 Ti4 1.895789 1_555
O1 Ti8 1.983320 1_555
O1 Ti5 1.992276 1_555
O2 Ti11 1.991794 1_555
O2 Ti10 2.006543 1_555
O3 Ti8 1.991794 1_555
O3 Ti12 2.006543 1_555
O4 Ti6 1.895789 1_555
O4 Ti13 1.895789 1_555
O5 Ti2 1.991794 1_555
O5 Ti10 2.006543 1_555
O6 Ti21 1.895789 1_555
O6 Ti16 1.895789 1_555
O7 Ti2 1.983320 1_555
O7 Ti9 1.992276 1_555
O8 Ti7 1.983320 1_555
O8 Ti5 1.992276 1_555
O9 Ti19 1.895789 1_555
O9 Ti1 1.895789 1_555
O10 Ti11 1.983320 1_555
O10 Ti9 1.992276 1_555
O11 Ti7 1.991794 1_555
O11 Ti12 2.006543 1_555
