# generated using pymatgen
data_Li10Fe21O32
_symmetry_space_group_name_H-M   'P 1'
_cell_length_a   5.92321536
_cell_length_b   5.92027925
_cell_length_c   23.94944741
_cell_angle_alpha   59.91314573
_cell_angle_beta   59.82572976
_cell_angle_gamma   61.44986789
_symmetry_Int_Tables_number   1
_chemical_formula_structural   Li10Fe21O32
_chemical_formula_sum   'Li10 Fe21 O32'
_cell_volume   598.87217316
_cell_formula_units_Z   1
loop_
 _symmetry_equiv_pos_site_id
 _symmetry_equiv_pos_as_xyz
  1  'x, y, z'
loop_
 _atom_site_type_symbol
 _atom_site_label
 _atom_site_symmetry_multiplicity
 _atom_site_fract_x
 _atom_site_fract_y
 _atom_site_fract_z
 _atom_site_occupancy
  Li  Li0  1  0.99820200  0.42004600  0.00412400  1
  Li  Li1  1  0.99722800  0.49907200  0.25108300  1
  Li  Li2  1  0.49959500  0.49740900  0.50037100  1
  Li  Li3  1  0.99590400  0.99062500  0.12904100  1
  Li  Li4  1  0.99536700  0.99686400  0.25216300  1
  Li  Li5  1  0.99546000  0.00421700  0.37414600  1
  Li  Li6  1  0.00196000  0.00160600  0.62498300  1
  Li  Li7  1  0.99731000  0.99920500  0.50112400  1
  Li  Li8  1  0.49728100  0.50442200  0.87478100  1
  Li  Li9  1  0.01154300  0.01515800  0.84863900  1
  Fe  Fe0  1  0.43158900  0.01379600  0.99752500  1
  Fe  Fe1  1  0.50092300  0.51007500  0.99917300  1
  Fe  Fe2  1  0.49510500  0.49448800  0.12786800  1
  Fe  Fe3  1  0.49907500  0.49506800  0.25235800  1
  Fe  Fe4  1  0.49533300  0.99841200  0.12661100  1
  Fe  Fe5  1  0.50050500  0.49252600  0.37772600  1
  Fe  Fe6  1  0.01011100  0.48415600  0.12772400  1
  Fe  Fe7  1  0.49545200  0.99802800  0.25057100  1
  Fe  Fe8  1  0.49490100  0.98505500  0.37856700  1
  Fe  Fe9  1  0.48702200  0.01323400  0.62537100  1
  Fe  Fe10  1  0.98758600  0.49896200  0.37551300  1
  Fe  Fe11  1  0.50147800  0.99856000  0.49933900  1
  Fe  Fe12  1  0.50458600  0.50528400  0.62018900  1
  Fe  Fe13  1  0.52000600  0.01378800  0.86860900  1
  Fe  Fe14  1  0.99617800  0.50170200  0.50039900  1
  Fe  Fe15  1  0.50054400  0.49953100  0.75097000  1
  Fe  Fe16  1  0.51569700  0.98893000  0.74994900  1
  Fe  Fe17  1  0.01310400  0.48718200  0.62566800  1
  Fe  Fe18  1  0.99087700  0.51469400  0.74935700  1
  Fe  Fe19  1  0.01298500  0.51576200  0.86872300  1
  Fe  Fe20  1  0.92827000  0.92448100  0.97549900  1
  O  O0  1  0.25206400  0.23835100  0.06022200  1
  O  O1  1  0.24157500  0.73353900  0.06754500  1
  O  O2  1  0.24459800  0.24223000  0.19036700  1
  O  O3  1  0.70861200  0.26797400  0.06638200  1
  O  O4  1  0.24933900  0.24212100  0.31493000  1
  O  O5  1  0.27260200  0.73431400  0.18707000  1
  O  O6  1  0.76142000  0.73388500  0.06785300  1
  O  O7  1  0.24772600  0.74174100  0.31433400  1
  O  O8  1  0.74993400  0.24599700  0.18867100  1
  O  O9  1  0.23822700  0.24668300  0.43915900  1
  O  O10  1  0.72078900  0.25143100  0.31643000  1
  O  O11  1  0.74757900  0.74806000  0.18858400  1
  O  O12  1  0.24850500  0.24842200  0.56238700  1
  O  O13  1  0.25239800  0.73984000  0.43752400  1
  O  O14  1  0.74531300  0.75209200  0.31295500  1
  O  O15  1  0.25826200  0.74320400  0.56326500  1
  O  O16  1  0.74295400  0.25138900  0.43707800  1
  O  O17  1  0.25119100  0.25138000  0.68876100  1
  O  O18  1  0.74421800  0.25741300  0.56316300  1
  O  O19  1  0.75086200  0.74687900  0.43830400  1
  O  O20  1  0.24501900  0.24483900  0.81111200  1
  O  O21  1  0.26821600  0.73557500  0.68447500  1
  O  O22  1  0.75674900  0.75733600  0.56178300  1
  O  O23  1  0.73600000  0.26800700  0.68415900  1
  O  O24  1  0.24424900  0.25631100  0.93168200  1
  O  O25  1  0.27245700  0.73804800  0.81118600  1
  O  O26  1  0.73857800  0.27369200  0.81058100  1
  O  O27  1  0.75662100  0.75685500  0.68374600  1
  O  O28  1  0.28804500  0.74790000  0.93662800  1
  O  O29  1  0.75476100  0.74890400  0.81344000  1
  O  O30  1  0.74543000  0.28667000  0.93593200  1
  O  O31  1  0.76952700  0.78157800  0.94087700  1
loop_
_geom_bond_atom_site_label_1
_geom_bond_atom_site_label_2
_geom_bond_distance
_geom_bond_site_symmetry_2
Li0 O3 1.880209 1_555
Li0 O24 1.966648 1_654
Li0 O0 2.063725 1_655
Li0 O31 2.179680 1_554
Li0 O6 2.439122 1_555
Li1 O5 2.113596 1_655
Li1 O2 2.125777 1_655
Li1 O11 2.128210 1_555
Li1 O14 2.128939 1_555
Li1 O4 2.161965 1_655
Li1 O10 2.167468 1_555
Li2 O12 2.066557 1_555
Li2 O19 2.069283 1_555
Li2 O18 2.111886 1_555
Li2 O15 2.115331 1_555
Li2 O16 2.123030 1_555
Li2 O13 2.123697 1_555
Li3 O11 2.028924 1_555
Li3 O0 2.087853 1_665
Li3 O8 2.101337 1_565
Li3 O1 2.139913 1_655
Li3 O5 2.172165 1_655
Li3 O3 2.295558 1_565
Li4 O2 2.043955 1_665
Li4 O14 2.044960 1_555
Li4 O8 2.127217 1_565
Li4 O7 2.134754 1_655
Li4 O10 2.179887 1_565
Li4 O5 2.226932 1_655
Li5 O4 2.033300 1_655
Li5 O19 2.075084 1_545
Li5 O16 2.122052 1_555
Li5 O7 2.135426 1_645
Li5 O10 2.157763 1_555
Li5 O13 2.175598 1_645
Li6 O27 2.025883 1_445
Li6 O12 2.039057 1_555
Li6 O23 2.144648 1_455
Li6 O15 2.149726 1_545
Li6 O18 2.151837 1_455
Li6 O21 2.152335 1_545
Li7 O22 1.993717 1_555
Li7 O9 2.018638 1_665
Li7 O18 2.153932 1_565
Li7 O15 2.170889 1_655
Li7 O16 2.174537 1_565
Li7 O13 2.185094 1_655
Li8 O25 2.042635 1_555
Li8 O26 2.074433 1_555
Li8 O29 2.074824 1_555
Li8 O24 2.074889 1_555
Li8 O28 2.096531 1_555
Li8 O30 2.104043 1_555
Li9 O26 1.872128 1_455
Li9 O25 1.882245 1_545
Li9 O20 1.972799 1_555
Li9 O31 2.120331 1_445
Fe0 O24 1.935337 1_555
Fe0 O1 1.982370 1_546
Fe0 O0 2.048874 1_556
Fe0 O31 2.060845 1_545
Fe0 O6 2.610494 1_546
Fe1 O28 1.975661 1_555
Fe1 O30 2.028111 1_555
Fe1 O3 2.037308 1_556
Fe1 O1 2.119463 1_556
Fe1 O0 2.154118 1_556
Fe1 O31 2.241787 1_555
Fe2 O3 2.013181 1_555
Fe2 O5 2.028420 1_555
Fe2 O2 2.077668 1_555
Fe2 O6 2.092432 1_555
Fe2 O1 2.108252 1_555
Fe2 O8 2.121845 1_555
Fe3 O10 2.038586 1_555
Fe3 O11 2.072787 1_555
Fe3 O4 2.077350 1_555
Fe3 O5 2.079047 1_555
Fe3 O7 2.103800 1_555
Fe3 O8 2.142674 1_555
Fe4 O3 2.002658 1_565
Fe4 O5 2.015743 1_555
Fe4 O2 2.121754 1_565
Fe4 O6 2.130170 1_555
Fe4 O11 2.130480 1_555
Fe4 O0 2.168935 1_565
Fe5 O16 2.044187 1_555
Fe5 O13 2.069879 1_555
Fe5 O10 2.071232 1_555
Fe5 O14 2.085452 1_555
Fe5 O9 2.100725 1_555
Fe5 O7 2.156683 1_555
Fe6 O1 1.987880 1_555
Fe6 O8 2.060520 1_455
Fe6 O2 2.066418 1_555
Fe6 O6 2.080341 1_455
Fe6 O11 2.160121 1_455
Fe6 O0 2.195750 1_555
Fe7 O8 2.076475 1_565
Fe7 O7 2.083187 1_555
Fe7 O2 2.094566 1_565
Fe7 O11 2.117953 1_555
Fe7 O14 2.127095 1_555
Fe7 O4 2.133088 1_565
Fe8 O13 2.015850 1_555
Fe8 O10 2.038151 1_565
Fe8 O14 2.108548 1_555
Fe8 O19 2.109049 1_555
Fe8 O4 2.131095 1_565
Fe8 O9 2.145043 1_565
Fe9 O21 2.060281 1_545
Fe9 O18 2.072271 1_555
Fe9 O12 2.089557 1_555
Fe9 O17 2.091785 1_555
Fe9 O27 2.146700 1_545
Fe9 O22 2.172713 1_545
Fe10 O16 2.034073 1_555
Fe10 O7 2.079150 1_655
Fe10 O14 2.098666 1_555
Fe10 O19 2.123183 1_555
Fe10 O4 2.125635 1_655
Fe10 O9 2.151984 1_655
Fe11 O16 2.043116 1_565
Fe11 O15 2.061255 1_555
Fe11 O19 2.109077 1_555
Fe11 O12 2.135360 1_565
Fe11 O9 2.147920 1_565
Fe11 O22 2.151747 1_555
Fe12 O15 2.020203 1_555
Fe12 O18 2.025619 1_555
Fe12 O21 2.074258 1_555
Fe12 O23 2.076560 1_555
Fe12 O22 2.086048 1_555
Fe12 O17 2.100692 1_555
Fe13 O26 1.981550 1_555
Fe13 O28 2.065346 1_545
Fe13 O29 2.069948 1_545
Fe13 O24 2.112778 1_555
Fe13 O20 2.157963 1_555
Fe13 O31 2.305134 1_545
Fe14 O13 2.043947 1_655
Fe14 O18 2.051043 1_555
Fe14 O19 2.102818 1_555
Fe14 O9 2.126818 1_655
Fe14 O12 2.131339 1_655
Fe14 O22 2.132193 1_555
Fe15 O26 2.030145 1_555
Fe15 O25 2.039272 1_555
Fe15 O20 2.109832 1_555
Fe15 O27 2.123272 1_555
Fe15 O23 2.124273 1_555
Fe15 O21 2.125153 1_555
Fe16 O25 2.042082 1_555
Fe16 O23 2.073407 1_565
Fe16 O29 2.100303 1_555
Fe16 O27 2.115082 1_555
Fe16 O20 2.134009 1_565
Fe16 O17 2.171293 1_565
Fe17 O23 2.059612 1_455
Fe17 O15 2.071387 1_555
Fe17 O17 2.089558 1_555
Fe17 O12 2.092550 1_555
Fe17 O27 2.139042 1_455
Fe17 O22 2.182943 1_455
Fe18 O26 2.038820 1_555
Fe18 O21 2.067156 1_655
Fe18 O29 2.087189 1_555
Fe18 O27 2.116945 1_555
Fe18 O20 2.139184 1_655
Fe18 O17 2.152899 1_655
Fe19 O25 1.994715 1_555
Fe19 O29 2.045251 1_455
Fe19 O30 2.059930 1_455
Fe19 O24 2.062122 1_555
Fe19 O20 2.137922 1_555
Fe19 O31 2.365280 1_455
Fe20 O28 1.831070 1_655
Fe20 O30 1.855638 1_565
Fe20 O6 1.873049 1_556
Fe20 O31 2.129525 1_555
