# generated using pymatgen
data_Ca16HN8
_symmetry_space_group_name_H-M   'P 1'
_cell_length_a   7.29611600
_cell_length_b   10.35846100
_cell_length_c   14.71143500
_cell_angle_alpha   90.00000000
_cell_angle_beta   90.00000000
_cell_angle_gamma   90.00000000
_symmetry_Int_Tables_number   1
_chemical_formula_structural   Ca16HN8
_chemical_formula_sum   'Ca32 H2 N16'
_cell_volume   1111.83925331
_cell_formula_units_Z   2
loop_
 _symmetry_equiv_pos_site_id
 _symmetry_equiv_pos_as_xyz
  1  'x, y, z'
loop_
 _atom_site_type_symbol
 _atom_site_label
 _atom_site_symmetry_multiplicity
 _atom_site_fract_x
 _atom_site_fract_y
 _atom_site_fract_z
 _atom_site_occupancy
  Ca  Ca0  1  0.22003800  0.73529100  0.00023100  1
  Ca  Ca1  1  0.00000000  0.51062300  0.88897300  1
  Ca  Ca2  1  0.77996200  0.73529100  0.00023100  1
  Ca  Ca3  1  0.72518700  0.23615600  0.75163900  1
  Ca  Ca4  1  0.72450400  0.26429900  0.99821800  1
  Ca  Ca5  1  0.50000000  0.48540500  0.89002900  1
  Ca  Ca6  1  0.50000000  0.01561200  0.64017200  1
  Ca  Ca7  1  0.50000000  0.01480100  0.86002800  1
  Ca  Ca8  1  0.27549600  0.26429900  0.99821800  1
  Ca  Ca9  1  0.27481300  0.23615600  0.75163900  1
  Ca  Ca10  1  0.22450400  0.73570100  0.49821800  1
  Ca  Ca11  1  0.22009800  0.76479100  0.74973800  1
  Ca  Ca12  1  0.00000000  0.98902400  0.86061700  1
  Ca  Ca13  1  0.00000000  0.98461600  0.63939300  1
  Ca  Ca14  1  0.00000000  0.51459500  0.39002900  1
  Ca  Ca15  1  0.00000000  0.51576700  0.60931500  1
  Ca  Ca16  1  0.77549600  0.73570100  0.49821800  1
  Ca  Ca17  1  0.77990200  0.76479100  0.74973800  1
  Ca  Ca18  1  0.72009800  0.23520900  0.24973800  1
  Ca  Ca19  1  0.72003800  0.26470900  0.50023100  1
  Ca  Ca20  1  0.50000000  0.48937700  0.38897300  1
  Ca  Ca21  1  0.50000000  0.48468000  0.61044500  1
  Ca  Ca22  1  0.50000000  0.01538400  0.13939300  1
  Ca  Ca23  1  0.50000000  0.01097600  0.36061700  1
  Ca  Ca24  1  0.27996200  0.26470900  0.50023100  1
  Ca  Ca25  1  0.27990200  0.23520900  0.24973800  1
  Ca  Ca26  1  0.22518700  0.76384400  0.25163900  1
  Ca  Ca27  1  0.00000000  0.98438800  0.14017200  1
  Ca  Ca28  1  0.00000000  0.98519900  0.36002800  1
  Ca  Ca29  1  0.00000000  0.51532000  0.11044500  1
  Ca  Ca30  1  0.77481300  0.76384400  0.25163900  1
  Ca  Ca31  1  0.50000000  0.48423300  0.10931500  1
  H  H0  1  0.00000000  0.26434500  0.86063100  1
  H  H1  1  0.50000000  0.73565500  0.36063100  1
  N  N0  1  0.00000000  0.75033300  0.87480900  1
  N  N1  1  0.50000000  0.25074900  0.62499500  1
  N  N2  1  0.50000000  0.25000300  0.87508000  1
  N  N3  1  0.24976300  0.00036300  0.75061000  1
  N  N4  1  0.24991700  0.49948300  0.99940000  1
  N  N5  1  0.00000000  0.74999700  0.37508000  1
  N  N6  1  0.00000000  0.75043600  0.62450900  1
  N  N7  1  0.74991700  0.50051700  0.49940000  1
  N  N8  1  0.75023700  0.00036300  0.75061000  1
  N  N9  1  0.50000000  0.24956400  0.12450900  1
  N  N10  1  0.50000000  0.24966700  0.37480900  1
  N  N11  1  0.25023700  0.99963700  0.25061000  1
  N  N12  1  0.25008300  0.50051700  0.49940000  1
  N  N13  1  0.00000000  0.74925100  0.12499500  1
  N  N14  1  0.74976300  0.99963700  0.25061000  1
  N  N15  1  0.75008300  0.49948300  0.99940000  1
loop_
_geom_bond_atom_site_label_1
_geom_bond_atom_site_label_2
_geom_bond_distance
_geom_bond_site_symmetry_2
Ca0 N13 2.442785 1_555
Ca0 N0 2.450753 1_554
Ca0 N4 2.452347 1_554
Ca1 N4 2.444855 1_555
Ca1 N15 2.444855 1_455
Ca1 N0 2.491755 1_555
Ca1 H0 2.584910 1_555
Ca2 N13 2.442785 1_655
Ca2 N0 2.450753 1_654
Ca2 N15 2.452347 1_554
Ca3 N8 2.449328 1_555
Ca3 N2 2.453126 1_555
Ca3 N1 2.488667 1_555
Ca3 H0 2.583900 1_655
Ca4 N15 2.443344 1_555
Ca4 N2 2.446766 1_555
Ca4 N9 2.481580 1_556
Ca5 N15 2.437099 1_555
Ca5 N4 2.437099 1_555
Ca5 N2 2.448300 1_555
Ca6 N1 2.445870 1_555
Ca6 N8 2.449081 1_555
Ca6 N3 2.449081 1_555
Ca7 N8 2.438623 1_555
Ca7 N3 2.438623 1_555
Ca7 N2 2.446373 1_555
Ca8 N4 2.443344 1_555
Ca8 N2 2.446766 1_555
Ca8 N9 2.481580 1_556
Ca9 N3 2.449328 1_555
Ca9 N2 2.453126 1_555
Ca9 N1 2.488667 1_555
Ca9 H0 2.583900 1_555
Ca10 N12 2.443344 1_555
Ca10 N5 2.446766 1_555
Ca10 N6 2.481580 1_555
Ca11 N0 2.446778 1_555
Ca11 N6 2.448461 1_555
Ca11 N3 2.449777 1_565
Ca12 N3 2.440013 1_565
Ca12 N8 2.440013 1_465
Ca12 N0 2.481271 1_555
Ca13 N6 2.435607 1_555
Ca13 N3 2.454467 1_565
Ca13 N8 2.454467 1_465
Ca14 N12 2.437099 1_555
Ca14 N7 2.437099 1_455
Ca14 N5 2.448300 1_555
Ca15 N6 2.441065 1_555
Ca15 N12 2.443145 1_555
Ca15 N7 2.443145 1_455
Ca16 N7 2.443344 1_555
Ca16 N5 2.446766 1_655
Ca16 N6 2.481580 1_655
Ca17 N0 2.446778 1_655
Ca17 N6 2.448461 1_655
Ca17 N8 2.449777 1_565
Ca18 N10 2.446778 1_555
Ca18 N9 2.448461 1_555
Ca18 N14 2.449777 1_545
Ca19 N1 2.442785 1_555
Ca19 N10 2.450753 1_555
Ca19 N7 2.452347 1_555
Ca20 N7 2.444855 1_555
Ca20 N12 2.444855 1_555
Ca20 N10 2.491755 1_555
Ca20 H1 2.584910 1_555
Ca21 N1 2.432601 1_555
Ca21 N7 2.453678 1_555
Ca21 N12 2.453678 1_555
Ca22 N9 2.435607 1_555
Ca22 N14 2.454467 1_545
Ca22 N11 2.454467 1_545
Ca23 N14 2.440013 1_545
Ca23 N11 2.440013 1_545
Ca23 N10 2.481271 1_555
Ca24 N1 2.442785 1_555
Ca24 N10 2.450753 1_555
Ca24 N12 2.452347 1_555
Ca25 N10 2.446778 1_555
Ca25 N9 2.448461 1_555
Ca25 N11 2.449777 1_545
Ca26 N11 2.449328 1_555
Ca26 N5 2.453126 1_555
Ca26 N13 2.488667 1_555
Ca26 H1 2.583900 1_555
Ca27 N13 2.445870 1_555
Ca27 N11 2.449081 1_555
Ca27 N14 2.449081 1_455
Ca28 N11 2.438623 1_555
Ca28 N14 2.438623 1_455
Ca28 N5 2.446373 1_555
Ca29 N13 2.432601 1_555
Ca29 N4 2.453678 1_554
Ca29 N15 2.453678 1_454
Ca30 N14 2.449328 1_555
Ca30 N5 2.453126 1_655
Ca30 N13 2.488667 1_655
Ca30 H1 2.583900 1_555
Ca31 N9 2.441065 1_555
Ca31 N15 2.443145 1_554
Ca31 N4 2.443145 1_554
