# generated using pymatgen
data_La20Ti11(S22O3)2
_symmetry_space_group_name_H-M   'P 1'
_cell_length_a   10.49028476
_cell_length_b   14.42127496
_cell_length_c   22.81370047
_cell_angle_alpha   90.00000000
_cell_angle_beta   90.00000000
_cell_angle_gamma   90.00000000
_symmetry_Int_Tables_number   1
_chemical_formula_structural   La20Ti11(S22O3)2
_chemical_formula_sum   'La40 Ti22 S88 O12'
_cell_volume   3451.33145732
_cell_formula_units_Z   2
loop_
 _symmetry_equiv_pos_site_id
 _symmetry_equiv_pos_as_xyz
  1  'x, y, z'
loop_
 _atom_site_type_symbol
 _atom_site_label
 _atom_site_symmetry_multiplicity
 _atom_site_fract_x
 _atom_site_fract_y
 _atom_site_fract_z
 _atom_site_occupancy
  La  La0  1  0.04926030  0.95931150  0.83950472  1
  La  La1  1  0.04926030  0.54068850  0.83950472  1
  La  La2  1  0.36377720  0.46231425  0.33586884  1
  La  La3  1  0.36437812  0.75000000  0.33959106  1
  La  La4  1  0.61274599  0.25000000  0.03415339  1
  La  La5  1  0.36377720  0.46231425  0.16413116  1
  La  La6  1  0.95268393  0.75000000  0.15884523  1
  La  La7  1  0.95073970  0.45931150  0.16049528  1
  La  La8  1  0.33291004  0.05520247  0.53091235  1
  La  La9  1  0.92603970  0.75000000  0.96691650  1
  La  La10  1  0.33291004  0.05520247  0.96908765  1
  La  La11  1  0.92603970  0.75000000  0.53308350  1
  La  La12  1  0.95073970  0.04068850  0.33950472  1
  La  La13  1  0.04926030  0.54068850  0.66049528  1
  La  La14  1  0.04731607  0.25000000  0.65884523  1
  La  La15  1  0.33291004  0.44479753  0.96908765  1
  La  La16  1  0.63622280  0.53768575  0.83586884  1
  La  La17  1  0.63562188  0.25000000  0.66040894  1
  La  La18  1  0.07396030  0.25000000  0.46691650  1
  La  La19  1  0.36437812  0.75000000  0.16040894  1
  La  La20  1  0.95073970  0.04068850  0.16049528  1
  La  La21  1  0.38725401  0.75000000  0.53415339  1
  La  La22  1  0.63622280  0.96231425  0.83586884  1
  La  La23  1  0.61274599  0.25000000  0.46584661  1
  La  La24  1  0.66708996  0.94479753  0.46908765  1
  La  La25  1  0.66708996  0.55520247  0.03091235  1
  La  La26  1  0.95073970  0.45931150  0.33950472  1
  La  La27  1  0.63622280  0.96231425  0.66413116  1
  La  La28  1  0.38725401  0.75000000  0.96584661  1
  La  La29  1  0.63562188  0.25000000  0.83959106  1
  La  La30  1  0.63622280  0.53768575  0.66413116  1
  La  La31  1  0.95268393  0.75000000  0.34115477  1
  La  La32  1  0.04926030  0.95931150  0.66049528  1
  La  La33  1  0.36377720  0.03768575  0.33586884  1
  La  La34  1  0.07396030  0.25000000  0.03308350  1
  La  La35  1  0.33291004  0.44479753  0.53091235  1
  La  La36  1  0.04731607  0.25000000  0.84115477  1
  La  La37  1  0.66708996  0.55520247  0.46908765  1
  La  La38  1  0.36377720  0.03768575  0.16413116  1
  La  La39  1  0.66708996  0.94479753  0.03091235  1
  Ti  Ti0  1  0.84111285  0.75000000  0.75000000  1
  Ti  Ti1  1  0.33912855  0.59826046  0.75000000  1
  Ti  Ti2  1  0.15888715  0.25000000  0.25000000  1
  Ti  Ti3  1  0.15548224  0.61860602  0.06218918  1
  Ti  Ti4  1  0.66465660  0.63288199  0.25000000  1
  Ti  Ti5  1  0.33534340  0.13288199  0.75000000  1
  Ti  Ti6  1  0.54303778  0.75000000  0.75000000  1
  Ti  Ti7  1  0.15548224  0.88139398  0.06218918  1
  Ti  Ti8  1  0.33534340  0.36711801  0.75000000  1
  Ti  Ti9  1  0.66465660  0.86711801  0.25000000  1
  Ti  Ti10  1  0.45696222  0.25000000  0.25000000  1
  Ti  Ti11  1  0.84451776  0.38139398  0.93781082  1
  Ti  Ti12  1  0.33912855  0.90173954  0.75000000  1
  Ti  Ti13  1  0.15548224  0.88139398  0.43781082  1
  Ti  Ti14  1  0.14158540  0.75000000  0.75000000  1
  Ti  Ti15  1  0.84451776  0.11860602  0.56218918  1
  Ti  Ti16  1  0.85841460  0.25000000  0.25000000  1
  Ti  Ti17  1  0.84451776  0.11860602  0.93781082  1
  Ti  Ti18  1  0.66087145  0.09826046  0.25000000  1
  Ti  Ti19  1  0.66087145  0.40173954  0.25000000  1
  Ti  Ti20  1  0.15548224  0.61860602  0.43781082  1
  Ti  Ti21  1  0.84451776  0.38139398  0.56218918  1
  S  S0  1  0.92175273  0.88705986  0.07007981  1
  S  S1  1  0.83950008  0.38060762  0.04361234  1
  S  S2  1  0.16049992  0.61939238  0.95638766  1
  S  S3  1  0.66133370  0.25000000  0.18185300  1
  S  S4  1  0.49830618  0.08835710  0.06613220  1
  S  S5  1  0.84177888  0.11656420  0.82981192  1
  S  S6  1  0.16122543  0.06014727  0.42525056  1
  S  S7  1  0.49830618  0.41164290  0.06613220  1
  S  S8  1  0.38902360  0.88021560  0.06876190  1
  S  S9  1  0.83877457  0.93985273  0.57474944  1
  S  S10  1  0.33887711  0.25000000  0.67317391  1
  S  S11  1  0.07824727  0.38705986  0.92992019  1
  S  S12  1  0.83950008  0.11939238  0.04361234  1
  S  S13  1  0.84177888  0.38343580  0.82981192  1
  S  S14  1  0.33416189  0.00834713  0.67059049  1
  S  S15  1  0.67024095  0.75000000  0.01172630  1
  S  S16  1  0.16122543  0.43985273  0.07474944  1
  S  S17  1  0.31973187  0.25000000  0.33144975  1
  S  S18  1  0.33416189  0.49165287  0.67059049  1
  S  S19  1  0.33416189  0.49165287  0.82940951  1
  S  S20  1  0.10585904  0.38650518  0.75000000  1
  S  S21  1  0.10585904  0.11349482  0.75000000  1
  S  S22  1  0.38902360  0.61978440  0.06876190  1
  S  S23  1  0.15822112  0.61656420  0.17018808  1
  S  S24  1  0.66583811  0.50834713  0.17059049  1
  S  S25  1  0.83950008  0.38060762  0.45638766  1
  S  S26  1  0.66583811  0.99165287  0.32940951  1
  S  S27  1  0.84177888  0.38343580  0.67018808  1
  S  S28  1  0.66112289  0.75000000  0.17317391  1
  S  S29  1  0.61097640  0.11978440  0.93123810  1
  S  S30  1  0.50169382  0.91164290  0.56613220  1
  S  S31  1  0.50169382  0.58835710  0.56613220  1
  S  S32  1  0.66583811  0.99165287  0.17059049  1
  S  S33  1  0.92175273  0.88705986  0.42992019  1
  S  S34  1  0.07824727  0.38705986  0.57007981  1
  S  S35  1  0.33887711  0.25000000  0.82682609  1
  S  S36  1  0.83877457  0.93985273  0.92525056  1
  S  S37  1  0.67024095  0.75000000  0.48827370  1
  S  S38  1  0.84177888  0.11656420  0.67018808  1
  S  S39  1  0.00160464  0.25000000  0.33408069  1
  S  S40  1  0.16049992  0.61939238  0.54361234  1
  S  S41  1  0.66133370  0.25000000  0.31814700  1
  S  S42  1  0.15822112  0.88343580  0.17018808  1
  S  S43  1  0.61097640  0.38021560  0.93123810  1
  S  S44  1  0.83877457  0.56014727  0.57474944  1
  S  S45  1  0.31973187  0.25000000  0.16855025  1
  S  S46  1  0.32975905  0.25000000  0.98827370  1
  S  S47  1  0.56797559  0.11474167  0.75000000  1
  S  S48  1  0.43202441  0.88525833  0.25000000  1
  S  S49  1  0.50169382  0.58835710  0.93386780  1
  S  S50  1  0.16049992  0.88060762  0.95638766  1
  S  S51  1  0.00160464  0.25000000  0.16591931  1
  S  S52  1  0.16122543  0.06014727  0.07474944  1
  S  S53  1  0.49830618  0.41164290  0.43386780  1
  S  S54  1  0.99839536  0.75000000  0.66591931  1
  S  S55  1  0.38902360  0.61978440  0.43123810  1
  S  S56  1  0.66583811  0.50834713  0.32940951  1
  S  S57  1  0.07824727  0.11294014  0.92992019  1
  S  S58  1  0.33866630  0.75000000  0.68185300  1
  S  S59  1  0.49830618  0.08835710  0.43386780  1
  S  S60  1  0.16122543  0.43985273  0.42525056  1
  S  S61  1  0.84654504  0.58061727  0.75000000  1
  S  S62  1  0.92175273  0.61294014  0.07007981  1
  S  S63  1  0.68026813  0.75000000  0.83144975  1
  S  S64  1  0.15345496  0.08061727  0.25000000  1
  S  S65  1  0.15822112  0.88343580  0.32981192  1
  S  S66  1  0.89414096  0.61349482  0.25000000  1
  S  S67  1  0.68026813  0.75000000  0.66855025  1
  S  S68  1  0.50169382  0.91164290  0.93386780  1
  S  S69  1  0.33416189  0.00834713  0.82940951  1
  S  S70  1  0.33866630  0.75000000  0.81814700  1
  S  S71  1  0.07824727  0.11294014  0.57007981  1
  S  S72  1  0.15822112  0.61656420  0.32981192  1
  S  S73  1  0.99839536  0.75000000  0.83408069  1
  S  S74  1  0.66112289  0.75000000  0.32682609  1
  S  S75  1  0.92175273  0.61294014  0.42992019  1
  S  S76  1  0.16049992  0.88060762  0.54361234  1
  S  S77  1  0.83950008  0.11939238  0.45638766  1
  S  S78  1  0.56797559  0.38525833  0.75000000  1
  S  S79  1  0.43202441  0.61474167  0.25000000  1
  S  S80  1  0.89414096  0.88650518  0.25000000  1
  S  S81  1  0.15345496  0.41938273  0.25000000  1
  S  S82  1  0.38902360  0.88021560  0.43123810  1
  S  S83  1  0.32975905  0.25000000  0.51172630  1
  S  S84  1  0.61097640  0.11978440  0.56876190  1
  S  S85  1  0.83877457  0.56014727  0.92525056  1
  S  S86  1  0.84654504  0.91938273  0.75000000  1
  S  S87  1  0.61097640  0.38021560  0.56876190  1
  O  O0  1  0.14332949  0.75000000  0.43579121  1
  O  O1  1  0.84778604  0.11360326  0.25000000  1
  O  O2  1  0.52530414  0.88726605  0.75000000  1
  O  O3  1  0.52530414  0.61273395  0.75000000  1
  O  O4  1  0.85667051  0.25000000  0.93579121  1
  O  O5  1  0.84778604  0.38639674  0.25000000  1
  O  O6  1  0.14332949  0.75000000  0.06420879  1
  O  O7  1  0.15221396  0.61360326  0.75000000  1
  O  O8  1  0.47469586  0.38726605  0.25000000  1
  O  O9  1  0.85667051  0.25000000  0.56420879  1
  O  O10  1  0.47469586  0.11273395  0.25000000  1
  O  O11  1  0.15221396  0.88639674  0.75000000  1
loop_
_geom_bond_atom_site_label_1
_geom_bond_atom_site_label_2
_geom_bond_distance
_geom_bond_site_symmetry_2
La0 O11 2.538036 1_555
La0 S36 2.963258 1_455
La0 S86 3.003871 1_455
La0 S57 3.042331 1_565
La0 S73 3.067834 1_455
La0 S21 3.076696 1_565
La0 S69 3.079843 1_565
La0 S50 3.124161 1_555
La0 S5 3.151042 1_465
La1 O7 2.538036 1_555
La1 S85 2.963258 1_455
La1 S61 3.003871 1_455
La1 S11 3.042331 1_555
La1 S73 3.067834 1_455
La1 S20 3.076696 1_555
La1 S19 3.079843 1_555
La1 S2 3.124161 1_555
La1 S13 3.151042 1_455
La2 O8 2.522473 1_555
La2 S53 2.743000 1_555
La2 S60 2.962744 1_555
La2 S81 3.014777 1_555
La2 S79 3.030224 1_555
La2 S17 3.098149 1_555
La2 S72 3.101164 1_555
La2 S55 3.156106 1_555
La2 S56 3.240850 1_555
La3 S82 2.822186 1_555
La3 S55 2.822186 1_555
La3 S72 2.903411 1_555
La3 S65 2.903411 1_555
La3 S48 2.913065 1_555
La3 S79 2.913065 1_555
La3 S74 3.126529 1_555
La3 O0 3.192766 1_555
La4 S7 2.721668 1_555
La4 S4 2.721668 1_555
La4 S29 3.006542 1_554
La4 S43 3.006542 1_554
La4 S12 3.041797 1_555
La4 S1 3.041797 1_555
La4 S46 3.147732 1_554
La4 O4 3.403412 1_554
La4 S3 3.407906 1_555
La5 O8 2.522473 1_555
La5 S7 2.743000 1_555
La5 S16 2.962744 1_555
La5 S81 3.014777 1_555
La5 S79 3.030224 1_555
La5 S45 3.098149 1_555
La5 S23 3.101164 1_555
La5 S22 3.156106 1_555
La5 S24 3.240850 1_555
La6 S62 2.848341 1_555
La6 S0 2.848341 1_555
La6 S42 2.901535 1_655
La6 S23 2.901535 1_655
La6 S80 2.928669 1_555
La6 S66 2.928669 1_555
La6 O6 2.942961 1_655
La6 S28 3.075977 1_555
La7 O5 2.538036 1_555
La7 S16 2.963258 1_655
La7 S81 3.003871 1_655
La7 S62 3.042331 1_555
La7 S51 3.067834 1_655
La7 S66 3.076696 1_555
La7 S24 3.079843 1_555
La7 S1 3.124161 1_555
La7 S23 3.151042 1_655
La8 S30 2.840209 1_545
La8 S83 2.843316 1_555
La8 S59 2.853169 1_555
La8 S71 2.937444 1_555
La8 S6 3.009891 1_555
La8 S76 3.113650 1_545
La8 S84 3.181492 1_555
La8 S14 3.257457 1_555
La8 S82 3.447539 1_545
La9 S15 2.871532 1_556
La9 S36 3.039371 1_555
La9 S85 3.039371 1_555
La9 S0 3.073763 1_556
La9 S62 3.073763 1_556
La9 S2 3.107215 1_655
La9 S50 3.107215 1_655
La9 S73 3.124086 1_555
La9 O6 3.181575 1_656
La10 S68 2.840209 1_545
La10 S46 2.843316 1_555
La10 S4 2.853169 1_556
La10 S57 2.937444 1_555
La10 S52 3.009891 1_556
La10 S50 3.113650 1_545
La10 S29 3.181492 1_555
La10 S69 3.257457 1_555
La10 S8 3.447539 1_546
La11 S37 2.871532 1_555
La11 S9 3.039371 1_555
La11 S44 3.039371 1_555
La11 S33 3.073763 1_555
La11 S75 3.073763 1_555
La11 S40 3.107215 1_655
La11 S76 3.107215 1_655
La11 S54 3.124086 1_555
La11 O0 3.181575 1_655
La12 O1 2.538036 1_555
La12 S6 2.963258 1_655
La12 S64 3.003871 1_655
La12 S33 3.042331 1_545
La12 S39 3.067834 1_655
La12 S80 3.076696 1_545
La12 S26 3.079843 1_545
La12 S77 3.124161 1_555
La12 S65 3.151042 1_645
La13 O7 2.538036 1_555
La13 S44 2.963258 1_455
La13 S61 3.003871 1_455
La13 S34 3.042331 1_555
La13 S54 3.067834 1_455
La13 S20 3.076696 1_555
La13 S18 3.079843 1_555
La13 S40 3.124161 1_555
La13 S27 3.151042 1_455
La14 S34 2.848341 1_555
La14 S71 2.848341 1_555
La14 S27 2.901535 1_455
La14 S38 2.901535 1_455
La14 S20 2.928669 1_555
La14 S21 2.928669 1_555
La14 O9 2.942961 1_455
La14 S10 3.075977 1_555
La15 S49 2.840209 1_555
La15 S46 2.843316 1_555
La15 S7 2.853169 1_556
La15 S11 2.937444 1_555
La15 S16 3.009891 1_556
La15 S2 3.113650 1_555
La15 S43 3.181492 1_555
La15 S19 3.257457 1_555
La15 S22 3.447539 1_556
La16 O3 2.522473 1_555
La16 S49 2.743000 1_555
La16 S85 2.962744 1_555
La16 S61 3.014777 1_555
La16 S78 3.030224 1_555
La16 S63 3.098149 1_555
La16 S13 3.101164 1_555
La16 S43 3.156106 1_555
La16 S19 3.240850 1_555
La17 S84 2.822186 1_555
La17 S87 2.822186 1_555
La17 S38 2.903411 1_555
La17 S27 2.903411 1_555
La17 S47 2.913065 1_555
La17 S78 2.913065 1_555
La17 S10 3.126529 1_555
La17 O9 3.192766 1_555
La18 S83 2.871532 1_555
La18 S6 3.039371 1_555
La18 S60 3.039371 1_555
La18 S34 3.073763 1_555
La18 S71 3.073763 1_555
La18 S77 3.107215 1_455
La18 S25 3.107215 1_455
La18 S39 3.124086 1_555
La18 O9 3.181575 1_455
La19 S22 2.822186 1_555
La19 S8 2.822186 1_555
La19 S42 2.903411 1_555
La19 S23 2.903411 1_555
La19 S48 2.913065 1_555
La19 S79 2.913065 1_555
La19 S28 3.126529 1_555
La19 O6 3.192766 1_555
La20 O1 2.538036 1_555
La20 S52 2.963258 1_655
La20 S64 3.003871 1_655
La20 S0 3.042331 1_545
La20 S51 3.067834 1_655
La20 S80 3.076696 1_545
La20 S32 3.079843 1_545
La20 S12 3.124161 1_555
La20 S42 3.151042 1_645
La21 S30 2.721668 1_555
La21 S31 2.721668 1_555
La21 S82 3.006542 1_555
La21 S55 3.006542 1_555
La21 S40 3.041797 1_555
La21 S76 3.041797 1_555
La21 S37 3.147732 1_555
La21 O0 3.403412 1_555
La21 S58 3.407906 1_555
La22 O2 2.522473 1_555
La22 S68 2.743000 1_555
La22 S36 2.962744 1_555
La22 S86 3.014777 1_555
La22 S47 3.030224 1_565
La22 S63 3.098149 1_555
La22 S5 3.101164 1_565
La22 S29 3.156106 1_565
La22 S69 3.240850 1_565
La23 S53 2.721668 1_555
La23 S59 2.721668 1_555
La23 S87 3.006542 1_555
La23 S84 3.006542 1_555
La23 S25 3.041797 1_555
La23 S77 3.041797 1_555
La23 S83 3.147732 1_555
La23 O9 3.403412 1_555
La23 S41 3.407906 1_555
La24 S59 2.840209 1_565
La24 S37 2.843316 1_555
La24 S30 2.853169 1_555
La24 S33 2.937444 1_555
La24 S9 3.009891 1_555
La24 S77 3.113650 1_565
La24 S82 3.181492 1_555
La24 S26 3.257457 1_555
La24 S84 3.447539 1_565
La25 S7 2.840209 1_555
La25 S15 2.843316 1_555
La25 S49 2.853169 1_554
La25 S62 2.937444 1_555
La25 S85 3.009891 1_554
La25 S1 3.113650 1_555
La25 S22 3.181492 1_555
La25 S24 3.257457 1_555
La25 S43 3.447539 1_554
La26 O5 2.538036 1_555
La26 S60 2.963258 1_655
La26 S81 3.003871 1_655
La26 S75 3.042331 1_555
La26 S39 3.067834 1_655
La26 S66 3.076696 1_555
La26 S56 3.079843 1_555
La26 S25 3.124161 1_555
La26 S72 3.151042 1_655
La27 O2 2.522473 1_555
La27 S30 2.743000 1_555
La27 S9 2.962744 1_555
La27 S86 3.014777 1_555
La27 S47 3.030224 1_565
La27 S67 3.098149 1_555
La27 S38 3.101164 1_565
La27 S84 3.156106 1_565
La27 S14 3.240850 1_565
La28 S68 2.721668 1_555
La28 S49 2.721668 1_555
La28 S8 3.006542 1_556
La28 S22 3.006542 1_556
La28 S2 3.041797 1_555
La28 S50 3.041797 1_555
La28 S15 3.147732 1_556
La28 O6 3.403412 1_556
La28 S70 3.407906 1_555
La29 S43 2.822186 1_555
La29 S29 2.822186 1_555
La29 S13 2.903411 1_555
La29 S5 2.903411 1_555
La29 S78 2.913065 1_555
La29 S47 2.913065 1_555
La29 S35 3.126529 1_555
La29 O4 3.192766 1_555
La30 O3 2.522473 1_555
La30 S31 2.743000 1_555
La30 S44 2.962744 1_555
La30 S61 3.014777 1_555
La30 S78 3.030224 1_555
La30 S67 3.098149 1_555
La30 S27 3.101164 1_555
La30 S87 3.156106 1_555
La30 S18 3.240850 1_555
La31 S75 2.848341 1_555
La31 S33 2.848341 1_555
La31 S65 2.901535 1_655
La31 S72 2.901535 1_655
La31 S80 2.928669 1_555
La31 S66 2.928669 1_555
La31 O0 2.942961 1_655
La31 S74 3.075977 1_555
La32 O11 2.538036 1_555
La32 S9 2.963258 1_455
La32 S86 3.003871 1_455
La32 S71 3.042331 1_565
La32 S54 3.067834 1_455
La32 S21 3.076696 1_565
La32 S14 3.079843 1_565
La32 S76 3.124161 1_555
La32 S38 3.151042 1_465
La33 O10 2.522473 1_555
La33 S59 2.743000 1_555
La33 S6 2.962744 1_555
La33 S64 3.014777 1_555
La33 S48 3.030224 1_545
La33 S17 3.098149 1_555
La33 S65 3.101164 1_545
La33 S82 3.156106 1_545
La33 S26 3.240850 1_545
La34 S46 2.871532 1_554
La34 S52 3.039371 1_555
La34 S16 3.039371 1_555
La34 S11 3.073763 1_554
La34 S57 3.073763 1_554
La34 S1 3.107215 1_455
La34 S12 3.107215 1_455
La34 S51 3.124086 1_555
La34 O4 3.181575 1_454
La35 S31 2.840209 1_555
La35 S83 2.843316 1_555
La35 S53 2.853169 1_555
La35 S34 2.937444 1_555
La35 S60 3.009891 1_555
La35 S40 3.113650 1_555
La35 S87 3.181492 1_555
La35 S18 3.257457 1_555
La35 S55 3.447539 1_555
La36 S11 2.848341 1_555
La36 S57 2.848341 1_555
La36 S5 2.901535 1_455
La36 S13 2.901535 1_455
La36 S20 2.928669 1_555
La36 S21 2.928669 1_555
La36 O4 2.942961 1_455
La36 S35 3.075977 1_555
La37 S53 2.840209 1_555
La37 S37 2.843316 1_555
La37 S31 2.853169 1_555
La37 S75 2.937444 1_555
La37 S44 3.009891 1_555
La37 S25 3.113650 1_555
La37 S55 3.181492 1_555
La37 S56 3.257457 1_555
La37 S87 3.447539 1_555
La38 O10 2.522473 1_555
La38 S4 2.743000 1_555
La38 S52 2.962744 1_555
La38 S64 3.014777 1_555
La38 S48 3.030224 1_545
La38 S45 3.098149 1_555
La38 S42 3.101164 1_545
La38 S8 3.156106 1_545
La38 S32 3.240850 1_545
La39 S4 2.840209 1_565
La39 S15 2.843316 1_555
La39 S68 2.853169 1_554
La39 S0 2.937444 1_555
La39 S36 3.009891 1_554
La39 S12 3.113650 1_565
La39 S8 3.181492 1_555
La39 S32 3.257457 1_555
La39 S29 3.447539 1_564
S0 Ti7 2.459846 1_655
S1 Ti11 2.414325 1_554
S2 Ti3 2.414325 1_556
S3 Ti16 2.586761 1_555
S3 Ti10 2.648286 1_555
S3 Ti18 2.684330 1_555
S3 Ti19 2.684330 1_555
S5 Ti17 2.464198 1_555
S6 Ti13 2.594427 1_545
S8 Ti7 2.454559 1_555
S9 Ti15 2.594427 1_565
S10 Ti8 2.434333 1_555
S10 Ti5 2.434333 1_555
S11 Ti11 2.459846 1_455
S12 Ti17 2.414325 1_554
S13 Ti11 2.464198 1_555
S14 Ti12 2.376626 1_545
S14 Ti5 2.550996 1_555
S16 Ti3 2.594427 1_555
S17 Ti10 2.350575 1_555
S17 Ti2 2.509940 1_555
S18 Ti1 2.376626 1_555
S18 Ti8 2.550996 1_555
S19 Ti1 2.376626 1_555
S19 Ti8 2.550996 1_555
S20 Ti8 2.423537 1_555
S21 Ti5 2.423537 1_555
S22 Ti3 2.454559 1_555
S23 Ti3 2.464198 1_555
S24 Ti19 2.376626 1_555
S24 Ti4 2.550996 1_555
S25 Ti21 2.414325 1_555
S26 Ti18 2.376626 1_565
S26 Ti9 2.550996 1_555
S27 Ti21 2.464198 1_555
S28 Ti9 2.434333 1_555
S28 Ti4 2.434333 1_555
S29 Ti17 2.454559 1_555
S32 Ti18 2.376626 1_565
S32 Ti9 2.550996 1_555
S33 Ti13 2.459846 1_655
S34 Ti21 2.459846 1_455
S35 Ti8 2.434333 1_555
S35 Ti5 2.434333 1_555
S36 Ti17 2.594427 1_565
S38 Ti15 2.464198 1_555
S39 Ti16 2.436345 1_455
S39 Ti2 2.530169 1_555
S40 Ti20 2.414325 1_555
S41 Ti16 2.586761 1_555
S41 Ti10 2.648286 1_555
S41 Ti18 2.684330 1_555
S41 Ti19 2.684330 1_555
S42 Ti7 2.464198 1_555
S43 Ti11 2.454559 1_555
S44 Ti21 2.594427 1_555
S45 Ti10 2.350575 1_555
S45 Ti2 2.509940 1_555
S47 Ti5 2.454360 1_555
S48 Ti9 2.454360 1_555
S50 Ti7 2.414325 1_556
S51 Ti16 2.436345 1_455
S51 Ti2 2.530169 1_555
S52 Ti7 2.594427 1_545
S54 Ti14 2.436345 1_655
S54 Ti0 2.530169 1_555
S55 Ti20 2.454559 1_555
S56 Ti19 2.376626 1_555
S56 Ti4 2.550996 1_555
S57 Ti17 2.459846 1_455
S58 Ti14 2.586761 1_555
S58 Ti6 2.648286 1_555
S58 Ti12 2.684330 1_555
S58 Ti1 2.684330 1_555
S60 Ti20 2.594427 1_555
S61 Ti0 2.443380 1_555
S62 Ti3 2.459846 1_655
S63 Ti6 2.350575 1_555
S63 Ti0 2.509940 1_555
S64 Ti2 2.443380 1_555
S65 Ti13 2.464198 1_555
S66 Ti4 2.423537 1_555
S67 Ti6 2.350575 1_555
S67 Ti0 2.509940 1_555
S69 Ti12 2.376626 1_545
S69 Ti5 2.550996 1_555
S70 Ti14 2.586761 1_555
S70 Ti6 2.648286 1_555
S70 Ti12 2.684330 1_555
S70 Ti1 2.684330 1_555
S71 Ti15 2.459846 1_455
S72 Ti20 2.464198 1_555
S73 Ti14 2.436345 1_655
S73 Ti0 2.530169 1_555
S74 Ti9 2.434333 1_555
S74 Ti4 2.434333 1_555
S75 Ti20 2.459846 1_655
S76 Ti13 2.414325 1_555
S77 Ti15 2.414325 1_555
S78 Ti8 2.454360 1_555
S79 Ti4 2.454360 1_555
S80 Ti9 2.423537 1_555
S81 Ti2 2.443380 1_555
S82 Ti13 2.454559 1_555
S84 Ti15 2.454559 1_555
S85 Ti11 2.594427 1_555
S86 Ti0 2.443380 1_555
S87 Ti21 2.454559 1_555
O0 Ti13 1.899711 1_555
O0 Ti20 1.899711 1_555
O1 Ti16 1.970172 1_555
O1 Ti18 1.973232 1_555
O2 Ti12 1.964157 1_555
O2 Ti6 1.988273 1_555
O3 Ti1 1.964157 1_555
O3 Ti6 1.988273 1_555
O4 Ti17 1.899711 1_555
O4 Ti11 1.899711 1_555
O5 Ti16 1.970172 1_555
O5 Ti19 1.973232 1_555
O6 Ti3 1.899711 1_555
O6 Ti7 1.899711 1_555
O7 Ti14 1.970172 1_555
O7 Ti1 1.973232 1_555
O8 Ti19 1.964157 1_555
O8 Ti10 1.988273 1_555
O9 Ti15 1.899711 1_555
O9 Ti21 1.899711 1_555
O10 Ti18 1.964157 1_555
O10 Ti10 1.988273 1_555
O11 Ti14 1.970172 1_555
O11 Ti12 1.973232 1_555
