# generated using pymatgen
data_Cs2CrO4
_symmetry_space_group_name_H-M   'P 1'
_cell_length_a   6.28586950
_cell_length_b   8.45603694
_cell_length_c   11.19674205
_cell_angle_alpha   90.00000000
_cell_angle_beta   90.00000000
_cell_angle_gamma   90.00000000
_symmetry_Int_Tables_number   1
_chemical_formula_structural   Cs2CrO4
_chemical_formula_sum   'Cs8 Cr4 O16'
_cell_volume   595.14652896
_cell_formula_units_Z   4
loop_
 _symmetry_equiv_pos_site_id
 _symmetry_equiv_pos_as_xyz
  1  'x, y, z'
loop_
 _atom_site_type_symbol
 _atom_site_label
 _atom_site_symmetry_multiplicity
 _atom_site_fract_x
 _atom_site_fract_y
 _atom_site_fract_z
 _atom_site_occupancy
  Cs  Cs0  1  0.25000000  0.51634129  0.69444160  1
  Cs  Cs1  1  0.75000000  0.66771592  0.90931716  1
  Cs  Cs2  1  0.25000000  0.33228408  0.09068284  1
  Cs  Cs3  1  0.75000000  0.16771592  0.59068284  1
  Cs  Cs4  1  0.75000000  0.98365871  0.19444160  1
  Cs  Cs5  1  0.75000000  0.48365871  0.30555840  1
  Cs  Cs6  1  0.25000000  0.01634129  0.80555840  1
  Cs  Cs7  1  0.25000000  0.83228408  0.40931716  1
  Cr  Cr0  1  0.75000000  0.23619543  0.91987847  1
  Cr  Cr1  1  0.75000000  0.73619543  0.58012153  1
  Cr  Cr2  1  0.25000000  0.76380457  0.08012153  1
  Cr  Cr3  1  0.25000000  0.26380457  0.41987847  1
  O  O0  1  0.03492722  0.69317040  0.14578698  1
  O  O1  1  0.75000000  0.54179438  0.58896063  1
  O  O2  1  0.53492722  0.30682960  0.85421302  1
  O  O3  1  0.75000000  0.79199593  0.43854971  1
  O  O4  1  0.96507278  0.30682960  0.85421302  1
  O  O5  1  0.25000000  0.70800407  0.93854971  1
  O  O6  1  0.03492722  0.19317040  0.35421302  1
  O  O7  1  0.25000000  0.45820562  0.41103937  1
  O  O8  1  0.25000000  0.20800407  0.56145029  1
  O  O9  1  0.75000000  0.29199593  0.06145029  1
  O  O10  1  0.46507278  0.19317040  0.35421302  1
  O  O11  1  0.46507278  0.69317040  0.14578698  1
  O  O12  1  0.25000000  0.95820562  0.08896063  1
  O  O13  1  0.96507278  0.80682960  0.64578698  1
  O  O14  1  0.75000000  0.04179438  0.91103937  1
  O  O15  1  0.53492722  0.80682960  0.64578698  1
loop_
_geom_bond_atom_site_label_1
_geom_bond_atom_site_label_2
_geom_bond_distance
_geom_bond_site_symmetry_2
Cs0 O8 3.002565 1_555
Cs0 O15 3.088416 1_555
Cs0 O13 3.088416 1_455
Cs0 O2 3.089769 1_555
Cs0 O4 3.089769 1_455
Cs0 O5 3.177603 1_555
Cs0 O7 3.211036 1_555
Cs0 O1 3.364406 1_555
Cs0 O1 3.364406 1_455
Cs1 O14 3.163280 1_565
Cs1 O5 3.178244 1_655
Cs1 O5 3.178244 1_555
Cs1 O0 3.203800 1_656
Cs1 O11 3.203800 1_556
Cs1 O4 3.394265 1_555
Cs1 O2 3.394265 1_555
Cs1 O13 3.452245 1_555
Cs1 O15 3.452245 1_555
Cs1 O9 3.604932 1_556
Cs1 O1 3.741657 1_555
Cs2 O12 3.163280 1_545
Cs2 O9 3.178244 1_455
Cs2 O9 3.178244 1_555
Cs2 O2 3.203800 1_554
Cs2 O4 3.203800 1_454
Cs2 O0 3.394265 1_555
Cs2 O11 3.394265 1_555
Cs2 O10 3.452245 1_555
Cs2 O6 3.452245 1_555
Cs2 O5 3.604932 1_554
Cs2 O7 3.741657 1_555
Cs3 O1 3.163280 1_555
Cs3 O8 3.178244 1_555
Cs3 O8 3.178244 1_655
Cs3 O6 3.203800 1_655
Cs3 O10 3.203800 1_555
Cs3 O15 3.394265 1_545
Cs3 O13 3.394265 1_545
Cs3 O2 3.452245 1_555
Cs3 O4 3.452245 1_555
Cs3 O3 3.604932 1_545
Cs3 O14 3.741657 1_555
Cs4 O9 3.002565 1_565
Cs4 O11 3.088416 1_555
Cs4 O0 3.088416 1_655
Cs4 O10 3.089769 1_565
Cs4 O6 3.089769 1_665
Cs4 O3 3.177603 1_555
Cs4 O14 3.211036 1_564
Cs4 O12 3.364406 1_655
Cs4 O12 3.364406 1_555
Cs5 O3 3.002565 1_555
Cs5 O6 3.088416 1_655
Cs5 O10 3.088416 1_555
Cs5 O11 3.089769 1_555
Cs5 O0 3.089769 1_655
Cs5 O9 3.177603 1_555
Cs5 O1 3.211036 1_555
Cs5 O7 3.364406 1_555
Cs5 O7 3.364406 1_655
Cs6 O5 3.002565 1_545
Cs6 O4 3.088416 1_455
Cs6 O2 3.088416 1_555
Cs6 O15 3.089769 1_545
Cs6 O13 3.089769 1_445
Cs6 O8 3.177603 1_555
Cs6 O12 3.211036 1_546
Cs6 O14 3.364406 1_555
Cs6 O14 3.364406 1_455
Cs7 O7 3.163280 1_555
Cs7 O3 3.178244 1_455
Cs7 O3 3.178244 1_555
Cs7 O15 3.203800 1_555
Cs7 O13 3.203800 1_455
Cs7 O6 3.394265 1_565
Cs7 O10 3.394265 1_565
Cs7 O0 3.452245 1_555
Cs7 O11 3.452245 1_555
Cs7 O8 3.604932 1_565
Cs7 O12 3.741657 1_555
Cr0 O14 1.646839 1_555
Cr0 O4 1.650761 1_555
Cr0 O2 1.650761 1_555
Cr0 O9 1.653881 1_556
Cr1 O1 1.646839 1_555
Cr1 O13 1.650761 1_555
Cr1 O15 1.650761 1_555
Cr1 O3 1.653881 1_555
Cr2 O12 1.646839 1_555
Cr2 O0 1.650761 1_555
Cr2 O11 1.650761 1_555
Cr2 O5 1.653881 1_554
Cr3 O7 1.646839 1_555
Cr3 O6 1.650761 1_555
Cr3 O10 1.650761 1_555
Cr3 O8 1.653881 1_555
