# generated using pymatgen
data_Li19(Mn3As4)3
_symmetry_space_group_name_H-M   'P 1'
_cell_length_a   4.22963200
_cell_length_b   4.23203700
_cell_length_c   36.97714500
_cell_angle_alpha   90.00000000
_cell_angle_beta   90.00000000
_cell_angle_gamma   90.00000000
_symmetry_Int_Tables_number   1
_chemical_formula_structural   Li19(Mn3As4)3
_chemical_formula_sum   'Li19 Mn9 As12'
_cell_volume   661.88938389
_cell_formula_units_Z   1
loop_
 _symmetry_equiv_pos_site_id
 _symmetry_equiv_pos_as_xyz
  1  'x, y, z'
loop_
 _atom_site_type_symbol
 _atom_site_label
 _atom_site_symmetry_multiplicity
 _atom_site_fract_x
 _atom_site_fract_y
 _atom_site_fract_z
 _atom_site_occupancy
  Li  Li0  1  0.00000000  0.00000000  0.91773400  1
  Li  Li1  1  0.00000000  0.00000000  0.74531200  1
  Li  Li2  1  0.00000000  0.00000000  0.58447000  1
  Li  Li3  1  0.00000000  0.00000000  0.41006100  1
  Li  Li4  1  0.00000000  0.00000000  0.24876800  1
  Li  Li5  1  0.00000000  0.00000000  0.07913200  1
  Li  Li6  1  0.00000000  0.00000000  0.33766500  1
  Li  Li7  1  0.50000000  0.50000000  0.33767000  1
  Li  Li8  1  0.50000000  0.50000000  0.17033200  1
  Li  Li9  1  0.50000000  0.50000000  0.91782100  1
  Li  Li10  1  0.50000000  0.50000000  0.58444300  1
  Li  Li11  1  0.50000000  0.50000000  0.74530400  1
  Li  Li12  1  0.50000000  0.50000000  0.41001800  1
  Li  Li13  1  0.50000000  0.50000000  0.24737800  1
  Li  Li14  1  0.50000000  0.50000000  0.07918700  1
  Li  Li15  1  0.00000000  0.50000000  0.79041200  1
  Li  Li16  1  0.00000000  0.50000000  0.45323500  1
  Li  Li17  1  0.00000000  0.50000000  0.29395100  1
  Li  Li18  1  0.00000000  0.50000000  0.12541200  1
  Mn  Mn0  1  0.00000000  0.00000000  0.99976500  1
  Mn  Mn1  1  0.00000000  0.00000000  0.83602800  1
  Mn  Mn2  1  0.00000000  0.00000000  0.66687800  1
  Mn  Mn3  1  0.00000000  0.00000000  0.50295100  1
  Mn  Mn4  1  0.00000000  0.00000000  0.16987100  1
  Mn  Mn5  1  0.50000000  0.50000000  0.99983000  1
  Mn  Mn6  1  0.50000000  0.50000000  0.83605800  1
  Mn  Mn7  1  0.50000000  0.50000000  0.66687200  1
  Mn  Mn8  1  0.50000000  0.50000000  0.50295200  1
  As  As0  1  0.50000000  0.00000000  0.96219400  1
  As  As1  1  0.50000000  0.00000000  0.79422100  1
  As  As2  1  0.50000000  0.00000000  0.62889700  1
  As  As3  1  0.50000000  0.00000000  0.46391200  1
  As  As4  1  0.50000000  0.00000000  0.29124500  1
  As  As5  1  0.50000000  0.00000000  0.12542100  1
  As  As6  1  0.00000000  0.50000000  0.87368500  1
  As  As7  1  0.00000000  0.50000000  0.70570400  1
  As  As8  1  0.00000000  0.50000000  0.54006400  1
  As  As9  1  0.00000000  0.50000000  0.37714200  1
  As  As10  1  0.00000000  0.50000000  0.20685400  1
  As  As11  1  0.00000000  0.50000000  0.03781800  1
loop_
_geom_bond_atom_site_label_1
_geom_bond_atom_site_label_2
_geom_bond_distance
_geom_bond_site_symmetry_2
Li0 Mn1 3.021255 1_555
Li1 Li15 2.694189 1_545
Li1 Li15 2.694189 1_555
Li2 Mn3 3.014340 1_555
Li4 Mn4 2.917386 1_555
Li8 Mn4 2.991700 1_565
Li8 Mn4 2.991700 1_555
Li8 Mn4 2.991700 1_655
Li8 Mn4 2.991700 1_665
Li9 Mn6 3.023362 1_555
Li10 Mn8 3.013305 1_555
Li11 Li15 2.693428 1_655
Li11 Li15 2.693428 1_555
Li12 Li16 2.650695 1_555
Li12 Li16 2.650695 1_655
Li13 Li17 2.727307 1_555
Li13 Li17 2.727307 1_655
Li14 Li18 2.719199 1_655
Li14 Li18 2.719199 1_555
Li15 Mn6 2.705793 1_555
Li15 Mn6 2.705793 1_455
Li15 Mn1 2.706041 1_565
Li15 Mn1 2.706041 1_555
Li16 Li3 2.650696 1_555
Li16 Li3 2.650696 1_565
Li16 Mn8 2.802166 1_555
Li16 Mn8 2.802166 1_455
Li16 Mn3 2.803049 1_555
Li16 Mn3 2.803049 1_565
Li17 Li7 2.661927 1_555
Li17 Li7 2.661927 1_455
Li17 Li6 2.662770 1_555
Li17 Li6 2.662770 1_565
Li17 Li4 2.696090 1_555
Li17 Li4 2.696090 1_565
Li18 Mn4 2.679582 1_565
Li18 Mn4 2.679582 1_555
Li18 Li8 2.689128 1_455
Li18 Li8 2.689128 1_555
Li18 Li5 2.721413 1_555
Li18 Li5 2.721413 1_565
As0 Mn0 2.530319 1_655
As0 Mn0 2.530319 1_555
As0 Mn5 2.532644 1_545
As0 Mn5 2.532644 1_555
As0 Li9 2.677632 1_555
As0 Li9 2.677632 1_545
As0 Li0 2.678656 1_555
As0 Li0 2.678656 1_655
As1 Mn1 2.619592 1_555
As1 Mn1 2.619592 1_655
As1 Mn6 2.621218 1_555
As1 Mn6 2.621218 1_545
As1 Li1 2.782656 1_555
As1 Li1 2.782656 1_655
As1 Li11 2.783762 1_555
As1 Li11 2.783762 1_545
As1 Li15 2.994966 1_645
As1 Li15 2.994966 1_545
As1 Li15 2.994966 1_555
As1 Li15 2.994966 1_655
As2 Mn2 2.538674 1_555
As2 Mn2 2.538674 1_655
As2 Mn7 2.539553 1_555
As2 Mn7 2.539553 1_545
As2 Li2 2.677907 1_555
As2 Li2 2.677907 1_655
As2 Li10 2.679469 1_545
As2 Li10 2.679469 1_555
As3 Mn3 2.560524 1_655
As3 Mn3 2.560524 1_555
As3 Mn8 2.561539 1_555
As3 Mn8 2.561539 1_545
As3 Li3 2.904746 1_555
As3 Li3 2.904746 1_655
As3 Li12 2.906711 1_555
As3 Li12 2.906711 1_545
As3 Li16 3.017590 1_555
As3 Li16 3.017590 1_655
As3 Li16 3.017590 1_545
As3 Li16 3.017590 1_645
As4 Li4 2.634289 1_555
As4 Li4 2.634289 1_655
As4 Li13 2.666208 1_545
As4 Li13 2.666208 1_555
As4 Li6 2.723738 1_555
As4 Li6 2.723738 1_655
As4 Li7 2.724788 1_555
As4 Li7 2.724788 1_545
As4 Li17 2.993325 1_645
As4 Li17 2.993325 1_545
As4 Li17 2.993325 1_555
As4 Li17 2.993325 1_655
As5 Mn4 2.678429 1_655
As5 Mn4 2.678429 1_555
As5 Li8 2.689869 1_555
As5 Li8 2.689869 1_545
As5 Li14 2.720344 1_545
As5 Li14 2.720344 1_555
As5 Li5 2.720688 1_555
As5 Li5 2.720688 1_655
As5 Li18 2.991652 1_555
As5 Li18 2.991652 1_645
As5 Li18 2.991652 1_545
As5 Li18 2.991652 1_655
As6 Mn6 2.531456 1_555
As6 Mn6 2.531456 1_455
As6 Mn1 2.533071 1_565
As6 Mn1 2.533071 1_555
As6 Li0 2.670308 1_555
As6 Li0 2.670308 1_565
As6 Li9 2.671319 1_555
As6 Li9 2.671319 1_455
As6 Li15 3.079198 1_555
As7 Mn7 2.556217 1_455
As7 Mn7 2.556217 1_555
As7 Mn2 2.557087 1_555
As7 Mn2 2.557087 1_565
As7 Li11 2.572276 1_555
As7 Li11 2.572276 1_455
As7 Li1 2.573434 1_555
As7 Li1 2.573434 1_565
As7 Li15 3.132260 1_555
As8 Mn8 2.521040 1_555
As8 Mn8 2.521040 1_455
As8 Mn3 2.522069 1_555
As8 Mn3 2.522069 1_565
As8 Li10 2.676818 1_455
As8 Li10 2.676818 1_555
As8 Li2 2.678380 1_555
As8 Li2 2.678380 1_565
As9 Li12 2.439319 1_455
As9 Li12 2.439319 1_555
As9 Li3 2.441154 1_565
As9 Li3 2.441154 1_555
As9 Li7 2.569585 1_555
As9 Li7 2.569585 1_455
As9 Li6 2.570680 1_555
As9 Li6 2.570680 1_565
As9 Li16 2.813702 1_555
As9 Li17 3.076166 1_555
As10 Li8 2.509231 1_455
As10 Li8 2.509231 1_555
As10 Mn4 2.519456 1_565
As10 Mn4 2.519456 1_555
As10 Li13 2.591879 1_455
As10 Li13 2.591879 1_555
As10 Li4 2.622899 1_565
As10 Li4 2.622899 1_555
As10 Li18 3.011493 1_555
As11 Mn5 2.538818 1_554
As11 Mn5 2.538818 1_454
As11 Mn0 2.541149 1_564
As11 Mn0 2.541149 1_554
As11 Li5 2.609851 1_555
As11 Li5 2.609851 1_565
As11 Li14 2.610067 1_455
As11 Li14 2.610067 1_555
