# generated using pymatgen
data_NaY2In
_symmetry_space_group_name_H-M   'P 1'
_cell_length_a   6.07921054
_cell_length_b   6.07921054
_cell_length_c   6.07921054
_cell_angle_alpha   60.00000000
_cell_angle_beta   60.00000000
_cell_angle_gamma   60.00000000
_symmetry_Int_Tables_number   1
_chemical_formula_structural   NaY2In
_chemical_formula_sum   'Na1 Y2 In1'
_cell_volume   158.86438889
_cell_formula_units_Z   1
loop_
 _symmetry_equiv_pos_site_id
 _symmetry_equiv_pos_as_xyz
  1  'x, y, z'
loop_
 _atom_site_type_symbol
 _atom_site_label
 _atom_site_symmetry_multiplicity
 _atom_site_fract_x
 _atom_site_fract_y
 _atom_site_fract_z
 _atom_site_occupancy
  Na  Na0  1  0.50000000  0.50000000  0.50000000  1
  Y  Y0  1  0.25000000  0.25000000  0.25000000  1
  Y  Y1  1  0.75000000  0.75000000  0.75000000  1
  In  In0  1  0.00000000  0.00000000  0.00000000  1
loop_
_geom_bond_atom_site_label_1
_geom_bond_atom_site_label_2
_geom_bond_distance
_geom_bond_site_symmetry_2
Na0 Y1 3.722741 1_455
Na0 Y0 3.722741 1_655
Na0 Y1 3.722741 1_554
Na0 Y0 3.722741 1_556
Na0 Y0 3.722741 1_565
Na0 Y1 3.722741 1_555
Na0 Y0 3.722741 1_555
Na0 Y1 3.722741 1_545
In0 Y1 3.722741 1_544
In0 Y0 3.722741 1_455
In0 Y0 3.722741 1_554
In0 Y1 3.722741 1_445
In0 Y0 3.722741 1_545
In0 Y1 3.722741 1_444
In0 Y1 3.722741 1_454
In0 Y0 3.722741 1_555
