# generated using pymatgen
data_Cr(GaS2)2
_symmetry_space_group_name_H-M   'P 1'
_cell_length_a   7.15451914
_cell_length_b   7.15451914
_cell_length_c   7.15451914
_cell_angle_alpha   60.00000000
_cell_angle_beta   60.00000000
_cell_angle_gamma   60.00000000
_symmetry_Int_Tables_number   1
_chemical_formula_structural   Cr(GaS2)2
_chemical_formula_sum   'Cr2 Ga4 S8'
_cell_volume   258.95622281
_cell_formula_units_Z   2
loop_
 _symmetry_equiv_pos_site_id
 _symmetry_equiv_pos_as_xyz
  1  'x, y, z'
loop_
 _atom_site_type_symbol
 _atom_site_label
 _atom_site_symmetry_multiplicity
 _atom_site_fract_x
 _atom_site_fract_y
 _atom_site_fract_z
 _atom_site_occupancy
  Cr  Cr0  1  0.75000000  0.75000000  0.75000000  1
  Cr  Cr1  1  0.50000000  0.50000000  0.50000000  1
  Ga  Ga0  1  0.62500000  0.12500000  0.12500000  1
  Ga  Ga1  1  0.12500000  0.12500000  0.62500000  1
  Ga  Ga2  1  0.12500000  0.12500000  0.12500000  1
  Ga  Ga3  1  0.12500000  0.62500000  0.12500000  1
  S  S0  1  0.87508700  0.37497100  0.37497100  1
  S  S1  1  0.87502900  0.87502900  0.87502900  1
  S  S2  1  0.37491300  0.87502900  0.87502900  1
  S  S3  1  0.37497100  0.87508700  0.37497100  1
  S  S4  1  0.37497100  0.37497100  0.87508700  1
  S  S5  1  0.87502900  0.87502900  0.37491300  1
  S  S6  1  0.37497100  0.37497100  0.37497100  1
  S  S7  1  0.87502900  0.37491300  0.87502900  1
loop_
_geom_bond_atom_site_label_1
_geom_bond_atom_site_label_2
_geom_bond_distance
_geom_bond_site_symmetry_2
Cr0 S1 2.191123 1_555
Cr0 S7 2.191123 1_555
Cr0 S5 2.191123 1_555
Cr0 S2 2.191123 1_555
Cr1 S6 2.191123 1_555
Cr1 S4 2.191123 1_555
Cr1 S0 2.191123 1_555
Cr1 S3 2.191123 1_555
Ga0 S5 2.529211 1_545
Ga0 S7 2.529211 1_554
Ga0 S6 2.529211 1_555
Ga0 S4 2.529211 1_554
Ga0 S3 2.529211 1_545
Ga0 S1 2.529211 1_544
Ga1 S6 2.529211 1_555
Ga1 S2 2.529211 1_545
Ga1 S7 2.529211 1_455
Ga1 S0 2.529211 1_455
Ga1 S3 2.529211 1_545
Ga1 S1 2.529211 1_445
Ga2 S0 2.529211 1_455
Ga2 S4 2.529211 1_554
Ga2 S3 2.529211 1_545
Ga2 S5 2.529211 1_445
Ga2 S2 2.529211 1_544
Ga2 S7 2.529211 1_454
Ga3 S5 2.529211 1_455
Ga3 S2 2.529211 1_554
Ga3 S6 2.529211 1_555
Ga3 S0 2.529211 1_455
Ga3 S4 2.529211 1_554
Ga3 S1 2.529211 1_454
