# generated using pymatgen
data_Mn14Si23
_symmetry_space_group_name_H-M   'P 1'
_cell_length_a   4.98659700
_cell_length_b   13.62763300
_cell_length_c   13.98125400
_cell_angle_alpha   90.00000000
_cell_angle_beta   90.00000000
_cell_angle_gamma   90.00000000
_symmetry_Int_Tables_number   1
_chemical_formula_structural   Mn14Si23
_chemical_formula_sum   'Mn28 Si46'
_cell_volume   950.10329963
_cell_formula_units_Z   2
loop_
 _symmetry_equiv_pos_site_id
 _symmetry_equiv_pos_as_xyz
  1  'x, y, z'
loop_
 _atom_site_type_symbol
 _atom_site_label
 _atom_site_symmetry_multiplicity
 _atom_site_fract_x
 _atom_site_fract_y
 _atom_site_fract_z
 _atom_site_occupancy
  Mn  Mn0  1  0.50000000  0.25735700  0.54148300  1
  Mn  Mn1  1  0.50000000  0.21311800  0.73737700  1
  Mn  Mn2  1  0.00000000  0.24264300  0.04148300  1
  Mn  Mn3  1  0.00000000  0.43025000  0.94067600  1
  Mn  Mn4  1  0.00000000  0.71311800  0.76262300  1
  Mn  Mn5  1  0.50000000  0.93025000  0.55932400  1
  Mn  Mn6  1  0.50000000  0.14892600  0.02603800  1
  Mn  Mn7  1  0.50000000  0.57168900  0.17197900  1
  Mn  Mn8  1  0.50000000  0.74264300  0.45851700  1
  Mn  Mn9  1  0.00000000  0.88727900  0.25770800  1
  Mn  Mn10  1  0.50000000  0.51293500  0.57683800  1
  Mn  Mn11  1  0.50000000  0.78688200  0.26262300  1
  Mn  Mn12  1  0.50000000  0.61272100  0.75770800  1
  Mn  Mn13  1  0.50000000  0.48706500  0.42316200  1
  Mn  Mn14  1  0.50000000  0.42831100  0.82802100  1
  Mn  Mn15  1  0.00000000  0.07168900  0.32802100  1
  Mn  Mn16  1  0.00000000  0.35107400  0.52603800  1
  Mn  Mn17  1  0.00000000  0.92831100  0.67197900  1
  Mn  Mn18  1  0.00000000  0.56975000  0.05932400  1
  Mn  Mn19  1  0.00000000  0.11272100  0.74229200  1
  Mn  Mn20  1  0.00000000  0.98706500  0.07683800  1
  Mn  Mn21  1  0.00000000  0.28688200  0.23737700  1
  Mn  Mn22  1  0.00000000  0.01293500  0.92316200  1
  Mn  Mn23  1  0.50000000  0.85107400  0.97396200  1
  Mn  Mn24  1  0.50000000  0.38727900  0.24229200  1
  Mn  Mn25  1  0.50000000  0.06975000  0.44067600  1
  Mn  Mn26  1  0.00000000  0.64892600  0.47396200  1
  Mn  Mn27  1  0.00000000  0.75735700  0.95851700  1
  Si  Si0  1  0.00000000  0.31141900  0.82022700  1
  Si  Si1  1  0.73367100  0.09672600  0.60675100  1
  Si  Si2  1  0.50000000  0.74588400  0.84750000  1
  Si  Si3  1  0.27281600  0.61150900  0.32848700  1
  Si  Si4  1  0.50000000  0.98738900  0.08449500  1
  Si  Si5  1  0.74204300  0.33805100  0.38617500  1
  Si  Si6  1  0.25795700  0.33805100  0.38617500  1
  Si  Si7  1  0.00000000  0.75411600  0.34750000  1
  Si  Si8  1  0.50000000  0.01884300  0.73722300  1
  Si  Si9  1  0.25795700  0.66194900  0.61382500  1
  Si  Si10  1  0.00000000  0.18429400  0.46342200  1
  Si  Si11  1  0.76632900  0.40327400  0.10675100  1
  Si  Si12  1  0.27281600  0.38849100  0.67151300  1
  Si  Si13  1  0.75795700  0.83805100  0.11382500  1
  Si  Si14  1  0.50000000  0.81141900  0.67977300  1
  Si  Si15  1  0.23367100  0.59672600  0.89324900  1
  Si  Si16  1  0.76632900  0.59672600  0.89324900  1
  Si  Si17  1  0.00000000  0.48115700  0.23722300  1
  Si  Si18  1  0.72718400  0.61150900  0.32848700  1
  Si  Si19  1  0.72718400  0.38849100  0.67151300  1
  Si  Si20  1  0.75795700  0.16194900  0.88617500  1
  Si  Si21  1  0.00000000  0.81570600  0.53657800  1
  Si  Si22  1  0.50000000  0.18858100  0.32022700  1
  Si  Si23  1  0.23367100  0.40327400  0.10675100  1
  Si  Si24  1  0.50000000  0.68429400  0.03657800  1
  Si  Si25  1  0.24204300  0.16194900  0.88617500  1
  Si  Si26  1  0.00000000  0.00000000  0.50000000  1
  Si  Si27  1  0.50000000  0.01261100  0.91550500  1
  Si  Si28  1  0.74204300  0.66194900  0.61382500  1
  Si  Si29  1  0.26632900  0.90327400  0.39324900  1
  Si  Si30  1  0.77281600  0.88849100  0.82848700  1
  Si  Si31  1  0.00000000  0.68858100  0.17977300  1
  Si  Si32  1  0.50000000  0.98115700  0.26277700  1
  Si  Si33  1  0.00000000  0.24588400  0.65250000  1
  Si  Si34  1  0.24204300  0.83805100  0.11382500  1
  Si  Si35  1  0.00000000  0.51884300  0.76277700  1
  Si  Si36  1  0.26632900  0.09672600  0.60675100  1
  Si  Si37  1  0.77281600  0.11150900  0.17151300  1
  Si  Si38  1  0.73367100  0.90327400  0.39324900  1
  Si  Si39  1  0.50000000  0.31570600  0.96342200  1
  Si  Si40  1  0.50000000  0.50000000  0.00000000  1
  Si  Si41  1  0.00000000  0.51261100  0.58449500  1
  Si  Si42  1  0.50000000  0.25411600  0.15250000  1
  Si  Si43  1  0.22718400  0.88849100  0.82848700  1
  Si  Si44  1  0.22718400  0.11150900  0.17151300  1
  Si  Si45  1  0.00000000  0.48738900  0.41550500  1
loop_
_geom_bond_atom_site_label_1
_geom_bond_atom_site_label_2
_geom_bond_distance
_geom_bond_site_symmetry_2
Mn0 Si1 2.642397 1_555
Mn0 Si36 2.642397 1_555
Mn0 Si6 2.716805 1_555
Mn0 Si5 2.716805 1_555
Mn0 Si12 2.789624 1_555
Mn0 Si19 2.789624 1_555
Mn0 Mn1 2.804411 1_555
Mn0 Mn16 2.809672 1_655
Mn0 Mn16 2.809672 1_555
Mn0 Si10 2.898110 1_655
Mn0 Si10 2.898110 1_555
Mn0 Mn25 2.919390 1_555
Mn0 Si33 2.941118 1_555
Mn0 Si33 2.941118 1_655
Mn0 Si22 3.232305 1_555
Mn1 Si25 2.543398 1_555
Mn1 Si20 2.543398 1_555
Mn1 Si8 2.647509 1_555
Mn1 Si1 2.684965 1_555
Mn1 Si36 2.684965 1_555
Mn1 Si33 2.797167 1_655
Mn1 Si33 2.797167 1_555
Mn1 Si12 2.800554 1_555
Mn1 Si19 2.800554 1_555
Mn2 Si23 2.642397 1_555
Mn2 Si11 2.642397 1_455
Mn2 Si25 2.716805 1_554
Mn2 Si20 2.716805 1_454
Mn2 Si44 2.789624 1_555
Mn2 Si37 2.789624 1_455
Mn2 Mn21 2.804411 1_555
Mn2 Mn6 2.809672 1_455
Mn2 Mn6 2.809672 1_555
Mn2 Si39 2.898110 1_554
Mn2 Si39 2.898110 1_454
Mn2 Mn3 2.919390 1_554
Mn2 Si42 2.941118 1_455
Mn2 Si42 2.941118 1_555
Mn2 Si0 3.232305 1_554
Mn3 Si0 2.336313 1_555
Mn3 Si11 2.623791 1_456
Mn3 Si23 2.623791 1_556
Mn3 Si15 2.635206 1_555
Mn3 Si16 2.635206 1_455
Mn3 Si35 2.764783 1_555
Mn3 Si40 2.794277 1_456
Mn3 Si40 2.794277 1_556
Mn4 Si9 2.543398 1_555
Mn4 Si28 2.543398 1_455
Mn4 Si35 2.647509 1_555
Mn4 Si16 2.684965 1_455
Mn4 Si15 2.684965 1_555
Mn4 Si2 2.797167 1_455
Mn4 Si2 2.797167 1_555
Mn4 Si43 2.800554 1_555
Mn4 Si30 2.800554 1_455
Mn5 Si14 2.336313 1_555
Mn5 Si38 2.623791 1_555
Mn5 Si29 2.623791 1_555
Mn5 Si1 2.635206 1_565
Mn5 Si36 2.635206 1_565
Mn5 Si8 2.764783 1_565
Mn5 Si26 2.794277 1_665
Mn5 Si26 2.794277 1_565
Mn5 Mn8 2.919390 1_555
Mn6 Si42 2.276195 1_555
Mn6 Si20 2.347330 1_554
Mn6 Si25 2.347330 1_554
Mn6 Si4 2.348191 1_545
Mn6 Si27 2.416422 1_554
Mn6 Si39 2.435592 1_554
Mn6 Si37 2.499519 1_555
Mn6 Si44 2.499519 1_555
Mn7 Si24 2.436914 1_555
Mn7 Si3 2.523094 1_555
Mn7 Si18 2.523094 1_555
Mn7 Si40 2.595374 1_555
Mn7 Si11 2.804095 1_555
Mn7 Si23 2.804095 1_555
Mn7 Si17 2.927583 1_555
Mn7 Si17 2.927583 1_655
Mn8 Si38 2.642397 1_555
Mn8 Si29 2.642397 1_555
Mn8 Si9 2.716805 1_555
Mn8 Si28 2.716805 1_555
Mn8 Si18 2.789624 1_555
Mn8 Si3 2.789624 1_555
Mn8 Si21 2.898110 1_555
Mn8 Si21 2.898110 1_655
Mn8 Si7 2.941118 1_655
Mn8 Si7 2.941118 1_555
Mn8 Si14 3.232305 1_555
Mn9 Si7 2.206618 1_555
Mn9 Si29 2.324317 1_555
Mn9 Si38 2.324317 1_455
Mn9 Si13 2.440006 1_455
Mn9 Si34 2.440006 1_555
Mn9 Si32 2.803258 1_555
Mn9 Si32 2.803258 1_455
Mn10 Mn13 2.177315 1_555
Mn10 Si9 2.418258 1_555
Mn10 Si28 2.418258 1_555
Mn10 Si12 2.431362 1_555
Mn10 Si19 2.431362 1_555
Mn10 Si41 2.495600 1_555
Mn10 Si41 2.495600 1_655
Mn11 Si34 2.543398 1_555
Mn11 Si13 2.543398 1_555
Mn11 Si32 2.647509 1_555
Mn11 Si38 2.684965 1_555
Mn11 Si29 2.684965 1_555
Mn11 Si7 2.797167 1_655
Mn11 Si7 2.797167 1_555
Mn11 Si18 2.800554 1_555
Mn11 Si3 2.800554 1_555
Mn11 Mn8 2.804411 1_555
Mn12 Si2 2.206618 1_555
Mn12 Si15 2.324317 1_555
Mn12 Si16 2.324317 1_555
Mn12 Si28 2.440006 1_555
Mn12 Si9 2.440006 1_555
Mn12 Si35 2.803258 1_555
Mn12 Si35 2.803258 1_655
Mn13 Si5 2.418258 1_555
Mn13 Si6 2.418258 1_555
Mn13 Si3 2.431362 1_555
Mn13 Si18 2.431362 1_555
Mn13 Si45 2.495600 1_655
Mn13 Si45 2.495600 1_555
Mn14 Si39 2.436914 1_555
Mn14 Si19 2.523094 1_555
Mn14 Si12 2.523094 1_555
Mn14 Si40 2.595374 1_556
Mn14 Si15 2.804095 1_555
Mn14 Si16 2.804095 1_555
Mn14 Si35 2.927583 1_655
Mn14 Si35 2.927583 1_555
Mn15 Si10 2.436914 1_555
Mn15 Si44 2.523094 1_555
Mn15 Si37 2.523094 1_455
Mn15 Si26 2.595374 1_555
Mn15 Si29 2.804095 1_545
Mn15 Si38 2.804095 1_445
Mn15 Si32 2.927583 1_445
Mn15 Si32 2.927583 1_545
Mn16 Si33 2.276195 1_555
Mn16 Si6 2.347330 1_555
Mn16 Si5 2.347330 1_455
Mn16 Si41 2.348191 1_555
Mn16 Si45 2.416422 1_555
Mn16 Si10 2.435592 1_555
Mn16 Si19 2.499519 1_455
Mn16 Si12 2.499519 1_555
Mn17 Si21 2.436914 1_555
Mn17 Si43 2.523094 1_555
Mn17 Si30 2.523094 1_455
Mn17 Si26 2.595374 1_565
Mn17 Si36 2.804095 1_565
Mn17 Si1 2.804095 1_465
Mn17 Si8 2.927583 1_465
Mn17 Si8 2.927583 1_565
Mn18 Si31 2.336313 1_555
Mn18 Si16 2.623791 1_454
Mn18 Si15 2.623791 1_554
Mn18 Si23 2.635206 1_555
Mn18 Si11 2.635206 1_455
Mn18 Si17 2.764783 1_555
Mn18 Si40 2.794277 1_455
Mn18 Si40 2.794277 1_555
Mn18 Mn27 2.919390 1_554
Mn19 Si33 2.206618 1_555
Mn19 Si1 2.324317 1_455
Mn19 Si36 2.324317 1_555
Mn19 Si25 2.440006 1_555
Mn19 Si20 2.440006 1_455
Mn19 Si8 2.803258 1_555
Mn19 Si8 2.803258 1_455
Mn20 Mn22 2.177315 1_564
Mn20 Si13 2.418258 1_455
Mn20 Si34 2.418258 1_555
Mn20 Si44 2.431362 1_565
Mn20 Si37 2.431362 1_465
Mn20 Si4 2.495600 1_455
Mn20 Si4 2.495600 1_555
Mn21 Si6 2.543398 1_555
Mn21 Si5 2.543398 1_455
Mn21 Si17 2.647509 1_555
Mn21 Si23 2.684965 1_555
Mn21 Si11 2.684965 1_455
Mn21 Si42 2.797167 1_455
Mn21 Si42 2.797167 1_555
Mn21 Si37 2.800554 1_455
Mn21 Si44 2.800554 1_555
Mn22 Si25 2.418258 1_555
Mn22 Si20 2.418258 1_455
Mn22 Si43 2.431362 1_545
Mn22 Si30 2.431362 1_445
Mn22 Si27 2.495600 1_455
Mn22 Si27 2.495600 1_555
Mn23 Si2 2.276195 1_555
Mn23 Si34 2.347330 1_556
Mn23 Si13 2.347330 1_556
Mn23 Si27 2.348191 1_565
Mn23 Si4 2.416422 1_556
Mn23 Si24 2.435592 1_556
Mn23 Si30 2.499519 1_555
Mn23 Si43 2.499519 1_555
Mn23 Mn27 2.809672 1_655
Mn23 Mn27 2.809672 1_555
Mn24 Si42 2.206618 1_555
Mn24 Si11 2.324317 1_555
Mn24 Si23 2.324317 1_555
Mn24 Si5 2.440006 1_555
Mn24 Si6 2.440006 1_555
Mn24 Si17 2.803258 1_655
Mn24 Si17 2.803258 1_555
Mn25 Si22 2.336313 1_555
Mn25 Si1 2.623791 1_555
Mn25 Si36 2.623791 1_555
Mn25 Si38 2.635206 1_545
Mn25 Si29 2.635206 1_545
Mn25 Si32 2.764783 1_545
Mn25 Si26 2.794277 1_655
Mn25 Si26 2.794277 1_555
Mn26 Si7 2.276195 1_555
Mn26 Si28 2.347330 1_455
Mn26 Si9 2.347330 1_555
Mn26 Si45 2.348191 1_555
Mn26 Si41 2.416422 1_555
Mn26 Si21 2.435592 1_555
Mn26 Si18 2.499519 1_455
Mn26 Si3 2.499519 1_555
Mn26 Mn8 2.809672 1_555
Mn26 Mn8 2.809672 1_455
Mn27 Si16 2.642397 1_455
Mn27 Si15 2.642397 1_555
Mn27 Si34 2.716805 1_556
Mn27 Si13 2.716805 1_456
Mn27 Si30 2.789624 1_455
Mn27 Si43 2.789624 1_555
Mn27 Mn4 2.804411 1_555
Mn27 Si24 2.898110 1_556
Mn27 Si24 2.898110 1_456
Mn27 Si2 2.941118 1_455
Mn27 Si2 2.941118 1_555
Mn27 Si31 3.232305 1_556
Si0 Si25 2.540862 1_555
Si0 Si20 2.540862 1_455
Si0 Si19 2.697593 1_455
Si0 Si12 2.697593 1_555
Si1 Si36 2.330446 1_555
Si1 Si26 2.393510 1_655
Si1 Si8 2.410767 1_555
Si1 Si33 2.510908 1_655
Si1 Si36 2.656151 1_655
Si1 Si10 2.683943 1_655
Si2 Si30 2.387091 1_555
Si2 Si43 2.387091 1_555
Si3 Si7 2.387091 1_555
Si3 Si45 2.488365 1_555
Si3 Si31 2.697593 1_555
Si4 Si44 2.488365 1_565
Si5 Si6 2.413942 1_555
Si5 Si6 2.572655 1_655
Si10 Si26 2.563030 1_555
Si10 Si36 2.683943 1_555
Si10 Si5 2.685429 1_455
Si10 Si6 2.685429 1_555
Si11 Si23 2.330446 1_655
Si11 Si40 2.393510 1_555
Si11 Si17 2.410767 1_655
Si11 Si42 2.510908 1_555
Si11 Si23 2.656151 1_555
Si11 Si39 2.683943 1_554
Si12 Si19 2.265750 1_555
Si12 Si33 2.387091 1_555
Si12 Si41 2.488365 1_555
Si12 Si35 2.575742 1_555
Si12 Si19 2.720847 1_455
Si13 Si34 2.413942 1_655
Si13 Si4 2.442237 1_555
Si13 Si31 2.540862 1_655
Si13 Si34 2.572655 1_555
Si13 Si24 2.685429 1_555
Si14 Si9 2.540862 1_555
Si14 Si28 2.540862 1_555
Si14 Si30 2.697593 1_555
Si14 Si43 2.697593 1_555
Si15 Si16 2.330446 1_455
Si15 Si40 2.393510 1_556
Si15 Si35 2.410767 1_555
Si15 Si2 2.510908 1_555
Si15 Si16 2.656151 1_555
Si15 Si24 2.683943 1_556
Si16 Si40 2.393510 1_556
Si16 Si35 2.410767 1_655
Si16 Si2 2.510908 1_555
Si16 Si24 2.683943 1_556
Si17 Si23 2.410767 1_555
Si17 Si45 2.494052 1_555
Si17 Si18 2.575742 1_455
Si17 Si3 2.575742 1_555
Si18 Si3 2.265750 1_555
Si18 Si7 2.387091 1_655
Si18 Si45 2.488365 1_655
Si18 Si31 2.697593 1_655
Si18 Si3 2.720847 1_655
Si19 Si33 2.387091 1_655
Si19 Si41 2.488365 1_655
Si19 Si35 2.575742 1_655
Si20 Si25 2.413942 1_655
Si20 Si27 2.442237 1_555
Si20 Si25 2.572655 1_555
Si20 Si39 2.685429 1_555
Si21 Si26 2.563030 1_565
Si21 Si29 2.683943 1_555
Si21 Si38 2.683943 1_455
Si21 Si28 2.685429 1_455
Si21 Si9 2.685429 1_555
Si22 Si5 2.540862 1_555
Si22 Si6 2.540862 1_555
Si22 Si37 2.697593 1_555
Si22 Si44 2.697593 1_555
Si23 Si40 2.393510 1_555
Si23 Si42 2.510908 1_555
Si23 Si39 2.683943 1_554
Si24 Si40 2.563030 1_555
Si24 Si34 2.685429 1_555
Si25 Si27 2.442237 1_555
Si25 Si39 2.685429 1_555
Si26 Si29 2.393510 1_545
Si26 Si38 2.393510 1_445
Si26 Si36 2.393510 1_555
Si27 Si4 2.387563 1_546
Si27 Si30 2.488365 1_545
Si27 Si43 2.488365 1_545
Si27 Si8 2.494052 1_555
Si28 Si9 2.413942 1_555
Si28 Si41 2.442237 1_655
Si28 Si9 2.572655 1_655
Si29 Si38 2.330446 1_555
Si29 Si32 2.410767 1_555
Si29 Si7 2.510908 1_555
Si29 Si38 2.656151 1_455
Si30 Si43 2.265750 1_655
Si30 Si8 2.575742 1_565
Si30 Si43 2.720847 1_555
Si31 Si34 2.540862 1_555
Si32 Si38 2.410767 1_555
Si32 Si4 2.494052 1_555
Si32 Si37 2.575742 1_565
Si32 Si44 2.575742 1_565
Si33 Si36 2.510908 1_555
Si34 Si4 2.442237 1_555
Si35 Si41 2.494052 1_555
Si36 Si8 2.410767 1_555
Si37 Si44 2.265750 1_655
Si37 Si42 2.387091 1_555
Si37 Si4 2.488365 1_545
Si37 Si44 2.720847 1_555
Si38 Si7 2.510908 1_655
Si39 Si40 2.563030 1_556
Si41 Si45 2.387563 1_555
Si41 Si9 2.442237 1_555
Si42 Si44 2.387091 1_555
Si43 Si8 2.575742 1_565
Si45 Si5 2.442237 1_455
Si45 Si6 2.442237 1_555
