# generated using pymatgen
data_Sr(AlS2)2
_symmetry_space_group_name_H-M   'P 1'
_cell_length_a   14.80099946
_cell_length_b   12.24695321
_cell_length_c   11.99332931
_cell_angle_alpha   75.25696413
_cell_angle_beta   53.14911161
_cell_angle_gamma   51.59392425
_symmetry_Int_Tables_number   1
_chemical_formula_structural   Sr(AlS2)2
_chemical_formula_sum   'Sr8 Al16 S32'
_cell_volume   1338.83018038
_cell_formula_units_Z   8
loop_
 _symmetry_equiv_pos_site_id
 _symmetry_equiv_pos_as_xyz
  1  'x, y, z'
loop_
 _atom_site_type_symbol
 _atom_site_label
 _atom_site_symmetry_multiplicity
 _atom_site_fract_x
 _atom_site_fract_y
 _atom_site_fract_z
 _atom_site_occupancy
  Sr  Sr0  1  0.87622200  0.87338300  0.37797700  1
  Sr  Sr1  1  0.37952200  0.37458000  0.87507000  1
  Sr  Sr2  1  0.12843000  0.12405100  0.62640700  1
  Sr  Sr3  1  0.62142300  0.62227600  0.12578800  1
  Sr  Sr4  1  0.62153800  0.62679900  0.63024000  1
  Sr  Sr5  1  0.37644700  0.37156600  0.37793700  1
  Sr  Sr6  1  0.12513800  0.12118300  0.12783200  1
  Sr  Sr7  1  0.87110400  0.87910900  0.87905600  1
  Al  Al0  1  0.89234400  0.60572400  0.13112200  1
  Al  Al1  1  0.86972500  0.13437900  0.60740700  1
  Al  Al2  1  0.13711800  0.86443000  0.88602500  1
  Al  Al3  1  0.60363300  0.89384000  0.86612200  1
  Al  Al4  1  0.10425700  0.39431600  0.86579100  1
  Al  Al5  1  0.13140400  0.86788100  0.38998600  1
  Al  Al6  1  0.86208700  0.13820100  0.11285200  1
  Al  Al7  1  0.38677900  0.11252300  0.13598400  1
  Al  Al8  1  0.02982300  0.47256000  0.36588100  1
  Al  Al9  1  0.63172400  0.36684100  0.47163100  1
  Al  Al10  1  0.36599700  0.63347900  0.03314700  1
  Al  Al11  1  0.46763400  0.02875500  0.63607200  1
  Al  Al12  1  0.96942900  0.53366300  0.63286300  1
  Al  Al13  1  0.35829400  0.63874300  0.53318100  1
  Al  Al14  1  0.63945700  0.35787000  0.96808500  1
  Al  Al15  1  0.52913300  0.96687600  0.36758600  1
  S  S0  1  0.30864200  0.19456900  0.83646400  1
  S  S1  1  0.15540700  0.83979700  0.19238800  1
  S  S2  1  0.83887600  0.16407400  0.30986600  1
  S  S3  1  0.18677100  0.31029100  0.16390000  1
  S  S4  1  0.68491000  0.81034000  0.16619400  1
  S  S5  1  0.84497400  0.15928600  0.80531600  1
  S  S6  1  0.15791400  0.84320100  0.68799000  1
  S  S7  1  0.80695300  0.69328300  0.83812000  1
  S  S8  1  0.91302800  0.92354900  0.58337500  1
  S  S9  1  0.07545600  0.58197800  0.92334000  1
  S  S10  1  0.58486100  0.07484700  0.91695200  1
  S  S11  1  0.92434200  0.91359900  0.07670700  1
  S  S12  1  0.07836300  0.08398700  0.41811500  1
  S  S13  1  0.92250100  0.41359700  0.07897600  1
  S  S14  1  0.41945500  0.91547100  0.08353500  1
  S  S15  1  0.07649000  0.08445900  0.92474200  1
  S  S16  1  0.41466000  0.41891700  0.58502500  1
  S  S17  1  0.07633300  0.58146100  0.42174500  1
  S  S18  1  0.58466500  0.07815800  0.41328200  1
  S  S19  1  0.42074200  0.41421800  0.07843500  1
  S  S20  1  0.58314200  0.57898900  0.41363000  1
  S  S21  1  0.92455000  0.41695700  0.57658200  1
  S  S22  1  0.41743400  0.92201900  0.57801400  1
  S  S23  1  0.57925100  0.58127200  0.92451100  1
  S  S24  1  0.64103600  0.85696000  0.66192000  1
  S  S25  1  0.34104200  0.66379700  0.84959000  1
  S  S26  1  0.66430500  0.33586900  0.64017700  1
  S  S27  1  0.85122200  0.64327600  0.34209000  1
  S  S28  1  0.35392900  0.14797400  0.33349600  1
  S  S29  1  0.65898000  0.34081100  0.14875500  1
  S  S30  1  0.33645400  0.66619600  0.35350800  1
  S  S31  1  0.14625400  0.35908400  0.66302500  1
loop_
_geom_bond_atom_site_label_1
_geom_bond_atom_site_label_2
_geom_bond_distance
_geom_bond_site_symmetry_2
Al0 S9 2.220021 1_654
Al0 S13 2.288246 1_555
Al0 S4 2.304592 1_555
Al0 S27 2.319741 1_555
Al1 S12 2.237664 1_655
Al1 S5 2.246742 1_555
Al1 S26 2.286134 1_555
Al1 S8 2.293855 1_545
Al2 S25 2.255764 1_555
Al2 S6 2.267468 1_555
Al2 S11 2.283979 1_456
Al2 S15 2.326986 1_565
Al3 S10 2.254410 1_565
Al3 S24 2.265936 1_555
Al3 S7 2.285987 1_555
Al3 S14 2.286658 1_556
Al4 S31 2.207732 1_555
Al4 S13 2.257832 1_456
Al4 S9 2.275394 1_555
Al4 S0 2.286135 1_555
Al5 S1 2.261394 1_555
Al5 S30 2.268639 1_555
Al5 S12 2.300011 1_565
Al5 S8 2.316520 1_455
Al6 S2 2.252477 1_555
Al6 S29 2.258940 1_555
Al6 S15 2.273025 1_654
Al6 S11 2.362610 1_545
Al7 S28 2.217189 1_555
Al7 S3 2.248847 1_555
Al7 S10 2.325383 1_554
Al7 S14 2.326183 1_545
Al8 S17 2.202339 1_555
Al8 S21 2.235380 1_455
Al8 S27 2.274820 1_455
Al8 S3 2.275627 1_555
Al9 S26 2.239266 1_555
Al9 S20 2.260593 1_555
Al9 S2 2.277837 1_555
Al9 S16 2.287567 1_555
Al10 S23 2.247856 1_554
Al10 S19 2.290079 1_555
Al10 S1 2.297359 1_555
Al10 S25 2.347255 1_554
Al11 S24 2.241214 1_545
Al11 S22 2.244156 1_545
Al11 S0 2.280462 1_555
Al11 S18 2.331048 1_555
Al12 S17 2.201882 1_655
Al12 S21 2.268961 1_555
Al12 S7 2.274256 1_555
Al12 S31 2.311131 1_655
Al13 S6 2.246684 1_555
Al13 S30 2.278764 1_555
Al13 S16 2.304380 1_555
Al13 S20 2.334823 1_555
Al14 S5 2.254057 1_555
Al14 S19 2.292940 1_556
Al14 S29 2.295196 1_556
Al14 S23 2.313976 1_555
Al15 S22 2.196004 1_555
Al15 S4 2.238372 1_555
Al15 S18 2.268385 1_565
Al15 S28 2.339900 1_565
S0 Sr1 3.186055 1_555
S0 Sr6 3.232039 1_556
S1 Sr0 3.085556 1_455
S1 Sr6 3.133008 1_565
S2 Sr6 3.117266 1_655
S2 Sr0 3.203661 1_545
S3 Sr6 3.160906 1_555
S3 Sr1 3.210510 1_554
S4 Sr7 3.191784 1_554
S4 Sr3 3.197795 1_555
S5 Sr2 3.133047 1_655
S5 Sr7 3.150009 1_545
S6 Sr2 3.129726 1_565
S6 Sr7 3.160777 1_455
S7 Sr7 3.183473 1_555
S7 Sr3 3.205649 1_556
S8 Sr0 3.088433 1_555
S8 Sr7 3.170908 1_555
S9 Sr7 3.152845 1_455
S9 Sr1 3.234428 1_555
S10 Sr7 3.086881 1_545
S10 Sr1 3.161534 1_555
S11 Sr7 3.095514 1_554
S11 Sr0 3.201344 1_555
S12 Sr6 3.082366 1_555
S12 Sr2 3.213495 1_555
S13 Sr6 3.139821 1_655
S13 Sr3 3.206894 1_555
S14 Sr3 3.104955 1_555
S14 Sr6 3.142500 1_565
S15 Sr6 3.117222 1_556
S15 Sr2 3.147887 1_555
S16 Sr5 3.106501 1_555
S16 Sr1 3.144122 1_555
S17 Sr0 3.095642 1_455
S17 Sr5 3.211884 1_555
S18 Sr5 3.101955 1_555
S18 Sr0 3.161218 1_545
S19 Sr1 3.051585 1_554
S19 Sr5 3.201738 1_555
S20 Sr3 3.100841 1_555
S20 Sr4 3.220755 1_555
S21 Sr2 3.154940 1_655
S21 Sr4 3.192537 1_555
S22 Sr2 3.059304 1_565
S22 Sr4 3.183865 1_555
S23 Sr3 3.046780 1_556
S23 Sr4 3.152930 1_555
S24 Sr4 3.140134 1_555
S24 Sr0 3.171297 1_555
S25 Sr4 3.087248 1_555
S25 Sr1 3.180426 1_555
S26 Sr1 3.143529 1_555
S26 Sr4 3.190934 1_555
S27 Sr4 3.153772 1_555
S27 Sr0 3.219920 1_555
S28 Sr5 3.159656 1_555
S28 Sr2 3.192787 1_555
S29 Sr3 3.096275 1_555
S29 Sr5 3.157077 1_555
S30 Sr3 3.106469 1_555
S30 Sr5 3.236106 1_555
S31 Sr5 3.119338 1_555
S31 Sr2 3.205267 1_555
