# generated using pymatgen
data_TiCo2
_symmetry_space_group_name_H-M   'P 1'
_cell_length_a   4.72971929
_cell_length_b   4.72968339
_cell_length_c   4.72968042
_cell_angle_alpha   59.99995261
_cell_angle_beta   60.00018276
_cell_angle_gamma   60.00021509
_symmetry_Int_Tables_number   1
_chemical_formula_structural   TiCo2
_chemical_formula_sum   'Ti2 Co4'
_cell_volume   74.81443229
_cell_formula_units_Z   2
loop_
 _symmetry_equiv_pos_site_id
 _symmetry_equiv_pos_as_xyz
  1  'x, y, z'
loop_
 _atom_site_type_symbol
 _atom_site_label
 _atom_site_symmetry_multiplicity
 _atom_site_fract_x
 _atom_site_fract_y
 _atom_site_fract_z
 _atom_site_occupancy
  Ti  Ti0  1  0.12501065  0.12499664  0.12499506  1
  Ti  Ti1  1  0.87498935  0.87500336  0.87500494  1
  Co  Co0  1  0.00000000  0.50000000  0.50000000  1
  Co  Co1  1  0.50000000  -0.00000000  0.50000000  1
  Co  Co2  1  0.50000000  0.50000000  0.00000000  1
  Co  Co3  1  0.50000000  0.50000000  0.50000000  1
loop_
_geom_bond_atom_site_label_1
_geom_bond_atom_site_label_2
_geom_bond_distance
_geom_bond_site_symmetry_2
Ti0 Ti1 2.896277 1_544
Ti0 Ti1 2.896350 1_444
Ti0 Ti1 2.896356 1_454
Ti0 Ti1 2.896365 1_445
Co0 Co2 2.364856 1_456
Co0 Co2 2.364856 1_555
Co0 Co1 2.364858 1_465
Co0 Co1 2.364858 1_555
Co0 Co3 2.364860 1_455
Co0 Co3 2.364860 1_555
Co0 Ti0 2.773023 1_556
Co0 Ti1 2.773023 1_454
Co0 Ti1 2.773030 1_445
Co0 Ti0 2.773030 1_565
Co0 Ti1 2.773035 1_455
Co0 Ti0 2.773035 1_555
Co1 Co2 2.364839 1_546
Co1 Co2 2.364839 1_555
Co1 Co3 2.364842 1_555
Co1 Co3 2.364842 1_545
Co1 Ti1 2.773001 1_544
Co1 Ti0 2.773001 1_556
Co1 Ti1 2.773015 1_545
Co1 Ti0 2.773015 1_555
Co1 Ti1 2.773081 1_445
Co1 Ti0 2.773081 1_655
Co2 Co3 2.364840 1_555
Co2 Co3 2.364840 1_554
Co2 Ti0 2.773007 1_565
Co2 Ti1 2.773007 1_544
Co2 Ti1 2.773012 1_554
Co2 Ti0 2.773012 1_555
Co2 Ti1 2.773079 1_454
Co2 Ti0 2.773079 1_655
Co3 Ti1 2.773003 1_554
Co3 Ti0 2.773003 1_556
Co3 Ti1 2.773011 1_545
Co3 Ti0 2.773011 1_565
Co3 Ti1 2.773082 1_455
Co3 Ti0 2.773082 1_655
