# generated using pymatgen
data_PH12C2N6O3F
_symmetry_space_group_name_H-M   'P 1'
_cell_length_a   7.62016989
_cell_length_b   7.62016989
_cell_length_c   11.86778689
_cell_angle_alpha   64.20401915
_cell_angle_beta   64.20401915
_cell_angle_gamma   57.71095823
_symmetry_Int_Tables_number   1
_chemical_formula_structural   PH12C2N6O3F
_chemical_formula_sum   'P2 H24 C4 N12 O6 F2'
_cell_volume   505.56664435
_cell_formula_units_Z   2
loop_
 _symmetry_equiv_pos_site_id
 _symmetry_equiv_pos_as_xyz
  1  'x, y, z'
loop_
 _atom_site_type_symbol
 _atom_site_label
 _atom_site_symmetry_multiplicity
 _atom_site_fract_x
 _atom_site_fract_y
 _atom_site_fract_z
 _atom_site_occupancy
  P  P0  1  0.80156600  0.80156600  0.12705300  1
  P  P1  1  0.27466100  0.27466100  0.69534400  1
  H  H0  1  0.30230000  0.86115100  0.86929200  1
  H  H1  1  0.86115100  0.30230000  0.86929200  1
  H  H2  1  0.29589600  0.62930400  0.99070400  1
  H  H3  1  0.62930400  0.29589600  0.99070400  1
  H  H4  1  0.86192900  0.62265700  0.71276400  1
  H  H5  1  0.62265700  0.86192900  0.71276400  1
  H  H6  1  0.13925900  0.37807300  0.15376600  1
  H  H7  1  0.37807300  0.13925900  0.15376600  1
  H  H8  1  0.83433000  0.15246900  0.14722200  1
  H  H9  1  0.15246900  0.83433000  0.14722200  1
  H  H10  1  0.82839200  0.38735600  0.14714700  1
  H  H11  1  0.38735600  0.82839200  0.14714700  1
  H  H12  1  0.02364700  0.53381300  0.34524800  1
  H  H13  1  0.53381300  0.02364700  0.34524800  1
  H  H14  1  0.05284800  0.48553100  0.49860700  1
  H  H15  1  0.48553100  0.05284800  0.49860700  1
  H  H16  1  0.77491700  0.44201600  0.34053300  1
  H  H17  1  0.44201600  0.77491700  0.34053300  1
  H  H18  1  0.67655800  0.27442900  0.48501200  1
  H  H19  1  0.27442900  0.67655800  0.48501200  1
  H  H20  1  0.91690600  0.24918400  0.68224400  1
  H  H21  1  0.24918400  0.91690600  0.68224400  1
  H  H22  1  0.72634500  0.20033300  0.66927200  1
  H  H23  1  0.20033300  0.72634500  0.66927200  1
  C  C0  1  0.59504900  0.59504900  0.85936000  1
  C  C1  1  0.11950100  0.11950100  0.15046300  1
  C  C2  1  0.86908400  0.36208700  0.50079700  1
  C  C3  1  0.36208700  0.86908400  0.50079700  1
  N  N0  1  0.38422200  0.70109300  0.91129400  1
  N  N1  1  0.70109300  0.38422200  0.91129400  1
  N  N2  1  0.70090500  0.70090500  0.75542500  1
  N  N3  1  0.21890900  0.21890900  0.15282000  1
  N  N4  1  0.91171200  0.22660900  0.15016400  1
  N  N5  1  0.22660900  0.91171200  0.15016400  1
  N  N6  1  0.99744500  0.46351600  0.44311000  1
  N  N7  1  0.46351600  0.99744500  0.44311000  1
  N  N8  1  0.78505100  0.34164000  0.43142100  1
  N  N9  1  0.34164000  0.78505100  0.43142100  1
  N  N10  1  0.82322600  0.27758600  0.62998500  1
  N  N11  1  0.27758600  0.82322600  0.62998500  1
  O  O0  1  0.67048900  0.67048900  0.18332400  1
  O  O1  1  0.67142800  0.02244700  0.15534100  1
  O  O2  1  0.02244700  0.67142800  0.15534100  1
  O  O3  1  0.14252500  0.14252500  0.77182500  1
  O  O4  1  0.15057600  0.50118600  0.61873000  1
  O  O5  1  0.50118600  0.15057600  0.61873000  1
  F  F0  1  0.85666600  0.85666600  0.97073700  1
  F  F1  1  0.31398600  0.31398600  0.80434300  1
loop_
_geom_bond_atom_site_label_1
_geom_bond_atom_site_label_2
_geom_bond_distance
_geom_bond_site_symmetry_2
H0 N0 1.026645 1_555
H1 N1 1.026645 1_555
H2 N0 1.016385 1_555
H3 N1 1.016385 1_555
H4 N2 1.028522 1_555
H5 N2 1.028522 1_555
H6 N3 1.029065 1_555
H7 N3 1.029065 1_555
H8 N4 1.029128 1_555
H9 N5 1.029128 1_555
H10 N4 1.027395 1_555
H11 N5 1.027395 1_555
H12 N6 1.023061 1_455
H13 N7 1.023061 1_545
H14 N6 1.026647 1_455
H15 N7 1.026647 1_545
H16 N8 1.022646 1_555
H17 N9 1.022646 1_555
H18 N8 1.030313 1_555
H19 N9 1.030313 1_555
H20 N10 1.022017 1_555
H21 N11 1.022017 1_555
H22 N10 1.017250 1_555
H23 N11 1.017250 1_555
C0 N2 1.336431 1_555
C0 N0 1.341094 1_555
C0 N1 1.341094 1_555
C1 N5 1.339756 1_545
C1 N4 1.339756 1_455
C1 N3 1.341026 1_555
C2 N6 1.336854 1_555
C2 N8 1.337652 1_555
C2 N10 1.342478 1_555
C3 N7 1.336854 1_555
C3 N9 1.337652 1_555
C3 N11 1.342478 1_555
O0 P0 1.531696 1_555
O1 P0 1.532281 1_545
O2 P0 1.532281 1_455
O3 P1 1.530971 1_555
O4 P1 1.529344 1_555
O5 P1 1.529344 1_555
F0 P0 1.620675 1_556
F1 P1 1.619761 1_555
