# generated using pymatgen
data_Ca3InP3
_symmetry_space_group_name_H-M   'P 1'
_cell_length_a   4.15225447
_cell_length_b   12.06461163
_cell_length_c   13.52466107
_cell_angle_alpha   90.00000000
_cell_angle_beta   90.00000000
_cell_angle_gamma   90.00000000
_symmetry_Int_Tables_number   1
_chemical_formula_structural   Ca3InP3
_chemical_formula_sum   'Ca12 In4 P12'
_cell_volume   677.52246181
_cell_formula_units_Z   4
loop_
 _symmetry_equiv_pos_site_id
 _symmetry_equiv_pos_as_xyz
  1  'x, y, z'
loop_
 _atom_site_type_symbol
 _atom_site_label
 _atom_site_symmetry_multiplicity
 _atom_site_fract_x
 _atom_site_fract_y
 _atom_site_fract_z
 _atom_site_occupancy
  Ca  Ca0  1  0.75000000  0.84611030  0.00462103  1
  Ca  Ca1  1  0.75000000  0.76897114  0.28905416  1
  Ca  Ca2  1  0.75000000  0.34611030  0.49537897  1
  Ca  Ca3  1  0.25000000  0.65388970  0.50462103  1
  Ca  Ca4  1  0.25000000  0.15388970  0.99537897  1
  Ca  Ca5  1  0.25000000  0.43470271  0.89793580  1
  Ca  Ca6  1  0.25000000  0.93470271  0.60206420  1
  Ca  Ca7  1  0.75000000  0.56529729  0.10206420  1
  Ca  Ca8  1  0.25000000  0.23102886  0.71094584  1
  Ca  Ca9  1  0.25000000  0.73102886  0.78905416  1
  Ca  Ca10  1  0.75000000  0.06529729  0.39793580  1
  Ca  Ca11  1  0.75000000  0.26897114  0.21094584  1
  In  In0  1  0.25000000  0.44832742  0.30023515  1
  In  In1  1  0.75000000  0.05167258  0.80023515  1
  In  In2  1  0.75000000  0.55167258  0.69976485  1
  In  In3  1  0.25000000  0.94832742  0.19976485  1
  P  P0  1  0.25000000  0.95004101  0.86696128  1
  P  P1  1  0.75000000  0.54995899  0.36696128  1
  P  P2  1  0.25000000  0.24645904  0.37162257  1
  P  P3  1  0.75000000  0.25354096  0.87162257  1
  P  P4  1  0.25000000  0.39588719  0.11358911  1
  P  P5  1  0.25000000  0.89588719  0.38641089  1
  P  P6  1  0.25000000  0.74645904  0.12837743  1
  P  P7  1  0.75000000  0.60411281  0.88641089  1
  P  P8  1  0.75000000  0.75354096  0.62837743  1
  P  P9  1  0.25000000  0.45004101  0.63303872  1
  P  P10  1  0.75000000  0.10411281  0.61358911  1
  P  P11  1  0.75000000  0.04995899  0.13303872  1
loop_
_geom_bond_atom_site_label_1
_geom_bond_atom_site_label_2
_geom_bond_distance
_geom_bond_site_symmetry_2
Ca0 P6 2.925270 1_555
Ca0 P6 2.925270 1_655
Ca0 P11 3.010801 1_565
Ca0 P0 3.057586 1_654
Ca0 P0 3.057586 1_554
Ca0 P7 3.328679 1_554
Ca1 P1 2.844635 1_555
Ca1 P5 2.896308 1_655
Ca1 P5 2.896308 1_555
Ca1 P6 3.017686 1_655
Ca1 P6 3.017686 1_555
Ca2 P2 2.925270 1_655
Ca2 P2 2.925270 1_555
Ca2 P1 3.010801 1_555
Ca2 P9 3.057586 1_555
Ca2 P9 3.057586 1_655
Ca2 P10 3.328679 1_555
Ca3 P8 2.925270 1_555
Ca3 P8 2.925270 1_455
Ca3 P9 3.010801 1_555
Ca3 P1 3.057586 1_555
Ca3 P1 3.057586 1_455
Ca3 P5 3.328679 1_555
Ca4 P3 2.925270 1_555
Ca4 P3 2.925270 1_455
Ca4 P0 3.010801 1_545
Ca4 P11 3.057586 1_456
Ca4 P11 3.057586 1_556
Ca4 P4 3.328679 1_556
Ca5 P7 2.917532 1_555
Ca5 P7 2.917532 1_455
Ca5 P4 2.953993 1_556
Ca5 P3 3.035457 1_455
Ca5 P3 3.035457 1_555
Ca6 P10 2.917532 1_565
Ca6 P10 2.917532 1_465
Ca6 P5 2.953993 1_555
Ca6 P8 3.035457 1_555
Ca6 P8 3.035457 1_455
Ca7 P4 2.917532 1_555
Ca7 P4 2.917532 1_655
Ca7 P7 2.953993 1_554
Ca7 P6 3.035457 1_555
Ca7 P6 3.035457 1_655
Ca8 P9 2.844635 1_555
Ca8 P10 2.896308 1_455
Ca8 P10 2.896308 1_555
Ca8 P3 3.017686 1_555
Ca8 P3 3.017686 1_455
Ca9 P0 2.844635 1_555
Ca9 P7 2.896308 1_555
Ca9 P7 2.896308 1_455
Ca9 P8 3.017686 1_455
Ca9 P8 3.017686 1_555
Ca10 P5 2.917532 1_545
Ca10 P5 2.917532 1_645
Ca10 P10 2.953993 1_555
Ca10 P2 3.035457 1_655
Ca10 P2 3.035457 1_555
Ca11 P11 2.844635 1_555
Ca11 P4 2.896308 1_555
Ca11 P4 2.896308 1_655
Ca11 P2 3.017686 1_655
Ca11 P2 3.017686 1_555
In0 P1 2.574519 1_455
In0 P1 2.574519 1_555
In0 P4 2.602400 1_555
In0 P2 2.619858 1_555
In1 P0 2.574519 1_545
In1 P0 2.574519 1_645
In1 P10 2.602400 1_555
In1 P3 2.619858 1_555
In2 P9 2.574519 1_655
In2 P9 2.574519 1_555
In2 P7 2.602400 1_555
In2 P8 2.619858 1_555
In3 P11 2.574519 1_465
In3 P11 2.574519 1_565
In3 P5 2.602400 1_555
In3 P6 2.619858 1_555
