# generated using pymatgen
data_Rb3Pr2(NO3)9
_symmetry_space_group_name_H-M   'P 1'
_cell_length_a   13.91594900
_cell_length_b   13.91594900
_cell_length_c   13.91594900
_cell_angle_alpha   90.00000000
_cell_angle_beta   90.00000000
_cell_angle_gamma   90.00000000
_symmetry_Int_Tables_number   1
_chemical_formula_structural   Rb3Pr2(NO3)9
_chemical_formula_sum   'Rb12 Pr8 N36 O108'
_cell_volume   2694.87413018
_cell_formula_units_Z   4
loop_
 _symmetry_equiv_pos_site_id
 _symmetry_equiv_pos_as_xyz
  1  'x, y, z'
loop_
 _atom_site_type_symbol
 _atom_site_label
 _atom_site_symmetry_multiplicity
 _atom_site_fract_x
 _atom_site_fract_y
 _atom_site_fract_z
 _atom_site_occupancy
  Rb  Rb0  1  0.30433400  0.94566600  0.12500000  1
  Rb  Rb1  1  0.62500000  0.19566600  0.05433400  1
  Rb  Rb2  1  0.55433400  0.87500000  0.80433400  1
  Rb  Rb3  1  0.69566600  0.44566600  0.37500000  1
  Rb  Rb4  1  0.44566600  0.37500000  0.69566600  1
  Rb  Rb5  1  0.37500000  0.69566600  0.44566600  1
  Rb  Rb6  1  0.80433400  0.55433400  0.87500000  1
  Rb  Rb7  1  0.12500000  0.30433400  0.94566600  1
  Rb  Rb8  1  0.19566600  0.05433400  0.62500000  1
  Rb  Rb9  1  0.05433400  0.62500000  0.19566600  1
  Rb  Rb10  1  0.87500000  0.80433400  0.55433400  1
  Rb  Rb11  1  0.94566600  0.12500000  0.30433400  1
  Pr  Pr0  1  0.55540300  0.05540300  0.44459700  1
  Pr  Pr1  1  0.05540300  0.44459700  0.55540300  1
  Pr  Pr2  1  0.94459700  0.94459700  0.94459700  1
  Pr  Pr3  1  0.30540300  0.30540300  0.30540300  1
  Pr  Pr4  1  0.19459700  0.69459700  0.80540300  1
  Pr  Pr5  1  0.80540300  0.19459700  0.69459700  1
  Pr  Pr6  1  0.44459700  0.55540300  0.05540300  1
  Pr  Pr7  1  0.69459700  0.80540300  0.19459700  1
  N  N0  1  0.86142100  0.09577800  0.07604000  1
  N  N1  1  0.09577800  0.07604000  0.86142100  1
  N  N2  1  0.07604000  0.86142100  0.09577800  1
  N  N3  1  0.15422200  0.38857900  0.17396000  1
  N  N4  1  0.17396000  0.15422200  0.38857900  1
  N  N5  1  0.32604000  0.84577800  0.88857900  1
  N  N6  1  0.87500000  0.98367500  0.73367500  1
  N  N7  1  0.01632500  0.23367500  0.62500000  1
  N  N8  1  0.84577800  0.88857900  0.32604000  1
  N  N9  1  0.48367500  0.76632500  0.12500000  1
  N  N10  1  0.62500000  0.01632500  0.23367500  1
  N  N11  1  0.42396000  0.13857900  0.59577800  1
  N  N12  1  0.34577800  0.61142100  0.67396000  1
  N  N13  1  0.57604000  0.63857900  0.90422200  1
  N  N14  1  0.23367500  0.62500000  0.01632500  1
  N  N15  1  0.73367500  0.87500000  0.98367500  1
  N  N16  1  0.90422200  0.57604000  0.63857900  1
  N  N17  1  0.61142100  0.67396000  0.34577800  1
  N  N18  1  0.65422200  0.11142100  0.82604000  1
  N  N19  1  0.98367500  0.73367500  0.87500000  1
  N  N20  1  0.12500000  0.48367500  0.76632500  1
  N  N21  1  0.11142100  0.82604000  0.65422200  1
  N  N22  1  0.37500000  0.51632500  0.26632500  1
  N  N23  1  0.51632500  0.26632500  0.37500000  1
  N  N24  1  0.76632500  0.12500000  0.48367500  1
  N  N25  1  0.40422200  0.92396000  0.36142100  1
  N  N26  1  0.63857900  0.90422200  0.57604000  1
  N  N27  1  0.38857900  0.17396000  0.15422200  1
  N  N28  1  0.13857900  0.59577800  0.42396000  1
  N  N29  1  0.67396000  0.34577800  0.61142100  1
  N  N30  1  0.26632500  0.37500000  0.51632500  1
  N  N31  1  0.59577800  0.42396000  0.13857900  1
  N  N32  1  0.82604000  0.65422200  0.11142100  1
  N  N33  1  0.36142100  0.40422200  0.92396000  1
  N  N34  1  0.88857900  0.32604000  0.84577800  1
  N  N35  1  0.92396000  0.36142100  0.40422200  1
  O  O0  1  0.17330500  0.65833800  0.36949600  1
  O  O1  1  0.67219700  0.07400900  0.74403300  1
  O  O2  1  0.65833800  0.36949600  0.17330500  1
  O  O3  1  0.09683200  0.40065600  0.74447600  1
  O  O4  1  0.25552400  0.59683200  0.09934400  1
  O  O5  1  0.11949600  0.09166200  0.42330500  1
  O  O6  1  0.70076300  0.12500000  0.54923700  1
  O  O7  1  0.17219700  0.42599100  0.25596700  1
  O  O8  1  0.84934400  0.15316800  0.50552400  1
  O  O9  1  0.42219700  0.00596700  0.32400900  1
  O  O10  1  0.84166200  0.63050400  0.67330500  1
  O  O11  1  0.86949600  0.32669500  0.34166200  1
  O  O12  1  0.65065600  0.84683200  0.00552400  1
  O  O13  1  0.57400900  0.75596700  0.32780300  1
  O  O14  1  0.95076300  0.29923700  0.62500000  1
  O  O15  1  0.93579300  0.04705700  0.09999200  1
  O  O16  1  0.00552400  0.65065600  0.84683200  1
  O  O17  1  0.59934400  0.24447600  0.40316800  1
  O  O18  1  0.92219700  0.49403300  0.67599100  1
  O  O19  1  0.75596700  0.32780300  0.57400900  1
  O  O20  1  0.15833800  0.13050400  0.82669500  1
  O  O21  1  0.42599100  0.25596700  0.17219700  1
  O  O22  1  0.40065600  0.74447600  0.09683200  1
  O  O23  1  0.90065600  0.75552400  0.90316800  1
  O  O24  1  0.12500000  0.54923700  0.70076300  1
  O  O25  1  0.13050400  0.82669500  0.15833800  1
  O  O26  1  0.42330500  0.11949600  0.09166200  1
  O  O27  1  0.43579300  0.45294300  0.90000800  1
  O  O28  1  0.29923700  0.62500000  0.95076300  1
  O  O29  1  0.87500000  0.04923700  0.79923700  1
  O  O30  1  0.63050400  0.67330500  0.84166200  1
  O  O31  1  0.74403300  0.67219700  0.07400900  1
  O  O32  1  0.04923700  0.79923700  0.87500000  1
  O  O33  1  0.99447600  0.15065600  0.65316800  1
  O  O34  1  0.25596700  0.17219700  0.42599100  1
  O  O35  1  0.92330500  0.38050400  0.90833800  1
  O  O36  1  0.82400900  0.07780300  0.99403300  1
  O  O37  1  0.81420700  0.34999200  0.79705700  1
  O  O38  1  0.17599100  0.57780300  0.50596700  1
  O  O39  1  0.59999200  0.56420700  0.95294300  1
  O  O40  1  0.82669500  0.15833800  0.13050400  1
  O  O41  1  0.84683200  0.00552400  0.65065600  1
  O  O42  1  0.95294300  0.59999200  0.56420700  1
  O  O43  1  0.04705700  0.09999200  0.93579300  1
  O  O44  1  0.54705700  0.40000800  0.06420700  1
  O  O45  1  0.40316800  0.59934400  0.24447600  1
  O  O46  1  0.50552400  0.84934400  0.15316800  1
  O  O47  1  0.65316800  0.99447600  0.15065600  1
  O  O48  1  0.36949600  0.17330500  0.65833800  1
  O  O49  1  0.56420700  0.95294300  0.59999200  1
  O  O50  1  0.34934400  0.34683200  0.49447600  1
  O  O51  1  0.65000800  0.29705700  0.68579300  1
  O  O52  1  0.49447600  0.34934400  0.34683200  1
  O  O53  1  0.45294300  0.90000800  0.43579300  1
  O  O54  1  0.34683200  0.49447600  0.34934400  1
  O  O55  1  0.61949600  0.40833800  0.57669500  1
  O  O56  1  0.34999200  0.79705700  0.81420700  1
  O  O57  1  0.18579300  0.84999200  0.70294300  1
  O  O58  1  0.32780300  0.57400900  0.75596700  1
  O  O59  1  0.34166200  0.86949600  0.32669500  1
  O  O60  1  0.99403300  0.82400900  0.07780300  1
  O  O61  1  0.74447600  0.09683200  0.40065600  1
  O  O62  1  0.68579300  0.65000800  0.29705700  1
  O  O63  1  0.32669500  0.34166200  0.86949600  1
  O  O64  1  0.40833800  0.57669500  0.61949600  1
  O  O65  1  0.29705700  0.68579300  0.65000800  1
  O  O66  1  0.15065600  0.65316800  0.99447600  1
  O  O67  1  0.90000800  0.43579300  0.45294300  1
  O  O68  1  0.49403300  0.67599100  0.92219700  1
  O  O69  1  0.67599100  0.92219700  0.49403300  1
  O  O70  1  0.32400900  0.42219700  0.00596700  1
  O  O71  1  0.70294300  0.18579300  0.84999200  1
  O  O72  1  0.07400900  0.74403300  0.67219700  1
  O  O73  1  0.15000800  0.20294300  0.31420700  1
  O  O74  1  0.75552400  0.90316800  0.90065600  1
  O  O75  1  0.40000800  0.06420700  0.54705700  1
  O  O76  1  0.88050400  0.59166200  0.07669500  1
  O  O77  1  0.31420700  0.15000800  0.20294300  1
  O  O78  1  0.24403300  0.82780300  0.92599100  1
  O  O79  1  0.67330500  0.84166200  0.63050400  1
  O  O80  1  0.15316800  0.50552400  0.84934400  1
  O  O81  1  0.59166200  0.07669500  0.88050400  1
  O  O82  1  0.57780300  0.50596700  0.17599100  1
  O  O83  1  0.84999200  0.70294300  0.18579300  1
  O  O84  1  0.82780300  0.92599100  0.24403300  1
  O  O85  1  0.92599100  0.24403300  0.82780300  1
  O  O86  1  0.09166200  0.42330500  0.11949600  1
  O  O87  1  0.50596700  0.17599100  0.57780300  1
  O  O88  1  0.06420700  0.54705700  0.40000800  1
  O  O89  1  0.20076300  0.37500000  0.45076300  1
  O  O90  1  0.00596700  0.32400900  0.42219700  1
  O  O91  1  0.38050400  0.90833800  0.92330500  1
  O  O92  1  0.79923700  0.87500000  0.04923700  1
  O  O93  1  0.09934400  0.25552400  0.59683200  1
  O  O94  1  0.57669500  0.61949600  0.40833800  1
  O  O95  1  0.79705700  0.81420700  0.34999200  1
  O  O96  1  0.07780300  0.99403300  0.82400900  1
  O  O97  1  0.54923700  0.70076300  0.12500000  1
  O  O98  1  0.90316800  0.90065600  0.75552400  1
  O  O99  1  0.24447600  0.40316800  0.59934400  1
  O  O100  1  0.62500000  0.95076300  0.29923700  1
  O  O101  1  0.07669500  0.88050400  0.59166200  1
  O  O102  1  0.90833800  0.92330500  0.38050400  1
  O  O103  1  0.37500000  0.45076300  0.20076300  1
  O  O104  1  0.20294300  0.31420700  0.15000800  1
  O  O105  1  0.45076300  0.20076300  0.37500000  1
  O  O106  1  0.59683200  0.09934400  0.25552400  1
  O  O107  1  0.09999200  0.93579300  0.04705700  1
loop_
_geom_bond_atom_site_label_1
_geom_bond_atom_site_label_2
_geom_bond_distance
_geom_bond_site_symmetry_2
N0 O40 1.251351 1_555
N0 O36 1.279050 1_554
N0 O15 1.281373 1_555
N1 O20 1.251351 1_555
N1 O96 1.279050 1_545
N1 O43 1.281373 1_555
N2 O25 1.251351 1_555
N2 O60 1.279050 1_455
N2 O107 1.281373 1_555
N3 O86 1.251351 1_555
N3 O7 1.279050 1_555
N3 O104 1.281373 1_555
N4 O5 1.251351 1_555
N4 O34 1.279050 1_555
N4 O73 1.281373 1_555
N5 O91 1.251351 1_555
N5 O78 1.279050 1_555
N5 O56 1.281373 1_555
N6 O98 1.257294 1_555
N6 O41 1.257294 1_565
N6 O29 1.290268 1_565
N7 O93 1.257294 1_555
N7 O33 1.257294 1_455
N7 O14 1.290268 1_455
N8 O102 1.251351 1_555
N8 O84 1.279050 1_555
N8 O95 1.281373 1_555
N9 O22 1.257294 1_555
N9 O46 1.257294 1_555
N9 O97 1.290268 1_555
N10 O106 1.257294 1_555
N10 O47 1.257294 1_545
N10 O100 1.290268 1_545
N11 O48 1.251351 1_555
N11 O87 1.279050 1_555
N11 O75 1.281373 1_555
N12 O64 1.251351 1_555
N12 O58 1.279050 1_555
N12 O65 1.281373 1_555
N13 O30 1.251351 1_555
N13 O68 1.279050 1_555
N13 O39 1.281373 1_555
N14 O4 1.257294 1_555
N14 O66 1.257294 1_554
N14 O28 1.290268 1_554
N15 O74 1.257294 1_555
N15 O12 1.257294 1_556
N15 O92 1.290268 1_556
N16 O10 1.251351 1_555
N16 O18 1.279050 1_555
N16 O42 1.281373 1_555
N17 O94 1.251351 1_555
N17 O13 1.279050 1_555
N17 O62 1.281373 1_555
N18 O81 1.251351 1_555
N18 O1 1.279050 1_555
N18 O71 1.281373 1_555
N19 O23 1.257294 1_555
N19 O16 1.257294 1_655
N19 O32 1.290268 1_655
N20 O3 1.257294 1_555
N20 O80 1.257294 1_555
N20 O24 1.290268 1_555
N21 O101 1.251351 1_555
N21 O72 1.279050 1_555
N21 O57 1.281373 1_555
N22 O54 1.257294 1_555
N22 O45 1.257294 1_555
N22 O103 1.290268 1_555
N23 O52 1.257294 1_555
N23 O17 1.257294 1_555
N23 O105 1.290268 1_555
N24 O61 1.257294 1_555
N24 O8 1.257294 1_555
N24 O6 1.290268 1_555
N25 O59 1.251351 1_555
N25 O9 1.279050 1_565
N25 O53 1.281373 1_555
N26 O79 1.251351 1_555
N26 O69 1.279050 1_555
N26 O49 1.281373 1_555
N27 O26 1.251351 1_555
N27 O21 1.279050 1_555
N27 O77 1.281373 1_555
N28 O0 1.251351 1_555
N28 O38 1.279050 1_555
N28 O88 1.281373 1_555
N29 O55 1.251351 1_555
N29 O19 1.279050 1_555
N29 O51 1.281373 1_555
N30 O50 1.257294 1_555
N30 O99 1.257294 1_555
N30 O89 1.290268 1_555
N31 O2 1.251351 1_555
N31 O82 1.279050 1_555
N31 O44 1.281373 1_555
N32 O76 1.251351 1_555
N32 O31 1.279050 1_555
N32 O83 1.281373 1_555
N33 O63 1.251351 1_555
N33 O70 1.279050 1_556
N33 O27 1.281373 1_555
N34 O35 1.251351 1_555
N34 O85 1.279050 1_555
N34 O37 1.281373 1_555
N35 O11 1.251351 1_555
N35 O90 1.279050 1_655
N35 O67 1.281373 1_555
O0 Rb9 2.967799 1_555
O0 Rb5 3.044895 1_555
O1 Pr5 2.593345 1_555
O1 Rb2 3.326246 1_545
O2 Rb1 2.967799 1_555
O2 Rb3 3.044895 1_555
O3 Pr1 2.762089 1_555
O3 Rb7 3.128731 1_555
O4 Pr6 2.762089 1_555
O4 Rb9 3.128731 1_555
O5 Rb11 2.967799 1_455
O5 Rb8 3.044895 1_555
O6 Pr0 2.673992 1_555
O6 Pr5 2.673992 1_555
O7 Pr3 2.593345 1_555
O7 Rb9 3.326246 1_555
O8 Pr5 2.762089 1_555
O8 Rb11 3.128731 1_555
O9 Pr0 2.593345 1_555
O9 Rb0 3.326246 1_545
O10 Rb10 2.967799 1_555
O10 Rb6 3.044895 1_555
O11 Rb3 2.967799 1_555
O11 Rb11 3.044895 1_555
O12 Pr7 2.762089 1_555
O12 Rb2 3.128731 1_554
O13 Pr7 2.593345 1_555
O13 Rb5 3.326246 1_555
O14 Pr5 2.673992 1_555
O14 Pr1 2.673992 1_655
O15 Pr2 2.593119 1_544
O15 Rb11 3.046552 1_555
O16 Pr4 2.762089 1_555
O16 Rb6 3.128731 1_455
O17 Pr0 2.762089 1_555
O17 Rb3 3.128731 1_555
O18 Pr1 2.593345 1_655
O18 Rb6 3.326246 1_555
O19 Pr5 2.593345 1_555
O19 Rb3 3.326246 1_555
O20 Rb7 2.967799 1_555
O20 Rb8 3.044895 1_555
O21 Pr3 2.593345 1_555
O21 Rb1 3.326246 1_555
O22 Pr6 2.762089 1_555
O22 Rb0 3.128731 1_555
O23 Pr2 2.762089 1_555
O23 Rb6 3.128731 1_555
O24 Pr1 2.673992 1_555
O24 Pr4 2.673992 1_555
O25 Rb0 2.967799 1_555
O25 Rb9 3.044895 1_555
O26 Rb0 2.967799 1_545
O26 Rb1 3.044895 1_555
O27 Pr6 2.593119 1_556
O27 Rb4 3.046552 1_555
O28 Pr4 2.673992 1_555
O28 Pr6 2.673992 1_556
O29 Pr2 2.673992 1_545
O29 Pr5 2.673992 1_555
O30 Rb6 2.967799 1_555
O30 Rb2 3.044895 1_555
O31 Pr7 2.593345 1_555
O31 Rb6 3.326246 1_554
O32 Pr2 2.673992 1_455
O32 Pr4 2.673992 1_555
O33 Pr5 2.762089 1_555
O33 Rb8 3.128731 1_655
O34 Pr3 2.593345 1_555
O34 Rb8 3.326246 1_555
O35 Rb6 2.967799 1_555
O35 Rb7 3.044895 1_655
O36 Pr2 2.593345 1_545
O36 Rb1 3.326246 1_556
O37 Pr5 2.593119 1_555
O37 Rb6 3.046552 1_555
O38 Pr1 2.593345 1_555
O38 Rb5 3.326246 1_555
O39 Pr6 2.593119 1_556
O39 Rb6 3.046552 1_555
O40 Rb11 2.967799 1_555
O40 Rb1 3.044895 1_555
O41 Pr5 2.762089 1_555
O41 Rb10 3.128731 1_545
O42 Pr1 2.593119 1_655
O42 Rb10 3.046552 1_555
O43 Pr2 2.593119 1_445
O43 Rb7 3.046552 1_555
O44 Pr6 2.593119 1_555
O44 Rb1 3.046552 1_555
O45 Pr6 2.762089 1_555
O45 Rb5 3.128731 1_555
O46 Pr7 2.762089 1_555
O46 Rb0 3.128731 1_555
O47 Pr7 2.762089 1_555
O47 Rb1 3.128731 1_565
O48 Rb8 2.967799 1_555
O48 Rb4 3.044895 1_555
O49 Pr0 2.593119 1_565
O49 Rb2 3.046552 1_555
O50 Pr3 2.762089 1_555
O50 Rb4 3.128731 1_555
O51 Pr5 2.593119 1_555
O51 Rb4 3.046552 1_555
O52 Pr3 2.762089 1_555
O52 Rb3 3.128731 1_555
O53 Pr0 2.593119 1_565
O53 Rb5 3.046552 1_555
O54 Pr3 2.762089 1_555
O54 Rb5 3.128731 1_555
O55 Rb4 2.967799 1_555
O55 Rb3 3.044895 1_555
O56 Pr4 2.593119 1_555
O56 Rb2 3.046552 1_555
O57 Pr4 2.593119 1_555
O57 Rb8 3.046552 1_565
O58 Pr4 2.593345 1_555
O58 Rb4 3.326246 1_555
O59 Rb5 2.967799 1_555
O59 Rb0 3.044895 1_555
O60 Pr2 2.593345 1_554
O60 Rb9 3.326246 1_655
O61 Pr0 2.762089 1_555
O61 Rb11 3.128731 1_555
O62 Pr7 2.593119 1_555
O62 Rb3 3.046552 1_555
O63 Rb4 2.967799 1_555
O63 Rb7 3.044895 1_555
O64 Rb5 2.967799 1_555
O64 Rb4 3.044895 1_555
O65 Pr4 2.593119 1_555
O65 Rb5 3.046552 1_555
O66 Pr4 2.762089 1_555
O66 Rb9 3.128731 1_556
O67 Pr1 2.593119 1_655
O67 Rb3 3.046552 1_555
O68 Pr6 2.593345 1_556
O68 Rb2 3.326246 1_555
O69 Pr0 2.593345 1_565
O69 Rb10 3.326246 1_555
O70 Pr6 2.593345 1_555
O70 Rb7 3.326246 1_554
O71 Pr5 2.593119 1_555
O71 Rb1 3.046552 1_556
O72 Pr4 2.593345 1_555
O72 Rb10 3.326246 1_455
O73 Pr3 2.593119 1_555
O73 Rb11 3.046552 1_455
O74 Pr2 2.762089 1_555
O74 Rb2 3.128731 1_555
O75 Pr0 2.593119 1_555
O75 Rb8 3.046552 1_555
O76 Rb9 2.967799 1_655
O76 Rb6 3.044895 1_554
O77 Pr3 2.593119 1_555
O77 Rb0 3.046552 1_545
O78 Pr4 2.593345 1_555
O78 Rb0 3.326246 1_556
O79 Rb2 2.967799 1_555
O79 Rb10 3.044895 1_555
O80 Pr4 2.762089 1_555
O80 Rb7 3.128731 1_555
O81 Rb1 2.967799 1_556
O81 Rb2 3.044895 1_545
O82 Pr6 2.593345 1_555
O82 Rb3 3.326246 1_555
O83 Pr7 2.593119 1_555
O83 Rb9 3.046552 1_655
O84 Pr7 2.593345 1_555
O84 Rb11 3.326246 1_565
O85 Pr5 2.593345 1_555
O85 Rb7 3.326246 1_655
O86 Rb7 2.967799 1_554
O86 Rb9 3.044895 1_555
O87 Pr0 2.593345 1_555
O87 Rb4 3.326246 1_555
O88 Pr1 2.593119 1_555
O88 Rb9 3.046552 1_555
O89 Pr3 2.673992 1_555
O89 Pr1 2.673992 1_555
O90 Pr1 2.593345 1_555
O90 Rb11 3.326246 1_455
O91 Rb2 2.967799 1_555
O91 Rb0 3.044895 1_556
O92 Pr2 2.673992 1_554
O92 Pr7 2.673992 1_555
O93 Pr1 2.762089 1_555
O93 Rb8 3.128731 1_555
O94 Rb3 2.967799 1_555
O94 Rb5 3.044895 1_555
O95 Pr7 2.593119 1_555
O95 Rb10 3.046552 1_555
O96 Pr2 2.593345 1_455
O96 Rb8 3.326246 1_565
O97 Pr6 2.673992 1_555
O97 Pr7 2.673992 1_555
O98 Pr2 2.762089 1_555
O98 Rb10 3.128731 1_555
O99 Pr1 2.762089 1_555
O99 Rb4 3.128731 1_555
O100 Pr7 2.673992 1_555
O100 Pr0 2.673992 1_565
O101 Rb8 2.967799 1_565
O101 Rb10 3.044895 1_455
O102 Rb10 2.967799 1_555
O102 Rb11 3.044895 1_565
O103 Pr3 2.673992 1_555
O103 Pr6 2.673992 1_555
O104 Pr3 2.593119 1_555
O104 Rb7 3.046552 1_554
O105 Pr3 2.673992 1_555
O105 Pr0 2.673992 1_555
O106 Pr0 2.762089 1_555
O106 Rb1 3.128731 1_555
O107 Pr2 2.593119 1_454
O107 Rb0 3.046552 1_555
