# generated using pymatgen
data_W2C7Br4O7
_symmetry_space_group_name_H-M   'P 1'
_cell_length_a   8.27735000
_cell_length_b   9.92943800
_cell_length_c   20.81091600
_cell_angle_alpha   90.00000000
_cell_angle_beta   90.00000000
_cell_angle_gamma   90.00000000
_symmetry_Int_Tables_number   1
_chemical_formula_structural   W2C7Br4O7
_chemical_formula_sum   'W8 C28 Br16 O28'
_cell_volume   1710.43739935
_cell_formula_units_Z   4
loop_
 _symmetry_equiv_pos_site_id
 _symmetry_equiv_pos_as_xyz
  1  'x, y, z'
loop_
 _atom_site_type_symbol
 _atom_site_label
 _atom_site_symmetry_multiplicity
 _atom_site_fract_x
 _atom_site_fract_y
 _atom_site_fract_z
 _atom_site_occupancy
  W  W0  1  0.75000000  0.21603600  0.64548700  1
  W  W1  1  0.75000000  0.84936500  0.59557800  1
  W  W2  1  0.25000000  0.15063500  0.40442200  1
  W  W3  1  0.75000000  0.65063500  0.09557800  1
  W  W4  1  0.75000000  0.28396400  0.14548700  1
  W  W5  1  0.25000000  0.71603600  0.85451300  1
  W  W6  1  0.25000000  0.34936500  0.90442200  1
  W  W7  1  0.25000000  0.78396400  0.35451300  1
  C  C0  1  0.25000000  0.62616800  0.41835500  1
  C  C1  1  0.75000000  0.37383200  0.58164500  1
  C  C2  1  0.25000000  0.19916900  0.49871700  1
  C  C3  1  0.94520100  0.76983300  0.08138300  1
  C  C4  1  0.25000000  0.73954400  0.25715300  1
  C  C5  1  0.53991000  0.17380600  0.15916200  1
  C  C6  1  0.46009000  0.67380600  0.34083800  1
  C  C7  1  0.96009000  0.32619400  0.65916200  1
  C  C8  1  0.44520100  0.23016700  0.91861700  1
  C  C9  1  0.96009000  0.17380600  0.15916200  1
  C  C10  1  0.75000000  0.26045600  0.74284700  1
  C  C11  1  0.94520100  0.73016700  0.58138300  1
  C  C12  1  0.46009000  0.82619400  0.84083800  1
  C  C13  1  0.75000000  0.69916900  0.00128300  1
  C  C14  1  0.03991000  0.67380600  0.34083800  1
  C  C15  1  0.05479900  0.26983300  0.41861700  1
  C  C16  1  0.53991000  0.32619400  0.65916200  1
  C  C17  1  0.25000000  0.87383200  0.91835500  1
  C  C18  1  0.44520100  0.26983300  0.41861700  1
  C  C19  1  0.25000000  0.76045600  0.75715300  1
  C  C20  1  0.55479900  0.73016700  0.58138300  1
  C  C21  1  0.75000000  0.80083100  0.50128300  1
  C  C22  1  0.75000000  0.12616800  0.08164500  1
  C  C23  1  0.03991000  0.82619400  0.84083800  1
  C  C24  1  0.05479900  0.23016700  0.91861700  1
  C  C25  1  0.75000000  0.23954400  0.24284700  1
  C  C26  1  0.25000000  0.30083100  0.99871700  1
  C  C27  1  0.55479900  0.76983300  0.08138300  1
  Br  Br0  1  0.53717600  0.01165600  0.66279700  1
  Br  Br1  1  0.25000000  0.59079300  0.97178000  1
  Br  Br2  1  0.25000000  0.31772400  0.30240400  1
  Br  Br3  1  0.03717600  0.98834400  0.33720300  1
  Br  Br4  1  0.96282400  0.01165600  0.66279700  1
  Br  Br5  1  0.75000000  0.40920700  0.02822000  1
  Br  Br6  1  0.03717600  0.51165600  0.83720300  1
  Br  Br7  1  0.75000000  0.09079300  0.52822000  1
  Br  Br8  1  0.53717600  0.48834400  0.16279700  1
  Br  Br9  1  0.25000000  0.90920700  0.47178000  1
  Br  Br10  1  0.25000000  0.18227600  0.80240400  1
  Br  Br11  1  0.46282400  0.98834400  0.33720300  1
  Br  Br12  1  0.46282400  0.51165600  0.83720300  1
  Br  Br13  1  0.75000000  0.81772400  0.19759600  1
  Br  Br14  1  0.75000000  0.68227600  0.69759600  1
  Br  Br15  1  0.96282400  0.48834400  0.16279700  1
  O  O0  1  0.42670900  0.39047600  0.66863000  1
  O  O1  1  0.75000000  0.21899500  0.29735600  1
  O  O2  1  0.75000000  0.76664500  0.44758900  1
  O  O3  1  0.75000000  0.28100500  0.79735600  1
  O  O4  1  0.55657100  0.16067800  0.92612600  1
  O  O5  1  0.94342900  0.33932200  0.42612600  1
  O  O6  1  0.07329100  0.10952400  0.16863000  1
  O  O7  1  0.25000000  0.53984100  0.45548200  1
  O  O8  1  0.92670900  0.89047600  0.83137000  1
  O  O9  1  0.05657100  0.83932200  0.07387400  1
  O  O10  1  0.42670900  0.10952400  0.16863000  1
  O  O11  1  0.25000000  0.23335500  0.55241100  1
  O  O12  1  0.25000000  0.26664500  0.05241100  1
  O  O13  1  0.25000000  0.78100500  0.70264400  1
  O  O14  1  0.92670900  0.60952400  0.33137000  1
  O  O15  1  0.44342900  0.66067800  0.57387400  1
  O  O16  1  0.57329100  0.89047600  0.83137000  1
  O  O17  1  0.75000000  0.03984100  0.04451800  1
  O  O18  1  0.07329100  0.39047600  0.66863000  1
  O  O19  1  0.75000000  0.46015900  0.54451800  1
  O  O20  1  0.75000000  0.73335500  0.94758900  1
  O  O21  1  0.25000000  0.71899500  0.20264400  1
  O  O22  1  0.05657100  0.66067800  0.57387400  1
  O  O23  1  0.94342900  0.16067800  0.92612600  1
  O  O24  1  0.57329100  0.60952400  0.33137000  1
  O  O25  1  0.25000000  0.96015900  0.95548200  1
  O  O26  1  0.44342900  0.83932200  0.07387400  1
  O  O27  1  0.55657100  0.33932200  0.42612600  1
loop_
_geom_bond_atom_site_label_1
_geom_bond_atom_site_label_2
_geom_bond_distance
_geom_bond_site_symmetry_2
C0 O7 1.154010 1_555
C0 W7 2.054300 1_555
C1 O19 1.154010 1_555
C1 W0 2.054300 1_555
C2 O11 1.167842 1_555
C2 W2 2.020673 1_555
C3 O9 1.162027 1_655
C3 W3 2.024535 1_555
C4 O21 1.152586 1_555
C4 W7 2.073602 1_555
C5 O10 1.150742 1_555
C5 W4 2.074002 1_555
C6 O24 1.150742 1_555
C6 W7 2.074002 1_555
C7 O18 1.150742 1_655
C7 W0 2.074002 1_555
C8 O4 1.162027 1_555
C8 W6 2.024535 1_555
C9 O6 1.150742 1_655
C9 W4 2.074002 1_555
C10 O3 1.152586 1_555
C10 W0 2.073602 1_555
C11 O22 1.162027 1_655
C11 W1 2.024535 1_555
C12 O16 1.150742 1_555
C12 W5 2.074002 1_555
C13 O20 1.167842 1_554
C13 W3 2.020673 1_555
C14 O14 1.150742 1_455
C14 W7 2.074002 1_555
C15 O5 1.162027 1_455
C15 W2 2.024535 1_555
C16 O0 1.150742 1_555
C16 W0 2.074002 1_555
C17 O25 1.154010 1_555
C17 W5 2.054300 1_555
C18 O27 1.162027 1_555
C18 W2 2.024535 1_555
C19 O13 1.152586 1_555
C19 W5 2.073602 1_555
C20 O15 1.162027 1_555
C20 W1 2.024535 1_555
C21 O2 1.167842 1_555
C21 W1 2.020673 1_555
C22 O17 1.154010 1_555
C22 W4 2.054300 1_555
C23 O8 1.150742 1_455
C23 W5 2.074002 1_555
C24 O23 1.162027 1_455
C24 W6 2.024535 1_555
C25 O1 1.152586 1_555
C25 W4 2.073602 1_555
C26 O12 1.167842 1_556
C26 W6 2.020673 1_555
C27 O26 1.162027 1_555
C27 W3 2.024535 1_555
Br0 W0 2.711355 1_555
Br0 W1 2.767127 1_545
Br1 W5 2.739022 1_555
Br1 W6 2.777008 1_555
Br2 W2 2.694460 1_555
Br3 W7 2.711355 1_555
Br3 W2 2.767127 1_565
Br4 W0 2.711355 1_555
Br4 W1 2.767127 1_545
Br5 W4 2.739022 1_555
Br5 W3 2.777008 1_555
Br6 W5 2.711355 1_555
Br6 W6 2.767127 1_555
Br7 W0 2.739022 1_555
Br7 W1 2.777008 1_545
Br8 W4 2.711355 1_555
Br8 W3 2.767127 1_555
Br9 W7 2.739022 1_555
Br9 W2 2.777008 1_565
Br10 W6 2.694460 1_555
Br11 W7 2.711355 1_555
Br11 W2 2.767127 1_565
Br12 W5 2.711355 1_555
Br12 W6 2.767127 1_555
Br13 W3 2.694460 1_555
Br14 W1 2.694460 1_555
Br15 W4 2.711355 1_555
Br15 W3 2.767127 1_555
