# generated using pymatgen
data_Li2Cr2H4O9
_symmetry_space_group_name_H-M   'P 1'
_cell_length_a   5.46645850
_cell_length_b   5.46645850
_cell_length_c   12.97302450
_cell_angle_alpha   85.57715643
_cell_angle_beta   85.57715643
_cell_angle_gamma   91.71497828
_symmetry_Int_Tables_number   1
_chemical_formula_structural   Li2Cr2H4O9
_chemical_formula_sum   'Li4 Cr4 H8 O18'
_cell_volume   385.10566270
_cell_formula_units_Z   2
loop_
 _symmetry_equiv_pos_site_id
 _symmetry_equiv_pos_as_xyz
  1  'x, y, z'
loop_
 _atom_site_type_symbol
 _atom_site_label
 _atom_site_symmetry_multiplicity
 _atom_site_fract_x
 _atom_site_fract_y
 _atom_site_fract_z
 _atom_site_occupancy
  Li  Li0  1  0.50000000  0.00000000  0.50000000  1
  Li  Li1  1  0.00000000  0.50000000  0.00000000  1
  Li  Li2  1  0.22281000  0.77719000  0.75000000  1
  Li  Li3  1  0.77719000  0.22281000  0.25000000  1
  Cr  Cr0  1  0.73908700  0.01104300  0.85989200  1
  Cr  Cr1  1  0.01104300  0.73908700  0.35989200  1
  Cr  Cr2  1  0.26091300  0.98895700  0.14010800  1
  Cr  Cr3  1  0.98895700  0.26091300  0.64010800  1
  H  H0  1  0.41920600  0.57864500  0.59902800  1
  H  H1  1  0.57864500  0.41920600  0.09902800  1
  H  H2  1  0.58079400  0.42135500  0.40097200  1
  H  H3  1  0.42135500  0.58079400  0.90097200  1
  H  H4  1  0.63386800  0.70108200  0.65046400  1
  H  H5  1  0.70108200  0.63386800  0.15046400  1
  H  H6  1  0.36613200  0.29891800  0.34953600  1
  H  H7  1  0.29891800  0.36613200  0.84953600  1
  O  O0  1  0.96545500  0.03454500  0.75000000  1
  O  O1  1  0.03454500  0.96545500  0.25000000  1
  O  O2  1  0.46678000  0.05811700  0.81901600  1
  O  O3  1  0.05811700  0.46678000  0.31901600  1
  O  O4  1  0.53322000  0.94188300  0.18098400  1
  O  O5  1  0.94188300  0.53322000  0.68098400  1
  O  O6  1  0.74614800  0.73403800  0.91657500  1
  O  O7  1  0.73403800  0.74614800  0.41657500  1
  O  O8  1  0.25385200  0.26596200  0.08342500  1
  O  O9  1  0.26596200  0.25385200  0.58342500  1
  O  O10  1  0.78592700  0.19189300  0.56119800  1
  O  O11  1  0.19189300  0.78592700  0.06119800  1
  O  O12  1  0.21407300  0.80810700  0.43880200  1
  O  O13  1  0.80810700  0.21407300  0.93880200  1
  O  O14  1  0.46755300  0.73122000  0.62959200  1
  O  O15  1  0.73122000  0.46755300  0.12959200  1
  O  O16  1  0.53244700  0.26878000  0.37040800  1
  O  O17  1  0.26878000  0.53244700  0.87040800  1
loop_
_geom_bond_atom_site_label_1
_geom_bond_atom_site_label_2
_geom_bond_distance
_geom_bond_site_symmetry_2
Li0 O12 2.096511 1_545
Li0 O10 2.096511 1_555
Li0 O16 2.138713 1_555
Li0 O14 2.138713 1_545
Li0 O7 2.204099 1_545
Li0 O9 2.204099 1_555
Li1 O11 2.096511 1_555
Li1 O13 2.096511 1_454
Li1 O15 2.138713 1_455
Li1 O17 2.138713 1_554
Li1 O6 2.204099 1_454
Li1 O8 2.204099 1_555
Li2 O17 2.012815 1_555
Li2 O14 2.012815 1_555
Li2 O0 2.019096 1_465
Li2 O2 2.283028 1_565
Li2 O5 2.283028 1_455
Li3 O15 2.012815 1_555
Li3 O16 2.012815 1_555
Li3 O1 2.019096 1_645
Li3 O3 2.283028 1_655
Li3 O4 2.283028 1_545
Cr0 O13 1.622293 1_555
Cr0 O6 1.634405 1_545
Cr0 O2 1.639159 1_555
Cr0 O0 1.808402 1_555
Cr1 O12 1.622293 1_555
Cr1 O7 1.634405 1_455
Cr1 O3 1.639159 1_555
Cr1 O1 1.808402 1_555
Cr2 O11 1.622293 1_555
Cr2 O8 1.634405 1_565
Cr2 O4 1.639159 1_555
Cr2 O1 1.808402 1_555
Cr3 O10 1.622293 1_555
Cr3 O9 1.634405 1_655
Cr3 O5 1.639159 1_555
Cr3 O0 1.808402 1_555
H0 O14 0.988267 1_555
H1 O15 0.988267 1_555
H2 O16 0.988267 1_555
H3 O17 0.988267 1_555
H4 O14 0.983399 1_555
H5 O15 0.983399 1_555
H6 O16 0.983399 1_555
H7 O17 0.983399 1_555
