# generated using pymatgen
data_CeBC
_symmetry_space_group_name_H-M   'P 1'
_cell_length_a   8.30860900
_cell_length_b   8.33146900
_cell_length_c   12.13935800
_cell_angle_alpha   90.00000000
_cell_angle_beta   90.00000000
_cell_angle_gamma   90.00000000
_symmetry_Int_Tables_number   1
_chemical_formula_structural   CeBC
_chemical_formula_sum   'Ce20 B20 C20'
_cell_volume   840.32178725
_cell_formula_units_Z   20
loop_
 _symmetry_equiv_pos_site_id
 _symmetry_equiv_pos_as_xyz
  1  'x, y, z'
loop_
 _atom_site_type_symbol
 _atom_site_label
 _atom_site_symmetry_multiplicity
 _atom_site_fract_x
 _atom_site_fract_y
 _atom_site_fract_z
 _atom_site_occupancy
  Ce  Ce0  1  0.44782700  0.09891100  0.86146600  1
  Ce  Ce1  1  0.93882400  0.80265300  0.63344200  1
  Ce  Ce2  1  0.34286000  0.59064600  0.09667300  1
  Ce  Ce3  1  0.66008900  0.49227100  0.91770600  1
  Ce  Ce4  1  0.84286000  0.90935400  0.90332700  1
  Ce  Ce5  1  0.55217300  0.59891100  0.63853400  1
  Ce  Ce6  1  0.83991100  0.50772900  0.41770600  1
  Ce  Ce7  1  0.25466400  0.29064200  0.32841700  1
  Ce  Ce8  1  0.75466400  0.20935800  0.67158300  1
  Ce  Ce9  1  0.06117600  0.30265300  0.86655800  1
  Ce  Ce10  1  0.05217300  0.90108900  0.36146600  1
  Ce  Ce11  1  0.33991100  0.99227100  0.58229400  1
  Ce  Ce12  1  0.56117600  0.19734700  0.13344200  1
  Ce  Ce13  1  0.74533600  0.79064200  0.17158300  1
  Ce  Ce14  1  0.43882400  0.69734700  0.36655800  1
  Ce  Ce15  1  0.15714000  0.40935400  0.59667300  1
  Ce  Ce16  1  0.16008900  0.00772900  0.08229400  1
  Ce  Ce17  1  0.24533600  0.70935800  0.82841700  1
  Ce  Ce18  1  0.94782700  0.40108900  0.13853400  1
  Ce  Ce19  1  0.65714000  0.09064600  0.40332700  1
  B  B0  1  0.06164900  0.70538100  0.18032500  1
  B  B1  1  0.93835100  0.20538100  0.31967500  1
  B  B2  1  0.39942300  0.98061700  0.26050600  1
  B  B3  1  0.56164900  0.79461900  0.81967500  1
  B  B4  1  0.97892000  0.60750500  0.95955100  1
  B  B5  1  0.87991500  0.09612800  0.21360900  1
  B  B6  1  0.47892000  0.89249500  0.04044900  1
  B  B7  1  0.62008500  0.90387200  0.71360900  1
  B  B8  1  0.10057700  0.01938300  0.76050600  1
  B  B9  1  0.81538300  0.19866700  0.99193900  1
  B  B10  1  0.18461700  0.69866700  0.50806100  1
  B  B11  1  0.89942300  0.51938300  0.73949400  1
  B  B12  1  0.37991500  0.40387200  0.78639100  1
  B  B13  1  0.12008500  0.59612800  0.28639100  1
  B  B14  1  0.43835100  0.29461900  0.68032500  1
  B  B15  1  0.60057700  0.48061700  0.23949400  1
  B  B16  1  0.02108000  0.10750500  0.54044900  1
  B  B17  1  0.52108000  0.39249500  0.45955100  1
  B  B18  1  0.31538300  0.30133300  0.00806100  1
  B  B19  1  0.68461700  0.80133300  0.49193900  1
  C  C0  1  0.05640500  0.11642100  0.66114300  1
  C  C1  1  0.14741500  0.59716800  0.40836700  1
  C  C2  1  0.97244500  0.19907600  0.43990200  1
  C  C3  1  0.85458600  0.50637900  0.62130900  1
  C  C4  1  0.24825200  0.69792700  0.62317300  1
  C  C5  1  0.35258500  0.40283200  0.90836700  1
  C  C6  1  0.94359500  0.61642100  0.83885700  1
  C  C7  1  0.85258500  0.09716800  0.09163300  1
  C  C8  1  0.52755500  0.80092400  0.93990200  1
  C  C9  1  0.47244500  0.30092400  0.56009800  1
  C  C10  1  0.25174800  0.30207300  0.12317300  1
  C  C11  1  0.44359500  0.88357900  0.16114300  1
  C  C12  1  0.14541400  0.00637900  0.87869100  1
  C  C13  1  0.02755500  0.69907600  0.06009800  1
  C  C14  1  0.35458600  0.99362100  0.37869100  1
  C  C15  1  0.75174800  0.19792700  0.87682700  1
  C  C16  1  0.64541400  0.49362100  0.12130900  1
  C  C17  1  0.64741500  0.90283200  0.59163300  1
  C  C18  1  0.74825200  0.80207300  0.37682700  1
  C  C19  1  0.55640500  0.38357900  0.33885700  1
loop_
_geom_bond_atom_site_label_1
_geom_bond_atom_site_label_2
_geom_bond_distance
_geom_bond_site_symmetry_2
B0 C13 1.487643 1_555
B0 Ce2 2.721042 1_555
B0 Ce13 2.724496 1_455
B0 Ce10 2.738642 1_555
B0 Ce18 2.752991 1_455
B0 Ce16 2.903535 1_565
B1 C2 1.487643 1_555
B1 Ce19 2.721042 1_555
B1 Ce7 2.724496 1_655
B1 Ce18 2.738642 1_555
B1 Ce10 2.752991 1_645
B1 Ce6 2.903535 1_555
B2 C14 1.486222 1_555
B2 C11 1.497746 1_555
B2 Ce14 2.708217 1_555
B2 Ce12 2.728716 1_565
B2 Ce19 2.903668 1_565
B2 Ce16 2.947116 1_565
B2 Ce7 2.966130 1_565
B3 C8 1.487643 1_555
B3 Ce4 2.721042 1_555
B3 Ce17 2.724496 1_555
B3 Ce5 2.738642 1_555
B3 Ce0 2.752991 1_565
B3 Ce3 2.903535 1_555
B4 C13 1.495039 1_656
B4 C6 1.496101 1_555
B4 Ce18 2.782996 1_556
B4 Ce4 2.840466 1_555
B4 Ce17 2.855516 1_655
B4 Ce9 2.862229 1_655
B4 Ce3 2.863074 1_555
B5 C7 1.498046 1_555
B5 Ce18 2.757624 1_555
B5 Ce10 2.812566 1_645
B5 Ce13 2.826365 1_545
B5 Ce16 2.915892 1_655
B5 Ce12 2.944759 1_555
B5 Ce19 2.955024 1_555
B6 C8 1.495039 1_554
B6 C11 1.496101 1_555
B6 Ce0 2.782996 1_564
B6 Ce2 2.840466 1_555
B6 Ce13 2.855516 1_555
B6 Ce12 2.862229 1_565
B6 Ce16 2.863074 1_565
B7 C17 1.498046 1_555
B7 Ce5 2.757624 1_555
B7 Ce0 2.812566 1_565
B7 Ce8 2.826365 1_565
B7 Ce11 2.915892 1_555
B7 Ce1 2.944759 1_555
B7 Ce4 2.955024 1_555
B8 C12 1.486222 1_555
B8 C0 1.497746 1_555
B8 Ce9 2.708217 1_555
B8 Ce1 2.728716 1_445
B8 Ce4 2.903668 1_445
B8 Ce11 2.947116 1_545
B8 Ce17 2.966130 1_545
B9 C15 1.494078 1_555
B9 C7 1.508402 1_556
B9 Ce4 2.649391 1_545
B9 Ce18 2.687377 1_556
B9 Ce9 2.690310 1_655
B9 Ce12 2.722462 1_556
B9 Ce3 2.908699 1_555
B10 C4 1.494078 1_555
B10 C1 1.508402 1_555
B10 Ce15 2.649391 1_555
B10 Ce10 2.687377 1_555
B10 Ce1 2.690310 1_455
B10 Ce14 2.722462 1_555
B10 Ce11 2.908699 1_555
B11 C3 1.486222 1_555
B11 C6 1.497746 1_555
B11 Ce1 2.708217 1_555
B11 Ce9 2.728716 1_655
B11 Ce15 2.903668 1_655
B11 Ce3 2.947116 1_555
B11 Ce8 2.966130 1_555
B12 C5 1.498046 1_555
B12 Ce0 2.757624 1_555
B12 Ce5 2.812566 1_555
B12 Ce17 2.826365 1_555
B12 Ce3 2.915892 1_555
B12 Ce9 2.944759 1_555
B12 Ce15 2.955024 1_555
B13 C1 1.498046 1_555
B13 Ce10 2.757624 1_555
B13 Ce18 2.812566 1_455
B13 Ce7 2.826365 1_555
B13 Ce6 2.915892 1_455
B13 Ce14 2.944759 1_555
B13 Ce2 2.955024 1_555
B14 C9 1.487643 1_555
B14 Ce15 2.721042 1_555
B14 Ce8 2.724496 1_555
B14 Ce0 2.738642 1_555
B14 Ce5 2.752991 1_555
B14 Ce11 2.903535 1_545
B15 C16 1.486222 1_555
B15 C19 1.497746 1_555
B15 Ce12 2.708217 1_555
B15 Ce14 2.728716 1_555
B15 Ce2 2.903668 1_555
B15 Ce6 2.947116 1_555
B15 Ce13 2.966130 1_555
B16 C2 1.495039 1_455
B16 C0 1.496101 1_555
B16 Ce10 2.782996 1_545
B16 Ce15 2.840466 1_555
B16 Ce8 2.855516 1_455
B16 Ce1 2.862229 1_445
B16 Ce11 2.863074 1_545
B17 C9 1.495039 1_555
B17 C19 1.496101 1_555
B17 Ce5 2.782996 1_555
B17 Ce19 2.840466 1_555
B17 Ce7 2.855516 1_555
B17 Ce14 2.862229 1_555
B17 Ce6 2.863074 1_555
B18 C10 1.494078 1_555
B18 C5 1.508402 1_554
B18 Ce2 2.649391 1_555
B18 Ce0 2.687377 1_554
B18 Ce12 2.690310 1_555
B18 Ce9 2.722462 1_554
B18 Ce16 2.908699 1_555
B19 C18 1.494078 1_555
B19 C17 1.508402 1_555
B19 Ce19 2.649391 1_565
B19 Ce5 2.687377 1_555
B19 Ce14 2.690310 1_555
B19 Ce1 2.722462 1_555
B19 Ce6 2.908699 1_555
C0 Ce8 2.626955 1_455
C0 Ce15 2.696175 1_555
C0 Ce11 2.744930 1_545
C0 Ce1 2.810917 1_445
C0 Ce9 2.937186 1_555
C1 Ce14 2.610831 1_555
C1 Ce6 2.663791 1_455
C1 Ce10 2.713288 1_555
C1 Ce15 2.771358 1_555
C1 Ce7 2.873664 1_555
C2 Ce10 2.740269 1_645
C2 Ce19 2.806475 1_555
C2 Ce6 2.810332 1_555
C2 Ce7 2.812804 1_655
C2 Ce15 3.007640 1_655
C3 Ce6 2.474641 1_555
C3 Ce1 2.569930 1_555
C3 Ce5 2.636545 1_555
C3 Ce15 2.657460 1_655
C3 Ce8 2.680571 1_555
C4 Ce17 2.493468 1_555
C4 Ce15 2.541045 1_555
C4 Ce11 2.615357 1_555
C4 Ce5 2.663034 1_555
C4 Ce1 2.717801 1_455
C5 Ce9 2.610831 1_555
C5 Ce3 2.663791 1_555
C5 Ce0 2.713288 1_555
C5 Ce2 2.771358 1_556
C5 Ce17 2.873664 1_555
C6 Ce17 2.626955 1_655
C6 Ce4 2.696175 1_555
C6 Ce3 2.744930 1_555
C6 Ce9 2.810917 1_655
C6 Ce1 2.937186 1_555
C7 Ce12 2.610831 1_555
C7 Ce16 2.663791 1_655
C7 Ce18 2.713288 1_555
C7 Ce4 2.771358 1_544
C7 Ce13 2.873664 1_545
C8 Ce0 2.740269 1_565
C8 Ce4 2.806475 1_555
C8 Ce3 2.810332 1_555
C8 Ce17 2.812804 1_555
C8 Ce2 3.007640 1_556
C9 Ce5 2.740269 1_555
C9 Ce15 2.806475 1_555
C9 Ce11 2.810332 1_545
C9 Ce8 2.812804 1_555
C9 Ce19 3.007640 1_555
C10 Ce7 2.493468 1_555
C10 Ce2 2.541045 1_555
C10 Ce16 2.615357 1_555
C10 Ce18 2.663034 1_455
C10 Ce12 2.717801 1_555
C11 Ce13 2.626955 1_555
C11 Ce2 2.696175 1_555
C11 Ce16 2.744930 1_565
C11 Ce12 2.810917 1_565
C11 Ce14 2.937186 1_555
C12 Ce16 2.474641 1_556
C12 Ce9 2.569930 1_555
C12 Ce0 2.636545 1_555
C12 Ce4 2.657460 1_445
C12 Ce17 2.680571 1_545
C13 Ce18 2.740269 1_455
C13 Ce2 2.806475 1_555
C13 Ce16 2.810332 1_565
C13 Ce13 2.812804 1_455
C13 Ce4 3.007640 1_454
C14 Ce11 2.474641 1_555
C14 Ce14 2.569930 1_555
C14 Ce10 2.636545 1_555
C14 Ce19 2.657460 1_565
C14 Ce7 2.680571 1_565
C15 Ce8 2.493468 1_555
C15 Ce4 2.541045 1_545
C15 Ce3 2.615357 1_555
C15 Ce0 2.663034 1_555
C15 Ce9 2.717801 1_655
C16 Ce3 2.474641 1_554
C16 Ce12 2.569930 1_555
C16 Ce18 2.636545 1_555
C16 Ce2 2.657460 1_555
C16 Ce13 2.680571 1_555
C17 Ce1 2.610831 1_555
C17 Ce11 2.663791 1_555
C17 Ce5 2.713288 1_555
C17 Ce19 2.771358 1_565
C17 Ce8 2.873664 1_565
C18 Ce13 2.493468 1_555
C18 Ce19 2.541045 1_565
C18 Ce6 2.615357 1_555
C18 Ce10 2.663034 1_655
C18 Ce14 2.717801 1_555
C19 Ce7 2.626955 1_555
C19 Ce19 2.696175 1_555
C19 Ce6 2.744930 1_555
C19 Ce14 2.810917 1_555
C19 Ce12 2.937186 1_555
