# generated using pymatgen
data_V3(HO4)2
_symmetry_space_group_name_H-M   'P 1'
_cell_length_a   3.68967400
_cell_length_b   9.63115100
_cell_length_c   17.14094900
_cell_angle_alpha   90.00000000
_cell_angle_beta   90.00000000
_cell_angle_gamma   90.00000000
_symmetry_Int_Tables_number   1
_chemical_formula_structural   V3(HO4)2
_chemical_formula_sum   'V12 H8 O32'
_cell_volume   609.11746291
_cell_formula_units_Z   4
loop_
 _symmetry_equiv_pos_site_id
 _symmetry_equiv_pos_as_xyz
  1  'x, y, z'
loop_
 _atom_site_type_symbol
 _atom_site_label
 _atom_site_symmetry_multiplicity
 _atom_site_fract_x
 _atom_site_fract_y
 _atom_site_fract_z
 _atom_site_occupancy
  V  V0  1  0.25328400  0.37459200  0.54935900  1
  V  V1  1  0.25328400  0.12540800  0.04935900  1
  V  V2  1  0.75328400  0.62540800  0.45064100  1
  V  V3  1  0.75328400  0.87459200  0.95064100  1
  V  V4  1  0.26010000  0.44198200  0.34656400  1
  V  V5  1  0.26010000  0.05801800  0.84656400  1
  V  V6  1  0.76010000  0.55801800  0.65343600  1
  V  V7  1  0.76010000  0.94198200  0.15343600  1
  V  V8  1  0.23742900  0.40524800  0.95059400  1
  V  V9  1  0.23742900  0.09475200  0.45059400  1
  V  V10  1  0.73742900  0.59475200  0.04940600  1
  V  V11  1  0.73742900  0.90524800  0.54940600  1
  H  H0  1  0.31891300  0.25874200  0.23394900  1
  H  H1  1  0.31891300  0.24125800  0.73394900  1
  H  H2  1  0.81891300  0.74125800  0.76605100  1
  H  H3  1  0.81891300  0.75874200  0.26605100  1
  H  H4  1  0.40127000  0.57986500  0.23329900  1
  H  H5  1  0.40127000  0.92013500  0.73329900  1
  H  H6  1  0.90127000  0.42013500  0.76670100  1
  H  H7  1  0.90127000  0.07986500  0.26670100  1
  O  O0  1  0.25035600  0.57286600  0.45571300  1
  O  O1  1  0.25035600  0.92713400  0.95571300  1
  O  O2  1  0.75035600  0.42713400  0.54428700  1
  O  O3  1  0.75035600  0.07286600  0.04428700  1
  O  O4  1  0.25325100  0.23559300  0.60307200  1
  O  O5  1  0.25325100  0.26440700  0.10307200  1
  O  O6  1  0.75325100  0.76440700  0.39692800  1
  O  O7  1  0.75325100  0.73559300  0.89692800  1
  O  O8  1  0.24856700  0.52584200  0.62379000  1
  O  O9  1  0.24856700  0.97415800  0.12379000  1
  O  O10  1  0.74856700  0.47415800  0.37621000  1
  O  O11  1  0.74856700  0.02584200  0.87621000  1
  O  O12  1  0.24521800  0.28527300  0.44878600  1
  O  O13  1  0.24521800  0.21472700  0.94878600  1
  O  O14  1  0.74521800  0.71472700  0.55121400  1
  O  O15  1  0.74521800  0.78527300  0.05121400  1
  O  O16  1  0.24769200  0.29588700  0.28472300  1
  O  O17  1  0.24769200  0.20411300  0.78472300  1
  O  O18  1  0.74769200  0.70411300  0.71527700  1
  O  O19  1  0.74769200  0.79588700  0.21527700  1
  O  O20  1  0.22990800  0.58535300  0.27727600  1
  O  O21  1  0.22990800  0.91464700  0.77727600  1
  O  O22  1  0.72990800  0.41464700  0.72272400  1
  O  O23  1  0.72990800  0.08535300  0.22272400  1
  O  O24  1  0.23876000  0.57357400  0.01871200  1
  O  O25  1  0.23876000  0.92642600  0.51871200  1
  O  O26  1  0.73876000  0.42642600  0.98128800  1
  O  O27  1  0.73876000  0.07357400  0.48128800  1
  O  O28  1  0.22864500  0.45506500  0.86103800  1
  O  O29  1  0.22864500  0.04493500  0.36103800  1
  O  O30  1  0.72864500  0.54493500  0.13896200  1
  O  O31  1  0.72864500  0.95506500  0.63896200  1
loop_
_geom_bond_atom_site_label_1
_geom_bond_atom_site_label_2
_geom_bond_distance
_geom_bond_site_symmetry_2
H0 O16 0.976978 1_555
H1 O17 0.976978 1_555
H2 O18 0.976978 1_555
H3 O19 0.976978 1_555
H4 O20 0.985284 1_555
H5 O21 0.985284 1_555
H6 O22 0.985284 1_555
H7 O23 0.985284 1_555
O0 V2 1.904551 1_455
O0 V2 1.925366 1_555
O0 V4 2.256246 1_555
O0 V0 2.494659 1_555
O1 V3 1.904551 1_455
O1 V3 1.925366 1_555
O1 V5 2.256246 1_565
O1 V1 2.494659 1_566
O2 V0 1.904551 1_555
O2 V0 1.925366 1_655
O2 V6 2.256246 1_555
O2 V2 2.494659 1_555
O3 V1 1.904551 1_555
O3 V1 1.925366 1_655
O3 V7 2.256246 1_545
O3 V3 2.494659 1_544
O4 V0 1.624760 1_555
O5 V1 1.624760 1_555
O6 V2 1.624760 1_555
O7 V3 1.624760 1_555
O8 V6 1.898022 1_455
O8 V0 1.936498 1_555
O8 V6 1.979015 1_555
O9 V7 1.898022 1_455
O9 V1 1.936498 1_565
O9 V7 1.979015 1_555
O10 V4 1.898022 1_555
O10 V2 1.936498 1_555
O10 V4 1.979015 1_655
O11 V5 1.898022 1_555
O11 V3 1.936498 1_545
O11 V5 1.979015 1_655
O12 V9 1.835423 1_555
O12 V0 1.926862 1_555
O12 V4 2.313246 1_555
O13 V8 1.835423 1_555
O13 V1 1.926862 1_556
O13 V5 2.313246 1_555
O14 V11 1.835423 1_555
O14 V2 1.926862 1_555
O14 V6 2.313246 1_555
O15 V10 1.835423 1_555
O15 V3 1.926862 1_554
O15 V7 2.313246 1_555
O16 V4 1.762257 1_555
O17 V5 1.762257 1_555
O18 V6 1.762257 1_555
O19 V7 1.762257 1_555
O20 V4 1.824729 1_555
O21 V5 1.824729 1_565
O22 V6 1.824729 1_555
O23 V7 1.824729 1_545
O24 V10 1.924510 1_555
O24 V10 1.933902 1_455
O24 V8 1.997882 1_554
O25 V11 1.924510 1_555
O25 V11 1.933902 1_455
O25 V9 1.997882 1_565
O26 V8 1.924510 1_655
O26 V8 1.933902 1_555
O26 V10 1.997882 1_556
O27 V9 1.924510 1_655
O27 V9 1.933902 1_555
O27 V11 1.997882 1_545
O28 V8 1.608636 1_555
O29 V9 1.608636 1_555
O30 V10 1.608636 1_555
O31 V11 1.608636 1_555
