# generated using pymatgen
data_Li3Mn10O20
_symmetry_space_group_name_H-M   'P 1'
_cell_length_a   5.81863288
_cell_length_b   5.79975837
_cell_length_c   29.53355518
_cell_angle_alpha   60.59719083
_cell_angle_beta   60.37347317
_cell_angle_gamma   60.10725620
_symmetry_Int_Tables_number   1
_chemical_formula_structural   Li3Mn10O20
_chemical_formula_sum   'Li6 Mn20 O40'
_cell_volume   710.44654358
_cell_formula_units_Z   2
loop_
 _symmetry_equiv_pos_site_id
 _symmetry_equiv_pos_as_xyz
  1  'x, y, z'
loop_
 _atom_site_type_symbol
 _atom_site_label
 _atom_site_symmetry_multiplicity
 _atom_site_fract_x
 _atom_site_fract_y
 _atom_site_fract_z
 _atom_site_occupancy
  Li  Li0  1  0.14232100  0.13612200  0.61708700  1
  Li  Li1  1  0.87240600  0.87392400  0.17594900  1
  Li  Li2  1  0.85447900  0.87515200  0.37904400  1
  Li  Li3  1  0.86256700  0.88421100  0.57380200  1
  Li  Li4  1  0.88345200  0.88385500  0.76976700  1
  Li  Li5  1  0.85699400  0.87233300  0.97966800  1
  Mn  Mn0  1  0.15758300  0.10248400  0.22749000  1
  Mn  Mn1  1  0.39143000  0.44498200  0.04372100  1
  Mn  Mn2  1  0.50788400  0.48738700  0.10750400  1
  Mn  Mn3  1  0.51086100  0.49167900  0.20115600  1
  Mn  Mn4  1  0.16077500  0.11580800  0.42152200  1
  Mn  Mn5  1  0.50788400  0.96720600  0.10750400  1
  Mn  Mn6  1  0.50648300  0.49847800  0.30202200  1
  Mn  Mn7  1  0.50935200  0.50170700  0.39744700  1
  Mn  Mn8  1  0.50648300  0.98493100  0.30202200  1
  Mn  Mn9  1  0.50247200  0.50071000  0.50005000  1
  Mn  Mn10  1  0.00899000  0.50435900  0.69645800  1
  Mn  Mn11  1  0.51171700  0.50682900  0.59492500  1
  Mn  Mn12  1  0.50247200  0.99656600  0.50005000  1
  Mn  Mn13  1  0.50402500  0.50611300  0.69615100  1
  Mn  Mn14  1  0.02225900  0.51519700  0.88946900  1
  Mn  Mn15  1  0.50402500  0.00910800  0.69615100  1
  Mn  Mn16  1  0.51711100  0.02581600  0.88843700  1
  Mn  Mn17  1  0.51106800  0.51132000  0.79325800  1
  Mn  Mn18  1  0.51711100  0.51488700  0.88843700  1
  Mn  Mn19  1  0.54603900  0.56754000  0.96377600  1
  O  O0  1  0.24617500  0.20048200  0.06577100  1
  O  O1  1  0.27934900  0.22798000  0.15293800  1
  O  O2  1  0.24617500  0.72449000  0.06577100  1
  O  O3  1  0.70396400  0.23791100  0.06404300  1
  O  O4  1  0.27813300  0.24235800  0.25232000  1
  O  O5  1  0.28698300  0.71925800  0.15490000  1
  O  O6  1  0.70770900  0.27785800  0.15631800  1
  O  O7  1  0.70100800  0.74063700  0.06354300  1
  O  O8  1  0.28090200  0.24923100  0.34412700  1
  O  O9  1  0.27813300  0.71791100  0.25232000  1
  O  O10  1  0.72318700  0.25069400  0.25508500  1
  O  O11  1  0.70770900  0.73284200  0.15631800  1
  O  O12  1  0.28639200  0.24788900  0.44797800  1
  O  O13  1  0.28383600  0.73722900  0.34834100  1
  O  O14  1  0.70203000  0.74890300  0.26003300  1
  O  O15  1  0.70267500  0.28858400  0.35105500  1
  O  O16  1  0.29772300  0.25768600  0.53738100  1
  O  O17  1  0.28639200  0.72582800  0.44797800  1
  O  O18  1  0.73011200  0.26071700  0.44969100  1
  O  O19  1  0.70267500  0.75346700  0.35105500  1
  O  O20  1  0.28408400  0.74130700  0.54666000  1
  O  O21  1  0.26278600  0.26515200  0.65169600  1
  O  O22  1  0.69448100  0.28913200  0.55179800  1
  O  O23  1  0.70306600  0.75031200  0.45926200  1
  O  O24  1  0.26278600  0.71358000  0.65169600  1
  O  O25  1  0.27332900  0.27307300  0.73610500  1
  O  O26  1  0.69448100  0.75739700  0.55179800  1
  O  O27  1  0.71224100  0.27082000  0.64922400  1
  O  O28  1  0.28254300  0.28224000  0.84347800  1
  O  O29  1  0.29972900  0.74569100  0.74177800  1
  O  O30  1  0.74458700  0.29939900  0.74151900  1
  O  O31  1  0.74169900  0.73943600  0.65588600  1
  O  O32  1  0.28452500  0.28417000  0.92942700  1
  O  O33  1  0.28254300  0.71782700  0.84347800  1
  O  O34  1  0.72147600  0.28285700  0.84256200  1
  O  O35  1  0.74458700  0.74842000  0.74151900  1
  O  O36  1  0.27988500  0.78169800  0.93134400  1
  O  O37  1  0.77239800  0.28577100  0.93323800  1
  O  O38  1  0.75187100  0.75041600  0.84945900  1
  O  O39  1  0.77239800  0.77563900  0.93323800  1
loop_
_geom_bond_atom_site_label_1
_geom_bond_atom_site_label_2
_geom_bond_distance
_geom_bond_site_symmetry_2
Li0 O16 1.938399 1_555
Li0 O21 2.019485 1_555
Li0 O24 2.019495 1_545
Li0 O27 2.050523 1_455
Li1 O11 1.928918 1_555
Li1 O6 1.928919 1_565
Li1 O5 1.979449 1_655
Li1 O14 2.046902 1_555
Li2 O23 1.949636 1_555
Li2 O15 1.969159 1_565
Li2 O19 1.969168 1_555
Li2 O13 2.045484 1_655
Li3 O26 1.932486 1_555
Li3 O22 1.932491 1_565
Li3 O31 1.995202 1_555
Li3 O20 2.006824 1_655
Li4 O38 1.935208 1_555
Li4 O35 1.976964 1_555
Li4 O30 1.976983 1_565
Li4 O29 1.982042 1_655
Li5 O37 2.033377 1_565
Li5 O39 2.033386 1_555
Li5 O7 2.038059 1_556
Li5 O36 2.084045 1_655
Mn0 O1 1.810451 1_555
Mn0 O9 1.829677 1_545
Mn0 O4 1.829682 1_555
Mn0 O10 2.068185 1_455
Mn1 O0 1.700876 1_555
Mn1 O2 1.700892 1_555
Mn1 O3 1.817693 1_555
Mn2 O6 1.853565 1_555
Mn2 O7 1.853644 1_555
Mn2 O5 1.940751 1_555
Mn2 O3 1.942416 1_555
Mn2 O2 1.957855 1_555
Mn2 O1 2.019917 1_555
Mn3 O11 1.816705 1_555
Mn3 O6 1.816705 1_555
Mn3 O5 1.892214 1_555
Mn3 O4 1.997806 1_555
Mn3 O9 1.997818 1_555
Mn3 O10 2.013724 1_555
Mn4 O12 1.855257 1_555
Mn4 O17 1.855267 1_545
Mn4 O8 1.880106 1_555
Mn4 O18 2.050373 1_455
Mn5 O11 1.853565 1_555
Mn5 O7 1.853644 1_555
Mn5 O5 1.940743 1_555
Mn5 O3 1.942434 1_565
Mn5 O0 1.957855 1_565
Mn5 O1 2.019925 1_565
Mn6 O15 1.844037 1_555
Mn6 O14 1.850838 1_555
Mn6 O13 1.945956 1_555
Mn6 O8 1.967572 1_555
Mn6 O9 1.987021 1_555
Mn6 O10 1.999617 1_555
Mn7 O19 1.850304 1_555
Mn7 O15 1.850304 1_555
Mn7 O13 1.959790 1_555
Mn7 O17 1.977241 1_555
Mn7 O12 1.977249 1_555
Mn7 O18 2.009156 1_555
Mn8 O19 1.844037 1_555
Mn8 O14 1.850843 1_555
Mn8 O13 1.945969 1_555
Mn8 O8 1.967559 1_565
Mn8 O4 1.987021 1_565
Mn8 O10 1.999608 1_565
Mn9 O16 1.863006 1_555
Mn9 O23 1.868383 1_555
Mn9 O22 1.889420 1_555
Mn9 O20 1.961128 1_555
Mn9 O17 1.988570 1_555
Mn9 O18 2.037433 1_555
Mn10 O24 1.918778 1_555
Mn10 O21 1.918778 1_555
Mn10 O25 1.928212 1_555
Mn10 O30 1.948406 1_455
Mn10 O35 1.948418 1_455
Mn10 O31 1.959163 1_455
Mn11 O26 1.802459 1_555
Mn11 O22 1.802460 1_555
Mn11 O20 1.950249 1_555
Mn11 O27 1.977208 1_555
Mn11 O24 2.046658 1_555
Mn11 O21 2.046665 1_555
Mn12 O16 1.863015 1_565
Mn12 O23 1.868374 1_555
Mn12 O26 1.889420 1_555
Mn12 O20 1.961128 1_555
Mn12 O12 1.988571 1_565
Mn12 O18 2.037445 1_565
Mn13 O25 1.922859 1_555
Mn13 O24 1.931135 1_555
Mn13 O29 1.941129 1_555
Mn13 O30 1.948380 1_555
Mn13 O27 1.949317 1_555
Mn13 O31 1.953758 1_555
Mn14 O28 1.921608 1_555
Mn14 O33 1.921616 1_555
Mn14 O32 1.925242 1_555
Mn14 O38 1.961748 1_455
Mn14 O37 1.984052 1_455
Mn14 O39 1.984052 1_455
Mn15 O25 1.922855 1_555
Mn15 O21 1.931133 1_555
Mn15 O29 1.941129 1_545
Mn15 O35 1.948380 1_545
Mn15 O27 1.949317 1_555
Mn15 O31 1.953758 1_545
Mn16 O34 1.913883 1_555
Mn16 O28 1.915006 1_555
Mn16 O32 1.918916 1_555
Mn16 O38 1.954040 1_545
Mn16 O39 1.993057 1_545
Mn16 O36 1.993144 1_545
Mn17 O28 1.899813 1_555
Mn17 O33 1.899821 1_555
Mn17 O34 1.904205 1_555
Mn17 O30 1.954100 1_555
Mn17 O35 1.954111 1_555
Mn17 O29 1.955651 1_555
Mn18 O34 1.913879 1_555
Mn18 O33 1.915006 1_555
Mn18 O32 1.918911 1_555
Mn18 O38 1.954036 1_555
Mn18 O37 1.993057 1_555
Mn18 O36 1.993153 1_555
Mn19 O36 1.799897 1_555
Mn19 O39 1.829223 1_555
Mn19 O37 1.829228 1_555
