# generated using pymatgen
data_Cu6Hg3(AsS3)4
_symmetry_space_group_name_H-M   'P 1'
_cell_length_a   8.62193718
_cell_length_b   8.62193718
_cell_length_c   8.62193770
_cell_angle_alpha   107.51095338
_cell_angle_beta   107.51095338
_cell_angle_gamma   107.51095329
_symmetry_Int_Tables_number   1
_chemical_formula_structural   Cu6Hg3(AsS3)4
_chemical_formula_sum   'Cu6 Hg3 As4 S12'
_cell_volume   526.16035513
_cell_formula_units_Z   1
loop_
 _symmetry_equiv_pos_site_id
 _symmetry_equiv_pos_as_xyz
  1  'x, y, z'
loop_
 _atom_site_type_symbol
 _atom_site_label
 _atom_site_symmetry_multiplicity
 _atom_site_fract_x
 _atom_site_fract_y
 _atom_site_fract_z
 _atom_site_occupancy
  Cu  Cu0  1  0.90073400  0.74389100  0.26954600  1
  Cu  Cu1  1  0.26954600  0.90073400  0.74389100  1
  Cu  Cu2  1  0.58049400  0.78674400  0.52812800  1
  Cu  Cu3  1  0.78674400  0.52812800  0.58049400  1
  Cu  Cu4  1  0.74389100  0.26954600  0.90073400  1
  Cu  Cu5  1  0.52812800  0.58049400  0.78674400  1
  Hg  Hg0  1  0.67159200  0.05560400  0.19958300  1
  Hg  Hg1  1  0.05560400  0.19958300  0.67159200  1
  Hg  Hg2  1  0.19958300  0.67159200  0.05560400  1
  As  As0  1  0.43149900  0.36699300  0.14501100  1
  As  As1  1  0.14501100  0.43149900  0.36699300  1
  As  As2  1  0.36699300  0.14501100  0.43149900  1
  As  As3  1  0.99486100  0.99486100  0.99486100  1
  S  S0  1  0.68664700  0.62052300  0.36399300  1
  S  S1  1  0.62052300  0.36399300  0.68664700  1
  S  S2  1  0.36399300  0.68664700  0.62052300  1
  S  S3  1  0.04476900  0.76949600  0.81937800  1
  S  S4  1  0.47547300  0.93112000  0.35109200  1
  S  S5  1  0.93112000  0.35109200  0.47547300  1
  S  S6  1  0.35109200  0.47547300  0.93112000  1
  S  S7  1  0.51235100  0.16044900  0.97752900  1
  S  S8  1  0.81937800  0.04476900  0.76949600  1
  S  S9  1  0.97752900  0.51235100  0.16044900  1
  S  S10  1  0.76949600  0.81937800  0.04476900  1
  S  S11  1  0.16044900  0.97752900  0.51235100  1
loop_
_geom_bond_atom_site_label_1
_geom_bond_atom_site_label_2
_geom_bond_distance
_geom_bond_site_symmetry_2
Cu0 S10 2.311369 1_555
Cu0 S9 2.312727 1_555
Cu0 S11 2.319791 1_655
Cu0 S0 2.333647 1_555
Cu1 S3 2.311369 1_555
Cu1 S11 2.312727 1_555
Cu1 S7 2.319791 1_565
Cu1 S2 2.333647 1_555
Cu2 S2 2.281003 1_555
Cu2 S0 2.289662 1_555
Cu2 S8 2.323654 1_565
Cu2 S4 2.385220 1_555
Cu3 S0 2.281003 1_555
Cu3 S1 2.289662 1_555
Cu3 S3 2.323654 1_655
Cu3 S5 2.385220 1_555
Cu4 S8 2.311369 1_555
Cu4 S7 2.312727 1_555
Cu4 S9 2.319791 1_556
Cu4 S1 2.333647 1_555
Cu5 S1 2.281003 1_555
Cu5 S2 2.289662 1_555
Cu5 S10 2.323654 1_556
Cu5 S6 2.385220 1_555
Hg0 S7 2.564014 1_554
Hg0 S10 2.592126 1_545
Hg0 S4 2.607379 1_545
Hg0 S5 2.622098 1_555
Hg1 S11 2.564014 1_545
Hg1 S8 2.592126 1_455
Hg1 S5 2.607379 1_455
Hg1 S6 2.622098 1_555
Hg2 S9 2.564014 1_455
Hg2 S3 2.592126 1_554
Hg2 S6 2.607379 1_554
Hg2 S4 2.622098 1_555
As0 S0 2.303380 1_555
As0 S6 2.327045 1_554
As0 S7 2.355367 1_554
As1 S2 2.303380 1_555
As1 S5 2.327044 1_455
As1 S9 2.355367 1_455
As2 S1 2.303380 1_555
As2 S4 2.327044 1_545
As2 S11 2.355367 1_545
As3 S10 2.318555 1_556
As3 S3 2.318555 1_655
As3 S8 2.318555 1_565
