# generated using pymatgen
data_KSn2F5
_symmetry_space_group_name_H-M   'P 1'
_cell_length_a   7.25041208
_cell_length_b   9.76633399
_cell_length_c   12.46450127
_cell_angle_alpha   90.02866784
_cell_angle_beta   90.41318853
_cell_angle_gamma   90.12650553
_symmetry_Int_Tables_number   1
_chemical_formula_structural   KSn2F5
_chemical_formula_sum   'K6 Sn12 F30'
_cell_volume   882.58544127
_cell_formula_units_Z   6
loop_
 _symmetry_equiv_pos_site_id
 _symmetry_equiv_pos_as_xyz
  1  'x, y, z'
loop_
 _atom_site_type_symbol
 _atom_site_label
 _atom_site_symmetry_multiplicity
 _atom_site_fract_x
 _atom_site_fract_y
 _atom_site_fract_z
 _atom_site_occupancy
  K  K0  1  0.49556657  -0.00196410  0.50093093  1
  K  K1  1  0.49783648  0.03886462  0.16674672  1
  K  K2  1  0.00762377  0.01139505  0.66655803  1
  K  K3  1  0.00008866  0.99834811  0.99811972  1
  K  K4  1  0.00343646  0.97682196  0.33244707  1
  K  K5  1  0.49504924  0.97901035  0.83440663  1
  Sn  Sn0  1  0.65389038  0.67417472  0.34082890  1
  Sn  Sn1  1  0.67358402  0.67580602  0.00193782  1
  Sn  Sn2  1  0.33919594  0.32956354  0.33967005  1
  Sn  Sn3  1  0.15679157  0.67425694  0.16043240  1
  Sn  Sn4  1  0.16929671  0.66992550  0.82540115  1
  Sn  Sn5  1  0.17375972  0.66919101  0.50251645  1
  Sn  Sn6  1  0.83562161  0.32319850  0.47996888  1
  Sn  Sn7  1  0.84804277  0.32964262  0.16764294  1
  Sn  Sn8  1  0.83591003  0.32809068  0.84965625  1
  Sn  Sn9  1  0.68061467  0.67007361  0.66503539  1
  Sn  Sn10  1  0.34177033  0.33102835  0.99301725  1
  Sn  Sn11  1  0.33172683  0.32797275  0.66798713  1
  F  F0  1  0.98096773  0.28012186  0.99281006  1
  F  F1  1  0.66966605  0.88104887  0.02455315  1
  F  F2  1  0.63574086  0.87947338  0.32273473  1
  F  F3  1  0.62144231  0.28615687  0.05121710  1
  F  F4  1  0.62360725  0.28643066  0.28681555  1
  F  F5  1  0.49653639  0.28094722  0.49957510  1
  F  F6  1  0.31803257  0.12236219  0.34412651  1
  F  F7  1  0.28307816  0.28303003  0.16666739  1
  F  F8  1  0.22341655  0.72135753  0.33419922  1
  F  F9  1  0.19819559  0.87981237  0.15297441  1
  F  F10  1  0.17361899  0.87614878  0.51247838  1
  F  F11  1  0.14065300  0.87635300  0.83162904  1
  F  F12  1  0.10162808  0.27749245  0.55728818  1
  F  F13  1  0.10338444  0.27888439  0.77897659  1
  F  F14  1  -0.00052993  0.71380722  0.66729350  1
  F  F15  1  0.98838515  0.27743582  0.34020674  1
  F  F16  1  0.89503120  0.71996906  0.22153479  1
  F  F17  1  0.87613794  0.71148641  0.44683066  1
  F  F18  1  0.86057525  0.12294517  0.16880008  1
  F  F19  1  0.81884615  0.11745440  0.49429728  1
  F  F20  1  0.81094301  0.12275127  0.83204190  1
  F  F21  1  0.73387392  0.71887001  0.84028351  1
  F  F22  1  0.68543426  0.87683622  0.65726591  1
  F  F23  1  0.49861577  0.28623372  0.83657724  1
  F  F24  1  0.50794466  0.71383226  0.49217751  1
  F  F25  1  0.38738979  0.72070760  0.71471914  1
  F  F26  1  0.39348538  0.72440793  0.94086071  1
  F  F27  1  0.35634960  0.12103755  0.67048213  1
  F  F28  1  0.32323387  0.12364472  0.98610398  1
  F  F29  1  0.98600926  0.71345777  0.01000881  1
loop_
_geom_bond_atom_site_label_1
_geom_bond_atom_site_label_2
_geom_bond_distance
_geom_bond_site_symmetry_2
F0 Sn8 2.117882 1_555
F0 Sn7 2.437820 1_556
F0 Sn10 2.661697 1_655
F0 K3 2.756496 1_645
F1 Sn1 2.024344 1_555
F1 K1 2.665811 1_565
F1 K3 2.675806 1_654
F1 K5 2.846017 1_554
F2 Sn0 2.022241 1_555
F2 K1 2.680514 1_565
F2 K0 2.709663 1_565
F2 K4 2.830169 1_655
F3 Sn10 2.193864 1_554
F3 Sn7 2.224299 1_555
F3 K1 2.953345 1_555
F4 Sn2 2.210629 1_555
F4 Sn7 2.250555 1_555
F4 K1 2.980625 1_555
F5 Sn2 2.338795 1_555
F5 Sn11 2.466366 1_555
F5 Sn6 2.505702 1_555
F5 K0 2.763060 1_555
F6 Sn2 2.029887 1_555
F6 K0 2.631387 1_555
F6 K4 2.687933 1_545
F6 K1 2.701344 1_555
F7 Sn2 2.237780 1_555
F7 Sn10 2.258129 1_554
F7 K1 2.850827 1_555
F8 Sn5 2.191325 1_555
F8 Sn3 2.262537 1_555
F8 K4 2.964158 1_555
F9 Sn3 2.031462 1_555
F9 K3 2.664303 1_554
F9 K1 2.672393 1_565
F9 K4 2.818738 1_555
F10 Sn5 2.024970 1_555
F10 K0 2.622828 1_565
F10 K2 2.630476 1_565
F10 K4 2.737217 1_555
F11 Sn4 2.028669 1_555
F11 K3 2.607326 1_555
F11 K2 2.623515 1_565
F11 K5 2.756104 1_555
F12 Sn6 2.196634 1_455
F12 Sn11 2.211938 1_555
F12 K2 3.013705 1_555
F13 Sn8 2.190045 1_455
F13 Sn11 2.216943 1_555
F13 K2 3.040463 1_555
F14 Sn9 2.349996 1_455
F14 Sn4 2.356218 1_555
F14 Sn5 2.458467 1_555
F14 K2 2.906833 1_565
F15 Sn6 2.119092 1_555
F15 Sn7 2.427682 1_555
F15 Sn2 2.592926 1_655
F15 K4 2.939733 1_645
F16 Sn3 2.098933 1_655
F16 Sn0 2.345747 1_555
F16 K4 2.965428 1_655
F17 Sn0 2.107438 1_555
F17 Sn5 2.300319 1_655
F17 K4 3.100294 1_655
F18 Sn7 2.020975 1_555
F18 K3 2.657788 1_644
F18 K4 2.692421 1_645
F18 K1 2.753426 1_555
F19 Sn6 2.020850 1_555
F19 K0 2.617591 1_555
F19 K2 2.742739 1_655
F19 K4 2.791364 1_645
F20 Sn8 2.024855 1_555
F20 K5 2.684055 1_545
F20 K2 2.741883 1_655
F20 K3 2.758800 1_645
F21 Sn1 2.107294 1_556
F21 Sn9 2.265772 1_555
F21 K5 3.078351 1_555
F22 Sn9 2.021919 1_555
F22 K0 2.657851 1_565
F22 K2 2.679499 1_665
F22 K5 2.797165 1_555
F23 Sn10 2.306559 1_555
F23 Sn11 2.452042 1_555
F23 Sn8 2.482747 1_555
F23 K5 3.000607 1_545
F24 Sn0 2.204182 1_555
F24 Sn5 2.465240 1_555
F24 Sn9 2.521228 1_555
F24 K0 2.779389 1_565
F25 Sn4 2.162947 1_555
F25 Sn9 2.274040 1_555
F25 K5 3.028120 1_555
F26 Sn1 2.216183 1_556
F26 Sn4 2.226670 1_555
F26 K5 2.914629 1_555
F27 Sn11 2.029495 1_555
F27 K0 2.638528 1_555
F27 K5 2.662607 1_545
F27 K2 2.743731 1_555
F28 Sn10 2.031280 1_555
F28 K3 2.646087 1_545
F28 K5 2.676089 1_545
F28 K1 2.706170 1_556
F29 Sn3 2.272576 1_655
F29 Sn1 2.295544 1_555
F29 Sn4 2.699476 1_654
F29 K3 2.788035 1_654
