# generated using pymatgen
data_SiO2
_symmetry_space_group_name_H-M   'P 1'
_cell_length_a   5.23309703
_cell_length_b   14.08017597
_cell_length_c   17.16209978
_cell_angle_alpha   90.00000000
_cell_angle_beta   90.00000000
_cell_angle_gamma   90.00000000
_symmetry_Int_Tables_number   1
_chemical_formula_structural   SiO2
_chemical_formula_sum   'Si24 O48'
_cell_volume   1264.55374612
_cell_formula_units_Z   24
loop_
 _symmetry_equiv_pos_site_id
 _symmetry_equiv_pos_as_xyz
  1  'x, y, z'
loop_
 _atom_site_type_symbol
 _atom_site_label
 _atom_site_symmetry_multiplicity
 _atom_site_fract_x
 _atom_site_fract_y
 _atom_site_fract_z
 _atom_site_occupancy
  Si  Si0  1  -0.00000000  0.25765035  0.05381572  1
  Si  Si1  1  -0.00000000  0.74234965  0.94618428  1
  Si  Si2  1  -0.00000000  0.25765035  0.44618428  1
  Si  Si3  1  -0.00000000  0.74234965  0.55381572  1
  Si  Si4  1  0.50000000  0.75765035  0.05381572  1
  Si  Si5  1  0.50000000  0.24234965  0.94618428  1
  Si  Si6  1  0.50000000  0.75765035  0.44618428  1
  Si  Si7  1  0.50000000  0.24234965  0.55381572  1
  Si  Si8  1  -0.00000000  0.07124636  0.15764404  1
  Si  Si9  1  -0.00000000  0.92875364  0.84235596  1
  Si  Si10  1  -0.00000000  0.07124636  0.34235596  1
  Si  Si11  1  -0.00000000  0.92875364  0.65764404  1
  Si  Si12  1  0.50000000  0.57124636  0.15764404  1
  Si  Si13  1  0.50000000  0.42875364  0.84235596  1
  Si  Si14  1  0.50000000  0.57124636  0.34235596  1
  Si  Si15  1  0.50000000  0.42875364  0.65764404  1
  Si  Si16  1  0.50000000  0.97125910  0.09082942  1
  Si  Si17  1  0.50000000  0.02874090  0.90917058  1
  Si  Si18  1  0.50000000  0.97125910  0.40917058  1
  Si  Si19  1  0.50000000  0.02874090  0.59082942  1
  Si  Si20  1  -0.00000000  0.47125910  0.09082942  1
  Si  Si21  1  -0.00000000  0.52874090  0.90917058  1
  Si  Si22  1  -0.00000000  0.47125910  0.40917058  1
  Si  Si23  1  -0.00000000  0.52874090  0.59082942  1
  O  O0  1  -0.00000000  0.17388896  0.11692855  1
  O  O1  1  -0.00000000  0.82611104  0.88307145  1
  O  O2  1  -0.00000000  0.17388896  0.38307145  1
  O  O3  1  -0.00000000  0.82611104  0.61692855  1
  O  O4  1  0.50000000  0.67388896  0.11692855  1
  O  O5  1  0.50000000  0.32611104  0.88307145  1
  O  O6  1  0.50000000  0.67388896  0.38307145  1
  O  O7  1  0.50000000  0.32611104  0.61692855  1
  O  O8  1  0.25000000  0.25000000  0.00000000  1
  O  O9  1  0.25000000  0.75000000  0.00000000  1
  O  O10  1  0.75000000  0.25000000  0.50000000  1
  O  O11  1  0.75000000  0.75000000  0.50000000  1
  O  O12  1  0.75000000  0.75000000  0.00000000  1
  O  O13  1  0.75000000  0.25000000  0.00000000  1
  O  O14  1  0.25000000  0.75000000  0.50000000  1
  O  O15  1  0.25000000  0.25000000  0.50000000  1
  O  O16  1  -0.00000000  0.35743215  0.09954777  1
  O  O17  1  -0.00000000  0.64256785  0.90045223  1
  O  O18  1  -0.00000000  0.35743215  0.40045223  1
  O  O19  1  -0.00000000  0.64256785  0.59954777  1
  O  O20  1  0.50000000  0.85743215  0.09954777  1
  O  O21  1  0.50000000  0.14256785  0.90045223  1
  O  O22  1  0.50000000  0.85743215  0.40045223  1
  O  O23  1  0.50000000  0.14256785  0.59954777  1
  O  O24  1  0.75011380  0.01283506  0.13239741  1
  O  O25  1  0.75011380  0.98716494  0.86760259  1
  O  O26  1  0.24988620  0.01283506  0.36760259  1
  O  O27  1  0.24988620  0.98716494  0.63239741  1
  O  O28  1  0.24988620  0.98716494  0.86760259  1
  O  O29  1  0.24988620  0.01283506  0.13239741  1
  O  O30  1  0.75011380  0.98716494  0.63239741  1
  O  O31  1  0.75011380  0.01283506  0.36760259  1
  O  O32  1  0.25011380  0.51283506  0.13239741  1
  O  O33  1  0.25011380  0.48716494  0.86760259  1
  O  O34  1  0.74988620  0.51283506  0.36760259  1
  O  O35  1  0.74988620  0.48716494  0.63239741  1
  O  O36  1  0.74988620  0.48716494  0.86760259  1
  O  O37  1  0.74988620  0.51283506  0.13239741  1
  O  O38  1  0.25011380  0.48716494  0.63239741  1
  O  O39  1  0.25011380  0.51283506  0.36760259  1
  O  O40  1  -0.00000000  0.08635167  0.25000000  1
  O  O41  1  -0.00000000  0.91364833  0.75000000  1
  O  O42  1  0.50000000  0.58635167  0.25000000  1
  O  O43  1  0.50000000  0.41364833  0.75000000  1
  O  O44  1  0.50000000  0.00000000  0.00000000  1
  O  O45  1  0.50000000  0.00000000  0.50000000  1
  O  O46  1  -0.00000000  0.50000000  0.00000000  1
  O  O47  1  -0.00000000  0.50000000  0.50000000  1
loop_
_geom_bond_atom_site_label_1
_geom_bond_atom_site_label_2
_geom_bond_distance
_geom_bond_site_symmetry_2
O0 Si0 1.601292 1_555
O0 Si8 1.605288 1_555
O1 Si1 1.601292 1_555
O1 Si9 1.605288 1_555
O2 Si2 1.601292 1_555
O2 Si10 1.605288 1_555
O3 Si3 1.601292 1_555
O3 Si11 1.605288 1_555
O4 Si4 1.601292 1_555
O4 Si12 1.605288 1_555
O5 Si5 1.601292 1_555
O5 Si13 1.605288 1_555
O6 Si6 1.601292 1_555
O6 Si14 1.605288 1_555
O7 Si7 1.601292 1_555
O7 Si15 1.605288 1_555
O8 Si0 1.605056 1_555
O8 Si5 1.605056 1_554
O9 Si4 1.605056 1_555
O9 Si1 1.605056 1_554
O10 Si2 1.605056 1_655
O10 Si7 1.605056 1_555
O11 Si6 1.605056 1_555
O11 Si3 1.605056 1_655
O12 Si4 1.605056 1_555
O12 Si1 1.605056 1_654
O13 Si0 1.605056 1_655
O13 Si5 1.605056 1_554
O14 Si6 1.605056 1_555
O14 Si3 1.605056 1_555
O15 Si2 1.605056 1_555
O15 Si7 1.605056 1_555
O16 Si0 1.609308 1_555
O16 Si20 1.609673 1_555
O17 Si1 1.609308 1_555
O17 Si21 1.609673 1_555
O18 Si2 1.609308 1_555
O18 Si22 1.609673 1_555
O19 Si3 1.609308 1_555
O19 Si23 1.609673 1_555
O20 Si4 1.609308 1_555
O20 Si16 1.609673 1_555
O21 Si5 1.609308 1_555
O21 Si17 1.609673 1_555
O22 Si6 1.609308 1_555
O22 Si18 1.609673 1_555
O23 Si7 1.609308 1_555
O23 Si19 1.609673 1_555
O24 Si16 1.601487 1_545
O24 Si8 1.604422 1_655
O25 Si17 1.601487 1_565
O25 Si9 1.604422 1_655
O26 Si18 1.601487 1_545
O26 Si10 1.604422 1_555
O27 Si19 1.601487 1_565
O27 Si11 1.604422 1_555
O28 Si17 1.601487 1_565
O28 Si9 1.604422 1_555
O29 Si16 1.601487 1_545
O29 Si8 1.604422 1_555
O30 Si19 1.601487 1_565
O30 Si11 1.604422 1_655
O31 Si18 1.601487 1_545
O31 Si10 1.604422 1_655
O32 Si20 1.601487 1_555
O32 Si12 1.604422 1_555
O33 Si21 1.601487 1_555
O33 Si13 1.604422 1_555
O34 Si22 1.601487 1_655
O34 Si14 1.604422 1_555
O35 Si23 1.601487 1_655
O35 Si15 1.604422 1_555
O36 Si21 1.601487 1_655
O36 Si13 1.604422 1_555
O37 Si20 1.601487 1_655
O37 Si12 1.604422 1_555
O38 Si23 1.601487 1_555
O38 Si15 1.604422 1_555
O39 Si22 1.601487 1_555
O39 Si14 1.604422 1_555
O40 Si8 1.599228 1_555
O40 Si10 1.599228 1_555
O41 Si9 1.599228 1_555
O41 Si11 1.599228 1_555
O42 Si12 1.599228 1_555
O42 Si14 1.599228 1_555
O43 Si15 1.599228 1_555
O43 Si13 1.599228 1_555
O44 Si16 1.610495 1_545
O44 Si17 1.610495 1_554
O45 Si18 1.610495 1_545
O45 Si19 1.610495 1_555
O46 Si20 1.610495 1_555
O46 Si21 1.610495 1_554
O47 Si22 1.610495 1_555
O47 Si23 1.610495 1_555
