# generated using pymatgen
data_K8Ti5P2(O4F11)2
_symmetry_space_group_name_H-M   'P 1'
_cell_length_a   10.98433800
_cell_length_b   10.43544300
_cell_length_c   25.06839308
_cell_angle_alpha   81.66275776
_cell_angle_beta   90.00000000
_cell_angle_gamma   90.00000000
_symmetry_Int_Tables_number   1
_chemical_formula_structural   K8Ti5P2(O4F11)2
_chemical_formula_sum   'K32 Ti20 P8 O32 F88'
_cell_volume   2843.13260664
_cell_formula_units_Z   4
loop_
 _symmetry_equiv_pos_site_id
 _symmetry_equiv_pos_as_xyz
  1  'x, y, z'
loop_
 _atom_site_type_symbol
 _atom_site_label
 _atom_site_symmetry_multiplicity
 _atom_site_fract_x
 _atom_site_fract_y
 _atom_site_fract_z
 _atom_site_occupancy
  K  K0  1  0.41130200  0.70393600  0.30263300  1
  K  K1  1  0.55564600  0.15579100  0.30250800  1
  K  K2  1  0.91130200  0.79606400  0.19736700  1
  K  K3  1  0.24233400  0.70099200  0.14683800  1
  K  K4  1  0.22069100  0.54117500  0.72249300  1
  K  K5  1  0.57860100  0.78638300  0.50583200  1
  K  K6  1  0.92139900  0.28638300  0.00583200  1
  K  K7  1  0.19126700  0.27944900  0.35155800  1
  K  K8  1  0.94435400  0.65579100  0.80250800  1
  K  K9  1  0.29837600  0.38789800  0.05609600  1
  K  K10  1  0.25380200  0.56960400  0.44984100  1
  K  K11  1  0.27930900  0.04117500  0.22249300  1
  K  K12  1  0.75380200  0.93039600  0.05015900  1
  K  K13  1  0.44435400  0.84420900  0.69749200  1
  K  K14  1  0.30873300  0.77944900  0.85155800  1
  K  K15  1  0.69126700  0.22055100  0.14844200  1
  K  K16  1  0.79837600  0.11210200  0.44390400  1
  K  K17  1  0.20162400  0.88789800  0.55609600  1
  K  K18  1  0.74233400  0.79900800  0.35316200  1
  K  K19  1  0.07860100  0.71361700  0.99416800  1
  K  K20  1  0.70162400  0.61210200  0.94390400  1
  K  K21  1  0.58869800  0.29606400  0.69736700  1
  K  K22  1  0.72069100  0.95882500  0.77750700  1
  K  K23  1  0.42139900  0.21361700  0.49416800  1
  K  K24  1  0.75766600  0.29900800  0.85316200  1
  K  K25  1  0.24619800  0.06960400  0.94984100  1
  K  K26  1  0.77930900  0.45882500  0.27750700  1
  K  K27  1  0.25766600  0.20099200  0.64683800  1
  K  K28  1  0.08869800  0.20393600  0.80263300  1
  K  K29  1  0.80873300  0.72055100  0.64844200  1
  K  K30  1  0.05564600  0.34420900  0.19749200  1
  K  K31  1  0.74619800  0.43039600  0.55015900  1
  Ti  Ti0  1  0.92939100  0.74467300  0.49634700  1
  Ti  Ti1  1  0.57060900  0.24467300  0.99634700  1
  Ti  Ti2  1  0.57949000  0.88282800  0.18332700  1
  Ti  Ti3  1  0.88182000  0.95498300  0.90491900  1
  Ti  Ti4  1  0.38182000  0.54501700  0.59508100  1
  Ti  Ti5  1  0.42114500  0.40431400  0.19566300  1
  Ti  Ti6  1  0.87892100  0.54603200  0.10188300  1
  Ti  Ti7  1  0.11818000  0.04501700  0.09508100  1
  Ti  Ti8  1  0.07885500  0.90431400  0.69566300  1
  Ti  Ti9  1  0.62107900  0.04603200  0.60188300  1
  Ti  Ti10  1  0.42939100  0.75532700  0.00365300  1
  Ti  Ti11  1  0.92114500  0.09568600  0.30433700  1
  Ti  Ti12  1  0.42051000  0.11717200  0.81667300  1
  Ti  Ti13  1  0.37892100  0.95396800  0.39811700  1
  Ti  Ti14  1  0.57885500  0.59568600  0.80433700  1
  Ti  Ti15  1  0.12107900  0.45396800  0.89811700  1
  Ti  Ti16  1  0.07060900  0.25532700  0.50365300  1
  Ti  Ti17  1  0.61818000  0.45498300  0.40491900  1
  Ti  Ti18  1  0.07949000  0.61717200  0.31667300  1
  Ti  Ti19  1  0.92051000  0.38282800  0.68332700  1
  P  P0  1  0.58776900  0.62429100  0.11363300  1
  P  P1  1  0.91590000  0.48539800  0.42499000  1
  P  P2  1  0.41590000  0.01460200  0.07501000  1
  P  P3  1  0.08410000  0.51460200  0.57501000  1
  P  P4  1  0.41223100  0.37570900  0.88636700  1
  P  P5  1  0.58410000  0.98539800  0.92499000  1
  P  P6  1  0.08776900  0.87570900  0.38636700  1
  P  P7  1  0.91223100  0.12429100  0.61363300  1
  O  O0  1  0.10196700  0.40958100  0.53849500  1
  O  O1  1  0.44186400  0.14599600  0.03989100  1
  O  O2  1  0.38401200  0.27171300  0.84978700  1
  O  O3  1  0.48126500  0.53772600  0.13704300  1
  O  O4  1  0.20248100  0.95999100  0.39035500  1
  O  O5  1  0.98126500  0.96227400  0.36295700  1
  O  O6  1  0.89803300  0.59041900  0.46150500  1
  O  O7  1  0.29751900  0.45999100  0.89035500  1
  O  O8  1  0.70248100  0.54000900  0.10964500  1
  O  O9  1  0.51873500  0.46227400  0.86295700  1
  O  O10  1  0.79846100  0.47346000  0.39228300  1
  O  O11  1  0.20153900  0.52654000  0.60771700  1
  O  O12  1  0.55813600  0.85400400  0.96010900  1
  O  O13  1  0.70153900  0.97346000  0.89228300  1
  O  O14  1  0.79751900  0.04000900  0.60964500  1
  O  O15  1  0.05813600  0.64599600  0.53989100  1
  O  O16  1  0.94186400  0.35400400  0.46010900  1
  O  O17  1  0.11598800  0.77171300  0.34978700  1
  O  O18  1  0.52433900  0.97738300  0.11348600  1
  O  O19  1  0.88401200  0.22828700  0.65021300  1
  O  O20  1  0.29846100  0.02654000  0.10771700  1
  O  O21  1  0.61598800  0.72828700  0.15021300  1
  O  O22  1  0.55538100  0.69271300  0.05672800  1
  O  O23  1  0.02433900  0.52261700  0.38651400  1
  O  O24  1  0.39803300  0.90958100  0.03849500  1
  O  O25  1  0.44461900  0.30728700  0.94327200  1
  O  O26  1  0.60196700  0.09041900  0.96150500  1
  O  O27  1  0.05538100  0.80728700  0.44327200  1
  O  O28  1  0.47566100  0.02261700  0.88651400  1
  O  O29  1  0.01873500  0.03772600  0.63704300  1
  O  O30  1  0.94461900  0.19271300  0.55672800  1
  O  O31  1  0.97566100  0.47738300  0.61348600  1
  F  F0  1  0.63789100  0.79637200  0.24949600  1
  F  F1  1  0.85277600  0.22117700  0.24927900  1
  F  F2  1  0.73425100  0.95135400  0.16205600  1
  F  F3  1  0.89596900  0.08735000  0.84450800  1
  F  F4  1  0.19353300  0.16018200  0.54610200  1
  F  F5  1  0.56383300  0.72440800  0.84908000  1
  F  F6  1  0.19550000  0.31808800  0.45391600  1
  F  F7  1  0.87618200  0.08068700  0.95146600  1
  F  F8  1  0.12868400  0.45359600  0.97348500  1
  F  F9  1  0.37477200  0.67049800  0.64247300  1
  F  F10  1  0.87959600  0.72888900  0.09274800  1
  F  F11  1  0.54383100  0.38118400  0.03395300  1
  F  F12  1  0.35248600  0.67605900  0.53561600  1
  F  F13  1  0.04383100  0.11881600  0.46604700  1
  F  F14  1  0.69353300  0.33981800  0.95389800  1
  F  F15  1  0.08206700  0.13653300  0.27837300  1
  F  F16  1  0.06383300  0.77559200  0.65092000  1
  F  F17  1  0.64722400  0.72117700  0.74927900  1
  F  F18  1  0.60797500  0.04310800  0.67867100  1
  F  F19  1  0.62522800  0.32950200  0.35752700  1
  F  F20  1  0.76426200  0.05848800  0.33487200  1
  F  F21  1  0.60403100  0.58735000  0.34450800  1
  F  F22  1  0.23573800  0.94151200  0.66512900  1
  F  F23  1  0.11320500  0.63761000  0.88748600  1
  F  F24  1  0.37618200  0.41931300  0.54853400  1
  F  F25  1  0.86210900  0.29637200  0.74949600  1
  F  F26  1  0.62868400  0.04640400  0.52651500  1
  F  F27  1  0.13789100  0.70362800  0.25050400  1
  F  F28  1  0.73573800  0.55848800  0.83487100  1
  F  F29  1  0.85248600  0.82394100  0.96438400  1
  F  F30  1  0.94802100  0.44820900  0.90195700  1
  F  F31  1  0.91793300  0.86346700  0.72162700  1
  F  F32  1  0.45616900  0.61881600  0.96604700  1
  F  F33  1  0.39596900  0.41265000  0.65549200  1
  F  F34  1  0.08412100  0.32897300  0.69987300  1
  F  F35  1  0.10797500  0.45689200  0.82132900  1
  F  F36  1  0.37959600  0.77111100  0.40725200  1
  F  F37  1  0.12522800  0.17049800  0.14247300  1
  F  F38  1  0.41793300  0.63653300  0.77837300  1
  F  F39  1  0.14751400  0.17605900  0.03561600  1
  F  F40  1  0.59777400  0.46674600  0.76091100  1
  F  F41  1  0.44802100  0.05179100  0.59804300  1
  F  F42  1  0.89202500  0.54310800  0.17867100  1
  F  F43  1  0.80646700  0.83981800  0.45389800  1
  F  F44  1  0.69550000  0.18191200  0.04608400  1
  F  F45  1  0.58412100  0.17102700  0.80012700  1
  F  F46  1  0.91587900  0.67102700  0.30012700  1
  F  F47  1  0.76574900  0.45135400  0.66205600  1
  F  F48  1  0.12381800  0.91931300  0.04853400  1
  F  F49  1  0.37131600  0.95359600  0.47348500  1
  F  F50  1  0.23425100  0.54864600  0.33794400  1
  F  F51  1  0.05003800  0.93615100  0.91305400  1
  F  F52  1  0.12040400  0.27111100  0.90725200  1
  F  F53  1  0.80450000  0.68191200  0.54608400  1
  F  F54  1  0.09777400  0.03325400  0.73908900  1
  F  F55  1  0.95616900  0.88118400  0.53395300  1
  F  F56  1  0.93616700  0.22440800  0.34908000  1
  F  F57  1  0.58206700  0.36346700  0.22162700  1
  F  F58  1  0.64751400  0.32394100  0.46438400  1
  F  F59  1  0.45259700  0.96827800  0.78376900  1
  F  F60  1  0.05197900  0.55179100  0.09804300  1
  F  F61  1  0.55197900  0.94820900  0.40195700  1
  F  F62  1  0.26426200  0.44151200  0.16512800  1
  F  F63  1  0.61320500  0.86239000  0.61251400  1
  F  F64  1  0.40222600  0.53325400  0.23908900  1
  F  F65  1  0.30646700  0.66018200  0.04610200  1
  F  F66  1  0.87477200  0.82950200  0.85752700  1
  F  F67  1  0.38679500  0.13761000  0.38748600  1
  F  F68  1  0.14722400  0.77882300  0.75072100  1
  F  F69  1  0.26574900  0.04864600  0.83794400  1
  F  F70  1  0.44996200  0.43615100  0.41305400  1
  F  F71  1  0.94996200  0.06384900  0.08694600  1
  F  F72  1  0.95259700  0.53172200  0.71623100  1
  F  F73  1  0.87131600  0.54640400  0.02651500  1
  F  F74  1  0.30450000  0.81808800  0.95391600  1
  F  F75  1  0.62040400  0.22888900  0.59274800  1
  F  F76  1  0.10403100  0.91265000  0.15549200  1
  F  F77  1  0.35277600  0.27882300  0.25072100  1
  F  F78  1  0.55003800  0.56384900  0.58694600  1
  F  F79  1  0.43616700  0.27559200  0.15092000  1
  F  F80  1  0.04740300  0.46827800  0.28376900  1
  F  F81  1  0.54740300  0.03172200  0.21623100  1
  F  F82  1  0.36210900  0.20362800  0.75050400  1
  F  F83  1  0.90222600  0.96674600  0.26091100  1
  F  F84  1  0.62381800  0.58068700  0.45146600  1
  F  F85  1  0.39202500  0.95689200  0.32132900  1
  F  F86  1  0.88679500  0.36239000  0.11251400  1
  F  F87  1  0.41587900  0.82897300  0.19987300  1
loop_
_geom_bond_atom_site_label_1
_geom_bond_atom_site_label_2
_geom_bond_distance
_geom_bond_site_symmetry_2
K4 O11 2.910941 1_555
K9 O1 3.052693 1_555
K11 O20 2.910941 1_555
K16 O16 3.052693 1_555
K17 O15 3.052693 1_555
K20 O12 3.052693 1_555
K22 O13 2.910941 1_555
K26 O10 2.910941 1_555
O0 P3 1.538972 1_555
O0 Ti16 1.969879 1_555
O1 P2 1.544797 1_555
O1 Ti1 1.981372 1_554
O2 P4 1.550266 1_555
O2 Ti12 1.959301 1_555
O3 P0 1.541200 1_555
O3 Ti5 1.985073 1_555
O4 P6 1.548140 1_555
O4 Ti13 1.947924 1_555
O5 P6 1.541200 1_655
O5 Ti11 1.985073 1_565
O6 P1 1.538972 1_555
O6 Ti0 1.969879 1_555
O7 P4 1.548140 1_555
O7 Ti15 1.947924 1_555
O8 P0 1.548140 1_555
O8 Ti6 1.947924 1_555
O9 P4 1.541200 1_555
O9 Ti14 1.985073 1_555
O10 P1 1.543201 1_555
O10 Ti17 2.010290 1_555
O11 P3 1.543201 1_555
O11 Ti4 2.010290 1_555
O12 P5 1.544797 1_555
O12 Ti10 1.981372 1_556
O13 P5 1.543201 1_555
O13 Ti3 2.010290 1_555
O14 P7 1.548140 1_555
O14 Ti9 1.947924 1_555
O15 P3 1.544797 1_555
O15 Ti0 1.981372 1_455
O16 P1 1.544797 1_555
O16 Ti16 1.981372 1_655
O17 P6 1.550266 1_555
O17 Ti18 1.959301 1_555
O18 P2 1.546391 1_565
O18 Ti2 1.976090 1_555
O19 P7 1.550266 1_555
O19 Ti19 1.959301 1_555
O20 P2 1.543201 1_555
O20 Ti7 2.010290 1_555
O21 P0 1.550266 1_555
O21 Ti2 1.959301 1_555
O22 P0 1.541413 1_555
O22 Ti10 1.964763 1_555
O23 P1 1.546391 1_455
O23 Ti18 1.976090 1_555
O24 P2 1.538972 1_565
O24 Ti10 1.969879 1_555
O25 P4 1.541413 1_555
O25 Ti1 1.964763 1_555
O26 P5 1.538972 1_545
O26 Ti1 1.969879 1_555
O27 P6 1.541413 1_555
O27 Ti0 1.964763 1_455
O28 P5 1.546391 1_545
O28 Ti12 1.976090 1_555
O29 P7 1.541200 1_455
O29 Ti8 1.985073 1_545
O30 P7 1.541413 1_555
O30 Ti16 1.964763 1_655
O31 P3 1.546391 1_655
O31 Ti19 1.976090 1_555
F0 Ti2 1.882274 1_555
F0 K18 2.844484 1_555
F0 K0 2.920103 1_555
F1 Ti11 1.913047 1_555
F1 K26 2.794834 1_555
F1 K30 2.795733 1_655
F1 K15 3.089019 1_555
F2 Ti2 1.890751 1_555
F2 K2 2.603047 1_555
F2 K15 2.820092 1_565
F2 K12 2.853125 1_555
F3 Ti3 1.902356 1_545
F3 K28 2.587171 1_655
F3 K24 2.715225 1_555
F3 K22 2.996674 1_545
F4 Ti16 1.906548 1_555
F4 K27 2.714147 1_555
F4 K17 2.817411 1_545
F4 K23 2.839041 1_555
F5 Ti14 1.877924 1_555
F5 K14 2.862849 1_555
F5 K20 2.916667 1_555
F6 Ti16 1.904906 1_555
F6 K7 2.654974 1_555
F6 K10 2.689192 1_555
F6 K23 2.836337 1_555
F7 Ti3 1.878840 1_545
F7 K6 2.749556 1_556
F8 Ti15 1.890642 1_555
F8 K9 2.796667 1_556
F8 K19 2.888286 1_555
F8 K6 2.911400 1_456
F9 Ti4 1.892945 1_555
F9 K13 2.549038 1_555
F9 K4 2.815067 1_555
F10 Ti6 1.888644 1_555
F10 K12 2.611492 1_555
F10 K2 2.832673 1_555
F11 Ti1 1.842294 1_554
F11 K9 2.755648 1_555
F12 Ti4 1.898639 1_555
F12 K10 2.779457 1_555
F12 K5 2.793298 1_555
F12 K17 2.868041 1_555
F13 Ti16 1.842294 1_555
F13 K16 2.755648 1_455
F14 Ti1 1.906548 1_555
F14 K24 2.714147 1_555
F14 K20 2.817411 1_555
F14 K6 2.839041 1_556
F15 Ti11 1.910331 1_455
F15 K30 2.760008 1_555
F15 K7 2.796851 1_555
F15 K11 2.837396 1_555
F16 Ti8 1.877924 1_555
F16 K29 2.862849 1_455
F16 K17 2.916667 1_555
F17 Ti14 1.913047 1_555
F17 K22 2.794834 1_555
F17 K13 2.795733 1_555
F17 K29 3.089019 1_555
F18 Ti9 1.926150 1_555
F18 K13 2.734392 1_545
F18 K21 2.755237 1_555
F18 K22 2.795234 1_545
F19 Ti17 1.892945 1_555
F19 K1 2.549038 1_555
F19 K26 2.815067 1_555
F20 Ti11 1.902645 1_555
F20 K1 2.588701 1_555
F20 K18 2.690784 1_545
F20 K16 2.892681 1_555
F21 Ti17 1.902356 1_555
F21 K0 2.587171 1_555
F21 K18 2.715225 1_555
F21 K26 2.996674 1_555
F22 Ti8 1.902636 1_555
F22 K13 2.588695 1_555
F22 K27 2.690785 1_565
F22 K17 2.892706 1_555
F23 Ti15 1.898138 1_555
F23 K14 2.688540 1_555
F23 K8 2.810120 1_455
F23 K19 2.922476 1_555
F24 Ti4 1.878840 1_555
F24 K23 2.749556 1_555
F25 Ti19 1.882274 1_555
F25 K24 2.844484 1_555
F25 K28 2.920103 1_655
F26 Ti9 1.890642 1_555
F26 K16 2.796667 1_555
F26 K5 2.888286 1_545
F26 K23 2.911400 1_555
F27 Ti18 1.882274 1_555
F27 K3 2.844484 1_555
F27 K2 2.920103 1_455
F28 Ti14 1.902636 1_555
F28 K8 2.588695 1_555
F28 K24 2.690785 1_555
F28 K20 2.892706 1_555
F29 Ti3 1.898639 1_555
F29 K12 2.779457 1_556
F29 K19 2.793298 1_655
F29 K20 2.868041 1_555
F30 Ti15 1.903871 1_655
F30 K6 2.905645 1_556
F30 K24 2.974004 1_555
F30 K8 3.056658 1_555
F31 Ti8 1.910331 1_655
F31 K8 2.760008 1_555
F31 K29 2.796851 1_555
F31 K22 2.837396 1_555
F32 Ti10 1.842294 1_556
F32 K20 2.755648 1_555
F33 Ti4 1.902356 1_555
F33 K21 2.587171 1_555
F33 K27 2.715225 1_555
F33 K4 2.996674 1_555
F34 Ti19 1.910515 1_455
F34 K28 2.714081 1_555
F34 K27 2.774897 1_555
F34 K4 2.799955 1_555
F35 Ti15 1.926150 1_555
F35 K8 2.734392 1_455
F35 K28 2.755237 1_555
F35 K4 2.795234 1_555
F36 Ti13 1.888644 1_555
F36 K10 2.611492 1_555
F36 K0 2.832673 1_555
F37 Ti7 1.892945 1_555
F37 K30 2.549038 1_555
F37 K11 2.815067 1_555
F38 Ti14 1.910331 1_555
F38 K13 2.760008 1_555
F38 K14 2.796851 1_555
F38 K4 2.837396 1_555
F39 Ti7 1.898639 1_555
F39 K25 2.779457 1_554
F39 K6 2.793298 1_455
F39 K9 2.868041 1_555
F40 Ti14 1.861064 1_555
F40 K21 2.557868 1_555
F41 Ti9 1.903871 1_555
F41 K23 2.905645 1_555
F41 K27 2.974004 1_555
F41 K13 3.056658 1_545
F42 Ti6 1.926150 1_555
F42 K30 2.734392 1_655
F42 K2 2.755237 1_555
F42 K26 2.795234 1_555
F43 Ti0 1.906548 1_555
F43 K18 2.714147 1_555
F43 K16 2.817411 1_565
F43 K5 2.839041 1_555
F44 Ti1 1.904906 1_554
F44 K15 2.654974 1_555
F44 K12 2.689192 1_545
F44 K6 2.836337 1_555
F45 Ti12 1.910515 1_555
F45 K21 2.714081 1_555
F45 K24 2.774897 1_555
F45 K22 2.799955 1_545
F46 Ti18 1.910515 1_655
F46 K2 2.714081 1_555
F46 K18 2.774897 1_555
F46 K26 2.799955 1_555
F47 Ti19 1.890751 1_555
F47 K21 2.603047 1_555
F47 K29 2.820092 1_555
F47 K31 2.853125 1_555
F48 Ti7 1.878840 1_565
F48 K19 2.749556 1_554
F49 Ti13 1.890642 1_555
F49 K17 2.796667 1_555
F49 K23 2.888286 1_565
F49 K5 2.911400 1_555
F50 Ti18 1.890751 1_555
F50 K0 2.603047 1_555
F50 K7 2.820092 1_555
F50 K10 2.853125 1_555
F51 Ti3 1.866230 1_455
F51 K25 2.793744 1_565
F51 K19 2.873423 1_555
F52 Ti15 1.888644 1_555
F52 K25 2.611492 1_555
F52 K28 2.832673 1_555
F53 Ti0 1.904906 1_555
F53 K29 2.654974 1_555
F53 K31 2.689192 1_555
F53 K5 2.836337 1_555
F54 Ti8 1.861064 1_545
F54 K28 2.557868 1_555
F55 Ti0 1.842294 1_555
F55 K17 2.755648 1_655
F56 Ti11 1.877924 1_555
F56 K7 2.862849 1_655
F56 K16 2.916667 1_555
F57 Ti5 1.910331 1_555
F57 K1 2.760008 1_555
F57 K15 2.796851 1_555
F57 K26 2.837396 1_555
F58 Ti17 1.898639 1_555
F58 K31 2.779457 1_555
F58 K23 2.793298 1_555
F58 K16 2.868041 1_555
F59 Ti12 1.894859 1_565
F59 K13 2.678501 1_555
F59 K14 2.880426 1_555
F59 K22 2.951426 1_555
F60 Ti6 1.903871 1_455
F60 K19 2.905645 1_554
F60 K3 2.974004 1_555
F60 K30 3.056658 1_555
F61 Ti13 1.903871 1_555
F61 K5 2.905645 1_555
F61 K18 2.974004 1_555
F61 K1 3.056658 1_565
F62 Ti5 1.902645 1_555
F62 K30 2.588701 1_555
F62 K3 2.690784 1_555
F62 K9 2.892681 1_555
F63 Ti9 1.898138 1_565
F63 K29 2.688540 1_555
F63 K13 2.810120 1_555
F63 K5 2.922476 1_555
F64 Ti5 1.861064 1_555
F64 K0 2.557868 1_555
F65 Ti10 1.906548 1_555
F65 K3 2.714147 1_555
F65 K9 2.817411 1_555
F65 K19 2.839041 1_554
F66 Ti3 1.892945 1_555
F66 K8 2.549038 1_555
F66 K22 2.815067 1_555
F67 Ti13 1.898138 1_545
F67 K7 2.688540 1_555
F67 K1 2.810120 1_555
F67 K23 2.922476 1_555
F68 Ti8 1.913047 1_555
F68 K4 2.794834 1_555
F68 K8 2.795733 1_455
F68 K14 3.089019 1_555
F69 Ti12 1.890751 1_555
F69 K28 2.603047 1_555
F69 K14 2.820092 1_545
F69 K25 2.853125 1_555
F70 Ti17 1.866230 1_555
F70 K10 2.793744 1_555
F70 K23 2.873423 1_555
F71 Ti7 1.866230 1_655
F71 K12 2.793744 1_545
F71 K6 2.873423 1_555
F72 Ti19 1.894859 1_555
F72 K8 2.678501 1_555
F72 K29 2.880426 1_555
F72 K4 2.951426 1_655
F73 Ti6 1.890642 1_555
F73 K20 2.796667 1_554
F73 K6 2.888286 1_555
F73 K19 2.911400 1_654
F74 Ti10 1.904906 1_556
F74 K14 2.654974 1_555
F74 K25 2.689192 1_565
F74 K19 2.836337 1_555
F75 Ti9 1.888644 1_555
F75 K31 2.611492 1_555
F75 K21 2.832673 1_555
F76 Ti7 1.902356 1_565
F76 K2 2.587171 1_455
F76 K3 2.715225 1_555
F76 K11 2.996674 1_565
F77 Ti5 1.913047 1_555
F77 K11 2.794834 1_555
F77 K1 2.795733 1_555
F77 K7 3.089019 1_555
F78 Ti4 1.866230 1_555
F78 K31 2.793744 1_555
F78 K5 2.873423 1_555
F79 Ti5 1.877924 1_555
F79 K15 2.862849 1_555
F79 K9 2.916667 1_555
F80 Ti18 1.894859 1_555
F80 K30 2.678501 1_555
F80 K7 2.880426 1_555
F80 K26 2.951426 1_455
F81 Ti2 1.894859 1_545
F81 K1 2.678501 1_555
F81 K15 2.880426 1_555
F81 K11 2.951426 1_555
F82 Ti12 1.882274 1_555
F82 K27 2.844484 1_555
F82 K21 2.920103 1_555
F83 Ti11 1.861064 1_565
F83 K2 2.557868 1_555
F84 Ti17 1.878840 1_555
F84 K5 2.749556 1_555
F85 Ti13 1.926150 1_555
F85 K1 2.734392 1_565
F85 K0 2.755237 1_555
F85 K11 2.795234 1_565
F86 Ti6 1.898138 1_555
F86 K15 2.688540 1_555
F86 K30 2.810120 1_655
F86 K6 2.922476 1_555
F87 Ti2 1.910515 1_555
F87 K0 2.714081 1_555
F87 K3 2.774897 1_555
F87 K11 2.799955 1_565
