# generated using pymatgen
data_Sr11Al4In3
_symmetry_space_group_name_H-M   'P 1'
_cell_length_a   12.42980726
_cell_length_b   12.42980726
_cell_length_c   12.42980726
_cell_angle_alpha   60.00000000
_cell_angle_beta   60.00000000
_cell_angle_gamma   60.00000000
_symmetry_Int_Tables_number   1
_chemical_formula_structural   Sr11Al4In3
_chemical_formula_sum   'Sr22 Al8 In6'
_cell_volume   1357.93250757
_cell_formula_units_Z   2
loop_
 _symmetry_equiv_pos_site_id
 _symmetry_equiv_pos_as_xyz
  1  'x, y, z'
loop_
 _atom_site_type_symbol
 _atom_site_label
 _atom_site_symmetry_multiplicity
 _atom_site_fract_x
 _atom_site_fract_y
 _atom_site_fract_z
 _atom_site_occupancy
  Sr  Sr0  1  0.60658700  0.13113800  0.13113800  1
  Sr  Sr1  1  0.86886200  0.86886200  0.39341300  1
  Sr  Sr2  1  0.13113800  0.13113800  0.13113800  1
  Sr  Sr3  1  0.86886200  0.39341300  0.86886200  1
  Sr  Sr4  1  0.86886200  0.86886200  0.86886200  1
  Sr  Sr5  1  0.16418800  0.83581200  0.50000000  1
  Sr  Sr6  1  0.83581200  0.50000000  0.50000000  1
  Sr  Sr7  1  0.83581200  0.16418800  0.50000000  1
  Sr  Sr8  1  0.13113800  0.60658700  0.13113800  1
  Sr  Sr9  1  0.16418800  0.50000000  0.83581200  1
  Sr  Sr10  1  0.50000000  0.16418800  0.83581200  1
  Sr  Sr11  1  0.13113800  0.13113800  0.60658700  1
  Sr  Sr12  1  0.00000000  0.00000000  0.00000000  1
  Sr  Sr13  1  0.16418800  0.50000000  0.50000000  1
  Sr  Sr14  1  0.39341300  0.86886200  0.86886200  1
  Sr  Sr15  1  0.83581200  0.50000000  0.16418800  1
  Sr  Sr16  1  0.50000000  0.83581200  0.16418800  1
  Sr  Sr17  1  0.50000000  0.83581200  0.50000000  1
  Sr  Sr18  1  0.50000000  0.50000000  0.16418800  1
  Sr  Sr19  1  0.50000000  0.50000000  0.50000000  1
  Sr  Sr20  1  0.50000000  0.50000000  0.83581200  1
  Sr  Sr21  1  0.50000000  0.16418800  0.50000000  1
  Al  Al0  1  0.91567400  0.69477500  0.69477500  1
  Al  Al1  1  0.30522500  0.30522500  0.30522500  1
  Al  Al2  1  0.69477500  0.69477500  0.69477500  1
  Al  Al3  1  0.69477500  0.91567400  0.69477500  1
  Al  Al4  1  0.69477500  0.69477500  0.91567400  1
  Al  Al5  1  0.30522500  0.08432600  0.30522500  1
  Al  Al6  1  0.30522500  0.30522500  0.08432600  1
  Al  Al7  1  0.08432600  0.30522500  0.30522500  1
  In  In0  1  0.78169200  0.21830800  0.78169200  1
  In  In1  1  0.78169200  0.21830800  0.21830800  1
  In  In2  1  0.78169200  0.78169200  0.21830800  1
  In  In3  1  0.21830800  0.78169200  0.78169200  1
  In  In4  1  0.21830800  0.78169200  0.21830800  1
  In  In5  1  0.21830800  0.21830800  0.78169200  1
loop_
_geom_bond_atom_site_label_1
_geom_bond_atom_site_label_2
_geom_bond_distance
_geom_bond_site_symmetry_2
Sr10 Sr19 4.174078 1_555
Sr13 Sr19 4.174078 1_555
Sr15 Sr19 4.174078 1_555
Sr16 Sr19 4.174078 1_555
Sr17 Sr19 4.174078 1_555
Sr18 Sr19 4.174078 1_555
Sr19 Sr20 4.174078 1_555
Sr19 Sr7 4.174078 1_555
Sr19 Sr9 4.174078 1_555
Sr19 Sr5 4.174078 1_555
Sr19 Sr21 4.174078 1_555
Sr19 Sr6 4.174078 1_555
Al0 Al2 2.745732 1_555
Al0 Al3 2.745732 1_555
Al0 Al4 2.745732 1_555
Al0 Sr3 3.444907 1_555
Al0 Sr4 3.444907 1_555
Al0 Sr1 3.444907 1_555
Al0 Sr13 3.488382 1_655
Al0 Sr5 3.488390 1_655
Al0 Sr9 3.488390 1_655
Al1 Al7 2.745732 1_555
Al1 Al6 2.745732 1_555
Al1 Al5 2.745732 1_555
Al1 Sr8 3.444907 1_555
Al1 Sr11 3.444907 1_555
Al1 Sr0 3.444907 1_555
Al1 Sr21 3.488380 1_555
Al1 Sr13 3.488380 1_555
Al1 Sr18 3.488380 1_555
Al2 Al3 2.745732 1_555
Al2 Al4 2.745732 1_555
Al2 Sr14 3.444907 1_555
Al2 Sr3 3.444907 1_555
Al2 Sr1 3.444907 1_555
Al2 Sr6 3.488380 1_555
Al2 Sr17 3.488380 1_555
Al2 Sr20 3.488380 1_555
Al3 Al4 2.745732 1_555
Al3 Sr14 3.444907 1_555
Al3 Sr4 3.444907 1_555
Al3 Sr1 3.444907 1_555
Al3 Sr21 3.488382 1_565
Al3 Sr7 3.488390 1_565
Al3 Sr10 3.488390 1_565
Al4 Sr14 3.444907 1_555
Al4 Sr3 3.444907 1_555
Al4 Sr4 3.444907 1_555
Al4 Sr18 3.488382 1_556
Al4 Sr16 3.488390 1_556
Al4 Sr15 3.488390 1_556
Al5 Al7 2.745732 1_555
Al5 Al6 2.745732 1_555
Al5 Sr11 3.444907 1_555
Al5 Sr0 3.444907 1_555
Al5 Sr2 3.444907 1_555
Al5 Sr17 3.488382 1_545
Al5 Sr16 3.488390 1_545
Al5 Sr5 3.488390 1_545
Al6 Al7 2.745732 1_555
Al6 Sr8 3.444907 1_555
Al6 Sr0 3.444907 1_555
Al6 Sr2 3.444907 1_555
Al6 Sr20 3.488382 1_554
Al6 Sr9 3.488390 1_554
Al6 Sr10 3.488390 1_554
Al7 Sr8 3.444907 1_555
Al7 Sr11 3.444907 1_555
Al7 Sr2 3.444907 1_555
Al7 Sr6 3.488382 1_455
Al7 Sr15 3.488390 1_455
Al7 Sr7 3.488390 1_455
In0 Sr6 3.565413 1_555
In0 Sr7 3.565413 1_555
In0 Sr20 3.565413 1_555
In0 Sr10 3.565413 1_555
In0 Sr3 3.602187 1_555
In0 Sr0 3.602197 1_556
In0 Sr11 3.602197 1_655
In0 Sr4 3.602198 1_545
In0 Sr12 3.837506 1_656
In1 Sr7 3.565413 1_555
In1 Sr15 3.565413 1_555
In1 Sr18 3.565413 1_555
In1 Sr21 3.565413 1_555
In1 Sr0 3.602187 1_555
In1 Sr3 3.602197 1_554
In1 Sr1 3.602197 1_545
In1 Sr2 3.602198 1_655
In1 Sr12 3.837506 1_655
In2 Sr6 3.565413 1_555
In2 Sr17 3.565413 1_555
In2 Sr16 3.565413 1_555
In2 Sr15 3.565413 1_555
In2 Sr1 3.602187 1_555
In2 Sr0 3.602197 1_565
In2 Sr8 3.602197 1_655
In2 Sr4 3.602198 1_554
In2 Sr12 3.837506 1_665
In3 Sr20 3.565413 1_555
In3 Sr17 3.565413 1_555
In3 Sr5 3.565413 1_555
In3 Sr9 3.565413 1_555
In3 Sr14 3.602187 1_555
In3 Sr8 3.602197 1_556
In3 Sr11 3.602197 1_565
In3 Sr4 3.602198 1_455
In3 Sr12 3.837506 1_566
In4 Sr16 3.565413 1_555
In4 Sr5 3.565413 1_555
In4 Sr13 3.565413 1_555
In4 Sr18 3.565413 1_555
In4 Sr8 3.602187 1_555
In4 Sr1 3.602197 1_455
In4 Sr14 3.602197 1_554
In4 Sr2 3.602198 1_565
In4 Sr12 3.837506 1_565
In5 Sr21 3.565413 1_555
In5 Sr9 3.565413 1_555
In5 Sr13 3.565413 1_555
In5 Sr10 3.565413 1_555
In5 Sr11 3.602187 1_555
In5 Sr14 3.602197 1_545
In5 Sr3 3.602197 1_455
In5 Sr2 3.602198 1_556
In5 Sr12 3.837506 1_556
