# generated using pymatgen
data_GdH6C6Cl3(O3F2)3
_symmetry_space_group_name_H-M   'P 1'
_cell_length_a   19.83865300
_cell_length_b   9.51937400
_cell_length_c   10.56319725
_cell_angle_alpha   66.04386043
_cell_angle_beta   90.00000000
_cell_angle_gamma   90.00000000
_symmetry_Int_Tables_number   1
_chemical_formula_structural   GdH6C6Cl3(O3F2)3
_chemical_formula_sum   'Gd4 H24 C24 Cl12 O36 F24'
_cell_volume   1823.03073149
_cell_formula_units_Z   4
loop_
 _symmetry_equiv_pos_site_id
 _symmetry_equiv_pos_as_xyz
  1  'x, y, z'
loop_
 _atom_site_type_symbol
 _atom_site_label
 _atom_site_symmetry_multiplicity
 _atom_site_fract_x
 _atom_site_fract_y
 _atom_site_fract_z
 _atom_site_occupancy
  Gd  Gd0  1  0.56967600  0.69731600  0.47860600  1
  Gd  Gd1  1  0.93032400  0.69731600  0.97860600  1
  Gd  Gd2  1  0.43032400  0.30268400  0.52139400  1
  Gd  Gd3  1  0.06967600  0.30268400  0.02139400  1
  H  H0  1  0.48947100  0.00487800  0.32978600  1
  H  H1  1  0.78098900  0.57421000  0.98420400  1
  H  H2  1  0.06324300  0.97965100  0.22756800  1
  H  H3  1  0.71462300  0.67712800  0.57443000  1
  H  H4  1  0.88885500  0.86311200  0.66685100  1
  H  H5  1  0.11114500  0.13688800  0.33314900  1
  H  H6  1  0.71901100  0.57421000  0.48420400  1
  H  H7  1  0.67730600  0.88486900  0.23926000  1
  H  H8  1  0.21901100  0.42579000  0.01579600  1
  H  H9  1  0.17730600  0.11513100  0.26074000  1
  H  H10  1  0.78537700  0.67712800  0.07443000  1
  H  H11  1  0.21462300  0.32287200  0.92557000  1
  H  H12  1  0.93675700  0.02034900  0.77243200  1
  H  H13  1  0.51052900  0.99512200  0.67021400  1
  H  H14  1  0.28098900  0.42579000  0.51579600  1
  H  H15  1  0.01052900  0.00487800  0.82978600  1
  H  H16  1  0.56324300  0.02034900  0.27243200  1
  H  H17  1  0.32269400  0.11513100  0.76074000  1
  H  H18  1  0.82269400  0.88486900  0.73926000  1
  H  H19  1  0.98947100  0.99512200  0.17021400  1
  H  H20  1  0.28537700  0.32287200  0.42557000  1
  H  H21  1  0.43675700  0.97965100  0.72756800  1
  H  H22  1  0.38885500  0.13688800  0.83314900  1
  H  H23  1  0.61114500  0.86311200  0.16685100  1
  C  C0  1  0.54057400  0.35233800  0.75943800  1
  C  C1  1  0.33022400  0.16031800  0.33148600  1
  C  C2  1  0.65074500  0.33291000  0.33930200  1
  C  C3  1  0.93937500  0.26898800  0.41634700  1
  C  C4  1  0.43937500  0.73101200  0.08365300  1
  C  C5  1  0.06062500  0.73101200  0.58365300  1
  C  C6  1  0.58377700  0.35920700  0.40529000  1
  C  C7  1  0.41622300  0.64079300  0.59471000  1
  C  C8  1  0.08377700  0.64079300  0.09471000  1
  C  C9  1  0.33636700  0.06404500  0.24195100  1
  C  C10  1  0.34925500  0.66709000  0.66069800  1
  C  C11  1  0.95942600  0.35233800  0.25943800  1
  C  C12  1  0.15074500  0.66709000  0.16069800  1
  C  C13  1  0.45942600  0.64766200  0.24056200  1
  C  C14  1  0.66363300  0.93595500  0.75804900  1
  C  C15  1  0.83022400  0.83968200  0.16851400  1
  C  C16  1  0.16363300  0.06404500  0.74195100  1
  C  C17  1  0.91622300  0.35920700  0.90529000  1
  C  C18  1  0.66977600  0.83968200  0.66851400  1
  C  C19  1  0.04057400  0.64766200  0.74056200  1
  C  C20  1  0.84925500  0.33291000  0.83930200  1
  C  C21  1  0.16977600  0.16031800  0.83148600  1
  C  C22  1  0.56062500  0.26898800  0.91634700  1
  C  C23  1  0.83636700  0.93595500  0.25804900  1
  Cl  Cl0  1  0.65516600  0.46717900  0.16393700  1
  Cl  Cl1  1  0.15016500  0.18992800  0.56524700  1
  Cl  Cl2  1  0.64908700  0.26235800  0.93998400  1
  Cl  Cl3  1  0.84483400  0.46717900  0.66393700  1
  Cl  Cl4  1  0.14908700  0.73764200  0.56001600  1
  Cl  Cl5  1  0.35091300  0.73764200  0.06001600  1
  Cl  Cl6  1  0.15516600  0.53282100  0.33606300  1
  Cl  Cl7  1  0.85091300  0.26235800  0.43998400  1
  Cl  Cl8  1  0.34483400  0.53282100  0.83606300  1
  Cl  Cl9  1  0.34983500  0.18992800  0.06524700  1
  Cl  Cl10  1  0.65016500  0.81007200  0.93475300  1
  Cl  Cl11  1  0.84983500  0.81007200  0.43475300  1
  O  O0  1  0.03718000  0.73638100  0.07415700  1
  O  O1  1  0.00534700  0.72544500  0.78772600  1
  O  O2  1  0.91649400  0.47911200  0.92901300  1
  O  O3  1  0.03592600  0.02747800  0.14428100  1
  O  O4  1  0.31107800  0.36791600  0.48215100  1
  O  O5  1  0.88425000  0.82888300  0.10847300  1
  O  O6  1  0.58350600  0.47911200  0.42901300  1
  O  O7  1  0.06128000  0.51130500  0.79994900  1
  O  O8  1  0.49465300  0.72544500  0.28772600  1
  O  O9  1  0.11575000  0.17111700  0.89152700  1
  O  O10  1  0.46407400  0.02747800  0.64428100  1
  O  O11  1  0.63088800  0.84729900  0.25608100  1
  O  O12  1  0.18892200  0.36791600  0.98215100  1
  O  O13  1  0.99465300  0.27455500  0.21227400  1
  O  O14  1  0.72660400  0.78267000  0.66887300  1
  O  O15  1  0.93872000  0.48869500  0.20005100  1
  O  O16  1  0.43872000  0.51130500  0.29994900  1
  O  O17  1  0.77339600  0.78267000  0.16887300  1
  O  O18  1  0.36911200  0.15270100  0.74391900  1
  O  O19  1  0.27339600  0.21733000  0.33112700  1
  O  O20  1  0.56128000  0.48869500  0.70005100  1
  O  O21  1  0.22660400  0.21733000  0.83112700  1
  O  O22  1  0.46282000  0.73638100  0.57415700  1
  O  O23  1  0.81107800  0.63208400  0.01784900  1
  O  O24  1  0.08350600  0.52088800  0.07098700  1
  O  O25  1  0.96407400  0.97252200  0.85571900  1
  O  O26  1  0.50534700  0.27455500  0.71227400  1
  O  O27  1  0.61575000  0.82888300  0.60847300  1
  O  O28  1  0.96282000  0.26361900  0.92584300  1
  O  O29  1  0.13088800  0.15270100  0.24391900  1
  O  O30  1  0.41649400  0.52088800  0.57098700  1
  O  O31  1  0.86911200  0.84729900  0.75608100  1
  O  O32  1  0.38425000  0.17111700  0.39152700  1
  O  O33  1  0.53592600  0.97252200  0.35571900  1
  O  O34  1  0.68892200  0.63208400  0.51784900  1
  O  O35  1  0.53718000  0.26361900  0.42584300  1
  F  F0  1  0.96901000  0.34408900  0.48860300  1
  F  F1  1  0.29484200  0.64539600  0.58984600  1
  F  F2  1  0.46278400  0.87911500  0.02534100  1
  F  F3  1  0.88839200  0.03901000  0.21688000  1
  F  F4  1  0.20515800  0.64539600  0.08984600  1
  F  F5  1  0.77888000  0.01962600  0.24852800  1
  F  F6  1  0.53721600  0.12088500  0.97465900  1
  F  F7  1  0.70515800  0.35460400  0.41015400  1
  F  F8  1  0.03721600  0.87911500  0.52534100  1
  F  F9  1  0.65667000  0.18848900  0.34389300  1
  F  F10  1  0.61160800  0.03901000  0.71688000  1
  F  F11  1  0.22112000  0.98037400  0.75147200  1
  F  F12  1  0.11160800  0.96099000  0.78312000  1
  F  F13  1  0.34333000  0.81151100  0.65610700  1
  F  F14  1  0.27888000  0.98037400  0.25147200  1
  F  F15  1  0.03099000  0.65591100  0.51139700  1
  F  F16  1  0.84333000  0.18848900  0.84389300  1
  F  F17  1  0.53099000  0.34408900  0.98860300  1
  F  F18  1  0.79484200  0.35460400  0.91015400  1
  F  F19  1  0.72112000  0.01962600  0.74852800  1
  F  F20  1  0.15667000  0.81151100  0.15610700  1
  F  F21  1  0.96278400  0.12088500  0.47465900  1
  F  F22  1  0.46901000  0.65591100  0.01139700  1
  F  F23  1  0.38839200  0.96099000  0.28312000  1
loop_
_geom_bond_atom_site_label_1
_geom_bond_atom_site_label_2
_geom_bond_distance
_geom_bond_site_symmetry_2
Gd0 O6 2.355415 1_555
Gd0 O20 2.381378 1_555
Gd0 O27 2.383520 1_555
Gd0 O8 2.431859 1_555
Gd0 O34 2.438205 1_555
Gd0 O22 2.440434 1_555
Gd0 O33 2.496996 1_555
Gd0 O11 2.512568 1_555
Gd1 O2 2.355415 1_555
Gd1 O15 2.381378 1_556
Gd1 O5 2.383520 1_556
Gd1 O1 2.431859 1_655
Gd1 O23 2.438205 1_556
Gd1 O0 2.440434 1_656
Gd1 O25 2.496996 1_555
Gd1 O31 2.512568 1_555
Gd2 O30 2.355415 1_555
Gd2 O16 2.381378 1_555
Gd2 O32 2.383520 1_555
Gd2 O26 2.431859 1_555
Gd2 O4 2.438205 1_555
Gd2 O35 2.440434 1_555
Gd2 O10 2.496996 1_555
Gd2 O18 2.512568 1_555
Gd3 O24 2.355415 1_555
Gd3 O7 2.381378 1_554
Gd3 O9 2.383520 1_554
Gd3 O13 2.431859 1_455
Gd3 O12 2.438205 1_554
Gd3 O28 2.440434 1_454
Gd3 O3 2.496996 1_555
Gd3 O29 2.512568 1_555
H0 O33 0.975062 1_545
H1 O23 0.972187 1_556
H2 O3 0.974529 1_565
H3 O34 1.004572 1_555
H3 O14 1.695610 1_555
H4 O31 0.974298 1_555
H5 O29 0.974298 1_555
H6 O34 0.972187 1_555
H7 O11 0.977690 1_555
H8 O12 0.972187 1_554
H9 O29 0.977690 1_555
H10 O23 1.004572 1_555
H10 O17 1.695610 1_555
H11 O12 1.004572 1_555
H11 O21 1.695610 1_555
H12 O25 0.974529 1_545
H13 O10 0.975062 1_565
H14 O4 0.972187 1_555
H15 O25 0.975062 1_445
H16 O33 0.974529 1_545
H17 O18 0.977690 1_555
H18 O31 0.977690 1_555
H19 O3 0.975062 1_665
H20 O4 1.004572 1_555
H20 O19 1.695610 1_555
H21 O10 0.974529 1_565
H22 O18 0.974298 1_555
H23 O11 0.974298 1_555
C0 O26 1.258743 1_555
C0 O20 1.259326 1_555
C1 O19 1.250559 1_555
C1 O32 1.270636 1_555
C2 F9 1.360917 1_555
C2 F7 1.376073 1_555
C2 Cl0 1.774849 1_555
C3 F21 1.370232 1_555
C3 F0 1.372015 1_555
C3 Cl7 1.770152 1_555
C4 F2 1.370232 1_555
C4 F22 1.372015 1_555
C4 Cl5 1.770152 1_555
C5 F8 1.370232 1_555
C5 F15 1.372015 1_555
C5 Cl4 1.770152 1_555
C6 O35 1.252697 1_555
C6 O6 1.264098 1_555
C7 O22 1.252697 1_555
C7 O30 1.264098 1_555
C8 O0 1.252697 1_555
C8 O24 1.264098 1_555
C9 F23 1.367593 1_545
C9 F14 1.371178 1_545
C9 Cl9 1.781857 1_555
C10 F13 1.360917 1_555
C10 F1 1.376073 1_555
C10 Cl8 1.774849 1_555
C11 O13 1.258743 1_555
C11 O15 1.259326 1_555
C12 F20 1.360917 1_555
C12 F4 1.376073 1_555
C12 Cl6 1.774849 1_555
C13 O8 1.258743 1_555
C13 O16 1.259326 1_555
C14 F10 1.367593 1_565
C14 F19 1.371178 1_565
C14 Cl10 1.781857 1_555
C15 O17 1.250559 1_555
C15 O5 1.270636 1_555
C16 F12 1.367593 1_545
C16 F11 1.371178 1_545
C16 Cl1 1.781857 1_555
C17 O28 1.252697 1_555
C17 O2 1.264098 1_555
C18 O14 1.250559 1_555
C18 O27 1.270636 1_555
C19 O1 1.258743 1_555
C19 O7 1.259326 1_555
C20 F16 1.360917 1_555
C20 F18 1.376073 1_555
C20 Cl3 1.774849 1_555
C21 O21 1.250559 1_555
C21 O9 1.270636 1_555
C22 F6 1.370232 1_555
C22 F17 1.372015 1_555
C22 Cl2 1.770152 1_555
C23 F3 1.367593 1_565
C23 F5 1.371178 1_565
C23 Cl11 1.781857 1_555
