# generated using pymatgen
data_Li5(NiO2)6
_symmetry_space_group_name_H-M   'P 1'
_cell_length_a   5.76759663
_cell_length_b   6.35479860
_cell_length_c   6.34186822
_cell_angle_alpha   71.20674566
_cell_angle_beta   76.36703132
_cell_angle_gamma   65.00074133
_symmetry_Int_Tables_number   1
_chemical_formula_structural   Li5(NiO2)6
_chemical_formula_sum   'Li5 Ni6 O12'
_cell_volume   198.08664525
_cell_formula_units_Z   1
loop_
 _symmetry_equiv_pos_site_id
 _symmetry_equiv_pos_as_xyz
  1  'x, y, z'
loop_
 _atom_site_type_symbol
 _atom_site_label
 _atom_site_symmetry_multiplicity
 _atom_site_fract_x
 _atom_site_fract_y
 _atom_site_fract_z
 _atom_site_occupancy
  Li  Li0  1  0.74196364  0.50915211  0.99295513  1
  Li  Li1  1  0.57769467  0.15207135  0.34382729  1
  Li  Li2  1  0.09054251  0.15799691  0.34033081  1
  Li  Li3  1  0.91670551  0.83342076  0.66544896  1
  Li  Li4  1  0.25841410  0.51777455  0.98831381  1
  Ni  Ni0  1  0.99723485  0.99718656  0.99707997  1
  Ni  Ni1  1  0.33727380  0.66819195  0.33735599  1
  Ni  Ni2  1  0.66371263  0.33786777  0.66849667  1
  Ni  Ni3  1  0.17025245  0.32803642  0.66523457  1
  Ni  Ni4  1  0.49642867  0.00101742  0.99728919  1
  Ni  Ni5  1  0.83518974  0.66582248  0.33534710  1
  O  O0  1  -0.00464520  0.10089106  0.68153413  1
  O  O1  1  0.87839238  0.75864849  0.01372917  1
  O  O2  1  0.37383950  0.75909745  0.02528863  1
  O  O3  1  0.45936913  0.91017850  0.30775111  1
  O  O4  1  0.22034064  0.42369939  0.35213238  1
  O  O5  1  0.72037008  0.42469909  0.35359773  1
  O  O6  1  0.32260781  0.56817611  0.65077684  1
  O  O7  1  0.82160930  0.55139111  0.65396644  1
  O  O8  1  0.52678252  0.11436205  0.68014322  1
  O  O9  1  0.61275800  0.24612417  0.98199437  1
  O  O10  1  0.11284294  0.23708477  0.97943389  1
  O  O11  1  0.95365533  0.90377451  0.32130559  1
loop_
_geom_bond_atom_site_label_1
_geom_bond_atom_site_label_2
_geom_bond_distance
_geom_bond_site_symmetry_2
Li0 O7 2.042469 1_555
Li0 O2 2.055989 1_556
Li0 O1 2.094814 1_556
Li0 O10 2.110785 1_655
Li0 O9 2.122763 1_555
Li0 O5 2.160076 1_556
Li1 O3 2.016901 1_545
Li1 O8 2.031677 1_555
Li1 O4 2.056878 1_555
Li1 O11 2.078307 1_545
Li1 O9 2.159511 1_554
Li1 O5 2.231753 1_555
Li2 O0 2.053740 1_555
Li2 O3 2.053997 1_545
Li2 O5 2.094423 1_455
Li2 O11 2.120466 1_445
Li2 O4 2.143185 1_555
Li2 O10 2.163857 1_554
Li3 O0 1.972417 1_665
Li3 O11 2.059426 1_555
Li3 O1 2.082217 1_556
Li3 O7 2.109982 1_555
Li3 O8 2.206475 1_565
Li3 O6 2.234632 1_655
Li4 O2 2.004537 1_556
Li4 O6 2.026516 1_555
Li4 O9 2.045105 1_555
Li4 O1 2.080817 1_456
Li4 O4 2.170849 1_556
Li4 O10 2.289669 1_555
Ni0 O10 1.869573 1_665
Ni0 O1 1.876103 1_556
Ni0 O0 1.895654 1_665
Ni0 O11 1.933789 1_556
Ni0 O2 2.066470 1_656
Ni0 O9 2.113423 1_565
Ni1 O2 1.861339 1_555
Ni1 O6 1.874613 1_555
Ni1 O3 1.887545 1_555
Ni1 O4 1.907792 1_555
Ni1 O11 2.086944 1_455
Ni1 O5 2.098059 1_555
Ni2 O0 1.868978 1_655
Ni2 O8 1.870701 1_555
Ni2 O9 1.871258 1_555
Ni2 O5 1.879954 1_555
Ni2 O6 1.894655 1_555
Ni2 O7 1.898242 1_555
Ni3 O4 1.869789 1_555
Ni3 O10 1.876935 1_555
Ni3 O7 1.911340 1_455
Ni3 O8 1.931349 1_555
Ni3 O6 2.028455 1_555
Ni3 O0 2.048714 1_555
Ni4 O3 1.851787 1_546
Ni4 O2 1.891706 1_546
Ni4 O8 1.897882 1_555
Ni4 O9 1.908134 1_555
Ni4 O10 2.088381 1_555
Ni4 O1 2.091242 1_546
Ni5 O5 1.872733 1_555
Ni5 O11 1.875941 1_555
Ni5 O7 1.909116 1_555
Ni5 O1 1.918255 1_555
Ni5 O3 2.073442 1_555
Ni5 O4 2.104854 1_655
