# generated using pymatgen
data_Mg2TiO4
_symmetry_space_group_name_H-M   'P 1'
_cell_length_a   10.32729031
_cell_length_b   10.32729031
_cell_length_c   6.08037143
_cell_angle_alpha   89.87146777
_cell_angle_beta   89.87146777
_cell_angle_gamma   72.17593051
_symmetry_Int_Tables_number   1
_chemical_formula_structural   Mg2TiO4
_chemical_formula_sum   'Mg16 Ti8 O32'
_cell_volume   617.36010481
_cell_formula_units_Z   8
loop_
 _symmetry_equiv_pos_site_id
 _symmetry_equiv_pos_as_xyz
  1  'x, y, z'
loop_
 _atom_site_type_symbol
 _atom_site_label
 _atom_site_symmetry_multiplicity
 _atom_site_fract_x
 _atom_site_fract_y
 _atom_site_fract_z
 _atom_site_occupancy
  Mg  Mg0  1  0.62224200  0.37775800  0.00000000  1
  Mg  Mg1  1  0.12570000  0.37497500  0.00093100  1
  Mg  Mg2  1  0.12582400  0.12316500  0.24886800  1
  Mg  Mg3  1  0.62463100  0.62670500  0.24877200  1
  Mg  Mg4  1  0.30967600  0.56257700  0.24318200  1
  Mg  Mg5  1  0.81236700  0.06553800  0.24677900  1
  Mg  Mg6  1  0.43736000  0.18638600  0.25566600  1
  Mg  Mg7  1  0.94108600  0.68616900  0.25931000  1
  Mg  Mg8  1  0.12554400  0.87445600  0.50000000  1
  Mg  Mg9  1  0.31383100  0.05891400  0.74069000  1
  Mg  Mg10  1  0.43742300  0.69032400  0.75681800  1
  Mg  Mg11  1  0.81361400  0.56264000  0.74433400  1
  Mg  Mg12  1  0.93446200  0.18763300  0.75322100  1
  Mg  Mg13  1  0.37329500  0.37536900  0.75122800  1
  Mg  Mg14  1  0.87683500  0.87417600  0.75113200  1
  Mg  Mg15  1  0.62502500  0.87430000  0.99906900  1
  Ti  Ti0  1  0.11946900  0.88053100  0.00000000  1
  Ti  Ti1  1  0.37710500  0.87287000  0.25429700  1
  Ti  Ti2  1  0.87286300  0.37711400  0.23255600  1
  Ti  Ti3  1  0.12813700  0.36357900  0.50231200  1
  Ti  Ti4  1  0.63642100  0.87186300  0.49768800  1
  Ti  Ti5  1  0.61622900  0.38377100  0.50000000  1
  Ti  Ti6  1  0.12713000  0.62289500  0.74570300  1
  Ti  Ti7  1  0.62288600  0.12713700  0.76744400  1
  O  O0  1  0.25119400  0.98726400  0.01624500  1
  O  O1  1  0.49689000  0.75799200  0.03141000  1
  O  O2  1  0.75610900  0.49502600  0.02709200  1
  O  O3  1  0.99286000  0.25703400  0.03089700  1
  O  O4  1  0.24839500  0.76569700  0.24095900  1
  O  O5  1  0.74624100  0.26818800  0.26035500  1
  O  O6  1  0.00093000  0.48283100  0.26366300  1
  O  O7  1  0.50424100  0.98362600  0.25862800  1
  O  O8  1  0.23431200  0.26473000  0.26389000  1
  O  O9  1  0.51312700  0.48633300  0.26274300  1
  O  O10  1  0.01513200  0.98373400  0.23511200  1
  O  O11  1  0.73740400  0.76517000  0.26363700  1
  O  O12  1  0.25475900  0.99031800  0.46668900  1
  O  O13  1  0.74730800  0.48821900  0.47980800  1
  O  O14  1  0.74037500  0.99903200  0.51624700  1
  O  O15  1  0.23660600  0.49984900  0.51777200  1
  O  O16  1  0.00968200  0.74524100  0.53331100  1
  O  O17  1  0.50015100  0.76339400  0.48222800  1
  O  O18  1  0.51178100  0.25269200  0.52019200  1
  O  O19  1  0.00096800  0.25962500  0.48375300  1
  O  O20  1  0.01626600  0.98486800  0.76488800  1
  O  O21  1  0.51366700  0.48687300  0.73725700  1
  O  O22  1  0.23483000  0.26259600  0.73636300  1
  O  O23  1  0.73527000  0.76568800  0.73611000  1
  O  O24  1  0.51716900  0.99907000  0.73633700  1
  O  O25  1  0.73181200  0.25375900  0.73964500  1
  O  O26  1  0.23430300  0.75160500  0.75904100  1
  O  O27  1  0.01637400  0.49575900  0.74137200  1
  O  O28  1  0.01273600  0.74880600  0.98375500  1
  O  O29  1  0.24200800  0.50311000  0.96859000  1
  O  O30  1  0.50497400  0.24389100  0.97290800  1
  O  O31  1  0.74296600  0.00714000  0.96910300  1
loop_
_geom_bond_atom_site_label_1
_geom_bond_atom_site_label_2
_geom_bond_distance
_geom_bond_site_symmetry_2
Mg0 O9 2.075038 1_555
Mg0 O21 2.075038 1_554
Mg0 O2 2.105221 1_555
Mg0 O30 2.105221 1_554
Mg0 O5 2.130805 1_555
Mg0 O25 2.130805 1_554
Mg1 O29 2.050204 1_554
Mg1 O8 2.080605 1_555
Mg1 O22 2.098672 1_554
Mg1 O3 2.102291 1_455
Mg1 O27 2.111499 1_554
Mg1 O6 2.138491 1_555
Mg2 O12 2.071422 1_545
Mg2 O3 2.095515 1_455
Mg2 O10 2.096641 1_545
Mg2 O8 2.098767 1_555
Mg2 O0 2.129552 1_545
Mg2 O19 2.139320 1_555
Mg3 O1 2.056736 1_555
Mg3 O2 2.092700 1_555
Mg3 O11 2.104746 1_555
Mg3 O9 2.110860 1_555
Mg3 O13 2.124538 1_555
Mg3 O17 2.133106 1_555
Mg4 O29 1.981344 1_554
Mg4 O4 1.997037 1_555
Mg4 O9 2.009140 1_555
Mg4 O15 2.016298 1_555
Mg5 O5 1.994660 1_555
Mg5 O31 2.000659 1_554
Mg5 O14 2.002789 1_545
Mg5 O10 2.005053 1_645
Mg6 O7 1.994127 1_545
Mg6 O18 1.994811 1_555
Mg6 O8 2.003828 1_555
Mg6 O30 2.009990 1_554
Mg7 O16 1.980930 1_655
Mg7 O6 1.999420 1_655
Mg7 O11 2.010025 1_555
Mg7 O28 2.013900 1_654
Mg8 O12 2.056370 1_555
Mg8 O16 2.056370 1_555
Mg8 O20 2.092890 1_555
Mg8 O10 2.092890 1_555
Mg8 O26 2.116275 1_555
Mg8 O4 2.116275 1_555
Mg9 O12 1.980930 1_545
Mg9 O24 1.999420 1_545
Mg9 O22 2.010025 1_555
Mg9 O0 2.013900 1_546
Mg10 O1 1.981344 1_556
Mg10 O26 1.997037 1_555
Mg10 O21 2.009140 1_555
Mg10 O17 2.016298 1_555
Mg11 O27 1.994127 1_655
Mg11 O13 1.994811 1_555
Mg11 O23 2.003828 1_555
Mg11 O2 2.009990 1_556
Mg12 O25 1.994660 1_555
Mg12 O3 2.000659 1_556
Mg12 O19 2.002789 1_655
Mg12 O20 2.005053 1_645
Mg13 O29 2.056736 1_555
Mg13 O30 2.092700 1_555
Mg13 O22 2.104746 1_555
Mg13 O21 2.110860 1_555
Mg13 O18 2.124538 1_555
Mg13 O15 2.133106 1_555
Mg14 O16 2.071422 1_655
Mg14 O31 2.095515 1_565
Mg14 O20 2.096641 1_655
Mg14 O23 2.098767 1_555
Mg14 O28 2.129552 1_655
Mg14 O14 2.139320 1_555
Mg15 O1 2.050204 1_556
Mg15 O23 2.080605 1_555
Mg15 O11 2.098672 1_556
Mg15 O31 2.102291 1_565
Mg15 O7 2.111499 1_556
Mg15 O24 2.138491 1_555
O0 Ti0 1.998595 1_555
O0 Ti1 2.059594 1_555
O1 Ti1 1.968678 1_555
O2 Ti2 1.896967 1_555
O3 Ti2 1.906894 1_555
O4 Ti1 1.974836 1_555
O4 Ti0 2.088079 1_555
O5 Ti2 1.975516 1_555
O5 Ti5 2.090142 1_555
O6 Ti2 1.965450 1_455
O6 Ti3 2.087637 1_555
O7 Ti1 1.988103 1_555
O7 Ti4 2.084537 1_555
O8 Ti3 1.913190 1_555
O9 Ti5 1.909540 1_555
O10 Ti0 1.907230 1_555
O11 Ti4 1.903640 1_555
O12 Ti1 1.948562 1_555
O13 Ti5 1.975763 1_555
O13 Ti2 2.084752 1_555
O14 Ti4 1.937629 1_555
O14 Ti7 2.138546 1_565
O15 Ti6 1.983703 1_555
O15 Ti3 2.051903 1_555
O16 Ti6 1.948562 1_555
O17 Ti1 1.983703 1_555
O17 Ti4 2.051903 1_555
O18 Ti5 1.975763 1_555
O18 Ti7 2.084752 1_555
O19 Ti3 1.937629 1_555
O19 Ti2 2.138546 1_455
O20 Ti0 1.907230 1_556
O21 Ti5 1.909540 1_555
O22 Ti3 1.903640 1_555
O23 Ti4 1.913190 1_555
O24 Ti7 1.965450 1_565
O24 Ti4 2.087637 1_555
O25 Ti7 1.975516 1_555
O25 Ti5 2.090142 1_555
O26 Ti6 1.974836 1_555
O26 Ti0 2.088079 1_556
O27 Ti6 1.988103 1_555
O27 Ti3 2.084537 1_555
O28 Ti0 1.998595 1_556
O28 Ti6 2.059594 1_555
O29 Ti6 1.968678 1_555
O30 Ti7 1.896967 1_555
O31 Ti7 1.906894 1_555
