# generated using pymatgen
data_U2CuP2(H4O5)4
_symmetry_space_group_name_H-M   'P 1'
_cell_length_a   7.02630700
_cell_length_b   7.02630700
_cell_length_c   17.68682000
_cell_angle_alpha   90.00000000
_cell_angle_beta   90.00000000
_cell_angle_gamma   90.00000000
_symmetry_Int_Tables_number   1
_chemical_formula_structural   U2CuP2(H4O5)4
_chemical_formula_sum   'U4 Cu2 P4 H32 O40'
_cell_volume   873.18044074
_cell_formula_units_Z   2
loop_
 _symmetry_equiv_pos_site_id
 _symmetry_equiv_pos_as_xyz
  1  'x, y, z'
loop_
 _atom_site_type_symbol
 _atom_site_label
 _atom_site_symmetry_multiplicity
 _atom_site_fract_x
 _atom_site_fract_y
 _atom_site_fract_z
 _atom_site_occupancy
  U  U0  1  0.00000000  0.50000000  0.94838800  1
  U  U1  1  0.50000000  0.00000000  0.05161200  1
  U  U2  1  0.00000000  0.50000000  0.45053900  1
  U  U3  1  0.50000000  0.00000000  0.54946100  1
  Cu  Cu0  1  0.00000000  0.50000000  0.68760700  1
  Cu  Cu1  1  0.50000000  0.00000000  0.31239300  1
  P  P0  1  0.50000000  0.50000000  0.00000000  1
  P  P1  1  0.00000000  0.00000000  0.00000000  1
  P  P2  1  0.50000000  0.50000000  0.50000000  1
  P  P3  1  0.00000000  0.00000000  0.50000000  1
  H  H0  1  0.66912200  0.61792800  0.14202000  1
  H  H1  1  0.33087800  0.38207200  0.14202000  1
  H  H2  1  0.11792800  0.83087800  0.14202000  1
  H  H3  1  0.88207200  0.16912200  0.14202000  1
  H  H4  1  0.83087800  0.88207200  0.85798000  1
  H  H5  1  0.16912200  0.11792800  0.85798000  1
  H  H6  1  0.38207200  0.66912200  0.85798000  1
  H  H7  1  0.61792800  0.33087800  0.85798000  1
  H  H8  1  0.88883800  0.83048600  0.64551700  1
  H  H9  1  0.11116200  0.16951400  0.64551700  1
  H  H10  1  0.33048600  0.61116200  0.64551700  1
  H  H11  1  0.66951400  0.38883800  0.64551700  1
  H  H12  1  0.61116200  0.66951400  0.35448300  1
  H  H13  1  0.38883800  0.33048600  0.35448300  1
  H  H14  1  0.16951400  0.88883800  0.35448300  1
  H  H15  1  0.83048600  0.11116200  0.35448300  1
  H  H16  1  0.87652900  0.82628100  0.73637900  1
  H  H17  1  0.12347100  0.17371900  0.73637900  1
  H  H18  1  0.32628100  0.62347100  0.73637900  1
  H  H19  1  0.67371900  0.37652900  0.73637900  1
  H  H20  1  0.62347100  0.67371900  0.26362100  1
  H  H21  1  0.37652900  0.32628100  0.26362100  1
  H  H22  1  0.17371900  0.87652900  0.26362100  1
  H  H23  1  0.82628100  0.12347100  0.26362100  1
  H  H24  1  0.78172100  0.46310600  0.18978800  1
  H  H25  1  0.21827900  0.53689400  0.18978800  1
  H  H26  1  0.96310600  0.71827900  0.18978800  1
  H  H27  1  0.03689400  0.28172100  0.18978800  1
  H  H28  1  0.71827900  0.03689400  0.81021200  1
  H  H29  1  0.28172100  0.96310600  0.81021200  1
  H  H30  1  0.53689400  0.78172100  0.81021200  1
  H  H31  1  0.46310600  0.21827900  0.81021200  1
  O  O0  1  0.00000000  0.50000000  0.55413600  1
  O  O1  1  0.50000000  0.00000000  0.44586400  1
  O  O2  1  0.00000000  0.50000000  0.05022700  1
  O  O3  1  0.50000000  0.00000000  0.94977300  1
  O  O4  1  0.00000000  0.50000000  0.34822000  1
  O  O5  1  0.50000000  0.00000000  0.65178000  1
  O  O6  1  0.00000000  0.50000000  0.84527000  1
  O  O7  1  0.50000000  0.00000000  0.15473000  1
  O  O8  1  0.32682400  0.53687700  0.94738100  1
  O  O9  1  0.67317600  0.46312300  0.94738100  1
  O  O10  1  0.03687700  0.17317600  0.94738100  1
  O  O11  1  0.96312300  0.82682400  0.94738100  1
  O  O12  1  0.17317600  0.96312300  0.05261900  1
  O  O13  1  0.82682400  0.03687700  0.05261900  1
  O  O14  1  0.46312300  0.32682400  0.05261900  1
  O  O15  1  0.53687700  0.67317600  0.05261900  1
  O  O16  1  0.32646700  0.45610000  0.44822700  1
  O  O17  1  0.67353300  0.54390000  0.44822700  1
  O  O18  1  0.95610000  0.17353300  0.44822700  1
  O  O19  1  0.04390000  0.82646700  0.44822700  1
  O  O20  1  0.17353300  0.04390000  0.55177300  1
  O  O21  1  0.82646700  0.95610000  0.55177300  1
  O  O22  1  0.54390000  0.32646700  0.55177300  1
  O  O23  1  0.45610000  0.67353300  0.55177300  1
  O  O24  1  0.95107900  0.77891800  0.69117600  1
  O  O25  1  0.04892100  0.22108200  0.69117600  1
  O  O26  1  0.27891800  0.54892100  0.69117600  1
  O  O27  1  0.72108200  0.45107900  0.69117600  1
  O  O28  1  0.54892100  0.72108200  0.30882400  1
  O  O29  1  0.45107900  0.27891800  0.30882400  1
  O  O30  1  0.22108200  0.95107900  0.30882400  1
  O  O31  1  0.77891800  0.04892100  0.30882400  1
  O  O32  1  0.74034000  0.59915900  0.18956800  1
  O  O33  1  0.25966000  0.40084100  0.18956800  1
  O  O34  1  0.09915900  0.75966000  0.18956800  1
  O  O35  1  0.90084100  0.24034000  0.18956800  1
  O  O36  1  0.75966000  0.90084100  0.81043200  1
  O  O37  1  0.24034000  0.09915900  0.81043200  1
  O  O38  1  0.40084100  0.74034000  0.81043200  1
  O  O39  1  0.59915900  0.25966000  0.81043200  1
loop_
_geom_bond_atom_site_label_1
_geom_bond_atom_site_label_2
_geom_bond_distance
_geom_bond_site_symmetry_2
Cu0 O25 1.990681 1_555
Cu0 O26 1.990681 1_555
Cu0 O24 1.990681 1_455
Cu0 O27 1.990681 1_455
Cu0 O0 2.360678 1_555
Cu1 O31 1.990681 1_555
Cu1 O30 1.990681 1_545
Cu1 O28 1.990681 1_545
Cu1 O29 1.990681 1_555
Cu1 O1 2.360678 1_555
H0 O32 0.987434 1_555
H1 O33 0.987434 1_555
H2 O34 0.987434 1_555
H3 O35 0.987434 1_555
H4 O36 0.987434 1_555
H5 O37 0.987434 1_555
H6 O38 0.987434 1_555
H7 O39 0.987434 1_555
H8 O24 0.987266 1_555
H9 O25 0.987266 1_555
H10 O26 0.987266 1_555
H11 O27 0.987266 1_555
H12 O28 0.987266 1_555
H13 O29 0.987266 1_555
H14 O30 0.987266 1_555
H15 O31 0.987266 1_555
H16 O24 1.012088 1_555
H16 O36 1.632246 1_555
H17 O25 1.012088 1_555
H17 O37 1.632246 1_555
H18 O26 1.012088 1_555
H18 O38 1.632246 1_555
H19 O27 1.012088 1_555
H19 O39 1.632246 1_555
H20 O28 1.012088 1_555
H20 O32 1.632246 1_555
H21 O29 1.012088 1_555
H21 O33 1.632246 1_555
H22 O30 1.012088 1_555
H22 O34 1.632246 1_555
H23 O31 1.012088 1_555
H23 O35 1.632246 1_555
H24 O32 0.999197 1_555
H25 O33 0.999197 1_555
H26 O34 0.999197 1_655
H27 O35 0.999197 1_455
H28 O36 0.999197 1_545
H29 O37 0.999197 1_565
H30 O38 0.999197 1_555
H31 O39 0.999197 1_555
O0 U2 1.832301 1_555
O1 U3 1.832301 1_555
O2 U0 1.801208 1_554
O3 U1 1.801208 1_556
O4 U2 1.809698 1_555
O5 U3 1.809698 1_555
O6 U0 1.823830 1_555
O7 U1 1.823830 1_555
O8 P0 1.553655 1_556
O8 U0 2.311006 1_555
O9 P0 1.553655 1_556
O9 U0 2.311006 1_655
O10 P1 1.553655 1_556
O10 U0 2.311006 1_555
O11 P1 1.553655 1_666
O11 U0 2.311006 1_655
O12 P1 1.553655 1_565
O12 U1 2.311006 1_565
O13 P1 1.553655 1_655
O13 U1 2.311006 1_555
O14 P0 1.553655 1_555
O14 U1 2.311006 1_555
O15 P0 1.553655 1_555
O15 U1 2.311006 1_565
O16 P2 1.555742 1_555
O16 U2 2.314865 1_555
O17 P2 1.555742 1_555
O17 U2 2.314865 1_655
O18 P3 1.555742 1_655
O18 U2 2.314865 1_655
O19 P3 1.555742 1_565
O19 U2 2.314865 1_555
O20 P3 1.555742 1_555
O20 U3 2.314865 1_555
O21 P3 1.555742 1_665
O21 U3 2.314865 1_565
O22 P2 1.555742 1_555
O22 U3 2.314865 1_555
O23 P2 1.555742 1_555
O23 U3 2.314865 1_565
