# generated using pymatgen
data_Sm6Th4O17
_symmetry_space_group_name_H-M   'P 1'
_cell_length_a   3.90451819
_cell_length_b   3.90451854
_cell_length_c   39.88361598
_cell_angle_alpha   60.69300924
_cell_angle_beta   60.69300689
_cell_angle_gamma   59.99999427
_symmetry_Int_Tables_number   1
_chemical_formula_structural   Sm6Th4O17
_chemical_formula_sum   'Sm6 Th4 O17'
_cell_volume   434.39523771
_cell_formula_units_Z   1
loop_
 _symmetry_equiv_pos_site_id
 _symmetry_equiv_pos_as_xyz
  1  'x, y, z'
loop_
 _atom_site_type_symbol
 _atom_site_label
 _atom_site_symmetry_multiplicity
 _atom_site_fract_x
 _atom_site_fract_y
 _atom_site_fract_z
 _atom_site_occupancy
  Sm  Sm0  1  0.98599100  0.98599100  0.50420300  1
  Sm  Sm1  1  0.00710800  0.00710800  0.39786800  1
  Sm  Sm2  1  0.00909600  0.00909600  0.59727100  1
  Sm  Sm3  1  0.98645000  0.98645000  0.70406500  1
  Sm  Sm4  1  0.00953700  0.00953700  0.79713900  1
  Sm  Sm5  1  0.98899300  0.98899300  0.90330200  1
  Th  Th0  1  0.00726400  0.00726400  0.99782100  1
  Th  Th1  1  0.00633800  0.00633800  0.09809900  1
  Th  Th2  1  0.00519900  0.00519900  0.29844000  1
  Th  Th3  1  0.00526900  0.00526900  0.19841900  1
  O  O0  1  0.24787500  0.24787500  0.02563800  1
  O  O1  1  0.24704600  0.24704600  0.12588600  1
  O  O2  1  0.74839400  0.74839400  0.07548200  1
  O  O3  1  0.24537200  0.24537200  0.22638800  1
  O  O4  1  0.74769800  0.74769800  0.17569000  1
  O  O5  1  0.24965900  0.24965900  0.32510200  1
  O  O6  1  0.74798900  0.74798900  0.27560300  1
  O  O7  1  0.71781200  0.71781200  0.38465600  1
  O  O8  1  0.24894300  0.24894300  0.52531700  1
  O  O9  1  0.78234300  0.78234300  0.46529700  1
  O  O10  1  0.72128600  0.72128600  0.58361400  1
  O  O11  1  0.24928000  0.24928000  0.72521600  1
  O  O12  1  0.78343700  0.78343700  0.66496900  1
  O  O13  1  0.72111200  0.72111200  0.78366600  1
  O  O14  1  0.24754400  0.24754400  0.92573700  1
  O  O15  1  0.78432900  0.78432900  0.86470100  1
  O  O16  1  0.74863500  0.74863500  0.97541000  1
loop_
_geom_bond_atom_site_label_1
_geom_bond_atom_site_label_2
_geom_bond_distance
_geom_bond_site_symmetry_2
O0 Th1 2.384097 1_555
O0 Th0 2.432978 1_654
O0 Th0 2.432978 1_564
O0 Th0 2.432988 1_554
O1 Th3 2.386465 1_555
O1 Th1 2.432598 1_555
O1 Th1 2.432616 1_655
O1 Th1 2.432617 1_565
O2 Th1 2.373918 1_565
O2 Th1 2.373918 1_655
O2 Th1 2.373925 1_665
O2 Th0 2.555186 1_664
O3 Th2 2.370640 1_555
O3 Th3 2.434865 1_555
O3 Th3 2.434868 1_655
O3 Th3 2.434868 1_565
O4 Th3 2.375075 1_565
O4 Th3 2.375075 1_655
O4 Th3 2.375085 1_665
O4 Th1 2.552883 1_665
O5 Sm1 2.394132 1_555
O5 Th2 2.418942 1_655
O5 Th2 2.418942 1_555
O5 Th2 2.418943 1_565
O6 Th2 2.376199 1_565
O6 Th2 2.376199 1_665
O6 Th2 2.376200 1_655
O6 Th3 2.539492 1_665
O7 Sm1 2.295795 1_565
O7 Sm1 2.295795 1_655
O7 Sm1 2.295822 1_665
O7 Th2 2.836661 1_665
O8 Sm0 2.358878 1_445
O8 Sm0 2.358891 1_545
O8 Sm0 2.358891 1_455
O8 Sm2 2.367415 1_555
O9 Sm1 2.218535 1_665
O9 Sm0 2.592360 1_455
O9 Sm0 2.592360 1_545
O9 Sm0 2.592372 1_555
O10 Sm2 2.298621 1_565
O10 Sm2 2.298621 1_665
O10 Sm2 2.298622 1_655
O10 Sm0 2.612764 1_555
O11 Sm3 2.359245 1_545
O11 Sm3 2.359245 1_445
O11 Sm3 2.359246 1_455
O11 Sm4 2.366395 1_555
O12 Sm2 2.227385 1_665
O12 Sm3 2.595454 1_555
O12 Sm3 2.595457 1_455
O12 Sm3 2.595458 1_545
O13 Sm4 2.297440 1_565
O13 Sm4 2.297440 1_655
O13 Sm4 2.297457 1_665
O13 Sm3 2.619015 1_555
O14 Th0 2.371693 1_555
O14 Sm5 2.372047 1_545
O14 Sm5 2.372047 1_455
O14 Sm5 2.372057 1_445
O15 Sm4 2.222911 1_665
O15 Sm5 2.587422 1_455
O15 Sm5 2.587422 1_545
O15 Sm5 2.587427 1_555
O16 Th0 2.371798 1_665
O16 Th0 2.371808 1_565
O16 Th0 2.371808 1_655
O16 Sm5 2.372482 1_555
