# generated using pymatgen
data_Pu2O3
_symmetry_space_group_name_H-M   'P 1'
_cell_length_a   9.50399653
_cell_length_b   9.49906087
_cell_length_c   9.49925444
_cell_angle_alpha   109.43135895
_cell_angle_beta   109.26867199
_cell_angle_gamma   109.75474634
_symmetry_Int_Tables_number   1
_chemical_formula_structural   Pu2O3
_chemical_formula_sum   'Pu16 O24'
_cell_volume   659.82372537
_cell_formula_units_Z   8
loop_
 _symmetry_equiv_pos_site_id
 _symmetry_equiv_pos_as_xyz
  1  'x, y, z'
loop_
 _atom_site_type_symbol
 _atom_site_label
 _atom_site_symmetry_multiplicity
 _atom_site_fract_x
 _atom_site_fract_y
 _atom_site_fract_z
 _atom_site_occupancy
  Pu  Pu0  1  0.22688240  0.75008364  0.97696459  1
  Pu  Pu1  1  0.97669075  0.22695477  0.75007458  1
  Pu  Pu2  1  0.77311963  0.24991364  0.02303641  1
  Pu  Pu3  1  0.25017228  0.02316971  0.77316460  1
  Pu  Pu4  1  0.72728198  0.75018994  0.47672719  1
  Pu  Pu5  1  0.74983287  0.97683676  0.22684088  1
  Pu  Pu6  1  0.24985142  0.52297562  0.27333699  1
  Pu  Pu7  1  0.75014824  0.47701890  0.72666002  1
  Pu  Pu8  1  -0.00000323  0.50000322  0.49999589  1
  Pu  Pu9  1  0.27271111  0.24980796  0.52326521  1
  Pu  Pu10  1  0.52293082  0.27313545  0.24998754  1
  Pu  Pu11  1  0.47707331  0.72686948  0.75001667  1
  Pu  Pu12  1  0.02330538  0.77304246  0.24992050  1
  Pu  Pu13  1  0.99999547  -0.00000155  0.99999699  1
  Pu  Pu14  1  0.50000166  -0.00000460  0.49999853  1
  Pu  Pu15  1  0.50000376  0.50000643  0.00000744  1
  O  O0  1  0.26037894  0.99263819  0.52588472  1
  O  O1  1  0.76033516  0.23424393  0.26732326  1
  O  O2  1  0.23545959  0.26781838  0.76107298  1
  O  O3  1  0.50663682  0.76759635  0.53230386  1
  O  O4  1  0.76491860  0.53360034  0.50710700  1
  O  O5  1  0.26454282  0.02585870  0.03189437  1
  O  O6  1  0.03330551  0.26594007  0.02565472  1
  O  O7  1  0.47348197  0.74244560  0.00715027  1
  O  O8  1  0.73486539  0.24194997  0.76848883  1
  O  O9  1  0.46666722  0.49258967  0.23253612  1
  O  O10  1  0.02654742  0.03333891  0.26880339  1
  O  O11  1  0.76455069  0.73219449  0.23893581  1
  O  O12  1  0.99408329  0.52564750  0.26119375  1
  O  O13  1  0.73545389  0.97414206  0.96811739  1
  O  O14  1  0.23506525  0.46639774  0.49288590  1
  O  O15  1  0.53332627  0.50741719  0.76746357  1
  O  O16  1  0.00591843  0.47434848  0.73879413  1
  O  O17  1  0.97344983  0.96665838  0.73118311  1
  O  O18  1  0.73961896  0.00736039  0.47411221  1
  O  O19  1  0.96669862  0.73405843  0.97434606  1
  O  O20  1  0.26514193  0.75803910  0.23151460  1
  O  O21  1  0.49335213  0.23239092  0.46769130  1
  O  O22  1  0.52653054  0.25756426  0.99286646  1
  O  O23  1  0.23967186  0.76576111  0.73268317  1
loop_
_geom_bond_atom_site_label_1
_geom_bond_atom_site_label_2
_geom_bond_distance
_geom_bond_site_symmetry_2
O0 Pu3 2.308102 1_565
O0 Pu14 2.350580 1_565
O0 Pu12 2.363509 1_555
O0 Pu9 2.414705 1_565
O1 Pu5 2.306633 1_545
O1 Pu8 2.350330 1_655
O1 Pu10 2.369212 1_555
O1 Pu2 2.413611 1_555
O2 Pu1 2.316905 1_455
O2 Pu15 2.343458 1_556
O2 Pu9 2.359942 1_555
O2 Pu3 2.412483 1_555
O3 Pu11 2.312587 1_555
O3 Pu14 2.345977 1_565
O3 Pu4 2.368648 1_555
O3 Pu6 2.409952 1_555
O4 Pu4 2.295324 1_555
O4 Pu7 2.355062 1_555
O4 Pu8 2.380176 1_655
O4 Pu10 2.408675 1_555
O5 Pu10 2.311942 1_555
O5 Pu13 2.346020 1_454
O5 Pu0 2.365619 1_544
O5 Pu3 2.407098 1_554
O6 Pu6 2.306040 1_555
O6 Pu13 2.353739 1_454
O6 Pu1 2.360129 1_454
O6 Pu2 2.416811 1_455
O7 Pu0 2.294685 1_554
O7 Pu5 2.355530 1_555
O7 Pu15 2.381474 1_555
O7 Pu11 2.409817 1_554
O8 Pu2 2.294380 1_556
O8 Pu7 2.360964 1_555
O8 Pu14 2.375742 1_555
O8 Pu1 2.408975 1_555
O9 Pu6 2.309632 1_555
O9 Pu15 2.352594 1_555
O9 Pu10 2.363041 1_555
O9 Pu4 2.416119 1_555
O10 Pu9 2.291957 1_555
O10 Pu5 2.361124 1_445
O10 Pu13 2.380498 1_454
O10 Pu12 2.407591 1_545
O11 Pu12 2.316849 1_655
O11 Pu15 2.343452 1_555
O11 Pu4 2.359897 1_555
O11 Pu5 2.412452 1_555
O12 Pu12 2.314535 1_655
O12 Pu8 2.345443 1_655
O12 Pu2 2.364763 1_555
O12 Pu6 2.404459 1_655
O13 Pu11 2.311913 1_555
O13 Pu13 2.346021 1_565
O13 Pu2 2.365592 1_566
O13 Pu5 2.406997 1_556
O14 Pu9 2.295360 1_555
O14 Pu6 2.355048 1_555
O14 Pu8 2.380117 1_555
O14 Pu11 2.408789 1_555
O15 Pu7 2.309745 1_555
O15 Pu15 2.352662 1_556
O15 Pu11 2.362960 1_555
O15 Pu9 2.416170 1_555
O16 Pu1 2.314541 1_455
O16 Pu8 2.345429 1_555
O16 Pu0 2.364807 1_555
O16 Pu7 2.404498 1_455
O17 Pu4 2.291947 1_555
O17 Pu3 2.361130 1_665
O17 Pu13 2.380588 1_565
O17 Pu1 2.407572 1_565
O18 Pu5 2.308065 1_545
O18 Pu14 2.350510 1_555
O18 Pu1 2.363493 1_555
O18 Pu4 2.414682 1_545
O19 Pu7 2.306077 1_555
O19 Pu13 2.353776 1_565
O19 Pu12 2.360093 1_656
O19 Pu0 2.416794 1_655
O20 Pu0 2.294422 1_554
O20 Pu6 2.360867 1_555
O20 Pu14 2.375710 1_565
O20 Pu12 2.409080 1_555
O21 Pu10 2.312625 1_555
O21 Pu14 2.345992 1_555
O21 Pu9 2.368626 1_555
O21 Pu7 2.410014 1_555
O22 Pu2 2.294667 1_556
O22 Pu3 2.355596 1_555
O22 Pu15 2.381527 1_556
O22 Pu10 2.409741 1_556
O23 Pu3 2.306654 1_565
O23 Pu8 2.350399 1_555
O23 Pu11 2.369189 1_555
O23 Pu0 2.413603 1_555
