# generated using pymatgen
data_Ca4Zn2Cu3P5
_symmetry_space_group_name_H-M   'P 1'
_cell_length_a   4.04387210
_cell_length_b   4.04387210
_cell_length_c   37.25649600
_cell_angle_alpha   90.00000000
_cell_angle_beta   90.00000000
_cell_angle_gamma   120.00000168
_symmetry_Int_Tables_number   1
_chemical_formula_structural   Ca4Zn2Cu3P5
_chemical_formula_sum   'Ca8 Zn4 Cu6 P10'
_cell_volume   527.62753788
_cell_formula_units_Z   2
loop_
 _symmetry_equiv_pos_site_id
 _symmetry_equiv_pos_as_xyz
  1  'x, y, z'
loop_
 _atom_site_type_symbol
 _atom_site_label
 _atom_site_symmetry_multiplicity
 _atom_site_fract_x
 _atom_site_fract_y
 _atom_site_fract_z
 _atom_site_occupancy
  Ca  Ca0  1  0.00000000  0.00000000  0.80289900  1
  Ca  Ca1  1  0.00000000  0.00000000  0.30289900  1
  Ca  Ca2  1  0.00000000  0.00000000  0.90855500  1
  Ca  Ca3  1  0.00000000  0.00000000  0.09144500  1
  Ca  Ca4  1  0.00000000  0.00000000  0.40855500  1
  Ca  Ca5  1  0.00000000  0.00000000  0.59144500  1
  Ca  Ca6  1  0.00000000  0.00000000  0.69710100  1
  Ca  Ca7  1  0.00000000  0.00000000  0.19710100  1
  Zn  Zn0  1  0.66666700  0.33333300  0.47567400  1
  Zn  Zn1  1  0.33333300  0.66666700  0.97567400  1
  Zn  Zn2  1  0.33333300  0.66666700  0.52432600  1
  Zn  Zn3  1  0.66666700  0.33333300  0.02432600  1
  Cu  Cu0  1  0.33333300  0.66666700  0.75000000  1
  Cu  Cu1  1  0.66666700  0.33333300  0.64385600  1
  Cu  Cu2  1  0.33333300  0.66666700  0.35614400  1
  Cu  Cu3  1  0.66666700  0.33333300  0.25000000  1
  Cu  Cu4  1  0.33333300  0.66666700  0.14385600  1
  Cu  Cu5  1  0.66666700  0.33333300  0.85614400  1
  P  P0  1  0.66666700  0.33333300  0.35559000  1
  P  P1  1  0.66666700  0.33333300  0.54381700  1
  P  P2  1  0.33333300  0.66666700  0.85559000  1
  P  P3  1  0.33333300  0.66666700  0.45618300  1
  P  P4  1  0.66666700  0.33333300  0.95618300  1
  P  P5  1  0.66666700  0.33333300  0.14441000  1
  P  P6  1  0.33333300  0.66666700  0.04381700  1
  P  P7  1  0.66666700  0.33333300  0.75000000  1
  P  P8  1  0.33333300  0.66666700  0.64441000  1
  P  P9  1  0.33333300  0.66666700  0.25000000  1
loop_
_geom_bond_atom_site_label_1
_geom_bond_atom_site_label_2
_geom_bond_distance
_geom_bond_site_symmetry_2
Ca0 P2 3.050352 1_545
Ca0 P2 3.050355 1_445
Ca0 P2 3.050355 1_555
Ca0 P7 3.055345 1_455
Ca0 Cu0 3.055345 1_545
Ca0 Cu0 3.055348 1_555
Ca0 Cu0 3.055348 1_445
Ca0 P7 3.055348 1_445
Ca0 P7 3.055348 1_555
Ca0 Cu5 3.063676 1_455
Ca0 Cu5 3.063678 1_445
Ca0 Cu5 3.063678 1_555
Ca1 P0 3.050352 1_455
Ca1 P0 3.050355 1_555
Ca1 P0 3.050355 1_445
Ca1 Cu3 3.055345 1_455
Ca1 P9 3.055345 1_545
Ca1 P9 3.055348 1_555
Ca1 Cu3 3.055348 1_445
Ca1 Cu3 3.055348 1_555
Ca1 P9 3.055348 1_445
Ca1 Cu2 3.063676 1_545
Ca1 Cu2 3.063678 1_445
Ca1 Cu2 3.063678 1_555
Ca2 P4 2.932514 1_455
Ca2 P4 2.932517 1_445
Ca2 P4 2.932517 1_555
Ca2 Cu5 3.043649 1_455
Ca2 Cu5 3.043652 1_555
Ca2 Cu5 3.043652 1_445
Ca2 P2 3.056932 1_545
Ca2 P2 3.056934 1_445
Ca2 P2 3.056934 1_555
Ca3 P6 2.932514 1_545
Ca3 P6 2.932517 1_445
Ca3 P6 2.932517 1_555
Ca3 Cu4 3.043649 1_545
Ca3 Cu4 3.043652 1_555
Ca3 Cu4 3.043652 1_445
Ca3 P5 3.056932 1_455
Ca3 P5 3.056934 1_445
Ca3 P5 3.056934 1_555
Ca4 P3 2.932514 1_545
Ca4 P3 2.932517 1_445
Ca4 P3 2.932517 1_555
Ca4 Cu2 3.043649 1_545
Ca4 Cu2 3.043652 1_445
Ca4 Cu2 3.043652 1_555
Ca4 P0 3.056932 1_455
Ca4 P0 3.056934 1_445
Ca4 P0 3.056934 1_555
Ca5 P1 2.932514 1_455
Ca5 P1 2.932517 1_445
Ca5 P1 2.932517 1_555
Ca5 Cu1 3.043649 1_455
Ca5 Cu1 3.043652 1_445
Ca5 Cu1 3.043652 1_555
Ca5 P8 3.056932 1_545
Ca5 P8 3.056934 1_445
Ca5 P8 3.056934 1_555
Ca6 P8 3.050352 1_545
Ca6 P8 3.050355 1_445
Ca6 P8 3.050355 1_555
Ca6 Cu0 3.055345 1_545
Ca6 P7 3.055345 1_455
Ca6 Cu0 3.055348 1_555
Ca6 Cu0 3.055348 1_445
Ca6 P7 3.055348 1_445
Ca6 P7 3.055348 1_555
Ca6 Cu1 3.063676 1_455
Ca6 Cu1 3.063678 1_445
Ca6 Cu1 3.063678 1_555
Ca7 P5 3.050352 1_455
Ca7 P5 3.050355 1_445
Ca7 P5 3.050355 1_555
Ca7 Cu3 3.055345 1_455
Ca7 P9 3.055345 1_545
Ca7 P9 3.055348 1_445
Ca7 P9 3.055348 1_555
Ca7 Cu3 3.055348 1_445
Ca7 Cu3 3.055348 1_555
Ca7 Cu4 3.063676 1_545
Ca7 Cu4 3.063678 1_445
Ca7 Cu4 3.063678 1_555
Cu0 P7 2.334728 1_455
Cu0 P7 2.334728 1_565
Cu0 P7 2.334735 1_555
Cu1 P8 2.334820 1_545
Cu1 P8 2.334820 1_655
Cu1 P8 2.334827 1_555
Cu2 P0 2.334820 1_455
Cu2 P0 2.334820 1_565
Cu2 P0 2.334827 1_555
Cu3 P9 2.334728 1_545
Cu3 P9 2.334728 1_655
Cu3 P9 2.334735 1_555
Cu4 P5 2.334820 1_455
Cu4 P5 2.334820 1_565
Cu4 P5 2.334827 1_555
Cu5 P2 2.334820 1_545
Cu5 P2 2.334820 1_655
Cu5 P2 2.334827 1_555
P1 Zn2 2.445051 1_545
P1 Zn2 2.445051 1_655
P1 Zn2 2.445058 1_555
P1 Zn0 2.538769 1_555
P3 Zn0 2.445051 1_455
P3 Zn0 2.445051 1_565
P3 Zn0 2.445058 1_555
P3 Zn2 2.538769 1_555
P4 Zn1 2.445051 1_545
P4 Zn1 2.445051 1_655
P4 Zn1 2.445058 1_555
P4 Zn3 2.538769 1_556
P6 Zn3 2.445051 1_455
P6 Zn3 2.445051 1_565
P6 Zn3 2.445058 1_555
P6 Zn1 2.538769 1_554
