# generated using pymatgen
data_MnH12C2(NCl2)2
_symmetry_space_group_name_H-M   'P 1'
_cell_length_a   7.27227300
_cell_length_b   7.31860900
_cell_length_c   19.45317600
_cell_angle_alpha   90.00000000
_cell_angle_beta   90.00000000
_cell_angle_gamma   90.00000000
_symmetry_Int_Tables_number   1
_chemical_formula_structural   MnH12C2(NCl2)2
_chemical_formula_sum   'Mn4 H48 C8 N8 Cl16'
_cell_volume   1035.35488112
_cell_formula_units_Z   4
loop_
 _symmetry_equiv_pos_site_id
 _symmetry_equiv_pos_as_xyz
  1  'x, y, z'
loop_
 _atom_site_type_symbol
 _atom_site_label
 _atom_site_symmetry_multiplicity
 _atom_site_fract_x
 _atom_site_fract_y
 _atom_site_fract_z
 _atom_site_occupancy
  Mn  Mn0  1  0.00000000  0.50000000  0.50000000  1
  Mn  Mn1  1  0.50000000  0.00000000  0.50000000  1
  Mn  Mn2  1  0.50000000  0.50000000  0.00000000  1
  Mn  Mn3  1  0.00000000  0.00000000  0.00000000  1
  H  H0  1  0.48971400  0.15820600  0.89087600  1
  H  H1  1  0.94225200  0.95333300  0.72334700  1
  H  H2  1  0.06744000  0.45248700  0.08149800  1
  H  H3  1  0.98971400  0.65820600  0.10912400  1
  H  H4  1  0.05774800  0.04666700  0.27665300  1
  H  H5  1  0.15390300  0.51872900  0.89413900  1
  H  H6  1  0.94225200  0.54666700  0.22334700  1
  H  H7  1  0.32583100  0.50097300  0.69766400  1
  H  H8  1  0.00585800  0.17814300  0.69537500  1
  H  H9  1  0.55774800  0.95333300  0.22334700  1
  H  H10  1  0.34609700  0.98127100  0.89413900  1
  H  H11  1  0.44225200  0.04666700  0.77665300  1
  H  H12  1  0.55774800  0.54666700  0.72334700  1
  H  H13  1  0.82583100  0.00097300  0.30233600  1
  H  H14  1  0.34609700  0.51872900  0.39413900  1
  H  H15  1  0.93256000  0.95248700  0.41850200  1
  H  H16  1  0.17416900  0.99902700  0.69766400  1
  H  H17  1  0.65390300  0.48127100  0.60586100  1
  H  H18  1  0.50585800  0.67814300  0.30462500  1
  H  H19  1  0.49414200  0.17814300  0.19537500  1
  H  H20  1  0.43256000  0.45248700  0.58149800  1
  H  H21  1  0.44225200  0.45333300  0.27665300  1
  H  H22  1  0.65390300  0.01872900  0.10586100  1
  H  H23  1  0.93256000  0.54751300  0.91850200  1
  H  H24  1  0.56744000  0.54751300  0.41850200  1
  H  H25  1  0.05774800  0.45333300  0.77665300  1
  H  H26  1  0.67416900  0.49902700  0.30233600  1
  H  H27  1  0.06744000  0.04751300  0.58149800  1
  H  H28  1  0.51028600  0.84179400  0.10912400  1
  H  H29  1  0.99414200  0.67814300  0.80462500  1
  H  H30  1  0.49414200  0.32185700  0.69537500  1
  H  H31  1  0.50585800  0.82185700  0.80462500  1
  H  H32  1  0.48971400  0.34179400  0.39087600  1
  H  H33  1  0.17416900  0.50097300  0.19766400  1
  H  H34  1  0.84609700  0.01872900  0.60586100  1
  H  H35  1  0.51028600  0.65820600  0.60912400  1
  H  H36  1  0.43256000  0.04751300  0.08149800  1
  H  H37  1  0.82583100  0.49902700  0.80233600  1
  H  H38  1  0.01028600  0.15820600  0.39087600  1
  H  H39  1  0.01028600  0.34179400  0.89087600  1
  H  H40  1  0.15390300  0.98127100  0.39413900  1
  H  H41  1  0.32583100  0.99902700  0.19766400  1
  H  H42  1  0.67416900  0.00097300  0.80233600  1
  H  H43  1  0.56744000  0.95248700  0.91850200  1
  H  H44  1  0.84609700  0.48127100  0.10586100  1
  H  H45  1  0.98971400  0.84179400  0.60912400  1
  H  H46  1  0.00585800  0.32185700  0.19537500  1
  H  H47  1  0.99414200  0.82185700  0.30462500  1
  C  C0  1  0.02933900  0.46830500  0.18835300  1
  C  C1  1  0.47066100  0.03169500  0.18835300  1
  C  C2  1  0.97066100  0.53169500  0.81164700  1
  C  C3  1  0.02933900  0.03169500  0.68835300  1
  C  C4  1  0.97066100  0.96830500  0.31164700  1
  C  C5  1  0.52933900  0.96830500  0.81164700  1
  C  C6  1  0.52933900  0.53169500  0.31164700  1
  C  C7  1  0.47066100  0.46830500  0.68835300  1
  N  N0  1  0.48138400  0.01714400  0.88353900  1
  N  N1  1  0.51861600  0.51714400  0.61646100  1
  N  N2  1  0.51861600  0.98285600  0.11646100  1
  N  N3  1  0.01861600  0.01714400  0.38353900  1
  N  N4  1  0.98138400  0.51714400  0.11646100  1
  N  N5  1  0.01861600  0.48285600  0.88353900  1
  N  N6  1  0.98138400  0.98285600  0.61646100  1
  N  N7  1  0.48138400  0.48285600  0.38353900  1
  Cl  Cl0  1  0.96947100  0.53048000  0.62697200  1
  Cl  Cl1  1  0.25000000  0.75000000  0.99926100  1
  Cl  Cl2  1  0.75000000  0.25000000  0.50073900  1
  Cl  Cl3  1  0.03052900  0.03048000  0.87302800  1
  Cl  Cl4  1  0.75000000  0.75000000  0.98128700  1
  Cl  Cl5  1  0.75000000  0.75000000  0.48128700  1
  Cl  Cl6  1  0.75000000  0.25000000  0.00073900  1
  Cl  Cl7  1  0.46947100  0.46952000  0.87302800  1
  Cl  Cl8  1  0.96947100  0.96952000  0.12697200  1
  Cl  Cl9  1  0.25000000  0.25000000  0.51871300  1
  Cl  Cl10  1  0.53052900  0.96952000  0.62697200  1
  Cl  Cl11  1  0.25000000  0.75000000  0.49926100  1
  Cl  Cl12  1  0.03052900  0.46952000  0.37302800  1
  Cl  Cl13  1  0.25000000  0.25000000  0.01871300  1
  Cl  Cl14  1  0.46947100  0.03048000  0.37302800  1
  Cl  Cl15  1  0.53052900  0.53048000  0.12697200  1
loop_
_geom_bond_atom_site_label_1
_geom_bond_atom_site_label_2
_geom_bond_distance
_geom_bond_site_symmetry_2
H0 N0 1.043956 1_555
H2 N4 1.038347 1_455
H3 N4 1.043956 1_555
H5 N5 1.038940 1_555
H10 N0 1.038940 1_565
H14 N7 1.038940 1_555
H15 N3 1.038347 1_665
H17 N1 1.038940 1_555
H20 N1 1.038347 1_555
H22 N2 1.038940 1_545
H23 N5 1.038347 1_655
H24 N7 1.038347 1_555
H27 N6 1.038347 1_445
H28 N2 1.043956 1_555
H32 N7 1.043956 1_555
H34 N6 1.038940 1_545
H35 N1 1.043956 1_555
H36 N2 1.038347 1_545
H38 N3 1.043956 1_555
H39 N5 1.043956 1_555
H40 N3 1.038940 1_565
H43 N0 1.038347 1_565
H44 N4 1.038940 1_555
H45 N6 1.043956 1_555
C0 H6 1.092434 1_455
C0 H46 1.093876 1_555
C0 H33 1.095121 1_555
C0 N4 1.485012 1_455
C1 H9 1.092434 1_545
C1 H19 1.093876 1_555
C1 H41 1.095121 1_545
C1 N2 1.485012 1_545
C2 H25 1.092434 1_655
C2 H29 1.093876 1_555
C2 H37 1.095121 1_555
C2 N5 1.485012 1_655
C3 H1 1.092434 1_445
C3 H8 1.093876 1_555
C3 H16 1.095121 1_545
C3 N6 1.485012 1_445
C4 H4 1.092434 1_665
C4 H47 1.093876 1_555
C4 H13 1.095121 1_565
C4 N3 1.485012 1_665
C5 H11 1.092434 1_565
C5 H31 1.093876 1_555
C5 H42 1.095121 1_565
C5 N0 1.485012 1_565
C6 H21 1.092434 1_555
C6 H18 1.093876 1_555
C6 H26 1.095121 1_555
C6 N7 1.485012 1_555
C7 H12 1.092434 1_555
C7 H30 1.093876 1_555
C7 H7 1.095121 1_555
C7 N1 1.485012 1_555
Cl0 Mn0 2.489979 1_655
Cl1 Mn3 2.579381 1_566
Cl1 Mn2 2.579381 1_556
Cl2 Mn0 2.579381 1_655
Cl2 Mn1 2.579381 1_555
Cl3 Mn3 2.489979 1_556
Cl4 Mn2 2.604902 1_556
Cl4 Mn3 2.604902 1_666
Cl5 Mn1 2.604902 1_565
Cl5 Mn0 2.604902 1_655
Cl6 Mn3 2.579381 1_655
Cl6 Mn2 2.579381 1_555
Cl7 Mn2 2.489979 1_556
Cl8 Mn3 2.489979 1_665
Cl9 Mn1 2.604902 1_555
Cl9 Mn0 2.604902 1_555
Cl10 Mn1 2.489979 1_565
Cl11 Mn0 2.579381 1_555
Cl11 Mn1 2.579381 1_565
Cl12 Mn0 2.489979 1_555
Cl13 Mn3 2.604902 1_555
Cl13 Mn2 2.604902 1_555
Cl14 Mn1 2.489979 1_555
Cl15 Mn2 2.489979 1_555
