# generated using pymatgen
data_AlPO4
_symmetry_space_group_name_H-M   'P 1'
_cell_length_a   8.83810654
_cell_length_b   8.83810654
_cell_length_c   9.71959845
_cell_angle_alpha   90.00000000
_cell_angle_beta   90.00000000
_cell_angle_gamma   121.56331386
_symmetry_Int_Tables_number   1
_chemical_formula_structural   AlPO4
_chemical_formula_sum   'Al6 P6 O24'
_cell_volume   646.90144347
_cell_formula_units_Z   6
loop_
 _symmetry_equiv_pos_site_id
 _symmetry_equiv_pos_as_xyz
  1  'x, y, z'
loop_
 _atom_site_type_symbol
 _atom_site_label
 _atom_site_symmetry_multiplicity
 _atom_site_fract_x
 _atom_site_fract_y
 _atom_site_fract_z
 _atom_site_occupancy
  Al  Al0  1  0.41017613  0.21638331  0.64769071  1
  Al  Al1  1  0.56155949  0.06155949  0.15370365  1
  Al  Al2  1  0.21638331  0.41017613  0.35230929  1
  Al  Al3  1  0.91017613  0.71638331  0.35230929  1
  Al  Al4  1  0.06155949  0.56155949  0.84629635  1
  Al  Al5  1  0.71638331  0.91017613  0.64769071  1
  P  P0  1  0.28485518  0.09167491  0.34555350  1
  P  P1  1  0.93642205  0.43642205  0.15965406  1
  P  P2  1  0.09167491  0.28485518  0.65444650  1
  P  P3  1  0.78485518  0.59167491  0.65444650  1
  P  P4  1  0.43642205  0.93642205  0.84034594  1
  P  P5  1  0.59167491  0.78485518  0.34555350  1
  O  O0  1  0.49795610  0.99795610  0.98590843  1
  O  O1  1  0.39983327  0.08428040  0.23375263  1
  O  O2  1  0.41329185  0.07455510  0.76700390  1
  O  O3  1  0.37856235  0.12539889  0.48391709  1
  O  O4  1  0.91666827  0.10893120  0.64898473  1
  O  O5  1  0.76106624  0.26106624  0.15789579  1
  O  O6  1  0.60893120  0.41666827  0.64898473  1
  O  O7  1  0.23990384  0.25145842  0.68747239  1
  O  O8  1  0.25145842  0.23990384  0.31252761  1
  O  O9  1  0.12539889  0.37856235  0.51608291  1
  O  O10  1  0.08428040  0.39983327  0.76624737  1
  O  O11  1  0.07455510  0.41329185  0.23299610  1
  O  O12  1  0.99795610  0.49795610  0.01409157  1
  O  O13  1  0.89983327  0.58428040  0.76624737  1
  O  O14  1  0.91329185  0.57455510  0.23299610  1
  O  O15  1  0.87856235  0.62539889  0.51608291  1
  O  O16  1  0.41666827  0.60893120  0.35101527  1
  O  O17  1  0.26106624  0.76106624  0.84210421  1
  O  O18  1  0.10893120  0.91666827  0.35101527  1
  O  O19  1  0.75145842  0.73990384  0.68747239  1
  O  O20  1  0.73990384  0.75145842  0.31252761  1
  O  O21  1  0.62539889  0.87856235  0.48391709  1
  O  O22  1  0.58428040  0.89983327  0.23375263  1
  O  O23  1  0.57455510  0.91329185  0.76700390  1
loop_
_geom_bond_atom_site_label_1
_geom_bond_atom_site_label_2
_geom_bond_distance
_geom_bond_site_symmetry_2
Al0 O2 1.718426 1_555
Al0 O6 1.721635 1_555
Al0 O7 1.731665 1_555
Al0 O3 1.738779 1_555
Al1 O0 1.720762 1_544
Al1 O5 1.721916 1_555
Al1 O22 1.728934 1_545
Al1 O1 1.728934 1_555
Al2 O11 1.718426 1_555
Al2 O16 1.721635 1_555
Al2 O8 1.731665 1_555
Al2 O9 1.738779 1_555
Al3 O14 1.718426 1_555
Al3 O18 1.721635 1_655
Al3 O20 1.731665 1_555
Al3 O15 1.738779 1_555
Al4 O12 1.720762 1_456
Al4 O17 1.721916 1_555
Al4 O13 1.728934 1_455
Al4 O10 1.728934 1_555
Al5 O23 1.718426 1_555
Al5 O4 1.721635 1_565
Al5 O19 1.731665 1_555
Al5 O21 1.738779 1_555
O0 P4 1.511154 1_555
O1 P0 1.512370 1_555
O2 P4 1.517123 1_545
O3 P0 1.524766 1_555
O4 P2 1.514941 1_655
O5 P1 1.513145 1_555
O6 P3 1.514941 1_555
O7 P2 1.520276 1_555
O8 P0 1.520276 1_555
O9 P2 1.524766 1_555
O10 P2 1.512370 1_555
O11 P1 1.517123 1_455
O12 P1 1.511154 1_555
O13 P3 1.512370 1_555
O14 P1 1.517123 1_555
O15 P3 1.524766 1_555
O16 P5 1.514941 1_555
O17 P4 1.513145 1_555
O18 P0 1.514941 1_565
O19 P3 1.520276 1_555
O20 P5 1.520276 1_555
O21 P5 1.524766 1_555
O22 P5 1.512370 1_555
O23 P4 1.517123 1_555
