# generated using pymatgen
data_K2NaNb(OF2)2
_symmetry_space_group_name_H-M   'P 1'
_cell_length_a   6.07810100
_cell_length_b   6.08342755
_cell_length_c   8.63949561
_cell_angle_alpha   89.81452900
_cell_angle_beta   89.94245549
_cell_angle_gamma   89.97564418
_symmetry_Int_Tables_number   1
_chemical_formula_structural   K2NaNb(OF2)2
_chemical_formula_sum   'K4 Na2 Nb2 O4 F8'
_cell_volume   319.44942292
_cell_formula_units_Z   2
loop_
 _symmetry_equiv_pos_site_id
 _symmetry_equiv_pos_as_xyz
  1  'x, y, z'
loop_
 _atom_site_type_symbol
 _atom_site_label
 _atom_site_symmetry_multiplicity
 _atom_site_fract_x
 _atom_site_fract_y
 _atom_site_fract_z
 _atom_site_occupancy
  K  K0  1  0.00067900  0.49739900  0.24741100  1
  K  K1  1  0.49806900  0.99561300  0.24779900  1
  K  K2  1  0.50473200  0.00126100  0.74633500  1
  K  K3  1  0.00256300  0.50070900  0.75383600  1
  Na  Na0  1  0.49984300  0.50484000  0.00154500  1
  Na  Na1  1  0.00057200  0.00253000  0.49885700  1
  Nb  Nb0  1  0.99982100  0.00363300  0.99890900  1
  Nb  Nb1  1  0.49777000  0.50277500  0.50007100  1
  O  O0  1  0.22238000  0.22349600  0.00213000  1
  O  O1  1  0.27779400  0.72534700  0.50001900  1
  O  O2  1  0.71646300  0.27801800  0.49811000  1
  O  O3  1  0.77695600  0.78279600  0.99984000  1
  F  F0  1  0.73666600  0.73757200  0.49673600  1
  F  F1  1  0.00221600  0.00651100  0.76405500  1
  F  F2  1  0.99846300  0.00169500  0.23517600  1
  F  F3  1  0.23369900  0.76448400  0.00217400  1
  F  F4  1  0.49519900  0.50480400  0.26340300  1
  F  F5  1  0.49646900  0.50167000  0.73513500  1
  F  F6  1  0.76291700  0.24099900  0.99717900  1
  F  F7  1  0.25881900  0.26822000  0.49780900  1
loop_
_geom_bond_atom_site_label_1
_geom_bond_atom_site_label_2
_geom_bond_distance
_geom_bond_site_symmetry_2
K0 O0 3.016303 1_555
K0 O3 3.068890 1_454
K0 O2 3.071200 1_455
K0 O1 3.090596 1_555
K1 O3 3.024484 1_554
K1 O1 3.035923 1_555
K1 O0 3.036552 1_565
K1 O2 3.069522 1_565
K2 O2 3.010441 1_555
K2 O1 3.046236 1_545
K2 O3 3.047515 1_545
K2 O0 3.109112 1_556
K3 O0 3.034974 1_556
K3 O3 3.059098 1_455
K3 O1 3.074055 1_555
K3 O2 3.125621 1_455
Na0 O3 2.387172 1_554
Na0 O0 2.403304 1_555
Na1 O1 2.383301 1_545
Na1 O2 2.405868 1_455
Nb0 O0 1.903020 1_656
Nb0 O3 1.908218 1_545
Nb1 O1 1.902483 1_555
Nb1 O2 1.906623 1_555
F0 Nb1 2.037373 1_555
F0 Na1 2.274604 1_665
F0 K1 3.029069 1_555
F0 K2 3.037271 1_565
F0 K0 3.059597 1_655
F0 K3 3.099443 1_655
F1 Nb0 2.029077 1_455
F1 Na1 2.291415 1_555
F1 K3 3.007430 1_555
F1 K2 3.027972 1_455
F1 K2 3.058182 1_555
F1 K3 3.078562 1_545
F2 Nb0 2.041232 1_554
F2 Na1 2.278142 1_655
F2 K0 3.017810 1_655
F2 K1 3.038928 1_645
F2 K1 3.043527 1_545
F2 K0 3.069351 1_645
F3 Nb0 2.033762 1_464
F3 Na0 2.260440 1_555
F3 K1 3.015015 1_555
F3 K0 3.018036 1_555
F3 K3 3.030193 1_554
F3 K2 3.106158 1_564
F4 Nb1 2.044765 1_555
F4 Na0 2.262468 1_555
F4 K1 2.988464 1_555
F4 K0 3.009418 1_555
F4 K0 3.075642 1_655
F4 K1 3.101036 1_545
F5 Nb1 2.030831 1_555
F5 Na0 2.301903 1_556
F5 K3 3.006200 1_555
F5 K2 3.041516 1_565
F5 K2 3.045821 1_555
F5 K3 3.080495 1_655
F6 Nb0 2.038843 1_555
F6 Na0 2.265500 1_556
F6 K3 3.002008 1_655
F6 K0 3.037289 1_656
F6 K2 3.052128 1_555
F6 K1 3.079306 1_546
F7 Nb1 2.036613 1_555
F7 Na1 2.253523 1_555
F7 K0 3.011792 1_555
F7 K3 3.054578 1_555
F7 K2 3.076289 1_555
F7 K1 3.089524 1_545
