# generated using pymatgen
data_SbHO3
_symmetry_space_group_name_H-M   'P 1'
_cell_length_a   7.50538775
_cell_length_b   7.26288817
_cell_length_c   7.26913842
_cell_angle_alpha   62.19084800
_cell_angle_beta   58.86401325
_cell_angle_gamma   58.94819287
_symmetry_Int_Tables_number   1
_chemical_formula_structural   SbHO3
_chemical_formula_sum   'Sb4 H4 O12'
_cell_volume   279.56682119
_cell_formula_units_Z   4
loop_
 _symmetry_equiv_pos_site_id
 _symmetry_equiv_pos_as_xyz
  1  'x, y, z'
loop_
 _atom_site_type_symbol
 _atom_site_label
 _atom_site_symmetry_multiplicity
 _atom_site_fract_x
 _atom_site_fract_y
 _atom_site_fract_z
 _atom_site_occupancy
  Sb  Sb0  1  0.25215796  0.25271492  0.99794869  1
  Sb  Sb1  1  0.75285077  0.25198886  0.99731448  1
  Sb  Sb2  1  0.25266136  0.25217726  0.49716759  1
  Sb  Sb3  1  0.25207723  0.75283075  0.99779725  1
  H  H0  1  0.51268617  0.84663975  0.59017568  1
  H  H1  1  0.84655911  0.51261416  0.05068087  1
  H  H2  1  0.19933565  0.65985383  0.40341146  1
  H  H3  1  0.65984083  0.19944211  0.73735274  1
  O  O0  1  0.35116364  0.91410468  0.65989483  1
  O  O1  1  0.91407634  0.35111215  0.07488171  1
  O  O2  1  0.94300251  0.94295813  0.05701735  1
  O  O3  1  0.31759726  0.31763653  0.68236046  1
  O  O4  1  0.30709615  0.94136657  0.06836631  1
  O  O5  1  0.94134987  0.30707632  0.68317872  1
  O  O6  1  0.17514145  0.59009204  0.33588508  1
  O  O7  1  0.59007382  0.17514490  0.89886855  1
  O  O8  1  0.56764735  0.56760288  0.93239329  1
  O  O9  1  0.19297574  0.19297235  0.30700027  1
  O  O10  1  0.18165105  0.56682515  0.94289264  1
  O  O11  1  0.56680975  0.18160064  0.30865804  1
loop_
_geom_bond_atom_site_label_1
_geom_bond_atom_site_label_2
_geom_bond_distance
_geom_bond_site_symmetry_2
H0 O0 0.974743 1_555
H1 O1 0.974710 1_555
H2 O6 0.974566 1_555
H3 O7 0.974695 1_555
O0 Sb3 2.069636 1_555
O0 Sb2 2.072771 1_565
O1 Sb1 2.069659 1_554
O1 Sb0 2.072859 1_654
O2 Sb1 1.920904 1_564
O2 Sb3 1.921107 1_654
O3 Sb2 1.946917 1_555
O3 Sb0 1.946969 1_555
O4 Sb0 1.929204 1_564
O4 Sb3 1.940740 1_554
O5 Sb2 1.929081 1_655
O5 Sb1 1.940764 1_555
O6 Sb2 2.069761 1_555
O6 Sb3 2.072796 1_554
O7 Sb0 2.069771 1_555
O7 Sb1 2.072761 1_555
O8 Sb3 1.946984 1_555
O8 Sb1 1.947132 1_555
O9 Sb0 1.920902 1_554
O9 Sb2 1.920986 1_555
O10 Sb3 1.929147 1_555
O10 Sb0 1.940731 1_555
O11 Sb1 1.929232 1_554
O11 Sb2 1.940896 1_555
