# generated using pymatgen
data_CdI2
_symmetry_space_group_name_H-M   'P 1'
_cell_length_a   4.34146390
_cell_length_b   4.34146390
_cell_length_c   103.15345200
_cell_angle_alpha   90.00000000
_cell_angle_beta   90.00000000
_cell_angle_gamma   119.99999850
_symmetry_Int_Tables_number   1
_chemical_formula_structural   CdI2
_chemical_formula_sum   'Cd14 I28'
_cell_volume   1683.78560740
_cell_formula_units_Z   14
loop_
 _symmetry_equiv_pos_site_id
 _symmetry_equiv_pos_as_xyz
  1  'x, y, z'
loop_
 _atom_site_type_symbol
 _atom_site_label
 _atom_site_symmetry_multiplicity
 _atom_site_fract_x
 _atom_site_fract_y
 _atom_site_fract_z
 _atom_site_occupancy
  Cd  Cd0  1  0.00000000  0.00000000  0.80357400  1
  Cd  Cd1  1  0.00000000  0.00000000  0.51784500  1
  Cd  Cd2  1  0.66666700  0.33333300  0.30357800  1
  Cd  Cd3  1  0.66666700  0.33333300  0.16071400  1
  Cd  Cd4  1  0.00000000  0.00000000  0.66071100  1
  Cd  Cd5  1  0.00000000  0.00000000  0.23215000  1
  Cd  Cd6  1  0.00000000  0.00000000  0.94643000  1
  Cd  Cd7  1  0.66666700  0.33333300  0.73214100  1
  Cd  Cd8  1  0.66666700  0.33333300  0.01785300  1
  Cd  Cd9  1  0.66666700  0.33333300  0.58928200  1
  Cd  Cd10  1  0.66666700  0.33333300  0.44644100  1
  Cd  Cd11  1  0.00000000  0.00000000  0.08928600  1
  Cd  Cd12  1  0.00000000  0.00000000  0.37499600  1
  Cd  Cd13  1  0.00000000  0.00000000  0.87500000  1
  I  I0  1  0.66666700  0.33333300  0.07253600  1
  I  I1  1  0.33333300  0.66666700  0.53459500  1
  I  I2  1  0.33333300  0.66666700  0.17746500  1
  I  I3  1  0.33333300  0.66666700  0.10604400  1
  I  I4  1  0.33333300  0.66666700  0.46317600  1
  I  I5  1  0.66666700  0.33333300  0.78683200  1
  I  I6  1  0.00000000  0.00000000  0.71538100  1
  I  I7  1  0.00000000  0.00000000  0.28681000  1
  I  I8  1  0.66666700  0.33333300  0.64395300  1
  I  I9  1  0.33333300  0.66666700  0.32032500  1
  I  I10  1  0.33333300  0.66666700  0.60604200  1
  I  I11  1  0.00000000  0.00000000  0.14395700  1
  I  I12  1  0.33333300  0.66666700  0.82032800  1
  I  I13  1  0.33333300  0.66666700  0.96316900  1
  I  I14  1  0.00000000  0.00000000  0.00112600  1
  I  I15  1  0.66666700  0.33333300  0.85826200  1
  I  I16  1  0.66666700  0.33333300  0.92967700  1
  I  I17  1  0.33333300  0.66666700  0.67746100  1
  I  I18  1  0.66666700  0.33333300  0.21540100  1
  I  I19  1  0.33333300  0.66666700  0.03460400  1
  I  I20  1  0.33333300  0.66666700  0.89173800  1
  I  I21  1  0.33333300  0.66666700  0.24890300  1
  I  I22  1  0.66666700  0.33333300  0.35825900  1
  I  I23  1  0.33333300  0.66666700  0.39173700  1
  I  I24  1  0.66666700  0.33333300  0.50109400  1
  I  I25  1  0.00000000  0.00000000  0.57254700  1
  I  I26  1  0.00000000  0.00000000  0.42968300  1
  I  I27  1  0.33333300  0.66666700  0.74889400  1
loop_
_geom_bond_atom_site_label_1
_geom_bond_atom_site_label_2
_geom_bond_distance
_geom_bond_site_symmetry_2
Cd0 I5 3.043890 1_455
Cd0 I5 3.043894 1_445
Cd0 I5 3.043894 1_555
Cd0 I12 3.044593 1_545
Cd0 I12 3.044596 1_445
Cd0 I12 3.044596 1_555
Cd1 I1 3.044359 1_545
Cd1 I1 3.044362 1_445
Cd1 I1 3.044362 1_555
Cd1 I24 3.044417 1_455
Cd1 I24 3.044420 1_445
Cd1 I24 3.044420 1_555
Cd2 I9 3.044183 1_655
Cd2 I9 3.044183 1_545
Cd2 I9 3.044189 1_555
Cd2 I7 3.045413 1_655
Cd2 I7 3.045416 1_665
Cd2 I7 3.045416 1_555
Cd3 I2 3.044417 1_655
Cd3 I2 3.044417 1_545
Cd3 I2 3.044423 1_555
Cd3 I11 3.044769 1_655
Cd3 I11 3.044772 1_555
Cd3 I11 3.044772 1_665
Cd4 I17 3.044359 1_545
Cd4 I17 3.044362 1_555
Cd4 I17 3.044362 1_445
Cd4 I8 3.044827 1_455
Cd4 I8 3.044830 1_555
Cd4 I8 3.044830 1_445
Cd5 I18 3.044300 1_455
Cd5 I18 3.044303 1_445
Cd5 I18 3.044303 1_555
Cd5 I21 3.044534 1_545
Cd5 I21 3.044538 1_555
Cd5 I21 3.044538 1_445
Cd6 I13 3.043715 1_545
Cd6 I13 3.043718 1_555
Cd6 I13 3.043718 1_445
Cd6 I16 3.044534 1_455
Cd6 I16 3.044538 1_555
Cd6 I16 3.044538 1_445
Cd7 I27 3.044534 1_655
Cd7 I27 3.044534 1_545
Cd7 I27 3.044541 1_555
Cd7 I6 3.044944 1_655
Cd7 I6 3.044947 1_555
Cd7 I6 3.044947 1_665
Cd8 I14 3.043013 1_655
Cd8 I14 3.043016 1_555
Cd8 I14 3.043016 1_665
Cd8 I19 3.044417 1_545
Cd8 I19 3.044417 1_655
Cd8 I19 3.044423 1_555
Cd9 I25 3.043481 1_655
Cd9 I25 3.043484 1_555
Cd9 I25 3.043484 1_665
Cd9 I10 3.044944 1_655
Cd9 I10 3.044944 1_545
Cd9 I10 3.044950 1_555
Cd10 I4 3.043481 1_545
Cd10 I4 3.043481 1_655
Cd10 I4 3.043487 1_555
Cd10 I26 3.044827 1_655
Cd10 I26 3.044830 1_665
Cd10 I26 3.044830 1_555
Cd11 I0 3.044359 1_455
Cd11 I0 3.044362 1_555
Cd11 I0 3.044362 1_445
Cd11 I3 3.044827 1_545
Cd11 I3 3.044830 1_555
Cd11 I3 3.044830 1_445
Cd12 I22 3.043598 1_455
Cd12 I22 3.043601 1_445
Cd12 I22 3.043601 1_555
Cd12 I23 3.043832 1_545
Cd12 I23 3.043835 1_445
Cd12 I23 3.043835 1_555
Cd13 I20 3.043656 1_545
Cd13 I15 3.043656 1_455
Cd13 I20 3.043659 1_445
Cd13 I20 3.043659 1_555
Cd13 I15 3.043659 1_555
Cd13 I15 3.043659 1_445
