# generated using pymatgen
data_Os3C12(IO6)2
_symmetry_space_group_name_H-M   'P 1'
_cell_length_a   11.70166300
_cell_length_b   9.38453000
_cell_length_c   12.78162954
_cell_angle_alpha   53.68403585
_cell_angle_beta   90.00000000
_cell_angle_gamma   90.00000000
_symmetry_Int_Tables_number   1
_chemical_formula_structural   Os3C12(IO6)2
_chemical_formula_sum   'Os6 C24 I4 O24'
_cell_volume   1130.97712830
_cell_formula_units_Z   2
loop_
 _symmetry_equiv_pos_site_id
 _symmetry_equiv_pos_as_xyz
  1  'x, y, z'
loop_
 _atom_site_type_symbol
 _atom_site_label
 _atom_site_symmetry_multiplicity
 _atom_site_fract_x
 _atom_site_fract_y
 _atom_site_fract_z
 _atom_site_occupancy
  Os  Os0  1  0.35272100  0.26545000  0.27406200  1
  Os  Os1  1  0.85272100  0.73455000  0.22593800  1
  Os  Os2  1  0.64727900  0.73455000  0.72593800  1
  Os  Os3  1  0.50000000  0.00000000  0.50000000  1
  Os  Os4  1  0.00000000  0.00000000  0.00000000  1
  Os  Os5  1  0.14727900  0.26545000  0.77406200  1
  C  C0  1  0.59243800  0.55808400  0.70107000  1
  C  C1  1  0.29549200  0.05441100  0.29365200  1
  C  C2  1  0.86652200  0.15184300  0.91053600  1
  C  C3  1  0.52063000  0.70870400  0.82987800  1
  C  C4  1  0.79549200  0.94558900  0.20634800  1
  C  C5  1  0.20450800  0.05441100  0.79365200  1
  C  C6  1  0.03005700  0.12108900  0.07953700  1
  C  C7  1  0.63347800  0.15184300  0.41053600  1
  C  C8  1  0.13347800  0.84815700  0.08946400  1
  C  C9  1  0.97937000  0.70870400  0.32987800  1
  C  C10  1  0.53005700  0.87891100  0.42046300  1
  C  C11  1  0.02063000  0.29129600  0.67012200  1
  C  C12  1  0.90756200  0.55808400  0.20107000  1
  C  C13  1  0.25461900  0.42923600  0.13025600  1
  C  C14  1  0.75461900  0.57076400  0.36974400  1
  C  C15  1  0.74538100  0.57076400  0.86974400  1
  C  C16  1  0.70450800  0.94558900  0.70634800  1
  C  C17  1  0.96994300  0.87891100  0.92046300  1
  C  C18  1  0.46994300  0.12108900  0.57953700  1
  C  C19  1  0.09243800  0.44191600  0.79893000  1
  C  C20  1  0.40756200  0.44191600  0.29893000  1
  C  C21  1  0.24538100  0.42923600  0.63025600  1
  C  C22  1  0.47937000  0.29129600  0.17012200  1
  C  C23  1  0.36652200  0.84815700  0.58946400  1
  I  I0  1  0.32835000  0.21674700  0.93785000  1
  I  I1  1  0.67165000  0.78325300  0.06215000  1
  I  I2  1  0.17165000  0.21674700  0.43785000  1
  I  I3  1  0.82835000  0.78325300  0.56215000  1
  O  O0  1  0.54612600  0.81032200  0.37062300  1
  O  O1  1  0.28973200  0.75458900  0.64454100  1
  O  O2  1  0.45387400  0.18967800  0.62937700  1
  O  O3  1  0.71026800  0.24541100  0.35545900  1
  O  O4  1  0.30297800  0.52718600  0.54220900  1
  O  O5  1  0.43556500  0.54648500  0.31406600  1
  O  O6  1  0.05490900  0.69173200  0.39550700  1
  O  O7  1  0.44509100  0.69173200  0.89550700  1
  O  O8  1  0.06443500  0.54648500  0.81406600  1
  O  O9  1  0.95387400  0.81032200  0.87062300  1
  O  O10  1  0.19702200  0.52718600  0.04220900  1
  O  O11  1  0.93556500  0.45351500  0.18593400  1
  O  O12  1  0.69702200  0.47281400  0.45779100  1
  O  O13  1  0.55490900  0.30826800  0.10449300  1
  O  O14  1  0.56443500  0.45351500  0.68593400  1
  O  O15  1  0.78973200  0.24541100  0.85545900  1
  O  O16  1  0.26050000  0.92972300  0.30638600  1
  O  O17  1  0.04612600  0.18967800  0.12937700  1
  O  O18  1  0.73950000  0.07027700  0.69361400  1
  O  O19  1  0.23950000  0.92972300  0.80638600  1
  O  O20  1  0.21026800  0.75458900  0.14454100  1
  O  O21  1  0.80297800  0.47281400  0.95779100  1
  O  O22  1  0.76050000  0.07027700  0.19361400  1
  O  O23  1  0.94509100  0.30826800  0.60449300  1
loop_
_geom_bond_atom_site_label_1
_geom_bond_atom_site_label_2
_geom_bond_distance
_geom_bond_site_symmetry_2
C0 O14 1.154421 1_555
C0 Os2 1.969477 1_555
C1 O16 1.156628 1_545
C1 Os0 1.961164 1_555
C2 O15 1.158389 1_555
C2 Os4 1.961547 1_656
C3 O7 1.162804 1_555
C3 Os2 1.907474 1_555
C4 O22 1.156628 1_565
C4 Os1 1.961164 1_555
C5 O19 1.156628 1_545
C5 Os5 1.961164 1_555
C6 O17 1.158093 1_555
C6 Os4 1.953684 1_555
C7 O3 1.158389 1_555
C7 Os3 1.961547 1_555
C8 O20 1.158389 1_555
C8 Os4 1.961547 1_565
C9 O6 1.162804 1_655
C9 Os1 1.907474 1_555
C10 O0 1.158093 1_555
C10 Os3 1.953684 1_565
C11 O23 1.162804 1_455
C11 Os5 1.907474 1_555
C12 O11 1.154421 1_555
C12 Os1 1.969477 1_555
C13 O10 1.157753 1_555
C13 Os0 1.926773 1_555
C14 O12 1.157753 1_555
C14 Os1 1.926773 1_555
C15 O21 1.157753 1_555
C15 Os2 1.926773 1_555
C16 O18 1.156628 1_565
C16 Os2 1.961164 1_555
C17 O9 1.158093 1_555
C17 Os4 1.953684 1_666
C18 O2 1.158093 1_555
C18 Os3 1.953684 1_555
C19 O8 1.154421 1_555
C19 Os5 1.969477 1_555
C20 O5 1.154421 1_555
C20 Os0 1.969477 1_555
C21 O4 1.157753 1_555
C21 Os5 1.926773 1_555
C22 O13 1.162804 1_555
C22 Os0 1.907474 1_555
C23 O1 1.158389 1_555
C23 Os3 1.961547 1_565
I0 Os5 2.819158 1_555
I1 Os1 2.819158 1_555
I2 Os0 2.819158 1_555
I3 Os2 2.819158 1_555
