# generated using pymatgen
data_RbSO2F
_symmetry_space_group_name_H-M   'P 1'
_cell_length_a   4.88563300
_cell_length_b   6.03002500
_cell_length_c   7.40027121
_cell_angle_alpha   90.00000000
_cell_angle_beta   107.79201355
_cell_angle_gamma   90.00000000
_symmetry_Int_Tables_number   1
_chemical_formula_structural   RbSO2F
_chemical_formula_sum   'Rb2 S2 O4 F2'
_cell_volume   207.58835784
_cell_formula_units_Z   2
loop_
 _symmetry_equiv_pos_site_id
 _symmetry_equiv_pos_as_xyz
  1  'x, y, z'
loop_
 _atom_site_type_symbol
 _atom_site_label
 _atom_site_symmetry_multiplicity
 _atom_site_fract_x
 _atom_site_fract_y
 _atom_site_fract_z
 _atom_site_occupancy
  Rb  Rb0  1  0.84315600  0.75000000  0.71523000  1
  Rb  Rb1  1  0.15684400  0.25000000  0.28477000  1
  S  S0  1  0.60099700  0.75000000  0.18390300  1
  S  S1  1  0.39900300  0.25000000  0.81609700  1
  O  O0  1  0.66522500  0.54699700  0.30174000  1
  O  O1  1  0.33477500  0.04699700  0.69826000  1
  O  O2  1  0.33477500  0.45300300  0.69826000  1
  O  O3  1  0.66522500  0.95300300  0.30174000  1
  F  F0  1  0.79198900  0.25000000  0.87669700  1
  F  F1  1  0.20801100  0.75000000  0.12330300  1
loop_
_geom_bond_atom_site_label_1
_geom_bond_atom_site_label_2
_geom_bond_distance
_geom_bond_site_symmetry_2
O0 S0 1.479906 1_555
O0 Rb1 3.029258 1_655
O0 Rb1 3.033406 1_555
O0 Rb0 3.160975 1_555
O1 S1 1.479906 1_555
O1 Rb0 3.029258 1_445
O1 Rb0 3.033406 1_545
O1 Rb1 3.160975 1_555
O2 S1 1.479906 1_555
O2 Rb0 3.029258 1_455
O2 Rb0 3.033406 1_555
O2 Rb1 3.160975 1_555
O3 S0 1.479906 1_555
O3 Rb1 3.029258 1_665
O3 Rb1 3.033406 1_565
O3 Rb0 3.160975 1_555
F0 S1 1.833374 1_555
F0 Rb1 3.001212 1_656
F0 Rb0 3.280720 1_555
F0 Rb0 3.280720 1_545
F1 S0 1.833374 1_555
F1 Rb0 3.001212 1_454
F1 Rb1 3.280720 1_565
F1 Rb1 3.280720 1_555
