# generated using pymatgen
data_YAl3(BO3)4
_symmetry_space_group_name_H-M   'P 1'
_cell_length_a   5.93059769
_cell_length_b   5.93059769
_cell_length_c   5.93059730
_cell_angle_alpha   104.28063699
_cell_angle_beta   104.28063699
_cell_angle_gamma   104.28064672
_symmetry_Int_Tables_number   1
_chemical_formula_structural   YAl3(BO3)4
_chemical_formula_sum   'Y1 Al3 B4 O12'
_cell_volume   185.09913093
_cell_formula_units_Z   1
loop_
 _symmetry_equiv_pos_site_id
 _symmetry_equiv_pos_as_xyz
  1  'x, y, z'
loop_
 _atom_site_type_symbol
 _atom_site_label
 _atom_site_symmetry_multiplicity
 _atom_site_fract_x
 _atom_site_fract_y
 _atom_site_fract_z
 _atom_site_occupancy
  Y  Y0  1  0.00000000  0.00000000  0.00000000  1
  Al  Al0  1  0.00000000  0.44479600  0.55520400  1
  Al  Al1  1  0.55520400  0.00000000  0.44479600  1
  Al  Al2  1  0.44479600  0.55520400  0.00000000  1
  B  B0  1  0.50000000  0.05652300  0.94347700  1
  B  B1  1  0.94347700  0.50000000  0.05652300  1
  B  B2  1  0.05652300  0.94347700  0.50000000  1
  B  B3  1  0.50000000  0.50000000  0.50000000  1
  O  O0  1  0.37231200  0.22065500  0.97175400  1
  O  O1  1  0.02824600  0.77934500  0.62768800  1
  O  O2  1  0.77934500  0.62768800  0.02824600  1
  O  O3  1  0.62768800  0.02824600  0.77934500  1
  O  O4  1  0.64863700  0.35136300  0.50000000  1
  O  O5  1  0.35136300  0.50000000  0.64863700  1
  O  O6  1  0.50000000  0.64863700  0.35136300  1
  O  O7  1  0.90820800  0.09179200  0.50000000  1
  O  O8  1  0.09179200  0.50000000  0.90820800  1
  O  O9  1  0.50000000  0.90820800  0.09179200  1
  O  O10  1  0.22065500  0.97175400  0.37231200  1
  O  O11  1  0.97175400  0.37231200  0.22065500  1
loop_
_geom_bond_atom_site_label_1
_geom_bond_atom_site_label_2
_geom_bond_distance
_geom_bond_site_symmetry_2
Al0 O11 1.878600 1_455
Al0 O1 1.878601 1_555
Al0 O4 1.939255 1_455
Al0 O5 1.939255 1_555
Al0 O8 1.948862 1_555
Al0 O7 1.948862 1_455
Al1 O3 1.878600 1_555
Al1 O10 1.878601 1_545
Al1 O4 1.939255 1_555
Al1 O6 1.939255 1_545
Al1 O9 1.948862 1_545
Al1 O7 1.948862 1_555
Al2 O2 1.878601 1_555
Al2 O0 1.878601 1_554
Al2 O6 1.939255 1_555
Al2 O5 1.939255 1_554
Al2 O9 1.948862 1_555
Al2 O8 1.948862 1_554
B0 O3 1.376538 1_555
B0 O0 1.376538 1_555
B0 O9 1.388911 1_546
B1 O11 1.376538 1_555
B1 O2 1.376538 1_555
B1 O8 1.388911 1_654
B2 O10 1.376538 1_555
B2 O1 1.376538 1_555
B2 O7 1.388912 1_465
B3 O6 1.391927 1_555
B3 O5 1.391927 1_555
B3 O4 1.391927 1_555
O0 Y0 2.341169 1_556
O1 Y0 2.341169 1_566
O2 Y0 2.341169 1_665
O3 Y0 2.341169 1_656
O10 Y0 2.341169 1_565
O11 Y0 2.341169 1_655
