# generated using pymatgen
data_K2Zn(CN)4
_symmetry_space_group_name_H-M   'P 1'
_cell_length_a   15.37969310
_cell_length_b   15.37969310
_cell_length_c   15.37969347
_cell_angle_alpha   32.44401191
_cell_angle_beta   32.44401191
_cell_angle_gamma   32.44401421
_symmetry_Int_Tables_number   1
_chemical_formula_structural   K2Zn(CN)4
_chemical_formula_sum   'K8 Zn4 C16 N16'
_cell_volume   930.89838015
_cell_formula_units_Z   4
loop_
 _symmetry_equiv_pos_site_id
 _symmetry_equiv_pos_as_xyz
  1  'x, y, z'
loop_
 _atom_site_type_symbol
 _atom_site_label
 _atom_site_symmetry_multiplicity
 _atom_site_fract_x
 _atom_site_fract_y
 _atom_site_fract_z
 _atom_site_occupancy
  K  K0  1  0.75000000  0.33237900  0.16762100  1
  K  K1  1  0.83237900  0.25000000  0.66762100  1
  K  K2  1  0.50000000  0.50000000  0.50000000  1
  K  K3  1  0.66762100  0.83237900  0.25000000  1
  K  K4  1  0.33237900  0.16762100  0.75000000  1
  K  K5  1  0.00000000  0.00000000  0.00000000  1
  K  K6  1  0.25000000  0.66762100  0.83237900  1
  K  K7  1  0.16762100  0.75000000  0.33237900  1
  Zn  Zn0  1  0.18509900  0.18509900  0.18509900  1
  Zn  Zn1  1  0.68509900  0.68509900  0.68509900  1
  Zn  Zn2  1  0.31490100  0.31490100  0.31490100  1
  Zn  Zn3  1  0.81490100  0.81490100  0.81490100  1
  C  C0  1  0.54711700  0.22607700  0.12327700  1
  C  C1  1  0.22607700  0.12327700  0.54711700  1
  C  C2  1  0.13898800  0.13898800  0.13898800  1
  C  C3  1  0.27392300  0.95288300  0.37672300  1
  C  C4  1  0.87672300  0.45288300  0.77392300  1
  C  C5  1  0.63898800  0.63898800  0.63898800  1
  C  C6  1  0.12327700  0.54711700  0.22607700  1
  C  C7  1  0.95288300  0.37672300  0.27392300  1
  C  C8  1  0.36101200  0.36101200  0.36101200  1
  C  C9  1  0.45288300  0.77392300  0.87672300  1
  C  C10  1  0.37672300  0.27392300  0.95288300  1
  C  C11  1  0.04711700  0.62327700  0.72607700  1
  C  C12  1  0.77392300  0.87672300  0.45288300  1
  C  C13  1  0.86101200  0.86101200  0.86101200  1
  C  C14  1  0.72607700  0.04711700  0.62327700  1
  C  C15  1  0.62327700  0.72607700  0.04711700  1
  N  N0  1  0.31646900  0.82973100  0.98438100  1
  N  N1  1  0.17026900  0.01561900  0.68353100  1
  N  N2  1  0.67026900  0.18353100  0.51561900  1
  N  N3  1  0.32973100  0.81646900  0.48438100  1
  N  N4  1  0.01561900  0.68353100  0.17026900  1
  N  N5  1  0.88782200  0.88782200  0.88782200  1
  N  N6  1  0.82973100  0.98438100  0.31646900  1
  N  N7  1  0.38782200  0.38782200  0.38782200  1
  N  N8  1  0.61217800  0.61217800  0.61217800  1
  N  N9  1  0.51561900  0.67026900  0.18353100  1
  N  N10  1  0.68353100  0.17026900  0.01561900  1
  N  N11  1  0.48438100  0.32973100  0.81646900  1
  N  N12  1  0.98438100  0.31646900  0.82973100  1
  N  N13  1  0.81646900  0.48438100  0.32973100  1
  N  N14  1  0.11217800  0.11217800  0.11217800  1
  N  N15  1  0.18353100  0.51561900  0.67026900  1
loop_
_geom_bond_atom_site_label_1
_geom_bond_atom_site_label_2
_geom_bond_distance
_geom_bond_site_symmetry_2
K0 N7 2.870751 1_555
K0 N14 2.870751 1_655
K0 N6 2.893163 1_545
K0 N2 2.893163 1_555
K0 N12 3.016496 1_554
K0 N9 3.016496 1_555
K1 N5 2.870751 1_545
K1 N8 2.870751 1_555
K1 N11 2.893163 1_555
K1 N10 2.893163 1_556
K1 N13 3.016496 1_555
K1 N1 3.016496 1_655
K2 N15 2.860183 1_555
K2 N13 2.860183 1_555
K2 N2 2.860183 1_555
K2 N3 2.860183 1_555
K2 N9 2.860183 1_555
K2 N11 2.860183 1_555
K3 N5 2.870751 1_554
K3 N8 2.870751 1_555
K3 N13 2.893163 1_555
K3 N4 2.893163 1_655
K3 N3 3.016496 1_555
K3 N10 3.016496 1_565
K4 N7 2.870751 1_555
K4 N14 2.870751 1_556
K4 N12 2.893163 1_455
K4 N15 2.893163 1_555
K4 N0 3.016496 1_545
K4 N2 3.016496 1_555
K5 N12 2.860183 1_454
K5 N4 2.860183 1_545
K5 N0 2.860183 1_544
K5 N10 2.860183 1_455
K5 N6 2.860183 1_445
K5 N1 2.860183 1_554
K6 N8 2.870751 1_555
K6 N5 2.870751 1_455
K6 N1 2.893163 1_565
K6 N3 2.893163 1_555
K6 N4 3.016496 1_556
K6 N11 3.016496 1_555
K7 N14 2.870751 1_565
K7 N7 2.870751 1_555
K7 N9 2.893163 1_555
K7 N0 2.893163 1_554
K7 N15 3.016496 1_555
K7 N6 3.016496 1_455
C0 N10 1.173028 1_555
C0 Zn2 2.025381 1_555
C1 N1 1.173028 1_555
C1 Zn2 2.025381 1_555
C2 N14 1.170863 1_555
C2 Zn0 2.013789 1_555
C3 N3 1.173028 1_555
C3 Zn0 2.025381 1_565
C4 N12 1.173028 1_555
C4 Zn1 2.025381 1_555
C5 N8 1.170863 1_555
C5 Zn1 2.013789 1_555
C6 N4 1.173028 1_555
C6 Zn2 2.025381 1_555
C7 N13 1.173028 1_555
C7 Zn0 2.025381 1_655
C8 N7 1.170863 1_555
C8 Zn2 2.013789 1_555
C9 N0 1.173028 1_555
C9 Zn1 2.025381 1_555
C10 N11 1.173028 1_555
C10 Zn0 2.025381 1_556
C11 N15 1.173028 1_555
C11 Zn3 2.025381 1_455
C12 N6 1.173028 1_555
C12 Zn1 2.025381 1_555
C13 N5 1.170863 1_555
C13 Zn3 2.013789 1_555
C14 N2 1.173028 1_555
C14 Zn3 2.025381 1_545
C15 N9 1.173028 1_555
C15 Zn3 2.025381 1_554
