# generated using pymatgen
data_BaH4O3
_symmetry_space_group_name_H-M   'P 1'
_cell_length_a   4.19053039
_cell_length_b   6.26501052
_cell_length_c   7.09249950
_cell_angle_alpha   65.94374042
_cell_angle_beta   90.00121107
_cell_angle_gamma   90.00125561
_symmetry_Int_Tables_number   1
_chemical_formula_structural   BaH4O3
_chemical_formula_sum   'Ba2 H8 O6'
_cell_volume   170.03180329
_cell_formula_units_Z   2
loop_
 _symmetry_equiv_pos_site_id
 _symmetry_equiv_pos_as_xyz
  1  'x, y, z'
loop_
 _atom_site_type_symbol
 _atom_site_label
 _atom_site_symmetry_multiplicity
 _atom_site_fract_x
 _atom_site_fract_y
 _atom_site_fract_z
 _atom_site_occupancy
  Ba  Ba0  1  0.25001467  0.86403835  0.28855483  1
  Ba  Ba1  1  0.74999023  0.13595092  0.71144846  1
  H  H0  1  0.74998528  0.61944611  0.11645472  1
  H  H1  1  0.24999470  0.38055862  0.88354427  1
  H  H2  1  0.74999990  0.25118340  0.13042097  1
  H  H3  1  0.24999150  0.74882342  0.86958117  1
  H  H4  1  0.55899113  0.67266498  0.67965037  1
  H  H5  1  0.94097309  0.67266038  0.67964219  1
  H  H6  1  0.44100575  0.32734176  0.32035171  1
  H  H7  1  0.05903824  0.32735401  0.32035807  1
  O  O0  1  0.75002327  0.61758910  0.62469922  1
  O  O1  1  0.24998487  0.38240851  0.37530931  1
  O  O2  1  0.74999779  0.78517751  0.08342181  1
  O  O3  1  0.25000577  0.21480273  0.91657384  1
  O  O4  1  0.74998797  0.20207199  0.27885637  1
  O  O5  1  0.25001484  0.79792723  0.72113068  1
loop_
_geom_bond_atom_site_label_1
_geom_bond_atom_site_label_2
_geom_bond_distance
_geom_bond_site_symmetry_2
Ba0 O3 2.657630 1_564
Ba0 O2 2.708670 1_555
Ba0 O2 2.708715 1_455
Ba0 O1 2.823074 1_555
Ba1 O2 2.657618 1_546
Ba1 O3 2.708618 1_555
Ba1 O3 2.708655 1_655
Ba1 O0 2.823134 1_555
H0 O2 0.966774 1_555
H1 O3 0.966929 1_555
H2 O4 0.968983 1_555
H3 O5 0.969091 1_555
H4 O0 1.010674 1_555
H4 O5 1.602231 1_555
H5 O0 1.010331 1_555
H5 O5 1.602454 1_655
H6 O1 1.010633 1_555
H6 O4 1.602319 1_555
H7 O1 1.010299 1_555
H7 O4 1.602572 1_455
