# generated using pymatgen
data_Rb4CO4
_symmetry_space_group_name_H-M   'P 1'
_cell_length_a   5.08491728
_cell_length_b   5.08491728
_cell_length_c   6.49755500
_cell_angle_alpha   90.00000000
_cell_angle_beta   90.00000000
_cell_angle_gamma   96.11393257
_symmetry_Int_Tables_number   1
_chemical_formula_structural   Rb4CO4
_chemical_formula_sum   'Rb4 C1 O4'
_cell_volume   167.04768509
_cell_formula_units_Z   1
loop_
 _symmetry_equiv_pos_site_id
 _symmetry_equiv_pos_as_xyz
  1  'x, y, z'
loop_
 _atom_site_type_symbol
 _atom_site_label
 _atom_site_symmetry_multiplicity
 _atom_site_fract_x
 _atom_site_fract_y
 _atom_site_fract_z
 _atom_site_occupancy
  Rb  Rb0  1  0.99261900  0.00738100  0.70691600  1
  Rb  Rb1  1  0.99906700  0.50455700  0.00000000  1
  Rb  Rb2  1  0.49544300  0.00093300  0.00000000  1
  Rb  Rb3  1  0.99261900  0.00738100  0.29308400  1
  C  C0  1  0.41508500  0.58491500  0.50000000  1
  O  O0  1  0.51703600  0.48296400  0.69337800  1
  O  O1  1  0.13619200  0.52283700  0.50000000  1
  O  O2  1  0.47716300  0.86380800  0.50000000  1
  O  O3  1  0.51703600  0.48296400  0.30662200  1
loop_
_geom_bond_atom_site_label_1
_geom_bond_atom_site_label_2
_geom_bond_distance
_geom_bond_site_symmetry_2
C0 O2 1.419658 1_555
C0 O1 1.419658 1_555
C0 O0 1.474280 1_555
C0 O3 1.474280 1_555
O0 Rb1 3.151475 1_556
O0 Rb2 3.151475 1_556
O0 Rb2 3.313600 1_566
O0 Rb1 3.313600 1_456
O1 Rb3 2.965521 1_465
O1 Rb0 2.965521 1_465
O1 Rb0 2.966957 1_455
O1 Rb3 2.966957 1_455
O1 Rb1 3.321983 1_456
O1 Rb1 3.321983 1_455
O2 Rb0 2.965521 1_465
O2 Rb3 2.965521 1_465
O2 Rb3 2.966957 1_565
O2 Rb0 2.966957 1_565
O2 Rb2 3.321983 1_566
O2 Rb2 3.321983 1_565
O3 Rb1 3.151475 1_555
O3 Rb2 3.151475 1_555
O3 Rb2 3.313600 1_565
O3 Rb1 3.313600 1_455
