# generated using pymatgen
data_Eu(LuSe2)2
_symmetry_space_group_name_H-M   'P 1'
_cell_length_a   4.04198056
_cell_length_b   12.37246311
_cell_length_c   14.61537801
_cell_angle_alpha   90.00000000
_cell_angle_beta   90.00000000
_cell_angle_gamma   90.00000000
_symmetry_Int_Tables_number   1
_chemical_formula_structural   Eu(LuSe2)2
_chemical_formula_sum   'Eu4 Lu8 Se16'
_cell_volume   730.90417123
_cell_formula_units_Z   4
loop_
 _symmetry_equiv_pos_site_id
 _symmetry_equiv_pos_as_xyz
  1  'x, y, z'
loop_
 _atom_site_type_symbol
 _atom_site_label
 _atom_site_symmetry_multiplicity
 _atom_site_fract_x
 _atom_site_fract_y
 _atom_site_fract_z
 _atom_site_occupancy
  Eu  Eu0  1  0.75000000  0.74002918  0.83375867  1
  Eu  Eu1  1  0.75000000  0.24002918  0.66624133  1
  Eu  Eu2  1  0.25000000  0.25997082  0.16624133  1
  Eu  Eu3  1  0.25000000  0.75997082  0.33375867  1
  Lu  Lu0  1  0.75000000  0.06029526  0.88848960  1
  Lu  Lu1  1  0.25000000  0.41634192  0.90275490  1
  Lu  Lu2  1  0.75000000  0.58365808  0.09724510  1
  Lu  Lu3  1  0.75000000  0.56029526  0.61151040  1
  Lu  Lu4  1  0.75000000  0.08365808  0.40275490  1
  Lu  Lu5  1  0.25000000  0.91634192  0.59724510  1
  Lu  Lu6  1  0.25000000  0.93970474  0.11151040  1
  Lu  Lu7  1  0.25000000  0.43970474  0.38848960  1
  Se  Se0  1  0.75000000  0.97188019  0.71489917  1
  Se  Se1  1  0.25000000  0.52811981  0.21489917  1
  Se  Se2  1  0.75000000  0.47188019  0.78510083  1
  Se  Se3  1  0.25000000  0.02811981  0.28510083  1
  Se  Se4  1  0.75000000  0.29543880  0.33045665  1
  Se  Se5  1  0.25000000  0.62830201  0.96894717  1
  Se  Se6  1  0.25000000  0.40872246  0.57622768  1
  Se  Se7  1  0.75000000  0.59127754  0.42377232  1
  Se  Se8  1  0.75000000  0.37169799  0.03105283  1
  Se  Se9  1  0.25000000  0.90872246  0.92377232  1
  Se  Se10  1  0.25000000  0.20456120  0.83045665  1
  Se  Se11  1  0.25000000  0.12830201  0.53105283  1
  Se  Se12  1  0.75000000  0.09127754  0.07622768  1
  Se  Se13  1  0.25000000  0.70456120  0.66954335  1
  Se  Se14  1  0.75000000  0.79543880  0.16954335  1
  Se  Se15  1  0.75000000  0.87169799  0.46894717  1
loop_
_geom_bond_atom_site_label_1
_geom_bond_atom_site_label_2
_geom_bond_distance
_geom_bond_site_symmetry_2
Eu0 Se5 3.146295 1_655
Eu0 Se5 3.146295 1_555
Eu0 Se13 3.168170 1_555
Eu0 Se13 3.168170 1_655
Eu0 Se9 3.189257 1_555
Eu0 Se9 3.189257 1_655
Eu0 Se0 3.353575 1_555
Eu0 Se2 3.393027 1_555
Eu1 Se11 3.146295 1_555
Eu1 Se11 3.146295 1_655
Eu1 Se10 3.168170 1_655
Eu1 Se10 3.168170 1_555
Eu1 Se6 3.189257 1_555
Eu1 Se6 3.189257 1_655
Eu1 Se2 3.353575 1_555
Eu1 Se0 3.393027 1_545
Eu2 Se8 3.146295 1_555
Eu2 Se8 3.146295 1_455
Eu2 Se4 3.168170 1_555
Eu2 Se4 3.168170 1_455
Eu2 Se12 3.189257 1_555
Eu2 Se12 3.189257 1_455
Eu2 Se3 3.353575 1_555
Eu2 Se1 3.393027 1_555
Eu3 Se15 3.146295 1_455
Eu3 Se15 3.146295 1_555
Eu3 Se14 3.168170 1_455
Eu3 Se14 3.168170 1_555
Eu3 Se7 3.189257 1_555
Eu3 Se7 3.189257 1_455
Eu3 Se1 3.353575 1_555
Eu3 Se3 3.393027 1_565
Lu0 Se0 2.762873 1_545
Lu0 Se12 2.770510 1_556
Lu0 Se9 2.804849 1_645
Lu0 Se9 2.804849 1_545
Lu0 Se10 2.826616 1_655
Lu0 Se10 2.826616 1_555
Lu1 Se2 2.741068 1_455
Lu1 Se2 2.741068 1_555
Lu1 Se5 2.795219 1_555
Lu1 Se8 2.811687 1_456
Lu1 Se8 2.811687 1_556
Lu1 Se10 2.825287 1_555
Lu2 Se1 2.741068 1_655
Lu2 Se1 2.741068 1_555
Lu2 Se8 2.795219 1_555
Lu2 Se5 2.811687 1_654
Lu2 Se5 2.811687 1_554
Lu2 Se14 2.825287 1_555
Lu3 Se2 2.762873 1_555
Lu3 Se7 2.770510 1_555
Lu3 Se6 2.804849 1_555
Lu3 Se6 2.804849 1_655
Lu3 Se13 2.826616 1_555
Lu3 Se13 2.826616 1_655
Lu4 Se3 2.741068 1_555
Lu4 Se3 2.741068 1_655
Lu4 Se15 2.795219 1_545
Lu4 Se11 2.811687 1_555
Lu4 Se11 2.811687 1_655
Lu4 Se4 2.825287 1_555
Lu5 Se0 2.741068 1_455
Lu5 Se0 2.741068 1_555
Lu5 Se11 2.795219 1_565
Lu5 Se15 2.811687 1_455
Lu5 Se15 2.811687 1_555
Lu5 Se13 2.825287 1_555
Lu6 Se3 2.762873 1_565
Lu6 Se9 2.770510 1_554
Lu6 Se12 2.804849 1_565
Lu6 Se12 2.804849 1_465
Lu6 Se14 2.826616 1_455
Lu6 Se14 2.826616 1_555
Lu7 Se1 2.762873 1_555
Lu7 Se6 2.770510 1_555
Lu7 Se7 2.804849 1_555
Lu7 Se7 2.804849 1_455
Lu7 Se4 2.826616 1_555
Lu7 Se4 2.826616 1_455
