# generated using pymatgen
data_H10C5SeS2N3Cl
_symmetry_space_group_name_H-M   'P 1'
_cell_length_a   9.06012300
_cell_length_b   11.71785600
_cell_length_c   22.30699000
_cell_angle_alpha   90.00000000
_cell_angle_beta   90.00000000
_cell_angle_gamma   90.00000000
_symmetry_Int_Tables_number   1
_chemical_formula_structural   H10C5SeS2N3Cl
_chemical_formula_sum   'H80 C40 Se8 S16 N24 Cl8'
_cell_volume   2368.22642630
_cell_formula_units_Z   8
loop_
 _symmetry_equiv_pos_site_id
 _symmetry_equiv_pos_as_xyz
  1  'x, y, z'
loop_
 _atom_site_type_symbol
 _atom_site_label
 _atom_site_symmetry_multiplicity
 _atom_site_fract_x
 _atom_site_fract_y
 _atom_site_fract_z
 _atom_site_occupancy
  H  H0  1  0.40716000  0.97395200  0.33737500  1
  H  H1  1  0.59284000  0.47395200  0.16262500  1
  H  H2  1  0.29891900  0.29170000  0.10266300  1
  H  H3  1  0.71061000  0.76994500  0.31722500  1
  H  H4  1  0.65122000  0.51308200  0.88222100  1
  H  H5  1  0.70985700  0.52339000  0.29288100  1
  H  H6  1  0.79014300  0.02339000  0.29288100  1
  H  H7  1  0.04192300  0.16661400  0.81092000  1
  H  H8  1  0.78939000  0.26994500  0.31722500  1
  H  H9  1  0.45807700  0.83338600  0.31092000  1
  H  H10  1  0.34542400  0.85778600  0.14443600  1
  H  H11  1  0.84542400  0.64221400  0.85556400  1
  H  H12  1  0.94913700  0.86408100  0.11007600  1
  H  H13  1  0.84379400  0.05881200  0.75083400  1
  H  H14  1  0.34379400  0.44118800  0.24916600  1
  H  H15  1  0.89766200  0.92794700  0.78555700  1
  H  H16  1  0.34542400  0.64221400  0.64443600  1
  H  H17  1  0.79891900  0.20830000  0.89733700  1
  H  H18  1  0.09284000  0.47395200  0.33737500  1
  H  H19  1  0.70985700  0.97661000  0.79288100  1
  H  H20  1  0.84878000  0.48691800  0.38222100  1
  H  H21  1  0.20108100  0.79170000  0.10266300  1
  H  H22  1  0.05086300  0.13591900  0.88992400  1
  H  H23  1  0.84878000  0.01308200  0.88222100  1
  H  H24  1  0.90716000  0.97395200  0.16262500  1
  H  H25  1  0.15457600  0.35778600  0.14443600  1
  H  H26  1  0.28939000  0.26994500  0.18277500  1
  H  H27  1  0.55086300  0.13591900  0.61007600  1
  H  H28  1  0.95807700  0.66661400  0.68908000  1
  H  H29  1  0.10233800  0.07205300  0.21444300  1
  H  H30  1  0.15620600  0.55881200  0.74916600  1
  H  H31  1  0.10233800  0.42794700  0.71444300  1
  H  H32  1  0.29014300  0.47661000  0.70711900  1
  H  H33  1  0.71061000  0.73005500  0.81722500  1
  H  H34  1  0.44913700  0.86408100  0.38992400  1
  H  H35  1  0.15457600  0.14221400  0.64443600  1
  H  H36  1  0.59284000  0.02604800  0.66262500  1
  H  H37  1  0.94913700  0.63591900  0.61007600  1
  H  H38  1  0.39766200  0.57205300  0.21444300  1
  H  H39  1  0.04192300  0.33338600  0.31092000  1
  H  H40  1  0.65457600  0.35778600  0.35556400  1
  H  H41  1  0.55086300  0.36408100  0.11007600  1
  H  H42  1  0.70108100  0.70830000  0.89733700  1
  H  H43  1  0.21061000  0.73005500  0.68277500  1
  H  H44  1  0.15122000  0.98691800  0.11777900  1
  H  H45  1  0.40716000  0.52604800  0.83737500  1
  H  H46  1  0.29891900  0.20830000  0.60266300  1
  H  H47  1  0.44913700  0.63591900  0.88992400  1
  H  H48  1  0.78939000  0.23005500  0.81722500  1
  H  H49  1  0.05086300  0.36408100  0.38992400  1
  H  H50  1  0.79014300  0.47661000  0.79288100  1
  H  H51  1  0.15122000  0.51308200  0.61777900  1
  H  H52  1  0.34878000  0.48691800  0.11777900  1
  H  H53  1  0.39766200  0.92794700  0.71444300  1
  H  H54  1  0.09284000  0.02604800  0.83737500  1
  H  H55  1  0.34379400  0.05881200  0.74916600  1
  H  H56  1  0.20108100  0.70830000  0.60266300  1
  H  H57  1  0.20985700  0.97661000  0.70711900  1
  H  H58  1  0.65620600  0.55881200  0.75083400  1
  H  H59  1  0.34878000  0.01308200  0.61777900  1
  H  H60  1  0.60233800  0.07205300  0.28555700  1
  H  H61  1  0.65457600  0.14221400  0.85556400  1
  H  H62  1  0.79891900  0.29170000  0.39733700  1
  H  H63  1  0.45807700  0.66661400  0.81092000  1
  H  H64  1  0.15620600  0.94118800  0.24916600  1
  H  H65  1  0.20985700  0.52339000  0.20711900  1
  H  H66  1  0.84542400  0.85778600  0.35556400  1
  H  H67  1  0.28939000  0.23005500  0.68277500  1
  H  H68  1  0.90716000  0.52604800  0.66262500  1
  H  H69  1  0.29014300  0.02339000  0.20711900  1
  H  H70  1  0.54192300  0.33338600  0.18908000  1
  H  H71  1  0.60233800  0.42794700  0.78555700  1
  H  H72  1  0.54192300  0.16661400  0.68908000  1
  H  H73  1  0.65122000  0.98691800  0.38222100  1
  H  H74  1  0.70108100  0.79170000  0.39733700  1
  H  H75  1  0.21061000  0.76994500  0.18277500  1
  H  H76  1  0.95807700  0.83338600  0.18908000  1
  H  H77  1  0.65620600  0.94118800  0.25083400  1
  H  H78  1  0.84379400  0.44118800  0.25083400  1
  H  H79  1  0.89766200  0.57205300  0.28555700  1
  C  C0  1  0.37809700  0.25598400  0.84244500  1
  C  C1  1  0.87809700  0.25598400  0.65755500  1
  C  C2  1  0.37809700  0.24401600  0.34244500  1
  C  C3  1  0.02464000  0.39833000  0.34548300  1
  C  C4  1  0.94743500  0.57310600  0.10342100  1
  C  C5  1  0.17444900  0.99708200  0.21057400  1
  C  C6  1  0.02464000  0.10167000  0.84548300  1
  C  C7  1  0.05256500  0.42689400  0.89657900  1
  C  C8  1  0.82555100  0.49708200  0.28942600  1
  C  C9  1  0.62190300  0.74401600  0.15755500  1
  C  C10  1  0.97536000  0.89833000  0.15451700  1
  C  C11  1  0.26991600  0.32993800  0.14592900  1
  C  C12  1  0.67444900  0.99708200  0.28942600  1
  C  C13  1  0.52464000  0.39833000  0.15451700  1
  C  C14  1  0.47536000  0.60167000  0.84548300  1
  C  C15  1  0.23008400  0.67006200  0.64592900  1
  C  C16  1  0.82555100  0.00291800  0.78942600  1
  C  C17  1  0.97536000  0.60167000  0.65451700  1
  C  C18  1  0.62190300  0.75598400  0.65755500  1
  C  C19  1  0.26991600  0.17006200  0.64592900  1
  C  C20  1  0.94743500  0.92689400  0.60342100  1
  C  C21  1  0.52464000  0.10167000  0.65451700  1
  C  C22  1  0.67444900  0.50291800  0.78942600  1
  C  C23  1  0.32555100  0.00291800  0.71057400  1
  C  C24  1  0.23008400  0.82993800  0.14592900  1
  C  C25  1  0.05256500  0.07310600  0.39657900  1
  C  C26  1  0.47536000  0.89833000  0.34548300  1
  C  C27  1  0.76991600  0.32993800  0.35407100  1
  C  C28  1  0.17444900  0.50291800  0.71057400  1
  C  C29  1  0.55256500  0.07310600  0.10342100  1
  C  C30  1  0.87809700  0.24401600  0.15755500  1
  C  C31  1  0.12190300  0.75598400  0.84244500  1
  C  C32  1  0.76991600  0.17006200  0.85407100  1
  C  C33  1  0.73008400  0.67006200  0.85407100  1
  C  C34  1  0.32555100  0.49708200  0.21057400  1
  C  C35  1  0.12190300  0.74401600  0.34244500  1
  C  C36  1  0.55256500  0.42689400  0.60342100  1
  C  C37  1  0.44743500  0.57310600  0.39657900  1
  C  C38  1  0.73008400  0.82993800  0.35407100  1
  C  C39  1  0.44743500  0.92689400  0.89657900  1
  Se  Se0  1  0.33972500  0.12010700  0.46405500  1
  Se  Se1  1  0.33972500  0.37989300  0.96405500  1
  Se  Se2  1  0.83972500  0.12010700  0.03594500  1
  Se  Se3  1  0.83972500  0.37989300  0.53594500  1
  Se  Se4  1  0.66027500  0.87989300  0.53594500  1
  Se  Se5  1  0.66027500  0.62010700  0.03594500  1
  Se  Se6  1  0.16027500  0.87989300  0.96405500  1
  Se  Se7  1  0.16027500  0.62010700  0.46405500  1
  S  S0  1  0.12835000  0.78961600  0.41325500  1
  S  S1  1  0.08665500  0.12803500  0.46417700  1
  S  S2  1  0.58665500  0.37196500  0.53582300  1
  S  S3  1  0.91334500  0.87196500  0.53582300  1
  S  S4  1  0.12835000  0.71038400  0.91325500  1
  S  S5  1  0.87165000  0.28961600  0.08674500  1
  S  S6  1  0.08665500  0.37196500  0.96417700  1
  S  S7  1  0.41334500  0.87196500  0.96417700  1
  S  S8  1  0.37165000  0.28961600  0.41325500  1
  S  S9  1  0.58665500  0.12803500  0.03582300  1
  S  S10  1  0.91334500  0.62803500  0.03582300  1
  S  S11  1  0.41334500  0.62803500  0.46417700  1
  S  S12  1  0.62835000  0.78961600  0.08674500  1
  S  S13  1  0.37165000  0.21038400  0.91325500  1
  S  S14  1  0.62835000  0.71038400  0.58674500  1
  S  S15  1  0.87165000  0.21038400  0.58674500  1
  N  N0  1  0.36566800  0.06772200  0.65507700  1
  N  N1  1  0.52615600  0.46392000  0.65127700  1
  N  N2  1  0.61687600  0.78395400  0.70834400  1
  N  N3  1  0.38312400  0.21604600  0.29165600  1
  N  N4  1  0.02615600  0.46392000  0.84872300  1
  N  N5  1  0.63433200  0.93227800  0.34492300  1
  N  N6  1  0.36566800  0.43227800  0.15507700  1
  N  N7  1  0.02615600  0.03608000  0.34872300  1
  N  N8  1  0.52615600  0.03608000  0.15127700  1
  N  N9  1  0.38312400  0.28395400  0.79165600  1
  N  N10  1  0.86566800  0.43227800  0.34492300  1
  N  N11  1  0.13433200  0.56772200  0.65507700  1
  N  N12  1  0.63433200  0.56772200  0.84492300  1
  N  N13  1  0.88312400  0.28395400  0.70834400  1
  N  N14  1  0.88312400  0.21604600  0.20834400  1
  N  N15  1  0.11687600  0.78395400  0.79165600  1
  N  N16  1  0.61687600  0.71604600  0.20834400  1
  N  N17  1  0.97384400  0.53608000  0.15127700  1
  N  N18  1  0.47384400  0.96392000  0.84872300  1
  N  N19  1  0.47384400  0.53608000  0.34872300  1
  N  N20  1  0.11687600  0.71604600  0.29165600  1
  N  N21  1  0.13433200  0.93227800  0.15507700  1
  N  N22  1  0.86566800  0.06772200  0.84492300  1
  N  N23  1  0.97384400  0.96392000  0.65127700  1
  Cl  Cl0  1  0.82610100  0.58926100  0.45956200  1
  Cl  Cl1  1  0.17389900  0.41073900  0.54043800  1
  Cl  Cl2  1  0.82610100  0.91073900  0.95956200  1
  Cl  Cl3  1  0.17389900  0.08926100  0.04043800  1
  Cl  Cl4  1  0.32610100  0.91073900  0.54043800  1
  Cl  Cl5  1  0.67389900  0.41073900  0.95956200  1
  Cl  Cl6  1  0.32610100  0.58926100  0.04043800  1
  Cl  Cl7  1  0.67389900  0.08926100  0.45956200  1
loop_
_geom_bond_atom_site_label_1
_geom_bond_atom_site_label_2
_geom_bond_distance
_geom_bond_site_symmetry_2
H4 N12 1.060935 1_555
H20 N10 1.060935 1_555
H23 N22 1.060935 1_555
H44 N21 1.060935 1_555
H51 N11 1.060935 1_555
H52 N6 1.060935 1_555
H59 N0 1.060935 1_555
H73 N5 1.060935 1_555
C0 N9 1.180283 1_555
C0 S13 1.668511 1_555
C1 N13 1.180283 1_555
C1 S15 1.668511 1_555
C2 N3 1.180283 1_555
C2 S8 1.668511 1_555
C3 H39 1.094570 1_555
C3 H18 1.095324 1_555
C3 H49 1.095569 1_555
C3 N10 1.494282 1_455
C4 N17 1.176900 1_555
C4 S10 1.668372 1_555
C5 H64 1.094252 1_555
C5 H69 1.095308 1_565
C5 H29 1.098206 1_565
C5 N21 1.497101 1_555
C6 H7 1.094570 1_555
C6 H54 1.095324 1_555
C6 H22 1.095569 1_555
C6 N22 1.494282 1_455
C7 N4 1.176900 1_555
C7 S6 1.668372 1_555
C8 H78 1.094252 1_555
C8 H5 1.095308 1_555
C8 H79 1.098206 1_555
C8 N10 1.497101 1_555
C9 N16 1.180283 1_555
C9 S12 1.668511 1_555
C10 H76 1.094570 1_555
C10 H24 1.095324 1_555
C10 H12 1.095569 1_555
C10 N21 1.494282 1_655
C11 H25 1.095266 1_555
C11 H26 1.095848 1_555
C11 H2 1.096037 1_555
C11 N6 1.494100 1_555
C12 H77 1.094252 1_555
C12 H6 1.095308 1_565
C12 H60 1.098206 1_565
C12 N5 1.497101 1_555
C13 H70 1.094570 1_555
C13 H1 1.095324 1_555
C13 H41 1.095569 1_555
C13 N6 1.494282 1_555
C14 H63 1.094570 1_555
C14 H45 1.095324 1_555
C14 H47 1.095569 1_555
C14 N12 1.494282 1_555
C15 H16 1.095266 1_555
C15 H43 1.095848 1_555
C15 H56 1.096037 1_555
C15 N11 1.494100 1_555
C16 H13 1.094252 1_555
C16 H19 1.095308 1_545
C16 H15 1.098206 1_545
C16 N22 1.497101 1_555
C17 H28 1.094570 1_555
C17 H68 1.095324 1_555
C17 H37 1.095569 1_555
C17 N11 1.494282 1_655
C18 N2 1.180283 1_555
C18 S14 1.668511 1_555
C19 H35 1.095266 1_555
C19 H67 1.095848 1_555
C19 H46 1.096037 1_555
C19 N0 1.494100 1_555
C20 N23 1.176900 1_555
C20 S3 1.668372 1_555
C21 H72 1.094570 1_555
C21 H36 1.095324 1_555
C21 H27 1.095569 1_555
C21 N0 1.494282 1_555
C22 H58 1.094252 1_555
C22 H50 1.095308 1_555
C22 H71 1.098206 1_555
C22 N12 1.497101 1_555
C23 H55 1.094252 1_555
C23 H57 1.095308 1_545
C23 H53 1.098206 1_545
C23 N0 1.497101 1_555
C24 H10 1.095266 1_555
C24 H75 1.095848 1_555
C24 H21 1.096037 1_555
C24 N21 1.494100 1_555
C25 N7 1.176900 1_555
C25 S1 1.668372 1_555
C26 H9 1.094570 1_555
C26 H0 1.095324 1_555
C26 H34 1.095569 1_555
C26 N5 1.494282 1_555
C27 H40 1.095266 1_555
C27 H8 1.095848 1_555
C27 H62 1.096037 1_555
C27 N10 1.494100 1_555
C28 H30 1.094252 1_555
C28 H32 1.095308 1_555
C28 H31 1.098206 1_555
C28 N11 1.497101 1_555
C29 N8 1.176900 1_555
C29 S9 1.668372 1_555
C30 N14 1.180283 1_555
C30 S5 1.668511 1_555
C31 N15 1.180283 1_555
C31 S4 1.668511 1_555
C32 H61 1.095266 1_555
C32 H48 1.095848 1_555
C32 H17 1.096037 1_555
C32 N22 1.494100 1_555
C33 H11 1.095266 1_555
C33 H33 1.095848 1_555
C33 H42 1.096037 1_555
C33 N12 1.494100 1_555
C34 H14 1.094252 1_555
C34 H65 1.095308 1_555
C34 H38 1.098206 1_555
C34 N6 1.497101 1_555
C35 N20 1.180283 1_555
C35 S0 1.668511 1_555
C36 N1 1.176900 1_555
C36 S2 1.668372 1_555
C37 N19 1.176900 1_555
C37 S11 1.668372 1_555
C38 H66 1.095266 1_555
C38 H3 1.095848 1_555
C38 H74 1.096037 1_555
C38 N5 1.494100 1_555
C39 N18 1.176900 1_555
C39 S7 1.668372 1_555
S0 Se7 2.305018 1_555
S1 Se0 2.294728 1_555
S2 Se3 2.294728 1_555
S3 Se4 2.294728 1_555
S4 Se6 2.305018 1_555
S5 Se2 2.305018 1_555
S6 Se1 2.294728 1_555
S7 Se6 2.294728 1_555
S8 Se0 2.305018 1_555
S9 Se2 2.294728 1_555
S10 Se5 2.294728 1_555
S11 Se7 2.294728 1_555
S12 Se5 2.305018 1_555
S13 Se1 2.305018 1_555
S14 Se4 2.305018 1_555
S15 Se3 2.305018 1_555
