# generated using pymatgen
data_PbWO4
_symmetry_space_group_name_H-M   'P 1'
_cell_length_a   8.17586476
_cell_length_b   8.17586476
_cell_length_c   5.54265800
_cell_angle_alpha   90.00000000
_cell_angle_beta   90.00000000
_cell_angle_gamma   121.04098641
_symmetry_Int_Tables_number   1
_chemical_formula_structural   PbWO4
_chemical_formula_sum   'Pb4 W4 O16'
_cell_volume   317.44190288
_cell_formula_units_Z   4
loop_
 _symmetry_equiv_pos_site_id
 _symmetry_equiv_pos_as_xyz
  1  'x, y, z'
loop_
 _atom_site_type_symbol
 _atom_site_label
 _atom_site_symmetry_multiplicity
 _atom_site_fract_x
 _atom_site_fract_y
 _atom_site_fract_z
 _atom_site_occupancy
  Pb  Pb0  1  0.58848700  0.91151300  0.25000000  1
  Pb  Pb1  1  0.41151300  0.08848700  0.75000000  1
  Pb  Pb2  1  0.91151300  0.58848700  0.75000000  1
  Pb  Pb3  1  0.08848700  0.41151300  0.25000000  1
  W  W0  1  0.58572700  0.41427300  0.29061200  1
  W  W1  1  0.08572700  0.91427300  0.20938800  1
  W  W2  1  0.91427300  0.08572700  0.79061200  1
  W  W3  1  0.41427300  0.58572700  0.70938800  1
  O  O0  1  0.85781800  0.85781800  0.00000000  1
  O  O1  1  0.69440500  0.30559500  0.46781600  1
  O  O2  1  0.58873500  0.41126500  0.95252900  1
  O  O3  1  0.88071200  0.61928800  0.25000000  1
  O  O4  1  0.35781800  0.35781800  0.50000000  1
  O  O5  1  0.80559500  0.19440500  0.96781600  1
  O  O6  1  0.08873500  0.91126500  0.54747100  1
  O  O7  1  0.64218200  0.64218200  0.50000000  1
  O  O8  1  0.30559500  0.69440500  0.53218400  1
  O  O9  1  0.41126500  0.58873500  0.04747100  1
  O  O10  1  0.14218200  0.14218200  0.00000000  1
  O  O11  1  0.11928800  0.38071200  0.75000000  1
  O  O12  1  0.91126500  0.08873500  0.45252900  1
  O  O13  1  0.19440500  0.80559500  0.03218400  1
  O  O14  1  0.61928800  0.88071200  0.75000000  1
  O  O15  1  0.38071200  0.11928800  0.25000000  1
loop_
_geom_bond_atom_site_label_1
_geom_bond_atom_site_label_2
_geom_bond_distance
_geom_bond_site_symmetry_2
O0 W2 2.035941 1_564
O0 W1 2.035941 1_655
O1 W0 1.832453 1_555
O1 Pb2 2.590848 1_555
O1 Pb1 2.590848 1_555
O2 W0 1.874368 1_556
O2 Pb2 2.525941 1_555
O2 Pb1 2.525941 1_555
O3 W1 2.123143 1_655
O3 W0 2.123143 1_555
O4 W3 2.035941 1_555
O4 W0 2.035941 1_555
O5 W2 1.832453 1_555
O5 Pb0 2.590848 1_546
O5 Pb3 2.590848 1_656
O6 W1 1.874368 1_555
O6 Pb2 2.525941 1_455
O6 Pb1 2.525941 1_565
O7 W3 2.035941 1_555
O7 W0 2.035941 1_555
O8 W3 1.832453 1_555
O8 Pb3 2.590848 1_555
O8 Pb0 2.590848 1_555
O9 W3 1.874368 1_554
O9 Pb0 2.525941 1_555
O9 Pb3 2.525941 1_555
O10 W1 2.035941 1_545
O10 W2 2.035941 1_454
O11 W3 2.123143 1_555
O11 W2 2.123143 1_455
O12 W2 1.874368 1_555
O12 Pb0 2.525941 1_545
O12 Pb3 2.525941 1_655
O13 W1 1.832453 1_555
O13 Pb2 2.590848 1_454
O13 Pb1 2.590848 1_564
O14 W2 2.123143 1_565
O14 W3 2.123143 1_555
O15 W1 2.123143 1_545
O15 W0 2.123143 1_555
