# generated using pymatgen
data_KBa2DyBi2O9
_symmetry_space_group_name_H-M   'P 1'
_cell_length_a   6.80394233
_cell_length_b   6.80394233
_cell_length_c   15.87335900
_cell_angle_alpha   90.00000000
_cell_angle_beta   90.00000000
_cell_angle_gamma   120.00000322
_symmetry_Int_Tables_number   1
_chemical_formula_structural   KBa2DyBi2O9
_chemical_formula_sum   'K2 Ba4 Dy2 Bi4 O18'
_cell_volume   636.38612772
_cell_formula_units_Z   2
loop_
 _symmetry_equiv_pos_site_id
 _symmetry_equiv_pos_as_xyz
  1  'x, y, z'
loop_
 _atom_site_type_symbol
 _atom_site_label
 _atom_site_symmetry_multiplicity
 _atom_site_fract_x
 _atom_site_fract_y
 _atom_site_fract_z
 _atom_site_occupancy
  K  K0  1  0.33333300  0.66666700  0.15742400  1
  K  K1  1  0.66666700  0.33333300  0.84257600  1
  Ba  Ba0  1  0.33333300  0.66666700  0.63911600  1
  Ba  Ba1  1  0.66666700  0.33333300  0.36088400  1
  Ba  Ba2  1  0.00000000  0.00000000  0.28009500  1
  Ba  Ba3  1  0.00000000  0.00000000  0.71990500  1
  Dy  Dy0  1  0.33333300  0.66666700  0.40991500  1
  Dy  Dy1  1  0.66666700  0.33333300  0.59008500  1
  Bi  Bi0  1  0.00000000  0.00000000  0.50000000  1
  Bi  Bi1  1  0.66666700  0.33333300  0.05828200  1
  Bi  Bi2  1  0.00000000  0.00000000  0.00000000  1
  Bi  Bi3  1  0.33333300  0.66666700  0.94171800  1
  O  O0  1  0.00000000  0.50000000  0.50000000  1
  O  O1  1  0.50000000  0.50000000  0.50000000  1
  O  O2  1  0.50000000  0.00000000  0.50000000  1
  O  O3  1  0.27166700  0.13583400  0.41502000  1
  O  O4  1  0.86416600  0.13583400  0.41502000  1
  O  O5  1  0.86416600  0.72833300  0.41502000  1
  O  O6  1  0.56480400  0.78240200  0.29598400  1
  O  O7  1  0.21759800  0.43519600  0.29598400  1
  O  O8  1  0.21759800  0.78240200  0.29598400  1
  O  O9  1  0.00000000  0.50000000  0.00000000  1
  O  O10  1  0.50000000  0.50000000  0.00000000  1
  O  O11  1  0.50000000  0.00000000  0.00000000  1
  O  O12  1  0.43519600  0.21759800  0.70401600  1
  O  O13  1  0.78240200  0.21759800  0.70401600  1
  O  O14  1  0.78240200  0.56480400  0.70401600  1
  O  O15  1  0.72833300  0.86416600  0.58498000  1
  O  O16  1  0.13583400  0.27166700  0.58498000  1
  O  O17  1  0.13583400  0.86416600  0.58498000  1
loop_
_geom_bond_atom_site_label_1
_geom_bond_atom_site_label_2
_geom_bond_distance
_geom_bond_site_symmetry_2
K0 O8 2.587985 1_555
K0 O6 2.587989 1_555
K0 O7 2.587989 1_555
K0 O11 3.178370 1_565
K0 O9 3.178370 1_555
K0 O10 3.178373 1_555
K1 O13 2.587985 1_555
K1 O14 2.587989 1_555
K1 O12 2.587989 1_555
K1 O9 3.178370 1_656
K1 O11 3.178370 1_556
K1 O10 3.178373 1_556
Ba0 O17 2.481048 1_555
Ba0 O16 2.481059 1_555
Ba0 O15 2.481059 1_555
Ba1 O4 2.481048 1_555
Ba1 O3 2.481059 1_555
Ba1 O5 2.481059 1_555
Ba2 O7 2.576716 1_555
Ba2 O6 2.576716 1_445
Ba2 O8 2.576716 1_545
Ba2 O5 2.673834 1_445
Ba2 O3 2.673834 1_555
Ba2 O4 2.673838 1_455
Ba3 O12 2.576716 1_555
Ba3 O14 2.576716 1_445
Ba3 O13 2.576716 1_455
Ba3 O15 2.673834 1_445
Ba3 O16 2.673834 1_555
Ba3 O17 2.673838 1_545
Dy0 O8 2.265129 1_555
Dy0 O6 2.265132 1_555
Dy0 O7 2.265132 1_555
Dy0 O2 2.429518 1_565
Dy0 O0 2.429518 1_555
Dy0 O1 2.429523 1_555
Dy1 O13 2.265129 1_555
Dy1 O14 2.265132 1_555
Dy1 O12 2.265132 1_555
Dy1 O2 2.429518 1_555
Dy1 O0 2.429518 1_655
Dy1 O1 2.429523 1_555
Bi0 O5 2.093331 1_445
Bi0 O3 2.093331 1_555
Bi0 O15 2.093331 1_445
Bi0 O16 2.093331 1_555
Bi0 O4 2.093336 1_455
Bi0 O17 2.093336 1_545
Bi1 O11 2.171097 1_555
Bi1 O9 2.171097 1_655
Bi1 O10 2.171102 1_555
Bi3 O9 2.171097 1_556
Bi3 O11 2.171097 1_566
Bi3 O10 2.171102 1_556
