# generated using pymatgen
data_SiO2
_symmetry_space_group_name_H-M   'P 1'
_cell_length_a   15.73154668
_cell_length_b   15.73154668
_cell_length_c   15.73154668
_cell_angle_alpha   100.79775234
_cell_angle_beta   100.79775234
_cell_angle_gamma   128.70527020
_symmetry_Int_Tables_number   1
_chemical_formula_structural   SiO2
_chemical_formula_sum   'Si48 O96'
_cell_volume   2738.86195774
_cell_formula_units_Z   48
loop_
 _symmetry_equiv_pos_site_id
 _symmetry_equiv_pos_as_xyz
  1  'x, y, z'
loop_
 _atom_site_type_symbol
 _atom_site_label
 _atom_site_symmetry_multiplicity
 _atom_site_fract_x
 _atom_site_fract_y
 _atom_site_fract_z
 _atom_site_occupancy
  Si  Si0  1  0.02140600  0.95058100  0.68290000  1
  Si  Si1  1  0.68069000  0.67407600  0.38305000  1
  Si  Si2  1  0.07052000  0.08005500  0.15506400  1
  Si  Si3  1  0.43344900  0.58577700  0.30083500  1
  Si  Si4  1  0.04303000  0.97633700  0.31102900  1
  Si  Si5  1  0.03513600  0.58888700  0.32368900  1
  Si  Si6  1  0.28494300  0.13261500  0.69916500  1
  Si  Si7  1  0.08934600  0.70307500  0.75625800  1
  Si  Si8  1  0.41611100  0.97196200  0.67643600  1
  Si  Si9  1  0.86967400  0.71935600  0.30304000  1
  Si  Si10  1  0.66530800  0.73200100  0.68897100  1
  Si  Si11  1  0.67329800  0.07521700  0.76382500  1
  Si  Si12  1  0.05701400  0.58953500  0.90435500  1
  Si  Si13  1  0.03519800  0.12885300  0.47100600  1
  Si  Si14  1  0.29102700  0.29764000  0.61695000  1
  Si  Si15  1  0.26032500  0.58388900  0.55585000  1
  Si  Si16  1  0.29552500  0.73967500  0.32356400  1
  Si  Si17  1  0.28855300  0.96486400  0.55375100  1
  Si  Si18  1  0.92478300  0.68860800  0.59808100  1
  Si  Si19  1  0.08454400  0.92948000  0.00953500  1
  Si  Si20  1  0.66149400  0.97859400  0.92917500  1
  Si  Si21  1  0.41422300  0.71505700  0.84767200  1
  Si  Si22  1  0.65784800  0.56419200  0.52899400  1
  Si  Si23  1  0.92499100  0.91545600  0.84493600  1
  Si  Si24  1  0.41631600  0.56663400  0.69696000  1
  Si  Si25  1  0.43336600  0.13032600  0.84968200  1
  Si  Si26  1  0.43580800  0.96480200  0.09365600  1
  Si  Si27  1  0.41046500  0.31482100  0.46747900  1
  Si  Si28  1  0.28064400  0.58368400  0.15031800  1
  Si  Si29  1  0.91994500  0.07500900  0.99046500  1
  Si  Si30  1  0.02366300  0.33469200  0.06669300  1
  Si  Si31  1  0.26799900  0.95697000  0.93330700  1
  Si  Si32  1  0.26519800  0.71144700  0.67631100  1
  Si  Si33  1  0.32592400  0.70897300  0.00661400  1
  Si  Si34  1  0.87114700  0.34215200  0.90634400  1
  Si  Si35  1  0.26768100  0.33850600  0.31710000  1
  Si  Si36  1  0.02803800  0.70447500  0.44415000  1
  Si  Si37  1  0.84734100  0.94298600  0.53252100  1
  Si  Si38  1  0.66691200  0.91065400  0.61372900  1
  Si  Si39  1  0.29692500  0.05318300  0.38627100  1
  Si  Si40  1  0.68517900  0.15265900  0.09564500  1
  Si  Si41  1  0.70236000  0.31931000  0.99338600  1
  Si  Si42  1  0.09052700  0.32670200  0.40191900  1
  Si  Si43  1  0.31139200  0.90947300  0.23617500  1
  Si  Si44  1  0.86738500  0.56655100  0.15232800  1
  Si  Si45  1  0.41111300  0.73480200  0.44624900  1
  Si  Si46  1  0.94681700  0.33308800  0.24374200  1
  Si  Si47  1  0.04941900  0.73231900  0.07082500  1
  O  O0  1  0.34291100  0.30019700  0.53714600  1
  O  O1  1  0.17681700  0.68971700  0.34411500  1
  O  O2  1  0.03029800  0.21470900  0.43229400  1
  O  O3  1  0.63730800  0.57494900  0.42780500  1
  O  O4  1  0.95504800  0.56308700  0.22171700  1
  O  O5  1  0.57038500  0.08939000  0.12316000  1
  O  O6  1  0.96489100  0.06050700  0.08392200  1
  O  O7  1  0.78584400  0.79929500  0.77862200  1
  O  O8  1  0.95566800  0.65238100  0.51191600  1
  O  O9  1  0.16207500  0.05811400  0.71434500  1
  O  O10  1  0.78783700  0.39600900  0.39076700  1
  O  O11  1  0.02067400  0.00722200  0.22137800  1
  O  O12  1  0.11903200  0.03510900  0.09561600  1
  O  O13  1  0.00524200  0.39707000  0.60923300  1
  O  O14  1  0.15208200  0.68804800  0.69007600  1
  O  O15  1  0.16238300  0.99861100  0.33953900  1
  O  O16  1  0.35380100  0.07166800  0.90959100  1
  O  O17  1  0.17528700  0.80207500  0.15669500  1
  O  O18  1  0.14714500  0.20950400  0.57219500  1
  O  O19  1  0.76305100  0.80576500  0.46285400  1
  O  O20  1  0.55227000  0.83792500  0.89603900  1
  O  O21  1  0.16729800  0.82318300  0.51289900  1
  O  O22  1  0.32474500  0.25104700  0.68699800  1
  O  O23  1  0.35570400  0.33319400  0.38271000  1
  O  O24  1  0.16207700  0.44421000  0.09040900  1
  O  O25  1  0.55624900  0.04433200  0.69671400  1
  O  O26  1  0.65907300  0.82284400  0.66046100  1
  O  O27  1  0.34968400  0.42996900  0.67396200  1
  O  O28  1  0.71206100  0.02446400  0.69768700  1
  O  O29  1  0.34137000  0.73333100  0.77828300  1
  O  O30  1  0.04143800  0.60974600  0.80710900  1
  O  O31  1  0.36225300  0.67525500  0.92630100  1
  O  O32  1  0.96623000  0.44722400  0.87684000  1
  O  O33  1  0.34560200  0.83270200  0.65588500  1
  O  O34  1  0.25153500  0.63995200  0.22408500  1
  O  O35  1  0.32427800  0.65031600  0.08028500  1
  O  O36  1  0.34376900  0.44773000  0.28565500  1
  O  O37  1  0.66680600  0.04951600  0.02250900  1
  O  O38  1  0.00138900  0.34092700  0.16377200  1
  O  O39  1  0.14046500  0.44375100  0.48808400  1
  O  O40  1  0.31028300  0.65439800  0.48710100  1
  O  O41  1  0.38971800  0.59994200  0.20771600  1
  O  O42  1  0.57003100  0.24399300  0.91971500  1
  O  O43  1  0.76567000  0.95856200  0.56830700  1
  O  O44  1  0.91061000  0.03377000  0.48099500  1
  O  O45  1  0.64538000  0.01859300  0.84330500  1
  O  O46  1  0.53799300  0.84791800  0.53596500  1
  O  O47  1  0.39222700  0.18200300  0.79228400  1
  O  O48  1  0.75600700  0.67572200  0.32603800  1
  O  O49  1  0.26666900  0.04495200  0.60803900  1
  O  O50  1  0.94188600  0.65623100  0.10396100  1
  O  O51  1  0.78016100  0.00107600  0.95844600  1
  O  O52  1  0.43691300  0.65863000  0.39196100  1
  O  O53  1  0.95048400  0.97299300  0.61729000  1
  O  O54  1  0.19792500  0.35462000  0.37321300  1
  O  O55  1  0.60399100  0.99475800  0.39182800  1
  O  O56  1  0.93949300  0.02341500  0.90438400  1
  O  O57  1  0.80263700  0.23433000  0.19289100  1
  O  O58  1  0.05577200  0.05942000  0.40097500  1
  O  O59  1  0.56404900  0.63774700  0.31300200  1
  O  O60  1  0.74895300  0.43595100  0.07369900  1
  O  O61  1  0.99277800  0.21415600  0.01345100  1
  O  O62  1  0.17828500  0.21983900  0.22091500  1
  O  O63  1  0.97553600  0.67322400  0.68759700  1
  O  O64  1  0.31195200  0.00202800  0.46403500  1
  O  O65  1  0.55277600  0.42961500  0.51900500  1
  O  O66  1  0.34761900  0.85953500  0.30328600  1
  O  O67  1  0.19423500  0.65708900  0.95728600  1
  O  O68  1  0.99797200  0.46200700  0.30992400  1
  O  O69  1  0.55579000  0.64619900  0.71786700  1
  O  O70  1  0.02700700  0.64429600  0.97749100  1
  O  O71  1  0.65844500  0.65479800  0.59902500  1
  O  O72  1  0.41586700  0.02744900  0.77591500  1
  O  O73  1  0.99892400  0.95737100  0.77908500  1
  O  O74  1  0.94058000  0.34155500  0.99635300  1
  O  O75  1  0.78241500  0.59800300  0.56770600  1
  O  O76  1  0.79049600  0.36269200  0.93764100  1
  O  O77  1  0.98140700  0.82471300  0.62678700  1
  O  O78  1  0.81799700  0.61028200  0.21022400  1
  O  O79  1  0.20070500  0.97932600  0.98654900  1
  O  O80  1  0.97658500  0.88096800  0.91607800  1
  O  O81  1  0.04262900  0.82171500  0.04155400  1
  O  O82  1  0.32677600  0.01437300  0.30231300  1
  O  O83  1  0.92833200  0.83792300  0.28213300  1
  O  O84  1  0.36004800  0.58413300  0.61158300  1
  O  O85  1  0.98562700  0.28793900  0.31240300  1
  O  O86  1  0.60293000  0.21216300  0.60817200  1
  O  O87  1  0.69980300  0.23694900  0.04271400  1
  O  O88  1  0.40005800  0.60777300  0.78977600  1
  O  O89  1  0.42505100  0.85285500  0.06235900  1
  O  O90  1  0.17715600  0.83761700  0.83622800  1
  O  O91  1  0.97255100  0.74846500  0.38841700  1
  O  O92  1  0.40199700  0.96970200  0.18441200  1
  O  O93  1  0.78529100  0.21758500  0.81558800  1
  O  O94  1  0.39025400  0.19736300  0.43169300  1
  O  O95  1  0.34520200  0.94422800  0.00364700  1
loop_
_geom_bond_atom_site_label_1
_geom_bond_atom_site_label_2
_geom_bond_distance
_geom_bond_site_symmetry_2
O0 Si14 1.614237 1_555
O0 Si27 1.615109 1_555
O1 Si16 1.641799 1_555
O1 Si5 1.645079 1_555
O2 Si13 1.619224 1_555
O2 Si42 1.620953 1_555
O3 Si22 1.625932 1_555
O3 Si1 1.629016 1_555
O4 Si44 1.627460 1_555
O4 Si5 1.638512 1_655
O5 Si26 1.624981 1_545
O5 Si40 1.626542 1_555
O6 Si2 1.625895 1_655
O6 Si29 1.628331 1_554
O7 Si10 1.622794 1_555
O7 Si23 1.626882 1_555
O8 Si18 1.643741 1_555
O8 Si36 1.649096 1_655
O9 Si0 1.611841 1_545
O9 Si6 1.615988 1_555
O11 Si4 1.622790 1_545
O11 Si2 1.626880 1_555
O12 Si19 1.625888 1_545
O12 Si2 1.628344 1_555
O14 Si7 1.642704 1_555
O14 Si32 1.644389 1_555
O15 Si4 1.628533 1_555
O15 Si39 1.632582 1_565
O16 Si31 1.616134 1_545
O16 Si25 1.621670 1_555
O17 Si47 1.635451 1_555
O17 Si43 1.638160 1_555
O18 Si13 1.625936 1_555
O18 Si14 1.629018 1_555
O19 Si1 1.614247 1_555
O19 Si37 1.615112 1_555
O20 Si20 1.611841 1_555
O20 Si21 1.615980 1_555
O21 Si36 1.641804 1_555
O21 Si17 1.645078 1_555
O22 Si14 1.613325 1_555
O22 Si6 1.618476 1_555
O23 Si27 1.621545 1_555
O23 Si35 1.622136 1_555
O24 Si30 1.616134 1_555
O24 Si28 1.621670 1_555
O25 Si11 1.643722 1_555
O25 Si8 1.649117 1_545
O26 Si10 1.628524 1_555
O26 Si38 1.632587 1_555
O27 Si14 1.605451 1_555
O27 Si24 1.612440 1_555
O28 Si38 1.620681 1_545
O28 Si11 1.620881 1_555
O29 Si21 1.627460 1_555
O29 Si32 1.638512 1_555
O30 Si12 1.625037 1_555
O30 Si7 1.626561 1_555
O31 Si33 1.613339 1_556
O31 Si21 1.618467 1_555
O32 Si34 1.624968 1_555
O32 Si12 1.626566 1_655
O33 Si8 1.641813 1_555
O33 Si32 1.645079 1_555
O34 Si28 1.631290 1_555
O34 Si16 1.644901 1_555
O35 Si33 1.605434 1_555
O35 Si28 1.612440 1_555
O36 Si35 1.611841 1_555
O36 Si3 1.615976 1_555
O37 Si40 1.621572 1_555
O37 Si20 1.622124 1_544
O38 Si30 1.628533 1_555
O38 Si46 1.632583 1_455
O39 Si42 1.643730 1_555
O39 Si15 1.649112 1_555
O40 Si15 1.641786 1_555
O40 Si45 1.645090 1_555
O41 Si3 1.614100 1_555
O41 Si28 1.615286 1_555
O42 Si41 1.605445 1_555
O42 Si25 1.612440 1_555
O43 Si37 1.625044 1_555
O43 Si38 1.626560 1_555
O44 Si13 1.624978 1_655
O44 Si37 1.626554 1_545
O45 Si20 1.635461 1_545
O45 Si11 1.638151 1_555
O46 Si38 1.642721 1_555
O46 Si45 1.644377 1_555
O47 Si6 1.614100 1_555
O47 Si25 1.615290 1_555
O48 Si1 1.605445 1_555
O48 Si9 1.612440 1_555
O49 Si6 1.627449 1_555
O49 Si17 1.638512 1_545
O50 Si47 1.611841 1_655
O50 Si44 1.615980 1_555
O51 Si29 1.615231 1_555
O51 Si20 1.616567 1_545
O52 Si3 1.627448 1_555
O52 Si45 1.638512 1_555
O53 Si37 1.621563 1_555
O53 Si0 1.622124 1_655
O54 Si35 1.635461 1_555
O54 Si42 1.638151 1_555
O56 Si29 1.625895 1_555
O56 Si23 1.628331 1_545
O57 Si40 1.625043 1_555
O57 Si46 1.626561 1_555
O58 Si4 1.619816 1_545
O58 Si13 1.623712 1_555
O59 Si1 1.613333 1_555
O59 Si3 1.618485 1_555
O60 Si41 1.613340 1_554
O60 Si44 1.618477 1_555
O61 Si30 1.622794 1_655
O61 Si29 1.626882 1_554
O62 Si2 1.615231 1_555
O62 Si35 1.616567 1_555
O63 Si7 1.620689 1_655
O63 Si18 1.620871 1_555
O64 Si39 1.642717 1_555
O64 Si17 1.644374 1_545
O65 Si22 1.624978 1_555
O65 Si27 1.626561 1_555
O66 Si43 1.643730 1_555
O66 Si16 1.649112 1_555
O67 Si33 1.614253 1_556
O67 Si12 1.615112 1_555
O68 Si46 1.642717 1_555
O68 Si5 1.644374 1_655
O69 Si10 1.616134 1_555
O69 Si24 1.621670 1_555
O70 Si12 1.621554 1_555
O70 Si47 1.622133 1_556
O71 Si10 1.619807 1_555
O71 Si22 1.623734 1_555
O72 Si25 1.631302 1_555
O72 Si8 1.644889 1_545
O73 Si23 1.615232 1_555
O73 Si0 1.616568 1_655
O74 Si30 1.619807 1_656
O74 Si34 1.623726 1_555
O75 Si22 1.619217 1_555
O75 Si18 1.620952 1_555
O76 Si34 1.625962 1_555
O76 Si41 1.629006 1_555
O77 Si0 1.635447 1_655
O77 Si18 1.638166 1_555
O78 Si44 1.614100 1_555
O78 Si9 1.615281 1_555
O79 Si31 1.622786 1_555
O79 Si19 1.626885 1_556
O80 Si23 1.625908 1_555
O80 Si19 1.628325 1_656
O81 Si19 1.615228 1_555
O81 Si47 1.616576 1_555
O82 Si39 1.620677 1_555
O82 Si43 1.620878 1_545
O83 Si4 1.616134 1_655
O83 Si9 1.621670 1_555
O84 Si24 1.631290 1_555
O84 Si15 1.644901 1_555
O85 Si46 1.620689 1_555
O85 Si42 1.620871 1_655
O87 Si41 1.614247 1_554
O87 Si40 1.615107 1_555
O88 Si21 1.614100 1_555
O88 Si24 1.615281 1_555
O89 Si26 1.625947 1_555
O89 Si33 1.629016 1_555
O90 Si31 1.628533 1_555
O90 Si7 1.632582 1_555
O91 Si9 1.631300 1_555
O91 Si36 1.644879 1_655
O92 Si26 1.619216 1_555
O92 Si43 1.620950 1_555
O93 Si34 1.619216 1_555
O93 Si11 1.620952 1_555
O94 Si27 1.625050 1_555
O94 Si39 1.626561 1_555
O95 Si31 1.619796 1_554
O95 Si26 1.623742 1_555
