# generated using pymatgen
data_Nd11In9Pd4
_symmetry_space_group_name_H-M   'P 1'
_cell_length_a   13.76600295
_cell_length_b   13.76600295
_cell_length_c   3.76153000
_cell_angle_alpha   90.00000000
_cell_angle_beta   90.00000000
_cell_angle_gamma   112.74048225
_symmetry_Int_Tables_number   1
_chemical_formula_structural   Nd11In9Pd4
_chemical_formula_sum   'Nd11 In9 Pd4'
_cell_volume   657.40963846
_cell_formula_units_Z   1
loop_
 _symmetry_equiv_pos_site_id
 _symmetry_equiv_pos_as_xyz
  1  'x, y, z'
loop_
 _atom_site_type_symbol
 _atom_site_label
 _atom_site_symmetry_multiplicity
 _atom_site_fract_x
 _atom_site_fract_y
 _atom_site_fract_z
 _atom_site_occupancy
  Nd  Nd0  1  0.29387800  0.29387800  0.00000000  1
  Nd  Nd1  1  0.41414900  0.07190900  0.00000000  1
  Nd  Nd2  1  0.36260200  0.63739800  0.00000000  1
  Nd  Nd3  1  0.16062800  0.83937200  0.00000000  1
  Nd  Nd4  1  0.63739800  0.36260200  0.00000000  1
  Nd  Nd5  1  0.70612200  0.70612200  0.00000000  1
  Nd  Nd6  1  0.83937200  0.16062800  0.00000000  1
  Nd  Nd7  1  0.00000000  0.00000000  0.00000000  1
  Nd  Nd8  1  0.07190900  0.41414900  0.00000000  1
  Nd  Nd9  1  0.58585100  0.92809100  0.00000000  1
  Nd  Nd10  1  0.92809100  0.58585100  0.00000000  1
  In  In0  1  0.78459400  0.92823800  0.50000000  1
  In  In1  1  0.15666100  0.63354600  0.50000000  1
  In  In2  1  0.92823800  0.78459400  0.50000000  1
  In  In3  1  0.63354600  0.15666100  0.50000000  1
  In  In4  1  0.07176200  0.21540600  0.50000000  1
  In  In5  1  0.36645400  0.84333900  0.50000000  1
  In  In6  1  0.50000000  0.50000000  0.00000000  1
  In  In7  1  0.21540600  0.07176200  0.50000000  1
  In  In8  1  0.84333900  0.36645400  0.50000000  1
  Pd  Pd0  1  0.55273600  0.75671300  0.50000000  1
  Pd  Pd1  1  0.44726400  0.24328700  0.50000000  1
  Pd  Pd2  1  0.75671300  0.55273600  0.50000000  1
  Pd  Pd3  1  0.24328700  0.44726400  0.50000000  1
loop_
_geom_bond_atom_site_label_1
_geom_bond_atom_site_label_2
_geom_bond_distance
_geom_bond_site_symmetry_2
Nd0 Pd3 3.101238 1_554
Nd0 Pd3 3.101238 1_555
Nd0 Pd1 3.101238 1_554
Nd0 Pd1 3.101238 1_555
Nd1 Pd1 2.911942 1_555
Nd1 Pd1 2.911942 1_554
Nd2 Pd3 3.124438 1_554
Nd2 Pd0 3.124438 1_554
Nd2 Pd3 3.124438 1_555
Nd2 Pd0 3.124438 1_555
Nd4 Pd1 3.124438 1_555
Nd4 Pd1 3.124438 1_554
Nd4 Pd2 3.124438 1_554
Nd4 Pd2 3.124438 1_555
Nd5 Pd2 3.101238 1_554
Nd5 Pd2 3.101238 1_555
Nd5 Pd0 3.101238 1_554
Nd5 Pd0 3.101238 1_555
Nd8 Pd3 2.911942 1_554
Nd8 Pd3 2.911942 1_555
Nd9 Pd0 2.911942 1_554
Nd9 Pd0 2.911942 1_555
Nd10 Pd2 2.911942 1_555
Nd10 Pd2 2.911942 1_554
In0 Pd0 3.152162 1_555
In0 In2 3.292906 1_555
In0 Nd9 3.319357 1_555
In0 Nd9 3.319357 1_556
In0 Nd7 3.322853 1_665
In0 Nd7 3.322853 1_666
In0 Nd5 3.391138 1_555
In0 Nd5 3.391138 1_556
In0 Nd6 3.531997 1_566
In0 Nd6 3.531997 1_565
In1 In5 3.198900 1_555
In1 Pd3 3.219029 1_555
In1 Nd8 3.360948 1_555
In1 Nd8 3.360948 1_556
In1 Nd3 3.383607 1_556
In1 Nd3 3.383607 1_555
In1 Nd2 3.385410 1_555
In1 Nd2 3.385410 1_556
In1 Nd10 3.503087 1_456
In1 Nd10 3.503087 1_455
In2 Pd2 3.152162 1_555
In2 Nd10 3.319357 1_555
In2 Nd10 3.319357 1_556
In2 Nd7 3.322853 1_665
In2 Nd7 3.322853 1_666
In2 Nd5 3.391138 1_555
In2 Nd5 3.391138 1_556
In2 Nd3 3.531997 1_656
In2 Nd3 3.531997 1_655
In3 In8 3.198900 1_555
In3 Pd1 3.219029 1_555
In3 Nd1 3.360948 1_555
In3 Nd1 3.360948 1_556
In3 Nd6 3.383607 1_555
In3 Nd6 3.383607 1_556
In3 Nd4 3.385410 1_556
In3 Nd4 3.385410 1_555
In3 Nd9 3.503087 1_546
In3 Nd9 3.503087 1_545
In4 Pd3 3.152162 1_555
In4 In7 3.292906 1_555
In4 Nd8 3.319357 1_555
In4 Nd8 3.319357 1_556
In4 Nd7 3.322853 1_556
In4 Nd7 3.322853 1_555
In4 Nd0 3.391138 1_555
In4 Nd0 3.391138 1_556
In4 Nd6 3.531997 1_455
In4 Nd6 3.531997 1_456
In5 Pd0 3.219029 1_555
In5 Nd9 3.360948 1_555
In5 Nd9 3.360948 1_556
In5 Nd3 3.383607 1_555
In5 Nd3 3.383607 1_556
In5 Nd2 3.385410 1_555
In5 Nd2 3.385410 1_556
In5 Nd1 3.503087 1_566
In5 Nd1 3.503087 1_565
In6 Nd5 3.142925 1_555
In6 Nd0 3.142925 1_555
In6 Nd2 3.149722 1_555
In6 Nd4 3.149722 1_555
In7 Pd1 3.152162 1_555
In7 Nd1 3.319357 1_555
In7 Nd1 3.319357 1_556
In7 Nd7 3.322853 1_555
In7 Nd7 3.322853 1_556
In7 Nd0 3.391138 1_555
In7 Nd0 3.391138 1_556
In7 Nd3 3.531997 1_545
In7 Nd3 3.531997 1_546
In8 Pd2 3.219029 1_555
In8 Nd10 3.360948 1_555
In8 Nd10 3.360948 1_556
In8 Nd6 3.383607 1_555
In8 Nd6 3.383607 1_556
In8 Nd4 3.385410 1_556
In8 Nd4 3.385410 1_555
In8 Nd8 3.503087 1_655
In8 Nd8 3.503087 1_656
