# generated using pymatgen
data_Sr3GaO4F
_symmetry_space_group_name_H-M   'P 1'
_cell_length_a   7.44464140
_cell_length_b   7.44464140
_cell_length_c   7.44464140
_cell_angle_alpha   125.90440508
_cell_angle_beta   125.90440508
_cell_angle_gamma   80.04531359
_symmetry_Int_Tables_number   1
_chemical_formula_structural   Sr3GaO4F
_chemical_formula_sum   'Sr6 Ga2 O8 F2'
_cell_volume   261.34567182
_cell_formula_units_Z   2
loop_
 _symmetry_equiv_pos_site_id
 _symmetry_equiv_pos_as_xyz
  1  'x, y, z'
loop_
 _atom_site_type_symbol
 _atom_site_label
 _atom_site_symmetry_multiplicity
 _atom_site_fract_x
 _atom_site_fract_y
 _atom_site_fract_z
 _atom_site_occupancy
  Sr  Sr0  1  0.83377379  0.33377379  0.16754657  1
  Sr  Sr1  1  0.33377379  0.16622621  0.50000000  1
  Sr  Sr2  1  0.66622621  0.83377379  0.50000000  1
  Sr  Sr3  1  0.16622621  0.66622621  0.83245343  1
  Sr  Sr4  1  0.25000000  0.25000000  -0.00000000  1
  Sr  Sr5  1  0.75000000  0.75000000  -0.00000000  1
  Ga  Ga0  1  0.75000000  0.25000000  0.50000000  1
  Ga  Ga1  1  0.25000000  0.75000000  0.50000000  1
  O  O0  1  0.49649916  0.99649916  0.20394762  1
  O  O1  1  0.20744846  0.70744846  0.20394762  1
  O  O2  1  0.50350084  0.00350084  0.79605238  1
  O  O3  1  0.00350084  0.20744846  0.50000000  1
  O  O4  1  0.70744846  0.50350084  0.50000000  1
  O  O5  1  0.99649916  0.79255154  0.50000000  1
  O  O6  1  0.29255154  0.49649916  0.50000000  1
  O  O7  1  0.79255154  0.29255154  0.79605238  1
  F  F0  1  0.50000000  0.50000000  0.00000000  1
  F  F1  1  -0.00000000  0.00000000  0.00000000  1
loop_
_geom_bond_atom_site_label_1
_geom_bond_atom_site_label_2
_geom_bond_distance
_geom_bond_site_symmetry_2
Ga0 O4 1.858834 1_555
Ga0 O7 1.858834 1_555
Ga0 O0 1.858834 1_545
Ga0 O3 1.858834 1_655
Ga1 O5 1.858834 1_455
Ga1 O1 1.858834 1_555
Ga1 O2 1.858834 1_565
Ga1 O6 1.858834 1_555
O0 Sr3 2.424628 1_554
O0 Sr1 2.694032 1_565
O0 Sr2 2.694032 1_555
O0 Sr4 2.851303 1_565
O0 Sr5 2.851303 1_555
O1 Sr3 2.424620 1_554
O1 Sr2 2.694032 1_555
O1 Sr1 2.694032 1_565
O1 Sr4 2.851303 1_555
O1 Sr5 2.851303 1_455
O2 Sr0 2.424628 1_556
O2 Sr1 2.694032 1_555
O2 Sr2 2.694032 1_545
O2 Sr4 2.851303 1_556
O2 Sr5 2.851303 1_546
O3 Sr1 2.424627 1_555
O3 Sr3 2.694031 1_555
O3 Sr0 2.694038 1_455
O3 Sr5 2.851303 1_445
O3 Sr4 2.851303 1_556
O4 Sr2 2.424627 1_555
O4 Sr3 2.694031 1_655
O4 Sr0 2.694038 1_555
O4 Sr4 2.851303 1_555
O4 Sr5 2.851303 1_556
O5 Sr2 2.424627 1_555
O5 Sr0 2.694031 1_555
O5 Sr3 2.694038 1_655
O5 Sr4 2.851303 1_666
O5 Sr5 2.851303 1_555
O6 Sr1 2.424627 1_555
O6 Sr0 2.694031 1_455
O6 Sr3 2.694038 1_555
O6 Sr5 2.851303 1_556
O6 Sr4 2.851303 1_555
O7 Sr0 2.424620 1_556
O7 Sr2 2.694032 1_545
O7 Sr1 2.694032 1_555
O7 Sr4 2.851303 1_656
O7 Sr5 2.851303 1_556
F0 Sr0 2.524610 1_555
F0 Sr3 2.524610 1_554
F0 Sr1 2.524612 1_554
F0 Sr2 2.524612 1_555
F0 Sr4 2.850517 1_555
F0 Sr5 2.850517 1_555
F1 Sr3 2.524610 1_544
F1 Sr0 2.524610 1_455
F1 Sr1 2.524612 1_555
F1 Sr2 2.524612 1_444
F1 Sr5 2.850517 1_445
F1 Sr4 2.850517 1_555
