# generated using pymatgen
data_Li7B18O
_symmetry_space_group_name_H-M   'P 1'
_cell_length_a   4.12317800
_cell_length_b   8.17145200
_cell_length_c   8.17631495
_cell_angle_alpha   60.09464665
_cell_angle_beta   90.00000000
_cell_angle_gamma   90.00000000
_symmetry_Int_Tables_number   1
_chemical_formula_structural   Li7B18O
_chemical_formula_sum   'Li7 B18 O1'
_cell_volume   238.79925545
_cell_formula_units_Z   1
loop_
 _symmetry_equiv_pos_site_id
 _symmetry_equiv_pos_as_xyz
  1  'x, y, z'
loop_
 _atom_site_type_symbol
 _atom_site_label
 _atom_site_symmetry_multiplicity
 _atom_site_fract_x
 _atom_site_fract_y
 _atom_site_fract_z
 _atom_site_occupancy
  Li  Li0  1  0.00000000  0.28660300  0.89268200  1
  Li  Li1  1  0.00000000  0.68193300  0.66364400  1
  Li  Li2  1  0.50000000  0.01393900  0.99044800  1
  Li  Li3  1  0.00000000  0.99258600  0.23620200  1
  Li  Li4  1  0.00000000  0.32977300  0.32343000  1
  Li  Li5  1  0.00000000  0.73868600  0.10969200  1
  Li  Li6  1  0.00000000  0.07371500  0.73598200  1
  B  B0  1  0.80111100  0.49913200  0.50042800  1
  B  B1  1  0.50000000  0.67294100  0.44864400  1
  B  B2  1  0.50000000  0.87783200  0.44973000  1
  B  B3  1  0.50000000  0.45035200  0.67208800  1
  B  B4  1  0.79693200  0.00096600  0.49984500  1
  B  B5  1  0.50000000  0.45333100  0.87660300  1
  B  B6  1  0.50000000  0.87920800  0.67254400  1
  B  B7  1  0.50000000  0.67588300  0.87785100  1
  B  B8  1  0.20224400  0.50308300  0.99894700  1
  B  B9  1  0.79775600  0.50308300  0.99894700  1
  B  B10  1  0.50000000  0.32825000  0.12033400  1
  B  B11  1  0.50000000  0.12342000  0.32617300  1
  B  B12  1  0.50000000  0.55107900  0.12220400  1
  B  B13  1  0.20306800  0.00096600  0.49984500  1
  B  B14  1  0.50000000  0.54975200  0.32795000  1
  B  B15  1  0.50000000  0.12363500  0.54801900  1
  B  B16  1  0.50000000  0.32738600  0.55063500  1
  B  B17  1  0.19888900  0.49913200  0.50042800  1
  O  O0  1  0.00000000  0.01528200  0.99470500  1
loop_
_geom_bond_atom_site_label_1
_geom_bond_atom_site_label_2
_geom_bond_distance
_geom_bond_site_symmetry_2
Li0 O0 1.940922 1_555
Li2 O0 2.062004 1_655
Li2 O0 2.062004 1_555
Li3 O0 1.888945 1_564
Li5 O0 1.968121 1_564
Li6 O0 1.922429 1_555
B0 B17 1.640109 1_655
B0 B16 1.762110 1_555
B0 B3 1.764193 1_555
B0 B14 1.766241 1_555
B0 B1 1.771503 1_555
B0 Li1 2.583098 1_655
B0 Li4 2.584396 1_655
B1 B2 1.678702 1_555
B1 B14 1.725596 1_555
B1 B17 1.771503 1_555
B1 B3 1.825533 1_555
B1 Li1 2.733969 1_655
B1 Li1 2.733969 1_555
B2 B4 1.757935 1_565
B2 B6 1.827429 1_555
B2 Li3 2.558336 1_555
B2 Li3 2.558336 1_655
B2 Li1 2.660817 1_555
B2 Li1 2.660817 1_655
B3 B5 1.684448 1_555
B3 Li0 2.624351 1_555
B3 Li0 2.624351 1_655
B4 B6 1.755509 1_545
B4 Li3 2.345135 1_645
B4 Li1 2.410293 1_645
B4 Li6 2.434465 1_655
B4 Li4 2.477143 1_655
B5 B8 1.754619 1_555
B5 B9 1.754619 1_555
B5 B7 1.823682 1_555
B5 Li0 2.438236 1_555
B5 Li0 2.438236 1_655
B5 Li1 2.743748 1_655
B5 Li1 2.743748 1_555
B6 B7 1.672512 1_555
B6 Li1 2.640271 1_655
B6 Li1 2.640271 1_555
B6 Li6 2.804896 1_565
B6 Li6 2.804896 1_665
B7 B8 1.757081 1_555
B7 B9 1.757081 1_555
B7 Li1 2.689562 1_655
B7 Li1 2.689562 1_555
B8 B9 1.667776 1_455
B8 Li4 2.448115 1_556
B8 Li0 2.472257 1_555
B8 Li1 2.520339 1_555
B8 Li5 2.638183 1_556
B9 Li4 2.448115 1_656
B9 Li0 2.472257 1_655
B9 Li1 2.520339 1_655
B9 Li5 2.638183 1_656
B10 B11 1.680801 1_555
B10 B5 1.727713 1_554
B10 B9 1.766196 1_554
B10 B8 1.766196 1_554
B10 B12 1.828507 1_555
B10 Li4 2.651118 1_555
B10 Li4 2.651118 1_655
B11 B2 1.739631 1_545
B11 B4 1.760609 1_555
B11 B13 1.760609 1_555
B11 B15 1.814759 1_555
B11 Li3 2.592007 1_645
B11 Li3 2.592007 1_545
B11 Li4 2.656356 1_555
B11 Li4 2.656356 1_655
B12 B14 1.676864 1_555
B12 B7 1.732049 1_554
B12 B9 1.752377 1_554
B12 B8 1.752377 1_554
B12 Li5 2.540549 1_555
B12 Li5 2.540549 1_655
B12 Li4 2.694549 1_555
B12 Li4 2.694549 1_655
B13 B4 1.674571 1_455
B13 B15 1.747150 1_555
B13 B6 1.755509 1_545
B13 B2 1.757935 1_545
B13 Li3 2.345135 1_545
B13 Li1 2.410293 1_545
B13 Li6 2.434465 1_555
B13 Li4 2.477143 1_555
B14 B17 1.766241 1_555
B14 B16 1.821502 1_555
B14 Li5 2.659147 1_655
B14 Li5 2.659147 1_555
B14 Li4 2.747533 1_555
B14 Li4 2.747533 1_655
B15 B16 1.675708 1_555
B15 B6 1.731524 1_545
B15 B4 1.747150 1_555
B15 Li6 2.480590 1_655
B15 Li6 2.480590 1_555
B15 Li4 2.715738 1_555
B15 Li4 2.715738 1_655
B16 B3 1.729372 1_555
B16 B17 1.762110 1_555
B16 Li4 2.768654 1_555
B16 Li4 2.768654 1_655
B16 Li6 2.776899 1_555
B16 Li6 2.776899 1_655
B17 B3 1.764193 1_555
B17 Li1 2.583098 1_555
B17 Li4 2.584396 1_555
