# generated using pymatgen
data_Ca(MnP)2
_symmetry_space_group_name_H-M   'P 1'
_cell_length_a   3.79455473
_cell_length_b   3.79455473
_cell_length_c   6.78174400
_cell_angle_alpha   90.00000000
_cell_angle_beta   90.00000000
_cell_angle_gamma   120.00001268
_symmetry_Int_Tables_number   1
_chemical_formula_structural   Ca(MnP)2
_chemical_formula_sum   'Ca1 Mn2 P2'
_cell_volume   84.56557570
_cell_formula_units_Z   1
loop_
 _symmetry_equiv_pos_site_id
 _symmetry_equiv_pos_as_xyz
  1  'x, y, z'
loop_
 _atom_site_type_symbol
 _atom_site_label
 _atom_site_symmetry_multiplicity
 _atom_site_fract_x
 _atom_site_fract_y
 _atom_site_fract_z
 _atom_site_occupancy
  Ca  Ca0  1  0.00000000  0.00000000  0.00000000  1
  Mn  Mn0  1  0.33333300  0.66666700  0.61665000  1
  Mn  Mn1  1  0.66666700  0.33333300  0.38335000  1
  P  P0  1  0.66666700  0.33333300  0.71800500  1
  P  P1  1  0.33333300  0.66666700  0.28199500  1
loop_
_geom_bond_atom_site_label_1
_geom_bond_atom_site_label_2
_geom_bond_distance
_geom_bond_site_symmetry_2
Ca0 P1 2.908072 1_545
Ca0 P0 2.908072 1_454
Ca0 P0 2.908074 1_444
Ca0 P1 2.908074 1_445
Ca0 P1 2.908074 1_555
Ca0 P0 2.908074 1_554
Mn0 P1 2.269545 1_555
Mn0 P0 2.296085 1_455
Mn0 P0 2.296085 1_565
Mn0 P0 2.296092 1_555
Mn1 P0 2.269545 1_555
Mn1 P1 2.296085 1_545
Mn1 P1 2.296085 1_655
Mn1 P1 2.296092 1_555
