# generated using pymatgen
data_Ca5Al12Si12(AgO24)2
_symmetry_space_group_name_H-M   'P 1'
_cell_length_a   12.17452000
_cell_length_b   12.18118761
_cell_length_c   12.92924780
_cell_angle_alpha   89.52801357
_cell_angle_beta   89.46363170
_cell_angle_gamma   89.80216500
_symmetry_Int_Tables_number   1
_chemical_formula_structural   Ca5Al12Si12(AgO24)2
_chemical_formula_sum   'Ca5 Al12 Si12 Ag2 O48'
_cell_volume   1917.24890365
_cell_formula_units_Z   1
loop_
 _symmetry_equiv_pos_site_id
 _symmetry_equiv_pos_as_xyz
  1  'x, y, z'
loop_
 _atom_site_type_symbol
 _atom_site_label
 _atom_site_symmetry_multiplicity
 _atom_site_fract_x
 _atom_site_fract_y
 _atom_site_fract_z
 _atom_site_occupancy
  Ca  Ca0  1  0.80380400  0.80131400  0.77074000  1
  Ca  Ca1  1  0.18656000  0.81598900  0.21676500  1
  Ca  Ca2  1  0.81600800  0.81380300  0.22241400  1
  Ca  Ca3  1  0.81698900  0.18395000  0.21783200  1
  Ca  Ca4  1  0.18013300  0.17913000  0.21629000  1
  Al  Al0  1  0.99960400  0.63856400  0.82279100  1
  Al  Al1  1  0.63696300  0.99704400  0.82391200  1
  Al  Al2  1  0.19644200  0.99540100  0.62642400  1
  Al  Al3  1  0.00111300  0.19655600  0.62372500  1
  Al  Al4  1  0.80438600  0.00027000  0.38857400  1
  Al  Al5  1  0.99978300  0.80415700  0.38904800  1
  Al  Al6  1  0.19441100  0.99755800  0.38821400  1
  Al  Al7  1  0.99829800  0.19550800  0.38795500  1
  Al  Al8  1  0.36443800  0.00118000  0.16563600  1
  Al  Al9  1  0.00250200  0.63582700  0.16783100  1
  Al  Al10  1  0.00150700  0.36383300  0.16563700  1
  Al  Al11  1  0.63634000  0.00147100  0.16768100  1
  Si  Si0  1  0.36911100  0.81468900  0.99613600  1
  Si  Si1  1  0.81392200  0.37157200  0.99886600  1
  Si  Si2  1  0.63395100  0.18944600  0.99419300  1
  Si  Si3  1  0.18732500  0.37156100  0.99183900  1
  Si  Si4  1  0.37005400  0.18729300  0.99170800  1
  Si  Si5  1  0.37200600  0.99679100  0.82204400  1
  Si  Si6  1  0.99803900  0.37494700  0.82185400  1
  Si  Si7  1  0.81083100  0.00298000  0.62180400  1
  Si  Si8  1  0.00674500  0.81132500  0.62350800  1
  Si  Si9  1  0.63312100  0.81153000  0.00019800  1
  Si  Si10  1  0.81202100  0.63478600  0.99934500  1
  Si  Si11  1  0.18861500  0.63478600  0.99439500  1
  Ag  Ag0  1  0.19672100  0.19049000  0.78456600  1
  Ag  Ag1  1  0.80652400  0.20073200  0.78957500  1
  O  O0  1  0.68918300  0.68940200  0.99977100  1
  O  O1  1  0.30842400  0.69600200  0.98902300  1
  O  O2  1  0.69607300  0.30890000  0.98775300  1
  O  O3  1  0.21454600  0.50176000  0.00071700  1
  O  O4  1  0.50177700  0.21355400  0.99818700  1
  O  O5  1  0.33986300  0.89274500  0.89852300  1
  O  O6  1  0.89013900  0.34199700  0.89800600  1
  O  O7  1  0.11086700  0.34606100  0.89030900  1
  O  O8  1  0.34386700  0.11149400  0.89109800  1
  O  O9  1  0.67661300  0.87557900  0.89534600  1
  O  O10  1  0.87378300  0.67476400  0.89289500  1
  O  O11  1  0.11332700  0.66562000  0.89741000  1
  O  O12  1  0.66982300  0.11883800  0.89189300  1
  O  O13  1  0.50092000  0.99488400  0.79604700  1
  O  O14  1  0.99279600  0.50148300  0.79160500  1
  O  O15  1  0.72631700  0.97310200  0.71950100  1
  O  O16  1  0.97030500  0.72564300  0.71822500  1
  O  O17  1  0.99007000  0.29145900  0.72790700  1
  O  O18  1  0.29644900  0.00087700  0.72413000  1
  O  O19  1  0.89299100  0.89317700  0.63419000  1
  O  O20  1  0.11455400  0.87706500  0.64963500  1
  O  O21  1  0.87569300  0.11615700  0.64647000  1
  O  O22  1  0.11214300  0.11156900  0.65399100  1
  O  O23  1  0.00222900  0.74871800  0.51365500  1
  O  O24  1  0.25678300  0.99576800  0.50505900  1
  O  O25  1  0.99749100  0.25988600  0.50466600  1
  O  O26  1  0.74748000  0.00177100  0.51331400  1
  O  O27  1  0.87584000  0.87647100  0.37084300  1
  O  O28  1  0.11984500  0.87650800  0.36237000  1
  O  O29  1  0.87602400  0.12166400  0.36565400  1
  O  O30  1  0.11560500  0.11596600  0.36268900  1
  O  O31  1  0.73286700  0.99936000  0.26685400  1
  O  O32  1  0.99538300  0.73057100  0.26857800  1
  O  O33  1  0.99948000  0.26310200  0.26161200  1
  O  O34  1  0.26365900  0.00023800  0.26197600  1
  O  O35  1  0.00195300  0.49950900  0.18969100  1
  O  O36  1  0.50000900  0.00428700  0.19021500  1
  O  O37  1  0.32613400  0.87490300  0.10247300  1
  O  O38  1  0.87435300  0.32480400  0.10249300  1
  O  O39  1  0.12472400  0.32287200  0.09537200  1
  O  O40  1  0.32420800  0.12592600  0.09669300  1
  O  O41  1  0.67728300  0.87611800  0.10279400  1
  O  O42  1  0.87794700  0.67818200  0.10105000  1
  O  O43  1  0.12786100  0.67738200  0.10238600  1
  O  O44  1  0.67821500  0.12576300  0.09866400  1
  O  O45  1  0.50160300  0.79273500  0.00127200  1
  O  O46  1  0.79181000  0.50266000  0.00320300  1
  O  O47  1  0.30282000  0.30322500  0.97649000  1
loop_
_geom_bond_atom_site_label_1
_geom_bond_atom_site_label_2
_geom_bond_distance
_geom_bond_site_symmetry_2
Ca0 O16 2.321920 1_555
Ca0 O19 2.342658 1_555
Ca0 O10 2.360631 1_555
Ca0 O15 2.383894 1_555
Ca0 O9 2.404025 1_555
Ca1 O28 2.176535 1_555
Ca1 O37 2.351598 1_555
Ca1 O43 2.370146 1_555
Ca1 O34 2.511251 1_565
Ca1 O32 2.631472 1_455
Ca2 O27 2.202348 1_555
Ca2 O42 2.402496 1_555
Ca2 O41 2.416873 1_555
Ca2 O32 2.480386 1_555
Ca2 O31 2.541333 1_555
Ca3 O29 2.177858 1_555
Ca3 O38 2.366862 1_555
Ca3 O44 2.409508 1_555
Ca3 O33 2.496694 1_555
Ca3 O31 2.546907 1_545
Ca4 O30 2.178141 1_555
Ca4 O40 2.417769 1_555
Ca4 O39 2.435471 1_555
Ca4 O34 2.471085 1_555
Ca4 O33 2.489390 1_455
Al0 O14 1.723481 1_555
Al0 O11 1.729074 1_655
Al0 O16 1.750131 1_555
Al0 O10 1.827118 1_555
Al1 O13 1.698620 1_555
Al1 O15 1.751467 1_555
Al1 O12 1.779271 1_565
Al1 O9 1.804471 1_555
Al2 O24 1.726347 1_555
Al2 O18 1.764492 1_565
Al2 O20 1.777359 1_555
Al2 O22 1.781619 1_565
Al3 O25 1.717005 1_455
Al3 O22 1.745169 1_555
Al3 O17 1.786077 1_455
Al3 O21 1.836927 1_455
Al4 O29 1.741248 1_555
Al4 O26 1.749541 1_555
Al4 O27 1.753949 1_545
Al4 O31 1.805810 1_545
Al5 O28 1.739744 1_655
Al5 O23 1.742220 1_655
Al5 O27 1.761337 1_555
Al5 O32 1.804802 1_555
Al6 O24 1.697108 1_555
Al6 O30 1.760202 1_565
Al6 O28 1.770042 1_555
Al6 O34 1.830115 1_565
Al7 O25 1.706244 1_555
Al7 O30 1.752731 1_655
Al7 O29 1.769129 1_555
Al7 O33 1.823191 1_555
Al8 O36 1.684358 1_555
Al8 O34 1.740196 1_555
Al8 O37 1.811970 1_545
Al8 O40 1.823242 1_555
Al9 O35 1.682125 1_555
Al9 O32 1.748751 1_455
Al9 O43 1.809848 1_555
Al9 O42 1.822890 1_455
Al10 O35 1.684254 1_555
Al10 O33 1.737970 1_455
Al10 O39 1.816972 1_555
Al10 O38 1.823212 1_455
Al11 O36 1.682735 1_555
Al11 O31 1.747359 1_545
Al11 O41 1.814353 1_545
Al11 O44 1.822908 1_555
Ag0 O22 2.213761 1_555
Ag0 O8 2.458620 1_555
Ag0 O7 2.560295 1_555
Ag0 O18 2.722514 1_555
Ag1 O21 2.278184 1_555
Ag1 O12 2.337409 1_555
Ag1 O6 2.457907 1_555
Ag1 O17 2.611446 1_555
O0 Si9 1.634647 1_556
O0 Si10 1.634679 1_555
O1 Si0 1.629529 1_555
O1 Si11 1.641095 1_555
O2 Si1 1.635606 1_555
O2 Si2 1.643365 1_555
O3 Si3 1.626552 1_554
O3 Si11 1.651320 1_554
O4 Si2 1.635150 1_555
O4 Si4 1.639386 1_555
O5 Si0 1.615534 1_555
O5 Si5 1.647039 1_555
O6 Si1 1.635268 1_555
O6 Si6 1.681979 1_555
O7 Si3 1.648556 1_555
O7 Si6 1.675800 1_455
O8 Si4 1.635806 1_555
O8 Si5 1.696532 1_545
O9 Si9 1.642821 1_556
O10 Si10 1.633677 1_555
O11 Si11 1.601553 1_555
O12 Si2 1.638673 1_555
O13 Si5 1.602105 1_555
O14 Si6 1.588293 1_555
O15 Si7 1.660528 1_565
O16 Si8 1.660664 1_655
O17 Si6 1.594464 1_555
O18 Si5 1.572173 1_545
O19 Si7 1.674928 1_565
O19 Si8 1.708887 1_655
O20 Si8 1.580541 1_555
O21 Si7 1.626460 1_555
O23 Si8 1.619111 1_555
O26 Si7 1.607263 1_555
O37 Si0 1.643923 1_554
O38 Si1 1.632155 1_554
O39 Si3 1.641770 1_554
O40 Si4 1.638529 1_554
O41 Si9 1.643502 1_555
O42 Si10 1.639181 1_554
O43 Si11 1.660046 1_554
O44 Si2 1.646245 1_554
O45 Si9 1.618151 1_555
O45 Si0 1.636006 1_554
O46 Si1 1.619763 1_554
O46 Si10 1.629279 1_554
O47 Si4 1.641176 1_555
O47 Si3 1.642807 1_555
