# generated using pymatgen
data_H9BrO4
_symmetry_space_group_name_H-M   'P 1'
_cell_length_a   7.19766700
_cell_length_b   7.66115715
_cell_length_c   11.57502354
_cell_angle_alpha   90.29426289
_cell_angle_beta   89.91642008
_cell_angle_gamma   110.81243079
_symmetry_Int_Tables_number   1
_chemical_formula_structural   H9BrO4
_chemical_formula_sum   'H36 Br4 O16'
_cell_volume   596.61898832
_cell_formula_units_Z   4
loop_
 _symmetry_equiv_pos_site_id
 _symmetry_equiv_pos_as_xyz
  1  'x, y, z'
loop_
 _atom_site_type_symbol
 _atom_site_label
 _atom_site_symmetry_multiplicity
 _atom_site_fract_x
 _atom_site_fract_y
 _atom_site_fract_z
 _atom_site_occupancy
  H  H0  1  0.73557100  0.04729900  0.67262800  1
  H  H1  1  0.68980600  0.00369000  0.80343200  1
  H  H2  1  0.28573400  0.96572800  0.16877100  1
  H  H3  1  0.32177000  0.00378700  0.30129600  1
  H  H4  1  0.06944400  0.86807700  0.82884700  1
  H  H5  1  0.95407500  0.95457800  0.74108600  1
  H  H6  1  0.93194000  0.13206000  0.32870200  1
  H  H7  1  0.04447700  0.04298700  0.24004600  1
  H  H8  1  0.45084400  0.21797500  0.82806500  1
  H  H9  1  0.21765200  0.06379800  0.75086800  1
  H  H10  1  0.35874900  0.33372600  0.74480100  1
  H  H11  1  0.54863700  0.78250900  0.32868900  1
  H  H12  1  0.63907400  0.66687800  0.24325800  1
  H  H13  1  0.77995000  0.93495500  0.25109400  1
  H  H14  1  0.17699900  0.49986700  0.76169800  1
  H  H15  1  0.34914200  0.63209600  0.68337700  1
  H  H16  1  0.81488700  0.49772200  0.26211400  1
  H  H17  1  0.64552700  0.37170500  0.17983000  1
  H  H18  1  0.86422200  0.45913000  0.71513000  1
  H  H19  1  0.86663900  0.39555500  0.84406000  1
  H  H20  1  0.13239700  0.53417200  0.21555800  1
  H  H21  1  0.13919600  0.61780400  0.34148900  1
  H  H22  1  0.64630600  0.61391900  0.65022400  1
  H  H23  1  0.63764000  0.45463000  0.55187300  1
  H  H24  1  0.35333600  0.39088800  0.14939400  1
  H  H25  1  0.36585800  0.54902100  0.04744100  1
  H  H26  1  0.37674900  0.28860800  0.47671100  1
  H  H27  1  0.55917400  0.35490500  0.38760500  1
  H  H28  1  0.62367400  0.70866300  0.97503100  1
  H  H29  1  0.43720800  0.64562300  0.88727200  1
  H  H30  1  0.97021400  0.93004000  0.49742100  1
  H  H31  1  0.10113300  0.79442500  0.49500400  1
  H  H32  1  0.85599500  0.69155400  0.54466700  1
  H  H33  1  0.03185400  0.06924600  0.99757100  1
  H  H34  1  0.90073100  0.20277600  0.99509500  1
  H  H35  1  0.15104900  0.31456200  0.04657100  1
  Br  Br0  1  0.02515100  0.21367300  0.50319800  1
  Br  Br1  1  0.97123400  0.77677600  0.00015500  1
  Br  Br2  1  0.39108900  0.79273000  0.49104800  1
  Br  Br3  1  0.60607300  0.20495800  0.99236100  1
  O  O0  1  0.73299100  0.95706300  0.73303000  1
  O  O1  1  0.27242800  0.04617800  0.23196100  1
  O  O2  1  0.08385800  0.92923100  0.75014800  1
  O  O3  1  0.91627300  0.06948100  0.25008900  1
  O  O4  1  0.38136000  0.21264400  0.75279700  1
  O  O5  1  0.61700800  0.78857400  0.25278200  1
  O  O6  1  0.32701700  0.54983000  0.75129600  1
  O  O7  1  0.66597400  0.45296200  0.24883300  1
  O  O8  1  0.93562700  0.40692700  0.76970800  1
  O  O9  1  0.05484400  0.57458500  0.27280300  1
  O  O10  1  0.73050000  0.55822100  0.60940200  1
  O  O11  1  0.27017900  0.44433900  0.10617100  1
  O  O12  1  0.52126700  0.31662000  0.46871100  1
  O  O13  1  0.47894200  0.68219800  0.96857300  1
  O  O14  1  0.96103400  0.79461000  0.48482400  1
  O  O15  1  0.04056800  0.20325100  0.98556800  1
loop_
_geom_bond_atom_site_label_1
_geom_bond_atom_site_label_2
_geom_bond_distance
_geom_bond_site_symmetry_2
H0 O0 0.981264 1_545
H1 O0 0.981562 1_545
H2 O1 0.980379 1_565
H3 O1 0.980391 1_555
H4 O2 1.014716 1_555
H5 O2 1.025046 1_655
H5 O0 1.601011 1_555
H6 O3 1.013889 1_555
H7 O3 1.019195 1_455
H7 O1 1.634740 1_555
H8 O4 0.998610 1_555
H9 O2 1.133453 1_545
H9 O4 1.316913 1_555
H10 O4 1.001875 1_555
H11 O5 0.999612 1_555
H12 O5 1.005356 1_555
H13 O3 1.143049 1_565
H13 O5 1.303464 1_555
H14 O6 1.016525 1_555
H14 O8 1.629418 1_455
H15 O6 0.986932 1_555
H16 O7 1.014292 1_555
H16 O9 1.619318 1_655
H17 O7 0.988567 1_555
H18 O8 0.986305 1_555
H19 O8 0.981638 1_555
H20 O9 0.982918 1_555
H21 O9 0.982950 1_555
H22 O10 0.976443 1_555
H23 O10 1.067202 1_555
H23 O12 1.452128 1_555
H24 O11 0.976417 1_555
H25 O11 1.091480 1_555
H25 O13 1.397905 1_554
H26 O12 0.988899 1_555
H27 O12 0.993498 1_555
H28 O13 0.990900 1_555
H29 O13 0.996317 1_555
H30 O14 1.025619 1_555
H31 O14 1.015920 1_455
H32 O14 1.120120 1_555
H32 O10 1.330793 1_555
H33 O15 1.016314 1_555
H34 O15 1.011086 1_655
H35 O15 1.171207 1_554
H35 O11 1.260372 1_555
Br0 H30 2.066536 1_445
Br0 H6 2.147908 1_455
Br1 H33 2.125497 1_664
Br1 H4 2.140002 1_654
Br2 H31 2.092089 1_555
Br2 H11 2.208894 1_555
Br3 H34 2.127130 1_555
Br3 H8 2.227595 1_555
