# generated using pymatgen
data_La14Mn16O45
_symmetry_space_group_name_H-M   'P 1'
_cell_length_a   5.62377179
_cell_length_b   5.60114996
_cell_length_c   31.34142626
_cell_angle_alpha   89.41039523
_cell_angle_beta   90.29322811
_cell_angle_gamma   90.33333623
_symmetry_Int_Tables_number   1
_chemical_formula_structural   La14Mn16O45
_chemical_formula_sum   'La14 Mn16 O45'
_cell_volume   987.16044279
_cell_formula_units_Z   1
loop_
 _symmetry_equiv_pos_site_id
 _symmetry_equiv_pos_as_xyz
  1  'x, y, z'
loop_
 _atom_site_type_symbol
 _atom_site_label
 _atom_site_symmetry_multiplicity
 _atom_site_fract_x
 _atom_site_fract_y
 _atom_site_fract_z
 _atom_site_occupancy
  La  La0  1  0.99226800  0.97767400  0.17632100  1
  La  La1  1  0.00278400  0.98782300  0.42764500  1
  La  La2  1  0.00772000  0.97002500  0.68736200  1
  La  La3  1  0.00933900  0.97567900  0.94648500  1
  La  La4  1  0.49441200  0.48694900  0.43331900  1
  La  La5  1  0.51646500  0.48422900  0.18498500  1
  La  La6  1  0.49068300  0.46936500  0.68752800  1
  La  La7  1  0.49727800  0.47583700  0.94172600  1
  La  La8  1  0.52038000  0.52844400  0.06183900  1
  La  La9  1  0.51417900  0.53522500  0.31374600  1
  La  La10  1  0.50764300  0.53158300  0.81489900  1
  La  La11  1  0.50617000  0.53309800  0.55981700  1
  La  La12  1  0.99131100  0.03097500  0.81607800  1
  La  La13  1  0.98993700  0.03265200  0.55876400  1
  Mn  Mn0  1  0.00332500  0.48602800  0.12587100  1
  Mn  Mn1  1  0.99499200  0.50349400  0.37344500  1
  Mn  Mn2  1  0.99847600  0.50111900  0.62377400  1
  Mn  Mn3  1  0.00120400  0.50066600  0.87755400  1
  Mn  Mn4  1  0.99982500  0.49029500  0.00147500  1
  Mn  Mn5  1  0.98521000  0.50751300  0.25020900  1
  Mn  Mn6  1  0.99860300  0.50546800  0.49722700  1
  Mn  Mn7  1  0.99849000  0.50113300  0.75130200  1
  Mn  Mn8  1  0.50102400  0.01163200  0.36907300  1
  Mn  Mn9  1  0.49718300  0.99974400  0.12301300  1
  Mn  Mn10  1  0.50973400  0.99783600  0.00524800  1
  Mn  Mn11  1  0.49875900  0.00143700  0.62357800  1
  Mn  Mn12  1  0.52789700  0.99505800  0.25297700  1
  Mn  Mn13  1  0.49692600  0.00034700  0.87832100  1
  Mn  Mn14  1  0.49957100  0.00059200  0.75133500  1
  Mn  Mn15  1  0.49396200  0.00467900  0.49630200  1
  O  O0  1  0.07867900  0.48517300  0.55908700  1
  O  O1  1  0.08024100  0.48410100  0.81562900  1
  O  O2  1  0.21301600  0.22112800  0.48559200  1
  O  O3  1  0.22180000  0.21828400  0.73986600  1
  O  O4  1  0.23796600  0.24080100  0.99316400  1
  O  O5  1  0.24012600  0.23541500  0.13253200  1
  O  O6  1  0.23874000  0.25892200  0.38158600  1
  O  O7  1  0.21771400  0.21906300  0.63488500  1
  O  O8  1  0.21413200  0.21596800  0.88896900  1
  O  O9  1  0.29331900  0.66878900  0.24520300  1
  O  O10  1  0.26381000  0.71820400  0.13420200  1
  O  O11  1  0.26292700  0.73156400  0.37994800  1
  O  O12  1  0.27630500  0.72306400  0.48697300  1
  O  O13  1  0.28140800  0.71806900  0.63482900  1
  O  O14  1  0.27935400  0.71791700  0.88789200  1
  O  O15  1  0.27937300  0.71804900  0.73999000  1
  O  O16  1  0.27302700  0.71292700  0.99443700  1
  O  O17  1  0.44589200  0.95618100  0.06389500  1
  O  O18  1  0.42045900  0.01156000  0.30919700  1
  O  O19  1  0.42056800  0.98709400  0.81493300  1
  O  O20  1  0.41931300  0.98886900  0.56035000  1
  O  O21  1  0.57021000  0.01346800  0.43298200  1
  O  O22  1  0.58023200  0.01675500  0.68729800  1
  O  O23  1  0.54320300  0.02173000  0.18987600  1
  O  O24  1  0.57696900  0.00998600  0.94123300  1
  O  O25  1  0.72517400  0.28497000  0.01047400  1
  O  O26  1  0.72752000  0.27865500  0.11842000  1
  O  O27  1  0.69481800  0.30992200  0.25735700  1
  O  O28  1  0.72010500  0.28351100  0.76221000  1
  O  O29  1  0.71867000  0.28272500  0.86652800  1
  O  O30  1  0.73146100  0.28537100  0.36545800  1
  O  O31  1  0.71646600  0.28570200  0.50813700  1
  O  O32  1  0.71704000  0.28471600  0.61295400  1
  O  O33  1  0.76138300  0.74631900  0.12689600  1
  O  O34  1  0.77726000  0.77859400  0.86616300  1
  O  O35  1  0.77174700  0.74295000  0.01085800  1
  O  O36  1  0.78876700  0.77580300  0.25856300  1
  O  O37  1  0.75562900  0.75086000  0.36438700  1
  O  O38  1  0.78186700  0.78456600  0.61285900  1
  O  O39  1  0.77850100  0.78394500  0.76230300  1
  O  O40  1  0.77243800  0.78218400  0.50875400  1
  O  O41  1  0.96419600  0.44109800  0.18975100  1
  O  O42  1  0.92151800  0.51572600  0.68770600  1
  O  O43  1  0.92681000  0.51352100  0.93714900  1
  O  O44  1  0.92319700  0.52237900  0.43763300  1
loop_
_geom_bond_atom_site_label_1
_geom_bond_atom_site_label_2
_geom_bond_distance
_geom_bond_site_symmetry_2
La0 O33 2.401229 1_555
La0 O5 2.421975 1_665
La0 O10 2.504536 1_655
La0 O23 2.576744 1_565
La0 O41 2.639645 1_565
La0 O26 2.879331 1_565
La0 O36 3.031062 1_555
La0 O41 3.033793 1_555
La0 O23 3.133820 1_665
La0 O9 3.231123 1_655
La1 O21 2.444454 1_465
La1 O6 2.470115 1_565
La1 O2 2.532341 1_565
La1 O11 2.554647 1_555
La1 O44 2.658184 1_455
La1 O37 2.762019 1_455
La1 O12 2.821923 1_555
La1 O30 2.972684 1_465
La1 O44 3.049499 1_465
La1 O40 3.069688 1_455
La2 O22 2.419803 1_465
La2 O7 2.449276 1_565
La2 O3 2.469459 1_565
La2 O42 2.587516 1_455
La2 O15 2.645347 1_555
La2 O13 2.677775 1_555
La2 O38 2.854631 1_455
La2 O39 2.868739 1_455
La3 O24 2.444820 1_465
La3 O4 2.449878 1_565
La3 O8 2.518062 1_565
La3 O16 2.565291 1_555
La3 O43 2.646164 1_455
La3 O35 2.740118 1_456
La3 O14 2.805574 1_555
La4 O44 2.421592 1_555
La4 O12 2.483358 1_555
La4 O11 2.514215 1_555
La4 O6 2.514944 1_555
La4 O21 2.688661 1_555
La4 O2 2.711852 1_555
La4 O30 2.769742 1_555
La4 O31 2.874133 1_555
La4 O21 2.977223 1_565
La4 O37 2.992000 1_555
La5 O10 2.495033 1_555
La5 O9 2.506975 1_555
La5 O41 2.534397 1_555
La5 O23 2.598665 1_555
La5 O27 2.654561 1_555
La5 O5 2.656266 1_555
La5 O26 2.679127 1_555
La5 O33 2.704415 1_555
La5 O23 3.018933 1_565
La5 O41 3.118038 1_455
La5 O36 3.215950 1_555
La6 O42 2.435275 1_555
La6 O13 2.450606 1_555
La6 O15 2.478369 1_555
La6 O22 2.587635 1_555
La6 O3 2.628358 1_555
La6 O7 2.653480 1_555
La6 O28 2.856834 1_555
La6 O32 2.872008 1_555
La7 O43 2.428414 1_555
La7 O14 2.477573 1_555
La7 O16 2.483783 1_555
La7 O4 2.533143 1_555
La7 O24 2.650292 1_555
La7 O25 2.714469 1_556
La7 O8 2.717325 1_555
La7 O29 2.893591 1_555
La7 O24 3.022543 1_565
La7 O35 3.053059 1_556
La7 O43 3.218712 1_455
La7 O34 3.299694 1_555
La8 O25 2.420801 1_555
La8 O17 2.436127 1_555
La8 O35 2.441060 1_555
La8 O26 2.531000 1_555
La8 O16 2.721591 1_554
La8 O33 2.736299 1_555
La8 O10 2.907959 1_555
La8 O4 3.123706 1_554
La8 O5 3.165071 1_555
La8 O17 3.230198 1_545
La9 O37 2.412460 1_555
La9 O27 2.413942 1_555
La9 O30 2.455885 1_555
La9 O9 2.582197 1_555
La9 O36 2.673348 1_555
La9 O18 2.724745 1_565
La9 O11 2.757903 1_555
La9 O18 2.981811 1_555
La9 O6 3.041934 1_555
La10 O1 2.416941 1_555
La10 O29 2.433692 1_555
La10 O28 2.484352 1_555
La10 O19 2.600762 1_555
La10 O34 2.605975 1_555
La10 O39 2.643545 1_555
La10 O15 2.860952 1_555
La11 O0 2.417517 1_555
La11 O31 2.455041 1_555
La11 O32 2.463057 1_555
La11 O40 2.589266 1_555
La11 O20 2.602181 1_555
La11 O38 2.673542 1_555
La11 O12 2.819805 1_555
La11 O13 2.879935 1_555
La11 O20 3.084278 1_545
La12 O34 2.421847 1_545
La12 O19 2.428431 1_645
La12 O39 2.489059 1_545
La12 O1 2.583886 1_655
La12 O29 2.633485 1_555
La12 O28 2.669640 1_555
La12 O8 2.804850 1_655
La12 O3 2.906984 1_655
La13 O20 2.428757 1_645
La13 O40 2.434470 1_545
La13 O38 2.475369 1_545
La13 O0 2.580565 1_655
La13 O31 2.616483 1_555
La13 O32 2.708215 1_555
La13 O2 2.812802 1_655
La13 O7 2.902970 1_655
Mn0 O26 1.946893 1_455
Mn0 O5 1.949450 1_555
Mn0 O10 1.971349 1_555
Mn0 O33 2.000596 1_455
Mn0 O41 2.028205 1_455
Mn1 O30 1.932143 1_555
Mn1 O37 1.955004 1_555
Mn1 O6 1.957500 1_655
Mn1 O11 1.980836 1_655
Mn1 O44 2.057793 1_555
Mn2 O32 2.017395 1_555
Mn2 O13 2.027055 1_655
Mn2 O38 2.031887 1_555
Mn2 O7 2.035744 1_655
Mn2 O42 2.054644 1_555
Mn2 O0 2.082127 1_655
Mn3 O43 1.918329 1_455
Mn3 O1 1.996488 1_555
Mn3 O14 2.003343 1_555
Mn3 O8 2.027525 1_555
Mn3 O29 2.028471 1_455
Mn3 O34 2.035610 1_455
Mn4 O25 1.940361 1_555
Mn4 O35 1.941112 1_555
Mn4 O4 1.961417 1_654
Mn4 O16 1.984886 1_654
Mn4 O43 2.058353 1_554
Mn5 O36 1.891456 1_555
Mn5 O41 1.937646 1_555
Mn5 O9 1.955670 1_655
Mn5 O27 1.979817 1_555
Mn6 O44 1.914694 1_555
Mn6 O0 1.990405 1_655
Mn6 O12 2.000666 1_655
Mn6 O31 2.030724 1_555
Mn6 O2 2.040153 1_655
Mn6 O40 2.046873 1_555
Mn7 O28 2.007086 1_555
Mn7 O15 2.017823 1_655
Mn7 O42 2.038404 1_555
Mn7 O39 2.048697 1_555
Mn7 O3 2.062764 1_655
Mn7 O1 2.066929 1_655
Mn8 O18 1.928268 1_555
Mn8 O30 2.004478 1_555
Mn8 O21 2.038602 1_555
Mn8 O37 2.058169 1_545
Mn8 O6 2.070966 1_555
Mn8 O11 2.083064 1_545
Mn9 O17 1.891766 1_555
Mn9 O5 1.988982 1_565
Mn9 O26 2.028043 1_565
Mn9 O33 2.063116 1_555
Mn9 O10 2.074000 1_555
Mn9 O23 2.114946 1_565
Mn10 O17 1.886488 1_555
Mn10 O25 2.015453 1_565
Mn10 O24 2.043914 1_564
Mn10 O35 2.063245 1_555
Mn10 O4 2.083026 1_564
Mn10 O16 2.101260 1_554
Mn11 O32 2.026328 1_555
Mn11 O13 2.026800 1_545
Mn11 O20 2.031004 1_545
Mn11 O7 2.036311 1_555
Mn11 O38 2.039533 1_545
Mn11 O22 2.049222 1_555
Mn12 O18 1.869012 1_565
Mn12 O36 1.924849 1_555
Mn12 O23 1.984046 1_565
Mn12 O27 1.998684 1_565
Mn12 O9 2.262123 1_555
Mn13 O14 2.015217 1_545
Mn13 O24 2.021428 1_555
Mn13 O19 2.032413 1_545
Mn13 O8 2.033549 1_555
Mn13 O29 2.040353 1_555
Mn13 O34 2.052334 1_545
Mn14 O39 2.014783 1_545
Mn14 O3 2.015832 1_555
Mn14 O15 2.036838 1_545
Mn14 O28 2.037021 1_555
Mn14 O19 2.044930 1_545
Mn14 O22 2.060864 1_555
Mn15 O12 2.013764 1_545
Mn15 O2 2.021709 1_555
Mn15 O21 2.032521 1_555
Mn15 O40 2.040700 1_545
Mn15 O31 2.040920 1_555
Mn15 O20 2.053800 1_545
