# generated using pymatgen
data_K2VCuSe4
_symmetry_space_group_name_H-M   'P 1'
_cell_length_a   13.73114308
_cell_length_b   12.26960011
_cell_length_c   7.34485206
_cell_angle_alpha   84.92437491
_cell_angle_beta   62.88030466
_cell_angle_gamma   32.19532042
_symmetry_Int_Tables_number   1
_chemical_formula_structural   K2VCuSe4
_chemical_formula_sum   'K4 V2 Cu2 Se8'
_cell_volume   457.20065297
_cell_formula_units_Z   2
loop_
 _symmetry_equiv_pos_site_id
 _symmetry_equiv_pos_as_xyz
  1  'x, y, z'
loop_
 _atom_site_type_symbol
 _atom_site_label
 _atom_site_symmetry_multiplicity
 _atom_site_fract_x
 _atom_site_fract_y
 _atom_site_fract_z
 _atom_site_occupancy
  K  K0  1  0.81967300  0.81626600  0.18248900  1
  K  K1  1  0.17448300  0.18323900  0.81951800  1
  K  K2  1  0.43068700  0.42995700  0.07615800  1
  K  K3  1  0.07103800  0.07171000  0.42383000  1
  V  V0  1  0.00721000  0.99518100  0.99817500  1
  V  V1  1  0.25195500  0.24467700  0.24600700  1
  Cu  Cu0  1  0.50251600  0.50033200  0.49287700  1
  Cu  Cu1  1  0.74090100  0.75677600  0.75732900  1
  Se  Se0  1  0.17628800  0.43432100  0.51932000  1
  Se  Se1  1  0.86762700  0.51916600  0.43945800  1
  Se  Se2  1  0.52755700  0.85661900  0.16881700  1
  Se  Se3  1  0.44952000  0.16391400  0.85496000  1
  Se  Se4  1  0.08024100  0.80362100  0.72217400  1
  Se  Se5  1  0.39010500  0.72653600  0.80834800  1
  Se  Se6  1  0.72153200  0.38932100  0.08503600  1
  Se  Se7  1  0.81915000  0.07011200  0.38486600  1
loop_
_geom_bond_atom_site_label_1
_geom_bond_atom_site_label_2
_geom_bond_distance
_geom_bond_site_symmetry_2
K0 Se0 3.417833 1_565
K0 Se3 3.453882 1_654
K0 Se4 3.518659 1_654
K0 Se3 3.545549 1_565
K0 Se7 3.561147 1_565
K0 Se0 3.622199 1_654
K0 Se1 3.624539 1_555
K0 Se2 3.652574 1_555
K1 Se2 3.433297 1_545
K1 Se1 3.451313 1_456
K1 Se5 3.457344 1_545
K1 Se6 3.475223 1_456
K1 Se2 3.537060 1_456
K1 Se0 3.637350 1_555
K1 Se1 3.649523 1_545
K1 Se3 3.708950 1_555
K2 Se7 3.392800 1_465
K2 Se4 3.428604 1_644
K2 Se0 3.485406 1_555
K2 Se4 3.518941 1_555
K2 Se3 3.533887 1_554
K2 Se6 3.614362 1_555
K2 Se7 3.625178 1_554
K2 Se5 3.704356 1_554
K3 Se5 3.390330 1_544
K3 Se1 3.438328 1_455
K3 Se2 3.455257 1_545
K3 Se6 3.500051 1_456
K3 Se5 3.570584 1_455
K3 Se6 3.595262 1_545
K3 Se7 3.614299 1_455
K3 Se4 3.729758 1_545
Cu0 Se6 2.334231 1_555
Cu0 Se4 2.447863 1_555
Cu0 Se5 2.465990 1_555
Cu0 Se7 2.479926 1_555
Cu1 Se3 2.380678 1_565
Cu1 Se2 2.392951 1_556
Cu1 Se1 2.427499 1_555
Cu1 Se0 2.472604 1_655
Se0 V1 2.314483 1_555
Se1 V1 2.267348 1_655
Se2 V1 2.310548 1_565
Se3 V1 2.332570 1_556
Se4 V0 2.374855 1_555
Se5 V0 2.291404 1_555
Se6 V0 2.310644 1_644
Se7 V0 2.310298 1_644
