# generated using pymatgen
data_CsVH12(C2O7)2
_symmetry_space_group_name_H-M   'P 1'
_cell_length_a   6.02865893
_cell_length_b   23.49068430
_cell_length_c   10.61789492
_cell_angle_alpha   82.63743098
_cell_angle_beta   99.60471329
_cell_angle_gamma   88.52922207
_symmetry_Int_Tables_number   1
_chemical_formula_structural   CsVH12(C2O7)2
_chemical_formula_sum   'Cs4 V4 H48 C16 O56'
_cell_volume   1468.67295709
_cell_formula_units_Z   4
loop_
 _symmetry_equiv_pos_site_id
 _symmetry_equiv_pos_as_xyz
  1  'x, y, z'
loop_
 _atom_site_type_symbol
 _atom_site_label
 _atom_site_symmetry_multiplicity
 _atom_site_fract_x
 _atom_site_fract_y
 _atom_site_fract_z
 _atom_site_occupancy
  Cs  Cs0  1  0.00002400  0.99999500  0.00000600  1
  Cs  Cs1  1  0.75010000  0.25000500  0.99999400  1
  Cs  Cs2  1  0.50000400  0.50000400  0.99999300  1
  Cs  Cs3  1  0.24993300  0.74999500  0.00000500  1
  V  V0  1  0.12525300  0.37486700  0.49977800  1
  V  V1  1  0.87458400  0.62513600  0.50025000  1
  V  V2  1  0.37536900  0.12465000  0.49988200  1
  V  V3  1  0.62437900  0.87530100  0.50022400  1
  H  H0  1  0.63325800  0.07326300  0.36159300  1
  H  H1  1  0.38318900  0.32326100  0.36160400  1
  H  H2  1  0.13224400  0.57352900  0.36190100  1
  H  H3  1  0.88204800  0.82361800  0.36194500  1
  H  H4  1  0.11786000  0.17639700  0.63810500  1
  H  H5  1  0.86780400  0.42646900  0.63806700  1
  H  H6  1  0.61685000  0.67673900  0.63835100  1
  H  H7  1  0.36663900  0.92675200  0.63845200  1
  H  H8  1  0.73866500  0.05226200  0.52215100  1
  H  H9  1  0.48837500  0.30224200  0.52217000  1
  H  H10  1  0.23754600  0.55249700  0.52234900  1
  H  H11  1  0.98731800  0.80263000  0.52233200  1
  H  H12  1  0.01260100  0.19738000  0.47764400  1
  H  H13  1  0.76248900  0.44750300  0.47765400  1
  H  H14  1  0.51165700  0.69776000  0.47782200  1
  H  H15  1  0.26124300  0.94775000  0.47781900  1
  H  H16  1  0.74836700  0.09302800  0.18115400  1
  H  H17  1  0.49834800  0.34300500  0.18123400  1
  H  H18  1  0.24829700  0.59302300  0.18135400  1
  H  H19  1  0.99827000  0.84304300  0.18135000  1
  H  H20  1  0.58822500  0.03963400  0.18107800  1
  H  H21  1  0.33823700  0.28959700  0.18113600  1
  H  H22  1  0.08817200  0.53964800  0.18128500  1
  H  H23  1  0.83813200  0.78967800  0.18132000  1
  H  H24  1  0.00174800  0.15695700  0.81863600  1
  H  H25  1  0.75172700  0.40698100  0.81863900  1
  H  H26  1  0.50166200  0.65699700  0.81875500  1
  H  H27  1  0.25163700  0.90697000  0.81882500  1
  H  H28  1  0.16188500  0.21032800  0.81866300  1
  H  H29  1  0.91183800  0.46035800  0.81870300  1
  H  H30  1  0.66179300  0.71039800  0.81887100  1
  H  H31  1  0.41180500  0.96036200  0.81892600  1
  H  H32  1  0.06598300  0.02945000  0.64741700  1
  H  H33  1  0.81578400  0.27936300  0.64726200  1
  H  H34  1  0.56563100  0.52945500  0.64734000  1
  H  H35  1  0.31562600  0.77957400  0.64734100  1
  H  H36  1  0.65641300  0.22616600  0.64726300  1
  H  H37  1  0.40620600  0.47628000  0.64720400  1
  H  H38  1  0.15611500  0.72640600  0.64733600  1
  H  H39  1  0.90638000  0.97628700  0.64751500  1
  H  H40  1  0.68438500  0.22041800  0.35267000  1
  H  H41  1  0.43439000  0.47055300  0.35263100  1
  H  H42  1  0.18423300  0.72064000  0.35270800  1
  H  H43  1  0.93402100  0.97053900  0.35259300  1
  H  H44  1  0.09360800  0.02370700  0.35245800  1
  H  H45  1  0.84388400  0.27359100  0.35265100  1
  H  H46  1  0.59382400  0.52372500  0.35278600  1
  H  H47  1  0.34360700  0.77383400  0.35271800  1
  C  C0  1  0.62289300  0.11688300  0.75762400  1
  C  C1  1  0.37297500  0.36693800  0.75752000  1
  C  C2  1  0.12283000  0.61698600  0.75786300  1
  C  C3  1  0.87278900  0.86703100  0.75793100  1
  C  C4  1  0.46744600  0.06504300  0.75785700  1
  C  C5  1  0.21743200  0.31510200  0.75762500  1
  C  C6  1  0.96727500  0.56516100  0.75791500  1
  C  C7  1  0.71716300  0.81523300  0.75788100  1
  C  C8  1  0.12720900  0.13295900  0.24209500  1
  C  C9  1  0.87719200  0.38302600  0.24211700  1
  C  C10  1  0.62705600  0.63307500  0.24245700  1
  C  C11  1  0.37710700  0.88310200  0.24240700  1
  C  C12  1  0.28286800  0.18474900  0.24219000  1
  C  C13  1  0.03273100  0.43485400  0.24204800  1
  C  C14  1  0.78258700  0.68491400  0.24232100  1
  C  C15  1  0.53257800  0.93493600  0.24220800  1
  O  O0  1  0.61995600  0.07579100  0.45600100  1
  O  O1  1  0.36996100  0.32585900  0.45600400  1
  O  O2  1  0.11908800  0.57613200  0.45627100  1
  O  O3  1  0.86890500  0.82627400  0.45626700  1
  O  O4  1  0.13095700  0.17373100  0.54376000  1
  O  O5  1  0.88097200  0.42387100  0.54370800  1
  O  O6  1  0.63010500  0.67414800  0.54396500  1
  O  O7  1  0.37989700  0.92421300  0.54402600  1
  O  O8  1  0.61420100  0.07715200  0.21351000  1
  O  O9  1  0.36411100  0.32712400  0.21352600  1
  O  O10  1  0.11398200  0.57718800  0.21363300  1
  O  O11  1  0.86396200  0.82722700  0.21363200  1
  O  O12  1  0.13604900  0.17277800  0.78634900  1
  O  O13  1  0.88604400  0.42281400  0.78636600  1
  O  O14  1  0.63590100  0.67287600  0.78646500  1
  O  O15  1  0.38580100  0.92285000  0.78647000  1
  O  O16  1  0.90828200  0.01848800  0.64588800  1
  O  O17  1  0.65818400  0.26835500  0.64586200  1
  O  O18  1  0.40796800  0.51845600  0.64587700  1
  O  O19  1  0.15792900  0.76858500  0.64586200  1
  O  O20  1  0.84207300  0.23141200  0.35412700  1
  O  O21  1  0.59205600  0.48154900  0.35410200  1
  O  O22  1  0.34183400  0.73164300  0.35411400  1
  O  O23  1  0.09171500  0.98150500  0.35409900  1
  O  O24  1  0.59592600  0.15076300  0.64893100  1
  O  O25  1  0.34601000  0.40085700  0.64889300  1
  O  O26  1  0.09547700  0.65101900  0.64939600  1
  O  O27  1  0.84548600  0.90109100  0.64945800  1
  O  O28  1  0.33343800  0.06319200  0.64930400  1
  O  O29  1  0.08334200  0.31332500  0.64908100  1
  O  O30  1  0.83284800  0.56349400  0.64943100  1
  O  O31  1  0.58277100  0.81359200  0.64936600  1
  O  O32  1  0.15443000  0.09890400  0.35057200  1
  O  O33  1  0.90459300  0.34899200  0.35058800  1
  O  O34  1  0.65405500  0.59915600  0.35108700  1
  O  O35  1  0.40399900  0.84922800  0.35111200  1
  O  O36  1  0.41719300  0.18639300  0.35071800  1
  O  O37  1  0.16719600  0.43652400  0.35052000  1
  O  O38  1  0.91670900  0.68669200  0.35087000  1
  O  O39  1  0.66651900  0.93679100  0.35078000  1
  O  O40  1  0.76062000  0.12289600  0.85557500  1
  O  O41  1  0.51072400  0.37289200  0.85550700  1
  O  O42  1  0.26100300  0.62284400  0.85578500  1
  O  O43  1  0.01089500  0.87286700  0.85584800  1
  O  O44  1  0.47960800  0.02917400  0.85599600  1
  O  O45  1  0.22963200  0.27918200  0.85566800  1
  O  O46  1  0.97976400  0.52916700  0.85582600  1
  O  O47  1  0.72956900  0.77922200  0.85576800  1
  O  O48  1  0.98914800  0.12712900  0.14415000  1
  O  O49  1  0.73900800  0.37716200  0.14421300  1
  O  O50  1  0.48928300  0.62711400  0.14448800  1
  O  O51  1  0.23944600  0.87708900  0.14443800  1
  O  O52  1  0.27053000  0.22076300  0.14429700  1
  O  O53  1  0.02020400  0.47084600  0.14412800  1
  O  O54  1  0.77035900  0.72082400  0.14428100  1
  O  O55  1  0.52048100  0.97080200  0.14406700  1
loop_
_geom_bond_atom_site_label_1
_geom_bond_atom_site_label_2
_geom_bond_distance
_geom_bond_site_symmetry_2
Cs0 O44 3.266706 1_464
Cs0 O55 3.267116 1_555
Cs0 O40 3.268420 1_464
Cs0 O51 3.268555 1_555
Cs0 O43 3.529914 1_554
Cs0 O48 3.529962 1_465
Cs0 O44 3.532084 1_564
Cs0 O55 3.532210 1_455
Cs0 O23 3.674962 1_555
Cs0 O16 3.675215 1_464
Cs1 O48 3.266389 1_556
Cs1 O52 3.267841 1_656
Cs1 O45 3.267919 1_555
Cs1 O41 3.268264 1_555
Cs1 O40 3.530877 1_555
Cs1 O49 3.530973 1_556
Cs1 O45 3.533624 1_655
Cs1 O52 3.533940 1_556
Cs1 O20 3.675300 1_556
Cs1 O17 3.675394 1_555
Cs2 O42 3.265761 1_555
Cs2 O49 3.265842 1_556
Cs2 O53 3.265876 1_656
Cs2 O46 3.266198 1_455
Cs2 O41 3.531412 1_555
Cs2 O50 3.531422 1_556
Cs2 O46 3.533883 1_555
Cs2 O53 3.533895 1_556
Cs2 O21 3.675093 1_556
Cs2 O18 3.675169 1_555
Cs3 O43 3.266295 1_554
Cs3 O47 3.267251 1_454
Cs3 O54 3.267530 1_555
Cs3 O50 3.268084 1_555
Cs3 O51 3.530627 1_555
Cs3 O42 3.530843 1_554
Cs3 O54 3.533539 1_455
Cs3 O47 3.533858 1_554
Cs3 O22 3.675156 1_555
Cs3 O19 3.675402 1_554
H0 O0 1.027925 1_555
H0 O8 1.547945 1_555
H1 O1 1.028032 1_555
H1 O9 1.547924 1_555
H2 O2 1.027633 1_555
H2 O10 1.550776 1_555
H3 O3 1.027335 1_555
H3 O11 1.551449 1_555
H4 O4 1.027555 1_555
H4 O12 1.550638 1_555
H5 O5 1.027512 1_555
H5 O13 1.551124 1_555
H6 O6 1.027893 1_555
H6 O14 1.548321 1_555
H7 O7 1.028098 1_555
H7 O15 1.547174 1_555
H8 O0 1.011654 1_555
H8 O16 1.626070 1_555
H9 O1 1.011625 1_555
H9 O17 1.627301 1_555
H10 O2 1.011492 1_555
H10 O18 1.629315 1_555
H11 O3 1.011359 1_555
H11 O19 1.629915 1_655
H12 O4 1.011487 1_555
H12 O20 1.629471 1_455
H13 O5 1.011419 1_555
H13 O21 1.629553 1_555
H14 O6 1.011568 1_555
H14 O22 1.627416 1_555
H15 O7 1.011852 1_555
H15 O23 1.625532 1_555
H16 O8 0.993333 1_555
H17 O9 0.993457 1_555
H18 O10 0.993432 1_555
H19 O11 0.993252 1_555
H20 O8 0.993334 1_555
H21 O9 0.993263 1_555
H22 O10 0.993308 1_555
H23 O11 0.993355 1_555
H24 O12 0.993279 1_555
H25 O13 0.993399 1_555
H26 O14 0.993442 1_555
H27 O15 0.993351 1_555
H28 O12 0.993391 1_555
H29 O13 0.993334 1_555
H30 O14 0.993240 1_555
H31 O15 0.993333 1_555
H32 O16 0.989414 1_455
H33 O17 0.989289 1_555
H34 O18 0.989520 1_555
H35 O19 0.989632 1_555
H36 O17 0.989611 1_555
H37 O18 0.989392 1_555
H38 O19 0.989300 1_555
H39 O16 0.989660 1_565
H40 O20 0.989639 1_555
H41 O21 0.989508 1_555
H42 O22 0.989254 1_555
H43 O23 0.989427 1_655
H44 O23 0.989665 1_545
H45 O20 0.989297 1_555
H46 O21 0.989406 1_555
H47 O22 0.989664 1_555
C0 O40 1.243599 1_555
C0 O24 1.298883 1_555
C1 O41 1.243624 1_555
C1 O25 1.298785 1_555
C2 O42 1.243942 1_555
C2 O26 1.298691 1_555
C3 O43 1.243566 1_655
C3 O27 1.299069 1_555
C4 O44 1.243970 1_555
C4 O28 1.298840 1_555
C5 O45 1.243874 1_555
C5 O29 1.298717 1_555
C6 O46 1.243660 1_555
C6 O30 1.298767 1_555
C7 O47 1.243748 1_555
C7 O31 1.298828 1_555
C8 O48 1.243608 1_455
C8 O32 1.299062 1_555
C9 O49 1.243869 1_555
C9 O33 1.298725 1_555
C10 O50 1.243598 1_555
C10 O34 1.298802 1_555
C11 O51 1.243529 1_555
C11 O35 1.298931 1_555
C12 O52 1.243875 1_555
C12 O36 1.298756 1_555
C13 O53 1.243682 1_555
C13 O37 1.298788 1_555
C14 O54 1.243700 1_555
C14 O38 1.298855 1_555
C15 O55 1.243984 1_555
C15 O39 1.298823 1_555
O0 V2 1.997011 1_555
O1 V0 1.999131 1_555
O2 V1 1.999074 1_455
O3 V3 1.999392 1_555
O4 V2 1.999253 1_555
O5 V0 1.997827 1_655
O6 V1 1.997865 1_555
O7 V3 1.996897 1_555
O24 V2 2.058477 1_555
O25 V0 2.058409 1_555
O26 V1 2.058037 1_455
O27 V3 2.058474 1_555
O28 V2 2.056892 1_555
O29 V0 2.057170 1_555
O30 V1 2.057406 1_555
O31 V3 2.057867 1_555
O32 V2 2.058082 1_555
O33 V0 2.057548 1_655
O34 V1 2.057947 1_555
O35 V3 2.057997 1_555
O36 V2 2.058866 1_555
O37 V0 2.058528 1_555
O38 V1 2.058291 1_555
O39 V3 2.057851 1_555
