# generated using pymatgen
data_Bi2(PbS2)3
_symmetry_space_group_name_H-M   'P 1'
_cell_length_a   7.10930553
_cell_length_b   7.10930553
_cell_length_c   21.11603526
_cell_angle_alpha   87.38110700
_cell_angle_beta   87.38110700
_cell_angle_gamma   33.47893978
_symmetry_Int_Tables_number   1
_chemical_formula_structural   Bi2(PbS2)3
_chemical_formula_sum   'Bi4 Pb6 S12'
_cell_volume   588.05781165
_cell_formula_units_Z   2
loop_
 _symmetry_equiv_pos_site_id
 _symmetry_equiv_pos_as_xyz
  1  'x, y, z'
loop_
 _atom_site_type_symbol
 _atom_site_label
 _atom_site_symmetry_multiplicity
 _atom_site_fract_x
 _atom_site_fract_y
 _atom_site_fract_z
 _atom_site_occupancy
  Bi  Bi0  1  0.40273659  0.40273659  0.13488618  1
  Bi  Bi1  1  0.85875068  0.85875068  0.54903906  1
  Bi  Bi2  1  0.14124932  0.14124932  0.45096094  1
  Bi  Bi3  1  0.59726341  0.59726341  0.86511382  1
  Pb  Pb0  1  0.57656727  0.57656727  0.63527157  1
  Pb  Pb1  1  0.42343273  0.42343273  0.36472843  1
  Pb  Pb2  1  0.86581976  0.86581976  0.95383442  1
  Pb  Pb3  1  0.67595904  0.67595904  0.23477524  1
  Pb  Pb4  1  0.13418024  0.13418024  0.04616558  1
  Pb  Pb5  1  0.32404096  0.32404096  0.76522476  1
  S  S0  1  0.31684444  0.31684444  0.24974137  1
  S  S1  1  0.76464312  0.76464312  0.10266515  1
  S  S2  1  0.76899292  0.76899292  0.41905745  1
  S  S3  1  0.93648918  0.93648918  0.66311993  1
  S  S4  1  0.68315556  0.68315556  0.75025863  1
  S  S5  1  0.23100708  0.23100708  0.58094255  1
  S  S6  1  0.50000000  0.50000000  0.00000000  1
  S  S7  1  0.23535688  0.23535688  0.89733485  1
  S  S8  1  0.06351082  0.06351082  0.33688007  1
  S  S9  1  0.03351076  0.03351076  0.16251546  1
  S  S10  1  0.50000000  0.50000000  0.50000000  1
  S  S11  1  0.96648924  0.96648924  0.83748454  1
loop_
_geom_bond_atom_site_label_1
_geom_bond_atom_site_label_2
_geom_bond_distance
_geom_bond_site_symmetry_2
Bi0 S0 2.641799 1_555
Bi0 S9 2.793373 1_565
Bi0 S9 2.793373 1_655
Bi0 S1 2.883274 1_545
Bi0 S1 2.883274 1_455
Bi0 S6 3.083265 1_555
Bi1 S3 2.677071 1_555
Bi1 S5 2.749579 1_565
Bi1 S5 2.749579 1_655
Bi1 S10 2.962083 1_565
Bi1 S10 2.962083 1_655
Bi1 S2 3.057305 1_555
Bi2 S8 2.677071 1_555
Bi2 S2 2.749579 1_455
Bi2 S2 2.749579 1_545
Bi2 S10 2.962083 1_455
Bi2 S10 2.962083 1_545
Bi2 S5 3.057305 1_555
Bi3 S4 2.641799 1_555
Bi3 S11 2.793373 1_455
Bi3 S11 2.793373 1_545
Bi3 S7 2.883274 1_565
Bi3 S7 2.883274 1_655
Bi3 S6 3.083265 1_556
Pb0 S3 2.840666 1_545
Pb0 S3 2.840666 1_455
Pb0 S4 2.887581 1_555
Pb0 S10 3.087086 1_555
Pb0 S5 3.114594 1_655
Pb0 S5 3.114594 1_565
Pb1 S8 2.840666 1_655
Pb1 S8 2.840666 1_565
Pb1 S0 2.887581 1_555
Pb1 S10 3.087086 1_555
Pb1 S2 3.114594 1_545
Pb1 S2 3.114594 1_455
Pb2 S11 2.755652 1_555
Pb2 S6 2.941257 1_566
Pb2 S6 2.941257 1_656
Pb2 S7 2.995654 1_565
Pb2 S7 2.995654 1_655
Pb3 S0 2.833795 1_565
Pb3 S0 2.833795 1_655
Pb3 S1 2.986431 1_555
Pb4 S9 2.755652 1_555
Pb4 S6 2.941257 1_455
Pb4 S6 2.941257 1_545
Pb4 S1 2.995654 1_545
Pb4 S1 2.995654 1_455
Pb5 S4 2.833795 1_545
Pb5 S4 2.833795 1_455
Pb5 S7 2.986431 1_555
