# generated using pymatgen
data_P2WO8
_symmetry_space_group_name_H-M   'P 1'
_cell_length_a   5.16120644
_cell_length_b   6.63613492
_cell_length_c   16.44223051
_cell_angle_alpha   90.00000000
_cell_angle_beta   90.00000000
_cell_angle_gamma   90.00000000
_symmetry_Int_Tables_number   1
_chemical_formula_structural   P2WO8
_chemical_formula_sum   'P8 W4 O32'
_cell_volume   563.15399598
_cell_formula_units_Z   4
loop_
 _symmetry_equiv_pos_site_id
 _symmetry_equiv_pos_as_xyz
  1  'x, y, z'
loop_
 _atom_site_type_symbol
 _atom_site_label
 _atom_site_symmetry_multiplicity
 _atom_site_fract_x
 _atom_site_fract_y
 _atom_site_fract_z
 _atom_site_occupancy
  P  P0  1  0.75000000  0.21126173  0.83229452  1
  P  P1  1  0.75000000  0.90387263  0.42506286  1
  P  P2  1  0.75000000  0.28873827  0.33229452  1
  P  P3  1  0.75000000  0.59612737  0.92506286  1
  P  P4  1  0.25000000  0.78873827  0.16770548  1
  P  P5  1  0.25000000  0.40387263  0.07493714  1
  P  P6  1  0.25000000  0.09612737  0.57493714  1
  P  P7  1  0.25000000  0.71126173  0.66770548  1
  W  W0  1  0.25000000  0.61787220  0.37435003  1
  W  W1  1  0.75000000  0.38212780  0.62564997  1
  W  W2  1  0.75000000  0.11787220  0.12564997  1
  W  W3  1  0.25000000  0.88212780  0.87435003  1
  O  O0  1  0.75000000  0.32075813  0.75372794  1
  O  O1  1  0.25000000  0.37013233  0.98783121  1
  O  O2  1  0.51499340  0.81967019  0.37591126  1
  O  O3  1  0.25000000  0.12986767  0.48783121  1
  O  O4  1  0.01104826  0.58056529  0.65624551  1
  O  O5  1  0.75000000  0.36448612  0.90394368  1
  O  O6  1  0.98895174  0.08056529  0.84375449  1
  O  O7  1  0.25000000  0.93088645  0.97515965  1
  O  O8  1  0.25000000  0.82075813  0.74627206  1
  O  O9  1  0.48500660  0.31967019  0.12408874  1
  O  O10  1  0.25000000  0.56911355  0.47515965  1
  O  O11  1  0.25000000  0.67924187  0.24627206  1
  O  O12  1  0.01499340  0.18032981  0.62408874  1
  O  O13  1  0.75000000  0.13551388  0.40394368  1
  O  O14  1  0.75000000  0.43088645  0.52484035  1
  O  O15  1  0.48895174  0.58056529  0.65624551  1
  O  O16  1  0.98500660  0.68032981  0.87591126  1
  O  O17  1  0.98500660  0.81967019  0.37591126  1
  O  O18  1  0.25000000  0.63551388  0.09605632  1
  O  O19  1  0.48500660  0.18032981  0.62408874  1
  O  O20  1  0.51104826  0.08056529  0.84375449  1
  O  O21  1  0.51104826  0.41943471  0.34375449  1
  O  O22  1  0.25000000  0.86448612  0.59605632  1
  O  O23  1  0.75000000  0.62986767  0.01216879  1
  O  O24  1  0.75000000  0.06911355  0.02484035  1
  O  O25  1  0.98895174  0.41943471  0.34375449  1
  O  O26  1  0.48895174  0.91943471  0.15624551  1
  O  O27  1  0.75000000  0.17924287  0.25372794  1
  O  O28  1  0.75000000  0.87013233  0.51216879  1
  O  O29  1  0.51499340  0.68032981  0.87591126  1
  O  O30  1  0.01499340  0.31967019  0.12408874  1
  O  O31  1  0.01104826  0.91943471  0.15624551  1
loop_
_geom_bond_atom_site_label_1
_geom_bond_atom_site_label_2
_geom_bond_distance
_geom_bond_site_symmetry_2
O0 P0 1.482150 1_555
O0 W1 2.144906 1_555
O1 P5 1.449612 1_556
O2 P1 1.560938 1_555
O2 W0 1.914306 1_555
O3 P6 1.449612 1_555
O4 P7 1.519449 1_555
O4 W1 1.949991 1_455
O5 P0 1.556204 1_555
O5 P3 1.575935 1_555
O6 P0 1.519449 1_555
O6 W3 1.949991 1_645
O7 W3 1.688822 1_555
O8 P7 1.482150 1_555
O8 W3 2.144906 1_555
O9 P5 1.560938 1_555
O9 W2 1.914306 1_555
O10 W0 1.688822 1_555
O11 P4 1.482150 1_555
O11 W0 2.144906 1_555
O12 P6 1.560938 1_555
O12 W1 1.914306 1_455
O13 P2 1.556204 1_555
O13 P1 1.575935 1_545
O14 W1 1.688822 1_555
O15 P7 1.519449 1_555
O15 W1 1.949991 1_555
O16 P3 1.560938 1_555
O16 W3 1.914306 1_655
O17 P1 1.560938 1_555
O17 W0 1.914306 1_655
O18 P4 1.556204 1_555
O18 P5 1.575935 1_555
O19 P6 1.560938 1_555
O19 W1 1.914306 1_555
O20 P0 1.519449 1_555
O20 W3 1.949991 1_545
O21 P2 1.519449 1_555
O21 W0 1.949991 1_555
O22 P7 1.556204 1_555
O22 P6 1.575935 1_565
O23 P3 1.449612 1_554
O24 W2 1.688822 1_555
O25 P2 1.519449 1_555
O25 W0 1.949991 1_655
O26 P4 1.519449 1_555
O26 W2 1.949991 1_565
O27 P2 1.482147 1_555
O27 W2 2.144907 1_555
O28 P1 1.449612 1_555
O29 P3 1.560938 1_555
O29 W3 1.914306 1_555
O30 P5 1.560938 1_555
O30 W2 1.914306 1_455
O31 P4 1.519449 1_555
O31 W2 1.949991 1_465
