# generated using pymatgen
data_Sr2ErRuO6
_symmetry_space_group_name_H-M   'P 1'
_cell_length_a   5.84773500
_cell_length_b   5.79670000
_cell_length_c   10.03036692
_cell_angle_alpha   55.01386960
_cell_angle_beta   90.00000000
_cell_angle_gamma   90.00000000
_symmetry_Int_Tables_number   1
_chemical_formula_structural   Sr2ErRuO6
_chemical_formula_sum   'Sr4 Er2 Ru2 O12'
_cell_volume   278.56300679
_cell_formula_units_Z   2
loop_
 _symmetry_equiv_pos_site_id
 _symmetry_equiv_pos_as_xyz
  1  'x, y, z'
loop_
 _atom_site_type_symbol
 _atom_site_label
 _atom_site_symmetry_multiplicity
 _atom_site_fract_x
 _atom_site_fract_y
 _atom_site_fract_z
 _atom_site_occupancy
  Sr  Sr0  1  0.03425800  0.74189000  0.25054100  1
  Sr  Sr1  1  0.53425800  0.25811000  0.24945900  1
  Sr  Sr2  1  0.46574200  0.74189000  0.75054100  1
  Sr  Sr3  1  0.96574200  0.25811000  0.74945900  1
  Er  Er0  1  0.00000000  0.00000000  0.50000000  1
  Er  Er1  1  0.50000000  0.00000000  0.00000000  1
  Ru  Ru0  1  0.00000000  0.50000000  0.00000000  1
  Ru  Ru1  1  0.50000000  0.50000000  0.50000000  1
  O  O0  1  0.01788900  0.80722400  0.76444900  1
  O  O1  1  0.51788900  0.19277600  0.73555100  1
  O  O2  1  0.98211100  0.19277600  0.23555100  1
  O  O3  1  0.48211100  0.80722400  0.26444900  1
  O  O4  1  0.20189400  0.26647600  0.96293500  1
  O  O5  1  0.70189400  0.73352400  0.53706500  1
  O  O6  1  0.79810600  0.73352400  0.03706500  1
  O  O7  1  0.29810600  0.26647600  0.46293500  1
  O  O8  1  0.27185700  0.66045400  0.03895400  1
  O  O9  1  0.77185700  0.33954600  0.46104600  1
  O  O10  1  0.72814300  0.33954600  0.96104600  1
  O  O11  1  0.22814300  0.66045400  0.53895400  1
loop_
_geom_bond_atom_site_label_1
_geom_bond_atom_site_label_2
_geom_bond_distance
_geom_bond_site_symmetry_2
Er0 O2 2.212790 1_455
Er0 O0 2.212790 1_545
Er0 O7 2.214635 1_555
Er0 O5 2.214635 1_445
Er0 O11 2.219151 1_545
Er0 O9 2.219151 1_455
Er1 O3 2.212790 1_545
Er1 O1 2.212790 1_554
Er1 O4 2.214635 1_554
Er1 O6 2.214635 1_545
Er1 O10 2.219151 1_554
Er1 O8 2.219151 1_545
O0 Ru0 1.984828 1_556
O0 Sr3 2.548749 1_465
O0 Sr2 2.661249 1_555
O1 Ru1 1.984828 1_555
O1 Sr2 2.548749 1_545
O1 Sr3 2.661249 1_555
O2 Ru0 1.984828 1_655
O2 Sr0 2.548749 1_645
O2 Sr1 2.661249 1_555
O3 Ru1 1.984828 1_555
O3 Sr1 2.548749 1_565
O3 Sr0 2.661249 1_555
O4 Ru0 1.985352 1_556
O4 Sr3 2.571650 1_455
O4 Sr2 2.789471 1_555
O4 Sr0 2.910364 1_546
O5 Ru1 1.985352 1_555
O5 Sr2 2.571650 1_555
O5 Sr3 2.789471 1_555
O5 Sr1 2.910364 1_565
O6 Ru0 1.985352 1_655
O6 Sr0 2.571650 1_655
O6 Sr1 2.789471 1_555
O6 Sr3 2.910364 1_564
O7 Ru1 1.985352 1_555
O7 Sr1 2.571650 1_555
O7 Sr0 2.789471 1_555
O7 Sr2 2.910364 1_545
O8 Ru0 1.990427 1_555
O8 Sr1 2.570031 1_555
O8 Sr0 2.793982 1_555
O8 Sr2 2.882896 1_554
O9 Ru1 1.990427 1_555
O9 Sr0 2.570031 1_655
O9 Sr1 2.793982 1_555
O9 Sr3 2.882896 1_555
O10 Ru0 1.990427 1_656
O10 Sr2 2.570031 1_555
O10 Sr3 2.793982 1_555
O10 Sr1 2.882896 1_556
O11 Ru1 1.990427 1_555
O11 Sr3 2.570031 1_455
O11 Sr2 2.793982 1_555
O11 Sr0 2.882896 1_555
