# generated using pymatgen
data_Ce3Dy2O9
_symmetry_space_group_name_H-M   'P 1'
_cell_length_a   13.88558802
_cell_length_b   13.88558802
_cell_length_c   13.88558802
_cell_angle_alpha   164.03683679
_cell_angle_beta   164.03683679
_cell_angle_gamma   22.64956598
_symmetry_Int_Tables_number   1
_chemical_formula_structural   Ce3Dy2O9
_chemical_formula_sum   'Ce3 Dy2 O9'
_cell_volume   202.45810551
_cell_formula_units_Z   1
loop_
 _symmetry_equiv_pos_site_id
 _symmetry_equiv_pos_as_xyz
  1  'x, y, z'
loop_
 _atom_site_type_symbol
 _atom_site_label
 _atom_site_symmetry_multiplicity
 _atom_site_fract_x
 _atom_site_fract_y
 _atom_site_fract_z
 _atom_site_occupancy
  Ce  Ce0  1  0.14917000  0.64917000  0.50000000  1
  Ce  Ce1  1  0.35083000  0.85083000  0.50000000  1
  Ce  Ce2  1  0.75000000  0.25000000  0.50000000  1
  Dy  Dy0  1  0.94451800  0.44451800  0.50000000  1
  Dy  Dy1  1  0.55548200  0.05548200  0.50000000  1
  O  O0  1  0.60471300  0.60471300  0.00000000  1
  O  O1  1  0.19534300  0.19534300  0.00000000  1
  O  O2  1  0.80465700  0.80465700  0.00000000  1
  O  O3  1  0.39528700  0.39528700  0.00000000  1
  O  O4  1  0.90845500  0.90845500  0.00000000  1
  O  O5  1  0.50000000  0.50000000  0.00000000  1
  O  O6  1  0.09154500  0.09154500  0.00000000  1
  O  O7  1  0.70354000  0.70354000  0.00000000  1
  O  O8  1  0.29646000  0.29646000  0.00000000  1
loop_
_geom_bond_atom_site_label_1
_geom_bond_atom_site_label_2
_geom_bond_distance
_geom_bond_site_symmetry_2
Ce0 O0 2.276622 1_455
Ce0 O0 2.276622 1_556
Ce0 O1 2.301809 1_555
Ce0 O1 2.301809 1_566
Ce0 O7 2.430933 1_455
Ce0 O7 2.430933 1_556
Ce0 O6 2.485909 1_555
Ce0 O6 2.485909 1_566
Ce1 O3 2.276622 1_566
Ce1 O3 2.276622 1_555
Ce1 O2 2.301809 1_455
Ce1 O2 2.301809 1_556
Ce1 O8 2.430933 1_566
Ce1 O8 2.430933 1_555
Ce1 O4 2.485909 1_455
Ce1 O4 2.485909 1_556
Ce2 O7 2.306088 1_545
Ce2 O7 2.306088 1_556
Ce2 O8 2.306088 1_555
Ce2 O8 2.306088 1_656
Ce2 O2 2.435700 1_545
Ce2 O1 2.435700 1_555
Ce2 O2 2.435700 1_556
Ce2 O1 2.435700 1_656
Dy0 O4 2.163756 1_545
Dy0 O4 2.163756 1_556
Dy0 O3 2.348330 1_555
Dy0 O3 2.348330 1_656
Dy0 O5 2.449492 1_656
Dy0 O5 2.449492 1_555
Dy1 O6 2.163756 1_555
Dy1 O6 2.163756 1_656
Dy1 O0 2.348330 1_545
Dy1 O0 2.348330 1_556
Dy1 O5 2.449492 1_556
Dy1 O5 2.449492 1_545
