# generated using pymatgen
data_Ca3YAl3B4O15
_symmetry_space_group_name_H-M   'P 1'
_cell_length_a   11.68992400
_cell_length_b   10.52650800
_cell_length_c   10.52771033
_cell_angle_alpha   60.00726543
_cell_angle_beta   90.00000000
_cell_angle_gamma   90.00000000
_symmetry_Int_Tables_number   1
_chemical_formula_structural   Ca3YAl3B4O15
_chemical_formula_sum   'Ca12 Y4 Al12 B16 O60'
_cell_volume   1121.99872013
_cell_formula_units_Z   4
loop_
 _symmetry_equiv_pos_site_id
 _symmetry_equiv_pos_as_xyz
  1  'x, y, z'
loop_
 _atom_site_type_symbol
 _atom_site_label
 _atom_site_symmetry_multiplicity
 _atom_site_fract_x
 _atom_site_fract_y
 _atom_site_fract_z
 _atom_site_occupancy
  Ca  Ca0  1  0.00000000  0.87454200  0.82363000  1
  Ca  Ca1  1  0.50000000  0.67299400  0.65893000  1
  Ca  Ca2  1  0.50000000  0.83844900  0.31009100  1
  Ca  Ca3  1  0.00000000  0.83802300  0.30628400  1
  Ca  Ca4  1  0.75063300  0.74924500  0.11851300  1
  Ca  Ca5  1  0.24936700  0.74924500  0.11851300  1
  Ca  Ca6  1  0.50000000  0.32894700  0.85339000  1
  Ca  Ca7  1  0.00000000  0.32535900  0.85895400  1
  Ca  Ca8  1  0.75079700  0.16457000  0.72583800  1
  Ca  Ca9  1  0.24920300  0.16457000  0.72583800  1
  Ca  Ca10  1  0.74950300  0.13571400  0.13695400  1
  Ca  Ca11  1  0.25049700  0.13571400  0.13695400  1
  Y  Y0  1  0.50000000  0.87047700  0.81608600  1
  Y  Y1  1  0.00000000  0.67723700  0.66262700  1
  Y  Y2  1  0.74978900  0.34327700  0.32844500  1
  Y  Y3  1  0.25021100  0.34327700  0.32844500  1
  Al  Al0  1  0.62718000  0.51394600  0.99569400  1
  Al  Al1  1  0.12645900  0.51508700  0.99604200  1
  Al  Al2  1  0.37435900  0.50954900  0.49444200  1
  Al  Al3  1  0.87377600  0.50809800  0.49709700  1
  Al  Al4  1  0.62564100  0.50954900  0.49444200  1
  Al  Al5  1  0.12622400  0.50809800  0.49709700  1
  Al  Al6  1  0.37282000  0.51394600  0.99569400  1
  Al  Al7  1  0.87354100  0.51508700  0.99604200  1
  Al  Al8  1  0.87367000  0.00909800  0.49388300  1
  Al  Al9  1  0.37106000  0.00769200  0.49195300  1
  Al  Al10  1  0.62894000  0.00769200  0.49195300  1
  Al  Al11  1  0.12633000  0.00909800  0.49388300  1
  B  B0  1  0.37410900  0.01272200  0.99365100  1
  B  B1  1  0.75264700  0.78369300  0.76467100  1
  B  B2  1  0.24735300  0.78369300  0.76467100  1
  B  B3  1  0.62589100  0.01272200  0.99365100  1
  B  B4  1  0.86947800  0.01552300  0.99339300  1
  B  B5  1  0.13052200  0.01552300  0.99339300  1
  B  B6  1  0.24934900  0.77552100  0.45374100  1
  B  B7  1  0.75065100  0.77552100  0.45374100  1
  B  B8  1  0.75007000  0.47632000  0.76650900  1
  B  B9  1  0.24993000  0.47632000  0.76650900  1
  B  B10  1  0.50000000  0.55472400  0.21918200  1
  B  B11  1  0.00000000  0.55480100  0.22041500  1
  B  B12  1  0.50000000  0.24078200  0.54039700  1
  B  B13  1  0.00000000  0.23986300  0.54020300  1
  B  B14  1  0.50000000  0.23546200  0.22615800  1
  B  B15  1  0.00000000  0.23382800  0.22551000  1
  O  O0  1  0.65029100  0.83994300  0.69084500  1
  O  O1  1  0.14531100  0.83445300  0.68861700  1
  O  O2  1  0.85468900  0.83445300  0.68861700  1
  O  O3  1  0.34970900  0.83994300  0.69084500  1
  O  O4  1  0.50000000  0.91903100  0.47592300  1
  O  O5  1  0.00000000  0.91551500  0.47493000  1
  O  O6  1  0.24983300  0.92332600  0.42166600  1
  O  O7  1  0.75016700  0.92332600  0.42166600  1
  O  O8  1  0.75145400  0.67433000  0.91375000  1
  O  O9  1  0.24854600  0.67433000  0.91375000  1
  O  O10  1  0.50000000  0.63006300  0.90621300  1
  O  O11  1  0.00000000  0.62717800  0.90356200  1
  O  O12  1  0.85382900  0.70237600  0.47536400  1
  O  O13  1  0.35114400  0.70340400  0.46843800  1
  O  O14  1  0.64885600  0.70340400  0.46843800  1
  O  O15  1  0.14617100  0.70237600  0.47536400  1
  O  O16  1  0.85313100  0.50019700  0.81769600  1
  O  O17  1  0.64847600  0.49538700  0.82223000  1
  O  O18  1  0.35152400  0.49538700  0.82223000  1
  O  O19  1  0.14686900  0.50019700  0.81769600  1
  O  O20  1  0.50000000  0.48426800  0.60733500  1
  O  O21  1  0.00000000  0.48728800  0.61067300  1
  O  O22  1  0.50000000  0.58797800  0.33266100  1
  O  O23  1  0.00000000  0.58581100  0.33575200  1
  O  O24  1  0.75011300  0.43709100  0.65597800  1
  O  O25  1  0.24988700  0.43709100  0.65597800  1
  O  O26  1  0.75064200  0.53188200  0.37787300  1
  O  O27  1  0.24935800  0.53188200  0.37787300  1
  O  O28  1  0.13691200  0.16574500  0.92888600  1
  O  O29  1  0.63334400  0.16222500  0.91922600  1
  O  O30  1  0.86308800  0.16574500  0.92888600  1
  O  O31  1  0.36665600  0.16222500  0.91922600  1
  O  O32  1  0.60440200  0.53860700  0.16492200  1
  O  O33  1  0.10405200  0.53985200  0.16501800  1
  O  O34  1  0.39559800  0.53860700  0.16492200  1
  O  O35  1  0.89594800  0.53985200  0.16501800  1
  O  O36  1  0.60407400  0.31210000  0.52037100  1
  O  O37  1  0.39592600  0.31210000  0.52037100  1
  O  O38  1  0.10378900  0.31137200  0.52434100  1
  O  O39  1  0.89621100  0.31137200  0.52434100  1
  O  O40  1  0.37130800  0.93786200  0.91630800  1
  O  O41  1  0.62869200  0.93786200  0.91630800  1
  O  O42  1  0.86125900  0.95111900  0.90771600  1
  O  O43  1  0.13874100  0.95111900  0.90771600  1
  O  O44  1  0.24936100  0.39358900  0.08798300  1
  O  O45  1  0.75063900  0.39358900  0.08798300  1
  O  O46  1  0.50000000  0.35161800  0.07936600  1
  O  O47  1  0.00000000  0.35124100  0.07973500  1
  O  O48  1  0.50000000  0.09056900  0.58073100  1
  O  O49  1  0.00000000  0.09332500  0.57121700  1
  O  O50  1  0.75061100  0.10348500  0.51905700  1
  O  O51  1  0.24938900  0.10348500  0.51905700  1
  O  O52  1  0.89608200  0.17739100  0.29653500  1
  O  O53  1  0.39597100  0.17970500  0.29725900  1
  O  O54  1  0.60402900  0.17970500  0.29725900  1
  O  O55  1  0.10391800  0.17739100  0.29653500  1
  O  O56  1  0.86456300  0.93004000  0.14354900  1
  O  O57  1  0.36558200  0.93377800  0.14357100  1
  O  O58  1  0.63441800  0.93377800  0.14357100  1
  O  O59  1  0.13543700  0.93004000  0.14354900  1
loop_
_geom_bond_atom_site_label_1
_geom_bond_atom_site_label_2
_geom_bond_distance
_geom_bond_site_symmetry_2
Ca0 O42 2.185704 1_455
Ca0 O43 2.185704 1_555
Ca0 O11 2.301657 1_555
Ca0 O1 2.384025 1_555
Ca0 O2 2.384025 1_455
Ca0 O49 2.499354 1_565
Ca1 O20 2.306637 1_555
Ca1 O4 2.330419 1_555
Ca1 O10 2.409419 1_555
Ca1 O17 2.500005 1_555
Ca1 O18 2.500005 1_555
Ca1 O13 2.551560 1_555
Ca1 O14 2.551560 1_555
Ca1 O0 2.622654 1_555
Ca1 O3 2.622654 1_555
Ca2 O58 2.188733 1_555
Ca2 O57 2.188733 1_555
Ca2 O4 2.290856 1_555
Ca2 O13 2.336355 1_555
Ca2 O14 2.336355 1_555
Ca2 O22 2.526202 1_555
Ca3 O59 2.172773 1_555
Ca3 O56 2.172773 1_455
Ca3 O5 2.294690 1_555
Ca3 O15 2.363469 1_555
Ca3 O12 2.363469 1_455
Ca3 O23 2.514229 1_555
Ca4 O56 2.442682 1_555
Ca4 O58 2.490144 1_555
Ca4 O41 2.506003 1_554
Ca4 O42 2.529462 1_554
Ca4 O26 2.538620 1_555
Ca4 O35 2.627707 1_555
Ca4 O8 2.639799 1_554
Ca4 O32 2.644640 1_555
Ca5 O59 2.442682 1_555
Ca5 O57 2.490144 1_555
Ca5 O40 2.506003 1_554
Ca5 O43 2.529462 1_554
Ca5 O27 2.538620 1_555
Ca5 O33 2.627707 1_555
Ca5 O9 2.639799 1_554
Ca5 O34 2.644640 1_555
Ca6 O31 2.184969 1_555
Ca6 O29 2.184969 1_555
Ca6 O20 2.269141 1_555
Ca6 O17 2.369636 1_555
Ca6 O18 2.369636 1_555
Ca6 O46 2.506842 1_556
Ca7 O28 2.165613 1_555
Ca7 O30 2.165613 1_455
Ca7 O21 2.298515 1_555
Ca7 O19 2.392559 1_555
Ca7 O16 2.392559 1_455
Ca7 O47 2.471801 1_556
Ca8 O29 2.445519 1_555
Ca8 O42 2.465959 1_545
Ca8 O30 2.513794 1_555
Ca8 O39 2.549538 1_555
Ca8 O50 2.559683 1_555
Ca8 O24 2.580895 1_555
Ca8 O36 2.583422 1_555
Ca8 O41 2.639921 1_545
Ca9 O31 2.445519 1_555
Ca9 O43 2.465959 1_545
Ca9 O28 2.513794 1_555
Ca9 O38 2.549538 1_555
Ca9 O51 2.559683 1_555
Ca9 O25 2.580895 1_555
Ca9 O37 2.583422 1_555
Ca9 O40 2.639921 1_545
Ca10 O30 2.443129 1_554
Ca10 O58 2.487017 1_545
Ca10 O45 2.497085 1_555
Ca10 O56 2.520124 1_545
Ca10 O29 2.556616 1_554
Ca10 O52 2.586098 1_555
Ca10 O54 2.595358 1_555
Ca10 O7 2.698682 1_545
Ca11 O28 2.443129 1_554
Ca11 O57 2.487017 1_545
Ca11 O44 2.497085 1_555
Ca11 O59 2.520124 1_545
Ca11 O31 2.556616 1_554
Ca11 O55 2.586098 1_555
Ca11 O53 2.595358 1_555
Ca11 O6 2.698682 1_545
Al0 O45 1.844275 1_556
Al0 O10 1.854887 1_555
Al0 O32 1.942863 1_556
Al0 O17 1.947243 1_555
Al0 O8 2.061282 1_555
Al0 O46 2.097914 1_556
Al1 O11 1.837651 1_555
Al1 O44 1.843662 1_556
Al1 O33 1.940311 1_556
Al1 O19 1.975097 1_555
Al1 O9 2.036025 1_555
Al1 O47 2.101679 1_556
Al2 O20 1.823274 1_555
Al2 O27 1.846109 1_555
Al2 O13 1.937572 1_555
Al2 O37 1.972508 1_555
Al2 O25 2.072250 1_555
Al2 O22 2.081776 1_555
Al3 O21 1.842023 1_655
Al3 O26 1.842789 1_555
Al3 O12 1.954795 1_555
Al3 O39 1.961019 1_555
Al3 O24 2.048485 1_555
Al3 O23 2.083852 1_655
Al4 O20 1.823274 1_555
Al4 O26 1.846109 1_555
Al4 O14 1.937572 1_555
Al4 O36 1.972508 1_555
Al4 O24 2.072250 1_555
Al4 O22 2.081776 1_555
Al5 O21 1.842023 1_555
Al5 O27 1.842789 1_555
Al5 O15 1.954795 1_555
Al5 O38 1.961019 1_555
Al5 O25 2.048485 1_555
Al5 O23 2.083852 1_555
Al6 O44 1.844275 1_556
Al6 O10 1.854887 1_555
Al6 O34 1.942863 1_556
Al6 O18 1.947243 1_555
Al6 O9 2.061282 1_555
Al6 O46 2.097914 1_556
Al7 O11 1.837651 1_655
Al7 O45 1.843662 1_556
Al7 O35 1.940311 1_556
Al7 O16 1.975097 1_555
Al7 O8 2.036025 1_555
Al7 O47 2.101679 1_656
Al8 O5 1.840559 1_645
Al8 O50 1.841222 1_555
Al8 O52 1.960542 1_555
Al8 O2 1.965653 1_545
Al8 O7 2.040562 1_545
Al8 O49 2.086028 1_655
Al9 O4 1.824535 1_545
Al9 O51 1.846320 1_555
Al9 O53 1.963182 1_555
Al9 O3 1.966756 1_545
Al9 O6 2.000374 1_545
Al9 O48 2.172963 1_555
Al10 O4 1.824535 1_545
Al10 O50 1.846320 1_555
Al10 O54 1.963182 1_555
Al10 O0 1.966756 1_545
Al10 O7 2.000374 1_545
Al10 O48 2.172963 1_555
Al11 O5 1.840559 1_545
Al11 O51 1.841222 1_555
Al11 O55 1.960542 1_555
Al11 O1 1.965653 1_545
Al11 O6 2.040562 1_545
Al11 O49 2.086028 1_555
B0 O31 1.365788 1_555
B0 O57 1.371234 1_546
B0 O40 1.387995 1_545
B1 O2 1.386283 1_555
B1 O0 1.387898 1_555
B1 O8 1.407943 1_555
B2 O1 1.386283 1_555
B2 O3 1.387898 1_555
B2 O9 1.407943 1_555
B3 O29 1.365788 1_555
B3 O58 1.371234 1_546
B3 O41 1.387995 1_545
B4 O56 1.374694 1_546
B4 O30 1.376107 1_555
B4 O42 1.376148 1_545
B5 O59 1.374694 1_546
B5 O28 1.376107 1_555
B5 O43 1.376148 1_545
B6 O13 1.377985 1_555
B6 O15 1.387157 1_555
B6 O6 1.417577 1_555
B7 O14 1.377985 1_555
B7 O12 1.387157 1_555
B7 O7 1.417577 1_555
B8 O17 1.382957 1_555
B8 O16 1.393005 1_555
B8 O24 1.415977 1_555
B9 O18 1.382957 1_555
B9 O19 1.393005 1_555
B9 O25 1.415977 1_555
B10 O34 1.393372 1_555
B10 O32 1.393372 1_555
B10 O22 1.402812 1_555
B11 O33 1.391465 1_555
B11 O35 1.391465 1_455
B11 O23 1.406127 1_555
B12 O36 1.389230 1_555
B12 O37 1.389230 1_555
B12 O48 1.417491 1_555
B13 O38 1.393159 1_555
B13 O39 1.393159 1_455
B13 O49 1.408005 1_555
B14 O54 1.394426 1_555
B14 O53 1.394426 1_555
B14 O46 1.412125 1_555
B15 O55 1.394146 1_555
B15 O52 1.394146 1_455
B15 O47 1.409410 1_555
O0 Y0 2.313463 1_555
O1 Y1 2.480300 1_555
O2 Y1 2.480300 1_655
O3 Y0 2.313463 1_555
O5 Y1 2.289250 1_555
O10 Y0 2.214526 1_555
O11 Y1 2.318441 1_555
O12 Y1 2.520875 1_655
O15 Y1 2.520875 1_555
O16 Y1 2.458488 1_655
O19 Y1 2.458488 1_555
O21 Y1 2.321758 1_555
O26 Y2 2.290279 1_555
O27 Y3 2.290279 1_555
O32 Y2 2.557530 1_555
O33 Y3 2.569404 1_555
O34 Y3 2.557530 1_555
O35 Y2 2.569404 1_555
O36 Y2 2.535525 1_555
O37 Y3 2.535525 1_555
O38 Y3 2.569695 1_555
O39 Y2 2.569695 1_555
O40 Y0 2.151249 1_555
O41 Y0 2.151249 1_555
O44 Y3 2.312732 1_555
O45 Y2 2.312732 1_555
O48 Y0 2.401586 1_545
O50 Y2 2.309600 1_555
O51 Y3 2.309600 1_555
O52 Y2 2.583251 1_555
O53 Y3 2.557552 1_555
O54 Y2 2.557552 1_555
O55 Y3 2.583251 1_555
