# generated using pymatgen
data_EuTl(MoO4)2
_symmetry_space_group_name_H-M   'P 1'
_cell_length_a   5.26453300
_cell_length_b   8.48482600
_cell_length_c   19.06998500
_cell_angle_alpha   90.00000000
_cell_angle_beta   90.00000000
_cell_angle_gamma   90.00000000
_symmetry_Int_Tables_number   1
_chemical_formula_structural   EuTl(MoO4)2
_chemical_formula_sum   'Eu4 Tl4 Mo8 O32'
_cell_volume   851.83041827
_cell_formula_units_Z   4
loop_
 _symmetry_equiv_pos_site_id
 _symmetry_equiv_pos_as_xyz
  1  'x, y, z'
loop_
 _atom_site_type_symbol
 _atom_site_label
 _atom_site_symmetry_multiplicity
 _atom_site_fract_x
 _atom_site_fract_y
 _atom_site_fract_z
 _atom_site_occupancy
  Eu  Eu0  1  0.50000000  0.75000000  0.49329800  1
  Eu  Eu1  1  0.50000000  0.25000000  0.50670200  1
  Eu  Eu2  1  0.00000000  0.25000000  0.00670200  1
  Eu  Eu3  1  0.00000000  0.75000000  0.99329800  1
  Tl  Tl0  1  0.50000000  0.75000000  0.73047300  1
  Tl  Tl1  1  0.50000000  0.25000000  0.26952700  1
  Tl  Tl2  1  0.00000000  0.25000000  0.76952700  1
  Tl  Tl3  1  0.00000000  0.75000000  0.23047300  1
  Mo  Mo0  1  0.52126900  0.01699700  0.89905900  1
  Mo  Mo1  1  0.47873100  0.98300300  0.10094100  1
  Mo  Mo2  1  0.02126900  0.48300300  0.39905900  1
  Mo  Mo3  1  0.02126900  0.98300300  0.60094100  1
  Mo  Mo4  1  0.52126900  0.51699700  0.10094100  1
  Mo  Mo5  1  0.97873100  0.51699700  0.60094100  1
  Mo  Mo6  1  0.97873100  0.01699700  0.39905900  1
  Mo  Mo7  1  0.47873100  0.48300300  0.89905900  1
  O  O0  1  0.24416600  0.99587300  0.46141300  1
  O  O1  1  0.27614600  0.65224000  0.90316500  1
  O  O2  1  0.23432600  0.31509400  0.41043400  1
  O  O3  1  0.25583400  0.49587300  0.03858700  1
  O  O4  1  0.75583400  0.50412700  0.46141300  1
  O  O5  1  0.77614600  0.84776000  0.40316500  1
  O  O6  1  0.75583400  0.00412700  0.53858700  1
  O  O7  1  0.23432600  0.81509400  0.58956600  1
  O  O8  1  0.10009900  0.02333900  0.31305700  1
  O  O9  1  0.73432600  0.68490600  0.08956600  1
  O  O10  1  0.60009900  0.47666100  0.81305700  1
  O  O11  1  0.22385400  0.65224000  0.40316500  1
  O  O12  1  0.22385400  0.15224000  0.59683500  1
  O  O13  1  0.74416600  0.50412700  0.96141300  1
  O  O14  1  0.76567400  0.18490600  0.41043400  1
  O  O15  1  0.39990100  0.02333900  0.81305700  1
  O  O16  1  0.89990100  0.97666100  0.68694300  1
  O  O17  1  0.24416600  0.49587300  0.53858700  1
  O  O18  1  0.73432600  0.18490600  0.91043400  1
  O  O19  1  0.10009900  0.52333900  0.68694300  1
  O  O20  1  0.60009900  0.97666100  0.18694300  1
  O  O21  1  0.72385400  0.84776000  0.90316500  1
  O  O22  1  0.77614600  0.34776000  0.59683500  1
  O  O23  1  0.26567400  0.81509400  0.08956600  1
  O  O24  1  0.39990100  0.52333900  0.18694300  1
  O  O25  1  0.76567400  0.68490600  0.58956600  1
  O  O26  1  0.72385400  0.34776000  0.09683500  1
  O  O27  1  0.26567400  0.31509400  0.91043400  1
  O  O28  1  0.27614600  0.15224000  0.09683500  1
  O  O29  1  0.89990100  0.47666100  0.31305700  1
  O  O30  1  0.74416600  0.00412700  0.03858700  1
  O  O31  1  0.25583400  0.99587300  0.96141300  1
loop_
_geom_bond_atom_site_label_1
_geom_bond_atom_site_label_2
_geom_bond_distance
_geom_bond_site_symmetry_2
Eu0 O25 2.373086 1_555
Eu0 O7 2.373086 1_555
Eu0 O11 2.399146 1_555
Eu0 O5 2.399146 1_555
Eu0 O4 2.556541 1_555
Eu0 O0 2.556541 1_555
Eu0 O6 2.684996 1_565
Eu0 O17 2.684996 1_555
Eu1 O14 2.373086 1_555
Eu1 O2 2.373086 1_555
Eu1 O12 2.399146 1_555
Eu1 O22 2.399146 1_555
Eu1 O17 2.556541 1_555
Eu1 O6 2.556541 1_555
Eu1 O0 2.684996 1_545
Eu1 O4 2.684996 1_555
Eu2 O27 2.373086 1_554
Eu2 O18 2.373086 1_454
Eu2 O28 2.399146 1_555
Eu2 O26 2.399146 1_455
Eu2 O3 2.556541 1_555
Eu2 O30 2.556541 1_455
Eu2 O13 2.684996 1_454
Eu2 O31 2.684996 1_544
Eu3 O23 2.373086 1_556
Eu3 O9 2.373086 1_456
Eu3 O21 2.399146 1_455
Eu3 O1 2.399146 1_555
Eu3 O13 2.556541 1_455
Eu3 O31 2.556541 1_555
Eu3 O30 2.684996 1_466
Eu3 O3 2.684996 1_556
Mo0 O15 1.760947 1_555
Mo0 O21 1.790399 1_545
Mo0 O18 1.826158 1_555
Mo0 O31 1.843573 1_545
Mo1 O20 1.760947 1_555
Mo1 O28 1.790399 1_565
Mo1 O23 1.826158 1_555
Mo1 O30 1.843573 1_565
Mo2 O29 1.760947 1_455
Mo2 O11 1.790399 1_555
Mo2 O2 1.826158 1_555
Mo2 O4 1.843573 1_455
Mo3 O16 1.760947 1_455
Mo3 O12 1.790399 1_565
Mo3 O7 1.826158 1_555
Mo3 O6 1.843573 1_465
Mo4 O24 1.760947 1_555
Mo4 O26 1.790399 1_555
Mo4 O9 1.826158 1_555
Mo4 O3 1.843573 1_555
Mo5 O19 1.760947 1_655
Mo5 O22 1.790399 1_555
Mo5 O25 1.826158 1_555
Mo5 O17 1.843573 1_655
Mo6 O8 1.760947 1_655
Mo6 O5 1.790399 1_545
Mo6 O14 1.826158 1_555
Mo6 O0 1.843573 1_645
Mo7 O10 1.760947 1_555
Mo7 O1 1.790399 1_555
Mo7 O27 1.826158 1_555
Mo7 O13 1.843573 1_555
O8 Tl3 2.852504 1_545
O10 Tl0 2.852504 1_555
O15 Tl0 2.852504 1_545
O16 Tl2 2.852504 1_665
O19 Tl2 2.852504 1_555
O20 Tl1 2.852504 1_565
O24 Tl1 2.852504 1_555
O29 Tl3 2.852504 1_655
