# generated using pymatgen
data_BaNd2ZnO5
_symmetry_space_group_name_H-M   'P 1'
_cell_length_a   7.58512763
_cell_length_b   7.58512763
_cell_length_c   7.58512763
_cell_angle_alpha   126.54970164
_cell_angle_beta   126.54970164
_cell_angle_gamma   78.98653104
_symmetry_Int_Tables_number   1
_chemical_formula_structural   BaNd2ZnO5
_chemical_formula_sum   'Ba2 Nd4 Zn2 O10'
_cell_volume   272.43568367
_cell_formula_units_Z   2
loop_
 _symmetry_equiv_pos_site_id
 _symmetry_equiv_pos_as_xyz
  1  'x, y, z'
loop_
 _atom_site_type_symbol
 _atom_site_label
 _atom_site_symmetry_multiplicity
 _atom_site_fract_x
 _atom_site_fract_y
 _atom_site_fract_z
 _atom_site_occupancy
  Ba  Ba0  1  0.25000000  0.25000000  0.00000000  1
  Ba  Ba1  1  0.75000000  0.75000000  0.00000000  1
  Nd  Nd0  1  0.32593000  0.17407000  0.50000000  1
  Nd  Nd1  1  0.17407000  0.67407000  0.84814000  1
  Nd  Nd2  1  0.82593000  0.32593000  0.15186000  1
  Nd  Nd3  1  0.67407000  0.82593000  0.50000000  1
  Zn  Zn0  1  0.75000000  0.25000000  0.50000000  1
  Zn  Zn1  1  0.25000000  0.75000000  0.50000000  1
  O  O0  1  0.77491100  0.27491100  0.78911900  1
  O  O1  1  0.51420700  0.01420700  0.78911900  1
  O  O2  1  0.22508900  0.72508900  0.21088100  1
  O  O3  1  0.72508900  0.51420700  0.50000000  1
  O  O4  1  0.01420700  0.22508900  0.50000000  1
  O  O5  1  0.27491100  0.48579300  0.50000000  1
  O  O6  1  0.98579300  0.77491100  0.50000000  1
  O  O7  1  0.48579300  0.98579300  0.21088100  1
  O  O8  1  0.50000000  0.50000000  0.00000000  1
  O  O9  1  0.00000000  0.00000000  0.00000000  1
loop_
_geom_bond_atom_site_label_1
_geom_bond_atom_site_label_2
_geom_bond_distance
_geom_bond_site_symmetry_2
Ba0 O8 2.926719 1_555
Ba0 O9 2.926719 1_555
Ba0 O1 2.968958 1_554
Ba0 O7 2.968958 1_545
Ba0 O6 2.968962 1_444
Ba0 O5 2.968962 1_555
Ba0 O3 2.968962 1_555
Ba0 O4 2.968962 1_554
Ba0 O2 2.968963 1_555
Ba0 O0 2.968963 1_454
Ba1 O8 2.926719 1_555
Ba1 O9 2.926719 1_665
Ba1 O1 2.968958 1_564
Ba1 O7 2.968958 1_555
Ba1 O5 2.968962 1_554
Ba1 O3 2.968962 1_554
Ba1 O6 2.968962 1_555
Ba1 O4 2.968962 1_665
Ba1 O0 2.968963 1_554
Ba1 O2 2.968963 1_655
Nd0 O5 2.321813 1_555
Nd0 O4 2.321813 1_555
Nd0 O8 2.520819 1_556
Nd0 O9 2.520819 1_555
Nd0 O0 2.663548 1_555
Nd0 O2 2.663548 1_545
Nd0 O1 2.663555 1_555
Nd0 O7 2.663555 1_545
Nd1 O2 2.321806 1_556
Nd1 O7 2.321813 1_556
Nd1 O8 2.520819 1_556
Nd1 O9 2.520819 1_566
Nd1 O3 2.663549 1_455
Nd1 O5 2.663549 1_555
Nd1 O4 2.663549 1_555
Nd1 O6 2.663549 1_455
Nd2 O0 2.321806 1_554
Nd2 O1 2.321813 1_554
Nd2 O9 2.520819 1_655
Nd2 O8 2.520819 1_555
Nd2 O5 2.663549 1_655
Nd2 O6 2.663549 1_555
Nd2 O4 2.663549 1_655
Nd2 O3 2.663549 1_555
Nd3 O3 2.321813 1_555
Nd3 O6 2.321813 1_555
Nd3 O9 2.520819 1_666
Nd3 O8 2.520819 1_555
Nd3 O0 2.663548 1_565
Nd3 O2 2.663548 1_555
Nd3 O1 2.663555 1_565
Nd3 O7 2.663555 1_555
O0 Zn0 1.976675 1_555
O1 Zn1 1.976666 1_545
O2 Zn1 1.976675 1_555
O3 Zn0 1.976667 1_555
O4 Zn0 1.976667 1_455
O5 Zn1 1.976667 1_555
O6 Zn1 1.976667 1_655
O7 Zn0 1.976666 1_565
