# generated using pymatgen
data_Tb2Sb5
_symmetry_space_group_name_H-M   'P 1'
_cell_length_a   4.22240578
_cell_length_b   13.23581016
_cell_length_c   14.87013658
_cell_angle_alpha   102.50958041
_cell_angle_beta   90.00000000
_cell_angle_gamma   90.00000000
_symmetry_Int_Tables_number   1
_chemical_formula_structural   Tb2Sb5
_chemical_formula_sum   'Tb8 Sb20'
_cell_volume   811.31753378
_cell_formula_units_Z   4
loop_
 _symmetry_equiv_pos_site_id
 _symmetry_equiv_pos_as_xyz
  1  'x, y, z'
loop_
 _atom_site_type_symbol
 _atom_site_label
 _atom_site_symmetry_multiplicity
 _atom_site_fract_x
 _atom_site_fract_y
 _atom_site_fract_z
 _atom_site_occupancy
  Tb  Tb0  1  0.75000000  0.66222739  0.14484756  1
  Tb  Tb1  1  0.25000000  0.04815716  0.36480911  1
  Tb  Tb2  1  0.25000000  0.33777261  0.85515244  1
  Tb  Tb3  1  0.25000000  0.33063697  0.57812043  1
  Tb  Tb4  1  0.75000000  0.95184284  0.63519089  1
  Tb  Tb5  1  0.75000000  0.66936303  0.42187957  1
  Tb  Tb6  1  0.25000000  0.60674834  0.77130598  1
  Tb  Tb7  1  0.75000000  0.39325166  0.22869402  1
  Sb  Sb0  1  0.75000000  0.15273579  0.82211644  1
  Sb  Sb1  1  0.25000000  0.13839926  0.67589661  1
  Sb  Sb2  1  0.25000000  0.85651698  0.47991275  1
  Sb  Sb3  1  0.75000000  0.71822405  0.94056428  1
  Sb  Sb4  1  0.25000000  0.85971829  0.77680589  1
  Sb  Sb5  1  0.75000000  0.42336716  0.44704527  1
  Sb  Sb6  1  0.75000000  0.86160074  0.32410339  1
  Sb  Sb7  1  0.25000000  0.28907921  0.35135542  1
  Sb  Sb8  1  0.75000000  0.71092079  0.64864458  1
  Sb  Sb9  1  0.75000000  0.14028171  0.22319411  1
  Sb  Sb10  1  0.25000000  0.58022179  0.97493404  1
  Sb  Sb11  1  0.25000000  0.57663284  0.55295473  1
  Sb  Sb12  1  0.75000000  0.42474255  0.73485766  1
  Sb  Sb13  1  0.25000000  0.57525745  0.26514234  1
  Sb  Sb14  1  0.75000000  0.14348302  0.52008725  1
  Sb  Sb15  1  0.75000000  0.97053266  0.89357560  1
  Sb  Sb16  1  0.25000000  0.28177595  0.05943572  1
  Sb  Sb17  1  0.25000000  0.02946734  0.10642440  1
  Sb  Sb18  1  0.25000000  0.84726421  0.17788356  1
  Sb  Sb19  1  0.75000000  0.41977821  0.02506596  1
loop_
_geom_bond_atom_site_label_1
_geom_bond_atom_site_label_2
_geom_bond_distance
_geom_bond_site_symmetry_2
Sb0 Sb15 2.838152 1_545
Sb0 Sb1 3.007003 1_555
Sb0 Sb1 3.007003 1_655
Sb0 Tb2 3.189899 1_555
Sb0 Tb2 3.189899 1_655
Sb0 Tb4 3.405086 1_545
Sb1 Sb14 3.145997 1_455
Sb1 Sb14 3.145997 1_555
Sb1 Tb3 3.192282 1_555
Sb1 Tb4 3.205177 1_445
Sb1 Tb4 3.205177 1_545
Sb1 Tb2 3.319884 1_555
Sb2 Sb6 3.145997 1_455
Sb2 Sb6 3.145997 1_555
Sb2 Tb4 3.180968 1_455
Sb2 Tb4 3.180968 1_555
Sb2 Tb5 3.226767 1_455
Sb2 Tb5 3.226767 1_555
Sb2 Tb1 3.353247 1_565
Sb3 Tb0 3.279085 1_556
Sb3 Tb6 3.370489 1_555
Sb3 Tb6 3.370489 1_655
Sb4 Sb8 3.215890 1_455
Sb4 Sb8 3.215890 1_555
Sb4 Tb6 3.331504 1_555
Sb4 Tb4 3.389819 1_555
Sb4 Tb4 3.389819 1_455
Sb5 Sb7 2.923259 1_555
Sb5 Sb7 2.923259 1_655
Sb5 Tb7 3.184440 1_555
Sb5 Tb3 3.286174 1_655
Sb5 Tb3 3.286174 1_555
Sb5 Tb5 3.356950 1_555
Sb6 Tb5 3.192282 1_555
Sb6 Tb1 3.205177 1_665
Sb6 Tb1 3.205177 1_565
Sb6 Tb0 3.319884 1_555
Sb7 Sb9 3.215890 1_455
Sb7 Sb9 3.215890 1_555
Sb7 Tb1 3.238027 1_555
Sb7 Tb7 3.282486 1_455
Sb7 Tb7 3.282486 1_555
Sb7 Tb3 3.296910 1_555
Sb8 Tb4 3.238027 1_555
Sb8 Tb6 3.282486 1_655
Sb8 Tb6 3.282486 1_555
Sb8 Tb5 3.296910 1_555
Sb9 Tb7 3.331504 1_555
Sb9 Tb1 3.389819 1_655
Sb9 Tb1 3.389819 1_555
Sb10 Sb3 2.908463 1_455
Sb10 Sb3 2.908463 1_555
Sb10 Tb6 3.122894 1_555
Sb10 Sb19 3.195055 1_556
Sb10 Sb19 3.195055 1_456
Sb10 Tb0 3.291071 1_556
Sb10 Tb0 3.291071 1_456
Sb10 Tb2 3.315751 1_555
Sb11 Sb8 2.923259 1_455
Sb11 Sb8 2.923259 1_555
Sb11 Sb5 3.109444 1_455
Sb11 Sb5 3.109444 1_555
Sb11 Tb6 3.184440 1_555
Sb11 Tb5 3.286174 1_455
Sb11 Tb5 3.286174 1_555
Sb11 Tb3 3.356950 1_555
Sb12 Tb2 3.142304 1_555
Sb12 Tb2 3.142304 1_655
Sb12 Tb6 3.160470 1_655
Sb12 Tb6 3.160470 1_555
Sb12 Tb3 3.191109 1_655
Sb12 Tb3 3.191109 1_555
Sb13 Tb0 3.142304 1_455
Sb13 Tb0 3.142304 1_555
Sb13 Tb7 3.160470 1_455
Sb13 Tb7 3.160470 1_555
Sb13 Tb5 3.191109 1_555
Sb13 Tb5 3.191109 1_455
Sb14 Tb1 3.180968 1_555
Sb14 Tb1 3.180968 1_655
Sb14 Tb3 3.226767 1_655
Sb14 Tb3 3.226767 1_555
Sb14 Tb4 3.353247 1_545
Sb15 Sb4 2.918935 1_555
Sb15 Sb4 2.918935 1_655
Sb16 Sb19 2.908463 1_455
Sb16 Sb19 2.908463 1_555
Sb16 Tb2 3.279085 1_554
Sb16 Tb7 3.370489 1_555
Sb16 Tb7 3.370489 1_455
Sb17 Sb18 2.838152 1_545
Sb17 Sb9 2.918935 1_455
Sb17 Sb9 2.918935 1_555
Sb18 Sb6 3.007003 1_455
Sb18 Sb6 3.007003 1_555
Sb18 Tb0 3.189899 1_455
Sb18 Tb0 3.189899 1_555
Sb18 Tb1 3.405086 1_565
Sb19 Tb7 3.122894 1_555
Sb19 Tb2 3.291071 1_654
Sb19 Tb2 3.291071 1_554
Sb19 Tb0 3.315751 1_555
