# generated using pymatgen
data_Ca6Nd6ScMn11O36
_symmetry_space_group_name_H-M   'P 1'
_cell_length_a   5.46032000
_cell_length_b   5.51566015
_cell_length_c   23.16753638
_cell_angle_alpha   89.98738359
_cell_angle_beta   89.93095580
_cell_angle_gamma   89.98677628
_symmetry_Int_Tables_number   1
_chemical_formula_structural   Ca6Nd6ScMn11O36
_chemical_formula_sum   'Ca6 Nd6 Sc1 Mn11 O36'
_cell_volume   697.74239278
_cell_formula_units_Z   1
loop_
 _symmetry_equiv_pos_site_id
 _symmetry_equiv_pos_as_xyz
  1  'x, y, z'
loop_
 _atom_site_type_symbol
 _atom_site_label
 _atom_site_symmetry_multiplicity
 _atom_site_fract_x
 _atom_site_fract_y
 _atom_site_fract_z
 _atom_site_occupancy
  Ca  Ca0  1  0.98955100  0.95901100  0.25589400  1
  Ca  Ca1  1  0.51003800  0.45835700  0.58399300  1
  Ca  Ca2  1  0.50872100  0.45795900  0.25479300  1
  Ca  Ca3  1  0.48992800  0.54075700  0.74429800  1
  Ca  Ca4  1  0.00969000  0.04168300  0.74507600  1
  Ca  Ca5  1  0.00967200  0.04148400  0.41610900  1
  Nd  Nd0  1  0.98671700  0.96232000  0.91060800  1
  Nd  Nd1  1  0.99138000  0.95883000  0.58294100  1
  Nd  Nd2  1  0.50733300  0.45962900  0.91085700  1
  Nd  Nd3  1  0.49102200  0.54132100  0.41688300  1
  Nd  Nd4  1  0.49249100  0.54086000  0.08901200  1
  Nd  Nd5  1  0.01350600  0.03827200  0.08962500  1
  Sc  Sc0  1  0.99988900  0.50006100  0.99998000  1
  Mn  Mn0  1  0.00224700  0.50107400  0.82775100  1
  Mn  Mn1  1  0.99921000  0.49842400  0.50022900  1
  Mn  Mn2  1  0.99754800  0.49877500  0.17232400  1
  Mn  Mn3  1  0.49674800  0.99986000  0.82765500  1
  Mn  Mn4  1  0.49921000  0.00215900  0.49974400  1
  Mn  Mn5  1  0.50454100  0.99920700  0.17228700  1
  Mn  Mn6  1  0.50074700  0.00037700  0.99986500  1
  Mn  Mn7  1  0.50020100  0.99998000  0.66585800  1
  Mn  Mn8  1  0.49931200  0.00159400  0.33414700  1
  Mn  Mn9  1  0.00193100  0.49896300  0.66571800  1
  Mn  Mn10  1  0.99810900  0.49945100  0.33422100  1
  O  O0  1  0.91434200  0.47613500  0.74825700  1
  O  O1  1  0.92117700  0.48267600  0.08784300  1
  O  O2  1  0.92128300  0.48138300  0.41694700  1
  O  O3  1  0.77848900  0.22065900  0.84659500  1
  O  O4  1  0.78641600  0.21390200  0.65137500  1
  O  O5  1  0.78318400  0.21585700  0.51400000  1
  O  O6  1  0.77562200  0.20551300  0.98314000  1
  O  O7  1  0.79417300  0.20443200  0.18211900  1
  O  O8  1  0.78326800  0.21670000  0.32085800  1
  O  O9  1  0.70258800  0.72197700  0.98371100  1
  O  O10  1  0.72010000  0.72053900  0.84680700  1
  O  O11  1  0.71519800  0.71597800  0.51433000  1
  O  O12  1  0.71953700  0.71847500  0.64972500  1
  O  O13  1  0.70974700  0.71250100  0.32200100  1
  O  O14  1  0.70773900  0.70545300  0.18143100  1
  O  O15  1  0.58447900  0.97396500  0.74676400  1
  O  O16  1  0.58129200  0.98181700  0.41759800  1
  O  O17  1  0.58395300  0.98305500  0.08601700  1
  O  O18  1  0.41633600  0.01733200  0.91405200  1
  O  O19  1  0.42075000  0.01935400  0.58233400  1
  O  O20  1  0.41415000  0.02370300  0.25321500  1
  O  O21  1  0.29169900  0.29395100  0.81848500  1
  O  O22  1  0.28489700  0.28319100  0.67919300  1
  O  O23  1  0.28347700  0.28349800  0.48578200  1
  O  O24  1  0.28526100  0.28632100  0.34860700  1
  O  O25  1  0.29719400  0.27823200  0.01641100  1
  O  O26  1  0.28159000  0.28023900  0.15347200  1
  O  O27  1  0.21117800  0.78785900  0.67790100  1
  O  O28  1  0.20717800  0.79381200  0.81811400  1
  O  O29  1  0.22412600  0.79492000  0.01692500  1
  O  O30  1  0.22198800  0.77959500  0.15332600  1
  O  O31  1  0.21572200  0.78427500  0.48561800  1
  O  O32  1  0.21862200  0.78129500  0.35017600  1
  O  O33  1  0.07879300  0.51692900  0.91227700  1
  O  O34  1  0.08038000  0.51747900  0.58294100  1
  O  O35  1  0.08433200  0.52659000  0.25178100  1
loop_
_geom_bond_atom_site_label_1
_geom_bond_atom_site_label_2
_geom_bond_distance
_geom_bond_site_symmetry_2
Ca0 O20 2.346570 1_665
Ca0 O8 2.355884 1_565
Ca0 O7 2.427866 1_565
Ca0 O35 2.442330 1_655
Ca0 O13 2.554002 1_555
Ca0 O32 2.702129 1_655
Ca0 O14 2.703382 1_555
Ca0 O30 2.868774 1_655
Ca1 O34 2.368704 1_555
Ca1 O12 2.385790 1_555
Ca1 O11 2.423663 1_555
Ca1 O19 2.470413 1_555
Ca1 O4 2.556596 1_555
Ca1 O5 2.576272 1_555
Ca1 O22 2.702270 1_555
Ca1 O23 2.765125 1_555
Ca2 O35 2.349046 1_555
Ca2 O13 2.367736 1_555
Ca2 O14 2.434812 1_555
Ca2 O20 2.450647 1_555
Ca2 O8 2.522786 1_555
Ca2 O24 2.664978 1_555
Ca2 O7 2.685764 1_555
Ca2 O26 2.831549 1_555
Ca3 O0 2.346505 1_555
Ca3 O22 2.356349 1_555
Ca3 O21 2.444158 1_555
Ca3 O15 2.445378 1_555
Ca3 O27 2.558173 1_555
Ca3 O28 2.692593 1_555
Ca3 O12 2.706714 1_555
Ca3 O10 2.865615 1_555
Ca4 O15 2.352002 1_445
Ca4 O27 2.364014 1_545
Ca4 O28 2.428565 1_545
Ca4 O0 2.453182 1_455
Ca4 O22 2.521274 1_555
Ca4 O4 2.665715 1_455
Ca4 O21 2.684767 1_555
Ca4 O3 2.844851 1_455
Ca5 O16 2.362415 1_445
Ca5 O32 2.385490 1_545
Ca5 O31 2.423706 1_545
Ca5 O2 2.473836 1_455
Ca5 O24 2.555014 1_555
Ca5 O23 2.574928 1_555
Ca5 O8 2.708694 1_455
Ca5 O5 2.755256 1_455
Nd0 O3 2.350503 1_565
Nd0 O18 2.366912 1_665
Nd0 O6 2.438684 1_565
Nd0 O10 2.467712 1_555
Nd0 O33 2.507730 1_655
Nd0 O28 2.626582 1_655
Nd0 O9 2.650710 1_555
Nd0 O29 2.933600 1_656
Nd1 O19 2.368246 1_665
Nd1 O4 2.396143 1_565
Nd1 O5 2.419878 1_565
Nd1 O34 2.482265 1_655
Nd1 O12 2.519758 1_555
Nd1 O11 2.569578 1_555
Nd1 O27 2.678538 1_655
Nd1 O31 2.739546 1_655
Nd2 O33 2.361331 1_555
Nd2 O10 2.370292 1_555
Nd2 O9 2.466884 1_555
Nd2 O3 2.478034 1_555
Nd2 O18 2.490824 1_555
Nd2 O21 2.609326 1_555
Nd2 O6 2.630375 1_555
Nd2 O25 2.879311 1_556
Nd3 O2 2.372436 1_555
Nd3 O24 2.397616 1_555
Nd3 O23 2.418647 1_555
Nd3 O16 2.479295 1_555
Nd3 O32 2.521189 1_555
Nd3 O31 2.566217 1_555
Nd3 O13 2.672661 1_555
Nd3 O11 2.744330 1_555
Nd4 O1 2.362710 1_555
Nd4 O26 2.370318 1_555
Nd4 O25 2.463881 1_555
Nd4 O30 2.475943 1_555
Nd4 O17 2.490650 1_555
Nd4 O14 2.607176 1_555
Nd4 O29 2.627551 1_555
Nd4 O9 2.873710 1_554
Nd5 O30 2.347751 1_545
Nd5 O17 2.366836 1_445
Nd5 O29 2.440627 1_545
Nd5 O26 2.473644 1_555
Nd5 O1 2.502717 1_455
Nd5 O7 2.619211 1_455
Nd5 O25 2.649890 1_555
Nd5 O6 2.937743 1_454
Mn0 O0 1.908761 1_455
Mn0 O21 1.961542 1_555
Mn0 O28 1.977152 1_555
Mn0 O33 2.004791 1_555
Mn0 O10 2.007841 1_455
Mn0 O3 2.018627 1_455
Mn1 O34 1.970176 1_655
Mn1 O2 1.978560 1_555
Mn1 O5 1.980393 1_555
Mn1 O23 1.981086 1_655
Mn1 O11 1.987379 1_555
Mn1 O31 1.999437 1_655
Mn2 O35 1.907610 1_655
Mn2 O14 1.961289 1_555
Mn2 O7 1.980023 1_555
Mn2 O1 2.003632 1_555
Mn2 O26 2.011687 1_655
Mn2 O30 2.023363 1_655
Mn3 O15 1.939032 1_555
Mn3 O28 1.960171 1_555
Mn3 O21 1.982302 1_565
Mn3 O3 2.011242 1_565
Mn3 O10 2.014433 1_555
Mn3 O18 2.050962 1_565
Mn4 O16 1.957894 1_545
Mn4 O19 1.962587 1_555
Mn4 O23 1.974865 1_555
Mn4 O5 1.976097 1_555
Mn4 O31 1.987390 1_545
Mn4 O11 1.999136 1_545
Mn5 O20 1.942928 1_565
Mn5 O7 1.958596 1_565
Mn5 O14 1.975022 1_555
Mn5 O30 2.010791 1_555
Mn5 O26 2.018633 1_565
Mn5 O17 2.046603 1_555
Mn6 O6 1.918918 1_555
Mn6 O9 1.926433 1_545
Mn6 O29 1.928991 1_546
Mn6 O25 1.931181 1_556
Mn6 O18 2.043462 1_555
Mn6 O17 2.049722 1_546
Mn7 O15 1.935882 1_555
Mn7 O22 1.978934 1_565
Mn7 O27 1.984174 1_555
Mn7 O19 1.986438 1_565
Mn7 O4 1.986614 1_565
Mn7 O12 1.995796 1_555
Mn8 O20 1.936153 1_555
Mn8 O8 1.976363 1_555
Mn8 O13 1.985096 1_545
Mn8 O24 1.985716 1_555
Mn8 O16 1.987991 1_545
Mn8 O32 1.990649 1_545
Mn9 O34 1.967129 1_555
Mn9 O0 1.974567 1_455
Mn9 O22 1.975169 1_555
Mn9 O27 1.981415 1_555
Mn9 O4 1.992331 1_455
Mn9 O12 1.995287 1_455
Mn10 O2 1.963950 1_555
Mn10 O35 1.972218 1_655
Mn10 O8 1.976402 1_555
Mn10 O13 1.985022 1_555
Mn10 O24 1.987884 1_655
Mn10 O32 2.001313 1_655
O1 Sc0 2.082134 1_554
O6 Sc0 2.072086 1_555
O9 Sc0 2.067830 1_555
O25 Sc0 2.068253 1_454
O29 Sc0 2.073796 1_454
O33 Sc0 2.078598 1_455
