# generated using pymatgen
data_Bi2Te2O7
_symmetry_space_group_name_H-M   'P 1'
_cell_length_a   5.61793500
_cell_length_b   22.39352600
_cell_length_c   22.92381200
_cell_angle_alpha   90.00000000
_cell_angle_beta   90.00000000
_cell_angle_gamma   90.00000000
_symmetry_Int_Tables_number   1
_chemical_formula_structural   Bi2Te2O7
_chemical_formula_sum   'Bi32 Te32 O112'
_cell_volume   2883.93873045
_cell_formula_units_Z   16
loop_
 _symmetry_equiv_pos_site_id
 _symmetry_equiv_pos_as_xyz
  1  'x, y, z'
loop_
 _atom_site_type_symbol
 _atom_site_label
 _atom_site_symmetry_multiplicity
 _atom_site_fract_x
 _atom_site_fract_y
 _atom_site_fract_z
 _atom_site_occupancy
  Bi  Bi0  1  0.48960400  0.82079400  0.30647100  1
  Bi  Bi1  1  0.54436800  0.93068600  0.94447600  1
  Bi  Bi2  1  0.02097700  0.94377400  0.31228000  1
  Bi  Bi3  1  0.04436800  0.56931400  0.44447600  1
  Bi  Bi4  1  0.95563200  0.06931400  0.44447600  1
  Bi  Bi5  1  0.48960400  0.67920600  0.69352900  1
  Bi  Bi6  1  0.98960400  0.67920600  0.80647100  1
  Bi  Bi7  1  0.04436800  0.93068600  0.55552400  1
  Bi  Bi8  1  0.49756700  0.19583700  0.19355500  1
  Bi  Bi9  1  0.99756700  0.30416300  0.69355500  1
  Bi  Bi10  1  0.01039600  0.32079400  0.19352900  1
  Bi  Bi11  1  0.45563200  0.43068600  0.94447600  1
  Bi  Bi12  1  0.49756700  0.30416300  0.80644500  1
  Bi  Bi13  1  0.00243300  0.69583700  0.30644500  1
  Bi  Bi14  1  0.98960400  0.82079400  0.19352900  1
  Bi  Bi15  1  0.45563200  0.06931400  0.05552400  1
  Bi  Bi16  1  0.01039600  0.17920600  0.80647100  1
  Bi  Bi17  1  0.02097700  0.55622600  0.68772000  1
  Bi  Bi18  1  0.00243300  0.80416300  0.69355500  1
  Bi  Bi19  1  0.95563200  0.43068600  0.55552400  1
  Bi  Bi20  1  0.50243300  0.80416300  0.80644500  1
  Bi  Bi21  1  0.99756700  0.19583700  0.30644500  1
  Bi  Bi22  1  0.52097700  0.55622600  0.81228000  1
  Bi  Bi23  1  0.97902300  0.44377400  0.31228000  1
  Bi  Bi24  1  0.97902300  0.05622600  0.68772000  1
  Bi  Bi25  1  0.51039600  0.32079400  0.30647100  1
  Bi  Bi26  1  0.50243300  0.69583700  0.19355500  1
  Bi  Bi27  1  0.47902300  0.44377400  0.18772000  1
  Bi  Bi28  1  0.47902300  0.05622600  0.81228000  1
  Bi  Bi29  1  0.51039600  0.17920600  0.69352900  1
  Bi  Bi30  1  0.54436800  0.56931400  0.05552400  1
  Bi  Bi31  1  0.52097700  0.94377400  0.18772000  1
  Te  Te0  1  0.98801700  0.68854900  0.56742400  1
  Te  Te1  1  0.07591500  0.93388300  0.81142800  1
  Te  Te2  1  0.42408500  0.06611700  0.31142800  1
  Te  Te3  1  0.49986900  0.05673700  0.56406500  1
  Te  Te4  1  0.49986900  0.44326300  0.43593500  1
  Te  Te5  1  0.49593000  0.30666100  0.56636100  1
  Te  Te6  1  0.92408500  0.06611700  0.18857200  1
  Te  Te7  1  0.49593000  0.19333900  0.43363900  1
  Te  Te8  1  0.01198300  0.18854900  0.56742400  1
  Te  Te9  1  0.42408500  0.43388300  0.68857200  1
  Te  Te10  1  0.50013100  0.94326300  0.43593500  1
  Te  Te11  1  0.50407000  0.69333900  0.43363900  1
  Te  Te12  1  0.99986900  0.05673700  0.93593500  1
  Te  Te13  1  0.50013100  0.55673700  0.56406500  1
  Te  Te14  1  0.92408500  0.43388300  0.81142800  1
  Te  Te15  1  0.00013100  0.55673700  0.93593500  1
  Te  Te16  1  0.50407000  0.80666100  0.56636100  1
  Te  Te17  1  0.51198300  0.18854900  0.93257600  1
  Te  Te18  1  0.48801700  0.68854900  0.93257600  1
  Te  Te19  1  0.98801700  0.81145100  0.43257600  1
  Te  Te20  1  0.99986900  0.44326300  0.06406500  1
  Te  Te21  1  0.48801700  0.81145100  0.06742400  1
  Te  Te22  1  0.07591500  0.56611700  0.18857200  1
  Te  Te23  1  0.99593000  0.30666100  0.93363900  1
  Te  Te24  1  0.57591500  0.56611700  0.31142800  1
  Te  Te25  1  0.99593000  0.19333900  0.06636100  1
  Te  Te26  1  0.00407000  0.80666100  0.93363900  1
  Te  Te27  1  0.51198300  0.31145100  0.06742400  1
  Te  Te28  1  0.00407000  0.69333900  0.06636100  1
  Te  Te29  1  0.00013100  0.94326300  0.06406500  1
  Te  Te30  1  0.57591500  0.93388300  0.68857200  1
  Te  Te31  1  0.01198300  0.31145100  0.43257600  1
  O  O0  1  0.69689500  0.63266000  0.26678700  1
  O  O1  1  0.28214600  0.14251500  0.97382200  1
  O  O2  1  0.75526400  0.00922700  0.53057700  1
  O  O3  1  0.81918900  0.27604500  0.86872600  1
  O  O4  1  0.36323400  0.93815000  0.85606800  1
  O  O5  1  0.13676600  0.06185000  0.35606800  1
  O  O6  1  0.74389200  0.85663700  0.53457500  1
  O  O7  1  0.21196900  0.24480400  0.74932300  1
  O  O8  1  0.81124100  0.27425800  0.37502600  1
  O  O9  1  0.74473600  0.50922700  0.96942300  1
  O  O10  1  0.71196900  0.24480400  0.75067700  1
  O  O11  1  0.78803100  0.75519600  0.25067700  1
  O  O12  1  0.15363400  0.36872300  0.38216300  1
  O  O13  1  0.75526400  0.49077300  0.46942300  1
  O  O14  1  0.20558700  0.62261600  0.74180100  1
  O  O15  1  0.19689500  0.86734000  0.76678700  1
  O  O16  1  0.34636600  0.86872300  0.11783700  1
  O  O17  1  0.31212500  0.63654700  0.39279800  1
  O  O18  1  0.28803100  0.74480400  0.75067700  1
  O  O19  1  0.18787500  0.13654700  0.10720200  1
  O  O20  1  0.21785400  0.64251500  0.52617800  1
  O  O21  1  0.68875900  0.77425800  0.12497400  1
  O  O22  1  0.18081100  0.77604500  0.86872600  1
  O  O23  1  0.68875900  0.72574200  0.87502600  1
  O  O24  1  0.31390700  0.50516200  0.39862700  1
  O  O25  1  0.31124100  0.22574200  0.87502600  1
  O  O26  1  0.31390700  0.99483800  0.60137300  1
  O  O27  1  0.70540200  0.50414200  0.26163100  1
  O  O28  1  0.79441300  0.37738400  0.25819900  1
  O  O29  1  0.31124100  0.27425800  0.12497400  1
  O  O30  1  0.29441300  0.12261600  0.75819900  1
  O  O31  1  0.84636600  0.86872300  0.38216300  1
  O  O32  1  0.70540200  0.99585800  0.73836900  1
  O  O33  1  0.75610800  0.14336300  0.03457500  1
  O  O34  1  0.13819000  0.42178000  0.13764300  1
  O  O35  1  0.68081100  0.77604500  0.63127400  1
  O  O36  1  0.13676600  0.43815000  0.64393200  1
  O  O37  1  0.20540200  0.99585800  0.76163100  1
  O  O38  1  0.86181000  0.92178000  0.13764300  1
  O  O39  1  0.86323400  0.93815000  0.64393200  1
  O  O40  1  0.19689500  0.63266000  0.23321300  1
  O  O41  1  0.31212500  0.86345300  0.60720200  1
  O  O42  1  0.79459800  0.49585800  0.76163100  1
  O  O43  1  0.86323400  0.56185000  0.35606800  1
  O  O44  1  0.78214600  0.14251500  0.52617800  1
  O  O45  1  0.69689500  0.86734000  0.73321300  1
  O  O46  1  0.24389200  0.64336300  0.03457500  1
  O  O47  1  0.13819000  0.07822000  0.86235700  1
  O  O48  1  0.71785400  0.64251500  0.97382200  1
  O  O49  1  0.28214600  0.35748500  0.02617800  1
  O  O50  1  0.79441300  0.12261600  0.74180100  1
  O  O51  1  0.18609300  0.00516200  0.10137300  1
  O  O52  1  0.31918900  0.22395500  0.36872600  1
  O  O53  1  0.70558700  0.87738400  0.24180100  1
  O  O54  1  0.63819000  0.42178000  0.36235700  1
  O  O55  1  0.21196900  0.25519600  0.25067700  1
  O  O56  1  0.18081100  0.72395500  0.13127400  1
  O  O57  1  0.15363400  0.13127700  0.61783700  1
  O  O58  1  0.20540200  0.50414200  0.23836900  1
  O  O59  1  0.21785400  0.85748500  0.47382200  1
  O  O60  1  0.63819000  0.07822000  0.63764300  1
  O  O61  1  0.79459800  0.00414200  0.23836900  1
  O  O62  1  0.70558700  0.62261600  0.75819900  1
  O  O63  1  0.86181000  0.57822000  0.86235700  1
  O  O64  1  0.84636600  0.63127700  0.61783700  1
  O  O65  1  0.36181000  0.92178000  0.36235700  1
  O  O66  1  0.25526400  0.00922700  0.96942300  1
  O  O67  1  0.63676600  0.43815000  0.85606800  1
  O  O68  1  0.65363400  0.13127700  0.88216300  1
  O  O69  1  0.68609300  0.49483800  0.60137300  1
  O  O70  1  0.25610800  0.35663700  0.53457500  1
  O  O71  1  0.18875900  0.72574200  0.62497400  1
  O  O72  1  0.24473600  0.50922700  0.53057700  1
  O  O73  1  0.78214600  0.35748500  0.47382200  1
  O  O74  1  0.29441300  0.37738400  0.24180100  1
  O  O75  1  0.18787500  0.36345300  0.89279800  1
  O  O76  1  0.65363400  0.36872300  0.11783700  1
  O  O77  1  0.68081100  0.72395500  0.36872600  1
  O  O78  1  0.68787500  0.36345300  0.60720200  1
  O  O79  1  0.18875900  0.77425800  0.37502600  1
  O  O80  1  0.74473600  0.99077300  0.03057700  1
  O  O81  1  0.30310500  0.13266000  0.26678700  1
  O  O82  1  0.80310500  0.36734000  0.76678700  1
  O  O83  1  0.24389200  0.85663700  0.96542500  1
  O  O84  1  0.31918900  0.27604500  0.63127400  1
  O  O85  1  0.71196900  0.25519600  0.24932300  1
  O  O86  1  0.34636600  0.63127700  0.88216300  1
  O  O87  1  0.25610800  0.14336300  0.46542500  1
  O  O88  1  0.81390700  0.50516200  0.10137300  1
  O  O89  1  0.81390700  0.99483800  0.89862700  1
  O  O90  1  0.18609300  0.49483800  0.89862700  1
  O  O91  1  0.28803100  0.75519600  0.24932300  1
  O  O92  1  0.74389200  0.64336300  0.46542500  1
  O  O93  1  0.25526400  0.49077300  0.03057700  1
  O  O94  1  0.81124100  0.22574200  0.62497400  1
  O  O95  1  0.63676600  0.06185000  0.14393200  1
  O  O96  1  0.81212500  0.86345300  0.89279800  1
  O  O97  1  0.24473600  0.99077300  0.46942300  1
  O  O98  1  0.68609300  0.00516200  0.39862700  1
  O  O99  1  0.75610800  0.35663700  0.96542500  1
  O  O100  1  0.30310500  0.36734000  0.73321300  1
  O  O101  1  0.36323400  0.56185000  0.14393200  1
  O  O102  1  0.29459800  0.00414200  0.26163100  1
  O  O103  1  0.29459800  0.49585800  0.73836900  1
  O  O104  1  0.81918900  0.22395500  0.13127400  1
  O  O105  1  0.78803100  0.74480400  0.74932300  1
  O  O106  1  0.80310500  0.13266000  0.23321300  1
  O  O107  1  0.71785400  0.85748500  0.02617800  1
  O  O108  1  0.68787500  0.13654700  0.39279800  1
  O  O109  1  0.20558700  0.87738400  0.25819900  1
  O  O110  1  0.81212500  0.63654700  0.10720200  1
  O  O111  1  0.36181000  0.57822000  0.63764300  1
loop_
_geom_bond_atom_site_label_1
_geom_bond_atom_site_label_2
_geom_bond_distance
_geom_bond_site_symmetry_2
Bi0 O91 2.270791 1_555
Bi0 O53 2.296947 1_555
Bi0 O109 2.318694 1_555
Bi0 O79 2.532244 1_555
Bi0 O11 2.569930 1_555
Bi0 O65 2.696439 1_555
Bi0 O77 2.809491 1_555
Bi0 O31 2.860034 1_555
Bi1 O4 2.273928 1_555
Bi1 O89 2.336969 1_555
Bi1 O83 2.414506 1_555
Bi1 O96 2.435762 1_555
Bi1 O66 2.461378 1_565
Bi1 O80 2.640714 1_556
Bi1 O107 2.672978 1_556
Bi2 O109 2.196108 1_555
Bi2 O65 2.286210 1_555
Bi2 O102 2.353406 1_565
Bi2 O61 2.513098 1_465
Bi2 O31 2.520562 1_455
Bi3 O43 2.273928 1_455
Bi3 O24 2.336969 1_555
Bi3 O92 2.414506 1_455
Bi3 O17 2.435762 1_555
Bi3 O13 2.461378 1_455
Bi3 O72 2.640714 1_555
Bi3 O20 2.672978 1_555
Bi4 O5 2.273928 1_655
Bi4 O98 2.336969 1_555
Bi4 O87 2.414506 1_655
Bi4 O108 2.435762 1_555
Bi4 O97 2.461378 1_645
Bi4 O2 2.640714 1_555
Bi4 O44 2.672978 1_555
Bi5 O18 2.270791 1_555
Bi5 O62 2.296947 1_555
Bi5 O14 2.318694 1_555
Bi5 O71 2.532244 1_555
Bi5 O105 2.569930 1_555
Bi5 O111 2.696439 1_555
Bi5 O35 2.809491 1_555
Bi5 O64 2.860034 1_555
Bi6 O105 2.270791 1_555
Bi6 O14 2.296947 1_655
Bi6 O62 2.318694 1_555
Bi6 O23 2.532244 1_555
Bi6 O18 2.569930 1_655
Bi6 O63 2.696439 1_555
Bi6 O22 2.809491 1_655
Bi6 O86 2.860034 1_655
Bi7 O39 2.273928 1_455
Bi7 O26 2.336969 1_555
Bi7 O6 2.414506 1_455
Bi7 O41 2.435762 1_555
Bi7 O2 2.461378 1_465
Bi7 O97 2.640714 1_555
Bi7 O59 2.672978 1_555
Bi8 O85 2.202744 1_555
Bi8 O104 2.387376 1_555
Bi8 O106 2.402991 1_555
Bi8 O81 2.452195 1_555
Bi8 O55 2.460878 1_555
Bi8 O29 2.579013 1_555
Bi9 O7 2.202744 1_655
Bi9 O84 2.387376 1_655
Bi9 O100 2.402991 1_655
Bi9 O82 2.452195 1_555
Bi9 O10 2.460878 1_555
Bi9 O94 2.579013 1_555
Bi10 O55 2.270791 1_555
Bi10 O28 2.296947 1_455
Bi10 O74 2.318694 1_555
Bi10 O29 2.532244 1_555
Bi10 O85 2.569930 1_455
Bi10 O34 2.696439 1_555
Bi10 O104 2.809491 1_455
Bi10 O76 2.860034 1_455
Bi11 O67 2.273928 1_555
Bi11 O90 2.336969 1_555
Bi11 O99 2.414506 1_555
Bi11 O75 2.435762 1_555
Bi11 O9 2.461378 1_555
Bi11 O93 2.640714 1_556
Bi11 O49 2.672978 1_556
Bi12 O10 2.202744 1_555
Bi12 O3 2.387376 1_555
Bi12 O82 2.402991 1_555
Bi12 O100 2.452195 1_555
Bi12 O7 2.460878 1_555
Bi12 O25 2.579013 1_555
Bi13 O11 2.202744 1_455
Bi13 O77 2.387376 1_455
Bi13 O0 2.402991 1_455
Bi13 O40 2.452195 1_555
Bi13 O91 2.460878 1_555
Bi13 O79 2.579013 1_555
Bi14 O11 2.270791 1_555
Bi14 O109 2.296947 1_655
Bi14 O53 2.318694 1_555
Bi14 O21 2.532244 1_555
Bi14 O91 2.569930 1_655
Bi14 O38 2.696439 1_555
Bi14 O56 2.809491 1_655
Bi14 O16 2.860034 1_655
Bi15 O95 2.273928 1_555
Bi15 O51 2.336969 1_555
Bi15 O33 2.414506 1_555
Bi15 O19 2.435762 1_555
Bi15 O80 2.461378 1_545
Bi15 O66 2.640714 1_554
Bi15 O1 2.672978 1_554
Bi16 O7 2.270791 1_555
Bi16 O50 2.296947 1_455
Bi16 O30 2.318694 1_555
Bi16 O25 2.532244 1_555
Bi16 O10 2.569930 1_455
Bi16 O47 2.696439 1_555
Bi16 O3 2.809491 1_455
Bi16 O68 2.860034 1_455
Bi17 O14 2.196108 1_555
Bi17 O111 2.286210 1_555
Bi17 O103 2.353406 1_555
Bi17 O42 2.513098 1_455
Bi17 O64 2.520562 1_455
Bi18 O105 2.202744 1_455
Bi18 O35 2.387376 1_455
Bi18 O45 2.402991 1_455
Bi18 O15 2.452195 1_555
Bi18 O18 2.460878 1_555
Bi18 O71 2.579013 1_555
Bi19 O36 2.273928 1_655
Bi19 O69 2.336969 1_555
Bi19 O70 2.414506 1_655
Bi19 O78 2.435762 1_555
Bi19 O72 2.461378 1_655
Bi19 O13 2.640714 1_555
Bi19 O73 2.672978 1_555
Bi20 O18 2.202744 1_555
Bi20 O22 2.387376 1_555
Bi20 O15 2.402991 1_555
Bi20 O45 2.452195 1_555
Bi20 O105 2.460878 1_555
Bi20 O23 2.579013 1_555
Bi21 O55 2.202744 1_655
Bi21 O52 2.387376 1_655
Bi21 O81 2.402991 1_655
Bi21 O106 2.452195 1_555
Bi21 O85 2.460878 1_555
Bi21 O8 2.579013 1_555
Bi22 O62 2.196108 1_555
Bi22 O63 2.286210 1_555
Bi22 O42 2.353406 1_555
Bi22 O103 2.513098 1_555
Bi22 O86 2.520562 1_555
Bi23 O28 2.196108 1_555
Bi23 O54 2.286210 1_555
Bi23 O27 2.353406 1_555
Bi23 O58 2.513098 1_655
Bi23 O12 2.520562 1_655
Bi24 O50 2.196108 1_555
Bi24 O60 2.286210 1_555
Bi24 O32 2.353406 1_545
Bi24 O37 2.513098 1_645
Bi24 O57 2.520562 1_655
Bi25 O85 2.270791 1_555
Bi25 O74 2.296947 1_555
Bi25 O28 2.318694 1_555
Bi25 O8 2.532244 1_555
Bi25 O55 2.569930 1_555
Bi25 O54 2.696439 1_555
Bi25 O52 2.809491 1_555
Bi25 O12 2.860034 1_555
Bi26 O91 2.202744 1_555
Bi26 O56 2.387376 1_555
Bi26 O40 2.402991 1_555
Bi26 O0 2.452195 1_555
Bi26 O11 2.460878 1_555
Bi26 O21 2.579013 1_555
Bi27 O74 2.196108 1_555
Bi27 O34 2.286210 1_555
Bi27 O58 2.353406 1_555
Bi27 O27 2.513098 1_555
Bi27 O76 2.520562 1_555
Bi28 O30 2.196108 1_555
Bi28 O47 2.286210 1_555
Bi28 O37 2.353406 1_545
Bi28 O32 2.513098 1_545
Bi28 O68 2.520562 1_555
Bi29 O10 2.270791 1_555
Bi29 O30 2.296947 1_555
Bi29 O50 2.318694 1_555
Bi29 O94 2.532244 1_555
Bi29 O7 2.569930 1_555
Bi29 O60 2.696439 1_555
Bi29 O84 2.809491 1_555
Bi29 O57 2.860034 1_555
Bi30 O101 2.273928 1_555
Bi30 O88 2.336969 1_555
Bi30 O46 2.414506 1_555
Bi30 O110 2.435762 1_555
Bi30 O93 2.461378 1_555
Bi30 O9 2.640714 1_554
Bi30 O48 2.672978 1_554
Bi31 O53 2.196108 1_555
Bi31 O38 2.286210 1_555
Bi31 O61 2.353406 1_565
Bi31 O102 2.513098 1_565
Bi31 O16 2.520562 1_555
O0 Te24 1.931232 1_555
O1 Te17 1.903655 1_555
O1 Te12 2.637967 1_455
O2 Te3 1.944189 1_555
O3 Te23 1.915787 1_555
O4 Te1 1.913572 1_555
O5 Te2 1.913572 1_555
O6 Te16 1.897008 1_555
O8 Te31 1.925094 1_655
O9 Te15 1.944189 1_655
O12 Te31 1.900969 1_555
O13 Te4 1.944189 1_555
O15 Te1 1.931232 1_555
O16 Te21 1.900969 1_555
O17 Te11 1.912261 1_555
O19 Te25 1.912261 1_455
O20 Te0 1.903655 1_455
O20 Te13 2.637967 1_555
O21 Te21 1.925094 1_555
O22 Te26 1.915787 1_555
O23 Te18 1.925094 1_555
O24 Te4 1.935009 1_555
O25 Te17 1.925094 1_555
O26 Te3 1.935009 1_565
O27 Te24 1.938656 1_555
O29 Te27 1.925094 1_555
O31 Te19 1.900969 1_555
O32 Te30 1.938656 1_555
O33 Te25 1.897008 1_555
O34 Te20 1.918386 1_455
O35 Te16 1.915787 1_555
O36 Te9 1.913572 1_555
O37 Te1 1.938656 1_555
O38 Te29 1.918386 1_655
O39 Te30 1.913572 1_555
O40 Te22 1.931232 1_555
O41 Te16 1.912261 1_555
O42 Te14 1.938656 1_555
O43 Te24 1.913572 1_555
O44 Te8 1.903655 1_655
O44 Te3 2.637967 1_555
O45 Te30 1.931232 1_555
O46 Te28 1.897008 1_555
O47 Te12 1.918386 1_455
O48 Te18 1.903655 1_555
O48 Te15 2.637967 1_655
O49 Te27 1.903655 1_555
O49 Te20 2.637967 1_455
O51 Te29 1.935009 1_545
O52 Te7 1.915787 1_555
O54 Te4 1.918386 1_555
O56 Te28 1.915787 1_555
O57 Te8 1.900969 1_555
O58 Te22 1.938656 1_555
O59 Te19 1.903655 1_455
O59 Te10 2.637967 1_555
O60 Te3 1.918386 1_555
O61 Te6 1.938656 1_555
O63 Te15 1.918386 1_655
O64 Te0 1.900969 1_555
O65 Te10 1.918386 1_555
O66 Te12 1.944189 1_455
O67 Te14 1.913572 1_555
O68 Te17 1.900969 1_555
O69 Te13 1.935009 1_555
O70 Te5 1.897008 1_555
O71 Te0 1.925094 1_455
O72 Te13 1.944189 1_555
O73 Te31 1.903655 1_655
O73 Te4 2.637967 1_555
O75 Te23 1.912261 1_455
O76 Te27 1.900969 1_555
O77 Te11 1.915787 1_555
O78 Te5 1.912261 1_555
O79 Te19 1.925094 1_455
O80 Te29 1.944189 1_655
O81 Te2 1.931232 1_555
O82 Te14 1.931232 1_555
O83 Te26 1.897008 1_555
O84 Te5 1.915787 1_555
O86 Te18 1.900969 1_555
O87 Te7 1.897008 1_555
O88 Te20 1.935009 1_555
O89 Te12 1.935009 1_565
O90 Te15 1.935009 1_555
O92 Te11 1.897008 1_555
O93 Te20 1.944189 1_455
O94 Te8 1.925094 1_655
O95 Te6 1.913572 1_555
O96 Te26 1.912261 1_655
O97 Te10 1.944189 1_555
O98 Te10 1.935009 1_545
O99 Te23 1.897008 1_555
O100 Te9 1.931232 1_555
O101 Te22 1.913572 1_555
O102 Te2 1.938656 1_555
O103 Te9 1.938656 1_555
O104 Te25 1.915787 1_555
O106 Te6 1.931232 1_555
O107 Te21 1.903655 1_555
O107 Te29 2.637967 1_655
O108 Te7 1.912261 1_555
O110 Te28 1.912261 1_655
O111 Te13 1.918386 1_555
