# generated using pymatgen
data_Na2CdO2
_symmetry_space_group_name_H-M   'P 1'
_cell_length_a   9.23375225
_cell_length_b   9.26597256
_cell_length_c   9.24465506
_cell_angle_alpha   109.44133477
_cell_angle_beta   109.57410493
_cell_angle_gamma   109.45063258
_symmetry_Int_Tables_number   1
_chemical_formula_structural   Na2CdO2
_chemical_formula_sum   'Na16 Cd8 O16'
_cell_volume   608.49396671
_cell_formula_units_Z   8
loop_
 _symmetry_equiv_pos_site_id
 _symmetry_equiv_pos_as_xyz
  1  'x, y, z'
loop_
 _atom_site_type_symbol
 _atom_site_label
 _atom_site_symmetry_multiplicity
 _atom_site_fract_x
 _atom_site_fract_y
 _atom_site_fract_z
 _atom_site_occupancy
  Na  Na0  1  0.03477740  0.49206491  0.76990091  1
  Na  Na1  1  0.23149503  0.96692092  0.50955444  1
  Na  Na2  1  0.22294655  0.27487373  0.73495105  1
  Na  Na3  1  0.00724241  0.04373672  0.26813589  1
  Na  Na4  1  0.22415114  0.44819939  0.46364032  1
  Na  Na5  1  0.04290993  0.27309413  0.00832918  1
  Na  Na6  1  0.28269438  0.74778441  0.23836904  1
  Na  Na7  1  0.73046020  0.98474837  0.94871331  1
  Na  Na8  1  0.53068730  0.75858644  0.54266430  1
  Na  Na9  1  0.49668623  0.23634541  0.95372191  1
  Na  Na10  1  0.49041587  0.77024663  0.04213408  1
  Na  Na11  1  0.44949629  0.45636839  0.22606729  1
  Na  Na12  1  0.27991381  0.01696224  0.04908123  1
  Na  Na13  1  0.73172572  0.26866413  0.78567972  1
  Na  Na14  1  0.97235004  0.73835302  0.99969904  1
  Na  Na15  1  0.77680356  0.54774111  0.53538531  1
  Cd  Cd0  1  0.26672698  0.77055403  0.72896992  1
  Cd  Cd1  1  0.54448727  0.54136436  0.78089100  1
  Cd  Cd2  1  0.45612345  0.22494373  0.45187701  1
  Cd  Cd3  1  0.00119770  0.96154390  0.73959101  1
  Cd  Cd4  1  0.76794721  0.71905773  0.25494134  1
  Cd  Cd5  1  0.72770729  0.21656018  0.25876995  1
  Cd  Cd6  1  0.74985052  0.02944159  0.48973767  1
  Cd  Cd7  1  0.97242059  0.51398311  0.23323729  1
  O  O0  1  0.04272133  0.75504560  0.77920244  1
  O  O1  1  0.22571995  0.97558210  0.25746129  1
  O  O2  1  0.98261685  0.98857751  0.49413990  1
  O  O3  1  0.28958526  0.54328698  0.75371498  1
  O  O4  1  0.24426029  0.71446216  0.47109134  1
  O  O5  1  0.24424714  0.21232872  0.95973799  1
  O  O6  1  0.46733445  0.26232306  0.71179171  1
  O  O7  1  0.50524441  0.49384279  0.50930947  1
  O  O8  1  0.54559231  0.75033880  0.29053325  1
  O  O9  1  0.74996204  0.77628188  0.03613893  1
  O  O10  1  0.74017424  0.27089681  0.51572880  1
  O  O11  1  0.72349075  0.46661051  0.24720646  1
  O  O12  1  0.50184748  0.00133381  0.99329412  1
  O  O13  1  0.78807750  0.02795208  0.74137306  1
  O  O14  1  0.95375040  0.25234074  0.21577835  1
  O  O15  1  0.00415976  0.50666084  0.00945371  1
loop_
_geom_bond_atom_site_label_1
_geom_bond_atom_site_label_2
_geom_bond_distance
_geom_bond_site_symmetry_2
Na0 O15 2.290895 1_556
Na0 O3 2.307150 1_555
Na0 O0 2.384928 1_555
Na0 O10 2.433063 1_455
Na1 O4 2.295767 1_555
Na1 O2 2.334197 1_455
Na1 O1 2.341936 1_555
Na1 O6 2.371811 1_565
Na2 O3 2.283966 1_555
Na2 O5 2.301458 1_555
Na2 O6 2.373524 1_555
Na2 O2 2.399124 1_445
Na3 O14 2.304968 1_455
Na3 O1 2.327812 1_545
Na3 O9 2.347783 1_445
Na3 O2 2.372766 1_445
Na4 O14 2.271268 1_455
Na4 O3 2.306410 1_555
Na4 O7 2.347290 1_555
Na4 O4 2.387346 1_555
Na5 O5 2.250200 1_554
Na5 O15 2.305480 1_555
Na5 O14 2.364466 1_455
Na5 O13 2.367418 1_454
Na6 O8 2.301255 1_555
Na6 O1 2.305867 1_555
Na6 O15 2.337453 1_555
Na6 O4 2.393907 1_555
Na7 O13 2.273687 1_565
Na7 O12 2.325173 1_565
Na7 O9 2.364381 1_556
Na7 O14 2.367253 1_566
Na8 O7 2.287381 1_555
Na8 O13 2.307507 1_565
Na8 O4 2.350978 1_555
Na8 O8 2.358196 1_555
Na9 O6 2.264787 1_555
Na9 O5 2.288150 1_555
Na9 O12 2.337913 1_555
Na9 O11 2.379668 1_556
Na10 O8 2.264405 1_555
Na10 O12 2.307580 1_564
Na10 O3 2.308206 1_554
Na10 O9 2.398254 1_555
Na11 O5 2.253937 1_554
Na11 O8 2.348956 1_555
Na11 O7 2.369496 1_555
Na11 O11 2.438143 1_555
Na12 O1 2.262364 1_545
Na12 O5 2.297346 1_554
Na12 O12 2.311404 1_554
Na12 O0 2.383150 1_544
Na13 O6 2.278261 1_555
Na13 O15 2.291835 1_656
Na13 O13 2.391847 1_555
Na13 O10 2.529485 1_555
Na14 O15 2.287897 1_656
Na14 O9 2.306318 1_556
Na14 O1 2.310054 1_656
Na14 O0 2.373130 1_655
Na15 O0 2.251135 1_655
Na15 O7 2.296944 1_555
Na15 O11 2.333784 1_555
Na15 O10 2.408010 1_555
Cd0 O4 2.183712 1_555
Cd0 O0 2.237121 1_555
Cd0 O3 2.261820 1_555
Cd0 O12 2.265448 1_565
Cd1 O9 2.176348 1_556
Cd1 O6 2.229280 1_555
Cd1 O7 2.275282 1_555
Cd1 O3 2.288675 1_555
Cd2 O1 2.120118 1_545
Cd2 O7 2.213845 1_555
Cd2 O6 2.271493 1_555
Cd2 O10 2.336795 1_555
Cd3 O0 2.191616 1_555
Cd3 O5 2.212844 1_565
Cd3 O13 2.252326 1_465
Cd3 O2 2.321030 1_455
Cd4 O11 2.207899 1_555
Cd4 O9 2.224363 1_555
Cd4 O2 2.268435 1_555
Cd4 O8 2.278881 1_555
Cd5 O14 2.192507 1_555
Cd5 O10 2.211724 1_555
Cd5 O12 2.211833 1_554
Cd5 O11 2.367153 1_555
Cd6 O10 2.204760 1_555
Cd6 O8 2.211492 1_545
Cd6 O13 2.238480 1_555
Cd6 O2 2.293075 1_545
Cd7 O15 2.167140 1_655
Cd7 O11 2.248865 1_555
Cd7 O4 2.250258 1_655
Cd7 O14 2.318592 1_555
