# generated using pymatgen
data_BaNd2CuO5
_symmetry_space_group_name_H-M   'P 1'
_cell_length_a   6.76579000
_cell_length_b   6.76579000
_cell_length_c   5.88366500
_cell_angle_alpha   90.00000000
_cell_angle_beta   90.00000000
_cell_angle_gamma   90.00000000
_symmetry_Int_Tables_number   1
_chemical_formula_structural   BaNd2CuO5
_chemical_formula_sum   'Ba2 Nd4 Cu2 O10'
_cell_volume   269.33014495
_cell_formula_units_Z   2
loop_
 _symmetry_equiv_pos_site_id
 _symmetry_equiv_pos_as_xyz
  1  'x, y, z'
loop_
 _atom_site_type_symbol
 _atom_site_label
 _atom_site_symmetry_multiplicity
 _atom_site_fract_x
 _atom_site_fract_y
 _atom_site_fract_z
 _atom_site_occupancy
  Ba  Ba0  1  0.50000000  0.50000000  0.00000000  1
  Ba  Ba1  1  0.00000000  0.00000000  0.00000000  1
  Nd  Nd0  1  0.32677900  0.82677900  0.50000000  1
  Nd  Nd1  1  0.82677900  0.67322100  0.50000000  1
  Nd  Nd2  1  0.17322100  0.32677900  0.50000000  1
  Nd  Nd3  1  0.67322100  0.17322100  0.50000000  1
  Cu  Cu0  1  0.00000000  0.50000000  0.00000000  1
  Cu  Cu1  1  0.50000000  0.00000000  0.00000000  1
  O  O0  1  0.13893400  0.63893400  0.24333300  1
  O  O1  1  0.86106600  0.36106600  0.24333300  1
  O  O2  1  0.36106600  0.13893400  0.24333300  1
  O  O3  1  0.63893400  0.86106600  0.24333300  1
  O  O4  1  0.13893400  0.63893400  0.75666700  1
  O  O5  1  0.63893400  0.86106600  0.75666700  1
  O  O6  1  0.36106600  0.13893400  0.75666700  1
  O  O7  1  0.86106600  0.36106600  0.75666700  1
  O  O8  1  0.00000000  0.00000000  0.50000000  1
  O  O9  1  0.50000000  0.50000000  0.50000000  1
loop_
_geom_bond_atom_site_label_1
_geom_bond_atom_site_label_2
_geom_bond_distance
_geom_bond_site_symmetry_2
Ba0 O9 2.941832 1_555
Ba0 O9 2.941832 1_554
Ba0 O5 2.983467 1_554
Ba0 O2 2.983467 1_555
Ba0 O3 2.983467 1_555
Ba0 O6 2.983467 1_554
Ba0 O0 2.983467 1_555
Ba0 O7 2.983467 1_554
Ba0 O4 2.983467 1_554
Ba0 O1 2.983467 1_555
Ba1 O8 2.941832 1_555
Ba1 O8 2.941832 1_554
Ba1 O5 2.983467 1_444
Ba1 O4 2.983467 1_544
Ba1 O7 2.983467 1_454
Ba1 O2 2.983467 1_555
Ba1 O6 2.983467 1_554
Ba1 O1 2.983467 1_455
Ba1 O3 2.983467 1_445
Ba1 O0 2.983467 1_545
Nd0 O0 2.347553 1_555
Nd0 O4 2.347553 1_555
Nd0 O9 2.502337 1_555
Nd0 O8 2.502337 1_565
Nd0 O5 2.606681 1_555
Nd0 O3 2.606681 1_555
Nd0 O2 2.606681 1_565
Nd0 O6 2.606681 1_565
Nd1 O3 2.347553 1_555
Nd1 O5 2.347553 1_555
Nd1 O9 2.502337 1_555
Nd1 O8 2.502337 1_665
Nd1 O7 2.606681 1_555
Nd1 O1 2.606681 1_555
Nd1 O0 2.606681 1_655
Nd1 O4 2.606681 1_655
Nd2 O6 2.347553 1_555
Nd2 O2 2.347553 1_555
Nd2 O8 2.502337 1_555
Nd2 O9 2.502337 1_555
Nd2 O7 2.606681 1_455
Nd2 O1 2.606681 1_455
Nd2 O0 2.606681 1_555
Nd2 O4 2.606681 1_555
Nd3 O7 2.347553 1_555
Nd3 O1 2.347553 1_555
Nd3 O8 2.502337 1_655
Nd3 O9 2.502337 1_555
Nd3 O5 2.606681 1_545
Nd3 O3 2.606681 1_545
Nd3 O2 2.606681 1_555
Nd3 O6 2.606681 1_555
Cu0 O0 1.953696 1_555
Cu0 O1 1.953696 1_455
Cu0 O4 1.953696 1_554
Cu0 O7 1.953696 1_454
Cu1 O3 1.953696 1_545
Cu1 O2 1.953696 1_555
Cu1 O6 1.953696 1_554
Cu1 O5 1.953696 1_544
