# generated using pymatgen
data_Mg2SiO4
_symmetry_space_group_name_H-M   'P 1'
_cell_length_a   5.48175600
_cell_length_b   7.39215400
_cell_length_c   7.54888000
_cell_angle_alpha   90.00000000
_cell_angle_beta   90.00000000
_cell_angle_gamma   90.00000000
_symmetry_Int_Tables_number   1
_chemical_formula_structural   Mg2SiO4
_chemical_formula_sum   'Mg8 Si4 O16'
_cell_volume   305.89559867
_cell_formula_units_Z   4
loop_
 _symmetry_equiv_pos_site_id
 _symmetry_equiv_pos_as_xyz
  1  'x, y, z'
loop_
 _atom_site_type_symbol
 _atom_site_label
 _atom_site_symmetry_multiplicity
 _atom_site_fract_x
 _atom_site_fract_y
 _atom_site_fract_z
 _atom_site_occupancy
  Mg  Mg0  1  0.40693700  0.74394600  0.14199100  1
  Mg  Mg1  1  0.90693700  0.75605400  0.85800900  1
  Mg  Mg2  1  0.71677400  0.43694400  0.04075700  1
  Mg  Mg3  1  0.78322600  0.56305600  0.54075700  1
  Mg  Mg4  1  0.21677400  0.06305600  0.95924300  1
  Mg  Mg5  1  0.28322600  0.93694400  0.45924300  1
  Mg  Mg6  1  0.09306300  0.25605400  0.64199100  1
  Mg  Mg7  1  0.59306300  0.24394600  0.35800900  1
  Si  Si0  1  0.62958400  0.14386100  0.76546800  1
  Si  Si1  1  0.37041600  0.64386100  0.73453200  1
  Si  Si2  1  0.12958400  0.35613900  0.23453200  1
  Si  Si3  1  0.87041600  0.85613900  0.26546800  1
  O  O0  1  0.45352100  0.71326800  0.53984400  1
  O  O1  1  0.37580300  0.48673500  0.21167200  1
  O  O2  1  0.95352100  0.78673200  0.46015600  1
  O  O3  1  0.77464000  0.71758500  0.10580500  1
  O  O4  1  0.87580300  0.01326500  0.78832800  1
  O  O5  1  0.04647900  0.28673200  0.03984400  1
  O  O6  1  0.13973900  0.92706400  0.19219100  1
  O  O7  1  0.36026100  0.07293600  0.69219100  1
  O  O8  1  0.27464000  0.78241500  0.89419500  1
  O  O9  1  0.54647900  0.21326800  0.96015600  1
  O  O10  1  0.72536000  0.28241500  0.60580500  1
  O  O11  1  0.63973900  0.57293600  0.80780900  1
  O  O12  1  0.86026100  0.42706400  0.30780900  1
  O  O13  1  0.12419700  0.51326500  0.71167200  1
  O  O14  1  0.22536000  0.21758500  0.39419500  1
  O  O15  1  0.62419700  0.98673500  0.28832800  1
loop_
_geom_bond_atom_site_label_1
_geom_bond_atom_site_label_2
_geom_bond_distance
_geom_bond_site_symmetry_2
Mg0 O1 1.980132 1_555
Mg0 O8 2.026299 1_554
Mg0 O6 2.030105 1_555
Mg0 O3 2.043396 1_555
Mg0 O15 2.420700 1_555
Mg1 O4 1.980132 1_565
Mg1 O3 2.026299 1_556
Mg1 O11 2.030105 1_555
Mg1 O8 2.043396 1_655
Mg1 O13 2.420700 1_655
Mg2 O9 1.993878 1_554
Mg2 O11 2.069109 1_554
Mg2 O5 2.121220 1_655
Mg2 O3 2.155334 1_555
Mg2 O12 2.165188 1_555
Mg2 O1 2.300813 1_555
Mg3 O2 1.993878 1_555
Mg3 O12 2.069109 1_555
Mg3 O0 2.121220 1_555
Mg3 O10 2.155334 1_555
Mg3 O11 2.165188 1_555
Mg3 O13 2.300813 1_655
Mg4 O5 1.993878 1_556
Mg4 O6 2.069109 1_546
Mg4 O9 2.121220 1_555
Mg4 O8 2.155334 1_545
Mg4 O7 2.165188 1_555
Mg4 O4 2.300813 1_455
Mg5 O0 1.993878 1_555
Mg5 O7 2.069109 1_565
Mg5 O2 2.121220 1_455
Mg5 O14 2.155334 1_565
Mg5 O6 2.165188 1_555
Mg5 O15 2.300813 1_555
Mg6 O13 1.980132 1_555
Mg6 O14 2.026299 1_555
Mg6 O7 2.030105 1_555
Mg6 O10 2.043396 1_455
Mg6 O4 2.420700 1_455
Mg7 O15 1.980132 1_545
Mg7 O10 2.026299 1_555
Mg7 O12 2.030105 1_555
Mg7 O14 2.043396 1_555
Mg7 O1 2.420700 1_555
O0 Si1 1.621950 1_555
O1 Si2 1.668374 1_555
O2 Si3 1.621950 1_555
O3 Si3 1.666538 1_555
O4 Si0 1.668374 1_555
O5 Si2 1.621950 1_555
O6 Si3 1.661479 1_455
O7 Si0 1.661479 1_555
O8 Si1 1.666538 1_555
O9 Si0 1.621950 1_555
O10 Si0 1.666538 1_555
O11 Si1 1.661479 1_555
O12 Si2 1.661479 1_655
O13 Si1 1.668374 1_555
O14 Si2 1.666538 1_555
O15 Si3 1.668374 1_555
