# generated using pymatgen
data_Nd2(Mo3Se4)5
_symmetry_space_group_name_H-M   'P 1'
_cell_length_a   6.83592861
_cell_length_b   68.12833803
_cell_length_c   9.72972970
_cell_angle_alpha   44.43271048
_cell_angle_beta   88.45478094
_cell_angle_gamma   88.85491840
_symmetry_Int_Tables_number   1
_chemical_formula_structural   Nd2(Mo3Se4)5
_chemical_formula_sum   'Nd8 Mo60 Se80'
_cell_volume   3171.10088665
_cell_formula_units_Z   4
loop_
 _symmetry_equiv_pos_site_id
 _symmetry_equiv_pos_as_xyz
  1  'x, y, z'
loop_
 _atom_site_type_symbol
 _atom_site_label
 _atom_site_symmetry_multiplicity
 _atom_site_fract_x
 _atom_site_fract_y
 _atom_site_fract_z
 _atom_site_occupancy
  Nd  Nd0  1  0.00000000  0.10000000  0.00000000  1
  Nd  Nd1  1  0.99967323  0.29975731  0.00129042  1
  Nd  Nd2  1  0.99973401  0.39990620  0.00056343  1
  Nd  Nd3  1  0.00001434  0.50000535  0.99998455  1
  Nd  Nd4  1  0.00000000  0.60000000  0.00000000  1
  Nd  Nd5  1  0.99998566  0.69999465  0.00001545  1
  Nd  Nd6  1  0.00026599  0.80009380  0.99943657  1
  Nd  Nd7  1  0.00032677  0.90024269  0.99870958  1
  Mo  Mo0  1  0.23152609  0.08633392  0.56023912  1
  Mo  Mo1  1  0.23458945  0.18643587  0.55776224  1
  Mo  Mo2  1  0.23327618  0.28603334  0.56099256  1
  Mo  Mo3  1  0.23466613  0.38625113  0.56053786  1
  Mo  Mo4  1  0.23480234  0.48626716  0.56053583  1
  Mo  Mo5  1  0.23475363  0.58626508  0.56054716  1
  Mo  Mo6  1  0.23478515  0.68626526  0.56054078  1
  Mo  Mo7  1  0.23465826  0.78627920  0.56052158  1
  Mo  Mo8  1  0.23358325  0.88652319  0.56008634  1
  Mo  Mo9  1  0.42464606  0.03211417  0.23503856  1
  Mo  Mo10  1  0.23446612  0.98648026  0.55760843  1
  Mo  Mo11  1  0.42267035  0.13251861  0.23617567  1
  Mo  Mo12  1  0.44341055  0.01864388  0.57871975  1
  Mo  Mo13  1  0.42483626  0.23208431  0.23499431  1
  Mo  Mo14  1  0.43926063  0.11891087  0.57602224  1
  Mo  Mo15  1  0.42413965  0.33231046  0.23684858  1
  Mo  Mo16  1  0.44329129  0.21858241  0.57918789  1
  Mo  Mo17  1  0.42375796  0.43239712  0.23643001  1
  Mo  Mo18  1  0.44025890  0.31867995  0.57736504  1
  Mo  Mo19  1  0.42371544  0.53239873  0.23652462  1
  Mo  Mo20  1  0.43989514  0.41870706  0.57705096  1
  Mo  Mo21  1  0.42368942  0.63239602  0.23652017  1
  Mo  Mo22  1  0.43984813  0.51870849  0.57701294  1
  Mo  Mo23  1  0.42368288  0.73238600  0.23660110  1
  Mo  Mo24  1  0.43981771  0.61870678  0.57700476  1
  Mo  Mo25  1  0.56073937  0.08108913  0.42397776  1
  Mo  Mo26  1  0.42368250  0.83239192  0.23654282  1
  Mo  Mo27  1  0.43978913  0.71870572  0.57699431  1
  Mo  Mo28  1  0.55658945  0.18135612  0.42128025  1
  Mo  Mo29  1  0.42227681  0.93260927  0.23593112  1
  Mo  Mo30  1  0.57732965  0.06748139  0.76382433  1
  Mo  Mo31  1  0.43982989  0.81871531  0.57694787  1
  Mo  Mo32  1  0.56159528  0.28107694  0.42466647  1
  Mo  Mo33  1  0.57535394  0.16788583  0.76496144  1
  Mo  Mo34  1  0.43840472  0.91892306  0.57533353  1
  Mo  Mo35  1  0.56017011  0.38128469  0.42305213  1
  Mo  Mo36  1  0.57772319  0.26739073  0.76406888  1
  Mo  Mo37  1  0.56021087  0.48129428  0.42300569  1
  Mo  Mo38  1  0.57631750  0.36760808  0.76345718  1
  Mo  Mo39  1  0.56018229  0.58129322  0.42299524  1
  Mo  Mo40  1  0.57631712  0.46761400  0.76339890  1
  Mo  Mo41  1  0.56015187  0.68129151  0.42298706  1
  Mo  Mo42  1  0.57631058  0.56760398  0.76347983  1
  Mo  Mo43  1  0.56010486  0.78129294  0.42294904  1
  Mo  Mo44  1  0.57628456  0.66760127  0.76347538  1
  Mo  Mo45  1  0.55974110  0.88132005  0.42263496  1
  Mo  Mo46  1  0.57624204  0.76760288  0.76356999  1
  Mo  Mo47  1  0.55670871  0.98141759  0.42081211  1
  Mo  Mo48  1  0.57586035  0.86768954  0.76315142  1
  Mo  Mo49  1  0.76541055  0.01356413  0.44223776  1
  Mo  Mo50  1  0.57516374  0.96791569  0.76500569  1
  Mo  Mo51  1  0.76847391  0.11366608  0.43976088  1
  Mo  Mo52  1  0.76553388  0.21351974  0.44239157  1
  Mo  Mo53  1  0.76641675  0.31347681  0.43991366  1
  Mo  Mo54  1  0.76534174  0.41372080  0.43947842  1
  Mo  Mo55  1  0.76521485  0.51373474  0.43945922  1
  Mo  Mo56  1  0.76524637  0.61373492  0.43945284  1
  Mo  Mo57  1  0.76519766  0.71373284  0.43946417  1
  Mo  Mo58  1  0.76533387  0.81374887  0.43946214  1
  Mo  Mo59  1  0.76672382  0.91396666  0.43900744  1
  Se  Se0  1  0.12170272  0.03772490  0.37776341  1
  Se  Se1  1  0.12283653  0.13728734  0.37697885  1
  Se  Se2  1  0.12188955  0.23773961  0.37758973  1
  Se  Se3  1  0.12240429  0.33796435  0.37535986  1
  Se  Se4  1  0.12180823  0.43795283  0.37494508  1
  Se  Se5  1  0.12173484  0.53795895  0.37487722  1
  Se  Se6  1  0.12171217  0.63795149  0.37490903  1
  Se  Se7  1  0.24133126  0.09973138  0.24184585  1
  Se  Se8  1  0.12171904  0.73793962  0.37496699  1
  Se  Se9  1  0.23626176  0.20003890  0.23668282  1
  Se  Se10  1  0.24366808  0.07445610  0.87835746  1
  Se  Se11  1  0.12163159  0.83791928  0.37517414  1
  Se  Se12  1  0.24112045  0.29984467  0.24159947  1
  Se  Se13  1  0.25040438  0.17463193  0.87689668  1
  Se  Se14  1  0.12232784  0.93741579  0.37571971  1
  Se  Se15  1  0.24060214  0.39992991  0.24125700  1
  Se  Se16  1  0.24382833  0.27464030  0.87730685  1
  Se  Se17  1  0.24084033  0.49991420  0.24121632  1
  Se  Se18  1  0.24500759  0.37470917  0.87796818  1
  Se  Se19  1  0.24081976  0.59990763  0.24125518  1
  Se  Se20  1  0.24525064  0.47472673  0.87794401  1
  Se  Se21  1  0.24089023  0.69989611  0.24134138  1
  Se  Se22  1  0.24525199  0.57472153  0.87798060  1
  Se  Se23  1  0.24094520  0.79987300  0.24141001  1
  Se  Se24  1  0.37757508  0.03731231  0.75021414  1
  Se  Se25  1  0.24524047  0.67471393  0.87801887  1
  Se  Se26  1  0.24117709  0.89978314  0.24170785  1
  Se  Se27  1  0.37594414  0.13670070  0.75539502  1
  Se  Se28  1  0.24528490  0.77469182  0.87801210  1
  Se  Se29  1  0.23641532  0.99998157  0.23688995  1
  Se  Se30  1  0.37647180  0.23732202  0.75033200  1
  Se  Se31  1  0.24503921  0.87456421  0.87897470  1
  Se  Se32  1  0.37478023  0.33671764  0.75473904  1
  Se  Se33  1  0.25057107  0.97464498  0.87686431  1
  Se  Se34  1  0.37462538  0.43675542  0.75432537  1
  Se  Se35  1  0.37456486  0.53674958  0.75435269  1
  Se  Se36  1  0.37460184  0.63674477  0.75436458  1
  Se  Se37  1  0.37464463  0.73674909  0.75433388  1
  Se  Se38  1  0.37520775  0.83669519  0.75459848  1
  Se  Se39  1  0.37563757  0.93673369  0.75531815  1
  Se  Se40  1  0.62405586  0.06329930  0.24460498  1
  Se  Se41  1  0.62242492  0.16268769  0.24978586  1
  Se  Se42  1  0.62436243  0.26326631  0.24468185  1
  Se  Se43  1  0.62479225  0.36330481  0.24540152  1
  Se  Se44  1  0.62535537  0.46325091  0.24566612  1
  Se  Se45  1  0.62539816  0.56325523  0.24563542  1
  Se  Se46  1  0.74959562  0.02536807  0.12310332  1
  Se  Se47  1  0.62543514  0.66325042  0.24564731  1
  Se  Se48  1  0.75633192  0.12554390  0.12164254  1
  Se  Se49  1  0.62537462  0.76324458  0.24567463  1
  Se  Se50  1  0.76373824  0.99996110  0.76331718  1
  Se  Se51  1  0.74942893  0.22535502  0.12313569  1
  Se  Se52  1  0.62521977  0.86328236  0.24526096  1
  Se  Se53  1  0.75866874  0.10026862  0.75815415  1
  Se  Se54  1  0.75496079  0.32543579  0.12102530  1
  Se  Se55  1  0.62352820  0.96267798  0.24966800  1
  Se  Se56  1  0.76358468  0.20001843  0.76311005  1
  Se  Se57  1  0.75471510  0.42530818  0.12198790  1
  Se  Se58  1  0.75882291  0.30021686  0.75829215  1
  Se  Se59  1  0.75475953  0.52528607  0.12198113  1
  Se  Se60  1  0.75905480  0.40012700  0.75858999  1
  Se  Se61  1  0.75474801  0.62527847  0.12201940  1
  Se  Se62  1  0.75910977  0.50010389  0.75865862  1
  Se  Se63  1  0.75474936  0.72527327  0.12205599  1
  Se  Se64  1  0.75918024  0.60009237  0.75874482  1
  Se  Se65  1  0.87716347  0.06271266  0.62302115  1
  Se  Se66  1  0.75499241  0.82529083  0.12203182  1
  Se  Se67  1  0.75915967  0.70008580  0.75878368  1
  Se  Se68  1  0.87829728  0.16227510  0.62223659  1
  Se  Se69  1  0.75617167  0.92535970  0.12269315  1
  Se  Se70  1  0.75939786  0.80007009  0.75874300  1
  Se  Se71  1  0.87767216  0.26258421  0.62428029  1
  Se  Se72  1  0.75887955  0.90015533  0.75840053  1
  Se  Se73  1  0.87836841  0.36208072  0.62482586  1
  Se  Se74  1  0.87828096  0.46206038  0.62503301  1
  Se  Se75  1  0.87828783  0.56204851  0.62509097  1
  Se  Se76  1  0.87826516  0.66204105  0.62512278  1
  Se  Se77  1  0.87819177  0.76204717  0.62505492  1
  Se  Se78  1  0.87759571  0.86203565  0.62464014  1
  Se  Se79  1  0.87811045  0.96226039  0.62241027  1
loop_
_geom_bond_atom_site_label_1
_geom_bond_atom_site_label_2
_geom_bond_distance
_geom_bond_site_symmetry_2
Nd0 Se7 2.899247 1_555
Nd0 Se53 2.899247 1_454
Nd0 Se48 3.150112 1_455
Nd0 Se10 3.150112 1_554
Nd0 Se27 3.154191 1_554
Nd0 Se40 3.154191 1_455
Nd0 Se0 3.155195 1_555
Nd0 Se68 3.155195 1_454
Nd1 Se58 2.898938 1_554
Nd1 Se12 2.901645 1_655
Nd1 Se2 3.144225 1_655
Nd1 Se42 3.144862 1_555
Nd1 Se16 3.145523 1_654
Nd1 Se54 3.147170 1_555
Nd1 Se73 3.153496 1_554
Nd1 Se32 3.157521 1_654
Nd2 Se60 2.899545 1_554
Nd2 Se15 2.899835 1_655
Nd2 Se3 3.139362 1_655
Nd2 Se18 3.143611 1_654
Nd2 Se57 3.145393 1_555
Nd2 Se74 3.145986 1_554
Nd2 Se43 3.147200 1_555
Nd2 Se34 3.153768 1_654
Nd3 Se17 2.899376 1_556
Nd3 Se62 2.900151 1_455
Nd3 Se75 3.141336 1_455
Nd3 Se4 3.141921 1_556
Nd3 Se59 3.143748 1_456
Nd3 Se20 3.143890 1_555
Nd3 Se35 3.148958 1_555
Nd3 Se44 3.149827 1_456
Nd4 Se19 2.899490 1_555
Nd4 Se64 2.899490 1_454
Nd4 Se76 3.141245 1_454
Nd4 Se5 3.141245 1_555
Nd4 Se61 3.143782 1_455
Nd4 Se22 3.143782 1_554
Nd4 Se36 3.149258 1_554
Nd4 Se45 3.149258 1_455
Nd5 Se67 2.899376 1_554
Nd5 Se21 2.900151 1_655
Nd5 Se6 3.141336 1_655
Nd5 Se77 3.141921 1_554
Nd5 Se25 3.143748 1_654
Nd5 Se63 3.143890 1_555
Nd5 Se47 3.148958 1_555
Nd5 Se37 3.149827 1_654
Nd6 Se23 2.899545 1_556
Nd6 Se70 2.899835 1_455
Nd6 Se78 3.139362 1_455
Nd6 Se66 3.143611 1_456
Nd6 Se28 3.145393 1_555
Nd6 Se8 3.145986 1_556
Nd6 Se38 3.147200 1_555
Nd6 Se49 3.153768 1_456
Nd7 Se26 2.898938 1_556
Nd7 Se72 2.901645 1_455
Nd7 Se79 3.144225 1_455
Nd7 Se39 3.144862 1_555
Nd7 Se69 3.145523 1_456
Nd7 Se31 3.147170 1_555
Nd7 Se11 3.153496 1_556
Nd7 Se52 3.157521 1_456
Mo0 Se7 2.527353 1_555
Mo0 Se10 2.583820 1_555
Mo0 Se24 2.591785 1_555
Mo0 Se1 2.628757 1_555
Mo0 Se65 2.739163 1_455
Mo1 Se9 2.546021 1_555
Mo1 Se13 2.597779 1_555
Mo1 Se27 2.603187 1_555
Mo1 Se2 2.664194 1_555
Mo1 Se68 2.763728 1_455
Mo2 Se12 2.522398 1_555
Mo2 Se30 2.569334 1_555
Mo2 Se16 2.584132 1_555
Mo2 Se3 2.682256 1_555
Mo2 Se71 2.740459 1_455
Mo3 Se15 2.526020 1_555
Mo3 Se18 2.589088 1_555
Mo3 Se32 2.595721 1_555
Mo3 Se4 2.673140 1_555
Mo3 Se73 2.764461 1_455
Mo4 Se17 2.527478 1_555
Mo4 Se20 2.588973 1_555
Mo4 Se34 2.594620 1_555
Mo4 Se5 2.672818 1_555
Mo4 Se74 2.766483 1_455
Mo5 Se19 2.527374 1_555
Mo5 Se22 2.589115 1_555
Mo5 Se35 2.594759 1_555
Mo5 Se6 2.672515 1_555
Mo5 Se75 2.766346 1_455
Mo6 Se21 2.526907 1_555
Mo6 Se25 2.589233 1_555
Mo6 Se36 2.595001 1_555
Mo6 Se8 2.672042 1_555
Mo6 Se76 2.766827 1_455
Mo7 Se23 2.527358 1_555
Mo7 Se28 2.588068 1_555
Mo7 Se37 2.595950 1_555
Mo7 Se11 2.670597 1_555
Mo7 Se77 2.766849 1_455
Mo8 Se26 2.532074 1_555
Mo8 Se31 2.587857 1_555
Mo8 Se38 2.614412 1_555
Mo8 Se14 2.627463 1_555
Mo8 Se78 2.771825 1_455
Mo9 Se29 2.550168 1_545
Mo9 Se40 2.604947 1_555
Mo9 Se46 2.622073 1_555
Mo9 Se0 2.633345 1_555
Mo9 Se10 2.772614 1_554
Mo10 Se29 2.546139 1_555
Mo10 Se33 2.597903 1_555
Mo10 Se39 2.603190 1_555
Mo10 Se0 2.661812 1_565
Mo10 Se79 2.765222 1_455
Mo11 Se7 2.541709 1_555
Mo11 Se41 2.572417 1_555
Mo11 Se1 2.577017 1_555
Mo11 Se48 2.691822 1_555
Mo11 Se13 2.757122 1_554
Mo12 Se50 2.544951 1_545
Mo12 Se33 2.582902 1_545
Mo12 Se0 2.614749 1_555
Mo12 Se40 2.675393 1_555
Mo12 Se24 2.751687 1_555
Mo13 Se9 2.547250 1_555
Mo13 Se42 2.605941 1_555
Mo13 Se51 2.619135 1_555
Mo13 Se2 2.634132 1_555
Mo13 Se16 2.779825 1_554
Mo14 Se53 2.530689 1_555
Mo14 Se1 2.579105 1_555
Mo14 Se10 2.615290 1_555
Mo14 Se41 2.636868 1_555
Mo14 Se27 2.767906 1_555
Mo15 Se12 2.533990 1_555
Mo15 Se43 2.592305 1_555
Mo15 Se3 2.603611 1_555
Mo15 Se54 2.679101 1_555
Mo15 Se18 2.778580 1_554
Mo16 Se56 2.542480 1_555
Mo16 Se13 2.580660 1_555
Mo16 Se2 2.615288 1_555
Mo16 Se42 2.678737 1_555
Mo16 Se30 2.753774 1_555
Mo17 Se15 2.534094 1_555
Mo17 Se44 2.591903 1_555
Mo17 Se4 2.601421 1_555
Mo17 Se57 2.679560 1_555
Mo17 Se20 2.773996 1_554
Mo18 Se58 2.521574 1_555
Mo18 Se3 2.595905 1_555
Mo18 Se16 2.601283 1_555
Mo18 Se43 2.678843 1_555
Mo18 Se32 2.766595 1_555
Mo19 Se17 2.534954 1_555
Mo19 Se45 2.591614 1_555
Mo19 Se5 2.600790 1_555
Mo19 Se59 2.681311 1_555
Mo19 Se22 2.774096 1_554
Mo20 Se60 2.527169 1_555
Mo20 Se18 2.597627 1_555
Mo20 Se4 2.597797 1_555
Mo20 Se44 2.678058 1_555
Mo20 Se34 2.766138 1_555
Mo21 Se19 2.534904 1_555
Mo21 Se47 2.591829 1_555
Mo21 Se6 2.600822 1_555
Mo21 Se61 2.681330 1_555
Mo21 Se25 2.773788 1_554
Mo22 Se62 2.528130 1_555
Mo22 Se20 2.596269 1_555
Mo22 Se5 2.598055 1_555
Mo22 Se45 2.678371 1_555
Mo22 Se35 2.766307 1_555
Mo23 Se21 2.534692 1_555
Mo23 Se49 2.591540 1_555
Mo23 Se8 2.600554 1_555
Mo23 Se63 2.681448 1_555
Mo23 Se28 2.773971 1_554
Mo24 Se64 2.529056 1_555
Mo24 Se22 2.596371 1_555
Mo24 Se6 2.597868 1_555
Mo24 Se47 2.678450 1_555
Mo24 Se36 2.766240 1_555
Mo25 Se7 2.530689 1_555
Mo25 Se65 2.579105 1_555
Mo25 Se48 2.615290 1_555
Mo25 Se24 2.636868 1_555
Mo25 Se40 2.767906 1_555
Mo26 Se23 2.535457 1_555
Mo26 Se52 2.590627 1_555
Mo26 Se11 2.601673 1_555
Mo26 Se66 2.682290 1_555
Mo26 Se31 2.768292 1_554
Mo27 Se67 2.529273 1_555
Mo27 Se25 2.596610 1_555
Mo27 Se8 2.597422 1_555
Mo27 Se49 2.678116 1_555
Mo27 Se37 2.766314 1_555
Mo28 Se9 2.544951 1_555
Mo28 Se51 2.582902 1_555
Mo28 Se68 2.614749 1_555
Mo28 Se27 2.675393 1_555
Mo28 Se41 2.751687 1_555
Mo29 Se26 2.542556 1_555
Mo29 Se14 2.572976 1_555
Mo29 Se55 2.573050 1_555
Mo29 Se69 2.695187 1_555
Mo29 Se33 2.753661 1_554
Mo30 Se53 2.541709 1_555
Mo30 Se24 2.572417 1_555
Mo30 Se65 2.577017 1_555
Mo30 Se10 2.691822 1_555
Mo30 Se46 2.757122 1_556
Mo31 Se70 2.530445 1_555
Mo31 Se11 2.597239 1_555
Mo31 Se28 2.597485 1_555
Mo31 Se52 2.679405 1_555
Mo31 Se38 2.764835 1_555
Mo32 Se12 2.540237 1_555
Mo32 Se71 2.578930 1_555
Mo32 Se54 2.608941 1_555
Mo32 Se30 2.640584 1_555
Mo32 Se42 2.774264 1_555
Mo33 Se56 2.550168 1_555
Mo33 Se27 2.604947 1_555
Mo33 Se13 2.622073 1_555
Mo33 Se68 2.633345 1_555
Mo33 Se48 2.772614 1_556
Mo34 Se72 2.540237 1_555
Mo34 Se14 2.578930 1_555
Mo34 Se31 2.608941 1_555
Mo34 Se55 2.640584 1_555
Mo34 Se39 2.774264 1_555
Mo35 Se15 2.530445 1_555
Mo35 Se73 2.597239 1_555
Mo35 Se57 2.597485 1_555
Mo35 Se32 2.679405 1_555
Mo35 Se43 2.764835 1_555
Mo36 Se58 2.542556 1_555
Mo36 Se71 2.572976 1_555
Mo36 Se30 2.573050 1_555
Mo36 Se16 2.695187 1_555
Mo36 Se51 2.753661 1_556
Mo37 Se17 2.529273 1_555
Mo37 Se59 2.596610 1_555
Mo37 Se74 2.597422 1_555
Mo37 Se34 2.678116 1_555
Mo37 Se44 2.766314 1_555
Mo38 Se60 2.535457 1_555
Mo38 Se32 2.590627 1_555
Mo38 Se73 2.601673 1_555
Mo38 Se18 2.682290 1_555
Mo38 Se54 2.768292 1_556
Mo39 Se19 2.529056 1_555
Mo39 Se61 2.596371 1_555
Mo39 Se75 2.597868 1_555
Mo39 Se35 2.678450 1_555
Mo39 Se45 2.766240 1_555
Mo40 Se62 2.534692 1_555
Mo40 Se34 2.591540 1_555
Mo40 Se74 2.600554 1_555
Mo40 Se20 2.681448 1_555
Mo40 Se57 2.773971 1_556
Mo41 Se21 2.528130 1_555
Mo41 Se63 2.596269 1_555
Mo41 Se76 2.598055 1_555
Mo41 Se36 2.678371 1_555
Mo41 Se47 2.766307 1_555
Mo42 Se64 2.534904 1_555
Mo42 Se35 2.591829 1_555
Mo42 Se75 2.600822 1_555
Mo42 Se22 2.681330 1_555
Mo42 Se59 2.773788 1_556
Mo43 Se23 2.527169 1_555
Mo43 Se66 2.597627 1_555
Mo43 Se77 2.597797 1_555
Mo43 Se37 2.678058 1_555
Mo43 Se49 2.766138 1_555
Mo44 Se67 2.534954 1_555
Mo44 Se36 2.591614 1_555
Mo44 Se76 2.600790 1_555
Mo44 Se25 2.681311 1_555
Mo44 Se61 2.774096 1_556
Mo45 Se26 2.521574 1_555
Mo45 Se78 2.595905 1_555
Mo45 Se69 2.601283 1_555
Mo45 Se38 2.678843 1_555
Mo45 Se52 2.766595 1_555
Mo46 Se70 2.534094 1_555
Mo46 Se37 2.591903 1_555
Mo46 Se77 2.601421 1_555
Mo46 Se28 2.679560 1_555
Mo46 Se63 2.773996 1_556
Mo47 Se29 2.542480 1_555
Mo47 Se46 2.580660 1_565
Mo47 Se79 2.615288 1_555
Mo47 Se39 2.678737 1_555
Mo47 Se55 2.753774 1_555
Mo48 Se72 2.533990 1_555
Mo48 Se38 2.592305 1_555
Mo48 Se78 2.603611 1_555
Mo48 Se31 2.679101 1_555
Mo48 Se66 2.778580 1_556
Mo49 Se50 2.546021 1_545
Mo49 Se46 2.597779 1_555
Mo49 Se40 2.603187 1_555
Mo49 Se79 2.664194 1_545
Mo49 Se0 2.763728 1_655
Mo50 Se50 2.547250 1_555
Mo50 Se39 2.605941 1_555
Mo50 Se33 2.619135 1_555
Mo50 Se79 2.634132 1_555
Mo50 Se69 2.779825 1_556
Mo51 Se53 2.527353 1_555
Mo51 Se48 2.583820 1_555
Mo51 Se41 2.591785 1_555
Mo51 Se65 2.628757 1_555
Mo51 Se1 2.739163 1_655
Mo52 Se56 2.546139 1_555
Mo52 Se51 2.597903 1_555
Mo52 Se42 2.603190 1_555
Mo52 Se68 2.661812 1_555
Mo52 Se2 2.765222 1_655
Mo53 Se58 2.532074 1_555
Mo53 Se54 2.587857 1_555
Mo53 Se43 2.614412 1_555
Mo53 Se71 2.627463 1_555
Mo53 Se3 2.771825 1_655
Mo54 Se60 2.527358 1_555
Mo54 Se57 2.588068 1_555
Mo54 Se44 2.595950 1_555
Mo54 Se73 2.670597 1_555
Mo54 Se4 2.766849 1_655
Mo55 Se62 2.526907 1_555
Mo55 Se59 2.589233 1_555
Mo55 Se45 2.595001 1_555
Mo55 Se74 2.672042 1_555
Mo55 Se5 2.766827 1_655
Mo56 Se64 2.527374 1_555
Mo56 Se61 2.589115 1_555
Mo56 Se47 2.594759 1_555
Mo56 Se75 2.672515 1_555
Mo56 Se6 2.766346 1_655
Mo57 Se67 2.527478 1_555
Mo57 Se63 2.588973 1_555
Mo57 Se49 2.594620 1_555
Mo57 Se76 2.672818 1_555
Mo57 Se8 2.766483 1_655
Mo58 Se70 2.526020 1_555
Mo58 Se66 2.589088 1_555
Mo58 Se52 2.595721 1_555
Mo58 Se77 2.673140 1_555
Mo58 Se11 2.764461 1_655
Mo59 Se72 2.522398 1_555
Mo59 Se55 2.569334 1_555
Mo59 Se69 2.584132 1_555
Mo59 Se78 2.682256 1_555
Mo59 Se14 2.740459 1_655
