# generated using pymatgen
data_K2Mn2Be3F12
_symmetry_space_group_name_H-M   'P 1'
_cell_length_a   10.26593800
_cell_length_b   10.23496700
_cell_length_c   20.42782530
_cell_angle_alpha   89.95157808
_cell_angle_beta   90.00000000
_cell_angle_gamma   90.00000000
_symmetry_Int_Tables_number   1
_chemical_formula_structural   K2Mn2Be3F12
_chemical_formula_sum   'K16 Mn16 Be24 F96'
_cell_volume   2146.38222775
_cell_formula_units_Z   8
loop_
 _symmetry_equiv_pos_site_id
 _symmetry_equiv_pos_as_xyz
  1  'x, y, z'
loop_
 _atom_site_type_symbol
 _atom_site_label
 _atom_site_symmetry_multiplicity
 _atom_site_fract_x
 _atom_site_fract_y
 _atom_site_fract_z
 _atom_site_occupancy
  K  K0  1  0.56388000  0.19797800  0.96911200  1
  K  K1  1  0.30259300  0.03951500  0.65637500  1
  K  K2  1  0.78527600  0.93495400  0.85137700  1
  K  K3  1  0.93521000  0.31475800  0.71697100  1
  K  K4  1  0.28527600  0.06504600  0.14862300  1
  K  K5  1  0.69989700  0.53983000  0.09944300  1
  K  K6  1  0.68713100  0.54532700  0.60372500  1
  K  K7  1  0.06388000  0.80202200  0.03088800  1
  K  K8  1  0.55385100  0.17140500  0.47671200  1
  K  K9  1  0.43521000  0.68524200  0.28302900  1
  K  K10  1  0.92776700  0.32254400  0.22058800  1
  K  K11  1  0.42776700  0.67745600  0.77941200  1
  K  K12  1  0.19989700  0.46017000  0.90055700  1
  K  K13  1  0.05385100  0.82859500  0.52328800  1
  K  K14  1  0.80259300  0.96048500  0.34362500  1
  K  K15  1  0.18713100  0.45467300  0.39627500  1
  Mn  Mn0  1  0.15601900  0.09950600  0.33326600  1
  Mn  Mn1  1  0.84896100  0.58599000  0.92376600  1
  Mn  Mn2  1  0.08394200  0.68393200  0.70067500  1
  Mn  Mn3  1  0.42546400  0.84481700  0.95016800  1
  Mn  Mn4  1  0.89622000  0.19165600  0.54096300  1
  Mn  Mn5  1  0.57551400  0.32546800  0.78881300  1
  Mn  Mn6  1  0.63318100  0.89988600  0.16802900  1
  Mn  Mn7  1  0.58394200  0.31606800  0.29932500  1
  Mn  Mn8  1  0.92546400  0.15518300  0.04983200  1
  Mn  Mn9  1  0.34896100  0.41401000  0.07623400  1
  Mn  Mn10  1  0.33829400  0.38857600  0.58472600  1
  Mn  Mn11  1  0.65601900  0.90049400  0.66673400  1
  Mn  Mn12  1  0.83829400  0.61142400  0.41527400  1
  Mn  Mn13  1  0.39622000  0.80834400  0.45903700  1
  Mn  Mn14  1  0.07551400  0.67453200  0.21118700  1
  Mn  Mn15  1  0.13318100  0.10011400  0.83197100  1
  Be  Be0  1  0.24709100  0.38103900  0.73903500  1
  Be  Be1  1  0.62268100  0.21584700  0.13339700  1
  Be  Be2  1  0.45530700  0.01242300  0.80586500  1
  Be  Be3  1  0.73190900  0.86974300  0.01471700  1
  Be  Be4  1  0.95530700  0.98757700  0.19413500  1
  Be  Be5  1  0.95906200  0.99282500  0.68643300  1
  Be  Be6  1  0.86264500  0.27012000  0.88868200  1
  Be  Be7  1  0.12209200  0.78586400  0.36149400  1
  Be  Be8  1  0.03440900  0.48199800  0.06545900  1
  Be  Be9  1  0.53440900  0.51800200  0.93454100  1
  Be  Be10  1  0.62209200  0.21413600  0.63850600  1
  Be  Be11  1  0.87258900  0.28924400  0.38303300  1
  Be  Be12  1  0.54166600  0.50356400  0.44772400  1
  Be  Be13  1  0.23190900  0.13025700  0.98528300  1
  Be  Be14  1  0.04166600  0.49643600  0.55227600  1
  Be  Be15  1  0.36264500  0.72988000  0.11131800  1
  Be  Be16  1  0.76346100  0.61630700  0.75794400  1
  Be  Be17  1  0.12268100  0.78415300  0.86660300  1
  Be  Be18  1  0.72817700  0.88314800  0.50959400  1
  Be  Be19  1  0.26346100  0.38369300  0.24205600  1
  Be  Be20  1  0.22817700  0.11685200  0.49040600  1
  Be  Be21  1  0.37258900  0.71075600  0.61696700  1
  Be  Be22  1  0.74709100  0.61896100  0.26096500  1
  Be  Be23  1  0.45906200  0.00717500  0.31356700  1
  F  F0  1  0.30510800  0.01586400  0.79405700  1
  F  F1  1  0.18116900  0.51869700  0.74706500  1
  F  F2  1  0.50130300  0.14799000  0.83180800  1
  F  F3  1  0.67598900  0.49158900  0.96081400  1
  F  F4  1  0.72301500  0.27248800  0.58923600  1
  F  F5  1  0.59122600  0.07064900  0.61740800  1
  F  F6  1  0.56067300  0.40154300  0.39204700  1
  F  F7  1  0.68753800  0.80005400  0.07871200  1
  F  F8  1  0.93318400  0.40618900  0.88990700  1
  F  F9  1  0.58149700  0.88759900  0.48839700  1
  F  F10  1  0.80001400  0.77306800  0.96562800  1
  F  F11  1  0.89740100  0.59703700  0.72259400  1
  F  F12  1  0.46225800  0.62246800  0.42168600  1
  F  F13  1  0.11999500  0.76822300  0.79169200  1
  F  F14  1  0.49594200  0.90234700  0.85494400  1
  F  F15  1  0.61999500  0.23177700  0.20830800  1
  F  F16  1  0.67327000  0.22410600  0.71054000  1
  F  F17  1  0.28521400  0.97418200  0.49414300  1
  F  F18  1  0.43242700  0.44884000  0.98056600  1
  F  F19  1  0.80510800  0.98413600  0.20594300  1
  F  F20  1  0.51375100  0.66681300  0.93084900  1
  F  F21  1  0.78521400  0.02581800  0.50585700  1
  F  F22  1  0.49518900  0.79684800  0.62680900  1
  F  F23  1  0.31772300  0.72905000  0.54678600  1
  F  F24  1  0.49508200  0.29503900  0.63315400  1
  F  F25  1  0.11360400  0.06489800  0.02094500  1
  F  F26  1  0.89381400  0.60494400  0.24503400  1
  F  F27  1  0.39381400  0.39505600  0.75496600  1
  F  F28  1  0.07201900  0.92488000  0.88342800  1
  F  F29  1  0.09122600  0.92935100  0.38259200  1
  F  F30  1  0.67890900  0.72234600  0.72222300  1
  F  F31  1  0.68116900  0.48130300  0.25293500  1
  F  F32  1  0.68701900  0.48508100  0.74809000  1
  F  F33  1  0.51082800  0.45942400  0.86529600  1
  F  F34  1  0.06067300  0.59845700  0.60795300  1
  F  F35  1  0.82612000  0.95860200  0.72064600  1
  F  F36  1  0.72415800  0.67423600  0.33139300  1
  F  F37  1  0.52027900  0.13313700  0.34383700  1
  F  F38  1  0.17741300  0.28994200  0.79013800  1
  F  F39  1  0.76363200  0.24144400  0.10603700  1
  F  F40  1  0.18701900  0.51491900  0.25191000  1
  F  F41  1  0.27269200  0.75711200  0.67052200  1
  F  F42  1  0.01082800  0.54057600  0.13470400  1
  F  F43  1  0.27926900  0.34365500  0.16872800  1
  F  F44  1  0.32612000  0.04139800  0.27935400  1
  F  F45  1  0.25066500  0.17553600  0.42033600  1
  F  F46  1  0.93365000  0.09815800  0.63223900  1
  F  F47  1  0.17890900  0.27765400  0.27777700  1
  F  F48  1  0.31112500  0.19650600  0.54154300  1
  F  F49  1  0.05688700  0.05616600  0.73558100  1
  F  F50  1  0.96225800  0.37753200  0.57831400  1
  F  F51  1  0.39740100  0.40296300  0.27740600  1
  F  F52  1  0.00130300  0.85201000  0.16819200  1
  F  F53  1  0.17758300  0.44835000  0.52680000  1
  F  F54  1  0.33912400  0.02817600  0.96620700  1
  F  F55  1  0.77926900  0.65634500  0.83127200  1
  F  F56  1  0.03441500  0.67891100  0.90186800  1
  F  F57  1  0.75066500  0.82446400  0.57966400  1
  F  F58  1  0.22301500  0.72751200  0.41076400  1
  F  F59  1  0.02027900  0.86686300  0.65616300  1
  F  F60  1  0.93880600  0.16959800  0.84540800  1
  F  F61  1  0.61360400  0.93510200  0.97905500  1
  F  F62  1  0.81112500  0.80349400  0.45845700  1
  F  F63  1  0.93242700  0.55116000  0.01943400  1
  F  F64  1  0.83912400  0.97182400  0.03379300  1
  F  F65  1  0.01375100  0.33318700  0.06915100  1
  F  F66  1  0.17598900  0.50841100  0.03918600  1
  F  F67  1  0.22658500  0.71711100  0.14384200  1
  F  F68  1  0.01993400  0.02662200  0.26062400  1
  F  F69  1  0.26363200  0.75855600  0.89396300  1
  F  F70  1  0.99594200  0.09765300  0.14505600  1
  F  F71  1  0.67758300  0.55165000  0.47320000  1
  F  F72  1  0.43318400  0.59381100  0.11009300  1
  F  F73  1  0.99508200  0.70496100  0.36684600  1
  F  F74  1  0.99518900  0.20315200  0.37319100  1
  F  F75  1  0.53441500  0.32108900  0.09813200  1
  F  F76  1  0.22415800  0.32576400  0.66860700  1
  F  F77  1  0.55688700  0.94383400  0.26441900  1
  F  F78  1  0.57201900  0.07512000  0.11657200  1
  F  F79  1  0.84119500  0.21202000  0.95891400  1
  F  F80  1  0.43880600  0.83040200  0.15459200  1
  F  F81  1  0.51993400  0.97337800  0.73937600  1
  F  F82  1  0.72658500  0.28288900  0.85615800  1
  F  F83  1  0.77269200  0.24288800  0.32947800  1
  F  F84  1  0.47030800  0.43136700  0.50516000  1
  F  F85  1  0.17327000  0.77589400  0.28946000  1
  F  F86  1  0.67741300  0.71005800  0.20986200  1
  F  F87  1  0.90961200  0.43546300  0.37085800  1
  F  F88  1  0.30001400  0.22693200  0.03437200  1
  F  F89  1  0.97030800  0.56863300  0.49484000  1
  F  F90  1  0.08149700  0.11240100  0.51160300  1
  F  F91  1  0.18753800  0.19994600  0.92128800  1
  F  F92  1  0.43365000  0.90184200  0.36776100  1
  F  F93  1  0.40961200  0.56453700  0.62914200  1
  F  F94  1  0.34119500  0.78798000  0.04108600  1
  F  F95  1  0.81772300  0.27095000  0.45321400  1
loop_
_geom_bond_atom_site_label_1
_geom_bond_atom_site_label_2
_geom_bond_distance
_geom_bond_site_symmetry_2
Be0 F27 1.547694 1_555
Be0 F76 1.564191 1_555
Be0 F38 1.571344 1_555
Be0 F1 1.571738 1_555
Be1 F15 1.539314 1_555
Be1 F78 1.569723 1_555
Be1 F39 1.573072 1_555
Be1 F75 1.580814 1_555
Be2 F2 1.558938 1_555
Be2 F0 1.561079 1_555
Be2 F81 1.563831 1_545
Be2 F14 1.564146 1_545
Be3 F7 1.556804 1_555
Be3 F61 1.566018 1_554
Be3 F64 1.567034 1_555
Be3 F10 1.573250 1_554
Be4 F52 1.558938 1_655
Be4 F19 1.561079 1_555
Be4 F68 1.563831 1_665
Be4 F70 1.564146 1_565
Be5 F49 1.561385 1_665
Be5 F59 1.562285 1_655
Be5 F46 1.566490 1_565
Be5 F35 1.572686 1_555
Be6 F82 1.552211 1_555
Be6 F60 1.566143 1_555
Be6 F79 1.568115 1_555
Be6 F8 1.569899 1_555
Be7 F73 1.548401 1_455
Be7 F58 1.562725 1_555
Be7 F29 1.563319 1_555
Be7 F85 1.565889 1_555
Be8 F65 1.539555 1_555
Be8 F42 1.555754 1_555
Be8 F66 1.572706 1_555
Be8 F63 1.574802 1_455
Be9 F20 1.539555 1_555
Be9 F33 1.555754 1_555
Be9 F3 1.572706 1_555
Be9 F18 1.574802 1_555
Be10 F24 1.548401 1_555
Be10 F4 1.562725 1_555
Be10 F5 1.563319 1_555
Be10 F16 1.565889 1_555
Be11 F74 1.549590 1_555
Be11 F95 1.551514 1_555
Be11 F87 1.563757 1_555
Be11 F83 1.573077 1_555
Be12 F6 1.556915 1_555
Be12 F12 1.558014 1_555
Be12 F84 1.567741 1_555
Be12 F71 1.568564 1_555
Be13 F91 1.556804 1_555
Be13 F25 1.566018 1_556
Be13 F54 1.567034 1_555
Be13 F88 1.573250 1_556
Be14 F34 1.556915 1_555
Be14 F50 1.558014 1_455
Be14 F89 1.567741 1_455
Be14 F53 1.568564 1_555
Be15 F67 1.552211 1_555
Be15 F80 1.566143 1_555
Be15 F94 1.568115 1_555
Be15 F72 1.569899 1_555
Be16 F55 1.561761 1_555
Be16 F11 1.565657 1_555
Be16 F32 1.568665 1_555
Be16 F30 1.569219 1_555
Be17 F13 1.539314 1_555
Be17 F28 1.569723 1_555
Be17 F69 1.573072 1_555
Be17 F56 1.580814 1_555
Be18 F9 1.567481 1_555
Be18 F57 1.568898 1_555
Be18 F21 1.575038 1_565
Be18 F62 1.575572 1_555
Be19 F43 1.561761 1_555
Be19 F51 1.565657 1_555
Be19 F40 1.568665 1_555
Be19 F47 1.569219 1_555
Be20 F90 1.567481 1_555
Be20 F45 1.568898 1_555
Be20 F17 1.575038 1_545
Be20 F48 1.575572 1_555
Be21 F22 1.549590 1_555
Be21 F23 1.551514 1_555
Be21 F93 1.563757 1_555
Be21 F41 1.573077 1_555
Be22 F26 1.547694 1_555
Be22 F36 1.564191 1_555
Be22 F86 1.571344 1_555
Be22 F31 1.571738 1_555
Be23 F77 1.561385 1_545
Be23 F37 1.562285 1_555
Be23 F92 1.566490 1_545
Be23 F44 1.572686 1_555
F0 Mn15 2.111807 1_555
F0 K1 2.822856 1_555
F1 Mn2 2.179829 1_555
F1 K11 3.080181 1_555
F1 K12 3.197503 1_555
F2 Mn5 2.156089 1_555
F2 K0 2.922996 1_555
F3 Mn1 2.158294 1_555
F3 K5 2.885478 1_556
F3 K0 3.222277 1_555
F4 Mn4 2.195433 1_555
F4 K6 2.832446 1_555
F4 K8 3.061684 1_555
F5 Mn11 2.118421 1_545
F5 K8 3.076716 1_555
F5 K1 3.084581 1_555
F6 Mn7 2.100677 1_555
F6 K8 2.921888 1_555
F7 Mn6 2.165078 1_555
F7 K5 2.699472 1_555
F8 Mn1 2.148181 1_555
F8 K12 2.801741 1_655
F9 Mn13 2.153207 1_555
F9 K8 2.928122 1_565
F10 Mn1 2.157026 1_555
F10 K2 2.865092 1_555
F10 K7 3.033722 1_656
F11 Mn2 2.158259 1_655
F11 K3 2.917431 1_555
F12 Mn13 2.159510 1_555
F12 K9 2.917131 1_555
F13 Mn2 2.083482 1_555
F14 Mn3 2.156880 1_555
F14 K11 2.859127 1_555
F14 K2 2.989856 1_555
F15 Mn7 2.083482 1_555
F16 Mn5 2.154724 1_555
F16 K3 2.847693 1_555
F17 Mn13 2.167020 1_555
F17 K13 2.866125 1_555
F18 Mn9 2.163181 1_556
F18 K12 2.895316 1_555
F18 K0 2.910201 1_555
F19 Mn6 2.111807 1_555
F19 K14 2.822856 1_555
F20 Mn3 2.073070 1_555
F21 Mn4 2.167020 1_555
F21 K8 2.866125 1_555
F22 Mn11 2.125557 1_555
F23 Mn13 2.125725 1_555
F23 K13 2.933552 1_555
F24 Mn10 2.117622 1_555
F25 Mn8 2.221141 1_455
F25 K7 2.745877 1_545
F25 K4 3.147792 1_555
F26 Mn14 2.112800 1_655
F26 K10 2.954228 1_555
F27 Mn5 2.112800 1_555
F27 K11 2.954228 1_555
F28 Mn15 2.170869 1_565
F28 K2 3.017363 1_455
F28 K7 3.264296 1_556
F29 Mn0 2.118421 1_565
F29 K13 3.076716 1_555
F29 K14 3.084581 1_455
F30 Mn11 2.158971 1_555
F30 K11 2.867428 1_555
F30 K6 3.026000 1_555
F31 Mn7 2.179829 1_555
F31 K10 3.080181 1_555
F31 K5 3.197503 1_555
F32 Mn5 2.160749 1_555
F32 K6 3.012327 1_555
F32 K3 3.152263 1_555
F33 Mn5 2.182973 1_555
F33 K11 2.962819 1_555
F33 K12 3.272272 1_555
F34 Mn2 2.100677 1_555
F34 K13 2.921888 1_555
F35 Mn11 2.148735 1_555
F35 K2 2.713879 1_555
F36 Mn12 2.172659 1_555
F36 K14 3.048846 1_555
F36 K9 3.128523 1_555
F37 Mn7 2.180949 1_555
F37 K8 2.764357 1_555
F38 Mn15 2.169896 1_555
F38 K12 2.860642 1_555
F38 K3 2.912081 1_455
F39 Mn8 2.204435 1_555
F39 K10 3.001205 1_555
F39 K5 3.126067 1_555
F40 Mn14 2.160749 1_555
F40 K15 3.012327 1_555
F40 K9 3.152263 1_555
F41 Mn2 2.166630 1_555
F41 K11 2.853758 1_555
F41 K1 2.920729 1_565
F42 Mn14 2.182973 1_555
F42 K10 2.962819 1_455
F42 K5 3.272272 1_455
F43 Mn9 2.144322 1_555
F43 K4 2.881982 1_555
F44 Mn0 2.148735 1_555
F44 K4 2.713879 1_555
F45 Mn0 2.171530 1_555
F45 K15 2.970999 1_555
F46 Mn4 2.130025 1_555
F46 K3 2.813777 1_555
F47 Mn0 2.158971 1_555
F47 K10 2.867428 1_455
F47 K15 3.026000 1_555
F48 Mn10 2.173333 1_555
F48 K8 2.833657 1_555
F48 K1 2.843541 1_555
F49 Mn15 2.166652 1_555
F49 K3 2.950943 1_455
F49 K1 3.001661 1_555
F50 Mn4 2.159510 1_555
F50 K3 2.917131 1_555
F51 Mn7 2.158259 1_555
F51 K9 2.917431 1_555
F52 Mn14 2.156089 1_555
F52 K7 2.922996 1_555
F53 Mn10 2.120204 1_555
F53 K15 2.668873 1_555
F54 Mn3 2.101411 1_545
F54 K0 2.889261 1_555
F55 Mn1 2.144322 1_555
F55 K2 2.881982 1_555
F56 Mn1 2.174522 1_455
F56 K12 2.810532 1_555
F56 K7 2.937887 1_556
F57 Mn11 2.171530 1_555
F57 K6 2.970999 1_555
F58 Mn13 2.195433 1_555
F58 K15 2.832446 1_555
F58 K13 3.061684 1_555
F59 Mn2 2.180949 1_555
F59 K13 2.764357 1_555
F60 Mn15 2.136169 1_655
F60 K2 2.875085 1_545
F60 K3 3.014273 1_555
F61 Mn3 2.221141 1_555
F61 K0 2.745877 1_565
F61 K2 3.147792 1_555
F62 Mn12 2.173333 1_555
F62 K13 2.833657 1_655
F62 K14 2.843541 1_555
F63 Mn1 2.163181 1_554
F63 K5 2.895316 1_555
F63 K7 2.910201 1_655
F64 Mn8 2.101411 1_565
F64 K7 2.889261 1_655
F65 Mn8 2.073070 1_455
F66 Mn9 2.158294 1_555
F66 K12 2.885478 1_554
F66 K7 3.222277 1_555
F67 Mn14 2.118191 1_555
F67 K7 2.977576 1_555
F68 Mn0 2.170730 1_555
F68 K14 2.882600 1_445
F69 Mn3 2.204435 1_555
F69 K11 3.001205 1_555
F69 K12 3.126067 1_555
F70 Mn8 2.156880 1_555
F70 K10 2.859127 1_555
F70 K4 2.989856 1_655
F71 Mn12 2.120204 1_555
F71 K6 2.668873 1_555
F72 Mn9 2.148181 1_555
F72 K5 2.801741 1_555
F73 Mn12 2.117622 1_555
F74 Mn0 2.125557 1_655
F75 Mn9 2.174522 1_555
F75 K5 2.810532 1_555
F75 K0 2.937887 1_554
F76 Mn10 2.172659 1_555
F76 K1 3.048846 1_555
F76 K3 3.128523 1_455
F77 Mn6 2.166652 1_555
F77 K9 2.950943 1_555
F77 K14 3.001661 1_555
F78 Mn6 2.170869 1_545
F78 K4 3.017363 1_555
F78 K0 3.264296 1_554
F79 Mn8 2.129408 1_556
F79 K0 2.858117 1_555
F80 Mn6 2.136169 1_555
F80 K4 2.875085 1_565
F80 K9 3.014273 1_555
F81 Mn11 2.170730 1_555
F81 K1 2.882600 1_565
F82 Mn5 2.118191 1_555
F82 K0 2.977576 1_555
F83 Mn7 2.166630 1_555
F83 K10 2.853758 1_555
F83 K14 2.920729 1_545
F84 Mn10 2.160810 1_555
F84 K8 2.855735 1_555
F85 Mn14 2.154724 1_555
F85 K9 2.847693 1_555
F86 Mn6 2.169896 1_555
F86 K5 2.860642 1_555
F86 K9 2.912081 1_555
F87 Mn12 2.146037 1_555
F87 K15 2.902615 1_655
F88 Mn9 2.157026 1_555
F88 K4 2.865092 1_555
F88 K0 3.033722 1_554
F89 Mn12 2.160810 1_555
F89 K13 2.855735 1_655
F90 Mn4 2.153207 1_455
F90 K13 2.928122 1_545
F91 Mn15 2.165078 1_555
F91 K12 2.699472 1_555
F92 Mn13 2.130025 1_555
F92 K9 2.813777 1_555
F93 Mn10 2.146037 1_555
F93 K6 2.902615 1_555
F94 Mn3 2.129408 1_554
F94 K7 2.858117 1_555
F95 Mn4 2.125725 1_555
F95 K8 2.933552 1_555
