# generated using pymatgen
data_La4B2CI5
_symmetry_space_group_name_H-M   'P 1'
_cell_length_a   12.10867000
_cell_length_b   12.10867000
_cell_length_c   19.18562215
_cell_angle_alpha   54.75966717
_cell_angle_beta   54.75966717
_cell_angle_gamma   20.50441743
_symmetry_Int_Tables_number   1
_chemical_formula_structural   La4B2CI5
_chemical_formula_sum   'La8 B4 C2 I10'
_cell_volume   798.16389946
_cell_formula_units_Z   2
loop_
 _symmetry_equiv_pos_site_id
 _symmetry_equiv_pos_as_xyz
  1  'x, y, z'
loop_
 _atom_site_type_symbol
 _atom_site_label
 _atom_site_symmetry_multiplicity
 _atom_site_fract_x
 _atom_site_fract_y
 _atom_site_fract_z
 _atom_site_occupancy
  La  La0  1  0.51231100  0.51231100  0.12273100  1
  La  La1  1  0.12877500  0.12877500  0.89650200  1
  La  La2  1  0.84461900  0.84461900  0.60321800  1
  La  La3  1  0.87122500  0.87122500  0.10349800  1
  La  La4  1  0.48768900  0.48768900  0.87726900  1
  La  La5  1  0.15538100  0.15538100  0.39678200  1
  La  La6  1  0.49532500  0.49532500  0.59148300  1
  La  La7  1  0.50467500  0.50467500  0.40851700  1
  B  B0  1  0.00358500  0.00358500  0.04710500  1
  B  B1  1  0.31526300  0.68473700  0.00000000  1
  B  B2  1  0.68473700  0.31526300  0.00000000  1
  B  B3  1  0.99641500  0.99641500  0.95289500  1
  C  C0  1  0.03554300  0.03554300  0.47605000  1
  C  C1  1  0.96445700  0.96445700  0.52395000  1
  I  I0  1  0.01784100  0.01784100  0.25971500  1
  I  I1  1  0.66119500  0.66119500  0.74409000  1
  I  I2  1  0.33752800  0.33752800  0.48320400  1
  I  I3  1  0.98215900  0.98215900  0.74028500  1
  I  I4  1  0.66247200  0.66247200  0.51679600  1
  I  I5  1  0.67677300  0.67677300  0.25322500  1
  I  I6  1  0.68128800  0.68128800  0.97644400  1
  I  I7  1  0.32322700  0.32322700  0.74677500  1
  I  I8  1  0.33880500  0.33880500  0.25591000  1
  I  I9  1  0.31871200  0.31871200  0.02355600  1
loop_
_geom_bond_atom_site_label_1
_geom_bond_atom_site_label_2
_geom_bond_distance
_geom_bond_site_symmetry_2
B0 B2 1.661651 1_455
B0 B1 1.661651 1_545
B0 B3 1.912683 1_444
B0 La3 2.667878 1_445
B0 La1 2.672069 1_554
B0 La0 2.673353 1_545
B0 La0 2.673353 1_455
B1 B2 1.592521 1_555
B1 B3 1.661651 1_454
B1 La4 2.659834 1_554
B1 La0 2.659834 1_555
B1 La3 2.839132 1_455
B1 La1 2.839132 1_564
B2 B3 1.661651 1_544
B2 La4 2.659834 1_554
B2 La0 2.659834 1_555
B2 La3 2.839132 1_545
B2 La1 2.839132 1_654
B3 La1 2.667878 1_665
B3 La3 2.672069 1_556
B3 La4 2.673353 1_565
B3 La4 2.673353 1_655
C0 C1 1.374249 1_445
C0 La5 2.318444 1_555
C0 La6 2.824638 1_455
C0 La6 2.824638 1_545
C0 La7 2.825266 1_455
C0 La7 2.825266 1_545
C1 La2 2.318444 1_555
C1 La7 2.824638 1_565
C1 La7 2.824638 1_655
C1 La6 2.825266 1_565
C1 La6 2.825266 1_655
I0 La7 3.441329 1_455
I0 La7 3.441329 1_545
I0 La0 3.460507 1_545
I0 La0 3.460507 1_455
I1 La1 3.338041 1_655
I1 La1 3.338041 1_565
I1 La4 3.351888 1_555
I1 La2 3.543549 1_555
I2 La2 3.229722 1_455
I2 La2 3.229722 1_545
I2 La7 3.350490 1_555
I3 La6 3.441329 1_565
I3 La6 3.441329 1_655
I3 La4 3.460507 1_565
I3 La4 3.460507 1_655
I4 La5 3.229722 1_565
I4 La5 3.229722 1_655
I4 La6 3.350490 1_555
I5 La5 3.292962 1_655
I5 La5 3.292962 1_565
I5 La7 3.371478 1_555
I5 La3 3.756897 1_555
I6 La1 3.288440 1_565
I6 La1 3.288440 1_655
I6 La0 3.292181 1_556
I7 La2 3.292962 1_545
I7 La2 3.292962 1_455
I7 La6 3.371478 1_555
I7 La1 3.756897 1_555
I8 La3 3.338041 1_545
I8 La3 3.338041 1_455
I8 La0 3.351888 1_555
I8 La5 3.543549 1_555
I9 La3 3.288440 1_455
I9 La3 3.288440 1_545
I9 La4 3.292181 1_554
