# generated using pymatgen
data_Ce4(GeS4)3
_symmetry_space_group_name_H-M   'P 1'
_cell_length_a   11.55436653
_cell_length_b   11.55436653
_cell_length_c   11.55436579
_cell_angle_alpha   114.78062183
_cell_angle_beta   114.78062183
_cell_angle_gamma   114.78062322
_symmetry_Int_Tables_number   1
_chemical_formula_structural   Ce4(GeS4)3
_chemical_formula_sum   'Ce8 Ge6 S24'
_cell_volume   880.30566806
_cell_formula_units_Z   2
loop_
 _symmetry_equiv_pos_site_id
 _symmetry_equiv_pos_as_xyz
  1  'x, y, z'
loop_
 _atom_site_type_symbol
 _atom_site_label
 _atom_site_symmetry_multiplicity
 _atom_site_fract_x
 _atom_site_fract_y
 _atom_site_fract_z
 _atom_site_occupancy
  Ce  Ce0  1  0.93188500  0.47213400  0.70770600  1
  Ce  Ce1  1  0.70770600  0.93188500  0.47213400  1
  Ce  Ce2  1  0.20770600  0.97213400  0.43188500  1
  Ce  Ce3  1  0.47213400  0.70770600  0.93188500  1
  Ce  Ce4  1  0.97213400  0.43188500  0.20770600  1
  Ce  Ce5  1  0.99978800  0.99978800  0.99978800  1
  Ce  Ce6  1  0.43188500  0.20770600  0.97213400  1
  Ce  Ce7  1  0.49978800  0.49978800  0.49978800  1
  Ge  Ge0  1  0.46700300  0.85430100  0.64158000  1
  Ge  Ge1  1  0.14158000  0.35430100  0.96700300  1
  Ge  Ge2  1  0.96700300  0.14158000  0.35430100  1
  Ge  Ge3  1  0.85430100  0.64158000  0.46700300  1
  Ge  Ge4  1  0.64158000  0.46700300  0.85430100  1
  Ge  Ge5  1  0.35430100  0.96700300  0.14158000  1
  S  S0  1  0.68892600  0.87336900  0.68852000  1
  S  S1  1  0.37336900  0.18892600  0.18852000  1
  S  S2  1  0.29548400  0.60945300  0.58325200  1
  S  S3  1  0.58325200  0.29548400  0.60945300  1
  S  S4  1  0.78161700  0.38352400  0.31318900  1
  S  S5  1  0.68852000  0.68892600  0.87336900  1
  S  S6  1  0.60945300  0.58325200  0.29548400  1
  S  S7  1  0.81318900  0.88352400  0.28161700  1
  S  S8  1  0.12958800  0.85207800  0.58275600  1
  S  S9  1  0.35207800  0.62958800  0.08275600  1
  S  S10  1  0.58275600  0.12958800  0.85207800  1
  S  S11  1  0.08325200  0.10945300  0.79548400  1
  S  S12  1  0.10945300  0.79548400  0.08325200  1
  S  S13  1  0.18892600  0.18852000  0.37336900  1
  S  S14  1  0.18852000  0.37336900  0.18892600  1
  S  S15  1  0.62958800  0.08275600  0.35207800  1
  S  S16  1  0.38352400  0.31318900  0.78161700  1
  S  S17  1  0.08275600  0.35207800  0.62958800  1
  S  S18  1  0.28161700  0.81318900  0.88352400  1
  S  S19  1  0.88352400  0.28161700  0.81318900  1
  S  S20  1  0.31318900  0.78161700  0.38352400  1
  S  S21  1  0.85207800  0.58275600  0.12958800  1
  S  S22  1  0.87336900  0.68852000  0.68892600  1
  S  S23  1  0.79548400  0.08325200  0.10945300  1
loop_
_geom_bond_atom_site_label_1
_geom_bond_atom_site_label_2
_geom_bond_distance
_geom_bond_site_symmetry_2
Ce0 S17 2.841523 1_655
Ce0 S19 2.903835 1_555
Ce0 S22 2.916180 1_555
Ce0 S15 2.936604 1_555
Ce0 S3 3.002184 1_555
Ce0 S18 3.007263 1_655
Ce0 S12 3.085067 1_656
Ce0 S4 3.578351 1_555
Ce1 S15 2.841523 1_565
Ce1 S7 2.903835 1_555
Ce1 S0 2.916180 1_555
Ce1 S9 2.936604 1_555
Ce1 S6 3.002184 1_555
Ce1 S19 3.007263 1_565
Ce1 S11 3.085068 1_665
Ce1 S20 3.578351 1_555
Ce2 S8 2.841523 1_555
Ce2 S20 2.903835 1_555
Ce2 S13 2.916180 1_565
Ce2 S21 2.936604 1_455
Ce2 S12 3.002184 1_555
Ce2 S16 3.007263 1_565
Ce2 S3 3.085068 1_565
Ce2 S7 3.578351 1_455
Ce3 S9 2.841523 1_556
Ce3 S18 2.903835 1_555
Ce3 S5 2.916180 1_555
Ce3 S17 2.936604 1_555
Ce3 S2 3.002184 1_555
Ce3 S7 3.007263 1_556
Ce3 S23 3.085068 1_566
Ce3 S16 3.578351 1_555
Ce4 S21 2.841523 1_555
Ce4 S4 2.903835 1_555
Ce4 S14 2.916180 1_655
Ce4 S10 2.936604 1_554
Ce4 S23 3.002184 1_555
Ce4 S20 3.007263 1_655
Ce4 S2 3.085067 1_655
Ce4 S19 3.578351 1_554
Ce5 S0 2.887664 1_555
Ce5 S22 2.887664 1_555
Ce5 S5 2.887664 1_555
Ce5 S13 2.893083 1_666
Ce5 S14 2.893083 1_666
Ce5 S1 2.893083 1_666
Ce5 S11 3.391089 1_665
Ce5 S23 3.391089 1_566
Ce5 S12 3.391089 1_656
Ce6 S10 2.841523 1_555
Ce6 S16 2.903835 1_555
Ce6 S1 2.916180 1_556
Ce6 S8 2.936604 1_545
Ce6 S11 3.002184 1_555
Ce6 S4 3.007263 1_556
Ce6 S6 3.085068 1_556
Ce6 S18 3.578351 1_545
Ce7 S1 2.887664 1_555
Ce7 S14 2.887664 1_555
Ce7 S13 2.887664 1_555
Ce7 S5 2.893083 1_555
Ce7 S22 2.893083 1_555
Ce7 S0 2.893083 1_555
Ce7 S6 3.391089 1_555
Ce7 S3 3.391089 1_555
Ce7 S2 3.391089 1_555
Ge0 S20 2.227486 1_555
Ge0 S2 2.228764 1_555
Ge0 S10 2.245726 1_565
Ge0 S0 2.275553 1_555
Ge1 S19 2.227487 1_455
Ge1 S11 2.228764 1_555
Ge1 S9 2.245726 1_556
Ge1 S14 2.275553 1_556
Ge2 S7 2.227487 1_545
Ge2 S23 2.228764 1_555
Ge2 S17 2.245726 1_655
Ge2 S13 2.275553 1_655
Ge3 S4 2.227487 1_555
Ge3 S6 2.228764 1_555
Ge3 S8 2.245726 1_655
Ge3 S22 2.275553 1_555
Ge4 S16 2.227487 1_555
Ge4 S3 2.228764 1_555
Ge4 S21 2.245726 1_556
Ge4 S5 2.275553 1_555
Ge5 S18 2.227486 1_554
Ge5 S12 2.228764 1_555
Ge5 S15 2.245726 1_565
Ge5 S1 2.275553 1_565
