# generated using pymatgen
data_Sr8Nd2Fe5(MoO6)5
_symmetry_space_group_name_H-M   'P 1'
_cell_length_a   5.66071900
_cell_length_b   5.69713200
_cell_length_c   40.35394163
_cell_angle_alpha   82.02419611
_cell_angle_beta   90.00000000
_cell_angle_gamma   90.00000000
_symmetry_Int_Tables_number   1
_chemical_formula_structural   Sr8Nd2Fe5(MoO6)5
_chemical_formula_sum   'Sr16 Nd4 Fe10 Mo10 O60'
_cell_volume   1288.82025229
_cell_formula_units_Z   2
loop_
 _symmetry_equiv_pos_site_id
 _symmetry_equiv_pos_as_xyz
  1  'x, y, z'
loop_
 _atom_site_type_symbol
 _atom_site_label
 _atom_site_symmetry_multiplicity
 _atom_site_fract_x
 _atom_site_fract_y
 _atom_site_fract_z
 _atom_site_occupancy
  Sr  Sr0  1  0.48241400  0.76033300  0.74895500  1
  Sr  Sr1  1  0.48751900  0.56125900  0.95099700  1
  Sr  Sr2  1  0.48464200  0.35183900  0.14929600  1
  Sr  Sr3  1  0.49250500  0.95251700  0.54887800  1
  Sr  Sr4  1  0.00749500  0.95251700  0.04887800  1
  Sr  Sr5  1  0.01758600  0.76033300  0.24895500  1
  Sr  Sr6  1  0.01248100  0.56125900  0.45099700  1
  Sr  Sr7  1  0.01535800  0.35183900  0.64929600  1
  Sr  Sr8  1  0.99250500  0.04748300  0.95112200  1
  Sr  Sr9  1  0.98241400  0.23966700  0.75104500  1
  Sr  Sr10  1  0.98464200  0.64816100  0.35070400  1
  Sr  Sr11  1  0.98751900  0.43874100  0.54900300  1
  Sr  Sr12  1  0.51535800  0.64816100  0.85070400  1
  Sr  Sr13  1  0.50749500  0.04748300  0.45112200  1
  Sr  Sr14  1  0.51758600  0.23966700  0.25104500  1
  Sr  Sr15  1  0.51248100  0.43874100  0.04900300  1
  Nd  Nd0  1  0.47900400  0.16057200  0.35136300  1
  Nd  Nd1  1  0.02099600  0.16057200  0.85136300  1
  Nd  Nd2  1  0.97900400  0.83942800  0.14863700  1
  Nd  Nd3  1  0.52099600  0.83942800  0.64863700  1
  Fe  Fe0  1  0.50065700  0.39525700  0.59963400  1
  Fe  Fe1  1  0.99996600  0.79944700  0.70008900  1
  Fe  Fe2  1  0.00065700  0.60474300  0.90036600  1
  Fe  Fe3  1  0.00003400  0.20055300  0.29991100  1
  Fe  Fe4  1  0.99934300  0.39525700  0.09963400  1
  Fe  Fe5  1  0.00000000  0.00000000  0.50000000  1
  Fe  Fe6  1  0.49996600  0.20055300  0.79991100  1
  Fe  Fe7  1  0.49934300  0.60474300  0.40036600  1
  Fe  Fe8  1  0.50003400  0.79944700  0.20008900  1
  Fe  Fe9  1  0.50000000  0.00000000  0.00000000  1
  Mo  Mo0  1  0.49843000  0.29953100  0.69955500  1
  Mo  Mo1  1  0.50199100  0.10180500  0.89997300  1
  Mo  Mo2  1  0.49800900  0.89819500  0.10002700  1
  Mo  Mo3  1  0.50157000  0.70046900  0.30044500  1
  Mo  Mo4  1  0.50000000  0.50000000  0.50000000  1
  Mo  Mo5  1  0.99843000  0.70046900  0.80044500  1
  Mo  Mo6  1  0.00000000  0.50000000  0.00000000  1
  Mo  Mo7  1  0.00157000  0.29953100  0.19955500  1
  Mo  Mo8  1  0.00199100  0.89819500  0.60002700  1
  Mo  Mo9  1  0.99800900  0.10180500  0.39997300  1
  O  O0  1  0.50556900  0.31847400  0.74990700  1
  O  O1  1  0.50197600  0.12410800  0.94628000  1
  O  O2  1  0.51068800  0.90932800  0.14872600  1
  O  O3  1  0.50708600  0.74171700  0.34995200  1
  O  O4  1  0.50654400  0.50987100  0.55070600  1
  O  O5  1  0.23437500  0.86405400  0.90546700  1
  O  O6  1  0.24717900  0.45289000  0.30954300  1
  O  O7  1  0.22715600  0.65874600  0.10936000  1
  O  O8  1  0.23255000  0.06924600  0.70631500  1
  O  O9  1  0.25029000  0.26863100  0.50599600  1
  O  O10  1  0.23507300  0.97824200  0.79418300  1
  O  O11  1  0.24616500  0.36833900  0.39037000  1
  O  O12  1  0.23905200  0.76802100  0.99387300  1
  O  O13  1  0.22800300  0.59365500  0.19013700  1
  O  O14  1  0.23647300  0.16630500  0.59369400  1
  O  O15  1  0.27199700  0.59365500  0.69013700  1
  O  O16  1  0.25383500  0.36833900  0.89037000  1
  O  O17  1  0.26352700  0.16630500  0.09369400  1
  O  O18  1  0.26492700  0.97824200  0.29418300  1
  O  O19  1  0.26094800  0.76802100  0.49387300  1
  O  O20  1  0.24971000  0.26863100  0.00599600  1
  O  O21  1  0.25282100  0.45289000  0.80954300  1
  O  O22  1  0.26562500  0.86405400  0.40546700  1
  O  O23  1  0.26745000  0.06924600  0.20631500  1
  O  O24  1  0.27284400  0.65874600  0.60936000  1
  O  O25  1  0.98931200  0.90932800  0.64872600  1
  O  O26  1  0.99443100  0.31847400  0.24990700  1
  O  O27  1  0.99291400  0.74171700  0.84995200  1
  O  O28  1  0.99345600  0.50987100  0.05070600  1
  O  O29  1  0.99802400  0.12410800  0.44628000  1
  O  O30  1  0.00708600  0.25828300  0.15004800  1
  O  O31  1  0.00654400  0.49012900  0.94929400  1
  O  O32  1  0.01068800  0.09067200  0.35127400  1
  O  O33  1  0.00197600  0.87589200  0.55372000  1
  O  O34  1  0.00556900  0.68152600  0.75009300  1
  O  O35  1  0.73255000  0.93075400  0.79368500  1
  O  O36  1  0.72715600  0.34125400  0.39064000  1
  O  O37  1  0.74717900  0.54711000  0.19045700  1
  O  O38  1  0.75029000  0.73136900  0.99400400  1
  O  O39  1  0.73437500  0.13594600  0.59453300  1
  O  O40  1  0.73647300  0.83369500  0.90630600  1
  O  O41  1  0.72800300  0.40634500  0.30986300  1
  O  O42  1  0.74616500  0.63166100  0.10963000  1
  O  O43  1  0.73507300  0.02175800  0.70581700  1
  O  O44  1  0.73905200  0.23197900  0.50612700  1
  O  O45  1  0.77199700  0.40634500  0.80986300  1
  O  O46  1  0.76352700  0.83369500  0.40630600  1
  O  O47  1  0.76492700  0.02175800  0.20581700  1
  O  O48  1  0.76094800  0.23197900  0.00612700  1
  O  O49  1  0.75383500  0.63166100  0.60963000  1
  O  O50  1  0.77284400  0.34125400  0.89064000  1
  O  O51  1  0.75282100  0.54711000  0.69045700  1
  O  O52  1  0.76745000  0.93075400  0.29368500  1
  O  O53  1  0.76562500  0.13594600  0.09453300  1
  O  O54  1  0.74971000  0.73136900  0.49400400  1
  O  O55  1  0.49802400  0.87589200  0.05372000  1
  O  O56  1  0.48931200  0.09067200  0.85127400  1
  O  O57  1  0.49345600  0.49012900  0.44929400  1
  O  O58  1  0.49443100  0.68152600  0.25009300  1
  O  O59  1  0.49291400  0.25828300  0.65004800  1
loop_
_geom_bond_atom_site_label_1
_geom_bond_atom_site_label_2
_geom_bond_distance
_geom_bond_site_symmetry_2
Nd0 O3 2.400107 1_545
Nd0 O36 2.449034 1_555
Nd0 O41 2.470049 1_555
Nd0 O11 2.476512 1_555
Nd0 O6 2.561963 1_555
Nd0 O32 2.680826 1_555
Nd0 O22 2.838313 1_545
Nd0 O18 2.921810 1_545
Nd1 O27 2.400107 1_445
Nd1 O50 2.449034 1_455
Nd1 O45 2.470049 1_455
Nd1 O16 2.476512 1_555
Nd1 O21 2.561963 1_555
Nd1 O56 2.680826 1_555
Nd1 O5 2.838313 1_545
Nd1 O10 2.921810 1_545
Nd2 O30 2.400107 1_665
Nd2 O7 2.449034 1_655
Nd2 O13 2.470049 1_655
Nd2 O42 2.476512 1_555
Nd2 O37 2.561963 1_555
Nd2 O2 2.680826 1_555
Nd2 O53 2.838313 1_565
Nd2 O47 2.921810 1_565
Nd3 O59 2.400107 1_565
Nd3 O24 2.449034 1_555
Nd3 O15 2.470049 1_555
Nd3 O49 2.476512 1_555
Nd3 O51 2.561963 1_555
Nd3 O25 2.680826 1_555
Nd3 O39 2.838313 1_565
Nd3 O43 2.921810 1_565
Fe0 O4 1.992011 1_555
Fe0 O39 2.014851 1_555
Fe0 O14 2.020406 1_555
Fe0 O49 2.044845 1_555
Fe0 O24 2.057661 1_555
Fe0 O59 2.075841 1_555
Fe1 O43 1.996807 1_565
Fe1 O15 2.009426 1_655
Fe1 O34 2.036637 1_655
Fe1 O8 2.065508 1_665
Fe1 O51 2.080885 1_555
Fe1 O25 2.081233 1_555
Fe2 O31 1.992011 1_555
Fe2 O5 2.014851 1_555
Fe2 O40 2.020406 1_455
Fe2 O16 2.044845 1_555
Fe2 O50 2.057661 1_455
Fe2 O27 2.075841 1_455
Fe3 O18 1.996807 1_545
Fe3 O41 2.009426 1_455
Fe3 O26 2.036637 1_455
Fe3 O52 2.065508 1_445
Fe3 O6 2.080885 1_555
Fe3 O32 2.081233 1_555
Fe4 O28 1.992011 1_555
Fe4 O53 2.014851 1_555
Fe4 O17 2.020406 1_655
Fe4 O42 2.044845 1_555
Fe4 O7 2.057661 1_655
Fe4 O30 2.075841 1_655
Fe5 O44 2.020015 1_455
Fe5 O19 2.020015 1_545
Fe5 O9 2.123887 1_555
Fe5 O54 2.123887 1_445
Fe5 O33 2.184975 1_545
Fe5 O29 2.184975 1_455
Fe6 O10 1.996807 1_545
Fe6 O45 2.009426 1_555
Fe6 O0 2.036637 1_555
Fe6 O35 2.065508 1_545
Fe6 O21 2.080885 1_555
Fe6 O56 2.081233 1_555
Fe7 O57 1.992011 1_555
Fe7 O22 2.014851 1_555
Fe7 O46 2.020406 1_555
Fe7 O11 2.044845 1_555
Fe7 O36 2.057661 1_555
Fe7 O3 2.075841 1_555
Fe8 O47 1.996807 1_565
Fe8 O13 2.009426 1_555
Fe8 O58 2.036637 1_555
Fe8 O23 2.065508 1_565
Fe8 O37 2.080885 1_555
Fe8 O2 2.081233 1_555
Fe9 O48 2.020015 1_555
Fe9 O12 2.020015 1_544
Fe9 O20 2.123887 1_555
Fe9 O38 2.123887 1_544
Fe9 O1 2.184975 1_554
Fe9 O55 2.184975 1_545
Mo0 O8 1.990374 1_555
Mo0 O51 2.013522 1_555
Mo0 O59 2.043941 1_555
Mo0 O0 2.050063 1_555
Mo0 O43 2.061956 1_555
Mo0 O15 2.102023 1_555
Mo1 O1 1.890493 1_555
Mo1 O56 1.976300 1_555
Mo1 O40 2.012942 1_545
Mo1 O5 2.023710 1_545
Mo1 O50 2.052073 1_555
Mo1 O16 2.065418 1_555
Mo2 O55 1.890493 1_555
Mo2 O2 1.976300 1_555
Mo2 O17 2.012942 1_565
Mo2 O53 2.023710 1_565
Mo2 O7 2.052073 1_555
Mo2 O42 2.065418 1_555
Mo3 O52 1.990374 1_555
Mo3 O6 2.013522 1_555
Mo3 O3 2.043941 1_555
Mo3 O58 2.050063 1_555
Mo3 O18 2.061956 1_555
Mo3 O41 2.102023 1_555
Mo4 O9 1.924998 1_555
Mo4 O54 1.924998 1_555
Mo4 O19 2.029559 1_555
Mo4 O44 2.029559 1_555
Mo4 O57 2.055079 1_555
Mo4 O4 2.055079 1_555
Mo5 O35 1.990374 1_555
Mo5 O21 2.013522 1_655
Mo5 O27 2.043941 1_555
Mo5 O34 2.050063 1_655
Mo5 O10 2.061956 1_655
Mo5 O45 2.102023 1_555
Mo6 O20 1.924998 1_555
Mo6 O38 1.924998 1_454
Mo6 O12 2.029559 1_554
Mo6 O48 2.029559 1_455
Mo6 O28 2.055079 1_455
Mo6 O31 2.055079 1_554
Mo7 O23 1.990374 1_555
Mo7 O37 2.013522 1_455
Mo7 O30 2.043941 1_555
Mo7 O26 2.050063 1_455
Mo7 O47 2.061956 1_455
Mo7 O13 2.102023 1_555
Mo8 O33 1.890493 1_555
Mo8 O25 1.976300 1_455
Mo8 O14 2.012942 1_565
Mo8 O39 2.023710 1_465
Mo8 O24 2.052073 1_555
Mo8 O49 2.065418 1_455
Mo9 O29 1.890493 1_555
Mo9 O32 1.976300 1_655
Mo9 O46 2.012942 1_545
Mo9 O22 2.023710 1_645
Mo9 O36 2.052073 1_555
Mo9 O11 2.065418 1_655
O0 Sr0 2.515704 1_555
O0 Sr9 2.735710 1_555
O1 Sr1 2.525295 1_555
O1 Sr8 2.813432 1_555
O1 Sr8 2.919310 1_455
O1 Sr1 3.186846 1_545
O2 Sr2 2.528640 1_565
O2 Sr2 3.176402 1_555
O3 Sr10 2.754707 1_555
O3 Sr10 3.004461 1_455
O4 Sr3 2.513896 1_555
O4 Sr11 2.754917 1_555
O4 Sr11 2.967968 1_455
O4 Sr3 3.187383 1_545
O5 Sr8 2.625878 1_465
O5 Sr1 2.743252 1_555
O5 Sr12 3.111383 1_555
O6 Sr10 2.591911 1_455
O7 Sr2 2.645163 1_555
O7 Sr4 3.028303 1_555
O7 Sr15 3.310475 1_555
O8 Sr9 2.586902 1_455
O8 Sr0 2.686684 1_545
O8 Sr7 2.893077 1_555
O9 Sr11 2.574981 1_455
O9 Sr3 2.693135 1_545
O9 Sr6 2.913859 1_555
O9 Sr13 3.063483 1_555
O10 Sr9 2.564107 1_465
O10 Sr0 2.731566 1_555
O10 Sr12 3.172641 1_555
O11 Sr10 2.566527 1_455
O11 Sr6 3.112815 1_555
O11 Sr13 3.208806 1_555
O12 Sr8 2.587790 1_465
O12 Sr1 2.631550 1_555
O12 Sr4 2.897815 1_556
O12 Sr15 3.115456 1_556
O13 Sr2 2.711967 1_555
O13 Sr5 2.929099 1_555
O14 Sr11 2.621203 1_455
O14 Sr3 2.732393 1_545
O14 Sr7 2.894231 1_555
O15 Sr7 2.711967 1_555
O15 Sr0 2.929099 1_555
O16 Sr12 2.566527 1_555
O16 Sr1 3.112815 1_555
O16 Sr8 3.208806 1_455
O17 Sr15 2.621203 1_555
O17 Sr4 2.732393 1_545
O17 Sr2 2.894231 1_555
O18 Sr14 2.564107 1_565
O18 Sr5 2.731566 1_555
O18 Sr10 3.172641 1_455
O19 Sr13 2.587790 1_565
O19 Sr6 2.631550 1_555
O19 Sr3 2.897815 1_555
O19 Sr11 3.115456 1_455
O20 Sr15 2.574981 1_555
O20 Sr4 2.693135 1_545
O20 Sr1 2.913859 1_554
O20 Sr8 3.063483 1_454
O21 Sr12 2.591911 1_555
O22 Sr13 2.625878 1_565
O22 Sr6 2.743252 1_555
O22 Sr10 3.111383 1_455
O23 Sr14 2.586902 1_555
O23 Sr5 2.686684 1_545
O23 Sr2 2.893077 1_555
O24 Sr7 2.645163 1_555
O24 Sr3 3.028303 1_555
O24 Sr11 3.310475 1_455
O25 Sr7 2.528640 1_665
O25 Sr7 3.176402 1_655
O26 Sr5 2.515704 1_655
O26 Sr14 2.735710 1_555
O27 Sr12 2.754707 1_555
O27 Sr12 3.004461 1_655
O28 Sr4 2.513896 1_655
O28 Sr15 2.754917 1_555
O28 Sr15 2.967968 1_655
O28 Sr4 3.187383 1_645
O29 Sr6 2.525295 1_655
O29 Sr13 2.813432 1_555
O29 Sr13 2.919310 1_655
O29 Sr6 3.186846 1_645
O30 Sr2 2.754707 1_555
O30 Sr2 3.004461 1_455
O31 Sr8 2.513896 1_455
O31 Sr1 2.754917 1_555
O31 Sr1 2.967968 1_455
O31 Sr8 3.187383 1_465
O32 Sr10 2.528640 1_445
O32 Sr10 3.176402 1_455
O33 Sr11 2.525295 1_455
O33 Sr3 2.813432 1_555
O33 Sr3 2.919310 1_455
O33 Sr11 3.186846 1_465
O34 Sr9 2.515704 1_455
O34 Sr0 2.735710 1_555
O35 Sr0 2.586902 1_555
O35 Sr9 2.686684 1_565
O35 Sr12 2.893077 1_555
O36 Sr10 2.645163 1_555
O36 Sr13 3.028303 1_555
O36 Sr6 3.310475 1_655
O37 Sr2 2.591911 1_555
O38 Sr1 2.574981 1_555
O38 Sr8 2.693135 1_565
O38 Sr15 2.913859 1_556
O38 Sr4 3.063483 1_656
O39 Sr3 2.625878 1_545
O39 Sr11 2.743252 1_555
O39 Sr7 3.111383 1_655
O40 Sr1 2.621203 1_555
O40 Sr8 2.732393 1_565
O40 Sr12 2.894231 1_555
O41 Sr10 2.711967 1_555
O41 Sr14 2.929099 1_555
O42 Sr2 2.566527 1_555
O42 Sr15 3.112815 1_555
O42 Sr4 3.208806 1_655
O43 Sr0 2.564107 1_545
O43 Sr9 2.731566 1_555
O43 Sr7 3.172641 1_655
O44 Sr3 2.587790 1_545
O44 Sr11 2.631550 1_555
O44 Sr13 2.897815 1_555
O44 Sr6 3.115456 1_655
O45 Sr12 2.711967 1_555
O45 Sr9 2.929099 1_555
O46 Sr6 2.621203 1_655
O46 Sr13 2.732393 1_565
O46 Sr10 2.894231 1_555
O47 Sr5 2.564107 1_645
O47 Sr14 2.731566 1_555
O47 Sr2 3.172641 1_555
O48 Sr4 2.587790 1_645
O48 Sr15 2.631550 1_555
O48 Sr8 2.897815 1_554
O48 Sr1 3.115456 1_554
O49 Sr7 2.566527 1_655
O49 Sr11 3.112815 1_555
O49 Sr3 3.208806 1_555
O50 Sr12 2.645163 1_555
O50 Sr8 3.028303 1_555
O50 Sr1 3.310475 1_555
O51 Sr7 2.591911 1_655
O52 Sr5 2.586902 1_655
O52 Sr14 2.686684 1_565
O52 Sr10 2.893077 1_555
O53 Sr4 2.625878 1_645
O53 Sr15 2.743252 1_555
O53 Sr2 3.111383 1_555
O54 Sr6 2.574981 1_655
O54 Sr13 2.693135 1_565
O54 Sr11 2.913859 1_555
O54 Sr3 3.063483 1_555
O55 Sr15 2.525295 1_555
O55 Sr4 2.813432 1_555
O55 Sr4 2.919310 1_655
O55 Sr15 3.186846 1_565
O56 Sr12 2.528640 1_545
O56 Sr12 3.176402 1_555
O57 Sr13 2.513896 1_555
O57 Sr6 2.754917 1_555
O57 Sr6 2.967968 1_655
O57 Sr13 3.187383 1_565
O58 Sr14 2.515704 1_555
O58 Sr5 2.735710 1_555
O59 Sr7 2.754707 1_555
O59 Sr7 3.004461 1_655
