# generated using pymatgen
data_V2Bi4O11
_symmetry_space_group_name_H-M   'P 1'
_cell_length_a   9.44497700
_cell_length_b   7.27020100
_cell_length_c   8.57013743
_cell_angle_alpha   77.05425003
_cell_angle_beta   90.00000000
_cell_angle_gamma   90.00000000
_symmetry_Int_Tables_number   1
_chemical_formula_structural   V2Bi4O11
_chemical_formula_sum   'V4 Bi8 O22'
_cell_volume   573.52687277
_cell_formula_units_Z   2
loop_
 _symmetry_equiv_pos_site_id
 _symmetry_equiv_pos_as_xyz
  1  'x, y, z'
loop_
 _atom_site_type_symbol
 _atom_site_label
 _atom_site_symmetry_multiplicity
 _atom_site_fract_x
 _atom_site_fract_y
 _atom_site_fract_z
 _atom_site_occupancy
  V  V0  1  0.17571900  0.38786000  0.42709000  1
  V  V1  1  0.67821300  0.88422300  0.95063700  1
  V  V2  1  0.17821300  0.11577700  0.04936300  1
  V  V3  1  0.67571900  0.61214000  0.57291000  1
  Bi  Bi0  1  0.45507500  0.83361000  0.30886700  1
  Bi  Bi1  1  0.07124400  0.77245100  0.50308200  1
  Bi  Bi2  1  0.05157200  0.65057600  0.01726700  1
  Bi  Bi3  1  0.33015100  0.87234100  0.78018000  1
  Bi  Bi4  1  0.83015100  0.12765900  0.21982000  1
  Bi  Bi5  1  0.55157200  0.34942400  0.98273300  1
  Bi  Bi6  1  0.95507500  0.16639000  0.69113300  1
  Bi  Bi7  1  0.57124400  0.22754900  0.49691800  1
  O  O0  1  0.09746900  0.84121500  0.73658700  1
  O  O1  1  0.59756500  0.84033200  0.52361000  1
  O  O2  1  0.23275800  0.12215700  0.85211600  1
  O  O3  1  0.80111000  0.18454200  0.50602000  1
  O  O4  1  0.63889700  0.52610100  0.39946400  1
  O  O5  1  0.77430000  0.32009400  0.00437500  1
  O  O6  1  0.58849500  0.67998000  0.94248200  1
  O  O7  1  0.55433200  0.06634800  0.89154400  1
  O  O8  1  0.32608600  0.07836200  0.17227300  1
  O  O9  1  0.58173900  0.44569800  0.71429700  1
  O  O10  1  0.85227500  0.60568600  0.61474300  1
  O  O11  1  0.08173900  0.55430200  0.28570300  1
  O  O12  1  0.35227500  0.39431400  0.38525700  1
  O  O13  1  0.05433200  0.93365200  0.10845600  1
  O  O14  1  0.82608600  0.92163800  0.82772700  1
  O  O15  1  0.08849500  0.32002000  0.05751800  1
  O  O16  1  0.13889700  0.47389900  0.60053600  1
  O  O17  1  0.30111000  0.81545800  0.49398000  1
  O  O18  1  0.73275800  0.87784300  0.14788400  1
  O  O19  1  0.27430000  0.67990600  0.99562500  1
  O  O20  1  0.59746900  0.15878500  0.26341300  1
  O  O21  1  0.09756500  0.15966800  0.47639000  1
loop_
_geom_bond_atom_site_label_1
_geom_bond_atom_site_label_2
_geom_bond_distance
_geom_bond_site_symmetry_2
Bi0 O17 2.134268 1_555
Bi0 O8 2.255563 1_565
Bi0 O1 2.289299 1_555
Bi0 O20 2.671481 1_565
Bi1 O0 2.182708 1_555
Bi1 O17 2.192374 1_555
Bi1 O16 2.237144 1_555
Bi1 O10 2.478534 1_455
Bi1 O11 2.705490 1_555
Bi1 O21 2.783997 1_565
Bi2 O19 2.118381 1_554
Bi2 O11 2.267614 1_555
Bi2 O13 2.359555 1_555
Bi2 O15 2.375833 1_555
Bi2 O0 2.530088 1_554
Bi3 O19 2.118335 1_555
Bi3 O2 2.241999 1_565
Bi3 O0 2.249098 1_555
Bi3 O17 2.591687 1_555
Bi3 O7 2.826090 1_565
Bi4 O5 2.118335 1_555
Bi4 O18 2.241999 1_545
Bi4 O20 2.249098 1_555
Bi4 O3 2.591687 1_555
Bi4 O13 2.826090 1_645
Bi5 O5 2.118381 1_556
Bi5 O9 2.267614 1_555
Bi5 O7 2.359555 1_555
Bi5 O6 2.375833 1_555
Bi5 O20 2.530088 1_556
Bi6 O3 2.134268 1_555
Bi6 O14 2.255563 1_545
Bi6 O21 2.289299 1_655
Bi6 O0 2.671481 1_645
Bi7 O20 2.182708 1_555
Bi7 O3 2.192374 1_555
Bi7 O4 2.237144 1_555
Bi7 O12 2.478534 1_555
Bi7 O9 2.705490 1_555
Bi7 O1 2.783997 1_545
O1 V3 1.778095 1_555
O2 V2 1.757838 1_556
O4 V3 1.771550 1_555
O6 V1 1.724626 1_555
O7 V1 1.754495 1_545
O8 V2 1.733730 1_555
O9 V3 1.750267 1_555
O10 V3 1.704106 1_555
O11 V0 1.750267 1_555
O12 V0 1.704106 1_555
O13 V2 1.754495 1_565
O14 V1 1.733730 1_555
O15 V2 1.724626 1_555
O16 V0 1.771550 1_555
O18 V1 1.757838 1_554
O21 V0 1.778095 1_555
