# generated using pymatgen
data_Rb3Ce2(NO3)9
_symmetry_space_group_name_H-M   'P 1'
_cell_length_a   13.97611300
_cell_length_b   13.97611300
_cell_length_c   13.97611300
_cell_angle_alpha   90.00000000
_cell_angle_beta   90.00000000
_cell_angle_gamma   90.00000000
_symmetry_Int_Tables_number   1
_chemical_formula_structural   Rb3Ce2(NO3)9
_chemical_formula_sum   'Rb12 Ce8 N36 O108'
_cell_volume   2729.97839510
_cell_formula_units_Z   4
loop_
 _symmetry_equiv_pos_site_id
 _symmetry_equiv_pos_as_xyz
  1  'x, y, z'
loop_
 _atom_site_type_symbol
 _atom_site_label
 _atom_site_symmetry_multiplicity
 _atom_site_fract_x
 _atom_site_fract_y
 _atom_site_fract_z
 _atom_site_occupancy
  Rb  Rb0  1  0.30450400  0.44549600  0.87500000  1
  Rb  Rb1  1  0.12500000  0.80450400  0.05450400  1
  Rb  Rb2  1  0.37500000  0.19549600  0.55450400  1
  Rb  Rb3  1  0.55450400  0.37500000  0.19549600  1
  Rb  Rb4  1  0.19549600  0.55450400  0.37500000  1
  Rb  Rb5  1  0.05450400  0.12500000  0.80450400  1
  Rb  Rb6  1  0.62500000  0.69549600  0.94549600  1
  Rb  Rb7  1  0.87500000  0.30450400  0.44549600  1
  Rb  Rb8  1  0.69549600  0.94549600  0.62500000  1
  Rb  Rb9  1  0.44549600  0.87500000  0.30450400  1
  Rb  Rb10  1  0.80450400  0.05450400  0.12500000  1
  Rb  Rb11  1  0.94549600  0.62500000  0.69549600  1
  Ce  Ce0  1  0.69493300  0.30506700  0.80506700  1
  Ce  Ce1  1  0.19493300  0.19493300  0.19493300  1
  Ce  Ce2  1  0.30506700  0.80506700  0.69493300  1
  Ce  Ce3  1  0.80506700  0.69493300  0.30506700  1
  Ce  Ce4  1  0.94493300  0.44493300  0.05506700  1
  Ce  Ce5  1  0.44493300  0.05506700  0.94493300  1
  Ce  Ce6  1  0.05506700  0.94493300  0.44493300  1
  Ce  Ce7  1  0.55506700  0.55506700  0.55506700  1
  N  N0  1  0.76616400  0.62500000  0.51616400  1
  N  N1  1  0.84631000  0.38832200  0.67292200  1
  N  N2  1  0.07707800  0.36167800  0.90369000  1
  N  N3  1  0.23383600  0.12500000  0.98383600  1
  N  N4  1  0.32707800  0.34631000  0.11167800  1
  N  N5  1  0.42292200  0.63832200  0.40369000  1
  N  N6  1  0.98383600  0.23383600  0.12500000  1
  N  N7  1  0.34631000  0.11167800  0.32707800  1
  N  N8  1  0.63832200  0.40369000  0.42292200  1
  N  N9  1  0.37500000  0.01616400  0.73383600  1
  N  N10  1  0.86167800  0.59631000  0.92292200  1
  N  N11  1  0.38832200  0.67292200  0.84631000  1
  N  N12  1  0.36167800  0.90369000  0.07707800  1
  N  N13  1  0.51616400  0.76616400  0.62500000  1
  N  N14  1  0.12500000  0.98383600  0.23383600  1
  N  N15  1  0.15369000  0.88832200  0.82707800  1
  N  N16  1  0.26616400  0.87500000  0.48383600  1
  N  N17  1  0.17292200  0.65369000  0.61167800  1
  N  N18  1  0.40369000  0.42292200  0.63832200  1
  N  N19  1  0.59631000  0.92292200  0.86167800  1
  N  N20  1  0.09631000  0.57707800  0.13832200  1
  N  N21  1  0.73383600  0.37500000  0.01616400  1
  N  N22  1  0.90369000  0.07707800  0.36167800  1
  N  N23  1  0.82707800  0.15369000  0.88832200  1
  N  N24  1  0.65369000  0.61167800  0.17292200  1
  N  N25  1  0.13832200  0.09631000  0.57707800  1
  N  N26  1  0.48383600  0.26616400  0.87500000  1
  N  N27  1  0.61167800  0.17292200  0.65369000  1
  N  N28  1  0.88832200  0.82707800  0.15369000  1
  N  N29  1  0.92292200  0.86167800  0.59631000  1
  N  N30  1  0.87500000  0.48383600  0.26616400  1
  N  N31  1  0.62500000  0.51616400  0.76616400  1
  N  N32  1  0.67292200  0.84631000  0.38832200  1
  N  N33  1  0.11167800  0.32707800  0.34631000  1
  N  N34  1  0.57707800  0.13832200  0.09631000  1
  N  N35  1  0.01616400  0.73383600  0.37500000  1
  O  O0  1  0.00545500  0.15158700  0.15436000  1
  O  O1  1  0.32657300  0.07489100  0.24552400  1
  O  O2  1  0.44858800  0.40023200  0.56170000  1
  O  O3  1  0.07657300  0.49552400  0.17510900  1
  O  O4  1  0.69858800  0.68830000  0.15023200  1
  O  O5  1  0.81170000  0.84976800  0.19858800  1
  O  O6  1  0.40436000  0.09841300  0.75545500  1
  O  O7  1  0.05141200  0.59976800  0.06170000  1
  O  O8  1  0.07451500  0.38177000  0.40631700  1
  O  O9  1  0.17342700  0.92510900  0.74552400  1
  O  O10  1  0.90023200  0.93830000  0.55141200  1
  O  O11  1  0.65023200  0.80141200  0.31170000  1
  O  O12  1  0.59564000  0.59841300  0.74454500  1
  O  O13  1  0.42548500  0.61823000  0.90631700  1
  O  O14  1  0.99552400  0.32489100  0.92342700  1
  O  O15  1  0.18830000  0.34976800  0.30141200  1
  O  O16  1  0.54919100  0.20080900  0.87500000  1
  O  O17  1  0.09841300  0.75545500  0.40436000  1
  O  O18  1  0.36823000  0.67548500  0.34368300  1
  O  O19  1  0.67510900  0.42342700  0.50447600  1
  O  O20  1  0.00447600  0.82489100  0.57657300  1
  O  O21  1  0.87500000  0.54919100  0.20080900  1
  O  O22  1  0.45080900  0.70080900  0.62500000  1
  O  O23  1  0.65631700  0.86823000  0.82451500  1
  O  O24  1  0.40158700  0.24454500  0.90436000  1
  O  O25  1  0.11823000  0.59368300  0.57451500  1
  O  O26  1  0.68830000  0.15023200  0.69858800  1
  O  O27  1  0.70080900  0.62500000  0.45080900  1
  O  O28  1  0.57489100  0.25447600  0.67342700  1
  O  O29  1  0.30141200  0.18830000  0.34976800  1
  O  O30  1  0.61823000  0.90631700  0.42548500  1
  O  O31  1  0.17548500  0.15631700  0.63177000  1
  O  O32  1  0.75447600  0.82657300  0.42510900  1
  O  O33  1  0.63177000  0.17548500  0.15631700  1
  O  O34  1  0.67342700  0.57489100  0.25447600  1
  O  O35  1  0.15436000  0.00545500  0.15158700  1
  O  O36  1  0.06170000  0.05141200  0.59976800  1
  O  O37  1  0.84841300  0.65436000  0.49454500  1
  O  O38  1  0.12500000  0.04919100  0.29919100  1
  O  O39  1  0.09564000  0.90158700  0.25545500  1
  O  O40  1  0.24552400  0.32657300  0.07489100  1
  O  O41  1  0.74552400  0.17342700  0.92510900  1
  O  O42  1  0.99454500  0.65158700  0.34564000  1
  O  O43  1  0.90158700  0.25545500  0.09564000  1
  O  O44  1  0.86823000  0.82451500  0.65631700  1
  O  O45  1  0.94858800  0.09976800  0.43830000  1
  O  O46  1  0.42510900  0.75447600  0.82657300  1
  O  O47  1  0.50545500  0.34841300  0.84564000  1
  O  O48  1  0.80141200  0.31170000  0.65023200  1
  O  O49  1  0.62500000  0.45080900  0.70080900  1
  O  O50  1  0.38177000  0.40631700  0.07451500  1
  O  O51  1  0.34564000  0.99454500  0.65158700  1
  O  O52  1  0.40631700  0.07451500  0.38177000  1
  O  O53  1  0.17510900  0.07657300  0.49552400  1
  O  O54  1  0.32489100  0.92342700  0.99552400  1
  O  O55  1  0.59841300  0.74454500  0.59564000  1
  O  O56  1  0.31170000  0.65023200  0.80141200  1
  O  O57  1  0.34976800  0.30141200  0.18830000  1
  O  O58  1  0.65436000  0.49454500  0.84841300  1
  O  O59  1  0.50447600  0.67510900  0.42342700  1
  O  O60  1  0.20080900  0.87500000  0.54919100  1
  O  O61  1  0.90631700  0.42548500  0.61823000  1
  O  O62  1  0.40023200  0.56170000  0.44858800  1
  O  O63  1  0.29919100  0.12500000  0.04919100  1
  O  O64  1  0.92342700  0.99552400  0.32489100  1
  O  O65  1  0.82489100  0.57657300  0.00447600  1
  O  O66  1  0.57657300  0.00447600  0.82489100  1
  O  O67  1  0.15158700  0.15436000  0.00545500  1
  O  O68  1  0.32451500  0.84368300  0.13177000  1
  O  O69  1  0.49552400  0.17510900  0.07657300  1
  O  O70  1  0.93830000  0.55141200  0.90023200  1
  O  O71  1  0.84564000  0.50545500  0.34841300  1
  O  O72  1  0.75545500  0.40436000  0.09841300  1
  O  O73  1  0.19858800  0.81170000  0.84976800  1
  O  O74  1  0.09368300  0.92548500  0.88177000  1
  O  O75  1  0.37500000  0.95080900  0.79919100  1
  O  O76  1  0.55141200  0.90023200  0.93830000  1
  O  O77  1  0.24454500  0.90436000  0.40158700  1
  O  O78  1  0.15023200  0.69858800  0.68830000  1
  O  O79  1  0.42342700  0.50447600  0.67510900  1
  O  O80  1  0.59368300  0.57451500  0.11823000  1
  O  O81  1  0.25447600  0.67342700  0.57489100  1
  O  O82  1  0.43830000  0.94858800  0.09976800  1
  O  O83  1  0.07489100  0.24552400  0.32657300  1
  O  O84  1  0.82657300  0.42510900  0.75447600  1
  O  O85  1  0.67548500  0.34368300  0.36823000  1
  O  O86  1  0.13177000  0.32451500  0.84368300  1
  O  O87  1  0.57451500  0.11823000  0.59368300  1
  O  O88  1  0.84368300  0.13177000  0.32451500  1
  O  O89  1  0.49454500  0.84841300  0.65436000  1
  O  O90  1  0.15631700  0.63177000  0.17548500  1
  O  O91  1  0.79919100  0.37500000  0.95080900  1
  O  O92  1  0.95080900  0.79919100  0.37500000  1
  O  O93  1  0.90436000  0.40158700  0.24454500  1
  O  O94  1  0.74454500  0.59564000  0.59841300  1
  O  O95  1  0.25545500  0.09564000  0.90158700  1
  O  O96  1  0.92548500  0.88177000  0.09368300  1
  O  O97  1  0.88177000  0.09368300  0.92548500  1
  O  O98  1  0.56170000  0.44858800  0.40023200  1
  O  O99  1  0.04919100  0.29919100  0.12500000  1
  O  O100  1  0.65158700  0.34564000  0.99454500  1
  O  O101  1  0.34841300  0.84564000  0.50545500  1
  O  O102  1  0.92510900  0.74552400  0.17342700  1
  O  O103  1  0.34368300  0.36823000  0.67548500  1
  O  O104  1  0.82451500  0.65631700  0.86823000  1
  O  O105  1  0.09976800  0.43830000  0.94858800  1
  O  O106  1  0.84976800  0.19858800  0.81170000  1
  O  O107  1  0.59976800  0.06170000  0.05141200  1
loop_
_geom_bond_atom_site_label_1
_geom_bond_atom_site_label_2
_geom_bond_distance
_geom_bond_site_symmetry_2
Ce0 O41 2.588360 1_555
Ce0 O28 2.588360 1_555
Ce0 O84 2.588360 1_555
Ce0 O106 2.627942 1_555
Ce0 O48 2.627942 1_555
Ce0 O26 2.627942 1_555
Ce0 O49 2.688398 1_555
Ce0 O91 2.688398 1_555
Ce0 O16 2.688398 1_555
Ce0 O47 2.775128 1_555
Ce0 O58 2.775128 1_555
Ce0 O100 2.775128 1_555
Ce1 O40 2.588360 1_555
Ce1 O1 2.588360 1_555
Ce1 O83 2.588360 1_555
Ce1 O15 2.627942 1_555
Ce1 O29 2.627942 1_555
Ce1 O57 2.627942 1_555
Ce1 O38 2.688398 1_555
Ce1 O63 2.688398 1_555
Ce1 O99 2.688398 1_555
Ce1 O67 2.775128 1_555
Ce1 O35 2.775128 1_555
Ce1 O0 2.775128 1_555
Ce2 O9 2.588360 1_555
Ce2 O81 2.588360 1_555
Ce2 O46 2.588360 1_555
Ce2 O56 2.627942 1_555
Ce2 O73 2.627942 1_555
Ce2 O78 2.627942 1_555
Ce2 O60 2.688398 1_555
Ce2 O75 2.688398 1_555
Ce2 O22 2.688398 1_555
Ce2 O101 2.775128 1_555
Ce2 O89 2.775128 1_555
Ce2 O51 2.775128 1_555
Ce3 O102 2.588360 1_555
Ce3 O34 2.588360 1_555
Ce3 O32 2.588360 1_555
Ce3 O11 2.627942 1_555
Ce3 O5 2.627942 1_555
Ce3 O4 2.627942 1_555
Ce3 O27 2.688398 1_555
Ce3 O92 2.688398 1_555
Ce3 O21 2.688398 1_555
Ce3 O42 2.775128 1_555
Ce3 O71 2.775128 1_555
Ce3 O37 2.775128 1_555
Ce4 O3 2.588360 1_655
Ce4 O65 2.588360 1_555
Ce4 O14 2.588360 1_554
Ce4 O7 2.627942 1_655
Ce4 O70 2.627942 1_554
Ce4 O105 2.627942 1_654
Ce4 O21 2.688398 1_555
Ce4 O91 2.688398 1_554
Ce4 O99 2.688398 1_655
Ce4 O93 2.775128 1_555
Ce4 O72 2.775128 1_555
Ce4 O43 2.775128 1_555
Ce5 O69 2.588360 1_556
Ce5 O66 2.588360 1_555
Ce5 O54 2.588360 1_545
Ce5 O107 2.627942 1_556
Ce5 O76 2.627942 1_545
Ce5 O82 2.627942 1_546
Ce5 O16 2.688398 1_555
Ce5 O75 2.688398 1_545
Ce5 O63 2.688398 1_556
Ce5 O24 2.775128 1_555
Ce5 O6 2.775128 1_555
Ce5 O95 2.775128 1_555
Ce6 O20 2.588360 1_555
Ce6 O53 2.588360 1_565
Ce6 O64 2.588360 1_455
Ce6 O36 2.627942 1_565
Ce6 O10 2.627942 1_455
Ce6 O45 2.627942 1_465
Ce6 O60 2.688398 1_555
Ce6 O92 2.688398 1_455
Ce6 O38 2.688398 1_565
Ce6 O77 2.775128 1_555
Ce6 O39 2.775128 1_555
Ce6 O17 2.775128 1_555
Ce7 O59 2.588360 1_555
Ce7 O19 2.588360 1_555
Ce7 O79 2.588360 1_555
Ce7 O62 2.627942 1_555
Ce7 O2 2.627942 1_555
Ce7 O98 2.627942 1_555
Ce7 O49 2.688398 1_555
Ce7 O27 2.688398 1_555
Ce7 O22 2.688398 1_555
Ce7 O55 2.775128 1_555
Ce7 O94 2.775128 1_555
Ce7 O12 2.775128 1_555
N0 O94 1.257407 1_555
N0 O37 1.257407 1_555
N0 O27 1.291755 1_555
N1 O61 1.247962 1_555
N1 O84 1.280466 1_555
N1 O48 1.281054 1_555
N2 O86 1.247962 1_555
N2 O14 1.280466 1_455
N2 O105 1.281054 1_555
N3 O67 1.257407 1_556
N3 O95 1.257407 1_555
N3 O63 1.291755 1_556
N4 O50 1.247962 1_555
N4 O40 1.280466 1_555
N4 O57 1.281054 1_555
N5 O18 1.247962 1_555
N5 O59 1.280466 1_555
N5 O62 1.281054 1_555
N6 O0 1.257407 1_655
N6 O43 1.257407 1_555
N6 O99 1.291755 1_655
N7 O52 1.247962 1_555
N7 O1 1.280466 1_555
N7 O29 1.281054 1_555
N8 O85 1.247962 1_555
N8 O19 1.280466 1_555
N8 O98 1.281054 1_555
N9 O6 1.257407 1_555
N9 O51 1.257407 1_545
N9 O75 1.291755 1_545
N10 O104 1.247962 1_555
N10 O65 1.280466 1_556
N10 O70 1.281054 1_555
N11 O13 1.247962 1_555
N11 O46 1.280466 1_555
N11 O56 1.281054 1_555
N12 O68 1.247962 1_555
N12 O54 1.280466 1_554
N12 O82 1.281054 1_555
N13 O55 1.257407 1_555
N13 O89 1.257407 1_555
N13 O22 1.291755 1_555
N14 O35 1.257407 1_565
N14 O39 1.257407 1_555
N14 O38 1.291755 1_565
N15 O74 1.247962 1_555
N15 O9 1.280466 1_555
N15 O73 1.281054 1_555
N16 O101 1.257407 1_555
N16 O77 1.257407 1_555
N16 O60 1.291755 1_555
N17 O25 1.247962 1_555
N17 O81 1.280466 1_555
N17 O78 1.281054 1_555
N18 O103 1.247962 1_555
N18 O79 1.280466 1_555
N18 O2 1.281054 1_555
N19 O23 1.247962 1_555
N19 O66 1.280466 1_565
N19 O76 1.281054 1_555
N20 O90 1.247962 1_555
N20 O3 1.280466 1_555
N20 O7 1.281054 1_555
N21 O72 1.257407 1_555
N21 O100 1.257407 1_554
N21 O91 1.291755 1_554
N22 O88 1.247962 1_555
N22 O64 1.280466 1_545
N22 O45 1.281054 1_555
N23 O97 1.247962 1_555
N23 O41 1.280466 1_555
N23 O106 1.281054 1_555
N24 O80 1.247962 1_555
N24 O34 1.280466 1_555
N24 O4 1.281054 1_555
N25 O31 1.247962 1_555
N25 O53 1.280466 1_555
N25 O36 1.281054 1_555
N26 O24 1.257407 1_555
N26 O47 1.257407 1_555
N26 O16 1.291755 1_555
N27 O87 1.247962 1_555
N27 O28 1.280466 1_555
N27 O26 1.281054 1_555
N28 O96 1.247962 1_555
N28 O102 1.280466 1_555
N28 O5 1.281054 1_555
N29 O44 1.247962 1_555
N29 O20 1.280466 1_655
N29 O10 1.281054 1_555
N30 O93 1.257407 1_555
N30 O71 1.257407 1_555
N30 O21 1.291755 1_555
N31 O58 1.257407 1_555
N31 O12 1.257407 1_555
N31 O49 1.291755 1_555
N32 O30 1.247962 1_555
N32 O32 1.280466 1_555
N32 O11 1.281054 1_555
N33 O8 1.247962 1_555
N33 O83 1.280466 1_555
N33 O15 1.281054 1_555
N34 O33 1.247962 1_555
N34 O69 1.280466 1_555
N34 O107 1.281054 1_555
N35 O17 1.257407 1_555
N35 O42 1.257407 1_455
N35 O92 1.291755 1_455
O0 Rb10 3.145974 1_455
O1 Rb9 3.353619 1_545
O2 Rb2 3.042295 1_555
O3 Rb4 3.353619 1_555
O4 Rb6 3.042295 1_554
O5 Rb10 3.042295 1_565
O6 Rb2 3.145974 1_555
O7 Rb1 3.042295 1_555
O8 Rb4 2.979706 1_555
O8 Rb7 3.039966 1_455
O9 Rb5 3.353619 1_565
O10 Rb8 3.042295 1_555
O11 Rb9 3.042295 1_555
O12 Rb6 3.145974 1_555
O13 Rb0 2.979706 1_555
O13 Rb6 3.039966 1_555
O14 Rb5 3.353619 1_655
O15 Rb4 3.042295 1_555
O17 Rb4 3.145974 1_555
O18 Rb4 2.979706 1_555
O18 Rb9 3.039966 1_555
O19 Rb7 3.353619 1_555
O20 Rb11 3.353619 1_455
O23 Rb6 2.979706 1_555
O23 Rb8 3.039966 1_555
O24 Rb0 3.145974 1_555
O25 Rb11 2.979706 1_455
O25 Rb4 3.039966 1_555
O26 Rb8 3.042295 1_545
O28 Rb2 3.353619 1_555
O29 Rb2 3.042295 1_555
O30 Rb9 2.979706 1_555
O30 Rb8 3.039966 1_555
O31 Rb5 2.979706 1_555
O31 Rb2 3.039966 1_555
O32 Rb8 3.353619 1_555
O33 Rb10 2.979706 1_555
O33 Rb3 3.039966 1_555
O34 Rb3 3.353619 1_555
O35 Rb1 3.145974 1_545
O36 Rb5 3.042295 1_555
O37 Rb11 3.145974 1_555
O39 Rb1 3.145974 1_555
O40 Rb0 3.353619 1_554
O41 Rb10 3.353619 1_556
O42 Rb4 3.145974 1_655
O43 Rb10 3.145974 1_555
O44 Rb8 2.979706 1_555
O44 Rb11 3.039966 1_555
O45 Rb7 3.042295 1_555
O46 Rb6 3.353619 1_555
O47 Rb0 3.145974 1_555
O48 Rb7 3.042295 1_555
O50 Rb3 2.979706 1_555
O50 Rb0 3.039966 1_554
O51 Rb2 3.145974 1_565
O52 Rb2 2.979706 1_555
O52 Rb9 3.039966 1_545
O53 Rb2 3.353619 1_555
O54 Rb1 3.353619 1_556
O55 Rb8 3.145974 1_555
O56 Rb0 3.042295 1_555
O57 Rb3 3.042295 1_555
O58 Rb6 3.145974 1_555
O59 Rb9 3.353619 1_555
O61 Rb7 2.979706 1_555
O61 Rb11 3.039966 1_555
O62 Rb4 3.042295 1_555
O64 Rb10 3.353619 1_565
O65 Rb6 3.353619 1_554
O66 Rb8 3.353619 1_545
O67 Rb5 3.145974 1_554
O68 Rb9 2.979706 1_555
O68 Rb1 3.039966 1_555
O69 Rb3 3.353619 1_555
O70 Rb11 3.042295 1_555
O71 Rb7 3.145974 1_555
O72 Rb3 3.145974 1_555
O73 Rb1 3.042295 1_556
O74 Rb1 2.979706 1_556
O74 Rb5 3.039966 1_565
O76 Rb6 3.042295 1_555
O77 Rb9 3.145974 1_555
O78 Rb11 3.042295 1_455
O79 Rb0 3.353619 1_555
O80 Rb6 2.979706 1_554
O80 Rb3 3.039966 1_555
O81 Rb4 3.353619 1_555
O82 Rb9 3.042295 1_555
O83 Rb7 3.353619 1_455
O84 Rb11 3.353619 1_555
O85 Rb3 2.979706 1_555
O85 Rb7 3.039966 1_555
O86 Rb0 2.979706 1_555
O86 Rb5 3.039966 1_555
O87 Rb8 2.979706 1_545
O87 Rb2 3.039966 1_555
O88 Rb7 2.979706 1_555
O88 Rb10 3.039966 1_555
O89 Rb8 3.145974 1_555
O90 Rb1 2.979706 1_555
O90 Rb4 3.039966 1_555
O93 Rb7 3.145974 1_555
O94 Rb11 3.145974 1_555
O95 Rb5 3.145974 1_555
O96 Rb10 2.979706 1_565
O96 Rb1 3.039966 1_655
O97 Rb5 2.979706 1_655
O97 Rb10 3.039966 1_556
O98 Rb3 3.042295 1_555
O100 Rb3 3.145974 1_556
O101 Rb9 3.145974 1_555
O102 Rb1 3.353619 1_655
O103 Rb2 2.979706 1_555
O103 Rb0 3.039966 1_555
O104 Rb11 2.979706 1_555
O104 Rb6 3.039966 1_555
O105 Rb0 3.042295 1_555
O106 Rb5 3.042295 1_655
O107 Rb10 3.042295 1_555
