# generated using pymatgen
data_Ti7Fe13O30
_symmetry_space_group_name_H-M   'P 1'
_cell_length_a   5.54231800
_cell_length_b   8.96734800
_cell_length_c   11.73603127
_cell_angle_alpha   75.42727582
_cell_angle_beta   82.29864553
_cell_angle_gamma   74.07676385
_symmetry_Int_Tables_number   1
_chemical_formula_structural   Ti7Fe13O30
_chemical_formula_sum   'Ti7 Fe13 O30'
_cell_volume   541.52972209
_cell_formula_units_Z   1
loop_
 _symmetry_equiv_pos_site_id
 _symmetry_equiv_pos_as_xyz
  1  'x, y, z'
loop_
 _atom_site_type_symbol
 _atom_site_label
 _atom_site_symmetry_multiplicity
 _atom_site_fract_x
 _atom_site_fract_y
 _atom_site_fract_z
 _atom_site_occupancy
  Ti  Ti0  1  0.35677400  0.95977000  0.91315600  1
  Ti  Ti1  1  0.25798200  0.23140300  0.68737100  1
  Ti  Ti2  1  0.75826300  0.76058600  0.31545700  1
  Ti  Ti3  1  0.15411600  0.57413900  0.71083400  1
  Ti  Ti4  1  0.14761200  0.07088200  0.21153900  1
  Ti  Ti5  1  0.54661000  0.37600600  0.10495700  1
  Ti  Ti6  1  0.94917900  0.17581700  0.51382800  1
  Fe  Fe0  1  0.04579900  0.82943400  0.49007600  1
  Fe  Fe1  1  0.54417600  0.86887400  0.61151100  1
  Fe  Fe2  1  0.44641700  0.62901200  0.88765300  1
  Fe  Fe3  1  0.94374900  0.67442200  0.01269000  1
  Fe  Fe4  1  0.85551900  0.93231800  0.78474900  1
  Fe  Fe5  1  0.84626100  0.43093000  0.28622700  1
  Fe  Fe6  1  0.34406500  0.47405000  0.41123900  1
  Fe  Fe7  1  0.25952100  0.72325300  0.18916500  1
  Fe  Fe8  1  0.75372500  0.27073200  0.81636200  1
  Fe  Fe9  1  0.64961500  0.53017000  0.58936900  1
  Fe  Fe10  1  0.64741700  0.02911300  0.08699900  1
  Fe  Fe11  1  0.04991100  0.32705800  0.98223100  1
  Fe  Fe12  1  0.45117000  0.12907600  0.38698600  1
  O  O0  1  0.94554800  0.94544900  0.18941100  1
  O  O1  1  0.67771400  0.91051900  0.41944600  1
  O  O2  1  0.52519400  0.83039700  0.79801500  1
  O  O3  1  0.32837900  0.72946500  0.59018300  1
  O  O4  1  0.08725300  0.69505200  0.82450400  1
  O  O5  1  0.92626900  0.63038300  0.19732200  1
  O  O6  1  0.87183300  0.98387300  0.60025300  1
  O  O7  1  0.71170600  0.90083100  0.96878800  1
  O  O8  1  0.72812200  0.52051600  0.99341000  1
  O  O9  1  0.47740400  0.87540200  0.21632500  1
  O  O10  1  0.49206800  0.49548100  0.22181000  1
  O  O11  1  0.33127000  0.41511200  0.59719900  1
  O  O12  1  0.26096200  0.78539800  0.00319200  1
  O  O13  1  0.10421500  0.69722900  0.37434800  1
  O  O14  1  0.13198100  0.32253700  0.38961300  1
  O  O15  1  0.87868400  0.66713100  0.61783500  1
  O  O16  1  0.88311200  0.29569800  0.62665100  1
  O  O17  1  0.72428600  0.22634400  0.99032400  1
  O  O18  1  0.65972800  0.58254500  0.40396500  1
  O  O19  1  0.52005300  0.48383100  0.77686300  1
  O  O20  1  0.52867500  0.14523200  0.78414000  1
  O  O21  1  0.26975600  0.46512800  0.02078100  1
  O  O22  1  0.27958800  0.09847200  0.03257300  1
  O  O23  1  0.14543900  0.02675500  0.38176300  1
  O  O24  1  0.05534800  0.38032200  0.79578200  1
  O  O25  1  0.93022500  0.27439600  0.18085100  1
  O  O26  1  0.67062900  0.25947800  0.41649400  1
  O  O27  1  0.45828000  0.17979600  0.20814700  1
  O  O28  1  0.31156300  0.10261300  0.57107200  1
  O  O29  1  0.07683600  0.07757100  0.81654100  1
loop_
_geom_bond_atom_site_label_1
_geom_bond_atom_site_label_2
_geom_bond_distance
_geom_bond_site_symmetry_2
Fe0 O3 1.956923 1_555
Fe0 O13 1.958769 1_555
Fe0 O23 2.065894 1_565
Fe0 O6 2.086594 1_455
Fe0 O15 2.119807 1_455
Fe0 O1 2.171082 1_455
Fe1 O3 2.028307 1_555
Fe1 O28 2.112183 1_565
Fe1 O2 2.121131 1_555
Fe1 O15 2.201015 1_555
Fe1 O1 2.247006 1_555
Fe1 O6 2.296381 1_555
Fe2 O2 1.977897 1_555
Fe2 O19 1.992524 1_555
Fe2 O8 2.000738 1_555
Fe2 O4 2.095273 1_555
Fe2 O12 2.157362 1_556
Fe2 O21 2.187134 1_556
Fe3 O7 2.063973 1_554
Fe3 O5 2.096351 1_555
Fe3 O8 2.125741 1_554
Fe3 O21 2.211721 1_655
Fe3 O12 2.223807 1_655
Fe3 O4 2.224603 1_654
Fe4 O6 2.092117 1_555
Fe4 O4 2.134428 1_655
Fe4 O29 2.141087 1_665
Fe4 O7 2.176080 1_555
Fe4 O2 2.231900 1_555
Fe4 O20 2.241805 1_565
Fe5 O5 1.963756 1_555
Fe5 O14 2.000385 1_655
Fe5 O25 2.019214 1_555
Fe5 O10 2.077070 1_555
Fe5 O18 2.148914 1_555
Fe5 O26 2.210909 1_555
Fe6 O13 2.053854 1_555
Fe6 O14 2.102814 1_555
Fe6 O11 2.108558 1_555
Fe6 O18 2.206068 1_555
Fe6 O10 2.243859 1_555
Fe6 O26 2.245278 1_555
Fe7 O10 2.067338 1_555
Fe7 O12 2.111872 1_555
Fe7 O9 2.155782 1_555
Fe7 O5 2.206936 1_455
Fe7 O13 2.207321 1_555
Fe7 O0 2.257711 1_455
Fe8 O17 1.972486 1_555
Fe8 O19 1.975097 1_555
Fe8 O20 2.018931 1_555
Fe8 O24 2.119529 1_655
Fe8 O29 2.122357 1_655
Fe8 O16 2.220540 1_555
Fe9 O15 2.099418 1_555
Fe9 O18 2.103757 1_555
Fe9 O16 2.117281 1_555
Fe9 O3 2.149873 1_555
Fe9 O19 2.193246 1_555
Fe9 O11 2.256917 1_555
Fe10 O7 1.954646 1_544
Fe10 O17 1.967477 1_554
Fe10 O0 2.033712 1_545
Fe10 O9 2.089979 1_545
Fe10 O22 2.098617 1_555
Fe10 O27 2.176299 1_555
Fe11 O22 2.081249 1_556
Fe11 O21 2.116517 1_556
Fe11 O24 2.116938 1_555
Fe11 O8 2.135803 1_455
Fe11 O17 2.210634 1_455
Fe11 O25 2.302207 1_456
Fe12 O1 1.991226 1_545
Fe12 O26 2.015896 1_555
Fe12 O27 2.030005 1_555
Fe12 O14 2.113874 1_555
Fe12 O23 2.150830 1_555
Fe12 O28 2.171917 1_555
O0 Ti4 1.871609 1_665
O0 Ti2 2.304858 1_555
O1 Ti2 1.961311 1_555
O2 Ti0 1.974803 1_555
O3 Ti3 2.063242 1_555
O4 Ti3 1.862130 1_555
O5 Ti2 2.006120 1_555
O6 Ti6 1.893400 1_565
O7 Ti0 2.043376 1_555
O8 Ti5 1.978322 1_556
O9 Ti2 1.959554 1_555
O9 Ti4 2.153313 1_565
O10 Ti5 1.889572 1_555
O11 Ti1 1.836691 1_555
O11 Ti3 2.148023 1_555
O12 Ti0 1.821348 1_554
O13 Ti2 2.009143 1_455
O14 Ti6 2.062291 1_455
O15 Ti3 1.872697 1_655
O16 Ti6 1.847517 1_555
O16 Ti1 2.165559 1_655
O17 Ti5 2.099796 1_556
O18 Ti2 1.848792 1_555
O19 Ti3 2.138667 1_555
O20 Ti1 1.875268 1_555
O20 Ti0 2.276357 1_545
O21 Ti5 1.818013 1_555
O22 Ti0 2.029460 1_544
O22 Ti4 2.105647 1_555
O23 Ti4 1.935488 1_555
O23 Ti6 2.272678 1_455
O24 Ti3 1.954001 1_555
O24 Ti1 2.076653 1_555
O25 Ti4 1.868409 1_655
O25 Ti5 2.275989 1_555
O26 Ti6 1.912322 1_555
O27 Ti5 2.010854 1_555
O27 Ti4 2.192012 1_555
O28 Ti1 1.944563 1_555
O28 Ti6 2.081445 1_455
O29 Ti0 1.943763 1_545
O29 Ti1 2.123355 1_555
