# generated using pymatgen
data_CuHgC4(SN)4
_symmetry_space_group_name_H-M   'P 1'
_cell_length_a   7.75921451
_cell_length_b   9.02650429
_cell_length_c   15.35296206
_cell_angle_alpha   90.00000000
_cell_angle_beta   90.00000000
_cell_angle_gamma   90.00000000
_symmetry_Int_Tables_number   1
_chemical_formula_structural   CuHgC4(SN)4
_chemical_formula_sum   'Cu4 Hg4 C16 S16 N16'
_cell_volume   1075.29970848
_cell_formula_units_Z   4
loop_
 _symmetry_equiv_pos_site_id
 _symmetry_equiv_pos_as_xyz
  1  'x, y, z'
loop_
 _atom_site_type_symbol
 _atom_site_label
 _atom_site_symmetry_multiplicity
 _atom_site_fract_x
 _atom_site_fract_y
 _atom_site_fract_z
 _atom_site_occupancy
  Cu  Cu0  1  0.00000000  0.00000000  0.00000000  1
  Cu  Cu1  1  0.50000000  0.50000000  0.50000000  1
  Cu  Cu2  1  0.50000000  0.50000000  0.00000000  1
  Cu  Cu3  1  0.00000000  0.00000000  0.50000000  1
  Hg  Hg0  1  0.54592793  0.00000000  0.75000000  1
  Hg  Hg1  1  0.95407207  0.50000000  0.25000000  1
  Hg  Hg2  1  0.04592793  0.50000000  0.75000000  1
  Hg  Hg3  1  0.45407207  0.00000000  0.25000000  1
  C  C0  1  0.40492199  0.81683238  0.43389283  1
  C  C1  1  0.20219503  0.86182740  0.65336424  1
  C  C2  1  0.09507801  0.68316762  0.93389283  1
  C  C3  1  0.90492199  0.31683238  0.06610717  1
  C  C4  1  0.79780497  0.86182740  0.15336424  1
  C  C5  1  0.40492199  0.18316762  0.06610717  1
  C  C6  1  0.70219503  0.63817260  0.65336424  1
  C  C7  1  0.79780497  0.13817260  0.34663576  1
  C  C8  1  0.20219503  0.13817260  0.84663576  1
  C  C9  1  0.90492199  0.68316762  0.43389283  1
  C  C10  1  0.29780497  0.63817260  0.15336424  1
  C  C11  1  0.59507801  0.81683238  0.93389283  1
  C  C12  1  0.70219503  0.36182740  0.84663576  1
  C  C13  1  0.09507801  0.31683238  0.56610717  1
  C  C14  1  0.59507801  0.18316762  0.56610717  1
  C  C15  1  0.29780497  0.36182740  0.34663576  1
  S  S0  1  0.19624469  0.71541891  0.23412366  1
  S  S1  1  0.80375531  0.71541891  0.73412366  1
  S  S2  1  0.30375531  0.21541891  0.76587634  1
  S  S3  1  0.69624469  0.21541891  0.26587634  1
  S  S4  1  0.65255238  0.01506678  0.59382323  1
  S  S5  1  0.80375531  0.28458109  0.76587634  1
  S  S6  1  0.15255238  0.51506678  0.90617677  1
  S  S7  1  0.15255238  0.48493322  0.59382323  1
  S  S8  1  0.34744762  0.98493322  0.40617677  1
  S  S9  1  0.84744762  0.51506678  0.40617677  1
  S  S10  1  0.65255238  0.98493322  0.90617677  1
  S  S11  1  0.34744762  0.01506678  0.09382323  1
  S  S12  1  0.30375531  0.78458109  0.73412366  1
  S  S13  1  0.69624469  0.78458109  0.23412366  1
  S  S14  1  0.84744762  0.48493322  0.09382323  1
  S  S15  1  0.19624469  0.28458109  0.26587634  1
  N  N0  1  0.05679184  0.19812140  0.54290534  1
  N  N1  1  0.55679184  0.30187860  0.54290534  1
  N  N2  1  0.55679184  0.69812140  0.95709466  1
  N  N3  1  0.44320816  0.30187860  0.04290534  1
  N  N4  1  0.44320816  0.69812140  0.45709466  1
  N  N5  1  0.37356085  0.41419288  0.40489590  1
  N  N6  1  0.37356085  0.58580712  0.09510410  1
  N  N7  1  0.12643915  0.08580712  0.90489590  1
  N  N8  1  0.05679184  0.80187860  0.95709466  1
  N  N9  1  0.94320816  0.80187860  0.45709466  1
  N  N10  1  0.87356085  0.08580712  0.40489590  1
  N  N11  1  0.87356085  0.91419288  0.09510410  1
  N  N12  1  0.94320816  0.19812140  0.04290534  1
  N  N13  1  0.12643915  0.91419288  0.59510410  1
  N  N14  1  0.62643915  0.58580712  0.59510410  1
  N  N15  1  0.62643915  0.41419288  0.90489590  1
loop_
_geom_bond_atom_site_label_1
_geom_bond_atom_site_label_2
_geom_bond_distance
_geom_bond_site_symmetry_2
Cu0 N11 1.922078 1_445
Cu0 N7 1.922078 1_554
Cu0 N12 1.956086 1_455
Cu0 N8 1.956086 1_544
Cu1 N14 1.922078 1_555
Cu1 N5 1.922078 1_555
Cu1 N1 1.956086 1_555
Cu1 N4 1.956086 1_555
Cu2 N6 1.922078 1_555
Cu2 N15 1.922078 1_554
Cu2 N3 1.956086 1_555
Cu2 N2 1.956086 1_554
Cu3 N10 1.922078 1_455
Cu3 N13 1.922078 1_545
Cu3 N9 1.956086 1_445
Cu3 N0 1.956086 1_555
Hg0 S10 2.540135 1_545
Hg0 S4 2.540135 1_555
Hg0 S12 2.715017 1_545
Hg0 S2 2.715017 1_555
Hg1 S14 2.540135 1_555
Hg1 S9 2.540135 1_555
Hg1 S15 2.715017 1_655
Hg1 S0 2.715017 1_655
Hg2 S7 2.540135 1_555
Hg2 S6 2.540135 1_555
Hg2 S1 2.715017 1_455
Hg2 S5 2.715017 1_455
Hg3 S11 2.540135 1_555
Hg3 S8 2.540135 1_545
Hg3 S3 2.715017 1_555
Hg3 S13 2.715017 1_545
C0 N4 1.167626 1_555
C0 S8 1.637784 1_555
C1 N13 1.170046 1_555
C1 S12 1.626194 1_555
C2 N8 1.167626 1_555
C2 S6 1.637784 1_555
C3 N12 1.167626 1_555
C3 S14 1.637784 1_555
C4 N11 1.170046 1_555
C4 S13 1.626194 1_555
C5 N3 1.167626 1_555
C5 S11 1.637784 1_555
C6 N14 1.170046 1_555
C6 S1 1.626194 1_555
C7 N10 1.170046 1_555
C7 S3 1.626194 1_555
C8 N7 1.170046 1_555
C8 S2 1.626194 1_555
C9 N9 1.167626 1_555
C9 S9 1.637784 1_555
C10 N6 1.170046 1_555
C10 S0 1.626194 1_555
C11 N2 1.167626 1_555
C11 S10 1.637784 1_555
C12 N15 1.170046 1_555
C12 S5 1.626194 1_555
C13 N0 1.167626 1_555
C13 S7 1.637784 1_555
C14 N1 1.167626 1_555
C14 S4 1.637784 1_555
C15 N5 1.170046 1_555
C15 S15 1.626194 1_555
