# generated using pymatgen
data_Cu2WO4
_symmetry_space_group_name_H-M   'P 1'
_cell_length_a   5.94600700
_cell_length_b   8.00992695
_cell_length_c   8.30080487
_cell_angle_alpha   110.17809135
_cell_angle_beta   96.09247297
_cell_angle_gamma   93.26062457
_symmetry_Int_Tables_number   1
_chemical_formula_structural   Cu2WO4
_chemical_formula_sum   'Cu8 W4 O16'
_cell_volume   367.12731025
_cell_formula_units_Z   4
loop_
 _symmetry_equiv_pos_site_id
 _symmetry_equiv_pos_as_xyz
  1  'x, y, z'
loop_
 _atom_site_type_symbol
 _atom_site_label
 _atom_site_symmetry_multiplicity
 _atom_site_fract_x
 _atom_site_fract_y
 _atom_site_fract_z
 _atom_site_occupancy
  Cu  Cu0  1  0.29067800  0.95648500  0.39376900  1
  Cu  Cu1  1  0.09154800  0.24887600  0.99814500  1
  Cu  Cu2  1  0.24252500  0.48710100  0.34038700  1
  Cu  Cu3  1  0.08204500  0.25510800  0.50610200  1
  Cu  Cu4  1  0.94954000  0.87843900  0.93901800  1
  Cu  Cu5  1  0.85440500  0.56673900  0.61048400  1
  Cu  Cu6  1  0.93025600  0.00306900  0.64809700  1
  Cu  Cu7  1  0.23217100  0.61569000  0.05156500  1
  W  W0  1  0.75609200  0.60794500  0.23026400  1
  W  W1  1  0.58263800  0.32455500  0.82134600  1
  W  W2  1  0.42445000  0.88960300  0.76587500  1
  W  W3  1  0.59887100  0.17125500  0.17433600  1
  O  O0  1  0.52076200  0.54194100  0.01043300  1
  O  O1  1  0.97000400  0.70612800  0.13348000  1
  O  O2  1  0.66375700  0.95592100  0.98413300  1
  O  O3  1  0.56139500  0.70089200  0.65092000  1
  O  O4  1  0.80029300  0.32333400  0.05040300  1
  O  O5  1  0.52922100  0.41965900  0.28185800  1
  O  O6  1  0.83935400  0.17849300  0.33007700  1
  O  O7  1  0.64601300  0.07515700  0.70843000  1
  O  O8  1  0.62558300  0.79679500  0.34868300  1
  O  O9  1  0.96801900  0.57696700  0.40485000  1
  O  O10  1  0.20830400  0.91523700  0.59039400  1
  O  O11  1  0.21256000  0.78738100  0.86054500  1
  O  O12  1  0.81179800  0.43054000  0.75348200  1
  O  O13  1  0.33677600  0.32221400  0.67139700  1
  O  O14  1  0.38015500  0.16929800  0.94350900  1
  O  O15  1  0.36888400  0.06307700  0.23951700  1
loop_
_geom_bond_atom_site_label_1
_geom_bond_atom_site_label_2
_geom_bond_distance
_geom_bond_site_symmetry_2
Cu0 O15 1.849344 1_565
Cu0 O10 1.880494 1_555
Cu0 O8 2.420607 1_555
Cu1 O4 1.908268 1_456
Cu1 O14 1.909722 1_555
Cu2 O9 1.876676 1_455
Cu2 O5 1.879720 1_555
Cu3 O13 1.850162 1_555
Cu3 O6 1.851224 1_455
Cu4 O11 1.849422 1_655
Cu4 O2 1.872868 1_555
Cu4 O1 2.457593 1_556
Cu5 O12 1.894480 1_555
Cu5 O9 1.926558 1_555
Cu5 O3 2.095472 1_555
Cu6 O10 1.877665 1_645
Cu6 O7 1.879331 1_555
Cu7 O1 1.852228 1_455
Cu7 O0 1.873657 1_555
Cu7 O11 2.429484 1_554
O0 W1 1.985162 1_554
O0 W0 2.067748 1_555
O1 W0 1.849510 1_555
O2 W3 1.985667 1_566
O2 W2 2.071732 1_555
O3 W2 1.779969 1_555
O4 W1 2.186801 1_554
O4 W3 2.221859 1_555
O4 W0 2.301863 1_555
O5 W3 1.968268 1_555
O5 W0 2.148135 1_555
O6 W3 1.807141 1_555
O7 W1 1.969783 1_555
O7 W2 2.138107 1_545
O8 W0 1.768124 1_555
O9 W0 1.909364 1_555
O10 W2 1.911718 1_555
O11 W2 1.847162 1_555
O12 W1 1.804419 1_555
O13 W1 1.811436 1_555
O14 W3 2.193352 1_556
O14 W1 2.232305 1_555
O14 W2 2.265670 1_545
O15 W3 1.805358 1_555
