# generated using pymatgen
data_NiSn
_symmetry_space_group_name_H-M   'P 1'
_cell_length_a   4.13446100
_cell_length_b   5.22928700
_cell_length_c   24.96070200
_cell_angle_alpha   90.00000000
_cell_angle_beta   90.00000000
_cell_angle_gamma   90.00000000
_symmetry_Int_Tables_number   1
_chemical_formula_structural   NiSn
_chemical_formula_sum   'Ni16 Sn16'
_cell_volume   539.65744510
_cell_formula_units_Z   16
loop_
 _symmetry_equiv_pos_site_id
 _symmetry_equiv_pos_as_xyz
  1  'x, y, z'
loop_
 _atom_site_type_symbol
 _atom_site_label
 _atom_site_symmetry_multiplicity
 _atom_site_fract_x
 _atom_site_fract_y
 _atom_site_fract_z
 _atom_site_occupancy
  Ni  Ni0  1  0.00000000  0.71689900  0.39396500  1
  Ni  Ni1  1  0.00000000  0.21689900  0.10603500  1
  Ni  Ni2  1  0.50000000  0.21303700  0.25546100  1
  Ni  Ni3  1  0.50000000  0.00273200  0.64079500  1
  Ni  Ni4  1  0.50000000  0.50273200  0.85920500  1
  Ni  Ni5  1  0.50000000  0.28696300  0.75546100  1
  Ni  Ni6  1  0.00000000  0.00000000  0.50000000  1
  Ni  Ni7  1  0.50000000  0.99726800  0.35920500  1
  Ni  Ni8  1  0.50000000  0.78696300  0.74453900  1
  Ni  Ni9  1  0.00000000  0.78310100  0.89396500  1
  Ni  Ni10  1  0.50000000  0.71303700  0.24453900  1
  Ni  Ni11  1  0.00000000  0.28310100  0.60603500  1
  Ni  Ni12  1  0.50000000  0.49726800  0.14079500  1
  Ni  Ni13  1  0.00000000  0.00000000  0.00000000  1
  Ni  Ni14  1  0.00000000  0.50000000  0.50000000  1
  Ni  Ni15  1  0.00000000  0.50000000  0.00000000  1
  Sn  Sn0  1  0.50000000  0.25480400  0.03920700  1
  Sn  Sn1  1  0.00000000  0.27754100  0.90970300  1
  Sn  Sn2  1  0.00000000  0.72245900  0.09029700  1
  Sn  Sn3  1  0.50000000  0.00085500  0.83914700  1
  Sn  Sn4  1  0.50000000  0.74519600  0.96079300  1
  Sn  Sn5  1  0.00000000  0.77754100  0.59029700  1
  Sn  Sn6  1  0.00000000  0.94706400  0.29000000  1
  Sn  Sn7  1  0.00000000  0.44706400  0.21000000  1
  Sn  Sn8  1  0.00000000  0.55293600  0.79000000  1
  Sn  Sn9  1  0.50000000  0.24519600  0.53920700  1
  Sn  Sn10  1  0.00000000  0.22245900  0.40970300  1
  Sn  Sn11  1  0.50000000  0.75480400  0.46079300  1
  Sn  Sn12  1  0.00000000  0.05293600  0.71000000  1
  Sn  Sn13  1  0.50000000  0.50085500  0.66085300  1
  Sn  Sn14  1  0.50000000  0.99914500  0.16085300  1
  Sn  Sn15  1  0.50000000  0.49914500  0.33914700  1
loop_
_geom_bond_atom_site_label_1
_geom_bond_atom_site_label_2
_geom_bond_distance
_geom_bond_site_symmetry_2
Ni0 Sn10 2.615240 1_555
Ni0 Sn11 2.663682 1_555
Ni0 Sn11 2.663682 1_455
Ni0 Sn10 2.672745 1_565
Ni0 Ni7 2.678762 1_555
Ni0 Ni7 2.678762 1_455
Ni0 Sn15 2.728060 1_455
Ni0 Sn15 2.728060 1_555
Ni0 Sn6 2.860573 1_555
Ni0 Ni14 2.879502 1_555
Ni0 Ni6 3.032605 1_565
Ni1 Sn2 2.615240 1_545
Ni1 Sn0 2.663682 1_455
Ni1 Sn0 2.663682 1_555
Ni1 Sn2 2.672745 1_555
Ni1 Ni12 2.678762 1_455
Ni1 Ni12 2.678762 1_555
Ni1 Sn14 2.728060 1_445
Ni1 Sn14 2.728060 1_545
Ni1 Sn7 2.860573 1_555
Ni1 Ni13 2.879502 1_555
Ni1 Ni15 3.032605 1_555
Ni2 Sn15 2.569393 1_555
Ni2 Sn14 2.612976 1_545
Ni2 Sn6 2.636503 1_545
Ni2 Sn6 2.636503 1_645
Ni2 Sn7 2.656830 1_555
Ni2 Sn7 2.656830 1_655
Ni2 Ni7 2.824665 1_545
Ni3 Sn13 2.652507 1_555
Ni3 Sn13 2.671787 1_545
Ni3 Sn5 2.692384 1_645
Ni3 Sn5 2.692384 1_545
Ni3 Sn12 2.706713 1_655
Ni3 Sn12 2.706713 1_555
Ni3 Ni8 2.824665 1_545
Ni3 Sn9 2.835034 1_555
Ni4 Sn3 2.652507 1_565
Ni4 Sn3 2.671787 1_555
Ni4 Ni9 2.678762 1_555
Ni4 Ni9 2.678762 1_655
Ni4 Sn1 2.692384 1_555
Ni4 Sn1 2.692384 1_655
Ni4 Sn8 2.706713 1_655
Ni4 Sn8 2.706713 1_555
Ni4 Ni5 2.824665 1_555
Ni4 Sn4 2.835034 1_555
Ni5 Sn3 2.569393 1_555
Ni5 Sn13 2.612976 1_555
Ni5 Ni8 2.628818 1_555
Ni5 Ni8 2.628818 1_545
Ni5 Sn8 2.636503 1_555
Ni5 Sn8 2.636503 1_655
Ni5 Sn12 2.656830 1_655
Ni5 Sn12 2.656830 1_555
Ni6 Sn5 2.536381 1_545
Ni6 Sn10 2.536381 1_555
Ni6 Sn11 2.622061 1_545
Ni6 Sn11 2.622061 1_445
Ni6 Sn9 2.622061 1_455
Ni6 Sn9 2.622061 1_555
Ni7 Sn15 2.652507 1_555
Ni7 Sn15 2.671787 1_565
Ni7 Sn10 2.692384 1_565
Ni7 Sn10 2.692384 1_665
Ni7 Sn6 2.706713 1_655
Ni7 Sn6 2.706713 1_555
Ni7 Sn11 2.835034 1_555
Ni8 Sn13 2.569393 1_555
Ni8 Sn3 2.612976 1_565
Ni8 Sn12 2.636503 1_565
Ni8 Sn12 2.636503 1_665
Ni8 Sn8 2.656830 1_555
Ni8 Sn8 2.656830 1_655
Ni9 Sn1 2.615240 1_565
Ni9 Sn4 2.663682 1_555
Ni9 Sn4 2.663682 1_455
Ni9 Sn1 2.672745 1_555
Ni9 Sn3 2.728060 1_465
Ni9 Sn3 2.728060 1_565
Ni9 Sn8 2.860573 1_555
Ni10 Sn14 2.569393 1_555
Ni10 Sn15 2.612976 1_555
Ni10 Ni2 2.628818 1_565
Ni10 Ni2 2.628818 1_555
Ni10 Sn7 2.636503 1_555
Ni10 Sn7 2.636503 1_655
Ni10 Sn6 2.656830 1_655
Ni10 Sn6 2.656830 1_555
Ni10 Ni12 2.824665 1_555
Ni11 Sn5 2.615240 1_555
Ni11 Sn9 2.663682 1_455
Ni11 Sn9 2.663682 1_555
Ni11 Sn5 2.672745 1_545
Ni11 Ni3 2.678762 1_555
Ni11 Ni3 2.678762 1_455
Ni11 Sn13 2.728060 1_555
Ni11 Sn13 2.728060 1_455
Ni11 Sn12 2.860573 1_555
Ni11 Ni14 2.879502 1_555
Ni11 Ni6 3.032605 1_555
Ni12 Sn14 2.652507 1_545
Ni12 Sn14 2.671787 1_555
Ni12 Sn2 2.692384 1_555
Ni12 Sn2 2.692384 1_655
Ni12 Sn7 2.706713 1_555
Ni12 Sn7 2.706713 1_655
Ni12 Sn0 2.835034 1_555
Ni13 Ni15 2.614644 1_555
Ni13 Ni15 2.614644 1_545
Ni13 Sn4 2.646993 1_444
Ni13 Sn4 2.646993 1_544
Ni13 Sn0 2.646993 1_555
Ni13 Sn0 2.646993 1_455
Ni13 Sn1 2.680737 1_554
Ni13 Sn2 2.680737 1_545
Ni13 Ni9 2.879502 1_544
Ni14 Ni6 2.614644 1_555
Ni14 Ni6 2.614644 1_565
Ni14 Sn11 2.646993 1_555
Ni14 Sn9 2.646993 1_455
Ni14 Sn9 2.646993 1_555
Ni14 Sn11 2.646993 1_455
Ni14 Sn5 2.680737 1_555
Ni14 Sn10 2.680737 1_555
Ni15 Sn1 2.536381 1_554
Ni15 Sn2 2.536381 1_555
Ni15 Sn4 2.622061 1_554
Ni15 Sn4 2.622061 1_454
Ni15 Sn0 2.622061 1_555
Ni15 Sn0 2.622061 1_455
Ni15 Ni9 3.032605 1_554
