# generated using pymatgen
data_EuMn4(CuO4)3
_symmetry_space_group_name_H-M   'P 1'
_cell_length_a   6.44350811
_cell_length_b   6.44350827
_cell_length_c   6.44522573
_cell_angle_alpha   109.38311367
_cell_angle_beta   109.51053615
_cell_angle_gamma   109.48775609
_symmetry_Int_Tables_number   1
_chemical_formula_structural   EuMn4(CuO4)3
_chemical_formula_sum   'Eu1 Mn4 Cu3 O12'
_cell_volume   206.07880027
_cell_formula_units_Z   1
loop_
 _symmetry_equiv_pos_site_id
 _symmetry_equiv_pos_as_xyz
  1  'x, y, z'
loop_
 _atom_site_type_symbol
 _atom_site_label
 _atom_site_symmetry_multiplicity
 _atom_site_fract_x
 _atom_site_fract_y
 _atom_site_fract_z
 _atom_site_occupancy
  Eu  Eu0  1  0.00000100  0.00002500  0.99999900  1
  Mn  Mn0  1  0.99997700  0.99997800  0.49998200  1
  Mn  Mn1  1  0.49998200  0.99998600  0.99998900  1
  Mn  Mn2  1  0.50002200  0.50002700  0.50002100  1
  Mn  Mn3  1  0.00001100  0.50000900  0.00000100  1
  Cu  Cu0  1  0.49999300  0.99996300  0.50003300  1
  Cu  Cu1  1  0.50003500  0.50004900  0.00005700  1
  Cu  Cu2  1  0.00000800  0.49999600  0.49997800  1
  O  O0  1  0.17110300  0.69190400  0.86303300  1
  O  O1  1  0.82887600  0.30805700  0.13689100  1
  O  O2  1  0.47834100  0.17034500  0.30789900  1
  O  O3  1  0.86250500  0.17067300  0.69193500  1
  O  O4  1  0.82960100  0.69264800  0.52225600  1
  O  O5  1  0.17038900  0.30729300  0.47765800  1
  O  O6  1  0.30744600  0.47790700  0.17059800  1
  O  O7  1  0.52166000  0.82965200  0.69211100  1
  O  O8  1  0.69265200  0.86316800  0.17066500  1
  O  O9  1  0.13747700  0.82932200  0.30807500  1
  O  O10  1  0.69258900  0.52217600  0.82945100  1
  O  O11  1  0.30733300  0.13682200  0.82936800  1
loop_
_geom_bond_atom_site_label_1
_geom_bond_atom_site_label_2
_geom_bond_distance
_geom_bond_site_symmetry_2
Eu0 O11 2.615627 1_555
Eu0 O10 2.615736 1_445
Eu0 O6 2.615877 1_556
Eu0 O8 2.615977 1_446
Eu0 O5 2.617122 1_556
Eu0 O4 2.617688 1_445
Eu0 O7 2.617994 1_445
Eu0 O2 2.618083 1_556
Eu0 O3 2.619253 1_455
Eu0 O9 2.619563 1_546
Eu0 O1 2.623243 1_456
Eu0 O0 2.623685 1_545
Mn0 O8 1.997347 1_555
Mn0 O11 1.997652 1_665
Mn0 O4 1.997700 1_555
Mn0 O5 1.997864 1_665
Mn0 O9 2.000811 1_655
Mn0 O3 2.000957 1_565
Mn1 O11 1.997413 1_565
Mn1 O8 1.997569 1_556
Mn1 O0 1.997814 1_555
Mn1 O1 1.997920 1_566
Mn1 O7 2.000887 1_555
Mn1 O2 2.000959 1_566
Mn2 O10 1.997274 1_555
Mn2 O6 1.997342 1_555
Mn2 O4 1.997725 1_555
Mn2 O5 1.997788 1_555
Mn2 O7 2.001265 1_555
Mn2 O2 2.001485 1_555
Mn3 O1 1.997094 1_455
Mn3 O0 1.997162 1_554
Mn3 O6 1.997680 1_555
Mn3 O10 1.997782 1_454
Mn3 O3 2.001075 1_454
Mn3 O9 2.001076 1_555
Cu0 O7 1.909171 1_555
Cu0 O2 1.909833 1_565
Cu0 O3 1.910173 1_565
Cu0 O9 1.910233 1_555
Cu1 O6 1.914568 1_555
Cu1 O10 1.914721 1_554
Cu1 O8 1.914973 1_555
Cu1 O11 1.915542 1_554
Cu2 O4 1.914067 1_455
Cu2 O5 1.914212 1_555
Cu2 O0 1.914841 1_555
Cu2 O1 1.915007 1_455
