# generated using pymatgen
data_Ca6Mg5Al2Si11O36
_symmetry_space_group_name_H-M   'P 1'
_cell_length_a   6.65053100
_cell_length_b   6.65476251
_cell_length_c   15.97132531
_cell_angle_alpha   78.01366495
_cell_angle_beta   78.21072673
_cell_angle_gamma   84.42866036
_symmetry_Int_Tables_number   1
_chemical_formula_structural   Ca6Mg5Al2Si11O36
_chemical_formula_sum   'Ca6 Mg5 Al2 Si11 O36'
_cell_volume   675.75385192
_cell_formula_units_Z   1
loop_
 _symmetry_equiv_pos_site_id
 _symmetry_equiv_pos_as_xyz
  1  'x, y, z'
loop_
 _atom_site_type_symbol
 _atom_site_label
 _atom_site_symmetry_multiplicity
 _atom_site_fract_x
 _atom_site_fract_y
 _atom_site_fract_z
 _atom_site_occupancy
  Ca  Ca0  1  0.69999200  0.30156200  0.91864600  1
  Ca  Ca1  1  0.29588000  0.69770100  0.75051600  1
  Ca  Ca2  1  0.69741900  0.30077200  0.58326700  1
  Ca  Ca3  1  0.30196100  0.70227100  0.41513600  1
  Ca  Ca4  1  0.69921900  0.30415400  0.25034900  1
  Ca  Ca5  1  0.29957200  0.69354700  0.08520200  1
  Mg  Mg0  1  0.09253400  0.90514400  0.91654300  1
  Mg  Mg1  1  0.90550400  0.09310100  0.75000500  1
  Mg  Mg2  1  0.09081300  0.90823000  0.58314400  1
  Mg  Mg3  1  0.90745700  0.09102700  0.41669900  1
  Mg  Mg4  1  0.09097600  0.90802100  0.24824000  1
  Al  Al0  1  0.91349900  0.09176000  0.08249600  1
  Al  Al1  1  0.38871600  0.18727800  0.09159800  1
  Si  Si0  1  0.62023300  0.80803000  0.91050300  1
  Si  Si1  1  0.19693100  0.38019800  0.92533200  1
  Si  Si2  1  0.80566300  0.62016800  0.74433700  1
  Si  Si3  1  0.37668800  0.19321800  0.75597600  1
  Si  Si4  1  0.61863500  0.80730500  0.57769900  1
  Si  Si5  1  0.19153300  0.38067700  0.58905900  1
  Si  Si6  1  0.80709800  0.62179300  0.41042800  1
  Si  Si7  1  0.37876000  0.19434100  0.42361600  1
  Si  Si8  1  0.62361600  0.80835400  0.24055900  1
  Si  Si9  1  0.19352600  0.37964400  0.25745900  1
  Si  Si10  1  0.81053000  0.61575500  0.07586900  1
  O  O0  1  0.67099500  0.63132000  0.99885000  1
  O  O1  1  0.38619100  0.88608900  0.94239500  1
  O  O2  1  0.79626900  0.97319600  0.88060100  1
  O  O3  1  0.03118400  0.19741500  0.96040600  1
  O  O4  1  0.10232900  0.60927700  0.89338200  1
  O  O5  1  0.62973800  0.66973000  0.83240900  1
  O  O6  1  0.36152600  0.33311000  0.83356800  1
  O  O7  1  0.88706700  0.38677900  0.77544100  1
  O  O8  1  0.97048200  0.79708400  0.71349700  1
  O  O9  1  0.20169100  0.02670600  0.78647600  1
  O  O10  1  0.61094200  0.11451500  0.72542300  1
  O  O11  1  0.66663500  0.63001000  0.66614200  1
  O  O12  1  0.32888900  0.37073500  0.66758200  1
  O  O13  1  0.38481200  0.88669900  0.60856700  1
  O  O14  1  0.79455600  0.97279900  0.54735200  1
  O  O15  1  0.02606500  0.20452900  0.61901000  1
  O  O16  1  0.11219700  0.61412800  0.55692600  1
  O  O17  1  0.63047100  0.66960800  0.49897900  1
  O  O18  1  0.37180700  0.33015500  0.50228300  1
  O  O19  1  0.88145900  0.38625400  0.44076500  1
  O  O20  1  0.97347800  0.79685300  0.38026000  1
  O  O21  1  0.20356600  0.02776100  0.45289200  1
  O  O22  1  0.61128600  0.11230200  0.39047200  1
  O  O23  1  0.66783400  0.64032700  0.33151000  1
  O  O24  1  0.32523000  0.37676300  0.33838500  1
  O  O25  1  0.38821400  0.88601800  0.26814000  1
  O  O26  1  0.79916100  0.97769400  0.20677200  1
  O  O27  1  0.02895800  0.20041000  0.28710300  1
  O  O28  1  0.09939100  0.60997900  0.22703300  1
  O  O29  1  0.64090700  0.65958600  0.16583800  1
  O  O30  1  0.37643400  0.33665800  0.17405300  1
  O  O31  1  0.89119800  0.37779200  0.10413600  1
  O  O32  1  0.97016400  0.79970300  0.04887900  1
  O  O33  1  0.17815000  0.02830000  0.11652700  1
  O  O34  1  0.64806800  0.10926900  0.05923100  1
  O  O35  1  0.34589900  0.37639500  0.99603600  1
loop_
_geom_bond_atom_site_label_1
_geom_bond_atom_site_label_2
_geom_bond_distance
_geom_bond_site_symmetry_2
Ca0 O34 2.318152 1_556
Ca0 O7 2.352902 1_555
Ca0 O2 2.382253 1_545
Ca0 O3 2.426629 1_655
Ca0 O35 2.481914 1_555
Ca0 O5 2.599463 1_555
Ca0 O0 2.734627 1_555
Ca0 O6 2.827885 1_555
Ca1 O13 2.341725 1_555
Ca1 O8 2.356413 1_455
Ca1 O4 2.366182 1_555
Ca1 O9 2.371691 1_565
Ca1 O6 2.555592 1_555
Ca1 O11 2.603332 1_555
Ca1 O12 2.742746 1_555
Ca1 O5 2.771378 1_555
Ca2 O10 2.336210 1_555
Ca2 O19 2.336826 1_555
Ca2 O15 2.366310 1_655
Ca2 O14 2.367454 1_545
Ca2 O17 2.587547 1_555
Ca2 O12 2.593716 1_555
Ca2 O18 2.712524 1_555
Ca2 O11 2.757011 1_555
Ca3 O16 2.342916 1_555
Ca3 O20 2.358703 1_455
Ca3 O21 2.364256 1_565
Ca3 O25 2.393650 1_555
Ca3 O23 2.565237 1_555
Ca3 O18 2.625744 1_555
Ca3 O24 2.679404 1_555
Ca3 O17 2.756076 1_555
Ca4 O22 2.324619 1_555
Ca4 O27 2.386193 1_655
Ca4 O31 2.398196 1_555
Ca4 O26 2.409276 1_545
Ca4 O29 2.505327 1_555
Ca4 O30 2.647488 1_555
Ca4 O24 2.648878 1_555
Ca4 O23 2.780637 1_555
Ca5 O1 2.359730 1_554
Ca5 O28 2.366672 1_555
Ca5 O32 2.384017 1_455
Ca5 O33 2.411139 1_565
Ca5 O30 2.564476 1_555
Ca5 O0 2.611851 1_554
Ca5 O35 2.742328 1_554
Ca5 O29 2.799456 1_555
Mg0 O1 2.064059 1_555
Mg0 O4 2.070147 1_555
Mg0 O9 2.072819 1_565
Mg0 O32 2.100930 1_456
Mg0 O2 2.144227 1_455
Mg0 O3 2.176076 1_565
Mg1 O10 2.061296 1_555
Mg1 O7 2.064576 1_555
Mg1 O2 2.077758 1_545
Mg1 O15 2.086980 1_655
Mg1 O9 2.146531 1_655
Mg1 O8 2.148524 1_545
Mg2 O13 2.062582 1_555
Mg2 O16 2.070782 1_555
Mg2 O21 2.076955 1_565
Mg2 O8 2.077591 1_455
Mg2 O14 2.141772 1_455
Mg2 O15 2.145935 1_565
Mg3 O19 2.063513 1_555
Mg3 O27 2.066866 1_655
Mg3 O14 2.080786 1_545
Mg3 O22 2.081721 1_555
Mg3 O20 2.136777 1_545
Mg3 O21 2.143025 1_655
Mg4 O25 2.052159 1_555
Mg4 O33 2.072301 1_565
Mg4 O28 2.073995 1_555
Mg4 O20 2.096402 1_455
Mg4 O27 2.140709 1_565
Mg4 O26 2.154759 1_455
Al0 O34 1.864908 1_555
Al0 O33 1.929468 1_655
Al0 O3 1.955238 1_654
Al0 O31 1.990517 1_555
Al0 O26 1.990880 1_545
Al0 O32 2.101497 1_545
Al1 O34 1.756422 1_555
Al1 O33 1.767409 1_555
Al1 O30 1.792536 1_555
Al1 O35 1.817856 1_554
O0 Si10 1.667296 1_556
O0 Si0 1.707686 1_555
O1 Si0 1.606528 1_555
O2 Si0 1.615600 1_555
O3 Si1 1.653317 1_555
O4 Si1 1.613092 1_555
O5 Si0 1.685230 1_555
O5 Si2 1.703393 1_555
O6 Si3 1.680019 1_555
O6 Si1 1.706750 1_555
O7 Si2 1.605709 1_555
O8 Si2 1.618434 1_555
O9 Si3 1.616849 1_555
O10 Si3 1.605179 1_555
O11 Si2 1.686715 1_555
O11 Si4 1.705332 1_555
O12 Si5 1.683325 1_555
O12 Si3 1.705123 1_555
O13 Si4 1.604919 1_555
O14 Si4 1.616606 1_555
O15 Si5 1.617525 1_555
O16 Si5 1.604882 1_555
O17 Si4 1.688391 1_555
O17 Si6 1.707851 1_555
O18 Si7 1.684458 1_555
O18 Si5 1.705149 1_555
O19 Si6 1.602560 1_555
O20 Si6 1.616481 1_555
O21 Si7 1.618002 1_555
O22 Si7 1.609752 1_555
O23 Si6 1.688775 1_555
O23 Si8 1.697918 1_555
O24 Si7 1.697410 1_555
O24 Si9 1.699166 1_555
O25 Si8 1.602423 1_555
O26 Si8 1.633879 1_555
O27 Si9 1.628454 1_555
O28 Si9 1.614381 1_555
O29 Si8 1.682289 1_555
O29 Si10 1.694175 1_555
O30 Si9 1.662713 1_555
O31 Si10 1.623712 1_555
O32 Si10 1.630208 1_555
O35 Si1 1.642482 1_555
