# generated using pymatgen
data_ZrCuF3
_symmetry_space_group_name_H-M   'P 1'
_cell_length_a   3.39926000
_cell_length_b   5.54650040
_cell_length_c   19.65150109
_cell_angle_alpha   95.41928911
_cell_angle_beta   91.20517636
_cell_angle_gamma   105.68832046
_symmetry_Int_Tables_number   1
_chemical_formula_structural   ZrCuF3
_chemical_formula_sum   'Zr4 Cu4 F12'
_cell_volume   354.69286362
_cell_formula_units_Z   4
loop_
 _symmetry_equiv_pos_site_id
 _symmetry_equiv_pos_as_xyz
  1  'x, y, z'
loop_
 _atom_site_type_symbol
 _atom_site_label
 _atom_site_symmetry_multiplicity
 _atom_site_fract_x
 _atom_site_fract_y
 _atom_site_fract_z
 _atom_site_occupancy
  Zr  Zr0  1  0.63704800  0.22653600  0.88589000  1
  Zr  Zr1  1  0.80079100  0.72917600  0.63976100  1
  Zr  Zr2  1  0.03594400  0.22430800  0.39186900  1
  Zr  Zr3  1  0.27974600  0.71828100  0.13923100  1
  Cu  Cu0  1  0.04221400  0.04675400  0.97514800  1
  Cu  Cu1  1  0.27097000  0.56838000  0.73278100  1
  Cu  Cu2  1  0.51144700  0.03249700  0.47950100  1
  Cu  Cu3  1  0.76353100  0.53489600  0.22739800  1
  F  F0  1  0.35010900  0.92755000  0.82280800  1
  F  F1  1  0.10689700  0.35584100  0.81896200  1
  F  F2  1  0.86603500  0.44902800  0.57615900  1
  F  F3  1  0.63713600  0.56340700  0.92684700  1
  F  F4  1  0.10047900  0.94475400  0.32882900  1
  F  F5  1  0.48218600  0.86552500  0.56798800  1
  F  F6  1  0.14640800  0.06299100  0.67520700  1
  F  F7  1  0.32511500  0.42503300  0.07891600  1
  F  F8  1  0.79371900  0.37218500  0.31447300  1
  F  F9  1  0.43875900  0.54246200  0.42784200  1
  F  F10  1  0.62445600  0.04987400  0.17873800  1
  F  F11  1  0.03640900  0.86172100  0.06105300  1
loop_
_geom_bond_atom_site_label_1
_geom_bond_atom_site_label_2
_geom_bond_distance
_geom_bond_site_symmetry_2
Cu0 F11 2.054567 1_546
Cu1 F1 2.151801 1_555
Cu1 F0 2.489048 1_555
Cu1 Zr1 2.637857 1_555
Cu1 Zr1 2.765372 1_455
Cu2 F5 2.037891 1_545
Cu3 F8 2.021741 1_555
F0 Zr0 1.980968 1_565
F1 Zr0 2.107635 1_455
F1 Zr0 2.503855 1_555
F2 Zr1 1.963921 1_555
F3 Zr0 1.963304 1_555
F4 Zr2 1.954374 1_565
F5 Zr1 2.077112 1_555
F6 Zr1 1.959367 1_445
F7 Zr3 1.963002 1_555
F8 Zr2 2.052354 1_655
F9 Zr2 1.976238 1_555
F10 Zr3 1.971014 1_545
F11 Zr3 2.052010 1_555
