# generated using pymatgen
data_Er2S3
_symmetry_space_group_name_H-M   'P 1'
_cell_length_a   13.65443409
_cell_length_b   13.65443409
_cell_length_c   13.65443409
_cell_angle_alpha   144.83350570
_cell_angle_beta   144.83350570
_cell_angle_gamma   50.58270816
_symmetry_Int_Tables_number   1
_chemical_formula_structural   Er2S3
_chemical_formula_sum   'Er16 S24'
_cell_volume   840.22623065
_cell_formula_units_Z   8
loop_
 _symmetry_equiv_pos_site_id
 _symmetry_equiv_pos_as_xyz
  1  'x, y, z'
loop_
 _atom_site_type_symbol
 _atom_site_label
 _atom_site_symmetry_multiplicity
 _atom_site_fract_x
 _atom_site_fract_y
 _atom_site_fract_z
 _atom_site_occupancy
  Er  Er0  1  0.40130300  0.28029200  0.60311400  1
  Er  Er1  1  0.08317600  0.58317600  0.50000000  1
  Er  Er2  1  0.37500000  0.00693900  0.13193900  1
  Er  Er3  1  0.66682400  0.66682400  0.00000000  1
  Er  Er4  1  0.07282200  0.96970800  0.62101100  1
  Er  Er5  1  0.34869700  0.45181100  0.37898900  1
  Er  Er6  1  0.87500000  0.24306100  0.86806100  1
  Er  Er7  1  0.03029200  0.65130300  0.10311400  1
  Er  Er8  1  0.75693900  0.62500000  0.63193900  1
  Er  Er9  1  0.33317600  0.33317600  0.00000000  1
  Er  Er10  1  0.54818900  0.92717800  0.89688600  1
  Er  Er11  1  0.99306100  0.12500000  0.36806100  1
  Er  Er12  1  0.41682400  0.91682400  0.50000000  1
  Er  Er13  1  0.71970800  0.32282200  0.12101100  1
  Er  Er14  1  0.20181100  0.59869700  0.87898900  1
  Er  Er15  1  0.67717800  0.79818900  0.39688600  1
  S  S0  1  0.74537600  0.49925400  0.11357500  1
  S  S1  1  0.17502400  0.28941600  0.25367800  1
  S  S2  1  0.38567900  0.63180100  0.88642500  1
  S  S3  1  0.36432100  0.75074600  0.74612200  1
  S  S4  1  0.00462400  0.61819900  0.25387800  1
  S  S5  1  0.03573800  0.92134600  0.74632200  1
  S  S6  1  0.40589700  0.15346500  0.09446900  1
  S  S7  1  0.71426200  0.96058400  0.38560800  1
  S  S8  1  0.84653500  0.94100300  0.25243100  1
  S  S9  1  0.05899700  0.31142800  0.90553100  1
  S  S10  1  0.57497600  0.32865400  0.61439200  1
  S  S11  1  0.03941600  0.42502400  0.75367800  1
  S  S12  1  0.67134600  0.28573800  0.24632200  1
  S  S13  1  0.68857200  0.59410300  0.74756900  1
  S  S14  1  0.07865400  0.82497600  0.11439200  1
  S  S15  1  0.38180100  0.63567900  0.38642500  1
  S  S16  1  0.50074600  0.61432100  0.24612200  1
  S  S17  1  0.71058400  0.96426200  0.88560800  1
  S  S18  1  0.24925400  0.99537500  0.61357500  1
  S  S19  1  0.69100300  0.09653500  0.75243100  1
  S  S20  1  0.34410300  0.93857200  0.24756900  1
  S  S21  1  0.36819900  0.25462400  0.75387800  1
  S  S22  1  0.06142800  0.30899700  0.40553100  1
  S  S23  1  0.90346500  0.65589700  0.59446900  1
loop_
_geom_bond_atom_site_label_1
_geom_bond_atom_site_label_2
_geom_bond_distance
_geom_bond_site_symmetry_2
Er0 S10 2.703461 1_555
Er0 S20 2.709835 1_545
Er0 S21 2.732610 1_555
Er0 S2 2.781968 1_555
Er0 S22 2.813867 1_555
Er0 S19 2.945082 1_555
Er0 S1 2.950911 1_555
Er0 S0 3.133842 1_556
Er1 S5 2.724932 1_555
Er1 S1 2.724932 1_555
Er1 S0 2.732146 1_455
Er1 S2 2.732146 1_555
Er1 S22 2.942426 1_555
Er1 S23 2.942439 1_455
Er1 S3 2.959053 1_555
Er1 S4 2.959053 1_555
Er2 S7 2.735792 1_545
Er2 S5 2.735792 1_544
Er2 S6 2.746104 1_555
Er2 S20 2.746118 1_545
Er2 S10 2.942735 1_555
Er2 S1 2.942735 1_555
Er2 S2 3.045154 1_544
Er2 S3 3.045154 1_544
Er3 S10 2.724932 1_554
Er3 S7 2.724932 1_555
Er3 S4 2.732146 1_655
Er3 S3 2.732146 1_554
Er3 S13 2.942426 1_554
Er3 S8 2.942435 1_555
Er3 S0 2.959053 1_555
Er3 S2 2.959053 1_554
Er4 S5 2.703461 1_555
Er4 S9 2.709835 1_565
Er4 S18 2.732601 1_555
Er4 S4 2.781968 1_555
Er4 S8 2.813871 1_455
Er4 S6 2.945089 1_566
Er4 S7 2.950911 1_455
Er4 S3 3.133842 1_555
Er5 S1 2.703461 1_555
Er5 S6 2.709837 1_555
Er5 S15 2.732610 1_555
Er5 S3 2.781968 1_555
Er5 S13 2.813867 1_555
Er5 S9 2.945090 1_554
Er5 S10 2.950911 1_555
Er5 S4 3.133842 1_555
Er6 S10 2.735792 1_555
Er6 S1 2.735792 1_656
Er6 S19 2.746106 1_555
Er6 S9 2.746118 1_655
Er6 S7 2.942735 1_545
Er6 S5 2.942735 1_645
Er6 S0 3.045154 1_556
Er6 S4 3.045154 1_656
Er7 S14 2.703461 1_555
Er7 S13 2.709835 1_454
Er7 S4 2.732610 1_555
Er7 S15 2.781968 1_555
Er7 S9 2.813867 1_554
Er7 S8 2.945082 1_455
Er7 S11 2.950911 1_554
Er7 S18 3.133839 1_555
Er8 S17 2.735792 1_555
Er8 S12 2.735792 1_555
Er8 S23 2.746104 1_555
Er8 S13 2.746118 1_555
Er8 S11 2.942735 1_655
Er8 S14 2.942735 1_656
Er8 S15 3.045154 1_555
Er8 S16 3.045154 1_555
Er9 S12 2.724932 1_555
Er9 S11 2.724932 1_554
Er9 S15 2.732146 1_555
Er9 S18 2.732152 1_544
Er9 S9 2.942426 1_554
Er9 S6 2.942439 1_555
Er9 S21 2.959053 1_554
Er9 S16 2.959053 1_555
Er10 S17 2.703461 1_555
Er10 S8 2.709836 1_556
Er10 S3 2.732610 1_555
Er10 S18 2.781961 1_555
Er10 S6 2.813869 1_566
Er10 S13 2.945090 1_555
Er10 S12 2.950911 1_566
Er10 S15 3.133842 1_555
Er11 S11 2.735792 1_655
Er11 S14 2.735792 1_645
Er11 S8 2.746106 1_545
Er11 S22 2.746118 1_655
Er11 S12 2.942735 1_555
Er11 S17 2.942735 1_544
Er11 S21 3.045154 1_655
Er11 S18 3.045164 1_645
Er12 S17 2.724932 1_555
Er12 S14 2.724932 1_555
Er12 S21 2.732146 1_565
Er12 S16 2.732146 1_555
Er12 S20 2.942426 1_555
Er12 S19 2.942435 1_565
Er12 S15 2.959053 1_555
Er12 S18 2.959061 1_555
Er13 S12 2.703461 1_555
Er13 S22 2.709835 1_655
Er13 S0 2.732610 1_555
Er13 S21 2.781968 1_554
Er13 S19 2.813871 1_554
Er13 S23 2.945089 1_555
Er13 S17 2.950911 1_544
Er13 S16 3.133842 1_555
Er14 S11 2.703461 1_555
Er14 S23 2.709837 1_455
Er14 S2 2.732610 1_555
Er14 S16 2.781968 1_556
Er14 S20 2.813867 1_556
Er14 S22 2.945090 1_555
Er14 S14 2.950911 1_556
Er14 S21 3.133842 1_555
Er15 S7 2.703461 1_555
Er15 S19 2.709836 1_565
Er15 S16 2.732610 1_555
Er15 S0 2.781968 1_555
Er15 S23 2.813869 1_555
Er15 S20 2.945090 1_555
Er15 S5 2.950911 1_655
Er15 S2 3.133842 1_554
