# generated using pymatgen
data_RbGeSbO5
_symmetry_space_group_name_H-M   'P 1'
_cell_length_a   6.81385998
_cell_length_b   10.94035530
_cell_length_c   13.61865595
_cell_angle_alpha   90.00000000
_cell_angle_beta   90.00000000
_cell_angle_gamma   90.00000000
_symmetry_Int_Tables_number   1
_chemical_formula_structural   RbGeSbO5
_chemical_formula_sum   'Rb8 Ge8 Sb8 O40'
_cell_volume   1015.21699575
_cell_formula_units_Z   8
loop_
 _symmetry_equiv_pos_site_id
 _symmetry_equiv_pos_as_xyz
  1  'x, y, z'
loop_
 _atom_site_type_symbol
 _atom_site_label
 _atom_site_symmetry_multiplicity
 _atom_site_fract_x
 _atom_site_fract_y
 _atom_site_fract_z
 _atom_site_occupancy
  O  O0  1  0.54609782  0.87251888  0.27810628  1
  O  O1  1  0.45390218  0.37251888  0.72189372  1
  O  O2  1  0.95390218  0.87251888  0.77810628  1
  O  O3  1  0.04609782  0.37251888  0.22189372  1
  O  O4  1  0.46810345  0.12502859  0.27591236  1
  O  O5  1  0.53189655  0.62502859  0.72408764  1
  O  O6  1  0.03189655  0.12502859  0.77591236  1
  O  O7  1  0.96810345  0.62502859  0.22408764  1
  O  O8  1  0.95866022  0.87618461  0.23797407  1
  O  O9  1  0.04133978  0.37618461  0.76202593  1
  O  O10  1  0.54133978  0.87618461  0.73797407  1
  O  O11  1  0.45866022  0.37618461  0.26202593  1
  O  O12  1  0.05096994  0.11789949  0.23306637  1
  O  O13  1  0.94903006  0.61789949  0.76693363  1
  O  O14  1  0.44903006  0.11789949  0.73306637  1
  O  O15  1  0.66606247  0.72702733  0.89772002  1
  O  O16  1  0.55096994  0.61789949  0.26693363  1
  O  O17  1  0.78696930  0.46629859  0.60344494  1
  O  O18  1  0.28696930  0.96629859  0.89655506  1
  O  O19  1  0.71303070  0.46629859  0.10344494  1
  O  O20  1  0.80103359  0.03843475  0.39129545  1
  O  O21  1  0.19896641  0.53843475  0.60870455  1
  O  O22  1  0.69896641  0.03843475  0.89129545  1
  O  O23  1  0.30103359  0.53843475  0.10870455  1
  O  O24  1  0.49413952  0.12977335  0.48492545  1
  O  O25  1  0.50586048  0.62977335  0.51507455  1
  O  O26  1  0.00586048  0.12977335  0.98492545  1
  O  O27  1  0.99413952  0.62977335  0.01507455  1
  O  O28  1  0.46134306  0.38405814  0.50803089  1
  O  O29  1  0.53865694  0.88405814  0.49196911  1
  O  O30  1  0.03865694  0.38405814  0.00803089  1
  O  O31  1  0.96134306  0.88405814  0.99196911  1
  O  O32  1  0.17691377  0.26525692  0.39095029  1
  O  O33  1  0.82308623  0.76525692  0.60904971  1
  O  O34  1  0.32308623  0.26525692  0.89095029  1
  O  O35  1  0.67691377  0.76525692  0.10904971  1
  O  O36  1  0.16606247  0.22702733  0.60227998  1
  O  O37  1  0.83393753  0.72702733  0.39772002  1
  O  O38  1  0.33393753  0.22702733  0.10227998  1
  O  O39  1  0.21303070  0.96629859  0.39655506  1
  Ge  Ge0  1  0.00915955  0.99874880  0.32019941  1
  Ge  Ge1  1  0.99084045  0.49874880  0.67980059  1
  Ge  Ge2  1  0.49084045  0.99874880  0.82019941  1
  Ge  Ge3  1  0.50915955  0.49874880  0.17980059  1
  Ge  Ge4  1  0.82033133  0.74812951  0.00109086  1
  Ge  Ge5  1  0.17966867  0.24812951  0.99890914  1
  Ge  Ge6  1  0.67966867  0.74812951  0.50109086  1
  Ge  Ge7  1  0.32033133  0.24812951  0.49890914  1
  Rb  Rb0  1  0.19859480  0.56715534  0.39001437  1
  Rb  Rb1  1  0.80140520  0.06715534  0.60998563  1
  Rb  Rb2  1  0.30140520  0.56715534  0.89001437  1
  Rb  Rb3  1  0.69859480  0.06715534  0.10998563  1
  Rb  Rb4  1  0.27822379  0.82227464  0.11378926  1
  Rb  Rb5  1  0.72177621  0.32227464  0.88621074  1
  Rb  Rb6  1  0.22177621  0.82227464  0.61378926  1
  Rb  Rb7  1  0.77822379  0.32227464  0.38621074  1
  Sb  Sb0  1  0.75582703  0.74632990  0.25381723  1
  Sb  Sb1  1  0.24417297  0.24632990  0.74618277  1
  Sb  Sb2  1  0.74417297  0.74632990  0.75381723  1
  Sb  Sb3  1  0.25582703  0.24632990  0.24618277  1
  Sb  Sb4  1  0.00576780  0.49998114  0.11948894  1
  Sb  Sb5  1  0.99423220  -0.00001886  0.88051106  1
  Sb  Sb6  1  0.49423220  0.49998114  0.61948894  1
  Sb  Sb7  1  0.50576780  -0.00001886  0.38051106  1
loop_
_geom_bond_atom_site_label_1
_geom_bond_atom_site_label_2
_geom_bond_distance
_geom_bond_site_symmetry_2
O0 Sb7 1.991243 1_565
O0 Sb0 2.014341 1_555
O0 Rb4 2.939620 1_555
O0 Rb3 3.294873 1_565
O1 Sb6 1.991243 1_555
O1 Sb1 2.014341 1_555
O1 Rb5 2.939620 1_555
O1 Rb2 3.294873 1_555
O2 Sb5 1.991243 1_565
O2 Sb2 2.014341 1_555
O2 Rb6 2.939620 1_655
O2 Rb1 3.294873 1_565
O3 Sb4 1.991243 1_555
O3 Sb3 2.014341 1_555
O3 Rb7 2.939620 1_455
O3 Rb0 3.294873 1_555
O4 Sb7 1.991644 1_555
O4 Sb3 2.004296 1_555
O4 Rb3 2.823775 1_555
O4 Rb7 3.373177 1_555
O5 Sb6 1.991644 1_555
O5 Sb2 2.004296 1_555
O5 Rb2 2.823775 1_555
O5 Rb6 3.373177 1_555
O6 Sb5 1.991644 1_455
O6 Sb1 2.004296 1_555
O6 Rb1 2.823775 1_455
O6 Rb5 3.373177 1_455
O7 Sb4 1.991644 1_655
O7 Sb0 2.004296 1_555
O7 Rb0 2.823775 1_655
O7 Rb4 3.373177 1_655
O8 Sb0 1.993729 1_555
O8 Rb4 2.819478 1_655
O8 Rb3 3.247066 1_565
O9 Sb1 1.993729 1_555
O9 Rb5 2.819478 1_455
O9 Rb2 3.247066 1_555
O10 Sb2 1.993729 1_555
O10 Rb6 2.819478 1_555
O10 Rb1 3.247066 1_565
O11 Sb3 1.993729 1_555
O11 Rb7 2.819478 1_555
O11 Rb0 3.247066 1_555
O12 Sb3 1.988615 1_555
O12 Rb3 2.980402 1_455
O13 Sb2 1.988615 1_555
O13 Rb2 2.980402 1_655
O14 Sb1 1.988615 1_555
O14 Rb1 2.980402 1_555
O15 Sb2 2.041700 1_555
O15 Rb2 3.040405 1_555
O16 Sb0 1.988615 1_555
O16 Rb0 2.980402 1_555
O17 Sb6 2.040157 1_555
O17 Rb7 3.352410 1_555
O18 Sb5 2.040157 1_465
O18 Rb4 3.352410 1_556
O19 Sb4 2.040157 1_655
O19 Rb5 3.352410 1_554
O20 Sb7 2.060654 1_555
O20 Rb1 2.994797 1_555
O20 Rb7 3.109967 1_555
O21 Sb6 2.060654 1_555
O21 Rb0 2.994797 1_555
O21 Rb6 3.109967 1_555
O22 Sb5 2.060654 1_555
O22 Rb3 2.994797 1_556
O22 Rb5 3.109967 1_555
O23 Sb4 2.060654 1_555
O23 Rb2 2.994797 1_554
O23 Rb4 3.109967 1_555
O24 Sb7 2.011129 1_555
O24 Rb1 2.784506 1_555
O24 Rb7 3.160642 1_555
O25 Sb6 2.011129 1_555
O25 Rb0 2.784506 1_555
O25 Rb6 3.160642 1_555
O26 Sb5 2.011129 1_455
O26 Rb3 2.784506 1_456
O26 Rb5 3.160642 1_455
O27 Sb4 2.011129 1_655
O27 Rb2 2.784506 1_654
O27 Rb4 3.160642 1_655
O28 Sb6 1.990653 1_555
O28 Rb7 2.805587 1_555
O28 Rb0 3.130665 1_555
O29 Sb7 1.990653 1_565
O29 Rb6 2.805587 1_555
O29 Rb1 3.130665 1_565
O30 Sb4 1.990653 1_555
O30 Rb5 2.805587 1_454
O30 Rb2 3.130665 1_554
O31 Sb5 1.990653 1_565
O31 Rb4 2.805587 1_656
O31 Rb3 3.130665 1_566
O32 Sb3 2.054013 1_555
O32 Rb7 2.788063 1_455
O32 Rb0 3.306203 1_555
O33 Sb2 2.054013 1_555
O33 Rb6 2.788063 1_655
O33 Rb1 3.306203 1_565
O34 Sb1 2.054013 1_555
O34 Rb5 2.788063 1_555
O34 Rb2 3.306203 1_555
O35 Sb0 2.054013 1_555
O35 Rb4 2.788063 1_555
O35 Rb3 3.306203 1_565
O36 Sb1 2.041700 1_555
O36 Rb1 3.040405 1_455
O37 Sb0 2.041700 1_555
O37 Rb0 3.040405 1_655
O38 Sb3 2.041700 1_555
O38 Rb3 3.040405 1_555
O39 Sb7 2.040157 1_565
O39 Rb6 3.352410 1_555
Ge0 O39 1.771182 1_555
Ge0 O20 1.771189 1_465
Ge0 O8 1.780548 1_455
Ge0 O12 1.785640 1_565
Ge1 O17 1.771182 1_555
Ge1 O21 1.771189 1_655
Ge1 O9 1.780548 1_655
Ge1 O13 1.785640 1_555
Ge2 O18 1.771182 1_555
Ge2 O22 1.771189 1_565
Ge2 O10 1.780548 1_555
Ge2 O14 1.785640 1_565
Ge3 O19 1.771182 1_555
Ge3 O23 1.771189 1_555
Ge3 O11 1.780548 1_555
Ge3 O16 1.785640 1_555
Ge4 O27 1.765079 1_555
Ge4 O15 1.772025 1_554
Ge4 O31 1.774859 1_554
Ge4 O35 1.775312 1_555
Ge5 O26 1.765079 1_555
Ge5 O38 1.772025 1_556
Ge5 O30 1.774859 1_556
Ge5 O34 1.775312 1_555
Ge6 O25 1.765079 1_555
Ge6 O37 1.772025 1_555
Ge6 O29 1.774859 1_555
Ge6 O33 1.775312 1_555
Ge7 O24 1.765079 1_555
Ge7 O36 1.772025 1_555
Ge7 O28 1.774859 1_555
Ge7 O32 1.775312 1_555
