# generated using pymatgen
data_LiH8C2S2NO5
_symmetry_space_group_name_H-M   'P 1'
_cell_length_a   10.65612300
_cell_length_b   10.98720000
_cell_length_c   13.40159500
_cell_angle_alpha   90.00000000
_cell_angle_beta   90.00000000
_cell_angle_gamma   90.00000000
_symmetry_Int_Tables_number   1
_chemical_formula_structural   LiH8C2S2NO5
_chemical_formula_sum   'Li8 H64 C16 S16 N8 O40'
_cell_volume   1569.07153611
_cell_formula_units_Z   8
loop_
 _symmetry_equiv_pos_site_id
 _symmetry_equiv_pos_as_xyz
  1  'x, y, z'
loop_
 _atom_site_type_symbol
 _atom_site_label
 _atom_site_symmetry_multiplicity
 _atom_site_fract_x
 _atom_site_fract_y
 _atom_site_fract_z
 _atom_site_occupancy
  Li  Li0  1  0.75000000  0.23687700  0.75000000  1
  Li  Li1  1  0.75000000  0.26312300  0.25000000  1
  Li  Li2  1  0.77123200  0.25000000  0.50000000  1
  Li  Li3  1  0.22876800  0.75000000  0.50000000  1
  Li  Li4  1  0.25000000  0.73687700  0.75000000  1
  Li  Li5  1  0.27123200  0.75000000  0.00000000  1
  Li  Li6  1  0.25000000  0.76312300  0.25000000  1
  Li  Li7  1  0.72876800  0.25000000  0.00000000  1
  H  H0  1  0.17199200  0.13068800  0.82287800  1
  H  H1  1  0.79021500  0.93225100  0.63739300  1
  H  H2  1  0.42519600  0.36282300  0.80392500  1
  H  H3  1  0.70978500  0.56774900  0.13739300  1
  H  H4  1  0.80201700  0.08361700  0.36188000  1
  H  H5  1  0.20978500  0.06774900  0.36260700  1
  H  H6  1  0.91197900  0.75390900  0.88239700  1
  H  H7  1  0.41197900  0.24609100  0.38239700  1
  H  H8  1  0.58802100  0.74609100  0.38239700  1
  H  H9  1  0.41197900  0.25390900  0.61760300  1
  H  H10  1  0.70978500  0.93225100  0.86260700  1
  H  H11  1  0.65858900  0.11633900  0.37311200  1
  H  H12  1  0.42519600  0.13717700  0.19607500  1
  H  H13  1  0.92234600  0.88410800  0.56252200  1
  H  H14  1  0.14045800  0.37539200  0.04507000  1
  H  H15  1  0.32800800  0.13068800  0.67712200  1
  H  H16  1  0.32800800  0.36931200  0.32287800  1
  H  H17  1  0.17199200  0.36931200  0.17712200  1
  H  H18  1  0.42234600  0.38410800  0.93747800  1
  H  H19  1  0.19798300  0.58361700  0.36188000  1
  H  H20  1  0.84141100  0.38366100  0.87311200  1
  H  H21  1  0.15858900  0.61633900  0.12688800  1
  H  H22  1  0.57480400  0.63717700  0.19607500  1
  H  H23  1  0.30201700  0.91638300  0.86188000  1
  H  H24  1  0.82800800  0.86931200  0.17712200  1
  H  H25  1  0.64045800  0.62460800  0.54507000  1
  H  H26  1  0.69798300  0.08361700  0.13812000  1
  H  H27  1  0.85954200  0.87539200  0.04507000  1
  H  H28  1  0.92519600  0.86282300  0.69607500  1
  H  H29  1  0.20978500  0.43225100  0.63739300  1
  H  H30  1  0.67199200  0.86931200  0.32287800  1
  H  H31  1  0.58802100  0.75390900  0.61760300  1
  H  H32  1  0.34141100  0.61633900  0.37311200  1
  H  H33  1  0.07765400  0.11589200  0.43747800  1
  H  H34  1  0.92519600  0.63717700  0.30392500  1
  H  H35  1  0.29021500  0.43225100  0.86260700  1
  H  H36  1  0.35954200  0.37539200  0.45493000  1
  H  H37  1  0.34141100  0.88366100  0.62688800  1
  H  H38  1  0.07765400  0.38410800  0.56252200  1
  H  H39  1  0.42234600  0.11589200  0.06252200  1
  H  H40  1  0.57765400  0.88410800  0.93747800  1
  H  H41  1  0.92234600  0.61589200  0.43747800  1
  H  H42  1  0.14045800  0.12460800  0.95493000  1
  H  H43  1  0.79021500  0.56774900  0.36260700  1
  H  H44  1  0.08802100  0.25390900  0.88239700  1
  H  H45  1  0.29021500  0.06774900  0.13739300  1
  H  H46  1  0.57765400  0.61589200  0.06252200  1
  H  H47  1  0.19798300  0.91638300  0.63812000  1
  H  H48  1  0.15858900  0.88366100  0.87311200  1
  H  H49  1  0.69798300  0.41638300  0.86188000  1
  H  H50  1  0.07480400  0.13717700  0.30392500  1
  H  H51  1  0.07480400  0.36282300  0.69607500  1
  H  H52  1  0.57480400  0.86282300  0.80392500  1
  H  H53  1  0.30201700  0.58361700  0.13812000  1
  H  H54  1  0.84141100  0.11633900  0.12688800  1
  H  H55  1  0.65858900  0.38366100  0.62688800  1
  H  H56  1  0.82800800  0.63068800  0.82287800  1
  H  H57  1  0.64045800  0.87539200  0.45493000  1
  H  H58  1  0.91197900  0.74609100  0.11760300  1
  H  H59  1  0.67199200  0.63068800  0.67712200  1
  H  H60  1  0.08802100  0.24609100  0.11760300  1
  H  H61  1  0.80201700  0.41638300  0.63812000  1
  H  H62  1  0.35954200  0.12460800  0.54507000  1
  H  H63  1  0.85954200  0.62460800  0.95493000  1
  C  C0  1  0.60759600  0.92081500  0.86513500  1
  C  C1  1  0.60593100  0.84442000  0.38209400  1
  C  C2  1  0.10593100  0.15558000  0.88209400  1
  C  C3  1  0.60759600  0.57918500  0.13486500  1
  C  C4  1  0.10759600  0.07918500  0.36513500  1
  C  C5  1  0.10759600  0.42081500  0.63486500  1
  C  C6  1  0.39406900  0.34442000  0.38209400  1
  C  C7  1  0.10593100  0.34442000  0.11790600  1
  C  C8  1  0.60593100  0.65558000  0.61790600  1
  C  C9  1  0.39240400  0.07918500  0.13486500  1
  C  C10  1  0.89406900  0.65558000  0.88209400  1
  C  C11  1  0.89240400  0.57918500  0.36513500  1
  C  C12  1  0.89240400  0.92081500  0.63486500  1
  C  C13  1  0.39240400  0.42081500  0.86513500  1
  C  C14  1  0.89406900  0.84442000  0.11790600  1
  C  C15  1  0.39406900  0.15558000  0.61790600  1
  S  S0  1  0.03871600  0.57928200  0.85889900  1
  S  S1  1  0.96128400  0.07928200  0.85889900  1
  S  S2  1  0.53770200  0.43243200  0.14905000  1
  S  S3  1  0.96128400  0.42071800  0.14110100  1
  S  S4  1  0.03770200  0.93243200  0.35095000  1
  S  S5  1  0.03770200  0.56756800  0.64905000  1
  S  S6  1  0.96229800  0.43243200  0.35095000  1
  S  S7  1  0.46229800  0.93243200  0.14905000  1
  S  S8  1  0.53770200  0.06756800  0.85095000  1
  S  S9  1  0.03871600  0.92071800  0.14110100  1
  S  S10  1  0.46128400  0.57928200  0.64110100  1
  S  S11  1  0.96229800  0.06756800  0.64905000  1
  S  S12  1  0.53871600  0.07928200  0.64110100  1
  S  S13  1  0.46229800  0.56756800  0.85095000  1
  S  S14  1  0.46128400  0.92071800  0.35889900  1
  S  S15  1  0.53871600  0.42071800  0.35889900  1
  N  N0  1  0.40986700  0.62613700  0.74829500  1
  N  N1  1  0.40986700  0.87386300  0.25170500  1
  N  N2  1  0.09013300  0.87386300  0.24829500  1
  N  N3  1  0.09013300  0.62613700  0.75170500  1
  N  N4  1  0.90986700  0.37386300  0.24829500  1
  N  N5  1  0.59013300  0.12613700  0.74829500  1
  N  N6  1  0.59013300  0.37386300  0.25170500  1
  N  N7  1  0.90986700  0.12613700  0.75170500  1
  O  O0  1  0.12916800  0.62051300  0.93274400  1
  O  O1  1  0.91699100  0.35562500  0.43158300  1
  O  O2  1  0.37083200  0.62051300  0.56725600  1
  O  O3  1  0.08300900  0.85562500  0.43158300  1
  O  O4  1  0.48786200  0.05189000  0.35915900  1
  O  O5  1  0.98786200  0.55189000  0.14084100  1
  O  O6  1  0.40084900  0.44953600  0.15200500  1
  O  O7  1  0.37083200  0.87948700  0.43274400  1
  O  O8  1  0.09915100  0.44953600  0.34799500  1
  O  O9  1  0.75702700  0.15235700  0.13257100  1
  O  O10  1  0.75702700  0.34764300  0.86742900  1
  O  O11  1  0.62916800  0.12051300  0.56725600  1
  O  O12  1  0.25702700  0.65235700  0.36742900  1
  O  O13  1  0.24297300  0.65235700  0.13257100  1
  O  O14  1  0.40084900  0.05046400  0.84799500  1
  O  O15  1  0.58300900  0.14437500  0.93158300  1
  O  O16  1  0.09915100  0.05046400  0.65200500  1
  O  O17  1  0.24297300  0.84764300  0.86742900  1
  O  O18  1  0.87083200  0.12051300  0.93274400  1
  O  O19  1  0.58300900  0.35562500  0.06841700  1
  O  O20  1  0.74297300  0.15235700  0.36742900  1
  O  O21  1  0.41699100  0.64437500  0.93158300  1
  O  O22  1  0.98786200  0.94811000  0.85915900  1
  O  O23  1  0.51213800  0.94811000  0.64084100  1
  O  O24  1  0.08300900  0.64437500  0.56841700  1
  O  O25  1  0.51213800  0.55189000  0.35915900  1
  O  O26  1  0.59915100  0.55046400  0.84799500  1
  O  O27  1  0.01213800  0.05189000  0.14084100  1
  O  O28  1  0.12916800  0.87948700  0.06725600  1
  O  O29  1  0.87083200  0.37948700  0.06725600  1
  O  O30  1  0.41699100  0.85562500  0.06841700  1
  O  O31  1  0.90084900  0.94953600  0.34799500  1
  O  O32  1  0.59915100  0.94953600  0.15200500  1
  O  O33  1  0.62916800  0.37948700  0.43274400  1
  O  O34  1  0.91699100  0.14437500  0.56841700  1
  O  O35  1  0.01213800  0.44811000  0.85915900  1
  O  O36  1  0.25702700  0.84764300  0.63257100  1
  O  O37  1  0.90084900  0.55046400  0.65200500  1
  O  O38  1  0.74297300  0.34764300  0.63257100  1
  O  O39  1  0.48786200  0.44811000  0.64084100  1
loop_
_geom_bond_atom_site_label_1
_geom_bond_atom_site_label_2
_geom_bond_distance
_geom_bond_site_symmetry_2
Li0 O10 1.990819 1_555
Li0 O38 1.990819 1_555
Li0 N5 2.093576 1_555
Li0 N7 2.093576 1_555
Li1 O20 1.990819 1_555
Li1 O9 1.990819 1_555
Li1 N6 2.093576 1_555
Li1 N4 2.093576 1_555
Li2 O20 2.097179 1_555
Li2 O38 2.097179 1_555
Li2 O34 2.144767 1_555
Li2 O1 2.144767 1_555
Li2 O33 2.264560 1_555
Li2 O11 2.264560 1_555
Li3 O36 2.097179 1_555
Li3 O12 2.097179 1_555
Li3 O24 2.144767 1_555
Li3 O3 2.144767 1_555
Li3 O7 2.264560 1_555
Li3 O2 2.264560 1_555
Li4 O36 1.990819 1_555
Li4 O17 1.990819 1_555
Li4 N3 2.093576 1_555
Li4 N0 2.093576 1_555
Li5 O17 2.097179 1_554
Li5 O13 2.097179 1_555
Li5 O21 2.144767 1_554
Li5 O30 2.144767 1_555
Li5 O0 2.264560 1_554
Li5 O28 2.264560 1_555
Li6 O13 1.990819 1_555
Li6 O12 1.990819 1_555
Li6 N1 2.093576 1_555
Li6 N2 2.093576 1_555
Li7 O9 2.097179 1_555
Li7 O10 2.097179 1_554
Li7 O15 2.144767 1_554
Li7 O19 2.144767 1_555
Li7 O29 2.264560 1_555
Li7 O18 2.264560 1_554
H4 O20 0.985807 1_555
H11 O20 0.985383 1_555
H19 O12 0.985807 1_555
H20 O10 0.985383 1_555
H21 O13 0.985383 1_555
H23 O17 0.985807 1_555
H26 O9 0.985807 1_555
H32 O12 0.985383 1_555
H37 O36 0.985383 1_555
H47 O36 0.985807 1_555
H48 O17 0.985383 1_555
H49 O10 0.985807 1_555
H53 O13 0.985807 1_555
H54 O9 0.985383 1_555
H55 O38 0.985383 1_555
H61 O38 0.985807 1_555
C0 H52 1.095902 1_555
C0 H10 1.096687 1_555
C0 H40 1.097457 1_555
C0 S8 1.786257 1_565
C1 H30 1.095506 1_555
C1 H8 1.097096 1_555
C1 H57 1.097259 1_555
C1 S14 1.781914 1_555
C2 H0 1.095506 1_555
C2 H44 1.097096 1_555
C2 H42 1.097259 1_555
C2 S1 1.781914 1_455
C3 H22 1.095902 1_555
C3 H3 1.096687 1_555
C3 H46 1.097457 1_555
C3 S2 1.786257 1_555
C4 H50 1.095902 1_555
C4 H5 1.096687 1_555
C4 H33 1.097457 1_555
C4 S4 1.786257 1_545
C5 H51 1.095902 1_555
C5 H29 1.096687 1_555
C5 H38 1.097457 1_555
C5 S5 1.786257 1_555
C6 H16 1.095506 1_555
C6 H7 1.097096 1_555
C6 H36 1.097259 1_555
C6 S15 1.781914 1_555
C7 H17 1.095506 1_555
C7 H60 1.097096 1_555
C7 H14 1.097259 1_555
C7 S3 1.781914 1_455
C8 H59 1.095506 1_555
C8 H31 1.097096 1_555
C8 H25 1.097259 1_555
C8 S10 1.781914 1_555
C9 H12 1.095902 1_555
C9 H45 1.096687 1_555
C9 H39 1.097457 1_555
C9 S7 1.786257 1_545
C10 H56 1.095506 1_555
C10 H6 1.097096 1_555
C10 H63 1.097259 1_555
C10 S0 1.781914 1_655
C11 H34 1.095902 1_555
C11 H43 1.096687 1_555
C11 H41 1.097457 1_555
C11 S6 1.786257 1_555
C12 H28 1.095902 1_555
C12 H1 1.096687 1_555
C12 H13 1.097457 1_555
C12 S11 1.786257 1_565
C13 H2 1.095902 1_555
C13 H35 1.096687 1_555
C13 H18 1.097457 1_555
C13 S13 1.786257 1_555
C14 H24 1.095506 1_555
C14 H58 1.097096 1_555
C14 H27 1.097259 1_555
C14 S9 1.781914 1_655
C15 H15 1.095506 1_555
C15 H9 1.097096 1_555
C15 H62 1.097259 1_555
C15 S12 1.781914 1_555
N0 S13 1.618309 1_555
N0 S10 1.621407 1_555
N1 S7 1.618309 1_555
N1 S14 1.621407 1_555
N2 S4 1.618309 1_555
N2 S9 1.621407 1_555
N3 S5 1.618309 1_555
N3 S0 1.621407 1_555
N4 S6 1.618309 1_555
N4 S3 1.621407 1_555
N5 S8 1.618309 1_555
N5 S12 1.621407 1_555
N6 S2 1.618309 1_555
N6 S15 1.621407 1_555
N7 S11 1.618309 1_555
N7 S1 1.621407 1_555
O0 S0 1.453840 1_555
O1 S6 1.453606 1_555
O2 S10 1.453840 1_555
O3 S4 1.453606 1_555
O4 S14 1.468782 1_545
O5 S3 1.468782 1_555
O6 S2 1.470914 1_555
O7 S14 1.453840 1_555
O8 S6 1.470914 1_455
O11 S12 1.453840 1_555
O14 S8 1.470914 1_555
O15 S8 1.453606 1_555
O16 S11 1.470914 1_455
O18 S1 1.453840 1_555
O19 S2 1.453606 1_555
O21 S13 1.453606 1_555
O22 S1 1.468782 1_565
O23 S12 1.468782 1_565
O24 S5 1.453606 1_555
O25 S15 1.468782 1_555
O26 S13 1.470914 1_555
O27 S9 1.468782 1_545
O28 S9 1.453840 1_555
O29 S3 1.453840 1_555
O30 S7 1.453606 1_555
O31 S4 1.470914 1_655
O32 S7 1.470914 1_555
O33 S15 1.453840 1_555
O34 S11 1.453606 1_555
O35 S0 1.468782 1_555
O37 S5 1.470914 1_655
O39 S10 1.468782 1_555
