# generated using pymatgen
data_ZnS
_symmetry_space_group_name_H-M   'P 1'
_cell_length_a   3.85344366
_cell_length_b   3.85344366
_cell_length_c   138.50372600
_cell_angle_alpha   90.00000000
_cell_angle_beta   90.00000000
_cell_angle_gamma   119.99999411
_symmetry_Int_Tables_number   1
_chemical_formula_structural   ZnS
_chemical_formula_sum   'Zn44 S44'
_cell_volume   1781.10753534
_cell_formula_units_Z   44
loop_
 _symmetry_equiv_pos_site_id
 _symmetry_equiv_pos_as_xyz
  1  'x, y, z'
loop_
 _atom_site_type_symbol
 _atom_site_label
 _atom_site_symmetry_multiplicity
 _atom_site_fract_x
 _atom_site_fract_y
 _atom_site_fract_z
 _atom_site_occupancy
  Zn  Zn0  1  0.00000000  0.00000000  0.38636000  1
  Zn  Zn1  1  0.66666700  0.33333300  0.15909300  1
  Zn  Zn2  1  0.00000000  0.00000000  0.25000200  1
  Zn  Zn3  1  0.66666700  0.33333300  0.22727200  1
  Zn  Zn4  1  0.33333300  0.66666700  0.65909300  1
  Zn  Zn5  1  0.33333300  0.66666700  0.27273100  1
  Zn  Zn6  1  0.66666700  0.33333300  0.47727000  1
  Zn  Zn7  1  0.00000000  0.00000000  0.11364000  1
  Zn  Zn8  1  0.33333300  0.66666700  0.06818300  1
  Zn  Zn9  1  0.66666700  0.33333300  0.75000200  1
  Zn  Zn10  1  0.66666700  0.33333300  0.36364000  1
  Zn  Zn11  1  0.66666700  0.33333300  0.68182000  1
  Zn  Zn12  1  0.00000000  0.00000000  0.88636400  1
  Zn  Zn13  1  0.33333300  0.66666700  0.79545200  1
  Zn  Zn14  1  0.66666700  0.33333300  0.40909500  1
  Zn  Zn15  1  0.33333300  0.66666700  0.34091000  1
  Zn  Zn16  1  0.33333300  0.66666700  0.59091000  1
  Zn  Zn17  1  0.66666700  0.33333300  0.09091000  1
  Zn  Zn18  1  0.33333300  0.66666700  0.13636200  1
  Zn  Zn19  1  0.00000000  0.00000000  0.50000500  1
  Zn  Zn20  1  0.00000000  0.00000000  0.04545200  1
  Zn  Zn21  1  0.33333300  0.66666700  0.93182000  1
  Zn  Zn22  1  0.00000000  0.00000000  0.63636200  1
  Zn  Zn23  1  0.66666700  0.33333300  0.97727200  1
  Zn  Zn24  1  0.33333300  0.66666700  0.86363800  1
  Zn  Zn25  1  0.66666700  0.33333300  0.54545200  1
  Zn  Zn26  1  0.00000000  0.00000000  0.31818300  1
  Zn  Zn27  1  0.00000000  0.00000000  0.84091000  1
  Zn  Zn28  1  0.00000000  0.00000000  0.70454900  1
  Zn  Zn29  1  0.33333300  0.66666700  0.72727200  1
  Zn  Zn30  1  0.66666700  0.33333300  0.02273300  1
  Zn  Zn31  1  0.66666700  0.33333300  0.29545200  1
  Zn  Zn32  1  0.33333300  0.66666700  0.20455000  1
  Zn  Zn33  1  0.00000000  0.00000000  0.18182000  1
  Zn  Zn34  1  0.33333300  0.66666700  0.43182000  1
  Zn  Zn35  1  0.66666700  0.33333300  0.81818300  1
  Zn  Zn36  1  0.00000000  0.00000000  0.56818300  1
  Zn  Zn37  1  0.00000000  0.00000000  0.95455000  1
  Zn  Zn38  1  0.00000000  0.00000000  0.77273100  1
  Zn  Zn39  1  0.66666700  0.33333300  0.61364000  1
  Zn  Zn40  1  0.00000000  0.00000000  0.45454200  1
  Zn  Zn41  1  0.33333300  0.66666700  0.00000000  1
  Zn  Zn42  1  0.33333300  0.66666700  0.52273100  1
  Zn  Zn43  1  0.66666700  0.33333300  0.90909300  1
  S  S0  1  0.66666700  0.33333300  0.17613700  1
  S  S1  1  0.33333300  0.66666700  0.44886100  1
  S  S2  1  0.66666700  0.33333300  0.42613600  1
  S  S3  1  0.66666700  0.33333300  0.76704700  1
  S  S4  1  0.00000000  0.00000000  0.65340800  1
  S  S5  1  0.00000000  0.00000000  0.26704700  1
  S  S6  1  0.66666700  0.33333300  0.83522700  1
  S  S7  1  0.33333300  0.66666700  0.88068700  1
  S  S8  1  0.33333300  0.66666700  0.67613600  1
  S  S9  1  0.66666700  0.33333300  0.38067200  1
  S  S10  1  0.00000000  0.00000000  0.90340700  1
  S  S11  1  0.00000000  0.00000000  0.85794300  1
  S  S12  1  0.66666700  0.33333300  0.10795100  1
  S  S13  1  0.33333300  0.66666700  0.35795100  1
  S  S14  1  0.66666700  0.33333300  0.56249800  1
  S  S15  1  0.66666700  0.33333300  0.99430900  1
  S  S16  1  0.33333300  0.66666700  0.28977000  1
  S  S17  1  0.00000000  0.00000000  0.47158000  1
  S  S18  1  0.33333300  0.66666700  0.53977000  1
  S  S19  1  0.66666700  0.33333300  0.31249800  1
  S  S20  1  0.33333300  0.66666700  0.81249800  1
  S  S21  1  0.00000000  0.00000000  0.19886100  1
  S  S22  1  0.33333300  0.66666700  0.94886200  1
  S  S23  1  0.66666700  0.33333300  0.92613700  1
  S  S24  1  0.33333300  0.66666700  0.74431800  1
  S  S25  1  0.33333300  0.66666700  0.60795100  1
  S  S26  1  0.33333300  0.66666700  0.01705400  1
  S  S27  1  0.00000000  0.00000000  0.33522700  1
  S  S28  1  0.66666700  0.33333300  0.63068000  1
  S  S29  1  0.66666700  0.33333300  0.03976900  1
  S  S30  1  0.66666700  0.33333300  0.69886100  1
  S  S31  1  0.33333300  0.66666700  0.15340700  1
  S  S32  1  0.00000000  0.00000000  0.78977100  1
  S  S33  1  0.00000000  0.00000000  0.06249800  1
  S  S34  1  0.00000000  0.00000000  0.40341600  1
  S  S35  1  0.00000000  0.00000000  0.58522700  1
  S  S36  1  0.33333300  0.66666700  0.22159000  1
  S  S37  1  0.00000000  0.00000000  0.51704600  1
  S  S38  1  0.00000000  0.00000000  0.97158900  1
  S  S39  1  0.00000000  0.00000000  0.13068000  1
  S  S40  1  0.66666700  0.33333300  0.49432500  1
  S  S41  1  0.33333300  0.66666700  0.08522800  1
  S  S42  1  0.66666700  0.33333300  0.24431800  1
  S  S43  1  0.00000000  0.00000000  0.72158900  1
loop_
_geom_bond_atom_site_label_1
_geom_bond_atom_site_label_2
_geom_bond_distance
_geom_bond_site_symmetry_2
S0 Zn33 2.359919 1_655
S0 Zn33 2.359922 1_665
S0 Zn33 2.359922 1_555
S0 Zn1 2.360658 1_555
S1 Zn40 2.359827 1_565
S1 Zn40 2.359830 1_555
S1 Zn40 2.359830 1_665
S1 Zn34 2.360242 1_555
S2 Zn34 2.359966 1_545
S2 Zn34 2.359966 1_655
S2 Zn34 2.359972 1_555
S2 Zn14 2.360242 1_555
S3 Zn38 2.359965 1_655
S3 Zn38 2.359969 1_555
S3 Zn38 2.359969 1_665
S3 Zn9 2.360796 1_555
S4 Zn4 2.360012 1_545
S4 Zn4 2.360015 1_555
S4 Zn4 2.360015 1_445
S4 Zn22 2.360935 1_555
S5 Zn5 2.359965 1_545
S5 Zn5 2.359969 1_555
S5 Zn5 2.359969 1_445
S5 Zn2 2.360796 1_555
S6 Zn27 2.359919 1_655
S6 Zn27 2.359922 1_665
S6 Zn27 2.359922 1_555
S6 Zn35 2.360658 1_555
S7 Zn12 2.359642 1_565
S7 Zn12 2.359645 1_555
S7 Zn12 2.359645 1_665
S7 Zn24 2.361350 1_555
S8 Zn11 2.359966 1_455
S8 Zn11 2.359966 1_565
S8 Zn11 2.359972 1_555
S8 Zn4 2.360519 1_555
S9 Zn10 2.358995 1_555
S9 Zn0 2.360150 1_655
S9 Zn0 2.360154 1_555
S9 Zn0 2.360154 1_665
S10 Zn43 2.360058 1_455
S10 Zn43 2.360061 1_445
S10 Zn43 2.360061 1_555
S10 Zn12 2.360519 1_555
S11 Zn27 2.359134 1_555
S11 Zn24 2.360474 1_545
S11 Zn24 2.360477 1_445
S11 Zn24 2.360477 1_555
S12 Zn7 2.360196 1_655
S12 Zn7 2.360200 1_665
S12 Zn7 2.360200 1_555
S12 Zn17 2.360242 1_555
S13 Zn10 2.360197 1_455
S13 Zn10 2.360197 1_565
S13 Zn10 2.360203 1_555
S13 Zn15 2.360242 1_555
S14 Zn36 2.360012 1_655
S14 Zn36 2.360015 1_665
S14 Zn36 2.360015 1_555
S14 Zn25 2.360935 1_555
S15 Zn23 2.359688 1_555
S15 Zn41 2.360289 1_546
S15 Zn41 2.360289 1_656
S15 Zn41 2.360295 1_556
S16 Zn31 2.359873 1_455
S16 Zn31 2.359873 1_565
S16 Zn31 2.359879 1_555
S16 Zn5 2.359965 1_555
S17 Zn40 2.359826 1_555
S17 Zn6 2.360243 1_455
S17 Zn6 2.360246 1_555
S17 Zn6 2.360246 1_445
S18 Zn25 2.359873 1_455
S18 Zn25 2.359873 1_565
S18 Zn25 2.359879 1_555
S18 Zn42 2.359965 1_555
S19 Zn26 2.360012 1_655
S19 Zn26 2.360015 1_555
S19 Zn26 2.360015 1_665
S19 Zn31 2.360935 1_555
S20 Zn35 2.360012 1_455
S20 Zn35 2.360012 1_565
S20 Zn35 2.360018 1_555
S20 Zn13 2.360935 1_555
S21 Zn32 2.360196 1_545
S21 Zn32 2.360200 1_555
S21 Zn32 2.360200 1_445
S21 Zn33 2.360242 1_555
S22 Zn37 2.360150 1_565
S22 Zn37 2.360154 1_665
S22 Zn37 2.360154 1_555
S22 Zn21 2.360380 1_555
S23 Zn21 2.359919 1_545
S23 Zn21 2.359919 1_655
S23 Zn21 2.359925 1_555
S23 Zn43 2.360658 1_555
S24 Zn9 2.359966 1_455
S24 Zn9 2.359966 1_565
S24 Zn9 2.359972 1_555
S24 Zn29 2.360935 1_555
S25 Zn39 2.360197 1_455
S25 Zn39 2.360197 1_565
S25 Zn39 2.360203 1_555
S25 Zn16 2.360242 1_555
S26 Zn30 2.359735 1_455
S26 Zn30 2.359735 1_565
S26 Zn30 2.359741 1_555
S26 Zn41 2.362043 1_555
S27 Zn15 2.359919 1_545
S27 Zn15 2.359922 1_555
S27 Zn15 2.359922 1_445
S27 Zn26 2.360658 1_555
S28 Zn22 2.359873 1_655
S28 Zn22 2.359876 1_665
S28 Zn22 2.359876 1_555
S28 Zn39 2.360103 1_555
S29 Zn30 2.359549 1_555
S29 Zn20 2.359919 1_655
S29 Zn20 2.359922 1_665
S29 Zn20 2.359922 1_555
S30 Zn28 2.360150 1_655
S30 Zn28 2.360154 1_665
S30 Zn28 2.360154 1_555
S30 Zn11 2.360242 1_555
S31 Zn1 2.360058 1_455
S31 Zn1 2.360058 1_565
S31 Zn1 2.360064 1_555
S31 Zn18 2.360796 1_555
S32 Zn13 2.359827 1_545
S32 Zn13 2.359830 1_555
S32 Zn13 2.359830 1_445
S32 Zn38 2.360103 1_555
S33 Zn8 2.360012 1_545
S33 Zn8 2.360015 1_555
S33 Zn8 2.360015 1_445
S33 Zn20 2.360935 1_555
S34 Zn14 2.359734 1_455
S34 Zn14 2.359738 1_445
S34 Zn14 2.359738 1_555
S34 Zn0 2.362320 1_555
S35 Zn16 2.359919 1_545
S35 Zn16 2.359922 1_445
S35 Zn16 2.359922 1_555
S35 Zn36 2.360658 1_555
S36 Zn3 2.359873 1_455
S36 Zn3 2.359873 1_565
S36 Zn3 2.359879 1_555
S36 Zn32 2.360103 1_555
S37 Zn42 2.360012 1_545
S37 Zn42 2.360015 1_445
S37 Zn42 2.360015 1_555
S37 Zn19 2.360242 1_555
S38 Zn23 2.359919 1_455
S38 Zn23 2.359922 1_555
S38 Zn23 2.359922 1_445
S38 Zn37 2.359965 1_555
S39 Zn18 2.359873 1_545
S39 Zn18 2.359876 1_555
S39 Zn18 2.359876 1_445
S39 Zn7 2.360103 1_555
S40 Zn19 2.359781 1_655
S40 Zn19 2.359784 1_555
S40 Zn19 2.359784 1_665
S40 Zn6 2.362181 1_555
S41 Zn17 2.359873 1_455
S41 Zn17 2.359873 1_565
S41 Zn17 2.359879 1_555
S41 Zn8 2.360796 1_555
S42 Zn2 2.359965 1_655
S42 Zn2 2.359969 1_555
S42 Zn2 2.359969 1_665
S42 Zn3 2.360935 1_555
S43 Zn29 2.359919 1_545
S43 Zn29 2.359922 1_555
S43 Zn29 2.359922 1_445
S43 Zn28 2.360103 1_555
