# generated using pymatgen
data_Sr6La14Mg7Ti13O60
_symmetry_space_group_name_H-M   'P 1'
_cell_length_a   5.60319200
_cell_length_b   5.61888078
_cell_length_c   39.56028065
_cell_angle_alpha   89.95477262
_cell_angle_beta   89.94614437
_cell_angle_gamma   89.71038331
_symmetry_Int_Tables_number   1
_chemical_formula_structural   Sr6La14Mg7Ti13O60
_chemical_formula_sum   'Sr6 La14 Mg7 Ti13 O60'
_cell_volume   1245.48589095
_cell_formula_units_Z   1
loop_
 _symmetry_equiv_pos_site_id
 _symmetry_equiv_pos_as_xyz
  1  'x, y, z'
loop_
 _atom_site_type_symbol
 _atom_site_label
 _atom_site_symmetry_multiplicity
 _atom_site_fract_x
 _atom_site_fract_y
 _atom_site_fract_z
 _atom_site_occupancy
  Sr  Sr0  1  0.01236900  0.99701900  0.85240000  1
  Sr  Sr1  1  0.01407300  0.99588500  0.65252900  1
  Sr  Sr2  1  0.01583000  0.99685700  0.05019400  1
  Sr  Sr3  1  0.51716800  0.50544900  0.65276400  1
  Sr  Sr4  1  0.51671600  0.50649700  0.85343400  1
  Sr  Sr5  1  0.48417800  0.49349900  0.94780700  1
  La  La0  1  0.01675100  0.00265300  0.44888100  1
  La  La1  1  0.01701500  0.00410500  0.24880200  1
  La  La2  1  0.53295900  0.51272600  0.44896900  1
  La  La3  1  0.53321500  0.51400500  0.24914800  1
  La  La4  1  0.52641900  0.50933000  0.05085900  1
  La  La5  1  0.47635800  0.49042200  0.74893400  1
  La  La6  1  0.46685700  0.48636100  0.34895600  1
  La  La7  1  0.47536200  0.49182100  0.54906200  1
  La  La8  1  0.46818100  0.48810500  0.14905000  1
  La  La9  1  0.98512800  0.00272700  0.94618200  1
  La  La10  1  0.98338300  0.00133500  0.74885700  1
  La  La11  1  0.98132400  0.00124000  0.54929300  1
  La  La12  1  0.98279600  0.99603800  0.34876900  1
  La  La13  1  0.98399100  0.99815100  0.14857100  1
  Mg  Mg0  1  0.00019700  0.50033400  0.90018500  1
  Mg  Mg1  1  0.99882000  0.50078800  0.70003600  1
  Mg  Mg2  1  0.00087200  0.49905800  0.49935500  1
  Mg  Mg3  1  0.00031600  0.49965400  0.39964700  1
  Mg  Mg4  1  0.99912700  0.50123900  0.10030400  1
  Mg  Mg5  1  0.00099600  0.50081800  0.19997900  1
  Mg  Mg6  1  0.99946400  0.49986400  0.29981200  1
  Ti  Ti0  1  0.00520200  0.49007200  0.99986600  1
  Ti  Ti1  1  0.99359300  0.49926800  0.80135100  1
  Ti  Ti2  1  0.99392800  0.50143500  0.60127800  1
  Ti  Ti3  1  0.50431800  0.99250700  0.99908300  1
  Ti  Ti4  1  0.49516600  0.99277100  0.80194300  1
  Ti  Ti5  1  0.49891900  0.99572900  0.89984800  1
  Ti  Ti6  1  0.49979500  0.99952100  0.39872000  1
  Ti  Ti7  1  0.49503400  0.99468500  0.60175700  1
  Ti  Ti8  1  0.49999300  0.99126000  0.70068800  1
  Ti  Ti9  1  0.49913900  0.00060300  0.49951700  1
  Ti  Ti10  1  0.49992100  0.00066500  0.29867600  1
  Ti  Ti11  1  0.50015900  0.00017700  0.19874400  1
  Ti  Ti12  1  0.50033200  0.99684200  0.09858000  1
  O  O0  1  0.50796100  0.93745100  0.95168900  1
  O  O1  1  0.51026100  0.92443000  0.75031600  1
  O  O2  1  0.51158600  0.91965200  0.55022300  1
  O  O3  1  0.51238300  0.91200500  0.35056700  1
  O  O4  1  0.51075700  0.91603900  0.15061800  1
  O  O5  1  0.76394400  0.76674100  0.80576100  1
  O  O6  1  0.76506800  0.76599400  0.60573800  1
  O  O7  1  0.76234100  0.77979300  0.40977000  1
  O  O8  1  0.75778900  0.77478500  0.89461300  1
  O  O9  1  0.75918100  0.77654600  0.69400300  1
  O  O10  1  0.75449000  0.76437900  0.00804200  1
  O  O11  1  0.76336000  0.78176700  0.29118400  1
  O  O12  1  0.76382600  0.78016100  0.49171000  1
  O  O13  1  0.76206400  0.78044300  0.20981000  1
  O  O14  1  0.75527600  0.77348900  0.09249000  1
  O  O15  1  0.27005900  0.73963200  0.80606800  1
  O  O16  1  0.26986000  0.74877700  0.89438800  1
  O  O17  1  0.27353000  0.74516200  0.69407900  1
  O  O18  1  0.28088600  0.74107500  0.29118200  1
  O  O19  1  0.28062400  0.74058900  0.40988700  1
  O  O20  1  0.26859300  0.73904500  0.60600000  1
  O  O21  1  0.28001800  0.73946800  0.49179600  1
  O  O22  1  0.27271800  0.73424900  0.00858500  1
  O  O23  1  0.28168700  0.74122500  0.21002700  1
  O  O24  1  0.28284500  0.73670900  0.09200600  1
  O  O25  1  0.00673400  0.58070700  0.95304700  1
  O  O26  1  0.01738800  0.58036900  0.75172200  1
  O  O27  1  0.02552600  0.59185900  0.34998000  1
  O  O28  1  0.01736700  0.58073100  0.55130100  1
  O  O29  1  0.02627300  0.59377200  0.15035000  1
  O  O30  1  0.99241500  0.43600300  0.64690900  1
  O  O31  1  0.99323100  0.43847500  0.84695100  1
  O  O32  1  0.97415300  0.40722900  0.44981400  1
  O  O33  1  0.97436800  0.40820800  0.25010900  1
  O  O34  1  0.98085800  0.43858700  0.04795500  1
  O  O35  1  0.73730800  0.25892900  0.99278200  1
  O  O36  1  0.73703500  0.26392900  0.79031800  1
  O  O37  1  0.73396600  0.24783700  0.90738900  1
  O  O38  1  0.73609700  0.26352100  0.59029400  1
  O  O39  1  0.72545700  0.25845100  0.70865100  1
  O  O40  1  0.71867800  0.25898300  0.39102700  1
  O  O41  1  0.72150900  0.25932500  0.50972700  1
  O  O42  1  0.71903400  0.25888300  0.30982600  1
  O  O43  1  0.71991100  0.25927400  0.19112900  1
  O  O44  1  0.72065300  0.25997400  0.10883700  1
  O  O45  1  0.23763500  0.22268300  0.90778600  1
  O  O46  1  0.24088800  0.22742800  0.70871800  1
  O  O47  1  0.23720900  0.22140800  0.50975800  1
  O  O48  1  0.23762200  0.21983400  0.30974500  1
  O  O49  1  0.23054200  0.23278800  0.99265300  1
  O  O50  1  0.23826400  0.23506900  0.79040800  1
  O  O51  1  0.23839300  0.23470100  0.59041800  1
  O  O52  1  0.23651700  0.21791400  0.39108900  1
  O  O53  1  0.23965200  0.22340500  0.10930000  1
  O  O54  1  0.23622700  0.21852100  0.19123100  1
  O  O55  1  0.49273400  0.06663500  0.84825100  1
  O  O56  1  0.49303500  0.06610200  0.64811900  1
  O  O57  1  0.48761600  0.08660200  0.45064200  1
  O  O58  1  0.48769300  0.08826900  0.25060800  1
  O  O59  1  0.49154300  0.08247300  0.04977300  1
loop_
_geom_bond_atom_site_label_1
_geom_bond_atom_site_label_2
_geom_bond_distance
_geom_bond_site_symmetry_2
La0 O32 2.284884 1_455
La0 O7 2.453436 1_445
La0 O12 2.540100 1_445
La0 O19 2.590613 1_545
La0 O57 2.683507 1_555
La0 O21 2.687725 1_545
La1 O33 2.282566 1_455
La1 O13 2.454559 1_445
La1 O11 2.530228 1_445
La1 O23 2.590612 1_545
La1 O18 2.675787 1_545
La1 O58 2.682743 1_555
La2 O57 2.409909 1_555
La2 O19 2.451818 1_555
La2 O7 2.514080 1_555
La2 O32 2.539500 1_555
La2 O21 2.546165 1_555
La2 O12 2.611164 1_555
La3 O58 2.407643 1_555
La3 O23 2.448323 1_555
La3 O13 2.513825 1_555
La3 O18 2.524418 1_555
La3 O33 2.539731 1_555
La3 O11 2.592207 1_555
La4 O59 2.407811 1_555
La4 O24 2.475102 1_555
La4 O22 2.529374 1_555
La4 O10 2.562536 1_555
La4 O14 2.566498 1_555
La4 O34 2.577631 1_555
La5 O1 2.447642 1_555
La5 O39 2.483405 1_555
La5 O36 2.532931 1_555
La5 O46 2.546169 1_555
La5 O50 2.557718 1_555
La5 O26 2.620618 1_555
La5 O17 2.834237 1_555
La5 O15 2.896439 1_555
La5 O26 3.077948 1_655
La5 O9 3.135613 1_555
La5 O5 3.177848 1_555
La5 O1 3.185381 1_545
La6 O3 2.407390 1_555
La6 O42 2.450983 1_555
La6 O48 2.515082 1_555
La6 O40 2.525089 1_555
La6 O27 2.540297 1_555
La6 O52 2.594379 1_555
La7 O2 2.413984 1_555
La7 O41 2.451781 1_555
La7 O38 2.534324 1_555
La7 O47 2.556379 1_555
La7 O51 2.557048 1_555
La7 O28 2.613362 1_555
La8 O4 2.418365 1_555
La8 O44 2.481082 1_555
La8 O53 2.520184 1_555
La8 O43 2.529127 1_555
La8 O29 2.543847 1_555
La8 O54 2.603852 1_555
La9 O25 2.389043 1_645
La9 O45 2.418089 1_655
La9 O37 2.492716 1_555
La9 O49 2.639726 1_655
La9 O0 2.709083 1_545
La9 O35 2.716287 1_555
La9 O8 2.729555 1_545
La9 O0 2.958778 1_645
La9 O16 2.958920 1_645
La9 O10 3.075518 1_546
La9 O25 3.262017 1_655
La9 O22 3.308141 1_646
La10 O26 2.374685 1_645
La10 O46 2.495637 1_655
La10 O50 2.548173 1_655
La10 O39 2.585589 1_555
La10 O36 2.598392 1_555
La10 O1 2.688695 1_545
La10 O9 2.812125 1_545
La10 O5 2.885042 1_545
La10 O1 2.982100 1_645
La10 O17 3.063597 1_645
La10 O15 3.137301 1_645
La10 O26 3.262124 1_655
La11 O28 2.371662 1_645
La11 O47 2.458235 1_655
La11 O51 2.543481 1_655
La11 O41 2.579071 1_555
La11 O38 2.582620 1_555
La11 O2 2.674154 1_545
La12 O27 2.282885 1_655
La12 O48 2.452397 1_665
La12 O52 2.530599 1_665
La12 O42 2.591812 1_565
La12 O40 2.672985 1_565
La12 O3 2.680988 1_555
La13 O29 2.284320 1_655
La13 O53 2.465495 1_665
La13 O54 2.530676 1_665
La13 O44 2.605971 1_565
La13 O43 2.674699 1_565
La13 O4 2.694889 1_555
Mg0 O8 2.061650 1_455
Mg0 O45 2.067200 1_555
Mg0 O16 2.074738 1_555
Mg0 O37 2.083106 1_455
Mg0 O31 2.135138 1_455
Mg0 O25 2.140177 1_555
Mg1 O9 2.059055 1_555
Mg1 O46 2.072648 1_655
Mg1 O17 2.080970 1_655
Mg1 O39 2.082251 1_555
Mg1 O26 2.096172 1_655
Mg1 O30 2.133659 1_555
Mg2 O32 2.032882 1_455
Mg2 O12 2.080669 1_455
Mg2 O47 2.082299 1_555
Mg2 O21 2.092954 1_555
Mg2 O28 2.108183 1_555
Mg2 O41 2.110055 1_455
Mg3 O27 2.036560 1_555
Mg3 O32 2.056333 1_455
Mg3 O52 2.085937 1_555
Mg3 O7 2.096388 1_455
Mg3 O40 2.111547 1_455
Mg3 O19 2.118311 1_555
Mg4 O29 2.053338 1_655
Mg4 O14 2.069173 1_555
Mg4 O53 2.087776 1_655
Mg4 O24 2.098839 1_655
Mg4 O44 2.099060 1_555
Mg4 O34 2.103596 1_555
Mg5 O29 2.036211 1_555
Mg5 O33 2.055371 1_455
Mg5 O54 2.086118 1_555
Mg5 O13 2.095452 1_455
Mg5 O43 2.113888 1_455
Mg5 O23 2.116556 1_555
Mg6 O33 2.038149 1_555
Mg6 O27 2.056775 1_655
Mg6 O11 2.086735 1_555
Mg6 O48 2.095161 1_655
Mg6 O18 2.111835 1_655
Mg6 O42 2.116332 1_555
O0 Ti3 1.900584 1_555
O0 Ti5 2.077192 1_555
O0 Sr5 2.503586 1_555
O0 Sr5 3.130190 1_565
O1 Ti8 1.999421 1_555
O1 Ti4 2.080025 1_555
O2 Ti9 2.057685 1_565
O2 Ti7 2.084047 1_555
O3 Ti6 1.968878 1_555
O3 Ti10 2.113157 1_565
O4 Ti11 1.962831 1_565
O4 Ti12 2.108559 1_555
O5 Ti4 1.970957 1_555
O5 Ti1 1.981250 1_555
O5 Sr0 2.653827 1_655
O5 Sr4 2.761390 1_555
O6 Ti2 1.966219 1_555
O6 Ti7 1.986403 1_555
O6 Sr1 2.658666 1_655
O6 Sr3 2.746810 1_555
O7 Ti6 1.965073 1_555
O8 Ti5 1.915643 1_555
O8 Sr0 2.528449 1_655
O8 Sr4 2.603748 1_555
O8 Sr5 3.047942 1_555
O9 Ti8 1.901750 1_555
O9 Sr1 2.502171 1_655
O9 Sr3 2.617193 1_555
O10 Ti3 1.927609 1_554
O10 Ti0 2.105158 1_654
O10 Sr2 2.580444 1_655
O10 Sr5 3.213215 1_554
O11 Ti10 1.939309 1_565
O12 Ti9 1.952010 1_565
O13 Ti11 1.962558 1_565
O14 Ti12 1.911903 1_555
O14 Sr2 2.552838 1_655
O15 Ti4 1.912600 1_555
O15 Ti1 2.068975 1_455
O15 Sr4 2.668325 1_555
O15 Sr0 2.741173 1_555
O16 Ti5 1.907444 1_555
O16 Sr4 2.524197 1_555
O16 Sr0 2.601305 1_555
O16 Sr5 2.819219 1_555
O17 Ti8 1.899884 1_555
O17 Sr3 2.515927 1_555
O17 Sr1 2.603871 1_555
O18 Ti10 1.934202 1_565
O19 Ti6 1.958589 1_555
O20 Ti7 1.928452 1_555
O20 Ti2 2.051249 1_455
O20 Sr3 2.658520 1_555
O20 Sr1 2.735535 1_555
O21 Ti9 1.942495 1_565
O22 Ti3 1.987042 1_554
O22 Ti0 2.066568 1_554
O22 Sr2 2.633737 1_555
O22 Sr5 2.999747 1_554
O23 Ti11 1.957242 1_565
O24 Ti12 1.925699 1_555
O24 Sr2 2.662680 1_555
O25 Ti0 1.920546 1_555
O25 Sr5 2.725014 1_555
O25 Sr5 2.978584 1_455
O26 Ti1 2.019613 1_455
O28 Ti2 2.030621 1_455
O30 Ti2 1.841970 1_555
O30 Sr1 2.485134 1_645
O30 Sr3 2.699153 1_555
O30 Sr3 2.977289 1_655
O30 Sr1 3.156885 1_655
O31 Ti1 1.835741 1_555
O31 Sr0 2.491446 1_645
O31 Sr4 2.707275 1_555
O31 Sr4 2.971254 1_655
O31 Sr0 3.148331 1_655
O34 Ti0 1.928864 1_654
O34 Sr2 2.490276 1_645
O34 Sr2 3.145278 1_655
O35 Ti3 2.006484 1_545
O35 Ti0 2.009873 1_655
O35 Sr5 2.626145 1_555
O35 Sr2 3.120990 1_646
O36 Ti1 2.006722 1_555
O36 Ti4 2.094788 1_545
O36 Sr4 3.098167 1_555
O36 Sr0 3.261755 1_645
O37 Ti5 1.962255 1_545
O37 Sr5 2.529949 1_555
O37 Sr4 2.851701 1_555
O37 Sr0 3.021277 1_645
O38 Ti2 2.021037 1_555
O38 Ti7 2.080931 1_545
O38 Sr3 3.072929 1_555
O38 Sr1 3.275168 1_645
O39 Ti8 1.992441 1_545
O39 Sr3 2.856563 1_555
O39 Sr1 3.113749 1_645
O40 Ti6 1.933621 1_545
O41 Ti9 1.961919 1_555
O42 Ti10 1.956279 1_555
O43 Ti11 1.934702 1_555
O44 Ti12 1.973567 1_545
O44 Sr2 3.205745 1_645
O45 Ti5 1.961907 1_545
O45 Sr5 2.599939 1_555
O45 Sr0 2.833295 1_545
O45 Sr4 3.102446 1_555
O46 Ti8 1.987443 1_545
O46 Sr1 2.876709 1_545
O46 Sr3 3.122371 1_555
O47 Ti9 1.959250 1_555
O48 Ti10 1.962065 1_555
O49 Ti0 1.935733 1_555
O49 Ti3 2.054257 1_545
O49 Sr5 2.706544 1_555
O49 Sr2 2.897017 1_546
O50 Ti4 2.028370 1_545
O50 Ti1 2.061542 1_455
O50 Sr0 3.067842 1_545
O51 Ti7 2.017057 1_545
O51 Ti2 2.070334 1_455
O51 Sr1 3.069850 1_545
O51 Sr3 3.297687 1_555
O52 Ti6 1.937815 1_545
O53 Ti12 1.978589 1_545
O53 Sr2 2.947366 1_545
O54 Ti11 1.939700 1_555
O55 Ti4 1.878724 1_545
O55 Ti5 2.079689 1_545
O55 Sr4 2.484508 1_555
O55 Sr0 2.726582 1_545
O55 Sr0 2.940533 1_645
O55 Sr4 3.156051 1_545
O56 Ti7 1.877800 1_545
O56 Ti8 2.121766 1_545
O56 Sr3 2.479993 1_555
O56 Sr1 2.719953 1_545
O56 Sr1 2.949346 1_645
O56 Sr3 3.157674 1_545
O57 Ti9 1.993632 1_555
O57 Ti6 2.112859 1_545
O58 Ti10 1.965054 1_555
O58 Ti11 2.112005 1_555
O59 Ti12 1.990091 1_545
O59 Ti3 2.069516 1_544
O59 Sr2 2.711000 1_545
O59 Sr2 2.974468 1_645
