# generated using pymatgen
data_Nd14Cl32O
_symmetry_space_group_name_H-M   'P 1'
_cell_length_a   12.37294019
_cell_length_b   12.37294019
_cell_length_c   12.37293993
_cell_angle_alpha   57.29129107
_cell_angle_beta   57.29129107
_cell_angle_gamma   57.29128894
_symmetry_Int_Tables_number   1
_chemical_formula_structural   Nd14Cl32O
_chemical_formula_sum   'Nd14 Cl32 O1'
_cell_volume   1255.84866133
_cell_formula_units_Z   1
loop_
 _symmetry_equiv_pos_site_id
 _symmetry_equiv_pos_as_xyz
  1  'x, y, z'
loop_
 _atom_site_type_symbol
 _atom_site_label
 _atom_site_symmetry_multiplicity
 _atom_site_fract_x
 _atom_site_fract_y
 _atom_site_fract_z
 _atom_site_occupancy
  Nd  Nd0  1  0.33454900  0.54576800  0.81173200  1
  Nd  Nd1  1  0.81173200  0.33454900  0.54576800  1
  Nd  Nd2  1  0.54576800  0.81173200  0.33454900  1
  Nd  Nd3  1  0.66545100  0.45423200  0.18826800  1
  Nd  Nd4  1  0.18826800  0.66545100  0.45423200  1
  Nd  Nd5  1  0.45423200  0.18826800  0.66545100  1
  Nd  Nd6  1  0.73582400  0.73582400  0.73582400  1
  Nd  Nd7  1  0.26417600  0.26417600  0.26417600  1
  Nd  Nd8  1  0.88147600  0.01591300  0.23231600  1
  Nd  Nd9  1  0.23231600  0.88147600  0.01591300  1
  Nd  Nd10  1  0.01591300  0.23231600  0.88147600  1
  Nd  Nd11  1  0.11852400  0.98408700  0.76768400  1
  Nd  Nd12  1  0.76768400  0.11852400  0.98408700  1
  Nd  Nd13  1  0.98408700  0.76768400  0.11852400  1
  Cl  Cl0  1  0.23645600  0.46633400  0.71033300  1
  Cl  Cl1  1  0.71033300  0.23645600  0.46633400  1
  Cl  Cl2  1  0.46633400  0.71033300  0.23645600  1
  Cl  Cl3  1  0.76354400  0.53366600  0.28966700  1
  Cl  Cl4  1  0.28966700  0.76354400  0.53366600  1
  Cl  Cl5  1  0.53366600  0.28966700  0.76354400  1
  Cl  Cl6  1  0.93702900  0.85112900  0.57885100  1
  Cl  Cl7  1  0.57885100  0.93702900  0.85112900  1
  Cl  Cl8  1  0.85112900  0.57885100  0.93702900  1
  Cl  Cl9  1  0.06297100  0.14887100  0.42114900  1
  Cl  Cl10  1  0.42114900  0.06297100  0.14887100  1
  Cl  Cl11  1  0.14887100  0.42114900  0.06297100  1
  Cl  Cl12  1  0.39297100  0.01541600  0.44660900  1
  Cl  Cl13  1  0.44660900  0.39297100  0.01541600  1
  Cl  Cl14  1  0.01541600  0.44660900  0.39297100  1
  Cl  Cl15  1  0.60702900  0.98458400  0.55339100  1
  Cl  Cl16  1  0.55339100  0.60702900  0.98458400  1
  Cl  Cl17  1  0.98458400  0.55339100  0.60702900  1
  Cl  Cl18  1  0.37513400  0.78171000  0.78653500  1
  Cl  Cl19  1  0.78653500  0.37513400  0.78171000  1
  Cl  Cl20  1  0.78171000  0.78653500  0.37513400  1
  Cl  Cl21  1  0.62486600  0.21829000  0.21346500  1
  Cl  Cl22  1  0.21346500  0.62486600  0.21829000  1
  Cl  Cl23  1  0.21829000  0.21346500  0.62486600  1
  Cl  Cl24  1  0.07213000  0.74270800  0.86510500  1
  Cl  Cl25  1  0.86510500  0.07213000  0.74270800  1
  Cl  Cl26  1  0.74270800  0.86510500  0.07213000  1
  Cl  Cl27  1  0.92787000  0.25729200  0.13489500  1
  Cl  Cl28  1  0.13489500  0.92787000  0.25729200  1
  Cl  Cl29  1  0.25729200  0.13489500  0.92787000  1
  Cl  Cl30  1  0.58885800  0.58885800  0.58885800  1
  Cl  Cl31  1  0.41114200  0.41114200  0.41114200  1
  O  O0  1  0.00000000  0.00000000  0.00000000  1
loop_
_geom_bond_atom_site_label_1
_geom_bond_atom_site_label_2
_geom_bond_distance
_geom_bond_site_symmetry_2
Nd8 O0 2.489107 1_655
Nd9 O0 2.489107 1_565
Nd10 O0 2.489107 1_556
Nd11 O0 2.489107 1_566
Nd12 O0 2.489107 1_656
Nd13 O0 2.489107 1_665
Cl0 Nd0 2.877584 1_555
Cl0 Nd4 2.912609 1_555
Cl0 Nd5 3.136014 1_555
Cl1 Nd1 2.877584 1_555
Cl1 Nd5 2.912609 1_555
Cl1 Nd3 3.136014 1_555
Cl2 Nd2 2.877584 1_555
Cl2 Nd3 2.912609 1_555
Cl2 Nd4 3.136014 1_555
Cl3 Nd3 2.877584 1_555
Cl3 Nd1 2.912609 1_555
Cl3 Nd2 3.136014 1_555
Cl4 Nd4 2.877584 1_555
Cl4 Nd2 2.912609 1_555
Cl4 Nd0 3.136014 1_555
Cl5 Nd5 2.877584 1_555
Cl5 Nd0 2.912609 1_555
Cl5 Nd1 3.136014 1_555
Cl6 Nd6 2.761064 1_555
Cl6 Nd4 2.872058 1_655
Cl7 Nd6 2.761064 1_555
Cl7 Nd5 2.872058 1_565
Cl8 Nd6 2.761064 1_555
Cl8 Nd3 2.872058 1_556
Cl9 Nd7 2.761064 1_555
Cl9 Nd1 2.872058 1_455
Cl10 Nd7 2.761064 1_555
Cl10 Nd2 2.872058 1_545
Cl11 Nd7 2.761064 1_555
Cl11 Nd0 2.872058 1_554
Cl12 Nd2 2.764440 1_545
Cl12 Nd7 2.861152 1_555
Cl13 Nd0 2.764440 1_554
Cl13 Nd7 2.861152 1_555
Cl14 Nd1 2.764440 1_455
Cl14 Nd7 2.861152 1_555
Cl15 Nd5 2.764440 1_565
Cl15 Nd6 2.861152 1_555
Cl16 Nd3 2.764440 1_556
Cl16 Nd6 2.861152 1_555
Cl17 Nd4 2.764440 1_655
Cl17 Nd6 2.861152 1_555
Cl18 Nd11 2.825277 1_555
Cl18 Nd9 2.951233 1_556
Cl18 Nd0 3.050106 1_555
Cl19 Nd12 2.825277 1_555
Cl19 Nd10 2.951233 1_655
Cl19 Nd1 3.050106 1_555
Cl20 Nd13 2.825277 1_555
Cl20 Nd8 2.951233 1_565
Cl20 Nd2 3.050106 1_555
Cl21 Nd8 2.825277 1_555
Cl21 Nd12 2.951233 1_554
Cl21 Nd3 3.050106 1_555
Cl22 Nd9 2.825277 1_555
Cl22 Nd13 2.951233 1_455
Cl22 Nd4 3.050106 1_555
Cl23 Nd10 2.825277 1_555
Cl23 Nd11 2.951233 1_545
Cl23 Nd5 3.050106 1_555
Cl24 Nd0 2.790571 1_555
Cl24 Nd11 2.813617 1_555
Cl24 Nd13 2.847049 1_456
Cl25 Nd1 2.790571 1_555
Cl25 Nd12 2.813617 1_555
Cl25 Nd11 2.847049 1_645
Cl26 Nd2 2.790571 1_555
Cl26 Nd13 2.813617 1_555
Cl26 Nd12 2.847049 1_564
Cl27 Nd3 2.790571 1_555
Cl27 Nd8 2.813617 1_555
Cl27 Nd10 2.847049 1_654
Cl28 Nd4 2.790571 1_555
Cl28 Nd9 2.813617 1_555
Cl28 Nd8 2.847049 1_465
Cl29 Nd5 2.790571 1_555
Cl29 Nd10 2.813617 1_555
Cl29 Nd9 2.847049 1_546
Cl30 Nd1 2.938713 1_555
Cl30 Nd2 2.938713 1_555
Cl30 Nd0 2.938713 1_555
Cl31 Nd4 2.938713 1_555
Cl31 Nd5 2.938713 1_555
Cl31 Nd3 2.938713 1_555
