# generated using pymatgen
data_LaTiNbBi2O9
_symmetry_space_group_name_H-M   'P 1'
_cell_length_a   5.46544200
_cell_length_b   5.46697100
_cell_length_c   25.38180000
_cell_angle_alpha   90.00000000
_cell_angle_beta   90.00000000
_cell_angle_gamma   90.00000000
_symmetry_Int_Tables_number   1
_chemical_formula_structural   LaTiNbBi2O9
_chemical_formula_sum   'La4 Ti4 Nb4 Bi8 O36'
_cell_volume   758.39328276
_cell_formula_units_Z   4
loop_
 _symmetry_equiv_pos_site_id
 _symmetry_equiv_pos_as_xyz
  1  'x, y, z'
loop_
 _atom_site_type_symbol
 _atom_site_label
 _atom_site_symmetry_multiplicity
 _atom_site_fract_x
 _atom_site_fract_y
 _atom_site_fract_z
 _atom_site_occupancy
  La  La0  1  0.50000000  0.50000000  0.00000000  1
  La  La1  1  0.50000000  0.00000000  0.50000000  1
  La  La2  1  0.00000000  0.00000000  0.00000000  1
  La  La3  1  0.00000000  0.50000000  0.50000000  1
  Ti  Ti0  1  0.00354000  0.50000000  0.08757900  1
  Ti  Ti1  1  0.49646000  0.50000000  0.58757900  1
  Ti  Ti2  1  0.99646000  0.50000000  0.91242100  1
  Ti  Ti3  1  0.50354000  0.50000000  0.41242100  1
  Nb  Nb0  1  0.99876400  0.00000000  0.58869700  1
  Nb  Nb1  1  0.49876400  0.00000000  0.91130300  1
  Nb  Nb2  1  0.00123600  0.00000000  0.41130300  1
  Nb  Nb3  1  0.50123600  0.00000000  0.08869700  1
  Bi  Bi0  1  0.50176700  0.50000000  0.19981900  1
  Bi  Bi1  1  0.48662400  0.00000000  0.69991700  1
  Bi  Bi2  1  0.51337600  0.00000000  0.30008300  1
  Bi  Bi3  1  0.01337600  0.00000000  0.19991700  1
  Bi  Bi4  1  0.99823300  0.50000000  0.69981900  1
  Bi  Bi5  1  0.49823300  0.50000000  0.80018100  1
  Bi  Bi6  1  0.00176700  0.50000000  0.30018100  1
  Bi  Bi7  1  0.98662400  0.00000000  0.80008300  1
  O  O0  1  0.74904000  0.74653500  0.07480800  1
  O  O1  1  0.75727700  0.25033400  0.24955400  1
  O  O2  1  0.00000000  0.00000000  0.50000000  1
  O  O3  1  0.25727700  0.74966600  0.25044600  1
  O  O4  1  0.25096000  0.25346500  0.92519200  1
  O  O5  1  0.74638600  0.24923800  0.42655700  1
  O  O6  1  0.75096000  0.74653500  0.57480800  1
  O  O7  1  0.25727700  0.25033400  0.25044600  1
  O  O8  1  0.25361400  0.75076200  0.57344300  1
  O  O9  1  0.00443800  0.00000000  0.66320000  1
  O  O10  1  0.49556200  0.00000000  0.16320000  1
  O  O11  1  0.25361400  0.24923800  0.57344300  1
  O  O12  1  0.50000000  0.50000000  0.50000000  1
  O  O13  1  0.75361400  0.75076200  0.92655700  1
  O  O14  1  0.24904000  0.74653500  0.42519200  1
  O  O15  1  0.75727700  0.74966600  0.24955400  1
  O  O16  1  0.01776200  0.50000000  0.15928500  1
  O  O17  1  0.24904000  0.25346500  0.42519200  1
  O  O18  1  0.75096000  0.25346500  0.57480800  1
  O  O19  1  0.48223800  0.50000000  0.65928500  1
  O  O20  1  0.24272300  0.25033400  0.75044600  1
  O  O21  1  0.74272300  0.74966600  0.74955400  1
  O  O22  1  0.24638600  0.75076200  0.07344300  1
  O  O23  1  0.99556200  0.00000000  0.33680000  1
  O  O24  1  0.50443800  0.00000000  0.83680000  1
  O  O25  1  0.00000000  0.50000000  0.00000000  1
  O  O26  1  0.51776200  0.50000000  0.34071500  1
  O  O27  1  0.24638600  0.24923800  0.07344300  1
  O  O28  1  0.98223800  0.50000000  0.84071500  1
  O  O29  1  0.25096000  0.74653500  0.92519200  1
  O  O30  1  0.50000000  0.00000000  0.00000000  1
  O  O31  1  0.75361400  0.24923800  0.92655700  1
  O  O32  1  0.74638600  0.75076200  0.42655700  1
  O  O33  1  0.74904000  0.25346500  0.07480800  1
  O  O34  1  0.74272300  0.25033400  0.74955400  1
  O  O35  1  0.24272300  0.74966600  0.75044600  1
loop_
_geom_bond_atom_site_label_1
_geom_bond_atom_site_label_2
_geom_bond_distance
_geom_bond_site_symmetry_2
La0 O33 2.697126 1_555
La0 O0 2.697126 1_555
La0 O4 2.697126 1_554
La0 O29 2.697126 1_554
La0 O22 2.697337 1_555
La0 O13 2.697337 1_554
La0 O27 2.697337 1_555
La0 O31 2.697337 1_554
La0 O25 2.732721 1_555
La0 O25 2.732721 1_655
La0 O30 2.733486 1_555
La0 O30 2.733486 1_565
La1 O11 2.672994 1_555
La1 O8 2.672994 1_545
La1 O5 2.672994 1_555
La1 O32 2.672994 1_545
La1 O6 2.721530 1_545
La1 O18 2.721530 1_555
La1 O14 2.721530 1_545
La1 O17 2.721530 1_555
La1 O2 2.732721 1_655
La1 O2 2.732721 1_555
La1 O12 2.733486 1_555
La1 O12 2.733486 1_545
La2 O27 2.672994 1_555
La2 O31 2.672994 1_454
La2 O22 2.672994 1_545
La2 O13 2.672994 1_444
La2 O0 2.721530 1_445
La2 O33 2.721530 1_455
La2 O29 2.721530 1_544
La2 O4 2.721530 1_554
La2 O30 2.732721 1_455
La2 O30 2.732721 1_555
La2 O25 2.733486 1_555
La2 O25 2.733486 1_545
La3 O18 2.697126 1_455
La3 O6 2.697126 1_455
La3 O17 2.697126 1_555
La3 O14 2.697126 1_555
La3 O8 2.697337 1_555
La3 O11 2.697337 1_555
La3 O32 2.697337 1_455
La3 O5 2.697337 1_455
La3 O12 2.732721 1_555
La3 O12 2.732721 1_455
La3 O2 2.733486 1_555
La3 O2 2.733486 1_565
Nb0 O9 1.891275 1_655
Nb0 O18 1.969438 1_555
Nb0 O6 1.969438 1_545
Nb0 O11 1.986605 1_655
Nb0 O8 1.986605 1_645
Nb0 O2 2.251300 1_655
Nb1 O24 1.891275 1_555
Nb1 O4 1.969438 1_555
Nb1 O29 1.969438 1_545
Nb1 O31 1.986605 1_555
Nb1 O13 1.986605 1_545
Nb1 O30 2.251300 1_556
Nb2 O23 1.891275 1_455
Nb2 O17 1.969438 1_555
Nb2 O14 1.969438 1_545
Nb2 O5 1.986605 1_455
Nb2 O32 1.986605 1_445
Nb2 O2 2.251300 1_555
Nb3 O10 1.891275 1_555
Nb3 O33 1.969438 1_555
Nb3 O0 1.969438 1_545
Nb3 O27 1.986605 1_555
Nb3 O22 1.986605 1_545
Nb3 O30 2.251300 1_555
Bi0 O3 2.302127 1_555
Bi0 O7 2.302127 1_555
Bi0 O15 2.325232 1_555
Bi0 O1 2.325232 1_555
Bi1 O20 2.301041 1_555
Bi1 O35 2.301041 1_545
Bi1 O34 2.327963 1_555
Bi1 O21 2.327963 1_545
Bi2 O1 2.301041 1_555
Bi2 O15 2.301041 1_545
Bi2 O7 2.327963 1_555
Bi2 O3 2.327963 1_545
Bi3 O7 2.301041 1_555
Bi3 O3 2.301041 1_545
Bi3 O1 2.327963 1_455
Bi3 O15 2.327963 1_445
Bi4 O35 2.302127 1_655
Bi4 O20 2.302127 1_655
Bi4 O21 2.325232 1_555
Bi4 O34 2.325232 1_555
Bi5 O21 2.302127 1_555
Bi5 O34 2.302127 1_555
Bi5 O35 2.325232 1_555
Bi5 O20 2.325232 1_555
Bi6 O15 2.302127 1_455
Bi6 O1 2.302127 1_455
Bi6 O3 2.325232 1_555
Bi6 O7 2.325232 1_555
Bi7 O34 2.301041 1_555
Bi7 O21 2.301041 1_545
Bi7 O20 2.327963 1_655
Bi7 O35 2.327963 1_645
O0 Ti0 1.963770 1_655
O4 Ti2 1.963770 1_455
O5 Ti3 1.941584 1_555
O6 Ti1 1.963770 1_555
O8 Ti1 1.941584 1_555
O11 Ti1 1.941584 1_555
O12 Ti1 2.222997 1_555
O12 Ti3 2.222997 1_555
O13 Ti2 1.941584 1_555
O14 Ti3 1.963770 1_555
O16 Ti0 1.821686 1_555
O17 Ti3 1.963770 1_555
O18 Ti1 1.963770 1_555
O19 Ti1 1.821686 1_555
O22 Ti0 1.941584 1_555
O25 Ti0 2.222997 1_555
O25 Ti2 2.222997 1_454
O26 Ti3 1.821686 1_555
O27 Ti0 1.941584 1_555
O28 Ti2 1.821686 1_555
O29 Ti2 1.963770 1_455
O31 Ti2 1.941584 1_555
O32 Ti3 1.941584 1_555
O33 Ti0 1.963770 1_655
