# generated using pymatgen
data_Li2MoO3
_symmetry_space_group_name_H-M   'P 1'
_cell_length_a   6.06354591
_cell_length_b   18.15964683
_cell_length_c   16.09507577
_cell_angle_alpha   19.20088062
_cell_angle_beta   55.26567990
_cell_angle_gamma   59.91908017
_symmetry_Int_Tables_number   1
_chemical_formula_structural   Li2MoO3
_chemical_formula_sum   'Li16 Mo8 O24'
_cell_volume   474.52419162
_cell_formula_units_Z   8
loop_
 _symmetry_equiv_pos_site_id
 _symmetry_equiv_pos_as_xyz
  1  'x, y, z'
loop_
 _atom_site_type_symbol
 _atom_site_label
 _atom_site_symmetry_multiplicity
 _atom_site_fract_x
 _atom_site_fract_y
 _atom_site_fract_z
 _atom_site_occupancy
  Li  Li0  1  0.97834200  0.00166900  0.00943200  1
  Li  Li1  1  0.50767800  0.01031600  0.99684300  1
  Li  Li2  1  0.50527100  0.18101700  0.98105200  1
  Li  Li3  1  0.97883300  0.48587400  0.01758700  1
  Li  Li4  1  0.50048600  0.33183600  0.99928900  1
  Li  Li5  1  0.01999900  0.18571900  0.97549100  1
  Li  Li6  1  0.50099700  0.50502900  0.99340600  1
  Li  Li7  1  0.99181400  0.33230300  0.50275600  1
  Li  Li8  1  0.00784700  0.33269400  0.99307100  1
  Li  Li9  1  0.49301800  0.16784900  0.50164400  1
  Li  Li10  1  0.49006900  0.64975700  0.01252100  1
  Li  Li11  1  0.01428100  0.66661200  0.49416200  1
  Li  Li12  1  0.01067700  0.65377700  0.01078000  1
  Li  Li13  1  0.49743700  0.49143400  0.51860700  1
  Li  Li14  1  0.99295300  0.83079200  0.00591300  1
  Li  Li15  1  0.98806900  0.00152500  0.49859600  1
  Mo  Mo0  1  0.48639200  0.01054200  0.49710700  1
  Mo  Mo1  1  0.99863600  0.49517200  0.50160500  1
  Mo  Mo2  1  0.49771900  0.33359200  0.50000300  1
  Mo  Mo3  1  0.49749800  0.82672200  0.00775600  1
  Mo  Mo4  1  0.01969000  0.17090700  0.49128300  1
  Mo  Mo5  1  0.00496400  0.83135000  0.49944700  1
  Mo  Mo6  1  0.49022700  0.66449200  0.50643000  1
  Mo  Mo7  1  0.49543700  0.83223000  0.50033600  1
  O  O0  1  0.23185300  0.07079200  0.26584100  1
  O  O1  1  0.24126600  0.24484000  0.25775500  1
  O  O2  1  0.24064000  0.39597500  0.27063700  1
  O  O3  1  0.73804300  0.07965600  0.26214900  1
  O  O4  1  0.71360500  0.22722400  0.27619900  1
  O  O5  1  0.25288200  0.58086300  0.24666500  1
  O  O6  1  0.27174900  0.08000000  0.75324500  1
  O  O7  1  0.26094900  0.26461700  0.72812600  1
  O  O8  1  0.26171500  0.74678600  0.24463000  1
  O  O9  1  0.74809900  0.40067400  0.27207000  1
  O  O10  1  0.75351700  0.08320300  0.74715000  1
  O  O11  1  0.73680000  0.58292100  0.24754600  1
  O  O12  1  0.24970700  0.91446300  0.25669100  1
  O  O13  1  0.26263000  0.43600300  0.73072500  1
  O  O14  1  0.77095700  0.26300200  0.73440000  1
  O  O15  1  0.23291400  0.57124400  0.76856000  1
  O  O16  1  0.76276900  0.73845900  0.26623400  1
  O  O17  1  0.74848200  0.43688700  0.72436000  1
  O  O18  1  0.73824200  0.91286400  0.25538000  1
  O  O19  1  0.26604800  0.77693700  0.72407400  1
  O  O20  1  0.75533100  0.59560400  0.73962300  1
  O  O21  1  0.25078600  0.91315800  0.75154000  1
  O  O22  1  0.73964500  0.76799000  0.72632400  1
  O  O23  1  0.75098400  0.92110700  0.75449300  1
loop_
_geom_bond_atom_site_label_1
_geom_bond_atom_site_label_2
_geom_bond_distance
_geom_bond_site_symmetry_2
Li0 O18 2.029583 1_545
Li0 O14 2.093155 1_554
Li0 O16 2.105028 1_545
Li0 O7 2.182723 1_654
Li0 O8 2.247700 1_645
Li0 O6 2.299980 1_654
Li1 O12 2.119612 1_546
Li1 O14 2.120616 1_555
Li1 O7 2.234692 1_555
Li1 O16 2.263352 1_546
Li1 O10 2.286770 1_555
Li1 O8 2.315267 1_546
Li2 O17 2.121777 1_555
Li2 O14 2.127205 1_555
Li2 O13 2.127827 1_555
Li2 O12 2.153844 1_546
Li2 O18 2.192225 1_546
Li2 O0 2.259049 1_556
Li3 O15 2.112654 1_654
Li3 O1 2.168772 1_655
Li3 O9 2.190489 1_555
Li3 O4 2.234162 1_555
Li3 O22 2.294401 1_554
Li3 O19 2.445119 1_654
Li4 O15 2.150679 1_555
Li4 O3 2.164252 1_556
Li4 O17 2.197813 1_555
Li4 O0 2.212660 1_556
Li4 O1 2.212985 1_556
Li4 O20 2.246847 1_555
Li5 O13 2.149810 1_555
Li5 O7 2.175878 1_555
Li5 O12 2.210475 1_546
Li5 O17 2.255364 1_455
Li5 O18 2.306627 1_446
Li5 O3 2.334028 1_456
Li6 O20 2.107877 1_555
Li6 O22 2.107942 1_555
Li6 O4 2.151030 1_556
Li6 O2 2.177377 1_556
Li6 O19 2.181779 1_555
Li6 O1 2.182139 1_556
Li7 O14 2.101283 1_555
Li7 O5 2.111133 1_655
Li7 O10 2.119203 1_555
Li7 O2 2.176559 1_655
Li7 O11 2.202479 1_555
Li7 O6 2.289344 1_655
Li8 O13 2.060477 1_555
Li8 O3 2.102928 1_456
Li8 O15 2.104043 1_555
Li8 O0 2.149713 1_556
Li8 O20 2.187191 1_455
Li8 O4 2.300726 1_456
Li9 O2 2.089137 1_555
Li9 O9 2.111252 1_555
Li9 O6 2.120467 1_555
Li9 O4 2.154894 1_555
Li9 O21 2.160681 1_545
Li9 O23 2.207387 1_545
Li10 O2 2.109749 1_555
Li10 O5 2.134972 1_555
Li10 O21 2.160576 1_554
Li10 O22 2.179935 1_554
Li10 O9 2.241314 1_555
Li10 O23 2.389052 1_554
Li11 O13 2.097209 1_555
Li11 O17 2.114297 1_455
Li11 O12 2.153088 1_555
Li11 O8 2.186300 1_555
Li11 O18 2.221700 1_455
Li11 O20 2.252801 1_455
Li12 O2 2.115128 1_555
Li12 O19 2.128386 1_554
Li12 O9 2.131650 1_455
Li12 O21 2.132491 1_554
Li12 O11 2.145856 1_455
Li12 O23 2.231285 1_454
Li13 O13 2.025544 1_555
Li13 O14 2.115823 1_555
Li13 O7 2.137643 1_555
Li13 O16 2.140827 1_555
Li13 O8 2.215381 1_555
Li13 O11 2.326354 1_555
Li14 O10 2.150941 1_564
Li14 O5 2.160997 1_655
Li14 O16 2.174306 1_555
Li14 O11 2.204485 1_555
Li14 O21 2.219789 1_654
Li14 O6 2.225055 1_664
Li15 O22 2.107608 1_545
Li15 O0 2.110625 1_655
Li15 O1 2.138942 1_655
Li15 O4 2.149895 1_555
Li15 O19 2.183816 1_645
Li15 O23 2.271529 1_545
Mo0 O4 1.857652 1_555
Mo0 O19 1.994042 1_545
Mo0 O21 2.031235 1_545
Mo0 O22 2.086448 1_545
Mo0 O1 2.092893 1_555
Mo0 O3 2.141072 1_555
Mo1 O14 1.955488 1_555
Mo1 O16 2.035698 1_555
Mo1 O7 2.110281 1_655
Mo1 O17 2.126052 1_555
Mo1 O8 2.150127 1_655
Mo1 O5 2.184358 1_655
Mo2 O6 2.051089 1_555
Mo2 O7 2.054420 1_555
Mo2 O11 2.057044 1_555
Mo2 O9 2.076960 1_555
Mo2 O5 2.151040 1_555
Mo2 O10 2.168628 1_555
Mo3 O8 2.025508 1_555
Mo3 O23 2.054613 1_554
Mo3 O11 2.066578 1_555
Mo3 O6 2.073993 1_564
Mo3 O10 2.150799 1_564
Mo3 O5 2.152418 1_555
Mo4 O2 1.940169 1_555
Mo4 O1 2.063377 1_555
Mo4 O23 2.103849 1_445
Mo4 O9 2.120838 1_455
Mo4 O21 2.121480 1_545
Mo4 O10 2.171536 1_455
Mo5 O20 2.032997 1_455
Mo5 O0 2.039562 1_565
Mo5 O12 2.060600 1_555
Mo5 O22 2.114674 1_455
Mo5 O15 2.148938 1_555
Mo5 O3 2.177086 1_465
Mo6 O13 1.981108 1_555
Mo6 O17 2.056090 1_555
Mo6 O18 2.093986 1_555
Mo6 O12 2.114458 1_555
Mo6 O16 2.148933 1_555
Mo6 O15 2.180684 1_555
Mo7 O18 2.120944 1_555
Mo7 O0 2.148932 1_565
Mo7 O20 2.156683 1_555
Mo7 O3 2.171363 1_565
Mo7 O15 2.172648 1_555
Mo7 O19 2.184840 1_555
